# generated using pymatgen
data_Tb3PO7
_symmetry_space_group_name_H-M   'P 1'
_cell_length_a   9.04415307
_cell_length_b   9.04415307
_cell_length_c   12.03490801
_cell_angle_alpha   77.25644353
_cell_angle_beta   77.25644353
_cell_angle_gamma   90.58744125
_symmetry_Int_Tables_number   1
_chemical_formula_structural   Tb3PO7
_chemical_formula_sum   'Tb18 P6 O42'
_cell_volume   934.71783347
_cell_formula_units_Z   6
loop_
 _symmetry_equiv_pos_site_id
 _symmetry_equiv_pos_as_xyz
  1  'x, y, z'
loop_
 _atom_site_type_symbol
 _atom_site_label
 _atom_site_symmetry_multiplicity
 _atom_site_fract_x
 _atom_site_fract_y
 _atom_site_fract_z
 _atom_site_occupancy
  Tb  Tb0  1  0.67493900  0.98731600  0.91449000  1
  Tb  Tb1  1  0.98731600  0.67493900  0.91449000  1
  Tb  Tb2  1  0.31363500  0.70659100  0.68609100  1
  Tb  Tb3  1  0.70659100  0.31363500  0.68609100  1
  Tb  Tb4  1  0.32917500  0.67903200  0.99663500  1
  Tb  Tb5  1  0.67903200  0.32917500  0.99663500  1
  Tb  Tb6  1  0.34876900  0.03342800  0.79792000  1
  Tb  Tb7  1  0.03342800  0.34876900  0.79792000  1
  Tb  Tb8  1  0.33584500  0.98275600  0.13250700  1
  Tb  Tb9  1  0.98275600  0.33584500  0.13250700  1
  Tb  Tb10  1  0.68426000  0.03721000  0.23870300  1
  Tb  Tb11  1  0.03721000  0.68426000  0.23870300  1
  Tb  Tb12  1  0.67068000  0.98717500  0.57384100  1
  Tb  Tb13  1  0.98717500  0.67068000  0.57384100  1
  Tb  Tb14  1  0.34156400  0.69150800  0.37486600  1
  Tb  Tb15  1  0.69150800  0.34156400  0.37486600  1
  Tb  Tb16  1  0.34463100  0.03319900  0.45663200  1
  Tb  Tb17  1  0.03319900  0.34463100  0.45663200  1
  P  P0  1  0.34286500  0.34286500  0.95197500  1
  P  P1  1  0.01396400  0.01396400  0.36583300  1
  P  P2  1  0.67913400  0.67913400  0.41881500  1
  P  P3  1  0.67399100  0.67399100  0.79773800  1
  P  P4  1  0.00510000  0.00510000  0.00414700  1
  P  P5  1  0.34951400  0.34951400  0.57427200  1
  O  O0  1  0.61465200  0.06514800  0.74144700  1
  O  O1  1  0.06514800  0.61465200  0.74144700  1
  O  O2  1  0.57920900  0.57920900  0.36706600  1
  O  O3  1  0.30775800  0.30775800  0.46496600  1
  O  O4  1  0.50676400  0.70451200  0.79531400  1
  O  O5  1  0.70451200  0.50676400  0.79531400  1
  O  O6  1  0.30112500  0.71956400  0.18525600  1
  O  O7  1  0.71956400  0.30112500  0.18525600  1
  O  O8  1  0.44121300  0.44121300  0.00641100  1
  O  O9  1  0.57296400  0.77184500  0.49368300  1
  O  O10  1  0.77184500  0.57296400  0.49368300  1
  O  O11  1  0.91255900  0.91255900  0.47833700  1
  O  O12  1  0.40302500  0.95664600  0.62993600  1
  O  O13  1  0.95664600  0.40302500  0.62993600  1
  O  O14  1  0.78633100  0.78633100  0.30877800  1
  O  O15  1  0.10591700  0.10591700  0.89150900  1
  O  O16  1  0.21889200  0.79658300  0.84957600  1
  O  O17  1  0.79658300  0.21889200  0.84957600  1
  O  O18  1  0.58709600  0.08429300  0.07439500  1
  O  O19  1  0.08429300  0.58709600  0.07439500  1
  O  O20  1  0.70922600  0.70922600  0.91124900  1
  O  O21  1  0.43307900  0.93558300  0.29738200  1
  O  O22  1  0.93558300  0.43307900  0.29738200  1
  O  O23  1  0.12378100  0.12378100  0.39911100  1
  O  O24  1  0.24675100  0.24675100  0.68608900  1
  O  O25  1  0.78138500  0.78138500  0.69065200  1
  O  O26  1  0.89498800  0.89498800  0.97161600  1
  O  O27  1  0.23405600  0.23405600  0.05982700  1
  O  O28  1  0.45101600  0.25215300  0.87666300  1
  O  O29  1  0.25215300  0.45101600  0.87666300  1
  O  O30  1  0.51774200  0.31999700  0.57287000  1
  O  O31  1  0.31999700  0.51774200  0.57287000  1
  O  O32  1  0.42721500  0.91548200  0.96314100  1
  O  O33  1  0.91548200  0.42721500  0.96314100  1
  O  O34  1  0.59277700  0.10618100  0.40773300  1
  O  O35  1  0.10618100  0.59277700  0.40773300  1
  O  O36  1  0.22217200  0.80192300  0.52215700  1
  O  O37  1  0.80192300  0.22217200  0.52215700  1
  O  O38  1  0.11301900  0.91476600  0.29396000  1
  O  O39  1  0.91476600  0.11301900  0.29396000  1
  O  O40  1  0.10528500  0.90604500  0.07540500  1
  O  O41  1  0.90604500  0.10528500  0.07540500  1
loop_
_geom_bond_atom_site_label_1
_geom_bond_atom_site_label_2
_geom_bond_distance
_geom_bond_site_symmetry_2
O0 Tb0 2.234261 1_545
O0 Tb12 2.237591 1_545
O0 Tb3 2.289673 1_555
O0 Tb6 2.346389 1_555
O1 Tb1 2.234261 1_455
O1 Tb13 2.237591 1_455
O1 Tb2 2.289673 1_555
O1 Tb7 2.346389 1_555
O2 P2 1.581528 1_555
O2 Tb14 2.378581 1_555
O2 Tb15 2.378581 1_555
O3 P5 1.565619 1_555
O3 Tb17 2.529709 1_555
O3 Tb16 2.529709 1_555
O4 P3 1.545624 1_555
O4 Tb2 2.404551 1_555
O4 Tb4 2.555856 1_555
O5 P3 1.545624 1_555
O5 Tb3 2.404551 1_555
O5 Tb5 2.555856 1_555
O6 Tb8 2.323302 1_555
O6 Tb11 2.330096 1_555
O6 Tb4 2.338112 1_554
O6 Tb14 2.349478 1_555
O7 Tb9 2.323302 1_555
O7 Tb10 2.330096 1_555
O7 Tb5 2.338112 1_554
O7 Tb15 2.349478 1_555
O8 P0 1.584131 1_554
O8 Tb5 2.377496 1_554
O8 Tb4 2.377496 1_554
O9 P2 1.550827 1_555
O9 Tb12 2.583411 1_555
O9 Tb2 2.860763 1_555
O10 P2 1.550827 1_555
O10 Tb13 2.583411 1_555
O10 Tb3 2.860763 1_555
O11 P1 1.550019 1_665
O11 Tb13 2.413550 1_555
O11 Tb12 2.413550 1_555
O12 Tb16 2.228180 1_565
O12 Tb6 2.235815 1_565
O12 Tb2 2.296095 1_555
O12 Tb12 2.361128 1_555
O13 Tb17 2.228180 1_655
O13 Tb7 2.235815 1_655
O13 Tb3 2.296095 1_555
O13 Tb13 2.361128 1_555
O14 P2 1.575274 1_555
O14 Tb10 2.500790 1_565
O14 Tb11 2.500790 1_655
O15 P4 1.546846 1_556
O15 Tb7 2.405508 1_555
O15 Tb6 2.405508 1_555
O16 Tb1 2.249210 1_455
O16 Tb4 2.286457 1_555
O16 Tb2 2.290159 1_555
O16 Tb6 2.322371 1_565
O17 Tb0 2.249210 1_545
O17 Tb5 2.286457 1_555
O17 Tb3 2.290159 1_555
O17 Tb7 2.322371 1_655
O18 Tb5 2.275262 1_554
O18 Tb0 2.277792 1_544
O18 Tb10 2.294909 1_555
O18 Tb8 2.338537 1_545
O19 Tb4 2.275262 1_554
O19 Tb1 2.277792 1_454
O19 Tb11 2.294909 1_555
O19 Tb9 2.338537 1_455
O20 P3 1.565679 1_555
O20 Tb1 2.545052 1_555
O20 Tb0 2.545052 1_555
O21 Tb14 2.267454 1_555
O21 Tb16 2.275329 1_565
O21 Tb8 2.301451 1_555
O21 Tb10 2.338221 1_565
O22 Tb15 2.267454 1_555
O22 Tb17 2.275329 1_655
O22 Tb9 2.301451 1_555
O22 Tb11 2.338221 1_655
O23 P1 1.569729 1_555
O23 Tb16 2.352309 1_555
O23 Tb17 2.352309 1_555
O24 P5 1.554747 1_555
O24 Tb7 2.413250 1_555
O24 Tb6 2.413250 1_555
O25 P3 1.556883 1_555
O25 Tb12 2.438785 1_555
O25 Tb13 2.438785 1_555
O26 P4 1.568590 1_666
O26 Tb0 2.348425 1_555
O26 Tb1 2.348425 1_555
O27 P0 1.573121 1_554
O27 Tb8 2.509838 1_545
O27 Tb9 2.509838 1_455
O28 P0 1.550717 1_555
O28 Tb6 2.615832 1_555
O28 Tb3 2.825673 1_555
O29 P0 1.550717 1_555
O29 Tb7 2.615832 1_555
O29 Tb2 2.825673 1_555
O30 P5 1.544487 1_555
O30 Tb3 2.402367 1_555
O30 Tb15 2.514523 1_555
O31 P5 1.544487 1_555
O31 Tb2 2.402367 1_555
O31 Tb14 2.514523 1_555
O32 Tb4 2.223730 1_555
O32 Tb0 2.237886 1_555
O32 Tb8 2.241003 1_556
O32 Tb6 2.301564 1_565
O33 Tb5 2.223730 1_555
O33 Tb1 2.237886 1_555
O33 Tb9 2.241003 1_556
O33 Tb7 2.301564 1_655
O34 Tb15 2.217985 1_555
O34 Tb16 2.243731 1_555
O34 Tb10 2.244938 1_555
O34 Tb12 2.310611 1_545
O35 Tb14 2.217985 1_555
O35 Tb17 2.243731 1_555
O35 Tb11 2.244938 1_555
O35 Tb13 2.310611 1_455
O36 Tb16 2.250148 1_565
O36 Tb14 2.294349 1_555
O36 Tb2 2.303101 1_555
O36 Tb13 2.313492 1_455
O37 Tb17 2.250148 1_655
O37 Tb15 2.294349 1_555
O37 Tb3 2.303101 1_555
O37 Tb12 2.313492 1_545
O38 P1 1.540342 1_565
O38 Tb8 2.436159 1_555
O38 Tb11 2.458030 1_555
O39 P1 1.540342 1_655
O39 Tb9 2.436159 1_555
O39 Tb10 2.458030 1_555
O40 P4 1.542575 1_565
O40 Tb11 2.442654 1_555
O40 Tb8 2.472778 1_555
O41 P4 1.542575 1_655
O41 Tb10 2.442654 1_555
O41 Tb9 2.472778 1_555
