# generated using pymatgen
data_Nb4CrSe8
_symmetry_space_group_name_H-M   'P 1'
_cell_length_a   6.97909786
_cell_length_b   6.97909786
_cell_length_c   13.83574700
_cell_angle_alpha   90.00000000
_cell_angle_beta   90.00000000
_cell_angle_gamma   119.99999866
_symmetry_Int_Tables_number   1
_chemical_formula_structural   Nb4CrSe8
_chemical_formula_sum   'Nb8 Cr2 Se16'
_cell_volume   583.62222944
_cell_formula_units_Z   2
loop_
 _symmetry_equiv_pos_site_id
 _symmetry_equiv_pos_as_xyz
  1  'x, y, z'
loop_
 _atom_site_type_symbol
 _atom_site_label
 _atom_site_symmetry_multiplicity
 _atom_site_fract_x
 _atom_site_fract_y
 _atom_site_fract_z
 _atom_site_occupancy
  Nb  Nb0  1  0.00000000  0.00000000  0.00000000  1
  Nb  Nb1  1  0.50000000  0.00000000  0.50000000  1
  Nb  Nb2  1  0.50000000  0.50000000  0.00000000  1
  Nb  Nb3  1  0.00000000  0.50000000  0.00000000  1
  Nb  Nb4  1  0.00000000  0.50000000  0.50000000  1
  Nb  Nb5  1  0.50000000  0.50000000  0.50000000  1
  Nb  Nb6  1  0.50000000  0.00000000  0.00000000  1
  Nb  Nb7  1  0.00000000  0.00000000  0.50000000  1
  Cr  Cr0  1  0.00000000  0.00000000  0.25000000  1
  Cr  Cr1  1  0.00000000  0.00000000  0.75000000  1
  Se  Se0  1  0.83260800  0.16739200  0.87680900  1
  Se  Se1  1  0.16739200  0.83260800  0.37680900  1
  Se  Se2  1  0.16739200  0.33478400  0.37680900  1
  Se  Se3  1  0.66521600  0.83260800  0.37680900  1
  Se  Se4  1  0.33478400  0.16739200  0.87680900  1
  Se  Se5  1  0.83260800  0.66521600  0.62319100  1
  Se  Se6  1  0.33333300  0.66666700  0.87905200  1
  Se  Se7  1  0.83260800  0.66521600  0.87680900  1
  Se  Se8  1  0.33333300  0.66666700  0.62094800  1
  Se  Se9  1  0.66666700  0.33333300  0.12094800  1
  Se  Se10  1  0.66666700  0.33333300  0.37905200  1
  Se  Se11  1  0.16739200  0.33478400  0.12319100  1
  Se  Se12  1  0.66521600  0.83260800  0.12319100  1
  Se  Se13  1  0.83260800  0.16739200  0.62319100  1
  Se  Se14  1  0.33478400  0.16739200  0.62319100  1
  Se  Se15  1  0.16739200  0.83260800  0.12319100  1
loop_
_geom_bond_atom_site_label_1
_geom_bond_atom_site_label_2
_geom_bond_distance
_geom_bond_site_symmetry_2
Nb0 Se15 2.645658 1_545
Nb0 Se0 2.645658 1_454
Nb0 Se12 2.645658 1_445
Nb0 Se11 2.645658 1_555
Nb0 Se4 2.645658 1_554
Nb0 Se7 2.645658 1_444
Nb1 Se10 2.619020 1_555
Nb1 Se8 2.619020 1_545
Nb1 Se3 2.635623 1_545
Nb1 Se14 2.635623 1_555
Nb1 Se1 2.635623 1_545
Nb1 Se13 2.635623 1_555
Nb2 Se9 2.619024 1_555
Nb2 Se6 2.619024 1_554
Nb2 Se11 2.635623 1_555
Nb2 Se12 2.635623 1_555
Nb2 Se7 2.635623 1_554
Nb2 Se4 2.635623 1_554
Nb3 Se9 2.619020 1_455
Nb3 Se6 2.619020 1_554
Nb3 Se11 2.635623 1_555
Nb3 Se7 2.635623 1_454
Nb3 Se15 2.635623 1_555
Nb3 Se0 2.635623 1_454
Nb4 Se10 2.619020 1_455
Nb4 Se8 2.619020 1_555
Nb4 Se2 2.635623 1_555
Nb4 Se5 2.635623 1_455
Nb4 Se1 2.635623 1_555
Nb4 Se13 2.635623 1_455
Nb5 Se10 2.619024 1_555
Nb5 Se8 2.619024 1_555
Nb5 Se3 2.635623 1_555
Nb5 Se2 2.635623 1_555
Nb5 Se14 2.635623 1_555
Nb5 Se5 2.635623 1_555
Nb6 Se9 2.619020 1_555
Nb6 Se6 2.619020 1_544
Nb6 Se12 2.635623 1_545
Nb6 Se4 2.635623 1_554
Nb6 Se15 2.635623 1_545
Nb6 Se0 2.635623 1_554
Nb7 Se1 2.645658 1_545
Nb7 Se13 2.645658 1_455
Nb7 Se3 2.645658 1_445
Nb7 Se14 2.645658 1_555
Nb7 Se2 2.645658 1_555
Nb7 Se5 2.645658 1_445
Cr0 Se1 2.678180 1_545
Cr0 Se15 2.678180 1_545
Cr0 Se11 2.678181 1_555
Cr0 Se2 2.678181 1_555
Cr0 Se12 2.678181 1_445
Cr0 Se3 2.678181 1_445
Cr1 Se13 2.678180 1_455
Cr1 Se0 2.678180 1_455
Cr1 Se7 2.678181 1_445
Cr1 Se5 2.678181 1_445
Cr1 Se14 2.678181 1_555
Cr1 Se4 2.678181 1_555
