# generated using pymatgen
data_Ga8(Pb3O7)3
_symmetry_space_group_name_H-M   'P 1'
_cell_length_a   13.67694500
_cell_length_b   13.67694500
_cell_length_c   13.67694500
_cell_angle_alpha   90.00000000
_cell_angle_beta   90.00000000
_cell_angle_gamma   90.00000000
_symmetry_Int_Tables_number   1
_chemical_formula_structural   Ga8(Pb3O7)3
_chemical_formula_sum   'Ga32 Pb36 O84'
_cell_volume   2558.39325490
_cell_formula_units_Z   4
loop_
 _symmetry_equiv_pos_site_id
 _symmetry_equiv_pos_as_xyz
  1  'x, y, z'
loop_
 _atom_site_type_symbol
 _atom_site_label
 _atom_site_symmetry_multiplicity
 _atom_site_fract_x
 _atom_site_fract_y
 _atom_site_fract_z
 _atom_site_occupancy
  Ga  Ga0  1  0.21863200  0.45291200  0.10613500  1
  Ga  Ga1  1  0.10613500  0.21863200  0.45291200  1
  Ga  Ga2  1  0.45291200  0.10613500  0.21863200  1
  Ga  Ga3  1  0.04708800  0.89386500  0.71863200  1
  Ga  Ga4  1  0.60613500  0.28136800  0.54708800  1
  Ga  Ga5  1  0.54708800  0.60613500  0.28136800  1
  Ga  Ga6  1  0.39386500  0.78136800  0.95291200  1
  Ga  Ga7  1  0.89386500  0.71863200  0.04708800  1
  Ga  Ga8  1  0.95291200  0.39386500  0.78136800  1
  Ga  Ga9  1  0.71863200  0.04708800  0.89386500  1
  Ga  Ga10  1  0.78136800  0.95291200  0.39386500  1
  Ga  Ga11  1  0.28136800  0.54708800  0.60613500  1
  Ga  Ga12  1  0.78136800  0.54708800  0.89386500  1
  Ga  Ga13  1  0.89386500  0.78136800  0.54708800  1
  Ga  Ga14  1  0.54708800  0.89386500  0.78136800  1
  Ga  Ga15  1  0.95291200  0.10613500  0.28136800  1
  Ga  Ga16  1  0.39386500  0.71863200  0.45291200  1
  Ga  Ga17  1  0.45291200  0.39386500  0.71863200  1
  Ga  Ga18  1  0.60613500  0.21863200  0.04708800  1
  Ga  Ga19  1  0.10613500  0.28136800  0.95291200  1
  Ga  Ga20  1  0.04708800  0.60613500  0.21863200  1
  Ga  Ga21  1  0.28136800  0.95291200  0.10613500  1
  Ga  Ga22  1  0.21863200  0.04708800  0.60613500  1
  Ga  Ga23  1  0.71863200  0.45291200  0.39386500  1
  Ga  Ga24  1  0.07681500  0.07681500  0.07681500  1
  Ga  Ga25  1  0.42318500  0.92318500  0.57681500  1
  Ga  Ga26  1  0.57681500  0.42318500  0.92318500  1
  Ga  Ga27  1  0.92318500  0.57681500  0.42318500  1
  Ga  Ga28  1  0.92318500  0.92318500  0.92318500  1
  Ga  Ga29  1  0.57681500  0.07681500  0.42318500  1
  Ga  Ga30  1  0.42318500  0.57681500  0.07681500  1
  Ga  Ga31  1  0.07681500  0.42318500  0.57681500  1
  Pb  Pb0  1  0.26130400  0.95924000  0.37738400  1
  Pb  Pb1  1  0.37738400  0.26130400  0.95924000  1
  Pb  Pb2  1  0.95924000  0.37738400  0.26130400  1
  Pb  Pb3  1  0.54076000  0.62261600  0.76130400  1
  Pb  Pb4  1  0.87738400  0.23869600  0.04076000  1
  Pb  Pb5  1  0.04076000  0.87738400  0.23869600  1
  Pb  Pb6  1  0.12261600  0.73869600  0.45924000  1
  Pb  Pb7  1  0.62261600  0.76130400  0.54076000  1
  Pb  Pb8  1  0.45924000  0.12261600  0.73869600  1
  Pb  Pb9  1  0.76130400  0.54076000  0.62261600  1
  Pb  Pb10  1  0.73869600  0.45924000  0.12261600  1
  Pb  Pb11  1  0.23869600  0.04076000  0.87738400  1
  Pb  Pb12  1  0.73869600  0.04076000  0.62261600  1
  Pb  Pb13  1  0.62261600  0.73869600  0.04076000  1
  Pb  Pb14  1  0.04076000  0.62261600  0.73869600  1
  Pb  Pb15  1  0.45924000  0.37738400  0.23869600  1
  Pb  Pb16  1  0.12261600  0.76130400  0.95924000  1
  Pb  Pb17  1  0.95924000  0.12261600  0.76130400  1
  Pb  Pb18  1  0.87738400  0.26130400  0.54076000  1
  Pb  Pb19  1  0.37738400  0.23869600  0.45924000  1
  Pb  Pb20  1  0.54076000  0.87738400  0.26130400  1
  Pb  Pb21  1  0.23869600  0.45924000  0.37738400  1
  Pb  Pb22  1  0.26130400  0.54076000  0.87738400  1
  Pb  Pb23  1  0.76130400  0.95924000  0.12261600  1
  Pb  Pb24  1  0.50000000  0.50000000  0.50000000  1
  Pb  Pb25  1  0.00000000  0.50000000  0.00000000  1
  Pb  Pb26  1  0.00000000  0.00000000  0.50000000  1
  Pb  Pb27  1  0.50000000  0.00000000  0.00000000  1
  Pb  Pb28  1  0.22572000  0.22572000  0.22572000  1
  Pb  Pb29  1  0.27428000  0.77428000  0.72572000  1
  Pb  Pb30  1  0.72572000  0.27428000  0.77428000  1
  Pb  Pb31  1  0.77428000  0.72572000  0.27428000  1
  Pb  Pb32  1  0.77428000  0.77428000  0.77428000  1
  Pb  Pb33  1  0.72572000  0.22572000  0.27428000  1
  Pb  Pb34  1  0.27428000  0.72572000  0.22572000  1
  Pb  Pb35  1  0.22572000  0.27428000  0.72572000  1
  O  O0  1  0.05695900  0.05088900  0.21043000  1
  O  O1  1  0.21043000  0.05695900  0.05088900  1
  O  O2  1  0.05088900  0.21043000  0.05695900  1
  O  O3  1  0.44911100  0.78957000  0.55695900  1
  O  O4  1  0.71043000  0.44304100  0.94911100  1
  O  O5  1  0.94911100  0.71043000  0.44304100  1
  O  O6  1  0.28957000  0.94304100  0.55088900  1
  O  O7  1  0.78957000  0.55695900  0.44911100  1
  O  O8  1  0.55088900  0.28957000  0.94304100  1
  O  O9  1  0.55695900  0.44911100  0.78957000  1
  O  O10  1  0.94304100  0.55088900  0.28957000  1
  O  O11  1  0.44304100  0.94911100  0.71043000  1
  O  O12  1  0.94304100  0.94911100  0.78957000  1
  O  O13  1  0.78957000  0.94304100  0.94911100  1
  O  O14  1  0.94911100  0.78957000  0.94304100  1
  O  O15  1  0.55088900  0.21043000  0.44304100  1
  O  O16  1  0.28957000  0.55695900  0.05088900  1
  O  O17  1  0.05088900  0.28957000  0.55695900  1
  O  O18  1  0.71043000  0.05695900  0.44911100  1
  O  O19  1  0.21043000  0.44304100  0.55088900  1
  O  O20  1  0.44911100  0.71043000  0.05695900  1
  O  O21  1  0.44304100  0.55088900  0.21043000  1
  O  O22  1  0.05695900  0.44911100  0.71043000  1
  O  O23  1  0.55695900  0.05088900  0.28957000  1
  O  O24  1  0.70738300  0.62582100  0.81229300  1
  O  O25  1  0.81229300  0.70738300  0.62582100  1
  O  O26  1  0.62582100  0.81229300  0.70738300  1
  O  O27  1  0.87417900  0.18770700  0.20738300  1
  O  O28  1  0.31229300  0.79261700  0.37417900  1
  O  O29  1  0.37417900  0.31229300  0.79261700  1
  O  O30  1  0.68770700  0.29261700  0.12582100  1
  O  O31  1  0.18770700  0.20738300  0.87417900  1
  O  O32  1  0.12582100  0.68770700  0.29261700  1
  O  O33  1  0.20738300  0.87417900  0.18770700  1
  O  O34  1  0.29261700  0.12582100  0.68770700  1
  O  O35  1  0.79261700  0.37417900  0.31229300  1
  O  O36  1  0.29261700  0.37417900  0.18770700  1
  O  O37  1  0.18770700  0.29261700  0.37417900  1
  O  O38  1  0.37417900  0.18770700  0.29261700  1
  O  O39  1  0.12582100  0.81229300  0.79261700  1
  O  O40  1  0.68770700  0.20738300  0.62582100  1
  O  O41  1  0.62582100  0.68770700  0.20738300  1
  O  O42  1  0.31229300  0.70738300  0.87417900  1
  O  O43  1  0.81229300  0.79261700  0.12582100  1
  O  O44  1  0.87417900  0.31229300  0.70738300  1
  O  O45  1  0.79261700  0.12582100  0.81229300  1
  O  O46  1  0.70738300  0.87417900  0.31229300  1
  O  O47  1  0.20738300  0.62582100  0.68770700  1
  O  O48  1  0.00000000  0.00000000  0.00000000  1
  O  O49  1  0.50000000  0.00000000  0.50000000  1
  O  O50  1  0.50000000  0.50000000  0.00000000  1
  O  O51  1  0.00000000  0.50000000  0.50000000  1
  O  O52  1  0.39460800  0.50865700  0.67179400  1
  O  O53  1  0.67179400  0.39460800  0.50865700  1
  O  O54  1  0.50865700  0.67179400  0.39460800  1
  O  O55  1  0.99134300  0.32820600  0.89460800  1
  O  O56  1  0.17179400  0.10539200  0.49134300  1
  O  O57  1  0.49134300  0.17179400  0.10539200  1
  O  O58  1  0.82820600  0.60539200  0.00865700  1
  O  O59  1  0.32820600  0.89460800  0.99134300  1
  O  O60  1  0.00865700  0.82820600  0.60539200  1
  O  O61  1  0.89460800  0.99134300  0.32820600  1
  O  O62  1  0.60539200  0.00865700  0.82820600  1
  O  O63  1  0.10539200  0.49134300  0.17179400  1
  O  O64  1  0.60539200  0.49134300  0.32820600  1
  O  O65  1  0.32820600  0.60539200  0.49134300  1
  O  O66  1  0.49134300  0.32820600  0.60539200  1
  O  O67  1  0.00865700  0.67179400  0.10539200  1
  O  O68  1  0.82820600  0.89460800  0.50865700  1
  O  O69  1  0.50865700  0.82820600  0.89460800  1
  O  O70  1  0.17179400  0.39460800  0.99134300  1
  O  O71  1  0.67179400  0.10539200  0.00865700  1
  O  O72  1  0.99134300  0.17179400  0.39460800  1
  O  O73  1  0.10539200  0.00865700  0.67179400  1
  O  O74  1  0.39460800  0.99134300  0.17179400  1
  O  O75  1  0.89460800  0.50865700  0.82820600  1
  O  O76  1  0.39168900  0.39168900  0.39168900  1
  O  O77  1  0.10831100  0.60831100  0.89168900  1
  O  O78  1  0.89168900  0.10831100  0.60831100  1
  O  O79  1  0.60831100  0.89168900  0.10831100  1
  O  O80  1  0.60831100  0.60831100  0.60831100  1
  O  O81  1  0.89168900  0.39168900  0.10831100  1
  O  O82  1  0.10831100  0.89168900  0.39168900  1
  O  O83  1  0.39168900  0.10831100  0.89168900  1
loop_
_geom_bond_atom_site_label_1
_geom_bond_atom_site_label_2
_geom_bond_distance
_geom_bond_site_symmetry_2
Ga0 O36 1.851530 1_555
Ga0 O63 1.865855 1_555
Ga0 O70 1.873809 1_554
Ga0 O16 1.880771 1_555
Ga1 O37 1.851530 1_555
Ga1 O56 1.865855 1_555
Ga1 O72 1.873809 1_455
Ga1 O17 1.880771 1_555
Ga2 O38 1.851530 1_555
Ga2 O57 1.865855 1_555
Ga2 O74 1.873809 1_545
Ga2 O23 1.880771 1_555
Ga3 O39 1.851530 1_555
Ga3 O60 1.865855 1_555
Ga3 O73 1.873809 1_565
Ga3 O12 1.880771 1_455
Ga4 O40 1.851530 1_555
Ga4 O53 1.865855 1_555
Ga4 O66 1.873809 1_555
Ga4 O15 1.880771 1_555
Ga5 O41 1.851530 1_555
Ga5 O54 1.865855 1_555
Ga5 O64 1.873809 1_555
Ga5 O21 1.880771 1_555
Ga6 O42 1.851530 1_555
Ga6 O59 1.865855 1_555
Ga6 O69 1.873809 1_555
Ga6 O20 1.880771 1_556
Ga7 O43 1.851530 1_555
Ga7 O58 1.865855 1_555
Ga7 O67 1.873809 1_655
Ga7 O14 1.880771 1_554
Ga8 O44 1.851530 1_555
Ga8 O55 1.865855 1_555
Ga8 O75 1.873809 1_555
Ga8 O22 1.880771 1_655
Ga9 O45 1.851530 1_555
Ga9 O62 1.865855 1_555
Ga9 O71 1.873809 1_556
Ga9 O13 1.880771 1_545
Ga10 O46 1.851530 1_555
Ga10 O61 1.865855 1_555
Ga10 O68 1.873809 1_555
Ga10 O18 1.880771 1_565
Ga11 O47 1.851530 1_555
Ga11 O52 1.865855 1_555
Ga11 O65 1.873809 1_555
Ga11 O19 1.880771 1_555
Ga12 O24 1.851530 1_555
Ga12 O75 1.865855 1_555
Ga12 O58 1.873809 1_556
Ga12 O4 1.880771 1_555
Ga13 O25 1.851530 1_555
Ga13 O68 1.865855 1_555
Ga13 O60 1.873809 1_655
Ga13 O5 1.880771 1_555
Ga14 O26 1.851530 1_555
Ga14 O69 1.865855 1_555
Ga14 O62 1.873809 1_565
Ga14 O11 1.880771 1_555
Ga15 O27 1.851530 1_555
Ga15 O72 1.865855 1_555
Ga15 O61 1.873809 1_545
Ga15 O0 1.880771 1_655
Ga16 O28 1.851530 1_555
Ga16 O65 1.865855 1_555
Ga16 O54 1.873809 1_555
Ga16 O3 1.880771 1_555
Ga17 O29 1.851530 1_555
Ga17 O66 1.865855 1_555
Ga17 O52 1.873809 1_555
Ga17 O9 1.880771 1_555
Ga18 O30 1.851530 1_555
Ga18 O71 1.865855 1_555
Ga18 O57 1.873809 1_555
Ga18 O8 1.880771 1_554
Ga19 O31 1.851530 1_555
Ga19 O70 1.865855 1_555
Ga19 O55 1.873809 1_455
Ga19 O2 1.880771 1_556
Ga20 O32 1.851530 1_555
Ga20 O67 1.865855 1_555
Ga20 O63 1.873809 1_555
Ga20 O10 1.880771 1_455
Ga21 O33 1.851530 1_555
Ga21 O74 1.865855 1_555
Ga21 O59 1.873809 1_554
Ga21 O1 1.880771 1_565
Ga22 O34 1.851530 1_555
Ga22 O73 1.865855 1_555
Ga22 O56 1.873809 1_555
Ga22 O6 1.880771 1_545
Ga23 O35 1.851530 1_555
Ga23 O64 1.865855 1_555
Ga23 O53 1.873809 1_555
Ga23 O7 1.880771 1_555
Ga24 O48 1.819683 1_555
Ga24 O1 1.881233 1_555
Ga24 O2 1.881233 1_555
Ga24 O0 1.881233 1_555
Ga25 O49 1.819683 1_565
Ga25 O6 1.881233 1_555
Ga25 O11 1.881233 1_555
Ga25 O3 1.881233 1_555
Ga26 O50 1.819683 1_556
Ga26 O8 1.881233 1_555
Ga26 O9 1.881233 1_555
Ga26 O4 1.881233 1_555
Ga27 O51 1.819683 1_655
Ga27 O10 1.881233 1_555
Ga27 O7 1.881233 1_555
Ga27 O5 1.881233 1_555
Ga28 O48 1.819683 1_666
Ga28 O12 1.881233 1_555
Ga28 O13 1.881233 1_555
Ga28 O14 1.881233 1_555
Ga29 O49 1.819683 1_555
Ga29 O23 1.881233 1_555
Ga29 O15 1.881233 1_555
Ga29 O18 1.881233 1_555
Ga30 O50 1.819683 1_555
Ga30 O16 1.881233 1_555
Ga30 O21 1.881233 1_555
Ga30 O20 1.881233 1_555
Ga31 O51 1.819683 1_555
Ga31 O17 1.881233 1_555
Ga31 O19 1.881233 1_555
Ga31 O22 1.881233 1_555
O0 Pb5 2.414489 1_545
O1 Pb11 2.414489 1_554
O2 Pb4 2.414489 1_455
O3 Pb7 2.414489 1_555
O4 Pb10 2.414489 1_556
O5 Pb6 2.414489 1_655
O6 Pb0 2.414489 1_555
O7 Pb9 2.414489 1_555
O8 Pb1 2.414489 1_555
O9 Pb3 2.414489 1_555
O10 Pb2 2.414489 1_555
O11 Pb8 2.414489 1_565
O12 Pb17 2.414489 1_565
O13 Pb23 2.414489 1_556
O14 Pb16 2.414489 1_655
O15 Pb19 2.414489 1_555
O16 Pb22 2.414489 1_554
O17 Pb18 2.414489 1_455
O18 Pb12 2.414489 1_555
O19 Pb21 2.414489 1_555
O20 Pb13 2.414489 1_555
O21 Pb15 2.414489 1_555
O22 Pb14 2.414489 1_555
O23 Pb20 2.414489 1_545
O24 Pb32 2.286966 1_555
O24 Pb3 2.383612 1_555
O25 Pb32 2.286966 1_555
O25 Pb9 2.383612 1_555
O26 Pb32 2.286966 1_555
O26 Pb7 2.383612 1_555
O27 Pb33 2.286966 1_555
O27 Pb4 2.383612 1_555
O28 Pb34 2.286966 1_555
O28 Pb0 2.383612 1_555
O29 Pb35 2.286966 1_555
O29 Pb1 2.383612 1_555
O30 Pb33 2.286966 1_555
O30 Pb10 2.383612 1_555
O31 Pb35 2.286966 1_555
O31 Pb11 2.383612 1_555
O32 Pb34 2.286966 1_555
O32 Pb6 2.383612 1_555
O33 Pb34 2.286966 1_555
O33 Pb5 2.383612 1_555
O34 Pb35 2.286966 1_555
O34 Pb8 2.383612 1_555
O35 Pb33 2.286966 1_555
O35 Pb2 2.383612 1_555
O36 Pb28 2.286966 1_555
O36 Pb15 2.383612 1_555
O37 Pb28 2.286966 1_555
O37 Pb21 2.383612 1_555
O38 Pb28 2.286966 1_555
O38 Pb19 2.383612 1_555
O39 Pb29 2.286966 1_555
O39 Pb16 2.383612 1_555
O40 Pb30 2.286966 1_555
O40 Pb12 2.383612 1_555
O41 Pb31 2.286966 1_555
O41 Pb13 2.383612 1_555
O42 Pb29 2.286966 1_555
O42 Pb22 2.383612 1_555
O43 Pb31 2.286966 1_555
O43 Pb23 2.383612 1_555
O44 Pb30 2.286966 1_555
O44 Pb18 2.383612 1_555
O45 Pb30 2.286966 1_555
O45 Pb17 2.383612 1_555
O46 Pb31 2.286966 1_555
O46 Pb20 2.383612 1_555
O47 Pb29 2.286966 1_555
O47 Pb14 2.383612 1_555
O52 Pb24 2.759071 1_555
O53 Pb24 2.759071 1_555
O54 Pb24 2.759071 1_555
O55 Pb25 2.759071 1_656
O56 Pb26 2.759071 1_555
O57 Pb27 2.759071 1_555
O58 Pb25 2.759071 1_655
O59 Pb27 2.759071 1_566
O60 Pb26 2.759071 1_565
O61 Pb26 2.759071 1_665
O62 Pb27 2.759071 1_556
O63 Pb25 2.759071 1_555
O64 Pb24 2.759071 1_555
O65 Pb24 2.759071 1_555
O66 Pb24 2.759071 1_555
O67 Pb25 2.759071 1_555
O68 Pb26 2.759071 1_665
O69 Pb27 2.759071 1_566
O70 Pb25 2.759071 1_556
O71 Pb27 2.759071 1_555
O72 Pb26 2.759071 1_655
O73 Pb26 2.759071 1_555
O74 Pb27 2.759071 1_565
O75 Pb25 2.759071 1_656
O76 Pb15 2.295716 1_555
O76 Pb19 2.295716 1_555
O76 Pb21 2.295716 1_555
O76 Pb24 2.565797 1_555
O77 Pb14 2.295716 1_555
O77 Pb16 2.295716 1_555
O77 Pb22 2.295716 1_555
O77 Pb25 2.565797 1_556
O78 Pb12 2.295716 1_555
O78 Pb17 2.295716 1_555
O78 Pb18 2.295716 1_555
O78 Pb26 2.565797 1_655
O79 Pb13 2.295716 1_555
O79 Pb23 2.295716 1_555
O79 Pb20 2.295716 1_555
O79 Pb27 2.565797 1_565
O80 Pb7 2.295716 1_555
O80 Pb3 2.295716 1_555
O80 Pb9 2.295716 1_555
O80 Pb24 2.565797 1_555
O81 Pb10 2.295716 1_555
O81 Pb2 2.295716 1_555
O81 Pb4 2.295716 1_555
O81 Pb25 2.565797 1_655
O82 Pb6 2.295716 1_555
O82 Pb0 2.295716 1_555
O82 Pb5 2.295716 1_555
O82 Pb26 2.565797 1_565
O83 Pb8 2.295716 1_555
O83 Pb1 2.295716 1_555
O83 Pb11 2.295716 1_555
O83 Pb27 2.565797 1_556
