# generated using pymatgen
data_VSiNi
_symmetry_space_group_name_H-M   'P 1'
_cell_length_a   3.50844958
_cell_length_b   5.97022268
_cell_length_c   6.87942385
_cell_angle_alpha   90.00000000
_cell_angle_beta   90.00000000
_cell_angle_gamma   90.00000000
_symmetry_Int_Tables_number   1
_chemical_formula_structural   VSiNi
_chemical_formula_sum   'V4 Si4 Ni4'
_cell_volume   144.09796158
_cell_formula_units_Z   4
loop_
 _symmetry_equiv_pos_site_id
 _symmetry_equiv_pos_as_xyz
  1  'x, y, z'
loop_
 _atom_site_type_symbol
 _atom_site_label
 _atom_site_symmetry_multiplicity
 _atom_site_fract_x
 _atom_site_fract_y
 _atom_site_fract_z
 _atom_site_occupancy
  V  V0  1  0.25000000  0.02641200  0.33445371  1
  V  V1  1  0.25000000  0.52641200  0.16554629  1
  V  V2  1  0.75000000  0.97358800  0.66554629  1
  V  V3  1  0.75000000  0.47358800  0.83445371  1
  Si  Si0  1  0.25000000  0.27059577  0.63043532  1
  Si  Si1  1  0.25000000  0.77059577  0.86956468  1
  Si  Si2  1  0.75000000  0.72940423  0.36956468  1
  Si  Si3  1  0.75000000  0.22940423  0.13043532  1
  Ni  Ni0  1  0.25000000  0.14429928  0.93988180  1
  Ni  Ni1  1  0.25000000  0.64429928  0.56011820  1
  Ni  Ni2  1  0.75000000  0.85570072  0.06011820  1
  Ni  Ni3  1  0.75000000  0.35570072  0.43988180  1
loop_
_geom_bond_atom_site_label_1
_geom_bond_atom_site_label_2
_geom_bond_distance
_geom_bond_site_symmetry_2
Si0 V0 2.504259 1_555
Si0 V2 2.505972 1_545
Si0 V2 2.505972 1_445
Si0 V3 2.552630 1_455
Si0 V3 2.552630 1_555
Si1 V1 2.504259 1_556
Si1 V3 2.505972 1_455
Si1 V3 2.505972 1_555
Si1 V2 2.552630 1_555
Si1 V2 2.552630 1_455
Si2 V2 2.504259 1_555
Si2 V0 2.505972 1_565
Si2 V0 2.505972 1_665
Si2 V1 2.552630 1_555
Si2 V1 2.552630 1_655
Si3 V3 2.504259 1_554
Si3 V1 2.505972 1_655
Si3 V1 2.505972 1_555
Si3 V0 2.552630 1_655
Si3 V0 2.552630 1_555
Ni0 Si3 2.248093 1_456
Ni0 Si3 2.248093 1_556
Ni0 Si0 2.258404 1_555
Ni0 Si1 2.282933 1_545
Ni0 Ni2 2.594266 1_446
Ni0 Ni2 2.594266 1_546
Ni0 V3 2.732803 1_455
Ni0 V3 2.732803 1_555
Ni0 V1 2.759419 1_556
Ni0 V2 2.770890 1_445
Ni0 V2 2.770890 1_545
Ni0 V0 2.804188 1_556
Ni1 Si2 2.248093 1_455
Ni1 Si2 2.248093 1_555
Ni1 Si1 2.258404 1_555
Ni1 Si0 2.282933 1_555
Ni1 Ni3 2.594266 1_455
Ni1 Ni3 2.594266 1_555
Ni1 V2 2.732803 1_455
Ni1 V2 2.732803 1_555
Ni1 V0 2.759419 1_565
Ni1 V3 2.770890 1_455
Ni1 V3 2.770890 1_555
Ni1 V1 2.804188 1_555
Ni2 Si1 2.248093 1_654
Ni2 Si1 2.248093 1_554
Ni2 Si2 2.258404 1_555
Ni2 Si3 2.282933 1_565
Ni2 V1 2.732803 1_655
Ni2 V1 2.732803 1_555
Ni2 V3 2.759419 1_554
Ni2 V0 2.770890 1_565
Ni2 V0 2.770890 1_665
Ni2 V2 2.804188 1_554
Ni3 Si0 2.248093 1_655
Ni3 Si0 2.248093 1_555
Ni3 Si3 2.258404 1_555
Ni3 Si2 2.282933 1_555
Ni3 V0 2.732803 1_655
Ni3 V0 2.732803 1_555
Ni3 V2 2.759419 1_545
Ni3 V1 2.770890 1_655
Ni3 V1 2.770890 1_555
Ni3 V3 2.804188 1_555
