# generated using pymatgen
data_CsMg14BO15
_symmetry_space_group_name_H-M   'P 1'
_cell_length_a   4.10247800
_cell_length_b   8.39996200
_cell_length_c   10.79776500
_cell_angle_alpha   90.00000000
_cell_angle_beta   90.00000000
_cell_angle_gamma   90.00000000
_symmetry_Int_Tables_number   1
_chemical_formula_structural   CsMg14BO15
_chemical_formula_sum   'Cs1 Mg14 B1 O15'
_cell_volume   372.09810093
_cell_formula_units_Z   1
loop_
 _symmetry_equiv_pos_site_id
 _symmetry_equiv_pos_as_xyz
  1  'x, y, z'
loop_
 _atom_site_type_symbol
 _atom_site_label
 _atom_site_symmetry_multiplicity
 _atom_site_fract_x
 _atom_site_fract_y
 _atom_site_fract_z
 _atom_site_occupancy
  Cs  Cs0  1  0.00000000  0.00000000  0.06137800  1
  Mg  Mg0  1  0.00000000  0.50000000  0.00330900  1
  Mg  Mg1  1  0.00000000  0.00000000  0.51938900  1
  Mg  Mg2  1  0.50000000  0.75474100  0.90958400  1
  Mg  Mg3  1  0.50000000  0.24525900  0.90958400  1
  Mg  Mg4  1  0.50000000  0.74519200  0.50937200  1
  Mg  Mg5  1  0.50000000  0.25480800  0.50937200  1
  Mg  Mg6  1  0.50000000  0.00000000  0.72137000  1
  Mg  Mg7  1  0.50000000  0.50000000  0.67399000  1
  Mg  Mg8  1  0.50000000  0.00000000  0.32574900  1
  Mg  Mg9  1  0.50000000  0.50000000  0.27784500  1
  Mg  Mg10  1  0.00000000  0.75528800  0.71751700  1
  Mg  Mg11  1  0.00000000  0.24471200  0.71751700  1
  Mg  Mg12  1  0.00000000  0.75463100  0.32674400  1
  Mg  Mg13  1  0.00000000  0.24536900  0.32674400  1
  B  B0  1  0.00000000  0.50000000  0.49293300  1
  O  O0  1  0.00000000  0.00000000  0.70435000  1
  O  O1  1  0.00000000  0.00000000  0.32354900  1
  O  O2  1  0.00000000  0.50000000  0.35612100  1
  O  O3  1  0.50000000  0.73245000  0.71409000  1
  O  O4  1  0.50000000  0.26755000  0.71409000  1
  O  O5  1  0.50000000  0.75241900  0.30378300  1
  O  O6  1  0.50000000  0.24758100  0.30378300  1
  O  O7  1  0.50000000  0.00000000  0.90681100  1
  O  O8  1  0.50000000  0.50000000  0.07159500  1
  O  O9  1  0.50000000  0.00000000  0.51587900  1
  O  O10  1  0.50000000  0.50000000  0.49351200  1
  O  O11  1  0.00000000  0.70039500  0.90732200  1
  O  O12  1  0.00000000  0.29960500  0.90732200  1
  O  O13  1  0.00000000  0.75336200  0.51269900  1
  O  O14  1  0.00000000  0.24663800  0.51269900  1
loop_
_geom_bond_atom_site_label_1
_geom_bond_atom_site_label_2
_geom_bond_distance
_geom_bond_site_symmetry_2
Cs0 O7 2.644441 1_454
Cs0 O7 2.644441 1_554
Cs0 O1 2.830861 1_555
Cs0 O11 3.016742 1_544
Cs0 O12 3.016742 1_554
Mg0 O11 1.976804 1_554
Mg0 O12 1.976804 1_554
Mg0 O8 2.179735 1_455
Mg0 O8 2.179735 1_555
Mg1 O0 1.997165 1_555
Mg1 O9 2.051589 1_555
Mg1 O9 2.051589 1_455
Mg1 O14 2.073009 1_555
Mg1 O13 2.073009 1_545
Mg1 O1 2.114634 1_555
Mg2 O7 2.060384 1_565
Mg2 O11 2.101565 1_555
Mg2 O11 2.101565 1_655
Mg2 O3 2.119187 1_555
Mg3 O7 2.060384 1_555
Mg3 O12 2.101565 1_555
Mg3 O12 2.101565 1_655
Mg3 O4 2.119187 1_555
Mg4 O13 2.052701 1_555
Mg4 O13 2.052701 1_655
Mg4 O10 2.066711 1_555
Mg4 O9 2.141530 1_565
Mg4 O3 2.213087 1_555
Mg4 O5 2.220732 1_555
Mg5 O14 2.052701 1_555
Mg5 O14 2.052701 1_655
Mg5 O10 2.066711 1_555
Mg5 O9 2.141530 1_555
Mg5 O4 2.213087 1_555
Mg5 O6 2.220732 1_555
Mg6 O7 2.002348 1_555
Mg6 O0 2.059455 1_655
Mg6 O0 2.059455 1_555
Mg6 O9 2.218844 1_555
Mg6 O3 2.248784 1_545
Mg6 O4 2.248784 1_555
Mg7 O10 1.948759 1_555
Mg7 O4 2.000004 1_555
Mg7 O3 2.000004 1_555
Mg8 O1 2.051377 1_655
Mg8 O1 2.051377 1_555
Mg8 O9 2.052979 1_555
Mg8 O6 2.093153 1_555
Mg8 O5 2.093153 1_545
Mg9 O5 2.138727 1_555
Mg9 O6 2.138727 1_555
Mg9 O2 2.218548 1_655
Mg9 O2 2.218548 1_555
Mg9 O8 2.227039 1_555
Mg9 O10 2.328722 1_555
Mg10 O0 2.060482 1_565
Mg10 O3 2.060522 1_555
Mg10 O3 2.060522 1_455
Mg10 O11 2.100700 1_555
Mg10 O13 2.211636 1_555
Mg11 O0 2.060482 1_555
Mg11 O4 2.060522 1_555
Mg11 O4 2.060522 1_455
Mg11 O12 2.100700 1_555
Mg11 O14 2.211636 1_555
Mg12 O13 2.007927 1_555
Mg12 O1 2.061379 1_565
Mg12 O5 2.066251 1_455
Mg12 O5 2.066251 1_555
Mg12 O2 2.162284 1_555
Mg13 O14 2.007927 1_555
Mg13 O1 2.061379 1_555
Mg13 O6 2.066251 1_455
Mg13 O6 2.066251 1_555
Mg13 O2 2.162284 1_555
B0 O2 1.477264 1_555
B0 O10 2.051249 1_455
B0 O10 2.051249 1_555
B0 O14 2.138906 1_555
B0 O13 2.138906 1_555
