# generated using pymatgen
data_Li4MnCo2O7
_symmetry_space_group_name_H-M   'P 1'
_cell_length_a   5.13814019
_cell_length_b   5.13814019
_cell_length_c   17.83690136
_cell_angle_alpha   83.93039210
_cell_angle_beta   83.93039210
_cell_angle_gamma   32.71740884
_symmetry_Int_Tables_number   1
_chemical_formula_structural   Li4MnCo2O7
_chemical_formula_sum   'Li8 Mn2 Co4 O14'
_cell_volume   252.97097911
_cell_formula_units_Z   2
loop_
 _symmetry_equiv_pos_site_id
 _symmetry_equiv_pos_as_xyz
  1  'x, y, z'
loop_
 _atom_site_type_symbol
 _atom_site_label
 _atom_site_symmetry_multiplicity
 _atom_site_fract_x
 _atom_site_fract_y
 _atom_site_fract_z
 _atom_site_occupancy
  Li  Li0  1  0.28801500  0.28801500  0.92080900  1
  Li  Li1  1  0.86189900  0.86189900  0.79045800  1
  Li  Li2  1  0.43577100  0.43577100  0.64791400  1
  Li  Li3  1  0.99641300  0.99641300  0.50628800  1
  Li  Li4  1  0.57441200  0.57441200  0.35144000  1
  Li  Li5  1  0.14151600  0.14151600  0.21178200  1
  Li  Li6  1  0.70981800  0.70981800  0.06904600  1
  Li  Li7  1  0.56725500  0.56725500  0.85801700  1
  Mn  Mn0  1  0.99692900  0.99692900  0.99360500  1
  Mn  Mn1  1  0.28509000  0.28509000  0.42897800  1
  Co  Co0  1  0.14927600  0.14927600  0.72781700  1
  Co  Co1  1  0.71192800  0.71192800  0.57725300  1
  Co  Co2  1  0.85668300  0.85668300  0.28200400  1
  Co  Co3  1  0.42941300  0.42941300  0.14117100  1
  O  O0  1  0.37058500  0.37058500  0.03313400  1
  O  O1  1  0.93080800  0.93080800  0.90227100  1
  O  O2  1  0.51726500  0.51726500  0.74651000  1
  O  O3  1  0.07858100  0.07858100  0.60397900  1
  O  O4  1  0.66042300  0.66042300  0.46129900  1
  O  O5  1  0.22190100  0.22190100  0.32871500  1
  O  O6  1  0.79441400  0.79441400  0.17612200  1
  O  O7  1  0.21714600  0.21714600  0.81666200  1
  O  O8  1  0.77223700  0.77223700  0.67944000  1
  O  O9  1  0.34632100  0.34632100  0.52990700  1
  O  O10  1  0.91160000  0.91160000  0.39627400  1
  O  O11  1  0.49405200  0.49405200  0.24775400  1
  O  O12  1  0.05740300  0.05740300  0.10279000  1
  O  O13  1  0.62284500  0.62284500  0.96856000  1
loop_
_geom_bond_atom_site_label_1
_geom_bond_atom_site_label_2
_geom_bond_distance
_geom_bond_site_symmetry_2
Li0 O1 2.020740 1_545
Li0 O1 2.020740 1_455
Li0 O7 2.055554 1_555
Li0 O0 2.244215 1_556
Li0 O13 2.272970 1_455
Li0 O13 2.272970 1_545
Li1 O7 2.050095 1_565
Li1 O7 2.050095 1_655
Li1 O1 2.176683 1_555
Li1 O2 2.188826 1_655
Li1 O2 2.188826 1_565
Li1 O8 2.255820 1_555
Li2 O2 2.012459 1_555
Li2 O3 2.109041 1_655
Li2 O3 2.109041 1_565
Li2 O8 2.193343 1_545
Li2 O8 2.193343 1_455
Li2 O9 2.370149 1_555
Li3 O3 2.000973 1_665
Li3 O9 2.079562 1_565
Li3 O9 2.079562 1_655
Li3 O10 2.216235 1_555
Li3 O4 2.251106 1_655
Li3 O4 2.251106 1_565
Li4 O5 2.059995 1_565
Li4 O5 2.059995 1_655
Li4 O11 2.090752 1_555
Li4 O4 2.219311 1_555
Li4 O10 2.242331 1_545
Li4 O10 2.242331 1_455
Li5 O11 2.101083 1_455
Li5 O11 2.101083 1_545
Li5 O6 2.135509 1_455
Li5 O6 2.135509 1_545
Li5 O12 2.196058 1_555
Li5 O5 2.311457 1_555
Li6 O13 2.070448 1_554
Li6 O12 2.125027 1_655
Li6 O12 2.125027 1_565
Li6 O6 2.166712 1_555
Li6 O0 2.189443 1_565
Li6 O0 2.189443 1_655
Li7 O1 2.072051 1_545
Li7 O1 2.072051 1_455
Li7 O2 2.101170 1_555
Li7 O13 2.103907 1_555
Li7 O7 2.140674 1_655
Li7 O7 2.140674 1_565
Mn0 O1 1.820212 1_555
Mn0 O13 1.926933 1_565
Mn0 O13 1.926933 1_655
Mn0 O0 1.987407 1_656
Mn0 O0 1.987407 1_566
Mn0 O12 2.098653 1_666
Mn1 O4 1.944606 1_455
Mn1 O4 1.944606 1_545
Mn1 O10 1.957099 1_455
Mn1 O10 1.957099 1_545
Mn1 O5 1.957573 1_555
Mn1 O9 1.960869 1_555
Co0 O7 1.786874 1_555
Co0 O2 1.950413 1_545
Co0 O2 1.950413 1_455
Co0 O8 2.019470 1_455
Co0 O8 2.019470 1_545
Co0 O3 2.388397 1_555
Co1 O3 1.977920 1_655
Co1 O3 1.977920 1_565
Co1 O8 1.978571 1_555
Co1 O9 2.077699 1_565
Co1 O9 2.077699 1_655
Co1 O4 2.183372 1_555
Co2 O11 2.029720 1_655
Co2 O11 2.029720 1_565
Co2 O6 2.049240 1_555
Co2 O5 2.076202 1_655
Co2 O5 2.076202 1_565
Co2 O10 2.165830 1_555
Co3 O12 1.991282 1_655
Co3 O12 1.991282 1_565
Co3 O6 2.017899 1_545
Co3 O6 2.017899 1_455
Co3 O11 2.070627 1_555
Co3 O0 2.072759 1_555
