# generated using pymatgen
data_Sn2P2O7
_symmetry_space_group_name_H-M   'P 1'
_cell_length_a   11.80864973
_cell_length_b   11.80864973
_cell_length_c   9.44422523
_cell_angle_alpha   77.13517290
_cell_angle_beta   77.13517290
_cell_angle_gamma   54.26742895
_symmetry_Int_Tables_number   1
_chemical_formula_structural   Sn2P2O7
_chemical_formula_sum   'Sn12 P12 O42'
_cell_volume   1035.03275652
_cell_formula_units_Z   6
loop_
 _symmetry_equiv_pos_site_id
 _symmetry_equiv_pos_as_xyz
  1  'x, y, z'
loop_
 _atom_site_type_symbol
 _atom_site_label
 _atom_site_symmetry_multiplicity
 _atom_site_fract_x
 _atom_site_fract_y
 _atom_site_fract_z
 _atom_site_occupancy
  Sn  Sn0  1  0.83177000  0.17406500  0.49055100  1
  Sn  Sn1  1  0.82757700  0.49999600  0.33393900  1
  Sn  Sn2  1  0.50200200  0.84651200  0.30113100  1
  Sn  Sn3  1  0.15348800  0.49799800  0.19886900  1
  Sn  Sn4  1  0.50000400  0.17242300  0.16606100  1
  Sn  Sn5  1  0.82593500  0.16823000  0.00944900  1
  Sn  Sn6  1  0.17406500  0.83177000  0.99055100  1
  Sn  Sn7  1  0.49999600  0.82757700  0.83393900  1
  Sn  Sn8  1  0.84651200  0.50200200  0.80113100  1
  Sn  Sn9  1  0.49799800  0.15348800  0.69886900  1
  Sn  Sn10  1  0.17242300  0.50000400  0.66606100  1
  Sn  Sn11  1  0.16823000  0.82593500  0.50944900  1
  P  P0  1  0.25631500  0.22510200  0.48393800  1
  P  P1  1  0.42807600  0.43292500  0.35167700  1
  P  P2  1  0.89662000  0.91198700  0.31740400  1
  P  P3  1  0.08801300  0.10338000  0.18259600  1
  P  P4  1  0.56707500  0.57192400  0.14832300  1
  P  P5  1  0.77489800  0.74368500  0.01606200  1
  P  P6  1  0.22510200  0.25631500  0.98393800  1
  P  P7  1  0.43292500  0.42807600  0.85167700  1
  P  P8  1  0.91198700  0.89662000  0.81740400  1
  P  P9  1  0.10338000  0.08801300  0.68259600  1
  P  P10  1  0.57192400  0.56707500  0.64832300  1
  P  P11  1  0.74368500  0.77489800  0.51606200  1
  O  O0  1  0.29804500  0.52424100  0.45555100  1
  O  O1  1  0.55872900  0.30883300  0.41385600  1
  O  O2  1  0.94772000  0.95683900  0.42205200  1
  O  O3  1  0.79610600  0.87198800  0.42900000  1
  O  O4  1  0.70937500  0.72744000  0.39800600  1
  O  O5  1  0.13702000  0.35670600  0.40500800  1
  O  O6  1  0.38905100  0.12936700  0.38778400  1
  O  O7  1  0.45248900  0.54751100  0.25000000  1
  O  O8  1  0.37889600  0.38558300  0.24593800  1
  O  O9  1  0.01909200  0.78808000  0.24247800  1
  O  O10  1  0.79588900  0.04386200  0.22067400  1
  O  O11  1  0.95613800  0.20411100  0.27932600  1
  O  O12  1  0.21192000  0.98090800  0.25752200  1
  O  O13  1  0.61441700  0.62110400  0.25406200  1
  O  O14  1  0.87063300  0.61094900  0.11221600  1
  O  O15  1  0.64329400  0.86298000  0.09499200  1
  O  O16  1  0.27256000  0.29062500  0.10199400  1
  O  O17  1  0.52424100  0.29804500  0.95555100  1
  O  O18  1  0.12801200  0.20389400  0.07100000  1
  O  O19  1  0.04316100  0.05228000  0.07794800  1
  O  O20  1  0.30883300  0.55872900  0.91385600  1
  O  O21  1  0.69116700  0.44127100  0.08614400  1
  O  O22  1  0.95683900  0.94772000  0.92205200  1
  O  O23  1  0.87198800  0.79610600  0.92900000  1
  O  O24  1  0.47575900  0.70195500  0.04444900  1
  O  O25  1  0.72744000  0.70937500  0.89800600  1
  O  O26  1  0.35670600  0.13702000  0.90500800  1
  O  O27  1  0.12936700  0.38905100  0.88778400  1
  O  O28  1  0.54751100  0.45249000  0.75000000  1
  O  O29  1  0.38558300  0.37889600  0.74593800  1
  O  O30  1  0.78808000  0.01909200  0.74247800  1
  O  O31  1  0.04386200  0.79588900  0.72067400  1
  O  O32  1  0.20411100  0.95613800  0.77932600  1
  O  O33  1  0.98090800  0.21192000  0.75752200  1
  O  O34  1  0.62110400  0.61441700  0.75406200  1
  O  O35  1  0.61094900  0.87063300  0.61221600  1
  O  O36  1  0.86298000  0.64329400  0.59499200  1
  O  O37  1  0.29062500  0.27256000  0.60199400  1
  O  O38  1  0.20389400  0.12801200  0.57100000  1
  O  O39  1  0.05228000  0.04316100  0.57794800  1
  O  O40  1  0.44127100  0.69116700  0.58614400  1
  O  O41  1  0.70195500  0.47575900  0.54444900  1
loop_
_geom_bond_atom_site_label_1
_geom_bond_atom_site_label_2
_geom_bond_distance
_geom_bond_site_symmetry_2
O0 P1 1.532725 1_555
O0 Sn10 2.272498 1_555
O1 P1 1.500695 1_555
O2 P2 1.579040 1_555
O2 Sn0 2.261733 1_565
O2 Sn11 2.353450 1_655
O3 P11 1.598822 1_555
O3 P2 1.618266 1_555
O4 P11 1.570325 1_555
O4 Sn2 2.283386 1_555
O4 Sn1 2.344528 1_555
O5 P0 1.532964 1_555
O5 Sn3 2.318548 1_555
O6 P0 1.520904 1_555
O6 Sn4 2.332860 1_555
O7 P1 1.609301 1_555
O7 P4 1.609301 1_555
O8 P1 1.591576 1_555
O8 Sn4 2.260718 1_555
O8 Sn3 2.276368 1_555
O9 P2 1.505630 1_455
O10 P2 1.536670 1_545
O10 Sn5 2.291509 1_555
O11 P3 1.536670 1_655
O11 Sn0 2.291509 1_555
O12 P3 1.505630 1_565
O13 P4 1.591576 1_555
O13 Sn1 2.260718 1_555
O13 Sn2 2.276368 1_555
O14 P5 1.520904 1_555
O14 Sn1 2.332860 1_555
O15 P5 1.532964 1_555
O15 Sn2 2.318548 1_555
O16 P6 1.570325 1_554
O16 Sn3 2.283386 1_555
O16 Sn4 2.344528 1_555
O17 P7 1.532725 1_555
O17 Sn4 2.272498 1_556
O18 P6 1.598822 1_554
O18 P3 1.618266 1_555
O19 P3 1.579040 1_555
O19 Sn5 2.261733 1_455
O19 Sn6 2.353450 1_544
O20 P7 1.500695 1_555
O21 P4 1.500695 1_555
O22 P8 1.579040 1_555
O22 Sn6 2.261733 1_655
O22 Sn5 2.353450 1_566
O23 P5 1.598822 1_556
O23 P8 1.618266 1_555
O24 P4 1.532725 1_555
O24 Sn7 2.272498 1_554
O25 P5 1.570325 1_556
O25 Sn8 2.283386 1_555
O25 Sn7 2.344528 1_555
O26 P6 1.532964 1_555
O26 Sn9 2.318548 1_555
O27 P6 1.520904 1_555
O27 Sn10 2.332860 1_555
O28 P10 1.609291 1_555
O28 P7 1.609307 1_555
O29 P7 1.591576 1_555
O29 Sn10 2.260718 1_555
O29 Sn9 2.276368 1_555
O30 P8 1.505630 1_545
O31 P8 1.536670 1_455
O31 Sn11 2.291509 1_555
O32 P9 1.536670 1_565
O32 Sn6 2.291509 1_555
O33 P9 1.505630 1_655
O34 P10 1.591576 1_555
O34 Sn7 2.260718 1_555
O34 Sn8 2.276368 1_555
O35 P11 1.520904 1_555
O35 Sn7 2.332860 1_555
O36 P11 1.532964 1_555
O36 Sn8 2.318548 1_555
O37 P0 1.570325 1_555
O37 Sn9 2.283386 1_555
O37 Sn10 2.344528 1_555
O38 P0 1.598822 1_555
O38 P9 1.618266 1_555
O39 P9 1.579040 1_555
O39 Sn11 2.261733 1_545
O39 Sn0 2.353450 1_455
O40 P10 1.500695 1_555
O41 P10 1.532725 1_555
O41 Sn1 2.272498 1_555
