# generated using pymatgen
data_MgMn(SiO3)2
_symmetry_space_group_name_H-M   'P 1'
_cell_length_a   5.33493400
_cell_length_b   9.09724600
_cell_length_c   18.66405300
_cell_angle_alpha   90.00000000
_cell_angle_beta   90.00000000
_cell_angle_gamma   90.00000000
_symmetry_Int_Tables_number   1
_chemical_formula_structural   MgMn(SiO3)2
_chemical_formula_sum   'Mg8 Mn8 Si16 O48'
_cell_volume   905.82634755
_cell_formula_units_Z   8
loop_
 _symmetry_equiv_pos_site_id
 _symmetry_equiv_pos_as_xyz
  1  'x, y, z'
loop_
 _atom_site_type_symbol
 _atom_site_label
 _atom_site_symmetry_multiplicity
 _atom_site_fract_x
 _atom_site_fract_y
 _atom_site_fract_z
 _atom_site_occupancy
  Mg  Mg0  1  0.61627300  0.15103900  0.37492600  1
  Mg  Mg1  1  0.38372700  0.84896100  0.62507400  1
  Mg  Mg2  1  0.61627300  0.65103900  0.12507400  1
  Mg  Mg3  1  0.11627300  0.84896100  0.12507400  1
  Mg  Mg4  1  0.88372700  0.15103900  0.87492600  1
  Mg  Mg5  1  0.38372700  0.34896100  0.87492600  1
  Mg  Mg6  1  0.11627300  0.34896100  0.37492600  1
  Mg  Mg7  1  0.88372700  0.65103900  0.62507400  1
  Mn  Mn0  1  0.38055500  0.98445800  0.87686200  1
  Mn  Mn1  1  0.61944500  0.01554200  0.12313800  1
  Mn  Mn2  1  0.88055500  0.01554200  0.62313800  1
  Mn  Mn3  1  0.11944500  0.98445800  0.37686200  1
  Mn  Mn4  1  0.38055500  0.48445800  0.62313800  1
  Mn  Mn5  1  0.61944500  0.51554200  0.37686200  1
  Mn  Mn6  1  0.88055500  0.51554200  0.87686200  1
  Mn  Mn7  1  0.11944500  0.48445800  0.12313800  1
  Si  Si0  1  0.55967200  0.66092200  0.77104900  1
  Si  Si1  1  0.70798000  0.83662500  0.47591900  1
  Si  Si2  1  0.79202000  0.83662500  0.97591900  1
  Si  Si3  1  0.94032800  0.16092200  0.22895100  1
  Si  Si4  1  0.05967200  0.33907800  0.72895100  1
  Si  Si5  1  0.44032800  0.83907800  0.27104900  1
  Si  Si6  1  0.20798000  0.66337500  0.47591900  1
  Si  Si7  1  0.70798000  0.33662500  0.02408100  1
  Si  Si8  1  0.79202000  0.33662500  0.52408100  1
  Si  Si9  1  0.94032800  0.66092200  0.27104900  1
  Si  Si10  1  0.44032800  0.33907800  0.22895100  1
  Si  Si11  1  0.55967200  0.16092200  0.72895100  1
  Si  Si12  1  0.29202000  0.16337500  0.52408100  1
  Si  Si13  1  0.05967200  0.83907800  0.77104900  1
  Si  Si14  1  0.29202000  0.66337500  0.97591900  1
  Si  Si15  1  0.20798000  0.16337500  0.02408100  1
  O  O0  1  0.94352300  0.50256600  0.31022100  1
  O  O1  1  0.28593000  0.01288600  0.06440300  1
  O  O2  1  0.05647700  0.49743400  0.68977900  1
  O  O3  1  0.70755500  0.33632500  0.93634200  1
  O  O4  1  0.20755500  0.16367500  0.93634200  1
  O  O5  1  0.91997500  0.21154200  0.05116900  1
  O  O6  1  0.94410100  0.66470800  0.18359500  1
  O  O7  1  0.05589900  0.83529200  0.68359500  1
  O  O8  1  0.70755500  0.83632500  0.56365800  1
  O  O9  1  0.94410100  0.16470800  0.31640500  1
  O  O10  1  0.44352300  0.49743400  0.18977900  1
  O  O11  1  0.79244500  0.33632500  0.43634200  1
  O  O12  1  0.71407000  0.98711400  0.93559700  1
  O  O13  1  0.44410100  0.83529200  0.18359500  1
  O  O14  1  0.55647700  0.00256600  0.68977900  1
  O  O15  1  0.28593000  0.51288600  0.43559700  1
  O  O16  1  0.44352300  0.99743400  0.31022100  1
  O  O17  1  0.16955200  0.76827500  0.30126600  1
  O  O18  1  0.33044800  0.76827500  0.80126600  1
  O  O19  1  0.58002500  0.71154200  0.94883100  1
  O  O20  1  0.79244500  0.83632500  0.06365800  1
  O  O21  1  0.55589900  0.66470800  0.68359500  1
  O  O22  1  0.78593000  0.48711400  0.06440300  1
  O  O23  1  0.16955200  0.26827500  0.19873400  1
  O  O24  1  0.29244500  0.16367500  0.43634200  1
  O  O25  1  0.55589900  0.16470800  0.81640500  1
  O  O26  1  0.71407000  0.48711400  0.56440300  1
  O  O27  1  0.20755500  0.66367500  0.56365800  1
  O  O28  1  0.21407000  0.51288600  0.93559700  1
  O  O29  1  0.66955200  0.73172500  0.30126600  1
  O  O30  1  0.05647700  0.99743400  0.81022100  1
  O  O31  1  0.83044800  0.73172500  0.80126600  1
  O  O32  1  0.83044800  0.23172500  0.69873400  1
  O  O33  1  0.78593000  0.98711400  0.43559700  1
  O  O34  1  0.29244500  0.66367500  0.06365800  1
  O  O35  1  0.21407000  0.01288600  0.56440300  1
  O  O36  1  0.33044800  0.26827500  0.69873400  1
  O  O37  1  0.08002500  0.78845800  0.94883100  1
  O  O38  1  0.41997500  0.78845800  0.44883100  1
  O  O39  1  0.66955200  0.23172500  0.19873400  1
  O  O40  1  0.41997500  0.28845800  0.05116900  1
  O  O41  1  0.58002500  0.21154200  0.55116900  1
  O  O42  1  0.08002500  0.28845800  0.55116900  1
  O  O43  1  0.44410100  0.33529200  0.31640500  1
  O  O44  1  0.55647700  0.50256600  0.81022100  1
  O  O45  1  0.91997500  0.71154200  0.44883100  1
  O  O46  1  0.05589900  0.33529200  0.81640500  1
  O  O47  1  0.94352300  0.00256600  0.18977900  1
loop_
_geom_bond_atom_site_label_1
_geom_bond_atom_site_label_2
_geom_bond_distance
_geom_bond_site_symmetry_2
Mg0 O16 2.064093 1_545
Mg0 O9 2.065731 1_555
Mg0 O24 2.076477 1_555
Mg0 O33 2.079748 1_545
Mg0 O43 2.201433 1_555
Mg0 O11 2.244662 1_555
Mg1 O14 2.064093 1_565
Mg1 O7 2.065731 1_555
Mg1 O8 2.076477 1_555
Mg1 O35 2.079748 1_565
Mg1 O21 2.201433 1_555
Mg1 O27 2.244662 1_555
Mg2 O10 2.064093 1_555
Mg2 O6 2.065731 1_555
Mg2 O34 2.076477 1_555
Mg2 O22 2.079748 1_555
Mg2 O13 2.201433 1_555
Mg2 O20 2.244662 1_555
Mg3 O47 2.064093 1_465
Mg3 O13 2.065731 1_555
Mg3 O20 2.076477 1_455
Mg3 O1 2.079748 1_565
Mg3 O6 2.201433 1_455
Mg3 O34 2.244662 1_555
Mg4 O30 2.064093 1_645
Mg4 O25 2.065731 1_555
Mg4 O4 2.076477 1_655
Mg4 O12 2.079748 1_545
Mg4 O46 2.201433 1_655
Mg4 O3 2.244662 1_555
Mg5 O44 2.064093 1_555
Mg5 O46 2.065731 1_555
Mg5 O3 2.076477 1_555
Mg5 O28 2.079748 1_555
Mg5 O25 2.201433 1_555
Mg5 O4 2.244662 1_555
Mg6 O0 2.064093 1_455
Mg6 O43 2.065731 1_555
Mg6 O11 2.076477 1_455
Mg6 O15 2.079748 1_555
Mg6 O9 2.201433 1_455
Mg6 O24 2.244662 1_555
Mg7 O2 2.064093 1_655
Mg7 O21 2.065731 1_555
Mg7 O27 2.076477 1_655
Mg7 O26 2.079748 1_555
Mg7 O7 2.201433 1_655
Mg7 O8 2.244662 1_555
Mn0 O12 2.090012 1_555
Mn0 O30 2.133112 1_555
Mn0 O4 2.177699 1_565
Mn0 O25 2.199355 1_565
Mn0 O18 2.435152 1_555
Mn0 O37 2.748486 1_555
Mn1 O1 2.090012 1_555
Mn1 O47 2.133112 1_555
Mn1 O20 2.177699 1_545
Mn1 O13 2.199355 1_545
Mn1 O39 2.435152 1_555
Mn1 O5 2.748486 1_555
Mn2 O35 2.090012 1_655
Mn2 O14 2.133112 1_555
Mn2 O8 2.177699 1_545
Mn2 O7 2.199355 1_645
Mn2 O32 2.435152 1_555
Mn2 O41 2.748486 1_555
Mn3 O33 2.090012 1_455
Mn3 O16 2.133112 1_555
Mn3 O24 2.177699 1_565
Mn3 O9 2.199355 1_465
Mn3 O17 2.435152 1_555
Mn3 O38 2.748486 1_555
Mn4 O26 2.090012 1_555
Mn4 O2 2.133112 1_555
Mn4 O27 2.177699 1_555
Mn4 O21 2.199355 1_555
Mn4 O36 2.435152 1_555
Mn4 O42 2.748486 1_555
Mn5 O15 2.090012 1_555
Mn5 O0 2.133112 1_555
Mn5 O11 2.177699 1_555
Mn5 O43 2.199355 1_555
Mn5 O29 2.435152 1_555
Mn5 O45 2.748486 1_555
Mn6 O28 2.090012 1_655
Mn6 O44 2.133112 1_555
Mn6 O3 2.177699 1_555
Mn6 O46 2.199355 1_655
Mn6 O31 2.435152 1_555
Mn6 O19 2.748486 1_555
Mn7 O22 2.090012 1_455
Mn7 O10 2.133112 1_555
Mn7 O34 2.177699 1_555
Mn7 O6 2.199355 1_455
Mn7 O23 2.435152 1_555
Mn7 O40 2.748486 1_555
O0 Si9 1.615595 1_555
O1 Si15 1.616651 1_555
O2 Si4 1.615595 1_555
O3 Si7 1.637569 1_556
O4 Si15 1.637569 1_556
O5 Si15 1.675830 1_655
O5 Si7 1.682129 1_555
O6 Si9 1.632734 1_555
O7 Si13 1.632734 1_555
O8 Si1 1.637569 1_555
O9 Si3 1.632734 1_555
O10 Si10 1.615595 1_555
O11 Si8 1.637569 1_555
O12 Si2 1.616651 1_555
O13 Si5 1.632734 1_555
O14 Si11 1.615595 1_555
O15 Si6 1.616651 1_555
O16 Si5 1.615595 1_555
O17 Si9 1.663525 1_455
O17 Si5 1.679206 1_555
O18 Si0 1.663525 1_555
O18 Si13 1.679206 1_555
O19 Si14 1.675830 1_555
O19 Si2 1.682129 1_555
O20 Si2 1.637569 1_554
O21 Si0 1.632734 1_555
O22 Si7 1.616651 1_555
O23 Si3 1.663525 1_455
O23 Si10 1.679206 1_555
O24 Si12 1.637569 1_555
O25 Si11 1.632734 1_555
O26 Si8 1.616651 1_555
O27 Si6 1.637569 1_555
O28 Si14 1.616651 1_555
O29 Si5 1.663525 1_555
O29 Si9 1.679206 1_555
O30 Si13 1.615595 1_555
O31 Si13 1.663525 1_655
O31 Si0 1.679206 1_555
O32 Si4 1.663525 1_655
O32 Si11 1.679206 1_555
O33 Si1 1.616651 1_555
O34 Si14 1.637569 1_554
O35 Si12 1.616651 1_555
O36 Si11 1.663525 1_555
O36 Si4 1.679206 1_555
O37 Si2 1.675830 1_455
O37 Si14 1.682129 1_555
O38 Si1 1.675830 1_555
O38 Si6 1.682129 1_555
O39 Si10 1.663525 1_555
O39 Si3 1.679206 1_555
O40 Si7 1.675830 1_555
O40 Si15 1.682129 1_555
O41 Si12 1.675830 1_555
O41 Si8 1.682129 1_555
O42 Si8 1.675830 1_455
O42 Si12 1.682129 1_555
O43 Si10 1.632734 1_555
O44 Si0 1.615595 1_555
O45 Si6 1.675830 1_655
O45 Si1 1.682129 1_555
O46 Si4 1.632734 1_555
O47 Si3 1.615595 1_555
