# generated using pymatgen
data_NaCa3C2O7F3
_symmetry_space_group_name_H-M   'P 1'
_cell_length_a   6.76965371
_cell_length_b   6.76965371
_cell_length_c   15.33478000
_cell_angle_alpha   90.00000000
_cell_angle_beta   90.00000000
_cell_angle_gamma   119.99999713
_symmetry_Int_Tables_number   1
_chemical_formula_structural   NaCa3C2O7F3
_chemical_formula_sum   'Na3 Ca9 C6 O21 F9'
_cell_volume   608.61282656
_cell_formula_units_Z   3
loop_
 _symmetry_equiv_pos_site_id
 _symmetry_equiv_pos_as_xyz
  1  'x, y, z'
loop_
 _atom_site_type_symbol
 _atom_site_label
 _atom_site_symmetry_multiplicity
 _atom_site_fract_x
 _atom_site_fract_y
 _atom_site_fract_z
 _atom_site_occupancy
  Na  Na0  1  0.27596700  0.00000000  0.16666700  1
  Na  Na1  1  0.72403300  0.72403300  0.50000000  1
  Na  Na2  1  0.00000000  0.27596700  0.83333300  1
  Ca  Ca0  1  0.38046900  0.38046900  0.00000000  1
  Ca  Ca1  1  0.00000000  0.61953100  0.33333300  1
  Ca  Ca2  1  0.61953100  0.00000000  0.66666700  1
  Ca  Ca3  1  0.63165000  0.99838900  0.00406400  1
  Ca  Ca4  1  0.36673900  0.36835000  0.33739700  1
  Ca  Ca5  1  0.00161100  0.63326100  0.67073100  1
  Ca  Ca6  1  0.99838900  0.63165000  0.99593600  1
  Ca  Ca7  1  0.63326100  0.00161100  0.32926900  1
  Ca  Ca8  1  0.36835000  0.36673900  0.66260300  1
  C  C0  1  0.75722300  0.43358300  0.16808600  1
  C  C1  1  0.67636000  0.24277700  0.50141900  1
  C  C2  1  0.56641700  0.32364000  0.83475200  1
  C  C3  1  0.32364000  0.56641700  0.16524800  1
  C  C4  1  0.24277700  0.67636000  0.49858100  1
  C  C5  1  0.43358300  0.75722300  0.83191400  1
  O  O0  1  0.68273600  0.32760300  0.09380100  1
  O  O1  1  0.64486700  0.31726400  0.42713400  1
  O  O2  1  0.67239700  0.35513300  0.76046800  1
  O  O3  1  0.66423000  0.32941400  0.24073000  1
  O  O4  1  0.66518400  0.33577000  0.57406300  1
  O  O5  1  0.67058600  0.33481600  0.90739700  1
  O  O6  1  0.92364700  0.64081100  0.16891700  1
  O  O7  1  0.71716400  0.07635300  0.50225100  1
  O  O8  1  0.35918900  0.28283600  0.83558400  1
  O  O9  1  0.32760300  0.68273600  0.90619900  1
  O  O10  1  0.35513300  0.67239700  0.23953200  1
  O  O11  1  0.31726400  0.64486700  0.57286600  1
  O  O12  1  0.32941400  0.66423000  0.75927000  1
  O  O13  1  0.33481600  0.67058600  0.09260300  1
  O  O14  1  0.33577000  0.66518400  0.42593700  1
  O  O15  1  0.28283600  0.35918900  0.16441600  1
  O  O16  1  0.07635300  0.71716400  0.49774900  1
  O  O17  1  0.64081100  0.92364700  0.83108300  1
  O  O18  1  0.00000000  0.76901800  0.83333300  1
  O  O19  1  0.76901800  0.00000000  0.16666700  1
  O  O20  1  0.23098200  0.23098200  0.50000000  1
  F  F0  1  0.27308600  0.00432700  0.01802500  1
  F  F1  1  0.73124200  0.72691400  0.35135800  1
  F  F2  1  0.99567300  0.26875800  0.68469200  1
  F  F3  1  0.72228800  0.72228800  0.00000000  1
  F  F4  1  0.00000000  0.27771200  0.33333300  1
  F  F5  1  0.27771200  0.00000000  0.66666700  1
  F  F6  1  0.00432700  0.27308600  0.98197500  1
  F  F7  1  0.26875800  0.99567300  0.31530800  1
  F  F8  1  0.72691400  0.73124200  0.64864200  1
loop_
_geom_bond_atom_site_label_1
_geom_bond_atom_site_label_2
_geom_bond_distance
_geom_bond_site_symmetry_2
Na0 O6 2.408919 1_445
Na0 O15 2.408919 1_555
Na0 O3 2.703703 1_555
Na0 O13 2.703710 1_545
Na0 O10 2.764551 1_545
Na0 O0 2.764557 1_555
Na1 O7 2.408919 1_565
Na1 O16 2.408919 1_655
Na1 O4 2.703703 1_555
Na1 O14 2.703703 1_555
Na1 O11 2.764557 1_555
Na1 O1 2.764557 1_555
Na2 O17 2.408919 1_445
Na2 O8 2.408919 1_555
Na2 O12 2.703703 1_555
Na2 O5 2.703710 1_455
Na2 O2 2.764551 1_455
Na2 O9 2.764557 1_555
Ca0 F0 2.288602 1_555
Ca0 F6 2.288602 1_554
Ca0 F3 2.313996 1_555
Ca0 O13 2.564428 1_555
Ca0 O5 2.564428 1_554
Ca0 O15 2.592152 1_555
Ca0 O8 2.592152 1_554
Ca0 O0 2.667687 1_555
Ca0 O9 2.667687 1_554
Ca1 F1 2.288595 1_455
Ca1 F7 2.288600 1_555
Ca1 F4 2.313996 1_555
Ca1 O3 2.564428 1_455
Ca1 O14 2.564437 1_555
Ca1 O6 2.592152 1_455
Ca1 O16 2.592152 1_555
Ca1 O10 2.667687 1_555
Ca1 O1 2.667687 1_455
Ca2 F8 2.288595 1_545
Ca2 F2 2.288600 1_555
Ca2 F5 2.313996 1_555
Ca2 O12 2.564428 1_545
Ca2 O4 2.564437 1_555
Ca2 O17 2.592152 1_545
Ca2 O7 2.592152 1_555
Ca2 O2 2.667687 1_555
Ca2 O11 2.667687 1_545
Ca3 F3 2.240714 1_555
Ca3 F6 2.290475 1_664
Ca3 F0 2.457046 1_565
Ca3 O0 2.491875 1_565
Ca3 O13 2.519246 1_555
Ca3 O9 2.580053 1_554
Ca3 O5 2.617930 1_564
Ca3 O19 2.659361 1_565
Ca3 O17 2.706965 1_554
Ca4 F4 2.240714 1_555
Ca4 F7 2.290473 1_545
Ca4 F1 2.457049 1_555
Ca4 O1 2.491875 1_555
Ca4 O14 2.519254 1_555
Ca4 O10 2.580053 1_555
Ca4 O3 2.617930 1_555
Ca4 O20 2.659361 1_555
Ca4 O15 2.706965 1_555
Ca5 F5 2.240715 1_565
Ca5 F8 2.290480 1_455
Ca5 F2 2.457052 1_455
Ca5 O2 2.491875 1_455
Ca5 O12 2.519246 1_555
Ca5 O11 2.580053 1_555
Ca5 O4 2.617939 1_455
Ca5 O18 2.659347 1_555
Ca5 O16 2.706980 1_555
Ca6 F3 2.240714 1_556
Ca6 F0 2.290475 1_666
Ca6 F6 2.457046 1_655
Ca6 O9 2.491875 1_655
Ca6 O5 2.519246 1_555
Ca6 O0 2.580053 1_556
Ca6 O13 2.617930 1_656
Ca6 O18 2.659361 1_655
Ca6 O6 2.706965 1_556
Ca7 F4 2.240715 1_655
Ca7 F1 2.290480 1_545
Ca7 F7 2.457052 1_545
Ca7 O10 2.491875 1_545
Ca7 O3 2.519246 1_555
Ca7 O1 2.580053 1_555
Ca7 O14 2.617939 1_545
Ca7 O19 2.659347 1_555
Ca7 O7 2.706980 1_555
Ca8 F5 2.240714 1_555
Ca8 F2 2.290473 1_455
Ca8 F8 2.457049 1_555
Ca8 O11 2.491875 1_555
Ca8 O4 2.519254 1_555
Ca8 O2 2.580053 1_555
Ca8 O12 2.617930 1_555
Ca8 O20 2.659361 1_555
Ca8 O8 2.706965 1_555
C0 O6 1.287235 1_555
C0 O3 1.300235 1_555
C0 O0 1.305709 1_555
C1 O7 1.287236 1_555
C1 O4 1.300235 1_555
C1 O1 1.305709 1_555
C2 O8 1.287236 1_555
C2 O5 1.300249 1_555
C2 O2 1.305696 1_555
C3 O15 1.287236 1_555
C3 O13 1.300249 1_555
C3 O10 1.305696 1_555
C4 O16 1.287236 1_555
C4 O14 1.300235 1_555
C4 O11 1.305709 1_555
C5 O17 1.287235 1_555
C5 O12 1.300235 1_555
C5 O9 1.305709 1_555
F0 Na0 2.279789 1_555
F1 Na1 2.279789 1_555
F2 Na2 2.279774 1_655
F6 Na2 2.279789 1_555
F7 Na0 2.279774 1_565
F8 Na1 2.279789 1_555
