# generated using pymatgen
data_DyCoNi
_symmetry_space_group_name_H-M   'P 1'
_cell_length_a   5.07615272
_cell_length_b   5.07566694
_cell_length_c   5.07714779
_cell_angle_alpha   123.26608938
_cell_angle_beta   119.92310674
_cell_angle_gamma   87.26202549
_symmetry_Int_Tables_number   1
_chemical_formula_structural   DyCoNi
_chemical_formula_sum   'Dy2 Co2 Ni2'
_cell_volume   90.07410272
_cell_formula_units_Z   2
loop_
 _symmetry_equiv_pos_site_id
 _symmetry_equiv_pos_as_xyz
  1  'x, y, z'
loop_
 _atom_site_type_symbol
 _atom_site_label
 _atom_site_symmetry_multiplicity
 _atom_site_fract_x
 _atom_site_fract_y
 _atom_site_fract_z
 _atom_site_occupancy
  Dy  Dy0  1  0.37094192  0.12090167  0.24999017  1
  Dy  Dy1  1  0.62905808  0.87909833  0.75000983  1
  Co  Co0  1  0.00000000  -0.00000000  0.50000000  1
  Co  Co1  1  0.00000000  0.50000000  0.00000000  1
  Ni  Ni0  1  0.00000000  0.50000000  0.50000000  1
  Ni  Ni1  1  0.50000000  0.50000000  0.00000000  1
loop_
_geom_bond_atom_site_label_1
_geom_bond_atom_site_label_2
_geom_bond_distance
_geom_bond_site_symmetry_2
Dy0 Ni1 2.866382 1_545
Dy0 Ni0 2.866728 1_555
Dy0 Ni1 2.867959 1_556
Dy0 Ni0 2.868017 1_544
Dy0 Ni1 3.061351 1_555
Dy0 Ni0 3.061679 1_655
Dy0 Dy1 3.068163 1_544
Dy0 Dy1 3.068661 1_555
Dy0 Dy1 3.100625 1_545
Dy0 Dy1 3.101372 1_444
Dy1 Ni1 2.866382 1_566
Dy1 Ni0 2.866728 1_655
Dy1 Ni1 2.867959 1_555
Dy1 Ni0 2.868017 1_666
Dy1 Ni1 3.061351 1_556
Dy1 Ni0 3.061679 1_555
Co0 Co1 2.411887 1_556
Co0 Co1 2.411887 1_545
Co0 Ni0 2.537833 1_555
Co0 Ni0 2.537833 1_545
Co0 Ni1 2.538955 1_556
Co0 Ni1 2.538955 1_445
Co0 Dy1 2.967794 1_545
Co0 Dy0 2.967794 1_455
Co0 Dy0 2.969035 1_556
Co0 Dy1 2.969035 1_444
Co0 Dy0 2.980403 1_555
Co0 Dy1 2.980403 1_445
Co1 Ni1 2.538076 1_455
Co1 Ni1 2.538076 1_555
Co1 Ni0 2.538574 1_555
Co1 Ni0 2.538574 1_554
Co1 Dy0 2.967779 1_555
Co1 Dy1 2.967779 1_454
Co1 Dy1 2.969306 1_555
Co1 Dy0 2.969306 1_454
Co1 Dy1 2.980392 1_444
Co1 Dy0 2.980392 1_565
Ni0 Ni1 2.541275 1_556
Ni0 Ni1 2.541275 1_455
