# generated using pymatgen
data_CrFeO3
_symmetry_space_group_name_H-M   'P 1'
_cell_length_a   9.95723919
_cell_length_b   9.96595265
_cell_length_c   10.00374561
_cell_angle_alpha   89.27478509
_cell_angle_beta   87.93391509
_cell_angle_gamma   92.19663767
_symmetry_Int_Tables_number   1
_chemical_formula_structural   CrFeO3
_chemical_formula_sum   'Cr16 Fe16 O48'
_cell_volume   991.23311879
_cell_formula_units_Z   16
loop_
 _symmetry_equiv_pos_site_id
 _symmetry_equiv_pos_as_xyz
  1  'x, y, z'
loop_
 _atom_site_type_symbol
 _atom_site_label
 _atom_site_symmetry_multiplicity
 _atom_site_fract_x
 _atom_site_fract_y
 _atom_site_fract_z
 _atom_site_occupancy
  Cr  Cr0  1  0.64827400  0.25604800  0.73380600  1
  Cr  Cr1  1  0.54526500  0.12174200  0.95345600  1
  Cr  Cr2  1  0.71593800  0.14955400  0.42974200  1
  Cr  Cr3  1  0.23968800  0.17355500  0.12504200  1
  Cr  Cr4  1  0.88903400  0.37634600  0.46392000  1
  Cr  Cr5  1  0.37234300  0.69714500  0.42348500  1
  Cr  Cr6  1  0.20330700  0.96281300  0.80713100  1
  Cr  Cr7  1  0.35853700  0.24646900  0.66899700  1
  Cr  Cr8  1  0.21779700  0.01137200  0.39876300  1
  Cr  Cr9  1  0.52713100  0.37066200  0.38738100  1
  Cr  Cr10  1  0.48945900  0.81207300  0.83530600  1
  Cr  Cr11  1  0.04345600  0.67080000  0.68994400  1
  Cr  Cr12  1  0.83943900  0.46088200  0.74858700  1
  Cr  Cr13  1  0.92836900  0.16983800  0.92905000  1
  Cr  Cr14  1  0.91425800  0.97824600  0.37685900  1
  Cr  Cr15  1  0.72781700  0.75964000  0.60392500  1
  Fe  Fe0  1  0.44056100  0.41923200  0.98409100  1
  Fe  Fe1  1  0.51078600  0.67649500  0.12573200  1
  Fe  Fe2  1  0.93151500  0.09505900  0.61465100  1
  Fe  Fe3  1  0.71083900  0.82696800  0.24682300  1
  Fe  Fe4  1  0.30117800  0.47811200  0.22053600  1
  Fe  Fe5  1  0.74715900  0.90985500  0.93323600  1
  Fe  Fe6  1  0.87378600  0.62919800  0.02317600  1
  Fe  Fe7  1  0.22223300  0.67328100  0.99583100  1
  Fe  Fe8  1  0.99113400  0.66311100  0.40855400  1
  Fe  Fe9  1  0.69776900  0.34524900  0.14603100  1
  Fe  Fe10  1  0.04390600  0.39463400  0.14338200  1
  Fe  Fe11  1  0.51811100  0.04220500  0.24891000  1
  Fe  Fe12  1  0.17516400  0.46081000  0.48750600  1
  Fe  Fe13  1  0.04817600  0.90112200  0.09370900  1
  Fe  Fe14  1  0.52134600  0.52399600  0.69082000  1
  Fe  Fe15  1  0.16506400  0.41008200  0.82102000  1
  O  O0  1  0.30430200  0.87917000  0.43684500  1
  O  O1  1  0.27905500  0.13476700  0.48975500  1
  O  O2  1  0.37172900  0.39859000  0.79756900  1
  O  O3  1  0.77888500  0.98811900  0.54197100  1
  O  O4  1  0.72499100  0.34281700  0.35913600  1
  O  O5  1  0.64385500  0.40289300  0.84076800  1
  O  O6  1  0.73724000  0.01446000  0.28827300  1
  O  O7  1  0.03319000  0.71085400  0.09125800  1
  O  O8  1  0.97501800  0.35194700  0.84977100  1
  O  O9  1  0.52831900  0.17607700  0.40159400  1
  O  O10  1  0.85939800  0.45685400  0.10259800  1
  O  O11  1  0.71803500  0.73377400  0.07688400  1
  O  O12  1  0.36432800  0.48815400  0.40716500  1
  O  O13  1  0.45246200  0.65345700  0.92636000  1
  O  O14  1  0.66257700  0.83114800  0.77046900  1
  O  O15  1  0.03115700  0.46616000  0.34597300  1
  O  O16  1  0.71032000  0.56730700  0.64141700  1
  O  O17  1  0.36106900  0.89132700  0.75123000  1
  O  O18  1  0.07956300  0.20851200  0.05098900  1
  O  O19  1  0.17807900  0.65165300  0.50974400  1
  O  O20  1  0.10123700  0.84624400  0.73889100  1
  O  O21  1  0.50598400  0.14485600  0.75259800  1
  O  O22  1  0.53535500  0.78330800  0.31091300  1
  O  O23  1  0.97384100  0.49313600  0.59943900  1
  O  O24  1  0.73407500  0.14490400  0.86542200  1
  O  O25  1  0.99555900  0.07271500  0.78129500  1
  O  O26  1  0.80224200  0.27565900  0.62621600  1
  O  O27  1  0.21027800  0.91082100  0.98194800  1
  O  O28  1  0.31618000  0.04471400  0.23683200  1
  O  O29  1  0.61503500  0.16798700  0.11993600  1
  O  O30  1  0.51764000  0.45226000  0.17648600  1
  O  O31  1  0.17012500  0.59671800  0.81457800  1
  O  O32  1  0.19368600  0.34340300  0.63063100  1
  O  O33  1  0.52313600  0.35474400  0.58862000  1
  O  O34  1  0.92043700  0.18373300  0.42734100  1
  O  O35  1  0.07852900  0.99126800  0.25966700  1
  O  O36  1  0.38149200  0.21077600  0.01503800  1
  O  O37  1  0.91329200  0.75238300  0.57739300  1
  O  O38  1  0.48366100  0.68134500  0.59218000  1
  O  O39  1  0.87035100  0.78927700  0.32703400  1
  O  O40  1  0.90133900  0.98669500  0.02354600  1
  O  O41  1  0.06165600  0.98499300  0.50141400  1
  O  O42  1  0.24010500  0.29993700  0.25482800  1
  O  O43  1  0.89610700  0.62744000  0.83303200  1
  O  O44  1  0.22553300  0.46477500  0.04452100  1
  O  O45  1  0.24708700  0.12881800  0.78511600  1
  O  O46  1  0.53668800  0.92804400  0.98004600  1
  O  O47  1  0.31642300  0.66568300  0.21343400  1
loop_
_geom_bond_atom_site_label_1
_geom_bond_atom_site_label_2
_geom_bond_distance
_geom_bond_site_symmetry_2
Cr0 O21 1.768003 1_555
Cr0 O5 1.824760 1_555
Cr0 O26 1.843838 1_555
Cr0 O24 1.951181 1_555
Cr0 O33 2.194951 1_555
Cr1 O29 1.883344 1_556
Cr1 O46 1.943492 1_545
Cr1 O36 1.969372 1_556
Cr1 O24 2.050748 1_555
Cr1 O21 2.072515 1_555
Cr2 O9 1.926943 1_555
Cr2 O6 1.977106 1_555
Cr2 O4 2.040674 1_555
Cr2 O34 2.050852 1_555
Cr2 O3 2.079437 1_545
Cr2 O26 2.506499 1_555
Cr3 O36 1.783185 1_555
Cr3 O42 1.820299 1_555
Cr3 O18 1.825787 1_555
Cr3 O28 1.891956 1_555
Cr4 O15 1.987911 1_655
Cr4 O23 1.988181 1_555
Cr4 O4 1.992229 1_555
Cr4 O34 1.992982 1_555
Cr4 O26 2.044710 1_555
Cr5 O0 1.965065 1_555
Cr5 O38 2.059818 1_555
Cr5 O12 2.089943 1_555
Cr5 O22 2.092139 1_555
Cr5 O19 2.119982 1_555
Cr5 O47 2.216180 1_555
Cr6 O20 1.681709 1_555
Cr6 O45 1.704153 1_565
Cr6 O27 1.822157 1_555
Cr6 O17 1.822212 1_555
Cr6 O25 2.398040 1_465
Cr7 O45 1.930926 1_555
Cr7 O32 1.983061 1_555
Cr7 O2 2.004045 1_555
Cr7 O21 2.015320 1_555
Cr7 O33 2.060222 1_555
Cr7 O1 2.272903 1_555
Cr8 O0 1.649504 1_545
Cr8 O1 1.650387 1_555
Cr8 O41 1.840526 1_545
Cr8 O28 1.881808 1_555
Cr8 O35 2.006056 1_545
Cr9 O9 1.943154 1_555
Cr9 O4 2.010485 1_555
Cr9 O33 2.016223 1_555
Cr9 O12 2.041158 1_555
Cr9 O30 2.257890 1_555
Cr10 O17 1.761734 1_555
Cr10 O14 1.821918 1_555
Cr10 O13 1.832738 1_555
Cr10 O46 1.924388 1_555
Cr11 O20 1.895463 1_555
Cr11 O37 1.942012 1_455
Cr11 O31 1.962624 1_555
Cr11 O43 2.042703 1_455
Cr11 O23 2.104034 1_455
Cr11 O19 2.221936 1_555
Cr12 O43 1.945606 1_555
Cr12 O23 1.982772 1_555
Cr12 O16 2.025440 1_555
Cr12 O8 2.051523 1_555
Cr12 O5 2.178936 1_555
Cr12 O26 2.254038 1_555
Cr13 O25 1.893097 1_555
Cr13 O18 2.000717 1_656
Cr13 O8 2.002734 1_555
Cr13 O40 2.048832 1_546
Cr13 O24 2.065344 1_555
Cr14 O41 1.958972 1_655
Cr14 O35 1.976953 1_655
Cr14 O39 1.990625 1_555
Cr14 O6 2.043449 1_565
Cr14 O3 2.099669 1_555
Cr14 O34 2.114561 1_565
Cr15 O37 1.860591 1_555
Cr15 O14 1.921752 1_555
Cr15 O16 1.948478 1_555
Cr15 O3 2.383329 1_555
Cr15 O38 2.531895 1_555
Fe0 O2 2.021097 1_555
Fe0 O30 2.122482 1_556
Fe0 O36 2.152801 1_556
Fe0 O44 2.267999 1_556
Fe0 O13 2.395027 1_555
Fe0 O5 2.449834 1_555
Fe1 O47 2.094278 1_555
Fe1 O13 2.110158 1_554
Fe1 O11 2.157112 1_555
Fe1 O22 2.165040 1_555
Fe1 O30 2.289513 1_555
Fe2 O25 1.820301 1_555
Fe2 O3 1.987288 1_545
Fe2 O41 2.049446 1_645
Fe2 O34 2.069957 1_555
Fe2 O26 2.254301 1_555
Fe3 O39 1.854091 1_555
Fe3 O22 1.872818 1_555
Fe3 O6 1.929324 1_565
Fe3 O11 1.947850 1_555
Fe4 O47 1.869912 1_555
Fe4 O42 1.878112 1_555
Fe4 O44 1.944050 1_555
Fe4 O12 1.993892 1_555
Fe4 O30 2.209777 1_555
Fe5 O40 1.945992 1_556
Fe5 O14 2.014060 1_555
Fe5 O46 2.145845 1_555
Fe5 O11 2.257344 1_556
Fe5 O24 2.440077 1_565
Fe6 O10 1.881548 1_555
Fe6 O7 1.907443 1_655
Fe6 O43 1.907497 1_554
Fe6 O11 1.964175 1_555
Fe7 O31 2.052230 1_555
Fe7 O7 2.127973 1_556
Fe7 O44 2.130028 1_556
Fe7 O27 2.377414 1_555
Fe7 O13 2.387601 1_555
Fe7 O47 2.402597 1_556
Fe8 O39 1.962932 1_555
Fe8 O37 2.059515 1_555
Fe8 O15 2.115757 1_655
Fe8 O19 2.156850 1_655
Fe8 O23 2.533307 1_555
Fe9 O29 1.945054 1_555
Fe9 O10 1.953487 1_555
Fe9 O30 2.136021 1_555
Fe9 O4 2.158633 1_555
Fe10 O10 2.015242 1_455
Fe10 O18 2.119235 1_555
Fe10 O44 2.119911 1_555
Fe10 O15 2.157910 1_555
Fe10 O42 2.494375 1_555
Fe11 O29 1.985945 1_555
Fe11 O28 2.019736 1_555
Fe11 O9 2.043451 1_555
Fe11 O6 2.257816 1_555
Fe11 O22 2.659424 1_545
Fe12 O32 1.856413 1_555
Fe12 O19 1.916931 1_555
Fe12 O12 2.028283 1_555
Fe12 O15 2.052789 1_555
Fe12 O23 2.296284 1_455
Fe13 O40 1.874057 1_455
Fe13 O7 1.896892 1_555
Fe13 O35 1.925575 1_555
Fe13 O27 1.928678 1_554
Fe14 O38 1.898998 1_555
Fe14 O16 1.958695 1_555
Fe14 O33 1.983779 1_555
Fe14 O2 2.151873 1_555
Fe14 O5 2.322446 1_555
Fe15 O31 1.858994 1_555
Fe15 O8 1.967692 1_455
Fe15 O32 2.039054 1_555
Fe15 O2 2.070431 1_555
Fe15 O44 2.400292 1_556
