# generated using pymatgen
data_NdGa2Co3
_symmetry_space_group_name_H-M   'P 1'
_cell_length_a   8.96377897
_cell_length_b   8.96377897
_cell_length_c   3.97918600
_cell_angle_alpha   90.00000000
_cell_angle_beta   90.00000000
_cell_angle_gamma   119.99999237
_symmetry_Int_Tables_number   1
_chemical_formula_structural   NdGa2Co3
_chemical_formula_sum   'Nd3 Ga6 Co9'
_cell_volume   276.88994362
_cell_formula_units_Z   3
loop_
 _symmetry_equiv_pos_site_id
 _symmetry_equiv_pos_as_xyz
  1  'x, y, z'
loop_
 _atom_site_type_symbol
 _atom_site_label
 _atom_site_symmetry_multiplicity
 _atom_site_fract_x
 _atom_site_fract_y
 _atom_site_fract_z
 _atom_site_occupancy
  Nd  Nd0  1  0.33333300  0.66666700  0.00000000  1
  Nd  Nd1  1  0.00000000  0.00000000  0.00000000  1
  Nd  Nd2  1  0.66666700  0.33333300  0.00000000  1
  Ga  Ga0  1  0.17382100  0.82617900  0.50000000  1
  Ga  Ga1  1  0.17382100  0.34764200  0.50000000  1
  Ga  Ga2  1  0.65235800  0.82617900  0.50000000  1
  Ga  Ga3  1  0.82617900  0.17382100  0.50000000  1
  Ga  Ga4  1  0.34764200  0.17382100  0.50000000  1
  Ga  Ga5  1  0.82617900  0.65235800  0.50000000  1
  Co  Co0  1  0.34394100  0.00000000  0.00000000  1
  Co  Co1  1  0.00000000  0.34394100  0.00000000  1
  Co  Co2  1  0.65605900  0.65605900  0.00000000  1
  Co  Co3  1  0.00000000  0.65605900  0.00000000  1
  Co  Co4  1  0.34394100  0.34394100  0.00000000  1
  Co  Co5  1  0.65605900  0.00000000  0.00000000  1
  Co  Co6  1  0.50000000  0.50000000  0.50000000  1
  Co  Co7  1  0.50000000  0.00000000  0.50000000  1
  Co  Co8  1  0.00000000  0.50000000  0.50000000  1
loop_
_geom_bond_atom_site_label_1
_geom_bond_atom_site_label_2
_geom_bond_distance
_geom_bond_site_symmetry_2
Ga0 Ga4 2.698696 1_565
Ga0 Ga5 2.698696 1_455
Ga0 Nd0 3.176747 1_556
Ga0 Nd0 3.176747 1_555
Ga0 Nd1 3.352826 1_565
Ga0 Nd1 3.352826 1_566
Ga1 Ga4 2.698696 1_555
Ga1 Ga3 2.698696 1_455
Ga1 Nd0 3.176754 1_555
Ga1 Nd0 3.176754 1_556
Ga1 Nd1 3.352826 1_555
Ga1 Nd1 3.352826 1_556
Ga2 Ga5 2.698696 1_555
Ga2 Ga3 2.698696 1_565
Ga2 Nd0 3.176754 1_555
Ga2 Nd0 3.176754 1_556
Ga2 Nd1 3.352826 1_665
Ga2 Nd1 3.352826 1_666
Ga3 Nd2 3.176747 1_555
Ga3 Nd2 3.176747 1_556
Ga3 Nd1 3.352826 1_655
Ga3 Nd1 3.352826 1_656
Ga4 Nd2 3.176754 1_555
Ga4 Nd2 3.176754 1_556
Ga4 Nd1 3.352826 1_555
Ga4 Nd1 3.352826 1_556
Ga5 Nd2 3.176754 1_555
Ga5 Nd2 3.176754 1_556
Ga5 Nd1 3.352826 1_665
Ga5 Nd1 3.352826 1_666
Co0 Co7 2.432147 1_554
Co0 Co7 2.432147 1_555
Co0 Ga4 2.517051 1_555
Co0 Ga4 2.517051 1_554
Co0 Ga0 2.517051 1_545
Co0 Ga0 2.517051 1_544
Co0 Co5 2.797757 1_555
Co0 Nd0 2.941532 1_545
Co0 Nd2 2.941537 1_555
Co0 Co4 3.083011 1_555
Co0 Nd1 3.083011 1_555
Co0 Co3 3.083011 1_545
Co1 Co8 2.432147 1_555
Co1 Co8 2.432147 1_554
Co1 Ga1 2.517051 1_554
Co1 Ga1 2.517051 1_555
Co1 Ga3 2.517051 1_455
Co1 Ga3 2.517051 1_454
Co1 Co3 2.797757 1_555
Co1 Nd2 2.941532 1_455
Co1 Nd0 2.941537 1_555
Co1 Co4 3.083011 1_555
Co1 Nd1 3.083011 1_555
Co1 Co5 3.083011 1_455
Co2 Co6 2.432148 1_554
Co2 Co6 2.432148 1_555
Co2 Ga2 2.517051 1_555
Co2 Ga2 2.517051 1_554
Co2 Ga5 2.517051 1_554
Co2 Ga5 2.517051 1_555
Co2 Co4 2.797757 1_555
Co2 Nd2 2.941541 1_555
Co2 Nd0 2.941541 1_555
Co2 Co3 3.083011 1_655
Co2 Co5 3.083011 1_565
Co2 Nd1 3.083011 1_665
Co3 Co8 2.432147 1_555
Co3 Co8 2.432147 1_554
Co3 Ga5 2.517051 1_454
Co3 Ga5 2.517051 1_455
Co3 Ga0 2.517051 1_554
Co3 Ga0 2.517051 1_555
Co3 Nd0 2.941532 1_555
Co3 Nd2 2.941537 1_455
Co3 Nd1 3.083011 1_565
Co4 Co6 2.432148 1_555
Co4 Co6 2.432148 1_554
Co4 Ga4 2.517051 1_554
Co4 Ga1 2.517051 1_555
Co4 Ga4 2.517051 1_555
Co4 Ga1 2.517051 1_554
Co4 Nd0 2.941541 1_555
Co4 Nd2 2.941541 1_555
Co4 Nd1 3.083011 1_555
Co5 Co7 2.432147 1_554
Co5 Co7 2.432147 1_555
Co5 Ga2 2.517051 1_544
Co5 Ga2 2.517051 1_545
Co5 Ga3 2.517051 1_555
Co5 Ga3 2.517051 1_554
Co5 Nd2 2.941532 1_555
Co5 Nd0 2.941537 1_545
Co5 Nd1 3.083011 1_655
Co6 Ga1 2.533909 1_555
Co6 Ga4 2.533909 1_555
Co6 Ga5 2.533909 1_555
Co6 Ga2 2.533909 1_555
Co6 Nd2 3.264090 1_555
Co6 Nd2 3.264090 1_556
Co6 Nd0 3.264090 1_555
Co6 Nd0 3.264090 1_556
Co7 Ga4 2.533908 1_555
Co7 Ga2 2.533908 1_545
Co7 Ga0 2.533909 1_545
Co7 Ga3 2.533909 1_555
Co7 Nd0 3.264084 1_546
Co7 Nd2 3.264084 1_555
Co7 Nd2 3.264084 1_556
Co7 Nd0 3.264084 1_545
Co8 Ga1 2.533908 1_555
Co8 Ga5 2.533908 1_455
Co8 Ga3 2.533909 1_455
Co8 Ga0 2.533909 1_555
Co8 Nd0 3.264084 1_555
Co8 Nd0 3.264084 1_556
Co8 Nd2 3.264084 1_456
Co8 Nd2 3.264084 1_455
