# generated using pymatgen
data_NaMn4O8
_symmetry_space_group_name_H-M   'P 1'
_cell_length_a   5.94147728
_cell_length_b   5.94147728
_cell_length_c   6.71585935
_cell_angle_alpha   63.43624436
_cell_angle_beta   63.43624436
_cell_angle_gamma   58.72126025
_symmetry_Int_Tables_number   1
_chemical_formula_structural   NaMn4O8
_chemical_formula_sum   'Na1 Mn4 O8'
_cell_volume   173.91340258
_cell_formula_units_Z   1
loop_
 _symmetry_equiv_pos_site_id
 _symmetry_equiv_pos_as_xyz
  1  'x, y, z'
loop_
 _atom_site_type_symbol
 _atom_site_label
 _atom_site_symmetry_multiplicity
 _atom_site_fract_x
 _atom_site_fract_y
 _atom_site_fract_z
 _atom_site_occupancy
  Na  Na0  1  0.00000000  0.00000000  0.50000000  1
  Mn  Mn0  1  0.00000000  0.00000000  0.00000000  1
  Mn  Mn1  1  0.00000000  0.50000000  0.00000000  1
  Mn  Mn2  1  0.50000000  0.00000000  0.00000000  1
  Mn  Mn3  1  0.50000000  0.50000000  0.00000000  1
  O  O0  1  0.22181100  0.22181100  0.82927400  1
  O  O1  1  0.21594000  0.72323700  0.83228500  1
  O  O2  1  0.74480900  0.74480900  0.81800900  1
  O  O3  1  0.72323700  0.21594000  0.83228500  1
  O  O4  1  0.25519100  0.25519100  0.18199100  1
  O  O5  1  0.27676300  0.78406000  0.16771500  1
  O  O6  1  0.77818900  0.77818900  0.17072600  1
  O  O7  1  0.78406000  0.27676300  0.16771500  1
loop_
_geom_bond_atom_site_label_1
_geom_bond_atom_site_label_2
_geom_bond_distance
_geom_bond_site_symmetry_2
Na0 O4 2.398717 1_555
Na0 O2 2.398717 1_445
Na0 O1 2.533375 1_545
Na0 O3 2.533375 1_455
Na0 O7 2.533375 1_455
Na0 O5 2.533375 1_545
Mn0 O5 1.947314 1_545
Mn0 O7 1.947314 1_455
Mn0 O1 1.947314 1_544
Mn0 O3 1.947314 1_454
Mn0 O0 1.972020 1_554
Mn0 O6 1.972020 1_445
Mn1 O4 1.919830 1_555
Mn1 O2 1.919830 1_454
Mn1 O7 1.952539 1_455
Mn1 O1 1.952539 1_554
Mn1 O6 1.965948 1_455
Mn1 O0 1.965948 1_554
Mn2 O4 1.919830 1_555
Mn2 O2 1.919830 1_544
Mn2 O5 1.952539 1_545
Mn2 O3 1.952539 1_554
Mn2 O6 1.965948 1_545
Mn2 O0 1.965948 1_554
Mn3 O5 1.978859 1_555
Mn3 O7 1.978859 1_555
Mn3 O3 1.978859 1_554
Mn3 O1 1.978859 1_554
Mn3 O2 2.177618 1_554
Mn3 O4 2.177618 1_555
