# generated using pymatgen
data_Na3Cl2
_symmetry_space_group_name_H-M   'P 1'
_cell_length_a   16.18233800
_cell_length_b   16.18233800
_cell_length_c   7.41073600
_cell_angle_alpha   90.00000000
_cell_angle_beta   90.00000000
_cell_angle_gamma   90.00000000
_symmetry_Int_Tables_number   1
_chemical_formula_structural   Na3Cl2
_chemical_formula_sum   'Na48 Cl32'
_cell_volume   1940.63508281
_cell_formula_units_Z   16
loop_
 _symmetry_equiv_pos_site_id
 _symmetry_equiv_pos_as_xyz
  1  'x, y, z'
loop_
 _atom_site_type_symbol
 _atom_site_label
 _atom_site_symmetry_multiplicity
 _atom_site_fract_x
 _atom_site_fract_y
 _atom_site_fract_z
 _atom_site_occupancy
  Na  Na0_0  1  0.44254900  0.16305600  0.25000000  1
  Na  Na0_1  1  0.44254900  0.16305600  0.75000000  1
  Na  Na0_2  1  0.44254900  0.66305600  0.25000000  1
  Na  Na0_3  1  0.44254900  0.66305600  0.75000000  1
  Na  Na0_4  1  0.94254900  0.16305600  0.25000000  1
  Na  Na0_5  1  0.94254900  0.16305600  0.75000000  1
  Na  Na0_6  1  0.94254900  0.66305600  0.25000000  1
  Na  Na0_7  1  0.94254900  0.66305600  0.75000000  1
  Na  Na1_0  1  0.05745100  0.33694400  0.25000000  1
  Na  Na1_1  1  0.05745100  0.33694400  0.75000000  1
  Na  Na1_2  1  0.05745100  0.83694400  0.25000000  1
  Na  Na1_3  1  0.05745100  0.83694400  0.75000000  1
  Na  Na1_4  1  0.55745100  0.33694400  0.25000000  1
  Na  Na1_5  1  0.55745100  0.33694400  0.75000000  1
  Na  Na1_6  1  0.55745100  0.83694400  0.25000000  1
  Na  Na1_7  1  0.55745100  0.83694400  0.75000000  1
  Na  Na2_0  1  0.33694400  0.44254900  0.25000000  1
  Na  Na2_1  1  0.33694400  0.44254900  0.75000000  1
  Na  Na2_2  1  0.33694400  0.94254900  0.25000000  1
  Na  Na2_3  1  0.33694400  0.94254900  0.75000000  1
  Na  Na2_4  1  0.83694400  0.44254900  0.25000000  1
  Na  Na2_5  1  0.83694400  0.44254900  0.75000000  1
  Na  Na2_6  1  0.83694400  0.94254900  0.25000000  1
  Na  Na2_7  1  0.83694400  0.94254900  0.75000000  1
  Na  Na3_0  1  0.16305600  0.05745100  0.25000000  1
  Na  Na3_1  1  0.16305600  0.05745100  0.75000000  1
  Na  Na3_2  1  0.16305600  0.55745100  0.25000000  1
  Na  Na3_3  1  0.16305600  0.55745100  0.75000000  1
  Na  Na3_4  1  0.66305600  0.05745100  0.25000000  1
  Na  Na3_5  1  0.66305600  0.05745100  0.75000000  1
  Na  Na3_6  1  0.66305600  0.55745100  0.25000000  1
  Na  Na3_7  1  0.66305600  0.55745100  0.75000000  1
  Na  Na4_0  1  0.25000000  0.25000000  0.25000000  1
  Na  Na4_1  1  0.25000000  0.25000000  0.75000000  1
  Na  Na4_2  1  0.25000000  0.75000000  0.25000000  1
  Na  Na4_3  1  0.25000000  0.75000000  0.75000000  1
  Na  Na4_4  1  0.75000000  0.25000000  0.25000000  1
  Na  Na4_5  1  0.75000000  0.25000000  0.75000000  1
  Na  Na4_6  1  0.75000000  0.75000000  0.25000000  1
  Na  Na4_7  1  0.75000000  0.75000000  0.75000000  1
  Na  Na5_0  1  0.00000000  0.00000000  0.00000000  1
  Na  Na5_1  1  0.00000000  0.00000000  0.50000000  1
  Na  Na5_2  1  0.00000000  0.50000000  0.00000000  1
  Na  Na5_3  1  0.00000000  0.50000000  0.50000000  1
  Na  Na5_4  1  0.50000000  0.00000000  0.00000000  1
  Na  Na5_5  1  0.50000000  0.00000000  0.50000000  1
  Na  Na5_6  1  0.50000000  0.50000000  0.00000000  1
  Na  Na5_7  1  0.50000000  0.50000000  0.50000000  1
  Cl  Cl0_0  1  0.39874500  0.29771250  0.00000000  1
  Cl  Cl0_1  1  0.39874500  0.29771250  0.50000000  1
  Cl  Cl0_2  1  0.39874500  0.79771250  0.00000000  1
  Cl  Cl0_3  1  0.39874500  0.79771250  0.50000000  1
  Cl  Cl0_4  1  0.89874500  0.29771250  0.00000000  1
  Cl  Cl0_5  1  0.89874500  0.29771250  0.50000000  1
  Cl  Cl0_6  1  0.89874500  0.79771250  0.00000000  1
  Cl  Cl0_7  1  0.89874500  0.79771250  0.50000000  1
  Cl  Cl1_0  1  0.10125500  0.20228750  0.00000000  1
  Cl  Cl1_1  1  0.10125500  0.20228750  0.50000000  1
  Cl  Cl1_2  1  0.10125500  0.70228750  0.00000000  1
  Cl  Cl1_3  1  0.10125500  0.70228750  0.50000000  1
  Cl  Cl1_4  1  0.60125500  0.20228750  0.00000000  1
  Cl  Cl1_5  1  0.60125500  0.20228750  0.50000000  1
  Cl  Cl1_6  1  0.60125500  0.70228750  0.00000000  1
  Cl  Cl1_7  1  0.60125500  0.70228750  0.50000000  1
  Cl  Cl2_0  1  0.20228750  0.39874500  0.00000000  1
  Cl  Cl2_1  1  0.20228750  0.39874500  0.50000000  1
  Cl  Cl2_2  1  0.20228750  0.89874500  0.00000000  1
  Cl  Cl2_3  1  0.20228750  0.89874500  0.50000000  1
  Cl  Cl2_4  1  0.70228750  0.39874500  0.00000000  1
  Cl  Cl2_5  1  0.70228750  0.39874500  0.50000000  1
  Cl  Cl2_6  1  0.70228750  0.89874500  0.00000000  1
  Cl  Cl2_7  1  0.70228750  0.89874500  0.50000000  1
  Cl  Cl3_0  1  0.29771250  0.10125500  0.00000000  1
  Cl  Cl3_1  1  0.29771250  0.10125500  0.50000000  1
  Cl  Cl3_2  1  0.29771250  0.60125500  0.00000000  1
  Cl  Cl3_3  1  0.29771250  0.60125500  0.50000000  1
  Cl  Cl3_4  1  0.79771250  0.10125500  0.00000000  1
  Cl  Cl3_5  1  0.79771250  0.10125500  0.50000000  1
  Cl  Cl3_6  1  0.79771250  0.60125500  0.00000000  1
  Cl  Cl3_7  1  0.79771250  0.60125500  0.50000000  1
loop_
_geom_bond_atom_site_label_1
_geom_bond_atom_site_label_2
_geom_bond_distance
_geom_bond_site_symmetry_2
Na0_0 Na5_4 3.355461 1_555
Na0_0 Na5_5 3.355461 1_555
Na0_1 Na5_5 3.355461 1_555
Na0_1 Na5_4 3.355461 1_556
Na0_2 Na5_6 3.355461 1_555
Na0_2 Na5_7 3.355461 1_555
Na0_3 Na5_7 3.355461 1_555
Na0_3 Na5_6 3.355461 1_556
Na0_4 Na5_0 3.355461 1_655
Na0_4 Na5_1 3.355461 1_655
Na0_5 Na5_1 3.355461 1_655
Na0_5 Na5_0 3.355461 1_656
Na0_6 Na5_2 3.355461 1_655
Na0_6 Na5_3 3.355461 1_655
Na0_7 Na5_3 3.355461 1_655
Na0_7 Na5_2 3.355461 1_656
Na1_0 Na5_2 3.355461 1_555
Na1_0 Na5_3 3.355461 1_555
Na1_1 Na5_3 3.355461 1_555
Na1_1 Na5_2 3.355461 1_556
Na1_2 Na5_1 3.355461 1_565
Na1_2 Na5_0 3.355461 1_565
Na1_3 Na5_1 3.355461 1_565
Na1_3 Na5_0 3.355461 1_566
Na1_4 Na5_6 3.355461 1_555
Na1_4 Na5_7 3.355461 1_555
Na1_5 Na5_7 3.355461 1_555
Na1_5 Na5_6 3.355461 1_556
Na1_6 Na5_4 3.355461 1_565
Na1_6 Na5_5 3.355461 1_565
Na1_7 Na5_5 3.355461 1_565
Na1_7 Na5_4 3.355461 1_566
Na2_0 Na5_6 3.355461 1_555
Na2_0 Na5_7 3.355461 1_555
Na2_1 Na5_7 3.355461 1_555
Na2_1 Na5_6 3.355461 1_556
Na2_2 Na5_4 3.355461 1_565
Na2_2 Na5_5 3.355461 1_565
Na2_3 Na5_5 3.355461 1_565
Na2_3 Na5_4 3.355461 1_566
Na2_4 Na5_2 3.355461 1_655
Na2_4 Na5_3 3.355461 1_655
Na2_5 Na5_3 3.355461 1_655
Na2_5 Na5_2 3.355461 1_656
Na2_6 Na5_0 3.355461 1_665
Na2_6 Na5_1 3.355461 1_665
Na2_7 Na5_1 3.355461 1_665
Na2_7 Na5_0 3.355461 1_666
Na3_0 Na5_0 3.355461 1_555
Na3_0 Na5_1 3.355461 1_555
Na3_1 Na5_1 3.355461 1_555
Na3_1 Na5_0 3.355461 1_556
Na3_2 Na5_3 3.355461 1_555
Na3_2 Na5_2 3.355461 1_555
Na3_3 Na5_3 3.355461 1_555
Na3_3 Na5_2 3.355461 1_556
Na3_4 Na5_4 3.355461 1_555
Na3_4 Na5_5 3.355461 1_555
Na3_5 Na5_5 3.355461 1_555
Na3_5 Na5_4 3.355461 1_556
Na3_6 Na5_6 3.355461 1_555
Na3_6 Na5_7 3.355461 1_555
Na3_7 Na5_7 3.355461 1_555
Na3_7 Na5_6 3.355461 1_556
Na5_0 Na5_1 3.705368 1_555
Na5_0 Na5_1 3.705368 1_554
Na5_2 Na5_3 3.705368 1_555
Na5_2 Na5_3 3.705368 1_554
Na5_4 Na5_5 3.705368 1_555
Na5_4 Na5_5 3.705368 1_554
Na5_6 Na5_7 3.705368 1_555
Na5_6 Na5_7 3.705368 1_554
Cl0_0 Na0_0 2.946727 1_555
Cl0_0 Na0_1 2.946727 1_554
Cl0_0 Na4_0 3.134075 1_555
Cl0_0 Na4_1 3.134075 1_554
Cl0_0 Na2_0 3.150551 1_555
Cl0_0 Na2_1 3.150551 1_554
Cl0_0 Na1_4 3.229754 1_555
Cl0_0 Na1_5 3.229754 1_554
Cl0_1 Na0_1 2.946727 1_555
Cl0_1 Na0_0 2.946727 1_555
Cl0_1 Na4_1 3.134075 1_555
Cl0_1 Na4_0 3.134075 1_555
Cl0_1 Na2_1 3.150551 1_555
Cl0_1 Na2_0 3.150551 1_555
Cl0_1 Na1_5 3.229754 1_555
Cl0_1 Na1_4 3.229754 1_555
Cl0_2 Na0_2 2.946727 1_555
Cl0_2 Na0_3 2.946727 1_554
Cl0_2 Na4_2 3.134075 1_555
Cl0_2 Na4_3 3.134075 1_554
Cl0_2 Na2_2 3.150551 1_555
Cl0_2 Na2_3 3.150551 1_554
Cl0_2 Na1_6 3.229754 1_555
Cl0_2 Na1_7 3.229754 1_554
Cl0_3 Na0_3 2.946727 1_555
Cl0_3 Na0_2 2.946727 1_555
Cl0_3 Na4_3 3.134075 1_555
Cl0_3 Na4_2 3.134075 1_555
Cl0_3 Na2_3 3.150551 1_555
Cl0_3 Na2_2 3.150551 1_555
Cl0_3 Na1_6 3.229754 1_555
Cl0_3 Na1_7 3.229754 1_555
Cl0_4 Na0_4 2.946727 1_555
Cl0_4 Na0_5 2.946727 1_554
Cl0_4 Na4_4 3.134075 1_555
Cl0_4 Na4_5 3.134075 1_554
Cl0_4 Na2_4 3.150551 1_555
Cl0_4 Na2_5 3.150551 1_554
Cl0_4 Na1_0 3.229754 1_655
Cl0_4 Na1_1 3.229754 1_654
Cl0_5 Na0_5 2.946727 1_555
Cl0_5 Na0_4 2.946727 1_555
Cl0_5 Na4_4 3.134075 1_555
Cl0_5 Na4_5 3.134075 1_555
Cl0_5 Na2_5 3.150551 1_555
Cl0_5 Na2_4 3.150551 1_555
Cl0_5 Na1_1 3.229754 1_655
Cl0_5 Na1_0 3.229754 1_655
Cl0_6 Na0_6 2.946727 1_555
Cl0_6 Na0_7 2.946727 1_554
Cl0_6 Na4_6 3.134075 1_555
Cl0_6 Na4_7 3.134075 1_554
Cl0_6 Na2_6 3.150551 1_555
Cl0_6 Na2_7 3.150551 1_554
Cl0_6 Na1_2 3.229754 1_655
Cl0_6 Na1_3 3.229754 1_654
Cl0_7 Na0_7 2.946727 1_555
Cl0_7 Na0_6 2.946727 1_555
Cl0_7 Na4_7 3.134075 1_555
Cl0_7 Na4_6 3.134075 1_555
Cl0_7 Na2_7 3.150551 1_555
Cl0_7 Na2_6 3.150551 1_555
Cl0_7 Na1_2 3.229754 1_655
Cl0_7 Na1_3 3.229754 1_655
Cl1_0 Na1_0 2.946727 1_555
Cl1_0 Na1_1 2.946727 1_554
Cl1_0 Na4_0 3.134075 1_555
Cl1_0 Na4_1 3.134075 1_554
Cl1_0 Na3_0 3.150551 1_555
Cl1_0 Na3_1 3.150551 1_554
Cl1_0 Na0_4 3.229754 1_455
Cl1_0 Na0_5 3.229754 1_454
Cl1_1 Na1_0 2.946727 1_555
Cl1_1 Na1_1 2.946727 1_555
Cl1_1 Na4_1 3.134075 1_555
Cl1_1 Na4_0 3.134075 1_555
Cl1_1 Na3_0 3.150551 1_555
Cl1_1 Na3_1 3.150551 1_555
Cl1_1 Na0_5 3.229754 1_455
Cl1_1 Na0_4 3.229754 1_455
Cl1_2 Na1_2 2.946727 1_555
Cl1_2 Na1_3 2.946727 1_554
Cl1_2 Na4_2 3.134075 1_555
Cl1_2 Na4_3 3.134075 1_554
Cl1_2 Na3_2 3.150551 1_555
Cl1_2 Na3_3 3.150551 1_554
Cl1_2 Na0_6 3.229754 1_455
Cl1_2 Na0_7 3.229754 1_454
Cl1_3 Na1_2 2.946727 1_555
Cl1_3 Na1_3 2.946727 1_555
Cl1_3 Na4_2 3.134075 1_555
Cl1_3 Na4_3 3.134075 1_555
Cl1_3 Na3_2 3.150551 1_555
Cl1_3 Na3_3 3.150551 1_555
Cl1_3 Na0_7 3.229754 1_455
Cl1_3 Na0_6 3.229754 1_455
Cl1_4 Na1_4 2.946727 1_555
Cl1_4 Na1_5 2.946727 1_554
Cl1_4 Na4_4 3.134075 1_555
Cl1_4 Na4_5 3.134075 1_554
Cl1_4 Na3_4 3.150551 1_555
Cl1_4 Na3_5 3.150551 1_554
Cl1_4 Na0_0 3.229754 1_555
Cl1_4 Na0_1 3.229754 1_554
Cl1_5 Na1_4 2.946727 1_555
Cl1_5 Na1_5 2.946727 1_555
Cl1_5 Na4_4 3.134075 1_555
Cl1_5 Na4_5 3.134075 1_555
Cl1_5 Na3_4 3.150551 1_555
Cl1_5 Na3_5 3.150551 1_555
Cl1_5 Na0_0 3.229754 1_555
Cl1_5 Na0_1 3.229754 1_555
Cl1_6 Na1_6 2.946727 1_555
Cl1_6 Na1_7 2.946727 1_554
Cl1_6 Na4_6 3.134075 1_555
Cl1_6 Na4_7 3.134075 1_554
Cl1_6 Na3_6 3.150551 1_555
Cl1_6 Na3_7 3.150551 1_554
Cl1_6 Na0_2 3.229754 1_555
Cl1_6 Na0_3 3.229754 1_554
Cl1_7 Na1_6 2.946727 1_555
Cl1_7 Na1_7 2.946727 1_555
Cl1_7 Na4_6 3.134075 1_555
Cl1_7 Na4_7 3.134075 1_555
Cl1_7 Na3_7 3.150551 1_555
Cl1_7 Na3_6 3.150551 1_555
Cl1_7 Na0_3 3.229754 1_555
Cl1_7 Na0_2 3.229754 1_555
Cl2_0 Na2_0 2.946727 1_555
Cl2_0 Na2_1 2.946727 1_554
Cl2_0 Na4_0 3.134075 1_555
Cl2_0 Na4_1 3.134075 1_554
Cl2_0 Na1_0 3.150551 1_555
Cl2_0 Na1_1 3.150551 1_554
Cl2_0 Na3_2 3.229754 1_555
Cl2_0 Na3_3 3.229754 1_554
Cl2_1 Na2_1 2.946727 1_555
Cl2_1 Na2_0 2.946727 1_555
Cl2_1 Na4_1 3.134075 1_555
Cl2_1 Na4_0 3.134075 1_555
Cl2_1 Na1_0 3.150551 1_555
Cl2_1 Na1_1 3.150551 1_555
Cl2_1 Na3_2 3.229754 1_555
Cl2_1 Na3_3 3.229754 1_555
Cl2_2 Na2_2 2.946727 1_555
Cl2_2 Na2_3 2.946727 1_554
Cl2_2 Na4_2 3.134075 1_555
Cl2_2 Na4_3 3.134075 1_554
Cl2_2 Na1_2 3.150551 1_555
Cl2_2 Na1_3 3.150551 1_554
Cl2_2 Na3_0 3.229754 1_565
Cl2_2 Na3_1 3.229754 1_564
Cl2_3 Na2_2 2.946727 1_555
Cl2_3 Na2_3 2.946727 1_555
Cl2_3 Na4_2 3.134075 1_555
Cl2_3 Na4_3 3.134075 1_555
Cl2_3 Na1_3 3.150551 1_555
Cl2_3 Na1_2 3.150551 1_555
Cl2_3 Na3_0 3.229754 1_565
Cl2_3 Na3_1 3.229754 1_565
Cl2_4 Na2_4 2.946727 1_555
Cl2_4 Na2_5 2.946727 1_554
Cl2_4 Na4_4 3.134075 1_555
Cl2_4 Na4_5 3.134075 1_554
Cl2_4 Na1_4 3.150551 1_555
Cl2_4 Na1_5 3.150551 1_554
Cl2_4 Na3_6 3.229754 1_555
Cl2_4 Na3_7 3.229754 1_554
Cl2_5 Na2_4 2.946727 1_555
Cl2_5 Na2_5 2.946727 1_555
Cl2_5 Na4_4 3.134075 1_555
Cl2_5 Na4_5 3.134075 1_555
Cl2_5 Na1_4 3.150551 1_555
Cl2_5 Na1_5 3.150551 1_555
Cl2_5 Na3_7 3.229754 1_555
Cl2_5 Na3_6 3.229754 1_555
Cl2_6 Na2_6 2.946727 1_555
Cl2_6 Na2_7 2.946727 1_554
Cl2_6 Na4_6 3.134075 1_555
Cl2_6 Na4_7 3.134075 1_554
Cl2_6 Na1_6 3.150551 1_555
Cl2_6 Na1_7 3.150551 1_554
Cl2_6 Na3_4 3.229754 1_565
Cl2_6 Na3_5 3.229754 1_564
Cl2_7 Na2_7 2.946727 1_555
Cl2_7 Na2_6 2.946727 1_555
Cl2_7 Na4_6 3.134075 1_555
Cl2_7 Na4_7 3.134075 1_555
Cl2_7 Na1_6 3.150551 1_555
Cl2_7 Na1_7 3.150551 1_555
Cl2_7 Na3_5 3.229754 1_565
Cl2_7 Na3_4 3.229754 1_565
Cl3_0 Na3_0 2.946727 1_555
Cl3_0 Na3_1 2.946727 1_554
Cl3_0 Na4_0 3.134075 1_555
Cl3_0 Na4_1 3.134075 1_554
Cl3_0 Na0_0 3.150551 1_555
Cl3_0 Na0_1 3.150551 1_554
Cl3_0 Na2_2 3.229754 1_545
Cl3_0 Na2_3 3.229754 1_544
Cl3_1 Na3_0 2.946727 1_555
Cl3_1 Na3_1 2.946727 1_555
Cl3_1 Na4_1 3.134075 1_555
Cl3_1 Na4_0 3.134075 1_555
Cl3_1 Na0_0 3.150551 1_555
Cl3_1 Na0_1 3.150551 1_555
Cl3_1 Na2_3 3.229754 1_545
Cl3_1 Na2_2 3.229754 1_545
Cl3_2 Na3_2 2.946727 1_555
Cl3_2 Na3_3 2.946727 1_554
Cl3_2 Na4_2 3.134075 1_555
Cl3_2 Na4_3 3.134075 1_554
Cl3_2 Na0_2 3.150551 1_555
Cl3_2 Na0_3 3.150551 1_554
Cl3_2 Na2_0 3.229754 1_555
Cl3_2 Na2_1 3.229754 1_554
Cl3_3 Na3_2 2.946727 1_555
Cl3_3 Na3_3 2.946727 1_555
Cl3_3 Na4_3 3.134075 1_555
Cl3_3 Na4_2 3.134075 1_555
Cl3_3 Na0_3 3.150551 1_555
Cl3_3 Na0_2 3.150551 1_555
Cl3_3 Na2_0 3.229754 1_555
Cl3_3 Na2_1 3.229754 1_555
Cl3_4 Na3_4 2.946727 1_555
Cl3_4 Na3_5 2.946727 1_554
Cl3_4 Na4_4 3.134075 1_555
Cl3_4 Na4_5 3.134075 1_554
Cl3_4 Na0_4 3.150551 1_555
Cl3_4 Na0_5 3.150551 1_554
Cl3_4 Na2_6 3.229754 1_545
Cl3_4 Na2_7 3.229754 1_544
Cl3_5 Na3_5 2.946727 1_555
Cl3_5 Na3_4 2.946727 1_555
Cl3_5 Na4_5 3.134075 1_555
Cl3_5 Na4_4 3.134075 1_555
Cl3_5 Na0_5 3.150551 1_555
Cl3_5 Na0_4 3.150551 1_555
Cl3_5 Na2_6 3.229754 1_545
Cl3_5 Na2_7 3.229754 1_545
Cl3_6 Na3_6 2.946727 1_555
Cl3_6 Na3_7 2.946727 1_554
Cl3_6 Na4_6 3.134075 1_555
Cl3_6 Na4_7 3.134075 1_554
Cl3_6 Na0_6 3.150551 1_555
Cl3_6 Na0_7 3.150551 1_554
Cl3_6 Na2_4 3.229754 1_555
Cl3_6 Na2_5 3.229754 1_554
Cl3_7 Na3_7 2.946727 1_555
Cl3_7 Na3_6 2.946727 1_555
Cl3_7 Na4_7 3.134075 1_555
Cl3_7 Na4_6 3.134075 1_555
Cl3_7 Na0_7 3.150551 1_555
Cl3_7 Na0_6 3.150551 1_555
Cl3_7 Na2_4 3.229754 1_555
Cl3_7 Na2_5 3.229754 1_555
