# generated using pymatgen
data_Yb3B3O7
_symmetry_space_group_name_H-M   'P 1'
_cell_length_a   3.88412318
_cell_length_b   3.88412395
_cell_length_c   28.71576800
_cell_angle_alpha   90.00000000
_cell_angle_beta   90.00000000
_cell_angle_gamma   125.78014735
_symmetry_Int_Tables_number   1
_chemical_formula_structural   Yb3B3O7
_chemical_formula_sum   'Yb6 B6 O14'
_cell_volume   351.45524565
_cell_formula_units_Z   2
loop_
 _symmetry_equiv_pos_site_id
 _symmetry_equiv_pos_as_xyz
  1  'x, y, z'
loop_
 _atom_site_type_symbol
 _atom_site_label
 _atom_site_symmetry_multiplicity
 _atom_site_fract_x
 _atom_site_fract_y
 _atom_site_fract_z
 _atom_site_occupancy
  Yb  Yb0  1  0.00290900  0.99709100  0.99124200  1
  Yb  Yb1  1  0.98168600  0.01831400  0.18079100  1
  Yb  Yb2  1  0.98168600  0.01831400  0.31920900  1
  Yb  Yb3  1  0.00217400  0.99782600  0.65266500  1
  Yb  Yb4  1  0.00217400  0.99782600  0.84733500  1
  Yb  Yb5  1  0.00290900  0.99709100  0.50875800  1
  B  B0  1  0.32097500  0.67902500  0.08899800  1
  B  B1  1  0.32097500  0.67902500  0.41100200  1
  B  B2  1  0.32459900  0.67540100  0.75000000  1
  B  B3  1  0.74592500  0.25407500  0.25000000  1
  B  B4  1  0.63654400  0.36345600  0.91927500  1
  B  B5  1  0.63654400  0.36345600  0.58072500  1
  O  O0  1  0.31635600  0.68364400  0.45486300  1
  O  O1  1  0.32859500  0.67140500  0.13365300  1
  O  O2  1  0.32544400  0.67455600  0.79417200  1
  O  O3  1  0.31635600  0.68364400  0.04513700  1
  O  O4  1  0.32859500  0.67140500  0.36634700  1
  O  O5  1  0.32544400  0.67455600  0.70582800  1
  O  O6  1  0.02572100  0.97427900  0.58068700  1
  O  O7  1  0.02572100  0.97427900  0.91931300  1
  O  O8  1  0.68350600  0.31649400  0.62748600  1
  O  O9  1  0.65719600  0.34280400  0.29276900  1
  O  O10  1  0.65719600  0.34280400  0.20723100  1
  O  O11  1  0.68363300  0.31636700  0.96609400  1
  O  O12  1  0.68363300  0.31636700  0.53390600  1
  O  O13  1  0.68350600  0.31649400  0.87251400  1
loop_
_geom_bond_atom_site_label_1
_geom_bond_atom_site_label_2
_geom_bond_distance
_geom_bond_site_symmetry_2
B0 O3 1.259907 1_555
B0 O1 1.283385 1_555
B1 O0 1.259907 1_555
B1 O4 1.283385 1_555
B2 O2 1.268446 1_555
B2 O5 1.268446 1_555
B3 O10 1.372870 1_555
B3 O9 1.372870 1_555
B3 Yb1 2.570483 1_555
B3 Yb2 2.570483 1_555
B4 O13 1.381486 1_555
B4 O11 1.383311 1_555
B4 O7 1.928759 1_545
B4 O7 1.928760 1_655
B5 O8 1.381486 1_555
B5 O12 1.383311 1_555
B5 O6 1.928759 1_545
B5 O6 1.928760 1_655
O0 Yb5 2.663245 1_555
O0 Yb5 2.681805 1_655
O0 Yb5 2.681805 1_545
O1 Yb1 2.466927 1_565
O1 Yb1 2.466927 1_455
O1 Yb1 2.754357 1_465
O2 Yb4 2.637581 1_655
O2 Yb4 2.637581 1_545
O2 Yb4 2.706900 1_555
O3 Yb0 2.663245 1_554
O3 Yb0 2.681805 1_654
O3 Yb0 2.681805 1_544
O4 Yb2 2.466927 1_565
O4 Yb2 2.466927 1_455
O4 Yb2 2.754357 1_465
O5 Yb3 2.637581 1_655
O5 Yb3 2.637581 1_545
O5 Yb3 2.706900 1_555
O6 Yb5 2.071511 1_555
O6 Yb3 2.073307 1_555
O7 Yb0 2.071511 1_555
O7 Yb4 2.073307 1_555
O8 Yb3 2.286447 1_545
O8 Yb3 2.286448 1_655
O8 Yb3 2.319111 1_645
O9 Yb2 2.276440 1_455
O9 Yb2 2.276440 1_565
O9 Yb2 2.368752 1_555
O10 Yb1 2.276440 1_455
O10 Yb1 2.276440 1_565
O10 Yb1 2.368752 1_555
O11 Yb0 2.283863 1_545
O11 Yb0 2.283863 1_655
O11 Yb0 2.322829 1_645
O12 Yb5 2.283863 1_545
O12 Yb5 2.283863 1_655
O12 Yb5 2.322829 1_645
O13 Yb4 2.286447 1_545
O13 Yb4 2.286448 1_655
O13 Yb4 2.319111 1_645
