# generated using pymatgen
data_Li9Mn7O16
_symmetry_space_group_name_H-M   'P 1'
_cell_length_a   5.76037700
_cell_length_b   5.33925800
_cell_length_c   9.75916095
_cell_angle_alpha   83.16413530
_cell_angle_beta   90.00000000
_cell_angle_gamma   90.00000000
_symmetry_Int_Tables_number   1
_chemical_formula_structural   Li9Mn7O16
_chemical_formula_sum   'Li9 Mn7 O16'
_cell_volume   298.02037415
_cell_formula_units_Z   1
loop_
 _symmetry_equiv_pos_site_id
 _symmetry_equiv_pos_as_xyz
  1  'x, y, z'
loop_
 _atom_site_type_symbol
 _atom_site_label
 _atom_site_symmetry_multiplicity
 _atom_site_fract_x
 _atom_site_fract_y
 _atom_site_fract_z
 _atom_site_occupancy
  Li  Li0  1  0.25403700  0.25138800  0.75033200  1
  Li  Li1  1  0.25403700  0.74861200  0.24966800  1
  Li  Li2  1  0.50000000  0.75242200  0.76015200  1
  Li  Li3  1  0.50000000  0.24757800  0.23984800  1
  Li  Li4  1  0.74596300  0.25138800  0.75033200  1
  Li  Li5  1  0.74596300  0.74861200  0.24966800  1
  Li  Li6  1  0.00000000  0.74461300  0.75538900  1
  Li  Li7  1  0.00000000  0.25538700  0.24461100  1
  Li  Li8  1  0.50000000  0.00000000  0.00000000  1
  Mn  Mn0  1  0.00000000  0.00000000  0.00000000  1
  Mn  Mn1  1  0.74825400  0.50000000  0.00000000  1
  Mn  Mn2  1  0.00000000  0.50000000  0.50000000  1
  Mn  Mn3  1  0.25174600  0.50000000  0.00000000  1
  Mn  Mn4  1  0.24999300  0.00000000  0.50000000  1
  Mn  Mn5  1  0.50000000  0.50000000  0.50000000  1
  Mn  Mn6  1  0.75000700  0.00000000  0.50000000  1
  O  O0  1  0.24029700  0.83947700  0.89620100  1
  O  O1  1  0.25021700  0.39440100  0.38339100  1
  O  O2  1  0.50000000  0.39804600  0.88454500  1
  O  O3  1  0.50000000  0.89794500  0.37985400  1
  O  O4  1  0.75970300  0.83947700  0.89620100  1
  O  O5  1  0.74978300  0.39440100  0.38339100  1
  O  O6  1  0.00000000  0.39003200  0.88369800  1
  O  O7  1  0.00000000  0.89718000  0.38085100  1
  O  O8  1  0.25021700  0.60559900  0.61660900  1
  O  O9  1  0.24029700  0.16052300  0.10379900  1
  O  O10  1  0.50000000  0.10205500  0.62014600  1
  O  O11  1  0.50000000  0.60195400  0.11545500  1
  O  O12  1  0.74978300  0.60559900  0.61660900  1
  O  O13  1  0.75970300  0.16052300  0.10379900  1
  O  O14  1  0.00000000  0.10282000  0.61914900  1
  O  O15  1  0.00000000  0.60996800  0.11630200  1
loop_
_geom_bond_atom_site_label_1
_geom_bond_atom_site_label_2
_geom_bond_distance
_geom_bond_site_symmetry_2
Li0 O10 2.120967 1_555
Li0 O2 2.140173 1_555
Li0 O6 2.147727 1_555
Li0 O14 2.156705 1_555
Li0 O8 2.166280 1_555
Li0 O0 2.474753 1_545
Li1 O3 2.120967 1_555
Li1 O11 2.140173 1_555
Li1 O15 2.147727 1_555
Li1 O7 2.156705 1_555
Li1 O1 2.166280 1_555
Li1 O9 2.474753 1_565
Li2 O4 2.088968 1_555
Li2 O0 2.088968 1_555
Li2 O2 2.122968 1_555
Li2 O10 2.178204 1_565
Li2 O12 2.215545 1_555
Li2 O8 2.215545 1_555
Li3 O13 2.088968 1_555
Li3 O9 2.088968 1_555
Li3 O11 2.122968 1_555
Li3 O3 2.178204 1_545
Li3 O5 2.215545 1_555
Li3 O1 2.215545 1_555
Li4 O10 2.120967 1_555
Li4 O2 2.140173 1_555
Li4 O6 2.147727 1_655
Li4 O14 2.156705 1_655
Li4 O12 2.166280 1_555
Li4 O4 2.474753 1_545
Li5 O3 2.120967 1_555
Li5 O11 2.140173 1_555
Li5 O15 2.147727 1_655
Li5 O7 2.156705 1_655
Li5 O5 2.166280 1_555
Li5 O13 2.474753 1_565
Li6 O0 2.055893 1_555
Li6 O4 2.055893 1_455
Li6 O6 2.141926 1_555
Li6 O8 2.168414 1_555
Li6 O12 2.168414 1_455
Li6 O14 2.195528 1_565
Li7 O9 2.055893 1_555
Li7 O13 2.055893 1_455
Li7 O15 2.141926 1_555
Li7 O1 2.168414 1_555
Li7 O5 2.168414 1_455
Li7 O7 2.195528 1_545
Li8 O13 2.050703 1_555
Li8 O9 2.050703 1_555
Li8 O4 2.050703 1_544
Li8 O0 2.050703 1_544
Li8 O11 2.283918 1_545
Li8 O2 2.283918 1_554
Mn0 O9 1.970639 1_555
Mn0 O13 1.970639 1_455
Mn0 O0 1.970639 1_544
Mn0 O4 1.970639 1_444
Mn0 O15 2.249958 1_545
Mn0 O6 2.249958 1_554
Mn1 O11 1.938270 1_555
Mn1 O2 1.938270 1_554
Mn1 O13 1.969460 1_555
Mn1 O4 1.969460 1_554
Mn1 O15 1.973467 1_655
Mn1 O6 1.973467 1_654
Mn2 O8 1.960399 1_555
Mn2 O1 1.960399 1_555
Mn2 O12 1.960399 1_455
Mn2 O5 1.960399 1_455
Mn2 O14 2.293955 1_555
Mn2 O7 2.293955 1_555
Mn3 O11 1.938270 1_555
Mn3 O2 1.938270 1_554
Mn3 O9 1.969460 1_555
Mn3 O0 1.969460 1_554
Mn3 O15 1.973467 1_555
Mn3 O6 1.973467 1_554
Mn4 O14 1.969566 1_555
Mn4 O7 1.969566 1_545
Mn4 O10 1.974286 1_555
Mn4 O3 1.974286 1_545
Mn4 O8 2.271347 1_545
Mn4 O1 2.271347 1_555
Mn5 O12 1.958562 1_555
Mn5 O5 1.958562 1_555
Mn5 O8 1.958562 1_555
Mn5 O1 1.958562 1_555
Mn5 O3 2.301356 1_555
Mn5 O10 2.301356 1_555
Mn6 O14 1.969566 1_655
Mn6 O7 1.969566 1_645
Mn6 O10 1.974286 1_555
Mn6 O3 1.974286 1_545
Mn6 O12 2.271347 1_545
Mn6 O5 2.271347 1_555
