# generated using pymatgen
data_NaSi4O13
_symmetry_space_group_name_H-M   'P 1'
_cell_length_a   7.59945999
_cell_length_b   7.59945999
_cell_length_c   19.52291883
_cell_angle_alpha   101.22306309
_cell_angle_beta   101.22306309
_cell_angle_gamma   90.00000000
_symmetry_Int_Tables_number   1
_chemical_formula_structural   NaSi4O13
_chemical_formula_sum   'Na4 Si16 O52'
_cell_volume   1083.93277478
_cell_formula_units_Z   4
loop_
 _symmetry_equiv_pos_site_id
 _symmetry_equiv_pos_as_xyz
  1  'x, y, z'
loop_
 _atom_site_type_symbol
 _atom_site_label
 _atom_site_symmetry_multiplicity
 _atom_site_fract_x
 _atom_site_fract_y
 _atom_site_fract_z
 _atom_site_occupancy
  Na  Na0  1  0.75033910  0.50033910  0.50067820  1
  Na  Na1  1  0.50033910  0.75033910  0.00067820  1
  Na  Na2  1  0.24966090  0.49966090  0.49932180  1
  Na  Na3  1  0.49966090  0.24966090  0.99932180  1
  Si  Si0  1  0.41908415  0.16908415  0.25000000  1
  Si  Si1  1  0.41908415  0.58091585  0.25000000  1
  Si  Si2  1  0.16908415  0.41908415  0.75000000  1
  Si  Si3  1  0.16908415  0.83091585  0.75000000  1
  Si  Si4  1  0.83091585  0.16908415  0.25000000  1
  Si  Si5  1  0.83091585  0.58091585  0.25000000  1
  Si  Si6  1  0.58091585  0.41908415  0.75000000  1
  Si  Si7  1  0.58091585  0.83091585  0.75000000  1
  Si  Si8  1  0.98037798  0.93303948  0.36607897  1
  Si  Si9  1  0.93303948  0.98037798  0.86607897  1
  Si  Si10  1  0.93303948  0.38570098  0.86607897  1
  Si  Si11  1  0.38570098  0.93303948  0.36607897  1
  Si  Si12  1  0.01962202  0.06696052  0.63392103  1
  Si  Si13  1  0.06696052  0.01962202  0.13392103  1
  Si  Si14  1  0.06696052  0.61429902  0.13392103  1
  Si  Si15  1  0.61429902  0.06696052  0.63392103  1
  O  O0  1  0.39786682  0.08651705  0.31880206  1
  O  O1  1  0.39786682  0.73228501  0.31880206  1
  O  O2  1  0.08651705  0.39786682  0.81880206  1
  O  O3  1  0.08651705  0.92093524  0.81880206  1
  O  O4  1  0.92093524  0.08651705  0.31880206  1
  O  O5  1  0.92093524  0.73228501  0.31880206  1
  O  O6  1  0.73228501  0.39786682  0.81880206  1
  O  O7  1  0.73228501  0.92093524  0.81880206  1
  O  O8  1  0.60213318  0.91348295  0.68119794  1
  O  O9  1  0.60213318  0.26771499  0.68119794  1
  O  O10  1  0.91348295  0.60213318  0.18119794  1
  O  O11  1  0.91348295  0.07906476  0.18119794  1
  O  O12  1  0.07906476  0.91348295  0.68119794  1
  O  O13  1  0.07906476  0.26771499  0.68119794  1
  O  O14  1  0.26771499  0.60213318  0.18119794  1
  O  O15  1  0.26771499  0.07906476  0.18119794  1
  O  O16  1  0.61596215  0.12305046  0.23192430  1
  O  O17  1  0.61596215  0.60887384  0.23192430  1
  O  O18  1  0.12305046  0.61596215  0.73192430  1
  O  O19  1  0.60887384  0.61596215  0.73192430  1
  O  O20  1  0.38403785  0.87694954  0.76807570  1
  O  O21  1  0.38403785  0.39112616  0.76807570  1
  O  O22  1  0.87694954  0.38403785  0.26807570  1
  O  O23  1  0.39112616  0.38403785  0.26807570  1
  O  O24  1  0.19617555  0.94617555  0.39235109  1
  O  O25  1  0.94617555  0.19617555  0.89235109  1
  O  O26  1  0.80382445  0.05382445  0.60764891  1
  O  O27  1  0.05382445  0.80382445  0.10764891  1
  O  O28  1  0.55177479  0.96813970  0.43627940  1
  O  O29  1  0.96813970  0.55177479  0.93627940  1
  O  O30  1  0.96813970  0.88450461  0.93627940  1
  O  O31  1  0.88450461  0.96813970  0.43627940  1
  O  O32  1  0.44822521  0.03186030  0.56372060  1
  O  O33  1  0.03186030  0.44822521  0.06372060  1
  O  O34  1  0.03186030  0.11549539  0.06372060  1
  O  O35  1  0.11549539  0.03186030  0.56372060  1
  O  O36  1  -0.00000000  0.21625184  0.50000000  1
  O  O37  1  -0.00000000  0.78374816  0.50000000  1
  O  O38  1  0.21625184  0.00000000  0.00000000  1
  O  O39  1  0.21625184  0.50000000  0.00000000  1
  O  O40  1  0.50000000  0.21625184  0.50000000  1
  O  O41  1  0.50000000  0.78374816  0.50000000  1
  O  O42  1  0.78374816  0.00000000  0.00000000  1
  O  O43  1  0.78374816  0.50000000  0.00000000  1
  O  O44  1  0.18801936  0.43801936  0.37603872  1
  O  O45  1  0.43801936  0.18801936  0.87603872  1
  O  O46  1  0.81198064  0.56198064  0.62396128  1
  O  O47  1  0.56198064  0.81198064  0.12396128  1
  O  O48  1  0.68947525  0.43947525  0.37895049  1
  O  O49  1  0.43947525  0.68947525  0.87895049  1
  O  O50  1  0.31052475  0.56052475  0.62104951  1
  O  O51  1  0.56052475  0.31052475  0.12104951  1
loop_
_geom_bond_atom_site_label_1
_geom_bond_atom_site_label_2
_geom_bond_distance
_geom_bond_site_symmetry_2
Na0 O48 2.284685 1_555
Na0 O46 2.313877 1_555
Na0 O40 2.873921 1_555
Na0 O36 2.873921 1_655
Na0 O41 2.873921 1_555
Na0 O37 2.873921 1_655
Na1 O49 2.284685 1_554
Na1 O47 2.313877 1_555
Na1 O39 2.873921 1_555
Na1 O38 2.873921 1_565
Na1 O43 2.873921 1_555
Na1 O42 2.873921 1_565
Na2 O50 2.284685 1_555
Na2 O44 2.313877 1_555
Na2 O41 2.873921 1_555
Na2 O37 2.873921 1_555
Na2 O40 2.873921 1_555
Na2 O36 2.873921 1_555
Na3 O51 2.284685 1_556
Na3 O45 2.313877 1_555
Na3 O43 2.873921 1_556
Na3 O42 2.873921 1_556
Na3 O39 2.873921 1_556
Na3 O38 2.873921 1_556
O0 Si0 1.623676 1_555
O0 Si11 1.634953 1_545
O1 Si1 1.623676 1_555
O1 Si11 1.634953 1_555
O2 Si2 1.623676 1_555
O2 Si10 1.634953 1_455
O3 Si3 1.623676 1_555
O3 Si9 1.634953 1_455
O4 Si4 1.623676 1_555
O4 Si8 1.634953 1_545
O5 Si5 1.623676 1_555
O5 Si8 1.634953 1_555
O6 Si6 1.623676 1_555
O6 Si10 1.634953 1_555
O7 Si7 1.623676 1_555
O7 Si9 1.634953 1_555
O8 Si7 1.623676 1_555
O8 Si15 1.634953 1_565
O9 Si6 1.623676 1_555
O9 Si15 1.634953 1_555
O10 Si5 1.623676 1_555
O10 Si14 1.634953 1_655
O11 Si4 1.623676 1_555
O11 Si13 1.634953 1_655
O12 Si3 1.623676 1_555
O12 Si12 1.634953 1_565
O13 Si2 1.623676 1_555
O13 Si12 1.634953 1_555
O14 Si1 1.623676 1_555
O14 Si14 1.634953 1_555
O15 Si0 1.623676 1_555
O15 Si13 1.634953 1_555
O16 Si4 1.625698 1_555
O16 Si0 1.625698 1_555
O17 Si5 1.625698 1_555
O17 Si1 1.625698 1_555
O18 Si3 1.625698 1_555
O18 Si2 1.625698 1_555
O19 Si7 1.625698 1_555
O19 Si6 1.625698 1_555
O20 Si3 1.625698 1_555
O20 Si7 1.625698 1_555
O21 Si2 1.625698 1_555
O21 Si6 1.625698 1_555
O22 Si4 1.625698 1_555
O22 Si5 1.625698 1_555
O23 Si0 1.625698 1_555
O23 Si1 1.625698 1_555
O24 Si11 1.617129 1_555
O24 Si8 1.617129 1_455
O25 Si10 1.617129 1_555
O25 Si9 1.617129 1_545
O26 Si15 1.617129 1_555
O26 Si12 1.617129 1_655
O27 Si14 1.617129 1_555
O27 Si13 1.617129 1_565
O28 Si11 1.651270 1_555
O29 Si10 1.651270 1_555
O30 Si9 1.651270 1_555
O31 Si8 1.651270 1_555
O32 Si15 1.651270 1_555
O33 Si14 1.651270 1_555
O34 Si13 1.651270 1_555
O35 Si12 1.651270 1_555
