# generated using pymatgen
data_Dy3Ga5O12
_symmetry_space_group_name_H-M   'P 1'
_cell_length_a   10.63905587
_cell_length_b   10.63905587
_cell_length_c   10.63905587
_cell_angle_alpha   109.47122063
_cell_angle_beta   109.47122063
_cell_angle_gamma   109.47122063
_symmetry_Int_Tables_number   1
_chemical_formula_structural   Dy3Ga5O12
_chemical_formula_sum   'Dy12 Ga20 O48'
_cell_volume   927.01631551
_cell_formula_units_Z   4
loop_
 _symmetry_equiv_pos_site_id
 _symmetry_equiv_pos_as_xyz
  1  'x, y, z'
loop_
 _atom_site_type_symbol
 _atom_site_label
 _atom_site_symmetry_multiplicity
 _atom_site_fract_x
 _atom_site_fract_y
 _atom_site_fract_z
 _atom_site_occupancy
  Dy  Dy0  1  0.75000000  0.62500000  0.87500000  1
  Dy  Dy1  1  0.25000000  0.87500000  0.62500000  1
  Dy  Dy2  1  0.62500000  0.25000000  0.87500000  1
  Dy  Dy3  1  0.87500000  0.75000000  0.62500000  1
  Dy  Dy4  1  0.87500000  0.62500000  0.25000000  1
  Dy  Dy5  1  0.62500000  0.87500000  0.75000000  1
  Dy  Dy6  1  0.25000000  0.37500000  0.12500000  1
  Dy  Dy7  1  0.75000000  0.12500000  0.37500000  1
  Dy  Dy8  1  0.37500000  0.75000000  0.12500000  1
  Dy  Dy9  1  0.12500000  0.25000000  0.37500000  1
  Dy  Dy10  1  0.12500000  0.37500000  0.75000000  1
  Dy  Dy11  1  0.37500000  0.12500000  0.25000000  1
  Ga  Ga0  1  0.37500000  0.62500000  0.75000000  1
  Ga  Ga1  1  0.62500000  0.37500000  0.25000000  1
  Ga  Ga2  1  0.62500000  0.75000000  0.37500000  1
  Ga  Ga3  1  0.25000000  0.12500000  0.87500000  1
  Ga  Ga4  1  0.87500000  0.25000000  0.12500000  1
  Ga  Ga5  1  0.75000000  0.37500000  0.62500000  1
  Ga  Ga6  1  0.25000000  0.62500000  0.37500000  1
  Ga  Ga7  1  0.75000000  0.87500000  0.12500000  1
  Ga  Ga8  1  0.12500000  0.75000000  0.87500000  1
  Ga  Ga9  1  0.37500000  0.25000000  0.62500000  1
  Ga  Ga10  1  0.87500000  0.12500000  0.75000000  1
  Ga  Ga11  1  0.12500000  0.87500000  0.25000000  1
  Ga  Ga12  1  0.50000000  0.00000000  0.50000000  1
  Ga  Ga13  1  -0.00000000  0.50000000  0.00000000  1
  Ga  Ga14  1  0.50000000  0.50000000  0.50000000  1
  Ga  Ga15  1  -0.00000000  0.00000000  0.50000000  1
  Ga  Ga16  1  -0.00000000  0.00000000  0.00000000  1
  Ga  Ga17  1  -0.00000000  0.50000000  0.50000000  1
  Ga  Ga18  1  0.50000000  0.50000000  0.00000000  1
  Ga  Ga19  1  0.50000000  0.00000000  0.00000000  1
  O  O0  1  0.52842672  0.40593865  0.82266312  1
  O  O1  1  0.82266312  0.52842672  0.40593865  1
  O  O2  1  0.79423640  0.87751193  0.97157328  1
  O  O3  1  0.41672447  0.09406135  0.62248807  1
  O  O4  1  0.87751193  0.40593865  0.08327553  1
  O  O5  1  0.67733688  0.08327553  0.70576360  1
  O  O6  1  0.82266312  0.79423640  0.41672447  1
  O  O7  1  0.40593865  0.82266312  0.52842672  1
  O  O8  1  0.62248807  0.70576360  0.52842672  1
  O  O9  1  0.41672447  0.82266312  0.79423640  1
  O  O10  1  0.40593865  0.08327553  0.87751193  1
  O  O11  1  0.09406135  0.97157328  0.67733688  1
  O  O12  1  0.97157328  0.67733688  0.09406135  1
  O  O13  1  0.79423640  0.41672447  0.82266312  1
  O  O14  1  0.52842672  0.62248807  0.70576360  1
  O  O15  1  0.70576360  0.52842672  0.62248807  1
  O  O16  1  0.08327553  0.87751193  0.40593865  1
  O  O17  1  0.97157328  0.79423640  0.87751193  1
  O  O18  1  0.08327553  0.70576360  0.67733688  1
  O  O19  1  0.37751193  0.29423640  0.47157328  1
  O  O20  1  0.62248807  0.41672447  0.09406135  1
  O  O21  1  0.09406135  0.62248807  0.41672447  1
  O  O22  1  0.70576360  0.67733688  0.08327553  1
  O  O23  1  0.67733688  0.09406135  0.97157328  1
  O  O24  1  0.47157328  0.59406135  0.17733688  1
  O  O25  1  0.17733688  0.47157328  0.59406135  1
  O  O26  1  0.20576360  0.12248807  0.02842672  1
  O  O27  1  0.58327553  0.90593865  0.37751193  1
  O  O28  1  0.12248807  0.59406135  0.91672447  1
  O  O29  1  0.32266312  0.91672447  0.29423640  1
  O  O30  1  0.17733688  0.20576360  0.58327553  1
  O  O31  1  0.59406135  0.17733688  0.47157328  1
  O  O32  1  0.32266312  0.90593865  0.02842672  1
  O  O33  1  0.29423640  0.32266312  0.91672447  1
  O  O34  1  0.90593865  0.37751193  0.58327553  1
  O  O35  1  0.12248807  0.02842672  0.20576360  1
  O  O36  1  0.37751193  0.58327553  0.90593865  1
  O  O37  1  0.91672447  0.29423640  0.32266312  1
  O  O38  1  0.02842672  0.20576360  0.12248807  1
  O  O39  1  0.91672447  0.12248807  0.59406135  1
  O  O40  1  0.29423640  0.47157328  0.37751193  1
  O  O41  1  0.47157328  0.37751193  0.29423640  1
  O  O42  1  0.20576360  0.58327553  0.17733688  1
  O  O43  1  0.02842672  0.32266312  0.90593865  1
  O  O44  1  0.90593865  0.02842672  0.32266312  1
  O  O45  1  0.59406135  0.91672447  0.12248807  1
  O  O46  1  0.58327553  0.17733688  0.20576360  1
  O  O47  1  0.87751193  0.97157328  0.79423640  1
loop_
_geom_bond_atom_site_label_1
_geom_bond_atom_site_label_2
_geom_bond_distance
_geom_bond_site_symmetry_2
Dy0 O13 2.342850 1_555
Dy0 O22 2.342850 1_556
Dy0 O15 2.342850 1_555
Dy0 O2 2.342850 1_555
Dy0 O17 2.428146 1_555
Dy0 O14 2.428146 1_555
Dy0 O12 2.428146 1_556
Dy0 O0 2.428146 1_555
Dy1 O11 2.342850 1_555
Dy1 O7 2.342850 1_555
Dy1 O21 2.342850 1_555
Dy1 O10 2.342850 1_565
Dy1 O18 2.428146 1_555
Dy1 O16 2.428146 1_555
Dy1 O9 2.428146 1_555
Dy1 O3 2.428146 1_565
Dy2 O0 2.342850 1_555
Dy2 O3 2.342850 1_555
Dy2 O23 2.342850 1_555
Dy2 O4 2.342850 1_556
Dy2 O5 2.428146 1_555
Dy2 O13 2.428146 1_555
Dy2 O10 2.428146 1_555
Dy2 O20 2.428146 1_556
Dy3 O6 2.342850 1_555
Dy3 O17 2.342850 1_555
Dy3 O8 2.342850 1_555
Dy3 O18 2.342850 1_655
Dy3 O47 2.428146 1_555
Dy3 O15 2.428146 1_555
Dy3 O1 2.428146 1_555
Dy3 O11 2.428146 1_655
Dy4 O1 2.342850 1_555
Dy4 O12 2.342850 1_555
Dy4 O20 2.342850 1_555
Dy4 O16 2.342850 1_655
Dy4 O6 2.428146 1_555
Dy4 O22 2.428146 1_555
Dy4 O4 2.428146 1_555
Dy4 O21 2.428146 1_655
Dy5 O9 2.342850 1_555
Dy5 O14 2.342850 1_555
Dy5 O47 2.342850 1_555
Dy5 O5 2.342850 1_565
Dy5 O2 2.428146 1_555
Dy5 O8 2.428146 1_555
Dy5 O7 2.428146 1_555
Dy5 O23 2.428146 1_565
Dy6 O33 2.342850 1_554
Dy6 O42 2.342850 1_555
Dy6 O40 2.342850 1_555
Dy6 O26 2.342850 1_555
Dy6 O41 2.428146 1_555
Dy6 O24 2.428146 1_555
Dy6 O38 2.428146 1_555
Dy6 O43 2.428146 1_554
Dy7 O31 2.342850 1_555
Dy7 O44 2.342850 1_555
Dy7 O45 2.342850 1_545
Dy7 O34 2.342850 1_555
Dy7 O37 2.428146 1_555
Dy7 O39 2.428146 1_555
Dy7 O46 2.428146 1_555
Dy7 O27 2.428146 1_545
Dy8 O24 2.342850 1_555
Dy8 O32 2.342850 1_555
Dy8 O27 2.342850 1_555
Dy8 O28 2.342850 1_554
Dy8 O29 2.428146 1_555
Dy8 O36 2.428146 1_554
Dy8 O42 2.428146 1_555
Dy8 O45 2.428146 1_555
Dy9 O30 2.342850 1_555
Dy9 O37 2.342850 1_455
Dy9 O19 2.342850 1_555
Dy9 O38 2.342850 1_555
Dy9 O25 2.428146 1_555
Dy9 O40 2.428146 1_555
Dy9 O35 2.428146 1_555
Dy9 O44 2.428146 1_455
Dy10 O43 2.342850 1_555
Dy10 O25 2.342850 1_555
Dy10 O36 2.342850 1_555
Dy10 O39 2.342850 1_455
Dy10 O30 2.428146 1_555
Dy10 O33 2.428146 1_555
Dy10 O28 2.428146 1_555
Dy10 O34 2.428146 1_455
Dy11 O46 2.342850 1_555
Dy11 O41 2.342850 1_555
Dy11 O35 2.342850 1_555
Dy11 O29 2.342850 1_545
Dy11 O19 2.428146 1_555
Dy11 O31 2.428146 1_555
Dy11 O26 2.428146 1_555
Dy11 O32 2.428146 1_545
Ga0 O36 1.849191 1_555
Ga0 O25 1.849191 1_555
Ga0 O9 1.849191 1_555
Ga0 O14 1.849191 1_555
Ga1 O46 1.849191 1_555
Ga1 O1 1.849191 1_555
Ga1 O20 1.849191 1_555
Ga1 O41 1.849191 1_555
Ga2 O27 1.849191 1_555
Ga2 O24 1.849191 1_555
Ga2 O6 1.849191 1_555
Ga2 O8 1.849191 1_555
Ga3 O26 1.849191 1_556
Ga3 O11 1.849191 1_545
Ga3 O33 1.849191 1_555
Ga3 O10 1.849191 1_555
Ga4 O38 1.849191 1_655
Ga4 O23 1.849191 1_554
Ga4 O4 1.849191 1_555
Ga4 O37 1.849191 1_555
Ga5 O34 1.849191 1_555
Ga5 O31 1.849191 1_555
Ga5 O13 1.849191 1_555
Ga5 O15 1.849191 1_555
Ga6 O42 1.849191 1_555
Ga6 O7 1.849191 1_555
Ga6 O40 1.849191 1_555
Ga6 O21 1.849191 1_555
Ga7 O45 1.849191 1_555
Ga7 O44 1.849191 1_565
Ga7 O22 1.849191 1_555
Ga7 O2 1.849191 1_554
Ga8 O18 1.849191 1_555
Ga8 O32 1.849191 1_556
Ga8 O28 1.849191 1_555
Ga8 O17 1.849191 1_455
Ga9 O0 1.849191 1_555
Ga9 O30 1.849191 1_555
Ga9 O19 1.849191 1_555
Ga9 O3 1.849191 1_555
Ga10 O39 1.849191 1_555
Ga10 O5 1.849191 1_555
Ga10 O43 1.849191 1_655
Ga10 O47 1.849191 1_545
Ga11 O35 1.849191 1_565
Ga11 O16 1.849191 1_555
Ga11 O12 1.849191 1_455
Ga11 O29 1.849191 1_555
Ga12 O3 1.993991 1_555
Ga12 O29 1.993991 1_545
Ga12 O27 1.993991 1_545
Ga12 O5 1.993991 1_555
Ga12 O31 1.993991 1_555
Ga12 O7 1.993991 1_545
Ga13 O4 1.993991 1_455
Ga13 O42 1.993991 1_555
Ga13 O43 1.993991 1_554
Ga13 O28 1.993991 1_554
Ga13 O12 1.993991 1_455
Ga13 O13 1.993991 1_454
Ga14 O40 1.993991 1_555
Ga14 O19 1.993991 1_555
Ga14 O41 1.993991 1_555
Ga14 O15 1.993991 1_555
Ga14 O14 1.993991 1_555
Ga14 O8 1.993991 1_555
Ga15 O16 1.993991 1_545
Ga15 O44 1.993991 1_455
Ga15 O39 1.993991 1_455
Ga15 O30 1.993991 1_555
Ga15 O6 1.993991 1_445
Ga15 O11 1.993991 1_545
Ga16 O38 1.993991 1_555
Ga16 O26 1.993991 1_555
Ga16 O35 1.993991 1_555
Ga16 O2 1.993991 1_444
Ga16 O47 1.993991 1_444
Ga16 O17 1.993991 1_444
Ga17 O21 1.993991 1_555
Ga17 O37 1.993991 1_455
Ga17 O34 1.993991 1_455
Ga17 O25 1.993991 1_555
Ga17 O18 1.993991 1_555
Ga17 O1 1.993991 1_455
Ga18 O33 1.993991 1_554
Ga18 O20 1.993991 1_555
Ga18 O36 1.993991 1_554
Ga18 O24 1.993991 1_555
Ga18 O22 1.993991 1_555
Ga18 O0 1.993991 1_554
Ga19 O10 1.993991 1_554
Ga19 O32 1.993991 1_545
Ga19 O46 1.993991 1_555
Ga19 O45 1.993991 1_545
Ga19 O23 1.993991 1_554
Ga19 O9 1.993991 1_544
