# generated using pymatgen
data_NaYMnWO6
_symmetry_space_group_name_H-M   'P 1'
_cell_length_a   5.47628826
_cell_length_b   5.67769200
_cell_length_c   7.99926004
_cell_angle_alpha   90.00000000
_cell_angle_beta   90.13834227
_cell_angle_gamma   90.00000000
_symmetry_Int_Tables_number   1
_chemical_formula_structural   NaYMnWO6
_chemical_formula_sum   'Na2 Y2 Mn2 W2 O12'
_cell_volume   248.71769206
_cell_formula_units_Z   2
loop_
 _symmetry_equiv_pos_site_id
 _symmetry_equiv_pos_as_xyz
  1  'x, y, z'
loop_
 _atom_site_type_symbol
 _atom_site_label
 _atom_site_symmetry_multiplicity
 _atom_site_fract_x
 _atom_site_fract_y
 _atom_site_fract_z
 _atom_site_occupancy
  Na  Na0  1  0.25323100  0.73751600  0.00096600  1
  Na  Na1  1  0.74676900  0.23751600  0.99903400  1
  Y  Y0  1  0.26600800  0.83642200  0.50175100  1
  Y  Y1  1  0.73399200  0.33642200  0.49824900  1
  Mn  Mn0  1  0.75283900  0.78023200  0.24299200  1
  Mn  Mn1  1  0.24716100  0.28023200  0.75700800  1
  W  W0  1  0.76267900  0.76964100  0.75651000  1
  W  W1  1  0.23732100  0.26964100  0.24349000  1
  O  O0  1  0.56905600  0.04515600  0.67709700  1
  O  O1  1  0.43094400  0.54515600  0.32290300  1
  O  O2  1  0.53038100  0.07872000  0.32104500  1
  O  O3  1  0.46961900  0.57872000  0.67895500  1
  O  O4  1  0.93784900  0.43605800  0.22487800  1
  O  O5  1  0.06215100  0.93605800  0.77512200  1
  O  O6  1  0.91066900  0.46520800  0.78474600  1
  O  O7  1  0.08933100  0.96520800  0.21525400  1
  O  O8  1  0.86634100  0.72546700  0.50693600  1
  O  O9  1  0.13365900  0.22546700  0.49306400  1
  O  O10  1  0.67030700  0.80898800  0.97948500  1
  O  O11  1  0.32969300  0.30898800  0.02051500  1
loop_
_geom_bond_atom_site_label_1
_geom_bond_atom_site_label_2
_geom_bond_distance
_geom_bond_site_symmetry_2
Na0 O10 2.326559 1_554
Na0 O7 2.328645 1_555
Na0 O5 2.370719 1_554
Na0 O11 2.473702 1_555
Na1 O11 2.326559 1_556
Na1 O6 2.328645 1_555
Na1 O4 2.370719 1_556
Na1 O10 2.473702 1_545
Mn0 O7 2.133037 1_655
Mn0 O10 2.160882 1_554
Mn0 O2 2.179383 1_565
Mn0 O4 2.206077 1_555
Mn0 O8 2.221378 1_555
Mn0 O1 2.302798 1_555
Mn1 O6 2.133037 1_455
Mn1 O11 2.160882 1_556
Mn1 O3 2.179383 1_555
Mn1 O5 2.206077 1_545
Mn1 O9 2.221378 1_555
Mn1 O0 2.302798 1_555
O0 W0 1.992886 1_545
O0 Y1 2.367198 1_555
O0 Y0 2.472828 1_545
O1 W1 1.992886 1_555
O1 Y0 2.367198 1_555
O1 Y1 2.472828 1_555
O2 W1 2.032424 1_555
O2 Y1 2.320730 1_555
O2 Y0 2.467433 1_545
O3 W0 2.032424 1_555
O3 Y0 2.320730 1_555
O3 Y1 2.467433 1_555
O4 W1 1.898246 1_655
O4 Y1 2.521915 1_555
O5 W0 1.898246 1_455
O5 Y0 2.521915 1_555
O6 W0 1.922127 1_555
O6 Y1 2.590803 1_555
O7 W1 1.922127 1_565
O7 Y0 2.590803 1_555
O8 W0 2.091957 1_555
O8 Y0 2.278023 1_655
O8 Y1 2.325733 1_555
O9 W1 2.091957 1_555
O9 Y1 2.278023 1_455
O9 Y0 2.325733 1_545
O10 W0 1.868558 1_555
O11 W1 1.868558 1_555
