# generated using pymatgen
data_Er3Ga9Pt2
_symmetry_space_group_name_H-M   'P 1'
_cell_length_a   8.15267134
_cell_length_b   8.15267134
_cell_length_c   8.15267134
_cell_angle_alpha   149.83748093
_cell_angle_beta   106.49933030
_cell_angle_gamma   81.45374410
_symmetry_Int_Tables_number   1
_chemical_formula_structural   Er3Ga9Pt2
_chemical_formula_sum   'Er3 Ga9 Pt2'
_cell_volume   255.71686984
_cell_formula_units_Z   1
loop_
 _symmetry_equiv_pos_site_id
 _symmetry_equiv_pos_as_xyz
  1  'x, y, z'
loop_
 _atom_site_type_symbol
 _atom_site_label
 _atom_site_symmetry_multiplicity
 _atom_site_fract_x
 _atom_site_fract_y
 _atom_site_fract_z
 _atom_site_occupancy
  Er  Er0  1  0.00000000  0.00000000  0.00000000  1
  Er  Er1  1  0.30615900  0.30615900  0.00000000  1
  Er  Er2  1  0.69384100  0.69384100  0.00000000  1
  Ga  Ga0  1  0.50000000  0.00000000  0.50000000  1
  Ga  Ga1  1  0.71362000  0.34349500  0.37012600  1
  Ga  Ga2  1  0.28638000  0.65650500  0.62987400  1
  Ga  Ga3  1  0.97336900  0.34349500  0.62987400  1
  Ga  Ga4  1  0.02663100  0.65650500  0.37012600  1
  Ga  Ga5  1  0.42067300  0.13728300  0.28338900  1
  Ga  Ga6  1  0.57932700  0.86271700  0.71661100  1
  Ga  Ga7  1  0.85389400  0.13728300  0.71661100  1
  Ga  Ga8  1  0.14610600  0.86271700  0.28338900  1
  Pt  Pt0  1  0.69289600  0.50000000  0.19289600  1
  Pt  Pt1  1  0.30710400  0.50000000  0.80710400  1
loop_
_geom_bond_atom_site_label_1
_geom_bond_atom_site_label_2
_geom_bond_distance
_geom_bond_site_symmetry_2
Er0 Ga3 3.137661 1_444
Er0 Ga3 3.137661 1_455
Er0 Ga4 3.137661 1_544
Er0 Ga4 3.137661 1_555
Er0 Ga1 3.137666 1_444
Er0 Ga2 3.137666 1_555
Er0 Ga1 3.137669 1_455
Er0 Ga2 3.137669 1_544
Er0 Ga7 3.243668 1_454
Er0 Ga8 3.243668 1_545
Er0 Ga5 3.243675 1_555
Er0 Ga6 3.243675 1_444
Er1 Pt0 3.046080 1_555
Er1 Pt1 3.046080 1_554
Er1 Ga6 3.074708 1_544
Er1 Ga6 3.074711 1_555
Er1 Ga8 3.074714 1_544
Er1 Ga8 3.074714 1_555
Er1 Ga2 3.086201 1_555
Er1 Ga2 3.086204 1_544
Er1 Ga4 3.086205 1_544
Er1 Ga4 3.086205 1_555
Er1 Ga0 3.199490 1_554
Er1 Ga0 3.199490 1_565
Er1 Ga7 3.463848 1_454
Er1 Ga5 3.463848 1_555
Er2 Pt0 3.046080 1_555
Er2 Pt1 3.046080 1_554
Er2 Ga5 3.074708 1_565
Er2 Ga5 3.074711 1_554
Er2 Ga7 3.074714 1_565
Er2 Ga7 3.074714 1_554
Er2 Ga1 3.086201 1_554
Er2 Ga1 3.086204 1_565
Er2 Ga3 3.086205 1_554
Er2 Ga3 3.086205 1_565
Er2 Ga0 3.199490 1_565
Er2 Ga0 3.199490 1_554
Er2 Ga8 3.463848 1_655
Er2 Ga6 3.463848 1_554
Ga0 Ga7 2.709881 1_555
Ga0 Ga8 2.709881 1_545
Ga0 Ga5 2.709881 1_555
Ga0 Ga6 2.709881 1_545
Ga0 Pt0 2.835688 1_556
Ga0 Pt1 2.835688 1_544
Ga0 Pt0 2.835688 1_545
Ga0 Pt1 2.835688 1_555
Ga1 Ga3 2.534097 1_555
Ga1 Pt0 2.594128 1_555
Ga1 Ga6 2.607510 1_555
Ga1 Ga6 2.607510 1_544
Ga1 Ga5 2.684910 1_555
Ga2 Ga4 2.534097 1_555
Ga2 Pt1 2.594128 1_555
Ga2 Ga5 2.607510 1_555
Ga2 Ga5 2.607510 1_566
Ga2 Ga6 2.684910 1_555
Ga3 Pt1 2.594127 1_655
Ga3 Ga8 2.607510 1_645
Ga3 Ga8 2.607510 1_656
Ga3 Ga7 2.684925 1_555
Ga4 Pt0 2.594127 1_455
Ga4 Ga7 2.607510 1_465
Ga4 Ga7 2.607510 1_454
Ga4 Ga8 2.684925 1_555
Ga5 Pt1 2.725949 1_544
Ga5 Pt1 2.725953 1_555
Ga6 Pt0 2.725949 1_566
Ga6 Pt0 2.725953 1_555
Ga7 Pt0 2.725947 1_556
Ga7 Pt0 2.725947 1_545
Ga8 Pt1 2.725947 1_554
Ga8 Pt1 2.725947 1_565
