# generated using pymatgen
data_Te(CF2)4
_symmetry_space_group_name_H-M   'P 1'
_cell_length_a   19.48382880
_cell_length_b   19.48382880
_cell_length_c   19.48382880
_cell_angle_alpha   60.00000000
_cell_angle_beta   60.00000000
_cell_angle_gamma   60.00000000
_symmetry_Int_Tables_number   1
_chemical_formula_structural   Te(CF2)4
_chemical_formula_sum   'Te24 C96 F192'
_cell_volume   5230.07500257
_cell_formula_units_Z   24
loop_
 _symmetry_equiv_pos_site_id
 _symmetry_equiv_pos_as_xyz
  1  'x, y, z'
loop_
 _atom_site_type_symbol
 _atom_site_label
 _atom_site_symmetry_multiplicity
 _atom_site_fract_x
 _atom_site_fract_y
 _atom_site_fract_z
 _atom_site_occupancy
  Te  Te0  1  0.25000000  0.75000000  0.97152563  1
  Te  Te1  1  0.52847437  0.97152563  0.75000000  1
  Te  Te2  1  0.97152563  0.52847437  0.25000000  1
  Te  Te3  1  0.75000000  0.25000000  0.52847437  1
  Te  Te4  1  0.97152563  0.25000000  0.75000000  1
  Te  Te5  1  0.75000000  0.52847437  0.97152563  1
  Te  Te6  1  0.25000000  0.97152563  0.52847437  1
  Te  Te7  1  0.52847437  0.75000000  0.25000000  1
  Te  Te8  1  0.75000000  0.97152563  0.25000000  1
  Te  Te9  1  0.97152563  0.75000000  0.52847437  1
  Te  Te10  1  0.52847437  0.25000000  0.97152563  1
  Te  Te11  1  0.25000000  0.52847437  0.75000000  1
  Te  Te12  1  0.75000000  0.25000000  0.02847437  1
  Te  Te13  1  0.47152563  0.02847437  0.25000000  1
  Te  Te14  1  0.02847437  0.47152563  0.75000000  1
  Te  Te15  1  0.25000000  0.75000000  0.47152563  1
  Te  Te16  1  0.02847437  0.75000000  0.25000000  1
  Te  Te17  1  0.25000000  0.47152563  0.02847437  1
  Te  Te18  1  0.75000000  0.02847437  0.47152563  1
  Te  Te19  1  0.47152563  0.25000000  0.75000000  1
  Te  Te20  1  0.25000000  0.02847437  0.75000000  1
  Te  Te21  1  0.02847437  0.25000000  0.47152563  1
  Te  Te22  1  0.47152563  0.75000000  0.02847437  1
  Te  Te23  1  0.75000000  0.47152563  0.25000000  1
  C  C0  1  0.15573185  0.76694016  0.93280076  1
  C  C1  1  0.64452723  0.93280076  0.76694016  1
  C  C2  1  0.93280076  0.64452723  0.15573185  1
  C  C3  1  0.76694016  0.15573185  0.64452723  1
  C  C4  1  0.93280076  0.15573185  0.76694016  1
  C  C5  1  0.76694016  0.64452723  0.93280076  1
  C  C6  1  0.15573185  0.93280076  0.64452723  1
  C  C7  1  0.64452723  0.76694016  0.15573185  1
  C  C8  1  0.76694016  0.93280076  0.15573185  1
  C  C9  1  0.93280076  0.76694016  0.64452723  1
  C  C10  1  0.64452723  0.15573185  0.93280076  1
  C  C11  1  0.15573185  0.64452723  0.76694016  1
  C  C12  1  0.84426815  0.23305984  0.06719924  1
  C  C13  1  0.35547277  0.06719924  0.23305984  1
  C  C14  1  0.06719924  0.35547277  0.84426815  1
  C  C15  1  0.23305984  0.84426815  0.35547277  1
  C  C16  1  0.06719924  0.84426815  0.23305984  1
  C  C17  1  0.23305984  0.35547277  0.06719924  1
  C  C18  1  0.84426815  0.06719924  0.35547277  1
  C  C19  1  0.35547277  0.23305984  0.84426815  1
  C  C20  1  0.23305984  0.06719924  0.84426815  1
  C  C21  1  0.06719924  0.23305984  0.35547277  1
  C  C22  1  0.35547277  0.84426815  0.06719924  1
  C  C23  1  0.84426815  0.35547277  0.23305984  1
  C  C24  1  0.26694016  0.65573185  0.43280076  1
  C  C25  1  0.43280076  0.14452723  0.26694016  1
  C  C26  1  0.14452723  0.43280076  0.65573185  1
  C  C27  1  0.65573185  0.26694016  0.14452723  1
  C  C28  1  0.65573185  0.43280076  0.26694016  1
  C  C29  1  0.14452723  0.26694016  0.43280076  1
  C  C30  1  0.43280076  0.65573185  0.14452723  1
  C  C31  1  0.26694016  0.14452723  0.65573185  1
  C  C32  1  0.43280076  0.26694016  0.65573185  1
  C  C33  1  0.26694016  0.43280076  0.14452723  1
  C  C34  1  0.65573185  0.14452723  0.43280076  1
  C  C35  1  0.14452723  0.65573185  0.26694016  1
  C  C36  1  0.73305984  0.34426815  0.56719924  1
  C  C37  1  0.56719924  0.85547277  0.73305984  1
  C  C38  1  0.85547277  0.56719924  0.34426815  1
  C  C39  1  0.34426815  0.73305984  0.85547277  1
  C  C40  1  0.34426815  0.56719924  0.73305984  1
  C  C41  1  0.85547277  0.73305984  0.56719924  1
  C  C42  1  0.56719924  0.34426815  0.85547277  1
  C  C43  1  0.73305984  0.85547277  0.34426815  1
  C  C44  1  0.56719924  0.73305984  0.34426815  1
  C  C45  1  0.73305984  0.56719924  0.85547277  1
  C  C46  1  0.34426815  0.85547277  0.56719924  1
  C  C47  1  0.85547277  0.34426815  0.73305984  1
  C  C48  1  0.08424541  0.83202664  0.93330764  1
  C  C49  1  0.65042031  0.93330764  0.83202664  1
  C  C50  1  0.93330764  0.65042031  0.08424541  1
  C  C51  1  0.83202664  0.08424541  0.65042031  1
  C  C52  1  0.93330764  0.08424541  0.83202664  1
  C  C53  1  0.83202664  0.65042031  0.93330764  1
  C  C54  1  0.08424541  0.93330764  0.65042031  1
  C  C55  1  0.65042031  0.83202664  0.08424541  1
  C  C56  1  0.83202664  0.93330764  0.08424541  1
  C  C57  1  0.93330764  0.83202664  0.65042031  1
  C  C58  1  0.65042031  0.08424541  0.93330764  1
  C  C59  1  0.08424541  0.65042031  0.83202664  1
  C  C60  1  0.91575459  0.16797336  0.06669236  1
  C  C61  1  0.34957969  0.06669236  0.16797336  1
  C  C62  1  0.06669236  0.34957969  0.91575459  1
  C  C63  1  0.16797336  0.91575459  0.34957969  1
  C  C64  1  0.06669236  0.91575459  0.16797336  1
  C  C65  1  0.16797336  0.34957969  0.06669236  1
  C  C66  1  0.91575459  0.06669236  0.34957969  1
  C  C67  1  0.34957969  0.16797336  0.91575459  1
  C  C68  1  0.16797336  0.06669236  0.91575459  1
  C  C69  1  0.06669236  0.16797336  0.34957969  1
  C  C70  1  0.34957969  0.91575459  0.06669236  1
  C  C71  1  0.91575459  0.34957969  0.16797336  1
  C  C72  1  0.33202664  0.58424541  0.43330764  1
  C  C73  1  0.43330764  0.15042031  0.33202664  1
  C  C74  1  0.15042031  0.43330764  0.58424541  1
  C  C75  1  0.58424541  0.33202664  0.15042031  1
  C  C76  1  0.58424541  0.43330764  0.33202664  1
  C  C77  1  0.15042031  0.33202664  0.43330764  1
  C  C78  1  0.43330764  0.58424541  0.15042031  1
  C  C79  1  0.33202664  0.15042031  0.58424541  1
  C  C80  1  0.43330764  0.33202664  0.58424541  1
  C  C81  1  0.33202664  0.43330764  0.15042031  1
  C  C82  1  0.58424541  0.15042031  0.43330764  1
  C  C83  1  0.15042031  0.58424541  0.33202664  1
  C  C84  1  0.66797336  0.41575459  0.56669236  1
  C  C85  1  0.56669236  0.84957969  0.66797336  1
  C  C86  1  0.84957969  0.56669236  0.41575459  1
  C  C87  1  0.41575459  0.66797336  0.84957969  1
  C  C88  1  0.41575459  0.56669236  0.66797336  1
  C  C89  1  0.84957969  0.66797336  0.56669236  1
  C  C90  1  0.56669236  0.41575459  0.84957969  1
  C  C91  1  0.66797336  0.84957969  0.41575459  1
  C  C92  1  0.56669236  0.66797336  0.41575459  1
  C  C93  1  0.66797336  0.56669236  0.84957969  1
  C  C94  1  0.41575459  0.84957969  0.56669236  1
  C  C95  1  0.84957969  0.41575459  0.66797336  1
  F  F0  1  0.23858273  0.87279258  0.90491754  1
  F  F1  1  0.48370715  0.90491754  0.87279258  1
  F  F2  1  0.90491754  0.48370715  0.23858273  1
  F  F3  1  0.87279258  0.23858273  0.48370715  1
  F  F4  1  0.90491754  0.23858273  0.87279258  1
  F  F5  1  0.87279258  0.48370715  0.90491754  1
  F  F6  1  0.23858273  0.90491754  0.48370715  1
  F  F7  1  0.48370715  0.87279258  0.23858273  1
  F  F8  1  0.87279258  0.90491754  0.23858273  1
  F  F9  1  0.90491754  0.87279258  0.48370715  1
  F  F10  1  0.48370715  0.23858273  0.90491754  1
  F  F11  1  0.23858273  0.48370715  0.87279258  1
  F  F12  1  0.76141727  0.12720742  0.09508246  1
  F  F13  1  0.51629285  0.09508246  0.12720742  1
  F  F14  1  0.09508246  0.51629285  0.76141727  1
  F  F15  1  0.12720742  0.76141727  0.51629285  1
  F  F16  1  0.09508246  0.76141727  0.12720742  1
  F  F17  1  0.12720742  0.51629285  0.09508246  1
  F  F18  1  0.76141727  0.09508246  0.51629285  1
  F  F19  1  0.51629285  0.12720742  0.76141727  1
  F  F20  1  0.12720742  0.09508246  0.76141727  1
  F  F21  1  0.09508246  0.12720742  0.51629285  1
  F  F22  1  0.51629285  0.76141727  0.09508246  1
  F  F23  1  0.76141727  0.51629285  0.12720742  1
  F  F24  1  0.37279258  0.73858273  0.40491754  1
  F  F25  1  0.40491754  0.98370715  0.37279258  1
  F  F26  1  0.98370715  0.40491754  0.73858273  1
  F  F27  1  0.73858273  0.37279258  0.98370715  1
  F  F28  1  0.73858273  0.40491754  0.37279258  1
  F  F29  1  0.98370715  0.37279258  0.40491754  1
  F  F30  1  0.40491754  0.73858273  0.98370715  1
  F  F31  1  0.37279258  0.98370715  0.73858273  1
  F  F32  1  0.40491754  0.37279258  0.73858273  1
  F  F33  1  0.37279258  0.40491754  0.98370715  1
  F  F34  1  0.73858273  0.98370715  0.40491754  1
  F  F35  1  0.98370715  0.73858273  0.37279258  1
  F  F36  1  0.62720742  0.26141727  0.59508246  1
  F  F37  1  0.59508246  0.01629285  0.62720742  1
  F  F38  1  0.01629285  0.59508246  0.26141727  1
  F  F39  1  0.26141727  0.62720742  0.01629285  1
  F  F40  1  0.26141727  0.59508246  0.62720742  1
  F  F41  1  0.01629285  0.62720742  0.59508246  1
  F  F42  1  0.59508246  0.26141727  0.01629285  1
  F  F43  1  0.62720742  0.01629285  0.26141727  1
  F  F44  1  0.59508246  0.62720742  0.26141727  1
  F  F45  1  0.62720742  0.59508246  0.01629285  1
  F  F46  1  0.26141727  0.01629285  0.59508246  1
  F  F47  1  0.01629285  0.26141727  0.62720742  1
  F  F48  1  0.02588093  0.84170128  0.90953287  1
  F  F49  1  0.72288493  0.90953287  0.84170128  1
  F  F50  1  0.90953287  0.72288493  0.02588093  1
  F  F51  1  0.84170128  0.02588093  0.72288493  1
  F  F52  1  0.90953287  0.02588093  0.84170128  1
  F  F53  1  0.84170128  0.72288493  0.90953287  1
  F  F54  1  0.02588093  0.90953287  0.72288493  1
  F  F55  1  0.72288493  0.84170128  0.02588093  1
  F  F56  1  0.84170128  0.90953287  0.02588093  1
  F  F57  1  0.90953287  0.84170128  0.72288493  1
  F  F58  1  0.72288493  0.02588093  0.90953287  1
  F  F59  1  0.02588093  0.72288493  0.84170128  1
  F  F60  1  0.97411907  0.15829872  0.09046713  1
  F  F61  1  0.27711507  0.09046713  0.15829872  1
  F  F62  1  0.09046713  0.27711507  0.97411907  1
  F  F63  1  0.15829872  0.97411907  0.27711507  1
  F  F64  1  0.09046713  0.97411907  0.15829872  1
  F  F65  1  0.15829872  0.27711507  0.09046713  1
  F  F66  1  0.97411907  0.09046713  0.27711507  1
  F  F67  1  0.27711507  0.15829872  0.97411907  1
  F  F68  1  0.15829872  0.09046713  0.97411907  1
  F  F69  1  0.09046713  0.15829872  0.27711507  1
  F  F70  1  0.27711507  0.97411907  0.09046713  1
  F  F71  1  0.97411907  0.27711507  0.15829872  1
  F  F72  1  0.34170128  0.52588093  0.40953287  1
  F  F73  1  0.40953287  0.22288493  0.34170128  1
  F  F74  1  0.22288493  0.40953287  0.52588093  1
  F  F75  1  0.52588093  0.34170128  0.22288493  1
  F  F76  1  0.52588093  0.40953287  0.34170128  1
  F  F77  1  0.22288493  0.34170128  0.40953287  1
  F  F78  1  0.40953287  0.52588093  0.22288493  1
  F  F79  1  0.34170128  0.22288493  0.52588093  1
  F  F80  1  0.40953287  0.34170128  0.52588093  1
  F  F81  1  0.34170128  0.40953287  0.22288493  1
  F  F82  1  0.52588093  0.22288493  0.40953287  1
  F  F83  1  0.22288493  0.52588093  0.34170128  1
  F  F84  1  0.65829872  0.47411907  0.59046713  1
  F  F85  1  0.59046713  0.77711507  0.65829872  1
  F  F86  1  0.77711507  0.59046713  0.47411907  1
  F  F87  1  0.47411907  0.65829872  0.77711507  1
  F  F88  1  0.47411907  0.59046713  0.65829872  1
  F  F89  1  0.77711507  0.65829872  0.59046713  1
  F  F90  1  0.59046713  0.47411907  0.77711507  1
  F  F91  1  0.65829872  0.77711507  0.47411907  1
  F  F92  1  0.59046713  0.65829872  0.47411907  1
  F  F93  1  0.65829872  0.59046713  0.77711507  1
  F  F94  1  0.47411907  0.77711507  0.59046713  1
  F  F95  1  0.77711507  0.47411907  0.65829872  1
  F  F96  1  0.16940278  0.70501061  0.90928049  1
  F  F97  1  0.71630612  0.90928049  0.70501061  1
  F  F98  1  0.90928049  0.71630612  0.16940278  1
  F  F99  1  0.70501061  0.16940278  0.71630612  1
  F  F100  1  0.90928049  0.16940278  0.70501061  1
  F  F101  1  0.70501061  0.71630612  0.90928049  1
  F  F102  1  0.16940278  0.90928049  0.71630612  1
  F  F103  1  0.71630612  0.70501061  0.16940278  1
  F  F104  1  0.70501061  0.90928049  0.16940278  1
  F  F105  1  0.90928049  0.70501061  0.71630612  1
  F  F106  1  0.71630612  0.16940278  0.90928049  1
  F  F107  1  0.16940278  0.71630612  0.70501061  1
  F  F108  1  0.83059722  0.29498939  0.09071951  1
  F  F109  1  0.28369388  0.09071951  0.29498939  1
  F  F110  1  0.09071951  0.28369388  0.83059722  1
  F  F111  1  0.29498939  0.83059722  0.28369388  1
  F  F112  1  0.09071951  0.83059722  0.29498939  1
  F  F113  1  0.29498939  0.28369388  0.09071951  1
  F  F114  1  0.83059722  0.09071951  0.28369388  1
  F  F115  1  0.28369388  0.29498939  0.83059722  1
  F  F116  1  0.29498939  0.09071951  0.83059722  1
  F  F117  1  0.09071951  0.29498939  0.28369388  1
  F  F118  1  0.28369388  0.83059722  0.09071951  1
  F  F119  1  0.83059722  0.28369388  0.29498939  1
  F  F120  1  0.20501061  0.66940278  0.40928049  1
  F  F121  1  0.40928049  0.21630612  0.20501061  1
  F  F122  1  0.21630612  0.40928049  0.66940278  1
  F  F123  1  0.66940278  0.20501061  0.21630612  1
  F  F124  1  0.66940278  0.40928049  0.20501061  1
  F  F125  1  0.21630612  0.20501061  0.40928049  1
  F  F126  1  0.40928049  0.66940278  0.21630612  1
  F  F127  1  0.20501061  0.21630612  0.66940278  1
  F  F128  1  0.40928049  0.20501061  0.66940278  1
  F  F129  1  0.20501061  0.40928049  0.21630612  1
  F  F130  1  0.66940278  0.21630612  0.40928049  1
  F  F131  1  0.21630612  0.66940278  0.20501061  1
  F  F132  1  0.79498939  0.33059722  0.59071951  1
  F  F133  1  0.59071951  0.78369388  0.79498939  1
  F  F134  1  0.78369388  0.59071951  0.33059722  1
  F  F135  1  0.33059722  0.79498939  0.78369388  1
  F  F136  1  0.33059722  0.59071951  0.79498939  1
  F  F137  1  0.78369388  0.79498939  0.59071951  1
  F  F138  1  0.59071951  0.33059722  0.78369388  1
  F  F139  1  0.79498939  0.78369388  0.33059722  1
  F  F140  1  0.59071951  0.79498939  0.33059722  1
  F  F141  1  0.79498939  0.59071951  0.78369388  1
  F  F142  1  0.33059722  0.78369388  0.59071951  1
  F  F143  1  0.78369388  0.33059722  0.79498939  1
  F  F144  1  0.06317599  0.89517156  0.95663670  1
  F  F145  1  0.58501576  0.95663670  0.89517156  1
  F  F146  1  0.95663670  0.58501576  0.06317599  1
  F  F147  1  0.89517156  0.06317599  0.58501576  1
  F  F148  1  0.95663670  0.06317599  0.89517156  1
  F  F149  1  0.89517156  0.58501576  0.95663670  1
  F  F150  1  0.06317599  0.95663670  0.58501576  1
  F  F151  1  0.58501576  0.89517156  0.06317599  1
  F  F152  1  0.89517156  0.95663670  0.06317599  1
  F  F153  1  0.95663670  0.89517156  0.58501576  1
  F  F154  1  0.58501576  0.06317599  0.95663670  1
  F  F155  1  0.06317599  0.58501576  0.89517156  1
  F  F156  1  0.93682401  0.10482844  0.04336330  1
  F  F157  1  0.41498424  0.04336330  0.10482844  1
  F  F158  1  0.04336330  0.41498424  0.93682401  1
  F  F159  1  0.10482844  0.93682401  0.41498424  1
  F  F160  1  0.04336330  0.93682401  0.10482844  1
  F  F161  1  0.10482844  0.41498424  0.04336330  1
  F  F162  1  0.93682401  0.04336330  0.41498424  1
  F  F163  1  0.41498424  0.10482844  0.93682401  1
  F  F164  1  0.10482844  0.04336330  0.93682401  1
  F  F165  1  0.04336330  0.10482844  0.41498424  1
  F  F166  1  0.41498424  0.93682401  0.04336330  1
  F  F167  1  0.93682401  0.41498424  0.10482844  1
  F  F168  1  0.39517156  0.56317599  0.45663670  1
  F  F169  1  0.45663670  0.08501576  0.39517156  1
  F  F170  1  0.08501576  0.45663670  0.56317599  1
  F  F171  1  0.56317599  0.39517156  0.08501576  1
  F  F172  1  0.56317599  0.45663670  0.39517156  1
  F  F173  1  0.08501576  0.39517156  0.45663670  1
  F  F174  1  0.45663670  0.56317599  0.08501576  1
  F  F175  1  0.39517156  0.08501576  0.56317599  1
  F  F176  1  0.45663670  0.39517156  0.56317599  1
  F  F177  1  0.39517156  0.45663670  0.08501576  1
  F  F178  1  0.56317599  0.08501576  0.45663670  1
  F  F179  1  0.08501576  0.56317599  0.39517156  1
  F  F180  1  0.60482844  0.43682401  0.54336330  1
  F  F181  1  0.54336330  0.91498424  0.60482844  1
  F  F182  1  0.91498424  0.54336330  0.43682401  1
  F  F183  1  0.43682401  0.60482844  0.91498424  1
  F  F184  1  0.43682401  0.54336330  0.60482844  1
  F  F185  1  0.91498424  0.60482844  0.54336330  1
  F  F186  1  0.54336330  0.43682401  0.91498424  1
  F  F187  1  0.60482844  0.91498424  0.43682401  1
  F  F188  1  0.54336330  0.60482844  0.43682401  1
  F  F189  1  0.60482844  0.54336330  0.91498424  1
  F  F190  1  0.43682401  0.91498424  0.54336330  1
  F  F191  1  0.91498424  0.43682401  0.60482844  1
loop_
_geom_bond_atom_site_label_1
_geom_bond_atom_site_label_2
_geom_bond_distance
_geom_bond_site_symmetry_2
C0 F96 1.358819 1_555
C0 Te0 2.140622 1_555
C1 F97 1.358819 1_555
C1 Te1 2.140622 1_555
C2 F98 1.358819 1_555
C2 Te2 2.140622 1_555
C3 F99 1.358819 1_555
C3 Te3 2.140622 1_555
C4 F100 1.358819 1_555
C4 Te4 2.140622 1_555
C5 F101 1.358819 1_555
C5 Te5 2.140622 1_555
C6 F102 1.358819 1_555
C6 Te6 2.140622 1_555
C7 F103 1.358819 1_555
C7 Te7 2.140622 1_555
C8 F104 1.358819 1_555
C8 Te8 2.140622 1_555
C9 F105 1.358819 1_555
C9 Te9 2.140622 1_555
C10 F106 1.358819 1_555
C10 Te10 2.140622 1_555
C11 F107 1.358819 1_555
C11 Te11 2.140622 1_555
C12 F108 1.358819 1_555
C12 Te12 2.140622 1_555
C13 F109 1.358819 1_555
C13 Te13 2.140622 1_555
C14 F110 1.358819 1_555
C14 Te14 2.140622 1_555
C15 F111 1.358819 1_555
C15 Te15 2.140622 1_555
C16 F112 1.358819 1_555
C16 Te16 2.140622 1_555
C17 F113 1.358819 1_555
C17 Te17 2.140622 1_555
C18 F114 1.358819 1_555
C18 Te18 2.140622 1_555
C19 F115 1.358819 1_555
C19 Te19 2.140622 1_555
C20 F116 1.358819 1_555
C20 Te20 2.140622 1_555
C21 F117 1.358819 1_555
C21 Te21 2.140622 1_555
C22 F118 1.358819 1_555
C22 Te22 2.140622 1_555
C23 F119 1.358819 1_555
C23 Te23 2.140622 1_555
C24 F120 1.358819 1_555
C24 Te15 2.140622 1_555
C25 F121 1.358819 1_555
C25 Te13 2.140622 1_555
C26 F122 1.358819 1_555
C26 Te14 2.140622 1_555
C27 F123 1.358819 1_555
C27 Te12 2.140622 1_555
C28 F124 1.358819 1_555
C28 Te23 2.140622 1_555
C29 F125 1.358819 1_555
C29 Te21 2.140622 1_555
C30 F126 1.358819 1_555
C30 Te22 2.140622 1_555
C31 F127 1.358819 1_555
C31 Te20 2.140622 1_555
C32 F128 1.358819 1_555
C32 Te19 2.140622 1_555
C33 F129 1.358819 1_555
C33 Te17 2.140622 1_555
C34 F130 1.358819 1_555
C34 Te18 2.140622 1_555
C35 F131 1.358819 1_555
C35 Te16 2.140622 1_555
C36 F132 1.358819 1_555
C36 Te3 2.140622 1_555
C37 F133 1.358819 1_555
C37 Te1 2.140622 1_555
C38 F134 1.358819 1_555
C38 Te2 2.140622 1_555
C39 F135 1.358819 1_555
C39 Te0 2.140622 1_555
C40 F136 1.358819 1_555
C40 Te11 2.140622 1_555
C41 F137 1.358819 1_555
C41 Te9 2.140622 1_555
C42 F138 1.358819 1_555
C42 Te10 2.140622 1_555
C43 F139 1.358819 1_555
C43 Te8 2.140622 1_555
C44 F140 1.358819 1_555
C44 Te7 2.140622 1_555
C45 F141 1.358819 1_555
C45 Te5 2.140622 1_555
C46 F142 1.358819 1_555
C46 Te6 2.140622 1_555
C47 F143 1.358819 1_555
C47 Te4 2.140622 1_555
C48 F144 1.325273 1_555
C48 F48 1.329789 1_555
C49 F145 1.325273 1_555
C49 F49 1.329789 1_555
C50 F146 1.325273 1_555
C50 F50 1.329789 1_555
C51 F147 1.325273 1_555
C51 F51 1.329789 1_555
C52 F148 1.325273 1_555
C52 F52 1.329789 1_555
C53 F149 1.325273 1_555
C53 F53 1.329789 1_555
C54 F150 1.325273 1_555
C54 F54 1.329789 1_555
C55 F151 1.325273 1_555
C55 F55 1.329789 1_555
C56 F152 1.325273 1_555
C56 F56 1.329789 1_555
C57 F153 1.325273 1_555
C57 F57 1.329789 1_555
C58 F154 1.325273 1_555
C58 F58 1.329789 1_555
C59 F155 1.325273 1_555
C59 F59 1.329789 1_555
C60 F156 1.325273 1_555
C60 F60 1.329789 1_555
C61 F157 1.325273 1_555
C61 F61 1.329789 1_555
C62 F158 1.325273 1_555
C62 F62 1.329789 1_555
C63 F159 1.325273 1_555
C63 F63 1.329789 1_555
C64 F160 1.325273 1_555
C64 F64 1.329789 1_555
C65 F161 1.325273 1_555
C65 F65 1.329789 1_555
C66 F162 1.325273 1_555
C66 F66 1.329789 1_555
C67 F163 1.325273 1_555
C67 F67 1.329789 1_555
C68 F164 1.325273 1_555
C68 F68 1.329789 1_555
C69 F165 1.325273 1_555
C69 F69 1.329789 1_555
C70 F166 1.325273 1_555
C70 F70 1.329789 1_555
C71 F167 1.325273 1_555
C71 F71 1.329789 1_555
C72 F168 1.325273 1_555
C72 F72 1.329789 1_555
C73 F169 1.325273 1_555
C73 F73 1.329789 1_555
C74 F170 1.325273 1_555
C74 F74 1.329789 1_555
C75 F171 1.325273 1_555
C75 F75 1.329789 1_555
C76 F172 1.325273 1_555
C76 F76 1.329789 1_555
C77 F173 1.325273 1_555
C77 F77 1.329789 1_555
C78 F174 1.325273 1_555
C78 F78 1.329789 1_555
C79 F175 1.325273 1_555
C79 F79 1.329789 1_555
C80 F176 1.325273 1_555
C80 F80 1.329789 1_555
C81 F177 1.325273 1_555
C81 F81 1.329789 1_555
C82 F178 1.325273 1_555
C82 F82 1.329789 1_555
C83 F179 1.325273 1_555
C83 F83 1.329789 1_555
C84 F180 1.325273 1_555
C84 F84 1.329789 1_555
C85 F181 1.325273 1_555
C85 F85 1.329789 1_555
C86 F182 1.325273 1_555
C86 F86 1.329789 1_555
C87 F183 1.325273 1_555
C87 F87 1.329789 1_555
C88 F184 1.325273 1_555
C88 F88 1.329789 1_555
C89 F185 1.325273 1_555
C89 F89 1.329789 1_555
C90 F186 1.325273 1_555
C90 F90 1.329789 1_555
C91 F187 1.325273 1_555
C91 F91 1.329789 1_555
C92 F188 1.325273 1_555
C92 F92 1.329789 1_555
C93 F189 1.325273 1_555
C93 F93 1.329789 1_555
C94 F190 1.325273 1_555
C94 F94 1.329789 1_555
C95 F191 1.325273 1_555
C95 F95 1.329789 1_555
F0 Te0 2.027120 1_555
F1 Te1 2.027120 1_555
F2 Te2 2.027120 1_555
F3 Te3 2.027120 1_555
F4 Te4 2.027120 1_555
F5 Te5 2.027120 1_555
F6 Te6 2.027120 1_555
F7 Te7 2.027120 1_555
F8 Te8 2.027120 1_555
F9 Te9 2.027120 1_555
F10 Te10 2.027120 1_555
F11 Te11 2.027120 1_555
F12 Te12 2.027120 1_555
F13 Te13 2.027120 1_555
F14 Te14 2.027120 1_555
F15 Te15 2.027120 1_555
F16 Te16 2.027120 1_555
F17 Te17 2.027120 1_555
F18 Te18 2.027120 1_555
F19 Te19 2.027120 1_555
F20 Te20 2.027120 1_555
F21 Te21 2.027120 1_555
F22 Te22 2.027120 1_555
F23 Te23 2.027120 1_555
F24 Te15 2.027120 1_555
F25 Te13 2.027120 1_565
F26 Te14 2.027120 1_655
F27 Te12 2.027120 1_556
F28 Te23 2.027120 1_555
F29 Te21 2.027120 1_655
F30 Te22 2.027120 1_556
F31 Te20 2.027120 1_565
F32 Te19 2.027120 1_555
F33 Te17 2.027120 1_556
F34 Te18 2.027120 1_565
F35 Te16 2.027120 1_655
F36 Te3 2.027120 1_555
F37 Te1 2.027120 1_545
F38 Te2 2.027120 1_455
F39 Te0 2.027120 1_554
F40 Te11 2.027120 1_555
F41 Te9 2.027120 1_455
F42 Te10 2.027120 1_554
F43 Te8 2.027120 1_545
F44 Te7 2.027120 1_555
F45 Te5 2.027120 1_554
F46 Te6 2.027120 1_545
F47 Te4 2.027120 1_455
