# generated using pymatgen
data_Cu3As
_symmetry_space_group_name_H-M   'P 1'
_cell_length_a   4.22635406
_cell_length_b   4.22635424
_cell_length_c   4.22635400
_cell_angle_alpha   60.00000192
_cell_angle_beta   60.00000048
_cell_angle_gamma   60.00000627
_symmetry_Int_Tables_number   1
_chemical_formula_structural   Cu3As
_chemical_formula_sum   'Cu3 As1'
_cell_volume   53.38050456
_cell_formula_units_Z   1
loop_
 _symmetry_equiv_pos_site_id
 _symmetry_equiv_pos_as_xyz
  1  'x, y, z'
loop_
 _atom_site_type_symbol
 _atom_site_label
 _atom_site_symmetry_multiplicity
 _atom_site_fract_x
 _atom_site_fract_y
 _atom_site_fract_z
 _atom_site_occupancy
  Cu  Cu0  1  0.50000000  0.50000000  0.50000000  1
  Cu  Cu1  1  0.25000000  0.25000000  0.25000000  1
  Cu  Cu2  1  0.75000000  0.75000000  0.75000000  1
  As  As0  1  0.00000000  0.00000000  0.00000000  1
loop_
_geom_bond_atom_site_label_1
_geom_bond_atom_site_label_2
_geom_bond_distance
_geom_bond_site_symmetry_2
Cu0 Cu2 2.588103 1_554
Cu0 Cu1 2.588103 1_555
Cu0 Cu1 2.588103 1_556
Cu0 Cu2 2.588103 1_555
Cu0 Cu2 2.588103 1_455
Cu0 Cu1 2.588103 1_655
Cu0 Cu2 2.588103 1_545
Cu0 Cu1 2.588103 1_565
As0 Cu1 2.588103 1_554
As0 Cu1 2.588103 1_555
As0 Cu2 2.588103 1_444
As0 Cu2 2.588103 1_445
As0 Cu2 2.588103 1_544
As0 Cu1 2.588103 1_455
As0 Cu1 2.588103 1_545
As0 Cu2 2.588103 1_454
As0 Cu0 2.988484 1_445
As0 Cu0 2.988484 1_554
As0 Cu0 2.988484 1_455
As0 Cu0 2.988484 1_454
As0 Cu0 2.988484 1_544
As0 Cu0 2.988484 1_545
