# generated using pymatgen
data_SmNiP
_symmetry_space_group_name_H-M   'P 1'
_cell_length_a   3.92422154
_cell_length_b   3.92422154
_cell_length_c   15.89974568
_cell_angle_alpha   90.00000000
_cell_angle_beta   90.00000000
_cell_angle_gamma   120.00000871
_symmetry_Int_Tables_number   1
_chemical_formula_structural   SmNiP
_chemical_formula_sum   'Sm4 Ni4 P4'
_cell_volume   212.04488714
_cell_formula_units_Z   4
loop_
 _symmetry_equiv_pos_site_id
 _symmetry_equiv_pos_as_xyz
  1  'x, y, z'
loop_
 _atom_site_type_symbol
 _atom_site_label
 _atom_site_symmetry_multiplicity
 _atom_site_fract_x
 _atom_site_fract_y
 _atom_site_fract_z
 _atom_site_occupancy
  Sm  Sm0  1  -0.00000000  0.00000000  0.50000000  1
  Sm  Sm1  1  -0.00000000  0.00000000  0.00000000  1
  Sm  Sm2  1  -0.00000000  0.00000000  0.25000000  1
  Sm  Sm3  1  -0.00000000  0.00000000  0.75000000  1
  Ni  Ni0  1  0.33333300  0.66666700  0.37351670  1
  Ni  Ni1  1  0.66666700  0.33333300  0.62648330  1
  Ni  Ni2  1  0.66666700  0.33333300  0.87351670  1
  Ni  Ni3  1  0.33333300  0.66666700  0.12648330  1
  P  P0  1  0.33333300  0.66666700  0.87578238  1
  P  P1  1  0.66666700  0.33333300  0.12421762  1
  P  P2  1  0.66666700  0.33333300  0.37578238  1
  P  P3  1  0.33333300  0.66666700  0.62421762  1
loop_
_geom_bond_atom_site_label_1
_geom_bond_atom_site_label_2
_geom_bond_distance
_geom_bond_site_symmetry_2
Ni0 P2 2.265934 1_455
Ni0 P2 2.265934 1_565
Ni0 P2 2.265941 1_555
Ni0 Sm2 2.998333 1_565
Ni0 Sm2 2.998336 1_665
Ni0 Sm2 2.998336 1_555
Ni0 Sm0 3.029438 1_565
Ni0 Sm0 3.029440 1_555
Ni0 Sm0 3.029440 1_665
Ni1 P3 2.265934 1_545
Ni1 P3 2.265934 1_655
Ni1 P3 2.265941 1_555
Ni1 Sm3 2.998333 1_655
Ni1 Sm3 2.998336 1_665
Ni1 Sm3 2.998336 1_555
Ni1 Sm0 3.029438 1_655
Ni1 Sm0 3.029440 1_555
Ni1 Sm0 3.029440 1_665
Ni2 P0 2.265934 1_545
Ni2 P0 2.265934 1_655
Ni2 P0 2.265941 1_555
Ni2 Sm3 2.998333 1_655
Ni2 Sm3 2.998336 1_665
Ni2 Sm3 2.998336 1_555
Ni2 Sm1 3.029438 1_656
Ni2 Sm1 3.029440 1_556
Ni2 Sm1 3.029440 1_666
Ni3 P1 2.265934 1_565
Ni3 P1 2.265934 1_455
Ni3 P1 2.265941 1_555
Ni3 Sm2 2.998333 1_565
Ni3 Sm2 2.998336 1_555
Ni3 Sm2 2.998336 1_665
Ni3 Sm1 3.029438 1_565
Ni3 Sm1 3.029440 1_665
Ni3 Sm1 3.029440 1_555
P0 Sm1 3.005645 1_566
P0 Sm1 3.005647 1_556
P0 Sm1 3.005647 1_666
P0 Sm3 3.022051 1_565
P0 Sm3 3.022053 1_555
P0 Sm3 3.022053 1_665
P1 Sm1 3.005645 1_655
P1 Sm1 3.005647 1_665
P1 Sm1 3.005647 1_555
P1 Sm2 3.022051 1_655
P1 Sm2 3.022053 1_555
P1 Sm2 3.022053 1_665
P2 Sm0 3.005645 1_655
P2 Sm0 3.005647 1_665
P2 Sm0 3.005647 1_555
P2 Sm2 3.022051 1_655
P2 Sm2 3.022053 1_555
P2 Sm2 3.022053 1_665
P3 Sm0 3.005645 1_565
P3 Sm0 3.005647 1_555
P3 Sm0 3.005647 1_665
P3 Sm3 3.022051 1_565
P3 Sm3 3.022053 1_555
P3 Sm3 3.022053 1_665
