# generated using pymatgen
data_TiMn3Cu2(PO4)6
_symmetry_space_group_name_H-M   'P 1'
_cell_length_a   8.57271824
_cell_length_b   8.57271861
_cell_length_c   8.57271769
_cell_angle_alpha   60.03685557
_cell_angle_beta   60.03685654
_cell_angle_gamma   60.03685982
_symmetry_Int_Tables_number   1
_chemical_formula_structural   TiMn3Cu2(PO4)6
_chemical_formula_sum   'Ti1 Mn3 Cu2 P6 O24'
_cell_volume   445.86494095
_cell_formula_units_Z   1
loop_
 _symmetry_equiv_pos_site_id
 _symmetry_equiv_pos_as_xyz
  1  'x, y, z'
loop_
 _atom_site_type_symbol
 _atom_site_label
 _atom_site_symmetry_multiplicity
 _atom_site_fract_x
 _atom_site_fract_y
 _atom_site_fract_z
 _atom_site_occupancy
  Ti  Ti0  1  0.85712100  0.85712100  0.85712100  1
  Mn  Mn0  1  0.14340000  0.14340000  0.14340000  1
  Mn  Mn1  1  0.35763400  0.35763400  0.35763400  1
  Mn  Mn2  1  0.64290100  0.64290100  0.64290100  1
  Cu  Cu0  1  0.99961900  0.99961900  0.99961900  1
  Cu  Cu1  1  0.50099000  0.50099000  0.50099000  1
  P  P0  1  0.74966400  0.45613000  0.04202600  1
  P  P1  1  0.04202600  0.74966400  0.45613000  1
  P  P2  1  0.45613000  0.04202600  0.74966400  1
  P  P3  1  0.25178100  0.53969900  0.96043700  1
  P  P4  1  0.53969900  0.96043700  0.25178100  1
  P  P5  1  0.96043700  0.25178100  0.53969900  1
  O  O0  1  0.12035000  0.30656700  0.50941500  1
  O  O1  1  0.30656700  0.50941500  0.12035000  1
  O  O2  1  0.05781900  0.91660500  0.26144000  1
  O  O3  1  0.50941500  0.12035000  0.30656700  1
  O  O4  1  0.99928400  0.80785700  0.62129400  1
  O  O5  1  0.23850400  0.58366400  0.44618500  1
  O  O6  1  0.26144000  0.05781900  0.91660500  1
  O  O7  1  0.44618500  0.23850400  0.58366400  1
  O  O8  1  0.19479900  0.38122600  0.99126300  1
  O  O9  1  0.58366400  0.44618500  0.23850400  1
  O  O10  1  0.08529500  0.73598500  0.94041600  1
  O  O11  1  0.38122600  0.99126300  0.19479900  1
  O  O12  1  0.62129400  0.99928400  0.80785700  1
  O  O13  1  0.91660500  0.26144000  0.05781900  1
  O  O14  1  0.41765200  0.55511900  0.76325100  1
  O  O15  1  0.80785700  0.62129400  0.99928400  1
  O  O16  1  0.55511900  0.76325100  0.41765200  1
  O  O17  1  0.73598500  0.94041600  0.08529500  1
  O  O18  1  0.76325100  0.41765200  0.55511900  1
  O  O19  1  0.99126300  0.19479900  0.38122600  1
  O  O20  1  0.48792200  0.88319500  0.69349000  1
  O  O21  1  0.94041600  0.08529500  0.73598500  1
  O  O22  1  0.69349000  0.48792200  0.88319500  1
  O  O23  1  0.88319500  0.69349000  0.48792200  1
loop_
_geom_bond_atom_site_label_1
_geom_bond_atom_site_label_2
_geom_bond_distance
_geom_bond_site_symmetry_2
Mn0 O19 1.928506 1_455
Mn0 O8 1.928506 1_554
Mn0 O11 1.928506 1_545
Mn0 O6 2.015035 1_554
Mn0 O13 2.015035 1_455
Mn0 O2 2.015035 1_545
Mn1 O1 1.923338 1_555
Mn1 O0 1.923338 1_555
Mn1 O3 1.923338 1_555
Mn1 O7 2.022896 1_555
Mn1 O9 2.022896 1_555
Mn1 O5 2.022896 1_555
Mn2 O22 1.944158 1_555
Mn2 O23 1.944158 1_555
Mn2 O20 1.944158 1_555
Mn2 O16 2.011328 1_555
Mn2 O14 2.011328 1_555
Mn2 O18 2.011328 1_555
Cu0 O2 2.227475 1_656
Cu0 O6 2.227475 1_665
Cu0 O13 2.227475 1_566
Cu0 O21 2.240585 1_565
Cu0 O17 2.240585 1_556
Cu0 O10 2.240585 1_655
Cu1 O14 2.210667 1_555
Cu1 O18 2.210668 1_555
Cu1 O16 2.210668 1_555
Cu1 O9 2.217411 1_555
Cu1 O5 2.217411 1_555
Cu1 O7 2.217411 1_555
O0 P5 1.527468 1_455
O1 P3 1.527468 1_554
O2 P1 1.560132 1_555
O3 P4 1.527468 1_545
O4 P1 1.546824 1_655
O4 Ti0 1.904846 1_555
O5 P1 1.566176 1_555
O6 P2 1.560132 1_555
O7 P2 1.566176 1_555
O8 P3 1.526250 1_555
O9 P0 1.566176 1_555
O10 P3 1.566914 1_555
O10 Ti0 2.009966 1_455
O11 P4 1.526250 1_555
O12 P2 1.546824 1_565
O12 Ti0 1.904847 1_555
O13 P0 1.560132 1_555
O14 P3 1.568595 1_555
O15 P0 1.546824 1_556
O15 Ti0 1.904846 1_555
O16 P4 1.568596 1_555
O17 P4 1.566914 1_555
O17 Ti0 2.009966 1_554
O18 P5 1.568596 1_555
O19 P5 1.526250 1_555
O20 P2 1.520974 1_565
O21 P5 1.566914 1_555
O21 Ti0 2.009967 1_545
O22 P0 1.520974 1_556
O23 P1 1.520974 1_655
