# generated using pymatgen
data_Na2WO4
_symmetry_space_group_name_H-M   'P 1'
_cell_length_a   6.41691132
_cell_length_b   6.41691132
_cell_length_c   6.41691132
_cell_angle_alpha   60.00000000
_cell_angle_beta   60.00000000
_cell_angle_gamma   60.00000000
_symmetry_Int_Tables_number   1
_chemical_formula_structural   Na2WO4
_chemical_formula_sum   'Na4 W2 O8'
_cell_volume   186.83709884
_cell_formula_units_Z   2
loop_
 _symmetry_equiv_pos_site_id
 _symmetry_equiv_pos_as_xyz
  1  'x, y, z'
loop_
 _atom_site_type_symbol
 _atom_site_label
 _atom_site_symmetry_multiplicity
 _atom_site_fract_x
 _atom_site_fract_y
 _atom_site_fract_z
 _atom_site_occupancy
  Na  Na0  1  -0.00000000  0.00000000  0.50000000  1
  Na  Na1  1  -0.00000000  0.50000000  0.00000000  1
  Na  Na2  1  0.50000000  0.00000000  0.00000000  1
  Na  Na3  1  -0.00000000  0.00000000  0.00000000  1
  W  W0  1  0.37500000  0.37500000  0.37500000  1
  W  W1  1  0.62500000  0.62500000  0.62500000  1
  O  O0  1  0.26088694  0.26088694  0.71734018  1
  O  O1  1  0.26088694  0.71734018  0.26088694  1
  O  O2  1  0.71734018  0.26088694  0.26088694  1
  O  O3  1  0.26088694  0.26088694  0.26088694  1
  O  O4  1  0.73911306  0.73911306  0.28265982  1
  O  O5  1  0.73911306  0.28265982  0.73911306  1
  O  O6  1  0.28265982  0.73911306  0.73911306  1
  O  O7  1  0.73911306  0.73911306  0.73911306  1
loop_
_geom_bond_atom_site_label_1
_geom_bond_atom_site_label_2
_geom_bond_distance
_geom_bond_site_symmetry_2
Na0 O6 2.371633 1_545
Na0 O5 2.371633 1_455
Na0 O2 2.371633 1_455
Na0 O1 2.371633 1_545
Na0 O3 2.371638 1_555
Na0 O7 2.371638 1_445
Na1 O0 2.371633 1_554
Na1 O4 2.371633 1_455
Na1 O6 2.371633 1_554
Na1 O2 2.371633 1_455
Na1 O3 2.371638 1_555
Na1 O7 2.371638 1_454
Na2 O4 2.371633 1_545
Na2 O1 2.371633 1_545
Na2 O5 2.371633 1_554
Na2 O0 2.371633 1_554
Na2 O7 2.371638 1_544
Na2 O3 2.371638 1_555
Na3 O4 2.371637 1_445
Na3 O1 2.371637 1_545
Na3 O0 2.371637 1_554
Na3 O5 2.371637 1_454
Na3 O6 2.371637 1_544
Na3 O2 2.371637 1_455
O0 W0 1.793652 1_555
O1 W0 1.793652 1_555
O2 W0 1.793652 1_555
O3 W0 1.793647 1_555
O4 W1 1.793652 1_555
O5 W1 1.793652 1_555
O6 W1 1.793652 1_555
O7 W1 1.793647 1_555
