# generated using pymatgen
data_LiBO4
_symmetry_space_group_name_H-M   'P 1'
_cell_length_a   7.93296500
_cell_length_b   8.00670700
_cell_length_c   9.47790900
_cell_angle_alpha   90.00000000
_cell_angle_beta   90.00000000
_cell_angle_gamma   90.00000000
_symmetry_Int_Tables_number   1
_chemical_formula_structural   LiBO4
_chemical_formula_sum   'Li8 B8 O32'
_cell_volume   602.00764834
_cell_formula_units_Z   8
loop_
 _symmetry_equiv_pos_site_id
 _symmetry_equiv_pos_as_xyz
  1  'x, y, z'
loop_
 _atom_site_type_symbol
 _atom_site_label
 _atom_site_symmetry_multiplicity
 _atom_site_fract_x
 _atom_site_fract_y
 _atom_site_fract_z
 _atom_site_occupancy
  Li  Li0  1  0.62772900  0.60915000  0.29655400  1
  Li  Li1  1  0.37227100  0.39085000  0.70344600  1
  Li  Li2  1  0.37227100  0.89085000  0.79655400  1
  Li  Li3  1  0.12772900  0.39085000  0.20344600  1
  Li  Li4  1  0.62772900  0.10915000  0.20344600  1
  Li  Li5  1  0.87227100  0.60915000  0.79655400  1
  Li  Li6  1  0.87227100  0.10915000  0.70344600  1
  Li  Li7  1  0.12772900  0.89085000  0.29655400  1
  B  B0  1  0.84531700  0.84211600  0.06888300  1
  B  B1  1  0.15468300  0.15788400  0.93111700  1
  B  B2  1  0.15468300  0.65788400  0.56888300  1
  B  B3  1  0.34531700  0.15788400  0.43111700  1
  B  B4  1  0.84531700  0.34211600  0.43111700  1
  B  B5  1  0.65468300  0.84211600  0.56888300  1
  B  B6  1  0.65468300  0.34211600  0.93111700  1
  B  B7  1  0.34531700  0.65788400  0.06888300  1
  O  O0  1  0.68314200  0.92446500  0.06787400  1
  O  O1  1  0.31685800  0.07553500  0.93212600  1
  O  O2  1  0.31685800  0.57553500  0.56787400  1
  O  O3  1  0.18314200  0.07553500  0.43212600  1
  O  O4  1  0.68314200  0.42446500  0.43212600  1
  O  O5  1  0.81685800  0.92446500  0.56787400  1
  O  O6  1  0.81685800  0.42446500  0.93212600  1
  O  O7  1  0.18314200  0.57553500  0.06787400  1
  O  O8  1  0.59934000  0.79640800  0.43189600  1
  O  O9  1  0.40066000  0.20359200  0.56810400  1
  O  O10  1  0.40066000  0.70359200  0.93189600  1
  O  O11  1  0.09934000  0.20359200  0.06810400  1
  O  O12  1  0.59934000  0.29640800  0.06810400  1
  O  O13  1  0.90066000  0.79640800  0.93189600  1
  O  O14  1  0.90066000  0.29640800  0.56810400  1
  O  O15  1  0.09934000  0.70359200  0.43189600  1
  O  O16  1  0.95359900  0.94212200  0.15434000  1
  O  O17  1  0.04640100  0.05787800  0.84566000  1
  O  O18  1  0.04640100  0.55787800  0.65434000  1
  O  O19  1  0.45359900  0.05787800  0.34566000  1
  O  O20  1  0.95359900  0.44212200  0.34566000  1
  O  O21  1  0.54640100  0.94212200  0.65434000  1
  O  O22  1  0.54640100  0.44212200  0.84566000  1
  O  O23  1  0.45359900  0.55787800  0.15434000  1
  O  O24  1  0.80041500  0.69902500  0.15526900  1
  O  O25  1  0.19958500  0.30097500  0.84473100  1
  O  O26  1  0.19958500  0.80097500  0.65526900  1
  O  O27  1  0.30041500  0.30097500  0.34473100  1
  O  O28  1  0.80041500  0.19902500  0.34473100  1
  O  O29  1  0.69958500  0.69902500  0.65526900  1
  O  O30  1  0.69958500  0.19902500  0.84473100  1
  O  O31  1  0.30041500  0.80097500  0.15526900  1
loop_
_geom_bond_atom_site_label_1
_geom_bond_atom_site_label_2
_geom_bond_distance
_geom_bond_site_symmetry_2
Li0 O23 1.973199 1_555
Li0 O8 1.985989 1_555
Li0 O4 2.007714 1_555
Li0 O24 2.046372 1_555
Li1 O22 1.973199 1_555
Li1 O9 1.985989 1_555
Li1 O2 2.007714 1_555
Li1 O25 2.046372 1_555
Li2 O21 1.973199 1_555
Li2 O10 1.985989 1_555
Li2 O1 2.007714 1_565
Li2 O26 2.046372 1_555
Li3 O20 1.973199 1_455
Li3 O11 1.985989 1_555
Li3 O7 2.007714 1_555
Li3 O27 2.046372 1_555
Li4 O19 1.973199 1_555
Li4 O12 1.985989 1_555
Li4 O0 2.007714 1_545
Li4 O28 2.046372 1_555
Li5 O18 1.973199 1_655
Li5 O13 1.985989 1_555
Li5 O6 2.007714 1_555
Li5 O29 2.046372 1_555
Li6 O17 1.973199 1_655
Li6 O14 1.985989 1_555
Li6 O5 2.007714 1_545
Li6 O30 2.046372 1_555
Li7 O16 1.973199 1_455
Li7 O15 1.985989 1_555
Li7 O3 2.007714 1_565
Li7 O31 2.046372 1_555
B0 O13 1.418590 1_554
B0 O16 1.426552 1_555
B0 O0 1.445677 1_555
B0 O24 1.452532 1_555
B1 O11 1.418590 1_556
B1 O17 1.426552 1_555
B1 O1 1.445677 1_555
B1 O25 1.452532 1_555
B2 O15 1.418590 1_555
B2 O18 1.426552 1_555
B2 O2 1.445677 1_555
B2 O26 1.452532 1_555
B3 O9 1.418590 1_555
B3 O19 1.426552 1_555
B3 O3 1.445677 1_555
B3 O27 1.452532 1_555
B4 O14 1.418590 1_555
B4 O20 1.426552 1_555
B4 O4 1.445677 1_555
B4 O28 1.452532 1_555
B5 O8 1.418590 1_555
B5 O21 1.426552 1_555
B5 O5 1.445677 1_555
B5 O29 1.452532 1_555
B6 O12 1.418590 1_556
B6 O22 1.426552 1_555
B6 O6 1.445677 1_555
B6 O30 1.452532 1_555
B7 O10 1.418590 1_554
B7 O23 1.426552 1_555
B7 O7 1.445677 1_555
B7 O31 1.452532 1_555
