# generated using pymatgen
data_SmYCo10
_symmetry_space_group_name_H-M   'P 1'
_cell_length_a   3.93031600
_cell_length_b   4.91038512
_cell_length_c   8.51662869
_cell_angle_alpha   89.99999138
_cell_angle_beta   90.00000000
_cell_angle_gamma   90.00000000
_symmetry_Int_Tables_number   1
_chemical_formula_structural   SmYCo10
_chemical_formula_sum   'Sm1 Y1 Co10'
_cell_volume   164.36552734
_cell_formula_units_Z   1
loop_
 _symmetry_equiv_pos_site_id
 _symmetry_equiv_pos_as_xyz
  1  'x, y, z'
loop_
 _atom_site_type_symbol
 _atom_site_label
 _atom_site_symmetry_multiplicity
 _atom_site_fract_x
 _atom_site_fract_y
 _atom_site_fract_z
 _atom_site_occupancy
  Sm  Sm0  1  0.00000000  0.99998600  0.00000000  1
  Y  Y0  1  0.00000000  0.49997800  0.50000000  1
  Co  Co0  1  0.00000000  0.99996100  0.33390700  1
  Co  Co1  1  0.00000000  0.49996000  0.83244400  1
  Co  Co2  1  0.00000000  0.49996000  0.16755600  1
  Co  Co3  1  0.00000000  0.99996100  0.66609300  1
  Co  Co4  1  0.50000000  0.00000800  0.50000000  1
  Co  Co5  1  0.50000000  0.50000600  0.00000000  1
  Co  Co6  1  0.50000000  0.25104800  0.25148700  1
  Co  Co7  1  0.50000000  0.74894200  0.74852100  1
  Co  Co8  1  0.50000000  0.74894200  0.25147900  1
  Co  Co9  1  0.50000000  0.25104800  0.74851300  1
loop_
_geom_bond_atom_site_label_1
_geom_bond_atom_site_label_2
_geom_bond_distance
_geom_bond_site_symmetry_2
Co0 Co4 2.421323 1_565
Co0 Co4 2.421323 1_465
Co0 Co8 2.423626 1_455
Co0 Co8 2.423626 1_555
Co0 Co6 2.423776 1_465
Co0 Co6 2.423776 1_565
Co0 Co3 2.829105 1_555
Co0 Y0 2.833464 1_555
Co0 Y0 2.833609 1_565
Co0 Co2 2.834630 1_565
Co0 Co2 2.834638 1_555
Co0 Sm0 2.843762 1_555
Co1 Co9 2.422128 1_455
Co1 Co9 2.422128 1_555
Co1 Co7 2.422281 1_555
Co1 Co7 2.422281 1_455
Co1 Co5 2.428623 1_456
Co1 Co5 2.428623 1_556
Co1 Y0 2.831302 1_555
Co1 Co3 2.834630 1_545
Co1 Co3 2.834638 1_555
Co1 Sm0 2.839667 1_546
Co1 Sm0 2.839888 1_556
Co1 Co2 2.854024 1_556
Co2 Co6 2.422128 1_455
Co2 Co6 2.422128 1_555
Co2 Co8 2.422281 1_455
Co2 Co8 2.422281 1_555
Co2 Co5 2.428623 1_455
Co2 Co5 2.428623 1_555
Co2 Y0 2.831302 1_555
Co2 Sm0 2.839667 1_545
Co2 Sm0 2.839887 1_555
Co3 Co4 2.421323 1_465
Co3 Co4 2.421323 1_565
Co3 Co7 2.423626 1_555
Co3 Co7 2.423626 1_455
Co3 Co9 2.423777 1_465
Co3 Co9 2.423777 1_565
Co3 Y0 2.833464 1_555
Co3 Y0 2.833609 1_565
Co3 Sm0 2.843762 1_556
Co4 Co6 2.449306 1_555
Co4 Co9 2.449306 1_555
Co4 Co7 2.449429 1_545
Co4 Co8 2.449429 1_545
Co4 Y0 3.144693 1_655
Co4 Y0 3.144693 1_555
Co4 Y0 3.144923 1_645
Co4 Y0 3.144923 1_545
Co5 Co7 2.466029 1_554
Co5 Co8 2.466029 1_555
Co5 Co6 2.466142 1_555
Co5 Co9 2.466142 1_554
Co5 Sm0 3.144731 1_655
Co5 Sm0 3.144731 1_555
Co5 Sm0 3.144885 1_545
Co5 Sm0 3.144885 1_645
Co6 Co8 2.444851 1_555
Co6 Co8 2.465534 1_545
Co6 Y0 3.136162 1_555
Co6 Y0 3.136162 1_655
Co6 Sm0 3.157383 1_645
Co6 Sm0 3.157383 1_545
Co7 Co9 2.444851 1_555
Co7 Co9 2.465534 1_565
Co7 Y0 3.136273 1_555
Co7 Y0 3.136273 1_655
Co7 Sm0 3.157303 1_556
Co7 Sm0 3.157303 1_656
Co8 Y0 3.136272 1_555
Co8 Y0 3.136272 1_655
Co8 Sm0 3.157302 1_555
Co8 Sm0 3.157302 1_655
Co9 Y0 3.136161 1_555
Co9 Y0 3.136161 1_655
Co9 Sm0 3.157383 1_546
Co9 Sm0 3.157383 1_646
