# generated using pymatgen
data_FeAg(SO4)2
_symmetry_space_group_name_H-M   'P 1'
_cell_length_a   4.83823162
_cell_length_b   4.83823162
_cell_length_c   7.50463168
_cell_angle_alpha   87.87385256
_cell_angle_beta   87.87385256
_cell_angle_gamma   65.62071713
_symmetry_Int_Tables_number   1
_chemical_formula_structural   FeAg(SO4)2
_chemical_formula_sum   'Fe1 Ag1 S2 O8'
_cell_volume   159.85194112
_cell_formula_units_Z   1
loop_
 _symmetry_equiv_pos_site_id
 _symmetry_equiv_pos_as_xyz
  1  'x, y, z'
loop_
 _atom_site_type_symbol
 _atom_site_label
 _atom_site_symmetry_multiplicity
 _atom_site_fract_x
 _atom_site_fract_y
 _atom_site_fract_z
 _atom_site_occupancy
  Fe  Fe0  1  0.00000000  0.00000000  0.00000000  1
  Ag  Ag0  1  0.00000000  0.00000000  0.50000000  1
  S  S0  1  0.36352800  0.36352800  0.78526700  1
  S  S1  1  0.63647200  0.63647200  0.21473300  1
  O  O0  1  0.29428400  0.29428400  0.60999300  1
  O  O1  1  0.70571600  0.70571600  0.39000700  1
  O  O2  1  0.70394600  0.23832600  0.80494400  1
  O  O3  1  0.29605400  0.76167400  0.19505600  1
  O  O4  1  0.76167400  0.29605400  0.19505600  1
  O  O5  1  0.23832600  0.70394600  0.80494400  1
  O  O6  1  0.23929800  0.23929800  0.93752900  1
  O  O7  1  0.76070200  0.76070200  0.06247100  1
loop_
_geom_bond_atom_site_label_1
_geom_bond_atom_site_label_2
_geom_bond_distance
_geom_bond_site_symmetry_2
Fe0 O6 1.981605 1_554
Fe0 O7 1.981605 1_445
Fe0 O2 2.047167 1_454
Fe0 O5 2.047167 1_544
Fe0 O4 2.047167 1_455
Fe0 O3 2.047167 1_545
Ag0 O0 2.565907 1_555
Ag0 O1 2.565907 1_445
Ag0 O3 2.684688 1_545
Ag0 O2 2.684688 1_455
Ag0 O4 2.684688 1_455
Ag0 O5 2.684688 1_545
O0 S0 1.453519 1_555
O1 S1 1.453519 1_555
O2 S0 1.513006 1_555
O3 S1 1.513006 1_555
O4 S1 1.513006 1_555
O5 S0 1.513006 1_555
O6 S0 1.491492 1_555
O7 S1 1.491492 1_555
