# generated using pymatgen
data_V2Co2Se2O11
_symmetry_space_group_name_H-M   'P 1'
_cell_length_a   9.01918300
_cell_length_b   4.89101000
_cell_length_c   10.72991957
_cell_angle_alpha   78.84313622
_cell_angle_beta   90.00000000
_cell_angle_gamma   90.00000000
_symmetry_Int_Tables_number   1
_chemical_formula_structural   V2Co2Se2O11
_chemical_formula_sum   'V4 Co4 Se4 O22'
_cell_volume   464.38264761
_cell_formula_units_Z   2
loop_
 _symmetry_equiv_pos_site_id
 _symmetry_equiv_pos_as_xyz
  1  'x, y, z'
loop_
 _atom_site_type_symbol
 _atom_site_label
 _atom_site_symmetry_multiplicity
 _atom_site_fract_x
 _atom_site_fract_y
 _atom_site_fract_z
 _atom_site_occupancy
  V  V0  1  0.06136700  0.46712100  0.84991000  1
  V  V1  1  0.56136700  0.53287900  0.15009000  1
  V  V2  1  0.93863300  0.53287900  0.15009000  1
  V  V3  1  0.43863300  0.46712100  0.84991000  1
  Co  Co0  1  0.92813600  0.04229800  0.63265100  1
  Co  Co1  1  0.42813600  0.95770200  0.36734900  1
  Co  Co2  1  0.07186400  0.95770200  0.36734900  1
  Co  Co3  1  0.57186400  0.04229800  0.63265100  1
  Se  Se0  1  0.75000000  0.61376700  0.45319400  1
  Se  Se1  1  0.25000000  0.38623300  0.54680600  1
  Se  Se2  1  0.75000000  0.85842400  0.89873300  1
  Se  Se3  1  0.25000000  0.14157600  0.10126700  1
  O  O0  1  0.75000000  0.30755600  0.56839400  1
  O  O1  1  0.25000000  0.69244400  0.43160600  1
  O  O2  1  0.95965600  0.23820400  0.78742300  1
  O  O3  1  0.45965600  0.76179600  0.21257700  1
  O  O4  1  0.04034400  0.76179600  0.21257700  1
  O  O5  1  0.54034400  0.23820400  0.78742300  1
  O  O6  1  0.90032100  0.62340200  0.95303400  1
  O  O7  1  0.40032100  0.37659800  0.04696600  1
  O  O8  1  0.09967900  0.37659800  0.04696600  1
  O  O9  1  0.59967900  0.62340200  0.95303400  1
  O  O10  1  0.59777900  0.79222100  0.49820800  1
  O  O11  1  0.09777900  0.20777900  0.50179200  1
  O  O12  1  0.40222100  0.20777900  0.50179200  1
  O  O13  1  0.90222100  0.79222100  0.49820800  1
  O  O14  1  0.75000000  0.82936700  0.74432500  1
  O  O15  1  0.25000000  0.17063300  0.25567500  1
  O  O16  1  0.07562700  0.75829800  0.73975600  1
  O  O17  1  0.57562700  0.24170200  0.26024400  1
  O  O18  1  0.92437300  0.24170200  0.26024400  1
  O  O19  1  0.42437300  0.75829800  0.73975600  1
  O  O20  1  0.25000000  0.32188000  0.85036200  1
  O  O21  1  0.75000000  0.67812000  0.14963800  1
loop_
_geom_bond_atom_site_label_1
_geom_bond_atom_site_label_2
_geom_bond_distance
_geom_bond_site_symmetry_2
Co0 O13 2.077134 1_545
Co0 O2 2.091080 1_555
Co0 O0 2.096114 1_555
Co0 O16 2.098087 1_645
Co0 O11 2.127869 1_655
Co0 O14 2.149136 1_545
Co1 O12 2.077134 1_565
Co1 O3 2.091080 1_555
Co1 O1 2.096114 1_555
Co1 O17 2.098087 1_565
Co1 O10 2.127869 1_555
Co1 O15 2.149136 1_565
Co2 O11 2.077134 1_565
Co2 O4 2.091080 1_555
Co2 O1 2.096114 1_555
Co2 O18 2.098087 1_465
Co2 O13 2.127869 1_455
Co2 O15 2.149136 1_565
Co3 O10 2.077134 1_545
Co3 O5 2.091080 1_555
Co3 O0 2.096114 1_555
Co3 O19 2.098087 1_545
Co3 O12 2.127869 1_555
Co3 O14 2.149136 1_545
O0 Se0 1.747723 1_555
O1 Se1 1.747723 1_555
O2 V0 1.683797 1_655
O3 V1 1.683797 1_555
O4 V2 1.683797 1_455
O5 V3 1.683797 1_555
O6 Se2 1.799930 1_555
O6 V0 2.060513 1_655
O6 V2 2.103286 1_556
O7 Se3 1.799930 1_555
O7 V1 2.060513 1_555
O7 V3 2.103286 1_554
O8 Se3 1.799930 1_555
O8 V2 2.060513 1_455
O8 V0 2.103286 1_554
O9 Se2 1.799930 1_555
O9 V3 2.060513 1_555
O9 V1 2.103286 1_556
O10 Se0 1.744455 1_555
O11 Se1 1.744455 1_555
O12 Se1 1.744455 1_555
O13 Se0 1.744455 1_555
O14 Se2 1.690046 1_555
O15 Se3 1.690046 1_555
O16 V0 1.670427 1_555
O17 V1 1.670427 1_555
O18 V2 1.670427 1_555
O19 V3 1.670427 1_555
O20 V0 1.843312 1_555
O20 V3 1.843312 1_555
O21 V2 1.843312 1_555
O21 V1 1.843312 1_555
