# generated using pymatgen
data_Y2HgAu
_symmetry_space_group_name_H-M   'P 1'
_cell_length_a   12.20694439
_cell_length_b   12.20694439
_cell_length_c   12.20694439
_cell_angle_alpha   122.24710167
_cell_angle_beta   119.24489060
_cell_angle_gamma   88.73279092
_symmetry_Int_Tables_number   1
_chemical_formula_structural   Y2HgAu
_chemical_formula_sum   'Y2 Hg1 Au1'
_cell_volume   1270.23075022
_cell_formula_units_Z   1
loop_
 _symmetry_equiv_pos_site_id
 _symmetry_equiv_pos_as_xyz
  1  'x, y, z'
loop_
 _atom_site_type_symbol
 _atom_site_label
 _atom_site_symmetry_multiplicity
 _atom_site_fract_x
 _atom_site_fract_y
 _atom_site_fract_z
 _atom_site_occupancy
  Y  Y0  1  0.00000000  0.24076800  0.24076800  1
  Y  Y1  1  0.00000000  0.75923200  0.75923200  1
  Hg  Hg0  1  0.00000000  0.50000000  0.50000000  1
  Au  Au0  1  0.00000000  0.00000000  0.00000000  1
loop_
_geom_bond_atom_site_label_1
_geom_bond_atom_site_label_2
_geom_bond_distance
_geom_bond_site_symmetry_2
Hg0 Y1 3.056349 1_555
Hg0 Y0 3.056349 1_555
Au0 Y0 2.838659 1_555
Au0 Y1 2.838659 1_544
