# generated using pymatgen
data_Li7Mn4CoO12
_symmetry_space_group_name_H-M   'P 1'
_cell_length_a   5.11100700
_cell_length_b   5.82746396
_cell_length_c   7.84849043
_cell_angle_alpha   100.61038871
_cell_angle_beta   95.45735089
_cell_angle_gamma   106.81346104
_symmetry_Int_Tables_number   1
_chemical_formula_structural   Li7Mn4CoO12
_chemical_formula_sum   'Li7 Mn4 Co1 O12'
_cell_volume   217.19049327
_cell_formula_units_Z   1
loop_
 _symmetry_equiv_pos_site_id
 _symmetry_equiv_pos_as_xyz
  1  'x, y, z'
loop_
 _atom_site_type_symbol
 _atom_site_label
 _atom_site_symmetry_multiplicity
 _atom_site_fract_x
 _atom_site_fract_y
 _atom_site_fract_z
 _atom_site_occupancy
  Li  Li0  1  0.50389100  0.08206600  0.82551100  1
  Li  Li1  1  0.50778600  0.74926100  0.49367300  1
  Li  Li2  1  0.49708400  0.24644500  0.49909200  1
  Li  Li3  1  0.48142200  0.91226700  0.17729700  1
  Li  Li4  1  0.50247900  0.42380000  0.18031000  1
  Li  Li5  1  0.50843400  0.58560800  0.82487100  1
  Li  Li6  1  0.99939800  0.83295900  0.33816700  1
  Mn  Mn0  1  0.99508600  0.99767900  0.00035800  1
  Mn  Mn1  1  0.99711000  0.33618100  0.33722800  1
  Mn  Mn2  1  0.00943900  0.16549200  0.66533000  1
  Mn  Mn3  1  0.99849400  0.50325200  0.00104900  1
  Co  Co0  1  0.99842500  0.66643800  0.65290600  1
  O  O0  1  0.76708000  0.20882700  0.06697500  1
  O  O1  1  0.77804400  0.90077700  0.76139500  1
  O  O2  1  0.79219900  0.38059500  0.76447900  1
  O  O3  1  0.77815200  0.06332500  0.43880200  1
  O  O4  1  0.76078000  0.52812000  0.41315600  1
  O  O5  1  0.76942100  0.70893600  0.06509600  1
  O  O6  1  0.23801400  0.97193300  0.59462200  1
  O  O7  1  0.21907200  0.60344500  0.23209100  1
  O  O8  1  0.21086800  0.12261200  0.22951200  1
  O  O9  1  0.22186900  0.78958800  0.93051700  1
  O  O10  1  0.21523200  0.28212900  0.91306400  1
  O  O11  1  0.25022100  0.43826600  0.59449900  1
loop_
_geom_bond_atom_site_label_1
_geom_bond_atom_site_label_2
_geom_bond_distance
_geom_bond_site_symmetry_2
Li0 O1 2.031599 1_545
Li0 O6 2.034969 1_545
Li0 O0 2.090781 1_556
Li0 O2 2.094123 1_555
Li0 O10 2.213801 1_555
Li0 O9 2.232454 1_545
Li1 O3 2.094024 1_565
Li1 O4 2.133445 1_555
Li1 O11 2.233769 1_555
Li1 O6 2.253193 1_555
Li1 O1 2.271964 1_555
Li1 O7 2.273839 1_555
Li2 O11 2.022268 1_555
Li2 O3 2.063128 1_555
Li2 O4 2.065546 1_555
Li2 O6 2.068721 1_545
Li2 O2 2.311982 1_555
Li2 O8 2.318533 1_555
Li3 O7 2.054337 1_555
Li3 O9 2.115420 1_554
Li3 O8 2.118019 1_565
Li3 O0 2.280305 1_565
Li3 O5 2.284175 1_555
Li3 O3 2.292954 1_565
Li4 O4 2.029738 1_555
Li4 O7 2.047388 1_555
Li4 O8 2.072872 1_555
Li4 O5 2.217335 1_555
Li4 O0 2.233403 1_555
Li4 O10 2.304729 1_554
Li5 O11 2.016662 1_555
Li5 O5 2.078124 1_556
Li5 O1 2.126889 1_555
Li5 O2 2.163341 1_555
Li5 O10 2.228753 1_555
Li5 O9 2.262932 1_555
Li6 O4 2.063419 1_555
Li6 O3 2.088613 1_565
Li6 O7 2.092614 1_655
Li6 O8 2.096316 1_665
Li6 O6 2.134463 1_655
Li6 O5 2.226250 1_555
Mn0 O8 1.912333 1_665
Mn0 O5 1.929583 1_555
Mn0 O9 1.950297 1_654
Mn0 O0 1.963140 1_565
Mn0 O1 1.979594 1_554
Mn0 O10 1.992229 1_664
Mn1 O4 1.933451 1_555
Mn1 O7 2.005684 1_655
Mn1 O3 2.005809 1_555
Mn1 O8 2.008004 1_655
Mn1 O11 2.172587 1_655
Mn1 O0 2.207531 1_555
Mn2 O6 1.897417 1_545
Mn2 O11 1.916805 1_555
Mn2 O3 1.927711 1_455
Mn2 O1 1.972132 1_445
Mn2 O2 2.004973 1_455
Mn2 O10 2.014817 1_555
Mn3 O7 1.934039 1_655
Mn3 O9 1.937116 1_654
Mn3 O5 1.939595 1_555
Mn3 O2 1.942401 1_554
Mn3 O0 1.969717 1_555
Mn3 O10 2.002005 1_654
Co0 O6 2.005833 1_655
Co0 O4 2.026334 1_555
Co0 O2 2.085540 1_555
Co0 O1 2.121947 1_555
Co0 O11 2.124153 1_655
Co0 O9 2.245724 1_655
