# generated using pymatgen
data_SrTiFe3(BiO4)3
_symmetry_space_group_name_H-M   'P 1'
_cell_length_a   9.87098326
_cell_length_b   9.87098326
_cell_length_c   9.87098321
_cell_angle_alpha   33.16073306
_cell_angle_beta   33.16073306
_cell_angle_gamma   33.16072792
_symmetry_Int_Tables_number   1
_chemical_formula_structural   SrTiFe3(BiO4)3
_chemical_formula_sum   'Sr1 Ti1 Fe3 Bi3 O12'
_cell_volume   256.15369126
_cell_formula_units_Z   1
loop_
 _symmetry_equiv_pos_site_id
 _symmetry_equiv_pos_as_xyz
  1  'x, y, z'
loop_
 _atom_site_type_symbol
 _atom_site_label
 _atom_site_symmetry_multiplicity
 _atom_site_fract_x
 _atom_site_fract_y
 _atom_site_fract_z
 _atom_site_occupancy
  Sr  Sr0  1  0.36575000  0.36575000  0.36575000  1
  Ti  Ti0  1  0.98953400  0.98953400  0.98953400  1
  Fe  Fe0  1  0.74162000  0.74162000  0.74162000  1
  Fe  Fe1  1  0.24565800  0.24565800  0.24565800  1
  Fe  Fe2  1  0.49383300  0.49383300  0.49383300  1
  Bi  Bi0  1  0.85383800  0.85383800  0.85383800  1
  Bi  Bi1  1  0.10341500  0.10341500  0.10341500  1
  Bi  Bi2  1  0.60386400  0.60386400  0.60386400  1
  O  O0  1  0.62565700  0.19189600  0.05623300  1
  O  O1  1  0.11275400  0.70032300  0.56304700  1
  O  O2  1  0.05623300  0.62565700  0.19189600  1
  O  O3  1  0.56304700  0.11275400  0.70032300  1
  O  O4  1  0.19189600  0.05623300  0.62565700  1
  O  O5  1  0.70032300  0.56304700  0.11275400  1
  O  O6  1  0.46136000  0.85986500  0.31036500  1
  O  O7  1  0.93930900  0.35516900  0.83248900  1
  O  O8  1  0.31036500  0.46136000  0.85986500  1
  O  O9  1  0.83248900  0.93930900  0.35516900  1
  O  O10  1  0.85986500  0.31036500  0.46136000  1
  O  O11  1  0.35516900  0.83248900  0.93930900  1
loop_
_geom_bond_atom_site_label_1
_geom_bond_atom_site_label_2
_geom_bond_distance
_geom_bond_site_symmetry_2
Fe0 O7 1.975533 1_555
Fe0 O11 1.975533 1_555
Fe0 O9 1.975533 1_555
Fe0 O3 2.141298 1_565
Fe0 O1 2.141298 1_655
Fe0 O5 2.141298 1_556
Fe1 O6 2.018031 1_545
Fe1 O10 2.018031 1_455
Fe1 O8 2.018031 1_554
Fe1 O2 2.105566 1_555
Fe1 O0 2.105566 1_555
Fe1 O4 2.105566 1_555
Fe2 O1 1.990676 1_555
Fe2 O3 1.990676 1_555
Fe2 O5 1.990676 1_555
Fe2 O10 2.124720 1_555
Fe2 O6 2.124720 1_555
Fe2 O8 2.124720 1_555
Bi0 O3 2.362844 1_565
Bi0 O1 2.362844 1_655
Bi0 O5 2.362844 1_556
Bi0 O8 2.480478 1_655
Bi0 O6 2.480478 1_556
Bi0 O10 2.480478 1_565
Bi1 O11 2.310367 1_544
Bi1 O7 2.310367 1_454
Bi1 O9 2.310367 1_445
Bi1 O5 2.507224 1_455
Bi1 O1 2.507224 1_545
Bi1 O3 2.507224 1_554
Bi2 O10 2.317760 1_555
Bi2 O6 2.317760 1_555
Bi2 O8 2.317761 1_555
Bi2 O4 2.502702 1_565
Bi2 O0 2.502703 1_556
Bi2 O2 2.502703 1_655
O0 Ti0 1.885422 1_544
O0 Sr0 2.673009 1_555
O2 Ti0 1.885422 1_454
O2 Sr0 2.673009 1_555
O4 Ti0 1.885422 1_445
O4 Sr0 2.673009 1_555
O7 Ti0 2.144416 1_545
O7 Sr0 2.533065 1_655
O9 Ti0 2.144416 1_554
O9 Sr0 2.533065 1_565
O11 Ti0 2.144416 1_455
O11 Sr0 2.533065 1_556
