# generated using pymatgen
data_La3LuBeS7
_symmetry_space_group_name_H-M   'P 1'
_cell_length_a   10.30095550
_cell_length_b   10.30095550
_cell_length_c   6.18862200
_cell_angle_alpha   90.00000000
_cell_angle_beta   90.00000000
_cell_angle_gamma   119.99999678
_symmetry_Int_Tables_number   1
_chemical_formula_structural   La3LuBeS7
_chemical_formula_sum   'La6 Lu2 Be2 S14'
_cell_volume   568.69528108
_cell_formula_units_Z   2
loop_
 _symmetry_equiv_pos_site_id
 _symmetry_equiv_pos_as_xyz
  1  'x, y, z'
loop_
 _atom_site_type_symbol
 _atom_site_label
 _atom_site_symmetry_multiplicity
 _atom_site_fract_x
 _atom_site_fract_y
 _atom_site_fract_z
 _atom_site_occupancy
  La  La0  1  0.74076800  0.13684800  0.24947000  1
  La  La1  1  0.39607900  0.25923200  0.24947000  1
  La  La2  1  0.86315200  0.60392100  0.24947000  1
  La  La3  1  0.25923200  0.86315200  0.74947000  1
  La  La4  1  0.60392100  0.74076800  0.74947000  1
  La  La5  1  0.13684800  0.39607900  0.74947000  1
  Lu  Lu0  1  0.00000000  0.00000000  0.01846600  1
  Lu  Lu1  1  0.00000000  0.00000000  0.51846600  1
  Be  Be0  1  0.66666700  0.33333300  0.66066500  1
  Be  Be1  1  0.33333300  0.66666700  0.16066500  1
  S  S0  1  0.84404000  0.08064800  0.76992700  1
  S  S1  1  0.23660800  0.15596000  0.76992700  1
  S  S2  1  0.91935200  0.76339200  0.76992700  1
  S  S3  1  0.15596000  0.91935200  0.26992700  1
  S  S4  1  0.76339200  0.84404000  0.26992700  1
  S  S5  1  0.08064800  0.23660800  0.26992700  1
  S  S6  1  0.88394300  0.40347400  0.52855400  1
  S  S7  1  0.51953200  0.11605700  0.52855400  1
  S  S8  1  0.59652600  0.48046800  0.52855400  1
  S  S9  1  0.11605700  0.59652600  0.02855400  1
  S  S10  1  0.48046800  0.88394300  0.02855400  1
  S  S11  1  0.40347400  0.51953200  0.02855400  1
  S  S12  1  0.66666700  0.33333300  0.00904700  1
  S  S13  1  0.33333300  0.66666700  0.50904700  1
loop_
_geom_bond_atom_site_label_1
_geom_bond_atom_site_label_2
_geom_bond_distance
_geom_bond_site_symmetry_2
La0 S7 2.781079 1_555
La0 S12 2.904804 1_555
La0 S6 2.941226 1_555
La0 S10 2.976621 1_545
La0 S5 3.119593 1_655
La0 S4 3.141773 1_545
La0 S0 3.299995 1_554
La0 S0 3.529438 1_555
La1 S8 2.781086 1_555
La1 S12 2.904822 1_555
La1 S7 2.941240 1_555
La1 S11 2.976620 1_555
La1 S3 3.119591 1_545
La1 S5 3.141763 1_555
La1 S1 3.299991 1_554
La1 S1 3.529435 1_555
La2 S6 2.781095 1_555
La2 S12 2.904817 1_555
La2 S8 2.941225 1_555
La2 S9 2.976620 1_655
La2 S4 3.119583 1_555
La2 S3 3.141767 1_655
La2 S2 3.299991 1_554
La2 S2 3.529434 1_555
La3 S10 2.781079 1_556
La3 S13 2.904804 1_555
La3 S9 2.941226 1_556
La3 S7 2.976621 1_565
La3 S2 3.119593 1_455
La3 S1 3.141773 1_565
La3 S3 3.299995 1_555
La3 S3 3.529438 1_556
La4 S11 2.781086 1_556
La4 S13 2.904822 1_555
La4 S10 2.941240 1_556
La4 S8 2.976620 1_555
La4 S0 3.119591 1_565
La4 S2 3.141763 1_555
La4 S4 3.299991 1_555
La4 S4 3.529435 1_556
La5 S9 2.781095 1_556
La5 S13 2.904817 1_555
La5 S11 2.941225 1_556
La5 S6 2.976620 1_455
La5 S1 3.119583 1_555
La5 S0 3.141767 1_455
La5 S5 3.299991 1_555
La5 S5 3.529434 1_556
Lu0 S0 2.640367 1_454
Lu0 S2 2.640367 1_444
Lu0 S1 2.640367 1_554
Lu0 S3 2.650942 1_545
Lu0 S5 2.650942 1_555
Lu0 S4 2.650942 1_445
Lu1 S3 2.640367 1_545
Lu1 S5 2.640367 1_555
Lu1 S4 2.640367 1_445
Lu1 S0 2.650942 1_455
Lu1 S2 2.650942 1_445
Lu1 S1 2.650942 1_555
Be0 S8 2.140722 1_555
Be0 S6 2.140722 1_555
Be0 S7 2.140722 1_555
Be0 S12 2.156005 1_556
Be1 S11 2.140722 1_555
Be1 S9 2.140722 1_555
Be1 S10 2.140722 1_555
Be1 S13 2.156005 1_555
