# generated using pymatgen
data_TaN
_symmetry_space_group_name_H-M   'P 1'
_cell_length_a   11.09207323
_cell_length_b   10.63223837
_cell_length_c   10.97325726
_cell_angle_alpha   90.47321581
_cell_angle_beta   91.80549763
_cell_angle_gamma   87.44350961
_symmetry_Int_Tables_number   1
_chemical_formula_structural   TaN
_chemical_formula_sum   'Ta50 N50'
_cell_volume   1292.15509624
_cell_formula_units_Z   50
loop_
 _symmetry_equiv_pos_site_id
 _symmetry_equiv_pos_as_xyz
  1  'x, y, z'
loop_
 _atom_site_type_symbol
 _atom_site_label
 _atom_site_symmetry_multiplicity
 _atom_site_fract_x
 _atom_site_fract_y
 _atom_site_fract_z
 _atom_site_occupancy
  Ta  Ta0  1  0.80374500  0.58912200  0.16848100  1
  Ta  Ta1  1  0.19169900  0.79587600  0.19380700  1
  Ta  Ta2  1  0.49868500  0.58633900  0.27825200  1
  Ta  Ta3  1  0.90490500  0.83774700  0.07647900  1
  Ta  Ta4  1  0.14645200  0.83624400  0.90327100  1
  Ta  Ta5  1  0.05463900  0.55997600  0.08841800  1
  Ta  Ta6  1  0.26275600  0.95131700  0.43796000  1
  Ta  Ta7  1  0.25970600  0.04628600  0.16203500  1
  Ta  Ta8  1  0.70581300  0.14620500  0.59562700  1
  Ta  Ta9  1  0.78086400  0.98310900  0.30747500  1
  Ta  Ta10  1  0.86231300  0.09337800  0.82313800  1
  Ta  Ta11  1  0.89739300  0.92697800  0.53710200  1
  Ta  Ta12  1  0.95294800  0.53583500  0.54168800  1
  Ta  Ta13  1  0.32448400  0.68981600  0.78861500  1
  Ta  Ta14  1  0.82479100  0.38077400  0.98117200  1
  Ta  Ta15  1  0.40248500  0.26046700  0.36022900  1
  Ta  Ta16  1  0.69825400  0.35405000  0.28696600  1
  Ta  Ta17  1  0.63062500  0.87355600  0.95337800  1
  Ta  Ta18  1  0.38585600  0.21437800  0.65880300  1
  Ta  Ta19  1  0.10172300  0.27583300  0.86773200  1
  Ta  Ta20  1  0.54177100  0.94658000  0.42423900  1
  Ta  Ta21  1  0.23264500  0.33838700  0.08982500  1
  Ta  Ta22  1  0.35230200  0.92275500  0.69265500  1
  Ta  Ta23  1  0.40677100  0.74382300  0.03469300  1
  Ta  Ta24  1  0.09160000  0.01967500  0.68127200  1
  Ta  Ta25  1  0.02061800  0.17502100  0.10710500  1
  Ta  Ta26  1  0.04186100  0.01351000  0.30711400  1
  Ta  Ta27  1  0.24073900  0.57781500  0.32995300  1
  Ta  Ta28  1  0.36943800  0.48438800  0.57123300  1
  Ta  Ta29  1  0.62923300  0.81036700  0.20707600  1
  Ta  Ta30  1  0.99232200  0.41036800  0.30152300  1
  Ta  Ta31  1  0.83446300  0.56586300  0.79055300  1
  Ta  Ta32  1  0.61399300  0.89469700  0.68978900  1
  Ta  Ta33  1  0.69362300  0.67176000  0.46427400  1
  Ta  Ta34  1  0.48151000  0.20825900  0.09259500  1
  Ta  Ta35  1  0.67861200  0.42429100  0.58050900  1
  Ta  Ta36  1  0.60009200  0.17970200  0.83018300  1
  Ta  Ta37  1  0.96538900  0.70429100  0.34282400  1
  Ta  Ta38  1  0.87822200  0.83306200  0.79844100  1
  Ta  Ta39  1  0.57045700  0.63391500  0.78062000  1
  Ta  Ta40  1  0.32550600  0.42572500  0.84555700  1
  Ta  Ta41  1  0.93220800  0.30408800  0.66916000  1
  Ta  Ta42  1  0.74185800  0.10088800  0.06672600  1
  Ta  Ta43  1  0.56158300  0.45784200  0.99920900  1
  Ta  Ta44  1  0.08476800  0.52891400  0.77276700  1
  Ta  Ta45  1  0.45369500  0.74029300  0.53955100  1
  Ta  Ta46  1  0.87617900  0.20751500  0.42075300  1
  Ta  Ta47  1  0.17237700  0.69785700  0.56559700  1
  Ta  Ta48  1  0.14204600  0.20493300  0.49185400  1
  Ta  Ta49  1  0.33877800  0.08676300  0.90944900  1
  N  N0  1  0.98117300  0.74565900  0.52804800  1
  N  N1  1  0.55846300  0.27717300  0.64928800  1
  N  N2  1  0.94797900  0.40488400  0.83001100  1
  N  N3  1  0.90658700  0.01950500  0.15542900  1
  N  N4  1  0.80523100  0.95226900  0.94496500  1
  N  N5  1  0.99966100  0.34782000  0.49111700  1
  N  N6  1  0.21837600  0.76801000  0.39440100  1
  N  N7  1  0.39615800  0.46814200  0.37713400  1
  N  N8  1  0.43943600  0.58421700  0.91115300  1
  N  N9  1  0.01355100  0.96740700  0.84131300  1
  N  N10  1  0.71398900  0.75287000  0.80279500  1
  N  N11  1  0.25905800  0.07358400  0.59879800  1
  N  N12  1  0.68453700  0.49243200  0.87058000  1
  N  N13  1  0.76403000  0.24844600  0.75512100  1
  N  N14  1  0.62395500  0.51091900  0.16398300  1
  N  N15  1  0.64968800  0.50471300  0.40263500  1
  N  N16  1  0.02715200  0.21210100  0.29942600  1
  N  N17  1  0.28303200  0.89797700  0.03302800  1
  N  N18  1  0.24245900  0.54063000  0.68692500  1
  N  N19  1  0.29198900  0.31094400  0.51697700  1
  N  N20  1  0.31823400  0.21580000  0.21176900  1
  N  N21  1  0.78134300  0.74644400  0.31767400  1
  N  N22  1  0.08062200  0.74110200  0.04176300  1
  N  N23  1  0.88606000  0.55882300  0.00578600  1
  N  N24  1  0.27795300  0.23649900  0.80573000  1
  N  N25  1  0.53912100  0.55842800  0.60566900  1
  N  N26  1  0.05092100  0.35616100  0.03864800  1
  N  N27  1  0.56255800  0.05491100  0.98968300  1
  N  N28  1  0.18601400  0.83103300  0.71380300  1
  N  N29  1  0.17807000  0.14748300  0.00999800  1
  N  N30  1  0.70016900  0.27501500  0.46243500  1
  N  N31  1  0.43954100  0.09884500  0.44513700  1
  N  N32  1  0.99007800  0.68676100  0.80442800  1
  N  N33  1  0.84109500  0.39034000  0.17777600  1
  N  N34  1  0.15904700  0.44760700  0.22560800  1
  N  N35  1  0.90022000  0.11176100  0.60972000  1
  N  N36  1  0.47655100  0.05533800  0.74863900  1
  N  N37  1  0.39853400  0.36983000  0.02153100  1
  N  N38  1  0.52767800  0.75684300  0.36005800  1
  N  N39  1  0.65001400  0.27571800  0.00852600  1
  N  N40  1  0.01469900  0.83821800  0.23973100  1
  N  N41  1  0.74219000  0.75229000  0.07316200  1
  N  N42  1  0.54118800  0.27436300  0.25430500  1
  N  N43  1  0.88415300  0.19275500  0.97916200  1
  N  N44  1  0.78268700  0.59666300  0.60814800  1
  N  N45  1  0.75557200  0.16231800  0.26318600  1
  N  N46  1  0.70616200  0.96744500  0.50875000  1
  N  N47  1  0.33908500  0.66049300  0.18886000  1
  N  N48  1  0.48086500  0.81464000  0.83754000  1
  N  N49  1  0.07756000  0.00253400  0.49047700  1
loop_
_geom_bond_atom_site_label_1
_geom_bond_atom_site_label_2
_geom_bond_distance
_geom_bond_site_symmetry_2
N0 Ta37 2.079636 1_555
N0 Ta11 2.105424 1_555
N0 Ta47 2.185936 1_655
N0 Ta12 2.273346 1_555
N1 Ta18 2.061557 1_555
N1 Ta8 2.191147 1_555
N1 Ta35 2.249724 1_555
N1 Ta36 2.271782 1_555
N2 Ta41 2.064115 1_555
N2 Ta31 2.118484 1_555
N2 Ta44 2.165166 1_655
N2 Ta19 2.172174 1_655
N2 Ta14 2.205733 1_555
N3 Ta3 2.111864 1_545
N3 Ta42 2.189876 1_555
N3 Ta25 2.204163 1_655
N3 Ta26 2.204950 1_655
N3 Ta9 2.254677 1_545
N4 Ta3 2.143824 1_556
N4 Ta10 2.147126 1_565
N4 Ta17 2.148726 1_555
N4 Ta42 2.168277 1_566
N4 Ta38 2.191775 1_555
N5 Ta12 2.116576 1_555
N5 Ta48 2.141902 1_655
N5 Ta41 2.175116 1_555
N5 Ta30 2.187365 1_555
N5 Ta46 2.189547 1_555
N6 Ta6 2.079574 1_555
N6 Ta47 2.112633 1_555
N6 Ta27 2.143277 1_555
N6 Ta1 2.232128 1_555
N7 Ta2 2.068266 1_555
N7 Ta27 2.091426 1_555
N7 Ta28 2.164088 1_555
N7 Ta15 2.212477 1_555
N8 Ta43 2.085967 1_555
N8 Ta13 2.117450 1_555
N8 Ta39 2.157578 1_555
N8 Ta23 2.187883 1_556
N8 Ta40 2.251081 1_555
N9 Ta24 2.072991 1_565
N9 Ta4 2.085485 1_555
N9 Ta10 2.104920 1_465
N9 Ta38 2.156508 1_455
N10 Ta38 2.047558 1_555
N10 Ta39 2.084139 1_555
N10 Ta32 2.199282 1_555
N10 Ta17 2.277570 1_555
N10 Ta31 2.350954 1_555
N11 Ta22 2.124696 1_545
N11 Ta18 2.183054 1_555
N11 Ta6 2.183677 1_545
N11 Ta48 2.186646 1_555
N11 Ta24 2.192529 1_555
N12 Ta43 2.040132 1_555
N12 Ta31 2.089358 1_555
N12 Ta39 2.148148 1_555
N12 Ta14 2.245528 1_555
N13 Ta10 2.067005 1_555
N13 Ta8 2.149823 1_555
N13 Ta36 2.177653 1_555
N13 Ta41 2.222201 1_555
N14 Ta43 2.001375 1_554
N14 Ta2 2.034648 1_555
N14 Ta0 2.193589 1_555
N14 Ta16 2.264214 1_555
N15 Ta33 1.971308 1_555
N15 Ta16 2.097566 1_555
N15 Ta35 2.146497 1_555
N15 Ta2 2.273182 1_555
N16 Ta26 2.112669 1_555
N16 Ta30 2.126182 1_455
N16 Ta25 2.143265 1_555
N16 Ta46 2.174401 1_455
N16 Ta48 2.431677 1_555
N17 Ta23 2.090146 1_555
N17 Ta7 2.123024 1_565
N17 Ta4 2.165782 1_554
N17 Ta1 2.357918 1_555
N17 Ta49 2.541396 1_564
N18 Ta28 1.994496 1_555
N18 Ta44 2.021741 1_555
N18 Ta13 2.150454 1_555
N18 Ta47 2.242081 1_555
N18 Ta40 2.281414 1_555
N19 Ta48 2.060535 1_555
N19 Ta18 2.095034 1_555
N19 Ta28 2.141056 1_555
N19 Ta15 2.192632 1_555
N20 Ta15 1.919291 1_555
N20 Ta7 2.008341 1_555
N20 Ta21 2.056457 1_555
N20 Ta34 2.265194 1_555
N21 Ta37 2.080739 1_555
N21 Ta33 2.086566 1_555
N21 Ta29 2.136302 1_555
N21 Ta0 2.341612 1_555
N21 Ta9 2.519451 1_555
N22 Ta4 2.006784 1_554
N22 Ta5 2.031961 1_555
N22 Ta1 2.135230 1_555
N22 Ta3 2.204881 1_455
N23 Ta0 2.047359 1_555
N23 Ta14 2.052618 1_554
N23 Ta5 2.052765 1_655
N23 Ta31 2.413546 1_554
N24 Ta49 2.042258 1_555
N24 Ta18 2.043878 1_555
N24 Ta19 2.113064 1_555
N24 Ta40 2.140691 1_555
N25 Ta35 2.080320 1_555
N25 Ta28 2.094606 1_555
N25 Ta39 2.099506 1_555
N25 Ta45 2.231498 1_555
N26 Ta21 2.076188 1_555
N26 Ta25 2.117549 1_555
N26 Ta19 2.135810 1_554
N26 Ta5 2.232242 1_555
N27 Ta17 2.079213 1_545
N27 Ta34 2.155126 1_556
N27 Ta42 2.209751 1_556
N27 Ta36 2.265088 1_555
N27 Ta49 2.615972 1_555
N28 Ta4 2.138138 1_555
N28 Ta22 2.144333 1_555
N28 Ta47 2.153659 1_555
N28 Ta13 2.241098 1_555
N28 Ta24 2.246737 1_565
N29 Ta25 2.082748 1_555
N29 Ta7 2.146748 1_555
N29 Ta49 2.195742 1_554
N29 Ta19 2.205743 1_554
N29 Ta21 2.302264 1_555
N30 Ta8 2.008814 1_555
N30 Ta35 2.051001 1_555
N30 Ta16 2.106316 1_555
N30 Ta46 2.112262 1_555
N31 Ta20 1.950845 1_545
N31 Ta15 1.982236 1_555
N31 Ta6 2.564050 1_545
N31 Ta18 2.708478 1_555
N32 Ta38 1.946195 1_555
N32 Ta44 1.973967 1_655
N32 Ta31 2.198411 1_555
N32 Ta4 2.609570 1_655
N33 Ta16 2.067998 1_555
N33 Ta0 2.138153 1_555
N33 Ta30 2.141625 1_555
N33 Ta14 2.161203 1_554
N34 Ta27 2.017184 1_555
N34 Ta21 2.049021 1_555
N34 Ta30 2.106789 1_455
N34 Ta5 2.198022 1_555
N35 Ta11 2.115160 1_545
N35 Ta8 2.171972 1_555
N35 Ta41 2.181952 1_555
N35 Ta46 2.320162 1_555
N35 Ta10 2.403411 1_555
N35 Ta24 2.409070 1_655
N36 Ta22 2.090348 1_545
N36 Ta36 2.119361 1_555
N36 Ta18 2.157875 1_555
N36 Ta32 2.338778 1_545
N36 Ta49 2.382326 1_555
N37 Ta21 2.050628 1_555
N37 Ta34 2.059633 1_555
N37 Ta43 2.095039 1_554
N37 Ta40 2.148388 1_554
N38 Ta2 2.050017 1_555
N38 Ta20 2.141911 1_555
N38 Ta29 2.145448 1_555
N38 Ta45 2.168930 1_555
N38 Ta33 2.291315 1_555
N39 Ta43 2.132999 1_554
N39 Ta42 2.170401 1_555
N39 Ta34 2.257877 1_555
N39 Ta36 2.264464 1_554
N39 Ta14 2.308992 1_554
N40 Ta37 1.934324 1_455
N40 Ta26 2.030847 1_565
N40 Ta1 2.071450 1_555
N40 Ta3 2.134297 1_455
N41 Ta29 2.035308 1_555
N41 Ta3 2.055713 1_555
N41 Ta0 2.109310 1_555
N41 Ta17 2.169011 1_554
N42 Ta15 1.968663 1_555
N42 Ta16 1.992189 1_555
N42 Ta34 2.006948 1_555
N43 Ta10 2.018208 1_555
N43 Ta25 2.035401 1_656
N43 Ta14 2.076790 1_555
N43 Ta42 2.148738 1_556
N44 Ta33 1.989511 1_555
N44 Ta31 2.089255 1_555
N44 Ta12 2.118200 1_555
N44 Ta35 2.222819 1_555
N45 Ta9 1.975964 1_545
N45 Ta16 2.124617 1_555
N45 Ta46 2.215395 1_555
N45 Ta42 2.249927 1_555
N46 Ta20 2.039674 1_555
N46 Ta8 2.119160 1_565
N46 Ta11 2.158794 1_555
N46 Ta9 2.392932 1_555
N46 Ta32 2.411200 1_555
N47 Ta23 2.091570 1_555
N47 Ta2 2.120519 1_555
N47 Ta1 2.131171 1_555
N47 Ta27 2.138747 1_555
N48 Ta17 2.171214 1_555
N48 Ta39 2.217844 1_555
N48 Ta13 2.278879 1_555
N48 Ta22 2.371428 1_555
N48 Ta32 2.412362 1_555
N48 Ta23 2.473230 1_556
N49 Ta26 2.041683 1_555
N49 Ta24 2.101545 1_555
N49 Ta6 2.195001 1_545
N49 Ta11 2.261689 1_445
N49 Ta48 2.297578 1_555
