# generated using pymatgen
data_Yb2Fe3O7
_symmetry_space_group_name_H-M   'P 1'
_cell_length_a   3.50068200
_cell_length_b   3.50068153
_cell_length_c   28.46108600
_cell_angle_alpha   90.00000000
_cell_angle_beta   90.00000000
_cell_angle_gamma   120.00000444
_symmetry_Int_Tables_number   1
_chemical_formula_structural   Yb2Fe3O7
_chemical_formula_sum   'Yb4 Fe6 O14'
_cell_volume   302.05591489
_cell_formula_units_Z   2
loop_
 _symmetry_equiv_pos_site_id
 _symmetry_equiv_pos_as_xyz
  1  'x, y, z'
loop_
 _atom_site_type_symbol
 _atom_site_label
 _atom_site_symmetry_multiplicity
 _atom_site_fract_x
 _atom_site_fract_y
 _atom_site_fract_z
 _atom_site_occupancy
  Yb  Yb0  1  0.33333400  0.66666800  0.35075400  1
  Yb  Yb1  1  0.66666600  0.33333200  0.85075400  1
  Yb  Yb2  1  0.66666600  0.33333200  0.64924600  1
  Yb  Yb3  1  0.33333400  0.66666800  0.14924600  1
  Fe  Fe0  1  0.66666600  0.33333200  0.45558700  1
  Fe  Fe1  1  0.33333400  0.66666800  0.95558700  1
  Fe  Fe2  1  0.33333400  0.66666800  0.54441300  1
  Fe  Fe3  1  0.66666600  0.33333200  0.04441300  1
  Fe  Fe4  1  0.00000000  0.00000000  0.75000000  1
  Fe  Fe5  1  0.00000000  0.00000000  0.25000000  1
  O  O0  1  0.66666600  0.33333200  0.75000000  1
  O  O1  1  0.33333400  0.66666800  0.25000000  1
  O  O2  1  0.00000000  0.00000000  0.31312700  1
  O  O3  1  0.00000000  0.00000000  0.81312700  1
  O  O4  1  0.00000000  0.00000000  0.68687300  1
  O  O5  1  0.00000000  0.00000000  0.18687300  1
  O  O6  1  0.66666600  0.33333200  0.39186600  1
  O  O7  1  0.33333400  0.66666800  0.89186600  1
  O  O8  1  0.33333400  0.66666800  0.60813400  1
  O  O9  1  0.66666600  0.33333200  0.10813400  1
  O  O10  1  0.33333400  0.66666800  0.03174600  1
  O  O11  1  0.66666600  0.33333200  0.53174600  1
  O  O12  1  0.33333400  0.66666800  0.46825400  1
  O  O13  1  0.66666600  0.33333200  0.96825400  1
loop_
_geom_bond_atom_site_label_1
_geom_bond_atom_site_label_2
_geom_bond_distance
_geom_bond_site_symmetry_2
Fe0 O6 1.813569 1_555
Fe0 O12 2.053013 1_545
Fe0 O12 2.053025 1_555
Fe0 O12 2.053025 1_655
Fe0 O11 2.167568 1_555
Fe1 O7 1.813569 1_555
Fe1 O13 2.053013 1_565
Fe1 O13 2.053025 1_555
Fe1 O13 2.053025 1_455
Fe1 O10 2.167568 1_556
Fe2 O8 1.813569 1_555
Fe2 O11 2.053013 1_565
Fe2 O11 2.053025 1_555
Fe2 O11 2.053025 1_455
Fe2 O12 2.167568 1_555
Fe3 O9 1.813569 1_555
Fe3 O10 2.053013 1_545
Fe3 O10 2.053025 1_555
Fe3 O10 2.053025 1_655
Fe3 O13 2.167568 1_554
Fe4 O4 1.796663 1_555
Fe4 O3 1.796663 1_555
Fe4 O0 2.021118 1_455
Fe4 O0 2.021118 1_555
Fe4 O0 2.021123 1_445
Fe5 O2 1.796663 1_555
Fe5 O5 1.796663 1_555
Fe5 O1 2.021118 1_445
Fe5 O1 2.021118 1_545
Fe5 O1 2.021123 1_555
O2 Yb0 2.287303 1_545
O2 Yb0 2.287303 1_445
O2 Yb0 2.287308 1_555
O3 Yb1 2.287303 1_455
O3 Yb1 2.287303 1_555
O3 Yb1 2.287308 1_445
O4 Yb2 2.287303 1_455
O4 Yb2 2.287303 1_555
O4 Yb2 2.287308 1_445
O5 Yb3 2.287303 1_445
O5 Yb3 2.287303 1_545
O5 Yb3 2.287308 1_555
O6 Yb0 2.335381 1_545
O6 Yb0 2.335392 1_555
O6 Yb0 2.335392 1_655
O7 Yb1 2.335381 1_565
O7 Yb1 2.335392 1_455
O7 Yb1 2.335392 1_555
O8 Yb2 2.335381 1_565
O8 Yb2 2.335392 1_555
O8 Yb2 2.335392 1_455
O9 Yb3 2.335381 1_545
O9 Yb3 2.335392 1_555
O9 Yb3 2.335392 1_655
