# generated using pymatgen
data_Sr2RhO4
_symmetry_space_group_name_H-M   'P 1'
_cell_length_a   5.54926762
_cell_length_b   5.55118214
_cell_length_c   27.17293412
_cell_angle_alpha   101.64253974
_cell_angle_beta   101.60272679
_cell_angle_gamma   89.97903123
_symmetry_Int_Tables_number   1
_chemical_formula_structural   Sr2RhO4
_chemical_formula_sum   'Sr16 Rh8 O32'
_cell_volume   802.38119654
_cell_formula_units_Z   8
loop_
 _symmetry_equiv_pos_site_id
 _symmetry_equiv_pos_as_xyz
  1  'x, y, z'
loop_
 _atom_site_type_symbol
 _atom_site_label
 _atom_site_symmetry_multiplicity
 _atom_site_fract_x
 _atom_site_fract_y
 _atom_site_fract_z
 _atom_site_occupancy
  Sr  Sr0  1  0.07805500  0.58178700  0.57395200  1
  Sr  Sr1  1  0.17398800  0.18035300  0.67671100  1
  Sr  Sr2  1  0.33123800  0.32840900  0.82430300  1
  Sr  Sr3  1  0.06328100  0.57862600  0.07335200  1
  Sr  Sr4  1  0.43886000  0.93438200  0.92626700  1
  Sr  Sr5  1  0.17261300  0.18110300  0.17567300  1
  Sr  Sr6  1  0.32360900  0.32261000  0.32352400  1
  Sr  Sr7  1  0.42646900  0.92783700  0.42615800  1
  Sr  Sr8  1  0.57454200  0.07243100  0.57403300  1
  Sr  Sr9  1  0.67052100  0.67117100  0.67685000  1
  Sr  Sr10  1  0.83462400  0.83677300  0.82418500  1
  Sr  Sr11  1  0.56893900  0.07994700  0.07381900  1
  Sr  Sr12  1  0.92709900  0.43760500  0.92584300  1
  Sr  Sr13  1  0.66459800  0.67521100  0.17573500  1
  Sr  Sr14  1  0.82890700  0.82905300  0.32348200  1
  Sr  Sr15  1  0.91891000  0.42330100  0.42610300  1
  Rh  Rh0  1  0.00096600  0.00115300  0.49997700  1
  Rh  Rh1  1  0.25258200  0.75328100  0.75063200  1
  Rh  Rh2  1  0.00172900  0.00502200  0.99969100  1
  Rh  Rh3  1  0.24748300  0.75129300  0.24950000  1
  Rh  Rh4  1  0.50042700  0.50030900  0.50009600  1
  Rh  Rh5  1  0.75257400  0.25338700  0.75059900  1
  Rh  Rh6  1  0.49819200  0.50498600  0.99980300  1
  Rh  Rh7  1  0.74839400  0.25165000  0.24959000  1
  O  O0  1  0.05644000  0.45195600  0.75203400  1
  O  O1  1  0.08482900  0.07062300  0.58015600  1
  O  O2  1  0.17876700  0.65917200  0.67057600  1
  O  O3  1  0.05105700  0.44995900  0.25033100  1
  O  O4  1  0.32528200  0.84668100  0.83050700  1
  O  O5  1  0.19562200  0.69546200  0.49707500  1
  O  O6  1  0.42102600  0.43500300  0.91990600  1
  O  O7  1  0.08255300  0.08913000  0.07953600  1
  O  O8  1  0.30451800  0.19862100  0.50048600  1
  O  O9  1  0.17339500  0.66586200  0.16945800  1
  O  O10  1  0.44833700  0.05450500  0.74923500  1
  O  O11  1  0.32092500  0.83850900  0.32973000  1
  O  O12  1  0.30252500  0.19932400  0.99837800  1
  O  O13  1  0.55809800  0.55950400  0.75452400  1
  O  O14  1  0.42914000  0.41569400  0.42003900  1
  O  O15  1  0.19514000  0.70164500  0.00057100  1
  O  O16  1  0.57505400  0.59127200  0.58023900  1
  O  O17  1  0.44469600  0.05333200  0.24878500  1
  O  O18  1  0.66978800  0.18471900  0.67051400  1
  O  O19  1  0.55193400  0.55636300  0.25241500  1
  O  O20  1  0.83488500  0.32321700  0.83044700  1
  O  O21  1  0.69798700  0.80362800  0.49973000  1
  O  O22  1  0.91381400  0.92046400  0.91985700  1
  O  O23  1  0.58005200  0.58466800  0.07985100  1
  O  O24  1  0.80639400  0.30628700  0.50296500  1
  O  O25  1  0.66336600  0.18116700  0.16962800  1
  O  O26  1  0.94651500  0.94731400  0.74684600  1
  O  O27  1  0.83402500  0.32263600  0.32972500  1
  O  O28  1  0.69912800  0.81023700  0.00161300  1
  O  O29  1  0.91284000  0.92785500  0.41988500  1
  O  O30  1  0.80084200  0.30649000  0.99836000  1
  O  O31  1  0.94242400  0.94662200  0.24672300  1
loop_
_geom_bond_atom_site_label_1
_geom_bond_atom_site_label_2
_geom_bond_distance
_geom_bond_site_symmetry_2
O0 Rh5 2.004375 1_455
O0 Rh1 2.006951 1_555
O0 Sr2 2.447524 1_555
O0 Sr1 2.485700 1_555
O0 Sr10 3.033262 1_455
O0 Sr9 3.079366 1_455
O1 Rh0 2.089305 1_555
O1 Sr1 2.516459 1_555
O1 Sr0 2.684482 1_545
O1 Sr8 2.755979 1_555
O1 Sr8 2.803133 1_455
O1 Sr0 2.876117 1_555
O2 Rh1 2.087086 1_555
O2 Sr0 2.518956 1_555
O2 Sr1 2.697071 1_555
O2 Sr9 2.699754 1_555
O2 Sr9 2.859512 1_455
O2 Sr1 2.864610 1_565
O3 Rh7 2.002996 1_455
O3 Rh3 2.003312 1_555
O3 Sr6 2.469737 1_555
O3 Sr5 2.475014 1_555
O3 Sr14 3.032298 1_455
O3 Sr13 3.089309 1_455
O4 Rh1 2.082335 1_555
O4 Sr4 2.496861 1_555
O4 Sr10 2.693378 1_455
O4 Sr2 2.713835 1_565
O4 Sr2 2.848365 1_555
O4 Sr10 2.865813 1_555
O5 Rh4 2.005000 1_555
O5 Rh0 2.007881 1_565
O5 Sr15 2.448302 1_455
O5 Sr0 2.503639 1_555
O5 Sr7 3.002653 1_555
O5 Sr8 3.105125 1_565
O6 Rh6 2.081691 1_555
O6 Sr2 2.491217 1_555
O6 Sr4 2.743060 1_555
O6 Sr12 2.777741 1_455
O6 Sr12 2.780256 1_555
O6 Sr4 2.819489 1_545
O7 Rh2 2.079974 1_554
O7 Sr5 2.504275 1_555
O7 Sr11 2.734440 1_555
O7 Sr3 2.756835 1_555
O7 Sr3 2.805612 1_545
O7 Sr11 2.822955 1_455
O8 Rh4 1.999961 1_555
O8 Rh0 2.006284 1_555
O8 Sr8 2.467723 1_555
O8 Sr7 2.473951 1_545
O8 Sr0 3.063020 1_555
O8 Sr15 3.081487 1_455
O9 Rh3 2.085329 1_555
O9 Sr3 2.505122 1_555
O9 Sr13 2.696549 1_555
O9 Sr5 2.730141 1_555
O9 Sr5 2.831006 1_565
O9 Sr13 2.862463 1_455
O10 Rh1 2.005268 1_545
O10 Rh5 2.007552 1_555
O10 Sr1 2.457136 1_555
O10 Sr2 2.485087 1_555
O10 Sr9 3.033381 1_545
O10 Sr10 3.072338 1_545
O11 Rh3 2.090457 1_555
O11 Sr7 2.512574 1_555
O11 Sr14 2.701181 1_455
O11 Sr6 2.726603 1_565
O11 Sr6 2.834846 1_555
O11 Sr14 2.857751 1_555
O12 Rh2 1.997921 1_555
O12 Rh6 2.004365 1_555
O12 Sr4 2.450984 1_545
O12 Sr11 2.481054 1_556
O12 Sr12 3.061577 1_455
O12 Sr3 3.114656 1_556
O13 Rh1 2.003772 1_555
O13 Rh5 2.008858 1_555
O13 Sr10 2.442181 1_555
O13 Sr9 2.507236 1_555
O13 Sr2 2.961225 1_555
O13 Sr1 3.136599 1_555
O14 Rh4 2.085900 1_555
O14 Sr6 2.514644 1_555
O14 Sr15 2.689397 1_555
O14 Sr7 2.746795 1_545
O14 Sr7 2.814370 1_555
O14 Sr15 2.868893 1_455
O15 Rh2 1.998331 1_564
O15 Rh6 2.005984 1_554
O15 Sr3 2.457747 1_555
O15 Sr12 2.463632 1_454
O15 Sr4 3.118891 1_554
O16 Rh4 2.088660 1_555
O16 Sr9 2.517909 1_555
O16 Sr8 2.710035 1_565
O16 Sr0 2.728620 1_555
O16 Sr0 2.830427 1_655
O16 Sr8 2.850906 1_555
O17 Rh7 2.007364 1_555
O17 Rh3 2.008069 1_545
O17 Sr5 2.467989 1_555
O17 Sr6 2.476560 1_555
O17 Sr13 3.020925 1_545
O17 Sr14 3.081060 1_545
O18 Rh5 2.086899 1_555
O18 Sr8 2.514827 1_555
O18 Sr9 2.670919 1_555
O18 Sr1 2.769385 1_655
O18 Sr1 2.790484 1_555
O18 Sr9 2.890418 1_545
O19 Rh3 2.002740 1_555
O19 Rh7 2.008877 1_555
O19 Sr14 2.451714 1_555
O19 Sr13 2.499350 1_555
O19 Sr6 3.003444 1_555
O19 Sr5 3.098881 1_555
O20 Rh5 2.080514 1_555
O20 Sr12 2.487334 1_555
O20 Sr10 2.671187 1_545
O20 Sr2 2.766623 1_555
O20 Sr2 2.793273 1_655
O20 Sr10 2.889973 1_555
O21 Rh0 2.005742 1_665
O21 Rh4 2.012364 1_555
O21 Sr7 2.467033 1_555
O21 Sr8 2.472238 1_565
O21 Sr15 3.040224 1_555
O21 Sr0 3.053185 1_655
O22 Rh2 2.080331 1_665
O22 Sr10 2.494088 1_555
O22 Sr4 2.676196 1_555
O22 Sr12 2.718022 1_555
O22 Sr12 2.842522 1_565
O22 Sr4 2.883763 1_655
O23 Rh6 2.085091 1_554
O23 Sr13 2.498205 1_555
O23 Sr3 2.722342 1_655
O23 Sr11 2.773346 1_555
O23 Sr11 2.787019 1_565
O23 Sr3 2.837250 1_555
O24 Rh0 2.004987 1_655
O24 Rh4 2.007054 1_555
O24 Sr0 2.444099 1_655
O24 Sr15 2.499263 1_555
O24 Sr8 3.013695 1_555
O24 Sr7 3.110943 1_545
O25 Rh7 2.083605 1_555
O25 Sr11 2.495818 1_555
O25 Sr13 2.713838 1_555
O25 Sr5 2.761053 1_555
O25 Sr5 2.797546 1_655
O25 Sr13 2.846712 1_545
O26 Rh5 2.007082 1_565
O26 Rh1 2.007132 1_655
O26 Sr9 2.442603 1_555
O26 Sr10 2.494823 1_555
O26 Sr1 2.977052 1_665
O26 Sr2 3.140379 1_665
O27 Rh7 2.088110 1_555
O27 Sr15 2.511167 1_555
O27 Sr14 2.710633 1_545
O27 Sr6 2.755668 1_655
O27 Sr6 2.803407 1_555
O27 Sr14 2.850085 1_555
O28 Rh2 2.012726 1_664
O28 Rh6 2.015634 1_554
O28 Sr11 2.448869 1_565
O28 Sr4 2.476276 1_554
O28 Sr3 2.993618 1_655
O28 Sr12 3.073304 1_554
O29 Rh0 2.087048 1_665
O29 Sr14 2.511838 1_555
O29 Sr15 2.721050 1_565
O29 Sr7 2.738382 1_555
O29 Sr7 2.820929 1_655
O29 Sr15 2.839579 1_555
O30 Rh6 2.010986 1_555
O30 Rh2 2.012832 1_655
O30 Sr12 2.457253 1_555
O30 Sr3 2.474049 1_656
O30 Sr4 2.987710 1_545
O31 Rh7 2.002928 1_565
O31 Rh3 2.006855 1_655
O31 Sr13 2.449538 1_555
O31 Sr14 2.500286 1_555
O31 Sr5 3.010124 1_665
O31 Sr6 3.107328 1_665
