# generated using pymatgen
data_Rb8Mn5O10
_symmetry_space_group_name_H-M   'P 1'
_cell_length_a   12.35394048
_cell_length_b   12.36160397
_cell_length_c   28.37777849
_cell_angle_alpha   89.99999633
_cell_angle_beta   89.99995861
_cell_angle_gamma   118.41486933
_symmetry_Int_Tables_number   1
_chemical_formula_structural   Rb8Mn5O10
_chemical_formula_sum   'Rb64 Mn40 O80'
_cell_volume   3811.59692393
_cell_formula_units_Z   8
loop_
 _symmetry_equiv_pos_site_id
 _symmetry_equiv_pos_as_xyz
  1  'x, y, z'
loop_
 _atom_site_type_symbol
 _atom_site_label
 _atom_site_symmetry_multiplicity
 _atom_site_fract_x
 _atom_site_fract_y
 _atom_site_fract_z
 _atom_site_occupancy
  Rb  Rb0  1  0.72325992  0.37710628  0.40707432  1
  Rb  Rb1  1  0.77674081  0.62289477  0.90707425  1
  Rb  Rb2  1  0.27674008  0.62289372  0.59292568  1
  Rb  Rb3  1  0.22325919  0.37710523  0.09292575  1
  Rb  Rb4  1  0.38846261  0.23124187  0.40302236  1
  Rb  Rb5  1  0.11153682  0.76875852  0.90302234  1
  Rb  Rb6  1  0.61153739  0.76875813  0.59697764  1
  Rb  Rb7  1  0.88846318  0.23124148  0.09697766  1
  Rb  Rb8  1  0.10338075  0.77105988  0.28042120  1
  Rb  Rb9  1  0.39662120  0.22894060  0.78042100  1
  Rb  Rb10  1  0.89661925  0.22894012  0.71957880  1
  Rb  Rb11  1  0.60337880  0.77105940  0.21957900  1
  Rb  Rb12  1  0.76644850  0.58803999  0.28535574  1
  Rb  Rb13  1  0.73355150  0.41196009  0.78535509  1
  Rb  Rb14  1  0.23355150  0.41196001  0.71464426  1
  Rb  Rb15  1  0.26644850  0.58803991  0.21464491  1
  Rb  Rb16  1  0.82513141  0.15549998  0.34906243  1
  Rb  Rb17  1  0.67486929  0.84449955  0.84906271  1
  Rb  Rb18  1  0.17486859  0.84450002  0.65093757  1
  Rb  Rb19  1  0.32513071  0.15550045  0.15093729  1
  Rb  Rb20  1  0.17283920  0.34005559  0.33790170  1
  Rb  Rb21  1  0.32716110  0.65994603  0.83790148  1
  Rb  Rb22  1  0.82716080  0.65994441  0.66209830  1
  Rb  Rb23  1  0.67283890  0.34005397  0.16209852  1
  Rb  Rb24  1  0.26706406  0.11327045  0.28228698  1
  Rb  Rb25  1  0.23293582  0.88672852  0.78228722  1
  Rb  Rb26  1  0.73293594  0.88672955  0.71771302  1
  Rb  Rb27  1  0.76706418  0.11327148  0.21771278  1
  Rb  Rb28  1  0.16480721  0.80968209  0.15353391  1
  Rb  Rb29  1  0.33519476  0.19031731  0.65353362  1
  Rb  Rb30  1  0.83519279  0.19031791  0.84646609  1
  Rb  Rb31  1  0.66480524  0.80968269  0.34646638  1
  Rb  Rb32  1  0.22098282  0.89657816  0.40419631  1
  Rb  Rb33  1  0.27901621  0.10342345  0.90419598  1
  Rb  Rb34  1  0.77901718  0.10342184  0.59580369  1
  Rb  Rb35  1  0.72098379  0.89657655  0.09580402  1
  Rb  Rb36  1  0.87919109  0.71835680  0.40930538  1
  Rb  Rb37  1  0.62080879  0.28164446  0.90930545  1
  Rb  Rb38  1  0.12080891  0.28164320  0.59069462  1
  Rb  Rb39  1  0.37919121  0.71835554  0.09069455  1
  Rb  Rb40  1  0.59884046  0.24792592  0.29253070  1
  Rb  Rb41  1  0.90116102  0.75207496  0.79253085  1
  Rb  Rb42  1  0.40115954  0.75207408  0.70746930  1
  Rb  Rb43  1  0.09883898  0.24792504  0.20746915  1
  Rb  Rb44  1  0.32517430  0.68031341  0.34465450  1
  Rb  Rb45  1  0.17482572  0.31968536  0.84465404  1
  Rb  Rb46  1  0.67482570  0.31968659  0.65534550  1
  Rb  Rb47  1  0.82517428  0.68031464  0.15534596  1
  Rb  Rb48  1  0.86592319  0.21971681  0.47678764  1
  Rb  Rb49  1  0.63407659  0.78028298  0.97678782  1
  Rb  Rb50  1  0.13407681  0.78028319  0.52321236  1
  Rb  Rb51  1  0.36592341  0.21971702  0.02321218  1
  Rb  Rb52  1  0.29345922  0.11939057  0.52629535  1
  Rb  Rb53  1  0.20654014  0.88060910  0.02629537  1
  Rb  Rb54  1  0.70654078  0.88060943  0.47370465  1
  Rb  Rb55  1  0.79345986  0.11939090  0.97370463  1
  Rb  Rb56  1  0.62795272  0.30319039  0.53234447  1
  Rb  Rb57  1  0.87204745  0.69681131  0.03234441  1
  Rb  Rb58  1  0.37204728  0.69680961  0.46765553  1
  Rb  Rb59  1  0.12795255  0.30318869  0.96765559  1
  Rb  Rb60  1  0.19754491  0.35615878  0.46474942  1
  Rb  Rb61  1  0.30245456  0.64383958  0.96474934  1
  Rb  Rb62  1  0.80245509  0.64384122  0.53525058  1
  Rb  Rb63  1  0.69754544  0.35616042  0.03525066  1
  Mn  Mn0  1  0.00336180  0.49011052  0.34952630  1
  Mn  Mn1  1  0.49663860  0.50988766  0.84952639  1
  Mn  Mn2  1  0.99663820  0.50988948  0.65047370  1
  Mn  Mn3  1  0.50336140  0.49011234  0.15047361  1
  Mn  Mn4  1  0.99193814  0.00191168  0.34869853  1
  Mn  Mn5  1  0.50806438  0.99809060  0.84869884  1
  Mn  Mn6  1  0.00806186  0.99808832  0.65130147  1
  Mn  Mn7  1  0.49193562  0.00190940  0.15130116  1
  Mn  Mn8  1  0.48506631  0.50546832  0.34842736  1
  Mn  Mn9  1  0.01493301  0.49453116  0.84842734  1
  Mn  Mn10  1  0.51493369  0.49453168  0.65157264  1
  Mn  Mn11  1  0.98506699  0.50546884  0.15157266  1
  Mn  Mn12  1  0.50897845  0.98547713  0.34997057  1
  Mn  Mn13  1  0.99102032  0.01452157  0.84997160  1
  Mn  Mn14  1  0.49102155  0.01452287  0.65002943  1
  Mn  Mn15  1  0.00897968  0.98547843  0.15002840  1
  Mn  Mn16  1  0.45483439  0.95273284  0.25059781  1
  Mn  Mn17  1  0.04516361  0.04726749  0.75059689  1
  Mn  Mn18  1  0.54516561  0.04726716  0.74940219  1
  Mn  Mn19  1  0.95483639  0.95273251  0.24940311  1
  Mn  Mn20  1  0.95288466  0.45084861  0.25052396  1
  Mn  Mn21  1  0.54711415  0.54915134  0.75052329  1
  Mn  Mn22  1  0.04711534  0.54915139  0.74947604  1
  Mn  Mn23  1  0.45288585  0.45084866  0.24947671  1
  Mn  Mn24  1  0.01596303  0.02595647  0.45015302  1
  Mn  Mn25  1  0.48403582  0.97404477  0.95015225  1
  Mn  Mn26  1  0.98403697  0.97404353  0.54984698  1
  Mn  Mn27  1  0.51596418  0.02595523  0.04984775  1
  Mn  Mn28  1  0.52167342  0.52610061  0.45007752  1
  Mn  Mn29  1  0.97832704  0.47390102  0.95007813  1
  Mn  Mn30  1  0.47832658  0.47389939  0.54992248  1
  Mn  Mn31  1  0.02167296  0.52609898  0.04992187  1
  Mn  Mn32  1  0.02681183  0.51965904  0.45004492  1
  Mn  Mn33  1  0.47318795  0.48034108  0.95004402  1
  Mn  Mn34  1  0.97318817  0.48034096  0.54995508  1
  Mn  Mn35  1  0.52681205  0.51965892  0.04995598  1
  Mn  Mn36  1  0.52740894  0.02040224  0.45059911  1
  Mn  Mn37  1  0.97258719  0.97959549  0.95059818  1
  Mn  Mn38  1  0.47259106  0.97959776  0.54940089  1
  Mn  Mn39  1  0.02741281  0.02040451  0.04940182  1
  O  O0  1  0.36741678  0.96215862  0.31153593  1
  O  O1  1  0.13258513  0.03784152  0.81153570  1
  O  O2  1  0.63258322  0.03784138  0.68846407  1
  O  O3  1  0.86741487  0.96215848  0.18846430  1
  O  O4  1  0.92211049  0.85076725  0.31064301  1
  O  O5  1  0.57788872  0.14923211  0.81064265  1
  O  O6  1  0.07788951  0.14923275  0.68935699  1
  O  O7  1  0.42211128  0.85076789  0.18935735  1
  O  O8  1  0.10783560  0.53883049  0.29402784  1
  O  O9  1  0.39216415  0.46117007  0.79402807  1
  O  O10  1  0.89216440  0.46116951  0.70597216  1
  O  O11  1  0.60783585  0.53882993  0.20597193  1
  O  O12  1  0.39006863  0.52192252  0.39910159  1
  O  O13  1  0.10993315  0.47807783  0.89910179  1
  O  O14  1  0.60993137  0.47807748  0.60089841  1
  O  O15  1  0.89006685  0.52192217  0.10089821  1
  O  O16  1  0.13161940  0.52886852  0.50845015  1
  O  O17  1  0.36838025  0.47113110  0.00845007  1
  O  O18  1  0.86838060  0.47113148  0.49154985  1
  O  O19  1  0.63161975  0.52886890  0.99154993  1
  O  O20  1  0.97976704  0.37629748  0.39951805  1
  O  O21  1  0.52023243  0.62370210  0.89951787  1
  O  O22  1  0.02023296  0.62370252  0.60048195  1
  O  O23  1  0.47976757  0.37629790  0.10048213  1
  O  O24  1  0.59706676  0.96771742  0.29621208  1
  O  O25  1  0.90293343  0.03228335  0.79621184  1
  O  O26  1  0.40293324  0.03228258  0.70378792  1
  O  O27  1  0.09706657  0.96771665  0.20378816  1
  O  O28  1  0.02737929  0.10924613  0.29420052  1
  O  O29  1  0.47261992  0.89075212  0.79419985  1
  O  O30  1  0.97262071  0.89075387  0.70579948  1
  O  O31  1  0.52738008  0.10924788  0.20580015  1
  O  O32  1  0.87507341  0.95776740  0.39902983  1
  O  O33  1  0.62492656  0.04223188  0.89903083  1
  O  O34  1  0.12492659  0.04223260  0.60097017  1
  O  O35  1  0.37507344  0.95776812  0.10096917  1
  O  O36  1  0.36418630  0.94084625  0.48951091  1
  O  O37  1  0.13581559  0.05915425  0.98951127  1
  O  O38  1  0.63581370  0.05915375  0.51048909  1
  O  O39  1  0.86418441  0.94084575  0.01048873  1
  O  O40  1  0.56421428  0.63681669  0.50908381  1
  O  O41  1  0.93578567  0.36318255  0.00908388  1
  O  O42  1  0.43578572  0.36318331  0.49091619  1
  O  O43  1  0.06421433  0.63681745  0.99091612  1
  O  O44  1  0.46080510  0.36360835  0.31017284  1
  O  O45  1  0.03919573  0.63639242  0.81017275  1
  O  O46  1  0.53919490  0.63639165  0.68982716  1
  O  O47  1  0.96080427  0.36360758  0.18982725  1
  O  O48  1  0.85196398  0.39987097  0.31259630  1
  O  O49  1  0.64803661  0.60012902  0.81259700  1
  O  O50  1  0.14803602  0.60012903  0.68740370  1
  O  O51  1  0.35196339  0.39987098  0.18740300  1
  O  O52  1  0.52970431  0.89303682  0.40050358  1
  O  O53  1  0.97029576  0.10696365  0.90050358  1
  O  O54  1  0.47029569  0.10696318  0.59949642  1
  O  O55  1  0.02970424  0.89303635  0.09949642  1
  O  O56  1  0.62305919  0.53635848  0.38889247  1
  O  O57  1  0.87694117  0.46364276  0.88889289  1
  O  O58  1  0.37694081  0.46364152  0.61110753  1
  O  O59  1  0.12305883  0.53635724  0.11110711  1
  O  O60  1  0.13242842  0.08901735  0.38987710  1
  O  O61  1  0.36757045  0.91098319  0.88987783  1
  O  O62  1  0.86757158  0.91098265  0.61012290  1
  O  O63  1  0.63242955  0.08901681  0.11012217  1
  O  O64  1  0.07458179  0.63399126  0.38998463  1
  O  O65  1  0.42541987  0.36601039  0.88998437  1
  O  O66  1  0.92541821  0.36600874  0.61001537  1
  O  O67  1  0.57458013  0.63398961  0.11001563  1
  O  O68  1  0.01274150  0.12540584  0.50854319  1
  O  O69  1  0.48725901  0.87459525  0.00854322  1
  O  O70  1  0.98725850  0.87459416  0.49145681  1
  O  O71  1  0.51274099  0.12540475  0.99145678  1
  O  O72  1  0.45264974  0.58400240  0.29495959  1
  O  O73  1  0.04735133  0.41599900  0.79495956  1
  O  O74  1  0.54735026  0.41599760  0.70504041  1
  O  O75  1  0.95264867  0.58400100  0.20504044  1
  O  O76  1  0.54213714  0.12456889  0.39030914  1
  O  O77  1  0.95786335  0.87543211  0.89030933  1
  O  O78  1  0.45786286  0.87543111  0.60969086  1
  O  O79  1  0.04213665  0.12456789  0.10969067  1
loop_
_geom_bond_atom_site_label_1
_geom_bond_atom_site_label_2
_geom_bond_distance
_geom_bond_site_symmetry_2
Mn0 O20 1.920066 1_455
Mn0 O64 1.940721 1_555
Mn0 O8 1.941426 1_555
Mn0 O48 1.963480 1_455
Mn1 O21 1.920075 1_555
Mn1 O65 1.940683 1_555
Mn1 O9 1.941428 1_555
Mn1 O49 1.963473 1_555
Mn2 O22 1.920066 1_655
Mn2 O66 1.940721 1_555
Mn2 O10 1.941426 1_555
Mn2 O50 1.963480 1_655
Mn3 O23 1.920075 1_555
Mn3 O67 1.940683 1_555
Mn3 O11 1.941428 1_555
Mn3 O51 1.963473 1_555
Mn4 O32 1.916347 1_545
Mn4 O60 1.938737 1_655
Mn4 O28 1.947062 1_655
Mn4 O4 1.966562 1_545
Mn5 O33 1.916347 1_565
Mn5 O61 1.938774 1_555
Mn5 O29 1.947110 1_555
Mn5 O5 1.966545 1_565
Mn6 O34 1.916347 1_565
Mn6 O62 1.938737 1_455
Mn6 O30 1.947062 1_455
Mn6 O6 1.966562 1_565
Mn7 O35 1.916347 1_545
Mn7 O63 1.938774 1_555
Mn7 O31 1.947110 1_555
Mn7 O7 1.966545 1_545
Mn8 O12 1.927118 1_555
Mn8 O56 1.936775 1_555
Mn8 O72 1.942946 1_555
Mn8 O44 1.960427 1_555
Mn9 O13 1.927140 1_555
Mn9 O57 1.936775 1_455
Mn9 O73 1.942941 1_555
Mn9 O45 1.960435 1_555
Mn10 O14 1.927118 1_555
Mn10 O58 1.936775 1_555
Mn10 O74 1.942946 1_555
Mn10 O46 1.960427 1_555
Mn11 O15 1.927140 1_555
Mn11 O59 1.936775 1_655
Mn11 O75 1.942941 1_555
Mn11 O47 1.960435 1_555
Mn12 O52 1.925150 1_555
Mn12 O76 1.940154 1_565
Mn12 O24 1.946052 1_555
Mn12 O0 1.962495 1_555
Mn13 O53 1.925135 1_555
Mn13 O77 1.940121 1_545
Mn13 O25 1.946081 1_555
Mn13 O1 1.962541 1_655
Mn14 O54 1.925150 1_555
Mn14 O78 1.940154 1_545
Mn14 O26 1.946052 1_555
Mn14 O2 1.962495 1_555
Mn15 O55 1.925135 1_555
Mn15 O79 1.940121 1_565
Mn15 O27 1.946081 1_555
Mn15 O3 1.962541 1_455
Mn16 O7 2.070606 1_555
Mn16 O0 2.071247 1_555
Mn16 O24 2.118399 1_555
Mn16 O31 2.124247 1_565
Mn17 O6 2.070590 1_555
Mn17 O1 2.071292 1_555
Mn17 O25 2.118390 1_455
Mn17 O30 2.124231 1_445
Mn18 O5 2.070606 1_555
Mn18 O2 2.071247 1_555
Mn18 O26 2.118399 1_555
Mn18 O29 2.124247 1_545
Mn19 O4 2.070590 1_555
Mn19 O3 2.071292 1_555
Mn19 O27 2.118390 1_655
Mn19 O28 2.124231 1_665
Mn20 O47 2.059080 1_555
Mn20 O48 2.075236 1_555
Mn20 O75 2.092792 1_555
Mn20 O8 2.095221 1_655
Mn21 O46 2.059060 1_555
Mn21 O49 2.075281 1_555
Mn21 O74 2.092794 1_555
Mn21 O9 2.095225 1_555
Mn22 O45 2.059080 1_555
Mn22 O50 2.075236 1_555
Mn22 O73 2.092792 1_555
Mn22 O10 2.095221 1_455
Mn23 O44 2.059060 1_555
Mn23 O51 2.075281 1_555
Mn23 O72 2.092794 1_555
Mn23 O11 2.095225 1_555
Mn24 O68 2.074862 1_555
Mn24 O70 2.090232 1_445
Mn24 O32 2.109131 1_445
Mn24 O60 2.129836 1_555
Mn25 O69 2.074887 1_556
Mn25 O71 2.090218 1_565
Mn25 O33 2.109103 1_565
Mn25 O61 2.129804 1_555
Mn26 O70 2.074862 1_555
Mn26 O68 2.090232 1_665
Mn26 O34 2.109131 1_665
Mn26 O62 2.129836 1_555
Mn27 O71 2.074887 1_554
Mn27 O69 2.090218 1_545
Mn27 O35 2.109103 1_545
Mn27 O63 2.129804 1_555
Mn28 O40 2.066070 1_555
Mn28 O56 2.109132 1_555
Mn28 O42 2.119222 1_555
Mn28 O12 2.158404 1_555
Mn29 O41 2.066072 1_556
Mn29 O57 2.109137 1_555
Mn29 O43 2.119204 1_655
Mn29 O13 2.158428 1_655
Mn30 O42 2.066070 1_555
Mn30 O58 2.109132 1_555
Mn30 O40 2.119222 1_555
Mn30 O14 2.158404 1_555
Mn31 O43 2.066072 1_554
Mn31 O59 2.109137 1_555
Mn31 O41 2.119204 1_455
Mn31 O15 2.158428 1_455
Mn32 O16 2.072718 1_555
Mn32 O64 2.111133 1_555
Mn32 O18 2.111995 1_455
Mn32 O20 2.134027 1_455
Mn33 O17 2.072735 1_556
Mn33 O65 2.111110 1_555
Mn33 O19 2.112018 1_555
Mn33 O21 2.134008 1_555
Mn34 O18 2.072718 1_555
Mn34 O66 2.111133 1_555
Mn34 O16 2.111995 1_655
Mn34 O22 2.134027 1_655
Mn35 O19 2.072735 1_554
Mn35 O67 2.111110 1_555
Mn35 O17 2.112018 1_555
Mn35 O23 2.134008 1_555
Mn36 O38 2.073862 1_555
Mn36 O36 2.089315 1_545
Mn36 O76 2.096515 1_555
Mn36 O52 2.131456 1_545
Mn37 O39 2.073862 1_556
Mn37 O37 2.089389 1_665
Mn37 O77 2.096478 1_555
Mn37 O53 2.131446 1_565
Mn38 O36 2.073862 1_555
Mn38 O38 2.089315 1_565
Mn38 O78 2.096515 1_555
Mn38 O54 2.131456 1_565
Mn39 O37 2.073862 1_554
Mn39 O39 2.089389 1_445
Mn39 O79 2.096478 1_555
Mn39 O55 2.131446 1_545
O0 Rb24 2.814121 1_565
O0 Rb32 3.073814 1_555
O0 Rb8 3.109109 1_555
O0 Rb44 3.400574 1_555
O1 Rb25 2.814111 1_545
O1 Rb33 3.073797 1_555
O1 Rb9 3.109109 1_555
O1 Rb45 3.400564 1_555
O2 Rb26 2.814121 1_545
O2 Rb34 3.073814 1_555
O2 Rb10 3.109109 1_555
O2 Rb46 3.400574 1_555
O3 Rb27 2.814111 1_565
O3 Rb35 3.073797 1_555
O3 Rb11 3.109109 1_555
O3 Rb47 3.400564 1_555
O4 Rb12 2.969325 1_555
O4 Rb8 2.970055 1_655
O4 Rb31 3.139953 1_555
O4 Rb36 3.158052 1_555
O5 Rb13 2.969335 1_555
O5 Rb9 2.970033 1_555
O5 Rb30 3.139937 1_555
O5 Rb37 3.158073 1_555
O6 Rb14 2.969325 1_555
O6 Rb10 2.970055 1_455
O6 Rb29 3.139953 1_555
O6 Rb38 3.158052 1_555
O7 Rb15 2.969335 1_555
O7 Rb11 2.970033 1_555
O7 Rb28 3.139937 1_555
O7 Rb39 3.158073 1_555
O8 Rb44 2.804088 1_555
O8 Rb15 2.854812 1_555
O8 Rb8 2.922937 1_555
O8 Rb20 3.179729 1_555
O9 Rb45 2.804077 1_555
O9 Rb14 2.854831 1_555
O9 Rb9 2.922953 1_555
O9 Rb21 3.179732 1_555
O10 Rb46 2.804088 1_555
O10 Rb13 2.854812 1_555
O10 Rb10 2.922937 1_555
O10 Rb22 3.179729 1_555
O11 Rb47 2.804077 1_555
O11 Rb12 2.854831 1_555
O11 Rb11 2.922953 1_555
O11 Rb23 3.179732 1_555
O12 Rb44 2.890942 1_555
O12 Rb60 2.947543 1_555
O12 Rb58 2.994327 1_555
O12 Rb20 3.087147 1_555
O13 Rb45 2.890954 1_555
O13 Rb61 2.947519 1_555
O13 Rb59 2.994333 1_555
O13 Rb21 3.087147 1_555
O14 Rb46 2.890942 1_555
O14 Rb62 2.947543 1_555
O14 Rb56 2.994327 1_555
O14 Rb22 3.087147 1_555
O15 Rb47 2.890954 1_555
O15 Rb63 2.947519 1_555
O15 Rb57 2.994333 1_555
O15 Rb23 3.087147 1_555
O16 Rb2 2.885945 1_555
O16 Rb60 2.900716 1_555
O16 Rb58 2.933232 1_555
O16 Rb50 3.121793 1_555
O17 Rb3 2.885949 1_555
O17 Rb61 2.900705 1_554
O17 Rb59 2.933234 1_554
O17 Rb51 3.121789 1_555
O18 Rb0 2.885945 1_555
O18 Rb62 2.900716 1_555
O18 Rb56 2.933232 1_555
O18 Rb48 3.121793 1_555
O19 Rb1 2.885949 1_555
O19 Rb63 2.900705 1_556
O19 Rb57 2.933234 1_556
O19 Rb49 3.121789 1_555
O20 Rb48 2.818127 1_555
O20 Rb16 2.861281 1_555
O20 Rb20 3.156620 1_655
O20 Rb0 3.180879 1_555
O20 Rb60 3.371111 1_655
O21 Rb49 2.818139 1_555
O21 Rb17 2.861276 1_555
O21 Rb21 3.156627 1_555
O21 Rb1 3.180887 1_555
O21 Rb61 3.371103 1_555
O22 Rb50 2.818127 1_555
O22 Rb18 2.861281 1_555
O22 Rb22 3.156620 1_455
O22 Rb2 3.180879 1_555
O22 Rb62 3.371111 1_455
O23 Rb51 2.818139 1_555
O23 Rb19 2.861276 1_555
O23 Rb23 3.156627 1_555
O23 Rb3 3.180887 1_555
O23 Rb63 3.371103 1_555
O24 Rb31 2.847164 1_555
O24 Rb27 3.002349 1_565
O24 Rb16 3.058047 1_565
O24 Rb11 3.290215 1_555
O25 Rb30 2.847178 1_555
O25 Rb26 3.002341 1_545
O25 Rb17 3.058053 1_545
O25 Rb10 3.290212 1_555
O26 Rb29 2.847164 1_555
O26 Rb25 3.002349 1_545
O26 Rb18 3.058047 1_545
O26 Rb9 3.290215 1_555
O27 Rb28 2.847178 1_555
O27 Rb24 3.002341 1_565
O27 Rb19 3.058053 1_565
O27 Rb8 3.290212 1_555
O28 Rb20 2.833414 1_555
O28 Rb43 2.887138 1_555
O28 Rb24 2.957094 1_555
O28 Rb16 3.217628 1_455
O29 Rb21 2.833387 1_555
O29 Rb42 2.887115 1_555
O29 Rb25 2.957088 1_555
O29 Rb17 3.217650 1_555
O30 Rb22 2.833414 1_555
O30 Rb41 2.887138 1_555
O30 Rb26 2.957094 1_555
O30 Rb18 3.217628 1_655
O31 Rb23 2.833387 1_555
O31 Rb40 2.887115 1_555
O31 Rb27 2.957088 1_555
O31 Rb19 3.217650 1_555
O32 Rb31 2.792522 1_555
O32 Rb54 2.800945 1_555
O32 Rb36 2.998254 1_555
O32 Rb16 3.130670 1_565
O33 Rb30 2.792529 1_555
O33 Rb55 2.800930 1_555
O33 Rb37 2.998277 1_555
O33 Rb17 3.130682 1_545
O34 Rb29 2.792522 1_555
O34 Rb52 2.800945 1_555
O34 Rb38 2.998254 1_555
O34 Rb18 3.130670 1_545
O35 Rb28 2.792529 1_555
O35 Rb53 2.800930 1_555
O35 Rb39 2.998277 1_555
O35 Rb19 3.130682 1_565
O36 Rb50 2.750557 1_555
O36 Rb32 2.892982 1_555
O36 Rb52 2.925695 1_565
O36 Rb58 3.126226 1_555
O37 Rb51 2.750538 1_556
O37 Rb33 2.892977 1_555
O37 Rb53 2.925681 1_546
O37 Rb59 3.126213 1_555
O38 Rb48 2.750557 1_555
O38 Rb34 2.892982 1_555
O38 Rb54 2.925695 1_545
O38 Rb56 3.126226 1_555
O39 Rb49 2.750538 1_554
O39 Rb35 2.892977 1_555
O39 Rb55 2.925681 1_564
O39 Rb57 3.126213 1_555
O40 Rb54 2.852853 1_555
O40 Rb6 2.883694 1_555
O40 Rb62 2.996365 1_555
O40 Rb58 3.040338 1_555
O41 Rb55 2.852844 1_554
O41 Rb7 2.883690 1_555
O41 Rb63 2.996370 1_555
O41 Rb59 3.040343 1_654
O42 Rb52 2.852853 1_555
O42 Rb4 2.883694 1_555
O42 Rb60 2.996365 1_555
O42 Rb56 3.040338 1_555
O43 Rb53 2.852844 1_556
O43 Rb5 2.883690 1_555
O43 Rb61 2.996370 1_555
O43 Rb57 3.040343 1_456
O44 Rb40 2.743064 1_555
O44 Rb24 2.980311 1_555
O44 Rb4 3.004472 1_555
O45 Rb41 2.743057 1_455
O45 Rb25 2.980289 1_555
O45 Rb5 3.004472 1_555
O46 Rb42 2.743064 1_555
O46 Rb26 2.980311 1_555
O46 Rb6 3.004472 1_555
O47 Rb43 2.743057 1_655
O47 Rb27 2.980289 1_555
O47 Rb7 3.004472 1_555
O48 Rb40 2.835649 1_555
O48 Rb16 3.058282 1_555
O48 Rb0 3.060985 1_555
O48 Rb12 3.076195 1_555
O49 Rb41 2.835662 1_555
O49 Rb17 3.058272 1_555
O49 Rb1 3.060967 1_555
O49 Rb13 3.076198 1_555
O50 Rb42 2.835649 1_555
O50 Rb18 3.058282 1_555
O50 Rb2 3.060985 1_555
O50 Rb14 3.076195 1_555
O51 Rb43 2.835662 1_555
O51 Rb19 3.058272 1_555
O51 Rb3 3.060967 1_555
O51 Rb15 3.076198 1_555
O52 Rb31 2.799204 1_555
O52 Rb58 2.968587 1_555
O52 Rb54 3.070946 1_555
O52 Rb44 3.080203 1_555
O53 Rb30 2.799230 1_555
O53 Rb59 2.968576 1_655
O53 Rb55 3.070938 1_555
O53 Rb45 3.080197 1_655
O54 Rb29 2.799204 1_555
O54 Rb56 2.968587 1_555
O54 Rb52 3.070946 1_555
O54 Rb46 3.080203 1_555
O55 Rb28 2.799230 1_555
O55 Rb57 2.968576 1_455
O55 Rb53 3.070938 1_555
O55 Rb47 3.080197 1_455
O56 Rb0 2.827223 1_555
O56 Rb36 2.938444 1_555
O56 Rb12 3.331924 1_555
O56 Rb31 3.387171 1_555
O57 Rb1 2.827214 1_555
O57 Rb37 2.938446 1_555
O57 Rb13 3.331954 1_555
O57 Rb30 3.387177 1_555
O58 Rb2 2.827223 1_555
O58 Rb38 2.938444 1_555
O58 Rb14 3.331924 1_555
O58 Rb29 3.387171 1_555
O59 Rb3 2.827214 1_555
O59 Rb39 2.938446 1_555
O59 Rb15 3.331954 1_555
O59 Rb28 3.387177 1_555
O60 Rb4 2.818242 1_555
O60 Rb32 3.081831 1_545
O60 Rb20 3.252745 1_555
O60 Rb24 3.421058 1_555
O61 Rb5 2.818233 1_555
O61 Rb33 3.081838 1_565
O61 Rb21 3.252752 1_555
O61 Rb25 3.421064 1_555
O62 Rb6 2.818242 1_555
O62 Rb34 3.081831 1_565
O62 Rb22 3.252745 1_555
O62 Rb26 3.421058 1_555
O63 Rb7 2.818233 1_555
O63 Rb35 3.081838 1_545
O63 Rb23 3.252752 1_555
O63 Rb27 3.421064 1_555
O64 Rb32 2.895342 1_555
O64 Rb36 3.100111 1_455
O64 Rb44 3.143174 1_555
O64 Rb8 3.477173 1_555
O65 Rb33 2.895344 1_555
O65 Rb37 3.100096 1_555
O65 Rb45 3.143186 1_555
O65 Rb9 3.477179 1_555
O66 Rb34 2.895342 1_555
O66 Rb38 3.100111 1_655
O66 Rb46 3.143174 1_555
O66 Rb10 3.477173 1_555
O67 Rb35 2.895344 1_555
O67 Rb39 3.100096 1_555
O67 Rb47 3.143186 1_555
O67 Rb11 3.477179 1_555
O68 Rb48 2.733773 1_455
O68 Rb38 2.914342 1_555
O68 Rb60 2.948827 1_555
O69 Rb49 2.733775 1_554
O69 Rb39 2.914352 1_555
O69 Rb61 2.948854 1_554
O70 Rb50 2.733773 1_655
O70 Rb36 2.914342 1_555
O70 Rb62 2.948827 1_555
O71 Rb51 2.733775 1_556
O71 Rb37 2.914352 1_555
O71 Rb63 2.948854 1_556
O72 Rb44 2.769588 1_555
O72 Rb11 3.048330 1_555
O72 Rb31 3.135269 1_555
O72 Rb15 3.255421 1_555
O73 Rb45 2.769596 1_555
O73 Rb10 3.048355 1_455
O73 Rb30 3.135284 1_455
O73 Rb14 3.255428 1_555
O74 Rb46 2.769588 1_555
O74 Rb9 3.048330 1_555
O74 Rb29 3.135269 1_555
O74 Rb13 3.255421 1_555
O75 Rb47 2.769596 1_555
O75 Rb8 3.048355 1_655
O75 Rb28 3.135284 1_655
O75 Rb12 3.255428 1_555
O76 Rb4 2.802815 1_555
O76 Rb0 2.886293 1_555
O76 Rb40 3.081971 1_555
O77 Rb5 2.802809 1_655
O77 Rb1 2.886290 1_555
O77 Rb41 3.081974 1_555
O78 Rb6 2.802815 1_555
O78 Rb2 2.886293 1_555
O78 Rb42 3.081971 1_555
O79 Rb7 2.802809 1_455
O79 Rb3 2.886290 1_555
O79 Rb43 3.081974 1_555
