# generated using pymatgen
data_KAu(Cl2O)2
_symmetry_space_group_name_H-M   'P 1'
_cell_length_a   12.06717500
_cell_length_b   8.49748200
_cell_length_c   10.79151466
_cell_angle_alpha   56.92232108
_cell_angle_beta   90.00000000
_cell_angle_gamma   90.00000000
_symmetry_Int_Tables_number   1
_chemical_formula_structural   KAu(Cl2O)2
_chemical_formula_sum   'K4 Au4 Cl16 O8'
_cell_volume   927.22842127
_cell_formula_units_Z   4
loop_
 _symmetry_equiv_pos_site_id
 _symmetry_equiv_pos_as_xyz
  1  'x, y, z'
loop_
 _atom_site_type_symbol
 _atom_site_label
 _atom_site_symmetry_multiplicity
 _atom_site_fract_x
 _atom_site_fract_y
 _atom_site_fract_z
 _atom_site_occupancy
  K  K0  1  0.93137300  0.71902600  0.03309500  1
  K  K1  1  0.06862700  0.28097400  0.96690500  1
  K  K2  1  0.43137300  0.28097400  0.46690500  1
  K  K3  1  0.56862700  0.71902600  0.53309500  1
  Au  Au0  1  0.50953100  0.75787900  0.97979300  1
  Au  Au1  1  0.49046900  0.24212100  0.02020700  1
  Au  Au2  1  0.00953100  0.24212100  0.52020700  1
  Au  Au3  1  0.99046900  0.75787900  0.47979300  1
  Cl  Cl0  1  0.85560200  0.39165500  0.37608200  1
  Cl  Cl1  1  0.14439800  0.60834500  0.62391800  1
  Cl  Cl2  1  0.35560200  0.60834500  0.12391800  1
  Cl  Cl3  1  0.64439800  0.39165500  0.87608200  1
  Cl  Cl4  1  0.58323900  0.19479900  0.23028300  1
  Cl  Cl5  1  0.41676100  0.80520100  0.76971700  1
  Cl  Cl6  1  0.08323900  0.80520100  0.26971700  1
  Cl  Cl7  1  0.91676100  0.19479900  0.73028300  1
  Cl  Cl8  1  0.83394200  0.91947300  0.34408700  1
  Cl  Cl9  1  0.16605800  0.08052700  0.65591300  1
  Cl  Cl10  1  0.33394200  0.08052700  0.15591300  1
  Cl  Cl11  1  0.66605800  0.91947300  0.84408700  1
  Cl  Cl12  1  0.61652700  0.71702600  0.18209900  1
  Cl  Cl13  1  0.38347300  0.28297400  0.81790100  1
  Cl  Cl14  1  0.11652700  0.28297400  0.31790100  1
  Cl  Cl15  1  0.88347300  0.71702600  0.68209900  1
  O  O0  1  0.94389500  0.60804000  0.83664900  1
  O  O1  1  0.05610500  0.39196000  0.16335100  1
  O  O2  1  0.44389500  0.39196000  0.66335100  1
  O  O3  1  0.55610500  0.60804000  0.33664900  1
  O  O4  1  0.91591700  0.99026900  0.10890400  1
  O  O5  1  0.08408300  0.00973100  0.89109600  1
  O  O6  1  0.41591700  0.00973100  0.39109600  1
  O  O7  1  0.58408300  0.99026900  0.60890400  1
loop_
_geom_bond_atom_site_label_1
_geom_bond_atom_site_label_2
_geom_bond_distance
_geom_bond_site_symmetry_2
K0 O0 2.754783 1_554
K0 O1 2.775110 1_655
K0 O5 2.777458 1_664
K0 O4 2.841617 1_555
K1 O1 2.754783 1_556
K1 O0 2.775110 1_455
K1 O4 2.777458 1_446
K1 O5 2.841617 1_555
K2 O2 2.754783 1_555
K2 O3 2.775110 1_555
K2 O7 2.777458 1_545
K2 O6 2.841617 1_555
K3 O3 2.754783 1_555
K3 O2 2.775110 1_555
K3 O6 2.777458 1_565
K3 O7 2.841617 1_555
Au0 Cl2 2.307956 1_556
Au0 Cl11 2.324410 1_555
Au0 Cl5 2.357817 1_555
Au0 Cl12 2.393029 1_556
Au1 Cl3 2.307956 1_554
Au1 Cl10 2.324410 1_555
Au1 Cl4 2.357817 1_555
Au1 Cl13 2.393029 1_554
Au2 Cl0 2.307956 1_455
Au2 Cl9 2.324410 1_555
Au2 Cl7 2.357817 1_455
Au2 Cl14 2.393029 1_555
Au3 Cl1 2.307956 1_655
Au3 Cl8 2.324410 1_555
Au3 Cl6 2.357817 1_655
Au3 Cl15 2.393029 1_555
Cl0 K0 3.321957 1_555
Cl1 K1 3.321957 1_555
Cl2 K2 3.321957 1_555
Cl3 K3 3.321957 1_555
Cl4 K2 3.529317 1_555
Cl4 K3 3.554380 1_545
Cl5 K3 3.529317 1_555
Cl5 K2 3.554380 1_565
Cl6 K0 3.529317 1_455
Cl6 K1 3.554380 1_564
Cl7 K1 3.529317 1_655
Cl7 K0 3.554380 1_546
Cl8 K3 3.676892 1_555
Cl9 K2 3.676892 1_555
Cl10 K1 3.676892 1_554
Cl11 K0 3.676892 1_556
Cl12 O3 1.576372 1_555
Cl13 O2 1.576372 1_555
Cl14 O1 1.576372 1_555
Cl15 O0 1.576372 1_555
