# generated using pymatgen
data_LaHfMg14
_symmetry_space_group_name_H-M   'P 1'
_cell_length_a   6.57508247
_cell_length_b   6.40819190
_cell_length_c   10.41303744
_cell_angle_alpha   90.00000000
_cell_angle_beta   90.00000000
_cell_angle_gamma   119.16385936
_symmetry_Int_Tables_number   1
_chemical_formula_structural   LaHfMg14
_chemical_formula_sum   'La1 Hf1 Mg14'
_cell_volume   383.12686694
_cell_formula_units_Z   1
loop_
 _symmetry_equiv_pos_site_id
 _symmetry_equiv_pos_as_xyz
  1  'x, y, z'
loop_
 _atom_site_type_symbol
 _atom_site_label
 _atom_site_symmetry_multiplicity
 _atom_site_fract_x
 _atom_site_fract_y
 _atom_site_fract_z
 _atom_site_occupancy
  La  La0  1  0.16279380  0.33139640  0.12500000  1
  Hf  Hf0  1  0.17479190  0.83739545  0.12500000  1
  Mg  Mg0  1  0.16614473  0.33307186  0.62500000  1
  Mg  Mg1  1  0.16493571  0.83246735  0.62500000  1
  Mg  Mg2  1  0.66289979  0.32889388  0.12500000  1
  Mg  Mg3  1  0.66565078  0.33362604  0.62500000  1
  Mg  Mg4  1  0.66289979  0.83400492  0.12500000  1
  Mg  Mg5  1  0.66565078  0.83202374  0.62500000  1
  Mg  Mg6  1  0.33664092  0.16114204  0.38240097  1
  Mg  Mg7  1  0.33664092  0.16114204  0.86759903  1
  Mg  Mg8  1  0.33664092  0.67549988  0.38240097  1
  Mg  Mg9  1  0.33664092  0.67549988  0.86759903  1
  Mg  Mg10  1  0.82669964  0.16335032  0.38348541  1
  Mg  Mg11  1  0.82669964  0.16335032  0.86651459  1
  Mg  Mg12  1  0.83713488  0.66856794  0.37155122  1
  Mg  Mg13  1  0.83713488  0.66856794  0.87844878  1
loop_
_geom_bond_atom_site_label_1
_geom_bond_atom_site_label_2
_geom_bond_distance
_geom_bond_site_symmetry_2
La0 Mg4 3.279059 1_445
La0 Mg2 3.279059 1_455
La0 Mg4 3.296082 1_555
La0 Mg2 3.296083 1_555
La0 Mg7 3.300986 1_554
La0 Mg6 3.300986 1_555
La0 Mg9 3.300993 1_554
La0 Mg8 3.300993 1_555
La0 Mg11 3.311882 1_454
La0 Mg10 3.311882 1_455
Hf0 La0 3.204836 1_555
Hf0 La0 3.204836 1_565
Hf0 Mg13 3.217101 1_454
Hf0 Mg12 3.217101 1_455
Hf0 Mg2 3.219993 1_565
Hf0 Mg4 3.219993 1_555
Hf0 Mg9 3.235573 1_554
Hf0 Mg8 3.235573 1_555
Hf0 Mg7 3.235579 1_564
Hf0 Mg6 3.235579 1_565
Hf0 Mg2 3.355198 1_455
Hf0 Mg4 3.355199 1_455
Mg0 Mg6 3.171116 1_555
Mg0 Mg7 3.171116 1_555
Mg0 Mg8 3.171122 1_555
Mg0 Mg9 3.171122 1_555
Mg0 Mg10 3.181683 1_455
Mg0 Mg11 3.181683 1_455
Mg0 Mg1 3.204103 1_545
Mg0 Mg1 3.204103 1_555
Mg0 Mg5 3.282564 1_555
Mg0 Mg3 3.282564 1_555
Mg0 Mg5 3.292521 1_445
Mg0 Mg3 3.292521 1_455
Mg1 Mg8 3.126470 1_555
Mg1 Mg9 3.126470 1_555
Mg1 Mg6 3.126476 1_565
Mg1 Mg7 3.126476 1_565
Mg1 Mg12 3.241524 1_455
Mg1 Mg13 3.241524 1_455
Mg1 Mg3 3.281455 1_455
Mg1 Mg5 3.281455 1_455
Mg1 Mg3 3.293629 1_565
Mg1 Mg5 3.293629 1_555
Mg2 Mg4 3.171343 1_545
Mg2 Mg4 3.236848 1_555
Mg2 Mg7 3.270173 1_554
Mg2 Mg6 3.270173 1_555
Mg3 Mg6 3.154789 1_555
Mg3 Mg7 3.154789 1_555
Mg3 Mg5 3.193828 1_555
Mg3 Mg5 3.214364 1_545
Mg4 Mg9 3.270173 1_554
Mg4 Mg8 3.270173 1_555
Mg5 Mg8 3.154789 1_555
Mg5 Mg9 3.154789 1_555
Mg6 Mg8 3.112088 1_545
Mg6 Mg8 3.296104 1_555
Mg7 Mg9 3.112088 1_545
Mg7 Mg9 3.296104 1_555
Mg10 Mg3 3.124541 1_555
Mg10 Mg5 3.124547 1_545
Mg10 Mg12 3.207065 1_555
Mg10 Mg12 3.207065 1_545
Mg10 Mg8 3.215324 1_545
Mg10 Mg6 3.215324 1_555
Mg10 Mg2 3.262456 1_555
Mg10 Mg4 3.262462 1_545
Mg10 Mg8 3.359843 1_655
Mg10 Mg6 3.359844 1_655
Mg11 Mg3 3.124541 1_555
Mg11 Mg5 3.124547 1_545
Mg11 Mg13 3.207065 1_555
Mg11 Mg13 3.207065 1_545
Mg11 Mg9 3.215324 1_545
Mg11 Mg7 3.215324 1_555
Mg11 Mg2 3.262456 1_556
Mg11 Mg4 3.262462 1_546
Mg11 Mg9 3.359843 1_655
Mg11 Mg7 3.359844 1_655
Mg12 Mg4 3.195514 1_555
Mg12 Mg2 3.195520 1_555
Mg12 Mg5 3.238016 1_555
Mg12 Mg3 3.238023 1_555
Mg12 Mg6 3.264832 1_665
Mg12 Mg8 3.264833 1_655
Mg12 Mg6 3.314589 1_555
Mg12 Mg8 3.314589 1_555
Mg13 Mg4 3.195514 1_556
Mg13 Mg2 3.195520 1_556
Mg13 Mg5 3.238016 1_555
Mg13 Mg3 3.238023 1_555
Mg13 Mg7 3.264832 1_665
Mg13 Mg9 3.264833 1_655
Mg13 Mg7 3.314589 1_555
Mg13 Mg9 3.314589 1_555
