# generated using pymatgen
data_SmMgPd
_symmetry_space_group_name_H-M   'P 1'
_cell_length_a   7.55663010
_cell_length_b   7.55663010
_cell_length_c   4.07181680
_cell_angle_alpha   90.00000000
_cell_angle_beta   90.00000000
_cell_angle_gamma   119.99999264
_symmetry_Int_Tables_number   1
_chemical_formula_structural   SmMgPd
_chemical_formula_sum   'Sm3 Mg3 Pd3'
_cell_volume   201.36093605
_cell_formula_units_Z   3
loop_
 _symmetry_equiv_pos_site_id
 _symmetry_equiv_pos_as_xyz
  1  'x, y, z'
loop_
 _atom_site_type_symbol
 _atom_site_label
 _atom_site_symmetry_multiplicity
 _atom_site_fract_x
 _atom_site_fract_y
 _atom_site_fract_z
 _atom_site_occupancy
  Sm  Sm0  1  0.41346652  -0.00000000  0.50000000  1
  Sm  Sm1  1  -0.00000000  0.41346652  0.50000000  1
  Sm  Sm2  1  0.58653348  0.58653348  0.50000000  1
  Mg  Mg0  1  0.76005526  0.00000000  0.00000000  1
  Mg  Mg1  1  0.00000000  0.76005526  0.00000000  1
  Mg  Mg2  1  0.23994474  0.23994474  -0.00000000  1
  Pd  Pd0  1  0.33333300  0.66666700  -0.00000000  1
  Pd  Pd1  1  0.66666700  0.33333300  0.00000000  1
  Pd  Pd2  1  0.00000000  -0.00000000  0.50000000  1
loop_
_geom_bond_atom_site_label_1
_geom_bond_atom_site_label_2
_geom_bond_distance
_geom_bond_site_symmetry_2
Mg0 Pd2 2.726265 1_654
Mg0 Pd2 2.726265 1_655
Mg0 Pd1 2.936037 1_555
Mg0 Pd0 2.936042 1_545
Mg0 Mg1 3.140509 1_645
Mg0 Mg2 3.140509 1_655
Mg0 Sm0 3.317274 1_555
Mg0 Sm0 3.317274 1_554
Mg0 Sm2 3.395494 1_544
Mg0 Sm2 3.395494 1_545
Mg0 Sm1 3.395494 1_654
Mg0 Sm1 3.395494 1_655
Mg1 Pd2 2.726265 1_564
Mg1 Pd2 2.726265 1_565
Mg1 Pd0 2.936037 1_555
Mg1 Pd1 2.936042 1_455
Mg1 Mg2 3.140509 1_565
Mg1 Sm1 3.317274 1_555
Mg1 Sm1 3.317274 1_554
Mg1 Sm2 3.395494 1_455
Mg1 Sm2 3.395494 1_454
Mg1 Sm0 3.395494 1_565
Mg1 Sm0 3.395494 1_564
Mg2 Pd2 2.726265 1_555
Mg2 Pd2 2.726265 1_554
Mg2 Pd1 2.936044 1_555
Mg2 Pd0 2.936044 1_555
Mg2 Sm2 3.317275 1_554
Mg2 Sm2 3.317275 1_555
Mg2 Sm0 3.395494 1_554
Mg2 Sm1 3.395494 1_555
Mg2 Sm0 3.395494 1_555
Mg2 Sm1 3.395494 1_554
Pd0 Sm0 3.054677 1_565
Pd0 Sm0 3.054677 1_564
Pd0 Sm1 3.054679 1_554
Pd0 Sm1 3.054679 1_555
Pd0 Sm2 3.054682 1_555
Pd0 Sm2 3.054682 1_554
Pd1 Sm1 3.054677 1_655
Pd1 Sm1 3.054677 1_654
Pd1 Sm0 3.054679 1_555
Pd1 Sm0 3.054679 1_554
Pd1 Sm2 3.054682 1_555
Pd1 Sm2 3.054682 1_554
Pd2 Sm1 3.124414 1_555
Pd2 Sm0 3.124414 1_555
Pd2 Sm2 3.124414 1_445
