# generated using pymatgen
data_Cs(Ti3Se4)2
_symmetry_space_group_name_H-M   'P 1'
_cell_length_a   3.65907741
_cell_length_b   10.06690718
_cell_length_c   10.00221112
_cell_angle_alpha   59.90869336
_cell_angle_beta   90.01909522
_cell_angle_gamma   90.02044038
_symmetry_Int_Tables_number   1
_chemical_formula_structural   Cs(Ti3Se4)2
_chemical_formula_sum   'Cs1 Ti6 Se8'
_cell_volume   318.78212446
_cell_formula_units_Z   1
loop_
 _symmetry_equiv_pos_site_id
 _symmetry_equiv_pos_as_xyz
  1  'x, y, z'
loop_
 _atom_site_type_symbol
 _atom_site_label
 _atom_site_symmetry_multiplicity
 _atom_site_fract_x
 _atom_site_fract_y
 _atom_site_fract_z
 _atom_site_occupancy
  Cs  Cs0  1  0.50000000  0.00000000  -0.00000000  1
  Ti  Ti0  1  0.74788082  0.36142002  0.50901637  1
  Ti  Ti1  1  0.74799237  0.12994599  0.35921056  1
  Ti  Ti2  1  0.74823872  0.50866933  0.12942509  1
  Ti  Ti3  1  0.25211918  0.63857998  0.49098363  1
  Ti  Ti4  1  0.25200763  0.87005401  0.64078944  1
  Ti  Ti5  1  0.25176128  0.49133067  0.87057491  1
  Se  Se0  1  0.75115223  0.66628089  0.66719000  1
  Se  Se1  1  0.24884777  0.33371911  0.33281000  1
  Se  Se2  1  0.75484083  0.04923983  0.64474755  1
  Se  Se3  1  0.75377312  0.30612511  0.04749954  1
  Se  Se4  1  0.75453143  0.64507045  0.30671237  1
  Se  Se5  1  0.24515917  0.95076017  0.35525245  1
  Se  Se6  1  0.24622688  0.69387489  0.95250046  1
  Se  Se7  1  0.24546857  0.35492955  0.69328763  1
loop_
_geom_bond_atom_site_label_1
_geom_bond_atom_site_label_2
_geom_bond_distance
_geom_bond_site_symmetry_2
Cs0 Se2 3.460768 1_554
Cs0 Se5 3.460768 1_545
Cs0 Se6 3.471439 1_544
Cs0 Se3 3.471439 1_555
Cs0 Se7 3.471930 1_554
Cs0 Se4 3.471930 1_545
Se0 Ti5 2.643248 1_555
Se0 Ti5 2.646263 1_655
Se0 Ti3 2.647379 1_555
Se0 Ti3 2.653212 1_655
Se0 Ti4 2.659467 1_555
Se0 Ti4 2.662885 1_655
Se1 Ti2 2.643248 1_555
Se1 Ti2 2.646263 1_455
Se1 Ti0 2.647379 1_555
Se1 Ti0 2.653212 1_455
Se1 Ti1 2.659467 1_555
Se1 Ti1 2.662885 1_455
Se2 Ti1 2.547673 1_555
Se2 Ti4 2.576590 1_645
Se2 Ti4 2.590343 1_545
Se2 Ti0 2.727996 1_555
Se3 Ti2 2.550463 1_555
Se3 Ti5 2.572807 1_654
Se3 Ti5 2.583362 1_554
Se3 Ti1 2.705883 1_555
Se4 Ti0 2.540646 1_555
Se4 Ti3 2.567770 1_655
Se4 Ti3 2.581155 1_555
Se4 Ti2 2.733516 1_555
Se5 Ti4 2.547673 1_555
Se5 Ti1 2.576590 1_465
Se5 Ti1 2.590343 1_565
Se5 Ti3 2.727996 1_555
Se6 Ti5 2.550463 1_555
Se6 Ti2 2.572807 1_456
Se6 Ti2 2.583362 1_556
Se6 Ti4 2.705883 1_555
Se7 Ti3 2.540646 1_555
Se7 Ti0 2.567770 1_455
Se7 Ti0 2.581155 1_555
Se7 Ti5 2.733516 1_555
