# generated using pymatgen
data_SrLaMgTaO6
_symmetry_space_group_name_H-M   'P 1'
_cell_length_a   5.71374700
_cell_length_b   5.68074900
_cell_length_c   9.84135966
_cell_angle_alpha   54.71060481
_cell_angle_beta   90.00000000
_cell_angle_gamma   90.00000000
_symmetry_Int_Tables_number   1
_chemical_formula_structural   SrLaMgTaO6
_chemical_formula_sum   'Sr2 La2 Mg2 Ta2 O12'
_cell_volume   260.73659825
_cell_formula_units_Z   2
loop_
 _symmetry_equiv_pos_site_id
 _symmetry_equiv_pos_as_xyz
  1  'x, y, z'
loop_
 _atom_site_type_symbol
 _atom_site_label
 _atom_site_symmetry_multiplicity
 _atom_site_fract_x
 _atom_site_fract_y
 _atom_site_fract_z
 _atom_site_occupancy
  Sr  Sr0  1  0.27272300  0.25620700  0.74935700  1
  Sr  Sr1  1  0.72727700  0.25620700  0.24935700  1
  La  La0  1  0.21562700  0.74030900  0.24700600  1
  La  La1  1  0.78437300  0.74030900  0.74700600  1
  Mg  Mg0  1  0.25253900  0.99928600  0.49976900  1
  Mg  Mg1  1  0.74746100  0.99928600  0.99976900  1
  Ta  Ta0  1  0.74791500  0.50065100  0.49898100  1
  Ta  Ta1  1  0.25208500  0.50065100  0.99898100  1
  O  O0  1  0.73556800  0.16548600  0.74240900  1
  O  O1  1  0.26443200  0.16548600  0.24240900  1
  O  O2  1  0.77124700  0.81224800  0.25750000  1
  O  O3  1  0.22875300  0.81224800  0.75750000  1
  O  O4  1  0.97340900  0.27493700  0.46146400  1
  O  O5  1  0.02659100  0.27493700  0.96146400  1
  O  O6  1  0.53991600  0.73232600  0.54511800  1
  O  O7  1  0.46008400  0.73232600  0.04511800  1
  O  O8  1  0.47023400  0.33925600  0.45444600  1
  O  O9  1  0.52976600  0.33925600  0.95444600  1
  O  O10  1  0.01402400  0.67929400  0.54395000  1
  O  O11  1  0.98597600  0.67929400  0.04395000  1
loop_
_geom_bond_atom_site_label_1
_geom_bond_atom_site_label_2
_geom_bond_distance
_geom_bond_site_symmetry_2
La0 O1 2.405690 1_565
La0 O7 2.450449 1_555
La0 O8 2.469949 1_555
La0 O11 2.575968 1_455
La0 O2 2.583281 1_455
La0 O4 2.629075 1_455
La1 O0 2.405690 1_565
La1 O6 2.450449 1_555
La1 O9 2.469949 1_555
La1 O10 2.575968 1_655
La1 O3 2.583281 1_655
La1 O5 2.629075 1_655
Mg0 O6 2.100763 1_555
Mg0 O10 2.106532 1_555
Mg0 O4 2.110866 1_465
Mg0 O3 2.113534 1_555
Mg0 O8 2.116761 1_565
Mg0 O1 2.132610 1_565
Mg1 O7 2.100763 1_556
Mg1 O11 2.106532 1_556
Mg1 O5 2.110866 1_665
Mg1 O2 2.113534 1_556
Mg1 O9 2.116761 1_565
Mg1 O0 2.132610 1_565
O0 Ta0 2.024635 1_555
O0 Sr0 2.702738 1_555
O0 Sr0 3.119420 1_655
O1 Ta1 2.024635 1_554
O1 Sr1 2.702738 1_555
O1 Sr1 3.119420 1_455
O2 Ta0 1.984534 1_555
O2 Sr1 2.489298 1_565
O3 Ta1 1.984534 1_555
O3 Sr0 2.489298 1_565
O4 Ta0 1.996856 1_555
O4 Sr1 2.569640 1_555
O5 Ta1 1.996856 1_555
O5 Sr0 2.569640 1_555
O6 Ta0 2.010252 1_555
O6 Sr0 2.721198 1_555
O6 Sr1 2.909707 1_565
O7 Ta1 2.010252 1_554
O7 Sr1 2.721198 1_555
O7 Sr0 2.909707 1_564
O8 Ta0 2.003568 1_555
O8 Sr1 2.748374 1_555
O8 Sr0 2.887487 1_555
O9 Ta1 2.003568 1_555
O9 Sr0 2.748374 1_555
O9 Sr1 2.887487 1_556
O10 Ta0 2.014076 1_455
O10 Sr0 2.536584 1_555
O11 Ta1 2.014076 1_654
O11 Sr1 2.536584 1_555
