# generated using pymatgen
data_Rb3AlO3
_symmetry_space_group_name_H-M   'P 1'
_cell_length_a   6.76508203
_cell_length_b   6.76508180
_cell_length_c   6.79031895
_cell_angle_alpha   97.63081781
_cell_angle_beta   97.63081311
_cell_angle_gamma   115.09798025
_symmetry_Int_Tables_number   1
_chemical_formula_structural   Rb3AlO3
_chemical_formula_sum   'Rb6 Al2 O6'
_cell_volume   272.67251049
_cell_formula_units_Z   2
loop_
 _symmetry_equiv_pos_site_id
 _symmetry_equiv_pos_as_xyz
  1  'x, y, z'
loop_
 _atom_site_type_symbol
 _atom_site_label
 _atom_site_symmetry_multiplicity
 _atom_site_fract_x
 _atom_site_fract_y
 _atom_site_fract_z
 _atom_site_occupancy
  Rb  Rb0  1  0.36974092  0.36974092  0.65307462  1
  Rb  Rb1  1  0.63025908  0.63025908  0.34692538  1
  Rb  Rb2  1  0.19831200  0.80168800  0.50000000  1
  Rb  Rb3  1  0.80168800  0.19831200  0.50000000  1
  Rb  Rb4  1  0.26780261  0.73219739  -0.00000000  1
  Rb  Rb5  1  0.73219739  0.26780261  0.00000000  1
  Al  Al0  1  0.84393320  0.84393320  0.85365677  1
  Al  Al1  1  0.15606680  0.15606680  0.14634323  1
  O  O0  1  0.85312910  0.60020424  0.73799523  1
  O  O1  1  0.39979576  0.14687090  0.26200477  1
  O  O2  1  0.14687090  0.39979576  0.26200477  1
  O  O3  1  0.60020424  0.85312910  0.73799523  1
  O  O4  1  0.90096101  0.90096101  0.13213500  1
  O  O5  1  0.09903899  0.09903899  0.86786500  1
loop_
_geom_bond_atom_site_label_1
_geom_bond_atom_site_label_2
_geom_bond_distance
_geom_bond_site_symmetry_2
Al0 O0 1.759393 1_555
Al0 O3 1.759393 1_555
Al0 O5 1.830578 1_665
Al0 O4 1.832931 1_556
Al1 O2 1.759393 1_555
Al1 O1 1.759393 1_555
Al1 O4 1.830578 1_445
Al1 O5 1.832931 1_554
O0 Rb4 2.821311 1_656
O0 Rb3 2.829470 1_555
O0 Rb0 2.896972 1_555
O0 Rb1 2.950655 1_555
O0 Rb5 2.963041 1_556
O0 Rb2 2.968115 1_655
O1 Rb4 2.821311 1_545
O1 Rb3 2.829470 1_555
O1 Rb1 2.896972 1_555
O1 Rb0 2.950655 1_555
O1 Rb5 2.963041 1_555
O1 Rb2 2.968115 1_545
O2 Rb5 2.821311 1_455
O2 Rb2 2.829470 1_555
O2 Rb1 2.896972 1_555
O2 Rb0 2.950655 1_555
O2 Rb4 2.963041 1_555
O2 Rb3 2.968115 1_455
O3 Rb5 2.821311 1_566
O3 Rb2 2.829470 1_555
O3 Rb0 2.896972 1_555
O3 Rb1 2.950655 1_555
O3 Rb4 2.963041 1_556
O3 Rb3 2.968115 1_565
O4 Rb1 2.721819 1_555
O4 Rb3 3.315767 1_565
O4 Rb2 3.315767 1_655
O5 Rb0 2.721819 1_555
O5 Rb2 3.315767 1_545
O5 Rb3 3.315767 1_455
