# generated using pymatgen
data_SrYCoO4
_symmetry_space_group_name_H-M   'P 1'
_cell_length_a   3.80102961
_cell_length_b   7.58269579
_cell_length_c   6.67373602
_cell_angle_alpha   106.49366153
_cell_angle_beta   106.38135304
_cell_angle_gamma   90.17768465
_symmetry_Int_Tables_number   1
_chemical_formula_structural   SrYCoO4
_chemical_formula_sum   'Sr2 Y2 Co2 O8'
_cell_volume   176.22403673
_cell_formula_units_Z   2
loop_
 _symmetry_equiv_pos_site_id
 _symmetry_equiv_pos_as_xyz
  1  'x, y, z'
loop_
 _atom_site_type_symbol
 _atom_site_label
 _atom_site_symmetry_multiplicity
 _atom_site_fract_x
 _atom_site_fract_y
 _atom_site_fract_z
 _atom_site_occupancy
  Sr  Sr0  1  0.64683400  0.32029300  0.28693800  1
  Sr  Sr1  1  0.64568100  0.82297800  0.29022900  1
  Y  Y0  1  0.36029100  0.67825200  0.72509700  1
  Y  Y1  1  0.35987500  0.18574700  0.72171200  1
  Co  Co0  1  0.99700800  0.99974900  0.99602700  1
  Co  Co1  1  0.00216800  0.50292200  0.01055700  1
  O  O0  1  0.83679800  0.41121600  0.67158500  1
  O  O1  1  0.83851000  0.92385600  0.67830000  1
  O  O2  1  0.18051000  0.59342400  0.36475500  1
  O  O3  1  0.17402800  0.08558900  0.34984100  1
  O  O4  1  0.48884400  0.49475900  0.98039800  1
  O  O5  1  0.48591000  0.99298300  0.97166100  1
  O  O6  1  0.98845600  0.75160800  0.97311200  1
  O  O7  1  0.99508700  0.23662400  0.97978500  1
loop_
_geom_bond_atom_site_label_1
_geom_bond_atom_site_label_2
_geom_bond_distance
_geom_bond_site_symmetry_2
Co0 O7 1.829794 1_565
Co0 O6 1.843423 1_555
Co0 O5 1.902527 1_555
Co0 O5 1.910177 1_655
Co0 O1 1.942868 1_555
Co0 O3 2.163416 1_666
Co1 O4 1.903163 1_454
Co1 O4 1.915728 1_554
Co1 O7 1.970121 1_454
Co1 O6 1.970256 1_454
Co1 O0 2.073219 1_454
Co1 O2 2.165709 1_555
O0 Sr0 2.352195 1_555
O0 Y1 2.637914 1_655
O0 Y1 2.639830 1_555
O0 Y0 2.711181 1_655
O0 Y0 2.735885 1_555
O1 Sr1 2.372916 1_555
O1 Y1 2.698107 1_665
O1 Y1 2.707471 1_565
O1 Y0 2.738512 1_555
O1 Y0 2.739185 1_655
O2 Y0 2.203612 1_555
O2 Sr1 2.711658 1_455
O2 Sr1 2.715143 1_555
O2 Sr0 2.728170 1_455
O2 Sr0 2.762625 1_555
O3 Y1 2.274322 1_555
O3 Sr1 2.689121 1_445
O3 Sr1 2.704103 1_545
O3 Sr0 2.707564 1_455
O3 Sr0 2.720883 1_555
O4 Y1 2.435090 1_555
O4 Y0 2.440975 1_555
O4 Sr0 2.672942 1_556
O4 Sr1 2.682979 1_556
O5 Y0 2.439471 1_555
O5 Y1 2.467097 1_565
O5 Sr0 2.694532 1_566
O5 Sr1 2.717241 1_556
O6 Y0 2.418317 1_655
O6 Y0 2.447413 1_555
O6 Sr1 2.715075 1_656
O6 Sr1 2.716384 1_556
O7 Y1 2.451699 1_655
O7 Y1 2.493217 1_555
O7 Sr0 2.670005 1_656
O7 Sr0 2.674688 1_556
