# generated using pymatgen
data_Ca5S3O12F
_symmetry_space_group_name_H-M   'P 1'
_cell_length_a   9.60155651
_cell_length_b   9.60155651
_cell_length_c   6.99989500
_cell_angle_alpha   90.00000000
_cell_angle_beta   90.00000000
_cell_angle_gamma   120.00000351
_symmetry_Int_Tables_number   1
_chemical_formula_structural   Ca5S3O12F
_chemical_formula_sum   'Ca10 S6 O24 F2'
_cell_volume   558.86308840
_cell_formula_units_Z   2
loop_
 _symmetry_equiv_pos_site_id
 _symmetry_equiv_pos_as_xyz
  1  'x, y, z'
loop_
 _atom_site_type_symbol
 _atom_site_label
 _atom_site_symmetry_multiplicity
 _atom_site_fract_x
 _atom_site_fract_y
 _atom_site_fract_z
 _atom_site_occupancy
  Ca  Ca0  1  0.25811800  0.23889400  0.25000000  1
  Ca  Ca1  1  0.74188200  0.76110600  0.75000000  1
  Ca  Ca2  1  0.76110600  0.01922400  0.25000000  1
  Ca  Ca3  1  0.23889400  0.98077600  0.75000000  1
  Ca  Ca4  1  0.98077600  0.74188200  0.25000000  1
  Ca  Ca5  1  0.01922400  0.25811800  0.75000000  1
  Ca  Ca6  1  0.33333300  0.66666700  0.99368900  1
  Ca  Ca7  1  0.66666700  0.33333300  0.00631100  1
  Ca  Ca8  1  0.66666700  0.33333300  0.49368900  1
  Ca  Ca9  1  0.33333300  0.66666700  0.50631100  1
  S  S0  1  0.38962300  0.99444000  0.25000000  1
  S  S1  1  0.61037700  0.00556000  0.75000000  1
  S  S2  1  0.00556000  0.39518300  0.25000000  1
  S  S3  1  0.99444000  0.60481700  0.75000000  1
  S  S4  1  0.60481700  0.61037700  0.25000000  1
  S  S5  1  0.39518300  0.38962300  0.75000000  1
  O  O0  1  0.59948500  0.13908600  0.25000000  1
  O  O1  1  0.40051500  0.86091400  0.75000000  1
  O  O2  1  0.86091400  0.46039900  0.25000000  1
  O  O3  1  0.13908600  0.53960100  0.75000000  1
  O  O4  1  0.53960100  0.40051500  0.25000000  1
  O  O5  1  0.46039900  0.59948500  0.75000000  1
  O  O6  1  0.19863800  0.45779500  0.25000000  1
  O  O7  1  0.80136200  0.54220500  0.75000000  1
  O  O8  1  0.54220500  0.74084300  0.25000000  1
  O  O9  1  0.45779500  0.25915700  0.75000000  1
  O  O10  1  0.25915700  0.80136200  0.25000000  1
  O  O11  1  0.74084300  0.19863800  0.75000000  1
  O  O12  1  0.33671500  0.05644900  0.07796200  1
  O  O13  1  0.66328500  0.94355100  0.92203800  1
  O  O14  1  0.94355100  0.28026600  0.07796200  1
  O  O15  1  0.66328500  0.94355100  0.57796200  1
  O  O16  1  0.05644900  0.71973400  0.92203800  1
  O  O17  1  0.33671500  0.05644900  0.42203800  1
  O  O18  1  0.71973400  0.66328500  0.07796200  1
  O  O19  1  0.05644900  0.71973400  0.57796200  1
  O  O20  1  0.28026600  0.33671500  0.92203800  1
  O  O21  1  0.94355100  0.28026600  0.42203800  1
  O  O22  1  0.28026600  0.33671500  0.57796200  1
  O  O23  1  0.71973400  0.66328500  0.42203800  1
  F  F0  1  0.00000000  0.00000000  0.25000000  1
  F  F1  1  0.00000000  0.00000000  0.75000000  1
loop_
_geom_bond_atom_site_label_1
_geom_bond_atom_site_label_2
_geom_bond_distance
_geom_bond_site_symmetry_2
Ca0 O4 2.349155 1_555
Ca0 F0 2.391393 1_555
Ca0 O6 2.438035 1_555
Ca0 O20 2.449058 1_554
Ca0 O22 2.449058 1_555
Ca0 O17 2.531864 1_555
Ca0 O12 2.531864 1_555
Ca1 O5 2.349155 1_555
Ca1 F1 2.391393 1_665
Ca1 O7 2.438035 1_555
Ca1 O23 2.449058 1_555
Ca1 O18 2.449058 1_556
Ca1 O13 2.531864 1_555
Ca1 O15 2.531864 1_555
Ca2 O0 2.349155 1_555
Ca2 F0 2.391393 1_655
Ca2 O8 2.438034 1_545
Ca2 O13 2.449058 1_544
Ca2 O15 2.449058 1_545
Ca2 O14 2.531863 1_555
Ca2 O21 2.531863 1_555
Ca3 O1 2.349155 1_555
Ca3 F1 2.391393 1_565
Ca3 O9 2.438034 1_565
Ca3 O17 2.449058 1_565
Ca3 O12 2.449058 1_566
Ca3 O16 2.531863 1_555
Ca3 O19 2.531863 1_555
Ca4 O2 2.349155 1_555
Ca4 F0 2.391393 1_665
Ca4 O10 2.438034 1_655
Ca4 O19 2.449058 1_655
Ca4 O16 2.449058 1_654
Ca4 O18 2.531863 1_555
Ca4 O23 2.531863 1_555
Ca5 O3 2.349155 1_555
Ca5 F1 2.391393 1_555
Ca5 O11 2.438034 1_455
Ca5 O21 2.449058 1_455
Ca5 O14 2.449058 1_456
Ca5 O20 2.531863 1_555
Ca5 O22 2.531863 1_555
Ca6 O1 2.366700 1_555
Ca6 O3 2.366701 1_555
Ca6 O5 2.366706 1_555
Ca6 O10 2.513935 1_556
Ca6 O6 2.513940 1_556
Ca6 O8 2.513941 1_556
Ca7 O0 2.366700 1_555
Ca7 O2 2.366701 1_555
Ca7 O4 2.366706 1_555
Ca7 O11 2.513935 1_554
Ca7 O7 2.513940 1_554
Ca7 O9 2.513941 1_554
Ca8 O0 2.366700 1_555
Ca8 O2 2.366701 1_555
Ca8 O4 2.366706 1_555
Ca8 O11 2.513935 1_555
Ca8 O7 2.513940 1_555
Ca8 O9 2.513941 1_555
Ca9 O1 2.366700 1_555
Ca9 O3 2.366701 1_555
Ca9 O5 2.366706 1_555
Ca9 O10 2.513935 1_555
Ca9 O6 2.513940 1_555
Ca9 O8 2.513941 1_555
O0 S0 1.786220 1_545
O1 S1 1.786220 1_565
O2 S2 1.786221 1_655
O3 S3 1.786221 1_455
O4 S4 1.786220 1_555
O5 S5 1.786220 1_555
O6 S2 1.638195 1_555
O7 S3 1.638195 1_555
O8 S4 1.638195 1_555
O9 S5 1.638195 1_555
O10 S0 1.638195 1_555
O11 S1 1.638195 1_555
O12 S0 1.537924 1_545
O13 S1 1.537924 1_565
O14 S2 1.537924 1_655
O15 S1 1.537924 1_565
O16 S3 1.537924 1_455
O17 S0 1.537924 1_545
O18 S4 1.537924 1_555
O19 S3 1.537924 1_455
O20 S5 1.537924 1_555
O21 S2 1.537924 1_655
O22 S5 1.537924 1_555
O23 S4 1.537924 1_555
