# generated using pymatgen
data_Ba3NaSbO6
_symmetry_space_group_name_H-M   'P 1'
_cell_length_a   7.24058152
_cell_length_b   7.24058152
_cell_length_c   7.24058107
_cell_angle_alpha   91.80165748
_cell_angle_beta   91.80165748
_cell_angle_gamma   91.80166019
_symmetry_Int_Tables_number   1
_chemical_formula_structural   Ba3NaSbO6
_chemical_formula_sum   'Ba6 Na2 Sb2 O12'
_cell_volume   379.01980269
_cell_formula_units_Z   2
loop_
 _symmetry_equiv_pos_site_id
 _symmetry_equiv_pos_as_xyz
  1  'x, y, z'
loop_
 _atom_site_type_symbol
 _atom_site_label
 _atom_site_symmetry_multiplicity
 _atom_site_fract_x
 _atom_site_fract_y
 _atom_site_fract_z
 _atom_site_occupancy
  Ba  Ba0  1  0.25000000  0.60051100  0.89948900  1
  Ba  Ba1  1  0.89948900  0.25000000  0.60051100  1
  Ba  Ba2  1  0.60051100  0.89948900  0.25000000  1
  Ba  Ba3  1  0.39948900  0.10051100  0.75000000  1
  Ba  Ba4  1  0.75000000  0.39948900  0.10051100  1
  Ba  Ba5  1  0.10051100  0.75000000  0.39948900  1
  Na  Na0  1  0.25000000  0.25000000  0.25000000  1
  Na  Na1  1  0.75000000  0.75000000  0.75000000  1
  Sb  Sb0  1  0.00000000  0.00000000  0.00000000  1
  Sb  Sb1  1  0.50000000  0.50000000  0.50000000  1
  O  O0  1  0.94822600  0.08085400  0.26716400  1
  O  O1  1  0.26716400  0.94822600  0.08085400  1
  O  O2  1  0.08085400  0.26716400  0.94822600  1
  O  O3  1  0.76716400  0.58085400  0.44822600  1
  O  O4  1  0.44822600  0.76716400  0.58085400  1
  O  O5  1  0.58085400  0.44822600  0.76716400  1
  O  O6  1  0.05177400  0.91914600  0.73283600  1
  O  O7  1  0.73283600  0.05177400  0.91914600  1
  O  O8  1  0.91914600  0.73283600  0.05177400  1
  O  O9  1  0.23283600  0.41914600  0.55177400  1
  O  O10  1  0.55177400  0.23283600  0.41914600  1
  O  O11  1  0.41914600  0.55177400  0.23283600  1
loop_
_geom_bond_atom_site_label_1
_geom_bond_atom_site_label_2
_geom_bond_distance
_geom_bond_site_symmetry_2
Ba0 O11 2.710149 1_556
Ba0 O2 2.710149 1_555
Ba0 O9 2.800123 1_555
Ba0 O1 2.800123 1_556
Ba0 O8 2.848954 1_456
Ba0 O5 2.848954 1_555
Ba0 O4 3.018796 1_555
Ba0 O6 3.018796 1_555
Ba1 O0 2.710149 1_555
Ba1 O9 2.710149 1_655
Ba1 O2 2.800123 1_655
Ba1 O10 2.800123 1_555
Ba1 O3 2.848954 1_555
Ba1 O6 2.848954 1_645
Ba1 O7 3.018796 1_555
Ba1 O5 3.018796 1_555
Ba2 O10 2.710149 1_565
Ba2 O1 2.710149 1_555
Ba2 O0 2.800123 1_565
Ba2 O11 2.800123 1_555
Ba2 O4 2.848954 1_555
Ba2 O7 2.848954 1_564
Ba2 O3 3.018796 1_555
Ba2 O8 3.018796 1_555
Ba3 O7 2.710149 1_555
Ba3 O4 2.710149 1_545
Ba3 O5 2.800123 1_555
Ba3 O6 2.800123 1_545
Ba3 O1 2.848954 1_546
Ba3 O10 2.848954 1_555
Ba3 O9 3.018796 1_555
Ba3 O2 3.018796 1_555
Ba4 O5 2.710149 1_554
Ba4 O8 2.710149 1_555
Ba4 O3 2.800123 1_555
Ba4 O7 2.800123 1_554
Ba4 O2 2.848954 1_654
Ba4 O11 2.848954 1_555
Ba4 O10 3.018796 1_555
Ba4 O0 3.018796 1_555
Ba5 O6 2.710149 1_555
Ba5 O3 2.710149 1_455
Ba5 O8 2.800123 1_455
Ba5 O4 2.800123 1_555
Ba5 O9 2.848954 1_555
Ba5 O0 2.848954 1_465
Ba5 O1 3.018796 1_555
Ba5 O11 3.018796 1_555
Na0 O9 2.479528 1_555
Na0 O2 2.479528 1_554
Na0 O11 2.479528 1_555
Na0 O0 2.479528 1_455
Na0 O10 2.479528 1_555
Na0 O1 2.479528 1_545
Na1 O8 2.479528 1_556
Na1 O3 2.479528 1_555
Na1 O6 2.479528 1_655
Na1 O5 2.479528 1_555
Na1 O7 2.479528 1_565
Na1 O4 2.479528 1_555
O0 Sb0 2.052666 1_655
O1 Sb0 2.052666 1_565
O2 Sb0 2.052666 1_556
O3 Sb1 2.052666 1_555
O4 Sb1 2.052666 1_555
O5 Sb1 2.052666 1_555
O6 Sb0 2.052666 1_566
O7 Sb0 2.052666 1_656
O8 Sb0 2.052666 1_665
O9 Sb1 2.052666 1_555
O10 Sb1 2.052666 1_555
O11 Sb1 2.052666 1_555
