# generated using pymatgen
data_SiH16C8(NO2)4
_symmetry_space_group_name_H-M   'P 1'
_cell_length_a   7.62806600
_cell_length_b   6.99394800
_cell_length_c   29.07197098
_cell_angle_alpha   90.00000000
_cell_angle_beta   96.90645455
_cell_angle_gamma   90.00000000
_symmetry_Int_Tables_number   1
_chemical_formula_structural   SiH16C8(NO2)4
_chemical_formula_sum   'Si4 H64 C32 N16 O32'
_cell_volume   1539.74393377
_cell_formula_units_Z   4
loop_
 _symmetry_equiv_pos_site_id
 _symmetry_equiv_pos_as_xyz
  1  'x, y, z'
loop_
 _atom_site_type_symbol
 _atom_site_label
 _atom_site_symmetry_multiplicity
 _atom_site_fract_x
 _atom_site_fract_y
 _atom_site_fract_z
 _atom_site_occupancy
  Si  Si0  1  0.01421400  0.84189000  0.88550900  1
  Si  Si1  1  0.98578600  0.34189000  0.61449100  1
  Si  Si2  1  0.98578600  0.15811000  0.11449100  1
  Si  Si3  1  0.01421400  0.65811000  0.38550900  1
  H  H0  1  0.69962600  0.73871200  0.87913700  1
  H  H1  1  0.30037400  0.23871200  0.62086300  1
  H  H2  1  0.30037400  0.26128800  0.12086300  1
  H  H3  1  0.69962600  0.76128800  0.37913700  1
  H  H4  1  0.04633000  0.64912400  0.95956400  1
  H  H5  1  0.95367000  0.14912400  0.54043600  1
  H  H6  1  0.95367000  0.35087600  0.04043600  1
  H  H7  1  0.04633000  0.85087600  0.45956400  1
  H  H8  1  0.14681300  0.80558400  0.81106400  1
  H  H9  1  0.85318700  0.30558400  0.68893600  1
  H  H10  1  0.85318700  0.19441600  0.18893600  1
  H  H11  1  0.14681300  0.69441600  0.31106400  1
  H  H12  1  0.79741500  0.27708400  0.78650500  1
  H  H13  1  0.20258500  0.77708400  0.71349500  1
  H  H14  1  0.20258500  0.72291600  0.21349500  1
  H  H15  1  0.79741500  0.22291600  0.28650500  1
  H  H16  1  0.61363500  0.85788400  0.99400100  1
  H  H17  1  0.38636500  0.35788400  0.50599900  1
  H  H18  1  0.38636500  0.14211600  0.00599900  1
  H  H19  1  0.61363500  0.64211600  0.49400100  1
  H  H20  1  0.04077300  0.18534900  0.91406300  1
  H  H21  1  0.95922700  0.68534900  0.58593700  1
  H  H22  1  0.95922700  0.81465100  0.08593700  1
  H  H23  1  0.04077300  0.31465100  0.41406300  1
  H  H24  1  0.06674100  0.50483700  0.91071300  1
  H  H25  1  0.93325900  0.00483700  0.58928700  1
  H  H26  1  0.93325900  0.49516300  0.08928700  1
  H  H27  1  0.06674100  0.99516300  0.41071300  1
  H  H28  1  0.74173400  0.86776500  0.82952100  1
  H  H29  1  0.25826600  0.36776500  0.67047900  1
  H  H30  1  0.25826600  0.13223500  0.17047900  1
  H  H31  1  0.74173400  0.63223500  0.32952100  1
  H  H32  1  0.45126000  0.39189100  0.91139900  1
  H  H33  1  0.54874000  0.89189100  0.58860100  1
  H  H34  1  0.54874000  0.60810900  0.08860100  1
  H  H35  1  0.45126000  0.10810900  0.41139900  1
  H  H36  1  0.95065100  0.03554000  0.95405900  1
  H  H37  1  0.04934900  0.53554000  0.54594100  1
  H  H38  1  0.04934900  0.96446000  0.04594100  1
  H  H39  1  0.95065100  0.46446000  0.45405900  1
  H  H40  1  0.11654600  0.42015500  0.76635500  1
  H  H41  1  0.88345400  0.92015500  0.73364500  1
  H  H42  1  0.88345400  0.57984500  0.23364500  1
  H  H43  1  0.11654600  0.07984500  0.26635500  1
  H  H44  1  0.31466700  0.81296300  0.85844400  1
  H  H45  1  0.68533300  0.31296300  0.64155600  1
  H  H46  1  0.68533300  0.18703700  0.14155600  1
  H  H47  1  0.31466700  0.68703700  0.35844400  1
  H  H48  1  0.60374600  0.62563200  0.96938700  1
  H  H49  1  0.39625400  0.12563200  0.53061300  1
  H  H50  1  0.39625400  0.37436800  0.03061300  1
  H  H51  1  0.60374600  0.87436800  0.46938700  1
  H  H52  1  0.31048200  0.38798500  0.80387600  1
  H  H53  1  0.68951800  0.88798500  0.69612400  1
  H  H54  1  0.68951800  0.61201500  0.19612400  1
  H  H55  1  0.31048200  0.11201500  0.30387600  1
  H  H56  1  0.46544900  0.19257300  0.87605600  1
  H  H57  1  0.53455100  0.69257300  0.62394400  1
  H  H58  1  0.53455100  0.80742700  0.12394400  1
  H  H59  1  0.46544900  0.30742700  0.37605600  1
  H  H60  1  0.58431300  0.30298900  0.75783800  1
  H  H61  1  0.41568700  0.80298900  0.74216200  1
  H  H62  1  0.41568700  0.69701100  0.24216200  1
  H  H63  1  0.58431300  0.19701100  0.25783800  1
  C  C0  1  0.12632300  0.16846700  0.80213300  1
  C  C1  1  0.87367700  0.66846700  0.69786700  1
  C  C2  1  0.87367700  0.83153300  0.19786700  1
  C  C3  1  0.12632300  0.33153300  0.30213300  1
  C  C4  1  0.79533600  0.75661300  0.85396300  1
  C  C5  1  0.20466400  0.25661300  0.64603700  1
  C  C6  1  0.20466400  0.24338700  0.14603700  1
  C  C7  1  0.79533600  0.74338700  0.35396300  1
  C  C8  1  0.66097000  0.52223500  0.80222900  1
  C  C9  1  0.33903000  0.02223500  0.69777100  1
  C  C10  1  0.33903000  0.47776500  0.19777100  1
  C  C11  1  0.66097000  0.97776500  0.30222900  1
  C  C12  1  0.94896800  0.06607300  0.91691200  1
  C  C13  1  0.05103200  0.56607300  0.58308800  1
  C  C14  1  0.05103200  0.93392700  0.08308800  1
  C  C15  1  0.94896800  0.43392700  0.41691200  1
  C  C16  1  0.37457300  0.78583100  0.95969700  1
  C  C17  1  0.62542700  0.28583100  0.54030300  1
  C  C18  1  0.62542700  0.21416900  0.04030300  1
  C  C19  1  0.37457300  0.71416900  0.45969700  1
  C  C20  1  0.10408500  0.64312900  0.92671700  1
  C  C21  1  0.89591500  0.14312900  0.57328300  1
  C  C22  1  0.89591500  0.35687100  0.07328300  1
  C  C23  1  0.10408500  0.85687100  0.42671700  1
  C  C24  1  0.18913500  0.87814800  0.84408000  1
  C  C25  1  0.81086500  0.37814800  0.65592000  1
  C  C26  1  0.81086500  0.12185200  0.15592000  1
  C  C27  1  0.18913500  0.62185200  0.34408000  1
  C  C28  1  0.69538800  0.27095000  0.91676800  1
  C  C29  1  0.30461200  0.77095000  0.58323200  1
  C  C30  1  0.30461200  0.72905000  0.08323200  1
  C  C31  1  0.69538800  0.22905000  0.41676800  1
  N  N0  1  0.54674800  0.75501600  0.97374800  1
  N  N1  1  0.45325200  0.25501600  0.52625200  1
  N  N2  1  0.45325200  0.24498400  0.02625200  1
  N  N3  1  0.54674800  0.74498400  0.47374800  1
  N  N4  1  0.18845600  0.33993200  0.79118600  1
  N  N5  1  0.81154400  0.83993200  0.70881400  1
  N  N6  1  0.81154400  0.66006800  0.20881400  1
  N  N7  1  0.18845600  0.16006800  0.29118600  1
  N  N8  1  0.52696800  0.29480500  0.89691600  1
  N  N9  1  0.47303200  0.79480500  0.60308400  1
  N  N10  1  0.47303200  0.70519500  0.10308400  1
  N  N11  1  0.52696800  0.20519500  0.39691600  1
  N  N12  1  0.68293000  0.35426700  0.78124800  1
  N  N13  1  0.31707000  0.85426700  0.71875200  1
  N  N14  1  0.31707000  0.64573300  0.21875200  1
  N  N15  1  0.68293000  0.14573300  0.28124800  1
  O  O0  1  0.81178700  0.57811000  0.82946300  1
  O  O1  1  0.18821300  0.07811000  0.67053700  1
  O  O2  1  0.18821300  0.42189000  0.17053700  1
  O  O3  1  0.81178700  0.92189000  0.32946300  1
  O  O4  1  0.29592600  0.63113000  0.93701200  1
  O  O5  1  0.70407400  0.13113000  0.56298800  1
  O  O6  1  0.70407400  0.36887000  0.06298800  1
  O  O7  1  0.29592600  0.86887000  0.43701200  1
  O  O8  1  0.77141600  0.11889400  0.89731500  1
  O  O9  1  0.22858400  0.61889400  0.60268500  1
  O  O10  1  0.22858400  0.88110600  0.10268500  1
  O  O11  1  0.77141600  0.38110600  0.39731500  1
  O  O12  1  0.23887400  0.07420300  0.83423600  1
  O  O13  1  0.76112600  0.57420300  0.66576400  1
  O  O14  1  0.76112600  0.92579700  0.16576400  1
  O  O15  1  0.23887400  0.42579700  0.33423600  1
  O  O16  1  0.29289900  0.93606200  0.96509300  1
  O  O17  1  0.70710100  0.43606200  0.53490700  1
  O  O18  1  0.70710100  0.06393800  0.03490700  1
  O  O19  1  0.29289900  0.56393800  0.46509300  1
  O  O20  1  0.52241600  0.61709800  0.79794400  1
  O  O21  1  0.47758400  0.11709800  0.70205600  1
  O  O22  1  0.47758400  0.38290200  0.20205600  1
  O  O23  1  0.52241600  0.88290200  0.29794400  1
  O  O24  1  0.98135700  0.10026200  0.78572300  1
  O  O25  1  0.01864300  0.60026200  0.71427700  1
  O  O26  1  0.01864300  0.89973800  0.21427700  1
  O  O27  1  0.98135700  0.39973800  0.28572300  1
  O  O28  1  0.77142000  0.37414400  0.94743600  1
  O  O29  1  0.22858000  0.87414400  0.55256400  1
  O  O30  1  0.22858000  0.62585600  0.05256400  1
  O  O31  1  0.77142000  0.12585600  0.44743600  1
loop_
_geom_bond_atom_site_label_1
_geom_bond_atom_site_label_2
_geom_bond_distance
_geom_bond_site_symmetry_2
H12 N12 1.022404 1_555
H13 N13 1.022404 1_555
H14 N14 1.022404 1_555
H15 N15 1.022404 1_555
H16 N0 1.025849 1_555
H17 N1 1.025849 1_555
H18 N2 1.025849 1_555
H19 N3 1.025849 1_555
H32 N8 1.015054 1_555
H33 N9 1.015054 1_555
H34 N10 1.015054 1_555
H35 N11 1.015054 1_555
H40 N4 1.020580 1_555
H41 N5 1.020580 1_555
H42 N6 1.020580 1_555
H43 N7 1.020580 1_555
H48 N0 1.018441 1_555
H49 N1 1.018441 1_555
H50 N2 1.018441 1_555
H51 N3 1.018441 1_555
H52 N4 1.016316 1_555
H53 N5 1.016316 1_555
H54 N6 1.016316 1_555
H55 N7 1.016316 1_555
H56 N8 1.015272 1_555
H57 N9 1.015272 1_555
H58 N10 1.015272 1_555
H59 N11 1.015272 1_555
H60 N12 1.017136 1_555
H61 N13 1.017136 1_555
H62 N14 1.017136 1_555
H63 N15 1.017136 1_555
C0 O24 1.245427 1_455
C0 N4 1.341758 1_555
C0 O12 1.360179 1_555
C1 O25 1.245427 1_655
C1 N5 1.341758 1_555
C1 O13 1.360179 1_555
C2 O26 1.245427 1_655
C2 N6 1.341758 1_555
C2 O14 1.360179 1_555
C3 O27 1.245427 1_455
C3 N7 1.341758 1_555
C3 O15 1.360179 1_555
C4 H28 1.098438 1_555
C4 H0 1.101278 1_555
C4 O0 1.450230 1_555
C4 Si0 1.901622 1_655
C5 H29 1.098438 1_555
C5 H1 1.101278 1_555
C5 O1 1.450230 1_555
C5 Si1 1.901622 1_455
C6 H30 1.098438 1_555
C6 H2 1.101278 1_555
C6 O2 1.450230 1_555
C6 Si2 1.901622 1_455
C7 H31 1.098438 1_555
C7 H3 1.101278 1_555
C7 O3 1.450230 1_555
C7 Si3 1.901622 1_655
C8 O20 1.241402 1_555
C8 N12 1.343407 1_555
C8 O0 1.372601 1_555
C9 O21 1.241402 1_555
C9 N13 1.343407 1_545
C9 O1 1.372601 1_555
C10 O22 1.241402 1_555
C10 N14 1.343407 1_555
C10 O2 1.372601 1_555
C11 O23 1.241402 1_555
C11 N15 1.343407 1_565
C11 O3 1.372601 1_555
C12 H20 1.098694 1_655
C12 H36 1.099407 1_555
C12 O8 1.452525 1_555
C12 Si0 1.910194 1_645
C13 H21 1.098694 1_455
C13 H37 1.099407 1_555
C13 O9 1.452525 1_555
C13 Si1 1.910194 1_455
C14 H22 1.098694 1_455
C14 H38 1.099407 1_555
C14 O10 1.452525 1_555
C14 Si2 1.910194 1_465
C15 H23 1.098694 1_655
C15 H39 1.099407 1_555
C15 O11 1.452525 1_555
C15 Si3 1.910194 1_655
C16 O16 1.241067 1_555
C16 N0 1.345068 1_555
C16 O4 1.367609 1_555
C17 O17 1.241067 1_555
C17 N1 1.345068 1_555
C17 O5 1.367609 1_555
C18 O18 1.241067 1_555
C18 N2 1.345068 1_555
C18 O6 1.367609 1_555
C19 O19 1.241067 1_555
C19 N3 1.345068 1_555
C19 O7 1.367609 1_555
C20 H24 1.096009 1_555
C20 H4 1.099506 1_555
C20 O4 1.460396 1_555
C20 Si0 1.907904 1_555
C21 H25 1.096009 1_555
C21 H5 1.099506 1_555
C21 O5 1.460396 1_555
C21 Si1 1.907904 1_555
C22 H26 1.096009 1_555
C22 H6 1.099506 1_555
C22 O6 1.460396 1_555
C22 Si2 1.907904 1_555
C23 H27 1.096009 1_555
C23 H7 1.099506 1_555
C23 O7 1.460396 1_555
C23 Si3 1.907904 1_555
C24 H44 1.096810 1_555
C24 H8 1.099344 1_555
C24 O12 1.460190 1_565
C24 Si0 1.918806 1_555
C25 H45 1.096810 1_555
C25 H9 1.099344 1_555
C25 O13 1.460190 1_555
C25 Si1 1.918806 1_555
C26 H46 1.096810 1_555
C26 H10 1.099344 1_555
C26 O14 1.460190 1_545
C26 Si2 1.918806 1_555
C27 H47 1.096810 1_555
C27 H11 1.099344 1_555
C27 O15 1.460190 1_555
C27 Si3 1.918806 1_555
C28 O28 1.236053 1_555
C28 N8 1.353923 1_555
C28 O8 1.366024 1_555
C29 O29 1.236053 1_555
C29 N9 1.353923 1_555
C29 O9 1.366024 1_555
C30 O30 1.236053 1_555
C30 N10 1.353923 1_555
C30 O10 1.366024 1_555
C31 O31 1.236053 1_555
C31 N11 1.353923 1_555
C31 O11 1.366024 1_555
