# generated using pymatgen
data_CsCuAg2(CN)4
_symmetry_space_group_name_H-M   'P 1'
_cell_length_a   8.09668900
_cell_length_b   7.55315789
_cell_length_c   8.34184518
_cell_angle_alpha   104.07778231
_cell_angle_beta   90.00000000
_cell_angle_gamma   90.00000000
_symmetry_Int_Tables_number   1
_chemical_formula_structural   CsCuAg2(CN)4
_chemical_formula_sum   'Cs2 Cu2 Ag4 C8 N8'
_cell_volume   494.82865491
_cell_formula_units_Z   2
loop_
 _symmetry_equiv_pos_site_id
 _symmetry_equiv_pos_as_xyz
  1  'x, y, z'
loop_
 _atom_site_type_symbol
 _atom_site_label
 _atom_site_symmetry_multiplicity
 _atom_site_fract_x
 _atom_site_fract_y
 _atom_site_fract_z
 _atom_site_occupancy
  Cs  Cs0  1  0.24480900  0.50000000  0.25000000  1
  Cs  Cs1  1  0.75519100  0.50000000  0.75000000  1
  Cu  Cu0  1  0.25765600  0.50000000  0.75000000  1
  Cu  Cu1  1  0.74234400  0.50000000  0.25000000  1
  Ag  Ag0  1  0.00000000  0.00000000  0.50000000  1
  Ag  Ag1  1  0.00000000  0.00000000  0.00000000  1
  Ag  Ag2  1  0.44124100  0.00000000  0.25000000  1
  Ag  Ag3  1  0.55875900  0.00000000  0.75000000  1
  C  C0  1  0.07952400  0.78870700  0.59640300  1
  C  C1  1  0.07952400  0.21129300  0.90359700  1
  C  C2  1  0.92047600  0.21129300  0.40359700  1
  C  C3  1  0.92047600  0.78870700  0.09640300  1
  C  C4  1  0.41778400  0.79001000  0.04081200  1
  C  C5  1  0.41778400  0.20999000  0.45918800  1
  C  C6  1  0.58221600  0.20999000  0.95918800  1
  C  C7  1  0.58221600  0.79001000  0.54081200  1
  N  N0  1  0.13097600  0.66931900  0.65041800  1
  N  N1  1  0.13097600  0.33068100  0.84958200  1
  N  N2  1  0.86902400  0.33068100  0.34958200  1
  N  N3  1  0.86902400  0.66931900  0.15041800  1
  N  N4  1  0.38477000  0.67034800  0.92637000  1
  N  N5  1  0.38477000  0.32965200  0.57363000  1
  N  N6  1  0.61523000  0.32965200  0.07363000  1
  N  N7  1  0.61523000  0.67034800  0.42637000  1
loop_
_geom_bond_atom_site_label_1
_geom_bond_atom_site_label_2
_geom_bond_distance
_geom_bond_site_symmetry_2
Cs0 N0 3.400590 1_555
Cs0 N1 3.400590 1_554
Cs0 N7 3.448809 1_555
Cs0 N6 3.448809 1_555
Cs0 N4 3.452208 1_554
Cs0 N5 3.452208 1_555
Cs0 N3 3.478498 1_455
Cs0 N2 3.478498 1_455
Cs1 N3 3.400590 1_556
Cs1 N2 3.400590 1_555
Cs1 N4 3.448809 1_555
Cs1 N5 3.448809 1_555
Cs1 N7 3.452208 1_555
Cs1 N6 3.452208 1_556
Cs1 N1 3.478498 1_655
Cs1 N0 3.478498 1_655
Cu0 N1 1.973445 1_555
Cu0 N0 1.973445 1_555
Cu0 N4 1.989583 1_555
Cu0 N5 1.989583 1_555
Cu1 N3 1.973445 1_555
Cu1 N2 1.973445 1_555
Cu1 N7 1.989583 1_555
Cu1 N6 1.989583 1_555
Ag0 C2 2.057335 1_455
Ag0 C0 2.057335 1_545
Ag1 C1 2.057335 1_554
Ag1 C3 2.057335 1_445
Ag2 C4 2.061643 1_545
Ag2 C5 2.061643 1_555
Ag3 C6 2.061643 1_555
Ag3 C7 2.061643 1_545
C0 N0 1.177881 1_555
C0 Cs0 3.439587 1_555
C1 N1 1.177881 1_555
C1 Cs0 3.439587 1_556
C2 N2 1.177881 1_555
C2 Cs1 3.439587 1_555
C3 N3 1.177881 1_555
C3 Cs1 3.439587 1_554
C4 N4 1.174721 1_554
C4 Cs0 3.415308 1_555
C5 N5 1.174721 1_555
C5 Cs0 3.415308 1_555
C6 N6 1.174721 1_556
C6 Cs1 3.415308 1_555
C7 N7 1.174721 1_555
C7 Cs1 3.415308 1_555
