# generated using pymatgen
data_MnFe2Ag2(PO4)3
_symmetry_space_group_name_H-M   'P 1'
_cell_length_a   8.86620351
_cell_length_b   8.86620351
_cell_length_c   6.58909736
_cell_angle_alpha   73.57168068
_cell_angle_beta   73.57168068
_cell_angle_gamma   92.62681367
_symmetry_Int_Tables_number   1
_chemical_formula_structural   MnFe2Ag2(PO4)3
_chemical_formula_sum   'Mn2 Fe4 Ag4 P6 O24'
_cell_volume   472.05974120
_cell_formula_units_Z   2
loop_
 _symmetry_equiv_pos_site_id
 _symmetry_equiv_pos_as_xyz
  1  'x, y, z'
loop_
 _atom_site_type_symbol
 _atom_site_label
 _atom_site_symmetry_multiplicity
 _atom_site_fract_x
 _atom_site_fract_y
 _atom_site_fract_z
 _atom_site_occupancy
  Mn  Mn0  1  0.23258600  0.76741400  0.25000000  1
  Mn  Mn1  1  0.76741400  0.23258600  0.75000000  1
  Fe  Fe0  1  0.56014900  0.88327100  0.37145900  1
  Fe  Fe1  1  0.43985100  0.11672900  0.62854100  1
  Fe  Fe2  1  0.11672900  0.43985100  0.12854100  1
  Fe  Fe3  1  0.88327100  0.56014900  0.87145900  1
  Ag  Ag0  1  0.50983300  0.49016700  0.25000000  1
  Ag  Ag1  1  0.49016700  0.50983300  0.75000000  1
  Ag  Ag2  1  0.00000000  0.00000000  0.00000000  1
  Ag  Ag3  1  0.00000000  0.00000000  0.50000000  1
  P  P0  1  0.37250300  0.15366600  0.12534900  1
  P  P1  1  0.62749700  0.84633400  0.87465100  1
  P  P2  1  0.84633400  0.62749700  0.37465100  1
  P  P3  1  0.15366600  0.37250300  0.62534900  1
  P  P4  1  0.78383800  0.21616200  0.25000000  1
  P  P5  1  0.21616200  0.78383800  0.75000000  1
  O  O0  1  0.50204900  0.82968400  0.10384400  1
  O  O1  1  0.49795100  0.17031600  0.89615600  1
  O  O2  1  0.17031600  0.49795100  0.39615600  1
  O  O3  1  0.82968400  0.50204900  0.60384400  1
  O  O4  1  0.23193200  0.02582800  0.17528700  1
  O  O5  1  0.76806800  0.97417200  0.82471300  1
  O  O6  1  0.97417200  0.76806800  0.32471300  1
  O  O7  1  0.02582800  0.23193200  0.67528700  1
  O  O8  1  0.66841900  0.23934000  0.46433400  1
  O  O9  1  0.33158100  0.76066000  0.53566600  1
  O  O10  1  0.76066000  0.33158100  0.03566600  1
  O  O11  1  0.23934000  0.66841900  0.96433400  1
  O  O12  1  0.67882800  0.67969400  0.38398600  1
  O  O13  1  0.32117200  0.32030600  0.61601400  1
  O  O14  1  0.32030600  0.32117200  0.11601400  1
  O  O15  1  0.67969400  0.67882800  0.88398600  1
  O  O16  1  0.45119400  0.10043300  0.31417700  1
  O  O17  1  0.54880600  0.89956700  0.68582300  1
  O  O18  1  0.89956700  0.54880600  0.18582300  1
  O  O19  1  0.10043300  0.45119400  0.81417700  1
  O  O20  1  0.75560700  0.04413500  0.24371900  1
  O  O21  1  0.24439300  0.95586500  0.75628100  1
  O  O22  1  0.95586500  0.24439300  0.25628100  1
  O  O23  1  0.04413500  0.75560700  0.74371900  1
loop_
_geom_bond_atom_site_label_1
_geom_bond_atom_site_label_2
_geom_bond_distance
_geom_bond_site_symmetry_2
Mn0 O4 2.203771 1_565
Mn0 O6 2.203771 1_455
Mn0 O9 2.278702 1_555
Mn0 O11 2.278702 1_554
Mn0 O2 2.284090 1_555
Mn0 O0 2.284090 1_555
Mn1 O7 2.203771 1_655
Mn1 O5 2.203771 1_545
Mn1 O10 2.278702 1_556
Mn1 O8 2.278702 1_555
Mn1 O1 2.284090 1_555
Mn1 O3 2.284090 1_555
Fe0 O20 2.003799 1_565
Fe0 O9 2.086098 1_555
Fe0 O17 2.091499 1_555
Fe0 O12 2.123867 1_555
Fe0 O0 2.136748 1_555
Fe0 O16 2.179103 1_565
Fe1 O21 2.003799 1_545
Fe1 O8 2.086098 1_555
Fe1 O16 2.091499 1_555
Fe1 O13 2.123867 1_555
Fe1 O1 2.136748 1_555
Fe1 O17 2.179103 1_545
Fe2 O22 2.003799 1_455
Fe2 O11 2.086098 1_554
Fe2 O19 2.091499 1_554
Fe2 O14 2.123867 1_555
Fe2 O2 2.136748 1_555
Fe2 O18 2.179103 1_455
Fe3 O23 2.003799 1_655
Fe3 O10 2.086098 1_556
Fe3 O18 2.091499 1_556
Fe3 O15 2.123867 1_555
Fe3 O3 2.136748 1_555
Fe3 O19 2.179103 1_655
Ag0 O13 2.513014 1_555
Ag0 O15 2.513014 1_554
Ag0 O14 2.684159 1_555
Ag0 O12 2.684159 1_555
Ag1 O14 2.513014 1_556
Ag1 O12 2.513014 1_555
Ag1 O13 2.684159 1_555
Ag1 O15 2.684159 1_555
Ag2 O21 2.427370 1_544
Ag2 O20 2.427370 1_455
Ag2 O6 2.459649 1_445
Ag2 O7 2.459649 1_554
Ag2 O4 2.657983 1_555
Ag2 O5 2.657983 1_444
Ag3 O22 2.427370 1_455
Ag3 O23 2.427370 1_545
Ag3 O5 2.459649 1_445
Ag3 O4 2.459649 1_555
Ag3 O7 2.657983 1_555
Ag3 O6 2.657983 1_445
O0 P1 1.564699 1_554
O1 P0 1.564699 1_556
O2 P3 1.564699 1_555
O3 P2 1.564699 1_555
O4 P0 1.540743 1_555
O5 P1 1.540743 1_555
O6 P2 1.540743 1_555
O7 P3 1.540743 1_555
O8 P4 1.565218 1_555
O9 P5 1.565218 1_555
O10 P4 1.565218 1_555
O11 P5 1.565218 1_555
O12 P2 1.565578 1_555
O13 P3 1.565578 1_555
O14 P0 1.565578 1_555
O15 P1 1.565578 1_555
O16 P0 1.564166 1_555
O17 P1 1.564166 1_555
O18 P2 1.564166 1_555
O19 P3 1.564166 1_555
O20 P4 1.548306 1_555
O21 P5 1.548306 1_555
O22 P4 1.548306 1_555
O23 P5 1.548306 1_555
