# generated using pymatgen
data_Li2Co3SnO8
_symmetry_space_group_name_H-M   'P 1'
_cell_length_a   5.76104447
_cell_length_b   5.76104447
_cell_length_c   9.47280800
_cell_angle_alpha   90.00000000
_cell_angle_beta   90.00000000
_cell_angle_gamma   120.00000541
_symmetry_Int_Tables_number   1
_chemical_formula_structural   Li2Co3SnO8
_chemical_formula_sum   'Li4 Co6 Sn2 O16'
_cell_volume   272.27752752
_cell_formula_units_Z   2
loop_
 _symmetry_equiv_pos_site_id
 _symmetry_equiv_pos_as_xyz
  1  'x, y, z'
loop_
 _atom_site_type_symbol
 _atom_site_label
 _atom_site_symmetry_multiplicity
 _atom_site_fract_x
 _atom_site_fract_y
 _atom_site_fract_z
 _atom_site_occupancy
  Li  Li0  1  0.33333300  0.66666700  0.89069900  1
  Li  Li1  1  0.00000000  0.00000000  0.99628800  1
  Li  Li2  1  0.00000000  0.00000000  0.49628800  1
  Li  Li3  1  0.66666700  0.33333300  0.39069900  1
  Co  Co0  1  0.17292800  0.82707200  0.21576200  1
  Co  Co1  1  0.17292800  0.34585500  0.21576200  1
  Co  Co2  1  0.65414500  0.82707200  0.21576200  1
  Co  Co3  1  0.34585500  0.17292800  0.71576200  1
  Co  Co4  1  0.82707200  0.65414500  0.71576200  1
  Co  Co5  1  0.82707200  0.17292800  0.71576200  1
  Sn  Sn0  1  0.33333300  0.66666700  0.49285400  1
  Sn  Sn1  1  0.66666700  0.33333300  0.99285400  1
  O  O0  1  0.16082400  0.83917600  0.60350500  1
  O  O1  1  0.03144700  0.50622800  0.32981300  1
  O  O2  1  0.33333300  0.66666700  0.11244900  1
  O  O3  1  0.00000000  0.00000000  0.30854900  1
  O  O4  1  0.00000000  0.00000000  0.80854900  1
  O  O5  1  0.16082400  0.32164800  0.60350500  1
  O  O6  1  0.47478100  0.96855300  0.32981300  1
  O  O7  1  0.49377200  0.52521900  0.32981300  1
  O  O8  1  0.32164800  0.16082400  0.10350500  1
  O  O9  1  0.67835200  0.83917600  0.60350500  1
  O  O10  1  0.50622800  0.47478100  0.82981300  1
  O  O11  1  0.52521900  0.03144700  0.82981300  1
  O  O12  1  0.66666700  0.33333300  0.61244900  1
  O  O13  1  0.83917600  0.67835200  0.10350500  1
  O  O14  1  0.96855300  0.47478100  0.82981300  1
  O  O15  1  0.83917600  0.16082400  0.10350500  1
loop_
_geom_bond_atom_site_label_1
_geom_bond_atom_site_label_2
_geom_bond_distance
_geom_bond_site_symmetry_2
Li0 O14 1.909952 1_455
Li0 O11 1.909952 1_565
Li0 O10 1.909957 1_555
Li0 O2 2.100595 1_556
Li1 O4 1.778416 1_555
Li1 O8 1.899164 1_556
Li1 O13 1.899164 1_446
Li1 O15 1.899164 1_456
Li2 O3 1.778416 1_555
Li2 O5 1.899164 1_555
Li2 O9 1.899164 1_445
Li2 O0 1.899164 1_545
Li3 O1 1.909952 1_655
Li3 O6 1.909952 1_545
Li3 O7 1.909957 1_555
Li3 O12 2.100595 1_555
Co0 O6 1.854252 1_555
Co0 O2 1.876078 1_555
Co0 O1 1.934312 1_555
Co0 O3 1.936512 1_565
Co0 O13 1.978507 1_455
Co0 O8 1.978507 1_565
Co1 O1 1.854256 1_555
Co1 O2 1.876086 1_555
Co1 O7 1.934312 1_555
Co1 O3 1.936507 1_555
Co1 O8 1.978503 1_555
Co1 O15 1.978507 1_455
Co2 O7 1.854252 1_555
Co2 O2 1.876086 1_555
Co2 O6 1.934316 1_555
Co2 O3 1.936507 1_665
Co2 O13 1.978503 1_555
Co2 O15 1.978507 1_565
Co3 O10 1.854252 1_555
Co3 O12 1.876086 1_555
Co3 O11 1.934316 1_555
Co3 O4 1.936507 1_555
Co3 O5 1.978503 1_555
Co3 O0 1.978507 1_545
Co4 O12 1.876086 1_555
Co4 O10 1.934312 1_555
Co4 O14 1.934316 1_555
Co4 O4 1.936507 1_665
Co4 O9 1.978503 1_555
Co4 O0 1.978507 1_655
Co5 O11 1.854252 1_555
Co5 O14 1.854252 1_555
Co5 O12 1.876078 1_555
Co5 O4 1.936512 1_655
Co5 O9 1.978507 1_545
Co5 O5 1.978507 1_655
O0 Sn0 2.015385 1_555
O1 Sn0 2.157984 1_555
O5 Sn0 2.015390 1_555
O6 Sn0 2.157984 1_555
O7 Sn0 2.157987 1_555
O8 Sn1 2.015390 1_554
O9 Sn0 2.015390 1_555
O10 Sn1 2.157987 1_555
O11 Sn1 2.157984 1_555
O13 Sn1 2.015390 1_554
O14 Sn1 2.157984 1_555
O15 Sn1 2.015385 1_554
