# generated using pymatgen
data_KZn2P2HO8
_symmetry_space_group_name_H-M   'P 1'
_cell_length_a   5.28926600
_cell_length_b   8.92623444
_cell_length_c   9.56361526
_cell_angle_alpha   96.74917062
_cell_angle_beta   101.62475917
_cell_angle_gamma   107.15175911
_symmetry_Int_Tables_number   1
_chemical_formula_structural   KZn2P2HO8
_chemical_formula_sum   'K2 Zn4 P4 H2 O16'
_cell_volume   414.97720306
_cell_formula_units_Z   2
loop_
 _symmetry_equiv_pos_site_id
 _symmetry_equiv_pos_as_xyz
  1  'x, y, z'
loop_
 _atom_site_type_symbol
 _atom_site_label
 _atom_site_symmetry_multiplicity
 _atom_site_fract_x
 _atom_site_fract_y
 _atom_site_fract_z
 _atom_site_occupancy
  K  K0  1  0.40412600  0.69500600  0.67926300  1
  K  K1  1  0.59587400  0.30499400  0.32073700  1
  Zn  Zn0  1  0.22068400  0.61398800  0.23686900  1
  Zn  Zn1  1  0.77931600  0.38601200  0.76313100  1
  Zn  Zn2  1  0.68450700  0.88542400  0.10890800  1
  Zn  Zn3  1  0.31549300  0.11457600  0.89109200  1
  P  P0  1  0.08719000  0.75547100  0.94554600  1
  P  P1  1  0.91281000  0.24452900  0.05445400  1
  P  P2  1  0.84589300  0.74934800  0.39550200  1
  P  P3  1  0.15410700  0.25065200  0.60449800  1
  H  H0  1  0.96690000  0.91633000  0.60847400  1
  H  H1  1  0.03310000  0.08367000  0.39152600  1
  O  O0  1  0.96606100  0.40417300  0.15374200  1
  O  O1  1  0.03393900  0.59582700  0.84625800  1
  O  O2  1  0.28352400  0.76343200  0.09789100  1
  O  O3  1  0.71647600  0.23656800  0.90210900  1
  O  O4  1  0.74333300  0.11267100  0.12237100  1
  O  O5  1  0.25666700  0.88732900  0.87762900  1
  O  O6  1  0.81804100  0.77815300  0.96552200  1
  O  O7  1  0.18195900  0.22184700  0.03447800  1
  O  O8  1  0.58450000  0.60698200  0.32925300  1
  O  O9  1  0.41550000  0.39301800  0.67074700  1
  O  O10  1  0.85224800  0.89289100  0.31740100  1
  O  O11  1  0.14775200  0.10710900  0.68259900  1
  O  O12  1  0.10049600  0.69791300  0.40203200  1
  O  O13  1  0.89950400  0.30208700  0.59796800  1
  O  O14  1  0.84316000  0.80473200  0.56053800  1
  O  O15  1  0.15684000  0.19526800  0.43946200  1
loop_
_geom_bond_atom_site_label_1
_geom_bond_atom_site_label_2
_geom_bond_distance
_geom_bond_site_symmetry_2
K0 O9 2.706033 1_555
K0 O14 2.761069 1_555
K0 O1 2.781799 1_555
K0 O5 2.788360 1_555
K0 O12 2.816766 1_555
K0 O6 2.997894 1_555
K1 O8 2.706033 1_555
K1 O15 2.761069 1_555
K1 O0 2.781799 1_555
K1 O4 2.788360 1_555
K1 O13 2.816766 1_555
K1 O7 2.997894 1_555
H0 O14 1.008983 1_555
H0 O11 1.673246 1_665
H1 O15 1.008983 1_555
H1 O10 1.673246 1_445
O0 P1 1.532678 1_555
O0 Zn0 1.919447 1_655
O1 P0 1.532678 1_555
O1 Zn1 1.919447 1_455
O2 P0 1.590159 1_554
O2 Zn0 1.997453 1_555
O2 Zn2 2.053270 1_555
O3 P1 1.590159 1_556
O3 Zn1 1.997453 1_555
O3 Zn3 2.053270 1_555
O4 P1 1.550100 1_555
O4 Zn2 1.943772 1_545
O5 P0 1.550100 1_555
O5 Zn3 1.943772 1_565
O6 P0 1.540987 1_655
O6 Zn2 1.943380 1_556
O7 P1 1.540987 1_455
O7 Zn3 1.943380 1_554
O8 P2 1.532748 1_555
O8 Zn0 1.971375 1_555
O9 P3 1.532748 1_555
O9 Zn1 1.971375 1_555
O10 P2 1.552553 1_555
O10 Zn2 1.997092 1_555
O11 P3 1.552553 1_555
O11 Zn3 1.997092 1_555
O12 P2 1.538085 1_455
O12 Zn0 1.966658 1_555
O13 P3 1.538085 1_655
O13 Zn1 1.966658 1_555
O14 P2 1.601805 1_555
O15 P3 1.601805 1_555
