# generated using pymatgen
data_Tm2SnAu2
_symmetry_space_group_name_H-M   'P 1'
_cell_length_a   7.84886300
_cell_length_b   7.84886300
_cell_length_c   7.47543200
_cell_angle_alpha   90.00000000
_cell_angle_beta   90.00000000
_cell_angle_gamma   90.00000000
_symmetry_Int_Tables_number   1
_chemical_formula_structural   Tm2SnAu2
_chemical_formula_sum   'Tm8 Sn4 Au8'
_cell_volume   460.52137489
_cell_formula_units_Z   4
loop_
 _symmetry_equiv_pos_site_id
 _symmetry_equiv_pos_as_xyz
  1  'x, y, z'
loop_
 _atom_site_type_symbol
 _atom_site_label
 _atom_site_symmetry_multiplicity
 _atom_site_fract_x
 _atom_site_fract_y
 _atom_site_fract_z
 _atom_site_occupancy
  Tm  Tm0  1  0.67799100  0.32200900  0.50000000  1
  Tm  Tm1  1  0.32200900  0.67799100  0.50000000  1
  Tm  Tm2  1  0.17799100  0.17799100  0.00000000  1
  Tm  Tm3  1  0.82200900  0.82200900  0.00000000  1
  Tm  Tm4  1  0.83864000  0.83864000  0.50000000  1
  Tm  Tm5  1  0.16136000  0.16136000  0.50000000  1
  Tm  Tm6  1  0.33864000  0.66136000  0.00000000  1
  Tm  Tm7  1  0.66136000  0.33864000  0.00000000  1
  Sn  Sn0  1  0.50000000  0.00000000  0.25000000  1
  Sn  Sn1  1  0.00000000  0.50000000  0.75000000  1
  Sn  Sn2  1  0.50000000  0.00000000  0.75000000  1
  Sn  Sn3  1  0.00000000  0.50000000  0.25000000  1
  Au  Au0  1  0.87189500  0.12810500  0.23257200  1
  Au  Au1  1  0.12810500  0.87189500  0.23257200  1
  Au  Au2  1  0.37189500  0.37189500  0.73257200  1
  Au  Au3  1  0.62810500  0.62810500  0.73257200  1
  Au  Au4  1  0.12810500  0.87189500  0.76742800  1
  Au  Au5  1  0.87189500  0.12810500  0.76742800  1
  Au  Au6  1  0.62810500  0.62810500  0.26742800  1
  Au  Au7  1  0.37189500  0.37189500  0.26742800  1
loop_
_geom_bond_atom_site_label_1
_geom_bond_atom_site_label_2
_geom_bond_distance
_geom_bond_site_symmetry_2
Sn0 Tm1 3.439780 1_545
Sn0 Tm0 3.439780 1_555
Sn0 Tm2 3.439780 1_555
Sn0 Tm3 3.439780 1_545
Sn0 Tm7 3.487302 1_555
Sn0 Tm5 3.487302 1_555
Sn0 Tm4 3.487302 1_545
Sn0 Tm6 3.487302 1_545
Sn1 Tm1 3.439780 1_555
Sn1 Tm3 3.439780 1_456
Sn1 Tm2 3.439780 1_556
Sn1 Tm0 3.439780 1_455
Sn1 Tm4 3.487302 1_455
Sn1 Tm5 3.487302 1_555
Sn1 Tm6 3.487302 1_556
Sn1 Tm7 3.487302 1_456
Sn2 Tm1 3.439780 1_545
Sn2 Tm3 3.439780 1_546
Sn2 Tm2 3.439780 1_556
Sn2 Tm0 3.439780 1_555
Sn2 Tm7 3.487302 1_556
Sn2 Tm5 3.487302 1_555
Sn2 Tm4 3.487302 1_545
Sn2 Tm6 3.487302 1_546
Sn3 Tm1 3.439780 1_555
Sn3 Tm3 3.439780 1_455
Sn3 Tm0 3.439780 1_455
Sn3 Tm2 3.439780 1_555
Sn3 Tm4 3.487302 1_455
Sn3 Tm6 3.487302 1_555
Sn3 Tm5 3.487302 1_555
Sn3 Tm7 3.487302 1_455
Au0 Au1 2.843923 1_645
Au0 Tm7 2.912713 1_555
Au0 Tm0 2.937529 1_555
Au0 Tm2 2.991319 1_655
Au0 Tm3 2.991319 1_545
Au0 Tm5 3.037522 1_655
Au0 Tm4 3.037522 1_545
Au0 Sn0 3.090024 1_555
Au0 Sn3 3.090024 1_655
Au1 Tm6 2.912713 1_555
Au1 Tm1 2.937529 1_555
Au1 Tm3 2.991319 1_455
Au1 Tm2 2.991319 1_565
Au1 Tm5 3.037522 1_565
Au1 Tm4 3.037522 1_455
Au1 Sn0 3.090024 1_565
Au1 Sn3 3.090024 1_555
Au2 Au3 2.843923 1_555
Au2 Tm5 2.912713 1_555
Au2 Tm2 2.937529 1_556
Au2 Tm0 2.991319 1_555
Au2 Tm1 2.991319 1_555
Au2 Tm7 3.037522 1_556
Au2 Tm6 3.037522 1_556
Au2 Sn2 3.090024 1_555
Au2 Sn1 3.090024 1_555
Au3 Tm4 2.912713 1_555
Au3 Tm3 2.937529 1_556
Au3 Tm1 2.991319 1_555
Au3 Tm0 2.991319 1_555
Au3 Tm7 3.037522 1_556
Au3 Tm6 3.037522 1_556
Au3 Sn1 3.090024 1_655
Au3 Sn2 3.090024 1_565
Au4 Au5 2.843923 1_465
Au4 Tm6 2.912713 1_556
Au4 Tm1 2.937529 1_555
Au4 Tm3 2.991319 1_456
Au4 Tm2 2.991319 1_566
Au4 Tm5 3.037522 1_565
Au4 Tm4 3.037522 1_455
Au4 Sn1 3.090024 1_555
Au4 Sn2 3.090024 1_565
Au5 Tm7 2.912713 1_556
Au5 Tm0 2.937529 1_555
Au5 Tm2 2.991319 1_656
Au5 Tm3 2.991319 1_546
Au5 Tm5 3.037522 1_655
Au5 Tm4 3.037522 1_545
Au5 Sn2 3.090024 1_555
Au5 Sn1 3.090024 1_655
Au6 Au7 2.843923 1_555
Au6 Tm4 2.912713 1_555
Au6 Tm3 2.937529 1_555
Au6 Tm1 2.991319 1_555
Au6 Tm0 2.991319 1_555
Au6 Tm7 3.037522 1_555
Au6 Tm6 3.037522 1_555
Au6 Sn0 3.090024 1_565
Au6 Sn3 3.090024 1_655
Au7 Tm5 2.912713 1_555
Au7 Tm2 2.937529 1_555
Au7 Tm0 2.991319 1_555
Au7 Tm1 2.991319 1_555
Au7 Tm6 3.037522 1_555
Au7 Tm7 3.037522 1_555
Au7 Sn0 3.090024 1_555
Au7 Sn3 3.090024 1_555
