# generated using pymatgen
data_Sm13Zn58
_symmetry_space_group_name_H-M   'P 1'
_cell_length_a   14.09878713
_cell_length_b   14.43055782
_cell_length_c   14.43055782
_cell_angle_alpha   120.00005510
_cell_angle_beta   90.00000000
_cell_angle_gamma   90.00000000
_symmetry_Int_Tables_number   1
_chemical_formula_structural   Sm13Zn58
_chemical_formula_sum   'Sm26 Zn116'
_cell_volume   2542.60198901
_cell_formula_units_Z   2
loop_
 _symmetry_equiv_pos_site_id
 _symmetry_equiv_pos_as_xyz
  1  'x, y, z'
loop_
 _atom_site_type_symbol
 _atom_site_label
 _atom_site_symmetry_multiplicity
 _atom_site_fract_x
 _atom_site_fract_y
 _atom_site_fract_z
 _atom_site_occupancy
  Sm  Sm0  1  0.50000000  -0.00000000  -0.00000000  1
  Sm  Sm1  1  -0.00000000  -0.00000000  -0.00000000  1
  Sm  Sm2  1  0.75000000  0.45591971  0.91184083  1
  Sm  Sm3  1  0.75000000  0.45591606  0.54408394  1
  Sm  Sm4  1  0.75000000  0.08815917  0.54408029  1
  Sm  Sm5  1  0.25000000  0.54408029  0.08815917  1
  Sm  Sm6  1  0.25000000  0.54408394  0.45591606  1
  Sm  Sm7  1  0.25000000  0.91184083  0.45591971  1
  Sm  Sm8  1  0.75000000  0.12822093  0.25644105  1
  Sm  Sm9  1  0.75000000  0.12821796  0.87178204  1
  Sm  Sm10  1  0.75000000  0.74355895  0.87177907  1
  Sm  Sm11  1  0.25000000  0.87177907  0.74355895  1
  Sm  Sm12  1  0.25000000  0.87178204  0.12821796  1
  Sm  Sm13  1  0.25000000  0.25644105  0.12822093  1
  Sm  Sm14  1  0.55257725  0.79468317  0.58936617  1
  Sm  Sm15  1  0.55257739  0.79468711  0.20531289  1
  Sm  Sm16  1  0.55257725  0.41063383  0.20531683  1
  Sm  Sm17  1  0.44742275  0.20531683  0.41063383  1
  Sm  Sm18  1  0.44742261  0.20531289  0.79468711  1
  Sm  Sm19  1  0.44742275  0.58936617  0.79468317  1
  Sm  Sm20  1  0.05257725  0.20531683  0.41063383  1
  Sm  Sm21  1  0.05257739  0.20531289  0.79468711  1
  Sm  Sm22  1  0.05257725  0.58936617  0.79468317  1
  Sm  Sm23  1  0.94742275  0.79468317  0.58936617  1
  Sm  Sm24  1  0.94742261  0.79468711  0.20531289  1
  Sm  Sm25  1  0.94742275  0.41063383  0.20531683  1
  Zn  Zn0  1  0.75000000  -0.00000016  0.00000016  1
  Zn  Zn1  1  0.25000000  0.00000016  -0.00000016  1
  Zn  Zn2  1  0.25000000  0.66666751  0.33333249  1
  Zn  Zn3  1  0.75000000  0.33333249  0.66666751  1
  Zn  Zn4  1  0.59639065  0.66667061  0.33332939  1
  Zn  Zn5  1  0.40360935  0.33332939  0.66667061  1
  Zn  Zn6  1  0.09639065  0.33332939  0.66667061  1
  Zn  Zn7  1  0.90360935  0.66667061  0.33332939  1
  Zn  Zn8  1  0.50000000  0.50000000  -0.00000000  1
  Zn  Zn9  1  0.50000000  0.50000000  0.50000000  1
  Zn  Zn10  1  0.50000000  -0.00000000  0.50000000  1
  Zn  Zn11  1  -0.00000000  0.50000000  -0.00000000  1
  Zn  Zn12  1  -0.00000000  0.50000000  0.50000000  1
  Zn  Zn13  1  -0.00000000  -0.00000000  0.50000000  1
  Zn  Zn14  1  0.75000000  0.73003174  0.46006335  1
  Zn  Zn15  1  0.75000000  0.73003766  0.26996234  1
  Zn  Zn16  1  0.75000000  0.53993665  0.26996826  1
  Zn  Zn17  1  0.25000000  0.26996826  0.53993665  1
  Zn  Zn18  1  0.25000000  0.26996234  0.73003766  1
  Zn  Zn19  1  0.25000000  0.46006335  0.73003174  1
  Zn  Zn20  1  0.49999930  0.79828305  -0.00000170  1
  Zn  Zn21  1  0.50000000  0.20171688  0.20171688  1
  Zn  Zn22  1  0.50000070  -0.00000170  0.79828305  1
  Zn  Zn23  1  0.50000070  0.20171695  0.00000170  1
  Zn  Zn24  1  0.49999930  0.00000170  0.20171695  1
  Zn  Zn25  1  0.50000000  0.79828312  0.79828312  1
  Zn  Zn26  1  0.99999930  0.20171695  0.00000170  1
  Zn  Zn27  1  -0.00000000  0.79828312  0.79828312  1
  Zn  Zn28  1  0.00000070  0.00000170  0.20171695  1
  Zn  Zn29  1  0.00000070  0.79828305  -0.00000170  1
  Zn  Zn30  1  0.99999930  -0.00000170  0.79828305  1
  Zn  Zn31  1  -0.00000000  0.20171688  0.20171688  1
  Zn  Zn32  1  0.75000000  0.91564503  0.63471421  1
  Zn  Zn33  1  0.75000000  0.71907033  0.08435256  1
  Zn  Zn34  1  0.75000000  0.36528519  0.28093141  1
  Zn  Zn35  1  0.75000000  0.71906859  0.63471481  1
  Zn  Zn36  1  0.75000000  0.36528579  0.08435497  1
  Zn  Zn37  1  0.75000000  0.91564744  0.28092967  1
  Zn  Zn38  1  0.25000000  0.08435497  0.36528579  1
  Zn  Zn39  1  0.25000000  0.28092967  0.91564744  1
  Zn  Zn40  1  0.25000000  0.63471481  0.71906859  1
  Zn  Zn41  1  0.25000000  0.28093141  0.36528519  1
  Zn  Zn42  1  0.25000000  0.63471421  0.91564503  1
  Zn  Zn43  1  0.25000000  0.08435256  0.71907033  1
  Zn  Zn44  1  0.65672668  0.90495404  0.80991011  1
  Zn  Zn45  1  0.65672758  0.90495648  0.09504352  1
  Zn  Zn46  1  0.65672668  0.19008989  0.09504596  1
  Zn  Zn47  1  0.34327332  0.09504596  0.19008989  1
  Zn  Zn48  1  0.34327242  0.09504352  0.90495648  1
  Zn  Zn49  1  0.34327332  0.80991011  0.90495404  1
  Zn  Zn50  1  0.15672668  0.09504596  0.19008989  1
  Zn  Zn51  1  0.15672758  0.09504352  0.90495648  1
  Zn  Zn52  1  0.15672668  0.80991011  0.90495404  1
  Zn  Zn53  1  0.84327332  0.90495404  0.80991011  1
  Zn  Zn54  1  0.84327242  0.90495648  0.09504352  1
  Zn  Zn55  1  0.84327332  0.19008989  0.09504596  1
  Zn  Zn56  1  0.14110580  0.43572640  0.87145265  1
  Zn  Zn57  1  0.14110103  0.43571799  0.56428201  1
  Zn  Zn58  1  0.14110580  0.12854735  0.56427360  1
  Zn  Zn59  1  0.85889420  0.56427360  0.12854735  1
  Zn  Zn60  1  0.85889897  0.56428201  0.43571799  1
  Zn  Zn61  1  0.85889420  0.87145265  0.43572640  1
  Zn  Zn62  1  0.64110580  0.56427360  0.12854735  1
  Zn  Zn63  1  0.64110103  0.56428201  0.43571799  1
  Zn  Zn64  1  0.64110580  0.87145265  0.43572640  1
  Zn  Zn65  1  0.35889420  0.43572640  0.87145265  1
  Zn  Zn66  1  0.35889897  0.43571799  0.56428201  1
  Zn  Zn67  1  0.35889420  0.12854735  0.56427360  1
  Zn  Zn68  1  0.55096326  0.39790246  0.79580731  1
  Zn  Zn69  1  0.55095190  0.39790064  0.60209936  1
  Zn  Zn70  1  0.55096326  0.20419269  0.60209754  1
  Zn  Zn71  1  0.44903674  0.60209754  0.20419269  1
  Zn  Zn72  1  0.44904810  0.60209936  0.39790064  1
  Zn  Zn73  1  0.44903674  0.79580731  0.39790246  1
  Zn  Zn74  1  0.05096326  0.60209754  0.20419269  1
  Zn  Zn75  1  0.05095190  0.60209936  0.39790064  1
  Zn  Zn76  1  0.05096326  0.79580731  0.39790246  1
  Zn  Zn77  1  0.94903674  0.39790246  0.79580731  1
  Zn  Zn78  1  0.94904810  0.39790064  0.60209936  1
  Zn  Zn79  1  0.94903674  0.20419269  0.60209754  1
  Zn  Zn80  1  0.15670755  0.76370300  0.52740360  1
  Zn  Zn81  1  0.15670425  0.76370782  0.23629218  1
  Zn  Zn82  1  0.15670755  0.47259640  0.23629700  1
  Zn  Zn83  1  0.84329245  0.23629700  0.47259640  1
  Zn  Zn84  1  0.84329575  0.23629218  0.76370782  1
  Zn  Zn85  1  0.84329245  0.52740360  0.76370300  1
  Zn  Zn86  1  0.65670755  0.23629700  0.47259640  1
  Zn  Zn87  1  0.65670425  0.23629218  0.76370782  1
  Zn  Zn88  1  0.65670755  0.52740360  0.76370300  1
  Zn  Zn89  1  0.34329245  0.76370300  0.52740360  1
  Zn  Zn90  1  0.34329575  0.76370782  0.23629218  1
  Zn  Zn91  1  0.34329245  0.47259640  0.23629700  1
  Zn  Zn92  1  0.60282801  0.63451754  0.96339942  1
  Zn  Zn93  1  0.60282925  0.32888191  0.36548300  1
  Zn  Zn94  1  0.60282854  0.03659919  0.67111752  1
  Zn  Zn95  1  0.60282854  0.32888248  0.96340081  1
  Zn  Zn96  1  0.60282801  0.03660058  0.36548246  1
  Zn  Zn97  1  0.60282925  0.63451700  0.67111809  1
  Zn  Zn98  1  0.39717199  0.36548246  0.03660058  1
  Zn  Zn99  1  0.39717075  0.67111809  0.63451700  1
  Zn  Zn100  1  0.39717146  0.96340081  0.32888248  1
  Zn  Zn101  1  0.39717146  0.67111752  0.03659919  1
  Zn  Zn102  1  0.39717199  0.96339942  0.63451754  1
  Zn  Zn103  1  0.39717075  0.36548300  0.32888191  1
  Zn  Zn104  1  0.10282801  0.36548246  0.03660058  1
  Zn  Zn105  1  0.10282925  0.67111809  0.63451700  1
  Zn  Zn106  1  0.10282854  0.96340081  0.32888248  1
  Zn  Zn107  1  0.10282854  0.67111752  0.03659919  1
  Zn  Zn108  1  0.10282801  0.96339942  0.63451754  1
  Zn  Zn109  1  0.10282925  0.36548300  0.32888191  1
  Zn  Zn110  1  0.89717199  0.63451754  0.96339942  1
  Zn  Zn111  1  0.89717075  0.32888191  0.36548300  1
  Zn  Zn112  1  0.89717146  0.03659919  0.67111752  1
  Zn  Zn113  1  0.89717146  0.32888248  0.96340081  1
  Zn  Zn114  1  0.89717199  0.03660058  0.36548246  1
  Zn  Zn115  1  0.89717075  0.63451700  0.67111809  1
loop_
_geom_bond_atom_site_label_1
_geom_bond_atom_site_label_2
_geom_bond_distance
_geom_bond_site_symmetry_2
Sm0 Zn20 2.910876 1_545
Sm0 Zn23 2.910876 1_555
Sm0 Zn24 2.910876 1_555
Sm0 Zn22 2.910876 1_554
Sm0 Zn25 2.910885 1_544
Sm0 Zn21 2.910885 1_555
Sm0 Zn48 3.244369 1_554
Sm0 Zn45 3.244369 1_545
Sm0 Zn44 3.244385 1_544
Sm0 Zn49 3.244385 1_544
Sm0 Zn46 3.244385 1_555
Sm0 Zn47 3.244385 1_555
Sm0 Zn0 3.524697 1_555
Sm0 Zn1 3.524697 1_555
Sm1 Zn28 2.910876 1_555
Sm1 Zn29 2.910876 1_545
Sm1 Zn30 2.910876 1_454
Sm1 Zn26 2.910876 1_455
Sm1 Zn31 2.910885 1_555
Sm1 Zn27 2.910885 1_544
Sm1 Zn54 3.244369 1_445
Sm1 Zn51 3.244369 1_554
Sm1 Zn52 3.244385 1_544
Sm1 Zn53 3.244385 1_444
Sm1 Zn55 3.244385 1_455
Sm1 Zn50 3.244385 1_555
Sm1 Zn1 3.524697 1_555
Sm1 Zn0 3.524697 1_455
Sm2 Zn3 3.063986 1_555
Sm2 Zn88 3.093399 1_555
Sm2 Zn85 3.093399 1_555
Sm2 Zn87 3.093461 1_555
Sm2 Zn84 3.093461 1_555
Sm2 Zn95 3.095746 1_555
Sm2 Zn113 3.095746 1_555
Sm2 Zn110 3.095760 1_555
Sm2 Zn92 3.095760 1_555
Sm2 Zn59 3.113130 1_556
Sm2 Zn62 3.113130 1_556
Sm2 Zn68 3.158704 1_555
Sm2 Zn77 3.158704 1_555
Sm2 Zn36 3.341268 1_556
Sm2 Zn33 3.341287 1_556
Sm3 Zn3 3.063911 1_555
Sm3 Zn88 3.093355 1_555
Sm3 Zn85 3.093355 1_555
Sm3 Zn83 3.093355 1_555
Sm3 Zn86 3.093355 1_555
Sm3 Zn97 3.095759 1_555
Sm3 Zn115 3.095759 1_555
Sm3 Zn93 3.095759 1_555
Sm3 Zn111 3.095759 1_555
Sm3 Zn63 3.113441 1_555
Sm3 Zn60 3.113441 1_555
Sm3 Zn69 3.158831 1_555
Sm3 Zn78 3.158831 1_555
Sm3 Zn35 3.341334 1_555
Sm3 Zn34 3.341334 1_555
Sm4 Zn3 3.063986 1_555
Sm4 Zn83 3.093399 1_555
Sm4 Zn86 3.093399 1_555
Sm4 Zn87 3.093461 1_555
Sm4 Zn84 3.093461 1_555
Sm4 Zn112 3.095746 1_555
Sm4 Zn94 3.095746 1_555
Sm4 Zn96 3.095760 1_555
Sm4 Zn114 3.095760 1_555
Sm4 Zn61 3.113130 1_545
Sm4 Zn64 3.113130 1_545
Sm4 Zn70 3.158704 1_555
Sm4 Zn79 3.158704 1_555
Sm4 Zn32 3.341268 1_545
Sm4 Zn37 3.341287 1_545
Sm5 Zn2 3.063986 1_555
Sm5 Zn91 3.093399 1_555
Sm5 Zn82 3.093399 1_555
Sm5 Zn81 3.093461 1_555
Sm5 Zn90 3.093461 1_555
Sm5 Zn101 3.095746 1_555
Sm5 Zn107 3.095746 1_555
Sm5 Zn104 3.095760 1_555
Sm5 Zn98 3.095760 1_555
Sm5 Zn56 3.113130 1_554
Sm5 Zn65 3.113130 1_554
Sm5 Zn71 3.158704 1_555
Sm5 Zn74 3.158704 1_555
Sm5 Zn42 3.341268 1_554
Sm5 Zn39 3.341287 1_554
Sm6 Zn2 3.063911 1_555
Sm6 Zn91 3.093355 1_555
Sm6 Zn80 3.093355 1_555
Sm6 Zn89 3.093355 1_555
Sm6 Zn82 3.093355 1_555
Sm6 Zn99 3.095759 1_555
Sm6 Zn105 3.095759 1_555
Sm6 Zn109 3.095759 1_555
Sm6 Zn103 3.095759 1_555
Sm6 Zn66 3.113441 1_555
Sm6 Zn57 3.113441 1_555
Sm6 Zn72 3.158831 1_555
Sm6 Zn75 3.158831 1_555
Sm6 Zn40 3.341334 1_555
Sm6 Zn41 3.341334 1_555
Sm7 Zn2 3.063986 1_555
Sm7 Zn80 3.093399 1_555
Sm7 Zn89 3.093399 1_555
Sm7 Zn81 3.093461 1_555
Sm7 Zn90 3.093461 1_555
Sm7 Zn100 3.095746 1_555
Sm7 Zn106 3.095746 1_555
Sm7 Zn108 3.095760 1_555
Sm7 Zn102 3.095760 1_555
Sm7 Zn58 3.113130 1_565
Sm7 Zn67 3.113130 1_565
Sm7 Zn76 3.158704 1_555
Sm7 Zn73 3.158704 1_555
Sm7 Zn38 3.341268 1_565
Sm7 Zn43 3.341287 1_565
Sm8 Zn83 3.004544 1_555
Sm8 Zn86 3.004544 1_555
Sm8 Zn46 3.167038 1_555
Sm8 Zn55 3.167038 1_555
Sm8 Zn54 3.167042 1_545
Sm8 Zn45 3.167042 1_545
Sm8 Zn0 3.204799 1_555
Sm8 Zn93 3.257256 1_555
Sm8 Zn111 3.257256 1_555
Sm8 Zn114 3.257276 1_555
Sm8 Zn96 3.257276 1_555
Sm8 Zn37 3.258649 1_545
Sm8 Zn34 3.258669 1_555
Sm9 Zn87 3.004489 1_555
Sm9 Zn84 3.004489 1_555
Sm9 Zn46 3.167026 1_556
Sm9 Zn55 3.167026 1_556
Sm9 Zn44 3.167026 1_545
Sm9 Zn53 3.167026 1_545
Sm9 Zn0 3.204743 1_556
Sm9 Zn113 3.257298 1_555
Sm9 Zn112 3.257298 1_555
Sm9 Zn94 3.257298 1_555
Sm9 Zn95 3.257298 1_555
Sm9 Zn36 3.258691 1_556
Sm9 Zn32 3.258691 1_545
Sm10 Zn88 3.004544 1_555
Sm10 Zn85 3.004544 1_555
Sm10 Zn53 3.167038 1_555
Sm10 Zn44 3.167038 1_555
Sm10 Zn54 3.167042 1_556
Sm10 Zn45 3.167042 1_556
Sm10 Zn0 3.204799 1_566
Sm10 Zn115 3.257256 1_555
Sm10 Zn97 3.257256 1_555
Sm10 Zn92 3.257276 1_555
Sm10 Zn110 3.257276 1_555
Sm10 Zn33 3.258649 1_556
Sm10 Zn35 3.258669 1_555
Sm11 Zn80 3.004544 1_555
Sm11 Zn89 3.004544 1_555
Sm11 Zn49 3.167038 1_555
Sm11 Zn52 3.167038 1_555
Sm11 Zn51 3.167042 1_565
Sm11 Zn48 3.167042 1_565
Sm11 Zn1 3.204799 1_566
Sm11 Zn105 3.257256 1_555
Sm11 Zn99 3.257256 1_555
Sm11 Zn108 3.257276 1_555
Sm11 Zn102 3.257276 1_555
Sm11 Zn43 3.258649 1_565
Sm11 Zn40 3.258669 1_555
Sm12 Zn81 3.004489 1_555
Sm12 Zn90 3.004489 1_555
Sm12 Zn50 3.167026 1_565
Sm12 Zn47 3.167026 1_565
Sm12 Zn52 3.167026 1_554
Sm12 Zn49 3.167026 1_554
Sm12 Zn1 3.204743 1_565
Sm12 Zn106 3.257298 1_555
Sm12 Zn101 3.257298 1_555
Sm12 Zn100 3.257298 1_555
Sm12 Zn107 3.257298 1_555
Sm12 Zn38 3.258691 1_565
Sm12 Zn42 3.258691 1_554
Sm13 Zn91 3.004544 1_555
Sm13 Zn82 3.004544 1_555
Sm13 Zn50 3.167038 1_555
Sm13 Zn47 3.167038 1_555
Sm13 Zn51 3.167042 1_554
Sm13 Zn48 3.167042 1_554
Sm13 Zn1 3.204799 1_555
Sm13 Zn109 3.257256 1_555
Sm13 Zn103 3.257256 1_555
Sm13 Zn104 3.257276 1_555
Sm13 Zn98 3.257276 1_555
Sm13 Zn39 3.258649 1_554
Sm13 Zn41 3.258669 1_555
Sm14 Zn89 3.050580 1_555
Sm14 Zn22 3.079677 1_565
Sm14 Zn25 3.079695 1_555
Sm14 Zn102 3.092961 1_555
Sm14 Zn99 3.092972 1_555
Sm14 Zn44 3.122932 1_555
Sm14 Zn72 3.131978 1_555
Sm14 Zn73 3.132069 1_555
Sm14 Zn94 3.156305 1_565
Sm14 Zn97 3.156335 1_555
Sm14 Zn32 3.174952 1_555
Sm14 Zn35 3.174961 1_555
Sm14 Zn63 3.186898 1_555
Sm14 Zn64 3.186987 1_555
Sm14 Zn14 3.218486 1_555
Sm14 Zn4 3.258829 1_555
Sm15 Zn90 3.050524 1_555
Sm15 Zn20 3.079635 1_555
Sm15 Zn24 3.079635 1_565
Sm15 Zn101 3.092961 1_555
Sm15 Zn100 3.092961 1_555
Sm15 Zn45 3.122882 1_555
Sm15 Zn71 3.132117 1_555
Sm15 Zn73 3.132117 1_555
Sm15 Zn96 3.156288 1_565
Sm15 Zn92 3.156288 1_554
Sm15 Zn37 3.174945 1_555
Sm15 Zn33 3.174945 1_555
Sm15 Zn62 3.187048 1_555
Sm15 Zn64 3.187048 1_555
Sm15 Zn15 3.218460 1_555
Sm15 Zn4 3.258785 1_555
Sm16 Zn91 3.050580 1_555
Sm16 Zn23 3.079677 1_555
Sm16 Zn21 3.079695 1_555
Sm16 Zn98 3.092961 1_555
Sm16 Zn103 3.092972 1_555
Sm16 Zn46 3.122932 1_555
Sm16 Zn72 3.131978 1_555
Sm16 Zn71 3.132069 1_555
Sm16 Zn95 3.156305 1_554
Sm16 Zn93 3.156335 1_555
Sm16 Zn36 3.174952 1_555
Sm16 Zn34 3.174961 1_555
Sm16 Zn63 3.186898 1_555
Sm16 Zn62 3.186987 1_555
Sm16 Zn16 3.218486 1_555
Sm16 Zn4 3.258829 1_555
Sm17 Zn86 3.050580 1_555
Sm17 Zn24 3.079677 1_555
Sm17 Zn21 3.079695 1_555
Sm17 Zn96 3.092961 1_555
Sm17 Zn93 3.092972 1_555
Sm17 Zn47 3.122932 1_555
Sm17 Zn69 3.131978 1_555
Sm17 Zn70 3.132069 1_555
Sm17 Zn100 3.156305 1_545
Sm17 Zn103 3.156335 1_555
Sm17 Zn38 3.174952 1_555
Sm17 Zn41 3.174961 1_555
Sm17 Zn66 3.186898 1_555
Sm17 Zn67 3.186987 1_555
Sm17 Zn17 3.218486 1_555
Sm17 Zn5 3.258829 1_555
Sm18 Zn87 3.050524 1_555
Sm18 Zn22 3.079635 1_555
Sm18 Zn23 3.079635 1_556
Sm18 Zn95 3.092961 1_555
Sm18 Zn94 3.092961 1_555
Sm18 Zn48 3.122882 1_555
Sm18 Zn70 3.132117 1_555
Sm18 Zn68 3.132117 1_555
Sm18 Zn102 3.156288 1_545
Sm18 Zn98 3.156288 1_556
Sm18 Zn39 3.174945 1_555
Sm18 Zn43 3.174945 1_555
Sm18 Zn67 3.187048 1_555
Sm18 Zn65 3.187048 1_555
Sm18 Zn18 3.218460 1_555
Sm18 Zn5 3.258785 1_555
Sm19 Zn88 3.050580 1_555
Sm19 Zn20 3.079677 1_556
Sm19 Zn25 3.079695 1_555
Sm19 Zn92 3.092961 1_555
Sm19 Zn97 3.092972 1_555
Sm19 Zn49 3.122932 1_555
Sm19 Zn69 3.131978 1_555
Sm19 Zn68 3.132069 1_555
Sm19 Zn101 3.156305 1_556
Sm19 Zn99 3.156335 1_555
Sm19 Zn42 3.174952 1_555
Sm19 Zn40 3.174961 1_555
Sm19 Zn66 3.186898 1_555
Sm19 Zn65 3.186987 1_555
Sm19 Zn19 3.218486 1_555
Sm19 Zn5 3.258829 1_555
Sm20 Zn83 3.050580 1_455
Sm20 Zn28 3.079677 1_555
Sm20 Zn31 3.079695 1_555
Sm20 Zn114 3.092961 1_455
Sm20 Zn111 3.092972 1_455
Sm20 Zn50 3.122932 1_555
Sm20 Zn78 3.131978 1_455
Sm20 Zn79 3.132069 1_455
Sm20 Zn106 3.156305 1_545
Sm20 Zn109 3.156335 1_555
Sm20 Zn38 3.174952 1_555
Sm20 Zn41 3.174961 1_555
Sm20 Zn57 3.186898 1_555
Sm20 Zn58 3.186987 1_555
Sm20 Zn17 3.218486 1_555
Sm20 Zn6 3.258829 1_555
Sm21 Zn84 3.050524 1_455
Sm21 Zn30 3.079635 1_455
Sm21 Zn26 3.079635 1_456
Sm21 Zn113 3.092961 1_455
Sm21 Zn112 3.092961 1_455
Sm21 Zn51 3.122882 1_555
Sm21 Zn79 3.132117 1_455
Sm21 Zn77 3.132117 1_455
Sm21 Zn108 3.156288 1_545
Sm21 Zn104 3.156288 1_556
Sm21 Zn39 3.174945 1_555
Sm21 Zn43 3.174945 1_555
Sm21 Zn58 3.187048 1_555
Sm21 Zn56 3.187048 1_555
Sm21 Zn18 3.218460 1_555
Sm21 Zn6 3.258785 1_555
Sm22 Zn85 3.050580 1_455
Sm22 Zn29 3.079677 1_556
Sm22 Zn27 3.079695 1_555
Sm22 Zn110 3.092961 1_455
Sm22 Zn115 3.092972 1_455
Sm22 Zn52 3.122932 1_555
Sm22 Zn78 3.131978 1_455
Sm22 Zn77 3.132069 1_455
Sm22 Zn107 3.156305 1_556
Sm22 Zn105 3.156335 1_555
Sm22 Zn42 3.174952 1_555
Sm22 Zn40 3.174961 1_555
Sm22 Zn57 3.186898 1_555
Sm22 Zn56 3.186987 1_555
Sm22 Zn19 3.218486 1_555
Sm22 Zn6 3.258829 1_555
Sm23 Zn80 3.050580 1_655
Sm23 Zn30 3.079677 1_565
Sm23 Zn27 3.079695 1_655
Sm23 Zn108 3.092961 1_655
Sm23 Zn105 3.092972 1_655
Sm23 Zn53 3.122932 1_555
Sm23 Zn75 3.131978 1_655
Sm23 Zn76 3.132069 1_655
Sm23 Zn112 3.156305 1_565
Sm23 Zn115 3.156335 1_555
Sm23 Zn32 3.174952 1_555
Sm23 Zn35 3.174961 1_555
Sm23 Zn60 3.186898 1_555
Sm23 Zn61 3.186987 1_555
Sm23 Zn14 3.218486 1_555
Sm23 Zn7 3.258829 1_555
Sm24 Zn81 3.050524 1_655
Sm24 Zn29 3.079635 1_655
Sm24 Zn28 3.079635 1_665
Sm24 Zn106 3.092961 1_655
Sm24 Zn107 3.092961 1_655
Sm24 Zn54 3.122882 1_555
Sm24 Zn74 3.132117 1_655
Sm24 Zn76 3.132117 1_655
Sm24 Zn114 3.156288 1_565
Sm24 Zn110 3.156288 1_554
Sm24 Zn37 3.174945 1_555
Sm24 Zn33 3.174945 1_555
Sm24 Zn59 3.187048 1_555
Sm24 Zn61 3.187048 1_555
Sm24 Zn15 3.218460 1_555
Sm24 Zn7 3.258785 1_555
Sm25 Zn82 3.050580 1_655
Sm25 Zn26 3.079677 1_555
Sm25 Zn31 3.079695 1_655
Sm25 Zn104 3.092961 1_655
Sm25 Zn109 3.092972 1_655
Sm25 Zn55 3.122932 1_555
Sm25 Zn75 3.131978 1_655
Sm25 Zn74 3.132069 1_655
Sm25 Zn113 3.156305 1_554
Sm25 Zn111 3.156335 1_555
Sm25 Zn36 3.174952 1_555
Sm25 Zn34 3.174961 1_555
Sm25 Zn60 3.186898 1_555
Sm25 Zn59 3.186987 1_555
Sm25 Zn16 3.218486 1_555
Sm25 Zn7 3.258829 1_555
Zn0 Zn45 2.715249 1_545
Zn0 Zn54 2.715249 1_545
Zn0 Zn53 2.715289 1_544
Zn0 Zn44 2.715289 1_544
Zn0 Zn55 2.715289 1_555
Zn0 Zn46 2.715289 1_555
Zn1 Zn48 2.715249 1_554
Zn1 Zn51 2.715249 1_554
Zn1 Zn52 2.715289 1_544
Zn1 Zn49 2.715289 1_544
Zn1 Zn50 2.715289 1_555
Zn1 Zn47 2.715289 1_555
Zn2 Zn89 2.759051 1_555
Zn2 Zn82 2.759051 1_555
Zn2 Zn80 2.759051 1_555
Zn2 Zn91 2.759051 1_555
Zn2 Zn81 2.759180 1_555
Zn2 Zn90 2.759180 1_555
Zn3 Zn86 2.759051 1_555
Zn3 Zn88 2.759051 1_555
Zn3 Zn85 2.759051 1_555
Zn3 Zn83 2.759051 1_555
Zn3 Zn84 2.759180 1_555
Zn3 Zn87 2.759180 1_555
Zn4 Zn72 2.630616 1_555
Zn4 Zn73 2.630697 1_555
Zn4 Zn71 2.630697 1_555
Zn4 Zn63 2.635640 1_555
Zn4 Zn62 2.635713 1_555
Zn4 Zn64 2.635713 1_555
Zn5 Zn69 2.630616 1_555
Zn5 Zn70 2.630697 1_555
Zn5 Zn68 2.630697 1_555
Zn5 Zn66 2.635640 1_555
Zn5 Zn65 2.635713 1_555
Zn5 Zn67 2.635713 1_555
Zn6 Zn78 2.630616 1_455
Zn6 Zn79 2.630697 1_455
Zn6 Zn77 2.630697 1_455
Zn7 Zn75 2.630616 1_655
Zn7 Zn76 2.630697 1_655
Zn7 Zn74 2.630697 1_655
Zn8 Zn92 2.678453 1_554
Zn8 Zn98 2.678453 1_555
Zn8 Zn95 2.678454 1_554
Zn9 Zn99 2.678458 1_555
Zn9 Zn93 2.678458 1_555
Zn9 Zn97 2.678458 1_555
Zn10 Zn64 2.557066 1_545
Zn10 Zn67 2.557066 1_555
Zn10 Zn73 2.651069 1_545
Zn10 Zn70 2.651069 1_555
Zn10 Zn96 2.678453 1_555
Zn10 Zn102 2.678453 1_545
Zn10 Zn94 2.678454 1_555
Zn10 Zn100 2.678454 1_545
Zn11 Zn59 2.557066 1_455
Zn11 Zn56 2.557066 1_554
Zn11 Zn77 2.651069 1_454
Zn11 Zn74 2.651069 1_555
Zn11 Zn110 2.678453 1_454
Zn11 Zn113 2.678454 1_454
Zn12 Zn60 2.557146 1_455
Zn12 Zn57 2.557146 1_555
Zn12 Zn75 2.651100 1_555
Zn12 Zn78 2.651100 1_455
Zn13 Zn61 2.557066 1_445
Zn13 Zn58 2.557066 1_555
Zn13 Zn76 2.651069 1_545
Zn13 Zn79 2.651069 1_455
Zn14 Zn32 2.603012 1_555
Zn14 Zn35 2.603029 1_555
Zn14 Zn4 2.683053 1_555
Zn14 Zn7 2.683053 1_555
Zn14 Zn63 2.713190 1_555
Zn14 Zn60 2.713190 1_555
Zn14 Zn64 2.713286 1_555
Zn14 Zn61 2.713286 1_555
Zn14 Zn16 2.743176 1_555
Zn14 Zn15 2.743306 1_555
Zn15 Zn37 2.602931 1_555
Zn15 Zn33 2.602931 1_555
Zn15 Zn7 2.683055 1_555
Zn15 Zn4 2.683055 1_555
Zn15 Zn59 2.713303 1_555
Zn15 Zn62 2.713303 1_555
Zn15 Zn64 2.713303 1_555
Zn15 Zn61 2.713303 1_555
Zn15 Zn16 2.743306 1_555
Zn16 Zn36 2.603012 1_555
Zn16 Zn34 2.603029 1_555
Zn16 Zn7 2.683053 1_555
Zn16 Zn4 2.683053 1_555
Zn16 Zn60 2.713190 1_555
Zn16 Zn63 2.713190 1_555
Zn16 Zn62 2.713286 1_555
Zn16 Zn59 2.713286 1_555
Zn17 Zn38 2.603012 1_555
Zn17 Zn41 2.603029 1_555
Zn17 Zn5 2.683053 1_555
Zn17 Zn6 2.683053 1_555
Zn17 Zn66 2.713190 1_555
Zn17 Zn57 2.713190 1_555
Zn17 Zn58 2.713286 1_555
Zn17 Zn67 2.713286 1_555
Zn17 Zn19 2.743176 1_555
Zn17 Zn18 2.743306 1_555
Zn18 Zn39 2.602931 1_555
Zn18 Zn43 2.602931 1_555
Zn18 Zn5 2.683055 1_555
Zn18 Zn6 2.683055 1_555
Zn18 Zn58 2.713303 1_555
Zn18 Zn65 2.713303 1_555
Zn18 Zn67 2.713303 1_555
Zn18 Zn56 2.713303 1_555
Zn18 Zn19 2.743306 1_555
Zn19 Zn42 2.603012 1_555
Zn19 Zn40 2.603029 1_555
Zn19 Zn5 2.683053 1_555
Zn19 Zn6 2.683053 1_555
Zn19 Zn66 2.713190 1_555
Zn19 Zn57 2.713190 1_555
Zn19 Zn65 2.713286 1_555
Zn19 Zn56 2.713286 1_555
Zn20 Zn92 2.591807 1_554
Zn20 Zn49 2.649894 1_554
Zn20 Zn45 2.649933 1_555
Zn20 Zn25 2.910863 1_554
Zn20 Zn24 2.910910 1_565
Zn21 Zn93 2.591809 1_555
Zn21 Zn47 2.649899 1_555
Zn21 Zn46 2.649899 1_555
Zn21 Zn23 2.910863 1_555
Zn21 Zn24 2.910863 1_555
Zn22 Zn94 2.591804 1_555
Zn22 Zn44 2.649894 1_545
Zn22 Zn48 2.649933 1_555
Zn22 Zn25 2.910863 1_545
Zn22 Zn23 2.910910 1_556
Zn23 Zn95 2.591804 1_554
Zn23 Zn98 2.591807 1_555
Zn23 Zn46 2.649894 1_555
Zn23 Zn48 2.649933 1_554
Zn24 Zn96 2.591807 1_555
Zn24 Zn47 2.649894 1_555
Zn24 Zn45 2.649933 1_545
Zn25 Zn99 2.591809 1_555
Zn25 Zn97 2.591809 1_555
Zn25 Zn49 2.649899 1_555
Zn25 Zn44 2.649899 1_555
Zn26 Zn55 2.649894 1_555
Zn26 Zn51 2.649933 1_654
Zn26 Zn31 2.910863 1_655
Zn26 Zn30 2.910910 1_554
Zn27 Zn52 2.649899 1_555
Zn27 Zn53 2.649899 1_455
Zn27 Zn29 2.910863 1_556
Zn27 Zn30 2.910863 1_465
Zn28 Zn50 2.649894 1_555
Zn28 Zn54 2.649933 1_445
Zn28 Zn31 2.910863 1_555
Zn28 Zn29 2.910910 1_545
Zn29 Zn52 2.649894 1_554
Zn29 Zn54 2.649933 1_455
Zn30 Zn53 2.649894 1_545
Zn30 Zn51 2.649933 1_655
Zn31 Zn55 2.649899 1_455
Zn31 Zn50 2.649899 1_555
Zn32 Zn94 2.590553 1_565
Zn32 Zn35 2.836712 1_555
Zn32 Zn44 2.921445 1_555
Zn32 Zn53 2.921445 1_555
Zn32 Zn64 3.029535 1_555
Zn32 Zn61 3.029535 1_555
Zn33 Zn92 2.590556 1_554
Zn33 Zn37 2.836715 1_555
Zn33 Zn45 2.921430 1_555
Zn33 Zn54 2.921430 1_555
Zn33 Zn59 3.029572 1_555
Zn33 Zn62 3.029572 1_555
Zn34 Zn93 2.590552 1_555
Zn34 Zn36 2.836712 1_555
Zn34 Zn55 2.921429 1_555
Zn34 Zn46 2.921429 1_555
Zn34 Zn63 3.029609 1_555
Zn34 Zn60 3.029609 1_555
Zn35 Zn97 2.590552 1_555
Zn35 Zn53 2.921429 1_555
Zn35 Zn44 2.921429 1_555
Zn35 Zn63 3.029609 1_555
Zn35 Zn60 3.029609 1_555
Zn36 Zn95 2.590553 1_554
Zn36 Zn55 2.921445 1_555
Zn36 Zn46 2.921445 1_555
Zn36 Zn62 3.029535 1_555
Zn36 Zn59 3.029535 1_555
Zn37 Zn96 2.590556 1_565
Zn37 Zn54 2.921430 1_555
Zn37 Zn45 2.921430 1_555
Zn37 Zn61 3.029572 1_555
Zn37 Zn64 3.029572 1_555
Zn38 Zn41 2.836712 1_555
Zn38 Zn50 2.921445 1_555
Zn38 Zn47 2.921445 1_555
Zn38 Zn58 3.029535 1_555
Zn38 Zn67 3.029535 1_555
Zn39 Zn98 2.590556 1_556
Zn39 Zn43 2.836715 1_555
Zn39 Zn48 2.921430 1_555
Zn39 Zn51 2.921430 1_555
Zn39 Zn56 3.029572 1_555
Zn39 Zn65 3.029572 1_555
Zn40 Zn99 2.590552 1_555
Zn40 Zn42 2.836712 1_555
Zn40 Zn49 2.921429 1_555
Zn40 Zn52 2.921429 1_555
Zn40 Zn66 3.029609 1_555
Zn40 Zn57 3.029609 1_555
Zn41 Zn47 2.921429 1_555
Zn41 Zn50 2.921429 1_555
Zn41 Zn66 3.029609 1_555
Zn41 Zn57 3.029609 1_555
Zn42 Zn49 2.921445 1_555
Zn42 Zn52 2.921445 1_555
Zn42 Zn56 3.029535 1_555
Zn42 Zn65 3.029535 1_555
Zn43 Zn51 2.921430 1_555
Zn43 Zn48 2.921430 1_555
Zn43 Zn67 3.029572 1_555
Zn43 Zn58 3.029572 1_555
Zn44 Zn53 2.630081 1_555
Zn45 Zn54 2.630056 1_555
Zn46 Zn55 2.630081 1_555
Zn47 Zn50 2.630081 1_555
Zn48 Zn51 2.630056 1_555
Zn49 Zn52 2.630081 1_555
Zn56 Zn6 2.635713 1_555
Zn56 Zn77 2.868212 1_455
Zn56 Zn65 3.070552 1_555
Zn57 Zn6 2.635640 1_555
Zn57 Zn78 2.867954 1_455
Zn57 Zn66 3.070687 1_555
Zn58 Zn6 2.635713 1_555
Zn58 Zn79 2.868212 1_455
Zn58 Zn67 3.070552 1_555
Zn59 Zn7 2.635713 1_555
Zn59 Zn74 2.868212 1_655
Zn59 Zn62 3.070552 1_555
Zn60 Zn7 2.635640 1_555
Zn60 Zn75 2.867954 1_655
Zn60 Zn63 3.070687 1_555
Zn61 Zn7 2.635713 1_555
Zn61 Zn76 2.868212 1_655
Zn61 Zn64 3.070552 1_555
Zn62 Zn8 2.557066 1_555
Zn62 Zn71 2.868212 1_555
Zn62 Zn95 3.068210 1_554
Zn62 Zn92 3.068226 1_554
Zn63 Zn9 2.557146 1_555
Zn63 Zn72 2.867954 1_555
Zn63 Zn93 3.068351 1_555
Zn63 Zn97 3.068351 1_555
Zn64 Zn73 2.868212 1_555
Zn64 Zn94 3.068210 1_565
Zn64 Zn96 3.068226 1_565
Zn65 Zn8 2.557066 1_556
Zn65 Zn68 2.868212 1_555
Zn65 Zn98 3.068226 1_556
Zn66 Zn9 2.557146 1_555
Zn66 Zn69 2.867954 1_555
Zn66 Zn99 3.068351 1_555
Zn67 Zn70 2.868212 1_555
Zn68 Zn88 2.606799 1_555
Zn68 Zn87 2.606847 1_555
Zn68 Zn8 2.651069 1_556
Zn68 Zn69 2.795301 1_555
Zn68 Zn70 2.795338 1_555
Zn69 Zn86 2.606882 1_555
Zn69 Zn88 2.606882 1_555
Zn69 Zn9 2.651100 1_555
Zn69 Zn70 2.795301 1_555
Zn70 Zn86 2.606799 1_555
Zn70 Zn87 2.606847 1_555
Zn71 Zn91 2.606799 1_555
Zn71 Zn90 2.606847 1_555
Zn71 Zn8 2.651069 1_555
Zn71 Zn72 2.795301 1_555
Zn71 Zn73 2.795338 1_555
Zn72 Zn89 2.606882 1_555
Zn72 Zn91 2.606882 1_555
Zn72 Zn9 2.651100 1_555
Zn72 Zn73 2.795301 1_555
Zn73 Zn89 2.606799 1_555
Zn73 Zn90 2.606847 1_555
Zn74 Zn82 2.606799 1_555
Zn74 Zn81 2.606847 1_555
Zn74 Zn75 2.795301 1_555
Zn74 Zn76 2.795338 1_555
Zn75 Zn80 2.606882 1_555
Zn75 Zn82 2.606882 1_555
Zn75 Zn76 2.795301 1_555
Zn76 Zn80 2.606799 1_555
Zn76 Zn81 2.606847 1_555
Zn77 Zn85 2.606799 1_555
Zn77 Zn84 2.606847 1_555
Zn77 Zn78 2.795301 1_555
Zn77 Zn79 2.795338 1_555
Zn78 Zn85 2.606882 1_555
Zn78 Zn83 2.606882 1_555
Zn78 Zn79 2.795301 1_555
Zn79 Zn83 2.606799 1_555
Zn79 Zn84 2.606847 1_555
Zn80 Zn89 2.630621 1_555
Zn81 Zn90 2.630714 1_555
Zn82 Zn91 2.630621 1_555
Zn83 Zn86 2.630621 1_555
Zn84 Zn87 2.630714 1_555
Zn85 Zn88 2.630621 1_555
Zn86 Zn96 2.610807 1_555
Zn86 Zn93 2.610825 1_555
Zn87 Zn95 2.610745 1_555
Zn87 Zn94 2.610745 1_555
Zn88 Zn92 2.610807 1_555
Zn88 Zn97 2.610825 1_555
Zn89 Zn99 2.610825 1_555
Zn91 Zn98 2.610807 1_555
Zn100 Zn38 2.590553 1_565
Zn100 Zn24 2.591804 1_565
Zn100 Zn90 2.610745 1_555
Zn100 Zn67 3.068210 1_565
Zn101 Zn42 2.590553 1_554
Zn101 Zn20 2.591804 1_555
Zn101 Zn90 2.610745 1_555
Zn101 Zn8 2.678454 1_555
Zn101 Zn65 3.068210 1_554
Zn102 Zn43 2.590556 1_565
Zn102 Zn22 2.591807 1_565
Zn102 Zn89 2.610807 1_555
Zn102 Zn67 3.068226 1_565
Zn103 Zn41 2.590552 1_555
Zn103 Zn21 2.591809 1_555
Zn103 Zn91 2.610825 1_555
Zn103 Zn9 2.678458 1_555
Zn103 Zn66 3.068351 1_555
Zn104 Zn39 2.590556 1_554
Zn104 Zn26 2.591807 1_455
Zn104 Zn82 2.610807 1_555
Zn104 Zn11 2.678453 1_555
Zn104 Zn56 3.068226 1_554
Zn105 Zn40 2.590552 1_555
Zn105 Zn27 2.591809 1_555
Zn105 Zn80 2.610825 1_555
Zn105 Zn12 2.678458 1_555
Zn105 Zn57 3.068351 1_555
Zn106 Zn38 2.590553 1_565
Zn106 Zn28 2.591804 1_565
Zn106 Zn81 2.610745 1_555
Zn106 Zn13 2.678454 1_565
Zn106 Zn58 3.068210 1_565
Zn107 Zn42 2.590553 1_554
Zn107 Zn29 2.591804 1_555
Zn107 Zn81 2.610745 1_555
Zn107 Zn11 2.678454 1_555
Zn107 Zn56 3.068210 1_554
Zn108 Zn43 2.590556 1_565
Zn108 Zn30 2.591807 1_465
Zn108 Zn80 2.610807 1_555
Zn108 Zn13 2.678453 1_565
Zn108 Zn58 3.068226 1_565
Zn109 Zn41 2.590552 1_555
Zn109 Zn31 2.591809 1_555
Zn109 Zn82 2.610825 1_555
Zn109 Zn12 2.678458 1_555
Zn109 Zn57 3.068351 1_555
Zn110 Zn33 2.590556 1_556
Zn110 Zn29 2.591807 1_656
Zn110 Zn85 2.610807 1_555
Zn110 Zn59 3.068226 1_556
Zn111 Zn34 2.590552 1_555
Zn111 Zn31 2.591809 1_655
Zn111 Zn83 2.610825 1_555
Zn111 Zn12 2.678458 1_655
Zn111 Zn60 3.068351 1_555
Zn112 Zn32 2.590553 1_545
Zn112 Zn30 2.591804 1_555
Zn112 Zn84 2.610745 1_555
Zn112 Zn13 2.678454 1_655
Zn112 Zn61 3.068210 1_545
Zn113 Zn36 2.590553 1_556
Zn113 Zn26 2.591804 1_556
Zn113 Zn84 2.610745 1_555
Zn113 Zn59 3.068210 1_556
Zn114 Zn37 2.590556 1_545
Zn114 Zn28 2.591807 1_655
Zn114 Zn83 2.610807 1_555
Zn114 Zn13 2.678453 1_655
Zn114 Zn61 3.068226 1_545
Zn115 Zn35 2.590552 1_555
Zn115 Zn27 2.591809 1_655
Zn115 Zn85 2.610825 1_555
Zn115 Zn12 2.678458 1_655
Zn115 Zn60 3.068351 1_555
