# generated using pymatgen
data_Mn10CdN8
_symmetry_space_group_name_H-M   'P 1'
_cell_length_a   8.28493555
_cell_length_b   3.82059502
_cell_length_c   8.16155264
_cell_angle_alpha   90.00000276
_cell_angle_beta   61.30103622
_cell_angle_gamma   76.66907967
_symmetry_Int_Tables_number   1
_chemical_formula_structural   Mn10CdN8
_chemical_formula_sum   'Mn10 Cd1 N8'
_cell_volume   218.63563572
_cell_formula_units_Z   1
loop_
 _symmetry_equiv_pos_site_id
 _symmetry_equiv_pos_as_xyz
  1  'x, y, z'
loop_
 _atom_site_type_symbol
 _atom_site_label
 _atom_site_symmetry_multiplicity
 _atom_site_fract_x
 _atom_site_fract_y
 _atom_site_fract_z
 _atom_site_occupancy
  Mn  Mn0  1  0.39618800  0.80190600  0.81183200  1
  Mn  Mn1  1  0.60381200  0.19809400  0.18816800  1
  Mn  Mn2  1  0.07847100  0.96076400  0.75037700  1
  Mn  Mn3  1  0.92152900  0.03923600  0.24962300  1
  Mn  Mn4  1  0.62717000  0.68641400  0.38976400  1
  Mn  Mn5  1  0.37283000  0.31358600  0.61023600  1
  Mn  Mn6  1  0.83403400  0.58298300  0.00127700  1
  Mn  Mn7  1  0.16596600  0.41701700  0.99872300  1
  Mn  Mn8  1  0.41218800  0.79390600  0.10846600  1
  Mn  Mn9  1  0.58781200  0.20609400  0.89153400  1
  Cd  Cd0  1  0.00000000  0.50000000  0.50000000  1
  N  N0  1  0.19594800  0.90202600  0.05850000  1
  N  N1  1  0.80405200  0.09797400  0.94150000  1
  N  N2  1  0.36162200  0.81918900  0.59739300  1
  N  N3  1  0.63837800  0.18081100  0.40260700  1
  N  N4  1  0.60773100  0.69613400  0.84095900  1
  N  N5  1  0.39226900  0.30386600  0.15904100  1
  N  N6  1  0.90410000  0.54795100  0.19915000  1
  N  N7  1  0.09590000  0.45204900  0.80085000  1
loop_
_geom_bond_atom_site_label_1
_geom_bond_atom_site_label_2
_geom_bond_distance
_geom_bond_site_symmetry_2
Mn0 N4 1.834401 1_555
Mn0 N0 1.857740 1_556
Mn0 N2 1.903171 1_555
Mn1 N5 1.834401 1_555
Mn1 N1 1.857740 1_554
Mn1 N3 1.903171 1_555
Mn2 N7 1.973776 1_565
Mn2 N7 1.973780 1_555
Mn2 N1 1.980235 1_465
Mn2 N2 1.989091 1_555
Mn3 N6 1.973776 1_545
Mn3 N6 1.973780 1_555
Mn3 N0 1.980235 1_645
Mn3 N3 1.989091 1_555
Mn4 N3 1.917739 1_555
Mn4 N3 1.917746 1_565
Mn4 N2 1.968222 1_555
Mn4 N6 1.994079 1_555
Mn5 N2 1.917739 1_555
Mn5 N2 1.917746 1_545
Mn5 N3 1.968222 1_555
Mn5 N7 1.994079 1_555
Mn6 N7 1.929781 1_654
Mn6 N6 1.956395 1_555
Mn6 N1 2.015457 1_554
Mn6 N1 2.015457 1_564
Mn7 N6 1.929781 1_456
Mn7 N7 1.956395 1_555
Mn7 N0 2.015457 1_556
Mn7 N0 2.015457 1_546
Mn8 N5 1.944215 1_555
Mn8 N5 1.944219 1_565
Mn8 N4 1.963344 1_554
Mn8 N0 1.976595 1_555
Mn9 N4 1.944215 1_555
Mn9 N4 1.944219 1_545
Mn9 N5 1.963344 1_556
Mn9 N1 1.976595 1_555
