# generated using pymatgen
data_BaGe2Au5
_symmetry_space_group_name_H-M   'P 1'
_cell_length_a   7.12429485
_cell_length_b   9.02536228
_cell_length_c   10.90306684
_cell_angle_alpha   90.00000000
_cell_angle_beta   90.00000000
_cell_angle_gamma   90.00000000
_symmetry_Int_Tables_number   1
_chemical_formula_structural   BaGe2Au5
_chemical_formula_sum   'Ba4 Ge8 Au20'
_cell_volume   701.06002371
_cell_formula_units_Z   4
loop_
 _symmetry_equiv_pos_site_id
 _symmetry_equiv_pos_as_xyz
  1  'x, y, z'
loop_
 _atom_site_type_symbol
 _atom_site_label
 _atom_site_symmetry_multiplicity
 _atom_site_fract_x
 _atom_site_fract_y
 _atom_site_fract_z
 _atom_site_occupancy
  Ba  Ba0  1  0.25000000  0.21671453  0.10425031  1
  Ba  Ba1  1  0.25000000  0.71671453  0.39574969  1
  Ba  Ba2  1  0.75000000  0.78328547  0.89574969  1
  Ba  Ba3  1  0.75000000  0.28328547  0.60425031  1
  Ge  Ge0  1  0.25000000  0.05341528  0.62479910  1
  Ge  Ge1  1  0.25000000  0.55341528  0.87520090  1
  Ge  Ge2  1  0.75000000  0.94658472  0.37520090  1
  Ge  Ge3  1  0.75000000  0.44658472  0.12479910  1
  Ge  Ge4  1  0.25000000  0.32655360  0.43768548  1
  Ge  Ge5  1  0.25000000  0.82655360  0.06231452  1
  Ge  Ge6  1  0.75000000  0.67344640  0.56231452  1
  Ge  Ge7  1  0.75000000  0.17344640  0.93768548  1
  Au  Au0  1  0.05295648  0.08555919  0.38739779  1
  Au  Au1  1  0.44704352  0.58555919  0.11260221  1
  Au  Au2  1  0.55295648  0.91444081  0.61260221  1
  Au  Au3  1  0.94704352  0.41444081  0.88739779  1
  Au  Au4  1  0.94704352  0.91444081  0.61260221  1
  Au  Au5  1  0.55295648  0.41444081  0.88739779  1
  Au  Au6  1  0.44704352  0.08555919  0.38739779  1
  Au  Au7  1  0.05295648  0.58555919  0.11260221  1
  Au  Au8  1  0.04423023  0.10521022  0.82738078  1
  Au  Au9  1  0.45576977  0.60521022  0.67261922  1
  Au  Au10  1  0.54423023  0.89478978  0.17261922  1
  Au  Au11  1  0.95576977  0.39478978  0.32738078  1
  Au  Au12  1  0.95576977  0.89478978  0.17261922  1
  Au  Au13  1  0.54423023  0.39478978  0.32738078  1
  Au  Au14  1  0.45576977  0.10521022  0.82738078  1
  Au  Au15  1  0.04423023  0.60521022  0.67261922  1
  Au  Au16  1  0.25000000  0.33421222  0.66831554  1
  Au  Au17  1  0.25000000  0.83421222  0.83168446  1
  Au  Au18  1  0.75000000  0.66578778  0.33168446  1
  Au  Au19  1  0.75000000  0.16578778  0.16831554  1
loop_
_geom_bond_atom_site_label_1
_geom_bond_atom_site_label_2
_geom_bond_distance
_geom_bond_site_symmetry_2
Ba0 Ge5 3.550904 1_545
Ba1 Ge4 3.550904 1_555
Ba2 Ge7 3.550904 1_565
Ba3 Ge6 3.550904 1_555
Au0 Ge2 2.499884 1_445
Au0 Ge4 2.646159 1_555
Au0 Au11 2.949038 1_455
Au0 Ge0 2.958823 1_555
Au0 Au12 2.987915 1_445
Au0 Ba0 3.592005 1_555
Au0 Ba1 3.613985 1_545
Au0 Ba3 3.665145 1_455
Au1 Ge3 2.499884 1_555
Au1 Ge5 2.646159 1_555
Au1 Au10 2.949038 1_555
Au1 Ge1 2.958823 1_554
Au1 Au13 2.987915 1_555
Au1 Ba1 3.592005 1_555
Au1 Ba0 3.613985 1_555
Au1 Ba2 3.665145 1_554
Au2 Ge0 2.499884 1_565
Au2 Ge6 2.646159 1_555
Au2 Au9 2.949038 1_555
Au2 Ge2 2.958823 1_555
Au2 Ba2 3.592005 1_555
Au2 Ba3 3.613985 1_565
Au2 Ba1 3.665145 1_555
Au3 Ge1 2.499884 1_655
Au3 Ge7 2.646159 1_555
Au3 Au8 2.949038 1_655
Au3 Ge3 2.958823 1_556
Au3 Ba3 3.592005 1_555
Au3 Ba2 3.613985 1_555
Au3 Ba0 3.665145 1_656
Au4 Ge0 2.499884 1_665
Au4 Ge6 2.646159 1_555
Au4 Ge2 2.958823 1_555
Au4 Au8 2.987915 1_665
Au4 Ba2 3.592005 1_555
Au4 Ba3 3.613985 1_565
Au4 Ba1 3.665145 1_655
Au5 Ge1 2.499884 1_555
Au5 Ge7 2.646159 1_555
Au5 Ge3 2.958823 1_556
Au5 Au9 2.987915 1_555
Au5 Ba3 3.592005 1_555
Au5 Ba2 3.613985 1_555
Au5 Ba0 3.665145 1_556
Au6 Ge2 2.499884 1_545
Au6 Ge4 2.646159 1_555
Au6 Ge0 2.958823 1_555
Au6 Ba0 3.592005 1_555
Au6 Ba1 3.613985 1_545
Au6 Ba3 3.665145 1_555
Au7 Ge3 2.499884 1_455
Au7 Ge5 2.646159 1_555
Au7 Ge1 2.958823 1_554
Au7 Ba1 3.592005 1_555
Au7 Ba0 3.613985 1_555
Au7 Ba2 3.665145 1_454
Au8 Ge7 2.493923 1_455
Au8 Ge0 2.691878 1_555
Au8 Ba0 3.503504 1_556
Au8 Ba3 3.591045 1_455
Au8 Ba2 3.659441 1_445
Au9 Ge6 2.493923 1_555
Au9 Ge1 2.691878 1_555
Au9 Ba1 3.503504 1_555
Au9 Ba2 3.591045 1_555
Au9 Ba3 3.659441 1_555
Au10 Ge5 2.493923 1_555
Au10 Ge2 2.691878 1_555
Au10 Au19 2.851922 1_565
Au10 Au12 2.931929 1_555
Au10 Au6 2.987915 1_565
Au10 Au18 3.070605 1_555
Au10 Ba2 3.503504 1_554
Au10 Ba1 3.591045 1_555
Au10 Ba0 3.659441 1_565
Au11 Ge4 2.493923 1_655
Au11 Ge3 2.691878 1_555
Au11 Au18 2.851922 1_555
Au11 Au13 2.931929 1_555
Au11 Au7 2.987915 1_655
Au11 Au19 3.070605 1_555
Au11 Ba3 3.503504 1_555
Au11 Ba0 3.591045 1_655
Au11 Ba1 3.659441 1_655
Au12 Ge5 2.493923 1_655
Au12 Ge2 2.691878 1_555
Au12 Au19 2.851922 1_565
Au12 Au7 2.949038 1_655
Au12 Au18 3.070605 1_555
Au12 Ba2 3.503504 1_554
Au12 Ba1 3.591045 1_655
Au12 Ba0 3.659441 1_665
Au13 Ge4 2.493923 1_555
Au13 Ge3 2.691878 1_555
Au13 Au18 2.851922 1_555
Au13 Au6 2.949038 1_555
Au13 Au19 3.070605 1_555
Au13 Ba3 3.503504 1_555
Au13 Ba0 3.591045 1_555
Au13 Ba1 3.659441 1_555
Au14 Ge7 2.493923 1_555
Au14 Ge0 2.691878 1_555
Au14 Au17 2.851922 1_545
Au14 Au8 2.931929 1_555
Au14 Au5 2.949038 1_555
Au14 Au2 2.987915 1_545
Au14 Au16 3.070605 1_555
Au14 Ba0 3.503504 1_556
Au14 Ba3 3.591045 1_555
Au14 Ba2 3.659441 1_545
Au15 Ge6 2.493923 1_455
Au15 Ge1 2.691878 1_555
Au15 Au16 2.851922 1_555
Au15 Au9 2.931929 1_555
Au15 Au4 2.949038 1_455
Au15 Au3 2.987915 1_455
Au15 Au17 3.070605 1_555
Au15 Ba1 3.503504 1_555
Au15 Ba2 3.591045 1_455
Au15 Ba3 3.659441 1_455
Au16 Ge4 2.515525 1_555
Au16 Ge0 2.578325 1_555
Au16 Au9 2.851922 1_555
Au16 Ge1 3.000355 1_555
Au16 Au8 3.070605 1_555
Au16 Ba3 3.658971 1_455
Au16 Ba3 3.658971 1_555
Au17 Ge5 2.515525 1_556
Au17 Ge1 2.578325 1_555
Au17 Au8 2.851922 1_565
Au17 Ge0 3.000355 1_565
Au17 Au9 3.070605 1_555
Au17 Ba2 3.658971 1_555
Au17 Ba2 3.658971 1_455
Au18 Ge6 2.515525 1_555
Au18 Ge2 2.578325 1_555
Au18 Ge3 3.000355 1_555
Au18 Ba1 3.658971 1_655
Au18 Ba1 3.658971 1_555
Au19 Ge7 2.515525 1_554
Au19 Ge3 2.578325 1_555
Au19 Ge2 3.000355 1_545
Au19 Ba0 3.658971 1_655
Au19 Ba0 3.658971 1_555
