# generated using pymatgen
data_MgMn6O5F7
_symmetry_space_group_name_H-M   'P 1'
_cell_length_a   7.10484405
_cell_length_b   5.87363758
_cell_length_c   5.87334482
_cell_angle_alpha   76.92459107
_cell_angle_beta   77.82018039
_cell_angle_gamma   77.81588550
_symmetry_Int_Tables_number   1
_chemical_formula_structural   MgMn6O5F7
_chemical_formula_sum   'Mg1 Mn6 O5 F7'
_cell_volume   229.91442146
_cell_formula_units_Z   1
loop_
 _symmetry_equiv_pos_site_id
 _symmetry_equiv_pos_as_xyz
  1  'x, y, z'
loop_
 _atom_site_type_symbol
 _atom_site_label
 _atom_site_symmetry_multiplicity
 _atom_site_fract_x
 _atom_site_fract_y
 _atom_site_fract_z
 _atom_site_occupancy
  Mg  Mg0  1  0.83331100  0.88142200  0.45188700  1
  Mn  Mn0  1  0.83335200  0.51104900  0.82231800  1
  Mn  Mn1  1  0.67715100  0.37175800  0.35381100  1
  Mn  Mn2  1  0.33333300  0.71203600  0.62130200  1
  Mn  Mn3  1  0.17352000  0.31545400  0.30112000  1
  Mn  Mn4  1  0.49314700  0.03220700  0.01789600  1
  Mn  Mn5  1  0.98952700  0.97954400  0.96154800  1
  O  O0  1  0.66009800  0.61335800  0.55766700  1
  O  O1  1  0.96349400  0.20428700  0.23059900  1
  O  O2  1  0.70317800  0.10265800  0.12912100  1
  O  O3  1  0.00657600  0.77568100  0.71995100  1
  O  O4  1  0.33333000  0.00423800  0.32910000  1
  F  F0  1  0.64593400  0.08310100  0.66655300  1
  F  F1  1  0.33333300  0.39506700  0.93826500  1
  F  F2  1  0.29597000  0.92080600  0.89007500  1
  F  F3  1  0.37070600  0.44324900  0.41253400  1
  F  F4  1  0.63240200  0.66060300  0.06916200  1
  F  F5  1  0.03424500  0.26418600  0.67271100  1
  F  F6  1  0.02072500  0.66679600  0.25021200  1
loop_
_geom_bond_atom_site_label_1
_geom_bond_atom_site_label_2
_geom_bond_distance
_geom_bond_site_symmetry_2
Mg0 O0 2.105291 1_555
Mg0 O3 2.105385 1_655
Mg0 O2 2.292381 1_565
Mg0 O1 2.293239 1_565
Mn0 O3 2.089162 1_655
Mn0 O0 2.089244 1_555
Mn1 O0 2.024104 1_555
Mn1 O1 2.118089 1_555
Mn1 O2 2.234163 1_555
Mn2 O4 2.135008 1_565
Mn2 O3 2.242581 1_555
Mn2 O0 2.242634 1_555
Mn3 O1 1.902371 1_455
Mn3 O4 1.929868 1_555
Mn4 O2 1.902382 1_555
Mn4 O4 1.929844 1_555
Mn5 O3 2.024113 1_655
Mn5 O2 2.118196 1_566
Mn5 O1 2.234131 1_566
F0 Mg0 2.016693 1_545
F0 Mn4 2.106811 1_556
F0 Mn1 2.208052 1_555
F1 Mn3 2.191331 1_556
F1 Mn4 2.191354 1_556
F1 Mn2 2.315949 1_555
F2 Mn4 2.001820 1_566
F2 Mn5 2.097231 1_455
F2 Mn2 2.151216 1_555
F3 Mn3 2.001835 1_555
F3 Mn1 2.097243 1_555
F3 Mn2 2.151284 1_555
F4 Mn0 2.021228 1_554
F4 Mn1 2.118424 1_555
F4 Mn4 2.179537 1_565
F5 Mn0 2.021253 1_455
F5 Mn5 2.118377 1_445
F5 Mn3 2.179497 1_555
F6 Mg0 2.016640 1_455
F6 Mn3 2.106825 1_555
F6 Mn5 2.208069 1_454
