# generated using pymatgen
data_Li5Co3(NiO5)2
_symmetry_space_group_name_H-M   'P 1'
_cell_length_a   4.89464000
_cell_length_b   5.01438252
_cell_length_c   7.55013666
_cell_angle_alpha   106.51936190
_cell_angle_beta   102.65287212
_cell_angle_gamma   101.60642008
_symmetry_Int_Tables_number   1
_chemical_formula_structural   Li5Co3(NiO5)2
_chemical_formula_sum   'Li5 Co3 Ni2 O10'
_cell_volume   166.32662574
_cell_formula_units_Z   1
loop_
 _symmetry_equiv_pos_site_id
 _symmetry_equiv_pos_as_xyz
  1  'x, y, z'
loop_
 _atom_site_type_symbol
 _atom_site_label
 _atom_site_symmetry_multiplicity
 _atom_site_fract_x
 _atom_site_fract_y
 _atom_site_fract_z
 _atom_site_occupancy
  Li  Li0  1  0.79465500  0.50758800  0.41453300  1
  Li  Li1  1  0.61254000  0.50758300  0.77657200  1
  Li  Li2  1  0.00000000  0.00000000  0.50000000  1
  Li  Li3  1  0.38746000  0.49241700  0.22342800  1
  Li  Li4  1  0.20534500  0.49241200  0.58546700  1
  Co  Co0  1  0.00000000  0.50000000  0.00000000  1
  Co  Co1  1  0.80012200  0.99749900  0.90004800  1
  Co  Co2  1  0.19987800  0.00250100  0.09995200  1
  Ni  Ni0  1  0.40735200  0.00215600  0.69326700  1
  Ni  Ni1  1  0.59264800  0.99784400  0.30673300  1
  O  O0  1  0.16805300  0.24974900  0.87166200  1
  O  O1  1  0.38268500  0.77881900  0.94968200  1
  O  O2  1  0.58998100  0.76327800  0.54226400  1
  O  O3  1  0.00036700  0.23020600  0.22926700  1
  O  O4  1  0.77884000  0.23003700  0.66768900  1
  O  O5  1  0.22116000  0.76996300  0.33231100  1
  O  O6  1  0.99963300  0.76979400  0.77073300  1
  O  O7  1  0.41001900  0.23672200  0.45773600  1
  O  O8  1  0.61731500  0.22118100  0.05031800  1
  O  O9  1  0.83194700  0.75025100  0.12833800  1
loop_
_geom_bond_atom_site_label_1
_geom_bond_atom_site_label_2
_geom_bond_distance
_geom_bond_site_symmetry_2
Li0 O2 1.953057 1_555
Li0 O3 2.231399 1_655
Li0 O7 2.233302 1_555
Li0 Ni1 2.370849 1_545
Li1 O4 1.836739 1_555
Li1 O6 2.094683 1_555
Li1 O1 2.252293 1_555
Li1 Ni0 2.370662 1_555
Li2 O5 2.092279 1_545
Li2 O4 2.092279 1_455
Li2 Ni0 2.193752 1_555
Li2 Ni1 2.193752 1_445
Li2 O2 2.252968 1_445
Li2 O7 2.252968 1_555
Li3 O5 1.836739 1_555
Li3 O3 2.094683 1_555
Li3 O8 2.252293 1_555
Li3 Ni1 2.370662 1_555
Li4 O7 1.953057 1_555
Li4 O6 2.231399 1_455
Li4 O2 2.233302 1_555
Li4 Ni0 2.370849 1_565
Co0 O9 1.806432 1_455
Co0 O0 1.806432 1_554
Co0 O1 2.273238 1_554
Co0 O8 2.273238 1_455
Co1 O6 1.855521 1_555
Co1 O8 1.863003 1_566
Co1 O0 2.072613 1_665
Co1 Ni0 2.204035 1_565
Co1 O1 2.277089 1_555
Co2 O3 1.855521 1_555
Co2 O1 1.863003 1_544
Co2 O9 2.072613 1_445
Co2 Ni1 2.204035 1_545
Co2 O8 2.277089 1_555
Ni0 O2 1.906401 1_545
Ni0 O4 2.022999 1_555
Ni0 O0 2.247832 1_555
Ni0 O6 2.376026 1_445
Ni0 O7 2.395705 1_555
Ni0 O8 2.485572 1_556
Ni0 O5 2.508741 1_545
Ni0 O1 2.509513 1_545
Ni1 O7 1.906401 1_565
Ni1 O5 2.022999 1_555
Ni1 O9 2.247832 1_555
Ni1 O3 2.376026 1_665
Ni1 O2 2.395705 1_555
Ni1 O1 2.485572 1_554
Ni1 O4 2.508741 1_565
Ni1 O8 2.509513 1_565
