# generated using pymatgen
data_Cr8Ga3CuSe16
_symmetry_space_group_name_H-M   'P 1'
_cell_length_a   7.53115000
_cell_length_b   7.53115000
_cell_length_c   10.62108000
_cell_angle_alpha   90.00000000
_cell_angle_beta   90.00000000
_cell_angle_gamma   90.00000000
_symmetry_Int_Tables_number   1
_chemical_formula_structural   Cr8Ga3CuSe16
_chemical_formula_sum   'Cr8 Ga3 Cu1 Se16'
_cell_volume   602.40875550
_cell_formula_units_Z   1
loop_
 _symmetry_equiv_pos_site_id
 _symmetry_equiv_pos_as_xyz
  1  'x, y, z'
loop_
 _atom_site_type_symbol
 _atom_site_label
 _atom_site_symmetry_multiplicity
 _atom_site_fract_x
 _atom_site_fract_y
 _atom_site_fract_z
 _atom_site_occupancy
  Cr  Cr0  1  0.74309700  0.00000000  0.62589800  1
  Cr  Cr1  1  0.24938600  0.50000000  0.12789900  1
  Cr  Cr2  1  0.25690300  0.00000000  0.62589800  1
  Cr  Cr3  1  0.75061400  0.50000000  0.12789900  1
  Cr  Cr4  1  0.00000000  0.25690300  0.37410200  1
  Cr  Cr5  1  0.50000000  0.75061400  0.87210100  1
  Cr  Cr6  1  0.50000000  0.24938600  0.87210100  1
  Cr  Cr7  1  0.00000000  0.74309700  0.37410200  1
  Ga  Ga0  1  0.00000000  0.00000000  0.00000000  1
  Ga  Ga1  1  0.50000000  0.00000000  0.25136700  1
  Ga  Ga2  1  0.00000000  0.50000000  0.74863300  1
  Cu  Cu0  1  0.50000000  0.50000000  0.50000000  1
  Se  Se0  1  0.76780300  0.50000000  0.36619400  1
  Se  Se1  1  0.27335900  0.00000000  0.86453300  1
  Se  Se2  1  0.23219700  0.50000000  0.36619400  1
  Se  Se3  1  0.72664100  0.00000000  0.86453300  1
  Se  Se4  1  0.50000000  0.23219700  0.63380600  1
  Se  Se5  1  0.00000000  0.72664100  0.13546700  1
  Se  Se6  1  0.50000000  0.76780300  0.63380600  1
  Se  Se7  1  0.00000000  0.27335900  0.13546700  1
  Se  Se8  1  0.22719800  0.00000000  0.38636100  1
  Se  Se9  1  0.72689200  0.50000000  0.88564300  1
  Se  Se10  1  0.77280200  0.00000000  0.38636100  1
  Se  Se11  1  0.27310800  0.50000000  0.88564300  1
  Se  Se12  1  0.50000000  0.27310800  0.11435700  1
  Se  Se13  1  0.00000000  0.77280200  0.61363900  1
  Se  Se14  1  0.50000000  0.72689200  0.11435700  1
  Se  Se15  1  0.00000000  0.22719800  0.61363900  1
loop_
_geom_bond_atom_site_label_1
_geom_bond_atom_site_label_2
_geom_bond_distance
_geom_bond_site_symmetry_2
Cr0 Se4 2.533154 1_555
Cr0 Se6 2.533154 1_545
Cr0 Se3 2.537590 1_555
Cr0 Se10 2.553959 1_555
Cr0 Se15 2.586125 1_655
Cr0 Se13 2.586125 1_645
Cr1 Se2 2.534259 1_555
Cr1 Se5 2.539164 1_555
Cr1 Se7 2.539164 1_555
Cr1 Se14 2.550071 1_555
Cr1 Se12 2.550071 1_555
Cr1 Se11 2.579215 1_554
Cr2 Se4 2.533154 1_555
Cr2 Se6 2.533154 1_545
Cr2 Se1 2.537590 1_555
Cr2 Se8 2.553959 1_555
Cr2 Se15 2.586125 1_555
Cr2 Se13 2.586125 1_545
Cr3 Se0 2.534259 1_555
Cr3 Se5 2.539164 1_655
Cr3 Se7 2.539164 1_655
Cr3 Se14 2.550071 1_555
Cr3 Se12 2.550071 1_555
Cr3 Se9 2.579215 1_554
Cr4 Se2 2.533154 1_555
Cr4 Se0 2.533154 1_455
Cr4 Se7 2.537590 1_555
Cr4 Se15 2.553959 1_555
Cr4 Se8 2.586125 1_555
Cr4 Se10 2.586125 1_455
Cr5 Se6 2.534259 1_555
Cr5 Se3 2.539164 1_565
Cr5 Se1 2.539164 1_565
Cr5 Se9 2.550071 1_555
Cr5 Se11 2.550071 1_555
Cr5 Se14 2.579215 1_556
Cr6 Se4 2.534259 1_555
Cr6 Se3 2.539164 1_555
Cr6 Se1 2.539164 1_555
Cr6 Se9 2.550071 1_555
Cr6 Se11 2.550071 1_555
Cr6 Se12 2.579215 1_556
Cr7 Se2 2.533154 1_555
Cr7 Se0 2.533154 1_455
Cr7 Se5 2.537590 1_555
Cr7 Se13 2.553959 1_555
Cr7 Se8 2.586125 1_565
Cr7 Se10 2.586125 1_465
Ga0 Se7 2.511661 1_555
Ga0 Se1 2.511661 1_554
Ga0 Se3 2.511661 1_454
Ga0 Se5 2.511661 1_545
Ga1 Se10 2.505345 1_555
Ga1 Se8 2.505345 1_555
Ga1 Se12 2.519541 1_555
Ga1 Se14 2.519541 1_545
Ga2 Se13 2.505345 1_555
Ga2 Se15 2.505345 1_555
Ga2 Se11 2.519541 1_555
Ga2 Se9 2.519541 1_455
Cu0 Se4 2.467276 1_555
Cu0 Se6 2.467276 1_555
Cu0 Se0 2.467276 1_555
Cu0 Se2 2.467276 1_555
