# generated using pymatgen
data_RbBi2Br7
_symmetry_space_group_name_H-M   'P 1'
_cell_length_a   7.63631944
_cell_length_b   9.68511508
_cell_length_c   10.55409619
_cell_angle_alpha   75.90714920
_cell_angle_beta   84.17893220
_cell_angle_gamma   76.78787713
_symmetry_Int_Tables_number   1
_chemical_formula_structural   RbBi2Br7
_chemical_formula_sum   'Rb2 Bi4 Br14'
_cell_volume   736.16764598
_cell_formula_units_Z   2
loop_
 _symmetry_equiv_pos_site_id
 _symmetry_equiv_pos_as_xyz
  1  'x, y, z'
loop_
 _atom_site_type_symbol
 _atom_site_label
 _atom_site_symmetry_multiplicity
 _atom_site_fract_x
 _atom_site_fract_y
 _atom_site_fract_z
 _atom_site_occupancy
  Rb  Rb0  1  0.38590995  0.86583176  0.30082005  1
  Rb  Rb1  1  0.61409005  0.13416824  0.69917995  1
  Bi  Bi0  1  0.87176915  0.64253242  0.62257066  1
  Bi  Bi1  1  0.12823085  0.35746758  0.37742934  1
  Bi  Bi2  1  0.30998080  0.70410164  0.93490410  1
  Bi  Bi3  1  0.69001920  0.29589836  0.06509590  1
  Br  Br0  1  0.87273710  0.87292078  0.42324157  1
  Br  Br1  1  0.12726290  0.12707922  0.57675843  1
  Br  Br2  1  0.96351074  0.79425281  0.79513633  1
  Br  Br3  1  0.03648926  0.20574719  0.20486367  1
  Br  Br4  1  0.50236880  0.77292457  0.66689355  1
  Br  Br5  1  0.49763120  0.22707543  0.33310645  1
  Br  Br6  1  0.75753164  0.48328500  0.45104378  1
  Br  Br7  1  0.24246836  0.51671500  0.54895622  1
  Br  Br8  1  0.88735796  0.34553738  0.82984732  1
  Br  Br9  1  0.11264204  0.65446262  0.17015268  1
  Br  Br10  1  0.27697953  0.98229457  0.94581681  1
  Br  Br11  1  0.72302047  0.01770543  0.05418319  1
  Br  Br12  1  0.62629380  0.62470597  0.06942225  1
  Br  Br13  1  0.37370620  0.37529403  0.93057775  1
loop_
_geom_bond_atom_site_label_1
_geom_bond_atom_site_label_2
_geom_bond_distance
_geom_bond_site_symmetry_2
Bi0 Br0 2.668900 1_555
Bi0 Br2 2.828381 1_555
Bi0 Br4 2.857012 1_555
Bi0 Br7 2.922318 1_655
Bi0 Br6 2.951625 1_555
Bi0 Br8 3.147318 1_555
Bi1 Br1 2.668900 1_555
Bi1 Br3 2.828381 1_555
Bi1 Br5 2.857012 1_555
Bi1 Br6 2.922318 1_455
Bi1 Br7 2.951625 1_555
Bi1 Br9 3.147318 1_555
Bi2 Br10 2.677881 1_555
Bi2 Br9 2.767204 1_556
Bi2 Br12 2.785013 1_556
Bi2 Br2 3.007795 1_455
Bi2 Br4 3.047983 1_555
Bi2 Br13 3.120594 1_555
Bi3 Br11 2.677881 1_555
Bi3 Br8 2.767204 1_554
Bi3 Br13 2.785013 1_554
Bi3 Br3 3.007795 1_655
Bi3 Br5 3.047983 1_555
Bi3 Br12 3.120594 1_555
Br0 Rb0 3.990475 1_655
Br0 Rb0 4.077819 1_555
Br1 Rb1 3.990475 1_455
Br1 Rb1 4.077819 1_555
Br2 Rb1 3.727266 1_565
Br3 Rb0 3.727266 1_545
Br4 Rb1 3.884423 1_565
Br4 Rb0 3.894344 1_555
Br5 Rb0 3.884423 1_545
Br5 Rb1 3.894344 1_555
Br6 Rb1 4.036068 1_555
Br7 Rb0 4.036068 1_555
Br8 Rb1 3.789262 1_555
Br9 Rb0 3.789262 1_555
Br10 Rb1 3.751443 1_565
Br10 Rb0 3.761314 1_556
Br11 Rb0 3.751443 1_545
Br11 Rb1 3.761314 1_554
Br12 Rb0 3.833564 1_555
Br13 Rb1 3.833564 1_555
