# generated using pymatgen
data_BaCe2ZnS5
_symmetry_space_group_name_H-M   'P 1'
_cell_length_a   8.84148660
_cell_length_b   8.84148660
_cell_length_c   8.84148660
_cell_angle_alpha   127.13632429
_cell_angle_beta   127.13632429
_cell_angle_gamma   78.02838760
_symmetry_Int_Tables_number   1
_chemical_formula_structural   BaCe2ZnS5
_chemical_formula_sum   'Ba2 Ce4 Zn2 S10'
_cell_volume   425.62838521
_cell_formula_units_Z   2
loop_
 _symmetry_equiv_pos_site_id
 _symmetry_equiv_pos_as_xyz
  1  'x, y, z'
loop_
 _atom_site_type_symbol
 _atom_site_label
 _atom_site_symmetry_multiplicity
 _atom_site_fract_x
 _atom_site_fract_y
 _atom_site_fract_z
 _atom_site_occupancy
  Ba  Ba0  1  0.25000000  0.25000000  0.00000000  1
  Ba  Ba1  1  0.75000000  0.75000000  0.00000000  1
  Ce  Ce0  1  0.34082400  0.15917600  0.50000000  1
  Ce  Ce1  1  0.15917600  0.65917600  0.81835100  1
  Ce  Ce2  1  0.84082400  0.34082400  0.18164900  1
  Ce  Ce3  1  0.65917600  0.84082400  0.50000000  1
  Zn  Zn0  1  0.75000000  0.25000000  0.50000000  1
  Zn  Zn1  1  0.25000000  0.75000000  0.50000000  1
  S  S0  1  0.48329000  0.98329000  0.19916800  1
  S  S1  1  0.21587800  0.71587800  0.19916800  1
  S  S2  1  0.51671000  0.01671000  0.80083200  1
  S  S3  1  0.01671000  0.21587800  0.50000000  1
  S  S4  1  0.71587800  0.51671000  0.50000000  1
  S  S5  1  0.98329000  0.78412200  0.50000000  1
  S  S6  1  0.28412200  0.48329000  0.50000000  1
  S  S7  1  0.78412200  0.28412200  0.80083200  1
  S  S8  1  0.50000000  0.50000000  0.00000000  1
  S  S9  1  0.00000000  0.00000000  0.00000000  1
loop_
_geom_bond_atom_site_label_1
_geom_bond_atom_site_label_2
_geom_bond_distance
_geom_bond_site_symmetry_2
Ba0 S2 3.395069 1_554
Ba0 S6 3.395069 1_555
Ba0 S5 3.395069 1_444
Ba0 S3 3.395069 1_554
Ba0 S7 3.395069 1_454
Ba0 S4 3.395069 1_555
Ba0 S0 3.395069 1_545
Ba0 S1 3.395069 1_555
Ba0 S8 3.434874 1_555
Ba0 S9 3.434874 1_555
Ba1 S3 3.395069 1_665
Ba1 S2 3.395069 1_564
Ba1 S6 3.395069 1_554
Ba1 S0 3.395069 1_555
Ba1 S7 3.395069 1_554
Ba1 S4 3.395069 1_554
Ba1 S1 3.395069 1_655
Ba1 S5 3.395069 1_555
Ba1 S8 3.434874 1_555
Ba1 S9 3.434874 1_665
Ce0 S3 2.804868 1_555
Ce0 S6 2.804868 1_555
Ce0 S8 2.960875 1_556
Ce0 S9 2.960875 1_555
Ce0 S7 3.052526 1_555
Ce0 S2 3.052526 1_555
Ce0 S1 3.052526 1_545
Ce0 S0 3.052526 1_545
Ce1 S0 2.804868 1_556
Ce1 S1 2.804877 1_556
Ce1 S9 2.960877 1_566
Ce1 S8 2.960877 1_556
Ce1 S5 3.052519 1_455
Ce1 S6 3.052519 1_555
Ce1 S3 3.052527 1_555
Ce1 S4 3.052527 1_455
Ce2 S2 2.804868 1_554
Ce2 S7 2.804877 1_554
Ce2 S9 2.960877 1_655
Ce2 S8 2.960877 1_555
Ce2 S3 3.052519 1_655
Ce2 S4 3.052519 1_555
Ce2 S6 3.052527 1_655
Ce2 S5 3.052527 1_555
Ce3 S4 2.804868 1_555
Ce3 S5 2.804868 1_555
Ce3 S8 2.960875 1_555
Ce3 S9 2.960875 1_666
Ce3 S1 3.052526 1_555
Ce3 S7 3.052526 1_565
Ce3 S0 3.052526 1_555
Ce3 S2 3.052526 1_565
S0 Zn0 2.314428 1_565
S1 Zn1 2.314428 1_555
S2 Zn1 2.314428 1_545
S3 Zn0 2.314428 1_455
S4 Zn0 2.314428 1_555
S5 Zn1 2.314428 1_655
S6 Zn1 2.314428 1_555
S7 Zn0 2.314428 1_555
