# generated using pymatgen
data_YNiGe
_symmetry_space_group_name_H-M   'P 1'
_cell_length_a   4.20570381
_cell_length_b   6.92176376
_cell_length_c   7.25281135
_cell_angle_alpha   90.00000000
_cell_angle_beta   90.00000000
_cell_angle_gamma   90.00000000
_symmetry_Int_Tables_number   1
_chemical_formula_structural   YNiGe
_chemical_formula_sum   'Y4 Ni4 Ge4'
_cell_volume   211.13578047
_cell_formula_units_Z   4
loop_
 _symmetry_equiv_pos_site_id
 _symmetry_equiv_pos_as_xyz
  1  'x, y, z'
loop_
 _atom_site_type_symbol
 _atom_site_label
 _atom_site_symmetry_multiplicity
 _atom_site_fract_x
 _atom_site_fract_y
 _atom_site_fract_z
 _atom_site_occupancy
  Y  Y0  1  0.25000000  0.00761516  0.79277041  1
  Y  Y1  1  0.25000000  0.50761516  0.70722959  1
  Y  Y2  1  0.75000000  0.99237266  0.20719702  1
  Y  Y3  1  0.75000000  0.49237266  0.29280298  1
  Ni  Ni0  1  0.25000000  0.80864715  0.41930099  1
  Ni  Ni1  1  0.25000000  0.30864715  0.08069901  1
  Ni  Ni2  1  0.75000000  0.19137489  0.58062320  1
  Ni  Ni3  1  0.75000000  0.69137489  0.91937680  1
  Ge  Ge0  1  0.25000000  0.19760230  0.41137661  1
  Ge  Ge1  1  0.25000000  0.69760230  0.08862339  1
  Ge  Ge2  1  0.75000000  0.80238785  0.58859519  1
  Ge  Ge3  1  0.75000000  0.30238785  0.91140481  1
loop_
_geom_bond_atom_site_label_1
_geom_bond_atom_site_label_2
_geom_bond_distance
_geom_bond_site_symmetry_2
Ni0 Y2 2.899265 1_455
Ni0 Y2 2.899265 1_555
Ni0 Y1 2.950026 1_555
Ni0 Y0 3.038713 1_565
Ni0 Y3 3.171156 1_455
Ni0 Y3 3.171156 1_555
Ni1 Y3 2.899265 1_555
Ni1 Y3 2.899265 1_455
Ni1 Y0 2.950026 1_554
Ni1 Y1 3.038713 1_554
Ni1 Y2 3.171156 1_545
Ni1 Y2 3.171156 1_445
Ni2 Y0 2.899536 1_655
Ni2 Y0 2.899536 1_555
Ni2 Y3 2.949302 1_555
Ni2 Y2 3.038541 1_545
Ni2 Y1 3.171220 1_555
Ni2 Y1 3.171220 1_655
Ni3 Y1 2.899536 1_555
Ni3 Y1 2.899536 1_655
Ni3 Y2 2.949302 1_556
Ni3 Y3 3.038541 1_556
Ni3 Y0 3.171220 1_565
Ni3 Y0 3.171220 1_665
Ge0 Ni2 2.435289 1_455
Ge0 Ni2 2.435289 1_555
Ge0 Ni1 2.518498 1_555
Ge0 Ni0 2.692869 1_545
Ge0 Y2 2.938187 1_545
Ge0 Y2 2.938187 1_445
Ge0 Y1 3.034621 1_555
Ge0 Y3 3.053608 1_455
Ge0 Y3 3.053608 1_555
Ge0 Y0 3.062855 1_555
Ge1 Ni3 2.435289 1_454
Ge1 Ni3 2.435289 1_554
Ge1 Ni0 2.518498 1_555
Ge1 Ni1 2.692869 1_555
Ge1 Y3 2.938187 1_455
Ge1 Y3 2.938187 1_555
Ge1 Y0 3.034621 1_564
Ge1 Y2 3.053608 1_455
Ge1 Y2 3.053608 1_555
Ge1 Y1 3.062855 1_554
Ge2 Ni0 2.435467 1_655
Ge2 Ni0 2.435467 1_555
Ge2 Ni3 2.519149 1_555
Ge2 Ni2 2.693097 1_565
Ge2 Y0 2.938164 1_565
Ge2 Y0 2.938164 1_665
Ge2 Y3 3.034320 1_555
Ge2 Y1 3.053743 1_555
Ge2 Y1 3.053743 1_655
Ge2 Y2 3.062877 1_555
Ge3 Ni1 2.435467 1_656
Ge3 Ni1 2.435467 1_556
Ge3 Ni2 2.519149 1_555
Ge3 Ni3 2.693097 1_555
Ge3 Y1 2.938164 1_655
Ge3 Y1 2.938164 1_555
Ge3 Y2 3.034320 1_546
Ge3 Y0 3.053743 1_555
Ge3 Y0 3.053743 1_655
Ge3 Y3 3.062877 1_556
