# generated using pymatgen
data_Ca(BO4)2
_symmetry_space_group_name_H-M   'P 1'
_cell_length_a   5.61445600
_cell_length_b   7.88146700
_cell_length_c   12.77706800
_cell_angle_alpha   90.00000000
_cell_angle_beta   90.00000000
_cell_angle_gamma   90.00000000
_symmetry_Int_Tables_number   1
_chemical_formula_structural   Ca(BO4)2
_chemical_formula_sum   'Ca4 B8 O32'
_cell_volume   565.38717156
_cell_formula_units_Z   4
loop_
 _symmetry_equiv_pos_site_id
 _symmetry_equiv_pos_as_xyz
  1  'x, y, z'
loop_
 _atom_site_type_symbol
 _atom_site_label
 _atom_site_symmetry_multiplicity
 _atom_site_fract_x
 _atom_site_fract_y
 _atom_site_fract_z
 _atom_site_occupancy
  Ca  Ca0  1  0.00000000  0.00000000  0.72060100  1
  Ca  Ca1  1  0.00000000  0.00000000  0.27939900  1
  Ca  Ca2  1  0.00000000  0.50000000  0.77939900  1
  Ca  Ca3  1  0.00000000  0.50000000  0.22060100  1
  B  B0  1  0.71593400  0.20831400  0.89239200  1
  B  B1  1  0.71593400  0.79168600  0.10760800  1
  B  B2  1  0.28406600  0.20831400  0.10760800  1
  B  B3  1  0.28406600  0.79168600  0.89239200  1
  B  B4  1  0.28406600  0.29168600  0.60760800  1
  B  B5  1  0.28406600  0.70831400  0.39239200  1
  B  B6  1  0.71593400  0.29168600  0.39239200  1
  B  B7  1  0.71593400  0.70831400  0.60760800  1
  O  O0  1  0.96934300  0.19020900  0.87859800  1
  O  O1  1  0.96934300  0.80979100  0.12140200  1
  O  O2  1  0.03065700  0.19020900  0.12140200  1
  O  O3  1  0.03065700  0.80979100  0.87859800  1
  O  O4  1  0.03065700  0.30979100  0.62140200  1
  O  O5  1  0.03065700  0.69020900  0.37859800  1
  O  O6  1  0.96934300  0.30979100  0.37859800  1
  O  O7  1  0.96934300  0.69020900  0.62140200  1
  O  O8  1  0.62023600  0.14438800  0.00092000  1
  O  O9  1  0.62023600  0.85561200  0.99908000  1
  O  O10  1  0.37976400  0.14438800  0.99908000  1
  O  O11  1  0.37976400  0.85561200  0.00092000  1
  O  O12  1  0.37976400  0.35561200  0.49908000  1
  O  O13  1  0.37976400  0.64438800  0.50092000  1
  O  O14  1  0.62023600  0.35561200  0.50092000  1
  O  O15  1  0.62023600  0.64438800  0.49908000  1
  O  O16  1  0.62986300  0.11990400  0.80392400  1
  O  O17  1  0.62986300  0.88009600  0.19607600  1
  O  O18  1  0.37013700  0.11990400  0.19607600  1
  O  O19  1  0.37013700  0.88009600  0.80392400  1
  O  O20  1  0.37013700  0.38009600  0.69607600  1
  O  O21  1  0.37013700  0.61990400  0.30392400  1
  O  O22  1  0.62986300  0.38009600  0.30392400  1
  O  O23  1  0.62986300  0.61990400  0.69607600  1
  O  O24  1  0.70571200  0.38784900  0.88988100  1
  O  O25  1  0.70571200  0.61215100  0.11011900  1
  O  O26  1  0.29428800  0.38784900  0.11011900  1
  O  O27  1  0.29428800  0.61215100  0.88988100  1
  O  O28  1  0.29428800  0.11215100  0.61011900  1
  O  O29  1  0.29428800  0.88784900  0.38988100  1
  O  O30  1  0.70571200  0.11215100  0.38988100  1
  O  O31  1  0.70571200  0.88784900  0.61011900  1
loop_
_geom_bond_atom_site_label_1
_geom_bond_atom_site_label_2
_geom_bond_distance
_geom_bond_site_symmetry_2
Ca0 O31 2.346062 1_445
Ca0 O28 2.346062 1_555
Ca0 O19 2.518940 1_545
Ca0 O16 2.518940 1_455
Ca0 O0 2.520379 1_455
Ca0 O3 2.520379 1_545
Ca0 O4 2.756367 1_555
Ca0 O7 2.756367 1_445
Ca1 O30 2.346062 1_455
Ca1 O29 2.346062 1_545
Ca1 O18 2.518940 1_555
Ca1 O17 2.518940 1_445
Ca1 O2 2.520379 1_555
Ca1 O1 2.520379 1_445
Ca1 O6 2.756367 1_455
Ca1 O5 2.756367 1_545
Ca2 O24 2.346062 1_455
Ca2 O27 2.346062 1_555
Ca2 O20 2.518940 1_555
Ca2 O23 2.518940 1_455
Ca2 O7 2.520379 1_455
Ca2 O4 2.520379 1_555
Ca2 O3 2.756367 1_555
Ca2 O0 2.756367 1_455
Ca3 O26 2.346062 1_555
Ca3 O25 2.346062 1_455
Ca3 O21 2.518940 1_555
Ca3 O22 2.518940 1_455
Ca3 O6 2.520379 1_455
Ca3 O5 2.520379 1_555
Ca3 O1 2.756367 1_455
Ca3 O2 2.756367 1_555
B0 O16 1.413072 1_555
B0 O24 1.416526 1_555
B0 O0 1.440713 1_555
B0 O8 1.570153 1_556
B1 O17 1.413072 1_555
B1 O25 1.416526 1_555
B1 O1 1.440713 1_555
B1 O9 1.570153 1_554
B2 O18 1.413072 1_555
B2 O26 1.416526 1_555
B2 O2 1.440713 1_555
B2 O10 1.570153 1_554
B3 O19 1.413072 1_555
B3 O27 1.416526 1_555
B3 O3 1.440713 1_555
B3 O11 1.570153 1_556
B4 O20 1.413072 1_555
B4 O28 1.416526 1_555
B4 O4 1.440713 1_555
B4 O12 1.570153 1_555
B5 O21 1.413072 1_555
B5 O29 1.416526 1_555
B5 O5 1.440713 1_555
B5 O13 1.570153 1_555
B6 O22 1.413072 1_555
B6 O30 1.416526 1_555
B6 O6 1.440713 1_555
B6 O14 1.570153 1_555
B7 O23 1.413072 1_555
B7 O31 1.416526 1_555
B7 O7 1.440713 1_555
B7 O15 1.570153 1_555
O10 O8 1.350324 1_556
O11 O9 1.350324 1_554
O12 O14 1.350324 1_555
O13 O15 1.350324 1_555
