# generated using pymatgen
data_Pr2CdAu2
_symmetry_space_group_name_H-M   'P 1'
_cell_length_a   8.06335285
_cell_length_b   8.06335285
_cell_length_c   3.96744555
_cell_angle_alpha   90.00000000
_cell_angle_beta   90.00000000
_cell_angle_gamma   90.00000000
_symmetry_Int_Tables_number   1
_chemical_formula_structural   Pr2CdAu2
_chemical_formula_sum   'Pr4 Cd2 Au4'
_cell_volume   257.95402260
_cell_formula_units_Z   2
loop_
 _symmetry_equiv_pos_site_id
 _symmetry_equiv_pos_as_xyz
  1  'x, y, z'
loop_
 _atom_site_type_symbol
 _atom_site_label
 _atom_site_symmetry_multiplicity
 _atom_site_fract_x
 _atom_site_fract_y
 _atom_site_fract_z
 _atom_site_occupancy
  Pr  Pr0  1  0.67215934  0.17215934  0.50000000  1
  Pr  Pr1  1  0.32784066  0.82784066  0.50000000  1
  Pr  Pr2  1  0.17215934  0.32784066  0.50000000  1
  Pr  Pr3  1  0.82784066  0.67215934  0.50000000  1
  Cd  Cd0  1  0.00000000  -0.00000000  0.00000000  1
  Cd  Cd1  1  0.50000000  0.50000000  0.00000000  1
  Au  Au0  1  0.12811977  0.62811977  0.00000000  1
  Au  Au1  1  0.87188023  0.37188023  -0.00000000  1
  Au  Au2  1  0.62811977  0.87188023  0.00000000  1
  Au  Au3  1  0.37188023  0.12811977  -0.00000000  1
loop_
_geom_bond_atom_site_label_1
_geom_bond_atom_site_label_2
_geom_bond_distance
_geom_bond_site_symmetry_2
Cd0 Pr1 3.584727 1_545
Cd0 Pr0 3.584727 1_455
Cd0 Pr2 3.584727 1_554
Cd0 Pr1 3.584727 1_544
Cd0 Pr3 3.584727 1_444
Cd0 Pr0 3.584727 1_454
Cd0 Pr2 3.584727 1_555
Cd0 Pr3 3.584727 1_445
Cd1 Pr3 3.584727 1_554
Cd1 Pr2 3.584727 1_554
Cd1 Pr1 3.584727 1_555
Cd1 Pr0 3.584727 1_555
Cd1 Pr0 3.584727 1_554
Cd1 Pr3 3.584727 1_555
Cd1 Pr1 3.584727 1_554
Cd1 Pr2 3.584727 1_555
Au0 Au1 2.921977 1_455
Au0 Pr1 3.020275 1_554
Au0 Pr1 3.020275 1_555
Au0 Pr2 3.150197 1_555
Au0 Pr2 3.150197 1_554
Au0 Pr3 3.150197 1_455
Au0 Pr3 3.150197 1_454
Au0 Cd1 3.171570 1_555
Au0 Cd0 3.171570 1_565
Au1 Pr0 3.020275 1_555
Au1 Pr0 3.020275 1_554
Au1 Pr2 3.150197 1_655
Au1 Pr2 3.150197 1_654
Au1 Pr3 3.150197 1_555
Au1 Pr3 3.150197 1_554
Au1 Cd0 3.171570 1_655
Au1 Cd1 3.171570 1_555
Au2 Au3 2.921977 1_565
Au2 Pr3 3.020275 1_554
Au2 Pr3 3.020275 1_555
Au2 Pr0 3.150197 1_565
Au2 Pr0 3.150197 1_564
Au2 Pr1 3.150197 1_555
Au2 Pr1 3.150197 1_554
Au2 Cd1 3.171570 1_555
Au2 Cd0 3.171570 1_665
Au3 Pr2 3.020275 1_555
Au3 Pr2 3.020275 1_554
Au3 Pr0 3.150197 1_554
Au3 Pr0 3.150197 1_555
Au3 Pr1 3.150197 1_545
Au3 Pr1 3.150197 1_544
Au3 Cd1 3.171570 1_555
Au3 Cd0 3.171570 1_555
