# generated using pymatgen
data_CrAu
_symmetry_space_group_name_H-M   'P 1'
_cell_length_a   9.37181728
_cell_length_b   9.37181728
_cell_length_c   9.37181747
_cell_angle_alpha   36.82364046
_cell_angle_beta   36.82364046
_cell_angle_gamma   36.82364542
_symmetry_Int_Tables_number   1
_chemical_formula_structural   CrAu
_chemical_formula_sum   'Cr8 Au8'
_cell_volume   264.86003204
_cell_formula_units_Z   8
loop_
 _symmetry_equiv_pos_site_id
 _symmetry_equiv_pos_as_xyz
  1  'x, y, z'
loop_
 _atom_site_type_symbol
 _atom_site_label
 _atom_site_symmetry_multiplicity
 _atom_site_fract_x
 _atom_site_fract_y
 _atom_site_fract_z
 _atom_site_occupancy
  Cr  Cr0_0  1  0.25000000  0.25000000  0.25000000  1
  Cr  Cr0_1  1  0.25000000  0.25000000  0.75000000  1
  Cr  Cr0_2  1  0.25000000  0.75000000  0.25000000  1
  Cr  Cr0_3  1  0.25000000  0.75000000  0.75000000  1
  Cr  Cr0_4  1  0.75000000  0.25000000  0.25000000  1
  Cr  Cr0_5  1  0.75000000  0.25000000  0.75000000  1
  Cr  Cr0_6  1  0.75000000  0.75000000  0.25000000  1
  Cr  Cr0_7  1  0.75000000  0.75000000  0.75000000  1
  Au  Au0_0  1  0.00000000  0.00000000  0.00000000  1
  Au  Au0_1  1  0.00000000  0.00000000  0.50000000  1
  Au  Au0_2  1  0.00000000  0.50000000  0.00000000  1
  Au  Au0_3  1  1.00000000  0.50000000  0.50000000  1
  Au  Au0_4  1  0.50000000  0.00000000  0.00000000  1
  Au  Au0_5  1  0.50000000  1.00000000  0.50000000  1
  Au  Au0_6  1  0.50000000  0.50000000  0.00000000  1
  Au  Au0_7  1  0.50000000  0.50000000  0.50000000  1
loop_
_geom_bond_atom_site_label_1
_geom_bond_atom_site_label_2
_geom_bond_distance
_geom_bond_site_symmetry_2
Cr0_0 Cr0_3 2.960040 1_545
Cr0_0 Cr0_5 2.960040 1_554
Cr0_0 Cr0_3 2.960040 1_554
Cr0_0 Cr0_5 2.960040 1_455
Cr0_0 Cr0_6 2.960040 1_545
Cr0_0 Cr0_6 2.960040 1_455
Cr0_1 Cr0_2 2.960040 1_546
Cr0_1 Cr0_4 2.960040 1_456
Cr0_1 Cr0_4 2.960040 1_555
Cr0_1 Cr0_2 2.960040 1_555
Cr0_1 Cr0_7 2.960040 1_545
Cr0_1 Cr0_7 2.960040 1_455
Cr0_2 Cr0_7 2.960040 1_554
Cr0_2 Cr0_7 2.960040 1_455
Cr0_2 Cr0_4 2.960040 1_465
Cr0_2 Cr0_4 2.960040 1_555
Cr0_3 Cr0_6 2.960040 1_456
Cr0_3 Cr0_6 2.960040 1_555
Cr0_3 Cr0_5 2.960040 1_465
Cr0_3 Cr0_5 2.960040 1_555
Cr0_4 Cr0_7 2.960040 1_554
Cr0_4 Cr0_7 2.960040 1_545
Cr0_5 Cr0_6 2.960040 1_546
Cr0_5 Cr0_6 2.960040 1_555
Au0_0 Cr0_6 2.771262 1_445
Au0_0 Cr0_1 2.771262 1_554
Au0_0 Cr0_3 2.771262 1_544
Au0_0 Cr0_2 2.771262 1_545
Au0_0 Cr0_4 2.771262 1_455
Au0_0 Cr0_5 2.771262 1_454
Au0_0 Au0_5 2.960040 1_544
Au0_0 Au0_3 2.960040 1_445
Au0_0 Au0_5 2.960040 1_445
Au0_0 Au0_3 2.960040 1_454
Au0_0 Au0_6 2.960040 1_545
Au0_0 Au0_6 2.960040 1_455
Au0_1 Cr0_0 2.771262 1_555
Au0_1 Cr0_7 2.771262 1_445
Au0_1 Cr0_2 2.771262 1_545
Au0_1 Cr0_4 2.771262 1_455
Au0_1 Cr0_5 2.771262 1_455
Au0_1 Cr0_3 2.771262 1_545
Au0_1 Au0_2 2.960040 1_555
Au0_1 Au0_4 2.960040 1_555
Au0_1 Au0_2 2.960040 1_546
Au0_1 Au0_4 2.960040 1_456
Au0_1 Au0_7 2.960040 1_455
Au0_1 Au0_7 2.960040 1_545
Au0_2 Cr0_4 2.771262 1_455
Au0_2 Cr0_3 2.771262 1_554
Au0_2 Cr0_0 2.771262 1_555
Au0_2 Cr0_1 2.771262 1_554
Au0_2 Cr0_7 2.771262 1_454
Au0_2 Cr0_6 2.771262 1_455
Au0_2 Au0_7 2.960040 1_455
Au0_2 Au0_7 2.960040 1_554
Au0_2 Au0_4 2.960040 1_465
Au0_2 Au0_4 2.960040 1_555
Au0_3 Cr0_5 2.771262 1_555
Au0_3 Cr0_2 2.771262 1_655
Au0_3 Cr0_6 2.771262 1_555
Au0_3 Cr0_0 2.771262 1_655
Au0_3 Cr0_1 2.771262 1_655
Au0_3 Cr0_7 2.771262 1_555
Au0_3 Au0_6 2.960040 1_556
Au0_3 Au0_6 2.960040 1_655
Au0_3 Au0_5 2.960040 1_555
Au0_3 Au0_5 2.960040 1_645
Au0_4 Cr0_5 2.771262 1_554
Au0_4 Cr0_2 2.771262 1_545
Au0_4 Cr0_0 2.771262 1_555
Au0_4 Cr0_7 2.771262 1_544
Au0_4 Cr0_6 2.771262 1_545
Au0_4 Cr0_1 2.771262 1_554
Au0_4 Au0_7 2.960040 1_545
Au0_4 Au0_7 2.960040 1_554
Au0_5 Cr0_3 2.771262 1_555
Au0_5 Cr0_4 2.771262 1_565
Au0_5 Cr0_6 2.771262 1_555
Au0_5 Cr0_0 2.771262 1_565
Au0_5 Cr0_7 2.771262 1_555
Au0_5 Cr0_1 2.771262 1_565
Au0_5 Au0_6 2.960040 1_556
Au0_5 Au0_6 2.960040 1_565
Au0_6 Cr0_0 2.771262 1_555
Au0_6 Cr0_7 2.771262 1_554
Au0_6 Cr0_3 2.771262 1_554
Au0_6 Cr0_4 2.771262 1_555
Au0_6 Cr0_5 2.771262 1_554
Au0_6 Cr0_2 2.771262 1_555
Au0_7 Cr0_1 2.771262 1_555
Au0_7 Cr0_6 2.771262 1_555
Au0_7 Cr0_4 2.771262 1_555
Au0_7 Cr0_2 2.771262 1_555
Au0_7 Cr0_5 2.771262 1_555
Au0_7 Cr0_3 2.771262 1_555
