# generated using pymatgen
data_Y2Co12As7
_symmetry_space_group_name_H-M   'P 1'
_cell_length_a   3.73794300
_cell_length_b   9.36142177
_cell_length_c   9.36142177
_cell_angle_alpha   119.99999836
_cell_angle_beta   90.00000000
_cell_angle_gamma   90.00000000
_symmetry_Int_Tables_number   1
_chemical_formula_structural   Y2Co12As7
_chemical_formula_sum   'Y2 Co12 As7'
_cell_volume   283.69190137
_cell_formula_units_Z   1
loop_
 _symmetry_equiv_pos_site_id
 _symmetry_equiv_pos_as_xyz
  1  'x, y, z'
loop_
 _atom_site_type_symbol
 _atom_site_label
 _atom_site_symmetry_multiplicity
 _atom_site_fract_x
 _atom_site_fract_y
 _atom_site_fract_z
 _atom_site_occupancy
  Y  Y0  1  0.00000000  0.66666700  0.33333300  1
  Y  Y1  1  0.50000000  0.33333300  0.66666700  1
  Co  Co0  1  0.00000000  0.56974400  0.94268100  1
  Co  Co1  1  0.00000000  0.37293700  0.43025600  1
  Co  Co2  1  0.00000000  0.05731900  0.62706300  1
  Co  Co3  1  0.50000000  0.77578100  0.90140600  1
  Co  Co4  1  0.50000000  0.12562500  0.22421900  1
  Co  Co5  1  0.50000000  0.09859400  0.87437500  1
  Co  Co6  1  0.00000000  0.88065200  0.15781200  1
  Co  Co7  1  0.00000000  0.27716000  0.11934800  1
  Co  Co8  1  0.00000000  0.84218800  0.72284000  1
  Co  Co9  1  0.50000000  0.95062900  0.38377400  1
  Co  Co10  1  0.50000000  0.43314400  0.04937100  1
  Co  Co11  1  0.50000000  0.61622600  0.56685600  1
  As  As0  1  0.00000000  0.00000000  0.00000000  1
  As  As1  1  0.50000000  0.71065800  0.11430800  1
  As  As2  1  0.50000000  0.40365000  0.28934200  1
  As  As3  1  0.50000000  0.88569200  0.59635000  1
  As  As4  1  0.00000000  0.59008300  0.70552500  1
  As  As5  1  0.00000000  0.11544200  0.40991700  1
  As  As6  1  0.00000000  0.29447500  0.88455800  1
loop_
_geom_bond_atom_site_label_1
_geom_bond_atom_site_label_2
_geom_bond_distance
_geom_bond_site_symmetry_2
Co0 Y1 3.057615 1_555
Co0 Y1 3.057615 1_455
Co0 Y0 3.298356 1_556
Co1 Y1 3.057619 1_555
Co1 Y1 3.057619 1_455
Co1 Y0 3.298365 1_555
Co2 Y1 3.057612 1_555
Co2 Y1 3.057612 1_455
Co2 Y0 3.298358 1_545
Co6 Y0 3.162943 1_555
Co7 Y0 3.162950 1_555
Co8 Y0 3.162951 1_555
Co9 Y0 3.086629 1_655
Co9 Y0 3.086629 1_555
Co9 Y1 3.218839 1_565
Co10 Y0 3.086634 1_655
Co10 Y0 3.086634 1_555
Co10 Y1 3.218839 1_554
Co11 Y0 3.086644 1_655
Co11 Y0 3.086644 1_555
Co11 Y1 3.218839 1_555
As0 Co6 2.254201 1_545
As0 Co7 2.254201 1_555
As0 Co8 2.254201 1_544
As0 Co5 2.610257 1_454
As0 Co5 2.610257 1_554
As0 Co3 2.610257 1_444
As0 Co3 2.610257 1_544
As0 Co4 2.610257 1_555
As0 Co4 2.610257 1_455
As1 Co10 2.353609 1_555
As1 Co6 2.354425 1_555
As1 Co6 2.354425 1_655
As1 Co3 2.357761 1_554
As1 Co0 2.386456 1_554
As1 Co0 2.386456 1_654
As1 Co9 2.396487 1_555
As1 Y0 2.951460 1_655
As1 Y0 2.951460 1_555
As2 Co11 2.353607 1_555
As2 Co7 2.354425 1_555
As2 Co7 2.354425 1_655
As2 Co4 2.357761 1_555
As2 Co1 2.386456 1_655
As2 Co1 2.386456 1_555
As2 Co10 2.396482 1_555
As2 Y0 2.951467 1_655
As2 Y0 2.951467 1_555
As3 Co9 2.353600 1_555
As3 Co8 2.354425 1_555
As3 Co8 2.354425 1_655
As3 Co5 2.357761 1_565
As3 Co2 2.386456 1_565
As3 Co2 2.386456 1_665
As3 Co11 2.396491 1_555
As3 Y0 2.951464 1_555
As3 Y0 2.951464 1_655
As4 Co8 2.283334 1_555
As4 Co0 2.321183 1_555
As4 Co1 2.352528 1_555
As4 Co11 2.357078 1_455
As4 Co11 2.357078 1_555
As4 Co3 2.586481 1_455
As4 Co3 2.586481 1_555
As4 Y1 2.920288 1_555
As4 Y1 2.920288 1_455
As5 Co6 2.283334 1_545
As5 Co1 2.321183 1_555
As5 Co2 2.352528 1_555
As5 Co9 2.357083 1_545
As5 Co9 2.357083 1_445
As5 Co4 2.586481 1_455
As5 Co4 2.586481 1_555
As5 Y1 2.920285 1_455
As5 Y1 2.920285 1_555
As6 Co7 2.283334 1_556
As6 Co2 2.321183 1_555
As6 Co0 2.352528 1_555
As6 Co10 2.357081 1_556
As6 Co10 2.357081 1_456
As6 Co5 2.586481 1_555
As6 Co5 2.586481 1_455
As6 Y1 2.920281 1_455
As6 Y1 2.920281 1_555
