# generated using pymatgen
data_Sr3Ca(SnO3)4
_symmetry_space_group_name_H-M   'P 1'
_cell_length_a   8.14365400
_cell_length_b   5.74771000
_cell_length_c   5.80273714
_cell_angle_alpha   89.95083773
_cell_angle_beta   90.00000000
_cell_angle_gamma   90.00000000
_symmetry_Int_Tables_number   1
_chemical_formula_structural   Sr3Ca(SnO3)4
_chemical_formula_sum   'Sr3 Ca1 Sn4 O12'
_cell_volume   271.61071502
_cell_formula_units_Z   1
loop_
 _symmetry_equiv_pos_site_id
 _symmetry_equiv_pos_as_xyz
  1  'x, y, z'
loop_
 _atom_site_type_symbol
 _atom_site_label
 _atom_site_symmetry_multiplicity
 _atom_site_fract_x
 _atom_site_fract_y
 _atom_site_fract_z
 _atom_site_occupancy
  Sr  Sr0  1  0.00000000  0.00546600  0.96730700  1
  Sr  Sr1  1  0.50000000  0.50785100  0.53062000  1
  Sr  Sr2  1  0.50000000  0.99076700  0.03700600  1
  Ca  Ca0  1  0.00000000  0.48945000  0.45333400  1
  Sn  Sn0  1  0.24770000  0.50036300  0.99852000  1
  Sn  Sn1  1  0.75274500  0.99907500  0.50035700  1
  Sn  Sn2  1  0.75230000  0.50036300  0.99852000  1
  Sn  Sn3  1  0.24725500  0.99907500  0.50035700  1
  O  O0  1  0.20627500  0.21525800  0.21623700  1
  O  O1  1  0.80017100  0.29521600  0.70555200  1
  O  O2  1  0.71040600  0.79209800  0.79025300  1
  O  O3  1  0.29111800  0.71290900  0.28553000  1
  O  O4  1  0.28959400  0.79209800  0.79025300  1
  O  O5  1  0.70888200  0.71290900  0.28553000  1
  O  O6  1  0.79372500  0.21525800  0.21623700  1
  O  O7  1  0.19982900  0.29521600  0.70555200  1
  O  O8  1  0.00000000  0.57662000  0.03766100  1
  O  O9  1  0.00000000  0.90171600  0.51865400  1
  O  O10  1  0.50000000  0.42227000  0.97811500  1
  O  O11  1  0.50000000  0.07602100  0.48440600  1
loop_
_geom_bond_atom_site_label_1
_geom_bond_atom_site_label_2
_geom_bond_distance
_geom_bond_site_symmetry_2
Ca0 O9 2.400030 1_555
Ca0 O1 2.456373 1_455
Ca0 O7 2.456373 1_555
Ca0 O8 2.463107 1_555
Ca0 O6 2.683676 1_455
Ca0 O0 2.683676 1_555
Ca0 O3 2.866381 1_555
Ca0 O5 2.866381 1_455
O0 Sn3 2.090438 1_545
O0 Sn0 2.095628 1_554
O0 Sr0 2.522964 1_554
O0 Sr2 2.910413 1_545
O1 Sn2 2.106137 1_555
O1 Sn1 2.113681 1_545
O1 Sr0 2.779296 1_655
O1 Sr1 2.915043 1_555
O2 Sn1 2.088173 1_555
O2 Sn2 2.094068 1_555
O2 Sr2 2.508563 1_556
O2 Sr1 2.806993 1_555
O2 Sr0 2.850183 1_665
O3 Sn3 2.095340 1_555
O3 Sn0 2.096342 1_554
O3 Sr1 2.510478 1_555
O3 Sr2 2.742249 1_555
O4 Sn3 2.088173 1_555
O4 Sn0 2.094068 1_555
O4 Sr2 2.508563 1_556
O4 Sr1 2.806993 1_555
O4 Sr0 2.850183 1_565
O5 Sn1 2.095340 1_555
O5 Sn2 2.096342 1_554
O5 Sr1 2.510478 1_555
O5 Sr2 2.742249 1_555
O6 Sn1 2.090438 1_545
O6 Sn2 2.095628 1_554
O6 Sr0 2.522964 1_654
O6 Sr2 2.910413 1_545
O7 Sn0 2.106137 1_555
O7 Sn3 2.113681 1_545
O7 Sr0 2.779296 1_555
O7 Sr1 2.915043 1_555
O8 Sn0 2.076751 1_554
O8 Sn2 2.076751 1_454
O8 Sr0 2.498116 1_564
O9 Sn3 2.092542 1_555
O9 Sn1 2.092542 1_455
O9 Sr0 2.671337 1_565
O10 Sn2 2.106453 1_555
O10 Sn0 2.106453 1_555
O10 Sr2 2.503296 1_546
O10 Sr1 2.642461 1_555
O11 Sn3 2.107264 1_545
O11 Sn1 2.107264 1_545
O11 Sr1 2.496707 1_555
O11 Sr2 2.642398 1_545
