# generated using pymatgen
data_Rb(GePt)4
_symmetry_space_group_name_H-M   'P 1'
_cell_length_a   6.60433760
_cell_length_b   6.60433760
_cell_length_c   6.60433760
_cell_angle_alpha   97.50293096
_cell_angle_beta   97.50293096
_cell_angle_gamma   137.63322047
_symmetry_Int_Tables_number   1
_chemical_formula_structural   Rb(GePt)4
_chemical_formula_sum   'Rb1 Ge4 Pt4'
_cell_volume   181.00149194
_cell_formula_units_Z   1
loop_
 _symmetry_equiv_pos_site_id
 _symmetry_equiv_pos_as_xyz
  1  'x, y, z'
loop_
 _atom_site_type_symbol
 _atom_site_label
 _atom_site_symmetry_multiplicity
 _atom_site_fract_x
 _atom_site_fract_y
 _atom_site_fract_z
 _atom_site_occupancy
  Rb  Rb0  1  0.29847953  0.29847953  -0.00000000  1
  Ge  Ge0  1  0.38063942  0.88274658  0.26306227  1
  Ge  Ge1  1  0.61968330  0.11757515  0.73693773  1
  Ge  Ge2  1  0.11757515  0.38063942  0.49789285  1
  Ge  Ge3  1  0.88274658  0.61968330  0.50210715  1
  Pt  Pt0  1  0.17121920  0.67546548  0.84624767  1
  Pt  Pt1  1  0.82921880  0.32497153  0.15375233  1
  Pt  Pt2  1  0.32497153  0.17121920  0.49575272  1
  Pt  Pt3  1  0.67546548  0.82921880  0.50424728  1
loop_
_geom_bond_atom_site_label_1
_geom_bond_atom_site_label_2
_geom_bond_distance
_geom_bond_site_symmetry_2
Ge0 Pt1 2.479668 1_455
Ge0 Pt1 2.480193 1_565
Ge0 Pt2 2.558215 1_565
Ge0 Pt0 2.566809 1_554
Ge0 Pt3 2.609168 1_555
Ge1 Pt0 2.479664 1_545
Ge1 Pt0 2.480198 1_655
Ge1 Pt3 2.558205 1_545
Ge1 Pt1 2.566809 1_556
Ge1 Pt2 2.609178 1_555
Ge2 Pt3 2.479668 1_445
Ge2 Pt3 2.480197 1_555
Ge2 Pt1 2.558208 1_455
Ge2 Pt2 2.566821 1_555
Ge2 Pt0 2.609162 1_555
Ge3 Pt2 2.479668 1_555
Ge3 Pt2 2.480197 1_665
Ge3 Pt0 2.558215 1_655
Ge3 Pt3 2.566821 1_555
Ge3 Pt1 2.609169 1_555
Pt0 Rb0 3.386122 1_556
Pt0 Rb0 3.499033 1_566
Pt1 Rb0 3.386128 1_555
Pt1 Rb0 3.499027 1_655
Pt2 Rb0 3.386128 1_556
Pt2 Rb0 3.499027 1_555
Pt3 Rb0 3.386129 1_555
Pt3 Rb0 3.499030 1_666
