# generated using pymatgen
data_EuHgPb
_symmetry_space_group_name_H-M   'P 1'
_cell_length_a   5.03048718
_cell_length_b   5.03048718
_cell_length_c   8.01226541
_cell_angle_alpha   90.00000000
_cell_angle_beta   90.00000000
_cell_angle_gamma   120.00000948
_symmetry_Int_Tables_number   1
_chemical_formula_structural   EuHgPb
_chemical_formula_sum   'Eu2 Hg2 Pb2'
_cell_volume   175.59251956
_cell_formula_units_Z   2
loop_
 _symmetry_equiv_pos_site_id
 _symmetry_equiv_pos_as_xyz
  1  'x, y, z'
loop_
 _atom_site_type_symbol
 _atom_site_label
 _atom_site_symmetry_multiplicity
 _atom_site_fract_x
 _atom_site_fract_y
 _atom_site_fract_z
 _atom_site_occupancy
  Eu  Eu0  1  -0.00000000  0.00000000  0.74912151  1
  Eu  Eu1  1  -0.00000000  0.00000000  0.24912151  1
  Hg  Hg0  1  0.66666700  0.33333300  0.55756635  1
  Hg  Hg1  1  0.33333300  0.66666700  0.05756635  1
  Pb  Pb0  1  0.66666700  0.33333300  0.96331215  1
  Pb  Pb1  1  0.33333300  0.66666700  0.46331215  1
loop_
_geom_bond_atom_site_label_1
_geom_bond_atom_site_label_2
_geom_bond_distance
_geom_bond_site_symmetry_2
Eu0 Hg0 3.284940 1_455
Eu0 Hg0 3.284944 1_555
Eu0 Hg0 3.284944 1_445
Eu0 Pb0 3.373489 1_455
Eu0 Pb0 3.373493 1_445
Eu0 Pb0 3.373493 1_555
Eu0 Pb1 3.698549 1_545
Eu0 Pb1 3.698552 1_555
Eu0 Pb1 3.698552 1_445
Eu0 Hg1 3.813500 1_546
Eu0 Hg1 3.813503 1_556
Eu0 Hg1 3.813503 1_446
Eu1 Hg1 3.284940 1_545
Eu1 Hg1 3.284944 1_445
Eu1 Hg1 3.284944 1_555
Eu1 Pb1 3.373489 1_545
Eu1 Pb1 3.373493 1_555
Eu1 Pb1 3.373493 1_445
Eu1 Pb0 3.698549 1_454
Eu1 Pb0 3.698552 1_554
Eu1 Pb0 3.698552 1_444
Eu1 Hg0 3.813500 1_455
Eu1 Hg0 3.813503 1_445
Eu1 Hg0 3.813503 1_555
Hg0 Pb1 3.000927 1_545
Hg0 Pb1 3.000927 1_655
Hg0 Pb1 3.000935 1_555
Hg0 Pb0 3.250943 1_555
Hg1 Pb0 3.000927 1_454
Hg1 Pb0 3.000927 1_564
Hg1 Pb0 3.000935 1_554
Hg1 Pb1 3.250943 1_555
