# generated using pymatgen
data_CaFe4(CuO4)3
_symmetry_space_group_name_H-M   'P 1'
_cell_length_a   6.42423057
_cell_length_b   6.44647418
_cell_length_c   6.44639501
_cell_angle_alpha   109.54899832
_cell_angle_beta   109.39821706
_cell_angle_gamma   109.39686894
_symmetry_Int_Tables_number   1
_chemical_formula_structural   CaFe4(CuO4)3
_chemical_formula_sum   'Ca1 Fe4 Cu3 O12'
_cell_volume   205.68849060
_cell_formula_units_Z   1
loop_
 _symmetry_equiv_pos_site_id
 _symmetry_equiv_pos_as_xyz
  1  'x, y, z'
loop_
 _atom_site_type_symbol
 _atom_site_label
 _atom_site_symmetry_multiplicity
 _atom_site_fract_x
 _atom_site_fract_y
 _atom_site_fract_z
 _atom_site_occupancy
  Ca  Ca0  1  0.99999700  0.99999900  0.99999800  1
  Fe  Fe0  1  0.00000100  0.00000100  0.50000100  1
  Fe  Fe1  1  0.00000000  0.49999900  0.00000100  1
  Fe  Fe2  1  0.49999900  0.49999800  0.49999800  1
  Fe  Fe3  1  0.49999700  0.99999600  0.99999500  1
  Cu  Cu0  1  0.50000100  0.50000100  0.00000000  1
  Cu  Cu1  1  0.99999700  0.50000000  0.50000100  1
  Cu  Cu2  1  0.50000100  0.00000200  0.49999900  1
  O  O0  1  0.83326700  0.31374800  0.14383900  1
  O  O1  1  0.16673000  0.68625400  0.85616200  1
  O  O2  1  0.83033400  0.68676800  0.51866300  1
  O  O3  1  0.31163000  0.48131300  0.16811300  1
  O  O4  1  0.48054700  0.16991900  0.31380200  1
  O  O5  1  0.14360300  0.83195200  0.31327800  1
  O  O6  1  0.68936100  0.85618200  0.16991400  1
  O  O7  1  0.51945600  0.83008100  0.68619900  1
  O  O8  1  0.16966400  0.31323400  0.48133600  1
  O  O9  1  0.68837100  0.51868900  0.83188600  1
  O  O10  1  0.85640100  0.16804800  0.68672700  1
  O  O11  1  0.31063800  0.14381700  0.83008600  1
loop_
_geom_bond_atom_site_label_1
_geom_bond_atom_site_label_2
_geom_bond_distance
_geom_bond_site_symmetry_2
Ca0 O1 2.634661 1_655
Ca0 O0 2.634674 1_566
Ca0 O6 2.635228 1_556
Ca0 O11 2.635234 1_665
Ca0 O7 2.635322 1_555
Ca0 O4 2.635372 1_666
Ca0 O2 2.644194 1_555
Ca0 O8 2.644209 1_666
Ca0 O9 2.644252 1_555
Ca0 O3 2.644278 1_666
Ca0 O10 2.644472 1_565
Ca0 O5 2.644523 1_656
Fe0 O11 1.999981 1_555
Fe0 O6 1.999994 1_445
Fe0 O10 2.000572 1_455
Fe0 O5 2.000578 1_545
Fe0 O2 2.016844 1_445
Fe0 O8 2.016849 1_555
Fe1 O0 1.999810 1_455
Fe1 O1 1.999820 1_554
Fe1 O3 2.000814 1_555
Fe1 O9 2.000828 1_454
Fe1 O10 2.016867 1_454
Fe1 O5 2.016878 1_555
Fe2 O4 1.999641 1_555
Fe2 O7 1.999654 1_555
Fe2 O2 2.000981 1_555
Fe2 O8 2.000982 1_555
Fe2 O3 2.016715 1_555
Fe2 O9 2.016717 1_555
Fe3 O11 2.020585 1_565
Fe3 O6 2.020598 1_556
Fe3 O7 2.020757 1_555
Fe3 O4 2.020795 1_566
Fe3 O1 2.020964 1_555
Fe3 O0 2.020991 1_566
Cu0 O3 1.874858 1_555
Cu0 O9 1.874858 1_554
Cu0 O6 1.878357 1_555
Cu0 O11 1.878373 1_554
Cu1 O2 1.874540 1_555
Cu1 O8 1.874551 1_655
Cu1 O1 1.878206 1_655
Cu1 O0 1.878212 1_555
Cu2 O5 1.874515 1_545
Cu2 O10 1.874529 1_555
Cu2 O4 1.878117 1_555
Cu2 O7 1.878154 1_545
