# generated using pymatgen
data_BaSrLaWO6
_symmetry_space_group_name_H-M   'P 1'
_cell_length_a   6.07616565
_cell_length_b   6.12107256
_cell_length_c   8.59255527
_cell_angle_alpha   90.26920907
_cell_angle_beta   90.86770015
_cell_angle_gamma   90.24467505
_symmetry_Int_Tables_number   1
_chemical_formula_structural   BaSrLaWO6
_chemical_formula_sum   'Ba2 Sr2 La2 W2 O12'
_cell_volume   319.53672132
_cell_formula_units_Z   2
loop_
 _symmetry_equiv_pos_site_id
 _symmetry_equiv_pos_as_xyz
  1  'x, y, z'
loop_
 _atom_site_type_symbol
 _atom_site_label
 _atom_site_symmetry_multiplicity
 _atom_site_fract_x
 _atom_site_fract_y
 _atom_site_fract_z
 _atom_site_occupancy
  Ba  Ba0  1  0.50969556  0.53570772  0.24823207  1
  Ba  Ba1  1  0.49030444  0.46429228  0.75176793  1
  Sr  Sr0  1  0.99049481  0.04164963  0.25288122  1
  Sr  Sr1  1  0.00950519  0.95835037  0.74711878  1
  La  La0  1  0.00000000  0.50000000  0.00000000  1
  La  La1  1  0.50000000  0.00000000  0.50000000  1
  W  W0  1  0.50000000  0.00000000  0.00000000  1
  W  W1  1  0.00000000  0.50000000  0.50000000  1
  O  O0  1  0.23155147  0.18676498  0.95576626  1
  O  O1  1  0.26372631  0.69214594  0.53447989  1
  O  O2  1  0.76844853  0.81323502  0.04423374  1
  O  O3  1  0.73627369  0.30785406  0.46552011  1
  O  O4  1  0.30480740  0.73447325  0.95403417  1
  O  O5  1  0.18577435  0.22463628  0.54567248  1
  O  O6  1  0.69519260  0.26552675  0.04596583  1
  O  O7  1  0.81422565  0.77536372  0.45432752  1
  O  O8  1  0.41080053  0.99424102  0.22506827  1
  O  O9  1  0.07391101  0.47424824  0.27345099  1
  O  O10  1  0.58919947  0.00575898  0.77493173  1
  O  O11  1  0.92608899  0.52575176  0.72654901  1
loop_
_geom_bond_atom_site_label_1
_geom_bond_atom_site_label_2
_geom_bond_distance
_geom_bond_site_symmetry_2
Ba0 O6 2.659747 1_555
Ba0 O9 2.685049 1_555
Ba0 O3 2.699911 1_555
Ba0 O8 2.879997 1_555
Ba0 O2 2.918712 1_555
Ba0 O7 2.926608 1_555
Ba0 O1 3.049865 1_555
Ba0 O4 3.060552 1_554
Ba1 O4 2.659747 1_555
Ba1 O11 2.685049 1_555
Ba1 O1 2.699911 1_555
Ba1 O10 2.879997 1_555
Ba1 O0 2.918712 1_555
Ba1 O5 2.926608 1_555
Ba1 O3 3.049865 1_555
Ba1 O6 3.060552 1_556
La0 O4 2.377137 1_554
La0 O6 2.377137 1_455
La0 O11 2.391543 1_454
La0 O9 2.391543 1_555
La0 O0 2.415060 1_554
La0 O2 2.415060 1_455
La1 O3 2.386380 1_555
La1 O1 2.386380 1_545
La1 O5 2.393763 1_555
La1 O7 2.393763 1_545
La1 O8 2.415791 1_545
La1 O10 2.415791 1_555
O0 W0 2.028106 1_556
O0 Sr1 2.622284 1_545
O0 Sr0 3.094430 1_456
O1 W1 2.001289 1_555
O1 Sr1 2.908355 1_555
O2 W0 2.028106 1_565
O2 Sr0 2.622284 1_565
O2 Sr1 3.094430 1_654
O3 W1 2.001289 1_655
O3 Sr0 2.908355 1_555
O4 W0 2.041468 1_566
O4 Sr1 2.864569 1_555
O5 W1 2.068386 1_555
O5 Sr1 2.620646 1_545
O5 Sr0 2.977180 1_455
O6 W0 2.041468 1_555
O6 Sr0 2.864569 1_555
O7 W1 2.068386 1_655
O7 Sr0 2.620646 1_565
O7 Sr1 2.977180 1_655
O8 W0 2.016738 1_565
O8 Sr0 2.586044 1_465
O9 W1 2.010005 1_555
O9 Sr0 2.698387 1_455
O10 W0 2.016738 1_556
O10 Sr1 2.586044 1_645
O11 W1 2.010005 1_655
O11 Sr1 2.698387 1_655
