# generated using pymatgen
data_NdCuNi4
_symmetry_space_group_name_H-M   'P 1'
_cell_length_a   4.95496224
_cell_length_b   4.95496965
_cell_length_c   3.95465349
_cell_angle_alpha   90.00000000
_cell_angle_beta   90.00000000
_cell_angle_gamma   121.12251154
_symmetry_Int_Tables_number   1
_chemical_formula_structural   NdCuNi4
_chemical_formula_sum   'Nd1 Cu1 Ni4'
_cell_volume   83.11818566
_cell_formula_units_Z   1
loop_
 _symmetry_equiv_pos_site_id
 _symmetry_equiv_pos_as_xyz
  1  'x, y, z'
loop_
 _atom_site_type_symbol
 _atom_site_label
 _atom_site_symmetry_multiplicity
 _atom_site_fract_x
 _atom_site_fract_y
 _atom_site_fract_z
 _atom_site_occupancy
  Nd  Nd0  1  0.50000000  0.50000000  0.00000000  1
  Cu  Cu0  1  -0.00000000  0.00000000  0.50000000  1
  Ni  Ni0  1  0.17616854  0.82387059  -0.00000000  1
  Ni  Ni1  1  0.82383146  0.17612941  0.00000000  1
  Ni  Ni2  1  -0.00000000  0.50000000  0.50000000  1
  Ni  Ni3  1  0.50000000  0.00000000  0.50000000  1
loop_
_geom_bond_atom_site_label_1
_geom_bond_atom_site_label_2
_geom_bond_distance
_geom_bond_site_symmetry_2
Nd0 Ni1 2.794957 1_555
Nd0 Ni0 2.794957 1_555
Nd0 Ni1 2.870799 1_565
Nd0 Ni0 2.870799 1_545
Nd0 Ni1 2.870956 1_455
Nd0 Ni0 2.870956 1_655
Nd0 Ni2 3.169816 1_654
Nd0 Ni2 3.169816 1_555
Nd0 Ni2 3.169816 1_554
Nd0 Ni2 3.169816 1_655
Nd0 Ni3 3.169819 1_565
Nd0 Ni3 3.169819 1_554
Nd0 Ni3 3.169819 1_555
Nd0 Ni3 3.169819 1_564
Cu0 Ni3 2.477481 1_555
Cu0 Ni3 2.477481 1_455
Cu0 Ni2 2.477485 1_555
Cu0 Ni2 2.477485 1_545
Cu0 Ni1 2.494179 1_456
Cu0 Ni0 2.494179 1_546
Cu0 Ni1 2.494179 1_455
Cu0 Ni0 2.494179 1_545
Cu0 Nd0 3.136981 1_555
Cu0 Nd0 3.136981 1_445
Cu0 Nd0 3.136981 1_446
Cu0 Nd0 3.136981 1_556
Ni0 Ni3 2.408013 1_564
Ni0 Ni3 2.408013 1_565
Ni0 Ni2 2.408110 1_554
Ni0 Ni2 2.408110 1_555
Ni1 Ni3 2.408013 1_555
Ni1 Ni3 2.408013 1_554
Ni1 Ni2 2.408110 1_654
Ni1 Ni2 2.408110 1_655
Ni2 Ni3 2.435330 1_455
Ni2 Ni3 2.435330 1_565
