# generated using pymatgen
data_Mg5Si9
_symmetry_space_group_name_H-M   'P 1'
_cell_length_a   10.83214002
_cell_length_b   7.53180804
_cell_length_c   7.61242121
_cell_angle_alpha   120.32691250
_cell_angle_beta   104.35955369
_cell_angle_gamma   91.67815371
_symmetry_Int_Tables_number   1
_chemical_formula_structural   Mg5Si9
_chemical_formula_sum   'Mg10 Si18'
_cell_volume   510.38586536
_cell_formula_units_Z   2
loop_
 _symmetry_equiv_pos_site_id
 _symmetry_equiv_pos_as_xyz
  1  'x, y, z'
loop_
 _atom_site_type_symbol
 _atom_site_label
 _atom_site_symmetry_multiplicity
 _atom_site_fract_x
 _atom_site_fract_y
 _atom_site_fract_z
 _atom_site_occupancy
  Mg  Mg0  1  0.27028400  0.09288000  0.45481300  1
  Mg  Mg1  1  0.59388900  0.90794800  0.19341500  1
  Mg  Mg2  1  0.40929700  0.47710600  0.94349200  1
  Mg  Mg3  1  0.66294200  0.57202400  0.34437700  1
  Mg  Mg4  1  0.41327300  0.27458100  0.24525100  1
  Mg  Mg5  1  0.55875600  0.68499400  0.71702600  1
  Mg  Mg6  1  0.89100600  0.82637900  0.27487700  1
  Mg  Mg7  1  0.13444300  0.87115300  0.64023200  1
  Mg  Mg8  1  0.92788300  0.36347300  0.01906500  1
  Mg  Mg9  1  0.09402100  0.66692400  0.90930500  1
  Si  Si0  1  0.80536500  0.57929100  0.72898400  1
  Si  Si1  1  0.08980900  0.35806800  0.44521200  1
  Si  Si2  1  0.64146500  0.18885000  0.95724500  1
  Si  Si3  1  0.34011000  0.82345400  0.91155900  1
  Si  Si4  1  0.67437300  0.51153600  0.94887400  1
  Si  Si5  1  0.18358300  0.32984500  0.98397400  1
  Si  Si6  1  0.79990100  0.20647700  0.56729400  1
  Si  Si7  1  0.23293900  0.67377500  0.29704500  1
  Si  Si8  1  0.80249600  0.18702200  0.23365700  1
  Si  Si9  1  0.41822400  0.03656600  0.78191100  1
  Si  Si10  1  0.13091300  0.10715100  0.10938500  1
  Si  Si11  1  0.90396400  0.95553700  0.96996600  1
  Si  Si12  1  0.75049000  0.98667000  0.68828400  1
  Si  Si13  1  0.29470800  0.54600000  0.54461600  1
  Si  Si14  1  0.04207300  0.20566700  0.63418900  1
  Si  Si15  1  0.92121400  0.56347800  0.45932900  1
  Si  Si16  1  0.46624100  0.81076200  0.43181900  1
  Si  Si17  1  0.54662600  0.19248900  0.56518100  1
loop_
_geom_bond_atom_site_label_1
_geom_bond_atom_site_label_2
_geom_bond_distance
_geom_bond_site_symmetry_2
Mg0 Si7 2.725071 1_545
Mg0 Si10 2.744281 1_555
Mg0 Si9 2.841691 1_555
Mg0 Si1 2.849865 1_555
Mg0 Si17 2.865923 1_555
Mg0 Si16 3.020611 1_545
Mg0 Si14 3.053344 1_555
Mg0 Si13 3.112225 1_555
Mg1 Si17 2.742651 1_565
Mg1 Si3 2.856307 1_554
Mg1 Si6 2.868641 1_565
Mg1 Si16 2.875451 1_555
Mg1 Si8 2.888984 1_565
Mg1 Si4 2.912801 1_554
Mg2 Si5 2.804119 1_555
Mg2 Si3 2.844330 1_555
Mg2 Si4 2.863709 1_555
Mg2 Si9 2.913430 1_555
Mg2 Si16 3.138851 1_556
Mg3 Si15 2.729431 1_555
Mg3 Si12 2.800864 1_555
Mg3 Si16 2.816977 1_555
Mg3 Si4 2.844373 1_554
Mg3 Si2 2.845979 1_554
Mg3 Si0 2.923668 1_555
Mg3 Si8 3.134436 1_555
Mg4 Si13 2.814735 1_555
Mg4 Si17 2.868499 1_555
Mg4 Si3 2.958588 1_544
Mg4 Si5 2.960007 1_554
Mg4 Si10 2.983732 1_555
Mg4 Si9 3.061263 1_554
Mg5 Si13 2.752158 1_555
Mg5 Si16 2.769228 1_555
Mg5 Si4 2.778172 1_555
Mg5 Si0 2.802697 1_555
Mg5 Si9 2.976782 1_565
Mg5 Si3 3.035557 1_555
Mg5 Si12 3.158342 1_555
Mg6 Si14 2.816971 1_665
Mg6 Si4 2.851505 1_554
Mg6 Si15 2.935531 1_555
Mg6 Si11 2.964359 1_554
Mg6 Si6 2.990704 1_565
Mg6 Si8 3.043020 1_565
Mg7 Si15 2.736323 1_455
Mg7 Si14 2.755534 1_565
Mg7 Si7 2.779710 1_555
Mg7 Si3 2.805742 1_555
Mg7 Si13 2.935425 1_555
Mg7 Si9 2.989797 1_565
Mg7 Si5 3.022926 1_565
Mg7 Si10 3.094630 1_566
Mg8 Si5 2.854283 1_654
Mg8 Si12 2.855006 1_544
Mg8 Si11 2.897013 1_544
Mg8 Si15 2.921444 1_555
Mg8 Si6 2.929127 1_554
Mg8 Si4 3.020476 1_554
Mg8 Si8 3.076801 1_555
Mg8 Si10 3.142554 1_655
Mg8 Si14 3.145410 1_654
Mg9 Si10 2.827357 1_566
Mg9 Si3 2.875559 1_555
Mg9 Si7 2.935605 1_556
Mg9 Si14 2.953890 1_555
Mg9 Si11 2.982758 1_455
Mg9 Si0 2.988612 1_455
Mg9 Si5 3.006314 1_555
Mg9 Si1 3.083683 1_555
Mg9 Si15 3.143782 1_455
Si0 Si6 2.422190 1_555
Si0 Si11 2.477407 1_555
Si0 Si15 2.615759 1_555
Si0 Si4 2.659703 1_555
Si1 Si13 2.324562 1_555
Si1 Si14 2.378277 1_555
Si1 Si15 2.415615 1_455
Si1 Si10 2.457669 1_555
Si2 Si9 2.373867 1_555
Si2 Si8 2.383371 1_556
Si2 Si4 2.480916 1_555
Si3 Si9 2.490150 1_565
Si5 Si7 2.393384 1_556
Si6 Si8 2.476407 1_555
Si10 Si11 2.406529 1_444
Si10 Si5 2.425161 1_554
Si11 Si8 2.439157 1_566
Si11 Si12 2.485782 1_555
Si12 Si6 2.368131 1_565
Si12 Si2 2.462051 1_565
Si13 Si3 2.403127 1_555
Si13 Si7 2.483844 1_555
Si14 Si5 2.385582 1_555
Si14 Si6 2.546022 1_455
Si15 Si8 2.532991 1_555
Si16 Si7 2.448655 1_555
Si16 Si9 2.535271 1_565
Si16 Si17 2.553878 1_565
Si17 Si4 2.633053 1_555
Si17 Si6 2.738189 1_555
