# generated using pymatgen
data_Hf9Re4Si
_symmetry_space_group_name_H-M   'P 1'
_cell_length_a   8.53488170
_cell_length_b   8.53495943
_cell_length_c   8.62663787
_cell_angle_alpha   90.00000000
_cell_angle_beta   90.00000000
_cell_angle_gamma   120.00030555
_symmetry_Int_Tables_number   1
_chemical_formula_structural   Hf9Re4Si
_chemical_formula_sum   'Hf18 Re8 Si2'
_cell_volume   544.21414962
_cell_formula_units_Z   2
loop_
 _symmetry_equiv_pos_site_id
 _symmetry_equiv_pos_as_xyz
  1  'x, y, z'
loop_
 _atom_site_type_symbol
 _atom_site_label
 _atom_site_symmetry_multiplicity
 _atom_site_fract_x
 _atom_site_fract_y
 _atom_site_fract_z
 _atom_site_occupancy
  Hf  Hf0  1  0.19439006  0.80560962  0.45154499  1
  Hf  Hf1  1  0.19439006  0.38878044  0.45154499  1
  Hf  Hf2  1  0.61121927  0.80560963  0.45154668  1
  Hf  Hf3  1  0.80560994  0.19439038  0.54845501  1
  Hf  Hf4  1  0.80560994  0.61121956  0.54845501  1
  Hf  Hf5  1  0.38878073  0.19439037  0.54845332  1
  Hf  Hf6  1  0.80560994  0.19439038  0.95154499  1
  Hf  Hf7  1  0.80560994  0.61121956  0.95154499  1
  Hf  Hf8  1  0.38878073  0.19439037  0.95154668  1
  Hf  Hf9  1  0.19439006  0.80560962  0.04845501  1
  Hf  Hf10  1  0.19439006  0.38878044  0.04845501  1
  Hf  Hf11  1  0.61121927  0.80560963  0.04845332  1
  Hf  Hf12  1  0.54041218  0.45958337  0.25000000  1
  Hf  Hf13  1  0.54041218  0.08082781  0.25000000  1
  Hf  Hf14  1  0.91917735  0.45958817  0.25000000  1
  Hf  Hf15  1  0.45958782  0.54041663  0.75000000  1
  Hf  Hf16  1  0.45958782  0.91917219  0.75000000  1
  Hf  Hf17  1  0.08082265  0.54041183  0.75000000  1
  Re  Re0  1  0.89030290  0.10972245  0.25000000  1
  Re  Re1  1  0.89030290  0.78057944  0.25000000  1
  Re  Re2  1  0.21942735  0.10971318  0.25000000  1
  Re  Re3  1  0.10969710  0.89027755  0.75000000  1
  Re  Re4  1  0.10969710  0.21942056  0.75000000  1
  Re  Re5  1  0.78057265  0.89028682  0.75000000  1
  Re  Re6  1  -0.00000000  0.00000000  0.50000000  1
  Re  Re7  1  -0.00000000  0.00000000  -0.00000000  1
  Si  Si0  1  0.33333493  0.66666797  0.25000000  1
  Si  Si1  1  0.66666507  0.33333203  0.75000000  1
loop_
_geom_bond_atom_site_label_1
_geom_bond_atom_site_label_2
_geom_bond_distance
_geom_bond_site_symmetry_2
Hf0 Si0 2.691059 1_555
Hf0 Re3 2.862859 1_555
Hf0 Re6 2.903901 1_565
Hf0 Re1 3.041371 1_455
Hf0 Re2 3.041484 1_565
Hf1 Si0 2.691064 1_555
Hf1 Re4 2.862855 1_555
Hf1 Re6 2.903901 1_555
Hf1 Re0 3.041374 1_455
Hf1 Re2 3.041491 1_555
Hf2 Si0 2.691041 1_555
Hf2 Re5 2.862816 1_555
Hf2 Re6 2.903875 1_665
Hf2 Re0 3.041565 1_565
Hf2 Re1 3.041569 1_555
Hf3 Si1 2.691059 1_555
Hf3 Re0 2.862859 1_555
Hf3 Re6 2.903901 1_655
Hf3 Re4 3.041371 1_655
Hf3 Re5 3.041484 1_545
Hf4 Si1 2.691064 1_555
Hf4 Re1 2.862855 1_555
Hf4 Re6 2.903901 1_665
Hf4 Re3 3.041374 1_655
Hf4 Re5 3.041491 1_555
Hf5 Si1 2.691041 1_555
Hf5 Re2 2.862816 1_555
Hf5 Re6 2.903875 1_555
Hf5 Re3 3.041565 1_545
Hf5 Re4 3.041569 1_555
Hf6 Si1 2.691059 1_555
Hf6 Re0 2.862859 1_556
Hf6 Re7 2.903901 1_656
Hf6 Re4 3.041371 1_655
Hf6 Re5 3.041484 1_545
Hf7 Si1 2.691064 1_555
Hf7 Re1 2.862855 1_556
Hf7 Re7 2.903901 1_666
Hf7 Re3 3.041374 1_655
Hf7 Re5 3.041491 1_555
Hf8 Si1 2.691041 1_555
Hf8 Re2 2.862816 1_556
Hf8 Re7 2.903875 1_556
Hf8 Re3 3.041565 1_545
Hf8 Re4 3.041569 1_555
Hf9 Si0 2.691059 1_555
Hf9 Re3 2.862859 1_554
Hf9 Re7 2.903901 1_565
Hf9 Re1 3.041371 1_455
Hf9 Re2 3.041484 1_565
Hf10 Si0 2.691064 1_555
Hf10 Re4 2.862855 1_554
Hf10 Re7 2.903901 1_555
Hf10 Re0 3.041374 1_455
Hf10 Re2 3.041491 1_555
Hf11 Si0 2.691041 1_555
Hf11 Re5 2.862816 1_554
Hf11 Re7 2.903875 1_665
Hf11 Re0 3.041565 1_565
Hf11 Re1 3.041569 1_555
Hf12 Re2 2.870787 1_555
Hf12 Re1 2.870922 1_555
Hf12 Si0 3.061265 1_555
Hf13 Re2 2.870787 1_555
Hf13 Re0 2.870923 1_555
Hf13 Si0 3.061250 1_545
Hf14 Re0 2.870813 1_555
Hf14 Re1 2.870813 1_555
Hf14 Si0 3.061205 1_655
Hf15 Re5 2.870787 1_555
Hf15 Re4 2.870922 1_555
Hf15 Si1 3.061265 1_555
Hf16 Re5 2.870787 1_555
Hf16 Re3 2.870923 1_555
Hf16 Si1 3.061250 1_565
Hf17 Re3 2.870813 1_555
Hf17 Re4 2.870813 1_555
Hf17 Si1 3.061205 1_455
Re0 Re6 2.698430 1_655
Re0 Re7 2.698430 1_655
Re0 Re2 2.809078 1_655
Re0 Re1 2.809222 1_545
Re1 Re6 2.698434 1_665
Re1 Re7 2.698434 1_665
Re1 Re2 2.809078 1_665
Re2 Re7 2.698455 1_555
Re2 Re6 2.698455 1_555
Re3 Re7 2.698430 1_566
Re3 Re6 2.698430 1_565
Re3 Re5 2.809078 1_455
Re3 Re4 2.809222 1_565
Re4 Re6 2.698434 1_555
Re4 Re7 2.698434 1_556
Re4 Re5 2.809078 1_445
Re5 Re6 2.698455 1_665
Re5 Re7 2.698455 1_666
