# generated using pymatgen
data_Ba4Ge2Te5Se3
_symmetry_space_group_name_H-M   'P 1'
_cell_length_a   7.42259100
_cell_length_b   7.63570122
_cell_length_c   9.54909731
_cell_angle_alpha   108.31597510
_cell_angle_beta   90.02585454
_cell_angle_gamma   90.09820057
_symmetry_Int_Tables_number   1
_chemical_formula_structural   Ba4Ge2Te5Se3
_chemical_formula_sum   'Ba4 Ge2 Te5 Se3'
_cell_volume   513.79126724
_cell_formula_units_Z   1
loop_
 _symmetry_equiv_pos_site_id
 _symmetry_equiv_pos_as_xyz
  1  'x, y, z'
loop_
 _atom_site_type_symbol
 _atom_site_label
 _atom_site_symmetry_multiplicity
 _atom_site_fract_x
 _atom_site_fract_y
 _atom_site_fract_z
 _atom_site_occupancy
  Ba  Ba0  1  0.74300400  0.23689900  0.05428000  1
  Ba  Ba1  1  0.25683000  0.76484000  0.93619900  1
  Ba  Ba2  1  0.74333600  0.22296200  0.55865700  1
  Ba  Ba3  1  0.25496500  0.77805100  0.44999600  1
  Ge  Ge0  1  0.75072000  0.78802600  0.70063200  1
  Ge  Ge1  1  0.25710900  0.21769600  0.30038600  1
  Te  Te0  1  0.74965700  0.60276500  0.88880100  1
  Te  Te1  1  0.25221800  0.40059800  0.11130900  1
  Te  Te2  1  0.74871600  0.61459500  0.41855900  1
  Te  Te3  1  0.25202500  0.38520300  0.58393100  1
  Te  Te4  1  0.98629200  0.98953800  0.24023400  1
  Se  Se0  1  0.49815000  0.99473000  0.75612800  1
  Se  Se1  1  0.00212100  0.99548700  0.75639200  1
  Se  Se2  1  0.50485500  0.00861100  0.24449600  1
loop_
_geom_bond_atom_site_label_1
_geom_bond_atom_site_label_2
_geom_bond_distance
_geom_bond_site_symmetry_2
Ba0 Se2 3.383026 1_555
Ba0 Se0 3.391638 1_544
Ba0 Se1 3.451100 1_644
Ba0 Te4 3.478265 1_545
Ba0 Te0 3.616348 1_554
Ba0 Te2 3.756794 1_555
Ba0 Te1 3.836571 1_555
Ba0 Te1 3.962210 1_655
Ba1 Se0 3.337009 1_555
Ba1 Se1 3.396047 1_555
Ba1 Se2 3.472757 1_566
Ba1 Te4 3.505908 1_456
Ba1 Te1 3.668141 1_556
Ba1 Te3 3.686537 1_555
Ba1 Te0 3.844830 1_555
Ba1 Te0 3.941902 1_455
Ba2 Se2 3.422165 1_555
Ba2 Se0 3.458688 1_545
Ba2 Te4 3.504882 1_545
Ba2 Se1 3.513026 1_645
Ba2 Te0 3.550268 1_555
Ba2 Te2 3.639757 1_555
Ba2 Te3 3.836724 1_555
Ba2 Te3 3.955345 1_655
Ba3 Se0 3.389152 1_555
Ba3 Se1 3.435347 1_555
Ba3 Se2 3.543148 1_565
Ba3 Te4 3.554908 1_455
Ba3 Te1 3.592771 1_555
Ba3 Te3 3.611827 1_555
Ba3 Te2 3.854950 1_555
Ba3 Te2 3.938965 1_455
Ge0 Se1 2.394553 1_655
Ge0 Se0 2.402475 1_555
Ge0 Te2 2.601361 1_555
Ge0 Te0 2.612917 1_555
Ge1 Se2 2.385522 1_555
Ge1 Te4 2.600726 1_445
Ge1 Te3 2.606163 1_555
Ge1 Te1 2.607029 1_555
