# generated using pymatgen
data_Sm3MgTi4O14
_symmetry_space_group_name_H-M   'P 1'
_cell_length_a   7.17154790
_cell_length_b   7.17154790
_cell_length_c   7.17154778
_cell_angle_alpha   61.14867166
_cell_angle_beta   61.14867166
_cell_angle_gamma   61.14867980
_symmetry_Int_Tables_number   1
_chemical_formula_structural   Sm3MgTi4O14
_chemical_formula_sum   'Sm3 Mg1 Ti4 O14'
_cell_volume   267.55098072
_cell_formula_units_Z   1
loop_
 _symmetry_equiv_pos_site_id
 _symmetry_equiv_pos_as_xyz
  1  'x, y, z'
loop_
 _atom_site_type_symbol
 _atom_site_label
 _atom_site_symmetry_multiplicity
 _atom_site_fract_x
 _atom_site_fract_y
 _atom_site_fract_z
 _atom_site_occupancy
  Sm  Sm0  1  0.00000000  0.50000000  0.50000000  1
  Sm  Sm1  1  0.50000000  0.50000000  0.00000000  1
  Sm  Sm2  1  0.50000000  0.00000000  0.50000000  1
  Mg  Mg0  1  0.50000000  0.50000000  0.50000000  1
  Ti  Ti0  1  0.00000000  0.00000000  0.00000000  1
  Ti  Ti1  1  0.50000000  0.00000000  0.00000000  1
  Ti  Ti2  1  0.00000000  0.00000000  0.50000000  1
  Ti  Ti3  1  0.00000000  0.50000000  0.00000000  1
  O  O0  1  0.93056000  0.32204700  0.32204700  1
  O  O1  1  0.32753700  0.92049600  0.92049600  1
  O  O2  1  0.32204700  0.32204700  0.93056000  1
  O  O3  1  0.92049600  0.92049600  0.32753700  1
  O  O4  1  0.92049600  0.32753700  0.92049600  1
  O  O5  1  0.32204700  0.93056000  0.32204700  1
  O  O6  1  0.06944000  0.67795300  0.67795300  1
  O  O7  1  0.67246300  0.07950400  0.07950400  1
  O  O8  1  0.67795300  0.67795300  0.06944000  1
  O  O9  1  0.07950400  0.07950400  0.67246300  1
  O  O10  1  0.07950400  0.67246300  0.07950400  1
  O  O11  1  0.67795300  0.06944000  0.67795300  1
  O  O12  1  0.38571700  0.38571700  0.38571700  1
  O  O13  1  0.61428300  0.61428300  0.61428300  1
loop_
_geom_bond_atom_site_label_1
_geom_bond_atom_site_label_2
_geom_bond_distance
_geom_bond_site_symmetry_2
Mg0 O12 1.989963 1_555
Mg0 O13 1.989963 1_555
Mg0 O8 2.599530 1_555
Mg0 O2 2.599530 1_555
Mg0 O6 2.599530 1_555
Mg0 O11 2.599530 1_555
Mg0 O0 2.599530 1_555
Mg0 O5 2.599530 1_555
O0 Ti3 1.967138 1_655
O0 Ti2 1.967139 1_655
O0 Sm0 2.510747 1_655
O1 Ti1 1.963364 1_566
O1 Ti0 1.973938 1_566
O1 Sm2 2.523966 1_565
O1 Sm1 2.523967 1_556
O2 Ti1 1.967139 1_556
O2 Ti3 1.967139 1_556
O2 Sm1 2.510747 1_556
O3 Ti2 1.963364 1_665
O3 Ti0 1.973938 1_665
O3 Sm2 2.523966 1_565
O3 Sm0 2.523966 1_655
O4 Ti3 1.963364 1_656
O4 Ti0 1.973938 1_656
O4 Sm0 2.523966 1_655
O4 Sm1 2.523967 1_556
O5 Ti1 1.967138 1_565
O5 Ti2 1.967139 1_565
O5 Sm2 2.510747 1_565
O6 Ti3 1.967138 1_556
O6 Ti2 1.967139 1_565
O6 Sm0 2.510747 1_555
O7 Ti1 1.963364 1_555
O7 Ti0 1.973938 1_655
O7 Sm2 2.523966 1_555
O7 Sm1 2.523967 1_555
O8 Ti1 1.967139 1_565
O8 Ti3 1.967139 1_655
O8 Sm1 2.510747 1_555
O9 Ti2 1.963364 1_555
O9 Ti0 1.973938 1_556
O9 Sm2 2.523966 1_555
O9 Sm0 2.523966 1_555
O10 Ti3 1.963364 1_555
O10 Ti0 1.973938 1_565
O10 Sm0 2.523966 1_555
O10 Sm1 2.523967 1_555
O11 Ti1 1.967138 1_556
O11 Ti2 1.967139 1_655
O11 Sm2 2.510747 1_555
O12 Sm1 2.295124 1_555
O12 Sm2 2.295124 1_555
O12 Sm0 2.295124 1_555
O13 Sm1 2.295124 1_556
O13 Sm2 2.295124 1_565
O13 Sm0 2.295124 1_655
