# generated using pymatgen
data_Mn2AlS4
_symmetry_space_group_name_H-M   'P 1'
_cell_length_a   7.01330165
_cell_length_b   7.01330165
_cell_length_c   7.01330165
_cell_angle_alpha   120.27729695
_cell_angle_beta   118.45951209
_cell_angle_gamma   91.10455358
_symmetry_Int_Tables_number   1
_chemical_formula_structural   Mn2AlS4
_chemical_formula_sum   'Mn4 Al2 S8'
_cell_volume   246.12635255
_cell_formula_units_Z   2
loop_
 _symmetry_equiv_pos_site_id
 _symmetry_equiv_pos_as_xyz
  1  'x, y, z'
loop_
 _atom_site_type_symbol
 _atom_site_label
 _atom_site_symmetry_multiplicity
 _atom_site_fract_x
 _atom_site_fract_y
 _atom_site_fract_z
 _atom_site_occupancy
  Mn  Mn0  1  0.50000000  0.50000000  0.50000000  1
  Mn  Mn1  1  0.50000000  0.00000000  0.50000000  1
  Mn  Mn2  1  0.50000000  0.00000000  0.00000000  1
  Mn  Mn3  1  0.00000000  0.00000000  0.00000000  1
  Al  Al0  1  0.50000000  0.50000000  0.00000000  1
  Al  Al1  1  0.00000000  0.50000000  0.50000000  1
  S  S0  1  0.28387400  0.25651000  0.02736300  1
  S  S1  1  0.26022100  0.26989600  0.50967500  1
  S  S2  1  0.72914700  0.25651000  0.47263700  1
  S  S3  1  0.73977900  0.24945400  0.00967500  1
  S  S4  1  0.27085300  0.74349000  0.52736300  1
  S  S5  1  0.73977900  0.73010400  0.49032500  1
  S  S6  1  0.26022100  0.75054600  0.99032500  1
  S  S7  1  0.71612600  0.74349000  0.97263700  1
loop_
_geom_bond_atom_site_label_1
_geom_bond_atom_site_label_2
_geom_bond_distance
_geom_bond_site_symmetry_2
Mn0 S5 2.356137 1_555
Mn0 S1 2.356137 1_555
Mn0 S4 2.367476 1_555
Mn0 S2 2.367476 1_555
Mn0 S0 2.367476 1_555
Mn0 S7 2.367476 1_555
Mn1 S2 2.527144 1_555
Mn1 S4 2.527144 1_545
Mn1 S5 2.552922 1_545
Mn1 S6 2.552922 1_544
Mn1 S1 2.552922 1_555
Mn1 S3 2.552922 1_556
Mn2 S3 2.356137 1_555
Mn2 S6 2.356137 1_544
Mn2 S0 2.367471 1_555
Mn2 S7 2.367471 1_544
Mn2 S4 2.367476 1_544
Mn2 S2 2.367476 1_555
Mn3 S7 2.527149 1_444
Mn3 S0 2.527149 1_555
Mn3 S6 2.552922 1_544
Mn3 S5 2.552922 1_444
Mn3 S1 2.552922 1_555
Mn3 S3 2.552922 1_455
Al0 S0 2.399661 1_555
Al0 S7 2.399661 1_554
Al0 S5 2.458763 1_555
Al0 S6 2.458763 1_554
Al0 S1 2.458763 1_554
Al0 S3 2.458763 1_555
Al1 S4 2.399665 1_555
Al1 S2 2.399665 1_455
Al1 S1 2.458763 1_555
Al1 S3 2.458763 1_455
Al1 S6 2.458763 1_555
Al1 S5 2.458763 1_455
