# generated using pymatgen
data_Bi19(S9Br)3
_symmetry_space_group_name_H-M   'P 1'
_cell_length_a   16.12647634
_cell_length_b   16.12647634
_cell_length_c   16.12647607
_cell_angle_alpha   113.93674120
_cell_angle_beta   113.93674120
_cell_angle_gamma   113.93673584
_symmetry_Int_Tables_number   1
_chemical_formula_structural   Bi19(S9Br)3
_chemical_formula_sum   'Bi38 S54 Br6'
_cell_volume   2559.92125725
_cell_formula_units_Z   2
loop_
 _symmetry_equiv_pos_site_id
 _symmetry_equiv_pos_as_xyz
  1  'x, y, z'
loop_
 _atom_site_type_symbol
 _atom_site_label
 _atom_site_symmetry_multiplicity
 _atom_site_fract_x
 _atom_site_fract_y
 _atom_site_fract_z
 _atom_site_occupancy
  Bi  Bi0  1  0.36941900  0.88414600  0.49429200  1
  Bi  Bi1  1  0.70443400  0.22154500  0.83071600  1
  Bi  Bi2  1  0.03955400  0.55634600  0.16486500  1
  Bi  Bi3  1  0.22154500  0.83071600  0.70443400  1
  Bi  Bi4  1  0.55634600  0.16486500  0.03955400  1
  Bi  Bi5  1  0.88414600  0.49429200  0.36941900  1
  Bi  Bi6  1  0.16486500  0.03955400  0.55634600  1
  Bi  Bi7  1  0.49429200  0.36941900  0.88414600  1
  Bi  Bi8  1  0.83071600  0.70443400  0.22154500  1
  Bi  Bi9  1  0.96813500  0.45249700  0.84226100  1
  Bi  Bi10  1  0.29765200  0.78182600  0.17318200  1
  Bi  Bi11  1  0.63138600  0.11374600  0.50505300  1
  Bi  Bi12  1  0.11374600  0.50505300  0.63138600  1
  Bi  Bi13  1  0.45249700  0.84226100  0.96813500  1
  Bi  Bi14  1  0.78182600  0.17318200  0.29765200  1
  Bi  Bi15  1  0.17318200  0.29765200  0.78182600  1
  Bi  Bi16  1  0.50505300  0.63138600  0.11374600  1
  Bi  Bi17  1  0.84226100  0.96813500  0.45249700  1
  Bi  Bi18  1  0.15452300  0.15452300  0.15452300  1
  Bi  Bi19  1  0.64939300  0.64939300  0.64939300  1
  Bi  Bi20  1  0.69403800  0.93747300  0.64252900  1
  Bi  Bi21  1  0.35688500  0.59139600  0.30048400  1
  Bi  Bi22  1  0.01539700  0.26171400  0.96678900  1
  Bi  Bi23  1  0.59139600  0.30048400  0.35688500  1
  Bi  Bi24  1  0.26171400  0.96678900  0.01539700  1
  Bi  Bi25  1  0.93747300  0.64252900  0.69403800  1
  Bi  Bi26  1  0.96678900  0.01539700  0.26171400  1
  Bi  Bi27  1  0.64252900  0.69403800  0.93747300  1
  Bi  Bi28  1  0.30048400  0.35688500  0.59139600  1
  Bi  Bi29  1  0.97396400  0.73962300  0.03054300  1
  Bi  Bi30  1  0.64662100  0.40102800  0.69552800  1
  Bi  Bi31  1  0.32080500  0.07664900  0.37140900  1
  Bi  Bi32  1  0.07664900  0.37140900  0.32080500  1
  Bi  Bi33  1  0.73962300  0.03054300  0.97396400  1
  Bi  Bi34  1  0.40102800  0.69552800  0.64662100  1
  Bi  Bi35  1  0.69552800  0.64662100  0.40102800  1
  Bi  Bi36  1  0.37140900  0.32080500  0.07664900  1
  Bi  Bi37  1  0.03054300  0.97396400  0.73962300  1
  S  S0  1  0.23936500  0.63622900  0.37424600  1
  S  S1  1  0.57249100  0.97317200  0.70861000  1
  S  S2  1  0.90567000  0.30741700  0.04351200  1
  S  S3  1  0.97317200  0.70861000  0.57249100  1
  S  S4  1  0.30741700  0.04351200  0.90567000  1
  S  S5  1  0.63622900  0.37424600  0.23936500  1
  S  S6  1  0.04351200  0.90567000  0.30741700  1
  S  S7  1  0.37424600  0.23936500  0.63622900  1
  S  S8  1  0.70861000  0.57249100  0.97317200  1
  S  S9  1  0.09389100  0.69700700  0.95918800  1
  S  S10  1  0.43125000  0.03045500  0.29451600  1
  S  S11  1  0.76542600  0.36343100  0.62781500  1
  S  S12  1  0.36343100  0.62781500  0.76542600  1
  S  S13  1  0.69700700  0.95918800  0.09389100  1
  S  S14  1  0.03045500  0.29451600  0.43125000  1
  S  S15  1  0.29451600  0.43125000  0.03045500  1
  S  S16  1  0.62781500  0.76542600  0.36343100  1
  S  S17  1  0.95918800  0.09389100  0.69700700  1
  S  S18  1  0.14580100  0.53330900  0.08087100  1
  S  S19  1  0.47631500  0.86399900  0.41047100  1
  S  S20  1  0.81057200  0.19875000  0.74618800  1
  S  S21  1  0.19875000  0.74618800  0.81057200  1
  S  S22  1  0.53330900  0.08087100  0.14580100  1
  S  S23  1  0.86399900  0.41047100  0.47631500  1
  S  S24  1  0.41047100  0.47631500  0.86399900  1
  S  S25  1  0.74618800  0.81057200  0.19875000  1
  S  S26  1  0.08087100  0.14580100  0.53330900  1
  S  S27  1  0.19103700  0.80448500  0.25651300  1
  S  S28  1  0.52514500  0.13641000  0.58964100  1
  S  S29  1  0.85992600  0.47130700  0.92478600  1
  S  S30  1  0.13641000  0.58964100  0.52514500  1
  S  S31  1  0.47130700  0.92478600  0.85992600  1
  S  S32  1  0.80448500  0.25651300  0.19103700  1
  S  S33  1  0.92478600  0.85992600  0.47130700  1
  S  S34  1  0.25651300  0.19103700  0.80448500  1
  S  S35  1  0.58964100  0.52514500  0.13641000  1
  S  S36  1  0.51610600  0.70481000  0.53944200  1
  S  S37  1  0.85148400  0.03577700  0.87212000  1
  S  S38  1  0.18090200  0.36137100  0.20194300  1
  S  S39  1  0.03577700  0.87212000  0.85148400  1
  S  S40  1  0.36137100  0.20194300  0.18090200  1
  S  S41  1  0.70481000  0.53944200  0.51610600  1
  S  S42  1  0.20194300  0.18090200  0.36137100  1
  S  S43  1  0.53944200  0.51610600  0.70481000  1
  S  S44  1  0.87212000  0.85148400  0.03577700  1
  S  S45  1  0.81498000  0.63411200  0.79307000  1
  S  S46  1  0.15554600  0.96839000  0.13322900  1
  S  S47  1  0.48805400  0.30364400  0.46717600  1
  S  S48  1  0.30364400  0.46717600  0.48805400  1
  S  S49  1  0.63411200  0.79307000  0.81498000  1
  S  S50  1  0.96839000  0.13322900  0.15554600  1
  S  S51  1  0.13322900  0.15554600  0.96839000  1
  S  S52  1  0.46717600  0.48805400  0.30364400  1
  S  S53  1  0.79307000  0.81498000  0.63411200  1
  Br  Br0  1  0.25213600  0.58499500  0.91876600  1
  Br  Br1  1  0.58499500  0.91876600  0.25213600  1
  Br  Br2  1  0.91876600  0.25213600  0.58499500  1
  Br  Br3  1  0.08681300  0.75336300  0.42021900  1
  Br  Br4  1  0.42021900  0.08681300  0.75336300  1
  Br  Br5  1  0.75336300  0.42021900  0.08681300  1
loop_
_geom_bond_atom_site_label_1
_geom_bond_atom_site_label_2
_geom_bond_distance
_geom_bond_site_symmetry_2
Bi0 S19 2.625527 1_555
Bi0 S1 2.775788 1_555
Bi0 S0 2.784122 1_555
Bi0 S27 2.946575 1_555
Bi0 S28 2.953175 1_565
Bi1 S20 2.630627 1_555
Bi1 S2 2.772321 1_556
Bi1 S1 2.780713 1_545
Bi1 S29 2.927735 1_555
Bi1 S28 2.947077 1_555
Bi2 S18 2.626766 1_555
Bi2 S0 2.777929 1_555
Bi2 S2 2.787441 1_455
Bi2 S27 2.916109 1_555
Bi2 S29 2.937490 1_454
Bi3 S21 2.630627 1_555
Bi3 S4 2.772321 1_565
Bi3 S3 2.780713 1_455
Bi3 S31 2.927735 1_555
Bi3 S30 2.947077 1_555
Bi4 S22 2.626766 1_555
Bi4 S5 2.777929 1_555
Bi4 S4 2.787441 1_554
Bi4 S32 2.916109 1_555
Bi4 S31 2.937490 1_544
Bi5 S23 2.625527 1_555
Bi5 S3 2.775788 1_555
Bi5 S5 2.784122 1_555
Bi5 S32 2.946575 1_555
Bi5 S30 2.953175 1_655
Bi6 S26 2.626766 1_555
Bi6 S7 2.777929 1_555
Bi6 S6 2.787440 1_545
Bi6 S34 2.916109 1_555
Bi6 S33 2.937490 1_445
Bi7 S24 2.625527 1_555
Bi7 S8 2.775788 1_555
Bi7 S7 2.784122 1_555
Bi7 S34 2.946576 1_555
Bi7 S35 2.953175 1_556
Bi8 S25 2.630627 1_555
Bi8 S6 2.772322 1_655
Bi8 S8 2.780713 1_554
Bi8 S33 2.927735 1_555
Bi8 S35 2.947078 1_555
Bi9 S29 2.625778 1_555
Bi9 S9 2.755188 1_655
Bi9 S11 2.773923 1_555
Bi9 S18 2.944270 1_656
Bi9 S20 2.970751 1_555
Bi10 S27 2.623298 1_555
Bi10 S10 2.783870 1_565
Bi10 S9 2.810409 1_554
Bi10 S18 2.917436 1_555
Bi10 S19 2.922494 1_555
Bi11 S28 2.632445 1_555
Bi11 S10 2.763703 1_555
Bi11 S11 2.793053 1_555
Bi11 S19 2.923764 1_545
Bi11 S20 2.948348 1_555
Bi12 S30 2.632445 1_555
Bi12 S14 2.763703 1_555
Bi12 S12 2.793053 1_555
Bi12 S23 2.923764 1_455
Bi12 S21 2.948348 1_555
Bi13 S31 2.625778 1_555
Bi13 S13 2.755188 1_556
Bi13 S12 2.773923 1_555
Bi13 S22 2.944270 1_566
Bi13 S21 2.970751 1_555
Bi14 S32 2.623298 1_555
Bi14 S14 2.783870 1_655
Bi14 S13 2.810409 1_545
Bi14 S22 2.917436 1_555
Bi14 S23 2.922494 1_555
Bi15 S34 2.623298 1_555
Bi15 S15 2.783870 1_556
Bi15 S17 2.810409 1_455
Bi15 S26 2.917436 1_555
Bi15 S24 2.922494 1_555
Bi16 S35 2.632445 1_555
Bi16 S15 2.763703 1_555
Bi16 S16 2.793053 1_555
Bi16 S24 2.923764 1_554
Bi16 S25 2.948348 1_555
Bi17 S33 2.625778 1_555
Bi17 S17 2.755188 1_565
Bi17 S16 2.773924 1_555
Bi17 S26 2.944270 1_665
Bi17 S25 2.970751 1_555
Bi18 S51 2.887312 1_554
Bi18 S46 2.887312 1_545
Bi18 S50 2.887313 1_455
Bi18 S42 2.899563 1_555
Bi18 S38 2.899563 1_555
Bi18 S40 2.899563 1_555
Bi19 S36 2.883521 1_555
Bi19 S41 2.883521 1_555
Bi19 S43 2.883521 1_555
Bi19 S49 2.921746 1_555
Bi19 S45 2.921746 1_555
Bi19 S53 2.921746 1_555
Bi20 S37 2.647819 1_565
Bi20 S36 2.721485 1_555
Bi20 S1 2.724330 1_555
Bi20 S53 2.998225 1_555
Bi20 S20 3.064229 1_565
Bi20 S19 3.178104 1_555
Bi21 S36 2.688669 1_555
Bi21 S38 2.711871 1_555
Bi21 S0 2.787960 1_555
Bi21 S52 2.888601 1_555
Bi21 S18 3.153666 1_555
Bi21 S19 3.195556 1_555
Bi22 S37 2.643838 1_455
Bi22 S2 2.701870 1_456
Bi22 S38 2.729116 1_556
Bi22 S51 3.029664 1_555
Bi22 S20 3.067474 1_455
Bi22 S18 3.136603 1_556
Bi23 S41 2.688669 1_555
Bi23 S40 2.711870 1_555
Bi23 S5 2.787960 1_555
Bi23 S47 2.888601 1_555
Bi23 S22 3.153666 1_555
Bi23 S23 3.195556 1_555
Bi24 S39 2.643838 1_554
Bi24 S4 2.701870 1_564
Bi24 S40 2.729116 1_565
Bi24 S46 3.029664 1_555
Bi24 S21 3.067474 1_554
Bi24 S22 3.136603 1_565
Bi25 S39 2.647819 1_655
Bi25 S41 2.721484 1_555
Bi25 S3 2.724330 1_555
Bi25 S45 2.998225 1_555
Bi25 S21 3.064229 1_655
Bi25 S23 3.178104 1_555
Bi26 S44 2.643838 1_545
Bi26 S6 2.701870 1_645
Bi26 S42 2.729116 1_655
Bi26 S50 3.029664 1_555
Bi26 S25 3.067474 1_545
Bi26 S26 3.136603 1_655
Bi27 S44 2.647819 1_556
Bi27 S43 2.721484 1_555
Bi27 S8 2.724330 1_555
Bi27 S49 2.998225 1_555
Bi27 S25 3.064229 1_556
Bi27 S24 3.178104 1_555
Bi28 S43 2.688669 1_555
Bi28 S42 2.711870 1_555
Bi28 S7 2.787960 1_555
Bi28 S48 2.888601 1_555
Bi28 S26 3.153666 1_555
Bi28 S24 3.195556 1_555
Bi29 S46 2.696092 1_655
Bi29 S45 2.709163 1_554
Bi29 S9 2.789170 1_654
Bi29 S44 2.889941 1_555
Bi29 S29 3.165931 1_554
Bi29 S27 3.195655 1_655
Bi30 S47 2.640722 1_555
Bi30 S11 2.708087 1_555
Bi30 S45 2.725793 1_555
Bi30 S43 3.006859 1_555
Bi30 S28 3.090775 1_555
Bi30 S29 3.146816 1_555
Bi31 S47 2.660950 1_555
Bi31 S46 2.716686 1_545
Bi31 S10 2.717368 1_555
Bi31 S42 3.018451 1_555
Bi31 S28 3.071398 1_555
Bi31 S27 3.142869 1_545
Bi32 S48 2.660950 1_555
Bi32 S50 2.716686 1_455
Bi32 S14 2.717368 1_555
Bi32 S38 3.018451 1_555
Bi32 S30 3.071398 1_555
Bi32 S32 3.142868 1_455
Bi33 S50 2.696092 1_556
Bi33 S49 2.709163 1_545
Bi33 S13 2.789170 1_546
Bi33 S37 2.889941 1_555
Bi33 S31 3.165931 1_545
Bi33 S32 3.195655 1_556
Bi34 S48 2.640722 1_555
Bi34 S12 2.708087 1_555
Bi34 S49 2.725793 1_555
Bi34 S36 3.006859 1_555
Bi34 S30 3.090775 1_555
Bi34 S31 3.146816 1_555
Bi35 S52 2.640722 1_555
Bi35 S16 2.708087 1_555
Bi35 S53 2.725793 1_555
Bi35 S41 3.006859 1_555
Bi35 S35 3.090775 1_555
Bi35 S33 3.146816 1_555
Bi36 S52 2.660950 1_555
Bi36 S51 2.716687 1_554
Bi36 S15 2.717368 1_555
Bi36 S40 3.018451 1_555
Bi36 S35 3.071398 1_555
Bi36 S34 3.142868 1_554
Bi37 S51 2.696092 1_565
Bi37 S53 2.709164 1_455
Bi37 S17 2.789170 1_465
Bi37 S39 2.889941 1_555
Bi37 S33 3.165931 1_455
Bi37 S34 3.195655 1_565
