# generated using pymatgen
data_YH6C2SNO9
_symmetry_space_group_name_H-M   'P 1'
_cell_length_a   6.58861556
_cell_length_b   8.74014700
_cell_length_c   13.96619501
_cell_angle_alpha   90.00000000
_cell_angle_beta   93.94599003
_cell_angle_gamma   90.00000000
_symmetry_Int_Tables_number   1
_chemical_formula_structural   YH6C2SNO9
_chemical_formula_sum   'Y4 H24 C8 S4 N4 O36'
_cell_volume   802.34329926
_cell_formula_units_Z   4
loop_
 _symmetry_equiv_pos_site_id
 _symmetry_equiv_pos_as_xyz
  1  'x, y, z'
loop_
 _atom_site_type_symbol
 _atom_site_label
 _atom_site_symmetry_multiplicity
 _atom_site_fract_x
 _atom_site_fract_y
 _atom_site_fract_z
 _atom_site_occupancy
  Y  Y0  1  0.24744500  0.23574200  0.90831600  1
  Y  Y1  1  0.74744500  0.26425800  0.40831600  1
  Y  Y2  1  0.75255500  0.76425800  0.09168400  1
  Y  Y3  1  0.25255500  0.73574200  0.59168400  1
  H  H0  1  0.35707200  0.46926100  0.06934000  1
  H  H1  1  0.85707200  0.03073900  0.56934000  1
  H  H2  1  0.64292800  0.53073900  0.93066000  1
  H  H3  1  0.14292800  0.96926100  0.43066000  1
  H  H4  1  0.11968100  0.46145000  0.06535200  1
  H  H5  1  0.61968100  0.03855000  0.56535200  1
  H  H6  1  0.88031900  0.53855000  0.93464800  1
  H  H7  1  0.38031900  0.96145000  0.43464800  1
  H  H8  1  0.58371200  0.30573200  0.66351400  1
  H  H9  1  0.08371200  0.19426800  0.16351400  1
  H  H10  1  0.41628800  0.69426800  0.33648600  1
  H  H11  1  0.91628800  0.80573200  0.83648600  1
  H  H12  1  0.82430300  0.24511800  0.70554100  1
  H  H13  1  0.32430300  0.25488200  0.20554100  1
  H  H14  1  0.17569700  0.75488200  0.29445900  1
  H  H15  1  0.67569700  0.74511800  0.79445900  1
  H  H16  1  0.70663800  0.38369500  0.76123800  1
  H  H17  1  0.20663800  0.11630500  0.26123800  1
  H  H18  1  0.29336200  0.61630500  0.23876200  1
  H  H19  1  0.79336200  0.88369500  0.73876200  1
  H  H20  1  0.79030000  0.41855800  0.65272000  1
  H  H21  1  0.29030000  0.08144200  0.15272000  1
  H  H22  1  0.20970000  0.58144200  0.34728000  1
  H  H23  1  0.70970000  0.91855800  0.84728000  1
  C  C0  1  0.36638600  0.52907400  0.77919000  1
  C  C1  1  0.86638600  0.97092600  0.27919000  1
  C  C2  1  0.63361400  0.47092600  0.22081000  1
  C  C3  1  0.13361400  0.02907400  0.72081000  1
  C  C4  1  0.13325000  0.52299500  0.76752100  1
  C  C5  1  0.63325000  0.97700500  0.26752100  1
  C  C6  1  0.86675000  0.47700500  0.23247900  1
  C  C7  1  0.36675000  0.02299500  0.73247900  1
  S  S0  1  0.23551500  0.83502100  0.97803000  1
  S  S1  1  0.73551500  0.66497900  0.47803000  1
  S  S2  1  0.76448500  0.16497900  0.02197000  1
  S  S3  1  0.26448500  0.33502100  0.52197000  1
  N  N0  1  0.72676800  0.33707300  0.69485900  1
  N  N1  1  0.22676800  0.16292700  0.19485900  1
  N  N2  1  0.27323200  0.66292700  0.30514100  1
  N  N3  1  0.77323200  0.83707300  0.80514100  1
  O  O0  1  0.24756100  0.00507500  0.99167200  1
  O  O1  1  0.74756100  0.49492500  0.49167200  1
  O  O2  1  0.75243900  0.99492500  0.00832800  1
  O  O3  1  0.25243900  0.50507500  0.50832800  1
  O  O4  1  0.17891600  0.79842800  0.87620300  1
  O  O5  1  0.67891600  0.70157200  0.37620300  1
  O  O6  1  0.82108400  0.20157100  0.12379700  1
  O  O7  1  0.32108400  0.29842800  0.62379700  1
  O  O8  1  0.43620900  0.76520600  0.00702300  1
  O  O9  1  0.93620900  0.73479400  0.50702300  1
  O  O10  1  0.56379100  0.23479400  0.99297700  1
  O  O11  1  0.06379100  0.26520600  0.49297700  1
  O  O12  1  0.08153200  0.77152400  0.04051700  1
  O  O13  1  0.58153200  0.72847600  0.54051700  1
  O  O14  1  0.91846800  0.22847600  0.95948300  1
  O  O15  1  0.41846800  0.27152400  0.45948300  1
  O  O16  1  0.45354600  0.44096800  0.84216500  1
  O  O17  1  0.95354600  0.05903200  0.34216500  1
  O  O18  1  0.54645400  0.55903200  0.15783500  1
  O  O19  1  0.04645400  0.94096800  0.65783500  1
  O  O20  1  0.45542500  0.62027600  0.72551900  1
  O  O21  1  0.95542500  0.87972400  0.22551900  1
  O  O22  1  0.54457500  0.37972400  0.27448100  1
  O  O23  1  0.04457500  0.12027600  0.77448100  1
  O  O24  1  0.04662900  0.43933900  0.82720800  1
  O  O25  1  0.54662900  0.06066100  0.32720800  1
  O  O26  1  0.95337100  0.56066100  0.17279200  1
  O  O27  1  0.45337100  0.93933900  0.67279200  1
  O  O28  1  0.04691000  0.60027700  0.69992600  1
  O  O29  1  0.54691000  0.89972300  0.19992600  1
  O  O30  1  0.95309000  0.39972300  0.30007400  1
  O  O31  1  0.45309000  0.10027700  0.80007400  1
  O  O32  1  0.23872300  0.41231100  0.04024900  1
  O  O33  1  0.73872300  0.08768900  0.54024900  1
  O  O34  1  0.76127700  0.58768900  0.95975100  1
  O  O35  1  0.26127700  0.91231100  0.45975100  1
loop_
_geom_bond_atom_site_label_1
_geom_bond_atom_site_label_2
_geom_bond_distance
_geom_bond_site_symmetry_2
H0 O32 0.988557 1_555
H1 O33 0.988557 1_555
H2 O34 0.988557 1_555
H3 O35 0.988557 1_555
H4 O32 0.979988 1_555
H5 O33 0.979988 1_555
H6 O34 0.979988 1_555
H7 O35 0.979988 1_555
H8 N0 1.047985 1_555
H9 N1 1.047985 1_555
H10 N2 1.047985 1_555
H11 N3 1.047985 1_555
H12 N0 1.033420 1_555
H13 N1 1.033420 1_555
H14 N2 1.033420 1_555
H15 N3 1.033420 1_555
H16 N0 1.029563 1_555
H17 N1 1.029563 1_555
H18 N2 1.029563 1_555
H19 N3 1.029563 1_555
H20 N0 1.030871 1_555
H21 N1 1.030871 1_555
H22 N2 1.030871 1_555
H23 N3 1.030871 1_555
C0 O20 1.265678 1_555
C0 O16 1.275466 1_555
C1 O21 1.265678 1_555
C1 O17 1.275466 1_565
C2 O22 1.265678 1_555
C2 O18 1.275466 1_555
C3 O23 1.265678 1_555
C3 O19 1.275466 1_545
C4 O28 1.263785 1_555
C4 O24 1.273061 1_555
C5 O29 1.263785 1_555
C5 O25 1.273061 1_565
C6 O30 1.263785 1_555
C6 O26 1.273061 1_555
C7 O31 1.263785 1_555
C7 O27 1.273061 1_545
O0 S0 1.499866 1_545
O0 Y0 2.328019 1_555
O1 S1 1.499866 1_555
O1 Y1 2.328019 1_555
O2 S2 1.499866 1_565
O2 Y2 2.328019 1_555
O3 S3 1.499866 1_555
O3 Y3 2.328019 1_555
O4 S0 1.480146 1_555
O5 S1 1.480146 1_555
O6 S2 1.480144 1_555
O7 S3 1.480146 1_555
O8 S0 1.486967 1_554
O8 Y2 2.324471 1_555
O9 S1 1.486967 1_555
O9 Y3 2.324471 1_655
O10 S2 1.486967 1_556
O10 Y0 2.324471 1_555
O11 S3 1.486967 1_555
O11 Y1 2.324471 1_455
O12 S0 1.490218 1_554
O12 Y2 2.329366 1_455
O13 S1 1.490218 1_555
O13 Y3 2.329366 1_555
O14 S2 1.490218 1_556
O14 Y0 2.329366 1_655
O15 S3 1.490218 1_555
O15 Y1 2.329366 1_555
O16 Y0 2.467295 1_555
O17 Y1 2.467295 1_555
O18 Y2 2.467295 1_555
O19 Y3 2.467295 1_555
O20 Y3 2.440281 1_555
O21 Y2 2.440281 1_555
O22 Y1 2.440281 1_555
O23 Y0 2.440281 1_555
O24 Y0 2.448262 1_555
O25 Y1 2.448262 1_555
O26 Y2 2.448262 1_555
O27 Y3 2.448262 1_555
O28 Y3 2.409325 1_555
O29 Y2 2.409325 1_555
O30 Y1 2.409325 1_555
O31 Y0 2.409325 1_555
O32 Y0 2.407207 1_554
O33 Y1 2.407207 1_555
O34 Y2 2.407207 1_556
O35 Y3 2.407207 1_555
