# generated using pymatgen
data_Mn2ZnO4
_symmetry_space_group_name_H-M   'P 1'
_cell_length_a   6.07841717
_cell_length_b   6.07841717
_cell_length_c   6.07841717
_cell_angle_alpha   60.00000000
_cell_angle_beta   60.00000000
_cell_angle_gamma   60.00000000
_symmetry_Int_Tables_number   1
_chemical_formula_structural   Mn2ZnO4
_chemical_formula_sum   'Mn4 Zn2 O8'
_cell_volume   158.80219871
_cell_formula_units_Z   2
loop_
 _symmetry_equiv_pos_site_id
 _symmetry_equiv_pos_as_xyz
  1  'x, y, z'
loop_
 _atom_site_type_symbol
 _atom_site_label
 _atom_site_symmetry_multiplicity
 _atom_site_fract_x
 _atom_site_fract_y
 _atom_site_fract_z
 _atom_site_occupancy
  Mn  Mn0  1  0.12500000  0.12500000  0.12500000  1
  Mn  Mn1  1  0.62500000  0.12500000  0.12500000  1
  Mn  Mn2  1  0.12500000  0.12500000  0.62500000  1
  Mn  Mn3  1  0.12500000  0.62500000  0.12500000  1
  Zn  Zn0  1  0.75000000  0.75000000  0.75000000  1
  Zn  Zn1  1  0.50000000  0.50000000  0.50000000  1
  O  O0  1  0.88587600  0.34237200  0.88587600  1
  O  O1  1  0.36412400  0.36412400  0.90762800  1
  O  O2  1  0.36412400  0.36412400  0.36412400  1
  O  O3  1  0.90762800  0.36412400  0.36412400  1
  O  O4  1  0.88587600  0.88587600  0.88587600  1
  O  O5  1  0.34237200  0.88587600  0.88587600  1
  O  O6  1  0.36412400  0.90762800  0.36412400  1
  O  O7  1  0.88587600  0.88587600  0.34237200  1
loop_
_geom_bond_atom_site_label_1
_geom_bond_atom_site_label_2
_geom_bond_distance
_geom_bond_site_symmetry_2
Mn0 O6 2.059801 1_545
Mn0 O7 2.059801 1_445
Mn0 O1 2.059801 1_554
Mn0 O3 2.059801 1_455
Mn0 O5 2.059801 1_544
Mn0 O0 2.059801 1_454
Mn1 O6 2.059801 1_545
Mn1 O1 2.059801 1_554
Mn1 O2 2.059801 1_555
Mn1 O4 2.059801 1_544
Mn1 O7 2.059801 1_545
Mn1 O0 2.059801 1_554
Mn2 O0 2.059801 1_455
Mn2 O6 2.059801 1_545
Mn2 O2 2.059801 1_555
Mn2 O3 2.059801 1_455
Mn2 O4 2.059801 1_445
Mn2 O5 2.059801 1_545
Mn3 O1 2.059801 1_554
Mn3 O5 2.059801 1_554
Mn3 O2 2.059801 1_555
Mn3 O3 2.059801 1_455
Mn3 O7 2.059801 1_455
Mn3 O4 2.059801 1_454
O0 Zn0 2.023061 1_555
O1 Zn1 2.023061 1_555
O2 Zn1 2.023061 1_555
O3 Zn1 2.023061 1_555
O4 Zn0 2.023061 1_555
O5 Zn0 2.023061 1_555
O6 Zn1 2.023061 1_555
O7 Zn0 2.023061 1_555
