# generated using pymatgen
data_KPrV4O12
_symmetry_space_group_name_H-M   'P 1'
_cell_length_a   6.02762537
_cell_length_b   6.02762537
_cell_length_c   7.21903869
_cell_angle_alpha   90.00000000
_cell_angle_beta   90.00000000
_cell_angle_gamma   73.68966445
_symmetry_Int_Tables_number   1
_chemical_formula_structural   KPrV4O12
_chemical_formula_sum   'K1 Pr1 V4 O12'
_cell_volume   251.72833126
_cell_formula_units_Z   1
loop_
 _symmetry_equiv_pos_site_id
 _symmetry_equiv_pos_as_xyz
  1  'x, y, z'
loop_
 _atom_site_type_symbol
 _atom_site_label
 _atom_site_symmetry_multiplicity
 _atom_site_fract_x
 _atom_site_fract_y
 _atom_site_fract_z
 _atom_site_occupancy
  K  K0  1  0.03500347  0.03500347  0.50000000  1
  Pr  Pr0  1  0.54701584  0.54701584  0.00000000  1
  V  V0  1  0.53966804  0.03575585  0.75270778  1
  V  V1  1  0.53966804  0.03575585  0.24729222  1
  V  V2  1  0.03575585  0.53966804  0.24729222  1
  V  V3  1  0.03575585  0.53966804  0.75270778  1
  O  O0  1  0.72403555  0.19535304  0.78189110  1
  O  O1  1  0.19535304  0.72403555  0.78189110  1
  O  O2  1  0.19535304  0.72403555  0.21810890  1
  O  O3  1  0.72403555  0.19535304  0.21810890  1
  O  O4  1  0.71865383  0.71865383  0.74114373  1
  O  O5  1  0.26364049  0.26364049  0.77350013  1
  O  O6  1  0.26364049  0.26364049  0.22649987  1
  O  O7  1  0.71865383  0.71865383  0.25885627  1
  O  O8  1  0.48799926  0.95305646  0.00000000  1
  O  O9  1  0.50095181  0.02335955  0.50000000  1
  O  O10  1  0.95305646  0.48799926  0.00000000  1
  O  O11  1  0.02335955  0.50095181  0.50000000  1
loop_
_geom_bond_atom_site_label_1
_geom_bond_atom_site_label_2
_geom_bond_distance
_geom_bond_site_symmetry_2
K0 O1 2.751568 1_545
K0 O0 2.751568 1_455
K0 O3 2.751568 1_455
K0 O2 2.751568 1_545
K0 O9 2.789665 1_555
K0 O11 2.789665 1_555
K0 O6 2.960337 1_555
K0 O5 2.960337 1_555
K0 O9 3.239475 1_455
K0 O11 3.239475 1_545
O0 V0 1.674893 1_555
O0 Pr0 2.615415 1_556
O1 V3 1.674893 1_555
O1 Pr0 2.615415 1_556
O2 V2 1.674893 1_555
O2 Pr0 2.615415 1_555
O3 V1 1.674893 1_555
O3 Pr0 2.615415 1_555
O4 V3 1.914683 1_655
O4 V0 1.914683 1_565
O4 Pr0 2.496772 1_556
O5 V0 1.842243 1_555
O5 V3 1.842243 1_555
O6 V2 1.842243 1_555
O6 V1 1.842243 1_555
O7 V2 1.914683 1_655
O7 V1 1.914683 1_565
O7 Pr0 2.496772 1_555
O8 V0 1.902540 1_564
O8 V1 1.902540 1_565
O8 Pr0 2.372254 1_555
O9 V1 1.843349 1_555
O9 V0 1.843349 1_555
O10 V3 1.902540 1_654
O10 V2 1.902540 1_655
O10 Pr0 2.372254 1_555
O11 V2 1.843349 1_555
O11 V3 1.843349 1_555
