# generated using pymatgen
data_Na3Mg2Mn4Be6Si9(SnO13)3
_symmetry_space_group_name_H-M   'P 1'
_cell_length_a   6.91375108
_cell_length_b   13.43394400
_cell_length_c   18.01978443
_cell_angle_alpha   111.88565079
_cell_angle_beta   78.95558323
_cell_angle_gamma   90.00000000
_symmetry_Int_Tables_number   1
_chemical_formula_structural   Na3Mg2Mn4Be6Si9(SnO13)3
_chemical_formula_sum   'Na6 Mg4 Mn8 Be12 Si18 Sn6 O78'
_cell_volume   1519.58094174
_cell_formula_units_Z   2
loop_
 _symmetry_equiv_pos_site_id
 _symmetry_equiv_pos_as_xyz
  1  'x, y, z'
loop_
 _atom_site_type_symbol
 _atom_site_label
 _atom_site_symmetry_multiplicity
 _atom_site_fract_x
 _atom_site_fract_y
 _atom_site_fract_z
 _atom_site_occupancy
  Na  Na0  1  0.49919500  0.50043700  0.00139300  1
  Na  Na1  1  0.83377500  0.16730900  0.33372300  1
  Na  Na2  1  0.16690300  0.83371900  0.66709900  1
  Na  Na3  1  0.49955800  0.00025200  0.99961000  1
  Na  Na4  1  0.83413800  0.66571100  0.33194000  1
  Na  Na5  1  0.16643100  0.33328700  0.66623500  1
  Mg  Mg0  1  0.66666700  0.71268100  0.16666700  1
  Mg  Mg1  1  0.00030900  0.38032000  0.50008300  1
  Mg  Mg2  1  0.33302400  0.04690400  0.83325000  1
  Mg  Mg3  1  0.16666700  0.45392800  0.16666700  1
  Mn  Mn0  1  0.49999400  0.12170600  0.49994900  1
  Mn  Mn1  1  0.83333900  0.78842300  0.83338400  1
  Mn  Mn2  1  0.83384500  0.54584400  0.83367800  1
  Mn  Mn3  1  0.16666700  0.21477800  0.16666700  1
  Mn  Mn4  1  0.49948800  0.87883300  0.49965500  1
  Mn  Mn5  1  0.33402300  0.28627600  0.83406800  1
  Mn  Mn6  1  0.66666700  0.95251000  0.16666700  1
  Mn  Mn7  1  0.99931000  0.61887500  0.49926500  1
  Be  Be0  1  0.56965300  0.20451900  0.91279500  1
  Be  Be1  1  0.90467200  0.87065600  0.24546600  1
  Be  Be2  1  0.23567300  0.53800200  0.57933500  1
  Be  Be3  1  0.51497400  0.70774300  0.91326500  1
  Be  Be4  1  0.85142300  0.37624600  0.24610700  1
  Be  Be5  1  0.18160200  0.04107800  0.57994900  1
  Be  Be6  1  0.42866100  0.79185600  0.08786700  1
  Be  Be7  1  0.76368000  0.45839200  0.42053800  1
  Be  Be8  1  0.09766100  0.12533400  0.75399900  1
  Be  Be9  1  0.48191000  0.29680500  0.08722600  1
  Be  Be10  1  0.81835900  0.96114400  0.42006800  1
  Be  Be11  1  0.15173200  0.62779700  0.75338500  1
  Si  Si0  1  0.33297200  0.50153400  0.83379500  1
  Si  Si1  1  0.66666700  0.16833600  0.16666700  1
  Si  Si2  1  0.00036100  0.83440500  0.49953800  1
  Si  Si3  1  0.83382800  0.33133200  0.83361400  1
  Si  Si4  1  0.16666700  0.99812700  0.16666700  1
  Si  Si5  1  0.49950500  0.66438400  0.49971900  1
  Si  Si6  1  0.16666700  0.66687700  0.16666700  1
  Si  Si7  1  0.50000100  0.33608000  0.50001600  1
  Si  Si8  1  0.83333200  0.00273100  0.83331700  1
  Si  Si9  1  0.66666700  0.49990300  0.16666700  1
  Si  Si10  1  0.99994600  0.16738400  0.50002800  1
  Si  Si11  1  0.33338700  0.83402300  0.83330500  1
  Si  Si12  1  0.86510400  0.75033800  0.00078700  1
  Si  Si13  1  0.19845800  0.41699700  0.33316800  1
  Si  Si14  1  0.53148500  0.08324100  0.66733700  1
  Si  Si15  1  0.13487500  0.25049500  0.00016500  1
  Si  Si16  1  0.46822900  0.91621800  0.33254600  1
  Si  Si17  1  0.80184900  0.58257200  0.66599700  1
  Sn  Sn0  1  0.99921500  0.50066700  0.00170000  1
  Sn  Sn1  1  0.33156200  0.16723800  0.33382800  1
  Sn  Sn2  1  0.66535600  0.83349000  0.66711200  1
  Sn  Sn3  1  0.00177100  0.00007600  0.99950500  1
  Sn  Sn4  1  0.33411800  0.66563400  0.33163300  1
  Sn  Sn5  1  0.66797800  0.33304600  0.66622200  1
  O  O0  1  0.37209600  0.71832100  0.14339700  1
  O  O1  1  0.70626200  0.38590100  0.47692600  1
  O  O2  1  0.03960200  0.05240000  0.81007100  1
  O  O3  1  0.48484800  0.42511300  0.14340000  1
  O  O4  1  0.82203600  0.09014800  0.47513700  1
  O  O5  1  0.15527600  0.75685500  0.80852700  1
  O  O6  1  0.15435000  0.55220800  0.80793900  1
  O  O7  1  0.48675400  0.21898500  0.14130200  1
  O  O8  1  0.82053500  0.88599500  0.47507500  1
  O  O9  1  0.03818400  0.25523700  0.80819200  1
  O  O10  1  0.37067800  0.92191800  0.14149800  1
  O  O11  1  0.70454400  0.58858900  0.47463700  1
  O  O12  1  0.62878900  0.28061800  0.85869600  1
  O  O13  1  0.96265500  0.94708700  0.19183500  1
  O  O14  1  0.29515000  0.61371200  0.52514200  1
  O  O15  1  0.51279800  0.57758500  0.85825800  1
  O  O16  1  0.84657900  0.24435000  0.19203100  1
  O  O17  1  0.17898400  0.91093600  0.52539500  1
  O  O18  1  0.84848500  0.44838000  0.18993300  1
  O  O19  1  0.17805800  0.11499500  0.52480700  1
  O  O20  1  0.51129700  0.78167700  0.85819600  1
  O  O21  1  0.96123700  0.74159100  0.18993600  1
  O  O22  1  0.29373100  0.40899600  0.52326300  1
  O  O23  1  0.62707100  0.07564100  0.85640700  1
  O  O24  1  0.99116900  0.85107700  0.00021800  1
  O  O25  1  0.32582700  0.51812700  0.33505200  1
  O  O26  1  0.65760300  0.18411800  0.66684400  1
  O  O27  1  0.00857300  0.14990300  0.00122700  1
  O  O28  1  0.34146200  0.81647800  0.33468100  1
  O  O29  1  0.67356000  0.48306800  0.66822900  1
  O  O30  1  0.00750600  0.34974000  0.99828100  1
  O  O31  1  0.34216400  0.01752600  0.33311500  1
  O  O32  1  0.67573100  0.68394100  0.66649000  1
  O  O33  1  0.99187100  0.64846300  0.99865200  1
  O  O34  1  0.32476000  0.31534300  0.33210600  1
  O  O35  1  0.65977400  0.98150600  0.66510500  1
  O  O36  1  0.16821400  0.54554000  0.09166700  1
  O  O37  1  0.50253600  0.21463300  0.42431100  1
  O  O38  1  0.83604200  0.88115500  0.75765800  1
  O  O39  1  0.74009300  0.54613900  0.09163100  1
  O  O40  1  0.07456000  0.21319700  0.42519200  1
  O  O41  1  0.40811100  0.87970100  0.75838900  1
  O  O42  1  0.40777700  0.38050700  0.75830700  1
  O  O43  1  0.74110200  0.04754400  0.09130600  1
  O  O44  1  0.07558100  0.71476500  0.42389700  1
  O  O45  1  0.83461400  0.37529400  0.75758900  1
  O  O46  1  0.16772700  0.04257500  0.09096900  1
  O  O47  1  0.50048100  0.70895300  0.42417700  1
  O  O48  1  0.83285200  0.45144300  0.90915600  1
  O  O49  1  0.16560700  0.11827300  0.24236500  1
  O  O50  1  0.49871900  0.78437100  0.57574400  1
  O  O51  1  0.25775200  0.45753500  0.90943600  1
  O  O52  1  0.59223200  0.12290500  0.24202800  1
  O  O53  1  0.92555600  0.78886600  0.57502600  1
  O  O54  1  0.59324100  0.62117500  0.24170300  1
  O  O55  1  0.92522200  0.28797800  0.57494400  1
  O  O56  1  0.25877300  0.95467200  0.90814100  1
  O  O57  1  0.16512000  0.62054000  0.24166700  1
  O  O58  1  0.49729100  0.29016200  0.57567500  1
  O  O59  1  0.83079700  0.95698900  0.90902200  1
  O  O60  1  0.76397600  0.71075600  0.91806800  1
  O  O61  1  0.09866500  0.37943400  0.25092100  1
  O  O62  1  0.43093000  0.04356600  0.58446900  1
  O  O63  1  0.31679800  0.20635200  0.91707000  1
  O  O64  1  0.64999300  0.87286100  0.25000800  1
  O  O65  1  0.98313200  0.53862800  0.58390600  1
  O  O66  1  0.23466900  0.29518000  0.08241300  1
  O  O67  1  0.56935700  0.95935300  0.41526500  1
  O  O68  1  0.90240300  0.62576400  0.74886400  1
  O  O69  1  0.68334100  0.78952000  0.08332600  1
  O  O70  1  0.01653500  0.45594900  0.41626300  1
  O  O71  1  0.35020100  0.12138900  0.74942700  1
  O  O72  1  0.38642400  0.74886700  0.00039900  1
  O  O73  1  0.72087800  0.41578200  0.33339800  1
  O  O74  1  0.05259000  0.08239200  0.66696800  1
  O  O75  1  0.61245500  0.24905000  0.99993500  1
  O  O76  1  0.94690900  0.91513500  0.33293400  1
  O  O77  1  0.28074400  0.58209100  0.66636600  1
loop_
_geom_bond_atom_site_label_1
_geom_bond_atom_site_label_2
_geom_bond_distance
_geom_bond_site_symmetry_2
Na0 O39 2.467453 1_555
Na0 O36 2.467533 1_555
Na0 O51 2.492441 1_554
Na0 O48 2.496518 1_554
Na1 O37 2.471322 1_555
Na1 O49 2.480308 1_655
Na1 O40 2.482311 1_655
Na1 O52 2.489419 1_555
Na2 O38 2.469046 1_455
Na2 O50 2.480278 1_555
Na2 O41 2.482392 1_555
Na2 O53 2.493086 1_455
Na3 O59 2.471322 1_545
Na3 O46 2.480309 1_556
Na3 O56 2.482311 1_545
Na3 O43 2.489437 1_556
Na4 O54 2.467435 1_555
Na4 O57 2.467532 1_655
Na4 O44 2.492441 1_655
Na4 O47 2.496518 1_555
Na5 O58 2.469047 1_555
Na5 O45 2.480277 1_455
Na5 O55 2.482410 1_455
Na5 O42 2.493068 1_555
Mg0 O69 2.103228 1_555
Mg0 O64 2.103228 1_555
Mg0 O39 2.138523 1_555
Mg0 O54 2.138523 1_555
Mg0 O21 2.163354 1_555
Mg0 O0 2.163366 1_555
Mg1 O65 2.086849 1_455
Mg1 O70 2.098886 1_555
Mg1 O40 2.145017 1_555
Mg1 O55 2.146480 1_455
Mg1 O22 2.154758 1_555
Mg1 O1 2.158948 1_455
Mg2 O71 2.086849 1_555
Mg2 O63 2.098875 1_555
Mg2 O56 2.145017 1_545
Mg2 O41 2.146480 1_545
Mg2 O2 2.154751 1_555
Mg2 O23 2.158947 1_555
Mg3 O66 2.094472 1_555
Mg3 O61 2.094472 1_555
Mg3 O36 2.139096 1_555
Mg3 O57 2.139096 1_555
Mg3 O3 2.165753 1_555
Mg3 O18 2.165760 1_455
Mn0 O67 2.133995 1_545
Mn0 O62 2.136076 1_555
Mn0 O58 2.161421 1_555
Mn0 O37 2.162356 1_555
Mn0 O19 2.193401 1_555
Mn0 O4 2.194150 1_555
Mn1 O60 2.133974 1_555
Mn1 O68 2.136066 1_555
Mn1 O38 2.161443 1_555
Mn1 O59 2.162367 1_555
Mn1 O5 2.193407 1_655
Mn1 O20 2.194150 1_555
Mn2 O68 2.158450 1_555
Mn2 O60 2.158906 1_555
Mn2 O48 2.177269 1_555
Mn2 O6 2.183665 1_655
Mn2 O45 2.187376 1_555
Mn2 O15 2.187995 1_555
Mn3 O66 2.154484 1_555
Mn3 O61 2.154484 1_555
Mn3 O7 2.177429 1_555
Mn3 O16 2.177437 1_455
Mn3 O46 2.203641 1_555
Mn3 O49 2.203641 1_555
Mn4 O62 2.158439 1_565
Mn4 O67 2.158885 1_555
Mn4 O47 2.177280 1_555
Mn4 O17 2.183658 1_555
Mn4 O50 2.187387 1_555
Mn4 O8 2.187997 1_555
Mn5 O63 2.129091 1_555
Mn5 O71 2.159010 1_555
Mn5 O12 2.174302 1_555
Mn5 O42 2.178976 1_555
Mn5 O9 2.189801 1_555
Mn5 O51 2.193600 1_555
Mn6 O69 2.131946 1_555
Mn6 O64 2.131946 1_555
Mn6 O43 2.182575 1_565
Mn6 O52 2.182575 1_565
Mn6 O13 2.186071 1_555
Mn6 O10 2.186085 1_555
Mn7 O70 2.129091 1_655
Mn7 O65 2.159021 1_555
Mn7 O11 2.174302 1_555
Mn7 O53 2.178965 1_555
Mn7 O14 2.189815 1_655
Mn7 O44 2.193589 1_655
Be0 O75 1.545588 1_555
Be0 O23 1.649705 1_555
Be0 O12 1.659181 1_555
Be0 O63 1.734834 1_555
Be1 O76 1.549452 1_555
Be1 O21 1.648362 1_555
Be1 O13 1.655371 1_555
Be1 O64 1.746690 1_555
Be2 O77 1.549890 1_555
Be2 O22 1.650662 1_555
Be2 O14 1.656443 1_555
Be2 O65 1.731985 1_455
Be3 O72 1.542430 1_556
Be3 O20 1.648124 1_555
Be3 O15 1.659434 1_555
Be3 O60 1.739913 1_555
Be4 O73 1.550532 1_555
Be4 O18 1.644157 1_555
Be4 O16 1.677955 1_555
Be4 O61 1.727816 1_655
Be5 O74 1.541998 1_555
Be5 O19 1.648906 1_555
Be5 O17 1.657968 1_545
Be5 O62 1.740969 1_555
Be6 O72 1.549452 1_555
Be6 O0 1.648362 1_555
Be6 O10 1.655371 1_555
Be6 O69 1.746699 1_555
Be7 O73 1.545587 1_555
Be7 O1 1.649716 1_555
Be7 O11 1.659170 1_555
Be7 O70 1.734834 1_655
Be8 O74 1.549890 1_555
Be8 O2 1.650663 1_555
Be8 O9 1.656443 1_555
Be8 O71 1.731976 1_555
Be9 O75 1.550532 1_554
Be9 O3 1.644157 1_555
Be9 O7 1.677955 1_555
Be9 O66 1.727805 1_555
Be10 O76 1.542430 1_555
Be10 O4 1.648135 1_565
Be10 O8 1.659412 1_555
Be10 O67 1.739913 1_555
Be11 O77 1.541999 1_555
Be11 O5 1.648895 1_555
Be11 O6 1.657979 1_555
Be11 O68 1.740980 1_455
O0 Si6 1.630495 1_555
O1 Si7 1.623247 1_555
O2 Si8 1.622943 1_455
O3 Si9 1.628901 1_555
O4 Si10 1.629463 1_555
O5 Si11 1.629727 1_555
O6 Si0 1.631720 1_555
O7 Si1 1.633642 1_555
O8 Si2 1.630374 1_655
O9 Si3 1.629096 1_455
O10 Si4 1.628507 1_555
O11 Si5 1.631578 1_555
O12 Si3 1.631585 1_555
O13 Si4 1.628508 1_655
O14 Si5 1.629088 1_555
O15 Si0 1.630360 1_555
O16 Si1 1.633633 1_555
O17 Si2 1.631737 1_555
O18 Si9 1.628885 1_555
O19 Si10 1.629736 1_455
O20 Si11 1.629471 1_555
O21 Si6 1.630503 1_655
O22 Si7 1.622947 1_555
O23 Si8 1.623240 1_555
O24 Si12 1.611881 1_555
O24 Sn3 2.007717 1_664
O25 Si13 1.612265 1_555
O25 Sn4 2.005863 1_555
O26 Si14 1.613345 1_555
O26 Sn5 2.006101 1_555
O27 Si15 1.613040 1_555
O27 Sn3 2.002100 1_554
O28 Si16 1.609493 1_555
O28 Sn4 2.007512 1_555
O29 Si17 1.612940 1_555
O29 Sn5 2.002693 1_555
O30 Si15 1.612254 1_556
O30 Sn0 2.005876 1_456
O31 Si16 1.611881 1_545
O31 Sn1 2.007717 1_555
O32 Si17 1.613334 1_555
O32 Sn2 2.006088 1_555
O33 Si12 1.609493 1_556
O33 Sn0 2.007512 1_556
O34 Si13 1.613040 1_555
O34 Sn1 2.002100 1_555
O35 Si14 1.612929 1_565
O35 Sn2 2.002706 1_555
O36 Si6 1.683972 1_555
O36 Sn0 2.086627 1_455
O37 Si7 1.689589 1_555
O37 Sn1 2.103727 1_555
O38 Si8 1.690199 1_565
O38 Sn2 2.103240 1_555
O39 Si9 1.683717 1_555
O39 Sn0 2.087691 1_555
O40 Si10 1.677983 1_455
O40 Sn1 2.090521 1_555
O41 Si11 1.678163 1_555
O41 Sn2 2.090900 1_555
O42 Si0 1.686104 1_555
O42 Sn5 2.112768 1_555
O43 Si1 1.682731 1_555
O43 Sn3 2.112438 1_654
O44 Si2 1.675331 1_555
O44 Sn4 2.106684 1_555
O45 Si3 1.681045 1_555
O45 Sn5 2.095279 1_555
O46 Si4 1.679478 1_545
O46 Sn3 2.093300 1_554
O47 Si5 1.677984 1_555
O47 Sn4 2.110444 1_555
O48 Si3 1.677984 1_555
O48 Sn0 2.110443 1_556
O49 Si4 1.679478 1_545
O49 Sn1 2.093281 1_555
O50 Si5 1.681045 1_555
O50 Sn2 2.095298 1_555
O51 Si0 1.675331 1_555
O51 Sn0 2.106685 1_456
O52 Si1 1.682731 1_555
O52 Sn1 2.112434 1_555
O53 Si2 1.686104 1_655
O53 Sn2 2.112772 1_555
O54 Si9 1.683717 1_555
O54 Sn4 2.087686 1_555
O55 Si10 1.678163 1_555
O55 Sn5 2.090904 1_555
O56 Si11 1.677983 1_555
O56 Sn3 2.090521 1_565
O57 Si6 1.683972 1_555
O57 Sn4 2.086608 1_555
O58 Si7 1.690208 1_555
O58 Sn5 2.103258 1_555
O59 Si8 1.689589 1_565
O59 Sn3 2.103727 1_665
O60 Si12 1.673864 1_556
O61 Si13 1.661755 1_555
O62 Si14 1.673809 1_555
O63 Si15 1.670977 1_556
O64 Si16 1.663923 1_555
O65 Si17 1.657170 1_555
O66 Si15 1.661774 1_555
O67 Si16 1.673864 1_555
O68 Si17 1.673790 1_555
O69 Si12 1.663930 1_555
O70 Si13 1.670977 1_555
O71 Si14 1.657162 1_555
