# generated using pymatgen
data_Ca16(SiN2)17
_symmetry_space_group_name_H-M   'P 1'
_cell_length_a   10.67789364
_cell_length_b   10.67789364
_cell_length_c   10.67789364
_cell_angle_alpha   60.00000000
_cell_angle_beta   60.00000000
_cell_angle_gamma   60.00000000
_symmetry_Int_Tables_number   1
_chemical_formula_structural   Ca16(SiN2)17
_chemical_formula_sum   'Ca16 Si17 N34'
_cell_volume   860.87832582
_cell_formula_units_Z   1
loop_
 _symmetry_equiv_pos_site_id
 _symmetry_equiv_pos_as_xyz
  1  'x, y, z'
loop_
 _atom_site_type_symbol
 _atom_site_label
 _atom_site_symmetry_multiplicity
 _atom_site_fract_x
 _atom_site_fract_y
 _atom_site_fract_z
 _atom_site_occupancy
  Ca  Ca0  1  0.71104300  0.28895700  0.71104300  1
  Ca  Ca1  1  0.28895700  0.71104300  0.71104300  1
  Ca  Ca2  1  0.28895700  0.28895700  0.71104300  1
  Ca  Ca3  1  0.28895700  0.71104300  0.28895700  1
  Ca  Ca4  1  0.71104300  0.71104300  0.28895700  1
  Ca  Ca5  1  0.71104300  0.28895700  0.28895700  1
  Ca  Ca6  1  0.50320900  0.50320900  0.99679100  1
  Ca  Ca7  1  0.99679100  0.50320900  0.99679100  1
  Ca  Ca8  1  0.50320900  0.99679100  0.99679100  1
  Ca  Ca9  1  0.99679100  0.99679100  0.50320900  1
  Ca  Ca10  1  0.50320900  0.99679100  0.50320900  1
  Ca  Ca11  1  0.99679100  0.50320900  0.50320900  1
  Ca  Ca12  1  0.07691800  0.07691800  0.07691800  1
  Ca  Ca13  1  0.76924600  0.07691800  0.07691800  1
  Ca  Ca14  1  0.07691800  0.76924600  0.07691800  1
  Ca  Ca15  1  0.07691800  0.07691800  0.76924600  1
  Si  Si0  1  0.50000000  0.50000000  0.50000000  1
  Si  Si1  1  0.36528200  0.36528200  0.90415500  1
  Si  Si2  1  0.36528200  0.90415500  0.36528200  1
  Si  Si3  1  0.90415500  0.36528200  0.36528200  1
  Si  Si4  1  0.36528200  0.36528200  0.36528200  1
  Si  Si5  1  0.18052200  0.45843400  0.18052200  1
  Si  Si6  1  0.18052200  0.18052200  0.18052200  1
  Si  Si7  1  0.45843400  0.18052200  0.18052200  1
  Si  Si8  1  0.18052200  0.18052200  0.45843400  1
  Si  Si9  1  0.86330900  0.41007300  0.86330900  1
  Si  Si10  1  0.86330900  0.86330900  0.86330900  1
  Si  Si11  1  0.41007300  0.86330900  0.86330900  1
  Si  Si12  1  0.86330900  0.86330900  0.41007300  1
  Si  Si13  1  0.67771800  0.67771800  0.96684600  1
  Si  Si14  1  0.67771800  0.96684600  0.67771800  1
  Si  Si15  1  0.96684600  0.67771800  0.67771800  1
  Si  Si16  1  0.67771800  0.67771800  0.67771800  1
  N  N0  1  0.43189800  0.43189800  0.70430600  1
  N  N1  1  0.43189800  0.70430600  0.43189800  1
  N  N2  1  0.70430600  0.43189800  0.43189800  1
  N  N3  1  0.43189800  0.43189800  0.43189800  1
  N  N4  1  0.25062100  0.51746700  0.98129100  1
  N  N5  1  0.25062100  0.25062100  0.98129100  1
  N  N6  1  0.51746700  0.25062100  0.98129100  1
  N  N7  1  0.25062100  0.98129100  0.51746700  1
  N  N8  1  0.51746700  0.98129100  0.25062100  1
  N  N9  1  0.25062100  0.98129100  0.25062100  1
  N  N10  1  0.98129100  0.25062100  0.25062100  1
  N  N11  1  0.98129100  0.51746700  0.25062100  1
  N  N12  1  0.98129100  0.25062100  0.51746700  1
  N  N13  1  0.51746700  0.25062100  0.25062100  1
  N  N14  1  0.25062100  0.25062100  0.51746700  1
  N  N15  1  0.25062100  0.51746700  0.25062100  1
  N  N16  1  0.25000000  0.25000000  0.25000000  1
  N  N17  1  0.75000000  0.75000000  0.75000000  1
  N  N18  1  0.74983700  0.48125600  0.01906900  1
  N  N19  1  0.74983700  0.74983700  0.01906900  1
  N  N20  1  0.48125600  0.74983700  0.01906900  1
  N  N21  1  0.74983700  0.01906900  0.48125600  1
  N  N22  1  0.48125600  0.01906900  0.74983700  1
  N  N23  1  0.74983700  0.01906900  0.74983700  1
  N  N24  1  0.01906900  0.74983700  0.74983700  1
  N  N25  1  0.01906900  0.48125600  0.74983700  1
  N  N26  1  0.01906900  0.74983700  0.48125600  1
  N  N27  1  0.48125600  0.74983700  0.74983700  1
  N  N28  1  0.74983700  0.74983700  0.48125600  1
  N  N29  1  0.74983700  0.48125600  0.74983700  1
  N  N30  1  0.92714400  0.21856900  0.92714400  1
  N  N31  1  0.92714400  0.92714400  0.92714400  1
  N  N32  1  0.21856900  0.92714400  0.92714400  1
  N  N33  1  0.92714400  0.92714400  0.21856900  1
loop_
_geom_bond_atom_site_label_1
_geom_bond_atom_site_label_2
_geom_bond_distance
_geom_bond_site_symmetry_2
Ca0 N29 2.536172 1_555
Ca0 N23 2.536183 1_555
Ca0 N12 2.543098 1_555
Ca0 N6 2.543098 1_555
Ca0 N0 2.602774 1_555
Ca0 N2 2.602774 1_555
Ca1 N27 2.536172 1_555
Ca1 N24 2.536183 1_555
Ca1 N4 2.543098 1_555
Ca1 N7 2.543098 1_555
Ca1 N0 2.602774 1_555
Ca1 N1 2.602774 1_555
Ca2 N22 2.536179 1_555
Ca2 N25 2.536179 1_555
Ca2 N14 2.543098 1_555
Ca2 N5 2.543098 1_555
Ca2 N3 2.602774 1_555
Ca2 N0 2.602774 1_555
Ca3 N20 2.536179 1_555
Ca3 N26 2.536179 1_555
Ca3 N15 2.543098 1_555
Ca3 N9 2.543098 1_555
Ca3 N3 2.602774 1_555
Ca3 N1 2.602774 1_555
Ca4 N28 2.536172 1_555
Ca4 N19 2.536183 1_555
Ca4 N8 2.543098 1_555
Ca4 N11 2.543098 1_555
Ca4 N1 2.602774 1_555
Ca4 N2 2.602774 1_555
Ca5 N18 2.536179 1_555
Ca5 N21 2.536179 1_555
Ca5 N13 2.543098 1_555
Ca5 N10 2.543098 1_555
Ca5 N3 2.602774 1_555
Ca5 N2 2.602774 1_555
Ca6 N18 2.645764 1_556
Ca6 N20 2.645764 1_556
Ca6 N27 2.645769 1_555
Ca6 N29 2.645769 1_555
Ca6 N13 2.708419 1_556
Ca6 N15 2.708419 1_556
Ca6 N4 2.708419 1_555
Ca6 N6 2.708419 1_555
Ca7 N19 2.645768 1_556
Ca7 N24 2.645768 1_655
Ca7 N25 2.645774 1_655
Ca7 N18 2.645774 1_556
Ca7 N4 2.708419 1_655
Ca7 N11 2.708419 1_556
Ca7 N5 2.708419 1_655
Ca7 N10 2.708419 1_556
Ca8 N19 2.645768 1_556
Ca8 N23 2.645768 1_565
Ca8 N22 2.645774 1_565
Ca8 N20 2.645774 1_556
Ca8 N6 2.708419 1_565
Ca8 N8 2.708419 1_556
Ca8 N5 2.708419 1_565
Ca8 N9 2.708419 1_556
Ca9 N24 2.645768 1_655
Ca9 N23 2.645768 1_565
Ca9 N26 2.645774 1_655
Ca9 N21 2.645774 1_565
Ca9 N7 2.708419 1_655
Ca9 N12 2.708419 1_565
Ca9 N10 2.708419 1_565
Ca9 N9 2.708419 1_655
Ca10 N21 2.645764 1_565
Ca10 N22 2.645764 1_565
Ca10 N27 2.645769 1_555
Ca10 N28 2.645769 1_555
Ca10 N14 2.708419 1_565
Ca10 N13 2.708419 1_565
Ca10 N7 2.708419 1_555
Ca10 N8 2.708419 1_555
Ca11 N26 2.645764 1_655
Ca11 N25 2.645764 1_655
Ca11 N28 2.645769 1_555
Ca11 N29 2.645769 1_555
Ca11 N14 2.708419 1_655
Ca11 N15 2.708419 1_655
Ca11 N12 2.708419 1_555
Ca11 N11 2.708419 1_555
Ca12 N32 2.263373 1_544
Ca12 N30 2.263373 1_454
Ca12 N33 2.263373 1_445
Ca12 N10 2.752357 1_455
Ca12 N9 2.752357 1_545
Ca12 N5 2.752357 1_554
Ca13 N31 2.263373 1_544
Ca13 N30 2.263381 1_554
Ca13 N33 2.263381 1_545
Ca13 N13 2.752357 1_555
Ca13 N6 2.752357 1_554
Ca13 N8 2.752357 1_545
Ca14 N31 2.263373 1_454
Ca14 N33 2.263381 1_455
Ca14 N32 2.263381 1_554
Ca14 N15 2.752357 1_555
Ca14 N4 2.752357 1_554
Ca14 N11 2.752357 1_455
Ca15 N31 2.263373 1_445
Ca15 N30 2.263381 1_455
Ca15 N32 2.263381 1_545
Ca15 N14 2.752357 1_555
Ca15 N12 2.752357 1_455
Ca15 N7 2.752357 1_545
N0 Si1 1.742376 1_555
N0 Si0 1.781234 1_555
N1 Si2 1.742376 1_555
N1 Si0 1.781234 1_555
N2 Si3 1.742376 1_555
N2 Si0 1.781234 1_555
N3 Si4 1.742368 1_555
N3 Si0 1.781234 1_555
N4 Si5 1.738327 1_556
N4 Si1 1.777225 1_555
N5 Si6 1.738327 1_556
N5 Si1 1.777233 1_555
N6 Si7 1.738327 1_556
N6 Si1 1.777225 1_555
N7 Si8 1.738327 1_565
N7 Si2 1.777225 1_555
N8 Si7 1.738327 1_565
N8 Si2 1.777225 1_555
N9 Si6 1.738327 1_565
N9 Si2 1.777233 1_555
N10 Si6 1.738327 1_655
N10 Si3 1.777233 1_555
N11 Si5 1.738327 1_655
N11 Si3 1.777225 1_555
N12 Si8 1.738327 1_655
N12 Si3 1.777225 1_555
N13 Si7 1.738327 1_555
N13 Si4 1.777231 1_555
N14 Si8 1.738327 1_555
N14 Si4 1.777231 1_555
N15 Si5 1.738327 1_555
N15 Si4 1.777231 1_555
N16 Si8 1.817224 1_555
N16 Si7 1.817224 1_555
N16 Si5 1.817224 1_555
N16 Si6 1.817224 1_555
N17 Si13 1.890564 1_555
N17 Si14 1.890564 1_555
N17 Si15 1.890564 1_555
N17 Si16 1.890564 1_555
N18 Si13 1.717233 1_554
N18 Si9 1.772012 1_554
N19 Si13 1.717224 1_554
N19 Si10 1.772018 1_554
N20 Si13 1.717233 1_554
N20 Si11 1.772012 1_554
N21 Si14 1.717233 1_545
N21 Si12 1.772012 1_545
N22 Si14 1.717233 1_545
N22 Si11 1.772012 1_545
N23 Si14 1.717224 1_545
N23 Si10 1.772018 1_545
N24 Si15 1.717224 1_455
N24 Si10 1.772018 1_455
N25 Si15 1.717233 1_455
N25 Si9 1.772012 1_455
N26 Si15 1.717233 1_455
N26 Si12 1.772012 1_455
N27 Si16 1.717232 1_555
N27 Si11 1.772020 1_555
N28 Si16 1.717232 1_555
N28 Si12 1.772020 1_555
N29 Si16 1.717232 1_555
N29 Si9 1.772020 1_555
N30 Si9 1.669621 1_555
N31 Si10 1.669629 1_555
N32 Si11 1.669621 1_555
N33 Si12 1.669621 1_555
