# generated using pymatgen
data_InBN2
_symmetry_space_group_name_H-M   'P 1'
_cell_length_a   3.45862700
_cell_length_b   3.45866203
_cell_length_c   9.88992400
_cell_angle_alpha   90.00000000
_cell_angle_beta   90.00000000
_cell_angle_gamma   119.99967457
_symmetry_Int_Tables_number   1
_chemical_formula_structural   InBN2
_chemical_formula_sum   'In2 B2 N4'
_cell_volume   102.45587419
_cell_formula_units_Z   2
loop_
 _symmetry_equiv_pos_site_id
 _symmetry_equiv_pos_as_xyz
  1  'x, y, z'
loop_
 _atom_site_type_symbol
 _atom_site_label
 _atom_site_symmetry_multiplicity
 _atom_site_fract_x
 _atom_site_fract_y
 _atom_site_fract_z
 _atom_site_occupancy
  In  In0  1  0.00000000  0.00000000  0.00000000  1
  In  In1  1  0.00000000  0.00000000  0.50000000  1
  B  B0  1  0.66668500  0.33336900  0.25000000  1
  B  B1  1  0.33331500  0.66663100  0.75000000  1
  N  N0  1  0.66667800  0.33335500  0.11427700  1
  N  N1  1  0.33332200  0.66664500  0.88572300  1
  N  N2  1  0.33332200  0.66664500  0.61427700  1
  N  N3  1  0.66667800  0.33335500  0.38572300  1
loop_
_geom_bond_atom_site_label_1
_geom_bond_atom_site_label_2
_geom_bond_distance
_geom_bond_site_symmetry_2
In0 N0 2.294460 1_445
In0 N1 2.294460 1_554
In0 N1 2.294526 1_544
In0 N0 2.294526 1_455
In0 N1 2.294528 1_444
In0 N0 2.294528 1_555
In1 N3 2.294460 1_445
In1 N2 2.294460 1_555
In1 N2 2.294526 1_545
In1 N3 2.294526 1_455
In1 N2 2.294528 1_445
In1 N3 2.294528 1_555
B0 N3 1.342290 1_555
B0 N0 1.342290 1_555
B1 N2 1.342290 1_555
B1 N1 1.342290 1_555
