# generated using pymatgen
data_SrBPd4
_symmetry_space_group_name_H-M   'P 1'
_cell_length_a   5.57959600
_cell_length_b   6.15002400
_cell_length_c   12.01967500
_cell_angle_alpha   90.00000000
_cell_angle_beta   90.00000000
_cell_angle_gamma   90.00000000
_symmetry_Int_Tables_number   1
_chemical_formula_structural   SrBPd4
_chemical_formula_sum   'Sr4 B4 Pd16'
_cell_volume   412.45093245
_cell_formula_units_Z   4
loop_
 _symmetry_equiv_pos_site_id
 _symmetry_equiv_pos_as_xyz
  1  'x, y, z'
loop_
 _atom_site_type_symbol
 _atom_site_label
 _atom_site_symmetry_multiplicity
 _atom_site_fract_x
 _atom_site_fract_y
 _atom_site_fract_z
 _atom_site_occupancy
  Sr  Sr0  1  0.75000000  0.31209000  0.15967700  1
  Sr  Sr1  1  0.75000000  0.81209000  0.34032300  1
  Sr  Sr2  1  0.25000000  0.68791000  0.84032300  1
  Sr  Sr3  1  0.25000000  0.18791000  0.65967700  1
  B  B0  1  0.75000000  0.40245300  0.55178100  1
  B  B1  1  0.75000000  0.90245300  0.94821900  1
  B  B2  1  0.25000000  0.59754700  0.44821900  1
  B  B3  1  0.25000000  0.09754700  0.05178100  1
  Pd  Pd0  1  0.75000000  0.38706300  0.73331300  1
  Pd  Pd1  1  0.75000000  0.88706300  0.76668700  1
  Pd  Pd2  1  0.25000000  0.61293700  0.26668700  1
  Pd  Pd3  1  0.25000000  0.11293700  0.23331300  1
  Pd  Pd4  1  0.75000000  0.06336900  0.55943600  1
  Pd  Pd5  1  0.75000000  0.56336900  0.94056400  1
  Pd  Pd6  1  0.25000000  0.93663100  0.44056400  1
  Pd  Pd7  1  0.25000000  0.43663100  0.05943600  1
  Pd  Pd8  1  0.99707000  0.16496300  0.91449600  1
  Pd  Pd9  1  0.50293000  0.66496300  0.58550400  1
  Pd  Pd10  1  0.49707000  0.83503700  0.08550400  1
  Pd  Pd11  1  0.00293000  0.33503700  0.41449600  1
  Pd  Pd12  1  0.00293000  0.83503700  0.08550400  1
  Pd  Pd13  1  0.49707000  0.33503700  0.41449600  1
  Pd  Pd14  1  0.50293000  0.16496300  0.91449600  1
  Pd  Pd15  1  0.99707000  0.66496300  0.58550400  1
loop_
_geom_bond_atom_site_label_1
_geom_bond_atom_site_label_2
_geom_bond_distance
_geom_bond_site_symmetry_2
B0 Pd4 2.087404 1_555
B0 Pd9 2.161279 1_555
B0 Pd15 2.161279 1_555
B0 Pd0 2.184008 1_555
B0 Pd13 2.210525 1_555
B0 Pd11 2.210525 1_655
B0 Sr3 3.347505 1_555
B0 Sr3 3.347505 1_655
B1 Pd5 2.087404 1_555
B1 Pd14 2.161279 1_565
B1 Pd8 2.161279 1_565
B1 Pd1 2.184008 1_555
B1 Pd10 2.210525 1_556
B1 Pd12 2.210525 1_656
B1 Sr2 3.347505 1_555
B1 Sr2 3.347505 1_655
B2 Pd6 2.087404 1_555
B2 Pd11 2.161279 1_555
B2 Pd13 2.161279 1_555
B2 Pd2 2.184008 1_555
B2 Pd15 2.210525 1_455
B2 Pd9 2.210525 1_555
B2 Sr1 3.347505 1_555
B2 Sr1 3.347505 1_455
B3 Pd7 2.087404 1_555
B3 Pd10 2.161279 1_545
B3 Pd12 2.161279 1_545
B3 Pd3 2.184008 1_555
B3 Pd8 2.210525 1_454
B3 Pd14 2.210525 1_554
B3 Sr0 3.347505 1_555
B3 Sr0 3.347505 1_455
Pd0 Sr3 3.172769 1_555
Pd0 Sr3 3.172769 1_655
Pd0 Sr2 3.586175 1_555
Pd0 Sr2 3.586175 1_655
Pd1 Sr2 3.172769 1_555
Pd1 Sr2 3.172769 1_655
Pd1 Sr3 3.586175 1_665
Pd1 Sr3 3.586175 1_565
Pd2 Sr1 3.172769 1_555
Pd2 Sr1 3.172769 1_455
Pd2 Sr0 3.586175 1_455
Pd2 Sr0 3.586175 1_555
Pd3 Sr0 3.172769 1_455
Pd3 Sr0 3.172769 1_555
Pd3 Sr1 3.586175 1_445
Pd3 Sr1 3.586175 1_545
Pd4 Sr1 3.053584 1_545
Pd4 Sr3 3.133898 1_555
Pd4 Sr3 3.133898 1_655
Pd5 Sr0 3.053584 1_556
Pd5 Sr2 3.133898 1_555
Pd5 Sr2 3.133898 1_655
Pd6 Sr3 3.053584 1_565
Pd6 Sr1 3.133898 1_455
Pd6 Sr1 3.133898 1_555
Pd7 Sr2 3.053584 1_554
Pd7 Sr0 3.133898 1_555
Pd7 Sr0 3.133898 1_455
Pd8 Sr3 3.375283 1_655
Pd8 Sr2 3.375522 1_645
Pd8 Sr0 3.376968 1_556
Pd8 Sr2 3.623533 1_655
Pd9 Sr2 3.375283 1_555
Pd9 Sr3 3.375522 1_555
Pd9 Sr1 3.376968 1_555
Pd9 Sr3 3.623533 1_565
Pd10 Sr1 3.375283 1_555
Pd10 Sr0 3.375522 1_565
Pd10 Sr2 3.376968 1_554
Pd10 Sr0 3.623533 1_555
Pd11 Sr0 3.375283 1_455
Pd11 Sr1 3.375522 1_455
Pd11 Sr3 3.376968 1_555
Pd11 Sr1 3.623533 1_445
Pd12 Sr1 3.375283 1_455
Pd12 Sr0 3.375522 1_465
Pd12 Sr2 3.376968 1_554
Pd12 Sr0 3.623533 1_455
Pd13 Sr0 3.375283 1_555
Pd13 Sr1 3.375522 1_555
Pd13 Sr3 3.376968 1_555
Pd13 Sr1 3.623533 1_545
Pd14 Sr3 3.375283 1_555
Pd14 Sr2 3.375522 1_545
Pd14 Sr0 3.376968 1_556
Pd14 Sr2 3.623533 1_555
Pd15 Sr2 3.375283 1_655
Pd15 Sr3 3.375522 1_655
Pd15 Sr1 3.376968 1_555
Pd15 Sr3 3.623533 1_665
