# generated using pymatgen
data_NaCaPrSeO6
_symmetry_space_group_name_H-M   'P 1'
_cell_length_a   5.64815455
_cell_length_b   5.64815455
_cell_length_c   5.64815455
_cell_angle_alpha   60.00000000
_cell_angle_beta   60.00000000
_cell_angle_gamma   60.00000000
_symmetry_Int_Tables_number   1
_chemical_formula_structural   NaCaPrSeO6
_chemical_formula_sum   'Na1 Ca1 Pr1 Se1 O6'
_cell_volume   127.41035223
_cell_formula_units_Z   1
loop_
 _symmetry_equiv_pos_site_id
 _symmetry_equiv_pos_as_xyz
  1  'x, y, z'
loop_
 _atom_site_type_symbol
 _atom_site_label
 _atom_site_symmetry_multiplicity
 _atom_site_fract_x
 _atom_site_fract_y
 _atom_site_fract_z
 _atom_site_occupancy
  Na  Na0  1  0.75000000  0.75000000  0.75000000  1
  Ca  Ca0  1  -0.00000000  -0.00000000  -0.00000000  1
  Pr  Pr0  1  0.25000000  0.25000000  0.25000000  1
  Se  Se0  1  0.50000000  0.50000000  0.50000000  1
  O  O0  1  0.72579382  0.27420618  0.27420618  1
  O  O1  1  0.27420618  0.72579382  0.72579382  1
  O  O2  1  0.72579382  0.27420618  0.72579382  1
  O  O3  1  0.27420618  0.72579382  0.27420618  1
  O  O4  1  0.72579382  0.72579382  0.27420618  1
  O  O5  1  0.27420618  0.27420618  0.72579382  1
loop_
_geom_bond_atom_site_label_1
_geom_bond_atom_site_label_2
_geom_bond_distance
_geom_bond_site_symmetry_2
Na0 O4 2.830688 1_555
Na0 O1 2.830688 1_555
Na0 O4 2.830688 1_556
Na0 O0 2.830688 1_565
Na0 O3 2.830688 1_655
Na0 O5 2.830688 1_565
Na0 O5 2.830688 1_655
Na0 O0 2.830688 1_556
Na0 O2 2.830688 1_555
Na0 O3 2.830688 1_556
Na0 O1 2.830688 1_655
Na0 O2 2.830688 1_565
Ca0 O2 2.190276 1_454
Ca0 O4 2.190276 1_445
Ca0 O1 2.190276 1_544
Ca0 O0 2.190276 1_455
Ca0 O3 2.190276 1_545
Ca0 O5 2.190276 1_554
O0 Se0 1.803573 1_555
O0 Pr0 2.830688 1_655
O0 Pr0 2.830688 1_555
O1 Se0 1.803573 1_555
O1 Pr0 2.830688 1_565
O1 Pr0 2.830688 1_556
O2 Se0 1.803573 1_555
O2 Pr0 2.830688 1_556
O2 Pr0 2.830688 1_655
O3 Se0 1.803573 1_555
O3 Pr0 2.830688 1_565
O3 Pr0 2.830688 1_555
O4 Se0 1.803573 1_555
O4 Pr0 2.830688 1_565
O4 Pr0 2.830688 1_655
O5 Se0 1.803573 1_555
O5 Pr0 2.830688 1_556
O5 Pr0 2.830688 1_555
