# generated using pymatgen
data_ScBr3O7
_symmetry_space_group_name_H-M   'P 1'
_cell_length_a   5.46256327
_cell_length_b   8.37102500
_cell_length_c   7.63109724
_cell_angle_alpha   90.00000000
_cell_angle_beta   81.04078313
_cell_angle_gamma   90.00000000
_symmetry_Int_Tables_number   1
_chemical_formula_structural   ScBr3O7
_chemical_formula_sum   'Sc2 Br6 O14'
_cell_volume   344.69174475
_cell_formula_units_Z   2
loop_
 _symmetry_equiv_pos_site_id
 _symmetry_equiv_pos_as_xyz
  1  'x, y, z'
loop_
 _atom_site_type_symbol
 _atom_site_label
 _atom_site_symmetry_multiplicity
 _atom_site_fract_x
 _atom_site_fract_y
 _atom_site_fract_z
 _atom_site_occupancy
  Sc  Sc0  1  0.25000000  0.15444900  0.75000000  1
  Sc  Sc1  1  0.75000000  0.84555100  0.25000000  1
  Br  Br0  1  0.71619100  0.24651700  0.48821300  1
  Br  Br1  1  0.28380900  0.75348300  0.51178700  1
  Br  Br2  1  0.78380900  0.24651700  0.01178700  1
  Br  Br3  1  0.21619100  0.75348300  0.98821300  1
  Br  Br4  1  0.75000000  0.74229400  0.75000000  1
  Br  Br5  1  0.25000000  0.25770600  0.25000000  1
  O  O0  1  0.06466000  0.23861500  0.51226200  1
  O  O1  1  0.93534000  0.76138500  0.48773800  1
  O  O2  1  0.43534000  0.23861500  0.98773800  1
  O  O3  1  0.56466000  0.76138500  0.01226200  1
  O  O4  1  0.25000000  0.91986800  0.75000000  1
  O  O5  1  0.75000000  0.08013200  0.25000000  1
  O  O6  1  0.62785400  0.07951500  0.60448000  1
  O  O7  1  0.37214600  0.92048500  0.39552000  1
  O  O8  1  0.87214600  0.07951500  0.89552000  1
  O  O9  1  0.12785400  0.92048500  0.10448000  1
  O  O10  1  0.51107200  0.36208800  0.62789400  1
  O  O11  1  0.48892800  0.63791200  0.37210600  1
  O  O12  1  0.98892800  0.36208800  0.87210600  1
  O  O13  1  0.01107200  0.63791200  0.12789400  1
loop_
_geom_bond_atom_site_label_1
_geom_bond_atom_site_label_2
_geom_bond_distance
_geom_bond_site_symmetry_2
Br0 O6 1.685541 1_555
Br0 O10 1.719190 1_555
Br0 O0 1.941727 1_655
Br0 O5 2.274635 1_555
Br1 O7 1.685541 1_555
Br1 O11 1.719190 1_555
Br1 O1 1.941727 1_455
Br1 O4 2.274635 1_555
Br2 O8 1.685541 1_554
Br2 O12 1.719190 1_554
Br2 O2 1.941727 1_554
Br2 O5 2.274635 1_555
Br3 O9 1.685541 1_556
Br3 O13 1.719190 1_556
Br3 O3 1.941727 1_556
Br3 O4 2.274635 1_555
Br4 O3 2.103533 1_556
Br4 O1 2.103533 1_555
Br5 O2 2.103533 1_554
Br5 O0 2.103533 1_555
O0 Sc0 2.320523 1_555
O1 Sc1 2.320523 1_555
O2 Sc0 2.320523 1_555
O3 Sc1 2.320523 1_555
O4 Sc0 1.963683 1_565
O5 Sc1 1.963683 1_545
O6 Sc0 2.274432 1_555
O7 Sc1 2.274432 1_555
O8 Sc0 2.274432 1_655
O9 Sc1 2.274432 1_455
O10 Sc0 2.347202 1_555
O11 Sc1 2.347202 1_555
O12 Sc0 2.347202 1_655
O13 Sc1 2.347202 1_455
