# generated using pymatgen
data_Ba2Fe4Bi2O11
_symmetry_space_group_name_H-M   'P 1'
_cell_length_a   3.98805600
_cell_length_b   3.98805600
_cell_length_c   16.60431800
_cell_angle_alpha   90.00000000
_cell_angle_beta   90.00000000
_cell_angle_gamma   90.00000000
_symmetry_Int_Tables_number   1
_chemical_formula_structural   Ba2Fe4Bi2O11
_chemical_formula_sum   'Ba2 Fe4 Bi2 O11'
_cell_volume   264.08488096
_cell_formula_units_Z   1
loop_
 _symmetry_equiv_pos_site_id
 _symmetry_equiv_pos_as_xyz
  1  'x, y, z'
loop_
 _atom_site_type_symbol
 _atom_site_label
 _atom_site_symmetry_multiplicity
 _atom_site_fract_x
 _atom_site_fract_y
 _atom_site_fract_z
 _atom_site_occupancy
  Ba  Ba0  1  0.50000000  0.50000000  0.86335400  1
  Ba  Ba1  1  0.50000000  0.50000000  0.61496100  1
  Fe  Fe0  1  0.00000000  0.00000000  0.00120500  1
  Fe  Fe1  1  0.00000000  0.00000000  0.76029100  1
  Fe  Fe2  1  0.00000000  0.00000000  0.24784700  1
  Fe  Fe3  1  0.00000000  0.00000000  0.48632300  1
  Bi  Bi0  1  0.50000000  0.50000000  0.10313500  1
  Bi  Bi1  1  0.50000000  0.50000000  0.35011500  1
  O  O0  1  0.50000000  0.00000000  0.51179800  1
  O  O1  1  0.00000000  0.50000000  0.51179800  1
  O  O2  1  0.50000000  0.00000000  0.74313500  1
  O  O3  1  0.00000000  0.50000000  0.74313500  1
  O  O4  1  0.50000000  0.00000000  0.26418700  1
  O  O5  1  0.00000000  0.50000000  0.26418700  1
  O  O6  1  0.00000000  0.00000000  0.88099100  1
  O  O7  1  0.00000000  0.00000000  0.12959600  1
  O  O8  1  0.50000000  0.00000000  0.01746300  1
  O  O9  1  0.00000000  0.50000000  0.01746300  1
  O  O10  1  0.00000000  0.00000000  0.37301500  1
loop_
_geom_bond_atom_site_label_1
_geom_bond_atom_site_label_2
_geom_bond_distance
_geom_bond_site_symmetry_2
Ba0 O2 2.821486 1_555
Ba0 O3 2.821486 1_555
Ba0 O3 2.821486 1_655
Ba0 O2 2.821486 1_565
Ba0 O6 2.835147 1_555
Ba0 O6 2.835147 1_565
Ba0 O6 2.835147 1_665
Ba0 O6 2.835147 1_655
Ba0 O9 3.244070 1_656
Ba0 O8 3.244070 1_556
Ba0 O9 3.244070 1_556
Ba0 O8 3.244070 1_566
Ba1 O1 2.628754 1_555
Ba1 O1 2.628754 1_655
Ba1 O0 2.628754 1_565
Ba1 O0 2.628754 1_555
Ba1 O2 2.916430 1_555
Ba1 O3 2.916430 1_555
Ba1 O3 2.916430 1_655
Ba1 O2 2.916430 1_565
Fe0 O6 1.996071 1_554
Fe0 O8 2.012218 1_555
Fe0 O9 2.012218 1_555
Fe0 O9 2.012218 1_545
Fe0 O8 2.012218 1_455
Fe0 O7 2.131845 1_555
Fe1 O6 2.004141 1_555
Fe1 O2 2.014273 1_455
Fe1 O2 2.014273 1_555
Fe1 O3 2.014273 1_555
Fe1 O3 2.014273 1_545
Fe2 O7 1.963477 1_555
Fe2 O4 2.012401 1_555
Fe2 O4 2.012401 1_455
Fe2 O5 2.012401 1_555
Fe2 O5 2.012401 1_545
Fe2 O10 2.078329 1_555
Fe3 O10 1.881402 1_555
Fe3 O0 2.038399 1_555
Fe3 O1 2.038399 1_555
Fe3 O1 2.038399 1_545
Fe3 O0 2.038399 1_455
Bi0 O8 2.449434 1_565
Bi0 O9 2.449434 1_655
Bi0 O8 2.449434 1_555
Bi0 O9 2.449434 1_555
Bi1 O4 2.451905 1_565
Bi1 O5 2.451905 1_655
Bi1 O4 2.451905 1_555
Bi1 O5 2.451905 1_555
