# generated using pymatgen
data_Rb2Np2O5
_symmetry_space_group_name_H-M   'P 1'
_cell_length_a   4.35455100
_cell_length_b   4.35455100
_cell_length_c   8.93884900
_cell_angle_alpha   90.00000000
_cell_angle_beta   90.00000000
_cell_angle_gamma   90.00000000
_symmetry_Int_Tables_number   1
_chemical_formula_structural   Rb2Np2O5
_chemical_formula_sum   'Rb2 Np2 O5'
_cell_volume   169.49947745
_cell_formula_units_Z   1
loop_
 _symmetry_equiv_pos_site_id
 _symmetry_equiv_pos_as_xyz
  1  'x, y, z'
loop_
 _atom_site_type_symbol
 _atom_site_label
 _atom_site_symmetry_multiplicity
 _atom_site_fract_x
 _atom_site_fract_y
 _atom_site_fract_z
 _atom_site_occupancy
  Rb  Rb0  1  0.00000000  0.00000000  0.00000000  1
  Rb  Rb1  1  0.00000000  0.00000000  0.50000000  1
  Np  Np0  1  0.50000000  0.50000000  0.25942800  1
  Np  Np1  1  0.50000000  0.50000000  0.74057200  1
  O  O0  1  0.50000000  0.00000000  0.23618800  1
  O  O1  1  0.50000000  0.00000000  0.76381200  1
  O  O2  1  0.50000000  0.50000000  0.50000000  1
  O  O3  1  0.00000000  0.50000000  0.23618800  1
  O  O4  1  0.00000000  0.50000000  0.76381200  1
loop_
_geom_bond_atom_site_label_1
_geom_bond_atom_site_label_2
_geom_bond_distance
_geom_bond_site_symmetry_2
Np0 O2 2.150437 1_555
Np0 O3 2.187163 1_555
Np0 O0 2.187163 1_565
Np0 O3 2.187163 1_655
Np0 O0 2.187163 1_555
Np1 O2 2.150437 1_555
Np1 O1 2.187163 1_565
Np1 O4 2.187163 1_555
Np1 O1 2.187163 1_555
Np1 O4 2.187163 1_655
O0 Rb0 3.032804 1_655
O0 Rb0 3.032804 1_555
O0 Rb1 3.209598 1_655
O0 Rb1 3.209598 1_555
O1 Rb0 3.032804 1_556
O1 Rb0 3.032804 1_656
O1 Rb1 3.209598 1_655
O1 Rb1 3.209598 1_555
O2 Rb1 3.079133 1_565
O2 Rb1 3.079133 1_655
O2 Rb1 3.079133 1_665
O2 Rb1 3.079133 1_555
O3 Rb0 3.032804 1_565
O3 Rb0 3.032804 1_555
O3 Rb1 3.209598 1_565
O3 Rb1 3.209598 1_555
O4 Rb0 3.032804 1_566
O4 Rb0 3.032804 1_556
O4 Rb1 3.209598 1_565
O4 Rb1 3.209598 1_555
