# generated using pymatgen
data_SrOsO3
_symmetry_space_group_name_H-M   'P 1'
_cell_length_a   5.58567600
_cell_length_b   5.65171900
_cell_length_c   7.97010400
_cell_angle_alpha   90.00000000
_cell_angle_beta   90.00000000
_cell_angle_gamma   90.00000000
_symmetry_Int_Tables_number   1
_chemical_formula_structural   SrOsO3
_chemical_formula_sum   'Sr4 Os4 O12'
_cell_volume   251.60559242
_cell_formula_units_Z   4
loop_
 _symmetry_equiv_pos_site_id
 _symmetry_equiv_pos_as_xyz
  1  'x, y, z'
loop_
 _atom_site_type_symbol
 _atom_site_label
 _atom_site_symmetry_multiplicity
 _atom_site_fract_x
 _atom_site_fract_y
 _atom_site_fract_z
 _atom_site_occupancy
  Sr  Sr0  1  0.97559300  0.50334900  0.25000000  1
  Sr  Sr1  1  0.47559300  0.99665100  0.25000000  1
  Sr  Sr2  1  0.02440700  0.49665100  0.75000000  1
  Sr  Sr3  1  0.52440700  0.00334900  0.75000000  1
  Os  Os0  1  0.50000000  0.50000000  0.00000000  1
  Os  Os1  1  0.00000000  0.00000000  0.50000000  1
  Os  Os2  1  0.50000000  0.50000000  0.50000000  1
  Os  Os3  1  0.00000000  0.00000000  0.00000000  1
  O  O0  1  0.50584000  0.43051100  0.25000000  1
  O  O1  1  0.00584000  0.06948900  0.25000000  1
  O  O2  1  0.49416000  0.56948900  0.75000000  1
  O  O3  1  0.99416000  0.93051100  0.75000000  1
  O  O4  1  0.21610200  0.71695500  0.03451500  1
  O  O5  1  0.71610200  0.78304500  0.46548500  1
  O  O6  1  0.78389800  0.28304500  0.53451500  1
  O  O7  1  0.28389800  0.21695500  0.96548500  1
  O  O8  1  0.78389800  0.28304500  0.96548500  1
  O  O9  1  0.28389800  0.21695500  0.53451500  1
  O  O10  1  0.21610200  0.71695500  0.46548500  1
  O  O11  1  0.71610200  0.78304500  0.03451500  1
loop_
_geom_bond_atom_site_label_1
_geom_bond_atom_site_label_2
_geom_bond_distance
_geom_bond_site_symmetry_2
O0 Os2 2.031123 1_555
O0 Os0 2.031123 1_555
O0 Sr1 2.457868 1_545
O0 Sr0 2.655984 1_555
O0 Sr0 2.990259 1_455
O1 Os1 2.031123 1_555
O1 Os3 2.031123 1_555
O1 Sr0 2.457868 1_455
O1 Sr1 2.655984 1_545
O1 Sr1 2.990259 1_445
O2 Os2 2.031123 1_555
O2 Os0 2.031123 1_556
O2 Sr3 2.457868 1_565
O2 Sr2 2.655984 1_555
O2 Sr2 2.990259 1_655
O3 Os3 2.031123 1_666
O3 Os1 2.031123 1_665
O3 Sr2 2.457868 1_655
O3 Sr3 2.655984 1_565
O3 Sr3 2.990259 1_665
O4 Os3 2.022799 1_565
O4 Os0 2.023315 1_555
O4 Sr0 2.492341 1_455
O4 Sr1 2.747592 1_555
O4 Sr2 2.799792 1_554
O5 Os2 2.022799 1_555
O5 Os1 2.023315 1_665
O5 Sr1 2.492341 1_555
O5 Sr0 2.747592 1_555
O5 Sr3 2.799792 1_565
O6 Os1 2.022799 1_655
O6 Os2 2.023315 1_555
O6 Sr2 2.492341 1_655
O6 Sr3 2.747592 1_555
O6 Sr0 2.799792 1_555
O7 Os0 2.022799 1_556
O7 Os3 2.023315 1_556
O7 Sr3 2.492341 1_555
O7 Sr2 2.747592 1_555
O7 Sr1 2.799792 1_546
O8 Os3 2.022799 1_656
O8 Os0 2.023315 1_556
O8 Sr2 2.492341 1_655
O8 Sr3 2.747592 1_555
O8 Sr0 2.799792 1_556
O9 Os2 2.022799 1_555
O9 Os1 2.023315 1_555
O9 Sr3 2.492341 1_555
O9 Sr2 2.747592 1_555
O9 Sr1 2.799792 1_545
O10 Os1 2.022799 1_565
O10 Os2 2.023315 1_555
O10 Sr0 2.492341 1_455
O10 Sr1 2.747592 1_555
O10 Sr2 2.799792 1_555
O11 Os0 2.022799 1_555
O11 Os3 2.023315 1_665
O11 Sr1 2.492341 1_555
O11 Sr0 2.747592 1_555
O11 Sr3 2.799792 1_564
