# generated using pymatgen
data_Li9Mn2Co5O16
_symmetry_space_group_name_H-M   'P 1'
_cell_length_a   2.90101300
_cell_length_b   8.44582800
_cell_length_c   11.82174213
_cell_angle_alpha   89.65434008
_cell_angle_beta   90.00000000
_cell_angle_gamma   90.00000000
_symmetry_Int_Tables_number   1
_chemical_formula_structural   Li9Mn2Co5O16
_chemical_formula_sum   'Li9 Mn2 Co5 O16'
_cell_volume   289.64463338
_cell_formula_units_Z   1
loop_
 _symmetry_equiv_pos_site_id
 _symmetry_equiv_pos_as_xyz
  1  'x, y, z'
loop_
 _atom_site_type_symbol
 _atom_site_label
 _atom_site_symmetry_multiplicity
 _atom_site_fract_x
 _atom_site_fract_y
 _atom_site_fract_z
 _atom_site_occupancy
  Li  Li0  1  0.50000000  0.75092300  0.88760500  1
  Li  Li1  1  0.50000000  0.24841600  0.61583300  1
  Li  Li2  1  0.50000000  0.75005400  0.36719200  1
  Li  Li3  1  0.00000000  0.52538900  0.01463600  1
  Li  Li4  1  0.00000000  0.00071400  0.74598200  1
  Li  Li5  1  0.00000000  0.49651600  0.48695100  1
  Li  Li6  1  0.50000000  0.25236500  0.13214600  1
  Li  Li7  1  0.00000000  0.98401400  0.25086800  1
  Li  Li8  1  0.50000000  0.75018300  0.12498000  1
  Mn  Mn0  1  0.00000000  0.98595800  0.99933400  1
  Mn  Mn1  1  0.00000000  0.49908000  0.75111500  1
  Co  Co0  1  0.00000000  0.00584200  0.50044100  1
  Co  Co1  1  0.00000000  0.52647100  0.24507300  1
  Co  Co2  1  0.50000000  0.24890200  0.87943400  1
  Co  Co3  1  0.50000000  0.75053700  0.62351400  1
  Co  Co4  1  0.50000000  0.25316400  0.36905900  1
  O  O0  1  0.50000000  0.99694500  0.88325800  1
  O  O1  1  0.50000000  0.49203400  0.64164200  1
  O  O2  1  0.50000000  0.00018200  0.38712600  1
  O  O3  1  0.00000000  0.76862000  0.99797100  1
  O  O4  1  0.00000000  0.27042100  0.76456000  1
  O  O5  1  0.00000000  0.75401900  0.51571800  1
  O  O6  1  0.50000000  0.49568700  0.13283600  1
  O  O7  1  0.00000000  0.24555600  0.25913400  1
  O  O8  1  0.50000000  0.50829400  0.86145900  1
  O  O9  1  0.50000000  0.00103600  0.62127400  1
  O  O10  1  0.50000000  0.49349600  0.36660200  1
  O  O11  1  0.00000000  0.22803300  0.98888200  1
  O  O12  1  0.00000000  0.73118500  0.73390300  1
  O  O13  1  0.00000000  0.24695000  0.49235100  1
  O  O14  1  0.50000000  0.99929700  0.10692800  1
  O  O15  1  0.00000000  0.73971600  0.25219600  1
loop_
_geom_bond_atom_site_label_1
_geom_bond_atom_site_label_2
_geom_bond_distance
_geom_bond_site_symmetry_2
Li0 O3 1.957282 1_655
Li0 O3 1.957282 1_555
Li0 O8 2.074226 1_555
Li0 O0 2.078185 1_555
Li0 O12 2.331737 1_655
Li0 O12 2.331737 1_555
Li1 O13 2.057979 1_655
Li1 O13 2.057979 1_555
Li1 O1 2.081874 1_555
Li1 O9 2.089931 1_555
Li1 O4 2.287742 1_655
Li1 O4 2.287742 1_555
Li2 O15 1.990261 1_555
Li2 O15 1.990261 1_655
Li2 O2 2.127054 1_565
Li2 O10 2.166898 1_555
Li2 O5 2.277885 1_555
Li2 O5 2.277885 1_655
Li3 O6 2.028596 1_455
Li3 O6 2.028596 1_555
Li3 O3 2.062529 1_554
Li3 O8 2.325303 1_554
Li3 O8 2.325303 1_454
Li3 O11 2.531628 1_554
Li4 O9 2.068185 1_455
Li4 O9 2.068185 1_555
Li4 O0 2.176689 1_445
Li4 O0 2.176689 1_545
Li4 O12 2.281729 1_545
Li4 O4 2.289780 1_555
Li5 O10 2.032051 1_455
Li5 O10 2.032051 1_555
Li5 O13 2.108373 1_555
Li5 O5 2.203280 1_555
Li5 O1 2.334261 1_455
Li5 O1 2.334261 1_555
Li6 O6 2.055121 1_555
Li6 O7 2.088036 1_655
Li6 O7 2.088036 1_555
Li6 O14 2.159840 1_545
Li6 O11 2.240264 1_554
Li6 O11 2.240264 1_654
Li7 O15 2.063264 1_555
Li7 O2 2.172549 1_565
Li7 O2 2.172549 1_465
Li7 O7 2.211688 1_565
Li7 O14 2.239084 1_555
Li7 O14 2.239084 1_455
Li8 O15 2.090918 1_555
Li8 O15 2.090918 1_655
Li8 O3 2.092797 1_554
Li8 O3 2.092797 1_654
Li8 O14 2.113488 1_555
Li8 O6 2.150875 1_555
Mn0 O3 1.835767 1_555
Mn0 O14 1.932936 1_556
Mn0 O14 1.932936 1_456
Mn0 O0 1.998508 1_455
Mn0 O0 1.998508 1_555
Mn0 O11 2.047510 1_565
Mn1 O4 1.936788 1_555
Mn1 O1 1.945069 1_455
Mn1 O1 1.945069 1_555
Mn1 O8 1.952655 1_555
Mn1 O8 1.952655 1_455
Mn1 O12 1.969629 1_555
Co0 O2 1.975222 1_555
Co0 O2 1.975222 1_455
Co0 O9 2.036027 1_455
Co0 O9 2.036027 1_555
Co0 O13 2.038025 1_555
Co0 O5 2.133422 1_545
Co1 O15 1.803505 1_555
Co1 O6 1.983992 1_555
Co1 O6 1.983992 1_455
Co1 O10 2.059312 1_555
Co1 O10 2.059312 1_455
Co1 O7 2.377375 1_555
Co2 O11 1.950993 1_555
Co2 O11 1.950993 1_655
Co2 O4 1.994547 1_555
Co2 O4 1.994547 1_655
Co2 O0 2.128193 1_545
Co2 O8 2.199785 1_555
Co3 O5 1.930885 1_555
Co3 O5 1.930885 1_655
Co3 O12 1.957322 1_655
Co3 O12 1.957322 1_555
Co3 O9 2.115677 1_565
Co3 O1 2.192477 1_555
Co4 O7 1.948799 1_655
Co4 O7 1.948799 1_555
Co4 O10 2.029835 1_555
Co4 O13 2.056741 1_555
Co4 O13 2.056741 1_655
Co4 O2 2.146009 1_555
