# generated using pymatgen
data_Er2Mg
_symmetry_space_group_name_H-M   'P 1'
_cell_length_a   17.09241063
_cell_length_b   16.68951378
_cell_length_c   6.67093502
_cell_angle_alpha   82.02568123
_cell_angle_beta   75.23665196
_cell_angle_gamma   22.73766681
_symmetry_Int_Tables_number   1
_chemical_formula_structural   Er2Mg
_chemical_formula_sum   'Er16 Mg8'
_cell_volume   687.23139624
_cell_formula_units_Z   8
loop_
 _symmetry_equiv_pos_site_id
 _symmetry_equiv_pos_as_xyz
  1  'x, y, z'
loop_
 _atom_site_type_symbol
 _atom_site_label
 _atom_site_symmetry_multiplicity
 _atom_site_fract_x
 _atom_site_fract_y
 _atom_site_fract_z
 _atom_site_occupancy
  Er  Er0_0  1  0.16747000  0.16747000  0.33253000  1
  Er  Er0_1  1  0.16747000  0.16747000  0.83253000  1
  Er  Er0_2  1  0.16747000  0.66747000  0.33253000  1
  Er  Er0_3  1  0.16747000  0.66747000  0.83253000  1
  Er  Er0_4  1  0.66747000  0.16747000  0.33253000  1
  Er  Er0_5  1  0.66747000  0.16747000  0.83253000  1
  Er  Er0_6  1  0.66747000  0.66747000  0.33253000  1
  Er  Er0_7  1  0.66747000  0.66747000  0.83253000  1
  Er  Er1_0  1  0.33253000  0.33253000  0.16747000  1
  Er  Er1_1  1  0.33253000  0.33253000  0.66747000  1
  Er  Er1_2  1  0.33253000  0.83253000  0.16747000  1
  Er  Er1_3  1  0.33253000  0.83253000  0.66747000  1
  Er  Er1_4  1  0.83253000  0.33253000  0.16747000  1
  Er  Er1_5  1  0.83253000  0.33253000  0.66747000  1
  Er  Er1_6  1  0.83253000  0.83253000  0.16747000  1
  Er  Er1_7  1  0.83253000  0.83253000  0.66747000  1
  Mg  Mg0_0  1  0.00000000  0.00000000  0.00000000  1
  Mg  Mg0_1  1  0.00000000  0.00000000  0.50000000  1
  Mg  Mg0_2  1  0.00000000  0.50000000  0.00000000  1
  Mg  Mg0_3  1  0.00000000  0.50000000  0.50000000  1
  Mg  Mg0_4  1  0.50000000  0.00000000  0.00000000  1
  Mg  Mg0_5  1  0.50000000  0.00000000  0.50000000  1
  Mg  Mg0_6  1  0.50000000  0.50000000  0.00000000  1
  Mg  Mg0_7  1  0.50000000  0.50000000  0.50000000  1
loop_
_geom_bond_atom_site_label_1
_geom_bond_atom_site_label_2
_geom_bond_distance
_geom_bond_site_symmetry_2
Er0_0 Mg0_4 3.321039 1_555
Er0_0 Mg0_3 3.321039 1_555
Er0_0 Er0_6 3.335468 1_455
Er0_0 Er0_1 3.335468 1_555
Er0_0 Er0_1 3.335468 1_554
Er0_0 Er0_6 3.335468 1_545
Er0_0 Er1_2 3.384382 1_545
Er0_0 Er1_5 3.384382 1_455
Er0_0 Mg0_5 3.798942 1_555
Er0_0 Mg0_2 3.798942 1_555
Er0_1 Mg0_2 3.321039 1_556
Er0_1 Mg0_5 3.321039 1_555
Er0_1 Er0_7 3.335468 1_455
Er0_1 Er0_7 3.335468 1_545
Er0_1 Er1_4 3.384382 1_456
Er0_1 Er1_3 3.384382 1_545
Er0_1 Mg0_4 3.798942 1_556
Er0_1 Mg0_3 3.798942 1_555
Er0_2 Mg0_6 3.321039 1_555
Er0_2 Mg0_1 3.321039 1_565
Er0_2 Er0_3 3.335468 1_555
Er0_2 Er0_3 3.335468 1_554
Er0_2 Er0_4 3.335468 1_555
Er0_2 Er0_4 3.335468 1_465
Er0_2 Er1_7 3.384382 1_455
Er0_2 Er1_0 3.384382 1_555
Er0_2 Mg0_7 3.798942 1_555
Er0_2 Mg0_0 3.798942 1_565
Er0_3 Mg0_7 3.321039 1_555
Er0_3 Mg0_0 3.321039 1_566
Er0_3 Er0_5 3.335468 1_555
Er0_3 Er0_5 3.335468 1_465
Er0_3 Er1_6 3.384382 1_456
Er0_3 Er1_1 3.384382 1_555
Er0_3 Mg0_6 3.798942 1_556
Er0_3 Mg0_1 3.798942 1_565
Er0_4 Mg0_0 3.321039 1_655
Er0_4 Mg0_7 3.321039 1_555
Er0_4 Er0_5 3.335468 1_555
Er0_4 Er0_5 3.335468 1_554
Er0_4 Er1_1 3.384382 1_555
Er0_4 Er1_6 3.384382 1_545
Er0_4 Mg0_1 3.798942 1_655
Er0_4 Mg0_6 3.798942 1_555
Er0_5 Mg0_6 3.321039 1_556
Er0_5 Mg0_1 3.321039 1_655
Er0_5 Er1_7 3.384382 1_545
Er0_5 Er1_0 3.384382 1_556
Er0_5 Mg0_7 3.798942 1_555
Er0_5 Mg0_0 3.798942 1_656
Er0_6 Mg0_2 3.321039 1_655
Er0_6 Mg0_5 3.321039 1_565
Er0_6 Er0_7 3.335468 1_555
Er0_6 Er0_7 3.335468 1_554
Er0_6 Er1_4 3.384382 1_555
Er0_6 Er1_3 3.384382 1_555
Er0_6 Mg0_3 3.798942 1_655
Er0_6 Mg0_4 3.798942 1_565
Er0_7 Mg0_3 3.321039 1_655
Er0_7 Mg0_4 3.321039 1_566
Er0_7 Er1_2 3.384382 1_556
Er0_7 Er1_5 3.384382 1_555
Er0_7 Mg0_2 3.798942 1_656
Er0_7 Mg0_5 3.798942 1_565
Er1_0 Mg0_3 3.321039 1_555
Er1_0 Mg0_4 3.321039 1_555
Er1_0 Er1_6 3.335468 1_545
Er1_0 Er1_1 3.335468 1_555
Er1_0 Er1_1 3.335468 1_554
Er1_0 Er1_6 3.335468 1_455
Er1_0 Mg0_2 3.798942 1_555
Er1_0 Mg0_5 3.798942 1_555
Er1_1 Mg0_2 3.321039 1_556
Er1_1 Mg0_5 3.321039 1_555
Er1_1 Er1_7 3.335468 1_545
Er1_1 Er1_7 3.335468 1_455
Er1_1 Mg0_3 3.798942 1_555
Er1_1 Mg0_4 3.798942 1_556
Er1_2 Mg0_1 3.321039 1_565
Er1_2 Mg0_6 3.321039 1_555
Er1_2 Er1_4 3.335468 1_465
Er1_2 Er1_3 3.335468 1_554
Er1_2 Er1_3 3.335468 1_555
Er1_2 Er1_4 3.335468 1_555
Er1_2 Mg0_0 3.798942 1_565
Er1_2 Mg0_7 3.798942 1_555
Er1_3 Mg0_0 3.321039 1_566
Er1_3 Mg0_7 3.321039 1_555
Er1_3 Er1_5 3.335468 1_465
Er1_3 Er1_5 3.335468 1_555
Er1_3 Mg0_1 3.798942 1_565
Er1_3 Mg0_6 3.798942 1_556
Er1_4 Mg0_7 3.321039 1_555
Er1_4 Mg0_0 3.321039 1_655
Er1_4 Er1_5 3.335468 1_555
Er1_4 Er1_5 3.335468 1_554
Er1_4 Mg0_6 3.798942 1_555
Er1_4 Mg0_1 3.798942 1_655
Er1_5 Mg0_6 3.321039 1_556
Er1_5 Mg0_1 3.321039 1_655
Er1_5 Mg0_7 3.798942 1_555
Er1_5 Mg0_0 3.798942 1_656
Er1_6 Mg0_5 3.321039 1_565
Er1_6 Mg0_2 3.321039 1_655
Er1_6 Er1_7 3.335468 1_555
Er1_6 Er1_7 3.335468 1_554
Er1_6 Mg0_4 3.798942 1_565
Er1_6 Mg0_3 3.798942 1_655
Er1_7 Mg0_4 3.321039 1_566
Er1_7 Mg0_3 3.321039 1_655
Er1_7 Mg0_5 3.798942 1_565
Er1_7 Mg0_2 3.798942 1_656
Mg0_0 Mg0_6 3.335468 1_455
Mg0_0 Mg0_1 3.335468 1_554
Mg0_0 Mg0_6 3.335468 1_545
Mg0_0 Mg0_1 3.335468 1_555
Mg0_1 Mg0_7 3.335468 1_455
Mg0_1 Mg0_7 3.335468 1_545
Mg0_2 Mg0_3 3.335468 1_554
Mg0_2 Mg0_3 3.335468 1_555
Mg0_2 Mg0_4 3.335468 1_555
Mg0_2 Mg0_4 3.335468 1_465
Mg0_3 Mg0_5 3.335468 1_555
Mg0_3 Mg0_5 3.335468 1_465
Mg0_4 Mg0_5 3.335468 1_555
Mg0_4 Mg0_5 3.335468 1_554
Mg0_6 Mg0_7 3.335468 1_554
Mg0_6 Mg0_7 3.335468 1_555
