# generated using pymatgen
data_Mn2AsHO5
_symmetry_space_group_name_H-M   'P 1'
_cell_length_a   6.29931778
_cell_length_b   8.53295960
_cell_length_c   8.70323017
_cell_angle_alpha   90.00000000
_cell_angle_beta   90.00000000
_cell_angle_gamma   90.00000000
_symmetry_Int_Tables_number   1
_chemical_formula_structural   Mn2AsHO5
_chemical_formula_sum   'Mn8 As4 H4 O20'
_cell_volume   467.81449741
_cell_formula_units_Z   4
loop_
 _symmetry_equiv_pos_site_id
 _symmetry_equiv_pos_as_xyz
  1  'x, y, z'
loop_
 _atom_site_type_symbol
 _atom_site_label
 _atom_site_symmetry_multiplicity
 _atom_site_fract_x
 _atom_site_fract_y
 _atom_site_fract_z
 _atom_site_occupancy
  Mn  Mn0  1  0.74910641  0.50000000  0.50000000  1
  Mn  Mn1  1  0.75089359  -0.00000000  -0.00000000  1
  Mn  Mn2  1  0.25089359  0.50000000  0.50000000  1
  Mn  Mn3  1  0.24910641  -0.00000000  -0.00000000  1
  Mn  Mn4  1  0.00000000  0.85857226  0.36798068  1
  Mn  Mn5  1  0.00000000  0.14142774  0.63201932  1
  Mn  Mn6  1  0.50000000  0.35857226  0.13201932  1
  Mn  Mn7  1  0.50000000  0.64142774  0.86798068  1
  As  As0  1  0.50000000  0.74499169  0.24576805  1
  As  As1  1  0.50000000  0.25500831  0.75423195  1
  As  As2  1  0.00000000  0.24499169  0.25423195  1
  As  As3  1  0.00000000  0.75500831  0.74576805  1
  H  H0  1  0.00000000  0.78359645  0.08328722  1
  H  H1  1  0.00000000  0.21640355  0.91671278  1
  H  H2  1  0.50000000  0.28359645  0.41671278  1
  H  H3  1  0.50000000  0.71640355  0.58328722  1
  O  O0  1  0.00000000  0.88730037  0.12875784  1
  O  O1  1  0.00000000  0.11269963  0.87124216  1
  O  O2  1  0.50000000  0.38730037  0.37124216  1
  O  O3  1  0.50000000  0.61269963  0.62875784  1
  O  O4  1  0.50000000  0.91781617  0.14683961  1
  O  O5  1  0.50000000  0.08218383  0.85316039  1
  O  O6  1  0.00000000  0.41781617  0.35316039  1
  O  O7  1  0.00000000  0.58218383  0.64683961  1
  O  O8  1  0.50000000  0.60352813  0.10837647  1
  O  O9  1  0.50000000  0.39647187  0.89162353  1
  O  O10  1  0.00000000  0.10352813  0.39162353  1
  O  O11  1  0.00000000  0.89647187  0.60837647  1
  O  O12  1  0.71753959  0.72436169  0.36090446  1
  O  O13  1  0.71753959  0.27563831  0.63909554  1
  O  O14  1  0.78246041  0.22436169  0.13909554  1
  O  O15  1  0.78246041  0.77563831  0.86090446  1
  O  O16  1  0.28246041  0.27563831  0.63909554  1
  O  O17  1  0.28246041  0.72436169  0.36090446  1
  O  O18  1  0.21753959  0.77563831  0.86090446  1
  O  O19  1  0.21753959  0.22436169  0.13909554  1
loop_
_geom_bond_atom_site_label_1
_geom_bond_atom_site_label_2
_geom_bond_distance
_geom_bond_site_symmetry_2
Mn0 O7 2.150084 1_655
Mn0 O6 2.150084 1_655
Mn0 O3 2.154750 1_555
Mn0 O2 2.154750 1_555
Mn0 O13 2.273816 1_555
Mn0 O12 2.273816 1_555
Mn1 O5 2.150084 1_554
Mn1 O4 2.150084 1_545
Mn1 O0 2.154750 1_645
Mn1 O1 2.154750 1_654
Mn1 O15 2.273816 1_544
Mn1 O14 2.273816 1_555
Mn2 O6 2.150084 1_555
Mn2 O7 2.150084 1_555
Mn2 O3 2.154750 1_555
Mn2 O2 2.154750 1_555
Mn2 O16 2.273816 1_555
Mn2 O17 2.273816 1_555
Mn3 O5 2.150084 1_554
Mn3 O4 2.150084 1_545
Mn3 O0 2.154750 1_545
Mn3 O1 2.154750 1_554
Mn3 O19 2.273816 1_555
Mn3 O18 2.273816 1_544
Mn4 O0 2.096393 1_555
Mn4 O10 2.100303 1_565
Mn4 O17 2.116895 1_555
Mn4 O12 2.116895 1_455
Mn4 O11 2.117066 1_555
Mn5 O1 2.096393 1_555
Mn5 O11 2.100303 1_545
Mn5 O16 2.116895 1_555
Mn5 O13 2.116895 1_455
Mn5 O10 2.117066 1_555
Mn6 O2 2.096393 1_555
Mn6 O8 2.100303 1_555
Mn6 O14 2.116895 1_555
Mn6 O19 2.116895 1_555
Mn6 O9 2.117066 1_554
Mn7 O3 2.096393 1_555
Mn7 O9 2.100303 1_555
Mn7 O18 2.116895 1_555
Mn7 O15 2.116895 1_555
Mn7 O8 2.117066 1_556
As0 O8 1.699093 1_555
As0 O17 1.706743 1_555
As0 O12 1.706743 1_555
As0 O4 1.707650 1_555
As1 O9 1.699093 1_555
As1 O13 1.706743 1_555
As1 O16 1.706743 1_555
As1 O5 1.707650 1_555
As2 O10 1.699093 1_555
As2 O14 1.706743 1_455
As2 O19 1.706743 1_555
As2 O6 1.707650 1_555
As3 O11 1.699093 1_555
As3 O15 1.706743 1_455
As3 O18 1.706743 1_555
As3 O7 1.707650 1_555
H0 O0 0.969361 1_555
H1 O1 0.969361 1_555
H2 O2 0.969361 1_555
H3 O3 0.969361 1_555
