# generated using pymatgen
data_Th(GeIr)2
_symmetry_space_group_name_H-M   'P 1'
_cell_length_a   4.26200628
_cell_length_b   4.26200628
_cell_length_c   10.12348558
_cell_angle_alpha   90.00000000
_cell_angle_beta   90.00000000
_cell_angle_gamma   90.00000000
_symmetry_Int_Tables_number   1
_chemical_formula_structural   Th(GeIr)2
_chemical_formula_sum   'Th2 Ge4 Ir4'
_cell_volume   183.89005352
_cell_formula_units_Z   2
loop_
 _symmetry_equiv_pos_site_id
 _symmetry_equiv_pos_as_xyz
  1  'x, y, z'
loop_
 _atom_site_type_symbol
 _atom_site_label
 _atom_site_symmetry_multiplicity
 _atom_site_fract_x
 _atom_site_fract_y
 _atom_site_fract_z
 _atom_site_occupancy
  Th  Th0  1  -0.00000000  0.50000000  0.25742536  1
  Th  Th1  1  0.50000000  -0.00000000  0.74257464  1
  Ge  Ge0  1  -0.00000000  0.00000000  0.50000000  1
  Ge  Ge1  1  0.50000000  0.50000000  0.50000000  1
  Ge  Ge2  1  -0.00000000  0.50000000  0.86887641  1
  Ge  Ge3  1  0.50000000  -0.00000000  0.13112359  1
  Ir  Ir0  1  0.00000000  0.00000000  0.00000000  1
  Ir  Ir1  1  0.50000000  0.50000000  0.00000000  1
  Ir  Ir2  1  -0.00000000  0.50000000  0.62818160  1
  Ir  Ir3  1  0.50000000  0.00000000  0.37181840  1
loop_
_geom_bond_atom_site_label_1
_geom_bond_atom_site_label_2
_geom_bond_distance
_geom_bond_site_symmetry_2
Ge0 Ir3 2.495006 1_555
Ge0 Ir3 2.495006 1_455
Ge0 Ir2 2.495006 1_555
Ge0 Ir2 2.495006 1_545
Ge0 Th0 3.251406 1_555
Ge0 Th0 3.251406 1_545
Ge0 Th1 3.251406 1_555
Ge0 Th1 3.251406 1_455
Ge1 Ir3 2.495006 1_565
Ge1 Ir2 2.495006 1_655
Ge1 Ir3 2.495006 1_555
Ge1 Ir2 2.495006 1_555
Ge1 Th0 3.251406 1_555
Ge1 Th0 3.251406 1_655
Ge1 Th1 3.251406 1_565
Ge1 Th1 3.251406 1_555
Ge2 Ir2 2.436670 1_555
Ge2 Ir0 2.510625 1_556
Ge2 Ir0 2.510625 1_566
Ge2 Ir1 2.510625 1_456
Ge2 Ir1 2.510625 1_556
Ge2 Th1 3.273714 1_565
Ge2 Th1 3.273714 1_555
Ge2 Th1 3.273714 1_465
Ge2 Th1 3.273714 1_455
Ge3 Ir3 2.436670 1_555
Ge3 Ir0 2.510625 1_655
Ge3 Ir0 2.510625 1_555
Ge3 Ir1 2.510625 1_545
Ge3 Ir1 2.510625 1_555
Ge3 Th0 3.273714 1_545
Ge3 Th0 3.273714 1_655
Ge3 Th0 3.273714 1_555
Ge3 Th0 3.273714 1_645
Ir0 Th1 3.366397 1_554
Ir0 Th0 3.366397 1_555
Ir0 Th1 3.366397 1_454
Ir0 Th0 3.366397 1_545
Ir1 Th0 3.366397 1_655
Ir1 Th1 3.366397 1_564
Ir1 Th1 3.366397 1_554
Ir1 Th0 3.366397 1_555
Ir2 Th1 3.228536 1_565
Ir2 Th1 3.228536 1_555
Ir2 Th1 3.228536 1_465
Ir2 Th1 3.228536 1_455
Ir3 Th0 3.228536 1_555
Ir3 Th0 3.228536 1_545
Ir3 Th0 3.228536 1_655
Ir3 Th0 3.228536 1_645
