# generated using pymatgen
data_Dy2Si2O7
_symmetry_space_group_name_H-M   'P 1'
_cell_length_a   6.66054500
_cell_length_b   6.69432693
_cell_length_c   12.15420860
_cell_angle_alpha   94.32210812
_cell_angle_beta   91.31954688
_cell_angle_gamma   91.97282093
_symmetry_Int_Tables_number   1
_chemical_formula_structural   Dy2Si2O7
_chemical_formula_sum   'Dy8 Si8 O28'
_cell_volume   539.89019714
_cell_formula_units_Z   4
loop_
 _symmetry_equiv_pos_site_id
 _symmetry_equiv_pos_as_xyz
  1  'x, y, z'
loop_
 _atom_site_type_symbol
 _atom_site_label
 _atom_site_symmetry_multiplicity
 _atom_site_fract_x
 _atom_site_fract_y
 _atom_site_fract_z
 _atom_site_occupancy
  Dy  Dy0  1  0.67352500  0.17312600  0.89082900  1
  Dy  Dy1  1  0.32647500  0.82687400  0.10917100  1
  Dy  Dy2  1  0.36773400  0.21707300  0.63391100  1
  Dy  Dy3  1  0.63226600  0.78292700  0.36608900  1
  Dy  Dy4  1  0.88199200  0.90994600  0.64351900  1
  Dy  Dy5  1  0.11800800  0.09005400  0.35648100  1
  Dy  Dy6  1  0.94900600  0.67253900  0.88507900  1
  Dy  Dy7  1  0.05099400  0.32746100  0.11492100  1
  Si  Si0  1  0.14487600  0.62578400  0.37869100  1
  Si  Si1  1  0.85512400  0.37421600  0.62130900  1
  Si  Si2  1  0.37687000  0.72485900  0.59400800  1
  Si  Si3  1  0.62313000  0.27514100  0.40599200  1
  Si  Si4  1  0.48724500  0.66562000  0.82455100  1
  Si  Si5  1  0.51275500  0.33438000  0.17544900  1
  Si  Si6  1  0.15480600  0.14837100  0.88496700  1
  Si  Si7  1  0.84519400  0.85162900  0.11503300  1
  O  O0  1  0.00052400  0.98585000  0.81499800  1
  O  O1  1  0.99947600  0.01415000  0.18500200  1
  O  O2  1  0.99993700  0.33315100  0.91846800  1
  O  O3  1  0.00006300  0.66684900  0.08153200  1
  O  O4  1  0.34839000  0.20942400  0.81474500  1
  O  O5  1  0.65161000  0.79057600  0.18525500  1
  O  O6  1  0.23046800  0.08412900  0.00502400  1
  O  O7  1  0.76953200  0.91587100  0.99497600  1
  O  O8  1  0.07623900  0.41575500  0.31037300  1
  O  O9  1  0.92376100  0.58424500  0.68962700  1
  O  O10  1  0.96267900  0.77182800  0.41971800  1
  O  O11  1  0.03732100  0.22817200  0.58028200  1
  O  O12  1  0.28975600  0.78194200  0.31234800  1
  O  O13  1  0.71024400  0.21805800  0.68765200  1
  O  O14  1  0.28386500  0.57437000  0.48893700  1
  O  O15  1  0.71613500  0.42563000  0.51106300  1
  O  O16  1  0.35533200  0.48865500  0.12628200  1
  O  O17  1  0.64466800  0.51134500  0.87371800  1
  O  O18  1  0.38236900  0.13736200  0.21147300  1
  O  O19  1  0.61763100  0.86263800  0.78852700  1
  O  O20  1  0.70047100  0.29404200  0.09468400  1
  O  O21  1  0.29952900  0.70595800  0.90531600  1
  O  O22  1  0.59970900  0.43204400  0.30594500  1
  O  O23  1  0.40029100  0.56795600  0.69405500  1
  O  O24  1  0.41392900  0.17413500  0.44750800  1
  O  O25  1  0.58607100  0.82586500  0.55249200  1
  O  O26  1  0.77372100  0.09625300  0.37711900  1
  O  O27  1  0.22627900  0.90374700  0.62288100  1
loop_
_geom_bond_atom_site_label_1
_geom_bond_atom_site_label_2
_geom_bond_distance
_geom_bond_site_symmetry_2
Dy0 O17 2.303401 1_555
Dy0 O7 2.311738 1_545
Dy0 O19 2.353869 1_545
Dy0 O4 2.362578 1_555
Dy0 O2 2.395589 1_555
Dy0 O13 2.526501 1_555
Dy0 O20 2.548259 1_556
Dy0 O0 2.696504 1_645
Dy1 O16 2.303401 1_555
Dy1 O6 2.311738 1_565
Dy1 O18 2.353869 1_565
Dy1 O5 2.362578 1_555
Dy1 O3 2.395589 1_555
Dy1 O12 2.526501 1_555
Dy1 O21 2.548259 1_554
Dy1 O1 2.696504 1_465
Dy2 O4 2.208962 1_555
Dy2 O27 2.262945 1_545
Dy2 O11 2.286065 1_555
Dy2 O24 2.291329 1_555
Dy2 O13 2.358117 1_555
Dy2 O23 2.407833 1_555
Dy3 O5 2.208962 1_555
Dy3 O26 2.262945 1_565
Dy3 O10 2.286065 1_555
Dy3 O25 2.291329 1_555
Dy3 O12 2.358117 1_555
Dy3 O22 2.407833 1_555
Dy4 O0 2.227624 1_655
Dy4 O25 2.270462 1_555
Dy4 O27 2.314002 1_655
Dy4 O9 2.316059 1_555
Dy4 O13 2.423756 1_565
Dy4 O11 2.516142 1_665
Dy4 O19 2.548645 1_555
Dy4 O10 2.874934 1_555
Dy5 O1 2.227624 1_455
Dy5 O24 2.270462 1_555
Dy5 O26 2.314002 1_455
Dy5 O8 2.316059 1_555
Dy5 O12 2.423756 1_545
Dy5 O10 2.516142 1_445
Dy5 O18 2.548645 1_555
Dy5 O11 2.874934 1_555
Dy6 O17 2.259757 1_555
Dy6 O0 2.339994 1_655
Dy6 O21 2.343192 1_655
Dy6 O2 2.372198 1_555
Dy6 O7 2.397125 1_555
Dy6 O9 2.405008 1_555
Dy6 O3 2.407396 1_656
Dy7 O16 2.259757 1_555
Dy7 O1 2.339994 1_455
Dy7 O20 2.343192 1_455
Dy7 O3 2.372198 1_555
Dy7 O6 2.397125 1_555
Dy7 O8 2.405008 1_555
Dy7 O2 2.407396 1_454
O0 Si6 1.645045 1_565
O1 Si7 1.645045 1_545
O2 Si6 1.670689 1_655
O3 Si7 1.670689 1_455
O4 Si6 1.620173 1_555
O5 Si7 1.620173 1_555
O6 Si6 1.625981 1_554
O7 Si7 1.625981 1_556
O8 Si0 1.624073 1_555
O9 Si1 1.624073 1_555
O10 Si0 1.647185 1_655
O11 Si1 1.647185 1_455
O12 Si0 1.663617 1_555
O13 Si1 1.663617 1_555
O14 Si2 1.660177 1_555
O14 Si0 1.674889 1_555
O15 Si3 1.660177 1_555
O15 Si1 1.674889 1_555
O16 Si5 1.631515 1_555
O17 Si4 1.631515 1_555
O18 Si5 1.646540 1_555
O19 Si4 1.646540 1_555
O20 Si5 1.624676 1_555
O21 Si4 1.624676 1_555
O22 Si3 1.673704 1_555
O22 Si5 1.747522 1_555
O23 Si2 1.673704 1_555
O23 Si4 1.747522 1_555
O24 Si3 1.634717 1_555
O25 Si2 1.634717 1_555
O26 Si3 1.612096 1_555
O27 Si2 1.612096 1_555
