# generated using pymatgen
data_Mg14NbNi
_symmetry_space_group_name_H-M   'P 1'
_cell_length_a   6.26113656
_cell_length_b   6.26113607
_cell_length_c   9.82503951
_cell_angle_alpha   90.00000000
_cell_angle_beta   90.00000000
_cell_angle_gamma   120.00000260
_symmetry_Int_Tables_number   1
_chemical_formula_structural   Mg14NbNi
_chemical_formula_sum   'Mg14 Nb1 Ni1'
_cell_volume   333.55791008
_cell_formula_units_Z   1
loop_
 _symmetry_equiv_pos_site_id
 _symmetry_equiv_pos_as_xyz
  1  'x, y, z'
loop_
 _atom_site_type_symbol
 _atom_site_label
 _atom_site_symmetry_multiplicity
 _atom_site_fract_x
 _atom_site_fract_y
 _atom_site_fract_z
 _atom_site_occupancy
  Mg  Mg0  1  0.16417087  0.83208493  0.12500000  1
  Mg  Mg1  1  0.17340536  0.83670218  0.62500000  1
  Mg  Mg2  1  0.66791507  0.33582913  0.12500000  1
  Mg  Mg3  1  0.66329782  0.32659464  0.62500000  1
  Mg  Mg4  1  0.66791507  0.83208493  0.12500000  1
  Mg  Mg5  1  0.66329782  0.83670218  0.62500000  1
  Mg  Mg6  1  0.32398355  0.17601645  0.36904095  1
  Mg  Mg7  1  0.32398355  0.17601645  0.88095905  1
  Mg  Mg8  1  0.32398355  0.64796810  0.36904095  1
  Mg  Mg9  1  0.32398355  0.64796810  0.88095905  1
  Mg  Mg10  1  0.85203190  0.17601645  0.36904095  1
  Mg  Mg11  1  0.85203190  0.17601645  0.88095905  1
  Mg  Mg12  1  0.83333300  0.66666700  0.37972513  1
  Mg  Mg13  1  0.83333300  0.66666700  0.87027487  1
  Nb  Nb0  1  0.16666700  0.33333300  0.62500000  1
  Ni  Ni0  1  0.16666700  0.33333300  0.12500000  1
loop_
_geom_bond_atom_site_label_1
_geom_bond_atom_site_label_2
_geom_bond_distance
_geom_bond_site_symmetry_2
Mg0 Mg8 3.038524 1_555
Mg0 Mg9 3.038524 1_554
Mg0 Mg6 3.038531 1_565
Mg0 Mg7 3.038531 1_564
Mg0 Mg13 3.079207 1_454
Mg0 Mg12 3.079207 1_455
Mg0 Mg2 3.107125 1_455
Mg0 Mg4 3.107125 1_455
Mg0 Ni0 3.130597 1_555
Mg0 Ni0 3.130597 1_565
Mg0 Mg2 3.154011 1_565
Mg0 Mg4 3.154011 1_555
Mg1 Mg12 3.034395 1_455
Mg1 Mg13 3.034395 1_455
Mg1 Mg3 3.067283 1_565
Mg1 Mg5 3.067284 1_555
Mg1 Mg9 3.118267 1_555
Mg1 Mg8 3.118267 1_555
Mg1 Mg7 3.118274 1_565
Mg1 Mg6 3.118274 1_565
Mg1 Nb0 3.130781 1_555
Mg1 Nb0 3.130781 1_565
Mg1 Mg3 3.193853 1_455
Mg1 Mg5 3.193853 1_455
Mg2 Mg7 3.038531 1_554
Mg2 Mg6 3.038531 1_555
Mg2 Mg4 3.107125 1_555
Mg2 Ni0 3.130598 1_655
Mg2 Ni0 3.130598 1_555
Mg2 Mg4 3.154011 1_545
Mg3 Mg5 3.067283 1_545
Mg3 Mg7 3.118274 1_555
Mg3 Mg6 3.118274 1_555
Mg3 Nb0 3.130781 1_655
Mg3 Nb0 3.130781 1_555
Mg3 Mg5 3.193853 1_555
Mg4 Mg8 3.038530 1_555
Mg4 Mg9 3.038530 1_554
Mg4 Ni0 3.130597 1_665
Mg4 Ni0 3.130597 1_555
Mg5 Mg9 3.118273 1_555
Mg5 Mg8 3.118273 1_555
Mg5 Nb0 3.130781 1_555
Mg5 Nb0 3.130781 1_665
Mg6 Ni0 2.942717 1_555
Mg6 Mg8 2.954953 1_555
Mg6 Nb0 3.038884 1_555
Mg6 Mg8 3.306183 1_545
Mg7 Ni0 2.942717 1_556
Mg7 Mg9 2.954953 1_555
Mg7 Nb0 3.038884 1_555
Mg7 Mg9 3.306183 1_545
Mg8 Ni0 2.942723 1_555
Mg8 Nb0 3.038890 1_555
Mg9 Ni0 2.942723 1_556
Mg9 Nb0 3.038890 1_555
Mg10 Ni0 2.942723 1_655
Mg10 Mg8 2.954953 1_655
Mg10 Mg6 2.954954 1_655
Mg10 Mg2 3.038524 1_555
Mg10 Mg4 3.038530 1_545
Mg10 Nb0 3.038890 1_655
Mg10 Mg3 3.118267 1_555
Mg10 Mg5 3.118273 1_545
Mg10 Mg12 3.133968 1_545
Mg10 Mg12 3.133968 1_555
Mg10 Mg8 3.306183 1_545
Mg10 Mg6 3.306183 1_555
Mg11 Ni0 2.942723 1_656
Mg11 Mg9 2.954953 1_655
Mg11 Mg7 2.954954 1_655
Mg11 Mg2 3.038524 1_556
Mg11 Mg4 3.038530 1_546
Mg11 Nb0 3.038890 1_655
Mg11 Mg3 3.118267 1_555
Mg11 Mg5 3.118273 1_545
Mg11 Mg13 3.133968 1_545
Mg11 Mg13 3.133968 1_555
Mg11 Mg9 3.306183 1_545
Mg11 Mg7 3.306183 1_555
Mg12 Mg5 3.034388 1_555
Mg12 Mg3 3.034395 1_555
Mg12 Mg4 3.079201 1_555
Mg12 Mg2 3.079207 1_555
Mg12 Mg6 3.133968 1_665
Mg12 Mg6 3.133968 1_555
Mg12 Mg8 3.133968 1_655
Mg12 Mg8 3.133968 1_555
Mg13 Mg5 3.034388 1_555
Mg13 Mg3 3.034395 1_555
Mg13 Mg4 3.079201 1_556
Mg13 Mg2 3.079207 1_556
Mg13 Mg7 3.133968 1_665
Mg13 Mg7 3.133968 1_555
Mg13 Mg9 3.133968 1_655
Mg13 Mg9 3.133968 1_555
