# generated using pymatgen
data_K2Na2Sm4Ta2O13
_symmetry_space_group_name_H-M   'P 1'
_cell_length_a   12.54388616
_cell_length_b   12.54388616
_cell_length_c   11.32647549
_cell_angle_alpha   64.32219605
_cell_angle_beta   64.32219605
_cell_angle_gamma   26.36068312
_symmetry_Int_Tables_number   1
_chemical_formula_structural   K2Na2Sm4Ta2O13
_chemical_formula_sum   'K4 Na4 Sm8 Ta4 O26'
_cell_volume   708.65411554
_cell_formula_units_Z   2
loop_
 _symmetry_equiv_pos_site_id
 _symmetry_equiv_pos_as_xyz
  1  'x, y, z'
loop_
 _atom_site_type_symbol
 _atom_site_label
 _atom_site_symmetry_multiplicity
 _atom_site_fract_x
 _atom_site_fract_y
 _atom_site_fract_z
 _atom_site_occupancy
  K  K0  1  0.80038000  0.69802000  0.36732200  1
  K  K1  1  0.30198000  0.19962000  0.13267800  1
  K  K2  1  0.19962000  0.30198000  0.63267800  1
  K  K3  1  0.69802000  0.80038000  0.86732200  1
  Na  Na0  1  0.87733800  0.80415500  0.02361300  1
  Na  Na1  1  0.19584500  0.12266200  0.47638700  1
  Na  Na2  1  0.12266200  0.19584500  0.97638700  1
  Na  Na3  1  0.80415500  0.87733800  0.52361300  1
  Sm  Sm0  1  0.60857000  0.51721800  0.54999400  1
  Sm  Sm1  1  0.48278200  0.39143000  0.95000600  1
  Sm  Sm2  1  0.39143000  0.48278200  0.45000600  1
  Sm  Sm3  1  0.51721800  0.60857000  0.04999400  1
  Sm  Sm4  1  0.97411800  0.90076700  0.17205200  1
  Sm  Sm5  1  0.09923300  0.02588200  0.32794800  1
  Sm  Sm6  1  0.02588200  0.09923300  0.82794800  1
  Sm  Sm7  1  0.90076700  0.97411800  0.67205200  1
  Ta  Ta0  1  0.68383900  0.61740800  0.21775400  1
  Ta  Ta1  1  0.38259200  0.31616100  0.28224600  1
  Ta  Ta2  1  0.31616100  0.38259200  0.78224600  1
  Ta  Ta3  1  0.61740800  0.68383900  0.71775400  1
  O  O0  1  0.90501300  0.35827600  0.35933900  1
  O  O1  1  0.64172400  0.09498700  0.14066100  1
  O  O2  1  0.09498700  0.64172400  0.64066100  1
  O  O3  1  0.35827600  0.90501300  0.85933900  1
  O  O4  1  0.85921400  0.41006000  0.62291300  1
  O  O5  1  0.58994000  0.14078600  0.87708700  1
  O  O6  1  0.14078600  0.58994000  0.37708700  1
  O  O7  1  0.41006000  0.85921400  0.12291300  1
  O  O8  1  0.17912900  0.56072100  0.13820600  1
  O  O9  1  0.43927900  0.82087100  0.36179400  1
  O  O10  1  0.82087100  0.43927900  0.86179400  1
  O  O11  1  0.56072100  0.17912900  0.63820600  1
  O  O12  1  0.79746300  0.67244200  0.12441000  1
  O  O13  1  0.32755800  0.20253700  0.37559000  1
  O  O14  1  0.20253700  0.32755800  0.87559000  1
  O  O15  1  0.67244200  0.79746300  0.62441000  1
  O  O16  1  0.24092500  0.75907500  0.25000000  1
  O  O17  1  0.75907500  0.24092500  0.75000000  1
  O  O18  1  0.37095500  0.83131800  0.65956400  1
  O  O19  1  0.16868200  0.62904500  0.84043600  1
  O  O20  1  0.62904500  0.16868200  0.34043600  1
  O  O21  1  0.83131800  0.37095500  0.15956400  1
  O  O22  1  0.75042800  0.24728300  0.47716200  1
  O  O23  1  0.75271700  0.24957200  0.02283800  1
  O  O24  1  0.24957200  0.75271700  0.52283800  1
  O  O25  1  0.24728300  0.75042800  0.97716200  1
loop_
_geom_bond_atom_site_label_1
_geom_bond_atom_site_label_2
_geom_bond_distance
_geom_bond_site_symmetry_2
K0 O13 2.829339 1_565
K0 O15 2.849781 1_555
K0 O12 2.923600 1_555
K0 O13 2.957482 1_655
K0 O4 3.159914 1_555
K0 O6 3.160454 1_655
K0 O0 3.178105 1_555
K0 O9 3.247978 1_555
K0 O8 3.286004 1_655
K0 O1 3.307141 1_565
K1 O12 2.829339 1_455
K1 O14 2.849781 1_554
K1 O13 2.923600 1_555
K1 O12 2.957482 1_545
K1 O5 3.159914 1_554
K1 O7 3.160454 1_545
K1 O1 3.178105 1_555
K1 O8 3.247978 1_555
K1 O9 3.286004 1_545
K1 O0 3.307141 1_455
K2 O15 2.829339 1_545
K2 O13 2.849781 1_555
K2 O14 2.923600 1_555
K2 O15 2.957482 1_455
K2 O6 3.159914 1_555
K2 O4 3.160454 1_455
K2 O2 3.178105 1_555
K2 O11 3.247978 1_555
K2 O10 3.286004 1_455
K2 O3 3.307141 1_545
K3 O14 2.829339 1_655
K3 O12 2.849781 1_556
K3 O15 2.923600 1_555
K3 O14 2.957482 1_565
K3 O7 3.159914 1_556
K3 O5 3.160454 1_565
K3 O3 3.178105 1_555
K3 O10 3.247978 1_555
K3 O11 3.286004 1_565
K3 O2 3.307141 1_655
Na0 O1 2.296842 1_565
Na0 O12 2.318964 1_555
Na0 O5 2.326672 1_564
Na0 O8 2.334084 1_655
Na0 O19 2.340582 1_654
Na1 O0 2.296842 1_455
Na1 O13 2.318964 1_555
Na1 O4 2.326672 1_455
Na1 O9 2.334084 1_545
Na1 O18 2.340582 1_545
Na2 O3 2.296842 1_545
Na2 O14 2.318964 1_555
Na2 O7 2.326672 1_546
Na2 O10 2.334084 1_455
Na2 O21 2.340582 1_456
Na3 O2 2.296842 1_655
Na3 O15 2.318964 1_555
Na3 O6 2.326672 1_655
Na3 O11 2.334084 1_565
Na3 O20 2.340582 1_565
O0 Ta0 2.003046 1_555
O0 Sm5 2.403566 1_655
O0 Sm0 2.439704 1_555
O1 Ta1 2.003046 1_555
O1 Sm4 2.403566 1_545
O1 Sm1 2.439704 1_554
O2 Ta2 2.003046 1_555
O2 Sm7 2.403566 1_455
O2 Sm2 2.439704 1_555
O3 Ta3 2.003046 1_555
O3 Sm6 2.403566 1_565
O3 Sm3 2.439704 1_556
O4 Ta3 1.963285 1_555
O4 Sm0 2.467558 1_555
O4 Sm6 2.592114 1_655
O5 Ta2 1.963285 1_555
O5 Sm1 2.467558 1_555
O5 Sm7 2.592114 1_545
O6 Ta1 1.963285 1_555
O6 Sm2 2.467558 1_555
O6 Sm4 2.592114 1_455
O7 Ta0 1.963285 1_555
O7 Sm3 2.467558 1_555
O7 Sm5 2.592114 1_565
O8 Ta1 1.956233 1_555
O8 Sm4 2.420770 1_455
O8 Sm1 2.439917 1_554
O9 Ta0 1.956233 1_555
O9 Sm5 2.420770 1_565
O9 Sm0 2.439917 1_555
O10 Ta3 1.956233 1_555
O10 Sm6 2.420770 1_655
O10 Sm3 2.439917 1_556
O11 Ta2 1.956233 1_555
O11 Sm7 2.420770 1_545
O11 Sm2 2.439917 1_555
O12 Ta0 1.857585 1_555
O13 Ta1 1.857585 1_555
O14 Ta2 1.857585 1_555
O15 Ta3 1.857585 1_555
O16 Sm5 2.383372 1_565
O16 Sm4 2.383372 1_455
O16 Sm3 2.425821 1_555
O16 Sm2 2.425821 1_555
O17 Sm6 2.383372 1_655
O17 Sm7 2.383372 1_545
O17 Sm0 2.425821 1_555
O17 Sm1 2.425821 1_555
O18 Ta3 1.968319 1_555
O18 Sm0 2.436153 1_555
O18 Sm6 2.449437 1_565
O19 Ta2 1.968319 1_555
O19 Sm1 2.436153 1_555
O19 Sm7 2.449437 1_455
O20 Ta1 1.968319 1_555
O20 Sm2 2.436153 1_555
O20 Sm4 2.449437 1_545
O21 Ta0 1.968319 1_555
O21 Sm3 2.436153 1_555
O21 Sm5 2.449437 1_655
O22 Sm5 2.365748 1_655
O22 Sm7 2.375496 1_545
O22 Sm0 2.379753 1_555
O22 Sm2 2.382013 1_555
O23 Sm4 2.365748 1_545
O23 Sm6 2.375496 1_654
O23 Sm1 2.379753 1_554
O23 Sm3 2.382013 1_555
O24 Sm7 2.365748 1_455
O24 Sm5 2.375496 1_565
O24 Sm2 2.379753 1_555
O24 Sm0 2.382013 1_555
O25 Sm6 2.365748 1_565
O25 Sm4 2.375496 1_456
O25 Sm3 2.379753 1_556
O25 Sm1 2.382013 1_555
