# generated using pymatgen
data_Na3P3H5N3O7
_symmetry_space_group_name_H-M   'P 1'
_cell_length_a   7.95502594
_cell_length_b   7.95502594
_cell_length_c   7.70600357
_cell_angle_alpha   81.01241973
_cell_angle_beta   81.01241973
_cell_angle_gamma   101.99076954
_symmetry_Int_Tables_number   1
_chemical_formula_structural   Na3P3H5N3O7
_chemical_formula_sum   'Na6 P6 H10 N6 O14'
_cell_volume   462.08678121
_cell_formula_units_Z   2
loop_
 _symmetry_equiv_pos_site_id
 _symmetry_equiv_pos_as_xyz
  1  'x, y, z'
loop_
 _atom_site_type_symbol
 _atom_site_label
 _atom_site_symmetry_multiplicity
 _atom_site_fract_x
 _atom_site_fract_y
 _atom_site_fract_z
 _atom_site_occupancy
  Na  Na0  1  0.25140200  0.50324100  0.38796700  1
  Na  Na1  1  0.49675900  0.74859800  0.61203300  1
  Na  Na2  1  0.22858900  0.77141100  0.00000000  1
  Na  Na3  1  0.53183300  0.46816700  0.00000000  1
  Na  Na4  1  0.30546800  0.13766900  0.57227600  1
  Na  Na5  1  0.86233100  0.69453200  0.42772400  1
  P  P0  1  0.15854400  0.39090600  0.84543400  1
  P  P1  1  0.60909400  0.84145600  0.15456600  1
  P  P2  1  0.90130900  0.39130600  0.17310800  1
  P  P3  1  0.60869400  0.09869100  0.82689200  1
  P  P4  1  0.13737200  0.14457000  0.19543100  1
  P  P5  1  0.85543000  0.86262800  0.80456900  1
  H  H0  1  0.20424000  0.84204100  0.39425000  1
  H  H1  1  0.15795900  0.79576000  0.60575000  1
  H  H2  1  0.59780100  0.42832700  0.39382200  1
  H  H3  1  0.57167300  0.40219900  0.60617800  1
  H  H4  1  0.86821600  0.40057800  0.87872100  1
  H  H5  1  0.59942200  0.13178400  0.12127900  1
  H  H6  1  0.83996600  0.09542800  0.29918100  1
  H  H7  1  0.90457200  0.16003400  0.70081900  1
  H  H8  1  0.14512300  0.10158900  0.91228700  1
  H  H9  1  0.89841100  0.85487700  0.08771300  1
  N  N0  1  0.96796000  0.42501600  0.94760900  1
  N  N1  1  0.57498400  0.03204000  0.05239100  1
  N  N2  1  0.94662900  0.20019700  0.25910200  1
  N  N3  1  0.79980300  0.05337100  0.74089800  1
  N  N4  1  0.18966100  0.20675100  0.96927100  1
  N  N5  1  0.79324900  0.81033900  0.03072900  1
  O  O0  1  0.30387500  0.54460300  0.85364700  1
  O  O1  1  0.45539700  0.69612500  0.14635300  1
  O  O2  1  0.13443300  0.34228000  0.66763400  1
  O  O3  1  0.65772000  0.86556700  0.33236600  1
  O  O4  1  0.01170200  0.53730800  0.24089800  1
  O  O5  1  0.46269200  0.98829800  0.75910200  1
  O  O6  1  0.70335000  0.36374000  0.20972500  1
  O  O7  1  0.63626000  0.29665000  0.79027500  1
  O  O8  1  0.27817500  0.24495800  0.27613700  1
  O  O9  1  0.75504200  0.72182500  0.72386300  1
  O  O10  1  0.09920700  0.94422200  0.23322400  1
  O  O11  1  0.05577800  0.90079300  0.76677600  1
  O  O12  1  0.22976500  0.77023500  0.50000000  1
  O  O13  1  0.53610900  0.46389100  0.50000000  1
loop_
_geom_bond_atom_site_label_1
_geom_bond_atom_site_label_2
_geom_bond_distance
_geom_bond_site_symmetry_2
Na0 O2 2.272906 1_555
Na0 O1 2.362873 1_555
Na0 O8 2.384799 1_555
Na0 O4 2.405775 1_555
Na0 O12 2.442229 1_555
Na0 O13 2.606518 1_555
Na1 O3 2.272906 1_555
Na1 O0 2.362873 1_555
Na1 O9 2.384799 1_555
Na1 O5 2.405775 1_555
Na1 O12 2.442229 1_555
Na1 O13 2.606518 1_555
Na2 O0 2.399937 1_554
Na2 O1 2.399937 1_555
Na2 O4 2.544625 1_555
Na2 O5 2.544625 1_554
Na2 O11 2.638388 1_554
Na2 O10 2.638388 1_555
Na3 O0 2.411017 1_554
Na3 O1 2.411017 1_555
Na3 O6 2.429837 1_555
Na3 O7 2.429837 1_554
Na3 O9 2.782407 1_554
Na3 O8 2.782407 1_555
Na4 O8 2.367823 1_555
Na4 O5 2.386324 1_545
Na4 O2 2.453986 1_555
Na4 O11 2.524839 1_545
Na5 O9 2.367823 1_555
Na5 O4 2.386324 1_655
Na5 O3 2.453986 1_555
Na5 O10 2.524839 1_655
H0 O12 0.993002 1_555
H1 O12 0.993002 1_555
H2 O13 0.997450 1_555
H2 O6 1.736772 1_555
H3 O13 0.997450 1_555
H3 O7 1.736772 1_555
H4 N0 1.024177 1_555
H5 N1 1.024177 1_555
H6 N2 1.026563 1_555
H7 N3 1.026563 1_555
H8 N4 1.028799 1_555
H9 N5 1.028799 1_555
N0 P0 1.690221 1_655
N0 P2 1.697081 1_556
N1 P1 1.690221 1_545
N1 P3 1.697081 1_554
N2 P4 1.689135 1_655
N2 P2 1.693507 1_555
N3 P5 1.689135 1_545
N3 P3 1.693507 1_555
N4 P4 1.695194 1_556
N4 P0 1.704621 1_555
N5 P5 1.695194 1_554
N5 P1 1.704621 1_555
O0 P0 1.514995 1_555
O1 P1 1.514995 1_555
O2 P0 1.510146 1_555
O3 P1 1.510146 1_555
O4 P2 1.517285 1_455
O5 P3 1.517285 1_565
O6 P2 1.518536 1_555
O7 P3 1.518536 1_555
O8 P4 1.510063 1_555
O9 P5 1.510063 1_555
O10 P4 1.530818 1_565
O11 P5 1.530818 1_455
