# generated using pymatgen
data_Ho4Fe29Si5
_symmetry_space_group_name_H-M   'P 1'
_cell_length_a   6.35028204
_cell_length_b   6.33193483
_cell_length_c   12.66242164
_cell_angle_alpha   81.43729784
_cell_angle_beta   82.32874642
_cell_angle_gamma   82.26776432
_symmetry_Int_Tables_number   1
_chemical_formula_structural   Ho4Fe29Si5
_chemical_formula_sum   'Ho4 Fe29 Si5'
_cell_volume   495.54192371
_cell_formula_units_Z   1
loop_
 _symmetry_equiv_pos_site_id
 _symmetry_equiv_pos_as_xyz
  1  'x, y, z'
loop_
 _atom_site_type_symbol
 _atom_site_label
 _atom_site_symmetry_multiplicity
 _atom_site_fract_x
 _atom_site_fract_y
 _atom_site_fract_z
 _atom_site_occupancy
  Ho  Ho0  1  0.65887200  0.65039900  0.32663000  1
  Ho  Ho1  1  0.65319600  0.65461700  0.82616400  1
  Ho  Ho2  1  0.34680400  0.34538300  0.17383600  1
  Ho  Ho3  1  0.34112800  0.34960100  0.67337000  1
  Fe  Fe0  1  0.30141800  0.69899400  0.99969800  1
  Fe  Fe1  1  0.30939200  0.69424600  0.49913400  1
  Fe  Fe2  1  0.69882400  0.99959700  0.15163300  1
  Fe  Fe3  1  0.69029500  0.00292400  0.65215300  1
  Fe  Fe4  1  0.00073800  0.29223600  0.35392700  1
  Fe  Fe5  1  0.99898300  0.29833100  0.85074900  1
  Fe  Fe6  1  0.30970500  0.99707600  0.34784700  1
  Fe  Fe7  1  0.30117600  0.00040300  0.84836700  1
  Fe  Fe8  1  0.00101700  0.70166900  0.14925100  1
  Fe  Fe9  1  0.99926200  0.70776400  0.64607300  1
  Fe  Fe10  1  0.69858200  0.30100600  0.00030200  1
  Fe  Fe11  1  0.69060800  0.30575400  0.50086600  1
  Fe  Fe12  1  0.33727400  0.33601700  0.42488400  1
  Fe  Fe13  1  0.33963500  0.33977800  0.92178700  1
  Fe  Fe14  1  0.34103200  0.84463600  0.16980500  1
  Fe  Fe15  1  0.33652300  0.84933400  0.66799100  1
  Fe  Fe16  1  0.84457500  0.33986600  0.17081300  1
  Fe  Fe17  1  0.83643200  0.34481200  0.67135400  1
  Fe  Fe18  1  0.66036500  0.66022200  0.07821300  1
  Fe  Fe19  1  0.66272600  0.66398300  0.57511600  1
  Fe  Fe20  1  0.66347700  0.15066600  0.33200900  1
  Fe  Fe21  1  0.65896800  0.15536400  0.83019500  1
  Fe  Fe22  1  0.16356800  0.65518800  0.32864600  1
  Fe  Fe23  1  0.15542500  0.66013400  0.82918700  1
  Fe  Fe24  1  0.00187000  0.99863500  0.25013900  1
  Fe  Fe25  1  0.99813000  0.00136500  0.74986100  1
  Fe  Fe26  1  0.00000000  0.50000000  0.50000000  1
  Fe  Fe27  1  0.00000000  0.50000000  0.00000000  1
  Fe  Fe28  1  0.50000000  0.00000000  0.00000000  1
  Si  Si0  1  0.50000000  0.00000000  0.50000000  1
  Si  Si1  1  0.92253700  0.88964700  0.44487700  1
  Si  Si2  1  0.89848900  0.89814100  0.94923800  1
  Si  Si3  1  0.10151100  0.10185900  0.05076200  1
  Si  Si4  1  0.07746300  0.11035300  0.55512300  1
loop_
_geom_bond_atom_site_label_1
_geom_bond_atom_site_label_2
_geom_bond_distance
_geom_bond_site_symmetry_2
Ho0 Si1 3.060645 1_555
Ho0 Si0 3.315451 1_565
Ho1 Si2 3.040184 1_555
Ho2 Si3 3.040184 1_555
Ho3 Si4 3.060645 1_555
Ho3 Si0 3.315451 1_555
Fe0 Fe28 2.423453 1_566
Fe0 Fe27 2.428371 1_556
Fe0 Fe7 2.495044 1_565
Fe0 Fe8 2.502370 1_556
Fe0 Fe23 2.517077 1_555
Fe0 Fe14 2.520297 1_556
Fe0 Fe18 2.574135 1_556
Fe0 Fe13 2.580970 1_555
Fe0 Si2 2.806010 1_455
Fe0 Si3 2.817345 1_566
Fe0 Ho2 2.912777 1_556
Fe0 Ho1 2.932928 1_555
Fe1 Si0 2.419466 1_565
Fe1 Fe26 2.452252 1_555
Fe1 Fe6 2.500546 1_555
Fe1 Fe22 2.516622 1_555
Fe1 Fe15 2.516899 1_555
Fe1 Fe9 2.524190 1_455
Fe1 Fe19 2.530344 1_555
Fe1 Fe12 2.557918 1_555
Fe1 Si1 2.723505 1_455
Fe1 Ho3 2.870035 1_555
Fe1 Ho0 2.914478 1_555
Fe1 Si4 2.974399 1_565
Fe2 Fe24 2.427902 1_655
Fe2 Fe28 2.434252 1_565
Fe2 Fe8 2.503918 1_655
Fe2 Fe20 2.576426 1_565
Fe2 Si3 2.813737 1_665
Fe2 Si2 2.826993 1_554
Fe2 Ho0 2.899195 1_555
Fe2 Ho2 2.927206 1_565
Fe3 Si0 2.410548 1_555
Fe3 Fe9 2.522736 1_545
Fe3 Si4 2.722459 1_655
Fe3 Ho1 2.885942 1_545
Fe3 Ho3 2.917894 1_555
Fe3 Si1 2.969957 1_545
Fe4 Fe6 2.522736 1_545
Fe4 Si4 2.713087 1_555
Fe4 Si1 2.717516 1_445
Fe4 Ho0 2.935603 1_455
Fe4 Ho2 2.962344 1_555
Fe5 Fe7 2.503918 1_655
Fe5 Si2 2.768610 1_545
Fe5 Si3 2.769462 1_656
Fe5 Ho3 2.922436 1_655
Fe5 Ho1 2.940826 1_555
Fe6 Si0 2.410548 1_565
Fe6 Si1 2.722459 1_455
Fe6 Ho2 2.885942 1_565
Fe6 Ho0 2.917894 1_555
Fe6 Si4 2.969957 1_565
Fe7 Si2 2.813737 1_445
Fe7 Si3 2.826993 1_556
Fe7 Ho3 2.899195 1_555
Fe7 Ho1 2.927206 1_545
Fe8 Si3 2.768610 1_565
Fe8 Si2 2.769462 1_454
Fe8 Ho0 2.922436 1_455
Fe8 Ho2 2.940826 1_555
Fe9 Si1 2.713087 1_555
Fe9 Si4 2.717516 1_665
Fe9 Ho3 2.935603 1_655
Fe9 Ho1 2.962344 1_555
Fe10 Fe28 2.423453 1_555
Fe10 Fe27 2.428371 1_655
Fe10 Fe2 2.495044 1_545
Fe10 Fe5 2.502370 1_554
Fe10 Fe16 2.517077 1_555
Fe10 Fe21 2.520297 1_554
Fe10 Fe13 2.574135 1_554
Fe10 Fe18 2.580970 1_555
Fe10 Si3 2.806010 1_655
Fe10 Si2 2.817345 1_544
Fe10 Ho1 2.912777 1_554
Fe10 Ho2 2.932928 1_555
Fe11 Si0 2.419466 1_555
Fe11 Fe26 2.452252 1_655
Fe11 Fe3 2.500546 1_555
Fe11 Fe17 2.516622 1_555
Fe11 Fe20 2.516899 1_555
Fe11 Fe4 2.524190 1_655
Fe11 Fe12 2.530344 1_555
Fe11 Fe19 2.557918 1_555
Fe11 Si4 2.723505 1_655
Fe11 Ho0 2.870035 1_555
Fe11 Ho3 2.914478 1_555
Fe11 Si1 2.974399 1_545
Fe12 Si0 2.359559 1_555
Fe12 Fe26 2.392040 1_555
Fe12 Fe22 2.410756 1_555
Fe12 Fe20 2.481511 1_555
Fe12 Fe4 2.489488 1_555
Fe12 Fe6 2.521564 1_545
Fe12 Si4 2.586450 1_555
Fe12 Ho0 3.059310 1_555
Fe12 Ho2 3.163210 1_555
Fe12 Ho3 3.163821 1_555
Fe13 Fe28 2.385758 1_556
Fe13 Fe27 2.408714 1_556
Fe13 Fe23 2.424328 1_555
Fe13 Fe21 2.441106 1_555
Fe13 Fe5 2.510011 1_455
Fe13 Fe7 2.517630 1_555
Fe13 Si3 2.538560 1_556
Fe13 Ho1 3.018417 1_555
Fe13 Ho3 3.135673 1_555
Fe13 Ho2 3.203480 1_556
Fe14 Fe28 2.380719 1_565
Fe14 Fe24 2.402011 1_555
Fe14 Fe22 2.407180 1_555
Fe14 Fe18 2.441106 1_555
Fe14 Fe8 2.509081 1_555
Fe14 Si3 2.540243 1_565
Fe14 Fe6 2.555459 1_555
Fe14 Fe2 2.563423 1_555
Fe14 Ho0 3.033912 1_555
Fe14 Ho2 3.149388 1_555
Fe14 Ho2 3.183903 1_565
Fe15 Si0 2.363331 1_565
Fe15 Fe25 2.401021 1_465
Fe15 Fe23 2.437182 1_555
Fe15 Fe19 2.481511 1_555
Fe15 Fe9 2.493362 1_455
Fe15 Fe3 2.538220 1_565
Fe15 Fe7 2.576426 1_565
Fe15 Si4 2.583255 1_565
Fe15 Ho1 3.041103 1_555
Fe15 Ho3 3.151126 1_555
Fe15 Ho3 3.182649 1_565
Fe16 Fe24 2.390803 1_645
Fe16 Fe27 2.393056 1_655
Fe16 Fe18 2.424328 1_555
Fe16 Fe20 2.437182 1_555
Fe16 Fe2 2.512015 1_545
Fe16 Si3 2.569537 1_655
Fe16 Fe8 2.581379 1_655
Fe16 Fe4 2.603030 1_655
Fe16 Ho0 3.009956 1_555
Fe16 Ho2 3.151650 1_555
Fe16 Ho2 3.199573 1_655
Fe17 Fe26 2.406321 1_655
Fe17 Fe21 2.407180 1_555
Fe17 Fe25 2.408261 1_555
Fe17 Fe19 2.410756 1_555
Fe17 Si4 2.480044 1_655
Fe17 Fe3 2.522755 1_555
Fe17 Fe5 2.580191 1_555
Fe17 Fe9 2.604868 1_555
Fe17 Ho1 2.994438 1_555
Fe17 Ho3 3.138111 1_555
Fe17 Ho3 3.212721 1_655
Fe18 Fe28 2.385758 1_565
Fe18 Fe27 2.408714 1_655
Fe18 Fe8 2.510011 1_655
Fe18 Fe2 2.517630 1_555
Fe18 Si2 2.538560 1_554
Fe18 Ho2 3.018417 1_555
Fe18 Ho0 3.135673 1_555
Fe18 Ho1 3.203480 1_554
Fe19 Si0 2.359559 1_565
Fe19 Fe26 2.392040 1_655
Fe19 Fe9 2.489488 1_555
Fe19 Fe3 2.521564 1_565
Fe19 Si1 2.586450 1_555
Fe19 Ho3 3.059310 1_555
Fe19 Ho1 3.163210 1_555
Fe19 Ho0 3.163821 1_555
Fe20 Si0 2.363331 1_555
Fe20 Fe24 2.401021 1_645
Fe20 Fe4 2.493362 1_655
Fe20 Fe6 2.538220 1_545
Fe20 Si1 2.583255 1_545
Fe20 Ho2 3.041103 1_555
Fe20 Ho0 3.151126 1_555
Fe20 Ho0 3.182649 1_545
Fe21 Fe28 2.380719 1_556
Fe21 Fe25 2.402011 1_555
Fe21 Fe5 2.509081 1_555
Fe21 Si2 2.540243 1_545
Fe21 Fe3 2.555459 1_555
Fe21 Fe7 2.563423 1_555
Fe21 Ho3 3.033912 1_555
Fe21 Ho1 3.149388 1_555
Fe21 Ho1 3.183903 1_545
Fe22 Fe26 2.406321 1_555
Fe22 Fe24 2.408261 1_555
Fe22 Si1 2.480044 1_455
Fe22 Fe6 2.522755 1_555
Fe22 Fe8 2.580191 1_555
Fe22 Fe4 2.604868 1_555
Fe22 Ho2 2.994438 1_555
Fe22 Ho0 3.138111 1_555
Fe22 Ho0 3.212721 1_455
Fe23 Fe25 2.390803 1_465
Fe23 Fe27 2.393056 1_556
Fe23 Fe7 2.512015 1_565
Fe23 Si2 2.569537 1_455
Fe23 Fe5 2.581379 1_455
Fe23 Fe9 2.603030 1_455
Fe23 Ho3 3.009956 1_555
Fe23 Ho1 3.151650 1_555
Fe23 Ho1 3.199573 1_455
Fe24 Fe8 2.426458 1_555
Fe24 Fe4 2.429965 1_565
Fe24 Fe6 2.447260 1_555
Fe24 Si1 2.462853 1_455
Fe24 Si3 2.528753 1_565
Fe24 Ho0 3.261535 1_455
Fe24 Ho2 3.263354 1_565
Fe25 Fe5 2.426458 1_555
Fe25 Fe7 2.427902 1_655
Fe25 Fe9 2.429965 1_545
Fe25 Fe3 2.447260 1_555
Fe25 Si4 2.462853 1_655
Fe25 Si2 2.528753 1_545
Fe25 Ho3 3.261535 1_655
Fe25 Ho1 3.263354 1_545
Fe26 Fe9 2.423318 1_455
Fe26 Fe4 2.423318 1_555
Fe26 Si1 2.463456 1_455
Fe26 Si4 2.463456 1_555
Fe26 Ho0 3.242039 1_455
Fe26 Ho3 3.242039 1_555
Fe27 Fe8 2.434423 1_555
Fe27 Fe5 2.434423 1_454
Fe27 Si2 2.524864 1_454
Fe27 Si3 2.524864 1_555
Fe27 Ho1 3.275081 1_454
Fe27 Ho2 3.275081 1_555
Fe28 Fe7 2.434252 1_554
Fe28 Si2 2.546110 1_544
Fe28 Si3 2.546110 1_555
Fe28 Ho1 3.296003 1_544
Fe28 Ho2 3.296003 1_555
Si0 Si1 2.704786 1_545
Si0 Si4 2.704786 1_555
Si1 Si4 2.487416 1_665
Si2 Si3 2.522394 1_666
