# generated using pymatgen
data_Lu3AlNi8
_symmetry_space_group_name_H-M   'P 1'
_cell_length_a   4.99384060
_cell_length_b   4.99384060
_cell_length_c   15.84163200
_cell_angle_alpha   90.00000000
_cell_angle_beta   90.00000000
_cell_angle_gamma   120.00000800
_symmetry_Int_Tables_number   1
_chemical_formula_structural   Lu3AlNi8
_chemical_formula_sum   'Lu6 Al2 Ni16'
_cell_volume   342.13686335
_cell_formula_units_Z   2
loop_
 _symmetry_equiv_pos_site_id
 _symmetry_equiv_pos_as_xyz
  1  'x, y, z'
loop_
 _atom_site_type_symbol
 _atom_site_label
 _atom_site_symmetry_multiplicity
 _atom_site_fract_x
 _atom_site_fract_y
 _atom_site_fract_z
 _atom_site_occupancy
  Lu  Lu0  1  0.33333300  0.66666700  0.95615500  1
  Lu  Lu1  1  0.66666700  0.33333300  0.04384500  1
  Lu  Lu2  1  0.66666700  0.33333300  0.45615500  1
  Lu  Lu3  1  0.33333300  0.66666700  0.54384500  1
  Lu  Lu4  1  0.33333300  0.66666700  0.75000000  1
  Lu  Lu5  1  0.66666700  0.33333300  0.25000000  1
  Al  Al0  1  0.00000000  0.00000000  0.50000000  1
  Al  Al1  1  0.00000000  0.00000000  0.00000000  1
  Ni  Ni0  1  0.16924800  0.83075200  0.37508300  1
  Ni  Ni1  1  0.16924800  0.33849600  0.37508300  1
  Ni  Ni2  1  0.66150400  0.83075200  0.37508300  1
  Ni  Ni3  1  0.83075200  0.16924800  0.62491700  1
  Ni  Ni4  1  0.83075200  0.66150400  0.62491700  1
  Ni  Ni5  1  0.33849600  0.16924800  0.62491700  1
  Ni  Ni6  1  0.83075200  0.16924800  0.87508300  1
  Ni  Ni7  1  0.83075200  0.66150400  0.87508300  1
  Ni  Ni8  1  0.33849600  0.16924800  0.87508300  1
  Ni  Ni9  1  0.16924800  0.83075200  0.12491700  1
  Ni  Ni10  1  0.16924800  0.33849600  0.12491700  1
  Ni  Ni11  1  0.66150400  0.83075200  0.12491700  1
  Ni  Ni12  1  0.33333300  0.66666700  0.25000000  1
  Ni  Ni13  1  0.66666700  0.33333300  0.75000000  1
  Ni  Ni14  1  0.00000000  0.00000000  0.25000000  1
  Ni  Ni15  1  0.00000000  0.00000000  0.75000000  1
loop_
_geom_bond_atom_site_label_1
_geom_bond_atom_site_label_2
_geom_bond_distance
_geom_bond_site_symmetry_2
Lu0 Ni8 2.807945 1_565
Lu0 Ni7 2.807945 1_455
Lu0 Ni6 2.807947 1_565
Lu0 Ni6 2.807947 1_455
Lu0 Ni7 2.807950 1_555
Lu0 Ni8 2.807950 1_555
Lu0 Ni9 3.026836 1_556
Lu0 Ni11 3.026838 1_556
Lu0 Ni10 3.026838 1_556
Lu1 Ni10 2.807945 1_655
Lu1 Ni11 2.807945 1_545
Lu1 Ni9 2.807947 1_655
Lu1 Ni9 2.807947 1_545
Lu1 Ni11 2.807950 1_555
Lu1 Ni10 2.807950 1_555
Lu1 Ni6 3.026836 1_554
Lu1 Ni7 3.026838 1_554
Lu1 Ni8 3.026838 1_554
Lu2 Ni1 2.807945 1_655
Lu2 Ni2 2.807945 1_545
Lu2 Ni0 2.807947 1_655
Lu2 Ni0 2.807947 1_545
Lu2 Ni2 2.807950 1_555
Lu2 Ni1 2.807950 1_555
Lu2 Ni3 3.026836 1_555
Lu2 Ni4 3.026838 1_555
Lu2 Ni5 3.026838 1_555
Lu3 Ni5 2.807945 1_565
Lu3 Ni4 2.807945 1_455
Lu3 Ni3 2.807947 1_565
Lu3 Ni3 2.807947 1_455
Lu3 Ni4 2.807950 1_555
Lu3 Ni5 2.807950 1_555
Lu3 Ni0 3.026836 1_555
Lu3 Ni2 3.026838 1_555
Lu3 Ni1 3.026838 1_555
Lu4 Ni13 2.883192 1_455
Lu4 Ni13 2.883192 1_565
Lu4 Ni15 2.883192 1_565
Lu4 Ni15 2.883196 1_665
Lu4 Ni15 2.883196 1_555
Lu4 Ni13 2.883201 1_555
Lu4 Ni8 3.187713 1_565
Lu4 Ni7 3.187713 1_455
Lu4 Ni5 3.187713 1_565
Lu4 Ni4 3.187713 1_455
Lu4 Ni6 3.187715 1_565
Lu4 Ni6 3.187715 1_455
Lu4 Ni3 3.187715 1_565
Lu4 Ni3 3.187715 1_455
Lu4 Ni7 3.187717 1_555
Lu4 Ni8 3.187717 1_555
Lu4 Ni4 3.187717 1_555
Lu4 Ni5 3.187717 1_555
Lu5 Ni12 2.883192 1_545
Lu5 Ni12 2.883192 1_655
Lu5 Ni14 2.883192 1_655
Lu5 Ni14 2.883196 1_555
Lu5 Ni14 2.883196 1_665
Lu5 Ni12 2.883201 1_555
Lu5 Ni10 3.187713 1_655
Lu5 Ni1 3.187713 1_655
Lu5 Ni11 3.187713 1_545
Lu5 Ni2 3.187713 1_545
Lu5 Ni0 3.187715 1_655
Lu5 Ni9 3.187715 1_655
Lu5 Ni9 3.187715 1_545
Lu5 Ni0 3.187715 1_545
Lu5 Ni11 3.187717 1_555
Lu5 Ni2 3.187717 1_555
Lu5 Ni10 3.187717 1_555
Lu5 Ni1 3.187717 1_555
Al0 Ni5 2.461520 1_555
Al0 Ni1 2.461520 1_555
Al0 Ni4 2.461520 1_445
Al0 Ni2 2.461520 1_445
Al0 Ni3 2.461520 1_455
Al0 Ni0 2.461520 1_545
Al0 Lu3 2.965676 1_545
Al0 Lu2 2.965676 1_455
Al0 Lu2 2.965680 1_555
Al0 Lu2 2.965680 1_445
Al0 Lu3 2.965680 1_555
Al0 Lu3 2.965680 1_445
Al1 Ni10 2.461520 1_555
Al1 Ni11 2.461520 1_445
Al1 Ni8 2.461520 1_554
Al1 Ni7 2.461520 1_444
Al1 Ni9 2.461520 1_545
Al1 Ni6 2.461520 1_454
Al1 Lu1 2.965676 1_455
Al1 Lu0 2.965676 1_544
Al1 Lu1 2.965680 1_555
Al1 Lu1 2.965680 1_445
Al1 Lu0 2.965680 1_554
Al1 Lu0 2.965680 1_444
Ni0 Ni12 2.437363 1_555
Ni0 Ni1 2.458248 1_555
Ni0 Ni2 2.458248 1_555
Ni0 Ni14 2.463634 1_565
Ni0 Ni2 2.535593 1_455
Ni0 Ni1 2.535593 1_565
Ni1 Ni12 2.437365 1_555
Ni1 Ni2 2.458248 1_555
Ni1 Ni14 2.463634 1_555
Ni1 Ni2 2.535592 1_445
Ni3 Ni5 2.458248 1_555
Ni3 Ni4 2.458248 1_555
Ni3 Ni4 2.535593 1_545
Ni3 Ni5 2.535593 1_655
Ni4 Ni5 2.458248 1_555
Ni4 Ni5 2.535592 1_665
Ni6 Ni8 2.458248 1_555
Ni6 Ni7 2.458248 1_555
Ni6 Ni7 2.535593 1_545
Ni6 Ni8 2.535593 1_655
Ni7 Ni8 2.458248 1_555
Ni7 Ni8 2.535592 1_665
Ni10 Ni12 2.437365 1_555
Ni10 Ni11 2.458248 1_555
Ni10 Ni9 2.458248 1_555
Ni10 Ni14 2.463634 1_555
Ni10 Ni11 2.535592 1_445
Ni10 Ni9 2.535593 1_545
Ni11 Ni12 2.437365 1_555
Ni11 Ni9 2.458248 1_555
Ni11 Ni14 2.463634 1_665
Ni11 Ni9 2.535593 1_655
Ni12 Ni9 2.437363 1_555
Ni12 Ni2 2.437365 1_555
Ni13 Ni6 2.437363 1_555
Ni13 Ni3 2.437363 1_555
Ni13 Ni7 2.437365 1_555
Ni13 Ni8 2.437365 1_555
Ni13 Ni4 2.437365 1_555
Ni13 Ni5 2.437365 1_555
Ni14 Ni2 2.463634 1_445
Ni14 Ni9 2.463634 1_545
Ni15 Ni8 2.463634 1_555
Ni15 Ni7 2.463634 1_445
Ni15 Ni5 2.463634 1_555
Ni15 Ni4 2.463634 1_445
Ni15 Ni6 2.463634 1_455
Ni15 Ni3 2.463634 1_455
