# generated using pymatgen
data_EuGa3Cu
_symmetry_space_group_name_H-M   'P 1'
_cell_length_a   6.08945022
_cell_length_b   6.08945022
_cell_length_c   6.08945022
_cell_angle_alpha   139.64844255
_cell_angle_beta   139.64844255
_cell_angle_gamma   58.38747938
_symmetry_Int_Tables_number   1
_chemical_formula_structural   EuGa3Cu
_chemical_formula_sum   'Eu1 Ga3 Cu1'
_cell_volume   93.79641197
_cell_formula_units_Z   1
loop_
 _symmetry_equiv_pos_site_id
 _symmetry_equiv_pos_as_xyz
  1  'x, y, z'
loop_
 _atom_site_type_symbol
 _atom_site_label
 _atom_site_symmetry_multiplicity
 _atom_site_fract_x
 _atom_site_fract_y
 _atom_site_fract_z
 _atom_site_occupancy
  Eu  Eu0  1  0.00000000  0.00000000  0.00000000  1
  Ga  Ga0  1  0.61830292  0.61830292  0.00000000  1
  Ga  Ga1  1  0.38169708  0.38169708  -0.00000000  1
  Ga  Ga2  1  0.75000000  0.25000000  0.50000000  1
  Cu  Cu0  1  0.25000000  0.75000000  0.50000000  1
loop_
_geom_bond_atom_site_label_1
_geom_bond_atom_site_label_2
_geom_bond_distance
_geom_bond_site_symmetry_2
Eu0 Ga0 3.225554 1_444
Eu0 Ga1 3.225554 1_455
Eu0 Ga1 3.225554 1_556
Eu0 Ga0 3.225554 1_455
Eu0 Ga1 3.225554 1_444
Eu0 Ga0 3.225554 1_545
Eu0 Ga1 3.225554 1_545
Eu0 Ga0 3.225554 1_556
Eu0 Ga2 3.387609 1_455
Eu0 Ga2 3.387609 1_555
Eu0 Ga2 3.387609 1_454
Eu0 Ga2 3.387609 1_444
Ga0 Ga1 2.515565 1_555
Ga0 Ga2 2.524206 1_565
Ga0 Ga2 2.524206 1_554
Ga1 Ga2 2.524206 1_555
Ga1 Ga2 2.524206 1_454
Cu0 Ga1 2.524206 1_566
Cu0 Ga0 2.524206 1_455
Cu0 Ga1 2.524206 1_555
Cu0 Ga0 2.524206 1_556
Cu0 Ga2 2.970216 1_465
Cu0 Ga2 2.970216 1_555
Cu0 Ga2 2.970216 1_566
Cu0 Ga2 2.970216 1_454
Cu0 Eu0 3.387609 1_555
Cu0 Eu0 3.387609 1_566
Cu0 Eu0 3.387609 1_666
Cu0 Eu0 3.387609 1_565
