# generated using pymatgen
data_Li4Mn3CoO8
_symmetry_space_group_name_H-M   'P 1'
_cell_length_a   5.05762531
_cell_length_b   6.14781961
_cell_length_c   5.36693588
_cell_angle_alpha   69.15955873
_cell_angle_beta   76.82089783
_cell_angle_gamma   86.34170927
_symmetry_Int_Tables_number   1
_chemical_formula_structural   Li4Mn3CoO8
_chemical_formula_sum   'Li4 Mn3 Co1 O8'
_cell_volume   151.82313216
_cell_formula_units_Z   1
loop_
 _symmetry_equiv_pos_site_id
 _symmetry_equiv_pos_as_xyz
  1  'x, y, z'
loop_
 _atom_site_type_symbol
 _atom_site_label
 _atom_site_symmetry_multiplicity
 _atom_site_fract_x
 _atom_site_fract_y
 _atom_site_fract_z
 _atom_site_occupancy
  Li  Li0  1  0.24584300  0.87449200  0.49773500  1
  Li  Li1  1  0.75406600  0.12552200  0.50227800  1
  Li  Li2  1  0.24777100  0.38214600  0.50667100  1
  Li  Li3  1  0.75219300  0.61788100  0.49330900  1
  Mn  Mn0  1  0.99986000  0.50012100  0.00006100  1
  Mn  Mn1  1  0.50254900  0.25108800  0.99481800  1
  Mn  Mn2  1  0.49761100  0.74892000  0.00514600  1
  Co  Co0  1  0.99996000  0.99995700  0.99993800  1
  O  O0  1  0.14082800  0.69421200  0.24021300  1
  O  O1  1  0.85914000  0.30580900  0.75977200  1
  O  O2  1  0.63956200  0.95656500  0.22664900  1
  O  O3  1  0.36034700  0.04348700  0.77336100  1
  O  O4  1  0.13164100  0.19542200  0.21953100  1
  O  O5  1  0.86846600  0.80441000  0.78061600  1
  O  O6  1  0.63480000  0.45325900  0.23118400  1
  O  O7  1  0.36536400  0.54671000  0.76871900  1
loop_
_geom_bond_atom_site_label_1
_geom_bond_atom_site_label_2
_geom_bond_distance
_geom_bond_site_symmetry_2
Li0 O5 2.109891 1_455
Li0 O4 2.146503 1_565
Li0 O2 2.149734 1_555
Li0 O7 2.168290 1_555
Li0 O0 2.218219 1_555
Li0 O3 2.272441 1_565
Li1 O4 2.110322 1_655
Li1 O5 2.147914 1_545
Li1 O3 2.149715 1_555
Li1 O6 2.167863 1_555
Li1 O1 2.218246 1_555
Li1 O2 2.272290 1_545
Li2 O0 2.070382 1_555
Li2 O1 2.091760 1_455
Li2 O6 2.130338 1_555
Li2 O3 2.192616 1_555
Li2 O7 2.196777 1_555
Li2 O4 2.407309 1_555
Li3 O1 2.070425 1_555
Li3 O0 2.091765 1_655
Li3 O7 2.129391 1_555
Li3 O2 2.192760 1_555
Li3 O6 2.196936 1_555
Li3 O5 2.407526 1_555
Mn0 O6 1.949329 1_555
Mn0 O7 1.951615 1_654
Mn0 O5 1.989686 1_554
Mn0 O4 1.992317 1_655
Mn0 O0 2.283686 1_655
Mn0 O1 2.284706 1_554
Mn1 O1 1.922283 1_555
Mn1 O4 1.961448 1_556
Mn1 O7 1.977558 1_555
Mn1 O2 1.984152 1_546
Mn1 O3 2.268279 1_555
Mn1 O6 2.283934 1_556
Mn2 O0 1.923103 1_555
Mn2 O5 1.960879 1_554
Mn2 O6 1.977609 1_555
Mn2 O3 1.984790 1_564
Mn2 O2 2.268085 1_555
Mn2 O7 2.284374 1_554
Co0 O3 1.921611 1_665
Co0 O2 1.921942 1_556
Co0 O0 2.055968 1_656
Co0 O1 2.056081 1_565
Co0 O5 2.176911 1_555
Co0 O4 2.178138 1_666
