# generated using pymatgen
data_Sr(AsPt)2
_symmetry_space_group_name_H-M   'P 1'
_cell_length_a   4.54322100
_cell_length_b   4.54322100
_cell_length_c   9.99443500
_cell_angle_alpha   90.00000000
_cell_angle_beta   90.00000000
_cell_angle_gamma   90.00000000
_symmetry_Int_Tables_number   1
_chemical_formula_structural   Sr(AsPt)2
_chemical_formula_sum   'Sr2 As4 Pt4'
_cell_volume   206.29370418
_cell_formula_units_Z   2
loop_
 _symmetry_equiv_pos_site_id
 _symmetry_equiv_pos_as_xyz
  1  'x, y, z'
loop_
 _atom_site_type_symbol
 _atom_site_label
 _atom_site_symmetry_multiplicity
 _atom_site_fract_x
 _atom_site_fract_y
 _atom_site_fract_z
 _atom_site_occupancy
  Sr  Sr0  1  0.00000000  0.50000000  0.25187900  1
  Sr  Sr1  1  0.50000000  0.00000000  0.74812100  1
  As  As0  1  0.00000000  0.50000000  0.87153500  1
  As  As1  1  0.50000000  0.00000000  0.12846500  1
  As  As2  1  0.50000000  0.50000000  0.50000000  1
  As  As3  1  0.00000000  0.00000000  0.50000000  1
  Pt  Pt0  1  0.50000000  0.50000000  0.00000000  1
  Pt  Pt1  1  0.00000000  0.00000000  0.00000000  1
  Pt  Pt2  1  0.00000000  0.50000000  0.61841100  1
  Pt  Pt3  1  0.50000000  0.00000000  0.38158900  1
loop_
_geom_bond_atom_site_label_1
_geom_bond_atom_site_label_2
_geom_bond_distance
_geom_bond_site_symmetry_2
As0 Pt2 2.529831 1_555
As0 Pt1 2.609349 1_566
As0 Pt1 2.609349 1_556
As0 Pt0 2.609349 1_456
As0 Pt0 2.609349 1_556
As0 Sr1 3.441197 1_555
As0 Sr1 3.441197 1_565
As0 Sr1 3.441197 1_465
As0 Sr1 3.441197 1_455
As1 Pt3 2.529831 1_555
As1 Pt0 2.609349 1_545
As1 Pt1 2.609349 1_655
As1 Pt1 2.609349 1_555
As1 Pt0 2.609349 1_555
As1 Sr0 3.441197 1_645
As1 Sr0 3.441197 1_555
As1 Sr0 3.441197 1_655
As1 Sr0 3.441197 1_545
As2 Pt2 2.561400 1_555
As2 Pt2 2.561400 1_655
As2 Pt3 2.561400 1_555
As2 Pt3 2.561400 1_565
As2 Sr1 3.363000 1_555
As2 Sr1 3.363000 1_565
As2 Sr0 3.363000 1_655
As2 Sr0 3.363000 1_555
As3 Pt2 2.561400 1_545
As3 Pt2 2.561400 1_555
As3 Pt3 2.561400 1_455
As3 Pt3 2.561400 1_555
As3 Sr1 3.363000 1_455
As3 Sr1 3.363000 1_555
As3 Sr0 3.363000 1_545
As3 Sr0 3.363000 1_555
Pt0 Sr0 3.390790 1_655
Pt0 Sr0 3.390790 1_555
Pt0 Sr1 3.390790 1_564
Pt0 Sr1 3.390790 1_554
Pt1 Sr0 3.390790 1_545
Pt1 Sr0 3.390790 1_555
Pt1 Sr1 3.390790 1_454
Pt1 Sr1 3.390790 1_554
Pt2 Sr1 3.464250 1_455
Pt2 Sr1 3.464250 1_565
Pt2 Sr1 3.464250 1_555
Pt2 Sr1 3.464250 1_465
Pt3 Sr0 3.464250 1_655
Pt3 Sr0 3.464250 1_545
Pt3 Sr0 3.464250 1_555
Pt3 Sr0 3.464250 1_645
