# generated using pymatgen
data_Nd7V2BO17
_symmetry_space_group_name_H-M   'P 1'
_cell_length_a   18.12551800
_cell_length_b   6.99028700
_cell_length_c   13.67737083
_cell_angle_alpha   66.55288127
_cell_angle_beta   90.00000000
_cell_angle_gamma   90.00000000
_symmetry_Int_Tables_number   1
_chemical_formula_structural   Nd7V2BO17
_chemical_formula_sum   'Nd28 V8 B4 O68'
_cell_volume   1589.86375734
_cell_formula_units_Z   4
loop_
 _symmetry_equiv_pos_site_id
 _symmetry_equiv_pos_as_xyz
  1  'x, y, z'
loop_
 _atom_site_type_symbol
 _atom_site_label
 _atom_site_symmetry_multiplicity
 _atom_site_fract_x
 _atom_site_fract_y
 _atom_site_fract_z
 _atom_site_occupancy
  Nd  Nd0  1  0.72218700  0.79717000  0.17924500  1
  Nd  Nd1  1  0.27781300  0.20283000  0.82075500  1
  Nd  Nd2  1  0.22218700  0.20283000  0.32075500  1
  Nd  Nd3  1  0.77781300  0.79717000  0.67924500  1
  Nd  Nd4  1  0.86691800  0.77751000  0.43710600  1
  Nd  Nd5  1  0.13308200  0.22249000  0.56289400  1
  Nd  Nd6  1  0.36691800  0.22249000  0.06289400  1
  Nd  Nd7  1  0.63308200  0.77751000  0.93710600  1
  Nd  Nd8  1  0.60683700  0.30981700  0.19762000  1
  Nd  Nd9  1  0.39316300  0.69018300  0.80238000  1
  Nd  Nd10  1  0.10683700  0.69018300  0.30238000  1
  Nd  Nd11  1  0.89316300  0.30981700  0.69762000  1
  Nd  Nd12  1  0.27373000  0.71381800  0.09708700  1
  Nd  Nd13  1  0.72627000  0.28618200  0.90291300  1
  Nd  Nd14  1  0.77373000  0.28618200  0.40291300  1
  Nd  Nd15  1  0.22627000  0.71381800  0.59708700  1
  Nd  Nd16  1  0.44758200  0.70841700  0.51487200  1
  Nd  Nd17  1  0.55241800  0.29158300  0.48512800  1
  Nd  Nd18  1  0.94758200  0.29158300  0.98512800  1
  Nd  Nd19  1  0.05241800  0.70841700  0.01487200  1
  Nd  Nd20  1  0.52065700  0.80162500  0.20897900  1
  Nd  Nd21  1  0.47934300  0.19837500  0.79102100  1
  Nd  Nd22  1  0.02065700  0.19837500  0.29102100  1
  Nd  Nd23  1  0.97934300  0.80162500  0.70897900  1
  Nd  Nd24  1  0.65424400  0.81776000  0.42405000  1
  Nd  Nd25  1  0.34575600  0.18224000  0.57595000  1
  Nd  Nd26  1  0.15424400  0.18224000  0.07595000  1
  Nd  Nd27  1  0.84575600  0.81776000  0.92405000  1
  V  V0  1  0.80251800  0.28942900  0.16321100  1
  V  V1  1  0.19748200  0.71057100  0.83678900  1
  V  V2  1  0.30251800  0.71057100  0.33678900  1
  V  V3  1  0.69748200  0.28942900  0.66321100  1
  V  V4  1  0.93623000  0.77778800  0.18327100  1
  V  V5  1  0.06377000  0.22221200  0.81672900  1
  V  V6  1  0.43623000  0.22221200  0.31672900  1
  V  V7  1  0.56377000  0.77778800  0.68327100  1
  B  B0  1  0.43093800  0.74776900  0.00045200  1
  B  B1  1  0.56906200  0.25223100  0.99954800  1
  B  B2  1  0.93093800  0.25223100  0.49954800  1
  B  B3  1  0.06906200  0.74776900  0.50045200  1
  O  O0  1  0.87373100  0.44101600  0.08791000  1
  O  O1  1  0.12626900  0.55898400  0.91209000  1
  O  O2  1  0.37373100  0.55898400  0.41209000  1
  O  O3  1  0.62626900  0.44101600  0.58791000  1
  O  O4  1  0.37787900  0.59863100  0.99987800  1
  O  O5  1  0.62212100  0.40136900  0.00012200  1
  O  O6  1  0.87787900  0.40136900  0.50012200  1
  O  O7  1  0.12212100  0.59863100  0.49987800  1
  O  O8  1  0.76621900  0.89978200  0.49259500  1
  O  O9  1  0.23378100  0.10021800  0.50740500  1
  O  O10  1  0.26621900  0.10021800  0.00740500  1
  O  O11  1  0.73378100  0.89978200  0.99259500  1
  O  O12  1  0.63201000  0.95447100  0.23984800  1
  O  O13  1  0.36799000  0.04552900  0.76015200  1
  O  O14  1  0.13201000  0.04552900  0.26015200  1
  O  O15  1  0.86799000  0.95447100  0.73984800  1
  O  O16  1  0.93637000  0.87001200  0.04346200  1
  O  O17  1  0.06363000  0.12998800  0.95653800  1
  O  O18  1  0.43637000  0.12998800  0.45653800  1
  O  O19  1  0.56363000  0.87001200  0.54346200  1
  O  O20  1  0.85316500  0.70486800  0.24455400  1
  O  O21  1  0.14683500  0.29513200  0.75544600  1
  O  O22  1  0.35316500  0.29513200  0.25544600  1
  O  O23  1  0.64683500  0.70486800  0.74455400  1
  O  O24  1  0.14485300  0.79685700  0.12034500  1
  O  O25  1  0.85514700  0.20314300  0.87965500  1
  O  O26  1  0.64485300  0.20314300  0.37965500  1
  O  O27  1  0.35514700  0.79685700  0.62034500  1
  O  O28  1  0.73737800  0.43403400  0.20116400  1
  O  O29  1  0.26262200  0.56596600  0.79883600  1
  O  O30  1  0.23737800  0.56596600  0.29883600  1
  O  O31  1  0.76262200  0.43403400  0.70116400  1
  O  O32  1  0.54214600  0.63869300  0.40047700  1
  O  O33  1  0.45785400  0.36130700  0.59952300  1
  O  O34  1  0.04214600  0.36130700  0.09952300  1
  O  O35  1  0.95785400  0.63869300  0.90047700  1
  O  O36  1  0.00390900  0.58101500  0.22740900  1
  O  O37  1  0.99609100  0.41898500  0.77259100  1
  O  O38  1  0.50390900  0.41898500  0.27259100  1
  O  O39  1  0.49609100  0.58101500  0.72740900  1
  O  O40  1  0.33027700  0.89363700  0.21604000  1
  O  O41  1  0.66972300  0.10636300  0.78396000  1
  O  O42  1  0.83027700  0.10636300  0.28396000  1
  O  O43  1  0.16972300  0.89363700  0.71604000  1
  O  O44  1  0.61021500  0.68365900  0.12235500  1
  O  O45  1  0.38978500  0.31634100  0.87764500  1
  O  O46  1  0.11021500  0.31634100  0.37764500  1
  O  O47  1  0.88978500  0.68365900  0.62235500  1
  O  O48  1  0.96967700  0.98697400  0.20401100  1
  O  O49  1  0.03032300  0.01302600  0.79598900  1
  O  O50  1  0.46967700  0.01302600  0.29598900  1
  O  O51  1  0.53032300  0.98697400  0.70401100  1
  O  O52  1  0.42089400  0.83425400  0.07427200  1
  O  O53  1  0.57910600  0.16574600  0.92572800  1
  O  O54  1  0.92089400  0.16574600  0.42572800  1
  O  O55  1  0.07910600  0.83425400  0.57427200  1
  O  O56  1  0.51551900  0.19485300  0.07938800  1
  O  O57  1  0.48448100  0.80514700  0.92061200  1
  O  O58  1  0.01551900  0.80514700  0.42061200  1
  O  O59  1  0.98448100  0.19485300  0.57938800  1
  O  O60  1  0.73976300  0.62574800  0.37628000  1
  O  O61  1  0.26023700  0.37425200  0.62372000  1
  O  O62  1  0.23976300  0.37425200  0.12372000  1
  O  O63  1  0.76023700  0.62574800  0.87628000  1
  O  O64  1  0.26076100  0.83692700  0.40850200  1
  O  O65  1  0.73923900  0.16307300  0.59149800  1
  O  O66  1  0.76076100  0.16307300  0.09149800  1
  O  O67  1  0.23923900  0.83692700  0.90850200  1
loop_
_geom_bond_atom_site_label_1
_geom_bond_atom_site_label_2
_geom_bond_distance
_geom_bond_site_symmetry_2
Nd0 O12 2.300665 1_555
Nd0 O11 2.370365 1_554
Nd0 O44 2.417739 1_555
Nd0 O28 2.450241 1_555
Nd0 O66 2.455298 1_565
Nd0 O60 2.496016 1_555
Nd0 O20 2.528169 1_555
Nd1 O13 2.300665 1_555
Nd1 O10 2.370365 1_556
Nd1 O45 2.417739 1_555
Nd1 O29 2.450241 1_555
Nd1 O67 2.455298 1_545
Nd1 O61 2.496016 1_555
Nd1 O21 2.528169 1_555
Nd2 O14 2.300665 1_555
Nd2 O9 2.370365 1_555
Nd2 O46 2.417739 1_555
Nd2 O30 2.450241 1_555
Nd2 O64 2.455298 1_545
Nd2 O62 2.496016 1_555
Nd2 O22 2.528169 1_555
Nd3 O15 2.300665 1_555
Nd3 O8 2.370365 1_555
Nd3 O47 2.417739 1_555
Nd3 O31 2.450241 1_555
Nd3 O65 2.455298 1_565
Nd3 O63 2.496016 1_555
Nd3 O23 2.528169 1_555
Nd4 O8 2.270285 1_555
Nd4 O47 2.387280 1_555
Nd4 O6 2.427400 1_555
Nd4 O42 2.506206 1_565
Nd4 O58 2.703389 1_655
Nd4 O60 2.798531 1_555
Nd4 O54 2.830269 1_565
Nd4 O20 2.884460 1_555
Nd5 O9 2.270285 1_555
Nd5 O46 2.387280 1_555
Nd5 O7 2.427400 1_555
Nd5 O43 2.506206 1_545
Nd5 O59 2.703389 1_455
Nd5 O61 2.798531 1_555
Nd5 O55 2.830269 1_545
Nd5 O21 2.884460 1_555
Nd6 O10 2.270285 1_555
Nd6 O45 2.387280 1_554
Nd6 O4 2.427400 1_554
Nd6 O40 2.506206 1_545
Nd6 O56 2.703389 1_555
Nd6 O62 2.798531 1_555
Nd6 O52 2.830269 1_545
Nd6 O22 2.884460 1_555
Nd7 O11 2.270285 1_555
Nd7 O44 2.387280 1_556
Nd7 O5 2.427400 1_556
Nd7 O41 2.506206 1_565
Nd7 O57 2.703389 1_555
Nd7 O63 2.798531 1_555
Nd7 O53 2.830269 1_565
Nd7 O23 2.884460 1_555
Nd8 O12 2.360121 1_545
Nd8 O38 2.395219 1_555
Nd8 O44 2.398284 1_555
Nd8 O26 2.398392 1_555
Nd8 O28 2.527519 1_555
Nd8 O5 2.531274 1_555
Nd8 O56 2.652297 1_555
Nd9 O13 2.360121 1_565
Nd9 O39 2.395219 1_555
Nd9 O45 2.398284 1_555
Nd9 O27 2.398392 1_555
Nd9 O29 2.527519 1_555
Nd9 O4 2.531274 1_555
Nd9 O57 2.652297 1_555
Nd10 O14 2.360121 1_565
Nd10 O36 2.395219 1_555
Nd10 O46 2.398284 1_555
Nd10 O24 2.398392 1_555
Nd10 O30 2.527519 1_555
Nd10 O7 2.531274 1_555
Nd10 O58 2.652297 1_555
Nd11 O15 2.360121 1_545
Nd11 O37 2.395219 1_555
Nd11 O47 2.398284 1_555
Nd11 O25 2.398392 1_555
Nd11 O31 2.527519 1_555
Nd11 O6 2.531274 1_555
Nd11 O59 2.652297 1_555
Nd12 O62 2.336220 1_555
Nd12 O67 2.453159 1_554
Nd12 O24 2.458007 1_555
Nd12 O10 2.486394 1_565
Nd12 O4 2.613740 1_554
Nd12 O30 2.616682 1_555
Nd12 O40 2.627740 1_555
Nd12 O52 2.777089 1_555
Nd13 O63 2.336220 1_555
Nd13 O66 2.453159 1_556
Nd13 O25 2.458007 1_555
Nd13 O11 2.486394 1_545
Nd13 O5 2.613740 1_556
Nd13 O31 2.616682 1_555
Nd13 O41 2.627740 1_555
Nd13 O53 2.777089 1_555
Nd14 O60 2.336220 1_555
Nd14 O65 2.453159 1_555
Nd14 O26 2.458007 1_555
Nd14 O8 2.486394 1_545
Nd14 O6 2.613740 1_555
Nd14 O28 2.616682 1_555
Nd14 O42 2.627740 1_555
Nd14 O54 2.777089 1_555
Nd15 O61 2.336220 1_555
Nd15 O64 2.453159 1_555
Nd15 O27 2.458007 1_555
Nd15 O9 2.486394 1_565
Nd15 O7 2.613740 1_555
Nd15 O29 2.616682 1_555
Nd15 O43 2.627740 1_555
Nd15 O55 2.777089 1_555
Nd16 O33 2.242083 1_555
Nd16 O27 2.445420 1_555
Nd16 O2 2.455159 1_555
Nd16 O19 2.490950 1_555
Nd16 O32 2.496063 1_555
Nd16 O18 2.736971 1_565
Nd16 O39 2.820696 1_555
Nd16 O50 2.929828 1_565
Nd17 O32 2.242083 1_555
Nd17 O26 2.445420 1_555
Nd17 O3 2.455159 1_555
Nd17 O18 2.490950 1_555
Nd17 O33 2.496063 1_555
Nd17 O19 2.736971 1_545
Nd17 O38 2.820696 1_555
Nd17 O51 2.929828 1_545
Nd18 O35 2.242083 1_555
Nd18 O25 2.445420 1_555
Nd18 O0 2.455159 1_556
Nd18 O17 2.490950 1_655
Nd18 O34 2.496063 1_656
Nd18 O16 2.736971 1_546
Nd18 O37 2.820696 1_555
Nd18 O48 2.929828 1_546
Nd19 O34 2.242083 1_555
Nd19 O24 2.445420 1_555
Nd19 O1 2.455159 1_554
Nd19 O16 2.490950 1_455
Nd19 O35 2.496063 1_454
Nd19 O17 2.736971 1_564
Nd19 O36 2.820696 1_555
Nd19 O49 2.929828 1_564
Nd20 O44 2.344412 1_555
Nd20 O12 2.398430 1_555
Nd20 O50 2.419378 1_565
Nd20 O32 2.436202 1_555
Nd20 O38 2.480226 1_555
Nd20 O52 2.526255 1_555
Nd20 O56 2.613202 1_565
Nd21 O45 2.344412 1_555
Nd21 O13 2.398430 1_555
Nd21 O51 2.419378 1_545
Nd21 O33 2.436202 1_555
Nd21 O39 2.480226 1_555
Nd21 O53 2.526255 1_555
Nd21 O57 2.613202 1_545
Nd22 O46 2.344412 1_555
Nd22 O14 2.398430 1_555
Nd22 O48 2.419378 1_445
Nd22 O34 2.436202 1_555
Nd22 O36 2.480226 1_555
Nd22 O54 2.526255 1_455
Nd22 O58 2.613202 1_545
Nd23 O47 2.344412 1_555
Nd23 O15 2.398430 1_555
Nd23 O49 2.419378 1_665
Nd23 O35 2.436202 1_555
Nd23 O37 2.480226 1_555
Nd23 O55 2.526255 1_655
Nd23 O59 2.613202 1_565
Nd24 O60 2.308478 1_555
Nd24 O12 2.346704 1_555
Nd24 O8 2.398904 1_555
Nd24 O19 2.444012 1_555
Nd24 O32 2.473924 1_555
Nd24 O26 2.520558 1_565
Nd24 O3 2.741992 1_555
Nd25 O61 2.308478 1_555
Nd25 O13 2.346704 1_555
Nd25 O9 2.398904 1_555
Nd25 O18 2.444012 1_555
Nd25 O33 2.473924 1_555
Nd25 O27 2.520558 1_545
Nd25 O2 2.741992 1_555
Nd26 O62 2.308478 1_555
Nd26 O14 2.346704 1_555
Nd26 O10 2.398904 1_555
Nd26 O17 2.444012 1_554
Nd26 O34 2.473924 1_555
Nd26 O24 2.520558 1_545
Nd26 O1 2.741992 1_554
Nd27 O63 2.308478 1_555
Nd27 O15 2.346704 1_555
Nd27 O11 2.398904 1_555
Nd27 O16 2.444012 1_556
Nd27 O35 2.473924 1_555
Nd27 O25 2.520558 1_565
Nd27 O0 2.741992 1_556
B0 O52 1.379785 1_555
B0 O57 1.395222 1_554
B0 O4 1.420678 1_554
B1 O53 1.379785 1_555
B1 O56 1.395222 1_556
B1 O5 1.420678 1_556
B2 O54 1.379785 1_555
B2 O59 1.395222 1_555
B2 O6 1.420678 1_555
B3 O55 1.379785 1_555
B3 O58 1.395222 1_555
B3 O7 1.420678 1_555
O0 V0 1.726605 1_555
O1 V1 1.726605 1_555
O2 V2 1.726605 1_555
O3 V3 1.726605 1_555
O16 V4 1.758169 1_555
O17 V5 1.758169 1_555
O18 V6 1.758169 1_555
O19 V7 1.758169 1_555
O20 V4 1.699765 1_555
O21 V5 1.699765 1_555
O22 V6 1.699765 1_555
O23 V7 1.699765 1_555
O28 V0 1.761493 1_555
O29 V1 1.761493 1_555
O30 V2 1.761493 1_555
O31 V3 1.761493 1_555
O36 V4 1.760812 1_455
O37 V5 1.760812 1_655
O38 V6 1.760812 1_555
O39 V7 1.760812 1_555
O40 V2 1.713596 1_555
O41 V3 1.713596 1_555
O42 V0 1.713596 1_555
O43 V1 1.713596 1_555
O48 V4 1.707728 1_555
O49 V5 1.707728 1_555
O50 V6 1.707728 1_555
O51 V7 1.707728 1_555
O64 V2 1.733351 1_555
O65 V3 1.733351 1_555
O66 V0 1.733351 1_555
O67 V1 1.733351 1_555
