# generated using pymatgen
data_Ba2(CaAl3)3
_symmetry_space_group_name_H-M   'P 1'
_cell_length_a   12.38035223
_cell_length_b   12.38035223
_cell_length_c   12.38035293
_cell_angle_alpha   27.14474035
_cell_angle_beta   27.14474035
_cell_angle_gamma   27.14473987
_symmetry_Int_Tables_number   1
_chemical_formula_structural   Ba2(CaAl3)3
_chemical_formula_sum   'Ba2 Ca3 Al9'
_cell_volume   348.46301284
_cell_formula_units_Z   1
loop_
 _symmetry_equiv_pos_site_id
 _symmetry_equiv_pos_as_xyz
  1  'x, y, z'
loop_
 _atom_site_type_symbol
 _atom_site_label
 _atom_site_symmetry_multiplicity
 _atom_site_fract_x
 _atom_site_fract_y
 _atom_site_fract_z
 _atom_site_occupancy
  Ba  Ba0  1  0.49815400  0.49815400  0.49815400  1
  Ba  Ba1  1  0.21688900  0.21688900  0.21688900  1
  Ca  Ca0  1  0.68303400  0.68303400  0.68303400  1
  Ca  Ca1  1  0.31755100  0.31755100  0.31755100  1
  Ca  Ca2  1  0.77983100  0.77983100  0.77983100  1
  Al  Al0  1  0.87856400  0.87856400  0.87856400  1
  Al  Al1  1  0.12144300  0.12144300  0.12144300  1
  Al  Al2  1  0.23611000  0.71920300  0.23611000  1
  Al  Al3  1  0.23611000  0.23611000  0.71920300  1
  Al  Al4  1  0.71920300  0.23611000  0.23611000  1
  Al  Al5  1  0.76583400  0.28082700  0.76583400  1
  Al  Al6  1  0.76583400  0.76583400  0.28082700  1
  Al  Al7  1  0.28082700  0.76583400  0.76583400  1
  Al  Al8  1  0.00061400  0.00061400  0.00061400  1
loop_
_geom_bond_atom_site_label_1
_geom_bond_atom_site_label_2
_geom_bond_distance
_geom_bond_site_symmetry_2
Ba0 Ca2 3.829528 1_545
Ba0 Ca2 3.829528 1_455
Ba0 Ca2 3.829529 1_554
Ba0 Ba1 3.836653 1_565
Ba0 Ba1 3.836653 1_655
Ba0 Ba1 3.836654 1_556
Ba1 Ca1 3.598812 1_555
Ca0 Ca2 3.460633 1_555
Ca0 Ca1 3.546234 1_556
Ca0 Ca1 3.546234 1_565
Ca0 Ca1 3.546234 1_655
Al0 Al7 2.724763 1_655
Al0 Al5 2.724763 1_565
Al0 Al6 2.724763 1_556
Al0 Ba1 3.359540 1_566
Al0 Ba1 3.359540 1_656
Al0 Ba1 3.359540 1_665
Al0 Ca2 3.529848 1_555
Al0 Ba0 3.753312 1_556
Al0 Ba0 3.753312 1_655
Al0 Ba0 3.753312 1_565
Al1 Al2 2.693143 1_545
Al1 Al4 2.693143 1_455
Al1 Al3 2.693143 1_554
Al1 Ca2 3.367827 1_454
Al1 Ca2 3.367827 1_544
Al1 Ca2 3.367827 1_445
Al1 Ba1 3.412333 1_555
Al1 Ba0 3.695901 1_554
Al1 Ba0 3.695901 1_455
Al1 Ba0 3.695901 1_545
Al2 Al4 2.807098 1_555
Al2 Al3 2.807098 1_555
Al2 Al8 2.848060 1_565
Al2 Al4 3.003580 1_465
Al2 Al3 3.003580 1_564
Al2 Ca1 3.274634 1_555
Al2 Ca0 3.364645 1_455
Al2 Ca0 3.364645 1_554
Al2 Ca2 3.399695 1_554
Al2 Ca2 3.399696 1_455
Al3 Al4 2.807098 1_555
Al3 Al8 2.848060 1_556
Al3 Al4 3.003580 1_456
Al3 Ca1 3.274635 1_555
Al3 Ca0 3.364645 1_545
Al3 Ca0 3.364645 1_455
Al3 Ca2 3.399695 1_545
Al3 Ca2 3.399695 1_455
Al4 Al8 2.848060 1_655
Al4 Ca1 3.274634 1_555
Al4 Ca0 3.364645 1_545
Al4 Ca0 3.364645 1_554
Al4 Ca2 3.399695 1_554
Al4 Ca2 3.399696 1_545
Al5 Al7 2.818220 1_555
Al5 Al6 2.818220 1_555
Al5 Al8 2.841940 1_656
Al5 Al7 2.992458 1_645
Al5 Al6 2.992459 1_546
Al5 Ca0 3.255465 1_555
Al5 Ca1 3.351622 1_655
Al5 Ca1 3.351623 1_556
Al5 Ba1 3.487513 1_556
Al5 Ba1 3.487513 1_655
Al6 Al7 2.818220 1_555
Al6 Al8 2.841940 1_665
Al6 Al7 2.992459 1_654
Al6 Ca0 3.255466 1_555
Al6 Ca1 3.351622 1_655
Al6 Ca1 3.351622 1_565
Al6 Ba1 3.487513 1_655
Al6 Ba1 3.487513 1_565
Al7 Al8 2.841940 1_566
Al7 Ca0 3.255465 1_555
Al7 Ca1 3.351622 1_565
Al7 Ca1 3.351623 1_556
Al7 Ba1 3.487513 1_556
Al7 Ba1 3.487513 1_565
Al8 Ca0 3.401744 1_454
Al8 Ca0 3.401744 1_544
Al8 Ca0 3.401744 1_445
Al8 Ca1 3.405625 1_455
Al8 Ca1 3.405625 1_545
Al8 Ca1 3.405625 1_554
