# generated using pymatgen
data_Zn3Ni3(AsO4)4
_symmetry_space_group_name_H-M   'P 1'
_cell_length_a   5.18426100
_cell_length_b   8.56137500
_cell_length_c   15.82139662
_cell_angle_alpha   69.71033829
_cell_angle_beta   90.00000000
_cell_angle_gamma   90.00000000
_symmetry_Int_Tables_number   1
_chemical_formula_structural   Zn3Ni3(AsO4)4
_chemical_formula_sum   'Zn6 Ni6 As8 O32'
_cell_volume   658.65135121
_cell_formula_units_Z   2
loop_
 _symmetry_equiv_pos_site_id
 _symmetry_equiv_pos_as_xyz
  1  'x, y, z'
loop_
 _atom_site_type_symbol
 _atom_site_label
 _atom_site_symmetry_multiplicity
 _atom_site_fract_x
 _atom_site_fract_y
 _atom_site_fract_z
 _atom_site_occupancy
  Zn  Zn0  1  0.55436200  0.29545000  0.21905000  1
  Zn  Zn1  1  0.05436200  0.70455000  0.28095000  1
  Zn  Zn2  1  0.44563800  0.70455000  0.78095000  1
  Zn  Zn3  1  0.94563800  0.29545000  0.71905000  1
  Zn  Zn4  1  0.50000000  0.00000000  0.50000000  1
  Zn  Zn5  1  0.00000000  0.00000000  0.00000000  1
  Ni  Ni0  1  0.48722700  0.21211300  0.62300600  1
  Ni  Ni1  1  0.51277300  0.78788700  0.37699400  1
  Ni  Ni2  1  0.98722700  0.78788700  0.87699400  1
  Ni  Ni3  1  0.01277300  0.21211300  0.12300600  1
  Ni  Ni4  1  0.00000000  0.50000000  0.50000000  1
  Ni  Ni5  1  0.50000000  0.50000000  0.00000000  1
  As  As0  1  0.99225200  0.03882500  0.35138500  1
  As  As1  1  0.48463700  0.41776300  0.39680600  1
  As  As2  1  0.98463700  0.58223700  0.10319400  1
  As  As3  1  0.01536300  0.41776300  0.89680600  1
  As  As4  1  0.00774800  0.96117500  0.64861500  1
  As  As5  1  0.51536300  0.58223700  0.60319400  1
  As  As6  1  0.50774800  0.03882500  0.85138500  1
  As  As7  1  0.49225200  0.96117500  0.14861500  1
  O  O0  1  0.41691600  0.80581500  0.25110300  1
  O  O1  1  0.91661000  0.75052600  0.00864400  1
  O  O2  1  0.39963200  0.39331600  0.29934300  1
  O  O3  1  0.38201300  0.14762300  0.15800900  1
  O  O4  1  0.60036800  0.60668400  0.70065700  1
  O  O5  1  0.08308400  0.80581500  0.75110300  1
  O  O6  1  0.89963200  0.60668400  0.20065700  1
  O  O7  1  0.72273500  0.51281700  0.89684000  1
  O  O8  1  0.67629100  0.09498000  0.92753700  1
  O  O9  1  0.58308400  0.19418500  0.74889700  1
  O  O10  1  0.11798700  0.14762300  0.65800900  1
  O  O11  1  0.27726500  0.48718300  0.10316000  1
  O  O12  1  0.27114700  0.57671100  0.40456500  1
  O  O13  1  0.32370900  0.90502000  0.07246300  1
  O  O14  1  0.68010800  0.99138400  0.62931100  1
  O  O15  1  0.18010800  0.00861600  0.87068900  1
  O  O16  1  0.77114700  0.42328900  0.09543500  1
  O  O17  1  0.10036800  0.39331600  0.79934300  1
  O  O18  1  0.17629100  0.90502000  0.57246300  1
  O  O19  1  0.22273500  0.48718300  0.60316000  1
  O  O20  1  0.81989200  0.99138400  0.12931100  1
  O  O21  1  0.31989200  0.00861600  0.37068900  1
  O  O22  1  0.08339000  0.24947400  0.99135600  1
  O  O23  1  0.41661000  0.24947400  0.49135600  1
  O  O24  1  0.72885300  0.42328900  0.59543500  1
  O  O25  1  0.91691600  0.19418500  0.24889700  1
  O  O26  1  0.61798700  0.85237700  0.84199100  1
  O  O27  1  0.82370900  0.09498000  0.42753700  1
  O  O28  1  0.58339000  0.75052600  0.50864400  1
  O  O29  1  0.77726500  0.51281700  0.39684000  1
  O  O30  1  0.22885300  0.57671100  0.90456500  1
  O  O31  1  0.88201300  0.85237700  0.34199100  1
loop_
_geom_bond_atom_site_label_1
_geom_bond_atom_site_label_2
_geom_bond_distance
_geom_bond_site_symmetry_2
Ni0 O9 2.006401 1_555
Ni0 O10 2.015881 1_555
Ni0 O23 2.027979 1_555
Ni0 O14 2.109558 1_545
Ni0 O24 2.116878 1_555
Ni1 O0 2.006401 1_555
Ni1 O31 2.015881 1_555
Ni1 O28 2.027979 1_555
Ni1 O21 2.109558 1_565
Ni1 O12 2.116878 1_555
Ni2 O5 2.006401 1_655
Ni2 O26 2.015881 1_555
Ni2 O1 2.027979 1_556
Ni2 O15 2.109558 1_665
Ni2 O30 2.116878 1_655
Ni3 O25 2.006401 1_455
Ni3 O3 2.015881 1_555
Ni3 O22 2.027979 1_554
Ni3 O20 2.109558 1_445
Ni3 O16 2.116878 1_455
Ni4 O29 1.971057 1_455
Ni4 O19 1.971057 1_555
Ni4 O12 1.999854 1_555
Ni4 O24 1.999854 1_455
Ni5 O11 1.971057 1_555
Ni5 O7 1.971057 1_554
Ni5 O16 1.999854 1_555
Ni5 O30 1.999854 1_554
As0 O27 1.687587 1_555
As0 O21 1.729315 1_655
As0 O25 1.747909 1_555
As0 O31 1.749647 1_545
As1 O2 1.685114 1_555
As1 O23 1.715584 1_555
As1 O29 1.721637 1_555
As1 O12 1.791010 1_555
As2 O6 1.685114 1_555
As2 O1 1.715584 1_555
As2 O11 1.721637 1_655
As2 O16 1.791010 1_555
As3 O17 1.685114 1_555
As3 O22 1.715584 1_555
As3 O7 1.721637 1_455
As3 O30 1.791010 1_555
As4 O18 1.687587 1_555
As4 O14 1.729315 1_455
As4 O5 1.747909 1_555
As4 O10 1.749647 1_565
As5 O4 1.685114 1_555
As5 O28 1.715584 1_555
As5 O19 1.721637 1_555
As5 O24 1.791010 1_555
As6 O8 1.687587 1_555
As6 O15 1.729315 1_555
As6 O9 1.747909 1_555
As6 O26 1.749647 1_545
As7 O13 1.687587 1_555
As7 O20 1.729315 1_555
As7 O0 1.747909 1_555
As7 O3 1.749647 1_565
O0 Zn1 2.055114 1_555
O1 Zn5 2.136547 1_665
O2 Zn0 1.922876 1_555
O3 Zn0 2.044616 1_555
O4 Zn2 1.922876 1_555
O5 Zn2 2.055114 1_555
O6 Zn1 1.922876 1_655
O7 Zn2 2.456152 1_555
O8 Zn5 2.036023 1_656
O9 Zn3 2.055114 1_555
O10 Zn3 2.044616 1_455
O11 Zn0 2.456152 1_555
O12 Zn1 2.191218 1_555
O13 Zn5 2.036023 1_565
O14 Zn4 2.226713 1_565
O15 Zn5 2.226713 1_556
O16 Zn0 2.191218 1_555
O17 Zn3 1.922876 1_455
O18 Zn4 2.036023 1_565
O19 Zn3 2.456152 1_455
O20 Zn5 2.226713 1_665
O21 Zn4 2.226713 1_555
O22 Zn5 2.136547 1_556
O23 Zn4 2.136547 1_555
O24 Zn3 2.191218 1_555
O25 Zn0 2.055114 1_555
O26 Zn2 2.044616 1_555
O27 Zn4 2.036023 1_555
O28 Zn4 2.136547 1_565
O29 Zn1 2.456152 1_655
O30 Zn2 2.191218 1_555
O31 Zn1 2.044616 1_655
