# generated using pymatgen
data_CsNaMg14O15
_symmetry_space_group_name_H-M   'P 1'
_cell_length_a   8.55731914
_cell_length_b   8.87046683
_cell_length_c   4.42527815
_cell_angle_alpha   90.00000000
_cell_angle_beta   90.00000000
_cell_angle_gamma   90.00000000
_symmetry_Int_Tables_number   1
_chemical_formula_structural   CsNaMg14O15
_chemical_formula_sum   'Cs1 Na1 Mg14 O15'
_cell_volume   335.91142761
_cell_formula_units_Z   1
loop_
 _symmetry_equiv_pos_site_id
 _symmetry_equiv_pos_as_xyz
  1  'x, y, z'
loop_
 _atom_site_type_symbol
 _atom_site_label
 _atom_site_symmetry_multiplicity
 _atom_site_fract_x
 _atom_site_fract_y
 _atom_site_fract_z
 _atom_site_occupancy
  Cs  Cs0  1  0.40124957  0.50000000  0.00000000  1
  Na  Na0  1  0.99847778  0.00000000  0.00000000  1
  Mg  Mg0  1  0.97593404  0.50000000  0.00000000  1
  Mg  Mg1  1  0.51008915  0.00000000  0.00000000  1
  Mg  Mg2  1  0.00248247  0.24615727  0.50000000  1
  Mg  Mg3  1  0.00248247  0.75384273  0.50000000  1
  Mg  Mg4  1  0.50934673  0.24093191  0.50000000  1
  Mg  Mg5  1  0.50934673  0.75906809  0.50000000  1
  Mg  Mg6  1  0.25276574  0.00000000  0.50000000  1
  Mg  Mg7  1  0.23061435  0.50000000  0.50000000  1
  Mg  Mg8  1  0.76003626  0.00000000  0.50000000  1
  Mg  Mg9  1  0.74544021  0.50000000  0.50000000  1
  Mg  Mg10  1  0.25042451  0.21605985  0.00000000  1
  Mg  Mg11  1  0.25042451  0.78394015  0.00000000  1
  Mg  Mg12  1  0.74622374  0.25013344  0.00000000  1
  Mg  Mg13  1  0.74622374  0.74986656  0.00000000  1
  O  O0  1  0.26367431  0.00000000  0.00000000  1
  O  O1  1  0.74539407  0.00000000  0.00000000  1
  O  O2  1  0.75115507  0.50000000  0.00000000  1
  O  O3  1  0.25576840  0.26025141  0.50000000  1
  O  O4  1  0.25576840  0.73974859  0.50000000  1
  O  O5  1  0.75702062  0.24805210  0.50000000  1
  O  O6  1  0.75702062  0.75194790  0.50000000  1
  O  O7  1  0.01127916  0.00000000  0.50000000  1
  O  O8  1  0.00330727  0.50000000  0.50000000  1
  O  O9  1  0.49998721  0.00000000  0.50000000  1
  O  O10  1  0.51310365  0.50000000  0.50000000  1
  O  O11  1  0.02050378  0.27583461  -0.00000000  1
  O  O12  1  0.02050378  0.72416539  -0.00000000  1
  O  O13  1  0.50197582  0.22678088  0.00000000  1
  O  O14  1  0.50197582  0.77321912  0.00000000  1
loop_
_geom_bond_atom_site_label_1
_geom_bond_atom_site_label_2
_geom_bond_distance
_geom_bond_site_symmetry_2
Cs0 O10 2.410798 1_555
Cs0 O10 2.410798 1_554
Cs0 O13 2.572294 1_555
Cs0 O14 2.572294 1_555
Na0 O1 2.165718 1_555
Na0 O7 2.215349 1_655
Na0 O7 2.215349 1_654
Na0 O0 2.269371 1_655
Na0 O12 2.454031 1_645
Na0 O11 2.454031 1_655
Mg0 O2 1.923505 1_555
Mg0 O11 2.024699 1_655
Mg0 O12 2.024699 1_655
Mg0 O8 2.225004 1_655
Mg0 O8 2.225004 1_654
Mg1 O14 2.012850 1_545
Mg1 O13 2.012850 1_555
Mg1 O1 2.013579 1_555
Mg1 O0 2.108650 1_555
Mg1 O9 2.214327 1_555
Mg1 O9 2.214327 1_554
Mg2 O5 2.100563 1_455
Mg2 O3 2.171051 1_555
Mg2 O7 2.184827 1_555
Mg2 O11 2.233575 1_556
Mg2 O11 2.233575 1_555
Mg2 O8 2.251715 1_555
Mg3 O6 2.100563 1_455
Mg3 O4 2.171051 1_555
Mg3 O7 2.184827 1_565
Mg3 O12 2.233575 1_556
Mg3 O12 2.233575 1_555
Mg3 O8 2.251715 1_555
Mg4 O5 2.120365 1_555
Mg4 O9 2.138679 1_555
Mg4 O3 2.176707 1_555
Mg4 O13 2.217094 1_555
Mg4 O13 2.217094 1_556
Mg4 O10 2.298280 1_555
Mg5 O6 2.120365 1_555
Mg5 O9 2.138679 1_565
Mg5 O4 2.176707 1_555
Mg5 O14 2.217094 1_556
Mg5 O14 2.217094 1_555
Mg5 O10 2.298280 1_555
Mg6 O7 2.066478 1_555
Mg6 O9 2.115553 1_555
Mg6 O0 2.214607 1_555
Mg6 O0 2.214607 1_556
Mg6 O4 2.308694 1_545
Mg6 O3 2.308694 1_555
Mg7 O8 1.945139 1_555
Mg7 O3 2.137547 1_555
Mg7 O4 2.137547 1_555
Mg7 O10 2.417351 1_555
Mg8 O7 2.149966 1_655
Mg8 O5 2.200489 1_555
Mg8 O6 2.200489 1_545
Mg8 O1 2.216184 1_555
Mg8 O1 2.216184 1_556
Mg8 O9 2.225323 1_555
Mg9 O10 1.988178 1_555
Mg9 O8 2.206651 1_655
Mg9 O2 2.213179 1_555
Mg9 O2 2.213179 1_556
Mg9 O5 2.237091 1_555
Mg9 O6 2.237091 1_555
Mg10 O0 1.919903 1_555
Mg10 O11 2.037700 1_555
Mg10 O13 2.154705 1_555
Mg10 O3 2.247560 1_554
Mg10 O3 2.247560 1_555
Mg11 O0 1.919903 1_565
Mg11 O12 2.037700 1_555
Mg11 O14 2.154705 1_555
Mg11 O4 2.247560 1_555
Mg11 O4 2.247560 1_554
Mg12 O13 2.100347 1_555
Mg12 O5 2.214644 1_554
Mg12 O5 2.214644 1_555
Mg12 O2 2.216835 1_555
Mg12 O1 2.218812 1_555
Mg12 O11 2.358148 1_655
Mg13 O14 2.100347 1_555
Mg13 O6 2.214644 1_555
Mg13 O6 2.214644 1_554
Mg13 O2 2.216835 1_555
Mg13 O1 2.218812 1_565
Mg13 O12 2.358148 1_655
