# generated using pymatgen
data_Tb11In9Ni4
_symmetry_space_group_name_H-M   'P 1'
_cell_length_a   3.63734500
_cell_length_b   12.97708618
_cell_length_c   12.97708618
_cell_angle_alpha   110.88832083
_cell_angle_beta   90.00000000
_cell_angle_gamma   90.00000000
_symmetry_Int_Tables_number   1
_chemical_formula_structural   Tb11In9Ni4
_chemical_formula_sum   'Tb11 In9 Ni4'
_cell_volume   572.28796177
_cell_formula_units_Z   1
loop_
 _symmetry_equiv_pos_site_id
 _symmetry_equiv_pos_as_xyz
  1  'x, y, z'
loop_
 _atom_site_type_symbol
 _atom_site_label
 _atom_site_symmetry_multiplicity
 _atom_site_fract_x
 _atom_site_fract_y
 _atom_site_fract_z
 _atom_site_occupancy
  Tb  Tb0  1  0.00000000  0.92207100  0.58011600  1
  Tb  Tb1  1  0.00000000  0.07792900  0.41988400  1
  Tb  Tb2  1  0.00000000  0.58011600  0.92207100  1
  Tb  Tb3  1  0.00000000  0.41988400  0.07792900  1
  Tb  Tb4  1  0.00000000  0.15862900  0.84137100  1
  Tb  Tb5  1  0.00000000  0.84137100  0.15862900  1
  Tb  Tb6  1  0.00000000  0.37535800  0.62464200  1
  Tb  Tb7  1  0.00000000  0.62464200  0.37535800  1
  Tb  Tb8  1  0.00000000  0.68593200  0.68593200  1
  Tb  Tb9  1  0.00000000  0.31406800  0.31406800  1
  Tb  Tb10  1  0.00000000  0.00000000  0.00000000  1
  In  In0  1  0.50000000  0.16082400  0.63251800  1
  In  In1  1  0.50000000  0.83917600  0.36748200  1
  In  In2  1  0.50000000  0.63251800  0.16082400  1
  In  In3  1  0.50000000  0.36748200  0.83917600  1
  In  In4  1  0.50000000  0.92201300  0.77975200  1
  In  In5  1  0.50000000  0.07798700  0.22024800  1
  In  In6  1  0.50000000  0.77975200  0.92201300  1
  In  In7  1  0.50000000  0.22024800  0.07798700  1
  In  In8  1  0.50000000  0.50000000  0.50000000  1
  Ni  Ni0  1  0.50000000  0.75137600  0.55028400  1
  Ni  Ni1  1  0.50000000  0.24862400  0.44971600  1
  Ni  Ni2  1  0.50000000  0.55028400  0.75137600  1
  Ni  Ni3  1  0.50000000  0.44971600  0.24862400  1
loop_
_geom_bond_atom_site_label_1
_geom_bond_atom_site_label_2
_geom_bond_distance
_geom_bond_site_symmetry_2
In0 Ni1 2.975423 1_555
In0 In3 3.042304 1_555
In0 Tb1 3.156292 1_655
In0 Tb1 3.156292 1_555
In0 Tb4 3.272488 1_555
In0 Tb4 3.272488 1_655
In0 Tb6 3.357339 1_655
In0 Tb6 3.357339 1_555
In0 Tb0 3.444871 1_545
In0 Tb0 3.444871 1_645
In1 Ni0 2.975423 1_555
In1 In2 3.042304 1_555
In1 Tb0 3.156292 1_655
In1 Tb0 3.156292 1_555
In1 Tb5 3.272488 1_555
In1 Tb5 3.272488 1_655
In1 Tb7 3.357339 1_655
In1 Tb7 3.357339 1_555
In1 Tb1 3.444871 1_565
In1 Tb1 3.444871 1_665
In2 Ni3 2.975423 1_555
In2 Tb3 3.156292 1_555
In2 Tb3 3.156292 1_655
In2 Tb5 3.272488 1_555
In2 Tb5 3.272488 1_655
In2 Tb7 3.357339 1_655
In2 Tb7 3.357339 1_555
In2 Tb2 3.444871 1_654
In2 Tb2 3.444871 1_554
In3 Ni2 2.975423 1_555
In3 Tb2 3.156292 1_555
In3 Tb2 3.156292 1_655
In3 Tb4 3.272488 1_555
In3 Tb4 3.272488 1_655
In3 Tb6 3.357339 1_655
In3 Tb6 3.357339 1_555
In3 Tb3 3.444871 1_556
In3 Tb3 3.444871 1_656
In4 Ni0 3.011433 1_555
In4 In6 3.040854 1_555
In4 Tb0 3.165542 1_555
In4 Tb0 3.165542 1_655
In4 Tb10 3.230833 1_666
In4 Tb10 3.230833 1_566
In4 Tb8 3.393517 1_655
In4 Tb8 3.393517 1_555
In4 Tb4 3.409485 1_665
In4 Tb4 3.409485 1_565
In5 Ni1 3.011433 1_555
In5 In7 3.040854 1_555
In5 Tb1 3.165542 1_555
In5 Tb1 3.165542 1_655
In5 Tb10 3.230833 1_655
In5 Tb10 3.230833 1_555
In5 Tb9 3.393517 1_555
In5 Tb9 3.393517 1_655
In5 Tb5 3.409485 1_545
In5 Tb5 3.409485 1_645
In6 Ni2 3.011433 1_555
In6 Tb2 3.165542 1_555
In6 Tb2 3.165542 1_655
In6 Tb10 3.230833 1_566
In6 Tb10 3.230833 1_666
In6 Tb8 3.393517 1_555
In6 Tb8 3.393517 1_655
In6 Tb5 3.409485 1_556
In6 Tb5 3.409485 1_656
In7 Ni3 3.011433 1_555
In7 Tb3 3.165542 1_655
In7 Tb3 3.165542 1_555
In7 Tb10 3.230833 1_655
In7 Tb10 3.230833 1_555
In7 Tb9 3.393517 1_555
In7 Tb9 3.393517 1_655
In7 Tb4 3.409485 1_554
In7 Tb4 3.409485 1_654
In8 Ni3 3.090201 1_555
In8 Ni1 3.090201 1_555
In8 Ni0 3.090201 1_555
In8 Ni2 3.090201 1_555
In8 Tb6 3.225797 1_655
In8 Tb6 3.225797 1_555
In8 Tb7 3.225797 1_655
In8 Tb7 3.225797 1_555
In8 Tb9 3.286300 1_555
In8 Tb9 3.286300 1_655
In8 Tb8 3.286300 1_555
In8 Tb8 3.286300 1_655
Ni0 Tb0 2.784367 1_555
Ni0 Tb0 2.784367 1_655
Ni0 Tb8 2.862449 1_555
Ni0 Tb8 2.862449 1_655
Ni0 Tb7 2.916022 1_655
Ni0 Tb7 2.916022 1_555
Ni1 Tb1 2.784367 1_555
Ni1 Tb1 2.784367 1_655
Ni1 Tb9 2.862449 1_555
Ni1 Tb9 2.862449 1_655
Ni1 Tb6 2.916022 1_555
Ni1 Tb6 2.916022 1_655
Ni2 Tb2 2.784367 1_555
Ni2 Tb2 2.784367 1_655
Ni2 Tb8 2.862449 1_555
Ni2 Tb8 2.862449 1_655
Ni2 Tb6 2.916022 1_655
Ni2 Tb6 2.916022 1_555
Ni3 Tb3 2.784367 1_655
Ni3 Tb3 2.784367 1_555
Ni3 Tb9 2.862449 1_555
Ni3 Tb9 2.862449 1_655
Ni3 Tb7 2.916022 1_655
Ni3 Tb7 2.916022 1_555
