# generated using pymatgen
data_ZnCu2SiSe4
_symmetry_space_group_name_H-M   'P 1'
_cell_length_a   6.82981802
_cell_length_b   6.82981802
_cell_length_c   6.82981802
_cell_angle_alpha   131.41679193
_cell_angle_beta   131.41679193
_cell_angle_gamma   71.15171512
_symmetry_Int_Tables_number   1
_chemical_formula_structural   ZnCu2SiSe4
_chemical_formula_sum   'Zn1 Cu2 Si1 Se4'
_cell_volume   175.40854503
_cell_formula_units_Z   1
loop_
 _symmetry_equiv_pos_site_id
 _symmetry_equiv_pos_as_xyz
  1  'x, y, z'
loop_
 _atom_site_type_symbol
 _atom_site_label
 _atom_site_symmetry_multiplicity
 _atom_site_fract_x
 _atom_site_fract_y
 _atom_site_fract_z
 _atom_site_occupancy
  Zn  Zn0  1  0.75000000  0.25000000  0.50000000  1
  Cu  Cu0  1  0.00000000  0.00000000  0.00000000  1
  Cu  Cu1  1  0.25000000  0.75000000  0.50000000  1
  Si  Si0  1  0.50000000  0.50000000  0.00000000  1
  Se  Se0  1  0.14286500  0.13365700  0.51813500  1
  Se  Se1  1  0.61552200  0.62473000  0.48186500  1
  Se  Se2  1  0.86634300  0.38447800  0.00920800  1
  Se  Se3  1  0.37527000  0.85713500  0.99079200  1
loop_
_geom_bond_atom_site_label_1
_geom_bond_atom_site_label_2
_geom_bond_distance
_geom_bond_site_symmetry_2
Cu0 Se2 2.457912 1_455
Cu0 Se1 2.457912 1_444
Cu0 Se3 2.457912 1_544
Cu0 Se0 2.457912 1_555
Cu1 Se0 2.422486 1_565
Cu1 Se1 2.422486 1_555
Cu1 Se2 2.422486 1_455
Cu1 Se3 2.422486 1_555
Se0 Si0 2.338523 1_556
Se0 Zn0 2.481773 1_455
Se1 Si0 2.338523 1_555
Se1 Zn0 2.481773 1_555
Se2 Si0 2.338523 1_555
Se2 Zn0 2.481773 1_554
Se3 Si0 2.338523 1_556
Se3 Zn0 2.481773 1_566
