# generated using pymatgen
data_Cu7Se2(Cl3O4)2
_symmetry_space_group_name_H-M   'P 1'
_cell_length_a   10.58528828
_cell_length_b   11.11272652
_cell_length_c   14.63762814
_cell_angle_alpha   89.98446615
_cell_angle_beta   90.00721954
_cell_angle_gamma   113.67779119
_symmetry_Int_Tables_number   1
_chemical_formula_structural   Cu7Se2(Cl3O4)2
_chemical_formula_sum   'Cu28 Se8 Cl24 O32'
_cell_volume   1576.89704872
_cell_formula_units_Z   4
loop_
 _symmetry_equiv_pos_site_id
 _symmetry_equiv_pos_as_xyz
  1  'x, y, z'
loop_
 _atom_site_type_symbol
 _atom_site_label
 _atom_site_symmetry_multiplicity
 _atom_site_fract_x
 _atom_site_fract_y
 _atom_site_fract_z
 _atom_site_occupancy
  Cu  Cu0  1  0.51691600  0.74197800  0.37673900  1
  Cu  Cu1  1  0.98307900  0.25802000  0.87673800  1
  Cu  Cu2  1  0.48308400  0.25802200  0.62326100  1
  Cu  Cu3  1  0.01692100  0.74198000  0.12326200  1
  Cu  Cu4  1  0.52108700  0.99974400  0.28710400  1
  Cu  Cu5  1  0.97891200  0.00025700  0.78710400  1
  Cu  Cu6  1  0.47891300  0.00025600  0.71289600  1
  Cu  Cu7  1  0.02108800  0.99974300  0.21289600  1
  Cu  Cu8  1  0.68207700  0.86539100  0.17238200  1
  Cu  Cu9  1  0.81791700  0.13460400  0.67238500  1
  Cu  Cu10  1  0.31792300  0.13460900  0.82761800  1
  Cu  Cu11  1  0.18208300  0.86539600  0.32761500  1
  Cu  Cu12  1  0.37115200  0.69657700  0.19690800  1
  Cu  Cu13  1  0.12887600  0.30343100  0.69688500  1
  Cu  Cu14  1  0.62884800  0.30342300  0.80309200  1
  Cu  Cu15  1  0.87112400  0.69656900  0.30311500  1
  Cu  Cu16  1  0.67899400  0.34619900  0.43739500  1
  Cu  Cu17  1  0.82098600  0.65379400  0.93739300  1
  Cu  Cu18  1  0.32100600  0.65380100  0.56260500  1
  Cu  Cu19  1  0.17901400  0.34620600  0.06260700  1
  Cu  Cu20  1  0.50000000  0.50000000  0.50000000  1
  Cu  Cu21  1  0.00000000  0.50000000  0.00000000  1
  Cu  Cu22  1  0.35089000  0.21020000  0.43702400  1
  Cu  Cu23  1  0.14916600  0.78984200  0.93698500  1
  Cu  Cu24  1  0.64911000  0.78980000  0.56297600  1
  Cu  Cu25  1  0.85083400  0.21015800  0.06301500  1
  Cu  Cu26  1  0.00000000  0.50000000  0.50000000  1
  Cu  Cu27  1  0.50000000  0.50000000  0.00000000  1
  Se  Se0  1  0.80508700  0.00084000  0.37586900  1
  Se  Se1  1  0.69492900  0.99917000  0.87585900  1
  Se  Se2  1  0.19491300  0.99916000  0.62413100  1
  Se  Se3  1  0.30507100  0.00083000  0.12414100  1
  Se  Se4  1  0.76632700  0.53211000  0.63155500  1
  Se  Se5  1  0.73369000  0.46791400  0.13154600  1
  Se  Se6  1  0.23367300  0.46789000  0.36844500  1
  Se  Se7  1  0.26631000  0.53208600  0.86845400  1
  Cl  Cl0  1  0.52028900  0.21404600  0.32432000  1
  Cl  Cl1  1  0.97969400  0.78596400  0.82430800  1
  Cl  Cl2  1  0.47971100  0.78595400  0.67568000  1
  Cl  Cl3  1  0.02030600  0.21403600  0.17569200  1
  Cl  Cl4  1  0.65033700  0.08651100  0.12191900  1
  Cl  Cl5  1  0.84962800  0.91347400  0.62191300  1
  Cl  Cl6  1  0.34966300  0.91348900  0.87808100  1
  Cl  Cl7  1  0.15037200  0.08652600  0.37808700  1
  Cl  Cl8  1  0.88640900  0.38582800  0.37040700  1
  Cl  Cl9  1  0.61357700  0.61416700  0.87040900  1
  Cl  Cl10  1  0.11359100  0.61417200  0.62959300  1
  Cl  Cl11  1  0.38642300  0.38583300  0.12959100  1
  Cl  Cl12  1  0.15790000  0.56771600  0.15819500  1
  Cl  Cl13  1  0.34212300  0.43229600  0.65820100  1
  Cl  Cl14  1  0.84210000  0.43228400  0.84180500  1
  Cl  Cl15  1  0.65787700  0.56770400  0.34179900  1
  Cl  Cl16  1  0.50120200  0.74877800  0.06997900  1
  Cl  Cl17  1  0.99878200  0.25121800  0.56996800  1
  Cl  Cl18  1  0.49879800  0.25122200  0.93002100  1
  Cl  Cl19  1  0.00121800  0.74878200  0.43003200  1
  Cl  Cl20  1  0.34883700  0.88617600  0.42889700  1
  Cl  Cl21  1  0.15116400  0.11382700  0.92889600  1
  Cl  Cl22  1  0.65116300  0.11382400  0.57110300  1
  Cl  Cl23  1  0.84883600  0.88617300  0.07110400  1
  O  O0  1  0.51475600  0.33166500  0.50168600  1
  O  O1  1  0.98522300  0.66822400  0.00174500  1
  O  O2  1  0.48524400  0.66833500  0.49831400  1
  O  O3  1  0.01477700  0.33177600  0.99825500  1
  O  O4  1  0.53195000  0.82780100  0.25947500  1
  O  O5  1  0.96802800  0.17219100  0.75952500  1
  O  O6  1  0.46805000  0.17219900  0.74052500  1
  O  O7  1  0.03197200  0.82780900  0.24047500  1
  O  O8  1  0.69980900  0.07367500  0.34343700  1
  O  O9  1  0.80019500  0.92632100  0.84343600  1
  O  O10  1  0.30019100  0.92632500  0.65656300  1
  O  O11  1  0.19980500  0.07367900  0.15656400  1
  O  O12  1  0.83313000  0.93123900  0.27031300  1
  O  O13  1  0.66687600  0.06875800  0.77031700  1
  O  O14  1  0.16687000  0.06876100  0.72968700  1
  O  O15  1  0.33312400  0.93124200  0.22968300  1
  O  O16  1  0.69217600  0.85446100  0.42857000  1
  O  O17  1  0.80788200  0.14556700  0.92853200  1
  O  O18  1  0.30782400  0.14553900  0.57143000  1
  O  O19  1  0.19211800  0.85443300  0.07146800  1
  O  O20  1  0.65957000  0.59430800  0.57975400  1
  O  O21  1  0.84051300  0.40573000  0.07971100  1
  O  O22  1  0.34043000  0.40569200  0.42024600  1
  O  O23  1  0.15948700  0.59427000  0.92028900  1
  O  O24  1  0.81186000  0.45885600  0.53761400  1
  O  O25  1  0.68812500  0.54113400  0.03761900  1
  O  O26  1  0.18814000  0.54114400  0.46238600  1
  O  O27  1  0.31187500  0.45886600  0.96238100  1
  O  O28  1  0.64610700  0.38669000  0.68038900  1
  O  O29  1  0.85393800  0.61333600  0.18035700  1
  O  O30  1  0.35389300  0.61331000  0.31961100  1
  O  O31  1  0.14606200  0.38666400  0.81964300  1
loop_
_geom_bond_atom_site_label_1
_geom_bond_atom_site_label_2
_geom_bond_distance
_geom_bond_site_symmetry_2
Cu0 O16 1.928048 1_555
Cu0 O2 1.930802 1_555
Cu0 O30 1.933929 1_555
Cu0 O4 1.938674 1_555
Cu1 O17 1.927197 1_555
Cu1 O3 1.930797 1_655
Cu1 O31 1.933219 1_655
Cu1 O5 1.938445 1_555
Cu2 O18 1.928048 1_555
Cu2 O0 1.930802 1_555
Cu2 O28 1.933929 1_555
Cu2 O6 1.938674 1_555
Cu3 O19 1.927197 1_555
Cu3 O1 1.930797 1_455
Cu3 O29 1.933219 1_455
Cu3 O7 1.938445 1_555
Cu4 O8 1.919771 1_565
Cu4 O4 2.001167 1_555
Cu4 O15 2.006998 1_555
Cu5 O9 1.919737 1_545
Cu5 O5 2.000804 1_555
Cu5 O14 2.006966 1_655
Cu6 O10 1.919771 1_545
Cu6 O6 2.001167 1_555
Cu6 O13 2.006998 1_555
Cu7 O11 1.919737 1_565
Cu7 O7 2.000804 1_555
Cu7 O12 2.006966 1_455
Cu8 O4 1.947333 1_555
Cu8 O12 2.051138 1_555
Cu9 O5 1.947549 1_555
Cu9 O13 2.051071 1_555
Cu10 O6 1.947333 1_555
Cu10 O14 2.051138 1_555
Cu11 O7 1.947549 1_555
Cu11 O15 2.051071 1_555
Cu12 O4 1.967012 1_555
Cu12 O30 1.994721 1_555
Cu13 O5 1.967712 1_455
Cu13 O31 1.995768 1_555
Cu14 O6 1.967012 1_555
Cu14 O28 1.994721 1_555
Cu15 O7 1.967712 1_655
Cu15 O29 1.995768 1_555
Cu16 O0 1.925851 1_555
Cu16 O24 2.069691 1_555
Cu17 O1 1.926429 1_556
Cu17 O25 2.069522 1_556
Cu18 O2 1.925851 1_555
Cu18 O26 2.069691 1_555
Cu19 O3 1.926429 1_554
Cu19 O27 2.069522 1_554
Cu20 O2 1.938823 1_555
Cu20 O0 1.938823 1_555
Cu20 O20 1.972966 1_555
Cu20 O22 1.972966 1_555
Cu21 O3 1.937722 1_554
Cu21 O1 1.937722 1_455
Cu21 O23 1.971865 1_554
Cu21 O21 1.971865 1_455
Cu22 O0 1.961204 1_555
Cu22 O18 2.081132 1_555
Cu22 O22 2.232714 1_555
Cu23 O1 1.962816 1_456
Cu23 O19 2.082160 1_556
Cu23 O23 2.232949 1_555
Cu24 O2 1.961204 1_555
Cu24 O16 2.081132 1_555
Cu24 O20 2.232714 1_555
Cu25 O3 1.962816 1_654
Cu25 O17 2.082160 1_554
Cu25 O21 2.232949 1_555
Cu26 O24 1.935746 1_455
Cu26 O26 1.935746 1_555
Cu27 O25 1.935566 1_555
Cu27 O27 1.935566 1_554
Cl0 Cu16 2.395308 1_555
Cl0 Cu22 2.424437 1_555
Cl0 Cu4 2.446454 1_545
Cl1 Cu17 2.395228 1_555
Cl1 Cu23 2.424343 1_655
Cl1 Cu5 2.445962 1_565
Cl2 Cu18 2.395308 1_555
Cl2 Cu24 2.424437 1_555
Cl2 Cu6 2.446454 1_565
Cl3 Cu19 2.395228 1_555
Cl3 Cu25 2.424343 1_455
Cl3 Cu7 2.445962 1_545
Cl4 Cu25 2.189352 1_555
Cl4 Cu8 2.712674 1_545
Cl4 Cu4 2.754611 1_545
Cl5 Cu24 2.189856 1_555
Cl5 Cu9 2.713052 1_565
Cl5 Cu5 2.754999 1_565
Cl6 Cu23 2.189352 1_555
Cl6 Cu10 2.712674 1_565
Cl6 Cu6 2.754611 1_565
Cl7 Cu22 2.189856 1_555
Cl7 Cu11 2.713052 1_545
Cl7 Cu7 2.754999 1_545
Cl8 Cu16 2.280253 1_555
Cl8 Cu26 2.330085 1_655
Cl9 Cu17 2.280041 1_555
Cl9 Cu27 2.329685 1_556
Cl10 Cu18 2.280253 1_555
Cl10 Cu26 2.330085 1_555
Cl11 Cu19 2.280041 1_555
Cl11 Cu27 2.329685 1_555
Cl12 Cu12 2.207058 1_555
Cl12 Cu21 2.776988 1_555
Cl12 Cu19 2.917338 1_555
Cl12 Cu3 2.925588 1_555
Cl13 Cu13 2.206866 1_555
Cl13 Cu20 2.776949 1_555
Cl13 Cu18 2.916692 1_555
Cl13 Cu2 2.925803 1_555
Cl14 Cu14 2.207058 1_555
Cl14 Cu21 2.776988 1_656
Cl14 Cu17 2.917338 1_555
Cl14 Cu1 2.925588 1_555
Cl15 Cu15 2.206866 1_555
Cl15 Cu20 2.776949 1_555
Cl15 Cu16 2.916692 1_555
Cl15 Cu0 2.925803 1_555
Cl16 Cu12 2.245481 1_555
Cl16 Cu8 2.366307 1_555
Cl16 Cu27 2.943758 1_555
Cl17 Cu13 2.245548 1_655
Cl17 Cu9 2.366238 1_555
Cl17 Cu26 2.943160 1_655
Cl18 Cu14 2.245481 1_555
Cl18 Cu10 2.366307 1_555
Cl18 Cu27 2.943758 1_556
Cl19 Cu15 2.245548 1_455
Cl19 Cu11 2.366238 1_555
Cl19 Cu26 2.943160 1_555
Cl20 Cu11 2.244787 1_555
Cl20 Cu4 2.715937 1_555
Cl20 Cu0 2.933766 1_555
Cl21 Cu10 2.244995 1_555
Cl21 Cu5 2.716113 1_455
Cl21 Cu1 2.933432 1_455
Cl22 Cu9 2.244787 1_555
Cl22 Cu6 2.715937 1_555
Cl22 Cu2 2.933766 1_555
Cl23 Cu8 2.244995 1_555
Cl23 Cu7 2.716113 1_655
Cl23 Cu3 2.933432 1_655
O8 Se0 1.687155 1_555
O9 Se1 1.687328 1_555
O10 Se2 1.687155 1_555
O11 Se3 1.687328 1_555
O12 Se0 1.805221 1_565
O13 Se1 1.804587 1_545
O14 Se2 1.805221 1_545
O15 Se3 1.804587 1_565
O16 Se0 1.762850 1_565
O17 Se1 1.763192 1_545
O18 Se2 1.762850 1_545
O19 Se3 1.763192 1_565
O20 Se4 1.719462 1_555
O21 Se5 1.720441 1_555
O22 Se6 1.719462 1_555
O23 Se7 1.720441 1_555
O24 Se4 1.761170 1_555
O25 Se5 1.760510 1_555
O26 Se6 1.761170 1_555
O27 Se7 1.760510 1_555
O28 Se4 1.757766 1_555
O29 Se5 1.757974 1_555
O30 Se6 1.757766 1_555
O31 Se7 1.757974 1_555
