# generated using pymatgen
data_TmAlGa
_symmetry_space_group_name_H-M   'P 1'
_cell_length_a   8.80165744
_cell_length_b   8.80165744
_cell_length_c   6.94469856
_cell_angle_alpha   90.00000000
_cell_angle_beta   90.00000000
_cell_angle_gamma   119.99999907
_symmetry_Int_Tables_number   1
_chemical_formula_structural   TmAlGa
_chemical_formula_sum   'Tm8 Al8 Ga8'
_cell_volume   465.92172231
_cell_formula_units_Z   8
loop_
 _symmetry_equiv_pos_site_id
 _symmetry_equiv_pos_as_xyz
  1  'x, y, z'
loop_
 _atom_site_type_symbol
 _atom_site_label
 _atom_site_symmetry_multiplicity
 _atom_site_fract_x
 _atom_site_fract_y
 _atom_site_fract_z
 _atom_site_occupancy
  Tm  Tm0_0  1  0.33333350  0.16666650  0.00000000  1
  Tm  Tm0_1  1  0.33333350  0.16666650  0.50000000  1
  Tm  Tm0_2  1  0.33333350  0.66666650  0.00000000  1
  Tm  Tm0_3  1  0.33333350  0.66666650  0.50000000  1
  Tm  Tm0_4  1  0.83333350  0.16666650  0.00000000  1
  Tm  Tm0_5  1  0.83333350  0.16666650  0.50000000  1
  Tm  Tm0_6  1  0.83333350  0.66666650  0.00000000  1
  Tm  Tm0_7  1  0.83333350  0.66666650  0.50000000  1
  Al  Al0_0  1  0.00000000  0.00000000  0.25000000  1
  Al  Al0_1  1  0.00000000  0.00000000  0.75000000  1
  Al  Al0_2  1  0.00000000  0.50000000  0.25000000  1
  Al  Al0_3  1  0.00000000  0.50000000  0.75000000  1
  Al  Al0_4  1  0.50000000  0.00000000  0.25000000  1
  Al  Al0_5  1  0.50000000  0.00000000  0.75000000  1
  Al  Al0_6  1  0.50000000  0.50000000  0.25000000  1
  Al  Al0_7  1  0.50000000  0.50000000  0.75000000  1
  Ga  Ga0_0  1  0.16666650  0.33333350  0.25000000  1
  Ga  Ga0_1  1  0.16666650  0.33333350  0.75000000  1
  Ga  Ga0_2  1  0.16666650  0.83333350  0.25000000  1
  Ga  Ga0_3  1  0.16666650  0.83333350  0.75000000  1
  Ga  Ga0_4  1  0.66666650  0.33333350  0.25000000  1
  Ga  Ga0_5  1  0.66666650  0.33333350  0.75000000  1
  Ga  Ga0_6  1  0.66666650  0.83333350  0.25000000  1
  Ga  Ga0_7  1  0.66666650  0.83333350  0.75000000  1
loop_
_geom_bond_atom_site_label_1
_geom_bond_atom_site_label_2
_geom_bond_distance
_geom_bond_site_symmetry_2
Tm0_0 Tm0_1 3.472349 1_554
Tm0_0 Tm0_1 3.472349 1_555
Tm0_2 Tm0_3 3.472349 1_554
Tm0_2 Tm0_3 3.472349 1_555
Tm0_4 Tm0_5 3.472349 1_555
Tm0_4 Tm0_5 3.472349 1_554
Tm0_6 Tm0_7 3.472349 1_555
Tm0_6 Tm0_7 3.472349 1_554
Al0_0 Ga0_2 2.540817 1_545
Al0_0 Ga0_0 2.540821 1_555
Al0_0 Ga0_6 2.540821 1_445
Al0_0 Tm0_4 3.077345 1_455
Al0_0 Tm0_5 3.077345 1_455
Al0_0 Tm0_1 3.077348 1_555
Al0_0 Tm0_0 3.077348 1_555
Al0_0 Tm0_6 3.077348 1_445
Al0_0 Tm0_7 3.077348 1_445
Al0_1 Ga0_3 2.540817 1_545
Al0_1 Ga0_1 2.540821 1_555
Al0_1 Ga0_7 2.540821 1_445
Al0_1 Tm0_4 3.077345 1_456
Al0_1 Tm0_5 3.077345 1_455
Al0_1 Tm0_0 3.077348 1_556
Al0_1 Tm0_6 3.077348 1_446
Al0_1 Tm0_1 3.077348 1_555
Al0_1 Tm0_7 3.077348 1_445
Al0_2 Ga0_0 2.540817 1_555
Al0_2 Ga0_4 2.540821 1_455
Al0_2 Ga0_2 2.540821 1_555
Al0_2 Tm0_7 3.077345 1_455
Al0_2 Tm0_6 3.077345 1_455
Al0_2 Tm0_2 3.077348 1_555
Al0_2 Tm0_3 3.077348 1_555
Al0_2 Tm0_4 3.077348 1_455
Al0_2 Tm0_5 3.077348 1_455
Al0_3 Ga0_1 2.540817 1_555
Al0_3 Ga0_5 2.540821 1_455
Al0_3 Ga0_3 2.540821 1_555
Al0_3 Tm0_6 3.077345 1_456
Al0_3 Tm0_7 3.077345 1_455
Al0_3 Tm0_4 3.077348 1_456
Al0_3 Tm0_2 3.077348 1_556
Al0_3 Tm0_3 3.077348 1_555
Al0_3 Tm0_5 3.077348 1_455
Al0_4 Ga0_6 2.540817 1_545
Al0_4 Ga0_4 2.540821 1_555
Al0_4 Ga0_2 2.540821 1_545
Al0_4 Tm0_1 3.077345 1_555
Al0_4 Tm0_0 3.077345 1_555
Al0_4 Tm0_2 3.077348 1_545
Al0_4 Tm0_3 3.077348 1_545
Al0_4 Tm0_5 3.077348 1_555
Al0_4 Tm0_4 3.077348 1_555
Al0_5 Ga0_7 2.540817 1_545
Al0_5 Ga0_5 2.540821 1_555
Al0_5 Ga0_3 2.540821 1_545
Al0_5 Tm0_0 3.077345 1_556
Al0_5 Tm0_1 3.077345 1_555
Al0_5 Tm0_2 3.077348 1_546
Al0_5 Tm0_4 3.077348 1_556
Al0_5 Tm0_3 3.077348 1_545
Al0_5 Tm0_5 3.077348 1_555
Al0_6 Ga0_4 2.540817 1_555
Al0_6 Ga0_0 2.540821 1_555
Al0_6 Ga0_6 2.540821 1_555
Al0_6 Tm0_2 3.077345 1_555
Al0_6 Tm0_3 3.077345 1_555
Al0_6 Tm0_7 3.077348 1_555
Al0_6 Tm0_6 3.077348 1_555
Al0_6 Tm0_1 3.077348 1_555
Al0_6 Tm0_0 3.077348 1_555
Al0_7 Ga0_5 2.540817 1_555
Al0_7 Ga0_1 2.540821 1_555
Al0_7 Ga0_7 2.540821 1_555
Al0_7 Tm0_2 3.077345 1_556
Al0_7 Tm0_3 3.077345 1_555
Al0_7 Tm0_6 3.077348 1_556
Al0_7 Tm0_0 3.077348 1_556
Al0_7 Tm0_7 3.077348 1_555
Al0_7 Tm0_1 3.077348 1_555
Ga0_0 Tm0_2 3.077345 1_555
Ga0_0 Tm0_4 3.077345 1_455
Ga0_0 Tm0_3 3.077345 1_555
Ga0_0 Tm0_5 3.077345 1_455
Ga0_0 Tm0_1 3.077352 1_555
Ga0_0 Tm0_0 3.077352 1_555
Ga0_1 Tm0_2 3.077345 1_556
Ga0_1 Tm0_4 3.077345 1_456
Ga0_1 Tm0_3 3.077345 1_555
Ga0_1 Tm0_5 3.077345 1_455
Ga0_1 Tm0_0 3.077352 1_556
Ga0_1 Tm0_1 3.077352 1_555
Ga0_2 Tm0_7 3.077345 1_455
Ga0_2 Tm0_6 3.077345 1_455
Ga0_2 Tm0_1 3.077345 1_565
Ga0_2 Tm0_0 3.077345 1_565
Ga0_2 Tm0_2 3.077352 1_555
Ga0_2 Tm0_3 3.077352 1_555
Ga0_3 Tm0_6 3.077345 1_456
Ga0_3 Tm0_0 3.077345 1_566
Ga0_3 Tm0_7 3.077345 1_455
Ga0_3 Tm0_1 3.077345 1_565
Ga0_3 Tm0_2 3.077352 1_556
Ga0_3 Tm0_3 3.077352 1_555
Ga0_4 Tm0_7 3.077345 1_555
Ga0_4 Tm0_6 3.077345 1_555
Ga0_4 Tm0_0 3.077345 1_555
Ga0_4 Tm0_1 3.077345 1_555
Ga0_4 Tm0_5 3.077352 1_555
Ga0_4 Tm0_4 3.077352 1_555
Ga0_5 Tm0_6 3.077345 1_556
Ga0_5 Tm0_7 3.077345 1_555
Ga0_5 Tm0_0 3.077345 1_556
Ga0_5 Tm0_1 3.077345 1_555
Ga0_5 Tm0_4 3.077352 1_556
Ga0_5 Tm0_5 3.077352 1_555
Ga0_6 Tm0_2 3.077345 1_555
Ga0_6 Tm0_3 3.077345 1_555
Ga0_6 Tm0_4 3.077345 1_565
Ga0_6 Tm0_5 3.077345 1_565
Ga0_6 Tm0_6 3.077352 1_555
Ga0_6 Tm0_7 3.077352 1_555
Ga0_7 Tm0_2 3.077345 1_556
Ga0_7 Tm0_3 3.077345 1_555
Ga0_7 Tm0_4 3.077345 1_566
Ga0_7 Tm0_5 3.077345 1_565
Ga0_7 Tm0_6 3.077352 1_556
Ga0_7 Tm0_7 3.077352 1_555
