# generated using pymatgen
data_Ho3Si13Ir4
_symmetry_space_group_name_H-M   'P 1'
_cell_length_a   8.75048200
_cell_length_b   8.75048200
_cell_length_c   8.75048200
_cell_angle_alpha   90.00000000
_cell_angle_beta   90.00000000
_cell_angle_gamma   90.00000000
_symmetry_Int_Tables_number   1
_chemical_formula_structural   Ho3Si13Ir4
_chemical_formula_sum   'Ho6 Si26 Ir8'
_cell_volume   670.03259047
_cell_formula_units_Z   2
loop_
 _symmetry_equiv_pos_site_id
 _symmetry_equiv_pos_as_xyz
  1  'x, y, z'
loop_
 _atom_site_type_symbol
 _atom_site_label
 _atom_site_symmetry_multiplicity
 _atom_site_fract_x
 _atom_site_fract_y
 _atom_site_fract_z
 _atom_site_occupancy
  Ho  Ho0  1  0.00000000  0.50000000  0.75000000  1
  Ho  Ho1  1  0.50000000  0.25000000  0.00000000  1
  Ho  Ho2  1  0.75000000  0.00000000  0.50000000  1
  Ho  Ho3  1  0.00000000  0.50000000  0.25000000  1
  Ho  Ho4  1  0.50000000  0.75000000  0.00000000  1
  Ho  Ho5  1  0.25000000  0.00000000  0.50000000  1
  Si  Si0  1  0.50000000  0.50000000  0.50000000  1
  Si  Si1  1  0.00000000  0.00000000  0.00000000  1
  Si  Si2  1  0.79423200  0.36203800  0.50000000  1
  Si  Si3  1  0.63796200  0.50000000  0.79423200  1
  Si  Si4  1  0.50000000  0.20576800  0.63796200  1
  Si  Si5  1  0.20576800  0.63796200  0.50000000  1
  Si  Si6  1  0.36203800  0.50000000  0.20576800  1
  Si  Si7  1  0.50000000  0.79423200  0.36203800  1
  Si  Si8  1  0.79423200  0.63796200  0.50000000  1
  Si  Si9  1  0.63796200  0.50000000  0.20576800  1
  Si  Si10  1  0.20576800  0.36203800  0.50000000  1
  Si  Si11  1  0.36203800  0.50000000  0.79423200  1
  Si  Si12  1  0.50000000  0.79423200  0.63796200  1
  Si  Si13  1  0.50000000  0.20576800  0.36203800  1
  Si  Si14  1  0.29423200  0.00000000  0.86203800  1
  Si  Si15  1  0.13796200  0.29423200  0.00000000  1
  Si  Si16  1  0.00000000  0.13796200  0.70576800  1
  Si  Si17  1  0.70576800  0.00000000  0.13796200  1
  Si  Si18  1  0.86203800  0.70576800  0.00000000  1
  Si  Si19  1  0.00000000  0.86203800  0.29423200  1
  Si  Si20  1  0.29423200  0.00000000  0.13796200  1
  Si  Si21  1  0.13796200  0.70576800  0.00000000  1
  Si  Si22  1  0.70576800  0.00000000  0.86203800  1
  Si  Si23  1  0.86203800  0.29423200  0.00000000  1
  Si  Si24  1  0.00000000  0.13796200  0.29423200  1
  Si  Si25  1  0.00000000  0.86203800  0.70576800  1
  Ir  Ir0  1  0.75000000  0.25000000  0.75000000  1
  Ir  Ir1  1  0.25000000  0.75000000  0.25000000  1
  Ir  Ir2  1  0.75000000  0.75000000  0.25000000  1
  Ir  Ir3  1  0.25000000  0.25000000  0.75000000  1
  Ir  Ir4  1  0.25000000  0.75000000  0.75000000  1
  Ir  Ir5  1  0.75000000  0.25000000  0.25000000  1
  Ir  Ir6  1  0.25000000  0.25000000  0.25000000  1
  Ir  Ir7  1  0.75000000  0.75000000  0.75000000  1
loop_
_geom_bond_atom_site_label_1
_geom_bond_atom_site_label_2
_geom_bond_distance
_geom_bond_site_symmetry_2
Ho0 Si5 3.079797 1_555
Ho0 Si10 3.079797 1_555
Ho0 Si21 3.079797 1_556
Ho0 Si15 3.079797 1_556
Ho0 Si18 3.079797 1_456
Ho0 Si23 3.079797 1_456
Ho0 Si8 3.079797 1_455
Ho0 Si2 3.079797 1_455
Ho0 Ir3 3.093763 1_555
Ho0 Ir4 3.093763 1_555
Ho0 Ir7 3.093763 1_455
Ho0 Ir0 3.093763 1_455
Ho0 Si11 3.191563 1_555
Ho0 Si16 3.191563 1_555
Ho0 Si25 3.191563 1_555
Ho0 Si3 3.191563 1_455
Ho1 Si9 3.079797 1_555
Ho1 Si6 3.079797 1_555
Ho1 Si17 3.079797 1_555
Ho1 Si14 3.079797 1_554
Ho1 Si22 3.079797 1_554
Ho1 Si20 3.079797 1_555
Ho1 Si3 3.079797 1_554
Ho1 Si11 3.079797 1_554
Ho1 Ir0 3.093763 1_554
Ho1 Ir6 3.093763 1_555
Ho1 Ir3 3.093763 1_554
Ho1 Ir5 3.093763 1_555
Ho1 Si13 3.191563 1_555
Ho1 Si23 3.191563 1_555
Ho1 Si15 3.191563 1_555
Ho1 Si4 3.191563 1_554
Ho2 Si4 3.079797 1_555
Ho2 Si13 3.079797 1_555
Ho2 Si25 3.079797 1_645
Ho2 Si24 3.079797 1_655
Ho2 Si16 3.079797 1_655
Ho2 Si19 3.079797 1_645
Ho2 Si12 3.079797 1_545
Ho2 Si7 3.079797 1_545
Ho2 Ir2 3.093763 1_545
Ho2 Ir0 3.093763 1_555
Ho2 Ir7 3.093763 1_545
Ho2 Ir5 3.093763 1_555
Ho2 Si2 3.191563 1_555
Ho2 Si22 3.191563 1_555
Ho2 Si17 3.191563 1_555
Ho2 Si8 3.191563 1_545
Ho3 Si5 3.079797 1_555
Ho3 Si10 3.079797 1_555
Ho3 Si21 3.079797 1_555
Ho3 Si15 3.079797 1_555
Ho3 Si23 3.079797 1_455
Ho3 Si18 3.079797 1_455
Ho3 Si8 3.079797 1_455
Ho3 Si2 3.079797 1_455
Ho3 Ir6 3.093763 1_555
Ho3 Ir2 3.093763 1_455
Ho3 Ir5 3.093763 1_455
Ho3 Ir1 3.093763 1_555
Ho3 Si6 3.191563 1_555
Ho3 Si24 3.191563 1_555
Ho3 Si19 3.191563 1_555
Ho3 Si9 3.191563 1_455
Ho4 Si9 3.079797 1_555
Ho4 Si6 3.079797 1_555
Ho4 Si17 3.079797 1_565
Ho4 Si20 3.079797 1_565
Ho4 Si22 3.079797 1_564
Ho4 Si14 3.079797 1_564
Ho4 Si3 3.079797 1_554
Ho4 Si11 3.079797 1_554
Ho4 Ir2 3.093763 1_555
Ho4 Ir4 3.093763 1_554
Ho4 Ir7 3.093763 1_554
Ho4 Ir1 3.093763 1_555
Ho4 Si7 3.191563 1_555
Ho4 Si21 3.191563 1_555
Ho4 Si18 3.191563 1_555
Ho4 Si12 3.191563 1_554
Ho5 Si4 3.079797 1_555
Ho5 Si13 3.079797 1_555
Ho5 Si24 3.079797 1_555
Ho5 Si19 3.079797 1_545
Ho5 Si25 3.079797 1_545
Ho5 Si16 3.079797 1_555
Ho5 Si12 3.079797 1_545
Ho5 Si7 3.079797 1_545
Ho5 Ir6 3.093763 1_555
Ho5 Ir3 3.093763 1_555
Ho5 Ir4 3.093763 1_545
Ho5 Ir1 3.093763 1_545
Ho5 Si10 3.191563 1_555
Ho5 Si14 3.191563 1_555
Ho5 Si20 3.191563 1_555
Ho5 Si5 3.191563 1_545
Si0 Si8 2.843651 1_555
Si0 Si12 2.843651 1_555
Si0 Si3 2.843651 1_555
Si0 Si2 2.843651 1_555
Si0 Si7 2.843651 1_555
Si0 Si11 2.843651 1_555
Si0 Si5 2.843651 1_555
Si0 Si4 2.843651 1_555
Si0 Si9 2.843651 1_555
Si0 Si10 2.843651 1_555
Si0 Si6 2.843651 1_555
Si0 Si13 2.843651 1_555
Si1 Si14 2.843651 1_554
Si1 Si23 2.843651 1_455
Si1 Si20 2.843651 1_555
Si1 Si24 2.843651 1_555
Si1 Si15 2.843651 1_555
Si1 Si19 2.843651 1_545
Si1 Si16 2.843651 1_554
Si1 Si21 2.843651 1_545
Si1 Si25 2.843651 1_544
Si1 Si17 2.843651 1_455
Si1 Si18 2.843651 1_445
Si1 Si22 2.843651 1_454
Ir0 Si2 2.428302 1_555
Ir0 Si22 2.428302 1_555
Ir0 Si23 2.428302 1_556
Ir0 Si16 2.428302 1_655
Ir0 Si3 2.428302 1_555
Ir0 Si4 2.428302 1_555
Ir1 Si7 2.428302 1_555
Ir1 Si6 2.428302 1_555
Ir1 Si20 2.428302 1_565
Ir1 Si19 2.428302 1_555
Ir1 Si21 2.428302 1_555
Ir1 Si5 2.428302 1_555
Ir2 Si7 2.428302 1_555
Ir2 Si18 2.428302 1_555
Ir2 Si19 2.428302 1_655
Ir2 Si17 2.428302 1_565
Ir2 Si8 2.428302 1_555
Ir2 Si9 2.428302 1_555
Ir3 Si11 2.428302 1_555
Ir3 Si10 2.428302 1_555
Ir3 Si15 2.428302 1_556
Ir3 Si14 2.428302 1_555
Ir3 Si16 2.428302 1_555
Ir3 Si4 2.428302 1_555
Ir4 Si11 2.428302 1_555
Ir4 Si14 2.428302 1_565
Ir4 Si25 2.428302 1_555
Ir4 Si21 2.428302 1_556
Ir4 Si12 2.428302 1_555
Ir4 Si5 2.428302 1_555
Ir5 Si2 2.428302 1_555
Ir5 Si13 2.428302 1_555
Ir5 Si23 2.428302 1_555
Ir5 Si17 2.428302 1_555
Ir5 Si24 2.428302 1_655
Ir5 Si9 2.428302 1_555
Ir6 Si13 2.428302 1_555
Ir6 Si6 2.428302 1_555
Ir6 Si10 2.428302 1_555
Ir6 Si15 2.428302 1_555
Ir6 Si20 2.428302 1_555
Ir6 Si24 2.428302 1_555
Ir7 Si22 2.428302 1_565
Ir7 Si18 2.428302 1_556
Ir7 Si25 2.428302 1_655
Ir7 Si8 2.428302 1_555
Ir7 Si12 2.428302 1_555
Ir7 Si3 2.428302 1_555
