# generated using pymatgen
data_Mn4Be3Si3SO12
_symmetry_space_group_name_H-M   'P 1'
_cell_length_a   8.38665800
_cell_length_b   8.38665800
_cell_length_c   8.38665800
_cell_angle_alpha   90.00000000
_cell_angle_beta   90.00000000
_cell_angle_gamma   90.00000000
_symmetry_Int_Tables_number   1
_chemical_formula_structural   Mn4Be3Si3SO12
_chemical_formula_sum   'Mn8 Be6 Si6 S2 O24'
_cell_volume   589.88424889
_cell_formula_units_Z   2
loop_
 _symmetry_equiv_pos_site_id
 _symmetry_equiv_pos_as_xyz
  1  'x, y, z'
loop_
 _atom_site_type_symbol
 _atom_site_label
 _atom_site_symmetry_multiplicity
 _atom_site_fract_x
 _atom_site_fract_y
 _atom_site_fract_z
 _atom_site_occupancy
  Mn  Mn0  1  0.67127000  0.67127000  0.67127000  1
  Mn  Mn1  1  0.82873000  0.17127000  0.82873000  1
  Mn  Mn2  1  0.17127000  0.82873000  0.82873000  1
  Mn  Mn3  1  0.82873000  0.82873000  0.17127000  1
  Mn  Mn4  1  0.67127000  0.32873000  0.32873000  1
  Mn  Mn5  1  0.32873000  0.32873000  0.67127000  1
  Mn  Mn6  1  0.32873000  0.67127000  0.32873000  1
  Mn  Mn7  1  0.17127000  0.17127000  0.17127000  1
  Be  Be0  1  0.50000000  0.75000000  0.00000000  1
  Be  Be1  1  0.50000000  0.25000000  0.00000000  1
  Be  Be2  1  0.00000000  0.50000000  0.25000000  1
  Be  Be3  1  0.00000000  0.50000000  0.75000000  1
  Be  Be4  1  0.25000000  0.00000000  0.50000000  1
  Be  Be5  1  0.75000000  0.00000000  0.50000000  1
  Si  Si0  1  0.50000000  0.00000000  0.25000000  1
  Si  Si1  1  0.50000000  0.00000000  0.75000000  1
  Si  Si2  1  0.00000000  0.25000000  0.50000000  1
  Si  Si3  1  0.25000000  0.50000000  0.00000000  1
  Si  Si4  1  0.00000000  0.75000000  0.50000000  1
  Si  Si5  1  0.75000000  0.50000000  0.00000000  1
  S  S0  1  0.00000000  0.00000000  0.00000000  1
  S  S1  1  0.50000000  0.50000000  0.50000000  1
  O  O0  1  0.35839400  0.64167000  0.08176400  1
  O  O1  1  0.14167000  0.85839400  0.58176400  1
  O  O2  1  0.14167000  0.14160600  0.41823600  1
  O  O3  1  0.35833000  0.91823600  0.35839400  1
  O  O4  1  0.35833000  0.08176400  0.64160600  1
  O  O5  1  0.08176400  0.35839400  0.64167000  1
  O  O6  1  0.91823600  0.35839400  0.35833000  1
  O  O7  1  0.64160600  0.35833000  0.08176400  1
  O  O8  1  0.41823600  0.85833000  0.85839400  1
  O  O9  1  0.41823600  0.14167000  0.14160600  1
  O  O10  1  0.14160600  0.41823600  0.14167000  1
  O  O11  1  0.85839400  0.58176400  0.14167000  1
  O  O12  1  0.64167000  0.91823600  0.64160600  1
  O  O13  1  0.85839400  0.41823600  0.85833000  1
  O  O14  1  0.58176400  0.85833000  0.14160600  1
  O  O15  1  0.58176400  0.14167000  0.85839400  1
  O  O16  1  0.91823600  0.64160600  0.64167000  1
  O  O17  1  0.14160600  0.58176400  0.85833000  1
  O  O18  1  0.85833000  0.14160600  0.58176400  1
  O  O19  1  0.85833000  0.85839400  0.41823600  1
  O  O20  1  0.35839400  0.35833000  0.91823600  1
  O  O21  1  0.64160600  0.64167000  0.91823600  1
  O  O22  1  0.08176400  0.64160600  0.35833000  1
  O  O23  1  0.64167000  0.08176400  0.35839400  1
loop_
_geom_bond_atom_site_label_1
_geom_bond_atom_site_label_2
_geom_bond_distance
_geom_bond_site_symmetry_2
Mn0 O12 2.100825 1_555
Mn0 O21 2.100825 1_555
Mn0 O16 2.100825 1_555
Mn0 S1 2.487888 1_555
Mn1 O13 2.100825 1_555
Mn1 O15 2.100825 1_555
Mn1 O18 2.100825 1_555
Mn1 S0 2.487888 1_656
Mn2 O8 2.100825 1_555
Mn2 O1 2.100825 1_555
Mn2 O17 2.100825 1_555
Mn2 S0 2.487888 1_566
Mn3 O19 2.100825 1_555
Mn3 O11 2.100825 1_555
Mn3 O14 2.100825 1_555
Mn3 S0 2.487888 1_665
Mn4 O6 2.100825 1_555
Mn4 O7 2.100825 1_555
Mn4 O23 2.100825 1_555
Mn4 S1 2.487888 1_555
Mn5 O20 2.100825 1_555
Mn5 O4 2.100825 1_555
Mn5 O5 2.100825 1_555
Mn5 S1 2.487888 1_555
Mn6 O3 2.100825 1_555
Mn6 O22 2.100825 1_555
Mn6 O0 2.100825 1_555
Mn6 S1 2.487888 1_555
Mn7 O10 2.100825 1_555
Mn7 O9 2.100825 1_555
Mn7 O2 2.100825 1_555
Mn7 S0 2.487888 1_555
Be0 O14 1.645004 1_555
Be0 O0 1.645004 1_555
Be0 O8 1.645004 1_554
Be0 O21 1.645004 1_554
Be1 O9 1.645004 1_555
Be1 O7 1.645004 1_555
Be1 O15 1.645004 1_554
Be1 O20 1.645004 1_554
Be2 O10 1.645004 1_555
Be2 O22 1.645004 1_555
Be2 O11 1.645004 1_455
Be2 O6 1.645004 1_455
Be3 O17 1.645004 1_555
Be3 O5 1.645004 1_555
Be3 O13 1.645004 1_455
Be3 O16 1.645004 1_455
Be4 O2 1.645004 1_555
Be4 O4 1.645004 1_555
Be4 O1 1.645004 1_545
Be4 O3 1.645004 1_545
Be5 O18 1.645004 1_555
Be5 O23 1.645004 1_555
Be5 O19 1.645004 1_545
Be5 O12 1.645004 1_545
O0 Si3 1.645688 1_555
O1 Si4 1.645688 1_555
O2 Si2 1.645688 1_555
O3 Si0 1.645688 1_565
O4 Si1 1.645688 1_555
O5 Si2 1.645688 1_555
O6 Si2 1.645688 1_655
O7 Si5 1.645688 1_555
O8 Si1 1.645688 1_565
O9 Si0 1.645688 1_555
O10 Si3 1.645688 1_555
O11 Si5 1.645688 1_555
O12 Si1 1.645688 1_565
O13 Si5 1.645688 1_556
O14 Si0 1.645688 1_565
O15 Si1 1.645688 1_555
O16 Si4 1.645688 1_655
O17 Si3 1.645688 1_556
O18 Si2 1.645688 1_655
O19 Si4 1.645688 1_655
O20 Si3 1.645688 1_556
O21 Si5 1.645688 1_556
O22 Si4 1.645688 1_555
O23 Si0 1.645688 1_555
