# generated using pymatgen
data_Ba2LiEu(CuO2)4
_symmetry_space_group_name_H-M   'P 1'
_cell_length_a   4.01192000
_cell_length_b   3.90524903
_cell_length_c   15.10812998
_cell_angle_alpha   91.44817883
_cell_angle_beta   90.00000000
_cell_angle_gamma   90.00000000
_symmetry_Int_Tables_number   1
_chemical_formula_structural   Ba2LiEu(CuO2)4
_chemical_formula_sum   'Ba2 Li1 Eu1 Cu4 O8'
_cell_volume   236.63172576
_cell_formula_units_Z   1
loop_
 _symmetry_equiv_pos_site_id
 _symmetry_equiv_pos_as_xyz
  1  'x, y, z'
loop_
 _atom_site_type_symbol
 _atom_site_label
 _atom_site_symmetry_multiplicity
 _atom_site_fract_x
 _atom_site_fract_y
 _atom_site_fract_z
 _atom_site_occupancy
  Ba  Ba0  1  0.50000000  0.37673100  0.72898900  1
  Ba  Ba1  1  0.50000000  0.42348800  0.21121000  1
  Li  Li0  1  0.00000000  0.84034900  0.34971200  1
  Eu  Eu0  1  0.50000000  0.41503600  0.97192400  1
  Cu  Cu0  1  0.00000000  0.92582500  0.08406600  1
  Cu  Cu1  1  0.00000000  0.90121200  0.86550800  1
  Cu  Cu2  1  0.00000000  0.34202800  0.45491900  1
  Cu  Cu3  1  0.00000000  0.85653000  0.59033800  1
  O  O0  1  0.00000000  0.33110100  0.32485000  1
  O  O1  1  0.00000000  0.87225300  0.71203400  1
  O  O2  1  0.00000000  0.40241900  0.87830200  1
  O  O3  1  0.00000000  0.42648300  0.08429700  1
  O  O4  1  0.00000000  0.35488700  0.58110200  1
  O  O5  1  0.00000000  0.84253000  0.46709200  1
  O  O6  1  0.50000000  0.92639500  0.09136300  1
  O  O7  1  0.50000000  0.90440100  0.87744300  1
loop_
_geom_bond_atom_site_label_1
_geom_bond_atom_site_label_2
_geom_bond_distance
_geom_bond_site_symmetry_2
Ba0 O1 2.803445 1_555
Ba0 O1 2.803445 1_655
Ba0 O1 2.818746 1_545
Ba0 O1 2.818746 1_645
Ba0 O7 2.939723 1_545
Ba0 O4 3.002265 1_555
Ba0 O4 3.002265 1_655
Ba0 O7 3.007197 1_555
Ba0 O2 3.018496 1_555
Ba0 O2 3.018496 1_655
Ba1 O6 2.620949 1_545
Ba1 O0 2.670779 1_555
Ba1 O0 2.670779 1_655
Ba1 O6 2.704710 1_555
Ba1 O3 2.775183 1_555
Ba1 O3 2.775183 1_655
Li0 O5 1.773197 1_555
Li0 O0 1.962264 1_565
Li0 O0 2.014552 1_555
Eu0 O7 2.414067 1_555
Eu0 O7 2.422879 1_545
Eu0 O2 2.454274 1_555
Eu0 O2 2.454274 1_655
Eu0 O3 2.627618 1_656
Eu0 O3 2.627618 1_556
Eu0 O6 2.657447 1_556
Eu0 O6 2.659276 1_546
Cu0 O3 1.950146 1_555
Cu0 O3 1.955109 1_565
Cu0 O6 2.008985 1_455
Cu0 O6 2.008985 1_555
Cu1 O2 1.961992 1_565
Cu1 O2 1.962333 1_555
Cu1 O7 2.014058 1_455
Cu1 O7 2.014058 1_555
Cu1 O1 2.318605 1_555
Cu2 O4 1.905781 1_555
Cu2 O5 1.958585 1_555
Cu2 O5 1.963937 1_545
Cu2 O0 1.964484 1_555
Cu3 O1 1.838072 1_555
Cu3 O5 1.861437 1_555
Cu3 O4 1.954718 1_565
Cu3 O4 1.960483 1_555
