# generated using pymatgen
data_Ce3(SiRh)4
_symmetry_space_group_name_H-M   'P 1'
_cell_length_a   4.05027653
_cell_length_b   4.17565806
_cell_length_c   12.54404577
_cell_angle_alpha   80.41236512
_cell_angle_beta   80.69982545
_cell_angle_gamma   89.99889376
_symmetry_Int_Tables_number   1
_chemical_formula_structural   Ce3(SiRh)4
_chemical_formula_sum   'Ce3 Si4 Rh4'
_cell_volume   206.36009171
_cell_formula_units_Z   1
loop_
 _symmetry_equiv_pos_site_id
 _symmetry_equiv_pos_as_xyz
  1  'x, y, z'
loop_
 _atom_site_type_symbol
 _atom_site_label
 _atom_site_symmetry_multiplicity
 _atom_site_fract_x
 _atom_site_fract_y
 _atom_site_fract_z
 _atom_site_occupancy
  Ce  Ce0  1  0.00000638  0.00000374  -0.00001047  1
  Ce  Ce1  1  0.85560154  0.35562826  0.28871808  1
  Ce  Ce2  1  0.14438989  0.64436351  0.71130088  1
  Si  Si0  1  0.69849291  0.19850520  0.60298203  1
  Si  Si1  1  0.30150596  0.80149274  0.39702206  1
  Si  Si2  1  0.45158654  0.45159165  0.09669413  1
  Si  Si3  1  0.54841623  0.54841239  0.90329894  1
  Rh  Rh0  1  0.59917492  0.09911811  0.80175946  1
  Rh  Rh1  1  0.40082046  0.90087972  0.19824381  1
  Rh  Rh2  1  0.24983579  0.24989588  0.50030290  1
  Rh  Rh3  1  0.75017038  0.75010779  0.49968718  1
loop_
_geom_bond_atom_site_label_1
_geom_bond_atom_site_label_2
_geom_bond_distance
_geom_bond_site_symmetry_2
Ce0 Si3 3.138703 1_444
Ce0 Si3 3.138736 1_544
Ce0 Si2 3.138769 1_555
Ce0 Si2 3.138818 1_455
Ce0 Si3 3.138821 1_454
Ce0 Si2 3.138867 1_545
Ce0 Si3 3.138957 1_554
Ce0 Si2 3.139019 1_445
Ce0 Rh0 3.154464 1_554
Ce0 Rh0 3.154701 1_454
Ce0 Rh1 3.154704 1_445
Ce0 Rh1 3.154914 1_545
Ce1 Si2 3.096578 1_655
Ce1 Si2 3.097230 1_555
Ce1 Rh1 3.110902 1_655
Ce1 Rh1 3.110941 1_645
Ce1 Rh1 3.111184 1_555
Ce1 Rh1 3.111328 1_545
Ce1 Si1 3.194362 1_545
Ce1 Si1 3.194601 1_555
Ce1 Si1 3.194878 1_645
Ce1 Si1 3.195220 1_655
Ce1 Rh2 3.280858 1_555
Ce1 Rh2 3.281520 1_655
Ce1 Rh3 3.314316 1_545
Ce1 Rh3 3.314504 1_555
Ce2 Si3 3.096344 1_455
Ce2 Si3 3.096986 1_555
Ce2 Rh0 3.110849 1_455
Ce2 Rh0 3.110879 1_465
Ce2 Rh0 3.111111 1_555
Ce2 Rh0 3.111245 1_565
Ce2 Si0 3.194433 1_565
Ce2 Si0 3.194679 1_555
Ce2 Si0 3.194950 1_465
Ce2 Si0 3.195298 1_455
Ce2 Rh3 3.281136 1_555
Ce2 Rh3 3.281797 1_455
Ce2 Rh2 3.314583 1_565
Ce2 Rh2 3.314784 1_555
Si2 Si3 2.359727 1_554
Rh0 Si0 2.425399 1_555
Rh0 Si3 2.427404 1_545
Rh0 Si3 2.428111 1_555
Rh1 Si1 2.425409 1_555
Rh1 Si2 2.427472 1_565
Rh1 Si2 2.428171 1_555
Rh2 Si0 2.381181 1_455
Rh2 Si0 2.381512 1_555
Rh2 Si1 2.438388 1_555
Rh2 Si1 2.438950 1_545
Rh3 Si1 2.381090 1_655
Rh3 Si1 2.381423 1_555
Rh3 Si0 2.438472 1_555
Rh3 Si0 2.439043 1_565
