# generated using pymatgen
data_CaSn3P3O13
_symmetry_space_group_name_H-M   'P 1'
_cell_length_a   6.88282000
_cell_length_b   7.72538400
_cell_length_c   11.13359564
_cell_angle_alpha   81.90613544
_cell_angle_beta   90.00000000
_cell_angle_gamma   90.00000000
_symmetry_Int_Tables_number   1
_chemical_formula_structural   CaSn3P3O13
_chemical_formula_sum   'Ca2 Sn6 P6 O26'
_cell_volume   586.10323808
_cell_formula_units_Z   2
loop_
 _symmetry_equiv_pos_site_id
 _symmetry_equiv_pos_as_xyz
  1  'x, y, z'
loop_
 _atom_site_type_symbol
 _atom_site_label
 _atom_site_symmetry_multiplicity
 _atom_site_fract_x
 _atom_site_fract_y
 _atom_site_fract_z
 _atom_site_occupancy
  Ca  Ca0  1  0.75000000  0.35659000  0.20285700  1
  Ca  Ca1  1  0.25000000  0.64341000  0.79714300  1
  Sn  Sn0  1  0.25000000  0.67554900  0.24288500  1
  Sn  Sn1  1  0.75000000  0.32445100  0.75711500  1
  Sn  Sn2  1  0.25000000  0.23967600  0.45608500  1
  Sn  Sn3  1  0.50000000  0.00000000  0.00000000  1
  Sn  Sn4  1  0.75000000  0.76032400  0.54391500  1
  Sn  Sn5  1  0.00000000  0.00000000  0.00000000  1
  P  P0  1  0.25000000  0.78640400  0.51850100  1
  P  P1  1  0.75000000  0.21359600  0.48149900  1
  P  P2  1  0.25000000  0.23204700  0.75963600  1
  P  P3  1  0.75000000  0.76795300  0.24036400  1
  P  P4  1  0.75000000  0.66015800  0.90632600  1
  P  P5  1  0.25000000  0.33984200  0.09367400  1
  O  O0  1  0.75000000  0.57823200  0.78234600  1
  O  O1  1  0.57563000  0.24941400  0.39444400  1
  O  O2  1  0.25000000  0.12425600  0.65652500  1
  O  O3  1  0.56086900  0.77650100  0.89644800  1
  O  O4  1  0.75000000  0.35595700  0.57426900  1
  O  O5  1  0.75000000  0.13234900  0.90321600  1
  O  O6  1  0.25000000  0.64404300  0.42573100  1
  O  O7  1  0.06086900  0.22349900  0.10355200  1
  O  O8  1  0.25000000  0.96208700  0.43441400  1
  O  O9  1  0.75000000  0.03791300  0.56558600  1
  O  O10  1  0.06961100  0.35327200  0.76425200  1
  O  O11  1  0.25000000  0.86765100  0.09678400  1
  O  O12  1  0.56961100  0.64672800  0.23574800  1
  O  O13  1  0.75000000  0.51737000  0.01327600  1
  O  O14  1  0.75000000  0.87574400  0.34347500  1
  O  O15  1  0.43913100  0.22349900  0.10355200  1
  O  O16  1  0.92437000  0.24941400  0.39444400  1
  O  O17  1  0.42437000  0.75058600  0.60555600  1
  O  O18  1  0.43038900  0.35327200  0.76425200  1
  O  O19  1  0.25000000  0.42176800  0.21765400  1
  O  O20  1  0.75000000  0.90654700  0.11785700  1
  O  O21  1  0.25000000  0.09345300  0.88214300  1
  O  O22  1  0.93038900  0.64672800  0.23574800  1
  O  O23  1  0.93913100  0.77650100  0.89644800  1
  O  O24  1  0.07563000  0.75058600  0.60555600  1
  O  O25  1  0.25000000  0.48263000  0.98672400  1
loop_
_geom_bond_atom_site_label_1
_geom_bond_atom_site_label_2
_geom_bond_distance
_geom_bond_site_symmetry_2
Ca0 O13 2.293396 1_555
Ca0 O1 2.485661 1_555
Ca0 O16 2.485661 1_555
Ca0 O22 2.632633 1_555
Ca0 O12 2.632633 1_555
Ca0 O15 2.679138 1_555
Ca0 O7 2.679138 1_655
Ca1 O25 2.293396 1_555
Ca1 O17 2.485661 1_555
Ca1 O24 2.485661 1_555
Ca1 O18 2.632633 1_555
Ca1 O10 2.632633 1_555
Ca1 O3 2.679138 1_555
Ca1 O23 2.679138 1_455
O0 P4 1.597476 1_555
O0 Sn1 2.019350 1_555
O1 P1 1.542997 1_555
O1 Sn2 2.342077 1_555
O2 P2 1.510139 1_555
O2 Sn2 2.283607 1_555
O3 P4 1.576914 1_555
O3 Sn3 2.246431 1_566
O4 P1 1.611280 1_555
O4 Sn1 2.015918 1_555
O5 Sn1 2.041714 1_555
O5 Sn5 2.203884 1_656
O5 Sn3 2.203884 1_556
O6 P0 1.611280 1_555
O6 Sn0 2.015918 1_555
O7 P5 1.576914 1_555
O7 Sn5 2.246431 1_555
O8 P0 1.536458 1_555
O8 Sn2 2.191510 1_565
O9 P1 1.536458 1_555
O9 Sn4 2.191510 1_545
O10 P2 1.560377 1_555
O10 Sn1 2.213617 1_455
O11 Sn0 2.041714 1_555
O11 Sn5 2.203884 1_565
O11 Sn3 2.203884 1_565
O12 P3 1.560377 1_555
O12 Sn0 2.213617 1_555
O13 P4 1.504926 1_554
O14 P3 1.510139 1_555
O14 Sn4 2.283607 1_555
O15 P5 1.576914 1_555
O15 Sn3 2.246431 1_555
O16 P1 1.542997 1_555
O16 Sn2 2.342077 1_655
O17 P0 1.542997 1_555
O17 Sn4 2.342077 1_555
O18 P2 1.560377 1_555
O18 Sn1 2.213617 1_555
O19 P5 1.597476 1_555
O19 Sn0 2.019350 1_555
O20 P3 1.611055 1_555
O20 Sn5 2.221956 1_665
O20 Sn3 2.221956 1_565
O21 P2 1.611055 1_555
O21 Sn3 2.221956 1_556
O21 Sn5 2.221956 1_556
O22 P3 1.560377 1_555
O22 Sn0 2.213617 1_655
O23 P4 1.576914 1_555
O23 Sn5 2.246431 1_666
O24 P0 1.542997 1_555
O24 Sn4 2.342077 1_455
O25 P5 1.504926 1_556
