# generated using pymatgen
data_Eu(SbS2)2
_symmetry_space_group_name_H-M   'P 1'
_cell_length_a   4.00211300
_cell_length_b   11.47656100
_cell_length_c   14.33088200
_cell_angle_alpha   90.00000000
_cell_angle_beta   90.00000000
_cell_angle_gamma   90.00000000
_symmetry_Int_Tables_number   1
_chemical_formula_structural   Eu(SbS2)2
_chemical_formula_sum   'Eu4 Sb8 S16'
_cell_volume   658.22448933
_cell_formula_units_Z   4
loop_
 _symmetry_equiv_pos_site_id
 _symmetry_equiv_pos_as_xyz
  1  'x, y, z'
loop_
 _atom_site_type_symbol
 _atom_site_label
 _atom_site_symmetry_multiplicity
 _atom_site_fract_x
 _atom_site_fract_y
 _atom_site_fract_z
 _atom_site_occupancy
  Eu  Eu0  1  0.25000000  0.26315500  0.34816600  1
  Eu  Eu1  1  0.25000000  0.76315500  0.15183400  1
  Eu  Eu2  1  0.75000000  0.73684500  0.65183400  1
  Eu  Eu3  1  0.75000000  0.23684500  0.84816600  1
  Sb  Sb0  1  0.25000000  0.06822500  0.60918000  1
  Sb  Sb1  1  0.25000000  0.56822500  0.89082000  1
  Sb  Sb2  1  0.75000000  0.93177500  0.39082000  1
  Sb  Sb3  1  0.75000000  0.43177500  0.10918000  1
  Sb  Sb4  1  0.25000000  0.10910300  0.09435500  1
  Sb  Sb5  1  0.25000000  0.60910300  0.40564500  1
  Sb  Sb6  1  0.75000000  0.89089700  0.90564500  1
  Sb  Sb7  1  0.75000000  0.39089700  0.59435500  1
  S  S0  1  0.25000000  0.32462500  0.98903600  1
  S  S1  1  0.25000000  0.82462500  0.51096400  1
  S  S2  1  0.75000000  0.67537500  0.01096400  1
  S  S3  1  0.75000000  0.17537500  0.48903600  1
  S  S4  1  0.25000000  0.26103500  0.69788600  1
  S  S5  1  0.25000000  0.76103500  0.80211400  1
  S  S6  1  0.75000000  0.73896500  0.30211400  1
  S  S7  1  0.75000000  0.23896500  0.19788600  1
  S  S8  1  0.25000000  0.05642500  0.91292100  1
  S  S9  1  0.25000000  0.55642500  0.58707900  1
  S  S10  1  0.75000000  0.94357500  0.08707900  1
  S  S11  1  0.75000000  0.44357500  0.41292100  1
  S  S12  1  0.25000000  0.00804300  0.28635300  1
  S  S13  1  0.25000000  0.50804300  0.21364700  1
  S  S14  1  0.75000000  0.99195700  0.71364700  1
  S  S15  1  0.75000000  0.49195700  0.78635300  1
loop_
_geom_bond_atom_site_label_1
_geom_bond_atom_site_label_2
_geom_bond_distance
_geom_bond_site_symmetry_2
Eu0 S7 2.952877 1_455
Eu0 S7 2.952877 1_555
Eu0 S3 3.015730 1_455
Eu0 S3 3.015730 1_555
Eu0 S11 3.025358 1_555
Eu0 S11 3.025358 1_455
Eu0 S12 3.058883 1_555
Eu0 S13 3.408089 1_555
Eu1 S6 2.952877 1_555
Eu1 S6 2.952877 1_455
Eu1 S2 3.015730 1_455
Eu1 S2 3.015730 1_555
Eu1 S10 3.025358 1_455
Eu1 S10 3.025358 1_555
Eu1 S13 3.058883 1_555
Eu1 S12 3.408089 1_565
Eu2 S5 2.952877 1_655
Eu2 S5 2.952877 1_555
Eu2 S1 3.015730 1_555
Eu2 S1 3.015730 1_655
Eu2 S9 3.025358 1_555
Eu2 S9 3.025358 1_655
Eu2 S14 3.058883 1_555
Eu2 S15 3.408089 1_555
Eu3 S4 2.952877 1_555
Eu3 S4 2.952877 1_655
Eu3 S0 3.015730 1_655
Eu3 S0 3.015730 1_555
Eu3 S8 3.025358 1_655
Eu3 S8 3.025358 1_555
Eu3 S15 3.058883 1_555
Eu3 S14 3.408089 1_545
S0 Sb4 2.897584 1_556
S0 Sb3 2.912201 1_456
S0 Sb3 2.912201 1_556
S0 Sb1 3.130016 1_555
S1 Sb5 2.897584 1_555
S1 Sb2 2.912201 1_455
S1 Sb2 2.912201 1_555
S1 Sb0 3.130016 1_565
S2 Sb6 2.897584 1_554
S2 Sb1 2.912201 1_654
S2 Sb1 2.912201 1_554
S2 Sb3 3.130016 1_555
S3 Sb7 2.897584 1_555
S3 Sb0 2.912201 1_655
S3 Sb0 2.912201 1_555
S3 Sb2 3.130016 1_545
S4 Sb0 2.551961 1_555
S4 Sb7 2.902889 1_455
S4 Sb7 2.902889 1_555
S5 Sb1 2.551961 1_555
S5 Sb6 2.902889 1_455
S5 Sb6 2.902889 1_555
S6 Sb2 2.551961 1_555
S6 Sb5 2.902889 1_555
S6 Sb5 2.902889 1_655
S7 Sb3 2.551961 1_555
S7 Sb4 2.902889 1_555
S7 Sb4 2.902889 1_655
S8 Sb4 2.669469 1_556
S8 Sb6 2.761147 1_445
S8 Sb6 2.761147 1_545
S9 Sb5 2.669469 1_555
S9 Sb7 2.761147 1_455
S9 Sb7 2.761147 1_555
S10 Sb6 2.669469 1_554
S10 Sb4 2.761147 1_665
S10 Sb4 2.761147 1_565
S11 Sb7 2.669469 1_555
S11 Sb5 2.761147 1_555
S11 Sb5 2.761147 1_655
S12 Sb2 2.647959 1_545
S12 Sb2 2.647959 1_445
S12 Sb4 2.985957 1_555
S13 Sb3 2.647959 1_555
S13 Sb3 2.647959 1_455
S13 Sb5 2.985957 1_555
S14 Sb0 2.647959 1_665
S14 Sb0 2.647959 1_565
S14 Sb6 2.985957 1_555
S15 Sb1 2.647959 1_655
S15 Sb1 2.647959 1_555
S15 Sb7 2.985957 1_555
