# generated using pymatgen
data_SmFeNi4
_symmetry_space_group_name_H-M   'P 1'
_cell_length_a   4.97344910
_cell_length_b   4.97344910
_cell_length_c   3.94447500
_cell_angle_alpha   90.00000000
_cell_angle_beta   90.00000000
_cell_angle_gamma   119.99998797
_symmetry_Int_Tables_number   1
_chemical_formula_structural   SmFeNi4
_chemical_formula_sum   'Sm1 Fe1 Ni4'
_cell_volume   84.49582420
_cell_formula_units_Z   1
loop_
 _symmetry_equiv_pos_site_id
 _symmetry_equiv_pos_as_xyz
  1  'x, y, z'
loop_
 _atom_site_type_symbol
 _atom_site_label
 _atom_site_symmetry_multiplicity
 _atom_site_fract_x
 _atom_site_fract_y
 _atom_site_fract_z
 _atom_site_occupancy
  Sm  Sm0  1  0.66666700  0.33333300  0.00000000  1
  Fe  Fe0  1  0.00000000  0.00000000  0.00000000  1
  Ni  Ni0  1  0.33333300  0.66666700  0.00000000  1
  Ni  Ni1  1  0.66609800  0.83304900  0.50000000  1
  Ni  Ni2  1  0.16695100  0.83304900  0.50000000  1
  Ni  Ni3  1  0.16695100  0.33390200  0.50000000  1
loop_
_geom_bond_atom_site_label_1
_geom_bond_atom_site_label_2
_geom_bond_distance
_geom_bond_site_symmetry_2
Fe0 Ni2 2.440907 1_545
Fe0 Ni2 2.440907 1_544
Fe0 Ni1 2.440907 1_444
Fe0 Ni1 2.440907 1_445
Fe0 Ni3 2.440907 1_554
Fe0 Ni3 2.440907 1_555
Fe0 Ni0 2.871419 1_545
Fe0 Sm0 2.871419 1_455
Fe0 Ni0 2.871424 1_445
Fe0 Sm0 2.871424 1_555
Fe0 Sm0 2.871424 1_445
Fe0 Ni0 2.871424 1_555
Ni0 Ni2 2.438022 1_554
Ni0 Ni2 2.438022 1_555
Ni0 Ni3 2.438025 1_554
Ni0 Ni1 2.438025 1_554
Ni0 Ni3 2.438025 1_555
Ni0 Ni1 2.438025 1_555
Ni0 Sm0 2.871420 1_455
Ni0 Sm0 2.871420 1_565
Ni0 Sm0 2.871428 1_555
Ni1 Ni2 2.482482 1_555
Ni1 Ni3 2.482483 1_555
Ni1 Ni2 2.490967 1_655
Ni1 Ni3 2.490967 1_665
Ni1 Sm0 3.173880 1_566
Ni1 Sm0 3.173880 1_565
Ni1 Sm0 3.173884 1_556
Ni1 Sm0 3.173884 1_555
Ni2 Ni3 2.482482 1_555
Ni2 Ni3 2.490967 1_565
Ni2 Sm0 3.173882 1_455
Ni2 Sm0 3.173882 1_456
Ni2 Sm0 3.173882 1_565
Ni2 Sm0 3.173882 1_566
Ni3 Sm0 3.173880 1_456
Ni3 Sm0 3.173880 1_455
Ni3 Sm0 3.173884 1_556
Ni3 Sm0 3.173884 1_555
