# generated using pymatgen
data_Eu2Ni2O5
_symmetry_space_group_name_H-M   'P 1'
_cell_length_a   5.38016152
_cell_length_b   5.66372477
_cell_length_c   8.66217675
_cell_angle_alpha   109.08987072
_cell_angle_beta   107.74734432
_cell_angle_gamma   89.85464157
_symmetry_Int_Tables_number   1
_chemical_formula_structural   Eu2Ni2O5
_chemical_formula_sum   'Eu4 Ni4 O10'
_cell_volume   236.17732922
_cell_formula_units_Z   2
loop_
 _symmetry_equiv_pos_site_id
 _symmetry_equiv_pos_as_xyz
  1  'x, y, z'
loop_
 _atom_site_type_symbol
 _atom_site_label
 _atom_site_symmetry_multiplicity
 _atom_site_fract_x
 _atom_site_fract_y
 _atom_site_fract_z
 _atom_site_occupancy
  Eu  Eu0  1  0.40012200  0.91229400  0.78379200  1
  Eu  Eu1  1  0.61349900  0.08719400  0.21727400  1
  Eu  Eu2  1  0.89790400  0.36967600  0.78226100  1
  Eu  Eu3  1  0.11312900  0.62756300  0.21622100  1
  Ni  Ni0  1  0.99494500  0.99863600  0.99330700  1
  Ni  Ni1  1  0.50060000  0.50471900  0.00541500  1
  Ni  Ni2  1  0.78989900  0.68786300  0.49965600  1
  Ni  Ni3  1  0.29368400  0.31800000  0.49970800  1
  O  O0  1  0.76491600  0.26882500  0.02680300  1
  O  O1  1  0.73866200  0.73376400  0.97422500  1
  O  O2  1  0.26461500  0.25883500  0.02570000  1
  O  O3  1  0.23715200  0.73988300  0.97335800  1
  O  O4  1  0.83977700  0.93245000  0.72709900  1
  O  O5  1  0.11639200  0.07814500  0.28933500  1
  O  O6  1  0.32814100  0.28684100  0.71098700  1
  O  O7  1  0.61031600  0.70418700  0.27269700  1
  O  O8  1  0.16359700  0.62899800  0.50241100  1
  O  O9  1  0.64585200  0.36212500  0.49975300  1
loop_
_geom_bond_atom_site_label_1
_geom_bond_atom_site_label_2
_geom_bond_distance
_geom_bond_site_symmetry_2
Eu0 O8 2.386632 1_555
Eu0 O6 2.402030 1_565
Eu0 O1 2.512163 1_555
Eu0 O3 2.519833 1_555
Eu0 O4 2.568189 1_555
Eu0 O2 2.647372 1_566
Eu0 O0 2.661146 1_566
Eu0 O4 2.911228 1_455
Eu1 O7 2.371244 1_545
Eu1 O9 2.385731 1_555
Eu1 O2 2.523709 1_555
Eu1 O0 2.525446 1_555
Eu1 O5 2.589091 1_655
Eu1 O1 2.644559 1_544
Eu1 O3 2.669628 1_544
Eu1 O5 2.929962 1_555
Eu2 O4 2.365837 1_545
Eu2 O9 2.395410 1_555
Eu2 O1 2.523476 1_555
Eu2 O3 2.524894 1_655
Eu2 O6 2.575962 1_655
Eu2 O0 2.653813 1_556
Eu2 O2 2.656427 1_656
Eu2 O6 2.943147 1_555
Eu3 O8 2.407456 1_555
Eu3 O5 2.418728 1_565
Eu3 O0 2.508957 1_455
Eu3 O2 2.511202 1_555
Eu3 O7 2.579194 1_555
Eu3 O3 2.647428 1_554
Eu3 O1 2.656844 1_454
Eu3 O7 2.899625 1_455
Ni0 O3 1.958983 1_655
Ni0 O2 1.961559 1_666
Ni0 O0 1.968869 1_566
Ni0 O1 1.971897 1_555
Ni0 O4 2.101762 1_555
Ni0 O5 2.330198 1_666
Ni1 O0 1.957865 1_555
Ni1 O1 1.960859 1_554
Ni1 O3 1.962772 1_554
Ni1 O2 1.971618 1_555
Ni1 O7 2.108181 1_555
Ni1 O6 2.322227 1_554
Ni2 O4 1.940848 1_555
Ni2 O7 1.941003 1_555
Ni2 O9 2.003224 1_555
Ni2 O8 2.031405 1_655
Ni3 O5 1.844906 1_555
Ni3 O6 1.849098 1_555
Ni3 O8 1.889367 1_555
Ni3 O9 1.911625 1_555
