# generated using pymatgen
data_Mg14MnNi
_symmetry_space_group_name_H-M   'P 1'
_cell_length_a   6.25070668
_cell_length_b   6.24384572
_cell_length_c   9.82728735
_cell_angle_alpha   90.00000000
_cell_angle_beta   90.00000000
_cell_angle_gamma   119.96370240
_symmetry_Int_Tables_number   1
_chemical_formula_structural   Mg14MnNi
_chemical_formula_sum   'Mg14 Mn1 Ni1'
_cell_volume   332.28007583
_cell_formula_units_Z   1
loop_
 _symmetry_equiv_pos_site_id
 _symmetry_equiv_pos_as_xyz
  1  'x, y, z'
loop_
 _atom_site_type_symbol
 _atom_site_label
 _atom_site_symmetry_multiplicity
 _atom_site_fract_x
 _atom_site_fract_y
 _atom_site_fract_z
 _atom_site_occupancy
  Mg  Mg0  1  0.17116333  0.33558117  0.62500000  1
  Mg  Mg1  1  0.17007625  0.83503762  0.62500000  1
  Mg  Mg2  1  0.67575040  0.33441621  0.12500000  1
  Mg  Mg3  1  0.66537295  0.33335659  0.62500000  1
  Mg  Mg4  1  0.67575040  0.84133319  0.12500000  1
  Mg  Mg5  1  0.66537295  0.83201535  0.62500000  1
  Mg  Mg6  1  0.32243607  0.15732711  0.35462713  1
  Mg  Mg7  1  0.32243607  0.15732711  0.89537287  1
  Mg  Mg8  1  0.32243607  0.66510996  0.35462713  1
  Mg  Mg9  1  0.32243607  0.66510996  0.89537287  1
  Mg  Mg10  1  0.83905775  0.16952937  0.37276586  1
  Mg  Mg11  1  0.83905775  0.16952937  0.87723414  1
  Mg  Mg12  1  0.84404129  0.67202115  0.36486543  1
  Mg  Mg13  1  0.84404129  0.67202115  0.88513457  1
  Mn  Mn0  1  0.15699481  0.32849690  0.12500000  1
  Ni  Ni0  1  0.16357657  0.83178779  0.12500000  1
loop_
_geom_bond_atom_site_label_1
_geom_bond_atom_site_label_2
_geom_bond_distance
_geom_bond_site_symmetry_2
Mg0 Mg11 3.062467 1_455
Mg0 Mg10 3.062467 1_455
Mg0 Mg5 3.096120 1_555
Mg0 Mg3 3.096120 1_555
Mg0 Mg1 3.121928 1_555
Mg0 Mg1 3.121928 1_545
Mg0 Mg5 3.154633 1_445
Mg0 Mg3 3.154633 1_455
Mg0 Mg6 3.200609 1_555
Mg0 Mg7 3.200609 1_555
Mg0 Mg8 3.200615 1_555
Mg0 Mg9 3.200615 1_555
Mg1 Mg3 3.105422 1_565
Mg1 Mg5 3.105422 1_555
Mg1 Mg12 3.106843 1_455
Mg1 Mg13 3.106843 1_455
Mg1 Mg3 3.145370 1_455
Mg1 Mg5 3.145370 1_455
Mg1 Mg9 3.178344 1_555
Mg1 Mg8 3.178344 1_555
Mg1 Mg6 3.178350 1_565
Mg1 Mg7 3.178350 1_565
Mg2 Mg6 2.958541 1_555
Mg2 Mg7 2.958541 1_554
Mg2 Mn0 3.026746 1_655
Mg2 Mg4 3.078734 1_545
Mg2 Ni0 3.079458 1_655
Mg2 Mg4 3.165111 1_555
Mg2 Ni0 3.172101 1_545
Mg2 Mn0 3.224289 1_555
Mg3 Mg5 3.113548 1_555
Mg3 Mg5 3.130297 1_545
Mg3 Mg7 3.241822 1_555
Mg3 Mg6 3.241822 1_555
Mg4 Mg8 2.958541 1_555
Mg4 Mg9 2.958541 1_554
Mg4 Mn0 3.026746 1_665
Mg4 Ni0 3.079459 1_655
Mg4 Ni0 3.172101 1_555
Mg4 Mn0 3.224288 1_555
Mg5 Mg9 3.241822 1_555
Mg5 Mg8 3.241822 1_555
Mg6 Ni0 2.862465 1_545
Mg6 Mn0 2.899650 1_555
Mg7 Ni0 2.862465 1_546
Mg7 Mn0 2.899650 1_556
Mg8 Ni0 2.862458 1_555
Mg8 Mn0 2.899657 1_555
Mg9 Ni0 2.862458 1_556
Mg9 Mn0 2.899657 1_556
Mg10 Mn0 2.982089 1_655
Mg10 Mg2 3.013351 1_555
Mg10 Mg4 3.013357 1_545
Mg10 Mg8 3.065408 1_655
Mg10 Mg6 3.065408 1_655
Mg10 Mg3 3.078739 1_555
Mg10 Mg5 3.078746 1_545
Mg10 Mg12 3.123005 1_545
Mg10 Mg12 3.123005 1_555
Mg10 Mg8 3.196854 1_545
Mg10 Mg6 3.196854 1_555
Mg11 Mn0 2.982089 1_656
Mg11 Mg2 3.013351 1_556
Mg11 Mg4 3.013357 1_546
Mg11 Mg9 3.065408 1_655
Mg11 Mg7 3.065408 1_655
Mg11 Mg3 3.078739 1_555
Mg11 Mg5 3.078746 1_545
Mg11 Mg13 3.123005 1_545
Mg11 Mg13 3.123005 1_555
Mg11 Mg9 3.196854 1_545
Mg11 Mg7 3.196854 1_555
Mg12 Ni0 2.924154 1_655
Mg12 Mg4 2.981864 1_555
Mg12 Mg2 2.981871 1_555
Mg12 Mg5 3.145619 1_555
Mg12 Mg3 3.145625 1_555
Mg13 Ni0 2.924154 1_656
Mg13 Mg4 2.981864 1_556
Mg13 Mg2 2.981871 1_556
Mg13 Mg5 3.145619 1_555
Mg13 Mg3 3.145625 1_555
Mn0 Ni0 3.122126 1_545
Mn0 Ni0 3.122126 1_555
