# generated using pymatgen
data_Li2CoCSO7
_symmetry_space_group_name_H-M   'P 1'
_cell_length_a   6.44769997
_cell_length_b   10.02632992
_cell_length_c   8.77792604
_cell_angle_alpha   85.31487706
_cell_angle_beta   90.13460061
_cell_angle_gamma   89.96140904
_symmetry_Int_Tables_number   1
_chemical_formula_structural   Li2CoCSO7
_chemical_formula_sum   'Li8 Co4 C4 S4 O28'
_cell_volume   565.56665709
_cell_formula_units_Z   4
loop_
 _symmetry_equiv_pos_site_id
 _symmetry_equiv_pos_as_xyz
  1  'x, y, z'
loop_
 _atom_site_type_symbol
 _atom_site_label
 _atom_site_symmetry_multiplicity
 _atom_site_fract_x
 _atom_site_fract_y
 _atom_site_fract_z
 _atom_site_occupancy
  Li  Li0  1  0.51902100  0.10839800  0.19133300  1
  Li  Li1  1  0.51760600  0.60945400  0.19029100  1
  Li  Li2  1  0.98319000  0.10794400  0.19068900  1
  Li  Li3  1  0.98128600  0.60802300  0.19107800  1
  Li  Li4  1  0.48208200  0.39210200  0.80902100  1
  Li  Li5  1  0.48120100  0.89149200  0.80870700  1
  Li  Li6  1  0.01838000  0.39146500  0.81010700  1
  Li  Li7  1  0.01786300  0.89085400  0.80957100  1
  Co  Co0  1  0.75446700  0.88642000  0.35246900  1
  Co  Co1  1  0.25253500  0.61448100  0.64848400  1
  Co  Co2  1  0.75209900  0.38566900  0.35118800  1
  Co  Co3  1  0.25051400  0.11457200  0.64876300  1
  C  C0  1  0.74922400  0.36621000  0.06591100  1
  C  C1  1  0.74927200  0.86701600  0.06587500  1
  C  C2  1  0.24975000  0.13417200  0.93385800  1
  C  C3  1  0.24879900  0.63390500  0.93402900  1
  S  S0  1  0.25015400  0.36787300  0.41580000  1
  S  S1  1  0.25121200  0.86750300  0.41643900  1
  S  S2  1  0.74931900  0.13170100  0.58335500  1
  S  S3  1  0.75003200  0.63167600  0.58448000  1
  O  O0  1  0.25017800  0.14564800  0.07729400  1
  O  O1  1  0.24811100  0.64566300  0.07748400  1
  O  O2  1  0.75005800  0.35435500  0.92254100  1
  O  O3  1  0.74919300  0.85458800  0.92259200  1
  O  O4  1  0.75207400  0.48303200  0.12343200  1
  O  O5  1  0.75510100  0.98392400  0.12268400  1
  O  O6  1  0.25151300  0.01757300  0.87590400  1
  O  O7  1  0.25329900  0.51725900  0.87646000  1
  O  O8  1  0.74571300  0.26208600  0.16787700  1
  O  O9  1  0.74310100  0.76292000  0.16809500  1
  O  O10  1  0.24757400  0.23850300  0.83206400  1
  O  O11  1  0.24526700  0.73812700  0.83218700  1
  O  O12  1  0.74803000  0.08271200  0.42728700  1
  O  O13  1  0.75076900  0.58249700  0.42866000  1
  O  O14  1  0.25025700  0.41774000  0.57114900  1
  O  O15  1  0.25062800  0.91665800  0.57216400  1
  O  O16  1  0.24862600  0.21811700  0.43387900  1
  O  O17  1  0.24980500  0.71776000  0.43338800  1
  O  O18  1  0.75033800  0.28131200  0.56594400  1
  O  O19  1  0.74658000  0.78127000  0.56718300  1
  O  O20  1  0.06641400  0.41791500  0.32563400  1
  O  O21  1  0.06713300  0.91832700  0.32687100  1
  O  O22  1  0.43467400  0.41630500  0.32678700  1
  O  O23  1  0.43572400  0.91696300  0.32839800  1
  O  O24  1  0.56586600  0.08236800  0.67323800  1
  O  O25  1  0.56684100  0.58062000  0.67377500  1
  O  O26  1  0.93399500  0.08156900  0.67192300  1
  O  O27  1  0.93513200  0.58326000  0.67365900  1
loop_
_geom_bond_atom_site_label_1
_geom_bond_atom_site_label_2
_geom_bond_distance
_geom_bond_site_symmetry_2
Li0 O0 2.018956 1_555
Li0 O5 2.088608 1_545
Li0 O8 2.122702 1_555
Li0 O23 2.246608 1_545
Li0 O12 2.536615 1_555
Li1 O1 2.015935 1_555
Li1 O4 2.087989 1_555
Li1 O9 2.115379 1_555
Li1 O22 2.257693 1_555
Li1 O13 2.569732 1_555
Li2 O0 2.011107 1_655
Li2 O5 2.045716 1_545
Li2 O8 2.172080 1_555
Li2 O21 2.227251 1_645
Li2 O12 2.570162 1_555
Li3 O1 2.010954 1_655
Li3 O4 2.056014 1_555
Li3 O9 2.180670 1_555
Li3 O20 2.226489 1_655
Li3 O13 2.559629 1_555
Li4 O2 2.012710 1_555
Li4 O7 2.055255 1_555
Li4 O10 2.156980 1_555
Li4 O25 2.217785 1_555
Li4 O14 2.560722 1_555
Li5 O3 2.013108 1_555
Li5 O6 2.064601 1_565
Li5 O11 2.161935 1_555
Li5 O24 2.237703 1_565
Li5 O15 2.546469 1_555
Li6 O2 2.013578 1_455
Li6 O7 2.083916 1_555
Li6 O10 2.126114 1_555
Li6 O27 2.244979 1_455
Li6 O14 2.574758 1_555
Li7 O3 2.016762 1_455
Li7 O6 2.083779 1_565
Li7 O11 2.116613 1_555
Li7 O26 2.242059 1_465
Li7 O15 2.566960 1_555
Co0 O21 2.051401 1_655
Co0 O19 2.083807 1_555
Co0 O23 2.085341 1_555
Co0 O9 2.117750 1_555
Co0 O12 2.125459 1_565
Co0 O5 2.168430 1_555
Co1 O25 2.063032 1_555
Co1 O17 2.077962 1_555
Co1 O27 2.080085 1_455
Co1 O11 2.113337 1_555
Co1 O14 2.137965 1_555
Co1 O7 2.153168 1_555
Co2 O20 2.062319 1_655
Co2 O22 2.077353 1_555
Co2 O18 2.080014 1_555
Co2 O8 2.109896 1_555
Co2 O13 2.139235 1_555
Co2 O4 2.151984 1_555
Co3 O24 2.066503 1_555
Co3 O26 2.075485 1_455
Co3 O16 2.077455 1_555
Co3 O10 2.111860 1_555
Co3 O6 2.145785 1_555
Co3 O15 2.146557 1_545
C0 O2 1.273744 1_554
C0 O4 1.312939 1_555
C0 O8 1.318714 1_555
C1 O3 1.273972 1_554
C1 O5 1.311294 1_555
C1 O9 1.320320 1_555
C2 O0 1.273639 1_556
C2 O6 1.312549 1_555
C2 O10 1.319120 1_555
C3 O1 1.274313 1_556
C3 O7 1.311709 1_555
C3 O11 1.318675 1_555
O12 S2 1.492640 1_555
O13 S3 1.491365 1_555
O14 S0 1.490261 1_555
O15 S1 1.490475 1_555
O16 S0 1.496962 1_555
O17 S1 1.496620 1_555
O18 S2 1.495365 1_555
O19 S3 1.495300 1_555
O20 S0 1.487146 1_555
O21 S1 1.488578 1_555
O22 S0 1.484901 1_555
O23 S1 1.483579 1_555
O24 S2 1.485837 1_555
O25 S3 1.487006 1_555
O26 S2 1.485235 1_555
O27 S3 1.485111 1_555
