# generated using pymatgen
data_CaMgV2O7
_symmetry_space_group_name_H-M   'P 1'
_cell_length_a   14.68509600
_cell_length_b   6.84190200
_cell_length_c   11.43823376
_cell_angle_alpha   80.57619941
_cell_angle_beta   90.00000000
_cell_angle_gamma   90.00000000
_symmetry_Int_Tables_number   1
_chemical_formula_structural   CaMgV2O7
_chemical_formula_sum   'Ca8 Mg8 V16 O56'
_cell_volume   1133.73501361
_cell_formula_units_Z   8
loop_
 _symmetry_equiv_pos_site_id
 _symmetry_equiv_pos_as_xyz
  1  'x, y, z'
loop_
 _atom_site_type_symbol
 _atom_site_label
 _atom_site_symmetry_multiplicity
 _atom_site_fract_x
 _atom_site_fract_y
 _atom_site_fract_z
 _atom_site_occupancy
  Ca  Ca0  1  0.87062500  0.67402500  0.97101900  1
  Ca  Ca1  1  0.37062500  0.32597500  0.52898100  1
  Ca  Ca2  1  0.12937500  0.32597500  0.02898100  1
  Ca  Ca3  1  0.62937500  0.67402500  0.47101900  1
  Ca  Ca4  1  0.99211300  0.92231400  0.22811200  1
  Ca  Ca5  1  0.49211300  0.07768600  0.27188800  1
  Ca  Ca6  1  0.00788700  0.07768600  0.77188800  1
  Ca  Ca7  1  0.50788700  0.92231400  0.72811200  1
  Mg  Mg0  1  0.74593000  0.99701000  0.74716000  1
  Mg  Mg1  1  0.24593000  0.00299000  0.75284000  1
  Mg  Mg2  1  0.25407000  0.00299000  0.25284000  1
  Mg  Mg3  1  0.75407000  0.99701000  0.24716000  1
  Mg  Mg4  1  0.82587600  0.36255100  0.57389200  1
  Mg  Mg5  1  0.32587600  0.63744900  0.92610800  1
  Mg  Mg6  1  0.17412400  0.63744900  0.42610800  1
  Mg  Mg7  1  0.67412400  0.36255100  0.07389200  1
  V  V0  1  0.79507600  0.49090600  0.29318100  1
  V  V1  1  0.29507600  0.50909400  0.20681900  1
  V  V2  1  0.20492400  0.50909400  0.70681900  1
  V  V3  1  0.70492400  0.49090600  0.79318100  1
  V  V4  1  0.98641500  0.41589400  0.31272100  1
  V  V5  1  0.48641500  0.58410600  0.18727900  1
  V  V6  1  0.01358500  0.58410600  0.68727900  1
  V  V7  1  0.51358500  0.41589400  0.81272100  1
  V  V8  1  0.13558100  0.13186000  0.48408900  1
  V  V9  1  0.63558100  0.86814000  0.01591100  1
  V  V10  1  0.86441900  0.86814000  0.51591100  1
  V  V11  1  0.36441900  0.13186000  0.98408900  1
  V  V12  1  0.62850800  0.15932000  0.48118500  1
  V  V13  1  0.12850800  0.84068000  0.01881500  1
  V  V14  1  0.37149200  0.84068000  0.51881500  1
  V  V15  1  0.87149200  0.15932000  0.98118500  1
  O  O0  1  0.98165100  0.24046000  0.96151700  1
  O  O1  1  0.48165100  0.75954000  0.53848300  1
  O  O2  1  0.01834900  0.75954000  0.03848300  1
  O  O3  1  0.51834900  0.24046000  0.46151700  1
  O  O4  1  0.85565000  0.01020200  0.87161200  1
  O  O5  1  0.35565000  0.98979800  0.62838800  1
  O  O6  1  0.14435000  0.98979800  0.12838800  1
  O  O7  1  0.64435000  0.01020200  0.37161200  1
  O  O8  1  0.85947500  0.00549800  0.11738400  1
  O  O9  1  0.35947500  0.99450200  0.38261600  1
  O  O10  1  0.14052500  0.99450200  0.88261600  1
  O  O11  1  0.64052500  0.00549800  0.61738400  1
  O  O12  1  0.28682300  0.32190900  0.95570700  1
  O  O13  1  0.78682300  0.67809100  0.54429300  1
  O  O14  1  0.71317700  0.67809100  0.04429300  1
  O  O15  1  0.21317700  0.32190900  0.45570700  1
  O  O16  1  0.36619600  0.04142000  0.13503700  1
  O  O17  1  0.86619600  0.95858000  0.36496300  1
  O  O18  1  0.63380400  0.95858000  0.86496300  1
  O  O19  1  0.13380400  0.04142000  0.63503700  1
  O  O20  1  0.34008500  0.95028900  0.89593400  1
  O  O21  1  0.44348000  0.61271200  0.82171600  1
  O  O22  1  0.84008500  0.04971100  0.60406600  1
  O  O23  1  0.15991500  0.95028900  0.39593400  1
  O  O24  1  0.47966200  0.28016300  0.70850200  1
  O  O25  1  0.97966200  0.71983700  0.79149800  1
  O  O26  1  0.52033800  0.71983700  0.29149800  1
  O  O27  1  0.02033800  0.28016300  0.20850200  1
  O  O28  1  0.47233300  0.23710800  0.94475700  1
  O  O29  1  0.97233300  0.76289200  0.55524300  1
  O  O30  1  0.52766700  0.76289200  0.05524300  1
  O  O31  1  0.02766700  0.23710800  0.44475700  1
  O  O32  1  0.89365400  0.57072000  0.20508900  1
  O  O33  1  0.39365400  0.42928000  0.29491100  1
  O  O34  1  0.10634600  0.42928000  0.79491100  1
  O  O35  1  0.60634600  0.57072000  0.70508900  1
  O  O36  1  0.74924000  0.30733800  0.22447100  1
  O  O37  1  0.24924000  0.69266200  0.27552900  1
  O  O38  1  0.25076000  0.69266200  0.77552900  1
  O  O39  1  0.75076000  0.30733800  0.72447100  1
  O  O40  1  0.70386900  0.36254300  0.46468100  1
  O  O41  1  0.20386900  0.63745700  0.03531900  1
  O  O42  1  0.29613100  0.63745700  0.53531900  1
  O  O43  1  0.79613100  0.36254300  0.96468100  1
  O  O44  1  0.72886200  0.69507600  0.29447600  1
  O  O45  1  0.22886200  0.30492400  0.20552400  1
  O  O46  1  0.27113800  0.30492400  0.70552400  1
  O  O47  1  0.77113800  0.69507600  0.79447600  1
  O  O48  1  0.87746500  0.40217400  0.40871500  1
  O  O49  1  0.37746500  0.59782600  0.09128500  1
  O  O50  1  0.12253500  0.59782600  0.59128500  1
  O  O51  1  0.62253500  0.40217400  0.90871500  1
  O  O52  1  0.05652000  0.61271200  0.32171600  1
  O  O53  1  0.55652000  0.38728800  0.17828400  1
  O  O54  1  0.94348000  0.38728800  0.67828400  1
  O  O55  1  0.65991500  0.04971100  0.10406600  1
loop_
_geom_bond_atom_site_label_1
_geom_bond_atom_site_label_2
_geom_bond_distance
_geom_bond_site_symmetry_2
Ca0 O4 2.403165 1_565
Ca0 O2 2.406593 1_656
Ca0 O43 2.407133 1_555
Ca0 O14 2.461067 1_556
Ca0 O47 2.477436 1_555
Ca0 O25 2.582217 1_555
Ca0 O32 2.676272 1_556
Ca1 O5 2.403165 1_545
Ca1 O3 2.406593 1_555
Ca1 O42 2.407133 1_555
Ca1 O15 2.461067 1_555
Ca1 O46 2.477436 1_555
Ca1 O24 2.582217 1_555
Ca1 O33 2.676272 1_555
Ca2 O6 2.403165 1_545
Ca2 O0 2.406593 1_454
Ca2 O41 2.407133 1_555
Ca2 O12 2.461067 1_554
Ca2 O45 2.477436 1_555
Ca2 O27 2.582217 1_555
Ca2 O34 2.676272 1_554
Ca3 O7 2.403165 1_565
Ca3 O1 2.406593 1_555
Ca3 O40 2.407133 1_555
Ca3 O13 2.461067 1_555
Ca3 O44 2.477436 1_555
Ca3 O26 2.582217 1_555
Ca3 O35 2.676272 1_555
Ca4 O8 2.342200 1_565
Ca4 O52 2.405258 1_655
Ca4 O27 2.456985 1_665
Ca4 O17 2.461343 1_555
Ca4 O6 2.517898 1_655
Ca4 O2 2.623818 1_655
Ca4 O32 2.855546 1_555
Ca5 O9 2.342200 1_545
Ca5 O53 2.405258 1_555
Ca5 O26 2.456985 1_545
Ca5 O16 2.461343 1_555
Ca5 O7 2.517898 1_555
Ca5 O3 2.623818 1_555
Ca5 O33 2.855546 1_555
Ca6 O10 2.342200 1_545
Ca6 O54 2.405258 1_455
Ca6 O25 2.456985 1_445
Ca6 O19 2.461343 1_555
Ca6 O4 2.517898 1_455
Ca6 O0 2.623818 1_455
Ca6 O34 2.855546 1_555
Ca7 O11 2.342200 1_565
Ca7 O21 2.405258 1_555
Ca7 O24 2.456985 1_565
Ca7 O18 2.461343 1_555
Ca7 O5 2.517898 1_555
Ca7 O1 2.623818 1_555
Ca7 O35 2.855546 1_555
Mg0 O47 2.081192 1_555
Mg0 O39 2.097632 1_565
Mg0 O18 2.116598 1_555
Mg0 O22 2.127785 1_565
Mg0 O11 2.138820 1_565
Mg0 O4 2.161649 1_565
Mg1 O46 2.081192 1_555
Mg1 O38 2.097632 1_545
Mg1 O19 2.116598 1_555
Mg1 O20 2.127785 1_545
Mg1 O10 2.138820 1_545
Mg1 O5 2.161649 1_545
Mg2 O45 2.081192 1_555
Mg2 O37 2.097632 1_545
Mg2 O16 2.116598 1_555
Mg2 O23 2.127785 1_545
Mg2 O9 2.138820 1_545
Mg2 O6 2.161649 1_545
Mg3 O44 2.081192 1_555
Mg3 O36 2.097632 1_565
Mg3 O17 2.116598 1_555
Mg3 O55 2.127785 1_565
Mg3 O8 2.138820 1_565
Mg3 O7 2.161649 1_565
Mg4 O48 2.012284 1_555
Mg4 O39 2.028041 1_555
Mg4 O22 2.121825 1_555
Mg4 O54 2.122080 1_555
Mg4 O40 2.184172 1_555
Mg4 O13 2.205672 1_555
Mg5 O49 2.012284 1_556
Mg5 O38 2.028041 1_555
Mg5 O20 2.121825 1_555
Mg5 O21 2.122080 1_555
Mg5 O41 2.184172 1_556
Mg5 O12 2.205672 1_555
Mg6 O50 2.012284 1_555
Mg6 O37 2.028041 1_555
Mg6 O23 2.121825 1_555
Mg6 O52 2.122080 1_555
Mg6 O42 2.184172 1_555
Mg6 O15 2.205672 1_555
Mg7 O51 2.012284 1_554
Mg7 O36 2.028041 1_555
Mg7 O55 2.121825 1_555
Mg7 O53 2.122080 1_555
Mg7 O43 2.184172 1_554
Mg7 O14 2.205672 1_555
O0 V15 1.713139 1_555
O1 V14 1.713139 1_555
O2 V13 1.713139 1_555
O3 V12 1.713139 1_555
O4 V15 1.756299 1_555
O5 V14 1.756299 1_555
O6 V13 1.756299 1_555
O7 V12 1.756299 1_555
O8 V15 1.740353 1_554
O9 V14 1.740353 1_555
O10 V13 1.740353 1_556
O11 V12 1.740353 1_555
O12 V11 1.719418 1_555
O13 V10 1.719418 1_555
O14 V9 1.719418 1_555
O15 V8 1.719418 1_555
O16 V11 1.736313 1_554
O17 V10 1.736313 1_555
O18 V9 1.736313 1_556
O19 V8 1.736313 1_555
O20 V11 1.760095 1_565
O21 V7 1.711485 1_555
O22 V10 1.760095 1_545
O23 V8 1.760095 1_565
O24 V7 1.701221 1_555
O25 V6 1.701221 1_655
O26 V5 1.701221 1_555
O27 V4 1.701221 1_455
O28 V11 1.768109 1_555
O28 V7 1.881275 1_555
O29 V10 1.768109 1_555
O29 V6 1.881275 1_655
O30 V9 1.768109 1_555
O30 V5 1.881275 1_555
O31 V8 1.768109 1_555
O31 V4 1.881275 1_455
O32 V0 1.796923 1_555
O32 V4 2.016511 1_555
O33 V1 1.796923 1_555
O33 V5 2.016511 1_555
O34 V2 1.796923 1_555
O34 V6 2.016511 1_555
O35 V3 1.796923 1_555
O35 V7 2.016511 1_555
O36 V0 1.723777 1_555
O37 V1 1.723777 1_555
O38 V2 1.723777 1_555
O39 V3 1.723777 1_555
O40 V12 1.762876 1_555
O40 V0 2.418510 1_555
O41 V13 1.762876 1_555
O41 V1 2.418510 1_555
O42 V14 1.762876 1_555
O42 V2 2.418510 1_555
O43 V15 1.762876 1_555
O43 V3 2.418510 1_555
O44 V0 1.704065 1_555
O45 V1 1.704065 1_555
O46 V2 1.704065 1_555
O47 V3 1.704065 1_555
O48 V0 1.821003 1_555
O48 V4 1.934032 1_555
O49 V1 1.821003 1_555
O49 V5 1.934032 1_555
O50 V2 1.821003 1_555
O50 V6 1.934032 1_555
O51 V3 1.821003 1_555
O51 V7 1.934032 1_555
O52 V4 1.711485 1_455
O53 V5 1.711485 1_555
O54 V6 1.711485 1_655
O55 V9 1.760095 1_545
