# generated using pymatgen
data_Li5Co3O8
_symmetry_space_group_name_H-M   'P 1'
_cell_length_a   4.99063782
_cell_length_b   5.79947754
_cell_length_c   5.91777435
_cell_angle_alpha   60.56167738
_cell_angle_beta   75.27653322
_cell_angle_gamma   73.02309764
_symmetry_Int_Tables_number   1
_chemical_formula_structural   Li5Co3O8
_chemical_formula_sum   'Li5 Co3 O8'
_cell_volume   141.39953778
_cell_formula_units_Z   1
loop_
 _symmetry_equiv_pos_site_id
 _symmetry_equiv_pos_as_xyz
  1  'x, y, z'
loop_
 _atom_site_type_symbol
 _atom_site_label
 _atom_site_symmetry_multiplicity
 _atom_site_fract_x
 _atom_site_fract_y
 _atom_site_fract_z
 _atom_site_occupancy
  Li  Li0  1  0.50000000  0.25000000  0.25000000  1
  Li  Li1  1  0.01033200  0.49650500  0.99986100  1
  Li  Li2  1  0.98966800  0.00349500  0.50013900  1
  Li  Li3  1  0.50000000  0.75000000  0.75000000  1
  Li  Li4  1  0.50000000  0.25000000  0.75000000  1
  Co  Co0  1  0.99882100  0.00403700  0.99095700  1
  Co  Co1  1  0.00117900  0.49596300  0.50904300  1
  Co  Co2  1  0.50000000  0.75000000  0.25000000  1
  O  O0  1  0.77494100  0.35248100  0.88086300  1
  O  O1  1  0.23467700  0.61918100  0.60002000  1
  O  O2  1  0.23851900  0.09757800  0.12005600  1
  O  O3  1  0.75289200  0.85385800  0.38518400  1
  O  O4  1  0.22505900  0.14751900  0.61913700  1
  O  O5  1  0.76148100  0.40242200  0.37994400  1
  O  O6  1  0.76532300  0.88081900  0.89998000  1
  O  O7  1  0.24710800  0.64614200  0.11481600  1
loop_
_geom_bond_atom_site_label_1
_geom_bond_atom_site_label_2
_geom_bond_distance
_geom_bond_site_symmetry_2
Li0 O7 2.127047 1_555
Li0 O3 2.127047 1_545
Li0 O4 2.164330 1_555
Li0 O0 2.164330 1_554
Li0 O5 2.219805 1_555
Li0 O2 2.219805 1_555
Li1 O0 2.036002 1_455
Li1 O7 2.049382 1_556
Li1 O6 2.071965 1_455
Li1 O2 2.100226 1_556
Li1 O5 2.160706 1_456
Li1 O1 2.195968 1_555
Li2 O4 2.036002 1_655
Li2 O3 2.049382 1_545
Li2 O1 2.071965 1_645
Li2 O5 2.100226 1_555
Li2 O2 2.160706 1_655
Li2 O6 2.195968 1_545
Li3 O7 2.096957 1_556
Li3 O3 2.096957 1_555
Li3 O4 2.176061 1_565
Li3 O0 2.176061 1_555
Li3 O6 2.227689 1_555
Li3 O1 2.227689 1_555
Li4 O1 2.049158 1_555
Li4 O6 2.049158 1_545
Li4 O0 2.074727 1_555
Li4 O4 2.074727 1_555
Li4 O5 2.144338 1_555
Li4 O2 2.144338 1_556
Co0 O6 1.828061 1_545
Co0 O0 1.874510 1_555
Co0 O2 1.886762 1_656
Co0 O7 1.960883 1_646
Co0 O4 2.072394 1_655
Co0 O3 2.208862 1_546
Co1 O1 1.828061 1_555
Co1 O4 1.874510 1_555
Co1 O5 1.886762 1_455
Co1 O3 1.960883 1_455
Co1 O0 2.072394 1_455
Co1 O7 2.208862 1_555
Co2 O5 1.951365 1_555
Co2 O2 1.951365 1_565
Co2 O3 2.006600 1_555
Co2 O7 2.006600 1_555
Co2 O6 2.065707 1_554
Co2 O1 2.065707 1_555
