# generated using pymatgen
data_KAl4Fe3(HO6)2
_symmetry_space_group_name_H-M   'P 1'
_cell_length_a   5.43039580
_cell_length_b   5.43039580
_cell_length_c   10.51548948
_cell_angle_alpha   84.88735829
_cell_angle_beta   84.88735829
_cell_angle_gamma   120.05625146
_symmetry_Int_Tables_number   1
_chemical_formula_structural   KAl4Fe3(HO6)2
_chemical_formula_sum   'K1 Al4 Fe3 H2 O12'
_cell_volume   264.09175521
_cell_formula_units_Z   1
loop_
 _symmetry_equiv_pos_site_id
 _symmetry_equiv_pos_as_xyz
  1  'x, y, z'
loop_
 _atom_site_type_symbol
 _atom_site_label
 _atom_site_symmetry_multiplicity
 _atom_site_fract_x
 _atom_site_fract_y
 _atom_site_fract_z
 _atom_site_occupancy
  K  K0  1  0.00000000  0.00000000  0.00000000  1
  Al  Al0  1  0.59236600  0.25924700  0.21884900  1
  Al  Al1  1  0.40763400  0.74075300  0.78115100  1
  Al  Al2  1  0.74075300  0.40763400  0.78115100  1
  Al  Al3  1  0.25924700  0.59236600  0.21884900  1
  Fe  Fe0  1  0.50000000  0.50000000  0.50000000  1
  Fe  Fe1  1  0.82630500  0.17369500  0.50000000  1
  Fe  Fe2  1  0.17369500  0.82630500  0.50000000  1
  H  H0  1  0.91570300  0.91570300  0.30671400  1
  H  H1  1  0.08429700  0.08429700  0.69328600  1
  O  O0  1  0.52837900  0.19893800  0.40418000  1
  O  O1  1  0.47162100  0.80106200  0.59582000  1
  O  O2  1  0.80106200  0.47162100  0.59582000  1
  O  O3  1  0.19893800  0.52837900  0.40418000  1
  O  O4  1  0.87392000  0.87392000  0.40207600  1
  O  O5  1  0.12608000  0.12608000  0.59792400  1
  O  O6  1  0.55915300  0.55915300  0.18526800  1
  O  O7  1  0.44084700  0.44084700  0.81473200  1
  O  O8  1  0.31557100  0.93758100  0.18382000  1
  O  O9  1  0.68442900  0.06241900  0.81618000  1
  O  O10  1  0.06241900  0.68442900  0.81618000  1
  O  O11  1  0.93758100  0.31557100  0.18382000  1
loop_
_geom_bond_atom_site_label_1
_geom_bond_atom_site_label_2
_geom_bond_distance
_geom_bond_site_symmetry_2
K0 O10 2.800599 1_544
K0 O9 2.800599 1_454
K0 O11 2.800599 1_455
K0 O8 2.800599 1_545
K0 O6 2.802554 1_445
K0 O7 2.802554 1_554
Al0 O6 1.735706 1_555
Al0 O11 1.739554 1_555
Al0 O8 1.740555 1_545
Al0 O0 1.917696 1_555
Al1 O7 1.735706 1_555
Al1 O10 1.739554 1_555
Al1 O9 1.740555 1_565
Al1 O1 1.917696 1_555
Al2 O7 1.735706 1_555
Al2 O9 1.739554 1_555
Al2 O10 1.740555 1_655
Al2 O2 1.917696 1_555
Al3 O6 1.735706 1_555
Al3 O8 1.739554 1_555
Al3 O11 1.740555 1_455
Al3 O3 1.917696 1_555
Fe0 O3 2.056732 1_555
Fe0 O0 2.056732 1_555
Fe0 O2 2.056732 1_555
Fe0 O1 2.056732 1_555
Fe0 O4 2.105011 1_555
Fe0 O5 2.105011 1_555
Fe1 O2 2.034593 1_555
Fe1 O0 2.034593 1_555
Fe1 O3 2.050936 1_655
Fe1 O1 2.050936 1_545
Fe1 O4 2.109543 1_545
Fe1 O5 2.109543 1_655
Fe2 O1 2.034593 1_555
Fe2 O3 2.034593 1_555
Fe2 O0 2.050936 1_565
Fe2 O2 2.050936 1_455
Fe2 O5 2.109543 1_565
Fe2 O4 2.109543 1_455
H0 O4 0.987854 1_555
H1 O5 0.987854 1_555
