# generated using pymatgen
data_Pr16(Mo3O8)7
_symmetry_space_group_name_H-M   'P 1'
_cell_length_a   13.75363914
_cell_length_b   13.78143887
_cell_length_c   13.80232908
_cell_angle_alpha   90.00000000
_cell_angle_beta   101.10478714
_cell_angle_gamma   90.00000000
_symmetry_Int_Tables_number   1
_chemical_formula_structural   Pr16(Mo3O8)7
_chemical_formula_sum   'Pr32 Mo42 O112'
_cell_volume   2567.17809110
_cell_formula_units_Z   2
loop_
 _symmetry_equiv_pos_site_id
 _symmetry_equiv_pos_as_xyz
  1  'x, y, z'
loop_
 _atom_site_type_symbol
 _atom_site_label
 _atom_site_symmetry_multiplicity
 _atom_site_fract_x
 _atom_site_fract_y
 _atom_site_fract_z
 _atom_site_occupancy
  Pr  Pr0  1  0.22917599  0.62001235  0.63059017  1
  Pr  Pr1  1  0.27082401  0.12001235  0.36940983  1
  Pr  Pr2  1  0.77082401  0.37998765  0.36940983  1
  Pr  Pr3  1  0.72917599  0.87998765  0.63059017  1
  Pr  Pr4  1  0.22784306  0.80227778  0.86736041  1
  Pr  Pr5  1  0.27215694  0.30227778  0.13263959  1
  Pr  Pr6  1  0.77215694  0.19772222  0.13263959  1
  Pr  Pr7  1  0.72784306  0.69772222  0.86736041  1
  Pr  Pr8  1  0.43090112  0.81211272  0.68392453  1
  Pr  Pr9  1  0.06909888  0.31211272  0.31607547  1
  Pr  Pr10  1  0.56909888  0.18788728  0.31607547  1
  Pr  Pr11  1  0.93090112  0.68788728  0.68392453  1
  Pr  Pr12  1  0.45343600  0.61248902  0.89377070  1
  Pr  Pr13  1  0.04656400  0.11248902  0.10622930  1
  Pr  Pr14  1  0.54656400  0.38751098  0.10622930  1
  Pr  Pr15  1  0.95343600  0.88751098  0.89377070  1
  Pr  Pr16  1  0.85497434  0.66498496  0.35084491  1
  Pr  Pr17  1  0.64502566  0.16498496  0.64915509  1
  Pr  Pr18  1  0.14502566  0.33501504  0.64915509  1
  Pr  Pr19  1  0.35497434  0.83501504  0.35084491  1
  Pr  Pr20  1  0.37242155  0.58658881  0.14885906  1
  Pr  Pr21  1  0.12757845  0.08658881  0.85114094  1
  Pr  Pr22  1  0.62757845  0.41341119  0.85114094  1
  Pr  Pr23  1  0.87242155  0.91341119  0.14885906  1
  Pr  Pr24  1  0.36335746  0.33067816  0.87302677  1
  Pr  Pr25  1  0.13664254  0.83067816  0.12697323  1
  Pr  Pr26  1  0.63664254  0.66932184  0.12697323  1
  Pr  Pr27  1  0.86335746  0.16932184  0.87302677  1
  Pr  Pr28  1  0.14031837  0.62769456  0.30902924  1
  Pr  Pr29  1  0.35968163  0.12769456  0.69097076  1
  Pr  Pr30  1  0.85968163  0.37230544  0.69097076  1
  Pr  Pr31  1  0.64031837  0.87230544  0.30902924  1
  Mo  Mo0  1  0.27067109  0.41966219  0.47320585  1
  Mo  Mo1  1  0.22932891  0.91966219  0.52679415  1
  Mo  Mo2  1  0.72932891  0.58033781  0.52679415  1
  Mo  Mo3  1  0.77067109  0.08033781  0.47320585  1
  Mo  Mo4  1  0.42649400  0.27637446  0.51962364  1
  Mo  Mo5  1  0.07350600  0.77637446  0.48037636  1
  Mo  Mo6  1  0.57350600  0.72362554  0.48037636  1
  Mo  Mo7  1  0.92649400  0.22362554  0.51962364  1
  Mo  Mo8  1  0.43073010  0.43934321  0.65252020  1
  Mo  Mo9  1  0.06926990  0.93934321  0.34747980  1
  Mo  Mo10  1  0.56926990  0.56065679  0.34747980  1
  Mo  Mo11  1  0.93073010  0.06065679  0.65252020  1
  Mo  Mo12  1  0.41564498  0.40239690  0.34803664  1
  Mo  Mo13  1  0.08435502  0.90239690  0.65196336  1
  Mo  Mo14  1  0.58435502  0.59760310  0.65196336  1
  Mo  Mo15  1  0.91564498  0.09760310  0.34803664  1
  Mo  Mo16  1  0.41615083  0.57308895  0.47883656  1
  Mo  Mo17  1  0.08384917  0.07308895  0.52116344  1
  Mo  Mo18  1  0.58384917  0.42691105  0.52116344  1
  Mo  Mo19  1  0.91615083  0.92691105  0.47883656  1
  Mo  Mo20  1  0.22765785  0.49680845  0.95478979  1
  Mo  Mo21  1  0.27234215  0.99680845  0.04521021  1
  Mo  Mo22  1  0.77234215  0.50319155  0.04521021  1
  Mo  Mo23  1  0.72765785  0.00319155  0.95478979  1
  Mo  Mo24  1  0.07847147  0.50948941  0.79131584  1
  Mo  Mo25  1  0.42152853  0.00948941  0.20868416  1
  Mo  Mo26  1  0.92152853  0.49051059  0.20868416  1
  Mo  Mo27  1  0.57847147  0.99051059  0.79131584  1
  Mo  Mo28  1  0.06541248  0.34600254  0.92561889  1
  Mo  Mo29  1  0.43458752  0.84600254  0.07438111  1
  Mo  Mo30  1  0.93458752  0.65399746  0.07438111  1
  Mo  Mo31  1  0.56541248  0.15399746  0.92561889  1
  Mo  Mo32  1  0.08187013  0.64481990  0.95207793  1
  Mo  Mo33  1  0.41812987  0.14481990  0.04792207  1
  Mo  Mo34  1  0.91812987  0.35518010  0.04792207  1
  Mo  Mo35  1  0.58187013  0.85518010  0.95207793  1
  Mo  Mo36  1  0.92058414  0.51061890  0.90905239  1
  Mo  Mo37  1  0.57941586  0.01061890  0.09094761  1
  Mo  Mo38  1  0.07941586  0.48938110  0.09094761  1
  Mo  Mo39  1  0.42058414  0.98938110  0.90905239  1
  Mo  Mo40  1  0.00000000  0.50000000  0.50000000  1
  Mo  Mo41  1  0.50000000  -0.00000000  0.50000000  1
  O  O0  1  0.26829764  0.39783577  0.32921956  1
  O  O1  1  0.23170236  0.89783577  0.67078044  1
  O  O2  1  0.73170236  0.60216423  0.67078044  1
  O  O3  1  0.76829764  0.10216423  0.32921956  1
  O  O4  1  0.27688966  0.44026809  0.62053435  1
  O  O5  1  0.22311034  0.94026809  0.37946565  1
  O  O6  1  0.72311034  0.55973191  0.37946565  1
  O  O7  1  0.77688966  0.05973191  0.62053435  1
  O  O8  1  0.26080051  0.56842144  0.45931067  1
  O  O9  1  0.23919949  0.06842144  0.54068933  1
  O  O10  1  0.73919949  0.43157856  0.54068933  1
  O  O11  1  0.76080051  0.93157856  0.45931067  1
  O  O12  1  0.27449137  0.26845249  0.48496935  1
  O  O13  1  0.22550863  0.76845249  0.51503065  1
  O  O14  1  0.72550863  0.73154751  0.51503065  1
  O  O15  1  0.77449137  0.23154751  0.48496935  1
  O  O16  1  0.11240268  0.41409755  0.46221951  1
  O  O17  1  0.38759732  0.91409755  0.53778049  1
  O  O18  1  0.88759732  0.58590245  0.53778049  1
  O  O19  1  0.61240268  0.08590245  0.46221951  1
  O  O20  1  0.41754849  0.25341034  0.36913029  1
  O  O21  1  0.08245151  0.75341034  0.63086971  1
  O  O22  1  0.58245151  0.74658966  0.63086971  1
  O  O23  1  0.91754849  0.24658966  0.36913029  1
  O  O24  1  0.42912658  0.28633284  0.66508334  1
  O  O25  1  0.07087342  0.78633284  0.33491666  1
  O  O26  1  0.57087342  0.71366716  0.33491666  1
  O  O27  1  0.92912658  0.21366716  0.66508334  1
  O  O28  1  0.57361987  0.27837153  0.52998197  1
  O  O29  1  0.92638013  0.77837153  0.47001803  1
  O  O30  1  0.42638013  0.72162847  0.47001803  1
  O  O31  1  0.07361987  0.22162847  0.52998197  1
  O  O32  1  0.44117380  0.12426599  0.54771624  1
  O  O33  1  0.05882620  0.62426599  0.45228376  1
  O  O34  1  0.55882620  0.87573401  0.45228376  1
  O  O35  1  0.94117380  0.37573401  0.54771624  1
  O  O36  1  0.42609989  0.59743146  0.63406954  1
  O  O37  1  0.07390011  0.09743146  0.36593046  1
  O  O38  1  0.57390011  0.40256854  0.36593046  1
  O  O39  1  0.92609989  0.90256854  0.63406954  1
  O  O40  1  0.59131591  0.44663265  0.67515944  1
  O  O41  1  0.90868409  0.94663265  0.32484056  1
  O  O42  1  0.40868409  0.55336735  0.32484056  1
  O  O43  1  0.09131591  0.05336735  0.67515944  1
  O  O44  1  0.45432837  0.45293058  0.80464700  1
  O  O45  1  0.04567163  0.95293058  0.19535300  1
  O  O46  1  0.54567163  0.54706942  0.19535300  1
  O  O47  1  0.95432837  0.04706942  0.80464700  1
  O  O48  1  0.41536091  0.39348552  0.20339766  1
  O  O49  1  0.08463909  0.89348552  0.79660234  1
  O  O50  1  0.58463909  0.60651448  0.79660234  1
  O  O51  1  0.91536091  0.10651448  0.20339766  1
  O  O52  1  0.23702736  0.64149869  0.97185118  1
  O  O53  1  0.26297264  0.14149869  0.02814882  1
  O  O54  1  0.76297264  0.35850131  0.02814882  1
  O  O55  1  0.73702736  0.85850131  0.97185118  1
  O  O56  1  0.21821076  0.34520361  0.95534467  1
  O  O57  1  0.28178924  0.84520361  0.04465533  1
  O  O58  1  0.78178924  0.65479639  0.04465533  1
  O  O59  1  0.71821076  0.15479639  0.95534467  1
  O  O60  1  0.23231381  0.47857263  0.10571331  1
  O  O61  1  0.26768619  0.97857263  0.89428669  1
  O  O62  1  0.76768619  0.52142737  0.89428669  1
  O  O63  1  0.73231381  0.02142737  0.10571331  1
  O  O64  1  0.23624504  0.48565349  0.81389372  1
  O  O65  1  0.26375496  0.98565349  0.18610628  1
  O  O66  1  0.76375496  0.51434651  0.18610628  1
  O  O67  1  0.73624504  0.01434651  0.81389372  1
  O  O68  1  0.38663405  0.49526842  0.99270331  1
  O  O69  1  0.11336595  0.99526842  0.00729669  1
  O  O70  1  0.61336595  0.50473158  0.00729669  1
  O  O71  1  0.88663405  0.00473158  0.99270331  1
  O  O72  1  0.08354994  0.66196733  0.80555476  1
  O  O73  1  0.41645006  0.16196733  0.19444524  1
  O  O74  1  0.91645006  0.33803267  0.19444524  1
  O  O75  1  0.58354994  0.83803267  0.80555476  1
  O  O76  1  0.05257186  0.35908038  0.77470634  1
  O  O77  1  0.44742814  0.85908038  0.22529366  1
  O  O78  1  0.94742814  0.64091962  0.22529366  1
  O  O79  1  0.55257186  0.14091962  0.77470634  1
  O  O80  1  0.92122519  0.52706065  0.75631349  1
  O  O81  1  0.57877481  0.02706065  0.24368651  1
  O  O82  1  0.07877481  0.47293935  0.24368651  1
  O  O83  1  0.42122519  0.97293935  0.75631349  1
  O  O84  1  0.08969467  0.51772534  0.64110053  1
  O  O85  1  0.41030533  0.01772534  0.35889947  1
  O  O86  1  0.91030533  0.48227466  0.35889947  1
  O  O87  1  0.58969467  0.98227466  0.64110053  1
  O  O88  1  0.07649501  0.33438835  0.08208151  1
  O  O89  1  0.42350499  0.83438835  0.91791849  1
  O  O90  1  0.92350499  0.66561165  0.91791849  1
  O  O91  1  0.57649501  0.16561165  0.08208151  1
  O  O92  1  0.90611939  0.35269253  0.88951225  1
  O  O93  1  0.59388061  0.85269253  0.11048775  1
  O  O94  1  0.09388061  0.64730747  0.11048775  1
  O  O95  1  0.40611939  0.14730747  0.88951225  1
  O  O96  1  0.04667258  0.19699546  0.93091282  1
  O  O97  1  0.45332742  0.69699546  0.06908718  1
  O  O98  1  0.95332742  0.80300454  0.06908718  1
  O  O99  1  0.54667258  0.30300454  0.93091282  1
  O  O100  1  0.09565282  0.79104926  0.95940337  1
  O  O101  1  0.40434718  0.29104926  0.04059663  1
  O  O102  1  0.90434718  0.20895074  0.04059663  1
  O  O103  1  0.59565282  0.70895074  0.95940337  1
  O  O104  1  0.74783813  0.26976923  0.75055003  1
  O  O105  1  0.75216187  0.76976923  0.24944997  1
  O  O106  1  0.25216187  0.73023077  0.24944997  1
  O  O107  1  0.24783813  0.23023077  0.75055003  1
  O  O108  1  0.82680520  0.79217442  0.76128621  1
  O  O109  1  0.67319480  0.29217442  0.23871379  1
  O  O110  1  0.17319480  0.20782558  0.23871379  1
  O  O111  1  0.32680520  0.70782558  0.76128621  1
loop_
_geom_bond_atom_site_label_1
_geom_bond_atom_site_label_2
_geom_bond_distance
_geom_bond_site_symmetry_2
Mo0 O0 2.004021 1_555
Mo0 O4 2.038625 1_555
Mo0 O8 2.061106 1_555
Mo0 O12 2.090077 1_555
Mo0 O16 2.154075 1_555
Mo1 O1 2.004021 1_555
Mo1 O5 2.038625 1_555
Mo1 O9 2.061106 1_565
Mo1 O13 2.090077 1_555
Mo1 O17 2.154075 1_555
Mo2 O2 2.004021 1_555
Mo2 O6 2.038625 1_555
Mo2 O10 2.061106 1_555
Mo2 O14 2.090077 1_555
Mo2 O18 2.154075 1_555
Mo3 O3 2.004021 1_555
Mo3 O7 2.038625 1_555
Mo3 O11 2.061106 1_545
Mo3 O15 2.090077 1_555
Mo3 O19 2.154075 1_555
Mo4 O28 2.001093 1_555
Mo4 O24 2.005725 1_555
Mo4 O12 2.055742 1_555
Mo4 O20 2.081211 1_555
Mo4 O32 2.134318 1_555
Mo5 O29 2.001093 1_455
Mo5 O25 2.005725 1_555
Mo5 O13 2.055742 1_555
Mo5 O21 2.081211 1_555
Mo5 O33 2.134318 1_555
Mo6 O30 2.001093 1_555
Mo6 O26 2.005725 1_555
Mo6 O14 2.055742 1_555
Mo6 O22 2.081211 1_555
Mo6 O34 2.134318 1_555
Mo7 O31 2.001093 1_655
Mo7 O27 2.005725 1_555
Mo7 O15 2.055742 1_555
Mo7 O23 2.081211 1_555
Mo7 O35 2.134318 1_555
Mo8 O44 2.070422 1_555
Mo8 O4 2.076566 1_555
Mo8 O24 2.116284 1_555
Mo8 O40 2.172549 1_555
Mo8 O36 2.193017 1_555
Mo9 O45 2.070422 1_555
Mo9 O5 2.076566 1_555
Mo9 O25 2.116284 1_555
Mo9 O41 2.172549 1_455
Mo9 O37 2.193017 1_565
Mo10 O46 2.070422 1_555
Mo10 O6 2.076566 1_555
Mo10 O26 2.116284 1_555
Mo10 O42 2.172549 1_555
Mo10 O38 2.193017 1_555
Mo11 O47 2.070422 1_555
Mo11 O7 2.076566 1_555
Mo11 O27 2.116284 1_555
Mo11 O43 2.172549 1_655
Mo11 O39 2.193017 1_545
Mo12 O0 1.993893 1_555
Mo12 O48 1.999381 1_555
Mo12 O20 2.073245 1_555
Mo12 O42 2.104451 1_555
Mo12 O38 2.142766 1_555
Mo13 O1 1.993893 1_555
Mo13 O49 1.999381 1_555
Mo13 O21 2.073245 1_555
Mo13 O43 2.104451 1_565
Mo13 O39 2.142766 1_455
Mo14 O2 1.993893 1_555
Mo14 O50 1.999381 1_555
Mo14 O22 2.073245 1_555
Mo14 O40 2.104451 1_555
Mo14 O36 2.142766 1_555
Mo15 O3 1.993893 1_555
Mo15 O51 1.999381 1_555
Mo15 O23 2.073245 1_555
Mo15 O41 2.104451 1_545
Mo15 O37 2.142766 1_655
Mo16 O30 2.057128 1_555
Mo16 O8 2.102416 1_555
Mo16 O42 2.125582 1_555
Mo16 O36 2.146850 1_555
Mo17 O31 2.057128 1_555
Mo17 O9 2.102416 1_555
Mo17 O43 2.125582 1_555
Mo17 O37 2.146850 1_555
Mo18 O28 2.057128 1_555
Mo18 O10 2.102416 1_555
Mo18 O40 2.125582 1_555
Mo18 O38 2.146850 1_555
Mo19 O29 2.057128 1_555
Mo19 O11 2.102416 1_555
Mo19 O41 2.125582 1_555
Mo19 O39 2.146850 1_555
Mo20 O64 1.976839 1_555
Mo20 O52 2.009120 1_555
Mo20 O60 2.086903 1_556
Mo20 O56 2.093475 1_555
Mo20 O68 2.148098 1_555
Mo21 O65 1.976839 1_555
Mo21 O53 2.009120 1_565
Mo21 O61 2.086903 1_554
Mo21 O57 2.093475 1_555
Mo21 O69 2.148098 1_555
Mo22 O66 1.976839 1_555
Mo22 O54 2.009120 1_555
Mo22 O62 2.086903 1_554
Mo22 O58 2.093475 1_555
Mo22 O70 2.148098 1_555
Mo23 O67 1.976839 1_555
Mo23 O55 2.009120 1_545
Mo23 O63 2.086903 1_556
Mo23 O59 2.093475 1_555
Mo23 O71 2.148098 1_555
Mo24 O76 2.108247 1_555
Mo24 O72 2.110438 1_555
Mo24 O84 2.111552 1_555
Mo24 O80 2.137023 1_455
Mo24 O64 2.157143 1_555
Mo25 O77 2.108247 1_545
Mo25 O73 2.110438 1_555
Mo25 O85 2.111552 1_555
Mo25 O81 2.137023 1_555
Mo25 O65 2.157143 1_545
Mo26 O78 2.108247 1_555
Mo26 O74 2.110438 1_555
Mo26 O86 2.111552 1_555
Mo26 O82 2.137023 1_655
Mo26 O66 2.157143 1_555
Mo27 O79 2.108247 1_565
Mo27 O75 2.110438 1_555
Mo27 O87 2.111552 1_555
Mo27 O83 2.137023 1_555
Mo27 O67 2.157143 1_565
Mo28 O56 2.062221 1_555
Mo28 O76 2.064129 1_555
Mo28 O96 2.072684 1_555
Mo28 O88 2.141426 1_556
Mo28 O92 2.153171 1_455
Mo29 O57 2.062221 1_555
Mo29 O77 2.064129 1_555
Mo29 O97 2.072684 1_555
Mo29 O89 2.141426 1_554
Mo29 O93 2.153171 1_555
Mo30 O58 2.062221 1_555
Mo30 O78 2.064129 1_555
Mo30 O98 2.072684 1_555
Mo30 O90 2.141426 1_554
Mo30 O94 2.153171 1_655
Mo31 O59 2.062221 1_555
Mo31 O79 2.064129 1_555
Mo31 O99 2.072684 1_555
Mo31 O91 2.141426 1_556
Mo31 O95 2.153171 1_555
Mo32 O100 2.024848 1_555
Mo32 O72 2.040667 1_555
Mo32 O52 2.099069 1_555
Mo32 O90 2.157064 1_455
Mo32 O94 2.160969 1_556
Mo33 O101 2.024848 1_555
Mo33 O73 2.040667 1_555
Mo33 O53 2.099069 1_555
Mo33 O91 2.157064 1_555
Mo33 O95 2.160969 1_554
Mo34 O102 2.024848 1_555
Mo34 O74 2.040667 1_555
Mo34 O54 2.099069 1_555
Mo34 O88 2.157064 1_655
Mo34 O92 2.160969 1_554
Mo35 O103 2.024848 1_555
Mo35 O75 2.040667 1_555
Mo35 O55 2.099069 1_555
Mo35 O89 2.157064 1_555
Mo35 O93 2.160969 1_556
Mo36 O62 2.078662 1_555
Mo36 O80 2.122001 1_555
Mo36 O90 2.139460 1_555
Mo36 O92 2.197406 1_555
Mo37 O63 2.078662 1_555
Mo37 O81 2.122001 1_555
Mo37 O91 2.139460 1_555
Mo37 O93 2.197406 1_545
Mo38 O60 2.078662 1_555
Mo38 O82 2.122001 1_555
Mo38 O88 2.139460 1_555
Mo38 O94 2.197406 1_555
Mo39 O61 2.078662 1_555
Mo39 O83 2.122001 1_555
Mo39 O89 2.139460 1_555
Mo39 O95 2.197406 1_565
Mo40 O33 2.055841 1_555
Mo40 O35 2.055841 1_455
Mo40 O18 2.091393 1_455
Mo40 O16 2.091393 1_555
Mo40 O86 2.109233 1_455
Mo40 O84 2.109233 1_555
Mo41 O34 2.055841 1_545
Mo41 O32 2.055841 1_555
Mo41 O17 2.091393 1_545
Mo41 O19 2.091393 1_555
Mo41 O87 2.109233 1_545
Mo41 O85 2.109233 1_555
O0 Pr5 3.025620 1_555
O1 Pr4 3.025620 1_555
O2 Pr7 3.025620 1_555
O3 Pr6 3.025620 1_555
O4 Pr18 2.413560 1_555
O4 Pr0 2.573168 1_555
O5 Pr19 2.413560 1_555
O5 Pr1 2.573168 1_565
O6 Pr16 2.413560 1_555
O6 Pr2 2.573168 1_555
O7 Pr17 2.413560 1_555
O7 Pr3 2.573168 1_545
O8 Pr28 2.528157 1_555
O8 Pr0 2.584483 1_555
O9 Pr29 2.528157 1_555
O9 Pr1 2.584483 1_555
O10 Pr30 2.528157 1_555
O10 Pr2 2.584483 1_555
O11 Pr31 2.528157 1_555
O11 Pr3 2.584483 1_555
O12 Pr1 2.588535 1_555
O13 Pr0 2.588535 1_555
O14 Pr3 2.588535 1_555
O15 Pr2 2.588535 1_555
O16 Pr9 2.436426 1_555
O16 Pr18 2.756873 1_555
O17 Pr8 2.436426 1_555
O17 Pr19 2.756873 1_555
O18 Pr11 2.436426 1_555
O18 Pr16 2.756873 1_555
O19 Pr10 2.436426 1_555
O19 Pr17 2.756873 1_555
O20 Pr10 2.506831 1_555
O20 Pr1 2.730402 1_555
O21 Pr11 2.506831 1_455
O21 Pr0 2.730402 1_555
O22 Pr8 2.506831 1_555
O22 Pr3 2.730402 1_555
O23 Pr9 2.506831 1_655
O23 Pr2 2.730402 1_555
O24 Pr29 2.439494 1_555
O24 Pr24 3.229443 1_555
O25 Pr28 2.439494 1_555
O25 Pr25 3.229443 1_555
O26 Pr31 2.439494 1_555
O26 Pr26 3.229443 1_555
O27 Pr30 2.439494 1_555
O27 Pr27 3.229443 1_555
O28 Pr17 2.342996 1_555
O29 Pr16 2.342996 1_555
O30 Pr19 2.342996 1_555
O31 Pr18 2.342996 1_555
O32 Pr29 2.453900 1_555
O33 Pr28 2.453900 1_555
O34 Pr31 2.453900 1_555
O35 Pr30 2.453900 1_555
O36 Pr0 2.717460 1_555
O36 Pr8 3.035420 1_555
O37 Pr1 2.717460 1_555
O37 Pr9 3.035420 1_555
O38 Pr2 2.717460 1_555
O38 Pr10 3.035420 1_555
O39 Pr3 2.717460 1_555
O39 Pr11 3.035420 1_555
O40 Pr22 2.427248 1_555
O41 Pr23 2.427248 1_555
O42 Pr20 2.427248 1_555
O43 Pr21 2.427248 1_555
O44 Pr24 2.397851 1_555
O44 Pr22 2.407745 1_555
O44 Pr12 2.520815 1_555
O45 Pr25 2.397851 1_555
O45 Pr23 2.407745 1_455
O45 Pr13 2.520815 1_565
O46 Pr26 2.397851 1_555
O46 Pr20 2.407745 1_555
O46 Pr14 2.520815 1_555
O47 Pr27 2.397851 1_555
O47 Pr21 2.407745 1_655
O47 Pr15 2.520815 1_545
O48 Pr5 2.381606 1_555
O48 Pr14 2.448266 1_555
O48 Pr20 2.797567 1_555
O49 Pr4 2.381606 1_555
O49 Pr15 2.448266 1_455
O49 Pr21 2.797567 1_565
O50 Pr7 2.381606 1_555
O50 Pr12 2.448266 1_555
O50 Pr22 2.797567 1_555
O51 Pr6 2.381606 1_555
O51 Pr13 2.448266 1_655
O51 Pr23 2.797567 1_545
O52 Pr4 2.633513 1_555
O52 Pr20 2.873437 1_556
O53 Pr5 2.633513 1_555
O53 Pr21 2.873437 1_554
O54 Pr6 2.633513 1_555
O54 Pr22 2.873437 1_554
O55 Pr7 2.633513 1_555
O55 Pr23 2.873437 1_556
O56 Pr5 2.487827 1_556
O56 Pr24 2.487947 1_555
O57 Pr4 2.487827 1_554
O57 Pr25 2.487947 1_555
O58 Pr7 2.487827 1_554
O58 Pr26 2.487947 1_555
O59 Pr6 2.487827 1_556
O59 Pr27 2.487947 1_555
O60 Pr20 2.416996 1_555
O60 Pr5 2.502579 1_555
O61 Pr21 2.416996 1_565
O61 Pr4 2.502579 1_555
O62 Pr22 2.416996 1_555
O62 Pr7 2.502579 1_555
O63 Pr23 2.416996 1_545
O63 Pr6 2.502579 1_555
O64 Pr24 2.781091 1_555
O65 Pr25 2.781091 1_555
O66 Pr26 2.781091 1_555
O67 Pr27 2.781091 1_555
O68 Pr12 2.408681 1_555
O68 Pr20 2.535698 1_556
O68 Pr24 2.787906 1_555
O68 Pr14 2.858545 1_556
O69 Pr13 2.408681 1_565
O69 Pr21 2.535698 1_564
O69 Pr25 2.787906 1_555
O69 Pr15 2.858545 1_454
O70 Pr14 2.408681 1_555
O70 Pr22 2.535698 1_554
O70 Pr26 2.787906 1_555
O70 Pr12 2.858545 1_554
O71 Pr15 2.408681 1_545
O71 Pr23 2.535698 1_546
O71 Pr27 2.787906 1_555
O71 Pr13 2.858545 1_656
O72 Pr11 2.448677 1_455
O72 Pr4 2.784449 1_555
O73 Pr10 2.448677 1_555
O73 Pr5 2.784449 1_555
O74 Pr9 2.448677 1_655
O74 Pr6 2.784449 1_555
O75 Pr8 2.448677 1_555
O75 Pr7 2.784449 1_555
O76 Pr18 2.361917 1_555
O76 Pr30 2.688117 1_455
O77 Pr19 2.361917 1_555
O77 Pr31 2.688117 1_555
O78 Pr16 2.361917 1_555
O78 Pr28 2.688117 1_655
O79 Pr17 2.361917 1_555
O79 Pr29 2.688117 1_555
O80 Pr30 2.405082 1_555
O80 Pr11 2.445349 1_555
O81 Pr31 2.405082 1_545
O81 Pr10 2.445349 1_555
O82 Pr28 2.405082 1_555
O82 Pr9 2.445349 1_555
O83 Pr29 2.405082 1_565
O83 Pr8 2.445349 1_555
O84 Pr0 2.407397 1_555
O84 Pr18 2.626647 1_555
O85 Pr1 2.407397 1_555
O85 Pr19 2.626647 1_545
O86 Pr2 2.407397 1_555
O86 Pr16 2.626647 1_555
O87 Pr3 2.407397 1_555
O87 Pr17 2.626647 1_565
O88 Pr5 2.683512 1_555
O89 Pr4 2.683512 1_555
O90 Pr7 2.683512 1_555
O91 Pr6 2.683512 1_555
O92 Pr27 2.594690 1_555
O92 Pr30 2.704851 1_555
O93 Pr26 2.594690 1_555
O93 Pr31 2.704851 1_555
O94 Pr25 2.594690 1_555
O94 Pr28 2.704851 1_555
O95 Pr24 2.594690 1_555
O95 Pr29 2.704851 1_555
O96 Pr21 2.288580 1_555
O96 Pr27 2.522804 1_455
O96 Pr13 2.685712 1_556
O97 Pr20 2.288580 1_555
O97 Pr26 2.522804 1_555
O97 Pr12 2.685712 1_554
O98 Pr23 2.288580 1_555
O98 Pr25 2.522804 1_655
O98 Pr15 2.685712 1_554
O99 Pr22 2.288580 1_555
O99 Pr24 2.522804 1_555
O99 Pr14 2.685712 1_556
O100 Pr25 2.337332 1_556
O100 Pr15 2.394005 1_455
O100 Pr4 2.415177 1_555
O101 Pr24 2.337332 1_554
O101 Pr14 2.394005 1_555
O101 Pr5 2.415177 1_555
O102 Pr27 2.337332 1_554
O102 Pr13 2.394005 1_655
O102 Pr6 2.415177 1_555
O103 Pr26 2.337332 1_556
O103 Pr12 2.394005 1_555
O103 Pr7 2.415177 1_555
O104 Pr17 2.298074 1_555
O104 Pr30 2.350867 1_555
O104 Pr27 2.502739 1_555
O104 Pr22 3.076808 1_555
O105 Pr16 2.298074 1_555
O105 Pr31 2.350867 1_555
O105 Pr26 2.502739 1_555
O105 Pr23 3.076808 1_555
O106 Pr19 2.298074 1_555
O106 Pr28 2.350867 1_555
O106 Pr25 2.502739 1_555
O106 Pr20 3.076808 1_555
O107 Pr18 2.298074 1_555
O107 Pr29 2.350867 1_555
O107 Pr24 2.502739 1_555
O107 Pr21 3.076808 1_555
O108 Pr3 2.364021 1_555
O108 Pr11 2.417518 1_555
O108 Pr7 2.541274 1_555
O108 Pr15 2.622313 1_555
O109 Pr2 2.364021 1_555
O109 Pr10 2.417518 1_555
O109 Pr6 2.541274 1_555
O109 Pr14 2.622313 1_555
O110 Pr1 2.364021 1_555
O110 Pr9 2.417518 1_555
O110 Pr5 2.541274 1_555
O110 Pr13 2.622313 1_555
O111 Pr0 2.364021 1_555
O111 Pr8 2.417518 1_555
O111 Pr4 2.541274 1_555
O111 Pr12 2.622313 1_555
