# generated using pymatgen
data_CdGeN2
_symmetry_space_group_name_H-M   'P 1'
_cell_length_a   5.56389021
_cell_length_b   4.92181187
_cell_length_c   8.68211186
_cell_angle_alpha   89.99999495
_cell_angle_beta   141.28068434
_cell_angle_gamma   116.25068010
_symmetry_Int_Tables_number   1
_chemical_formula_structural   CdGeN2
_chemical_formula_sum   'Cd2 Ge2 N4'
_cell_volume   105.15872068
_cell_formula_units_Z   2
loop_
 _symmetry_equiv_pos_site_id
 _symmetry_equiv_pos_as_xyz
  1  'x, y, z'
loop_
 _atom_site_type_symbol
 _atom_site_label
 _atom_site_symmetry_multiplicity
 _atom_site_fract_x
 _atom_site_fract_y
 _atom_site_fract_z
 _atom_site_occupancy
  Cd  Cd0  1  -0.00000000  0.50000000  0.75000000  1
  Cd  Cd1  1  -0.00000000  -0.00000000  0.50000000  1
  Ge  Ge0  1  -0.00000000  0.50000000  0.25000000  1
  Ge  Ge1  1  -0.00000000  -0.00000000  -0.00000000  1
  N  N0  1  0.50000000  0.06927307  0.12500000  1
  N  N1  1  0.50000000  0.93072693  0.62500000  1
  N  N2  1  0.36145286  0.43072693  0.30572693  1
  N  N3  1  0.63854714  0.56927307  0.94427307  1
loop_
_geom_bond_atom_site_label_1
_geom_bond_atom_site_label_2
_geom_bond_distance
_geom_bond_site_symmetry_2
Cd0 N2 2.271809 1_455
Cd0 N1 2.271809 1_445
Cd0 N0 2.271810 1_566
Cd0 N3 2.271814 1_555
Cd1 N3 2.271808 1_555
Cd1 N0 2.271808 1_455
Cd1 N1 2.271809 1_545
Cd1 N2 2.271812 1_445
Ge0 N2 1.866282 1_555
Ge0 N3 1.866287 1_454
Ge0 N0 1.866288 1_455
Ge0 N1 1.866288 1_555
Ge1 N3 1.866286 1_444
Ge1 N1 1.866287 1_444
Ge1 N0 1.866287 1_555
Ge1 N2 1.866291 1_555
