# generated using pymatgen
data_Ca
_symmetry_space_group_name_H-M   'P 1'
_cell_length_a   7.90175430
_cell_length_b   7.90175430
_cell_length_c   12.96048932
_cell_angle_alpha   90.00000000
_cell_angle_beta   90.00000000
_cell_angle_gamma   120.64900206
_symmetry_Int_Tables_number   1
_chemical_formula_structural   Ca
_chemical_formula_sum   Ca16
_cell_volume   696.18004852
_cell_formula_units_Z   16
loop_
 _symmetry_equiv_pos_site_id
 _symmetry_equiv_pos_as_xyz
  1  'x, y, z'
loop_
 _atom_site_type_symbol
 _atom_site_label
 _atom_site_symmetry_multiplicity
 _atom_site_fract_x
 _atom_site_fract_y
 _atom_site_fract_z
 _atom_site_occupancy
  Ca  Ca0_0  1  0.41990889  0.08009111  0.12500000  1
  Ca  Ca0_1  1  0.41990889  0.08009111  0.62500000  1
  Ca  Ca0_2  1  0.41990889  0.58009111  0.12500000  1
  Ca  Ca0_3  1  0.41990889  0.58009111  0.62500000  1
  Ca  Ca0_4  1  0.91990889  0.08009111  0.12500000  1
  Ca  Ca0_5  1  0.91990889  0.08009111  0.62500000  1
  Ca  Ca0_6  1  0.91990889  0.58009111  0.12500000  1
  Ca  Ca0_7  1  0.91990889  0.58009111  0.62500000  1
  Ca  Ca1_0  1  0.08009111  0.41990889  0.37500000  1
  Ca  Ca1_1  1  0.08009111  0.41990889  0.87500000  1
  Ca  Ca1_2  1  0.08009111  0.91990889  0.37500000  1
  Ca  Ca1_3  1  0.08009111  0.91990889  0.87500000  1
  Ca  Ca1_4  1  0.58009111  0.41990889  0.37500000  1
  Ca  Ca1_5  1  0.58009111  0.41990889  0.87500000  1
  Ca  Ca1_6  1  0.58009111  0.91990889  0.37500000  1
  Ca  Ca1_7  1  0.58009111  0.91990889  0.87500000  1
loop_
_geom_bond_atom_site_label_1
_geom_bond_atom_site_label_2
_geom_bond_distance
_geom_bond_site_symmetry_2
Ca0_0 Ca0_6 3.912057 1_555
Ca0_0 Ca0_6 3.912057 1_445
Ca0_0 Ca1_7 3.916103 1_544
Ca0_0 Ca1_6 3.916103 1_545
Ca0_0 Ca0_2 3.950877 1_555
Ca0_0 Ca0_2 3.950877 1_545
Ca0_0 Ca0_4 3.950877 1_455
Ca0_0 Ca0_4 3.950877 1_555
Ca0_0 Ca1_3 3.980627 1_544
Ca0_0 Ca1_5 3.980627 1_554
Ca0_0 Ca1_2 3.980627 1_545
Ca0_0 Ca1_4 3.980627 1_555
Ca0_1 Ca0_7 3.912057 1_445
Ca0_1 Ca0_7 3.912057 1_555
Ca0_1 Ca1_6 3.916103 1_545
Ca0_1 Ca1_7 3.916103 1_545
Ca0_1 Ca0_5 3.950877 1_555
Ca0_1 Ca0_3 3.950877 1_555
Ca0_1 Ca0_3 3.950877 1_545
Ca0_1 Ca0_5 3.950877 1_455
Ca0_1 Ca1_2 3.980627 1_545
Ca0_1 Ca1_4 3.980627 1_555
Ca0_1 Ca1_3 3.980627 1_545
Ca0_1 Ca1_5 3.980627 1_555
Ca0_2 Ca0_4 3.912057 1_565
Ca0_2 Ca0_4 3.912057 1_455
Ca0_2 Ca1_5 3.916103 1_554
Ca0_2 Ca1_4 3.916103 1_555
Ca0_2 Ca0_6 3.950877 1_455
Ca0_2 Ca0_6 3.950877 1_555
Ca0_2 Ca1_1 3.980627 1_554
Ca0_2 Ca1_7 3.980627 1_554
Ca0_2 Ca1_0 3.980627 1_555
Ca0_2 Ca1_6 3.980627 1_555
Ca0_3 Ca0_5 3.912057 1_565
Ca0_3 Ca0_5 3.912057 1_455
Ca0_3 Ca1_4 3.916103 1_555
Ca0_3 Ca1_5 3.916103 1_555
Ca0_3 Ca0_7 3.950877 1_455
Ca0_3 Ca0_7 3.950877 1_555
Ca0_3 Ca1_6 3.980627 1_555
Ca0_3 Ca1_0 3.980627 1_555
Ca0_3 Ca1_7 3.980627 1_555
Ca0_3 Ca1_1 3.980627 1_555
Ca0_4 Ca1_3 3.916103 1_644
Ca0_4 Ca1_2 3.916103 1_645
Ca0_4 Ca0_6 3.950877 1_555
Ca0_4 Ca0_6 3.950877 1_545
Ca0_4 Ca1_7 3.980627 1_544
Ca0_4 Ca1_1 3.980627 1_654
Ca0_4 Ca1_6 3.980627 1_545
Ca0_4 Ca1_0 3.980627 1_655
Ca0_5 Ca1_2 3.916103 1_645
Ca0_5 Ca1_3 3.916103 1_645
Ca0_5 Ca0_7 3.950877 1_555
Ca0_5 Ca0_7 3.950877 1_545
Ca0_5 Ca1_6 3.980627 1_545
Ca0_5 Ca1_0 3.980627 1_655
Ca0_5 Ca1_7 3.980627 1_545
Ca0_5 Ca1_1 3.980627 1_655
Ca0_6 Ca1_1 3.916103 1_654
Ca0_6 Ca1_0 3.916103 1_655
Ca0_6 Ca1_5 3.980627 1_554
Ca0_6 Ca1_3 3.980627 1_654
Ca0_6 Ca1_2 3.980627 1_655
Ca0_6 Ca1_4 3.980627 1_555
Ca0_7 Ca1_0 3.916103 1_655
Ca0_7 Ca1_1 3.916103 1_655
Ca0_7 Ca1_2 3.980627 1_655
Ca0_7 Ca1_4 3.980627 1_555
Ca0_7 Ca1_3 3.980627 1_655
Ca0_7 Ca1_5 3.980627 1_555
Ca1_0 Ca1_6 3.912057 1_445
Ca1_0 Ca1_6 3.912057 1_555
Ca1_0 Ca1_4 3.950877 1_555
Ca1_0 Ca1_2 3.950877 1_545
Ca1_0 Ca1_2 3.950877 1_555
Ca1_0 Ca1_4 3.950877 1_455
Ca1_1 Ca1_7 3.912057 1_445
Ca1_1 Ca1_7 3.912057 1_555
Ca1_1 Ca1_3 3.950877 1_545
Ca1_1 Ca1_5 3.950877 1_455
Ca1_1 Ca1_5 3.950877 1_555
Ca1_1 Ca1_3 3.950877 1_555
Ca1_2 Ca1_4 3.912057 1_565
Ca1_2 Ca1_4 3.912057 1_455
Ca1_2 Ca1_6 3.950877 1_555
Ca1_2 Ca1_6 3.950877 1_455
Ca1_3 Ca1_5 3.912057 1_565
Ca1_3 Ca1_5 3.912057 1_455
Ca1_3 Ca1_7 3.950877 1_555
Ca1_3 Ca1_7 3.950877 1_455
Ca1_4 Ca1_6 3.950877 1_545
Ca1_4 Ca1_6 3.950877 1_555
Ca1_5 Ca1_7 3.950877 1_555
Ca1_5 Ca1_7 3.950877 1_545
