# generated using pymatgen
data_B8PbO15
_symmetry_space_group_name_H-M   'P 1'
_cell_length_a   13.67152500
_cell_length_b   8.19315300
_cell_length_c   12.92267918
_cell_angle_alpha   50.91343127
_cell_angle_beta   90.00000000
_cell_angle_gamma   90.00000000
_symmetry_Int_Tables_number   1
_chemical_formula_structural   B8PbO15
_chemical_formula_sum   'B32 Pb4 O60'
_cell_volume   1123.54636213
_cell_formula_units_Z   4
loop_
 _symmetry_equiv_pos_site_id
 _symmetry_equiv_pos_as_xyz
  1  'x, y, z'
loop_
 _atom_site_type_symbol
 _atom_site_label
 _atom_site_symmetry_multiplicity
 _atom_site_fract_x
 _atom_site_fract_y
 _atom_site_fract_z
 _atom_site_occupancy
  B  B0  1  0.17887100  0.80533400  0.49036400  1
  B  B1  1  0.67887100  0.19466600  0.00963600  1
  B  B2  1  0.82112900  0.19466600  0.50963600  1
  B  B3  1  0.32112900  0.80533400  0.99036400  1
  B  B4  1  0.81394800  0.46149300  0.24493500  1
  B  B5  1  0.31394800  0.53850700  0.25506500  1
  B  B6  1  0.18605200  0.53850700  0.75506500  1
  B  B7  1  0.68605200  0.46149300  0.74493500  1
  B  B8  1  0.92420100  0.94985900  0.25700900  1
  B  B9  1  0.42420100  0.05014100  0.24299100  1
  B  B10  1  0.07579900  0.05014100  0.74299100  1
  B  B11  1  0.57579900  0.94985900  0.75700900  1
  B  B12  1  0.96857100  0.38964800  0.37122300  1
  B  B13  1  0.46857100  0.61035200  0.12877700  1
  B  B14  1  0.03142900  0.61035200  0.62877700  1
  B  B15  1  0.53142900  0.38964800  0.87122300  1
  B  B16  1  0.69587500  0.13222400  0.38159500  1
  B  B17  1  0.19587500  0.86777600  0.11840500  1
  B  B18  1  0.30412500  0.86777600  0.61840500  1
  B  B19  1  0.80412500  0.13222400  0.88159500  1
  B  B20  1  0.56556600  0.18306200  0.49996200  1
  B  B21  1  0.06556600  0.81693800  0.00003800  1
  B  B22  1  0.43443400  0.81693800  0.50003800  1
  B  B23  1  0.93443400  0.18306200  0.99996200  1
  B  B24  1  0.24753300  0.16629300  0.38961100  1
  B  B25  1  0.74753300  0.83370700  0.11038900  1
  B  B26  1  0.75246700  0.83370700  0.61038900  1
  B  B27  1  0.25246700  0.16629300  0.88961100  1
  B  B28  1  0.23826700  0.69445900  0.35495300  1
  B  B29  1  0.73826700  0.30554100  0.14504700  1
  B  B30  1  0.76173300  0.30554100  0.64504700  1
  B  B31  1  0.26173300  0.69445900  0.85495300  1
  Pb  Pb0  1  0.67678300  0.74856600  0.37923200  1
  Pb  Pb1  1  0.17678300  0.25143400  0.12076800  1
  Pb  Pb2  1  0.32321700  0.25143400  0.62076800  1
  Pb  Pb3  1  0.82321700  0.74856600  0.87923200  1
  O  O0  1  0.78304600  0.25169200  0.37766300  1
  O  O1  1  0.28304600  0.74830800  0.12233700  1
  O  O2  1  0.21695400  0.74830800  0.62233700  1
  O  O3  1  0.71695400  0.25169200  0.87766300  1
  O  O4  1  0.91777800  0.49447400  0.25349800  1
  O  O5  1  0.41777800  0.50552600  0.24650200  1
  O  O6  1  0.08222200  0.50552600  0.74650200  1
  O  O7  1  0.58222200  0.49447400  0.75349800  1
  O  O8  1  0.29715800  0.55007700  0.36233100  1
  O  O9  1  0.79715800  0.44992300  0.13766900  1
  O  O10  1  0.70284200  0.44992300  0.63766900  1
  O  O11  1  0.20284200  0.55007700  0.86233100  1
  O  O12  1  0.69336700  0.14764200  0.26292200  1
  O  O13  1  0.19336700  0.85235800  0.23707800  1
  O  O14  1  0.30663300  0.85235800  0.73707800  1
  O  O15  1  0.80663300  0.14764200  0.76292200  1
  O  O16  1  0.19426800  0.03006600  0.38302400  1
  O  O17  1  0.69426800  0.96993400  0.11697600  1
  O  O18  1  0.80573200  0.96993400  0.61697600  1
  O  O19  1  0.30573200  0.03006600  0.88302400  1
  O  O20  1  0.25528500  0.37007100  0.27512600  1
  O  O21  1  0.75528500  0.62992900  0.22487400  1
  O  O22  1  0.74471500  0.62992900  0.72487400  1
  O  O23  1  0.24471500  0.37007100  0.77512600  1
  O  O24  1  0.60563300  0.21538000  0.39299500  1
  O  O25  1  0.10563300  0.78462000  0.10700500  1
  O  O26  1  0.39436700  0.78462000  0.60700500  1
  O  O27  1  0.89436700  0.21538000  0.89299500  1
  O  O28  1  0.40079700  0.97656700  0.37096500  1
  O  O29  1  0.90079700  0.02343300  0.12903500  1
  O  O30  1  0.59920300  0.02343300  0.62903500  1
  O  O31  1  0.09920300  0.97656700  0.87096500  1
  O  O32  1  0.70819800  0.90639900  0.49254300  1
  O  O33  1  0.20819800  0.09360100  0.00745700  1
  O  O34  1  0.29180200  0.09360100  0.50745700  1
  O  O35  1  0.79180200  0.90639900  0.99254300  1
  O  O36  1  0.49123300  0.30223900  0.49237800  1
  O  O37  1  0.99123300  0.69776100  0.00762200  1
  O  O38  1  0.50876700  0.69776100  0.50762200  1
  O  O39  1  0.00876700  0.30223900  0.99237800  1
  O  O40  1  0.07420900  0.76089600  0.50754400  1
  O  O41  1  0.57420900  0.23910400  0.99245600  1
  O  O42  1  0.92579100  0.23910400  0.49245600  1
  O  O43  1  0.42579100  0.76089600  0.00754400  1
  O  O44  1  0.00373100  0.03833000  0.26889500  1
  O  O45  1  0.50373100  0.96167000  0.23110500  1
  O  O46  1  0.99626900  0.96167000  0.73110500  1
  O  O47  1  0.49626900  0.03833000  0.76889500  1
  O  O48  1  0.23210400  0.67530100  0.46770400  1
  O  O49  1  0.73210400  0.32469900  0.03229600  1
  O  O50  1  0.76789600  0.32469900  0.53229600  1
  O  O51  1  0.26789600  0.67530100  0.96770400  1
  O  O52  1  0.86580400  0.80538900  0.36157800  1
  O  O53  1  0.36580400  0.19461100  0.13842200  1
  O  O54  1  0.13419600  0.19461100  0.63842200  1
  O  O55  1  0.63419600  0.80538900  0.86157800  1
  O  O56  1  0.06566000  0.43658900  0.37119200  1
  O  O57  1  0.56566000  0.56341100  0.12880800  1
  O  O58  1  0.93434000  0.56341100  0.62880800  1
  O  O59  1  0.43434000  0.43658900  0.87119200  1
loop_
_geom_bond_atom_site_label_1
_geom_bond_atom_site_label_2
_geom_bond_distance
_geom_bond_site_symmetry_2
B0 O40 1.458549 1_555
B0 O16 1.462202 1_565
B0 O48 1.464184 1_555
B0 O2 1.546976 1_555
B1 O41 1.458549 1_554
B1 O17 1.462202 1_545
B1 O49 1.464184 1_555
B1 O3 1.546976 1_554
B2 O42 1.458549 1_555
B2 O18 1.462202 1_545
B2 O50 1.464184 1_555
B2 O0 1.546976 1_555
B3 O43 1.458549 1_556
B3 O19 1.462202 1_565
B3 O51 1.464184 1_555
B3 O1 1.546976 1_556
B4 O4 1.462187 1_555
B4 O9 1.465886 1_555
B4 O21 1.470973 1_555
B4 O0 1.535364 1_555
B5 O5 1.462187 1_555
B5 O8 1.465886 1_555
B5 O20 1.470973 1_555
B5 O1 1.535364 1_555
B6 O6 1.462187 1_555
B6 O11 1.465886 1_555
B6 O23 1.470973 1_555
B6 O2 1.535364 1_555
B7 O7 1.462187 1_555
B7 O10 1.465886 1_555
B7 O22 1.470973 1_555
B7 O3 1.535364 1_555
B8 O52 1.359250 1_555
B8 O44 1.368071 1_665
B8 O29 1.394139 1_565
B9 O53 1.359250 1_555
B9 O45 1.368071 1_545
B9 O28 1.394139 1_545
B10 O54 1.359250 1_555
B10 O46 1.368071 1_445
B10 O31 1.394139 1_545
B11 O55 1.359250 1_555
B11 O47 1.368071 1_565
B11 O30 1.394139 1_565
B12 O42 1.371549 1_555
B12 O4 1.373561 1_555
B12 O56 1.381879 1_655
B13 O43 1.371549 1_555
B13 O5 1.373561 1_555
B13 O57 1.381879 1_555
B14 O40 1.371549 1_555
B14 O6 1.373561 1_555
B14 O58 1.381879 1_455
B15 O41 1.371549 1_555
B15 O7 1.373561 1_555
B15 O59 1.381879 1_555
B16 O12 1.457634 1_555
B16 O24 1.461020 1_555
B16 O32 1.470457 1_545
B16 O0 1.522579 1_555
B17 O13 1.457634 1_555
B17 O25 1.461020 1_555
B17 O33 1.470457 1_565
B17 O1 1.522579 1_555
B18 O14 1.457634 1_555
B18 O26 1.461020 1_555
B18 O34 1.470457 1_565
B18 O2 1.522579 1_555
B19 O15 1.457634 1_555
B19 O27 1.461020 1_555
B19 O35 1.470457 1_545
B19 O3 1.522579 1_555
B20 O24 1.348846 1_555
B20 O36 1.369348 1_555
B20 O30 1.397603 1_555
B21 O25 1.348846 1_555
B21 O37 1.369348 1_455
B21 O31 1.397603 1_554
B22 O26 1.348846 1_555
B22 O38 1.369348 1_555
B22 O28 1.397603 1_555
B23 O27 1.348846 1_555
B23 O39 1.369348 1_655
B23 O29 1.397603 1_556
B24 O20 1.368501 1_555
B24 O34 1.377128 1_555
B24 O16 1.379524 1_555
B25 O21 1.368501 1_555
B25 O35 1.377128 1_554
B25 O17 1.379524 1_555
B26 O22 1.368501 1_555
B26 O32 1.377128 1_555
B26 O18 1.379524 1_555
B27 O23 1.368501 1_555
B27 O33 1.377128 1_556
B27 O19 1.379524 1_555
B28 O48 1.366135 1_555
B28 O13 1.373257 1_555
B28 O8 1.383640 1_555
B29 O49 1.366135 1_555
B29 O12 1.373257 1_555
B29 O9 1.383640 1_555
B30 O50 1.366135 1_555
B30 O15 1.373257 1_555
B30 O10 1.383640 1_555
B31 O51 1.366135 1_555
B31 O14 1.373257 1_555
B31 O11 1.383640 1_555
O8 Pb2 2.638770 1_555
O9 Pb3 2.638770 1_554
O10 Pb0 2.638770 1_555
O11 Pb1 2.638770 1_556
O12 Pb0 2.608510 1_545
O13 Pb1 2.608510 1_565
O14 Pb2 2.608510 1_565
O15 Pb3 2.608510 1_545
O16 Pb1 2.661085 1_555
O17 Pb0 2.661085 1_555
O18 Pb3 2.661085 1_555
O19 Pb2 2.661085 1_555
O32 Pb0 2.527557 1_555
O33 Pb1 2.527557 1_555
O34 Pb2 2.527557 1_555
O35 Pb3 2.527557 1_555
O36 Pb2 2.707679 1_555
O37 Pb3 2.707679 1_554
O38 Pb0 2.707679 1_555
O39 Pb1 2.707679 1_556
O52 Pb0 2.610168 1_555
O53 Pb1 2.610168 1_555
O54 Pb2 2.610168 1_555
O55 Pb3 2.610168 1_555
