# generated using pymatgen
data_Sr2(GaAu2)3
_symmetry_space_group_name_H-M   'P 1'
_cell_length_a   8.94373419
_cell_length_b   8.94373419
_cell_length_c   8.94373453
_cell_angle_alpha   57.20378270
_cell_angle_beta   57.20378270
_cell_angle_gamma   57.20378346
_symmetry_Int_Tables_number   1
_chemical_formula_structural   Sr2(GaAu2)3
_chemical_formula_sum   'Sr4 Ga6 Au12'
_cell_volume   473.29052065
_cell_formula_units_Z   2
loop_
 _symmetry_equiv_pos_site_id
 _symmetry_equiv_pos_as_xyz
  1  'x, y, z'
loop_
 _atom_site_type_symbol
 _atom_site_label
 _atom_site_symmetry_multiplicity
 _atom_site_fract_x
 _atom_site_fract_y
 _atom_site_fract_z
 _atom_site_occupancy
  Sr  Sr0  1  0.41032400  0.41032400  0.41032400  1
  Sr  Sr1  1  0.91032400  0.91032400  0.91032400  1
  Sr  Sr2  1  0.58967600  0.58967600  0.58967600  1
  Sr  Sr3  1  0.08967600  0.08967600  0.08967600  1
  Ga  Ga0  1  0.05345000  0.25000000  0.44655000  1
  Ga  Ga1  1  0.44655000  0.05345000  0.25000000  1
  Ga  Ga2  1  0.25000000  0.44655000  0.05345000  1
  Ga  Ga3  1  0.94655000  0.75000000  0.55345000  1
  Ga  Ga4  1  0.55345000  0.94655000  0.75000000  1
  Ga  Ga5  1  0.75000000  0.55345000  0.94655000  1
  Au  Au0  1  0.97508800  0.36554100  0.70509500  1
  Au  Au1  1  0.70509500  0.97508800  0.36554100  1
  Au  Au2  1  0.36554100  0.70509500  0.97508800  1
  Au  Au3  1  0.20509500  0.86554100  0.47508800  1
  Au  Au4  1  0.47508800  0.20509500  0.86554100  1
  Au  Au5  1  0.86554100  0.47508800  0.20509500  1
  Au  Au6  1  0.02491200  0.63445900  0.29490500  1
  Au  Au7  1  0.29490500  0.02491200  0.63445900  1
  Au  Au8  1  0.63445900  0.29490500  0.02491200  1
  Au  Au9  1  0.79490500  0.13445900  0.52491200  1
  Au  Au10  1  0.52491200  0.79490500  0.13445900  1
  Au  Au11  1  0.13445900  0.52491200  0.79490500  1
loop_
_geom_bond_atom_site_label_1
_geom_bond_atom_site_label_2
_geom_bond_distance
_geom_bond_site_symmetry_2
Ga0 Sr2 3.589254 1_455
Ga0 Sr1 3.589254 1_445
Ga1 Sr2 3.589254 1_545
Ga1 Sr1 3.589254 1_544
Ga2 Sr1 3.589254 1_454
Ga2 Sr2 3.589254 1_554
Ga3 Sr0 3.589254 1_655
Ga3 Sr3 3.589254 1_665
Ga4 Sr0 3.589254 1_565
Ga4 Sr3 3.589254 1_566
Ga5 Sr3 3.589254 1_656
Ga5 Sr0 3.589254 1_556
Au0 Ga0 2.637125 1_655
Au0 Ga5 2.664129 1_555
Au0 Ga3 2.846072 1_555
Au0 Au8 2.923915 1_556
Au0 Au7 2.923915 1_655
Au0 Au6 3.045251 1_655
Au0 Au11 3.064322 1_655
Au0 Sr3 3.294638 1_656
Au0 Sr2 3.330685 1_555
Au0 Sr0 3.419241 1_655
Au0 Sr1 3.686168 1_545
Au1 Ga1 2.637125 1_565
Au1 Ga3 2.664129 1_555
Au1 Ga4 2.846072 1_555
Au1 Au6 2.923915 1_655
Au1 Au8 2.923915 1_565
Au1 Au7 3.045251 1_565
Au1 Au9 3.064322 1_565
Au1 Sr3 3.294638 1_665
Au1 Sr2 3.330685 1_555
Au1 Sr0 3.419241 1_565
Au1 Sr1 3.686168 1_554
Au2 Ga2 2.637125 1_556
Au2 Ga4 2.664129 1_555
Au2 Ga5 2.846072 1_555
Au2 Au6 2.923915 1_556
Au2 Au7 2.923915 1_565
Au2 Au8 3.045251 1_556
Au2 Sr3 3.294638 1_566
Au2 Sr2 3.330685 1_555
Au2 Sr0 3.419241 1_556
Au2 Sr1 3.686168 1_455
Au3 Ga3 2.637125 1_455
Au3 Ga1 2.664129 1_565
Au3 Ga0 2.846072 1_565
Au3 Au9 3.045251 1_465
Au3 Au7 3.064322 1_565
Au3 Sr2 3.294638 1_555
Au3 Sr3 3.330685 1_565
Au3 Sr1 3.419241 1_455
Au3 Sr0 3.686168 1_555
Au4 Ga4 2.637125 1_545
Au4 Ga2 2.664129 1_556
Au4 Ga1 2.846072 1_556
Au4 Au9 2.923915 1_555
Au4 Au8 3.064322 1_556
Au4 Sr2 3.294638 1_555
Au4 Sr3 3.330685 1_556
Au4 Sr1 3.419241 1_545
Au4 Sr0 3.686168 1_555
Au5 Ga5 2.637125 1_554
Au5 Ga0 2.664129 1_655
Au5 Ga2 2.846072 1_655
Au5 Au9 2.923915 1_555
Au5 Au6 3.064322 1_655
Au5 Sr2 3.294638 1_555
Au5 Sr3 3.330685 1_655
Au5 Sr1 3.419241 1_554
Au5 Sr0 3.686168 1_555
Au6 Ga3 2.637125 1_455
Au6 Ga2 2.664129 1_555
Au6 Ga0 2.846072 1_555
Au6 Sr1 3.294638 1_454
Au6 Sr0 3.330685 1_555
Au6 Sr2 3.419241 1_455
Au6 Sr3 3.686168 1_565
Au7 Ga4 2.637125 1_545
Au7 Ga0 2.664129 1_555
Au7 Ga1 2.846072 1_555
Au7 Sr1 3.294638 1_445
Au7 Sr0 3.330685 1_555
Au7 Sr2 3.419241 1_545
Au7 Sr3 3.686168 1_556
Au8 Ga5 2.637125 1_554
Au8 Ga1 2.664129 1_555
Au8 Ga2 2.846072 1_555
Au8 Sr1 3.294638 1_544
Au8 Sr0 3.330685 1_555
Au8 Sr2 3.419241 1_554
Au8 Sr3 3.686168 1_655
Au9 Ga0 2.637125 1_655
Au9 Ga4 2.664129 1_545
Au9 Ga3 2.846072 1_545
Au9 Sr0 3.294638 1_555
Au9 Sr1 3.330685 1_545
Au9 Sr3 3.419241 1_655
Au9 Sr2 3.686168 1_555
Au10 Ga1 2.637125 1_565
Au10 Ga5 2.664129 1_554
Au10 Ga4 2.846072 1_554
Au10 Au5 2.923915 1_555
Au10 Au3 2.923915 1_555
Au10 Au4 3.045251 1_564
Au10 Au2 3.064322 1_554
Au10 Sr0 3.294638 1_555
Au10 Sr1 3.330685 1_554
Au10 Sr3 3.419241 1_565
Au10 Sr2 3.686168 1_555
Au11 Ga2 2.637125 1_556
Au11 Ga3 2.664129 1_455
Au11 Ga5 2.846072 1_455
Au11 Au3 2.923915 1_555
Au11 Au4 2.923915 1_555
Au11 Au5 3.045251 1_456
Au11 Sr0 3.294638 1_555
Au11 Sr1 3.330685 1_455
Au11 Sr3 3.419241 1_556
Au11 Sr2 3.686168 1_555
