# generated using pymatgen
data_Nd2Ta3(SeO4)2
_symmetry_space_group_name_H-M   'P 1'
_cell_length_a   7.65459200
_cell_length_b   9.97325100
_cell_length_c   11.95508600
_cell_angle_alpha   90.00000000
_cell_angle_beta   90.00000000
_cell_angle_gamma   90.00000000
_symmetry_Int_Tables_number   1
_chemical_formula_structural   Nd2Ta3(SeO4)2
_chemical_formula_sum   'Nd8 Ta12 Se8 O32'
_cell_volume   912.66522063
_cell_formula_units_Z   4
loop_
 _symmetry_equiv_pos_site_id
 _symmetry_equiv_pos_as_xyz
  1  'x, y, z'
loop_
 _atom_site_type_symbol
 _atom_site_label
 _atom_site_symmetry_multiplicity
 _atom_site_fract_x
 _atom_site_fract_y
 _atom_site_fract_z
 _atom_site_occupancy
  Nd  Nd0  1  0.00000000  0.22703100  0.35121300  1
  Nd  Nd1  1  0.00000000  0.77296900  0.64878700  1
  Nd  Nd2  1  0.50000000  0.27296900  0.85121300  1
  Nd  Nd3  1  0.50000000  0.72703100  0.14878700  1
  Nd  Nd4  1  0.00000000  0.70978700  0.15645700  1
  Nd  Nd5  1  0.00000000  0.29021300  0.84354300  1
  Nd  Nd6  1  0.50000000  0.79021300  0.65645700  1
  Nd  Nd7  1  0.50000000  0.20978700  0.34354300  1
  Ta  Ta0  1  0.24983800  0.36437600  0.08431400  1
  Ta  Ta1  1  0.75016200  0.63562400  0.91568600  1
  Ta  Ta2  1  0.24983800  0.63562400  0.91568600  1
  Ta  Ta3  1  0.25016200  0.13562400  0.58431400  1
  Ta  Ta4  1  0.75016200  0.36437600  0.08431400  1
  Ta  Ta5  1  0.74983800  0.86437600  0.41568600  1
  Ta  Ta6  1  0.25016200  0.86437600  0.41568600  1
  Ta  Ta7  1  0.74983800  0.13562400  0.58431400  1
  Ta  Ta8  1  0.21436000  0.00000000  0.00000000  1
  Ta  Ta9  1  0.78564000  0.00000000  0.00000000  1
  Ta  Ta10  1  0.28564000  0.50000000  0.50000000  1
  Ta  Ta11  1  0.71436000  0.50000000  0.50000000  1
  Se  Se0  1  0.00000000  0.01846500  0.16429800  1
  Se  Se1  1  0.00000000  0.98153500  0.83570200  1
  Se  Se2  1  0.50000000  0.48153500  0.66429800  1
  Se  Se3  1  0.50000000  0.51846500  0.33570200  1
  Se  Se4  1  0.00000000  0.52332900  0.35998200  1
  Se  Se5  1  0.00000000  0.47667100  0.64001800  1
  Se  Se6  1  0.50000000  0.97667100  0.85998200  1
  Se  Se7  1  0.50000000  0.02332900  0.14001800  1
  O  O0  1  0.00000000  0.36590400  0.05080300  1
  O  O1  1  0.00000000  0.63409600  0.94919700  1
  O  O2  1  0.50000000  0.13409600  0.55080300  1
  O  O3  1  0.50000000  0.86590400  0.44919700  1
  O  O4  1  0.24704000  0.28653900  0.22500700  1
  O  O5  1  0.75296000  0.71346100  0.77499300  1
  O  O6  1  0.24704000  0.71346100  0.77499300  1
  O  O7  1  0.25296000  0.21346100  0.72500700  1
  O  O8  1  0.75296000  0.28653900  0.22500700  1
  O  O9  1  0.74704000  0.78653900  0.27499300  1
  O  O10  1  0.25296000  0.78653900  0.27499300  1
  O  O11  1  0.74704000  0.21346100  0.72500700  1
  O  O12  1  0.00000000  0.14928900  0.54880500  1
  O  O13  1  0.00000000  0.85071100  0.45119500  1
  O  O14  1  0.50000000  0.35071100  0.04880500  1
  O  O15  1  0.50000000  0.64928900  0.95119500  1
  O  O16  1  0.26366200  0.30252900  0.47538400  1
  O  O17  1  0.73633800  0.69747100  0.52461600  1
  O  O18  1  0.26366200  0.69747100  0.52461600  1
  O  O19  1  0.23633800  0.19747100  0.97538400  1
  O  O20  1  0.73633800  0.30252900  0.47538400  1
  O  O21  1  0.76366200  0.80252900  0.02461600  1
  O  O22  1  0.23633800  0.80252900  0.02461600  1
  O  O23  1  0.76366200  0.19747100  0.97538400  1
  O  O24  1  0.24531900  0.05711500  0.39660800  1
  O  O25  1  0.75468100  0.94288500  0.60339200  1
  O  O26  1  0.24531900  0.94288500  0.60339200  1
  O  O27  1  0.25468100  0.44288500  0.89660800  1
  O  O28  1  0.75468100  0.05711500  0.39660800  1
  O  O29  1  0.74531900  0.55711500  0.10339200  1
  O  O30  1  0.25468100  0.55711500  0.10339200  1
  O  O31  1  0.74531900  0.44288500  0.89660800  1
loop_
_geom_bond_atom_site_label_1
_geom_bond_atom_site_label_2
_geom_bond_distance
_geom_bond_site_symmetry_2
Nd0 O12 2.486218 1_555
Nd0 O4 2.490896 1_555
Nd0 O8 2.490896 1_455
Nd0 O28 2.586975 1_455
Nd0 O24 2.586975 1_555
Nd0 O20 2.616075 1_455
Nd0 O16 2.616075 1_555
Nd0 Se4 2.956913 1_555
Nd0 Se0 3.052885 1_555
Nd1 O13 2.486218 1_555
Nd1 O5 2.490896 1_455
Nd1 O6 2.490896 1_555
Nd1 O25 2.586975 1_455
Nd1 O26 2.586975 1_555
Nd1 O17 2.616075 1_455
Nd1 O18 2.616075 1_555
Nd1 Se5 2.956913 1_555
Nd1 Se1 3.052885 1_555
Nd2 O14 2.486218 1_556
Nd2 O7 2.490896 1_555
Nd2 O11 2.490896 1_555
Nd2 O31 2.586975 1_555
Nd2 O27 2.586975 1_555
Nd2 O23 2.616075 1_555
Nd2 O19 2.616075 1_555
Nd2 Se6 2.956913 1_545
Nd2 Se2 3.052885 1_555
Nd3 O15 2.486218 1_554
Nd3 O10 2.490896 1_555
Nd3 O9 2.490896 1_555
Nd3 O29 2.586975 1_555
Nd3 O30 2.586975 1_555
Nd3 O21 2.616075 1_555
Nd3 O22 2.616075 1_555
Nd3 Se7 2.956913 1_565
Nd3 Se3 3.052885 1_555
Nd4 O9 2.518614 1_455
Nd4 O10 2.518614 1_555
Nd4 O30 2.553693 1_555
Nd4 O29 2.553693 1_455
Nd4 O22 2.571491 1_555
Nd4 O21 2.571491 1_455
Nd4 O1 2.590251 1_554
Nd4 Se4 3.062409 1_555
Nd4 Se0 3.079950 1_565
Nd5 O11 2.518614 1_455
Nd5 O7 2.518614 1_555
Nd5 O27 2.553693 1_555
Nd5 O31 2.553693 1_455
Nd5 O19 2.571491 1_555
Nd5 O23 2.571491 1_455
Nd5 O0 2.590251 1_556
Nd5 Se5 3.062409 1_555
Nd5 Se1 3.079950 1_545
Nd6 O5 2.518614 1_555
Nd6 O6 2.518614 1_555
Nd6 O26 2.553693 1_555
Nd6 O25 2.553693 1_555
Nd6 O18 2.571491 1_555
Nd6 O17 2.571491 1_555
Nd6 O3 2.590251 1_555
Nd6 Se6 3.062409 1_555
Nd6 Se2 3.079950 1_555
Nd7 O4 2.518614 1_555
Nd7 O8 2.518614 1_555
Nd7 O24 2.553693 1_555
Nd7 O28 2.553693 1_555
Nd7 O20 2.571491 1_555
Nd7 O16 2.571491 1_555
Nd7 O2 2.590251 1_555
Nd7 Se7 3.062409 1_555
Nd7 Se3 3.079950 1_555
Se0 Ta9 2.565995 1_455
Se0 Ta8 2.565995 1_555
Se1 Ta9 2.565995 1_466
Se1 Ta8 2.565995 1_566
Se2 Ta11 2.565995 1_555
Se2 Ta10 2.565995 1_555
Se3 Ta10 2.565995 1_555
Se3 Ta11 2.565995 1_555
Se4 Ta10 2.763469 1_555
Se4 Ta11 2.763469 1_455
Se5 Ta10 2.763469 1_555
Se5 Ta11 2.763469 1_455
Se6 Ta8 2.763469 1_566
Se6 Ta9 2.763469 1_566
Se7 Ta9 2.763469 1_555
Se7 Ta8 2.763469 1_555
O0 Ta0 1.953980 1_555
O0 Ta4 1.953980 1_455
O1 Ta2 1.953980 1_555
O1 Ta1 1.953980 1_455
O2 Ta7 1.953980 1_555
O2 Ta3 1.953980 1_555
O3 Ta5 1.953980 1_555
O3 Ta6 1.953980 1_555
O4 Ta0 1.852618 1_555
O5 Ta1 1.852618 1_555
O6 Ta2 1.852618 1_555
O7 Ta3 1.852618 1_555
O8 Ta4 1.852618 1_555
O9 Ta5 1.852618 1_555
O10 Ta6 1.852618 1_555
O11 Ta7 1.852618 1_555
O12 Ta7 1.966108 1_455
O12 Ta3 1.966108 1_555
O13 Ta6 1.966108 1_555
O13 Ta5 1.966108 1_455
O14 Ta0 1.966108 1_555
O14 Ta4 1.966108 1_555
O15 Ta1 1.966108 1_555
O15 Ta2 1.966108 1_555
O16 Ta10 1.998388 1_555
O16 Ta3 2.115992 1_555
O17 Ta11 1.998388 1_555
O17 Ta5 2.115992 1_555
O18 Ta10 1.998388 1_555
O18 Ta6 2.115992 1_555
O19 Ta8 1.998388 1_556
O19 Ta0 2.115992 1_556
O20 Ta11 1.998388 1_555
O20 Ta7 2.115992 1_555
O21 Ta9 1.998388 1_565
O21 Ta1 2.115992 1_554
O22 Ta8 1.998388 1_565
O22 Ta2 2.115992 1_554
O23 Ta9 1.998388 1_556
O23 Ta4 2.115992 1_556
O24 Ta6 1.936073 1_545
O24 Ta3 2.377008 1_555
O25 Ta7 1.936073 1_565
O25 Ta5 2.377008 1_555
O26 Ta3 1.936073 1_565
O26 Ta6 2.377008 1_555
O27 Ta2 1.936073 1_555
O27 Ta0 2.377008 1_556
O28 Ta5 1.936073 1_545
O28 Ta7 2.377008 1_555
O29 Ta4 1.936073 1_555
O29 Ta1 2.377008 1_554
O30 Ta0 1.936073 1_555
O30 Ta2 2.377008 1_554
O31 Ta1 1.936073 1_555
O31 Ta4 2.377008 1_556
