# generated using pymatgen
data_YbCoC2
_symmetry_space_group_name_H-M   'P 1'
_cell_length_a   3.68150520
_cell_length_b   3.68150520
_cell_length_c   3.74501000
_cell_angle_alpha   90.00000000
_cell_angle_beta   90.00000000
_cell_angle_gamma   104.74178924
_symmetry_Int_Tables_number   1
_chemical_formula_structural   YbCoC2
_chemical_formula_sum   'Yb1 Co1 C2'
_cell_volume   49.08709185
_cell_formula_units_Z   1
loop_
 _symmetry_equiv_pos_site_id
 _symmetry_equiv_pos_as_xyz
  1  'x, y, z'
loop_
 _atom_site_type_symbol
 _atom_site_label
 _atom_site_symmetry_multiplicity
 _atom_site_fract_x
 _atom_site_fract_y
 _atom_site_fract_z
 _atom_site_occupancy
  Yb  Yb0  1  0.99928600  0.00071400  0.00000000  1
  Co  Co0  1  0.61881900  0.38118100  0.50000000  1
  C  C0  1  0.44949200  0.85259700  0.50000000  1
  C  C1  1  0.14740300  0.55050800  0.50000000  1
loop_
_geom_bond_atom_site_label_1
_geom_bond_atom_site_label_2
_geom_bond_distance
_geom_bond_site_symmetry_2
C0 C1 1.358031 1_555
C0 Co0 1.886289 1_565
C0 Co0 1.987771 1_555
C0 Yb0 2.647768 1_465
C0 Yb0 2.647768 1_466
C0 Yb0 2.709016 1_566
C0 Yb0 2.709016 1_565
C1 Co0 1.886289 1_455
C1 Co0 1.987771 1_555
C1 Yb0 2.647768 1_465
C1 Yb0 2.647768 1_466
C1 Yb0 2.709016 1_455
C1 Yb0 2.709016 1_456
