# generated using pymatgen
data_Gd2Fe17C3
_symmetry_space_group_name_H-M   'P 1'
_cell_length_a   6.50450286
_cell_length_b   6.50450286
_cell_length_c   6.50450218
_cell_angle_alpha   83.55383334
_cell_angle_beta   83.55383334
_cell_angle_gamma   83.55384604
_symmetry_Int_Tables_number   1
_chemical_formula_structural   Gd2Fe17C3
_chemical_formula_sum   'Gd2 Fe17 C3'
_cell_volume   270.33963666
_cell_formula_units_Z   1
loop_
 _symmetry_equiv_pos_site_id
 _symmetry_equiv_pos_as_xyz
  1  'x, y, z'
loop_
 _atom_site_type_symbol
 _atom_site_label
 _atom_site_symmetry_multiplicity
 _atom_site_fract_x
 _atom_site_fract_y
 _atom_site_fract_z
 _atom_site_occupancy
  Gd  Gd0  1  0.66101400  0.66101400  0.66101400  1
  Gd  Gd1  1  0.33898600  0.33898600  0.33898600  1
  Fe  Fe0  1  0.00000000  0.00000000  0.50000000  1
  Fe  Fe1  1  0.00000000  0.50000000  0.00000000  1
  Fe  Fe2  1  0.50000000  0.00000000  0.00000000  1
  Fe  Fe3  1  0.28449400  0.71550600  0.00000000  1
  Fe  Fe4  1  0.71550600  0.00000000  0.28449400  1
  Fe  Fe5  1  0.00000000  0.28449400  0.71550600  1
  Fe  Fe6  1  0.28449400  0.00000000  0.71550600  1
  Fe  Fe7  1  0.00000000  0.71550600  0.28449400  1
  Fe  Fe8  1  0.71550600  0.28449400  0.00000000  1
  Fe  Fe9  1  0.34481800  0.34481800  0.85461700  1
  Fe  Fe10  1  0.34481800  0.85461700  0.34481800  1
  Fe  Fe11  1  0.85461700  0.34481800  0.34481800  1
  Fe  Fe12  1  0.65518200  0.65518200  0.14538300  1
  Fe  Fe13  1  0.65518200  0.14538300  0.65518200  1
  Fe  Fe14  1  0.14538300  0.65518200  0.65518200  1
  Fe  Fe15  1  0.90536300  0.90536300  0.90536300  1
  Fe  Fe16  1  0.09463700  0.09463700  0.09463700  1
  C  C0  1  0.50000000  0.50000000  0.00000000  1
  C  C1  1  0.50000000  0.00000000  0.50000000  1
  C  C2  1  0.00000000  0.50000000  0.50000000  1
loop_
_geom_bond_atom_site_label_1
_geom_bond_atom_site_label_2
_geom_bond_distance
_geom_bond_site_symmetry_2
Fe0 Fe7 2.443705 1_545
Fe0 Fe6 2.443705 1_555
Fe0 Fe5 2.443705 1_555
Fe0 Fe4 2.443705 1_455
Fe0 Fe13 2.484615 1_455
Fe0 Fe14 2.484615 1_545
Fe0 Fe10 2.484615 1_545
Fe0 Fe11 2.484615 1_455
Fe0 Fe16 2.658224 1_555
Fe0 Fe15 2.658224 1_445
Fe0 Gd0 3.297720 1_445
Fe0 Gd1 3.297720 1_555
Fe1 Fe3 2.443704 1_555
Fe1 Fe8 2.443704 1_455
Fe1 Fe7 2.443705 1_555
Fe1 Fe5 2.443705 1_554
Fe1 Fe14 2.484614 1_554
Fe1 Fe11 2.484614 1_455
Fe1 Fe12 2.484615 1_455
Fe1 Fe9 2.484615 1_554
Fe1 Fe16 2.658224 1_555
Fe1 Fe15 2.658224 1_454
Fe1 Gd0 3.297721 1_454
Fe1 Gd1 3.297721 1_555
Fe2 Fe8 2.443704 1_555
Fe2 Fe3 2.443704 1_545
Fe2 Fe4 2.443705 1_555
Fe2 Fe6 2.443705 1_554
Fe2 Fe9 2.484615 1_554
Fe2 Gd0 3.297721 1_544
Fe2 Gd1 3.297721 1_555
Fe10 Fe2 2.484614 1_565
Fe10 Fe16 2.680915 1_565
Fe11 Fe16 2.680915 1_655
Fe12 Fe2 2.484615 1_565
Fe12 Fe15 2.680914 1_554
Fe13 Fe2 2.484614 1_556
Fe13 Fe15 2.680915 1_545
Fe14 Fe15 2.680915 1_455
Fe15 Fe16 2.359674 1_666
Fe15 Fe2 2.658224 1_566
Fe15 Fe4 2.733452 1_566
Fe15 Fe7 2.733452 1_656
Fe15 Fe5 2.733452 1_665
Fe15 Fe6 2.733452 1_665
Fe15 Fe3 2.733453 1_656
Fe15 Fe8 2.733453 1_566
Fe15 Gd0 3.046293 1_555
Fe16 Fe2 2.658224 1_555
Fe16 Fe9 2.680914 1_554
Fe16 Fe4 2.733452 1_455
Fe16 Fe7 2.733452 1_545
Fe16 Fe6 2.733452 1_554
Fe16 Fe5 2.733452 1_554
Fe16 Fe8 2.733453 1_455
Fe16 Fe3 2.733453 1_545
Fe16 Gd1 3.046293 1_555
C0 Fe3 1.867794 1_555
C0 Fe8 1.867794 1_555
C0 Fe9 1.894563 1_554
C0 Fe12 1.894563 1_555
C0 Gd1 2.502944 1_555
C0 Gd0 2.502944 1_554
C1 Fe6 1.867794 1_555
C1 Fe4 1.867794 1_555
C1 Fe10 1.894563 1_545
C1 Fe13 1.894563 1_555
C1 Gd1 2.502945 1_555
C1 Gd0 2.502945 1_545
C2 Fe7 1.867794 1_555
C2 Fe5 1.867794 1_555
C2 Fe11 1.894563 1_455
C2 Fe14 1.894563 1_555
C2 Gd1 2.502945 1_555
C2 Gd0 2.502945 1_455
