# generated using pymatgen
data_SrEuAlO4
_symmetry_space_group_name_H-M   'P 1'
_cell_length_a   6.74313267
_cell_length_b   6.74313267
_cell_length_c   6.74313267
_cell_angle_alpha   147.58800234
_cell_angle_beta   147.58800234
_cell_angle_gamma   46.49393063
_symmetry_Int_Tables_number   1
_chemical_formula_structural   SrEuAlO4
_chemical_formula_sum   'Sr1 Eu1 Al1 O4'
_cell_volume   87.77391993
_cell_formula_units_Z   1
loop_
 _symmetry_equiv_pos_site_id
 _symmetry_equiv_pos_as_xyz
  1  'x, y, z'
loop_
 _atom_site_type_symbol
 _atom_site_label
 _atom_site_symmetry_multiplicity
 _atom_site_fract_x
 _atom_site_fract_y
 _atom_site_fract_z
 _atom_site_occupancy
  Sr  Sr0  1  0.64470000  0.64470000  0.00000000  1
  Eu  Eu0  1  0.35966300  0.35966300  0.00000000  1
  Al  Al0  1  0.00128700  0.00128700  0.00000000  1
  O  O0  1  0.84080400  0.84080400  0.00000000  1
  O  O1  1  0.16410700  0.16410700  0.00000000  1
  O  O2  1  0.99472000  0.49472000  0.50000000  1
  O  O3  1  0.49472000  0.99472000  0.50000000  1
loop_
_geom_bond_atom_site_label_1
_geom_bond_atom_site_label_2
_geom_bond_distance
_geom_bond_site_symmetry_2
Eu0 O1 2.423202 1_555
Eu0 O3 2.518426 1_555
Eu0 O2 2.518426 1_555
Eu0 O2 2.518426 1_454
Eu0 O3 2.518426 1_544
Eu0 O0 2.671722 1_455
Eu0 O0 2.671722 1_545
Eu0 O0 2.671722 1_556
Eu0 O0 2.671722 1_444
Al0 O2 1.883710 1_444
Al0 O3 1.883710 1_444
Al0 O3 1.883710 1_545
Al0 O2 1.883710 1_455
Al0 O0 1.988600 1_445
Al0 O1 2.017559 1_555
O0 Sr0 2.429992 1_555
O1 Sr0 2.672324 1_455
O1 Sr0 2.672324 1_556
O1 Sr0 2.672324 1_444
O1 Sr0 2.672324 1_545
O2 Sr0 2.644918 1_555
O2 Sr0 2.644918 1_656
O3 Sr0 2.644918 1_566
O3 Sr0 2.644918 1_555
