# generated using pymatgen
data_LiCa2CuN2
_symmetry_space_group_name_H-M   'P 1'
_cell_length_a   5.30352500
_cell_length_b   5.30352500
_cell_length_c   6.62918500
_cell_angle_alpha   90.00000000
_cell_angle_beta   90.00000000
_cell_angle_gamma   90.00000000
_symmetry_Int_Tables_number   1
_chemical_formula_structural   LiCa2CuN2
_chemical_formula_sum   'Li2 Ca4 Cu2 N4'
_cell_volume   186.46158852
_cell_formula_units_Z   2
loop_
 _symmetry_equiv_pos_site_id
 _symmetry_equiv_pos_as_xyz
  1  'x, y, z'
loop_
 _atom_site_type_symbol
 _atom_site_label
 _atom_site_symmetry_multiplicity
 _atom_site_fract_x
 _atom_site_fract_y
 _atom_site_fract_z
 _atom_site_occupancy
  Li  Li0  1  0.50000000  0.50000000  0.50000000  1
  Li  Li1  1  0.00000000  0.00000000  0.00000000  1
  Ca  Ca0  1  0.00000000  0.50000000  0.25000000  1
  Ca  Ca1  1  0.50000000  0.00000000  0.75000000  1
  Ca  Ca2  1  0.00000000  0.50000000  0.75000000  1
  Ca  Ca3  1  0.50000000  0.00000000  0.25000000  1
  Cu  Cu0  1  0.50000000  0.50000000  0.00000000  1
  Cu  Cu1  1  0.00000000  0.00000000  0.50000000  1
  N  N0  1  0.24816400  0.75183600  0.50000000  1
  N  N1  1  0.75183600  0.24816400  0.50000000  1
  N  N2  1  0.25183600  0.25183600  0.00000000  1
  N  N3  1  0.74816400  0.74816400  0.00000000  1
loop_
_geom_bond_atom_site_label_1
_geom_bond_atom_site_label_2
_geom_bond_distance
_geom_bond_site_symmetry_2
Li0 N0 1.888850 1_555
Li0 N1 1.888850 1_555
Li1 N3 1.888850 1_445
Li1 N2 1.888850 1_555
Ca0 N0 2.502547 1_555
Ca0 N3 2.502547 1_455
Ca0 N1 2.502547 1_455
Ca0 N2 2.502547 1_555
Ca1 N1 2.502547 1_555
Ca1 N0 2.502547 1_545
Ca1 N3 2.502547 1_546
Ca1 N2 2.502547 1_556
Ca2 N0 2.502547 1_555
Ca2 N1 2.502547 1_455
Ca2 N3 2.502547 1_456
Ca2 N2 2.502547 1_556
Ca3 N1 2.502547 1_555
Ca3 N3 2.502547 1_545
Ca3 N0 2.502547 1_545
Ca3 N2 2.502547 1_555
Cu0 N2 1.861309 1_555
Cu0 N3 1.861309 1_555
Cu1 N1 1.861309 1_455
Cu1 N0 1.861309 1_545
