# generated using pymatgen
data_Cs3Re2N5
_symmetry_space_group_name_H-M   'P 1'
_cell_length_a   11.11879317
_cell_length_b   11.11879317
_cell_length_c   11.11879317
_cell_angle_alpha   101.25012949
_cell_angle_beta   101.25012949
_cell_angle_gamma   127.57612188
_symmetry_Int_Tables_number   1
_chemical_formula_structural   Cs3Re2N5
_chemical_formula_sum   'Cs12 Re8 N20'
_cell_volume   977.39302024
_cell_formula_units_Z   4
loop_
 _symmetry_equiv_pos_site_id
 _symmetry_equiv_pos_as_xyz
  1  'x, y, z'
loop_
 _atom_site_type_symbol
 _atom_site_label
 _atom_site_symmetry_multiplicity
 _atom_site_fract_x
 _atom_site_fract_y
 _atom_site_fract_z
 _atom_site_occupancy
  Cs  Cs0  1  0.84959200  0.54891200  0.84205700  1
  Cs  Cs1  1  0.70685500  0.00753500  0.15794300  1
  Cs  Cs2  1  0.79891200  0.45685500  0.19932000  1
  Cs  Cs3  1  0.25753500  0.59959200  0.80068000  1
  Cs  Cs4  1  0.51184600  0.69381000  0.33105200  1
  Cs  Cs5  1  0.36275900  0.18079400  0.66894800  1
  Cs  Cs6  1  0.94381000  0.11275900  0.68196500  1
  Cs  Cs7  1  0.43079400  0.26184600  0.31803500  1
  Cs  Cs8  1  0.98603600  0.98603600  0.00000000  1
  Cs  Cs9  1  0.23603600  0.73603600  0.50000000  1
  Cs  Cs10  1  0.72860200  0.22860200  0.50000000  1
  Cs  Cs11  1  0.47860200  0.47860200  0.00000000  1
  Re  Re0  1  0.61761300  0.04392800  0.81916500  1
  Re  Re1  1  0.22476300  0.79844800  0.18083500  1
  Re  Re2  1  0.29392800  0.97476300  0.92631600  1
  Re  Re3  1  0.04844800  0.36761300  0.07368400  1
  Re  Re4  1  0.93535900  0.76092700  0.59635000  1
  Re  Re5  1  0.16457700  0.33900900  0.40365000  1
  Re  Re6  1  0.01092700  0.91457700  0.32556900  1
  Re  Re7  1  0.58900900  0.68535900  0.67443100  1
  N  N0  1  0.62766600  0.15260700  0.71838500  1
  N  N1  1  0.43422200  0.90928100  0.28161500  1
  N  N2  1  0.40260700  0.18422200  0.02494200  1
  N  N3  1  0.15928100  0.37766600  0.97505800  1
  N  N4  1  0.80471900  0.78541400  0.20677000  1
  N  N5  1  0.57864500  0.59794900  0.79323000  1
  N  N6  1  0.03541400  0.32864500  0.48069500  1
  N  N7  1  0.84794900  0.55471900  0.51930500  1
  N  N8  1  0.82108100  0.19158000  0.98009200  1
  N  N9  1  0.21148800  0.84098800  0.01990800  1
  N  N10  1  0.44158000  0.96148800  0.87050000  1
  N  N11  1  0.09098800  0.57108100  0.12950000  1
  N  N12  1  0.00894600  0.87659000  0.48850300  1
  N  N13  1  0.38808700  0.52044300  0.51149700  1
  N  N14  1  0.12659000  0.13808700  0.36764400  1
  N  N15  1  0.77044300  0.75894600  0.63235600  1
  N  N16  1  0.11654600  0.88166600  0.76396800  1
  N  N17  1  0.11769800  0.35257800  0.23603200  1
  N  N18  1  0.13166600  0.86769800  0.26512000  1
  N  N19  1  0.60257800  0.86654600  0.73488000  1
loop_
_geom_bond_atom_site_label_1
_geom_bond_atom_site_label_2
_geom_bond_distance
_geom_bond_site_symmetry_2
Cs0 N9 3.016649 1_656
Cs0 N0 3.232184 1_555
Cs0 N5 3.338931 1_555
Cs0 N16 3.481095 1_655
Cs0 N7 3.598460 1_555
Cs0 N11 3.608039 1_656
Cs1 N8 3.016650 1_554
Cs1 N1 3.232184 1_545
Cs1 N4 3.338941 1_545
Cs1 N17 3.481095 1_655
Cs1 N6 3.598462 1_655
Cs1 N10 3.608046 1_544
Cs2 N11 3.016647 1_655
Cs2 N2 3.232183 1_555
Cs2 N7 3.338941 1_555
Cs2 N18 3.481095 1_655
Cs2 N4 3.598460 1_555
Cs2 N8 3.608053 1_554
Cs3 N10 3.016649 1_555
Cs3 N3 3.232175 1_555
Cs3 N6 3.338939 1_555
Cs3 N19 3.481095 1_555
Cs3 N5 3.598471 1_555
Cs3 N9 3.608046 1_556
Cs4 N13 2.997634 1_555
Cs4 N1 3.104423 1_555
Cs4 N17 3.326750 1_555
Cs4 N4 3.436691 1_555
Cs4 N15 3.573552 1_555
Cs5 N12 2.997639 1_545
Cs5 N0 3.104412 1_555
Cs5 N16 3.326753 1_545
Cs5 N5 3.436691 1_555
Cs5 N14 3.573557 1_555
Cs6 N15 2.997641 1_545
Cs6 N3 3.104404 1_655
Cs6 N19 3.326745 1_545
Cs6 N6 3.436700 1_655
Cs6 N12 3.573566 1_645
Cs7 N14 2.997639 1_555
Cs7 N2 3.104401 1_555
Cs7 N18 3.326753 1_545
Cs7 N7 3.436693 1_555
Cs7 N13 3.573557 1_555
Cs8 N5 3.556753 1_554
Cs8 N4 3.556757 1_555
Cs8 N17 3.562483 1_665
Cs8 N16 3.562483 1_654
Cs8 N2 3.632929 1_665
Cs8 N3 3.632937 1_664
Cs8 N15 3.687652 1_554
Cs8 N14 3.687652 1_665
Cs8 N8 3.713116 1_564
Cs8 N9 3.713125 1_655
Cs9 N6 3.556748 1_555
Cs9 N7 3.556757 1_455
Cs9 N18 3.562483 1_555
Cs9 N19 3.562483 1_555
Cs9 N1 3.632932 1_555
Cs9 N0 3.632932 1_565
Cs9 N12 3.687652 1_555
Cs9 N13 3.687652 1_555
Cs9 N11 3.713125 1_555
Cs9 N10 3.713125 1_555
Cs10 N1 2.928623 1_545
Cs10 N0 2.928623 1_555
Cs10 N6 2.944775 1_655
Cs10 N7 2.944778 1_555
Cs11 N3 2.928621 1_554
Cs11 N2 2.928627 1_555
Cs11 N4 2.944778 1_555
Cs11 N5 2.944781 1_554
N0 Re0 1.772224 1_555
N1 Re1 1.772224 1_555
N2 Re2 1.772224 1_544
N3 Re3 1.772224 1_556
N4 Re6 1.768140 1_655
N5 Re7 1.768147 1_555
N6 Re5 1.768140 1_555
N7 Re4 1.768136 1_555
N8 Re3 1.857098 1_656
N8 Re0 1.938943 1_555
N9 Re2 1.857097 1_554
N9 Re1 1.938937 1_555
N10 Re0 1.857106 1_565
N10 Re2 1.938943 1_555
N11 Re1 1.857097 1_555
N11 Re3 1.938949 1_555
N12 Re4 1.860763 1_455
N12 Re6 1.940017 1_555
N13 Re5 1.860763 1_555
N13 Re7 1.940022 1_555
N14 Re6 1.860765 1_545
N14 Re5 1.940028 1_555
N15 Re7 1.860757 1_555
N15 Re4 1.940028 1_555
N16 Re4 1.895903 1_455
N16 Re2 1.900434 1_555
N17 Re5 1.895903 1_555
N17 Re3 1.900437 1_555
N18 Re6 1.895908 1_555
N18 Re1 1.900427 1_555
N19 Re7 1.895905 1_555
N19 Re0 1.900427 1_565
