# generated using pymatgen
data_Nb2Bi3Pb2ClO11
_symmetry_space_group_name_H-M   'P 1'
_cell_length_a   3.94429300
_cell_length_b   3.94429300
_cell_length_c   19.79578200
_cell_angle_alpha   90.00000000
_cell_angle_beta   90.00000000
_cell_angle_gamma   90.00000000
_symmetry_Int_Tables_number   1
_chemical_formula_structural   Nb2Bi3Pb2ClO11
_chemical_formula_sum   'Nb2 Bi3 Pb2 Cl1 O11'
_cell_volume   307.97183463
_cell_formula_units_Z   1
loop_
 _symmetry_equiv_pos_site_id
 _symmetry_equiv_pos_as_xyz
  1  'x, y, z'
loop_
 _atom_site_type_symbol
 _atom_site_label
 _atom_site_symmetry_multiplicity
 _atom_site_fract_x
 _atom_site_fract_y
 _atom_site_fract_z
 _atom_site_occupancy
  Nb  Nb0  1  0.50000000  0.50000000  0.88456800  1
  Nb  Nb1  1  0.50000000  0.50000000  0.11543200  1
  Bi  Bi0  1  0.00000000  0.00000000  0.00000000  1
  Bi  Bi1  1  0.50000000  0.50000000  0.60246900  1
  Bi  Bi2  1  0.50000000  0.50000000  0.39753100  1
  Pb  Pb0  1  0.00000000  0.00000000  0.72956700  1
  Pb  Pb1  1  0.00000000  0.00000000  0.27043300  1
  Cl  Cl0  1  0.00000000  0.00000000  0.50000000  1
  O  O0  1  0.50000000  0.50000000  0.79291000  1
  O  O1  1  0.50000000  0.50000000  0.20709000  1
  O  O2  1  0.50000000  0.00000000  0.65809300  1
  O  O3  1  0.00000000  0.50000000  0.65809300  1
  O  O4  1  0.50000000  0.00000000  0.34190700  1
  O  O5  1  0.00000000  0.50000000  0.34190700  1
  O  O6  1  0.50000000  0.00000000  0.90585600  1
  O  O7  1  0.00000000  0.50000000  0.90585600  1
  O  O8  1  0.50000000  0.00000000  0.09414400  1
  O  O9  1  0.00000000  0.50000000  0.09414400  1
  O  O10  1  0.50000000  0.50000000  0.00000000  1
loop_
_geom_bond_atom_site_label_1
_geom_bond_atom_site_label_2
_geom_bond_distance
_geom_bond_site_symmetry_2
Nb0 O0 1.814442 1_555
Nb0 O6 2.016668 1_555
Nb0 O7 2.016668 1_555
Nb0 O6 2.016668 1_565
Nb0 O7 2.016668 1_655
Nb0 O10 2.285067 1_556
Nb1 O1 1.814442 1_555
Nb1 O8 2.016668 1_555
Nb1 O8 2.016668 1_565
Nb1 O9 2.016668 1_655
Nb1 O9 2.016668 1_555
Nb1 O10 2.285067 1_555
Bi0 O7 2.713405 1_554
Bi0 O8 2.713405 1_455
Bi0 O6 2.713405 1_454
Bi0 O9 2.713405 1_545
Bi0 O7 2.713405 1_544
Bi0 O8 2.713405 1_555
Bi0 O9 2.713405 1_555
Bi0 O6 2.713405 1_554
Bi0 O10 2.789036 1_445
Bi0 O10 2.789036 1_555
Bi0 O10 2.789036 1_455
Bi0 O10 2.789036 1_545
Bi1 O2 2.258723 1_565
Bi1 O3 2.258723 1_555
Bi1 O3 2.258723 1_655
Bi1 O2 2.258723 1_555
Bi2 O4 2.258723 1_565
Bi2 O5 2.258723 1_655
Bi2 O4 2.258723 1_555
Bi2 O5 2.258723 1_555
O2 Pb0 2.427191 1_555
O2 Pb0 2.427191 1_655
O3 Pb0 2.427191 1_555
O3 Pb0 2.427191 1_565
O4 Pb1 2.427191 1_655
O4 Pb1 2.427191 1_555
O5 Pb1 2.427191 1_565
O5 Pb1 2.427191 1_555
