# generated using pymatgen
data_Er2CuNi
_symmetry_space_group_name_H-M   'P 1'
_cell_length_a   5.30783365
_cell_length_b   5.30783365
_cell_length_c   4.33969444
_cell_angle_alpha   90.00000000
_cell_angle_beta   90.00000000
_cell_angle_gamma   139.99501548
_symmetry_Int_Tables_number   1
_chemical_formula_structural   Er2CuNi
_chemical_formula_sum   'Er2 Cu1 Ni1'
_cell_volume   78.59705575
_cell_formula_units_Z   1
loop_
 _symmetry_equiv_pos_site_id
 _symmetry_equiv_pos_as_xyz
  1  'x, y, z'
loop_
 _atom_site_type_symbol
 _atom_site_label
 _atom_site_symmetry_multiplicity
 _atom_site_fract_x
 _atom_site_fract_y
 _atom_site_fract_z
 _atom_site_occupancy
  Er  Er0  1  0.86115658  0.13884342  0.50000000  1
  Er  Er1  1  0.13887471  0.86112529  -0.00000000  1
  Cu  Cu0  1  0.57243871  0.42756129  0.50000000  1
  Ni  Ni0  1  0.42753000  0.57247000  -0.00000000  1
loop_
_geom_bond_atom_site_label_1
_geom_bond_atom_site_label_2
_geom_bond_distance
_geom_bond_site_symmetry_2
Er0 Ni0 2.905688 1_546
Er0 Ni0 2.905688 1_545
Er0 Ni0 2.905688 1_656
Er0 Ni0 2.905688 1_655
Er1 Ni0 2.782273 1_565
Er1 Ni0 2.782273 1_455
Er1 Ni0 2.879425 1_555
Cu0 Ni0 2.607246 1_555
Cu0 Ni0 2.607246 1_556
Cu0 Er0 2.781800 1_455
Cu0 Er0 2.781800 1_565
Cu0 Er0 2.880049 1_555
Cu0 Er1 2.905830 1_546
Cu0 Er1 2.905830 1_655
Cu0 Er1 2.905830 1_656
Cu0 Er1 2.905830 1_545
