# generated using pymatgen
data_Li7Co5O12
_symmetry_space_group_name_H-M   'P 1'
_cell_length_a   3.00217000
_cell_length_b   7.81282548
_cell_length_c   10.06890494
_cell_angle_alpha   111.86914716
_cell_angle_beta   90.80076334
_cell_angle_gamma   99.92969666
_symmetry_Int_Tables_number   1
_chemical_formula_structural   Li7Co5O12
_chemical_formula_sum   'Li7 Co5 O12'
_cell_volume   215.10018426
_cell_formula_units_Z   1
loop_
 _symmetry_equiv_pos_site_id
 _symmetry_equiv_pos_as_xyz
  1  'x, y, z'
loop_
 _atom_site_type_symbol
 _atom_site_label
 _atom_site_symmetry_multiplicity
 _atom_site_fract_x
 _atom_site_fract_y
 _atom_site_fract_z
 _atom_site_occupancy
  Li  Li0  1  0.99917400  0.99882800  0.75553200  1
  Li  Li1  1  0.66375000  0.33349800  0.41477000  1
  Li  Li2  1  0.33423700  0.66474100  0.07909400  1
  Li  Li3  1  0.66576300  0.33525900  0.92090600  1
  Li  Li4  1  0.33625000  0.66650200  0.58523000  1
  Li  Li5  1  0.00082600  0.00117200  0.24446800  1
  Li  Li6  1  0.50000000  0.00000000  0.00000000  1
  Co  Co0  1  0.84214000  0.68072500  0.83814300  1
  Co  Co1  1  0.15786000  0.31927500  0.16185700  1
  Co  Co2  1  0.50000000  0.00000000  0.50000000  1
  Co  Co3  1  0.16292800  0.33463100  0.66932800  1
  Co  Co4  1  0.83707200  0.66536900  0.33067200  1
  O  O0  1  0.44666300  0.82116400  0.79470800  1
  O  O1  1  0.07404900  0.16993800  0.47011100  1
  O  O2  1  0.78672900  0.49593400  0.13590300  1
  O  O3  1  0.09205000  0.18618500  0.97796400  1
  O  O4  1  0.74095700  0.50478900  0.64135600  1
  O  O5  1  0.42037000  0.83505000  0.29916800  1
  O  O6  1  0.57963000  0.16495000  0.70083200  1
  O  O7  1  0.25904300  0.49521100  0.35864400  1
  O  O8  1  0.90795000  0.81381500  0.02203600  1
  O  O9  1  0.21327100  0.50406600  0.86409700  1
  O  O10  1  0.92595100  0.83006200  0.52988900  1
  O  O11  1  0.55333700  0.17883600  0.20529200  1
loop_
_geom_bond_atom_site_label_1
_geom_bond_atom_site_label_2
_geom_bond_distance
_geom_bond_site_symmetry_2
Li0 O0 2.113250 1_555
Li0 O10 2.145486 1_555
Li0 O3 2.153118 1_665
Li0 O6 2.156669 1_565
Li0 O6 2.191788 1_665
Li0 O0 2.218859 1_655
Li1 O11 1.990576 1_555
Li1 O7 2.105706 1_555
Li1 O1 2.124825 1_655
Li1 O4 2.157189 1_555
Li1 O1 2.203522 1_555
Li1 O7 2.211568 1_655
Li2 O9 2.047032 1_554
Li2 O8 2.077597 1_455
Li2 O5 2.101514 1_555
Li2 O8 2.118365 1_555
Li2 O2 2.146862 1_455
Li2 O2 2.251703 1_555
Li3 O2 2.047032 1_556
Li3 O3 2.077597 1_655
Li3 O6 2.101514 1_555
Li3 O3 2.118365 1_555
Li3 O9 2.146862 1_655
Li3 O9 2.251703 1_555
Li4 O0 1.990576 1_555
Li4 O4 2.105706 1_555
Li4 O10 2.124825 1_455
Li4 O7 2.157189 1_555
Li4 O10 2.203522 1_555
Li4 O4 2.211568 1_455
Li5 O11 2.113250 1_555
Li5 O1 2.145486 1_555
Li5 O8 2.153118 1_445
Li5 O5 2.156669 1_545
Li5 O5 2.191788 1_445
Li5 O11 2.218859 1_455
Li6 O11 2.003149 1_555
Li6 O0 2.003149 1_544
Li6 O3 2.124246 1_554
Li6 O8 2.124246 1_545
Li6 O3 2.164308 1_654
Li6 O8 2.164308 1_445
Co0 O8 1.741630 1_556
Co0 O0 1.896598 1_555
Co0 O4 1.928188 1_555
Co0 O9 2.001406 1_655
Co0 O0 2.093291 1_655
Co0 O9 2.218447 1_555
Co1 O3 1.741630 1_554
Co1 O11 1.896598 1_555
Co1 O7 1.928188 1_555
Co1 O2 2.001406 1_455
Co1 O11 2.093291 1_455
Co1 O2 2.218447 1_555
Co2 O5 1.935436 1_545
Co2 O6 1.935436 1_555
Co2 O1 2.084817 1_655
Co2 O10 2.084817 1_445
Co2 O1 2.088319 1_555
Co2 O10 2.088319 1_545
Co3 O9 1.899966 1_555
Co3 O1 1.922054 1_555
Co3 O6 2.072981 1_555
Co3 O4 2.073961 1_455
Co3 O4 2.086875 1_555
Co3 O6 2.110167 1_455
Co4 O2 1.899966 1_555
Co4 O10 1.922054 1_555
Co4 O5 2.072981 1_555
Co4 O7 2.073961 1_655
Co4 O7 2.086875 1_555
Co4 O5 2.110167 1_655
