# generated using pymatgen
data_Na(Mg4Al3)4
_symmetry_space_group_name_H-M   'P 1'
_cell_length_a   9.09682614
_cell_length_b   9.20203273
_cell_length_c   9.20203253
_cell_angle_alpha   109.70166130
_cell_angle_beta   109.23978222
_cell_angle_gamma   109.23979305
_symmetry_Int_Tables_number   1
_chemical_formula_structural   Na(Mg4Al3)4
_chemical_formula_sum   'Na1 Mg16 Al12'
_cell_volume   594.65899626
_cell_formula_units_Z   1
loop_
 _symmetry_equiv_pos_site_id
 _symmetry_equiv_pos_as_xyz
  1  'x, y, z'
loop_
 _atom_site_type_symbol
 _atom_site_label
 _atom_site_symmetry_multiplicity
 _atom_site_fract_x
 _atom_site_fract_y
 _atom_site_fract_z
 _atom_site_occupancy
  Na  Na0  1  0.36106700  0.00000000  0.00000000  1
  Mg  Mg0  1  0.99817600  0.34193400  0.00000000  1
  Mg  Mg1  1  0.00159100  0.00000000  0.00000000  1
  Mg  Mg2  1  0.31447800  0.60111900  0.00000000  1
  Mg  Mg3  1  0.60631200  0.32100500  0.00000000  1
  Mg  Mg4  1  0.68448800  0.68436600  0.28749100  1
  Mg  Mg5  1  0.00012200  0.60312500  0.31563400  1
  Mg  Mg6  1  0.60631200  0.00000000  0.32100500  1
  Mg  Mg7  1  0.99817600  0.00000100  0.34193400  1
  Mg  Mg8  1  0.39699700  0.71251000  0.39687500  1
  Mg  Mg9  1  0.71336000  0.39888200  0.39888200  1
  Mg  Mg10  1  0.31447900  0.00000000  0.60112000  1
  Mg  Mg11  1  0.00012200  0.31563400  0.60312500  1
  Mg  Mg12  1  0.65624200  0.65806600  0.65806500  1
  Mg  Mg13  1  0.28530600  0.67899500  0.67899500  1
  Mg  Mg14  1  0.68448800  0.28749100  0.68436600  1
  Mg  Mg15  1  0.39699700  0.39687600  0.71251000  1
  Al  Al0  1  0.63422700  0.81508300  0.00000000  1
  Al  Al1  1  0.81345200  0.63392900  0.00000000  1
  Al  Al2  1  0.36439300  0.36799500  0.18155000  1
  Al  Al3  1  0.81914200  0.18491700  0.18491700  1
  Al  Al4  1  0.18284200  0.81844900  0.18644400  1
  Al  Al5  1  0.17952300  0.36607200  0.36607200  1
  Al  Al6  1  0.36439300  0.18155000  0.36799400  1
  Al  Al7  1  0.99639900  0.81355700  0.63200700  1
  Al  Al8  1  0.81345200  0.00000000  0.63392900  1
  Al  Al9  1  0.99640000  0.63200600  0.81355700  1
  Al  Al10  1  0.63422700  0.99999900  0.81508400  1
  Al  Al11  1  0.18284200  0.18644400  0.81844900  1
loop_
_geom_bond_atom_site_label_1
_geom_bond_atom_site_label_2
_geom_bond_distance
_geom_bond_site_symmetry_2
Mg0 Mg5 3.073157 1_655
Mg0 Mg14 3.073158 1_554
Mg0 Mg2 3.073230 1_655
Mg0 Mg1 3.156861 1_655
Mg1 Mg7 3.156858 1_455
Mg1 Mg12 3.156864 1_444
Mg1 Na0 3.270091 1_555
Mg2 Mg4 3.159225 1_555
Mg2 Mg8 3.180227 1_555
Mg2 Mg6 3.216435 1_565
Mg2 Na0 3.553461 1_565
Mg3 Na0 3.059338 1_555
Mg3 Mg4 3.148543 1_555
Mg3 Mg5 3.152569 1_655
Mg3 Mg9 3.216441 1_555
Mg4 Mg7 3.073163 1_565
Mg4 Mg5 3.150437 1_655
Mg4 Mg8 3.150439 1_555
Mg4 Mg6 3.152569 1_565
Mg4 Mg9 3.180227 1_555
Mg5 Mg8 3.150436 1_555
Mg5 Mg9 3.159221 1_455
Mg6 Na0 3.059339 1_555
Mg6 Mg8 3.148537 1_545
Mg6 Mg9 3.216441 1_555
Mg9 Na0 3.553470 1_555
Mg10 Mg7 3.073246 1_455
Mg10 Mg8 3.159215 1_545
Mg10 Mg14 3.159222 1_555
Mg10 Mg5 3.180232 1_545
Mg10 Mg15 3.180239 1_555
Mg10 Mg13 3.216428 1_545
Mg10 Mg3 3.216429 1_556
Mg10 Na0 3.553454 1_556
Mg11 Mg7 3.073151 1_455
Mg11 Mg13 3.148540 1_555
Mg11 Mg15 3.150433 1_555
Mg11 Mg14 3.150437 1_455
Mg11 Mg6 3.152569 1_455
Mg11 Mg9 3.159221 1_455
Mg11 Mg2 3.180228 1_556
Mg12 Mg8 3.073158 1_555
Mg12 Mg15 3.073164 1_555
Mg12 Mg9 3.073221 1_555
Mg13 Na0 3.059335 1_566
Mg13 Mg5 3.148540 1_555
Mg13 Mg15 3.152568 1_555
Mg13 Mg8 3.152577 1_555
Mg13 Mg2 3.216434 1_556
Mg14 Mg6 3.148543 1_555
Mg14 Mg15 3.150445 1_555
Mg14 Mg3 3.152569 1_556
Mg14 Mg9 3.180227 1_555
Mg15 Mg3 3.148544 1_556
Mg15 Mg2 3.159215 1_556
Al0 Al1 2.688519 1_555
Al0 Al10 2.782652 1_554
Al0 Al3 2.782667 1_565
Al0 Mg2 2.926227 1_555
Al0 Mg6 3.012573 1_565
Al0 Mg13 3.012578 1_554
Al0 Mg7 3.093353 1_565
Al0 Mg12 3.093362 1_554
Al0 Mg1 3.211813 1_665
Al0 Mg15 3.219535 1_554
Al0 Mg4 3.219544 1_555
Al0 Na0 3.443372 1_565
Al1 Al4 2.755748 1_655
Al1 Al9 2.755756 1_554
Al1 Mg3 2.875140 1_555
Al1 Mg14 3.003621 1_554
Al1 Mg5 3.003621 1_655
Al1 Mg7 3.116076 1_565
Al1 Mg12 3.116079 1_554
Al1 Mg15 3.188539 1_554
Al1 Mg4 3.188541 1_555
Al1 Mg1 3.236822 1_665
Al2 Al5 2.755763 1_555
Al2 Al6 2.805653 1_555
Al2 Mg4 2.921206 1_555
Al2 Mg8 2.970204 1_555
Al2 Mg9 2.999306 1_555
Al2 Mg0 3.079321 1_455
Al2 Mg2 3.187090 1_555
Al2 Mg1 3.215081 1_555
Al2 Na0 3.216170 1_555
Al2 Mg3 3.222439 1_555
Al3 Al5 2.688534 1_655
Al3 Mg9 2.926216 1_555
Al3 Mg6 3.012562 1_555
Al3 Mg3 3.012562 1_555
Al3 Mg7 3.093356 1_555
Al3 Mg0 3.093364 1_555
Al3 Mg1 3.211829 1_655
Al3 Mg5 3.219544 1_655
Al3 Mg11 3.219544 1_655
Al3 Na0 3.443355 1_555
Al4 Al6 2.732007 1_565
Al4 Al9 2.805638 1_454
Al4 Mg8 2.921202 1_555
Al4 Mg5 2.970194 1_555
Al4 Mg2 2.999298 1_555
Al4 Mg7 3.079328 1_465
Al4 Mg10 3.187103 1_565
Al4 Mg1 3.215080 1_565
Al4 Na0 3.216171 1_565
Al4 Mg6 3.222446 1_565
Al5 Al6 2.755763 1_555
Al5 Mg13 2.875133 1_555
Al5 Mg15 3.003621 1_555
Al5 Mg8 3.003625 1_555
Al5 Mg7 3.116066 1_455
Al5 Mg0 3.116074 1_455
Al5 Mg11 3.188535 1_555
Al5 Mg5 3.188535 1_555
Al5 Mg1 3.236831 1_555
Al6 Mg14 2.921211 1_555
Al6 Mg15 2.970214 1_555
Al6 Mg9 2.999301 1_555
Al6 Mg7 3.079324 1_455
Al6 Mg10 3.187105 1_555
Al6 Mg1 3.215076 1_555
Al6 Na0 3.216161 1_555
Al6 Mg6 3.222438 1_555
Al7 Al9 2.732007 1_555
Al7 Al8 2.755748 1_565
Al7 Mg5 2.921221 1_655
Al7 Mg4 2.970207 1_555
Al7 Mg10 2.999300 1_665
Al7 Mg12 3.079316 1_555
Al7 Mg9 3.187096 1_555
Al7 Mg1 3.215066 1_666
Al7 Na0 3.216158 1_666
Al7 Mg13 3.222436 1_655
Al8 Mg6 2.875140 1_555
Al8 Mg11 3.003621 1_655
Al8 Mg4 3.003621 1_545
Al8 Mg12 3.116065 1_545
Al8 Mg0 3.116070 1_556
Al8 Mg8 3.188539 1_545
Al8 Mg14 3.188541 1_555
Al8 Mg1 3.236822 1_656
Al9 Mg11 2.921209 1_655
Al9 Mg14 2.970205 1_555
Al9 Mg2 2.999286 1_656
Al9 Mg12 3.079336 1_555
Al9 Mg9 3.187098 1_555
Al9 Mg1 3.215079 1_666
Al9 Na0 3.216158 1_666
Al9 Mg13 3.222428 1_655
Al10 Al8 2.688527 1_565
Al10 Al3 2.782659 1_566
Al10 Mg10 2.926225 1_565
Al10 Mg13 3.012571 1_555
Al10 Mg3 3.012578 1_566
Al10 Mg12 3.093348 1_555
Al10 Mg0 3.093359 1_566
Al10 Mg1 3.211807 1_666
Al10 Mg8 3.219547 1_555
Al10 Mg14 3.219559 1_565
Al10 Na0 3.443365 1_566
Al11 Al2 2.732007 1_556
Al11 Al8 2.755748 1_455
Al11 Al7 2.805638 1_445
Al11 Mg15 2.921207 1_555
Al11 Mg11 2.970194 1_555
Al11 Mg10 2.999299 1_555
Al11 Mg0 3.079322 1_456
Al11 Mg2 3.187097 1_556
Al11 Mg1 3.215079 1_556
Al11 Na0 3.216171 1_556
Al11 Mg3 3.222446 1_556
