# generated using pymatgen
data_Dy5CuPb3
_symmetry_space_group_name_H-M   'P 1'
_cell_length_a   9.12291109
_cell_length_b   9.12291109
_cell_length_c   6.68161881
_cell_angle_alpha   90.00000000
_cell_angle_beta   90.00000000
_cell_angle_gamma   120.00000512
_symmetry_Int_Tables_number   1
_chemical_formula_structural   Dy5CuPb3
_chemical_formula_sum   'Dy10 Cu2 Pb6'
_cell_volume   481.59191664
_cell_formula_units_Z   2
loop_
 _symmetry_equiv_pos_site_id
 _symmetry_equiv_pos_as_xyz
  1  'x, y, z'
loop_
 _atom_site_type_symbol
 _atom_site_label
 _atom_site_symmetry_multiplicity
 _atom_site_fract_x
 _atom_site_fract_y
 _atom_site_fract_z
 _atom_site_occupancy
  Dy  Dy0  1  0.25128849  0.00000000  0.25000000  1
  Dy  Dy1  1  0.74871151  -0.00000000  0.75000000  1
  Dy  Dy2  1  0.00000000  0.25128849  0.25000000  1
  Dy  Dy3  1  -0.00000000  0.74871151  0.75000000  1
  Dy  Dy4  1  0.74871151  0.74871151  0.25000000  1
  Dy  Dy5  1  0.25128849  0.25128849  0.75000000  1
  Dy  Dy6  1  0.33333300  0.66666700  0.00000000  1
  Dy  Dy7  1  0.66666700  0.33333300  0.00000000  1
  Dy  Dy8  1  0.66666700  0.33333300  0.50000000  1
  Dy  Dy9  1  0.33333300  0.66666700  0.50000000  1
  Cu  Cu0  1  0.00000000  0.00000000  0.00000000  1
  Cu  Cu1  1  0.00000000  0.00000000  0.50000000  1
  Pb  Pb0  1  0.61011966  -0.00000000  0.25000000  1
  Pb  Pb1  1  0.38988034  0.00000000  0.75000000  1
  Pb  Pb2  1  -0.00000000  0.61011966  0.25000000  1
  Pb  Pb3  1  0.00000000  0.38988034  0.75000000  1
  Pb  Pb4  1  0.38988034  0.38988034  0.25000000  1
  Pb  Pb5  1  0.61011966  0.61011966  0.75000000  1
loop_
_geom_bond_atom_site_label_1
_geom_bond_atom_site_label_2
_geom_bond_distance
_geom_bond_site_symmetry_2
Dy0 Pb2 3.122917 1_545
Dy0 Pb4 3.122917 1_555
Dy0 Pb0 3.273585 1_555
Dy0 Pb1 3.572061 1_555
Dy0 Pb1 3.572061 1_554
Dy1 Pb3 3.122917 1_655
Dy1 Pb5 3.122917 1_545
Dy1 Pb1 3.273585 1_555
Dy1 Pb0 3.572061 1_555
Dy1 Pb0 3.572061 1_556
Dy2 Pb0 3.122917 1_455
Dy2 Pb4 3.122917 1_555
Dy2 Pb2 3.273585 1_555
Dy2 Pb3 3.572061 1_555
Dy2 Pb3 3.572061 1_554
Dy3 Pb1 3.122917 1_565
Dy3 Pb5 3.122917 1_455
Dy3 Pb3 3.273585 1_555
Dy3 Pb2 3.572061 1_555
Dy3 Pb2 3.572061 1_556
Dy4 Pb0 3.122917 1_565
Dy4 Pb2 3.122917 1_655
Dy4 Pb4 3.273585 1_555
Dy4 Pb5 3.572061 1_555
Dy4 Pb5 3.572061 1_554
Dy5 Pb3 3.122917 1_555
Dy5 Pb1 3.122917 1_555
Dy5 Pb5 3.273585 1_555
Dy5 Pb4 3.572061 1_556
Dy5 Pb4 3.572061 1_555
Dy6 Pb2 3.276446 1_555
Dy6 Pb1 3.276446 1_564
Dy6 Pb0 3.276449 1_565
Dy6 Pb3 3.276449 1_554
Dy6 Pb5 3.276454 1_554
Dy6 Pb4 3.276454 1_555
Dy6 Dy9 3.340809 1_555
Dy6 Dy9 3.340809 1_554
Dy7 Pb3 3.276446 1_654
Dy7 Pb0 3.276446 1_555
Dy7 Pb2 3.276449 1_655
Dy7 Pb1 3.276449 1_554
Dy7 Pb5 3.276454 1_554
Dy7 Pb4 3.276454 1_555
Dy7 Dy8 3.340809 1_555
Dy7 Dy8 3.340809 1_554
Dy8 Pb0 3.276446 1_555
Dy8 Pb3 3.276446 1_655
Dy8 Pb2 3.276449 1_655
Dy8 Pb1 3.276449 1_555
Dy8 Pb4 3.276454 1_555
Dy8 Pb5 3.276454 1_555
Dy9 Pb2 3.276446 1_555
Dy9 Pb1 3.276446 1_565
Dy9 Pb0 3.276449 1_565
Dy9 Pb3 3.276449 1_555
Dy9 Pb4 3.276454 1_555
Dy9 Pb5 3.276454 1_555
Cu0 Dy4 2.836499 1_445
Cu0 Dy5 2.836499 1_554
Cu0 Dy2 2.836499 1_555
Cu0 Dy3 2.836499 1_544
Cu0 Dy0 2.836499 1_555
Cu0 Dy1 2.836499 1_454
Cu1 Dy4 2.836499 1_445
Cu1 Dy5 2.836499 1_555
Cu1 Dy2 2.836499 1_555
Cu1 Dy0 2.836499 1_555
Cu1 Dy3 2.836499 1_545
Cu1 Dy1 2.836499 1_455
