# generated using pymatgen
data_MgAsO8
_symmetry_space_group_name_H-M   'P 1'
_cell_length_a   6.96532100
_cell_length_b   10.55280500
_cell_length_c   16.91225900
_cell_angle_alpha   90.00000000
_cell_angle_beta   90.00000000
_cell_angle_gamma   90.00000000
_symmetry_Int_Tables_number   1
_chemical_formula_structural   MgAsO8
_chemical_formula_sum   'Mg8 As8 O64'
_cell_volume   1243.11317680
_cell_formula_units_Z   8
loop_
 _symmetry_equiv_pos_site_id
 _symmetry_equiv_pos_as_xyz
  1  'x, y, z'
loop_
 _atom_site_type_symbol
 _atom_site_label
 _atom_site_symmetry_multiplicity
 _atom_site_fract_x
 _atom_site_fract_y
 _atom_site_fract_z
 _atom_site_occupancy
  Mg  Mg0  1  0.86234600  0.50702800  0.14157100  1
  Mg  Mg1  1  0.36234600  0.99297200  0.85842900  1
  Mg  Mg2  1  0.13765400  0.00702800  0.35842900  1
  Mg  Mg3  1  0.63765400  0.49297200  0.64157100  1
  Mg  Mg4  1  0.13765400  0.49297200  0.85842900  1
  Mg  Mg5  1  0.63765400  0.00702800  0.14157100  1
  Mg  Mg6  1  0.86234600  0.99297200  0.64157100  1
  Mg  Mg7  1  0.36234600  0.50702800  0.35842900  1
  As  As0  1  0.47527200  0.19854500  0.41276400  1
  As  As1  1  0.97527200  0.30145500  0.58723600  1
  As  As2  1  0.52472800  0.69854500  0.08723600  1
  As  As3  1  0.02472800  0.80145500  0.91276400  1
  As  As4  1  0.52472800  0.80145500  0.58723600  1
  As  As5  1  0.02472800  0.69854500  0.41276400  1
  As  As6  1  0.47527200  0.30145500  0.91276400  1
  As  As7  1  0.97527200  0.19854500  0.08723600  1
  O  O0  1  0.85452200  0.31072900  0.49697300  1
  O  O1  1  0.35452200  0.18927100  0.50302700  1
  O  O2  1  0.14547800  0.81072900  0.00302700  1
  O  O3  1  0.64547800  0.68927100  0.99697300  1
  O  O4  1  0.14547800  0.68927100  0.50302700  1
  O  O5  1  0.64547800  0.81072900  0.49697300  1
  O  O6  1  0.85452200  0.18927100  0.99697300  1
  O  O7  1  0.35452200  0.31072900  0.00302700  1
  O  O8  1  0.71248200  0.15334300  0.43242400  1
  O  O9  1  0.21248200  0.34665700  0.56757600  1
  O  O10  1  0.28751800  0.65334300  0.06757600  1
  O  O11  1  0.78751800  0.84665700  0.93242400  1
  O  O12  1  0.28751800  0.84665700  0.56757600  1
  O  O13  1  0.78751800  0.65334300  0.43242400  1
  O  O14  1  0.71248200  0.34665700  0.93242400  1
  O  O15  1  0.21248200  0.15334300  0.06757600  1
  O  O16  1  0.45850700  0.33883800  0.36329400  1
  O  O17  1  0.95850700  0.16116200  0.63670600  1
  O  O18  1  0.54149300  0.83883800  0.13670600  1
  O  O19  1  0.04149300  0.66116200  0.86329400  1
  O  O20  1  0.54149300  0.66116200  0.63670600  1
  O  O21  1  0.04149300  0.83883800  0.36329400  1
  O  O22  1  0.45850700  0.16116200  0.86329400  1
  O  O23  1  0.95850700  0.33883800  0.13670600  1
  O  O24  1  0.88603100  0.08204100  0.14732900  1
  O  O25  1  0.38603100  0.41795900  0.85267100  1
  O  O26  1  0.11396900  0.58204100  0.35267100  1
  O  O27  1  0.61396900  0.91795900  0.64732900  1
  O  O28  1  0.11396900  0.91795900  0.85267100  1
  O  O29  1  0.61396900  0.58204100  0.14732900  1
  O  O30  1  0.88603100  0.41795900  0.64732900  1
  O  O31  1  0.38603100  0.08204100  0.35267100  1
  O  O32  1  0.94488800  0.14237300  0.31703700  1
  O  O33  1  0.44488800  0.35762700  0.68296300  1
  O  O34  1  0.05511200  0.64237300  0.18296300  1
  O  O35  1  0.55511200  0.85762700  0.81703700  1
  O  O36  1  0.05511200  0.85762700  0.68296300  1
  O  O37  1  0.55511200  0.64237300  0.31703700  1
  O  O38  1  0.94488800  0.35762700  0.81703700  1
  O  O39  1  0.44488800  0.14237300  0.18296300  1
  O  O40  1  0.88112400  0.34333600  0.29664700  1
  O  O41  1  0.38112400  0.15666400  0.70335300  1
  O  O42  1  0.11887600  0.84333600  0.20335300  1
  O  O43  1  0.61887600  0.65666400  0.79664700  1
  O  O44  1  0.11887600  0.65666400  0.70335300  1
  O  O45  1  0.61887600  0.84333600  0.29664700  1
  O  O46  1  0.88112400  0.15666400  0.79664700  1
  O  O47  1  0.38112400  0.34333600  0.20335300  1
  O  O48  1  0.50222300  0.26422000  0.17876200  1
  O  O49  1  0.00222300  0.23578000  0.82123800  1
  O  O50  1  0.49777700  0.76422000  0.32123800  1
  O  O51  1  0.99777700  0.73578000  0.67876200  1
  O  O52  1  0.49777700  0.73578000  0.82123800  1
  O  O53  1  0.99777700  0.76422000  0.17876200  1
  O  O54  1  0.50222300  0.23578000  0.67876200  1
  O  O55  1  0.00222300  0.26422000  0.32123800  1
  O  O56  1  0.57628100  0.01748200  0.01596900  1
  O  O57  1  0.07628100  0.48251800  0.98403100  1
  O  O58  1  0.42371900  0.51748200  0.48403100  1
  O  O59  1  0.92371900  0.98251800  0.51596900  1
  O  O60  1  0.42371900  0.98251800  0.98403100  1
  O  O61  1  0.92371900  0.51748200  0.01596900  1
  O  O62  1  0.57628100  0.48251800  0.51596900  1
  O  O63  1  0.07628100  0.01748200  0.48403100  1
loop_
_geom_bond_atom_site_label_1
_geom_bond_atom_site_label_2
_geom_bond_distance
_geom_bond_site_symmetry_2
Mg0 O23 1.898836 1_555
Mg0 O29 1.905019 1_555
Mg0 O34 2.081533 1_655
Mg0 O61 2.169607 1_555
Mg1 O22 1.898836 1_565
Mg1 O28 1.905019 1_555
Mg1 O35 2.081533 1_555
Mg1 O60 2.169607 1_555
Mg2 O21 1.898836 1_545
Mg2 O31 1.905019 1_555
Mg2 O32 2.081533 1_455
Mg2 O63 2.169607 1_555
Mg3 O20 1.898836 1_555
Mg3 O30 1.905019 1_555
Mg3 O33 2.081533 1_555
Mg3 O62 2.169607 1_555
Mg4 O19 1.898836 1_555
Mg4 O25 1.905019 1_555
Mg4 O38 2.081533 1_455
Mg4 O57 2.169607 1_555
Mg5 O18 1.898836 1_545
Mg5 O24 1.905019 1_555
Mg5 O39 2.081533 1_555
Mg5 O56 2.169607 1_555
Mg6 O17 1.898836 1_565
Mg6 O27 1.905019 1_555
Mg6 O36 2.081533 1_655
Mg6 O59 2.169607 1_555
Mg7 O16 1.898836 1_555
Mg7 O26 1.905019 1_555
Mg7 O37 2.081533 1_555
Mg7 O58 2.169607 1_555
As0 O16 1.704539 1_555
As0 O31 1.711956 1_555
As0 O1 1.745658 1_555
As0 O8 1.751570 1_555
As1 O17 1.704539 1_555
As1 O30 1.711956 1_555
As1 O0 1.745658 1_555
As1 O9 1.751570 1_655
As2 O18 1.704539 1_555
As2 O29 1.711956 1_555
As2 O3 1.745658 1_554
As2 O10 1.751570 1_555
As3 O19 1.704539 1_555
As3 O28 1.711956 1_555
As3 O2 1.745658 1_556
As3 O11 1.751570 1_455
As4 O20 1.704539 1_555
As4 O27 1.711956 1_555
As4 O5 1.745658 1_555
As4 O12 1.751570 1_555
As5 O21 1.704539 1_555
As5 O26 1.711956 1_555
As5 O4 1.745658 1_555
As5 O13 1.751570 1_455
As6 O22 1.704539 1_555
As6 O25 1.711956 1_555
As6 O7 1.745658 1_556
As6 O14 1.751570 1_555
As7 O23 1.704539 1_555
As7 O24 1.711956 1_555
As7 O6 1.745658 1_554
As7 O15 1.751570 1_655
O32 O55 1.348290 1_655
O33 O54 1.348290 1_555
O34 O53 1.348290 1_455
O35 O52 1.348290 1_555
O36 O51 1.348290 1_455
O37 O50 1.348290 1_555
O38 O49 1.348290 1_655
O39 O48 1.348290 1_555
O40 O55 1.257575 1_655
O41 O54 1.257575 1_555
O42 O53 1.257575 1_455
O43 O52 1.257575 1_555
O44 O51 1.257575 1_455
O45 O50 1.257575 1_555
O46 O49 1.257575 1_655
O47 O48 1.257575 1_555
O56 O60 1.247840 1_544
O57 O61 1.247840 1_456
O58 O62 1.247840 1_555
O59 O63 1.247840 1_665
