# generated using pymatgen
data_ErAgSn
_symmetry_space_group_name_H-M   'P 1'
_cell_length_a   4.82706396
_cell_length_b   4.82706396
_cell_length_c   7.39110500
_cell_angle_alpha   90.00000000
_cell_angle_beta   90.00000000
_cell_angle_gamma   119.99999941
_symmetry_Int_Tables_number   1
_chemical_formula_structural   ErAgSn
_chemical_formula_sum   'Er2 Ag2 Sn2'
_cell_volume   149.14411194
_cell_formula_units_Z   2
loop_
 _symmetry_equiv_pos_site_id
 _symmetry_equiv_pos_as_xyz
  1  'x, y, z'
loop_
 _atom_site_type_symbol
 _atom_site_label
 _atom_site_symmetry_multiplicity
 _atom_site_fract_x
 _atom_site_fract_y
 _atom_site_fract_z
 _atom_site_occupancy
  Er  Er0  1  0.00000000  0.00000000  0.27377300  1
  Er  Er1  1  0.00000000  0.00000000  0.72622700  1
  Ag  Ag0  1  0.33333300  0.66666700  0.47187200  1
  Ag  Ag1  1  0.66666700  0.33333300  0.52812800  1
  Sn  Sn0  1  0.66666700  0.33333300  0.93886300  1
  Sn  Sn1  1  0.33333300  0.66666700  0.06113700  1
loop_
_geom_bond_atom_site_label_1
_geom_bond_atom_site_label_2
_geom_bond_distance
_geom_bond_site_symmetry_2
Er0 Sn1 3.199501 1_545
Er0 Sn1 3.199505 1_445
Er0 Sn1 3.199505 1_555
Er0 Er1 3.344135 1_555
Er0 Sn0 3.727495 1_454
Er0 Sn0 3.727498 1_554
Er0 Sn0 3.727498 1_444
Er0 Er1 4.046970 1_554
Er1 Sn0 3.199501 1_455
Er1 Sn0 3.199505 1_445
Er1 Sn0 3.199505 1_555
Er1 Sn1 3.727495 1_546
Er1 Sn1 3.727498 1_556
Er1 Sn1 3.727498 1_446
Ag0 Ag1 2.817751 1_455
Ag0 Ag1 2.817751 1_565
Ag0 Ag1 2.817759 1_555
Ag0 Sn1 3.035786 1_555
Ag0 Er0 3.148115 1_565
Ag0 Er0 3.148119 1_555
Ag0 Er0 3.148119 1_665
Ag0 Er1 3.361711 1_565
Ag0 Er1 3.361714 1_665
Ag0 Er1 3.361714 1_555
Ag1 Sn0 3.035786 1_555
Ag1 Er1 3.148115 1_655
Ag1 Er1 3.148119 1_665
Ag1 Er1 3.148119 1_555
Ag1 Er0 3.361711 1_655
Ag1 Er0 3.361714 1_555
Ag1 Er0 3.361714 1_665
Sn0 Sn1 2.929775 1_546
Sn0 Sn1 2.929775 1_656
Sn0 Sn1 2.929783 1_556
