# generated using pymatgen
data_Yb2Zn25Rh
_symmetry_space_group_name_H-M   'P 1'
_cell_length_a   20.30632926
_cell_length_b   20.30632926
_cell_length_c   20.30632926
_cell_angle_alpha   60.00000000
_cell_angle_beta   60.00000000
_cell_angle_gamma   60.00000000
_symmetry_Int_Tables_number   1
_chemical_formula_structural   Yb2Zn25Rh
_chemical_formula_sum   'Yb4 Zn50 Rh2'
_cell_volume   5920.78476377
_cell_formula_units_Z   2
loop_
 _symmetry_equiv_pos_site_id
 _symmetry_equiv_pos_as_xyz
  1  'x, y, z'
loop_
 _atom_site_type_symbol
 _atom_site_label
 _atom_site_symmetry_multiplicity
 _atom_site_fract_x
 _atom_site_fract_y
 _atom_site_fract_z
 _atom_site_occupancy
  Yb  Yb0  1  0.87500000  0.87500000  0.87500000  1
  Yb  Yb1  1  0.37500000  0.87500000  0.87500000  1
  Yb  Yb2  1  0.87500000  0.37500000  0.87500000  1
  Yb  Yb3  1  0.87500000  0.87500000  0.37500000  1
  Zn  Zn0  1  0.51348185  0.51348185  0.24523282  1
  Zn  Zn1  1  0.72780347  0.24523282  0.51348185  1
  Zn  Zn2  1  0.24523282  0.72780347  0.51348185  1
  Zn  Zn3  1  0.51348185  0.24523282  0.51348185  1
  Zn  Zn4  1  0.02219653  0.23651815  0.50476718  1
  Zn  Zn5  1  0.23651815  0.23651815  0.50476718  1
  Zn  Zn6  1  0.51348185  0.51348185  0.72780347  1
  Zn  Zn7  1  0.24523282  0.51348185  0.72780347  1
  Zn  Zn8  1  0.23651815  0.50476718  0.23651815  1
  Zn  Zn9  1  0.02219653  0.50476718  0.23651815  1
  Zn  Zn10  1  0.72780347  0.51348185  0.24523282  1
  Zn  Zn11  1  0.23651815  0.02219653  0.23651815  1
  Zn  Zn12  1  0.50476718  0.02219653  0.23651815  1
  Zn  Zn13  1  0.51348185  0.72780347  0.51348185  1
  Zn  Zn14  1  0.50476718  0.23651815  0.02219653  1
  Zn  Zn15  1  0.23651815  0.23651815  0.02219653  1
  Zn  Zn16  1  0.24523282  0.51348185  0.51348185  1
  Zn  Zn17  1  0.51348185  0.24523282  0.72780347  1
  Zn  Zn18  1  0.72780347  0.51348185  0.51348185  1
  Zn  Zn19  1  0.51348185  0.72780347  0.24523282  1
  Zn  Zn20  1  0.23651815  0.50476718  0.02219653  1
  Zn  Zn21  1  0.50476718  0.23651815  0.23651815  1
  Zn  Zn22  1  0.23651815  0.02219653  0.50476718  1
  Zn  Zn23  1  0.02219653  0.23651815  0.23651815  1
  Zn  Zn24  1  -0.00000000  -0.00000000  -0.00000000  1
  Zn  Zn25  1  0.75000000  0.75000000  0.75000000  1
  Zn  Zn26  1  0.20159606  0.68019543  0.68019543  1
  Zn  Zn27  1  0.43801308  0.68019543  0.68019543  1
  Zn  Zn28  1  0.68019543  0.43801308  0.20159606  1
  Zn  Zn29  1  0.68019543  0.68019543  0.20159606  1
  Zn  Zn30  1  0.31198692  0.06980457  0.06980457  1
  Zn  Zn31  1  0.54840394  0.06980457  0.06980457  1
  Zn  Zn32  1  0.68019543  0.20159606  0.43801308  1
  Zn  Zn33  1  0.68019543  0.68019543  0.43801308  1
  Zn  Zn34  1  0.43801308  0.20159606  0.68019543  1
  Zn  Zn35  1  0.06980457  0.31198692  0.54840394  1
  Zn  Zn36  1  0.20159606  0.43801308  0.68019543  1
  Zn  Zn37  1  0.06980457  0.54840394  0.31198692  1
  Zn  Zn38  1  0.68019543  0.20159606  0.68019543  1
  Zn  Zn39  1  0.31198692  0.06980457  0.54840394  1
  Zn  Zn40  1  0.06980457  0.06980457  0.54840394  1
  Zn  Zn41  1  0.20159606  0.68019543  0.43801308  1
  Zn  Zn42  1  0.06980457  0.54840394  0.06980457  1
  Zn  Zn43  1  0.31198692  0.54840394  0.06980457  1
  Zn  Zn44  1  0.43801308  0.68019543  0.20159606  1
  Zn  Zn45  1  0.06980457  0.31198692  0.06980457  1
  Zn  Zn46  1  0.54840394  0.31198692  0.06980457  1
  Zn  Zn47  1  0.68019543  0.43801308  0.68019543  1
  Zn  Zn48  1  0.54840394  0.06980457  0.31198692  1
  Zn  Zn49  1  0.06980457  0.06980457  0.31198692  1
  Rh  Rh0  1  0.50000000  0.50000000  0.50000000  1
  Rh  Rh1  1  0.25000000  0.25000000  0.25000000  1
loop_
_geom_bond_atom_site_label_1
_geom_bond_atom_site_label_2
_geom_bond_distance
_geom_bond_site_symmetry_2
Zn0 Zn44 2.786471 1_555
Zn0 Zn28 2.786471 1_555
Zn1 Zn32 2.786471 1_555
Zn1 Zn38 2.786471 1_555
Zn2 Zn41 2.786471 1_555
Zn2 Zn26 2.786471 1_555
Zn3 Zn32 2.786471 1_555
Zn3 Zn34 2.786471 1_555
Zn4 Zn40 2.786471 1_555
Zn10 Zn28 2.786471 1_555
Zn10 Zn29 2.786471 1_555
Zn11 Zn30 2.786471 1_555
Zn11 Zn49 2.786471 1_555
Zn12 Zn48 2.786471 1_555
Zn12 Zn31 2.786471 1_555
Zn13 Zn33 2.786471 1_555
Zn13 Zn27 2.786471 1_555
Zn14 Zn46 2.786471 1_555
Zn14 Zn31 2.786471 1_555
Zn15 Zn45 2.786471 1_555
Zn15 Zn30 2.786471 1_555
Zn16 Zn41 2.786471 1_555
Zn16 Zn36 2.786471 1_555
Zn17 Zn34 2.786471 1_555
Zn17 Zn38 2.786471 1_555
Zn18 Zn47 2.786471 1_555
Zn18 Zn33 2.786471 1_555
Zn19 Zn44 2.786471 1_555
Zn19 Zn29 2.786471 1_555
Zn20 Zn43 2.786471 1_555
Zn20 Zn42 2.786471 1_555
Zn21 Zn48 2.786471 1_555
Zn21 Zn46 2.786471 1_555
Zn22 Zn39 2.786471 1_555
Zn22 Zn40 2.786471 1_555
Zn23 Zn49 2.786471 1_555
Zn23 Zn45 2.786471 1_555
Zn26 Zn7 2.786471 1_555
Zn27 Zn6 2.786471 1_555
Zn35 Zn4 2.786471 1_555
Zn35 Zn5 2.786471 1_555
Zn36 Zn7 2.786471 1_555
Zn37 Zn9 2.786471 1_555
Zn37 Zn8 2.786471 1_555
Zn39 Zn5 2.786471 1_555
Zn42 Zn9 2.786471 1_555
Zn43 Zn8 2.786471 1_555
Zn47 Zn6 2.786471 1_555
