# generated using pymatgen
data_PrVO4
_symmetry_space_group_name_H-M   'P 1'
_cell_length_a   6.66898717
_cell_length_b   6.98857652
_cell_length_c   7.22046400
_cell_angle_alpha   90.00000000
_cell_angle_beta   90.00000000
_cell_angle_gamma   105.19302094
_symmetry_Int_Tables_number   1
_chemical_formula_structural   PrVO4
_chemical_formula_sum   'Pr4 V4 O16'
_cell_volume   324.76021467
_cell_formula_units_Z   4
loop_
 _symmetry_equiv_pos_site_id
 _symmetry_equiv_pos_as_xyz
  1  'x, y, z'
loop_
 _atom_site_type_symbol
 _atom_site_label
 _atom_site_symmetry_multiplicity
 _atom_site_fract_x
 _atom_site_fract_y
 _atom_site_fract_z
 _atom_site_occupancy
  Pr  Pr0  1  0.39999036  0.22222824  0.65455875  1
  Pr  Pr1  1  0.89999036  0.72222824  0.84544125  1
  Pr  Pr2  1  0.60000964  0.77777176  0.34544125  1
  Pr  Pr3  1  0.10000964  0.27777176  0.15455875  1
  V  V0  1  0.88542292  0.19956525  0.66455160  1
  V  V1  1  0.38542292  0.69956525  0.83544840  1
  V  V2  1  0.11457708  0.80043475  0.33544840  1
  V  V3  1  0.61457708  0.30043475  0.16455160  1
  O  O0  1  0.07633974  0.25224197  0.49625177  1
  O  O1  1  0.57633974  0.75224197  0.00374823  1
  O  O2  1  0.92366026  0.74775803  0.50374823  1
  O  O3  1  0.42366026  0.24775803  0.99625177  1
  O  O4  1  0.99980729  0.11185226  0.84704255  1
  O  O5  1  0.49980729  0.61185226  0.65295745  1
  O  O6  1  0.00019271  0.88814774  0.15295745  1
  O  O7  1  0.50019271  0.38814774  0.34704255  1
  O  O8  1  0.67062211  0.01774015  0.60453435  1
  O  O9  1  0.17062211  0.51774015  0.89546565  1
  O  O10  1  0.32937789  0.98225985  0.39546565  1
  O  O11  1  0.82937789  0.48225985  0.10453435  1
  O  O12  1  0.77184092  0.38530258  0.71951579  1
  O  O13  1  0.27184092  0.88530258  0.78048421  1
  O  O14  1  0.22815908  0.61469742  0.28048421  1
  O  O15  1  0.72815908  0.11469742  0.21951579  1
loop_
_geom_bond_atom_site_label_1
_geom_bond_atom_site_label_2
_geom_bond_distance
_geom_bond_site_symmetry_2
O0 V0 1.728485 1_455
O0 Pr3 2.475677 1_555
O0 Pr0 2.499328 1_555
O1 V1 1.728485 1_554
O1 Pr2 2.475677 1_555
O1 Pr1 2.499328 1_554
O2 V2 1.728485 1_655
O2 Pr1 2.475677 1_555
O2 Pr2 2.499328 1_555
O3 V3 1.728485 1_556
O3 Pr0 2.475677 1_555
O3 Pr3 2.499328 1_556
O4 V0 1.714353 1_555
O4 Pr3 2.513001 1_656
O4 Pr1 2.628209 1_545
O4 Pr0 2.927485 1_655
O5 V1 1.714353 1_555
O5 Pr2 2.513001 1_555
O5 Pr0 2.628209 1_555
O5 Pr1 2.927485 1_555
O6 V2 1.714353 1_555
O6 Pr1 2.513001 1_454
O6 Pr3 2.628209 1_565
O6 Pr2 2.927485 1_455
O7 V3 1.714353 1_555
O7 Pr0 2.513001 1_555
O7 Pr2 2.628209 1_555
O7 Pr3 2.927485 1_555
O8 V0 1.703070 1_555
O8 Pr2 2.473877 1_545
O8 Pr0 2.604244 1_555
O9 V1 1.703070 1_555
O9 Pr3 2.473877 1_556
O9 Pr1 2.604244 1_455
O10 V2 1.703070 1_555
O10 Pr0 2.473877 1_565
O10 Pr2 2.604244 1_555
O11 V3 1.703070 1_555
O11 Pr1 2.473877 1_554
O11 Pr3 2.604244 1_655
O12 V0 1.712173 1_555
O12 Pr1 2.458992 1_555
O12 Pr0 2.487409 1_555
O13 V1 1.712173 1_555
O13 Pr0 2.458992 1_565
O13 Pr1 2.487409 1_455
O14 V2 1.712173 1_555
O14 Pr3 2.458992 1_555
O14 Pr2 2.487409 1_555
O15 V3 1.712173 1_555
O15 Pr2 2.458992 1_545
O15 Pr3 2.487409 1_655
