# generated using pymatgen
data_BaSrTi2O6
_symmetry_space_group_name_H-M   'P 1'
_cell_length_a   3.99101800
_cell_length_b   3.99101800
_cell_length_c   7.97502600
_cell_angle_alpha   90.00000000
_cell_angle_beta   90.00000000
_cell_angle_gamma   90.00000000
_symmetry_Int_Tables_number   1
_chemical_formula_structural   BaSrTi2O6
_chemical_formula_sum   'Ba1 Sr1 Ti2 O6'
_cell_volume   127.02800593
_cell_formula_units_Z   1
loop_
 _symmetry_equiv_pos_site_id
 _symmetry_equiv_pos_as_xyz
  1  'x, y, z'
loop_
 _atom_site_type_symbol
 _atom_site_label
 _atom_site_symmetry_multiplicity
 _atom_site_fract_x
 _atom_site_fract_y
 _atom_site_fract_z
 _atom_site_occupancy
  Ba  Ba0  1  0.50000000  0.50000000  0.00000000  1
  Sr  Sr0  1  0.50000000  0.50000000  0.50000000  1
  Ti  Ti0  1  0.00000000  0.00000000  0.74473400  1
  Ti  Ti1  1  0.00000000  0.00000000  0.25526600  1
  O  O0  1  0.00000000  0.00000000  0.00000000  1
  O  O1  1  0.00000000  0.00000000  0.50000000  1
  O  O2  1  0.00000000  0.50000000  0.74128700  1
  O  O3  1  0.00000000  0.50000000  0.25871300  1
  O  O4  1  0.50000000  0.00000000  0.74128700  1
  O  O5  1  0.50000000  0.00000000  0.25871300  1
loop_
_geom_bond_atom_site_label_1
_geom_bond_atom_site_label_2
_geom_bond_distance
_geom_bond_site_symmetry_2
Ba0 O0 2.822076 1_655
Ba0 O0 2.822076 1_665
Ba0 O0 2.822076 1_565
Ba0 O0 2.822076 1_555
Ba0 O3 2.870371 1_655
Ba0 O5 2.870371 1_555
Ba0 O5 2.870371 1_565
Ba0 O3 2.870371 1_555
Ba0 O4 2.870371 1_564
Ba0 O2 2.870371 1_654
Ba0 O4 2.870371 1_554
Ba0 O2 2.870371 1_554
O0 Ti1 2.035753 1_555
O0 Ti0 2.035753 1_554
O1 Ti0 1.951760 1_555
O1 Ti1 1.951760 1_555
O1 Sr0 2.822076 1_455
O1 Sr0 2.822076 1_555
O1 Sr0 2.822076 1_445
O1 Sr0 2.822076 1_545
O2 Ti0 1.995698 1_565
O2 Ti0 1.995698 1_555
O2 Sr0 2.772160 1_555
O2 Sr0 2.772160 1_455
O3 Ti1 1.995698 1_555
O3 Ti1 1.995698 1_565
O3 Sr0 2.772160 1_555
O3 Sr0 2.772160 1_455
O4 Ti0 1.995698 1_655
O4 Ti0 1.995698 1_555
O4 Sr0 2.772160 1_545
O4 Sr0 2.772160 1_555
O5 Ti1 1.995698 1_655
O5 Ti1 1.995698 1_555
O5 Sr0 2.772160 1_545
O5 Sr0 2.772160 1_555
