# generated using pymatgen
data_KMg14BO16
_symmetry_space_group_name_H-M   'P 1'
_cell_length_a   4.44916100
_cell_length_b   8.21580500
_cell_length_c   8.89194000
_cell_angle_alpha   90.00000000
_cell_angle_beta   90.00000000
_cell_angle_gamma   90.00000000
_symmetry_Int_Tables_number   1
_chemical_formula_structural   KMg14BO16
_chemical_formula_sum   'K1 Mg14 B1 O16'
_cell_volume   325.03098807
_cell_formula_units_Z   1
loop_
 _symmetry_equiv_pos_site_id
 _symmetry_equiv_pos_as_xyz
  1  'x, y, z'
loop_
 _atom_site_type_symbol
 _atom_site_label
 _atom_site_symmetry_multiplicity
 _atom_site_fract_x
 _atom_site_fract_y
 _atom_site_fract_z
 _atom_site_occupancy
  K  K0  1  0.00000000  0.00000000  0.00000000  1
  Mg  Mg0  1  0.00000000  0.00000000  0.50000000  1
  Mg  Mg1  1  0.00000000  0.50000000  0.50000000  1
  Mg  Mg2  1  0.50000000  0.74114700  0.00000000  1
  Mg  Mg3  1  0.50000000  0.25885300  0.00000000  1
  Mg  Mg4  1  0.50000000  0.74946700  0.50000000  1
  Mg  Mg5  1  0.50000000  0.25053300  0.50000000  1
  Mg  Mg6  1  0.50000000  0.00000000  0.74794000  1
  Mg  Mg7  1  0.50000000  0.50000000  0.75297300  1
  Mg  Mg8  1  0.50000000  0.00000000  0.25206000  1
  Mg  Mg9  1  0.50000000  0.50000000  0.24702700  1
  Mg  Mg10  1  0.00000000  0.74563300  0.73464100  1
  Mg  Mg11  1  0.00000000  0.25436700  0.73464100  1
  Mg  Mg12  1  0.00000000  0.74563300  0.26535900  1
  Mg  Mg13  1  0.00000000  0.25436700  0.26535900  1
  B  B0  1  0.00000000  0.50000000  0.00000000  1
  O  O0  1  0.00000000  0.00000000  0.72765900  1
  O  O1  1  0.00000000  0.50000000  0.73209400  1
  O  O2  1  0.00000000  0.00000000  0.27234100  1
  O  O3  1  0.00000000  0.50000000  0.26790600  1
  O  O4  1  0.50000000  0.75005800  0.75500300  1
  O  O5  1  0.50000000  0.24994200  0.75500300  1
  O  O6  1  0.50000000  0.75005800  0.24499700  1
  O  O7  1  0.50000000  0.24994200  0.24499700  1
  O  O8  1  0.50000000  0.00000000  0.00000000  1
  O  O9  1  0.50000000  0.50000000  0.00000000  1
  O  O10  1  0.50000000  0.00000000  0.50000000  1
  O  O11  1  0.50000000  0.50000000  0.50000000  1
  O  O12  1  0.00000000  0.66691100  0.00000000  1
  O  O13  1  0.00000000  0.33308900  0.00000000  1
  O  O14  1  0.00000000  0.74890700  0.50000000  1
  O  O15  1  0.00000000  0.25109300  0.50000000  1
loop_
_geom_bond_atom_site_label_1
_geom_bond_atom_site_label_2
_geom_bond_distance
_geom_bond_site_symmetry_2
K0 O8 2.224581 1_455
K0 O8 2.224581 1_555
K0 O2 2.421640 1_555
K0 O0 2.421640 1_554
K0 O13 2.736594 1_555
K0 O12 2.736594 1_545
Mg0 O0 2.024330 1_555
Mg0 O2 2.024330 1_555
Mg0 O15 2.062931 1_555
Mg0 O14 2.062931 1_545
Mg0 O10 2.224581 1_555
Mg0 O10 2.224581 1_455
Mg1 O15 2.044971 1_555
Mg1 O14 2.044971 1_555
Mg1 O1 2.063766 1_555
Mg1 O3 2.063766 1_555
Mg1 O11 2.224581 1_455
Mg1 O11 2.224581 1_555
Mg2 O9 1.981217 1_555
Mg2 O8 2.126686 1_565
Mg2 O6 2.179728 1_555
Mg2 O4 2.179728 1_554
Mg2 O12 2.306674 1_655
Mg2 O12 2.306674 1_555
Mg3 O9 1.981217 1_555
Mg3 O8 2.126686 1_555
Mg3 O7 2.179728 1_555
Mg3 O5 2.179728 1_554
Mg3 O13 2.306674 1_655
Mg3 O13 2.306674 1_555
Mg4 O11 2.049572 1_555
Mg4 O10 2.058330 1_565
Mg4 O14 2.224585 1_555
Mg4 O14 2.224585 1_655
Mg4 O4 2.267477 1_555
Mg4 O6 2.267477 1_555
Mg5 O11 2.049572 1_555
Mg5 O10 2.058330 1_555
Mg5 O15 2.224585 1_655
Mg5 O15 2.224585 1_555
Mg5 O5 2.267477 1_555
Mg5 O7 2.267477 1_555
Mg6 O5 2.054435 1_555
Mg6 O4 2.054435 1_545
Mg6 O10 2.204668 1_555
Mg6 O0 2.231878 1_555
Mg6 O0 2.231878 1_655
Mg6 O8 2.241302 1_556
Mg7 O5 2.054507 1_555
Mg7 O4 2.054507 1_555
Mg7 O9 2.196549 1_556
Mg7 O1 2.232314 1_655
Mg7 O1 2.232314 1_555
Mg7 O11 2.249421 1_555
Mg8 O6 2.054435 1_545
Mg8 O7 2.054435 1_555
Mg8 O10 2.204668 1_555
Mg8 O2 2.231878 1_555
Mg8 O2 2.231878 1_655
Mg8 O8 2.241302 1_555
Mg9 O7 2.054507 1_555
Mg9 O6 2.054507 1_555
Mg9 O9 2.196549 1_555
Mg9 O3 2.232314 1_655
Mg9 O3 2.232314 1_555
Mg9 O11 2.249421 1_555
Mg10 O1 2.018200 1_555
Mg10 O14 2.086587 1_555
Mg10 O0 2.090752 1_565
Mg10 O4 2.232233 1_455
Mg10 O4 2.232233 1_555
Mg10 O12 2.446592 1_556
Mg11 O1 2.018200 1_555
Mg11 O15 2.086587 1_555
Mg11 O0 2.090752 1_555
Mg11 O5 2.232233 1_455
Mg11 O5 2.232233 1_555
Mg11 O13 2.446592 1_556
Mg12 O3 2.018200 1_555
Mg12 O14 2.086587 1_555
Mg12 O2 2.090752 1_565
Mg12 O6 2.232233 1_455
Mg12 O6 2.232233 1_555
Mg12 O12 2.446592 1_555
Mg13 O3 2.018200 1_555
Mg13 O15 2.086587 1_555
Mg13 O2 2.090752 1_555
Mg13 O7 2.232233 1_555
Mg13 O7 2.232233 1_455
Mg13 O13 2.446592 1_555
B0 O12 1.371308 1_555
B0 O13 1.371308 1_555
