# generated using pymatgen
data_Li9Mn2Co5O16
_symmetry_space_group_name_H-M   'P 1'
_cell_length_a   5.16784900
_cell_length_b   5.88680131
_cell_length_c   10.06755500
_cell_angle_alpha   88.56202614
_cell_angle_beta   100.23375805
_cell_angle_gamma   108.03866092
_symmetry_Int_Tables_number   1
_chemical_formula_structural   Li9Mn2Co5O16
_chemical_formula_sum   'Li9 Mn2 Co5 O16'
_cell_volume   286.44244331
_cell_formula_units_Z   1
loop_
 _symmetry_equiv_pos_site_id
 _symmetry_equiv_pos_as_xyz
  1  'x, y, z'
loop_
 _atom_site_type_symbol
 _atom_site_label
 _atom_site_symmetry_multiplicity
 _atom_site_fract_x
 _atom_site_fract_y
 _atom_site_fract_z
 _atom_site_occupancy
  Li  Li0  1  0.50126700  0.86729600  0.12542400  1
  Li  Li1  1  0.49791800  0.12238100  0.37899100  1
  Li  Li2  1  0.49815300  0.37575100  0.62759200  1
  Li  Li3  1  0.49287500  0.61272200  0.86576100  1
  Li  Li4  1  0.50133800  0.38119600  0.12100700  1
  Li  Li5  1  0.49638900  0.63037500  0.38172800  1
  Li  Li6  1  0.50845800  0.88060700  0.63074800  1
  Li  Li7  1  0.50233900  0.13354900  0.86712300  1
  Li  Li8  1  0.00172200  0.25298700  0.75109100  1
  Mn  Mn0  1  0.00176200  0.00199300  0.99666200  1
  Mn  Mn1  1  0.00170500  0.25040500  0.24959900  1
  Co  Co0  1  0.99537700  0.49151300  0.50893100  1
  Co  Co1  1  0.99930400  0.74762400  0.74966700  1
  Co  Co2  1  0.00689300  0.49700900  0.99759900  1
  Co  Co3  1  0.99453800  0.74877900  0.24917500  1
  Co  Co4  1  0.00050700  0.00318100  0.50758700  1
  O  O0  1  0.77942100  0.70718200  0.07261300  1
  O  O1  1  0.76913500  0.96043000  0.31433800  1
  O  O2  1  0.76217100  0.19776400  0.55520400  1
  O  O3  1  0.77941200  0.45807100  0.82746300  1
  O  O4  1  0.78819300  0.18832100  0.06336700  1
  O  O5  1  0.78121900  0.43376300  0.30038300  1
  O  O6  1  0.75994300  0.68683600  0.56359900  1
  O  O7  1  0.76998700  0.93625900  0.82706000  1
  O  O8  1  0.21457700  0.05963700  0.18790400  1
  O  O9  1  0.22996400  0.30938800  0.42464100  1
  O  O10  1  0.23602300  0.57544100  0.68467100  1
  O  O11  1  0.22182200  0.81458000  0.94650300  1
  O  O12  1  0.22708700  0.54057800  0.17832900  1
  O  O13  1  0.20873100  0.79517800  0.42485900  1
  O  O14  1  0.23190200  0.04879900  0.67691900  1
  O  O15  1  0.23986700  0.29040500  0.94346300  1
loop_
_geom_bond_atom_site_label_1
_geom_bond_atom_site_label_2
_geom_bond_distance
_geom_bond_site_symmetry_2
Li0 O11 2.062200 1_554
Li0 O0 2.091222 1_555
Li0 O1 2.116813 1_555
Li0 O12 2.125915 1_555
Li0 O4 2.166760 1_565
Li0 O8 2.297517 1_565
Li1 O2 2.003097 1_555
Li1 O1 2.116595 1_545
Li1 O9 2.129857 1_555
Li1 O13 2.138844 1_545
Li1 O8 2.163607 1_555
Li1 O5 2.192408 1_555
Li2 O6 2.077288 1_555
Li2 O14 2.097382 1_555
Li2 O2 2.183472 1_555
Li2 O10 2.200887 1_555
Li2 O9 2.224131 1_555
Li2 O3 2.229343 1_555
Li3 O10 2.028220 1_555
Li3 O3 2.055624 1_555
Li3 O7 2.074114 1_555
Li3 O15 2.161989 1_555
Li3 O0 2.300265 1_556
Li3 O11 2.349231 1_555
Li4 O15 2.012188 1_554
Li4 O5 2.066812 1_555
Li4 O12 2.088876 1_555
Li4 O0 2.116396 1_555
Li4 O8 2.187767 1_555
Li4 O4 2.281369 1_555
Li5 O6 2.045027 1_555
Li5 O9 2.052321 1_555
Li5 O13 2.117396 1_555
Li5 O1 2.190821 1_555
Li5 O12 2.235077 1_555
Li5 O5 2.389134 1_555
Li6 O10 2.039701 1_555
Li6 O14 2.091539 1_565
Li6 O2 2.133160 1_565
Li6 O7 2.156204 1_555
Li6 O6 2.171696 1_555
Li6 O13 2.318984 1_555
Li7 O3 2.080878 1_555
Li7 O15 2.113032 1_555
Li7 O14 2.129347 1_555
Li7 O7 2.154371 1_545
Li7 O4 2.211228 1_556
Li7 O11 2.217321 1_545
Li8 O10 2.077749 1_555
Li8 O15 2.078604 1_555
Li8 O7 2.089632 1_445
Li8 O2 2.107810 1_455
Li8 O3 2.141979 1_455
Li8 O14 2.159546 1_555
Mn0 O7 1.875977 1_445
Mn0 O15 1.891626 1_555
Mn0 O11 1.942823 1_545
Mn0 O4 1.980493 1_456
Mn0 O0 1.981783 1_446
Mn0 O8 2.020121 1_556
Mn1 O9 1.912054 1_555
Mn1 O5 1.929042 1_455
Mn1 O1 1.932652 1_445
Mn1 O12 1.947462 1_555
Mn1 O8 1.974857 1_555
Mn1 O4 1.978854 1_455
Co0 O2 1.878331 1_555
Co0 O10 1.950009 1_655
Co0 O13 2.040255 1_655
Co0 O6 2.059480 1_555
Co0 O9 2.134351 1_655
Co0 O5 2.173883 1_555
Co1 O3 1.964652 1_555
Co1 O10 2.009420 1_655
Co1 O14 2.013069 1_665
Co1 O6 2.025682 1_555
Co1 O11 2.086494 1_655
Co1 O7 2.105026 1_555
Co2 O3 1.872362 1_455
Co2 O12 1.943772 1_556
Co2 O11 1.965205 1_555
Co2 O4 1.987839 1_456
Co2 O15 2.097412 1_555
Co2 O0 2.178559 1_456
Co3 O13 1.889321 1_655
Co3 O0 1.899103 1_555
Co3 O5 1.951378 1_555
Co3 O8 1.981455 1_665
Co3 O1 2.133315 1_555
Co3 O12 2.171601 1_655
Co4 O14 1.872972 1_555
Co4 O6 2.023393 1_445
Co4 O2 2.042082 1_455
Co4 O1 2.071180 1_445
Co4 O9 2.074912 1_555
Co4 O13 2.129928 1_545
