# generated using pymatgen
data_KMgN
_symmetry_space_group_name_H-M   'P 1'
_cell_length_a   10.25385469
_cell_length_b   3.90772570
_cell_length_c   6.70191088
_cell_angle_alpha   90.00000000
_cell_angle_beta   90.00000000
_cell_angle_gamma   90.00000000
_symmetry_Int_Tables_number   1
_chemical_formula_structural   KMgN
_chemical_formula_sum   'K4 Mg4 N4'
_cell_volume   268.54055256
_cell_formula_units_Z   4
loop_
 _symmetry_equiv_pos_site_id
 _symmetry_equiv_pos_as_xyz
  1  'x, y, z'
loop_
 _atom_site_type_symbol
 _atom_site_label
 _atom_site_symmetry_multiplicity
 _atom_site_fract_x
 _atom_site_fract_y
 _atom_site_fract_z
 _atom_site_occupancy
  K  K0  1  0.66009811  0.25000000  0.05329758  1
  K  K1  1  0.16009811  0.25000000  0.44670242  1
  K  K2  1  0.33990189  0.75000000  0.94670242  1
  K  K3  1  0.83990189  0.75000000  0.55329758  1
  Mg  Mg0  1  0.54447654  0.25000000  0.60551383  1
  Mg  Mg1  1  0.04447654  0.25000000  0.89448617  1
  Mg  Mg2  1  0.45552346  0.75000000  0.39448617  1
  Mg  Mg3  1  0.95552346  0.75000000  0.10551383  1
  N  N0  1  0.93593673  0.25000000  0.17582760  1
  N  N1  1  0.43593673  0.25000000  0.32417240  1
  N  N2  1  0.06406327  0.75000000  0.82417240  1
  N  N3  1  0.56406327  0.75000000  0.67582760  1
loop_
_geom_bond_atom_site_label_1
_geom_bond_atom_site_label_2
_geom_bond_distance
_geom_bond_site_symmetry_2
K0 N1 2.928957 1_555
K0 N0 2.945207 1_555
K1 N0 2.928957 1_455
K1 N1 2.945207 1_555
K2 N3 2.928957 1_555
K2 N2 2.945207 1_555
K3 N2 2.928957 1_655
K3 N3 2.945207 1_555
Mg0 N3 2.019896 1_545
Mg0 N3 2.019896 1_555
Mg0 N1 2.189490 1_555
Mg1 N2 2.019896 1_555
Mg1 N2 2.019896 1_545
Mg1 N0 2.189490 1_456
Mg2 N1 2.019896 1_565
Mg2 N1 2.019896 1_555
Mg2 N3 2.189490 1_555
Mg3 N0 2.019896 1_565
Mg3 N0 2.019896 1_555
Mg3 N2 2.189490 1_654
