# generated using pymatgen
data_Cs6Si2O7
_symmetry_space_group_name_H-M   'P 1'
_cell_length_a   9.57460585
_cell_length_b   7.16433920
_cell_length_c   11.99252527
_cell_angle_alpha   53.71399707
_cell_angle_beta   90.00000000
_cell_angle_gamma   90.00000000
_symmetry_Int_Tables_number   1
_chemical_formula_structural   Cs6Si2O7
_chemical_formula_sum   'Cs12 Si4 O14'
_cell_volume   663.10453588
_cell_formula_units_Z   2
loop_
 _symmetry_equiv_pos_site_id
 _symmetry_equiv_pos_as_xyz
  1  'x, y, z'
loop_
 _atom_site_type_symbol
 _atom_site_label
 _atom_site_symmetry_multiplicity
 _atom_site_fract_x
 _atom_site_fract_y
 _atom_site_fract_z
 _atom_site_occupancy
  Cs  Cs0  1  0.35443527  0.51291837  0.59799615  1
  Cs  Cs1  1  0.14556473  0.51291837  0.09799615  1
  Cs  Cs2  1  0.64556473  0.48708163  0.40200385  1
  Cs  Cs3  1  0.97450021  0.70620105  0.54450160  1
  Cs  Cs4  1  0.47450021  0.29379895  0.95549840  1
  Cs  Cs5  1  0.02549979  0.29379895  0.45549840  1
  Cs  Cs6  1  0.52549979  0.70620105  0.04450160  1
  Cs  Cs7  1  0.27341843  0.88268261  0.72873097  1
  Cs  Cs8  1  0.77341843  0.11731739  0.77126903  1
  Cs  Cs9  1  0.72658157  0.11731739  0.27126903  1
  Cs  Cs10  1  0.22658157  0.88268261  0.22873097  1
  Cs  Cs11  1  0.85443527  0.48708163  0.90200385  1
  Si  Si0  1  0.62780525  0.84193519  0.61788540  1
  Si  Si1  1  0.87219475  0.84193519  0.11788540  1
  Si  Si2  1  0.37219475  0.15806481  0.38211460  1
  Si  Si3  1  0.12780525  0.15806481  0.88211460  1
  O  O0  1  0.26820145  0.99593714  0.93762581  1
  O  O1  1  0.00000000  0.00000000  0.00000000  1
  O  O2  1  0.50000000  0.00000000  0.50000000  1
  O  O3  1  0.92432838  0.77957684  0.26622080  1
  O  O4  1  0.76820145  0.00406286  0.56237419  1
  O  O5  1  0.73179855  0.00406286  0.06237419  1
  O  O6  1  0.23179855  0.99593714  0.43762581  1
  O  O7  1  0.65293400  0.60863461  0.62524553  1
  O  O8  1  0.15293400  0.39136539  0.87475447  1
  O  O9  1  0.34706600  0.39136539  0.37475447  1
  O  O10  1  0.84706600  0.60863461  0.12524553  1
  O  O11  1  0.57567162  0.77957684  0.76622080  1
  O  O12  1  0.07567162  0.22042316  0.73377920  1
  O  O13  1  0.42432838  0.22042316  0.23377920  1
loop_
_geom_bond_atom_site_label_1
_geom_bond_atom_site_label_2
_geom_bond_distance
_geom_bond_site_symmetry_2
Cs0 O7 3.001747 1_555
Cs0 O6 3.029057 1_555
Cs0 O12 3.182418 1_555
Cs0 O2 3.262956 1_565
Cs0 O9 3.269635 1_555
Cs0 O8 3.474966 1_555
Cs0 O0 3.624021 1_545
Cs1 O10 3.001747 1_455
Cs1 O0 3.029057 1_554
Cs1 O13 3.182418 1_555
Cs1 O1 3.262956 1_565
Cs1 O8 3.269635 1_554
Cs1 O9 3.474966 1_555
Cs1 O6 3.624021 1_545
Cs2 O9 3.001747 1_555
Cs2 O4 3.029057 1_555
Cs2 O3 3.182418 1_555
Cs2 O2 3.262956 1_555
Cs2 O7 3.269635 1_555
Cs2 O10 3.474966 1_555
Cs2 O5 3.624021 1_565
Cs3 O12 2.975325 1_655
Cs3 O6 2.978503 1_655
Cs3 O4 3.007115 1_565
Cs3 O3 3.093230 1_555
Cs3 O7 3.178764 1_555
Cs4 O11 2.975325 1_555
Cs4 O5 2.978503 1_556
Cs4 O0 3.007115 1_545
Cs4 O13 3.093230 1_556
Cs4 O8 3.178764 1_555
Cs5 O3 2.975325 1_455
Cs5 O4 2.978503 1_455
Cs5 O6 3.007115 1_545
Cs5 O12 3.093230 1_555
Cs5 O9 3.178764 1_555
Cs6 O13 2.975325 1_555
Cs6 O0 2.978503 1_554
Cs6 O5 3.007115 1_565
Cs6 O11 3.093230 1_554
Cs6 O10 3.178764 1_555
Cs7 O11 2.954602 1_555
Cs7 O0 3.056586 1_555
Cs7 O8 3.080831 1_555
Cs7 O12 3.101082 1_565
Cs7 O6 3.106771 1_555
Cs7 O2 3.195048 1_565
Cs8 O12 2.954602 1_655
Cs8 O4 3.056586 1_555
Cs8 O7 3.080831 1_555
Cs8 O11 3.101082 1_545
Cs8 O5 3.106771 1_556
Cs8 O1 3.195048 1_656
Cs9 O13 2.954602 1_555
Cs9 O5 3.056586 1_555
Cs9 O10 3.080831 1_555
Cs9 O3 3.101082 1_545
Cs9 O4 3.106771 1_555
Cs9 O2 3.195048 1_555
Cs10 O3 2.954602 1_455
Cs10 O6 3.056586 1_555
Cs10 O9 3.080831 1_555
Cs10 O13 3.101082 1_565
Cs10 O0 3.106771 1_554
Cs10 O1 3.195048 1_565
Cs11 O8 3.001747 1_655
Cs11 O5 3.029057 1_556
Cs11 O11 3.182418 1_555
Cs11 O1 3.262956 1_656
Cs11 O10 3.269635 1_556
Cs11 O7 3.474966 1_555
Cs11 O4 3.624021 1_565
O0 Si3 1.638315 1_565
O1 Si1 1.698093 1_445
O1 Si3 1.698093 1_554
O2 Si2 1.698093 1_555
O2 Si0 1.698093 1_545
O3 Si1 1.634812 1_555
O4 Si0 1.638315 1_545
O5 Si1 1.638315 1_545
O6 Si2 1.638315 1_565
O7 Si0 1.638530 1_555
O8 Si3 1.638530 1_555
O9 Si2 1.638530 1_555
O10 Si1 1.638530 1_555
O11 Si0 1.634812 1_555
O12 Si3 1.634812 1_555
O13 Si2 1.634812 1_555
