# generated using pymatgen
data_NbCr3(AgS4)2
_symmetry_space_group_name_H-M   'P 1'
_cell_length_a   7.28656900
_cell_length_b   7.35063500
_cell_length_c   10.19011600
_cell_angle_alpha   90.00000000
_cell_angle_beta   90.00000000
_cell_angle_gamma   90.00000000
_symmetry_Int_Tables_number   1
_chemical_formula_structural   NbCr3(AgS4)2
_chemical_formula_sum   'Nb2 Cr6 Ag4 S16'
_cell_volume   545.79187701
_cell_formula_units_Z   2
loop_
 _symmetry_equiv_pos_site_id
 _symmetry_equiv_pos_as_xyz
  1  'x, y, z'
loop_
 _atom_site_type_symbol
 _atom_site_label
 _atom_site_symmetry_multiplicity
 _atom_site_fract_x
 _atom_site_fract_y
 _atom_site_fract_z
 _atom_site_occupancy
  Nb  Nb0  1  0.00000000  0.45956200  0.50000000  1
  Nb  Nb1  1  0.50000000  0.54043800  0.50000000  1
  Cr  Cr0  1  0.25624000  0.75345600  0.24796200  1
  Cr  Cr1  1  0.74376000  0.75345600  0.75203800  1
  Cr  Cr2  1  0.24376000  0.24654400  0.24796200  1
  Cr  Cr3  1  0.75624000  0.24654400  0.75203800  1
  Cr  Cr4  1  0.00000000  0.99601900  0.00000000  1
  Cr  Cr5  1  0.50000000  0.00398100  0.00000000  1
  Ag  Ag0  1  0.75000000  0.00000000  0.35966900  1
  Ag  Ag1  1  0.75000000  0.50000000  0.11537100  1
  Ag  Ag2  1  0.25000000  0.00000000  0.64033100  1
  Ag  Ag3  1  0.25000000  0.50000000  0.88462900  1
  S  S0  1  0.74655600  0.78376600  0.98521700  1
  S  S1  1  0.23793100  0.73298600  0.49071700  1
  S  S2  1  0.73793100  0.26701400  0.50928300  1
  S  S3  1  0.24655600  0.21623400  0.01478300  1
  S  S4  1  0.03609900  0.99539500  0.23488800  1
  S  S5  1  0.97061400  0.50494000  0.73997800  1
  S  S6  1  0.53609900  0.00460500  0.76511200  1
  S  S7  1  0.47061400  0.49506000  0.26002200  1
  S  S8  1  0.26206900  0.26701400  0.49071700  1
  S  S9  1  0.75344400  0.21623400  0.98521700  1
  S  S10  1  0.25344400  0.78376600  0.01478300  1
  S  S11  1  0.76206900  0.73298600  0.50928300  1
  S  S12  1  0.52938600  0.49506000  0.73997800  1
  S  S13  1  0.46390100  0.00460500  0.23488800  1
  S  S14  1  0.02938600  0.50494000  0.26002200  1
  S  S15  1  0.96390100  0.99539500  0.76511200  1
loop_
_geom_bond_atom_site_label_1
_geom_bond_atom_site_label_2
_geom_bond_distance
_geom_bond_site_symmetry_2
Nb0 S8 2.378797 1_555
Nb0 S2 2.378797 1_455
Nb0 S5 2.477319 1_455
Nb0 S14 2.477319 1_555
Nb0 S11 2.655960 1_455
Nb0 S1 2.655960 1_555
Nb1 S1 2.378797 1_555
Nb1 S11 2.378797 1_555
Nb1 S12 2.477319 1_555
Nb1 S7 2.477319 1_555
Nb1 S8 2.655960 1_555
Nb1 S2 2.655960 1_555
Cr0 S10 2.386631 1_555
Cr0 S13 2.390697 1_565
Cr0 S4 2.398650 1_555
Cr0 S7 2.462261 1_555
Cr0 S14 2.466675 1_555
Cr0 S1 2.481862 1_555
Cr1 S0 2.386631 1_555
Cr1 S6 2.390697 1_565
Cr1 S15 2.398650 1_555
Cr1 S12 2.462261 1_555
Cr1 S5 2.466675 1_555
Cr1 S11 2.481862 1_555
Cr2 S3 2.386631 1_555
Cr2 S4 2.390697 1_545
Cr2 S13 2.398650 1_555
Cr2 S14 2.462261 1_555
Cr2 S7 2.466675 1_555
Cr2 S8 2.481862 1_555
Cr3 S9 2.386631 1_555
Cr3 S15 2.390697 1_545
Cr3 S6 2.398650 1_555
Cr3 S5 2.462261 1_555
Cr3 S12 2.466675 1_555
Cr3 S2 2.481862 1_555
Cr4 S15 2.407950 1_454
Cr4 S4 2.407950 1_555
Cr4 S10 2.422259 1_555
Cr4 S0 2.422259 1_454
Cr4 S9 2.422918 1_464
Cr4 S3 2.422918 1_565
Cr5 S13 2.407950 1_555
Cr5 S6 2.407950 1_554
Cr5 S9 2.422259 1_554
Cr5 S3 2.422259 1_555
Cr5 S0 2.422918 1_544
Cr5 S10 2.422918 1_545
Ag0 S13 2.442096 1_555
Ag0 S4 2.442096 1_645
Ag0 S2 2.486839 1_555
Ag0 S11 2.486839 1_545
Ag1 S9 2.471937 1_554
Ag1 S0 2.471937 1_554
Ag1 S14 2.513636 1_655
Ag1 S7 2.513636 1_555
Ag2 S15 2.442096 1_445
Ag2 S6 2.442096 1_555
Ag2 S8 2.486839 1_555
Ag2 S1 2.486839 1_545
Ag3 S10 2.471937 1_556
Ag3 S3 2.471937 1_556
Ag3 S12 2.513636 1_555
Ag3 S5 2.513636 1_455
