# generated using pymatgen
data_Li4NbV3Cr2(PO4)6
_symmetry_space_group_name_H-M   'P 1'
_cell_length_a   8.61075200
_cell_length_b   8.66178548
_cell_length_c   8.89211735
_cell_angle_alpha   62.08704582
_cell_angle_beta   62.30655694
_cell_angle_gamma   62.75417876
_symmetry_Int_Tables_number   1
_chemical_formula_structural   Li4NbV3Cr2(PO4)6
_chemical_formula_sum   'Li4 Nb1 V3 Cr2 P6 O24'
_cell_volume   493.85288221
_cell_formula_units_Z   1
loop_
 _symmetry_equiv_pos_site_id
 _symmetry_equiv_pos_as_xyz
  1  'x, y, z'
loop_
 _atom_site_type_symbol
 _atom_site_label
 _atom_site_symmetry_multiplicity
 _atom_site_fract_x
 _atom_site_fract_y
 _atom_site_fract_z
 _atom_site_occupancy
  Li  Li0  1  0.74673200  0.14751800  0.35112100  1
  Li  Li1  1  0.29545000  0.84920000  0.65278200  1
  Li  Li2  1  0.64440700  0.29451800  0.84519400  1
  Li  Li3  1  0.85688800  0.64663100  0.30045300  1
  Nb  Nb0  1  0.84941500  0.84510700  0.85041900  1
  V  V0  1  0.35497600  0.35339200  0.35285200  1
  V  V1  1  0.14382400  0.14983400  0.14623800  1
  V  V2  1  0.64908600  0.64942200  0.65056800  1
  Cr  Cr0  1  0.01448600  0.99939800  0.99567600  1
  Cr  Cr1  1  0.49147600  0.50406100  0.50095600  1
  P  P0  1  0.05948100  0.74311900  0.44669100  1
  P  P1  1  0.44123100  0.05640700  0.74802500  1
  P  P2  1  0.75101600  0.43238300  0.04679100  1
  P  P3  1  0.24667300  0.55555400  0.95694400  1
  P  P4  1  0.55759300  0.95070300  0.25176700  1
  P  P5  1  0.93266900  0.24708400  0.54035200  1
  O  O0  1  0.46982600  0.90602500  0.68461500  1
  O  O1  1  0.68740500  0.46240100  0.89846000  1
  O  O2  1  0.91035500  0.67160500  0.47678000  1
  O  O3  1  0.06568000  0.90570100  0.27087200  1
  O  O4  1  0.00583400  0.80543000  0.61060200  1
  O  O5  1  0.24994000  0.59267600  0.44091100  1
  O  O6  1  0.25361400  0.08171400  0.89745000  1
  O  O7  1  0.45975100  0.23704700  0.58730700  1
  O  O8  1  0.17070500  0.41267000  0.99073900  1
  O  O9  1  0.60617900  0.42181800  0.23522500  1
  O  O10  1  0.09892100  0.76268500  0.91291200  1
  O  O11  1  0.40209900  0.00938200  0.18452900  1
  O  O12  1  0.60176700  0.99753000  0.82175500  1
  O  O13  1  0.90191300  0.23959100  0.07227100  1
  O  O14  1  0.40443000  0.57367100  0.77008700  1
  O  O15  1  0.81950100  0.59480900  0.99614700  1
  O  O16  1  0.56144800  0.75953600  0.41093100  1
  O  O17  1  0.75718900  0.90307900  0.10301100  1
  O  O18  1  0.74421800  0.41145800  0.56608500  1
  O  O19  1  0.93993900  0.18479700  0.40217800  1
  O  O20  1  0.90013700  0.10093800  0.73880900  1
  O  O21  1  0.10167900  0.29182100  0.49693200  1
  O  O22  1  0.29500100  0.53217700  0.11097500  1
  O  O23  1  0.55706500  0.09410400  0.30658800  1
loop_
_geom_bond_atom_site_label_1
_geom_bond_atom_site_label_2
_geom_bond_distance
_geom_bond_site_symmetry_2
Li0 O9 2.099000 1_555
Li0 O19 2.099836 1_555
Li0 O23 2.121939 1_555
Li0 O13 2.148129 1_555
Li0 O7 2.462725 1_555
Li0 O3 2.598029 1_645
Li1 O0 1.943991 1_555
Li1 O14 2.047646 1_555
Li1 O10 2.162328 1_555
Li1 O16 2.414719 1_555
Li2 O1 1.943412 1_555
Li2 O18 2.094065 1_555
Li2 O20 2.173362 1_555
Li2 O14 2.399687 1_555
Li3 O2 1.948543 1_555
Li3 O16 2.166067 1_555
Li3 O17 2.181091 1_555
Li3 O18 2.417556 1_555
Nb0 O12 1.991898 1_555
Nb0 O15 2.004151 1_555
Nb0 O4 2.018008 1_655
Nb0 O20 2.123767 1_565
Nb0 O10 2.183601 1_655
Nb0 O17 2.227239 1_556
Cr0 O13 2.144408 1_466
Cr0 O6 2.144895 1_565
Cr0 O10 2.196519 1_555
Cr0 O17 2.344562 1_456
Cr0 O3 2.378408 1_556
Cr0 O20 2.525221 1_465
Cr1 O5 2.094422 1_555
Cr1 O7 2.175817 1_555
Cr1 O18 2.203019 1_555
Cr1 O16 2.239327 1_555
Cr1 O9 2.414304 1_555
Cr1 O14 2.433600 1_555
O0 P1 1.529769 1_565
O0 V2 2.113939 1_555
O1 P2 1.525563 1_556
O1 V2 2.106030 1_555
O2 P0 1.535565 1_655
O2 V2 2.091081 1_555
O3 P0 1.536288 1_555
O3 V1 2.137326 1_565
O4 P0 1.584762 1_555
O5 P0 1.554964 1_555
O5 V0 2.207208 1_555
O6 P1 1.541650 1_555
O6 V1 2.214361 1_556
O7 P1 1.561750 1_555
O7 V0 2.263769 1_555
O8 P3 1.503423 1_555
O8 V1 2.094338 1_556
O9 P2 1.545938 1_555
O9 V0 2.148162 1_555
O10 P3 1.645041 1_555
O11 P4 1.498321 1_545
O11 V1 2.092992 1_555
O12 P1 1.576267 1_565
O13 P2 1.568740 1_555
O13 V1 2.165167 1_655
O14 P3 1.576013 1_555
O14 V2 2.128331 1_555
O15 P2 1.565102 1_556
O16 P4 1.595372 1_555
O16 V2 2.225439 1_555
O17 P4 1.619363 1_555
O18 P5 1.599108 1_555
O18 V2 2.194464 1_555
O19 P5 1.524079 1_555
O19 V1 2.190455 1_655
O20 P5 1.602747 1_555
O21 P5 1.507031 1_455
O21 V0 2.123906 1_555
O22 P3 1.510997 1_554
O22 V0 2.114834 1_555
O23 P4 1.529757 1_545
O23 V0 2.205137 1_555
