# generated using pymatgen
data_La3Ta(Cl3O2)2
_symmetry_space_group_name_H-M   'P 1'
_cell_length_a   13.00567257
_cell_length_b   13.00567257
_cell_length_c   4.01542600
_cell_angle_alpha   90.00000000
_cell_angle_beta   90.00000000
_cell_angle_gamma   120.00000288
_symmetry_Int_Tables_number   1
_chemical_formula_structural   La3Ta(Cl3O2)2
_chemical_formula_sum   'La6 Ta2 Cl12 O8'
_cell_volume   588.20387017
_cell_formula_units_Z   2
loop_
 _symmetry_equiv_pos_site_id
 _symmetry_equiv_pos_as_xyz
  1  'x, y, z'
loop_
 _atom_site_type_symbol
 _atom_site_label
 _atom_site_symmetry_multiplicity
 _atom_site_fract_x
 _atom_site_fract_y
 _atom_site_fract_z
 _atom_site_occupancy
  La  La0  1  0.28129200  0.39733100  0.25000000  1
  La  La1  1  0.71870800  0.60266900  0.75000000  1
  La  La2  1  0.60266900  0.88396100  0.25000000  1
  La  La3  1  0.39733100  0.11603900  0.75000000  1
  La  La4  1  0.11603900  0.71870800  0.25000000  1
  La  La5  1  0.88396100  0.28129200  0.75000000  1
  Ta  Ta0  1  0.66666700  0.33333300  0.25000000  1
  Ta  Ta1  1  0.33333300  0.66666700  0.75000000  1
  Cl  Cl0  1  0.07034200  0.44337700  0.25000000  1
  Cl  Cl1  1  0.92965800  0.55662300  0.75000000  1
  Cl  Cl2  1  0.55662300  0.62696500  0.25000000  1
  Cl  Cl3  1  0.44337700  0.37303500  0.75000000  1
  Cl  Cl4  1  0.37303500  0.92965800  0.25000000  1
  Cl  Cl5  1  0.62696500  0.07034200  0.75000000  1
  Cl  Cl6  1  0.24855800  0.14287400  0.25000000  1
  Cl  Cl7  1  0.75144200  0.85712600  0.75000000  1
  Cl  Cl8  1  0.85712600  0.10568400  0.25000000  1
  Cl  Cl9  1  0.14287400  0.89431600  0.75000000  1
  Cl  Cl10  1  0.89431600  0.75144200  0.25000000  1
  Cl  Cl11  1  0.10568400  0.24855800  0.75000000  1
  O  O0  1  0.50902500  0.20122500  0.25000000  1
  O  O1  1  0.49097500  0.79877500  0.75000000  1
  O  O2  1  0.79877500  0.30780000  0.25000000  1
  O  O3  1  0.20122500  0.69220000  0.75000000  1
  O  O4  1  0.69220000  0.49097500  0.25000000  1
  O  O5  1  0.30780000  0.50902500  0.75000000  1
  O  O6  1  0.33333300  0.66666700  0.25000000  1
  O  O7  1  0.66666700  0.33333300  0.75000000  1
loop_
_geom_bond_atom_site_label_1
_geom_bond_atom_site_label_2
_geom_bond_distance
_geom_bond_site_symmetry_2
La0 O5 2.399826 1_554
La0 O5 2.399826 1_555
La1 O4 2.399826 1_556
La1 O4 2.399826 1_555
La2 O1 2.399826 1_555
La2 O1 2.399826 1_554
La3 O0 2.399826 1_555
La3 O0 2.399826 1_556
La4 O3 2.399826 1_555
La4 O3 2.399826 1_554
La5 O2 2.399826 1_556
La5 O2 2.399826 1_555
Cl0 La5 3.039841 1_455
Cl0 La5 3.039841 1_454
Cl0 La0 3.086856 1_555
Cl0 La4 3.323797 1_555
Cl1 La4 3.039841 1_655
Cl1 La4 3.039841 1_656
Cl1 La1 3.086856 1_555
Cl1 La5 3.323797 1_555
Cl2 La1 3.039841 1_555
Cl2 La1 3.039841 1_554
Cl2 La2 3.086856 1_555
Cl2 La0 3.323797 1_555
Cl3 La0 3.039841 1_555
Cl3 La0 3.039841 1_556
Cl3 La3 3.086856 1_555
Cl3 La1 3.323797 1_555
Cl4 La3 3.039841 1_565
Cl4 La3 3.039841 1_564
Cl4 La4 3.086856 1_555
Cl4 La2 3.323797 1_555
Cl5 La2 3.039841 1_546
Cl5 La2 3.039841 1_545
Cl5 La5 3.086856 1_555
Cl5 La3 3.323797 1_555
Cl6 La3 2.927767 1_554
Cl6 La3 2.927767 1_555
Cl6 La0 3.118393 1_555
Cl7 La2 2.927767 1_556
Cl7 La2 2.927767 1_555
Cl7 La1 3.118393 1_555
Cl8 La5 2.927767 1_555
Cl8 La5 2.927767 1_554
Cl8 La2 3.118393 1_545
Cl9 La4 2.927767 1_555
Cl9 La4 2.927767 1_556
Cl9 La3 3.118393 1_565
Cl10 La1 2.927767 1_554
Cl10 La1 2.927767 1_555
Cl10 La4 3.118393 1_655
Cl11 La0 2.927767 1_555
Cl11 La0 2.927767 1_556
Cl11 La5 3.118393 1_455
O0 Ta0 1.906019 1_555
O1 Ta1 1.906019 1_555
O2 Ta0 1.906011 1_555
O3 Ta1 1.906011 1_555
O4 Ta0 1.906024 1_555
O5 Ta1 1.906024 1_555
O6 Ta1 2.007713 1_555
O6 Ta1 2.007713 1_554
O7 Ta0 2.007713 1_555
O7 Ta0 2.007713 1_556
