# generated using pymatgen
data_K3Sn2P5S18
_symmetry_space_group_name_H-M   'P 1'
_cell_length_a   12.26733034
_cell_length_b   12.26733034
_cell_length_c   21.30873539
_cell_angle_alpha   74.21978400
_cell_angle_beta   74.21978400
_cell_angle_gamma   29.12233881
_symmetry_Int_Tables_number   1
_chemical_formula_structural   K3Sn2P5S18
_chemical_formula_sum   'K6 Sn4 P10 S36'
_cell_volume   1497.75349418
_cell_formula_units_Z   2
loop_
 _symmetry_equiv_pos_site_id
 _symmetry_equiv_pos_as_xyz
  1  'x, y, z'
loop_
 _atom_site_type_symbol
 _atom_site_label
 _atom_site_symmetry_multiplicity
 _atom_site_fract_x
 _atom_site_fract_y
 _atom_site_fract_z
 _atom_site_occupancy
  K  K0  1  0.73512400  0.95465000  0.67422800  1
  K  K1  1  0.26487600  0.04535000  0.32577200  1
  K  K2  1  0.04535000  0.26487600  0.82577200  1
  K  K3  1  0.95465000  0.73512400  0.17422800  1
  K  K4  1  0.00000000  0.00000000  0.50000000  1
  K  K5  1  0.00000000  0.00000000  0.00000000  1
  Sn  Sn0  1  0.62521100  0.13591700  0.87382000  1
  Sn  Sn1  1  0.37478900  0.86408300  0.12618000  1
  Sn  Sn2  1  0.86408300  0.37478900  0.62618000  1
  Sn  Sn3  1  0.13591700  0.62521100  0.37382000  1
  P  P0  1  0.74898200  0.25101800  0.75000000  1
  P  P1  1  0.25101800  0.74898200  0.25000000  1
  P  P2  1  0.31432700  0.44220500  0.51913700  1
  P  P3  1  0.68567300  0.55779500  0.48086300  1
  P  P4  1  0.55779500  0.68567300  0.98086300  1
  P  P5  1  0.44220500  0.31432700  0.01913700  1
  P  P6  1  0.65620700  0.85116300  0.85977800  1
  P  P7  1  0.34379300  0.14883700  0.14022200  1
  P  P8  1  0.14883700  0.34379300  0.64022200  1
  P  P9  1  0.85116300  0.65620700  0.35977800  1
  S  S0  1  0.37690600  0.20856200  0.55443000  1
  S  S1  1  0.62309400  0.79143800  0.44557000  1
  S  S2  1  0.79143800  0.62309400  0.94557000  1
  S  S3  1  0.20856200  0.37690600  0.05443000  1
  S  S4  1  0.75039700  0.98278500  0.99370100  1
  S  S5  1  0.24960300  0.01721500  0.00629900  1
  S  S6  1  0.01721500  0.24960300  0.50629900  1
  S  S7  1  0.98278500  0.75039700  0.49370100  1
  S  S8  1  0.91983200  0.04430500  0.83371400  1
  S  S9  1  0.08016800  0.95569500  0.16628600  1
  S  S10  1  0.95569500  0.08016800  0.66628600  1
  S  S11  1  0.04430500  0.91983200  0.33371400  1
  S  S12  1  0.60290400  0.81847700  0.79341000  1
  S  S13  1  0.39709600  0.18152300  0.20659000  1
  S  S14  1  0.18152300  0.39709600  0.70659000  1
  S  S15  1  0.81847700  0.60290400  0.29341000  1
  S  S16  1  0.24077200  0.09367400  0.66524300  1
  S  S17  1  0.75922800  0.90632600  0.33475700  1
  S  S18  1  0.90632600  0.75922800  0.83475700  1
  S  S19  1  0.09367400  0.24077200  0.16524300  1
  S  S20  1  0.37795700  0.17578100  0.88739400  1
  S  S21  1  0.62204300  0.82421900  0.11260600  1
  S  S22  1  0.82421900  0.62204300  0.61260600  1
  S  S23  1  0.17578100  0.37795700  0.38739400  1
  S  S24  1  0.49946600  0.68186400  0.57026400  1
  S  S25  1  0.50053400  0.31813600  0.42973600  1
  S  S26  1  0.31813600  0.50053400  0.92973600  1
  S  S27  1  0.68186400  0.49946600  0.07026400  1
  S  S28  1  0.40013700  0.45522800  0.57862100  1
  S  S29  1  0.59986300  0.54477200  0.42137900  1
  S  S30  1  0.54477200  0.59986300  0.92137900  1
  S  S31  1  0.45522800  0.40013700  0.07862100  1
  S  S32  1  0.49111200  0.35900700  0.76038500  1
  S  S33  1  0.50888800  0.64099300  0.23961500  1
  S  S34  1  0.64099300  0.50888800  0.73961500  1
  S  S35  1  0.35900700  0.49111200  0.26038500  1
loop_
_geom_bond_atom_site_label_1
_geom_bond_atom_site_label_2
_geom_bond_distance
_geom_bond_site_symmetry_2
K0 S14 3.338110 1_565
K0 S14 3.360563 1_655
K0 S12 3.472332 1_555
K0 S28 3.522249 1_565
K0 S18 3.536871 1_555
K0 S32 3.599711 1_565
K0 S0 3.659381 1_565
K0 S22 3.729445 1_555
K1 S15 3.338110 1_545
K1 S15 3.360563 1_455
K1 S13 3.472332 1_555
K1 S29 3.522249 1_545
K1 S19 3.536871 1_555
K1 S33 3.599711 1_545
K1 S1 3.659381 1_545
K1 S23 3.729445 1_555
K2 S12 3.338110 1_455
K2 S12 3.360563 1_545
K2 S14 3.472332 1_555
K2 S30 3.522249 1_455
K2 S16 3.536871 1_555
K2 S34 3.599711 1_455
K2 S2 3.659381 1_455
K2 S20 3.729445 1_555
K3 S13 3.338110 1_655
K3 S13 3.360563 1_565
K3 S15 3.472332 1_555
K3 S31 3.522249 1_655
K3 S17 3.536871 1_555
K3 S35 3.599711 1_655
K3 S3 3.659381 1_655
K3 S21 3.729445 1_555
K4 S6 3.287393 1_555
K4 S7 3.287393 1_445
K4 S29 3.554149 1_455
K4 S28 3.554149 1_545
K4 S10 3.705650 1_455
K4 S11 3.705650 1_545
K5 S5 3.287393 1_555
K5 S4 3.287393 1_444
K5 S30 3.554149 1_544
K5 S31 3.554149 1_455
K5 S9 3.705650 1_545
K5 S8 3.705650 1_454
P0 S32 2.065868 1_555
P0 S34 2.065868 1_555
P0 S8 2.071846 1_555
P0 S10 2.071846 1_555
P1 S35 2.065868 1_555
P1 S33 2.065868 1_555
P1 S9 2.071846 1_555
P1 S11 2.071846 1_555
P2 S28 1.967209 1_555
P2 S25 2.073491 1_555
P2 S7 2.085187 1_455
P2 S0 2.160376 1_555
P3 S29 1.967209 1_555
P3 S24 2.073491 1_555
P3 S6 2.085187 1_655
P3 S1 2.160376 1_555
P4 S30 1.967209 1_555
P4 S27 2.073491 1_556
P4 S5 2.085187 1_566
P4 S2 2.160376 1_555
P5 S31 1.967209 1_555
P5 S26 2.073491 1_554
P5 S4 2.085187 1_544
P5 S3 2.160376 1_555
P6 S12 1.964134 1_555
P6 S20 2.070897 1_565
P6 S18 2.088536 1_555
P6 S2 2.163366 1_555
P7 S13 1.964134 1_555
P7 S21 2.070897 1_545
P7 S19 2.088536 1_555
P7 S3 2.163366 1_555
P8 S14 1.964134 1_555
P8 S22 2.070897 1_455
P8 S16 2.088536 1_555
P8 S0 2.163366 1_555
P9 S15 1.964134 1_555
P9 S23 2.070897 1_655
P9 S17 2.088536 1_555
P9 S1 2.163366 1_555
S4 Sn0 2.626049 1_565
S5 Sn1 2.626049 1_545
S6 Sn2 2.626049 1_455
S7 Sn3 2.626049 1_655
S8 Sn0 2.608012 1_555
S9 Sn1 2.608012 1_555
S10 Sn2 2.608012 1_555
S11 Sn3 2.608012 1_555
S16 Sn2 2.574361 1_455
S17 Sn3 2.574361 1_655
S18 Sn0 2.574361 1_565
S19 Sn1 2.574361 1_545
S20 Sn0 2.555583 1_555
S21 Sn1 2.555583 1_555
S22 Sn2 2.555583 1_555
S23 Sn3 2.555583 1_555
S24 Sn2 2.575944 1_555
S25 Sn3 2.575944 1_555
S26 Sn0 2.575944 1_555
S27 Sn1 2.575944 1_555
S32 Sn0 2.595663 1_555
S33 Sn1 2.595663 1_555
S34 Sn2 2.595663 1_555
S35 Sn3 2.595663 1_555
