# generated using pymatgen
data_Th2Fe17C
_symmetry_space_group_name_H-M   'P 1'
_cell_length_a   6.48559672
_cell_length_b   6.48559672
_cell_length_c   6.49946844
_cell_angle_alpha   83.92713978
_cell_angle_beta   83.92713978
_cell_angle_gamma   83.19778693
_symmetry_Int_Tables_number   1
_chemical_formula_structural   Th2Fe17C
_chemical_formula_sum   'Th2 Fe17 C1'
_cell_volume   268.73228776
_cell_formula_units_Z   1
loop_
 _symmetry_equiv_pos_site_id
 _symmetry_equiv_pos_as_xyz
  1  'x, y, z'
loop_
 _atom_site_type_symbol
 _atom_site_label
 _atom_site_symmetry_multiplicity
 _atom_site_fract_x
 _atom_site_fract_y
 _atom_site_fract_z
 _atom_site_occupancy
  Th  Th0  1  0.33477400  0.33477400  0.35521700  1
  Th  Th1  1  0.66522600  0.66522600  0.64478300  1
  Fe  Fe0  1  0.15040600  0.65778800  0.65744300  1
  Fe  Fe1  1  0.65711000  0.65711000  0.14929000  1
  Fe  Fe2  1  0.65778800  0.15040600  0.65744300  1
  Fe  Fe3  1  0.84959400  0.34221200  0.34255700  1
  Fe  Fe4  1  0.34289000  0.34289000  0.85071000  1
  Fe  Fe5  1  0.34221200  0.84959400  0.34255700  1
  Fe  Fe6  1  0.00000000  0.00000000  0.50000000  1
  Fe  Fe7  1  0.00000000  0.50000000  0.00000000  1
  Fe  Fe8  1  0.50000000  0.00000000  0.00000000  1
  Fe  Fe9  1  0.09557900  0.09557900  0.09585400  1
  Fe  Fe10  1  0.90442100  0.90442100  0.90414600  1
  Fe  Fe11  1  0.71596400  0.28403600  0.00000000  1
  Fe  Fe12  1  0.28302800  0.99810600  0.71835000  1
  Fe  Fe13  1  0.00189400  0.71697200  0.28165000  1
  Fe  Fe14  1  0.71697200  0.00189400  0.28165000  1
  Fe  Fe15  1  0.99810600  0.28302800  0.71835000  1
  Fe  Fe16  1  0.28403600  0.71596400  0.00000000  1
  C  C0  1  0.50000000  0.50000000  0.00000000  1
loop_
_geom_bond_atom_site_label_1
_geom_bond_atom_site_label_2
_geom_bond_distance
_geom_bond_site_symmetry_2
Fe0 Fe6 2.478394 1_565
Fe0 Fe7 2.500135 1_556
Fe0 Fe12 2.544552 1_555
Fe0 Fe4 2.548007 1_555
Fe0 Fe16 2.552251 1_556
Fe0 Fe5 2.563729 1_555
Fe0 Fe10 2.659269 1_455
Fe0 Fe13 2.693042 1_555
Fe0 Fe15 2.705975 1_455
Fe0 Th0 3.075287 1_555
Fe0 Th1 3.150982 1_455
Fe0 Th1 3.337160 1_555
Fe1 Fe7 2.478125 1_655
Fe1 Fe8 2.478125 1_565
Fe1 Fe3 2.548007 1_555
Fe1 Fe5 2.548007 1_555
Fe1 Fe13 2.564062 1_655
Fe1 Fe14 2.564062 1_565
Fe1 Fe10 2.685510 1_554
Fe2 Fe6 2.478394 1_655
Fe2 Fe8 2.500135 1_556
Fe2 Fe4 2.548007 1_555
Fe2 Fe3 2.563729 1_555
Fe2 Th0 3.075287 1_555
Fe2 Th1 3.150982 1_545
Fe2 Th1 3.337160 1_555
Fe3 Fe6 2.478394 1_655
Fe3 Fe7 2.500135 1_655
Fe3 Fe9 2.659269 1_655
Fe3 Th1 3.075287 1_555
Fe3 Th0 3.150982 1_655
Fe3 Th0 3.337160 1_555
Fe4 Fe7 2.478125 1_556
Fe4 Fe8 2.478125 1_556
Fe4 Fe9 2.685510 1_556
Fe5 Fe6 2.478394 1_565
Fe5 Fe8 2.500135 1_565
Fe5 Fe9 2.659269 1_565
Fe5 Th1 3.075287 1_555
Fe5 Th0 3.150982 1_565
Fe5 Th0 3.337160 1_555
Fe6 Fe9 2.658991 1_555
Fe6 Th0 3.250525 1_555
Fe6 Th1 3.250525 1_445
Fe7 Fe9 2.646293 1_555
Fe7 Th0 3.343450 1_555
Fe7 Th1 3.343450 1_454
Fe8 Fe9 2.646293 1_555
Fe8 Th0 3.343450 1_555
Fe8 Th1 3.343450 1_544
Fe9 Th0 3.054764 1_555
Fe10 Fe9 2.375793 1_666
Fe10 Fe8 2.646293 1_566
Fe10 Fe7 2.646293 1_656
Fe10 Fe6 2.658991 1_665
Fe10 Fe2 2.659269 1_565
Fe10 Fe11 2.719230 1_566
Fe10 Fe16 2.719230 1_656
Fe10 Fe14 2.722617 1_566
Fe10 Fe13 2.722617 1_656
Fe10 Fe15 2.725371 1_565
Fe10 Fe12 2.725371 1_655
Fe10 Th1 3.054764 1_555
Fe11 Fe8 2.442650 1_555
Fe11 Fe7 2.442650 1_655
Fe11 Fe15 2.447526 1_554
Fe11 Fe14 2.447526 1_555
Fe11 Fe3 2.552251 1_555
Fe11 Fe2 2.552251 1_554
Fe11 Fe9 2.719230 1_655
Fe12 Fe8 2.425952 1_566
Fe12 Fe6 2.434290 1_565
Fe12 Fe16 2.447526 1_556
Fe12 Fe15 2.453671 1_465
Fe12 Fe4 2.564062 1_565
Fe12 Fe5 2.693042 1_555
Fe12 Fe2 2.705975 1_565
Fe12 Fe9 2.722617 1_566
Fe12 Th0 3.060438 1_565
Fe12 Th1 3.119919 1_555
Fe13 Fe7 2.425952 1_555
Fe13 Fe6 2.434290 1_565
Fe13 Fe16 2.447526 1_555
Fe13 Fe14 2.453671 1_465
Fe13 Fe5 2.544552 1_555
Fe13 Fe3 2.705975 1_455
Fe13 Fe9 2.725371 1_565
Fe13 Th1 3.060438 1_455
Fe13 Th0 3.119919 1_555
Fe14 Fe8 2.425952 1_555
Fe14 Fe6 2.434290 1_655
Fe14 Fe3 2.544552 1_555
Fe14 Fe2 2.693042 1_555
Fe14 Fe5 2.705975 1_545
Fe14 Fe9 2.725371 1_655
Fe14 Th1 3.060438 1_545
Fe14 Th0 3.119919 1_555
Fe15 Fe7 2.425952 1_656
Fe15 Fe6 2.434290 1_655
Fe15 Fe2 2.544552 1_555
Fe15 Fe4 2.564062 1_655
Fe15 Fe3 2.693042 1_555
Fe15 Fe9 2.722617 1_656
Fe15 Th0 3.060438 1_655
Fe15 Th1 3.119919 1_555
Fe16 Fe7 2.442650 1_555
Fe16 Fe8 2.442650 1_565
Fe16 Fe5 2.552251 1_555
Fe16 Fe9 2.719230 1_565
C0 Fe11 1.859823 1_555
C0 Fe16 1.859823 1_555
C0 Fe4 1.918947 1_554
C0 Fe1 1.918947 1_555
C0 Th1 2.617611 1_554
C0 Th0 2.617611 1_555
