# generated using pymatgen
data_Sm4Rh6Pb19
_symmetry_space_group_name_H-M   'P 1'
_cell_length_a   10.26915430
_cell_length_b   10.26915430
_cell_length_c   10.26915430
_cell_angle_alpha   109.47122063
_cell_angle_beta   109.47122063
_cell_angle_gamma   109.47122063
_symmetry_Int_Tables_number   1
_chemical_formula_structural   Sm4Rh6Pb19
_chemical_formula_sum   'Sm4 Rh6 Pb19'
_cell_volume   833.64691560
_cell_formula_units_Z   1
loop_
 _symmetry_equiv_pos_site_id
 _symmetry_equiv_pos_as_xyz
  1  'x, y, z'
loop_
 _atom_site_type_symbol
 _atom_site_label
 _atom_site_symmetry_multiplicity
 _atom_site_fract_x
 _atom_site_fract_y
 _atom_site_fract_z
 _atom_site_occupancy
  Sm  Sm0  1  0.65335300  0.65335300  0.65335300  1
  Sm  Sm1  1  0.34664700  0.00000000  0.00000000  1
  Sm  Sm2  1  0.00000000  0.34664700  0.00000000  1
  Sm  Sm3  1  0.00000000  0.00000000  0.34664700  1
  Rh  Rh0  1  0.37924100  0.87924100  0.50000000  1
  Rh  Rh1  1  0.62075900  0.12075900  0.50000000  1
  Rh  Rh2  1  0.87924100  0.50000000  0.37924100  1
  Rh  Rh3  1  0.12075900  0.50000000  0.62075900  1
  Rh  Rh4  1  0.50000000  0.37924100  0.87924100  1
  Rh  Rh5  1  0.50000000  0.62075900  0.12075900  1
  Pb  Pb0  1  0.69619400  0.69619400  0.00000000  1
  Pb  Pb1  1  0.30380600  0.30380600  0.00000000  1
  Pb  Pb2  1  0.69619400  0.00000000  0.69619400  1
  Pb  Pb3  1  0.30380600  0.00000000  0.30380600  1
  Pb  Pb4  1  0.00000000  0.69619400  0.69619400  1
  Pb  Pb5  1  0.00000000  0.30380600  0.30380600  1
  Pb  Pb6  1  0.00000000  0.00000000  0.00000000  1
  Pb  Pb7  1  0.36567000  0.59731600  0.32974800  1
  Pb  Pb8  1  0.63433000  0.96407800  0.23164600  1
  Pb  Pb9  1  0.73243300  0.40268400  0.76835400  1
  Pb  Pb10  1  0.59731600  0.32974800  0.36567000  1
  Pb  Pb11  1  0.26756700  0.03592200  0.67025200  1
  Pb  Pb12  1  0.96407800  0.23164600  0.63433000  1
  Pb  Pb13  1  0.40268400  0.76835400  0.73243300  1
  Pb  Pb14  1  0.03592200  0.67025200  0.26756700  1
  Pb  Pb15  1  0.32974800  0.36567000  0.59731600  1
  Pb  Pb16  1  0.76835400  0.73243300  0.40268400  1
  Pb  Pb17  1  0.67025200  0.26756700  0.03592200  1
  Pb  Pb18  1  0.23164600  0.63433000  0.96407800  1
loop_
_geom_bond_atom_site_label_1
_geom_bond_atom_site_label_2
_geom_bond_distance
_geom_bond_site_symmetry_2
Rh0 Rh1 2.863872 1_565
Rh2 Rh3 2.863872 1_655
Rh4 Rh5 2.863872 1_556
Pb0 Rh5 2.731796 1_555
Pb0 Rh4 2.731796 1_554
Pb0 Sm3 3.292707 1_665
Pb0 Sm0 3.292707 1_554
Pb0 Pb8 3.382300 1_555
Pb0 Pb9 3.382307 1_554
Pb0 Pb6 3.602470 1_665
Pb1 Rh5 2.731796 1_555
Pb1 Rh4 2.731796 1_554
Pb1 Sm1 3.292707 1_555
Pb1 Sm2 3.292707 1_555
Pb1 Pb11 3.382295 1_554
Pb1 Pb7 3.382300 1_555
Pb1 Pb6 3.602470 1_555
Pb2 Rh1 2.731796 1_555
Pb2 Rh0 2.731796 1_545
Pb2 Sm0 3.292707 1_545
Pb2 Sm2 3.292707 1_656
Pb2 Pb6 3.602470 1_656
Pb3 Rh1 2.731796 1_555
Pb3 Rh0 2.731796 1_545
Pb3 Sm1 3.292707 1_555
Pb3 Sm3 3.292707 1_555
Pb3 Pb6 3.602470 1_555
Pb4 Rh3 2.731796 1_555
Pb4 Rh2 2.731796 1_455
Pb4 Sm1 3.292707 1_566
Pb4 Sm0 3.292707 1_455
Pb4 Pb6 3.602470 1_566
Pb5 Rh3 2.731796 1_555
Pb5 Rh2 2.731796 1_455
Pb5 Sm2 3.292707 1_555
Pb5 Sm3 3.292707 1_555
Pb5 Pb6 3.602470 1_555
Pb6 Sm2 3.559772 1_555
Pb6 Sm1 3.559772 1_555
Pb6 Sm3 3.559772 1_555
Pb6 Sm0 3.559772 1_444
Pb7 Rh0 2.766232 1_555
Pb7 Rh5 2.943381 1_555
Pb7 Sm0 3.339001 1_555
Pb7 Sm2 3.385460 1_555
Pb8 Rh1 2.766232 1_565
Pb8 Rh5 2.943381 1_555
Pb8 Sm1 3.339001 1_565
Pb8 Sm3 3.385460 1_665
Pb9 Rh1 2.766229 1_555
Pb9 Rh4 2.943390 1_555
Pb9 Sm2 3.338994 1_656
Pb9 Sm0 3.385464 1_555
Pb10 Rh2 2.766232 1_555
Pb10 Rh1 2.943381 1_555
Pb10 Sm0 3.339001 1_555
Pb10 Pb3 3.382300 1_555
Pb10 Sm1 3.385460 1_555
Pb11 Rh0 2.766240 1_545
Pb11 Rh4 2.943382 1_555
Pb11 Sm3 3.338996 1_555
Pb11 Sm1 3.385460 1_556
Pb12 Rh3 2.766232 1_655
Pb12 Rh1 2.943381 1_555
Pb12 Sm3 3.339001 1_655
Pb12 Pb2 3.382300 1_555
Pb12 Sm2 3.385460 1_656
Pb13 Rh3 2.766229 1_555
Pb13 Rh0 2.943390 1_555
Pb13 Sm1 3.338994 1_566
Pb13 Pb2 3.382307 1_565
Pb13 Sm0 3.385464 1_555
Pb14 Rh2 2.766240 1_455
Pb14 Rh0 2.943382 1_555
Pb14 Sm2 3.338996 1_555
Pb14 Pb3 3.382295 1_565
Pb14 Sm3 3.385460 1_565
Pb15 Rh4 2.766232 1_555
Pb15 Rh3 2.943381 1_555
Pb15 Sm0 3.339001 1_555
Pb15 Pb5 3.382300 1_555
Pb15 Sm3 3.385460 1_555
Pb16 Rh5 2.766229 1_555
Pb16 Rh2 2.943390 1_555
Pb16 Sm3 3.338994 1_665
Pb16 Pb4 3.382307 1_655
Pb16 Sm0 3.385464 1_555
Pb17 Rh4 2.766240 1_554
Pb17 Rh2 2.943382 1_555
Pb17 Sm1 3.338996 1_555
Pb17 Pb5 3.382295 1_655
Pb17 Sm2 3.385460 1_655
Pb18 Rh5 2.766232 1_556
Pb18 Rh3 2.943381 1_555
Pb18 Sm2 3.339001 1_556
Pb18 Pb4 3.382300 1_555
Pb18 Sm1 3.385460 1_566
