# generated using pymatgen
data_Sm2SiTeO4
_symmetry_space_group_name_H-M   'P 1'
_cell_length_a   6.34531441
_cell_length_b   8.61559530
_cell_length_c   9.77713841
_cell_angle_alpha   94.98627371
_cell_angle_beta   90.00000000
_cell_angle_gamma   90.00000000
_symmetry_Int_Tables_number   1
_chemical_formula_structural   Sm2SiTeO4
_chemical_formula_sum   'Sm8 Si4 Te4 O16'
_cell_volume   532.48026495
_cell_formula_units_Z   4
loop_
 _symmetry_equiv_pos_site_id
 _symmetry_equiv_pos_as_xyz
  1  'x, y, z'
loop_
 _atom_site_type_symbol
 _atom_site_label
 _atom_site_symmetry_multiplicity
 _atom_site_fract_x
 _atom_site_fract_y
 _atom_site_fract_z
 _atom_site_occupancy
  Sm  Sm0  1  0.69574170  0.16503591  0.65579513  1
  Sm  Sm1  1  0.80425830  0.66503591  0.65579513  1
  Sm  Sm2  1  0.30425830  0.83496409  0.34420487  1
  Sm  Sm3  1  0.19574170  0.33496409  0.34420487  1
  Sm  Sm4  1  0.84633740  0.69447169  0.10713495  1
  Sm  Sm5  1  0.34633740  0.80552831  0.89286505  1
  Sm  Sm6  1  0.15366260  0.30552831  0.89286505  1
  Sm  Sm7  1  0.65366260  0.19447169  0.10713495  1
  Si  Si0  1  0.19082905  0.05589720  0.12384819  1
  Si  Si1  1  0.80917095  0.94410280  0.87615181  1
  Si  Si2  1  0.69082905  0.44410280  0.87615181  1
  Si  Si3  1  0.30917095  0.55589720  0.12384819  1
  Te  Te0  1  0.28566909  0.61780953  0.59134734  1
  Te  Te1  1  0.78566909  0.88219047  0.40865266  1
  Te  Te2  1  0.71433091  0.38219047  0.40865266  1
  Te  Te3  1  0.21433091  0.11780953  0.59134734  1
  O  O0  1  0.13648215  0.58996470  0.24721524  1
  O  O1  1  0.63648215  0.91003530  0.75278476  1
  O  O2  1  0.86351785  0.41003530  0.75278476  1
  O  O3  1  0.36351785  0.08996470  0.24721524  1
  O  O4  1  0.49150679  0.68348131  0.15693676  1
  O  O5  1  0.99150679  0.81651869  0.84306324  1
  O  O6  1  0.50849321  0.31651869  0.84306324  1
  O  O7  1  0.00849321  0.18348131  0.15693676  1
  O  O8  1  0.13400813  0.87281354  0.12383144  1
  O  O9  1  0.80527665  0.42281547  0.02247200  1
  O  O10  1  0.86599187  0.12718646  0.87616856  1
  O  O11  1  0.36599187  0.37281354  0.12383144  1
  O  O12  1  0.69472335  0.92281547  0.02247200  1
  O  O13  1  0.19472335  0.57718453  0.97752800  1
  O  O14  1  0.30527665  0.07718453  0.97752800  1
  O  O15  1  0.63400813  0.62718646  0.87616856  1
loop_
_geom_bond_atom_site_label_1
_geom_bond_atom_site_label_2
_geom_bond_distance
_geom_bond_site_symmetry_2
Sm0 Te3 3.138350 1_555
Sm0 Te2 3.184154 1_555
Sm0 Te1 3.328533 1_545
Sm0 Te3 3.368405 1_655
Sm1 Te0 3.138350 1_655
Sm1 Te1 3.184154 1_555
Sm1 Te2 3.328533 1_555
Sm1 Te0 3.368405 1_555
Sm2 Te1 3.138350 1_555
Sm2 Te0 3.184154 1_555
Sm2 Te3 3.328533 1_565
Sm2 Te1 3.368405 1_455
Sm3 Te2 3.138350 1_455
Sm3 Te3 3.184154 1_555
Sm3 Te0 3.328533 1_555
Sm3 Te2 3.368405 1_555
Sm4 Te1 3.259703 1_555
Sm5 Te0 3.259703 1_555
Sm6 Te3 3.259703 1_555
Sm7 Te2 3.259703 1_555
O0 Si3 1.637122 1_555
O0 Sm2 2.477939 1_555
O0 Sm3 2.495900 1_555
O0 Sm4 2.508053 1_455
O1 Si1 1.637122 1_555
O1 Sm1 2.477939 1_555
O1 Sm0 2.495900 1_565
O1 Sm5 2.508053 1_555
O2 Si2 1.637122 1_555
O2 Sm0 2.477939 1_555
O2 Sm1 2.495900 1_555
O2 Sm6 2.508053 1_655
O3 Si0 1.637122 1_555
O3 Sm3 2.477939 1_555
O3 Sm2 2.495900 1_545
O3 Sm7 2.508053 1_555
O4 Si3 1.609258 1_555
O4 Sm4 2.307244 1_555
O4 Sm2 2.460081 1_555
O4 Sm5 3.015318 1_554
O5 Si1 1.609258 1_555
O5 Sm5 2.307244 1_655
O5 Sm1 2.460081 1_555
O5 Sm4 3.015318 1_556
O6 Si2 1.609258 1_555
O6 Sm6 2.307244 1_555
O6 Sm0 2.460081 1_555
O6 Sm7 3.015318 1_556
O7 Si0 1.609258 1_555
O7 Sm7 2.307244 1_455
O7 Sm3 2.460081 1_555
O7 Sm6 3.015318 1_554
O8 Si0 1.618042 1_565
O8 Sm4 2.382412 1_455
O8 Sm2 2.457214 1_555
O8 Sm5 2.650117 1_554
O9 Si2 1.628870 1_554
O9 Sm7 2.400860 1_555
O9 Sm4 2.427785 1_555
O9 Sm6 2.700205 1_654
O10 Si1 1.618042 1_545
O10 Sm6 2.382412 1_655
O10 Sm0 2.457214 1_555
O10 Sm7 2.650117 1_556
O11 Si3 1.618042 1_555
O11 Sm7 2.382412 1_555
O11 Sm3 2.457214 1_555
O11 Sm6 2.650117 1_554
O12 Si1 1.628870 1_554
O12 Sm4 2.400860 1_555
O12 Sm7 2.427785 1_565
O12 Sm5 2.700205 1_554
O13 Si3 1.628870 1_556
O13 Sm5 2.400860 1_555
O13 Sm6 2.427785 1_555
O13 Sm4 2.700205 1_456
O14 Si0 1.628870 1_556
O14 Sm6 2.400860 1_555
O14 Sm5 2.427785 1_545
O14 Sm7 2.700205 1_556
O15 Si2 1.618042 1_555
O15 Sm5 2.382412 1_555
O15 Sm1 2.457214 1_555
O15 Sm4 2.650117 1_556
