# generated using pymatgen
data_FeSiNi
_symmetry_space_group_name_H-M   'P 1'
_cell_length_a   3.67163000
_cell_length_b   5.24639200
_cell_length_c   6.94890300
_cell_angle_alpha   90.00000000
_cell_angle_beta   90.00000000
_cell_angle_gamma   90.00000000
_symmetry_Int_Tables_number   1
_chemical_formula_structural   FeSiNi
_chemical_formula_sum   'Fe4 Si4 Ni4'
_cell_volume   133.85540000
_cell_formula_units_Z   4
loop_
 _symmetry_equiv_pos_site_id
 _symmetry_equiv_pos_as_xyz
  1  'x, y, z'
loop_
 _atom_site_type_symbol
 _atom_site_label
 _atom_site_symmetry_multiplicity
 _atom_site_fract_x
 _atom_site_fract_y
 _atom_site_fract_z
 _atom_site_occupancy
  Fe  Fe0  1  0.25000000  0.03873300  0.30246300  1
  Fe  Fe1  1  0.25000000  0.53873300  0.19753700  1
  Fe  Fe2  1  0.75000000  0.96126700  0.69753700  1
  Fe  Fe3  1  0.75000000  0.46126700  0.80246300  1
  Si  Si0  1  0.25000000  0.22745000  0.61875300  1
  Si  Si1  1  0.25000000  0.72745000  0.88124700  1
  Si  Si2  1  0.75000000  0.77255000  0.38124700  1
  Si  Si3  1  0.75000000  0.27255000  0.11875300  1
  Ni  Ni0  1  0.25000000  0.15661500  0.94171600  1
  Ni  Ni1  1  0.25000000  0.65661500  0.55828400  1
  Ni  Ni2  1  0.75000000  0.84338500  0.05828400  1
  Ni  Ni3  1  0.75000000  0.34338500  0.44171600  1
loop_
_geom_bond_atom_site_label_1
_geom_bond_atom_site_label_2
_geom_bond_distance
_geom_bond_site_symmetry_2
Fe0 Si2 2.370685 1_445
Fe0 Si2 2.370685 1_545
Fe0 Si0 2.410579 1_555
Fe0 Si3 2.550424 1_455
Fe0 Si3 2.550424 1_555
Fe0 Ni0 2.581959 1_554
Fe0 Ni3 2.619392 1_555
Fe0 Ni3 2.619392 1_455
Fe0 Ni1 2.679387 1_545
Fe0 Ni2 2.701783 1_545
Fe0 Ni2 2.701783 1_445
Fe0 Fe1 2.722641 1_555
Fe0 Fe1 2.722641 1_545
Fe1 Si3 2.370685 1_455
Fe1 Si3 2.370685 1_555
Fe1 Si1 2.410579 1_554
Fe1 Si2 2.550424 1_555
Fe1 Si2 2.550424 1_455
Fe1 Ni1 2.581959 1_555
Fe1 Ni2 2.619392 1_555
Fe1 Ni2 2.619392 1_455
Fe1 Ni0 2.679387 1_554
Fe1 Ni3 2.701783 1_455
Fe1 Ni3 2.701783 1_555
Fe2 Si0 2.370685 1_665
Fe2 Si0 2.370685 1_565
Fe2 Si2 2.410579 1_555
Fe2 Si1 2.550424 1_555
Fe2 Si1 2.550424 1_655
Fe2 Ni2 2.581959 1_556
Fe2 Ni1 2.619392 1_655
Fe2 Ni1 2.619392 1_555
Fe2 Ni3 2.679387 1_565
Fe2 Ni0 2.701783 1_665
Fe2 Ni0 2.701783 1_565
Fe2 Fe3 2.722641 1_565
Fe2 Fe3 2.722641 1_555
Fe3 Si1 2.370685 1_655
Fe3 Si1 2.370685 1_555
Fe3 Si3 2.410579 1_556
Fe3 Si0 2.550424 1_555
Fe3 Si0 2.550424 1_655
Fe3 Ni3 2.581959 1_555
Fe3 Ni0 2.619392 1_655
Fe3 Ni0 2.619392 1_555
Fe3 Ni2 2.679387 1_556
Fe3 Ni1 2.701783 1_555
Fe3 Ni1 2.701783 1_655
Ni0 Si0 2.274800 1_555
Ni0 Si1 2.290441 1_545
Ni0 Si3 2.292073 1_456
Ni0 Si3 2.292073 1_556
Ni0 Ni2 2.593622 1_546
Ni0 Ni2 2.593622 1_446
Ni1 Si1 2.274800 1_555
Ni1 Si0 2.290441 1_555
Ni1 Si2 2.292073 1_455
Ni1 Si2 2.292073 1_555
Ni1 Ni3 2.593622 1_555
Ni1 Ni3 2.593622 1_455
Ni2 Si2 2.274800 1_555
Ni2 Si3 2.290441 1_565
Ni2 Si1 2.292073 1_654
Ni2 Si1 2.292073 1_554
Ni3 Si3 2.274800 1_555
Ni3 Si2 2.290441 1_555
Ni3 Si0 2.292073 1_655
Ni3 Si0 2.292073 1_555
