# generated using pymatgen
data_Nd2Tm
_symmetry_space_group_name_H-M   'P 1'
_cell_length_a   18.09072555
_cell_length_b   18.09072555
_cell_length_c   18.09072585
_cell_angle_alpha   23.22593101
_cell_angle_beta   23.22593101
_cell_angle_gamma   23.22593474
_symmetry_Int_Tables_number   1
_chemical_formula_structural   Nd2Tm
_chemical_formula_sum   'Nd16 Tm8'
_cell_volume   808.32008330
_cell_formula_units_Z   8
loop_
 _symmetry_equiv_pos_site_id
 _symmetry_equiv_pos_as_xyz
  1  'x, y, z'
loop_
 _atom_site_type_symbol
 _atom_site_label
 _atom_site_symmetry_multiplicity
 _atom_site_fract_x
 _atom_site_fract_y
 _atom_site_fract_z
 _atom_site_occupancy
  Nd  Nd0_0  1  0.38764407  0.38764407  0.38764407  1
  Nd  Nd0_1  1  0.38764407  0.38764407  0.88764407  1
  Nd  Nd0_2  1  0.38764407  0.88764407  0.38764407  1
  Nd  Nd0_3  1  0.38764407  0.88764407  0.88764407  1
  Nd  Nd0_4  1  0.88764407  0.38764407  0.38764407  1
  Nd  Nd0_5  1  0.88764407  0.38764407  0.88764407  1
  Nd  Nd0_6  1  0.88764407  0.88764407  0.38764407  1
  Nd  Nd0_7  1  0.88764407  0.88764407  0.88764407  1
  Nd  Nd1_0  1  0.11235593  0.11235593  0.11235593  1
  Nd  Nd1_1  1  0.11235593  0.11235593  0.61235593  1
  Nd  Nd1_2  1  0.11235593  0.61235593  0.11235593  1
  Nd  Nd1_3  1  0.11235593  0.61235593  0.61235593  1
  Nd  Nd1_4  1  0.61235593  0.11235593  0.11235593  1
  Nd  Nd1_5  1  0.61235593  0.11235593  0.61235593  1
  Nd  Nd1_6  1  0.61235593  0.61235593  0.11235593  1
  Nd  Nd1_7  1  0.61235593  0.61235593  0.61235593  1
  Tm  Tm0_0  1  0.00000000  0.00000000  0.00000000  1
  Tm  Tm0_1  1  0.00000000  0.00000000  0.50000000  1
  Tm  Tm0_2  1  0.00000000  0.50000000  0.00000000  1
  Tm  Tm0_3  1  0.00000000  0.50000000  0.50000000  1
  Tm  Tm0_4  1  0.50000000  0.00000000  0.00000000  1
  Tm  Tm0_5  1  0.50000000  0.00000000  0.50000000  1
  Tm  Tm0_6  1  0.50000000  0.50000000  0.00000000  1
  Tm  Tm0_7  1  0.50000000  0.50000000  0.50000000  1
loop_
_geom_bond_atom_site_label_1
_geom_bond_atom_site_label_2
_geom_bond_distance
_geom_bond_site_symmetry_2
Nd0_0 Tm0_6 3.555174 1_555
Nd0_0 Tm0_3 3.555174 1_555
Nd0_0 Tm0_5 3.555174 1_555
Nd0_0 Nd0_3 3.641656 1_545
Nd0_0 Nd0_5 3.641656 1_554
Nd0_0 Nd0_5 3.641656 1_455
Nd0_0 Nd0_3 3.641656 1_554
Nd0_0 Nd0_6 3.641656 1_455
Nd0_0 Nd0_6 3.641656 1_545
Nd0_0 Nd1_6 3.715962 1_555
Nd0_0 Nd1_5 3.715963 1_555
Nd0_0 Nd1_3 3.715963 1_555
Nd0_1 Tm0_7 3.555174 1_555
Nd0_1 Tm0_2 3.555174 1_556
Nd0_1 Tm0_4 3.555174 1_556
Nd0_1 Nd0_4 3.641656 1_456
Nd0_1 Nd0_2 3.641656 1_546
Nd0_1 Nd0_2 3.641656 1_555
Nd0_1 Nd0_4 3.641656 1_555
Nd0_1 Nd0_7 3.641656 1_455
Nd0_1 Nd0_7 3.641656 1_545
Nd0_1 Nd1_7 3.715962 1_555
Nd0_1 Nd1_2 3.715963 1_556
Nd0_1 Nd1_4 3.715963 1_556
Nd0_2 Tm0_4 3.555174 1_565
Nd0_2 Tm0_1 3.555174 1_565
Nd0_2 Tm0_7 3.555174 1_555
Nd0_2 Nd0_7 3.641656 1_455
Nd0_2 Nd0_7 3.641656 1_554
Nd0_2 Nd0_4 3.641656 1_465
Nd0_2 Nd0_4 3.641656 1_555
Nd0_2 Nd1_4 3.715962 1_565
Nd0_2 Nd1_1 3.715963 1_565
Nd0_2 Nd1_7 3.715963 1_555
Nd0_3 Tm0_5 3.555174 1_565
Nd0_3 Tm0_0 3.555174 1_566
Nd0_3 Tm0_6 3.555174 1_556
Nd0_3 Nd0_6 3.641656 1_456
Nd0_3 Nd0_6 3.641656 1_555
Nd0_3 Nd0_5 3.641656 1_465
Nd0_3 Nd0_5 3.641656 1_555
Nd0_3 Nd1_5 3.715962 1_565
Nd0_3 Nd1_6 3.715963 1_556
Nd0_3 Nd1_0 3.715963 1_566
Nd0_4 Tm0_2 3.555174 1_655
Nd0_4 Tm0_7 3.555174 1_555
Nd0_4 Tm0_1 3.555174 1_655
Nd0_4 Nd0_7 3.641656 1_545
Nd0_4 Nd0_7 3.641656 1_554
Nd0_4 Nd1_2 3.715962 1_655
Nd0_4 Nd1_1 3.715963 1_655
Nd0_4 Nd1_7 3.715963 1_555
Nd0_5 Tm0_3 3.555174 1_655
Nd0_5 Tm0_6 3.555174 1_556
Nd0_5 Tm0_0 3.555174 1_656
Nd0_5 Nd0_6 3.641656 1_555
Nd0_5 Nd0_6 3.641656 1_546
Nd0_5 Nd1_3 3.715962 1_655
Nd0_5 Nd1_6 3.715963 1_556
Nd0_5 Nd1_0 3.715963 1_656
Nd0_6 Tm0_0 3.555174 1_665
Nd0_6 Tm0_3 3.555174 1_655
Nd0_6 Tm0_5 3.555174 1_565
Nd0_6 Nd1_0 3.715962 1_665
Nd0_6 Nd1_3 3.715963 1_655
Nd0_6 Nd1_5 3.715963 1_565
Nd0_7 Tm0_1 3.555174 1_665
Nd0_7 Tm0_4 3.555174 1_566
Nd0_7 Tm0_2 3.555174 1_656
Nd0_7 Nd1_1 3.715962 1_665
Nd0_7 Nd1_4 3.715963 1_566
Nd0_7 Nd1_2 3.715963 1_656
Nd1_0 Tm0_1 3.555174 1_555
Nd1_0 Tm0_4 3.555174 1_555
Nd1_0 Tm0_2 3.555174 1_555
Nd1_0 Nd1_3 3.641656 1_545
Nd1_0 Nd1_5 3.641656 1_455
Nd1_0 Nd1_5 3.641656 1_554
Nd1_0 Nd1_3 3.641656 1_554
Nd1_0 Nd1_6 3.641656 1_545
Nd1_0 Nd1_6 3.641656 1_455
Nd1_1 Tm0_0 3.555174 1_556
Nd1_1 Tm0_5 3.555174 1_555
Nd1_1 Tm0_3 3.555174 1_555
Nd1_1 Nd1_4 3.641656 1_456
Nd1_1 Nd1_2 3.641656 1_555
Nd1_1 Nd1_2 3.641656 1_546
Nd1_1 Nd1_4 3.641656 1_555
Nd1_1 Nd1_7 3.641656 1_545
Nd1_1 Nd1_7 3.641656 1_455
Nd1_2 Tm0_3 3.555174 1_555
Nd1_2 Tm0_6 3.555174 1_555
Nd1_2 Tm0_0 3.555174 1_565
Nd1_2 Nd1_7 3.641656 1_554
Nd1_2 Nd1_7 3.641656 1_455
Nd1_2 Nd1_4 3.641656 1_465
Nd1_2 Nd1_4 3.641656 1_555
Nd1_3 Tm0_2 3.555174 1_556
Nd1_3 Tm0_7 3.555174 1_555
Nd1_3 Tm0_1 3.555174 1_565
Nd1_3 Nd1_6 3.641656 1_555
Nd1_3 Nd1_6 3.641656 1_456
Nd1_3 Nd1_5 3.641656 1_465
Nd1_3 Nd1_5 3.641656 1_555
Nd1_4 Tm0_5 3.555174 1_555
Nd1_4 Tm0_0 3.555174 1_655
Nd1_4 Tm0_6 3.555174 1_555
Nd1_4 Nd1_7 3.641656 1_554
Nd1_4 Nd1_7 3.641656 1_545
Nd1_5 Tm0_4 3.555174 1_556
Nd1_5 Tm0_7 3.555174 1_555
Nd1_5 Tm0_1 3.555174 1_655
Nd1_5 Nd1_6 3.641656 1_555
Nd1_5 Nd1_6 3.641656 1_546
Nd1_6 Tm0_7 3.555174 1_555
Nd1_6 Tm0_4 3.555174 1_565
Nd1_6 Tm0_2 3.555174 1_655
Nd1_7 Tm0_6 3.555174 1_556
Nd1_7 Tm0_5 3.555174 1_565
Nd1_7 Tm0_3 3.555174 1_655
Tm0_0 Tm0_3 3.641656 1_545
Tm0_0 Tm0_5 3.641656 1_455
Tm0_0 Tm0_5 3.641656 1_554
Tm0_0 Tm0_3 3.641656 1_554
Tm0_0 Tm0_6 3.641656 1_545
Tm0_0 Tm0_6 3.641656 1_455
Tm0_1 Tm0_2 3.641656 1_555
Tm0_1 Tm0_4 3.641656 1_456
Tm0_1 Tm0_4 3.641656 1_555
Tm0_1 Tm0_2 3.641656 1_546
Tm0_1 Tm0_7 3.641656 1_455
Tm0_1 Tm0_7 3.641656 1_545
Tm0_2 Tm0_7 3.641656 1_554
Tm0_2 Tm0_7 3.641656 1_455
Tm0_2 Tm0_4 3.641656 1_555
Tm0_2 Tm0_4 3.641656 1_465
Tm0_3 Tm0_6 3.641656 1_555
Tm0_3 Tm0_6 3.641656 1_456
Tm0_3 Tm0_5 3.641656 1_465
Tm0_3 Tm0_5 3.641656 1_555
Tm0_4 Tm0_7 3.641656 1_545
Tm0_4 Tm0_7 3.641656 1_554
Tm0_5 Tm0_6 3.641656 1_555
Tm0_5 Tm0_6 3.641656 1_546
