# generated using pymatgen
data_K2SiF6
_symmetry_space_group_name_H-M   'P 1'
_cell_length_a   5.57547982
_cell_length_b   5.57548346
_cell_length_c   9.11639127
_cell_angle_alpha   89.99998563
_cell_angle_beta   89.99993918
_cell_angle_gamma   120.00036976
_symmetry_Int_Tables_number   1
_chemical_formula_structural   K2SiF6
_chemical_formula_sum   'K4 Si2 F12'
_cell_volume   245.42384189
_cell_formula_units_Z   2
loop_
 _symmetry_equiv_pos_site_id
 _symmetry_equiv_pos_as_xyz
  1  'x, y, z'
loop_
 _atom_site_type_symbol
 _atom_site_label
 _atom_site_symmetry_multiplicity
 _atom_site_fract_x
 _atom_site_fract_y
 _atom_site_fract_z
 _atom_site_occupancy
  K  K0  1  0.00000085  0.00000067  0.31305146  1
  K  K1  1  -0.00000104  -0.00000090  0.81300849  1
  K  K2  1  0.33333280  0.66666600  0.59283522  1
  K  K3  1  0.66666630  0.33333376  0.09291652  1
  Si  Si0  1  0.66666677  0.33333313  0.47557380  1
  Si  Si1  1  0.33333316  0.66666654  0.97559838  1
  F  F0  1  0.95290912  0.47645548  0.36633990  1
  F  F1  1  0.47644105  0.95288162  0.86636379  1
  F  F2  1  0.47644011  0.52355990  0.86636363  1
  F  F3  1  0.52354641  0.47645438  0.36633926  1
  F  F4  1  0.52354433  0.04708988  0.36633938  1
  F  F5  1  0.04711788  0.52355868  0.86636354  1
  F  F6  1  0.62434691  0.81217422  0.08012017  1
  F  F7  1  0.81222842  0.62445469  0.58014216  1
  F  F8  1  0.81222706  0.18777350  0.58014218  1
  F  F9  1  0.18782678  0.81217259  0.08012012  1
  F  F10  1  0.18782540  0.37565280  0.08012036  1
  F  F11  1  0.37554569  0.18777207  0.58014165  1
loop_
_geom_bond_atom_site_label_1
_geom_bond_atom_site_label_2
_geom_bond_distance
_geom_bond_site_symmetry_2
F0 Si0 1.703497 1_555
F0 K2 2.763619 1_655
F0 K0 2.838869 1_665
F0 K0 2.838879 1_655
F0 K3 2.850174 1_555
F1 Si1 1.703395 1_555
F1 K3 2.764101 1_566
F1 K1 2.838980 1_665
F1 K1 2.838993 1_565
F1 K2 2.850949 1_555
F2 Si1 1.703396 1_555
F2 K3 2.764109 1_556
F2 K1 2.838967 1_665
F2 K1 2.838979 1_555
F2 K2 2.850946 1_555
F3 Si0 1.703506 1_555
F3 K2 2.763633 1_555
F3 K0 2.838856 1_555
F3 K0 2.838859 1_665
F3 K3 2.850165 1_555
F4 Si0 1.703506 1_555
F4 K2 2.763621 1_545
F4 K0 2.838863 1_555
F4 K0 2.838878 1_655
F4 K3 2.850170 1_555
F5 Si1 1.703398 1_555
F5 K3 2.764097 1_456
F5 K1 2.838988 1_555
F5 K1 2.838989 1_565
F5 K2 2.850942 1_555
F6 Si1 1.697767 1_554
F6 K0 2.792714 1_665
F6 K3 2.797652 1_565
F6 K3 2.797656 1_555
F6 K1 3.036389 1_664
F7 Si0 1.698437 1_555
F7 K1 2.791920 1_665
F7 K2 2.797567 1_655
F7 K2 2.797583 1_555
F7 K0 3.035931 1_665
F8 Si0 1.698436 1_555
F8 K1 2.791932 1_655
F8 K2 2.797556 1_655
F8 K2 2.797566 1_545
F8 K0 3.035940 1_655
F9 Si1 1.697767 1_554
F9 K0 2.792719 1_565
F9 K3 2.797636 1_455
F9 K3 2.797641 1_565
F9 K1 3.036405 1_564
F10 Si1 1.697767 1_554
F10 K0 2.792705 1_555
F10 K3 2.797648 1_455
F10 K3 2.797656 1_555
F10 K1 3.036399 1_554
F11 Si0 1.698430 1_555
F11 K1 2.791927 1_555
F11 K2 2.797574 1_545
F11 K2 2.797581 1_555
F11 K0 3.035927 1_555
