# generated using pymatgen
data_Pr3Al
_symmetry_space_group_name_H-M   'P 1'
_cell_length_a   7.18984258
_cell_length_b   7.18984258
_cell_length_c   5.40161986
_cell_angle_alpha   90.00000000
_cell_angle_beta   90.00000000
_cell_angle_gamma   119.99999740
_symmetry_Int_Tables_number   1
_chemical_formula_structural   Pr3Al
_chemical_formula_sum   'Pr6 Al2'
_cell_volume   241.82067193
_cell_formula_units_Z   2
loop_
 _symmetry_equiv_pos_site_id
 _symmetry_equiv_pos_as_xyz
  1  'x, y, z'
loop_
 _atom_site_type_symbol
 _atom_site_label
 _atom_site_symmetry_multiplicity
 _atom_site_fract_x
 _atom_site_fract_y
 _atom_site_fract_z
 _atom_site_occupancy
  Pr  Pr0  1  0.82045542  0.17954458  0.25000000  1
  Pr  Pr1  1  0.82045542  0.64091083  0.25000000  1
  Pr  Pr2  1  0.35908917  0.17954458  0.25000000  1
  Pr  Pr3  1  0.17954458  0.82045542  0.75000000  1
  Pr  Pr4  1  0.17954458  0.35908917  0.75000000  1
  Pr  Pr5  1  0.64091083  0.82045542  0.75000000  1
  Al  Al0  1  0.33333300  0.66666700  0.25000000  1
  Al  Al1  1  0.66666700  0.33333300  0.75000000  1
loop_
_geom_bond_atom_site_label_1
_geom_bond_atom_site_label_2
_geom_bond_distance
_geom_bond_site_symmetry_2
Pr0 Pr2 3.317151 1_555
Pr0 Pr1 3.317151 1_555
Pr0 Pr4 3.506226 1_655
Pr0 Pr4 3.506226 1_654
Pr0 Pr5 3.506226 1_545
Pr0 Pr5 3.506226 1_544
Pr0 Pr1 3.872692 1_545
Pr0 Pr2 3.872692 1_655
Pr1 Pr2 3.317151 1_555
Pr1 Pr3 3.506226 1_655
Pr1 Pr3 3.506226 1_654
Pr1 Pr5 3.506226 1_554
Pr1 Pr5 3.506226 1_555
Pr1 Pr2 3.872692 1_665
Pr2 Pr3 3.506226 1_545
Pr2 Pr3 3.506226 1_544
Pr2 Pr4 3.506226 1_554
Pr2 Pr4 3.506226 1_555
Pr3 Pr5 3.317151 1_555
Pr3 Pr4 3.317151 1_555
Pr3 Pr5 3.872692 1_455
Pr3 Pr4 3.872692 1_565
Pr4 Pr5 3.317151 1_555
Pr4 Pr5 3.872692 1_445
Al0 Pr3 3.310920 1_554
Al0 Pr3 3.310920 1_555
Al0 Pr4 3.310923 1_554
Al0 Pr4 3.310923 1_555
Al0 Pr5 3.310923 1_555
Al0 Pr5 3.310923 1_554
Al0 Pr2 3.598493 1_565
Al0 Pr1 3.598493 1_455
Al0 Pr0 3.598497 1_455
Al0 Pr0 3.598497 1_565
Al0 Pr2 3.598500 1_555
Al0 Pr1 3.598500 1_555
Al1 Pr0 3.310920 1_555
Al1 Pr0 3.310920 1_556
Al1 Pr2 3.310923 1_556
Al1 Pr2 3.310923 1_555
Al1 Pr1 3.310923 1_556
Al1 Pr1 3.310923 1_555
Al1 Pr4 3.598493 1_655
Al1 Pr5 3.598493 1_545
Al1 Pr3 3.598497 1_545
Al1 Pr3 3.598497 1_655
Al1 Pr4 3.598500 1_555
Al1 Pr5 3.598500 1_555
