# generated using pymatgen
data_BaMgCr4O8
_symmetry_space_group_name_H-M   'P 1'
_cell_length_a   5.40147339
_cell_length_b   5.40147339
_cell_length_c   7.35593200
_cell_angle_alpha   90.00000000
_cell_angle_beta   90.00000000
_cell_angle_gamma   119.99999255
_symmetry_Int_Tables_number   1
_chemical_formula_structural   BaMgCr4O8
_chemical_formula_sum   'Ba1 Mg1 Cr4 O8'
_cell_volume   185.86296128
_cell_formula_units_Z   1
loop_
 _symmetry_equiv_pos_site_id
 _symmetry_equiv_pos_as_xyz
  1  'x, y, z'
loop_
 _atom_site_type_symbol
 _atom_site_label
 _atom_site_symmetry_multiplicity
 _atom_site_fract_x
 _atom_site_fract_y
 _atom_site_fract_z
 _atom_site_occupancy
  Ba  Ba0  1  0.00000000  0.00000000  0.00000000  1
  Mg  Mg0  1  0.00000000  0.00000000  0.50000000  1
  Cr  Cr0  1  0.33333300  0.66666700  0.74160700  1
  Cr  Cr1  1  0.66666700  0.33333300  0.74160700  1
  Cr  Cr2  1  0.33333300  0.66666700  0.25839300  1
  Cr  Cr3  1  0.66666700  0.33333300  0.25839300  1
  O  O0  1  0.31337700  0.31337700  0.67802600  1
  O  O1  1  0.68662300  0.00000000  0.67802600  1
  O  O2  1  0.00000000  0.68662300  0.67802600  1
  O  O3  1  0.68662300  0.68662300  0.32197400  1
  O  O4  1  0.00000000  0.31337700  0.32197400  1
  O  O5  1  0.31337700  0.00000000  0.32197400  1
  O  O6  1  0.33333300  0.66666700  0.00000000  1
  O  O7  1  0.66666700  0.33333300  0.00000000  1
loop_
_geom_bond_atom_site_label_1
_geom_bond_atom_site_label_2
_geom_bond_distance
_geom_bond_site_symmetry_2
Ba0 O2 2.911122 1_544
Ba0 O4 2.911122 1_555
Ba0 O5 2.911122 1_555
Ba0 O1 2.911122 1_454
Ba0 O0 2.911122 1_554
Ba0 O3 2.911122 1_445
Ba0 O6 3.118539 1_545
Ba0 O7 3.118539 1_455
Ba0 O7 3.118544 1_445
Ba0 O6 3.118544 1_555
Ba0 O6 3.118544 1_445
Ba0 O7 3.118544 1_555
Mg0 O2 2.140126 1_545
Mg0 O1 2.140126 1_455
Mg0 O4 2.140126 1_555
Mg0 O5 2.140126 1_555
Mg0 O3 2.140126 1_445
Mg0 O0 2.140126 1_555
Cr0 O6 1.900721 1_556
Cr0 O2 1.914732 1_555
Cr0 O1 1.914735 1_565
Cr0 O0 1.914738 1_555
Cr1 O7 1.900721 1_556
Cr1 O1 1.914732 1_555
Cr1 O2 1.914735 1_655
Cr1 O0 1.914738 1_555
Cr2 O6 1.900721 1_555
Cr2 O5 1.914732 1_565
Cr2 O4 1.914735 1_555
Cr2 O3 1.914738 1_555
Cr3 O7 1.900721 1_555
Cr3 O4 1.914732 1_655
Cr3 O5 1.914735 1_555
Cr3 O3 1.914738 1_555
