# generated using pymatgen
data_Gd2W2O9
_symmetry_space_group_name_H-M   'P 1'
_cell_length_a   9.85529570
_cell_length_b   9.85529570
_cell_length_c   7.25140700
_cell_angle_alpha   90.00000000
_cell_angle_beta   90.00000000
_cell_angle_gamma   105.71413996
_symmetry_Int_Tables_number   1
_chemical_formula_structural   Gd2W2O9
_chemical_formula_sum   'Gd8 W8 O36'
_cell_volume   677.98284914
_cell_formula_units_Z   4
loop_
 _symmetry_equiv_pos_site_id
 _symmetry_equiv_pos_as_xyz
  1  'x, y, z'
loop_
 _atom_site_type_symbol
 _atom_site_label
 _atom_site_symmetry_multiplicity
 _atom_site_fract_x
 _atom_site_fract_y
 _atom_site_fract_z
 _atom_site_occupancy
  Gd  Gd0  1  0.11994000  0.40936600  0.49647700  1
  Gd  Gd1  1  0.40936600  0.11994000  0.50352300  1
  Gd  Gd2  1  0.77053900  0.22946100  0.25000000  1
  Gd  Gd3  1  0.77463800  0.22536200  0.75000000  1
  Gd  Gd4  1  0.22536200  0.77463800  0.25000000  1
  Gd  Gd5  1  0.22946100  0.77053900  0.75000000  1
  Gd  Gd6  1  0.59063400  0.88006000  0.00352300  1
  Gd  Gd7  1  0.88006000  0.59063400  0.99647700  1
  W  W0  1  0.95503600  0.95503600  0.00000000  1
  W  W1  1  0.14993500  0.39422100  0.99707100  1
  W  W2  1  0.39422100  0.14993500  0.00292900  1
  W  W3  1  0.49970500  0.50029500  0.25000000  1
  W  W4  1  0.50029500  0.49970500  0.75000000  1
  W  W5  1  0.60577900  0.85006500  0.50292900  1
  W  W6  1  0.85006500  0.60577900  0.49707100  1
  W  W7  1  0.04496400  0.04496400  0.50000000  1
  O  O0  1  0.32977500  0.03254500  0.20415700  1
  O  O1  1  0.03254500  0.32977500  0.79584300  1
  O  O2  1  0.19850200  0.19850200  0.50000000  1
  O  O3  1  0.33328900  0.03251900  0.80137300  1
  O  O4  1  0.03251900  0.33328900  0.19862700  1
  O  O5  1  0.22576800  0.22576800  0.00000000  1
  O  O6  1  0.11366000  0.57739600  0.99640100  1
  O  O7  1  0.57739600  0.11366000  0.00359900  1
  O  O8  1  0.30476000  0.47555800  0.18742500  1
  O  O9  1  0.47555800  0.30476000  0.81257500  1
  O  O10  1  0.30370400  0.47719100  0.80803600  1
  O  O11  1  0.47719100  0.30370400  0.19196400  1
  O  O12  1  0.63045200  0.20932400  0.50358000  1
  O  O13  1  0.20932400  0.63045200  0.49642000  1
  O  O14  1  0.44184200  0.44184200  0.50000000  1
  O  O15  1  0.08931500  0.84913300  0.99131600  1
  O  O16  1  0.84913300  0.08931500  0.00868400  1
  O  O17  1  0.99504400  0.00495600  0.75000000  1
  O  O18  1  0.00495600  0.99504400  0.25000000  1
  O  O19  1  0.15086700  0.91068500  0.50868400  1
  O  O20  1  0.91068500  0.15086700  0.49131600  1
  O  O21  1  0.55815800  0.55815800  0.00000000  1
  O  O22  1  0.36954800  0.79067600  0.00358000  1
  O  O23  1  0.79067600  0.36954800  0.99642000  1
  O  O24  1  0.52280900  0.69629600  0.69196400  1
  O  O25  1  0.69629600  0.52280900  0.30803600  1
  O  O26  1  0.52444200  0.69524000  0.31257500  1
  O  O27  1  0.69524000  0.52444200  0.68742500  1
  O  O28  1  0.88634000  0.42260400  0.49640100  1
  O  O29  1  0.42260400  0.88634000  0.50359900  1
  O  O30  1  0.77423200  0.77423200  0.50000000  1
  O  O31  1  0.96748100  0.66671100  0.69862700  1
  O  O32  1  0.66671100  0.96748100  0.30137300  1
  O  O33  1  0.80149800  0.80149800  0.00000000  1
  O  O34  1  0.96745500  0.67022500  0.29584300  1
  O  O35  1  0.67022500  0.96745500  0.70415700  1
loop_
_geom_bond_atom_site_label_1
_geom_bond_atom_site_label_2
_geom_bond_distance
_geom_bond_site_symmetry_2
Gd0 O13 2.117494 1_555
Gd0 O28 2.340903 1_455
Gd0 O4 2.370527 1_555
Gd0 O1 2.388229 1_555
Gd0 O2 2.406301 1_555
Gd0 O20 2.810459 1_455
Gd1 O12 2.117494 1_555
Gd1 O29 2.340903 1_545
Gd1 O3 2.370527 1_555
Gd1 O0 2.388229 1_555
Gd1 O2 2.406301 1_555
Gd1 O19 2.810459 1_545
Gd2 O12 2.275578 1_555
Gd2 O23 2.275578 1_554
Gd2 O20 2.479756 1_555
Gd2 O16 2.479756 1_555
Gd2 O4 2.533952 1_655
Gd2 O32 2.533952 1_545
Gd2 O7 2.634668 1_555
Gd2 O28 2.634668 1_555
Gd3 O23 2.261754 1_555
Gd3 O12 2.261754 1_555
Gd3 O1 2.492613 1_655
Gd3 O35 2.492613 1_545
Gd3 O16 2.527573 1_556
Gd3 O20 2.527573 1_555
Gd3 O28 2.685728 1_555
Gd3 O7 2.685728 1_556
Gd4 O22 2.261754 1_555
Gd4 O13 2.261754 1_555
Gd4 O0 2.492613 1_565
Gd4 O34 2.492613 1_455
Gd4 O19 2.527573 1_555
Gd4 O15 2.527573 1_554
Gd4 O29 2.685728 1_555
Gd4 O6 2.685728 1_554
Gd5 O22 2.275578 1_556
Gd5 O13 2.275578 1_555
Gd5 O19 2.479756 1_555
Gd5 O15 2.479756 1_555
Gd5 O31 2.533952 1_455
Gd5 O3 2.533952 1_565
Gd5 O6 2.634668 1_555
Gd5 O29 2.634668 1_555
Gd6 O22 2.117494 1_555
Gd6 O7 2.340903 1_565
Gd6 O32 2.370527 1_555
Gd6 O35 2.388229 1_554
Gd6 O33 2.406301 1_555
Gd6 O16 2.810459 1_565
Gd7 O23 2.117494 1_555
Gd7 O6 2.340903 1_655
Gd7 O31 2.370527 1_555
Gd7 O34 2.388229 1_556
Gd7 O33 2.406301 1_556
Gd7 O15 2.810459 1_655
O0 W2 1.863611 1_555
O1 W1 1.863611 1_555
O2 W7 1.827311 1_555
O3 W2 1.859950 1_556
O4 W1 1.859950 1_554
O5 W2 1.996792 1_555
O5 W1 1.996792 1_554
O6 W1 1.932956 1_555
O7 W2 1.932956 1_555
O8 W3 1.924262 1_555
O8 W1 2.052695 1_554
O9 W4 1.924262 1_555
O9 W2 2.052695 1_556
O10 W4 1.935779 1_555
O10 W1 2.042783 1_555
O11 W3 1.935779 1_555
O11 W2 2.042783 1_555
O14 W3 1.940499 1_555
O14 W4 1.940499 1_555
O15 W0 1.895449 1_456
O16 W0 1.895449 1_545
O17 W0 1.891788 1_546
O17 W7 1.891788 1_655
O18 W7 1.891788 1_565
O18 W0 1.891788 1_455
O19 W7 1.895449 1_565
O20 W7 1.895449 1_655
O21 W3 1.940499 1_555
O21 W4 1.940499 1_554
O24 W4 1.935779 1_555
O24 W5 2.042783 1_555
O25 W3 1.935779 1_555
O25 W6 2.042783 1_555
O26 W3 1.924262 1_555
O26 W5 2.052695 1_555
O27 W4 1.924262 1_555
O27 W6 2.052695 1_555
O28 W6 1.932956 1_555
O29 W5 1.932956 1_555
O30 W6 1.996792 1_555
O30 W5 1.996792 1_555
O31 W6 1.859950 1_555
O32 W5 1.859950 1_555
O33 W0 1.827311 1_555
O34 W6 1.863611 1_555
O35 W5 1.863611 1_555
