# generated using pymatgen
data_Tb3InS6
_symmetry_space_group_name_H-M   'P 1'
_cell_length_a   3.87758800
_cell_length_b   13.47077500
_cell_length_c   16.65837800
_cell_angle_alpha   90.00000000
_cell_angle_beta   90.00000000
_cell_angle_gamma   90.00000000
_symmetry_Int_Tables_number   1
_chemical_formula_structural   Tb3InS6
_chemical_formula_sum   'Tb12 In4 S24'
_cell_volume   870.13564034
_cell_formula_units_Z   4
loop_
 _symmetry_equiv_pos_site_id
 _symmetry_equiv_pos_as_xyz
  1  'x, y, z'
loop_
 _atom_site_type_symbol
 _atom_site_label
 _atom_site_symmetry_multiplicity
 _atom_site_fract_x
 _atom_site_fract_y
 _atom_site_fract_z
 _atom_site_occupancy
  Tb  Tb0  1  0.25411500  0.03665600  0.77687200  1
  Tb  Tb1  1  0.25411500  0.96334400  0.22312800  1
  Tb  Tb2  1  0.74588500  0.46334400  0.27687200  1
  Tb  Tb3  1  0.74588500  0.53665600  0.72312800  1
  Tb  Tb4  1  0.26296900  0.24673600  0.61013500  1
  Tb  Tb5  1  0.26296900  0.75326400  0.38986500  1
  Tb  Tb6  1  0.73703100  0.25326400  0.11013500  1
  Tb  Tb7  1  0.73703100  0.74673600  0.88986500  1
  Tb  Tb8  1  0.74706800  0.30906400  0.85641000  1
  Tb  Tb9  1  0.74706800  0.69093600  0.14359000  1
  Tb  Tb10  1  0.25293200  0.19093600  0.35641000  1
  Tb  Tb11  1  0.25293200  0.80906400  0.64359000  1
  In  In0  1  0.75338900  0.00000000  0.50000000  1
  In  In1  1  0.24661100  0.50000000  0.00000000  1
  In  In2  1  0.39519600  0.50000000  0.50000000  1
  In  In3  1  0.60480400  0.00000000  0.00000000  1
  S  S0  1  0.76848700  0.39685800  0.59313400  1
  S  S1  1  0.76848700  0.60314200  0.40686600  1
  S  S2  1  0.23151300  0.10314200  0.09313400  1
  S  S3  1  0.23151300  0.89685800  0.90686600  1
  S  S4  1  0.24588900  0.30724200  0.98080200  1
  S  S5  1  0.24588900  0.69275800  0.01919800  1
  S  S6  1  0.75411100  0.19275800  0.48080200  1
  S  S7  1  0.75411100  0.80724200  0.51919800  1
  S  S8  1  0.75187600  0.10765000  0.88496100  1
  S  S9  1  0.75187600  0.89235000  0.11503900  1
  S  S10  1  0.24812400  0.39235000  0.38496100  1
  S  S11  1  0.24812400  0.60765000  0.61503900  1
  S  S12  1  0.75883500  0.17887100  0.71715900  1
  S  S13  1  0.75883500  0.82112900  0.28284100  1
  S  S14  1  0.24116500  0.32112900  0.21715900  1
  S  S15  1  0.24116500  0.67887100  0.78284100  1
  S  S16  1  0.24861300  0.38504700  0.75626300  1
  S  S17  1  0.24861300  0.61495300  0.24373700  1
  S  S18  1  0.75138700  0.11495300  0.25626300  1
  S  S19  1  0.75138700  0.88504700  0.74373700  1
  S  S20  1  0.25398500  0.02082300  0.60550000  1
  S  S21  1  0.25398500  0.97917700  0.39450000  1
  S  S22  1  0.74601500  0.47917700  0.10550000  1
  S  S23  1  0.74601500  0.52082300  0.89450000  1
loop_
_geom_bond_atom_site_label_1
_geom_bond_atom_site_label_2
_geom_bond_distance
_geom_bond_site_symmetry_2
In0 S6 2.616221 1_555
In0 S7 2.616221 1_545
In0 S21 2.630078 1_545
In0 S20 2.630078 1_555
In0 S21 2.633483 1_645
In0 S20 2.633483 1_655
In1 S5 2.616221 1_555
In1 S4 2.616221 1_554
In1 S22 2.630078 1_555
In1 S23 2.630078 1_554
In1 S22 2.633483 1_455
In1 S23 2.633483 1_454
In2 S10 2.469928 1_555
In2 S11 2.469928 1_555
In2 S1 2.536265 1_555
In2 S0 2.536265 1_555
In3 S8 2.469928 1_554
In3 S9 2.469928 1_545
In3 S2 2.536265 1_555
In3 S3 2.536265 1_544
S0 Tb4 2.801099 1_655
S0 Tb4 2.830563 1_555
S0 Tb3 2.871136 1_555
S1 Tb5 2.801099 1_655
S1 Tb5 2.830563 1_555
S1 Tb2 2.871136 1_555
S2 Tb6 2.801099 1_455
S2 Tb6 2.830563 1_555
S2 Tb1 2.871136 1_545
S3 Tb7 2.801099 1_455
S3 Tb7 2.830563 1_555
S3 Tb0 2.871136 1_565
S4 Tb8 2.834731 1_455
S4 Tb8 2.840978 1_555
S4 Tb6 2.966042 1_556
S4 Tb6 3.010610 1_456
S5 Tb9 2.834731 1_455
S5 Tb9 2.840978 1_555
S5 Tb7 2.966042 1_554
S5 Tb7 3.010610 1_454
S6 Tb10 2.834731 1_655
S6 Tb10 2.840978 1_555
S6 Tb4 2.966042 1_555
S6 Tb4 3.010610 1_655
S7 Tb11 2.834731 1_655
S7 Tb11 2.840978 1_555
S7 Tb5 2.966042 1_555
S7 Tb5 3.010610 1_655
S8 Tb8 2.754637 1_555
S8 Tb0 2.807497 1_555
S8 Tb0 2.819463 1_655
S9 Tb9 2.754637 1_555
S9 Tb1 2.807497 1_555
S9 Tb1 2.819463 1_655
S10 Tb10 2.754637 1_555
S10 Tb2 2.807497 1_555
S10 Tb2 2.819463 1_455
S11 Tb11 2.754637 1_555
S11 Tb3 2.807497 1_555
S11 Tb3 2.819463 1_455
S12 Tb4 2.776925 1_555
S12 Tb4 2.799219 1_655
S12 Tb0 2.889264 1_655
S12 Tb8 2.908417 1_555
S12 Tb0 2.913723 1_555
S13 Tb5 2.776925 1_555
S13 Tb5 2.799219 1_655
S13 Tb1 2.889264 1_655
S13 Tb9 2.908417 1_555
S13 Tb1 2.913723 1_555
S14 Tb6 2.776925 1_555
S14 Tb6 2.799219 1_455
S14 Tb2 2.889264 1_455
S14 Tb10 2.908417 1_555
S14 Tb2 2.913723 1_555
S15 Tb7 2.776925 1_555
S15 Tb7 2.799219 1_455
S15 Tb3 2.889264 1_455
S15 Tb11 2.908417 1_555
S15 Tb3 2.913723 1_555
S16 Tb8 2.750739 1_555
S16 Tb8 2.759171 1_455
S16 Tb3 2.862454 1_555
S16 Tb3 2.876748 1_455
S16 Tb4 3.065950 1_555
S17 Tb9 2.750739 1_555
S17 Tb9 2.759171 1_455
S17 Tb2 2.862454 1_555
S17 Tb2 2.876748 1_455
S17 Tb5 3.065950 1_555
S18 Tb10 2.750739 1_555
S18 Tb10 2.759171 1_655
S18 Tb1 2.862454 1_545
S18 Tb1 2.876748 1_645
S18 Tb6 3.065950 1_555
S19 Tb11 2.750739 1_555
S19 Tb11 2.759171 1_655
S19 Tb0 2.862454 1_565
S19 Tb0 2.876748 1_665
S19 Tb7 3.065950 1_555
S20 Tb0 2.862736 1_555
S20 Tb11 2.922279 1_545
S20 Tb4 3.044402 1_555
S21 Tb1 2.862736 1_555
S21 Tb10 2.922279 1_565
S21 Tb5 3.044402 1_555
S22 Tb2 2.862736 1_555
S22 Tb9 2.922279 1_555
S22 Tb6 3.044402 1_555
S23 Tb3 2.862736 1_555
S23 Tb8 2.922279 1_555
S23 Tb7 3.044402 1_555
