# generated using pymatgen
data_Tb2Si5Rh3
_symmetry_space_group_name_H-M   'P 1'
_cell_length_a   5.66834626
_cell_length_b   8.08787489
_cell_length_c   8.08787534
_cell_angle_alpha   93.49950200
_cell_angle_beta   108.89933794
_cell_angle_gamma   108.89934171
_symmetry_Int_Tables_number   1
_chemical_formula_structural   Tb2Si5Rh3
_chemical_formula_sum   'Tb4 Si10 Rh6'
_cell_volume   326.13196197
_cell_formula_units_Z   2
loop_
 _symmetry_equiv_pos_site_id
 _symmetry_equiv_pos_as_xyz
  1  'x, y, z'
loop_
 _atom_site_type_symbol
 _atom_site_label
 _atom_site_symmetry_multiplicity
 _atom_site_fract_x
 _atom_site_fract_y
 _atom_site_fract_z
 _atom_site_occupancy
  Tb  Tb0  1  0.23866826  0.86633909  0.59892377  1
  Tb  Tb1  1  0.26133174  0.40107623  0.13366091  1
  Tb  Tb2  1  0.76133174  0.13366091  0.40107623  1
  Tb  Tb3  1  0.73866826  0.59892377  0.86633909  1
  Si  Si0  1  0.16066810  0.05659870  0.26563082  1
  Si  Si1  1  0.33933190  0.73436918  0.94340130  1
  Si  Si2  1  0.83933190  0.94340130  0.73436918  1
  Si  Si3  1  0.66066810  0.26563082  0.05659870  1
  Si  Si4  1  0.25000000  0.51165565  0.48834435  1
  Si  Si5  1  0.75000000  0.48834435  0.51165565  1
  Si  Si6  1  0.25000000  0.77588284  0.22411716  1
  Si  Si7  1  0.75000000  0.78905421  0.21094579  1
  Si  Si8  1  0.25000000  0.21094579  0.78905421  1
  Si  Si9  1  0.75000000  0.22411716  0.77588284  1
  Rh  Rh0  1  0.75000000  0.99771662  0.00228338  1
  Rh  Rh1  1  0.12649704  0.46126137  0.74011808  1
  Rh  Rh2  1  0.62649704  0.74011808  0.46126137  1
  Rh  Rh3  1  0.87350296  0.53873863  0.25988192  1
  Rh  Rh4  1  0.25000000  0.00228338  0.99771662  1
  Rh  Rh5  1  0.37350296  0.25988192  0.53873863  1
loop_
_geom_bond_atom_site_label_1
_geom_bond_atom_site_label_2
_geom_bond_distance
_geom_bond_site_symmetry_2
Si0 Si7 2.499951 1_445
Si0 Si6 2.507122 1_545
Si0 Tb1 2.992466 1_555
Si0 Tb2 3.024772 1_455
Si0 Tb2 3.050685 1_555
Si0 Tb0 3.163045 1_545
Si1 Si7 2.499951 1_556
Si1 Si6 2.507122 1_556
Si1 Tb0 2.992467 1_555
Si1 Tb3 3.024772 1_555
Si1 Tb3 3.050685 1_455
Si1 Tb1 3.163045 1_556
Si2 Si8 2.499951 1_665
Si2 Si9 2.507122 1_565
Si2 Tb3 2.992466 1_555
Si2 Tb0 3.024772 1_655
Si2 Tb0 3.050685 1_555
Si2 Tb2 3.163045 1_565
Si3 Si8 2.499951 1_554
Si3 Si9 2.507122 1_554
Si3 Tb2 2.992467 1_555
Si3 Tb1 3.024772 1_555
Si3 Tb1 3.050685 1_655
Si3 Tb3 3.163045 1_554
Si4 Tb0 2.979335 1_555
Si4 Tb1 2.979335 1_555
Si4 Tb2 3.240573 1_455
Si4 Tb3 3.240574 1_555
Si5 Tb2 2.979335 1_555
Si5 Tb3 2.979335 1_555
Si5 Tb0 3.240573 1_655
Si5 Tb1 3.240574 1_555
Si6 Tb1 3.100729 1_555
Si6 Tb0 3.100729 1_555
Si6 Tb2 3.193171 1_565
Si6 Tb3 3.193171 1_454
Si7 Tb2 3.071440 1_565
Si7 Tb3 3.071441 1_554
Si7 Tb1 3.304246 1_555
Si7 Tb0 3.304246 1_655
Si8 Tb0 3.071440 1_545
Si8 Tb1 3.071441 1_556
Si8 Tb3 3.304246 1_555
Si8 Tb2 3.304246 1_455
Si9 Tb3 3.100729 1_555
Si9 Tb2 3.100729 1_555
Si9 Tb0 3.193171 1_545
Si9 Tb1 3.193171 1_656
Rh0 Si3 2.425560 1_565
Rh0 Si2 2.425560 1_554
Rh0 Si7 2.458439 1_555
Rh0 Si1 2.475517 1_554
Rh0 Si0 2.475518 1_665
Rh0 Si9 2.667428 1_564
Rh0 Tb3 3.317115 1_554
Rh0 Tb2 3.317115 1_565
Rh0 Tb1 3.410110 1_665
Rh0 Tb0 3.410110 1_554
Rh1 Si8 2.362599 1_555
Rh1 Si1 2.362855 1_555
Rh1 Si4 2.375446 1_555
Rh1 Si5 2.411303 1_455
Rh1 Si9 2.476452 1_455
Rh1 Tb3 3.063710 1_555
Rh1 Tb1 3.131506 1_556
Rh1 Tb3 3.164682 1_455
Rh1 Tb2 3.272202 1_455
Rh1 Tb0 3.466930 1_555
Rh2 Si7 2.362600 1_555
Rh2 Si2 2.362855 1_555
Rh2 Si5 2.375446 1_555
Rh2 Si4 2.411303 1_555
Rh2 Si6 2.476452 1_555
Rh2 Tb0 3.063710 1_655
Rh2 Tb2 3.131506 1_565
Rh2 Tb0 3.164682 1_555
Rh2 Tb1 3.272202 1_555
Rh2 Tb3 3.466930 1_555
Rh3 Si7 2.362599 1_555
Rh3 Si3 2.362855 1_555
Rh3 Si5 2.375446 1_555
Rh3 Si4 2.411303 1_655
Rh3 Si6 2.476452 1_655
Rh3 Tb1 3.063710 1_555
Rh3 Tb3 3.131506 1_554
Rh3 Tb1 3.164682 1_655
Rh3 Tb0 3.272202 1_655
Rh3 Tb2 3.466930 1_555
Rh4 Si1 2.425560 1_545
Rh4 Si0 2.425560 1_556
Rh4 Si8 2.458439 1_555
Rh4 Si3 2.475517 1_556
Rh4 Si2 2.475518 1_445
Rh4 Si6 2.667428 1_546
Rh4 Tb1 3.317115 1_556
Rh4 Tb0 3.317115 1_545
Rh4 Tb3 3.410110 1_445
Rh4 Tb2 3.410110 1_556
Rh5 Si8 2.362600 1_555
Rh5 Si0 2.362855 1_555
Rh5 Si4 2.375446 1_555
Rh5 Si5 2.411303 1_555
Rh5 Si9 2.476452 1_555
Rh5 Tb2 3.063710 1_455
Rh5 Tb0 3.131506 1_545
Rh5 Tb2 3.164682 1_555
Rh5 Tb3 3.272202 1_555
Rh5 Tb1 3.466930 1_555
