# generated using pymatgen
data_Tm3Ga8Ir3
_symmetry_space_group_name_H-M   'P 1'
_cell_length_a   8.13879132
_cell_length_b   8.13879132
_cell_length_c   8.13879132
_cell_angle_alpha   150.18432497
_cell_angle_beta   104.57745163
_cell_angle_gamma   83.14725815
_symmetry_Int_Tables_number   1
_chemical_formula_structural   Tm3Ga8Ir3
_chemical_formula_sum   'Tm3 Ga8 Ir3'
_cell_volume   253.86823023
_cell_formula_units_Z   1
loop_
 _symmetry_equiv_pos_site_id
 _symmetry_equiv_pos_as_xyz
  1  'x, y, z'
loop_
 _atom_site_type_symbol
 _atom_site_label
 _atom_site_symmetry_multiplicity
 _atom_site_fract_x
 _atom_site_fract_y
 _atom_site_fract_z
 _atom_site_occupancy
  Tm  Tm0  1  0.50000000  0.50000000  0.00000000  1
  Tm  Tm1  1  0.17200100  0.17200100  0.00000000  1
  Tm  Tm2  1  0.82799900  0.82799900  0.00000000  1
  Ga  Ga0  1  0.08540200  0.37313900  0.71226300  1
  Ga  Ga1  1  0.91459800  0.62686100  0.28773700  1
  Ga  Ga2  1  0.66087600  0.37313900  0.28773700  1
  Ga  Ga3  1  0.33912400  0.62686100  0.71226300  1
  Ga  Ga4  1  0.79109400  0.16401100  0.62708200  1
  Ga  Ga5  1  0.20890600  0.83598900  0.37291800  1
  Ga  Ga6  1  0.53692900  0.16401100  0.37291800  1
  Ga  Ga7  1  0.46307100  0.83598900  0.62708200  1
  Ir  Ir0  1  0.00000000  0.50000000  0.50000000  1
  Ir  Ir1  1  0.78774300  0.00000000  0.78774300  1
  Ir  Ir2  1  0.21225700  0.00000000  0.21225700  1
loop_
_geom_bond_atom_site_label_1
_geom_bond_atom_site_label_2
_geom_bond_distance
_geom_bond_site_symmetry_2
Ga0 Ir2 2.602037 1_566
Ga0 Ir2 2.602037 1_555
Ga0 Ir0 2.617848 1_555
Ga0 Ga5 2.673472 1_545
Ga0 Ga5 2.673475 1_556
Ga0 Ga4 2.684127 1_455
Ga0 Tm2 3.025376 1_456
Ga0 Tm2 3.025376 1_445
Ga0 Tm0 3.254878 1_556
Ga1 Ir1 2.602037 1_554
Ga1 Ir1 2.602037 1_565
Ga1 Ir0 2.617848 1_655
Ga1 Ga4 2.673472 1_565
Ga1 Ga4 2.673475 1_554
Ga1 Ga5 2.684127 1_655
Ga1 Tm1 3.025376 1_666
Ga1 Tm1 3.025376 1_655
Ga1 Tm0 3.254878 1_555
Ga2 Ir1 2.602037 1_554
Ga2 Ir1 2.602037 1_565
Ga2 Ir0 2.617848 1_655
Ga2 Ga7 2.673475 1_544
Ga2 Ga7 2.673475 1_555
Ga2 Ga6 2.684134 1_555
Ga2 Tm2 3.025376 1_545
Ga2 Tm2 3.025376 1_556
Ga2 Tm0 3.254878 1_555
Ga3 Ir2 2.602037 1_566
Ga3 Ir2 2.602037 1_555
Ga3 Ir0 2.617848 1_555
Ga3 Ga6 2.673475 1_566
Ga3 Ga6 2.673475 1_555
Ga3 Ga7 2.684134 1_555
Ga3 Tm1 3.025376 1_555
Ga3 Tm1 3.025376 1_566
Ga3 Tm0 3.254878 1_556
Ga4 Ga6 2.530644 1_555
Ga4 Ir1 2.558861 1_555
Ga4 Tm2 3.157984 1_545
Ga4 Tm2 3.157987 1_556
Ga4 Tm0 3.158169 1_545
Ga4 Tm0 3.158172 1_556
Ga5 Ga7 2.530644 1_555
Ga5 Ir2 2.558861 1_565
Ga5 Tm1 3.157984 1_566
Ga5 Tm1 3.157987 1_555
Ga5 Tm0 3.158169 1_566
Ga5 Tm0 3.158172 1_555
Ga6 Ir2 2.558860 1_555
Ga6 Tm2 3.157988 1_545
Ga6 Tm2 3.157988 1_556
Ga6 Tm0 3.158165 1_545
Ga6 Tm0 3.158165 1_556
Ga7 Ir1 2.558860 1_565
Ga7 Tm1 3.157988 1_566
Ga7 Tm1 3.157988 1_555
Ga7 Tm0 3.158165 1_566
Ga7 Tm0 3.158165 1_555
Ir0 Tm1 2.961601 1_555
Ir0 Tm1 2.961601 1_566
Ir0 Tm2 2.961601 1_456
Ir0 Tm2 2.961601 1_445
Ir1 Tm1 2.975460 1_656
Ir1 Tm2 2.975460 1_546
Ir2 Tm1 2.975460 1_555
Ir2 Tm2 2.975460 1_445
