# generated using pymatgen
data_BiWO5
_symmetry_space_group_name_H-M   'P 1'
_cell_length_a   6.23965300
_cell_length_b   12.06977400
_cell_length_c   16.14301300
_cell_angle_alpha   90.00000000
_cell_angle_beta   90.00000000
_cell_angle_gamma   90.00000000
_symmetry_Int_Tables_number   1
_chemical_formula_structural   BiWO5
_chemical_formula_sum   'Bi8 W8 O40'
_cell_volume   1215.74970564
_cell_formula_units_Z   8
loop_
 _symmetry_equiv_pos_site_id
 _symmetry_equiv_pos_as_xyz
  1  'x, y, z'
loop_
 _atom_site_type_symbol
 _atom_site_label
 _atom_site_symmetry_multiplicity
 _atom_site_fract_x
 _atom_site_fract_y
 _atom_site_fract_z
 _atom_site_occupancy
  Bi  Bi0  1  0.92726900  0.81990800  0.20820000  1
  Bi  Bi1  1  0.07273100  0.18009200  0.79180000  1
  Bi  Bi2  1  0.57273100  0.31990800  0.79180000  1
  Bi  Bi3  1  0.07273100  0.68009200  0.70820000  1
  Bi  Bi4  1  0.42726900  0.18009200  0.29180000  1
  Bi  Bi5  1  0.42726900  0.68009200  0.20820000  1
  Bi  Bi6  1  0.57273100  0.81990800  0.70820000  1
  Bi  Bi7  1  0.92726900  0.31990800  0.29180000  1
  W  W0  1  0.97939500  0.39750700  0.61458800  1
  W  W1  1  0.52060500  0.89750700  0.38541200  1
  W  W2  1  0.02060500  0.60249300  0.38541200  1
  W  W3  1  0.47939500  0.10249300  0.61458800  1
  W  W4  1  0.02060500  0.10249300  0.11458800  1
  W  W5  1  0.97939500  0.89750700  0.88541200  1
  W  W6  1  0.52060500  0.39750700  0.11458800  1
  W  W7  1  0.47939500  0.60249300  0.88541200  1
  O  O0  1  0.88651300  0.29759100  0.70138300  1
  O  O1  1  0.25359300  0.04491500  0.07142000  1
  O  O2  1  0.24640700  0.54491500  0.92858000  1
  O  O3  1  0.23030000  0.79625900  0.15101200  1
  O  O4  1  0.26970000  0.29625900  0.84898800  1
  O  O5  1  0.88651300  0.79759100  0.79861700  1
  O  O6  1  0.26970000  0.79625900  0.65101200  1
  O  O7  1  0.61348700  0.79759100  0.29861700  1
  O  O8  1  0.25359300  0.54491500  0.42858000  1
  O  O9  1  0.11348700  0.70240900  0.29861700  1
  O  O10  1  0.61348700  0.29759100  0.20138300  1
  O  O11  1  0.62487300  0.17411200  0.53849000  1
  O  O12  1  0.75359300  0.95508500  0.42858000  1
  O  O13  1  0.76970000  0.70374100  0.65101200  1
  O  O14  1  0.15031200  0.00995000  0.83772400  1
  O  O15  1  0.75359300  0.45508500  0.07142000  1
  O  O16  1  0.11348700  0.20240900  0.20138300  1
  O  O17  1  0.73030000  0.20374100  0.34898800  1
  O  O18  1  0.12487300  0.82588800  0.96151000  1
  O  O19  1  0.24640700  0.04491500  0.57142000  1
  O  O20  1  0.37512700  0.82588800  0.46151000  1
  O  O21  1  0.84968800  0.99005000  0.16227600  1
  O  O22  1  0.76970000  0.20374100  0.84898800  1
  O  O23  1  0.65031200  0.99005000  0.66227600  1
  O  O24  1  0.37512700  0.32588800  0.03849000  1
  O  O25  1  0.12487300  0.32588800  0.53849000  1
  O  O26  1  0.74640700  0.45508500  0.57142000  1
  O  O27  1  0.74640700  0.95508500  0.92858000  1
  O  O28  1  0.65031200  0.49005000  0.83772400  1
  O  O29  1  0.87512700  0.67411200  0.46151000  1
  O  O30  1  0.87512700  0.17411200  0.03849000  1
  O  O31  1  0.62487300  0.67411200  0.96151000  1
  O  O32  1  0.84968800  0.49005000  0.33772400  1
  O  O33  1  0.73030000  0.70374100  0.15101200  1
  O  O34  1  0.23030000  0.29625900  0.34898800  1
  O  O35  1  0.15031200  0.50995000  0.66227600  1
  O  O36  1  0.34968800  0.50995000  0.16227600  1
  O  O37  1  0.38651300  0.20240900  0.70138300  1
  O  O38  1  0.34968800  0.00995000  0.33772400  1
  O  O39  1  0.38651300  0.70240900  0.79861700  1
loop_
_geom_bond_atom_site_label_1
_geom_bond_atom_site_label_2
_geom_bond_distance
_geom_bond_site_symmetry_2
Bi0 O33 2.080546 1_555
Bi0 O3 2.123418 1_655
Bi0 O21 2.236315 1_555
Bi0 O9 2.343456 1_655
Bi0 O7 2.456895 1_555
Bi1 O4 2.080546 1_555
Bi1 O22 2.123418 1_455
Bi1 O14 2.236315 1_555
Bi1 O0 2.343456 1_455
Bi1 O37 2.456895 1_555
Bi2 O22 2.080546 1_555
Bi2 O4 2.123418 1_555
Bi2 O28 2.236315 1_555
Bi2 O37 2.343456 1_555
Bi2 O0 2.456895 1_555
Bi3 O6 2.080546 1_555
Bi3 O13 2.123418 1_455
Bi3 O35 2.236315 1_555
Bi3 O5 2.343456 1_455
Bi3 O39 2.456895 1_555
Bi4 O34 2.080546 1_555
Bi4 O17 2.123418 1_555
Bi4 O38 2.236315 1_555
Bi4 O10 2.343456 1_555
Bi4 O16 2.456895 1_555
Bi5 O3 2.080546 1_555
Bi5 O33 2.123418 1_555
Bi5 O36 2.236315 1_555
Bi5 O7 2.343456 1_555
Bi5 O9 2.456895 1_555
Bi6 O13 2.080546 1_555
Bi6 O6 2.123418 1_555
Bi6 O23 2.236315 1_555
Bi6 O39 2.343456 1_555
Bi6 O5 2.456895 1_555
Bi7 O17 2.080546 1_555
Bi7 O34 2.123418 1_655
Bi7 O32 2.236315 1_555
Bi7 O16 2.343456 1_655
Bi7 O10 2.456895 1_555
O0 W0 1.937370 1_555
O1 W4 1.755565 1_555
O2 W7 1.755565 1_555
O5 W5 1.937370 1_555
O7 W1 1.937370 1_555
O8 W2 1.755565 1_555
O9 W2 1.937370 1_555
O10 W6 1.937370 1_555
O11 W3 1.755078 1_555
O12 W1 1.755565 1_555
O14 W5 1.889938 1_445
O15 W6 1.755565 1_555
O16 W4 1.937370 1_555
O18 W5 1.755078 1_455
O19 W3 1.755565 1_555
O20 W1 1.755078 1_555
O21 W4 1.889938 1_665
O23 W3 1.889938 1_565
O24 W6 1.755078 1_555
O25 W0 1.755078 1_455
O26 W0 1.755565 1_555
O27 W5 1.755565 1_555
O28 W7 1.889938 1_555
O29 W2 1.755078 1_655
O30 W4 1.755078 1_655
O31 W7 1.755078 1_555
O32 W2 1.889938 1_655
O35 W0 1.889938 1_455
O36 W6 1.889938 1_555
O37 W3 1.937370 1_555
O38 W1 1.889938 1_545
O39 W7 1.937370 1_555
