# generated using pymatgen
data_Ca(SbO2)2
_symmetry_space_group_name_H-M   'P 1'
_cell_length_a   6.86388048
_cell_length_b   6.86388048
_cell_length_c   17.36098500
_cell_angle_alpha   90.00000000
_cell_angle_beta   90.00000000
_cell_angle_gamma   120.00000460
_symmetry_Int_Tables_number   1
_chemical_formula_structural   Ca(SbO2)2
_chemical_formula_sum   'Ca6 Sb12 O24'
_cell_volume   708.34429144
_cell_formula_units_Z   6
loop_
 _symmetry_equiv_pos_site_id
 _symmetry_equiv_pos_as_xyz
  1  'x, y, z'
loop_
 _atom_site_type_symbol
 _atom_site_label
 _atom_site_symmetry_multiplicity
 _atom_site_fract_x
 _atom_site_fract_y
 _atom_site_fract_z
 _atom_site_occupancy
  Ca  Ca0  1  0.66666700  0.33333300  0.96036800  1
  Ca  Ca1  1  0.33333300  0.66666700  0.62957200  1
  Ca  Ca2  1  0.00000000  0.00000000  0.67202500  1
  Ca  Ca3  1  0.00000000  0.00000000  0.28780900  1
  Ca  Ca4  1  0.33333300  0.66666700  0.00426800  1
  Ca  Ca5  1  0.33333300  0.66666700  0.37376600  1
  Sb  Sb0  1  0.16964900  0.33929900  0.83861600  1
  Sb  Sb1  1  0.66070100  0.83035100  0.83861600  1
  Sb  Sb2  1  0.83759400  0.67518700  0.50612000  1
  Sb  Sb3  1  0.16964900  0.83035100  0.83861600  1
  Sb  Sb4  1  0.32481300  0.16240600  0.50612000  1
  Sb  Sb5  1  0.66666700  0.33333300  0.34482000  1
  Sb  Sb6  1  0.66666700  0.33333300  0.71015100  1
  Sb  Sb7  1  0.50155600  0.00311200  0.16956500  1
  Sb  Sb8  1  0.83759400  0.16240600  0.50612000  1
  Sb  Sb9  1  0.99688800  0.49844400  0.16956500  1
  Sb  Sb10  1  0.50155600  0.49844400  0.16956500  1
  Sb  Sb11  1  0.00000000  0.00000000  0.04727600  1
  O  O0  1  0.48147000  0.96294000  0.90549500  1
  O  O1  1  0.33333300  0.66666700  0.76899400  1
  O  O2  1  0.03706000  0.51853000  0.90549500  1
  O  O3  1  0.48147000  0.51853000  0.90549500  1
  O  O4  1  0.15248400  0.30496900  0.57414900  1
  O  O5  1  0.83632300  0.16367700  0.74838000  1
  O  O6  1  0.00000000  0.00000000  0.43498100  1
  O  O7  1  0.32735500  0.16367700  0.74838000  1
  O  O8  1  0.00000000  0.00000000  0.92376400  1
  O  O9  1  0.69503100  0.84751600  0.57414900  1
  O  O10  1  0.15248400  0.84751600  0.57414900  1
  O  O11  1  0.83632300  0.67264500  0.74838000  1
  O  O12  1  0.82505400  0.65010900  0.23527400  1
  O  O13  1  0.51668200  0.48331800  0.41232100  1
  O  O14  1  0.96663600  0.48331800  0.41232100  1
  O  O15  1  0.66666700  0.33333300  0.09612600  1
  O  O16  1  0.66666700  0.33333300  0.58536000  1
  O  O17  1  0.34989100  0.17494600  0.23527400  1
  O  O18  1  0.82505400  0.17494600  0.23527400  1
  O  O19  1  0.51668200  0.03336400  0.41232100  1
  O  O20  1  0.17281800  0.82718200  0.08171700  1
  O  O21  1  0.65436400  0.82718200  0.08171700  1
  O  O22  1  0.33333300  0.66666700  0.24704300  1
  O  O23  1  0.17281800  0.34563600  0.08171700  1
loop_
_geom_bond_atom_site_label_1
_geom_bond_atom_site_label_2
_geom_bond_distance
_geom_bond_site_symmetry_2
Ca0 O15 2.356893 1_556
Ca0 O0 2.398986 1_545
Ca0 O2 2.398986 1_655
Ca0 O3 2.398992 1_555
Ca1 O9 2.355524 1_555
Ca1 O4 2.355524 1_555
Ca1 O10 2.355524 1_555
Ca1 O1 2.420503 1_555
Ca2 O5 2.354505 1_455
Ca2 O7 2.354510 1_555
Ca2 O11 2.354510 1_445
Ca2 O10 2.484688 1_545
Ca2 O4 2.484693 1_555
Ca2 O9 2.484693 1_445
Ca3 O17 2.271046 1_555
Ca3 O12 2.271046 1_445
Ca3 O18 2.271052 1_455
Ca3 O6 2.555051 1_555
Ca4 O20 2.334421 1_555
Ca4 O21 2.334426 1_555
Ca4 O23 2.334426 1_555
Ca4 O2 2.458072 1_554
Ca4 O0 2.458072 1_554
Ca4 O3 2.458077 1_554
Ca5 O22 2.200036 1_555
Ca5 O19 2.280212 1_565
Ca5 O14 2.280212 1_455
Ca5 O13 2.280217 1_555
O0 Sb1 2.193032 1_555
O0 Sb3 2.193037 1_555
O1 Sb1 2.290803 1_555
O1 Sb0 2.290803 1_555
O1 Sb3 2.290803 1_555
O2 Sb0 2.193032 1_555
O2 Sb3 2.193037 1_555
O3 Sb1 2.193037 1_555
O3 Sb0 2.193037 1_555
O4 Sb8 2.215614 1_455
O4 Sb4 2.215625 1_555
O5 Sb6 2.123360 1_555
O5 Sb1 2.526632 1_545
O5 Sb0 2.526632 1_655
O6 Sb8 2.291994 1_455
O6 Sb4 2.291999 1_555
O6 Sb2 2.291999 1_445
O7 Sb6 2.123360 1_555
O7 Sb3 2.526632 1_545
O7 Sb0 2.526642 1_555
O8 Sb11 2.144290 1_556
O8 Sb3 2.500613 1_545
O8 Sb0 2.500618 1_555
O8 Sb1 2.500618 1_445
O9 Sb8 2.215614 1_565
O9 Sb2 2.215625 1_555
O10 Sb2 2.215615 1_455
O10 Sb4 2.215615 1_565
O11 Sb6 2.123360 1_555
O11 Sb3 2.526632 1_655
O11 Sb1 2.526642 1_555
O12 Sb10 2.236953 1_555
O12 Sb9 2.236958 1_555
O12 Sb5 2.676317 1_555
O13 Sb5 2.133728 1_555
O13 Sb4 2.517387 1_555
O13 Sb2 2.517387 1_555
O14 Sb5 2.133723 1_555
O14 Sb2 2.517383 1_555
O14 Sb8 2.517388 1_555
O15 Sb9 2.340653 1_555
O15 Sb7 2.340653 1_555
O15 Sb10 2.340658 1_555
O16 Sb6 2.166495 1_555
O16 Sb2 2.453948 1_555
O16 Sb4 2.453948 1_555
O16 Sb8 2.453948 1_555
O17 Sb10 2.236953 1_555
O17 Sb7 2.236958 1_555
O17 Sb5 2.676317 1_555
O18 Sb9 2.236953 1_555
O18 Sb7 2.236953 1_555
O18 Sb5 2.676308 1_555
O19 Sb5 2.133723 1_555
O19 Sb4 2.517383 1_555
O19 Sb8 2.517388 1_555
O20 Sb11 2.139801 1_565
O20 Sb9 2.480097 1_455
O20 Sb7 2.480097 1_565
O21 Sb11 2.139800 1_665
O21 Sb10 2.480097 1_555
O21 Sb7 2.480097 1_565
O22 Sb7 2.410185 1_565
O22 Sb9 2.410185 1_455
O22 Sb10 2.410190 1_555
O23 Sb11 2.139800 1_555
O23 Sb10 2.480097 1_555
O23 Sb9 2.480097 1_455
