# generated using pymatgen
data_Li9Mn7O16
_symmetry_space_group_name_H-M   'P 1'
_cell_length_a   3.01805800
_cell_length_b   8.20226949
_cell_length_c   12.14637678
_cell_angle_alpha   90.01740847
_cell_angle_beta   94.95732610
_cell_angle_gamma   90.97701936
_symmetry_Int_Tables_number   1
_chemical_formula_structural   Li9Mn7O16
_chemical_formula_sum   'Li9 Mn7 O16'
_cell_volume   299.51386591
_cell_formula_units_Z   1
loop_
 _symmetry_equiv_pos_site_id
 _symmetry_equiv_pos_as_xyz
  1  'x, y, z'
loop_
 _atom_site_type_symbol
 _atom_site_label
 _atom_site_symmetry_multiplicity
 _atom_site_fract_x
 _atom_site_fract_y
 _atom_site_fract_z
 _atom_site_occupancy
  Li  Li0  1  0.99236600  0.74854600  0.87895700  1
  Li  Li1  1  0.48451700  0.50088400  0.25982600  1
  Li  Li2  1  0.98851800  0.26826800  0.62483100  1
  Li  Li3  1  0.50000000  0.00000000  0.00000000  1
  Li  Li4  1  0.01148200  0.73173200  0.37516900  1
  Li  Li5  1  0.51548300  0.49911600  0.74017400  1
  Li  Li6  1  0.00763400  0.25145400  0.12104300  1
  Li  Li7  1  0.50000000  0.00000000  0.50000000  1
  Li  Li8  1  0.50000000  0.50000000  0.50000000  1
  Mn  Mn0  1  0.00656100  0.74001600  0.62049100  1
  Mn  Mn1  1  0.99343900  0.25998400  0.37950900  1
  Mn  Mn2  1  0.50000000  0.50000000  0.00000000  1
  Mn  Mn3  1  0.51353500  0.00039100  0.74523700  1
  Mn  Mn4  1  0.99643800  0.74994600  0.12639900  1
  Mn  Mn5  1  0.00356200  0.25005400  0.87360100  1
  Mn  Mn6  1  0.48646500  0.99960900  0.25476300  1
  O  O0  1  0.53583900  0.75829800  0.73332700  1
  O  O1  1  0.96692300  0.51058000  0.12103100  1
  O  O2  1  0.52671800  0.25065100  0.48253300  1
  O  O3  1  0.97423000  0.00931700  0.86949400  1
  O  O4  1  0.46629500  0.75915100  0.24866000  1
  O  O5  1  0.99328500  0.51791400  0.62744400  1
  O  O6  1  0.46694700  0.25878300  0.99814300  1
  O  O7  1  0.96139300  0.01215200  0.37165400  1
  O  O8  1  0.53305300  0.74121700  0.00185700  1
  O  O9  1  0.00671500  0.48208600  0.37255600  1
  O  O10  1  0.53370500  0.24084900  0.75134000  1
  O  O11  1  0.02577000  0.99068300  0.13050600  1
  O  O12  1  0.47328200  0.74934900  0.51746700  1
  O  O13  1  0.03307700  0.48942000  0.87896900  1
  O  O14  1  0.46416100  0.24170200  0.26667300  1
  O  O15  1  0.03860700  0.98784800  0.62834600  1
loop_
_geom_bond_atom_site_label_1
_geom_bond_atom_site_label_2
_geom_bond_distance
_geom_bond_site_symmetry_2
Li0 O8 2.115959 1_656
Li0 O8 2.123330 1_556
Li0 O13 2.131060 1_655
Li0 O3 2.143412 1_565
Li0 O0 2.148570 1_555
Li0 O0 2.514505 1_655
Li1 O9 2.004484 1_655
Li1 O9 2.076514 1_555
Li1 O4 2.124098 1_555
Li1 O14 2.127580 1_555
Li1 O1 2.199513 1_455
Li1 O1 2.321315 1_555
Li2 O5 2.047686 1_555
Li2 O2 2.127774 1_555
Li2 O10 2.156430 1_555
Li2 O10 2.166799 1_655
Li2 O15 2.307780 1_645
Li2 O2 2.477850 1_655
Li3 O6 2.126684 1_554
Li3 O8 2.126684 1_545
Li3 O11 2.146172 1_645
Li3 O3 2.146172 1_454
Li3 O11 2.226109 1_545
Li3 O3 2.226109 1_554
Li4 O9 2.047686 1_555
Li4 O12 2.127774 1_555
Li4 O4 2.156430 1_555
Li4 O4 2.166799 1_455
Li4 O7 2.307780 1_465
Li4 O12 2.477850 1_455
Li5 O5 2.004484 1_455
Li5 O5 2.076514 1_555
Li5 O10 2.124098 1_555
Li5 O0 2.127580 1_555
Li5 O13 2.199513 1_655
Li5 O13 2.321315 1_555
Li6 O6 2.115959 1_454
Li6 O6 2.123330 1_554
Li6 O1 2.131060 1_455
Li6 O11 2.143412 1_545
Li6 O14 2.148570 1_555
Li6 O14 2.514505 1_455
Li7 O2 2.067810 1_555
Li7 O12 2.067810 1_545
Li7 O15 2.156451 1_645
Li7 O7 2.156451 1_455
Li7 O7 2.179416 1_555
Li7 O15 2.179416 1_545
Li8 O5 2.056298 1_555
Li8 O9 2.056298 1_555
Li8 O12 2.059803 1_555
Li8 O2 2.059803 1_555
Li8 O5 2.274478 1_455
Li8 O9 2.274478 1_655
Mn0 O5 1.823641 1_455
Mn0 O12 1.954059 1_455
Mn0 O12 1.963907 1_555
Mn0 O0 2.016404 1_555
Mn0 O15 2.035253 1_555
Mn0 O0 2.064663 1_455
Mn1 O9 1.823641 1_655
Mn1 O2 1.954059 1_655
Mn1 O2 1.963907 1_555
Mn1 O14 2.016404 1_555
Mn1 O7 2.035253 1_555
Mn1 O14 2.064663 1_655
Mn2 O1 1.947370 1_555
Mn2 O13 1.947370 1_554
Mn2 O8 1.979364 1_555
Mn2 O6 1.979364 1_554
Mn2 O13 2.273887 1_654
Mn2 O1 2.273887 1_455
Mn3 O15 1.929795 1_545
Mn3 O3 1.962211 1_555
Mn3 O10 1.973375 1_555
Mn3 O0 1.993634 1_545
Mn3 O15 2.220814 1_645
Mn3 O3 2.315401 1_455
Mn4 O4 1.963217 1_655
Mn4 O1 1.964653 1_555
Mn4 O8 1.969833 1_555
Mn4 O11 1.975486 1_655
Mn4 O4 2.277216 1_555
Mn4 O8 2.311642 1_655
Mn5 O10 1.963217 1_455
Mn5 O13 1.964653 1_555
Mn5 O6 1.969833 1_555
Mn5 O3 1.975486 1_455
Mn5 O10 2.277216 1_555
Mn5 O6 2.311642 1_455
Mn6 O7 1.929795 1_565
Mn6 O11 1.962211 1_555
Mn6 O4 1.973375 1_555
Mn6 O14 1.993634 1_565
Mn6 O7 2.220814 1_465
Mn6 O11 2.315401 1_655
