# generated using pymatgen
data_CsMg6Mn
_symmetry_space_group_name_H-M   'P 1'
_cell_length_a   5.35716200
_cell_length_b   6.82214200
_cell_length_c   11.70653500
_cell_angle_alpha   90.00000000
_cell_angle_beta   90.00000000
_cell_angle_gamma   90.00000000
_symmetry_Int_Tables_number   1
_chemical_formula_structural   CsMg6Mn
_chemical_formula_sum   'Cs2 Mg12 Mn2'
_cell_volume   427.84247934
_cell_formula_units_Z   2
loop_
 _symmetry_equiv_pos_site_id
 _symmetry_equiv_pos_as_xyz
  1  'x, y, z'
loop_
 _atom_site_type_symbol
 _atom_site_label
 _atom_site_symmetry_multiplicity
 _atom_site_fract_x
 _atom_site_fract_y
 _atom_site_fract_z
 _atom_site_occupancy
  Cs  Cs0  1  0.50000000  0.50000000  0.83416900  1
  Cs  Cs1  1  0.50000000  0.00000000  0.33416900  1
  Mg  Mg0  1  0.50000000  0.24667300  0.08151400  1
  Mg  Mg1  1  0.50000000  0.75332700  0.08151400  1
  Mg  Mg2  1  0.00000000  0.22047400  0.92007100  1
  Mg  Mg3  1  0.00000000  0.77952600  0.92007100  1
  Mg  Mg4  1  0.00000000  0.50000000  0.17143800  1
  Mg  Mg5  1  0.00000000  0.50000000  0.65134200  1
  Mg  Mg6  1  0.50000000  0.74667300  0.58151400  1
  Mg  Mg7  1  0.50000000  0.25332700  0.58151400  1
  Mg  Mg8  1  0.00000000  0.72047400  0.42007100  1
  Mg  Mg9  1  0.00000000  0.27952600  0.42007100  1
  Mg  Mg10  1  0.00000000  0.00000000  0.67143800  1
  Mg  Mg11  1  0.00000000  0.00000000  0.15134200  1
  Mn  Mn0  1  0.50000000  0.50000000  0.33991000  1
  Mn  Mn1  1  0.50000000  0.00000000  0.83991000  1
loop_
_geom_bond_atom_site_label_1
_geom_bond_atom_site_label_2
_geom_bond_distance
_geom_bond_site_symmetry_2
Cs0 Mg1 3.372094 1_556
Cs0 Mg0 3.372094 1_556
Cs0 Mg6 3.402943 1_555
Cs0 Mg7 3.402943 1_555
Cs0 Mn1 3.411733 1_565
Cs0 Mn1 3.411733 1_555
Cs0 Mg5 3.428637 1_555
Cs0 Mg5 3.428637 1_655
Cs0 Mg3 3.438397 1_655
Cs0 Mg3 3.438397 1_555
Cs0 Mg2 3.438397 1_655
Cs0 Mg2 3.438397 1_555
Cs1 Mg7 3.372094 1_555
Cs1 Mg6 3.372094 1_545
Cs1 Mg0 3.402943 1_555
Cs1 Mg1 3.402943 1_545
Cs1 Mn0 3.411733 1_555
Cs1 Mn0 3.411733 1_545
Cs1 Mg11 3.428637 1_655
Cs1 Mg11 3.428637 1_555
Cs1 Mg9 3.438397 1_655
Cs1 Mg8 3.438397 1_645
Cs1 Mg8 3.438397 1_545
Cs1 Mg9 3.438397 1_555
Mg0 Mg11 3.267255 1_555
Mg0 Mg11 3.267255 1_655
Mg0 Mg2 3.283079 1_554
Mg0 Mg2 3.283079 1_654
Mg0 Mn1 3.291122 1_554
Mg0 Mg4 3.357046 1_655
Mg0 Mg4 3.357046 1_555
Mg0 Mg1 3.365676 1_545
Mg0 Mg1 3.456466 1_555
Mg0 Mn0 3.483811 1_555
Mg1 Mg11 3.267255 1_565
Mg1 Mg11 3.267255 1_665
Mg1 Mg3 3.283079 1_654
Mg1 Mg3 3.283079 1_554
Mg1 Mn1 3.291122 1_564
Mg1 Mg4 3.357046 1_655
Mg1 Mg4 3.357046 1_555
Mg1 Mn0 3.483811 1_555
Mg2 Mg3 3.008210 1_545
Mg2 Mn1 3.212123 1_455
Mg2 Mn1 3.212123 1_555
Mg2 Mg4 3.506512 1_556
Mg3 Mn1 3.212123 1_465
Mg3 Mn1 3.212123 1_565
Mg3 Mg4 3.506512 1_556
Mg4 Mg9 3.276294 1_555
Mg4 Mg8 3.276294 1_555
Mg4 Mn0 3.326328 1_455
Mg4 Mn0 3.326328 1_555
Mg5 Mg8 3.097136 1_555
Mg5 Mg9 3.097136 1_555
Mg5 Mg6 3.267255 1_455
Mg5 Mg6 3.267255 1_555
Mg5 Mg7 3.267255 1_455
Mg5 Mg7 3.267255 1_555
Mg6 Mg8 3.283079 1_555
Mg6 Mg8 3.283079 1_655
Mg6 Mn0 3.291122 1_555
Mg6 Mg7 3.365676 1_555
Mg6 Mg7 3.456466 1_565
Mg6 Mn1 3.483811 1_565
Mg7 Mg9 3.283079 1_555
Mg7 Mg9 3.283079 1_655
Mg7 Mn0 3.291122 1_555
Mg7 Mn1 3.483811 1_555
Mg8 Mg9 3.008210 1_555
Mg8 Mn0 3.212123 1_455
Mg8 Mn0 3.212123 1_555
Mg9 Mn0 3.212123 1_455
Mg9 Mn0 3.212123 1_555
Mg10 Mg2 3.276294 1_555
Mg10 Mg3 3.276294 1_545
Mg10 Mn1 3.326328 1_455
Mg10 Mn1 3.326328 1_555
Mg10 Mg7 3.357046 1_455
Mg10 Mg7 3.357046 1_555
Mg10 Mg6 3.357046 1_445
Mg10 Mg6 3.357046 1_545
Mg10 Mg5 3.419174 1_545
Mg10 Mg5 3.419174 1_555
Mg10 Mg8 3.506512 1_545
Mg10 Mg9 3.506512 1_555
Mg11 Mg2 3.097136 1_554
Mg11 Mg3 3.097136 1_544
Mg11 Mg4 3.419174 1_555
Mg11 Mg4 3.419174 1_545
