# generated using pymatgen
data_GaAs(H2O3)2
_symmetry_space_group_name_H-M   'P 1'
_cell_length_a   9.01892800
_cell_length_b   10.07174600
_cell_length_c   10.49616100
_cell_angle_alpha   90.00000000
_cell_angle_beta   90.00000000
_cell_angle_gamma   90.00000000
_symmetry_Int_Tables_number   1
_chemical_formula_structural   GaAs(H2O3)2
_chemical_formula_sum   'Ga8 As8 H32 O48'
_cell_volume   953.43297533
_cell_formula_units_Z   8
loop_
 _symmetry_equiv_pos_site_id
 _symmetry_equiv_pos_as_xyz
  1  'x, y, z'
loop_
 _atom_site_type_symbol
 _atom_site_label
 _atom_site_symmetry_multiplicity
 _atom_site_fract_x
 _atom_site_fract_y
 _atom_site_fract_z
 _atom_site_occupancy
  Ga  Ga0  1  0.84688100  0.81949200  0.86955600  1
  Ga  Ga1  1  0.34688100  0.68050800  0.13044400  1
  Ga  Ga2  1  0.15311900  0.31949200  0.63044400  1
  Ga  Ga3  1  0.65311900  0.18050800  0.36955600  1
  Ga  Ga4  1  0.15311900  0.18050800  0.13044400  1
  Ga  Ga5  1  0.65311900  0.31949200  0.86955600  1
  Ga  Ga6  1  0.84688100  0.68050800  0.36955600  1
  Ga  Ga7  1  0.34688100  0.81949200  0.63044400  1
  As  As0  1  0.52739000  0.63763100  0.85188400  1
  As  As1  1  0.02739000  0.86236900  0.14811600  1
  As  As2  1  0.47261000  0.13763100  0.64811600  1
  As  As3  1  0.97261000  0.36236900  0.35188400  1
  As  As4  1  0.47261000  0.36236900  0.14811600  1
  As  As5  1  0.97261000  0.13763100  0.85188400  1
  As  As6  1  0.52739000  0.86236900  0.35188400  1
  As  As7  1  0.02739000  0.63763100  0.64811600  1
  H  H0  1  0.66568900  0.90938500  0.68214600  1
  H  H1  1  0.16568900  0.59061500  0.31785400  1
  H  H2  1  0.33431100  0.40938500  0.81785400  1
  H  H3  1  0.83431100  0.09061500  0.18214600  1
  H  H4  1  0.33431100  0.09061500  0.31785400  1
  H  H5  1  0.83431100  0.40938500  0.68214600  1
  H  H6  1  0.66568900  0.59061500  0.18214600  1
  H  H7  1  0.16568900  0.90938500  0.81785400  1
  H  H8  1  0.80672500  0.82211600  0.62912700  1
  H  H9  1  0.30672500  0.67788400  0.37087300  1
  H  H10  1  0.19327500  0.32211600  0.87087300  1
  H  H11  1  0.69327500  0.17788400  0.12912700  1
  H  H12  1  0.19327500  0.17788400  0.37087300  1
  H  H13  1  0.69327500  0.32211600  0.62912700  1
  H  H14  1  0.80672500  0.67788400  0.12912700  1
  H  H15  1  0.30672500  0.82211600  0.87087300  1
  H  H16  1  0.70539400  0.03340200  0.92076700  1
  H  H17  1  0.20539400  0.46659800  0.07923300  1
  H  H18  1  0.29460600  0.53340200  0.57923300  1
  H  H19  1  0.79460600  0.96659800  0.42076700  1
  H  H20  1  0.29460600  0.96659800  0.07923300  1
  H  H21  1  0.79460600  0.53340200  0.92076700  1
  H  H22  1  0.70539400  0.46659800  0.42076700  1
  H  H23  1  0.20539400  0.03340200  0.57923300  1
  H  H24  1  0.58227200  0.91326200  0.92628800  1
  H  H25  1  0.08227200  0.58673800  0.07371200  1
  H  H26  1  0.41772800  0.41326200  0.57371200  1
  H  H27  1  0.91772800  0.08673800  0.42628800  1
  H  H28  1  0.41772800  0.08673800  0.07371200  1
  H  H29  1  0.91772800  0.41326200  0.92628800  1
  H  H30  1  0.58227200  0.58673800  0.42628800  1
  H  H31  1  0.08227200  0.91326200  0.57371200  1
  O  O0  1  0.49314600  0.69923600  0.70334300  1
  O  O1  1  0.99314600  0.80076400  0.29665700  1
  O  O2  1  0.50685400  0.19923600  0.79665700  1
  O  O3  1  0.00685400  0.30076400  0.20334300  1
  O  O4  1  0.50685400  0.30076400  0.29665700  1
  O  O5  1  0.00685400  0.19923600  0.70334300  1
  O  O6  1  0.49314600  0.80076400  0.20334300  1
  O  O7  1  0.99314600  0.69923600  0.79665700  1
  O  O8  1  0.49917000  0.46830700  0.86010800  1
  O  O9  1  0.99917000  0.03169300  0.13989200  1
  O  O10  1  0.50083000  0.96830700  0.63989200  1
  O  O11  1  0.00083000  0.53169300  0.36010800  1
  O  O12  1  0.50083000  0.53169300  0.13989200  1
  O  O13  1  0.00083000  0.96830700  0.86010800  1
  O  O14  1  0.49917000  0.03169300  0.36010800  1
  O  O15  1  0.99917000  0.46830700  0.63989200  1
  O  O16  1  0.41666900  0.72634900  0.95702200  1
  O  O17  1  0.91666900  0.77365100  0.04297800  1
  O  O18  1  0.58333100  0.22634900  0.54297800  1
  O  O19  1  0.08333100  0.27365100  0.45702200  1
  O  O20  1  0.58333100  0.27365100  0.04297800  1
  O  O21  1  0.08333100  0.22634900  0.95702200  1
  O  O22  1  0.41666900  0.77365100  0.45702200  1
  O  O23  1  0.91666900  0.72634900  0.54297800  1
  O  O24  1  0.71153800  0.66410500  0.88812200  1
  O  O25  1  0.21153800  0.83589500  0.11187800  1
  O  O26  1  0.28846200  0.16410500  0.61187800  1
  O  O27  1  0.78846200  0.33589500  0.38812200  1
  O  O28  1  0.28846200  0.33589500  0.11187800  1
  O  O29  1  0.78846200  0.16410500  0.88812200  1
  O  O30  1  0.71153800  0.83589500  0.38812200  1
  O  O31  1  0.21153800  0.66410500  0.61187800  1
  O  O32  1  0.77054900  0.88104300  0.69985200  1
  O  O33  1  0.27054900  0.61895700  0.30014800  1
  O  O34  1  0.22945100  0.38104300  0.80014800  1
  O  O35  1  0.72945100  0.11895700  0.19985200  1
  O  O36  1  0.22945100  0.11895700  0.30014800  1
  O  O37  1  0.72945100  0.38104300  0.69985200  1
  O  O38  1  0.77054900  0.61895700  0.19985200  1
  O  O39  1  0.27054900  0.88104300  0.80014800  1
  O  O40  1  0.68420900  0.93735200  0.94652600  1
  O  O41  1  0.18420900  0.56264800  0.05347400  1
  O  O42  1  0.31579100  0.43735200  0.55347400  1
  O  O43  1  0.81579100  0.06264800  0.44652600  1
  O  O44  1  0.31579100  0.06264800  0.05347400  1
  O  O45  1  0.81579100  0.43735200  0.94652600  1
  O  O46  1  0.68420900  0.56264800  0.44652600  1
  O  O47  1  0.18420900  0.93735200  0.55347400  1
loop_
_geom_bond_atom_site_label_1
_geom_bond_atom_site_label_2
_geom_bond_distance
_geom_bond_site_symmetry_2
Ga0 O7 1.947463 1_555
Ga0 O17 1.980579 1_556
Ga0 O24 1.994302 1_555
Ga0 O32 2.007751 1_555
Ga0 O13 2.045513 1_655
Ga0 O40 2.052864 1_555
Ga1 O6 1.947463 1_555
Ga1 O16 1.980579 1_554
Ga1 O25 1.994302 1_555
Ga1 O33 2.007751 1_555
Ga1 O12 2.045513 1_555
Ga1 O41 2.052864 1_555
Ga2 O5 1.947463 1_555
Ga2 O19 1.980579 1_555
Ga2 O26 1.994302 1_555
Ga2 O34 2.007751 1_555
Ga2 O15 2.045513 1_455
Ga2 O42 2.052864 1_555
Ga3 O4 1.947463 1_555
Ga3 O18 1.980579 1_555
Ga3 O27 1.994302 1_555
Ga3 O35 2.007751 1_555
Ga3 O14 2.045513 1_555
Ga3 O43 2.052864 1_555
Ga4 O3 1.947463 1_555
Ga4 O21 1.980579 1_554
Ga4 O28 1.994302 1_555
Ga4 O36 2.007751 1_555
Ga4 O9 2.045513 1_455
Ga4 O44 2.052864 1_555
Ga5 O2 1.947463 1_555
Ga5 O20 1.980579 1_556
Ga5 O29 1.994302 1_555
Ga5 O37 2.007751 1_555
Ga5 O8 2.045513 1_555
Ga5 O45 2.052864 1_555
Ga6 O1 1.947463 1_555
Ga6 O23 1.980579 1_555
Ga6 O30 1.994302 1_555
Ga6 O38 2.007751 1_555
Ga6 O11 2.045513 1_655
Ga6 O46 2.052864 1_555
Ga7 O0 1.947463 1_555
Ga7 O22 1.980579 1_555
Ga7 O31 1.994302 1_555
Ga7 O39 2.007751 1_555
Ga7 O10 2.045513 1_555
Ga7 O47 2.052864 1_555
As0 O0 1.706222 1_555
As0 O24 1.724554 1_555
As0 O8 1.726435 1_555
As0 O16 1.735917 1_555
As1 O1 1.706222 1_455
As1 O25 1.724554 1_555
As1 O9 1.726435 1_465
As1 O17 1.735917 1_455
As2 O2 1.706222 1_555
As2 O26 1.724554 1_555
As2 O10 1.726435 1_545
As2 O18 1.735917 1_555
As3 O3 1.706222 1_655
As3 O27 1.724554 1_555
As3 O11 1.726435 1_655
As3 O19 1.735917 1_655
As4 O4 1.706222 1_555
As4 O28 1.724554 1_555
As4 O12 1.726435 1_555
As4 O20 1.735917 1_555
As5 O5 1.706222 1_655
As5 O29 1.724554 1_555
As5 O13 1.726435 1_645
As5 O21 1.735917 1_655
As6 O6 1.706222 1_555
As6 O30 1.724554 1_555
As6 O14 1.726435 1_565
As6 O22 1.735917 1_555
As7 O7 1.706222 1_455
As7 O31 1.724554 1_555
As7 O15 1.726435 1_455
As7 O23 1.735917 1_455
H0 O32 1.005195 1_555
H0 O10 1.661205 1_555
H1 O33 1.005195 1_555
H1 O11 1.661205 1_555
H2 O34 1.005195 1_555
H2 O8 1.661205 1_555
H3 O35 1.005195 1_555
H3 O9 1.661205 1_555
H4 O36 1.005195 1_555
H4 O14 1.661205 1_555
H5 O37 1.005195 1_555
H5 O15 1.661205 1_555
H6 O38 1.005195 1_555
H6 O12 1.661205 1_555
H7 O39 1.005195 1_555
H7 O13 1.661205 1_555
H8 O32 1.004869 1_555
H8 O23 1.652635 1_555
H9 O33 1.004869 1_555
H9 O22 1.652635 1_555
H10 O34 1.004869 1_555
H10 O21 1.652635 1_555
H11 O35 1.004869 1_555
H11 O20 1.652635 1_555
H12 O36 1.004869 1_555
H12 O19 1.652635 1_555
H13 O37 1.004869 1_555
H13 O18 1.652635 1_555
H14 O38 1.004869 1_555
H14 O17 1.652635 1_555
H15 O39 1.004869 1_555
H15 O16 1.652635 1_555
H16 O40 1.022474 1_545
H16 O29 1.552937 1_555
H17 O41 1.022474 1_555
H17 O28 1.552937 1_555
H18 O42 1.022474 1_555
H18 O31 1.552937 1_555
H19 O43 1.022474 1_565
H19 O30 1.552937 1_555
H20 O44 1.022474 1_565
H20 O25 1.552937 1_555
H21 O45 1.022474 1_555
H21 O24 1.552937 1_555
H22 O46 1.022474 1_555
H22 O27 1.552937 1_555
H23 O47 1.022474 1_545
H23 O26 1.552937 1_555
H24 O40 0.974279 1_555
H25 O41 0.974279 1_555
H26 O42 0.974279 1_555
H27 O43 0.974279 1_555
H28 O44 0.974279 1_555
H29 O45 0.974279 1_555
H30 O46 0.974279 1_555
H31 O47 0.974279 1_555
