# generated using pymatgen
data_Pr2Mn3CoGe4
_symmetry_space_group_name_H-M   'P 1'
_cell_length_a   4.06181400
_cell_length_b   4.06181400
_cell_length_c   10.89973700
_cell_angle_alpha   90.00000000
_cell_angle_beta   90.00000000
_cell_angle_gamma   90.00000000
_symmetry_Int_Tables_number   1
_chemical_formula_structural   Pr2Mn3CoGe4
_chemical_formula_sum   'Pr2 Mn3 Co1 Ge4'
_cell_volume   179.82749032
_cell_formula_units_Z   1
loop_
 _symmetry_equiv_pos_site_id
 _symmetry_equiv_pos_as_xyz
  1  'x, y, z'
loop_
 _atom_site_type_symbol
 _atom_site_label
 _atom_site_symmetry_multiplicity
 _atom_site_fract_x
 _atom_site_fract_y
 _atom_site_fract_z
 _atom_site_occupancy
  Pr  Pr0  1  0.00000000  0.00000000  0.00185300  1
  Pr  Pr1  1  0.50000000  0.50000000  0.49814700  1
  Mn  Mn0  1  0.50000000  0.00000000  0.75000000  1
  Mn  Mn1  1  0.50000000  0.00000000  0.25000000  1
  Mn  Mn2  1  0.00000000  0.50000000  0.75000000  1
  Co  Co0  1  0.00000000  0.50000000  0.25000000  1
  Ge  Ge0  1  0.50000000  0.50000000  0.12767700  1
  Ge  Ge1  1  0.00000000  0.00000000  0.62507000  1
  Ge  Ge2  1  0.00000000  0.00000000  0.37232300  1
  Ge  Ge3  1  0.50000000  0.50000000  0.87493000  1
loop_
_geom_bond_atom_site_label_1
_geom_bond_atom_site_label_2
_geom_bond_distance
_geom_bond_site_symmetry_2
Mn0 Pr1 3.414723 1_545
Mn0 Pr1 3.414723 1_555
Mn0 Pr0 3.414723 1_656
Mn0 Pr0 3.414723 1_556
Mn1 Pr0 3.382334 1_555
Mn1 Pr0 3.382334 1_655
Mn1 Pr1 3.382334 1_545
Mn1 Pr1 3.382334 1_555
Mn2 Pr1 3.414723 1_455
Mn2 Pr1 3.414723 1_555
Mn2 Pr0 3.414723 1_556
Mn2 Pr0 3.414723 1_566
Co0 Ge0 2.429453 1_455
Co0 Ge2 2.429453 1_555
Co0 Ge0 2.429453 1_555
Co0 Ge2 2.429453 1_565
Co0 Mn1 2.872136 1_565
Co0 Mn1 2.872136 1_455
Co0 Mn1 2.872136 1_555
Co0 Mn1 2.872136 1_465
Co0 Pr0 3.382334 1_555
Co0 Pr1 3.382334 1_455
Co0 Pr0 3.382334 1_565
Co0 Pr1 3.382334 1_555
Ge0 Mn1 2.429453 1_565
Ge0 Mn1 2.429453 1_555
Ge0 Ge3 2.754876 1_554
Ge0 Pr0 3.182772 1_565
Ge0 Pr0 3.182772 1_555
Ge0 Pr0 3.182772 1_655
Ge0 Pr0 3.182772 1_665
Ge1 Mn0 2.445163 1_455
Ge1 Mn0 2.445163 1_555
Ge1 Mn2 2.445163 1_545
Ge1 Mn2 2.445163 1_555
Ge1 Ge2 2.754876 1_555
Ge1 Pr1 3.187952 1_445
Ge1 Pr1 3.187952 1_545
Ge1 Pr1 3.187952 1_555
Ge1 Pr1 3.187952 1_455
Ge2 Mn1 2.429453 1_455
Ge2 Mn1 2.429453 1_555
Ge2 Pr1 3.182772 1_445
Ge2 Pr1 3.182772 1_545
Ge2 Pr1 3.182772 1_555
Ge2 Pr1 3.182772 1_455
Ge3 Mn0 2.445163 1_555
Ge3 Mn2 2.445163 1_655
Ge3 Mn0 2.445163 1_565
Ge3 Mn2 2.445163 1_555
Ge3 Pr0 3.187952 1_666
Ge3 Pr0 3.187952 1_566
Ge3 Pr0 3.187952 1_656
Ge3 Pr0 3.187952 1_556
