# generated using pymatgen
data_ThSi3Ir
_symmetry_space_group_name_H-M   'P 1'
_cell_length_a   5.71712197
_cell_length_b   5.71712197
_cell_length_c   5.71712197
_cell_angle_alpha   136.12387340
_cell_angle_beta   136.12387340
_cell_angle_gamma   63.78888306
_symmetry_Int_Tables_number   1
_chemical_formula_structural   ThSi3Ir
_chemical_formula_sum   'Th1 Si3 Ir1'
_cell_volume   88.57986979
_cell_formula_units_Z   1
loop_
 _symmetry_equiv_pos_site_id
 _symmetry_equiv_pos_as_xyz
  1  'x, y, z'
loop_
 _atom_site_type_symbol
 _atom_site_label
 _atom_site_symmetry_multiplicity
 _atom_site_fract_x
 _atom_site_fract_y
 _atom_site_fract_z
 _atom_site_occupancy
  Th  Th0  1  0.99902945  0.99902945  -0.00000000  1
  Si  Si0  1  0.41030995  0.41030995  -0.00000000  1
  Si  Si1  1  0.26467438  0.76467438  0.50000000  1
  Si  Si2  1  0.76467438  0.26467438  0.50000000  1
  Ir  Ir0  1  0.65531184  0.65531184  0.00000000  1
loop_
_geom_bond_atom_site_label_1
_geom_bond_atom_site_label_2
_geom_bond_distance
_geom_bond_site_symmetry_2
Si0 Si2 2.561470 1_555
Si0 Si1 2.561470 1_544
Si0 Si1 2.561470 1_555
Si0 Si2 2.561470 1_454
Si0 Th0 3.141065 1_444
Si0 Th0 3.141065 1_455
Si0 Th0 3.141065 1_545
Si0 Th0 3.141065 1_556
Si1 Th0 3.120631 1_455
Si1 Th0 3.120631 1_556
Si1 Th0 3.348549 1_456
Si1 Th0 3.348549 1_445
Si2 Th0 3.120631 1_545
Si2 Th0 3.120631 1_556
Si2 Th0 3.348549 1_546
Si2 Th0 3.348549 1_445
Ir0 Si0 2.378463 1_555
Ir0 Si1 2.385249 1_554
Ir0 Si2 2.385249 1_554
Ir0 Si2 2.385249 1_565
Ir0 Si1 2.385249 1_655
Ir0 Th0 3.336788 1_555
Ir0 Th0 3.380283 1_455
Ir0 Th0 3.380283 1_556
Ir0 Th0 3.380283 1_545
Ir0 Th0 3.380283 1_444
