# generated using pymatgen
data_Ga7Pd3
_symmetry_space_group_name_H-M   'P 1'
_cell_length_a   7.61112838
_cell_length_b   7.61112838
_cell_length_c   7.61112838
_cell_angle_alpha   109.47122063
_cell_angle_beta   109.47122063
_cell_angle_gamma   109.47122063
_symmetry_Int_Tables_number   1
_chemical_formula_structural   Ga7Pd3
_chemical_formula_sum   'Ga14 Pd6'
_cell_volume   339.41048303
_cell_formula_units_Z   2
loop_
 _symmetry_equiv_pos_site_id
 _symmetry_equiv_pos_as_xyz
  1  'x, y, z'
loop_
 _atom_site_type_symbol
 _atom_site_label
 _atom_site_symmetry_multiplicity
 _atom_site_fract_x
 _atom_site_fract_y
 _atom_site_fract_z
 _atom_site_occupancy
  Ga  Ga0  1  0.50000000  0.75000000  0.25000000  1
  Ga  Ga1  1  0.75000000  0.50000000  0.25000000  1
  Ga  Ga2  1  0.25000000  0.75000000  0.50000000  1
  Ga  Ga3  1  0.25000000  0.50000000  0.75000000  1
  Ga  Ga4  1  0.50000000  0.25000000  0.75000000  1
  Ga  Ga5  1  0.75000000  0.25000000  0.50000000  1
  Ga  Ga6  1  0.67260739  -0.00000000  -0.00000000  1
  Ga  Ga7  1  -0.00000000  0.67260739  -0.00000000  1
  Ga  Ga8  1  0.00000000  0.00000000  0.67260739  1
  Ga  Ga9  1  0.32739261  0.32739261  0.32739261  1
  Ga  Ga10  1  0.32739261  -0.00000000  0.00000000  1
  Ga  Ga11  1  0.00000000  0.32739261  -0.00000000  1
  Ga  Ga12  1  0.00000000  -0.00000000  0.32739261  1
  Ga  Ga13  1  0.67260739  0.67260739  0.67260739  1
  Pd  Pd0  1  0.00000000  0.34379194  0.34379194  1
  Pd  Pd1  1  0.65620806  -0.00000000  0.65620806  1
  Pd  Pd2  1  0.65620806  0.65620806  -0.00000000  1
  Pd  Pd3  1  -0.00000000  0.65620806  0.65620806  1
  Pd  Pd4  1  0.34379194  0.00000000  0.34379194  1
  Pd  Pd5  1  0.34379194  0.34379194  0.00000000  1
loop_
_geom_bond_atom_site_label_1
_geom_bond_atom_site_label_2
_geom_bond_distance
_geom_bond_site_symmetry_2
Ga0 Pd4 2.590781 1_565
Ga0 Pd5 2.590781 1_555
Ga0 Pd1 2.590781 1_565
Ga0 Pd2 2.590781 1_555
Ga1 Pd3 2.590781 1_655
Ga1 Pd5 2.590781 1_555
Ga1 Pd0 2.590781 1_655
Ga1 Pd2 2.590781 1_555
Ga2 Pd4 2.590781 1_565
Ga2 Pd0 2.590781 1_555
Ga2 Pd3 2.590781 1_555
Ga2 Pd1 2.590781 1_565
Ga3 Pd5 2.590781 1_556
Ga3 Pd0 2.590781 1_555
Ga3 Pd3 2.590781 1_555
Ga3 Pd2 2.590781 1_556
Ga4 Pd5 2.590781 1_556
Ga4 Pd1 2.590781 1_555
Ga4 Pd2 2.590781 1_556
Ga4 Pd4 2.590781 1_555
Ga5 Pd1 2.590781 1_555
Ga5 Pd3 2.590781 1_655
Ga5 Pd0 2.590781 1_655
Ga5 Pd4 2.590781 1_555
Ga6 Pd1 2.577726 1_554
Ga6 Pd0 2.577726 1_655
Ga6 Pd2 2.577726 1_545
Ga7 Pd2 2.577726 1_455
Ga7 Pd4 2.577726 1_565
Ga7 Pd3 2.577726 1_554
Ga8 Pd5 2.577726 1_556
Ga8 Pd3 2.577726 1_545
Ga8 Pd1 2.577726 1_455
Ga9 Pd5 2.577726 1_555
Ga9 Pd0 2.577726 1_555
Ga9 Pd4 2.577726 1_555
Ga10 Pd3 2.577726 1_544
Ga10 Pd5 2.577726 1_555
Ga10 Pd4 2.577726 1_555
Ga10 Ga6 2.627474 1_555
Ga10 Ga9 2.877314 1_555
Ga10 Ga8 2.877314 1_554
Ga10 Ga7 2.877314 1_545
Ga11 Pd0 2.577726 1_555
Ga11 Pd5 2.577726 1_555
Ga11 Pd1 2.577726 1_454
Ga11 Ga7 2.627474 1_555
Ga11 Ga9 2.877314 1_555
Ga11 Ga8 2.877314 1_554
Ga11 Ga6 2.877314 1_455
Ga12 Pd2 2.577726 1_445
Ga12 Pd0 2.577726 1_555
Ga12 Pd4 2.577726 1_555
Ga12 Ga8 2.627474 1_555
Ga12 Ga9 2.877314 1_555
Ga12 Ga7 2.877314 1_545
Ga12 Ga6 2.877314 1_455
Ga13 Pd3 2.577726 1_655
Ga13 Pd1 2.577726 1_565
Ga13 Pd2 2.577726 1_556
Ga13 Ga9 2.627474 1_555
Ga13 Ga7 2.877314 1_656
Ga13 Ga6 2.877314 1_566
Ga13 Ga8 2.877314 1_665
