# generated using pymatgen
data_MgGa3
_symmetry_space_group_name_H-M   'P 1'
_cell_length_a   5.85741440
_cell_length_b   5.85741440
_cell_length_c   4.83178509
_cell_angle_alpha   90.00000000
_cell_angle_beta   90.00000000
_cell_angle_gamma   119.99999281
_symmetry_Int_Tables_number   1
_chemical_formula_structural   MgGa3
_chemical_formula_sum   'Mg2 Ga6'
_cell_volume   143.56552852
_cell_formula_units_Z   2
loop_
 _symmetry_equiv_pos_site_id
 _symmetry_equiv_pos_as_xyz
  1  'x, y, z'
loop_
 _atom_site_type_symbol
 _atom_site_label
 _atom_site_symmetry_multiplicity
 _atom_site_fract_x
 _atom_site_fract_y
 _atom_site_fract_z
 _atom_site_occupancy
  Mg  Mg0  1  0.66666700  0.33333300  0.75000000  1
  Mg  Mg1  1  0.33333300  0.66666700  0.25000000  1
  Ga  Ga0  1  0.16255991  0.83744009  0.75000000  1
  Ga  Ga1  1  0.67488117  0.83744009  0.75000000  1
  Ga  Ga2  1  0.16255991  0.32511883  0.75000000  1
  Ga  Ga3  1  0.83744009  0.16255991  0.25000000  1
  Ga  Ga4  1  0.83744009  0.67488117  0.25000000  1
  Ga  Ga5  1  0.32511883  0.16255991  0.25000000  1
loop_
_geom_bond_atom_site_label_1
_geom_bond_atom_site_label_2
_geom_bond_distance
_geom_bond_site_symmetry_2
Ga0 Ga1 2.856536 1_455
Ga0 Ga2 2.856536 1_565
Ga0 Ga5 2.925146 1_566
Ga0 Ga5 2.925146 1_565
Ga0 Ga4 2.925146 1_456
Ga0 Ga4 2.925146 1_455
Ga0 Mg0 2.929004 1_455
Ga0 Mg0 2.929004 1_565
Ga0 Mg1 2.972923 1_556
Ga0 Mg1 2.972923 1_555
Ga0 Ga1 3.000878 1_555
Ga0 Ga2 3.000878 1_555
Ga1 Ga2 2.856537 1_665
Ga1 Ga4 2.925141 1_556
Ga1 Ga4 2.925141 1_555
Ga1 Ga3 2.925146 1_565
Ga1 Ga3 2.925146 1_566
Ga1 Mg0 2.929004 1_565
Ga1 Mg0 2.929004 1_555
Ga1 Mg1 2.972929 1_556
Ga1 Mg1 2.972929 1_555
Ga1 Ga2 3.000878 1_555
Ga2 Ga5 2.925141 1_556
Ga2 Ga5 2.925141 1_555
Ga2 Ga3 2.925146 1_455
Ga2 Ga3 2.925146 1_456
Ga2 Mg0 2.929004 1_455
Ga2 Mg0 2.929004 1_555
Ga2 Mg1 2.972929 1_556
Ga2 Mg1 2.972929 1_555
Ga3 Ga4 2.856536 1_545
Ga3 Ga5 2.856536 1_655
Ga3 Mg1 2.929004 1_545
Ga3 Mg1 2.929004 1_655
Ga3 Mg0 2.972923 1_554
Ga3 Mg0 2.972923 1_555
Ga3 Ga5 3.000878 1_555
Ga3 Ga4 3.000878 1_555
Ga4 Ga5 2.856537 1_665
Ga4 Mg1 2.929004 1_655
Ga4 Mg1 2.929004 1_555
Ga4 Mg0 2.972929 1_555
Ga4 Mg0 2.972929 1_554
Ga4 Ga5 3.000878 1_555
Ga5 Mg1 2.929004 1_545
Ga5 Mg1 2.929004 1_555
Ga5 Mg0 2.972929 1_554
Ga5 Mg0 2.972929 1_555
