# generated using pymatgen
data_BaV2ZnO7
_symmetry_space_group_name_H-M   'P 1'
_cell_length_a   5.56389300
_cell_length_b   7.55565300
_cell_length_c   15.42861500
_cell_angle_alpha   90.00000000
_cell_angle_beta   90.00000000
_cell_angle_gamma   90.00000000
_symmetry_Int_Tables_number   1
_chemical_formula_structural   BaV2ZnO7
_chemical_formula_sum   'Ba4 V8 Zn4 O28'
_cell_volume   648.60115204
_cell_formula_units_Z   4
loop_
 _symmetry_equiv_pos_site_id
 _symmetry_equiv_pos_as_xyz
  1  'x, y, z'
loop_
 _atom_site_type_symbol
 _atom_site_label
 _atom_site_symmetry_multiplicity
 _atom_site_fract_x
 _atom_site_fract_y
 _atom_site_fract_z
 _atom_site_occupancy
  Ba  Ba0  1  0.25000000  0.64727600  0.28975600  1
  Ba  Ba1  1  0.75000000  0.35272400  0.71024400  1
  Ba  Ba2  1  0.75000000  0.14727600  0.21024400  1
  Ba  Ba3  1  0.25000000  0.85272400  0.78975600  1
  V  V0  1  0.25000000  0.30556400  0.05651600  1
  V  V1  1  0.75000000  0.69443600  0.94348400  1
  V  V2  1  0.75000000  0.80556400  0.44348400  1
  V  V3  1  0.25000000  0.19443600  0.55651600  1
  V  V4  1  0.25000000  0.17248600  0.35938100  1
  V  V5  1  0.75000000  0.82751400  0.64061900  1
  V  V6  1  0.75000000  0.67248600  0.14061900  1
  V  V7  1  0.25000000  0.32751400  0.85938100  1
  Zn  Zn0  1  0.25000000  0.85089000  0.04767300  1
  Zn  Zn1  1  0.75000000  0.14911000  0.95232700  1
  Zn  Zn2  1  0.75000000  0.35089000  0.45232700  1
  Zn  Zn3  1  0.25000000  0.64911000  0.54767300  1
  O  O0  1  0.99764100  0.30804800  0.35642800  1
  O  O1  1  0.00235900  0.69195200  0.64357200  1
  O  O2  1  0.00235900  0.80804800  0.14357200  1
  O  O3  1  0.49764100  0.69195200  0.64357200  1
  O  O4  1  0.99764100  0.19195200  0.85642800  1
  O  O5  1  0.50235900  0.30804800  0.35642800  1
  O  O6  1  0.50235900  0.19195200  0.85642800  1
  O  O7  1  0.49764100  0.80804800  0.14357200  1
  O  O8  1  0.99802300  0.16876800  0.04996200  1
  O  O9  1  0.00197700  0.83123200  0.95003800  1
  O  O10  1  0.00197700  0.66876800  0.45003800  1
  O  O11  1  0.49802300  0.83123200  0.95003800  1
  O  O12  1  0.99802300  0.33123200  0.54996200  1
  O  O13  1  0.50197700  0.16876800  0.04996200  1
  O  O14  1  0.50197700  0.33123200  0.54996200  1
  O  O15  1  0.49802300  0.66876800  0.45003800  1
  O  O16  1  0.25000000  0.05139100  0.46125100  1
  O  O17  1  0.75000000  0.94860900  0.53874900  1
  O  O18  1  0.75000000  0.55139100  0.03874900  1
  O  O19  1  0.25000000  0.44860900  0.96125100  1
  O  O20  1  0.25000000  0.04107700  0.27049800  1
  O  O21  1  0.75000000  0.95892300  0.72950200  1
  O  O22  1  0.75000000  0.54107700  0.22950200  1
  O  O23  1  0.25000000  0.45892300  0.77049800  1
  O  O24  1  0.25000000  0.41849500  0.15093400  1
  O  O25  1  0.75000000  0.58150500  0.84906600  1
  O  O26  1  0.75000000  0.91849500  0.34906600  1
  O  O27  1  0.25000000  0.08150500  0.65093400  1
loop_
_geom_bond_atom_site_label_1
_geom_bond_atom_site_label_2
_geom_bond_distance
_geom_bond_site_symmetry_2
Ba0 O24 2.752356 1_555
Ba0 O15 2.836560 1_555
Ba0 O10 2.836560 1_555
Ba0 O2 2.908772 1_555
Ba0 O7 2.908772 1_555
Ba0 O20 2.990222 1_565
Ba0 O22 3.040937 1_555
Ba0 O22 3.040937 1_455
Ba0 O5 3.098234 1_555
Ba0 O0 3.098234 1_455
Ba1 O25 2.752356 1_555
Ba1 O14 2.836560 1_555
Ba1 O12 2.836560 1_555
Ba1 O4 2.908772 1_555
Ba1 O6 2.908772 1_555
Ba1 O21 2.990222 1_545
Ba1 O23 3.040937 1_655
Ba1 O23 3.040937 1_555
Ba1 O3 3.098234 1_555
Ba1 O1 3.098234 1_655
Ba2 O26 2.752356 1_545
Ba2 O8 2.836560 1_555
Ba2 O13 2.836560 1_555
Ba2 O5 2.908772 1_555
Ba2 O0 2.908772 1_555
Ba2 O22 2.990222 1_555
Ba2 O20 3.040937 1_655
Ba2 O20 3.040937 1_555
Ba2 O2 3.098234 1_645
Ba2 O7 3.098234 1_545
Ba3 O27 2.752356 1_565
Ba3 O11 2.836560 1_555
Ba3 O9 2.836560 1_555
Ba3 O3 2.908772 1_555
Ba3 O1 2.908772 1_555
Ba3 O23 2.990222 1_555
Ba3 O21 3.040937 1_555
Ba3 O21 3.040937 1_455
Ba3 O6 3.098234 1_565
Ba3 O4 3.098234 1_465
O0 V4 1.738584 1_655
O0 Zn2 2.047542 1_555
O1 V5 1.738584 1_455
O1 Zn3 2.047542 1_555
O2 V6 1.738584 1_455
O2 Zn0 2.047542 1_555
O3 V5 1.738584 1_555
O3 Zn3 2.047542 1_555
O4 V7 1.738584 1_655
O4 Zn1 2.047542 1_555
O5 V4 1.738584 1_555
O5 Zn2 2.047542 1_555
O6 V7 1.738584 1_555
O6 Zn1 2.047542 1_555
O7 V6 1.738584 1_555
O7 Zn0 2.047542 1_555
O8 V0 1.744720 1_655
O8 Zn1 2.048303 1_554
O9 V1 1.744720 1_455
O9 Zn0 2.048303 1_556
O10 V2 1.744720 1_455
O10 Zn3 2.048303 1_555
O11 V1 1.744720 1_555
O11 Zn0 2.048303 1_556
O12 V3 1.744720 1_655
O12 Zn2 2.048303 1_555
O13 V0 1.744720 1_555
O13 Zn1 2.048303 1_554
O14 V3 1.744720 1_555
O14 Zn2 2.048303 1_555
O15 V2 1.744720 1_555
O15 Zn3 2.048303 1_555
O16 V4 1.818631 1_555
O16 V3 1.824406 1_555
O17 V5 1.818631 1_555
O17 V2 1.824406 1_555
O18 V6 1.818631 1_555
O18 V1 1.824406 1_554
O19 V7 1.818631 1_555
O19 V0 1.824406 1_556
O20 V4 1.693042 1_555
O21 V5 1.693042 1_555
O22 V6 1.693042 1_555
O23 V7 1.693042 1_555
O24 V0 1.688240 1_555
O25 V1 1.688240 1_555
O26 V2 1.688240 1_555
O27 V3 1.688240 1_555
