# generated using pymatgen
data_Dy3Zn11
_symmetry_space_group_name_H-M   'P 1'
_cell_length_a   4.33612113
_cell_length_b   8.04956918
_cell_length_c   8.04956918
_cell_angle_alpha   65.68368492
_cell_angle_beta   74.37508380
_cell_angle_gamma   74.37508380
_symmetry_Int_Tables_number   1
_chemical_formula_structural   Dy3Zn11
_chemical_formula_sum   'Dy3 Zn11'
_cell_volume   242.52333871
_cell_formula_units_Z   1
loop_
 _symmetry_equiv_pos_site_id
 _symmetry_equiv_pos_as_xyz
  1  'x, y, z'
loop_
 _atom_site_type_symbol
 _atom_site_label
 _atom_site_symmetry_multiplicity
 _atom_site_fract_x
 _atom_site_fract_y
 _atom_site_fract_z
 _atom_site_occupancy
  Dy  Dy0  1  0.00000000  -0.00000000  0.00000000  1
  Dy  Dy1  1  0.29324461  0.70675539  0.70675539  1
  Dy  Dy2  1  0.70675539  0.29324461  0.29324461  1
  Zn  Zn0  1  0.00000000  0.50000000  0.50000000  1
  Zn  Zn1  1  0.50000000  0.31712065  0.68287935  1
  Zn  Zn2  1  0.50000000  0.68287935  0.31712065  1
  Zn  Zn3  1  0.34254477  0.29762401  0.01728345  1
  Zn  Zn4  1  0.65745523  0.70237599  0.98271655  1
  Zn  Zn5  1  0.34254477  0.01728345  0.29762401  1
  Zn  Zn6  1  0.65745523  0.98271655  0.70237599  1
  Zn  Zn7  1  0.13923269  0.57814459  0.14339103  1
  Zn  Zn8  1  0.86076731  0.42185541  0.85660897  1
  Zn  Zn9  1  0.13923269  0.14339103  0.57814459  1
  Zn  Zn10  1  0.86076731  0.85660897  0.42185541  1
loop_
_geom_bond_atom_site_label_1
_geom_bond_atom_site_label_2
_geom_bond_distance
_geom_bond_site_symmetry_2
Dy0 Zn8 3.044836 1_454
Dy0 Zn10 3.044836 1_445
Dy0 Zn7 3.044836 1_545
Dy0 Zn9 3.044836 1_554
Dy0 Zn5 3.204336 1_555
Dy0 Zn3 3.204336 1_555
Dy0 Zn6 3.204336 1_444
Dy0 Zn4 3.204336 1_444
Dy0 Zn6 3.204345 1_544
Dy0 Zn4 3.204345 1_544
Dy0 Zn5 3.204345 1_455
Dy0 Zn3 3.204345 1_455
Dy1 Zn10 3.008475 1_555
Dy1 Zn8 3.008475 1_555
Dy1 Zn10 3.008479 1_455
Dy1 Zn8 3.008479 1_455
Dy1 Zn6 3.037268 1_455
Dy1 Zn4 3.037268 1_455
Dy1 Zn6 3.037277 1_555
Dy1 Zn4 3.037277 1_555
Dy1 Zn1 3.092988 1_555
Dy1 Zn2 3.092988 1_555
Dy1 Zn7 3.159508 1_556
Dy1 Zn9 3.159508 1_565
Dy1 Zn3 3.204515 1_556
Dy1 Zn5 3.204515 1_565
Dy1 Zn0 3.423098 1_555
Dy1 Zn0 3.423098 1_655
Dy2 Zn7 3.008475 1_555
Dy2 Zn9 3.008475 1_555
Dy2 Zn7 3.008479 1_655
Dy2 Zn9 3.008479 1_655
Dy2 Zn5 3.037268 1_655
Dy2 Zn3 3.037268 1_655
Dy2 Zn3 3.037277 1_555
Dy2 Zn5 3.037277 1_555
Dy2 Zn1 3.092988 1_555
Dy2 Zn2 3.092988 1_555
Dy2 Zn10 3.159508 1_545
Dy2 Zn8 3.159508 1_554
Dy2 Zn6 3.204515 1_545
Dy2 Zn4 3.204515 1_554
Dy2 Zn0 3.423098 1_655
Dy2 Zn0 3.423098 1_555
Zn0 Zn10 2.604648 1_455
Zn0 Zn8 2.604648 1_455
Zn0 Zn7 2.604648 1_555
Zn0 Zn9 2.604648 1_555
Zn0 Zn1 2.692573 1_455
Zn0 Zn1 2.692573 1_555
Zn0 Zn2 2.692573 1_555
Zn0 Zn2 2.692573 1_455
Zn1 Zn6 2.540950 1_545
Zn1 Zn3 2.540950 1_556
Zn1 Zn8 2.823715 1_555
Zn1 Zn9 2.823715 1_555
Zn1 Zn9 2.823719 1_655
Zn1 Zn8 2.823719 1_455
Zn2 Zn4 2.540950 1_554
Zn2 Zn5 2.540950 1_565
Zn2 Zn7 2.823715 1_555
Zn2 Zn7 2.823719 1_655
Zn3 Zn5 2.447630 1_555
Zn3 Zn8 2.510353 1_454
Zn3 Zn8 2.510360 1_554
Zn3 Zn7 2.690697 1_555
Zn4 Zn6 2.447630 1_555
Zn4 Zn7 2.510353 1_656
Zn4 Zn7 2.510360 1_556
Zn4 Zn8 2.690697 1_555
Zn5 Zn9 2.690697 1_555
Zn6 Zn9 2.510353 1_665
Zn6 Zn9 2.510360 1_565
Zn10 Zn5 2.510353 1_665
Zn10 Zn5 2.510360 1_565
Zn10 Zn6 2.690697 1_555
Zn10 Zn2 2.823715 1_555
Zn10 Zn2 2.823719 1_655
