# generated using pymatgen
data_Ba10Ti8NbNiO30
_symmetry_space_group_name_H-M   'P 1'
_cell_length_a   21.13695170
_cell_length_b   21.13695170
_cell_length_c   21.13695170
_cell_angle_alpha   164.49651255
_cell_angle_beta   164.49651255
_cell_angle_gamma   21.99319031
_symmetry_Int_Tables_number   1
_chemical_formula_structural   Ba10Ti8NbNiO30
_chemical_formula_sum   'Ba10 Ti8 Nb1 Ni1 O30'
_cell_volume   674.59133228
_cell_formula_units_Z   1
loop_
 _symmetry_equiv_pos_site_id
 _symmetry_equiv_pos_as_xyz
  1  'x, y, z'
loop_
 _atom_site_type_symbol
 _atom_site_label
 _atom_site_symmetry_multiplicity
 _atom_site_fract_x
 _atom_site_fract_y
 _atom_site_fract_z
 _atom_site_occupancy
  Ba  Ba0  1  0.65032700  0.15032700  0.50000000  1
  Ba  Ba1  1  0.05018100  0.55018100  0.50000000  1
  Ba  Ba2  1  0.44981900  0.94981900  0.50000000  1
  Ba  Ba3  1  0.84967300  0.34967300  0.50000000  1
  Ba  Ba4  1  0.25000000  0.75000000  0.50000000  1
  Ba  Ba5  1  0.55018100  0.05018100  0.50000000  1
  Ba  Ba6  1  0.94981900  0.44981900  0.50000000  1
  Ba  Ba7  1  0.34967300  0.84967300  0.50000000  1
  Ba  Ba8  1  0.75000000  0.25000000  0.50000000  1
  Ba  Ba9  1  0.15032700  0.65032700  0.50000000  1
  Ti  Ti0  1  0.90260400  0.90260400  0.00000000  1
  Ti  Ti1  1  0.29690400  0.29690400  0.00000000  1
  Ti  Ti2  1  0.70309600  0.70309600  0.00000000  1
  Ti  Ti3  1  0.09739600  0.09739600  0.00000000  1
  Ti  Ti4  1  0.39697100  0.39697100  0.00000000  1
  Ti  Ti5  1  0.80288800  0.80288800  0.00000000  1
  Ti  Ti6  1  0.19711200  0.19711200  0.00000000  1
  Ti  Ti7  1  0.60302900  0.60302900  0.00000000  1
  Nb  Nb0  1  0.50000000  0.50000000  0.00000000  1
  Ni  Ni0  1  0.00000000  0.00000000  0.00000000  1
  O  O0  1  0.15289800  0.15289800  0.00000000  1
  O  O1  1  0.55009100  0.55009100  0.00000000  1
  O  O2  1  0.94632800  0.94632800  0.00000000  1
  O  O3  1  0.35164100  0.35164100  0.00000000  1
  O  O4  1  0.74766400  0.74766400  0.00000000  1
  O  O5  1  0.85154600  0.35054600  0.00000000  1
  O  O6  1  0.25104200  0.74895800  0.00000000  1
  O  O7  1  0.64945400  0.14845400  0.00000000  1
  O  O8  1  0.04947600  0.54982100  0.00000000  1
  O  O9  1  0.45017900  0.95052400  0.00000000  1
  O  O10  1  0.85154600  0.85154600  0.50099900  1
  O  O11  1  0.25104200  0.25104200  0.50208400  1
  O  O12  1  0.64945400  0.64945400  0.50099900  1
  O  O13  1  0.04947600  0.04947600  0.49965500  1
  O  O14  1  0.45017900  0.45017900  0.49965500  1
  O  O15  1  0.05367200  0.05367200  0.00000000  1
  O  O16  1  0.44990900  0.44990900  0.00000000  1
  O  O17  1  0.84710200  0.84710200  0.00000000  1
  O  O18  1  0.25233600  0.25233600  0.00000000  1
  O  O19  1  0.64835900  0.64835900  0.00000000  1
  O  O20  1  0.35054600  0.85154600  0.00000000  1
  O  O21  1  0.74895800  0.25104200  0.00000000  1
  O  O22  1  0.14845400  0.64945400  0.00000000  1
  O  O23  1  0.54982100  0.04947600  0.00000000  1
  O  O24  1  0.95052400  0.45017900  0.00000000  1
  O  O25  1  0.35054600  0.35054600  0.49900100  1
  O  O26  1  0.74895800  0.74895800  0.49791600  1
  O  O27  1  0.14845400  0.14845400  0.49900100  1
  O  O28  1  0.54982100  0.54982100  0.50034500  1
  O  O29  1  0.95052400  0.95052400  0.50034500  1
loop_
_geom_bond_atom_site_label_1
_geom_bond_atom_site_label_2
_geom_bond_distance
_geom_bond_site_symmetry_2
Ba0 O19 2.852144 1_556
Ba0 O19 2.852144 1_545
Ba0 O0 2.852971 1_555
Ba0 O0 2.852971 1_656
Ba0 O10 2.871616 1_545
Ba0 O5 2.871631 1_556
Ba0 O20 2.871631 1_545
Ba0 O25 2.871646 1_555
Ba0 O14 2.893682 1_555
Ba0 O9 2.893682 1_545
Ba0 O24 2.893682 1_556
Ba0 O29 2.893682 1_545
Ba1 O1 2.850977 1_455
Ba1 O1 2.850977 1_556
Ba1 O15 2.854653 1_555
Ba1 O15 2.854653 1_566
Ba1 O11 2.898357 1_555
Ba1 O6 2.898357 1_556
Ba1 O26 2.898357 1_455
Ba1 O21 2.898357 1_455
Ba1 O25 2.918793 1_555
Ba1 O20 2.918808 1_556
Ba1 O5 2.918808 1_455
Ba1 O10 2.918823 1_455
Ba2 O16 2.850977 1_555
Ba2 O16 2.850977 1_566
Ba2 O2 2.854653 1_455
Ba2 O2 2.854653 1_556
Ba2 O11 2.898357 1_565
Ba2 O26 2.898357 1_555
Ba2 O6 2.898357 1_555
Ba2 O21 2.898357 1_566
Ba2 O12 2.918793 1_555
Ba2 O7 2.918808 1_566
Ba2 O22 2.918808 1_555
Ba2 O27 2.918823 1_565
Ba3 O3 2.852144 1_656
Ba3 O3 2.852144 1_555
Ba3 O17 2.852971 1_545
Ba3 O17 2.852971 1_556
Ba3 O27 2.871616 1_655
Ba3 O7 2.871631 1_555
Ba3 O22 2.871631 1_656
Ba3 O12 2.871646 1_555
Ba3 O13 2.893682 1_655
Ba3 O8 2.893682 1_656
Ba3 O23 2.893682 1_555
Ba3 O28 2.893682 1_555
Ba4 O18 2.852623 1_555
Ba4 O4 2.852623 1_556
Ba4 O4 2.852623 1_455
Ba4 O18 2.852623 1_566
Ba4 O9 2.882509 1_556
Ba4 O24 2.882509 1_455
Ba4 O29 2.882509 1_455
Ba4 O28 2.882509 1_555
Ba4 O14 2.882509 1_555
Ba4 O8 2.882509 1_555
Ba4 O13 2.882509 1_565
Ba4 O23 2.882509 1_566
Ba5 O1 2.850977 1_545
Ba5 O1 2.850977 1_556
Ba5 O15 2.854653 1_555
Ba5 O15 2.854653 1_656
Ba5 O6 2.898357 1_545
Ba5 O21 2.898357 1_556
Ba5 O26 2.898357 1_545
Ba5 O11 2.898357 1_555
Ba5 O25 2.918793 1_555
Ba5 O20 2.918808 1_545
Ba5 O5 2.918808 1_556
Ba5 O10 2.918823 1_545
Ba6 O16 2.850977 1_555
Ba6 O16 2.850977 1_656
Ba6 O2 2.854653 1_545
Ba6 O2 2.854653 1_556
Ba6 O26 2.898357 1_555
Ba6 O21 2.898357 1_555
Ba6 O6 2.898357 1_656
Ba6 O11 2.898357 1_655
Ba6 O12 2.918793 1_555
Ba6 O22 2.918808 1_656
Ba6 O7 2.918808 1_555
Ba6 O27 2.918823 1_655
Ba7 O3 2.852144 1_566
Ba7 O3 2.852144 1_555
Ba7 O17 2.852971 1_556
Ba7 O17 2.852971 1_455
Ba7 O27 2.871616 1_565
Ba7 O7 2.871631 1_566
Ba7 O22 2.871631 1_555
Ba7 O12 2.871646 1_555
Ba7 O8 2.893682 1_555
Ba7 O13 2.893682 1_565
Ba7 O23 2.893682 1_566
Ba7 O28 2.893682 1_555
Ba8 O4 2.852623 1_545
Ba8 O4 2.852623 1_556
Ba8 O18 2.852623 1_555
Ba8 O18 2.852623 1_656
Ba8 O9 2.882509 1_545
Ba8 O24 2.882509 1_556
Ba8 O29 2.882509 1_545
Ba8 O28 2.882509 1_555
Ba8 O14 2.882509 1_555
Ba8 O23 2.882509 1_555
Ba8 O13 2.882509 1_655
Ba8 O8 2.882509 1_656
Ba9 O19 2.852144 1_455
Ba9 O19 2.852144 1_556
Ba9 O0 2.852971 1_555
Ba9 O0 2.852971 1_566
Ba9 O10 2.871616 1_455
Ba9 O5 2.871631 1_455
Ba9 O20 2.871631 1_556
Ba9 O25 2.871646 1_555
Ba9 O14 2.893682 1_555
Ba9 O9 2.893682 1_556
Ba9 O24 2.893682 1_455
Ba9 O29 2.893682 1_455
Nb0 O11 2.007541 1_554
Nb0 O21 2.007541 1_555
Nb0 O6 2.007541 1_555
Nb0 O26 2.007541 1_555
Nb0 O1 2.078661 1_555
Nb0 O16 2.078661 1_555
Ni0 O26 2.024346 1_444
Ni0 O11 2.024346 1_555
Ni0 O6 2.024346 1_545
Ni0 O21 2.024346 1_455
Ni0 O15 2.227264 1_555
Ni0 O2 2.227264 1_445
O0 Ti6 1.834779 1_555
O0 Ti3 2.303205 1_555
O1 Ti7 2.196805 1_555
O2 Ti0 1.814445 1_555
O3 Ti4 1.881090 1_555
O3 Ti1 2.271459 1_555
O4 Ti2 1.849469 1_555
O4 Ti5 2.291669 1_555
O5 Ti3 2.017605 1_655
O5 Ti7 2.021651 1_555
O7 Ti0 2.017605 1_545
O7 Ti4 2.021651 1_555
O8 Ti5 2.019033 1_455
O8 Ti1 2.020547 1_555
O9 Ti6 2.019033 1_565
O9 Ti2 2.020547 1_555
O10 Ti3 2.017611 1_666
O10 Ti7 2.021646 1_555
O12 Ti0 2.017608 1_556
O12 Ti4 2.021648 1_555
O13 Ti5 2.019033 1_445
O13 Ti1 2.020547 1_556
O14 Ti6 2.019033 1_555
O14 Ti2 2.020547 1_556
O15 Ti3 1.814445 1_555
O16 Ti4 2.196805 1_555
O17 Ti5 1.834779 1_555
O17 Ti0 2.303205 1_555
O18 Ti1 1.849469 1_555
O18 Ti6 2.291669 1_555
O19 Ti7 1.881090 1_555
O19 Ti2 2.271459 1_555
O20 Ti3 2.017605 1_565
O20 Ti7 2.021651 1_555
O22 Ti0 2.017605 1_455
O22 Ti4 2.021651 1_555
O23 Ti5 2.019033 1_545
O23 Ti1 2.020547 1_555
O24 Ti6 2.019033 1_655
O24 Ti2 2.020547 1_555
O25 Ti3 2.017608 1_555
O25 Ti7 2.021648 1_556
O27 Ti0 2.017611 1_445
O27 Ti4 2.021646 1_556
O28 Ti5 2.019033 1_556
O28 Ti1 2.020547 1_555
O29 Ti6 2.019033 1_666
O29 Ti2 2.020547 1_555
