# generated using pymatgen
data_Sm3InN
_symmetry_space_group_name_H-M   'P 1'
_cell_length_a   4.94285860
_cell_length_b   4.94285653
_cell_length_c   4.94285653
_cell_angle_alpha   90.00000000
_cell_angle_beta   90.00000000
_cell_angle_gamma   90.00000000
_symmetry_Int_Tables_number   1
_chemical_formula_structural   Sm3InN
_chemical_formula_sum   'Sm3 In1 N1'
_cell_volume   120.76308437
_cell_formula_units_Z   1
loop_
 _symmetry_equiv_pos_site_id
 _symmetry_equiv_pos_as_xyz
  1  'x, y, z'
loop_
 _atom_site_type_symbol
 _atom_site_label
 _atom_site_symmetry_multiplicity
 _atom_site_fract_x
 _atom_site_fract_y
 _atom_site_fract_z
 _atom_site_occupancy
  Sm  Sm0  1  0.50000000  0.50000000  -0.00000000  1
  Sm  Sm1  1  -0.00000000  0.50000000  0.50000000  1
  Sm  Sm2  1  0.50000000  0.00000000  0.50000000  1
  In  In0  1  0.00000000  -0.00000000  -0.00000000  1
  N  N0  1  0.50000000  0.50000000  0.50000000  1
loop_
_geom_bond_atom_site_label_1
_geom_bond_atom_site_label_2
_geom_bond_distance
_geom_bond_site_symmetry_2
In0 Sm1 3.495127 1_554
In0 Sm1 3.495127 1_544
In0 Sm1 3.495127 1_555
In0 Sm1 3.495127 1_545
In0 Sm2 3.495128 1_455
In0 Sm0 3.495128 1_545
In0 Sm2 3.495128 1_555
In0 Sm2 3.495128 1_554
In0 Sm2 3.495128 1_454
In0 Sm0 3.495128 1_555
In0 Sm0 3.495128 1_455
In0 Sm0 3.495128 1_445
N0 Sm2 2.471428 1_555
N0 Sm2 2.471428 1_565
N0 Sm0 2.471428 1_556
N0 Sm0 2.471428 1_555
N0 Sm1 2.471429 1_655
N0 Sm1 2.471429 1_555
