# generated using pymatgen
data_La4As2S5O4
_symmetry_space_group_name_H-M   'P 1'
_cell_length_a   4.21978700
_cell_length_b   8.31534005
_cell_length_c   9.69501459
_cell_angle_alpha   101.99036556
_cell_angle_beta   102.11269276
_cell_angle_gamma   91.92773142
_symmetry_Int_Tables_number   1
_chemical_formula_structural   La4As2S5O4
_chemical_formula_sum   'La4 As2 S5 O4'
_cell_volume   324.29499348
_cell_formula_units_Z   1
loop_
 _symmetry_equiv_pos_site_id
 _symmetry_equiv_pos_as_xyz
  1  'x, y, z'
loop_
 _atom_site_type_symbol
 _atom_site_label
 _atom_site_symmetry_multiplicity
 _atom_site_fract_x
 _atom_site_fract_y
 _atom_site_fract_z
 _atom_site_occupancy
  La  La0  1  0.18371000  0.58877100  0.36953100  1
  La  La1  1  0.19082300  0.09213400  0.37178000  1
  La  La2  1  0.81353900  0.40636300  0.63187200  1
  La  La3  1  0.81850400  0.90452400  0.62695300  1
  As  As0  1  0.48981600  0.36002600  0.99962600  1
  As  As1  1  0.75953200  0.79189700  0.00032600  1
  S  S0  1  0.37617400  0.70814500  0.78959800  1
  S  S1  1  0.44143500  0.17087600  0.78894000  1
  S  S2  1  0.65215300  0.27760400  0.21132800  1
  S  S3  1  0.58477700  0.81299200  0.21028500  1
  S  S4  1  0.95354100  0.53242500  0.99985400  1
  O  O0  1  0.75412500  0.62239600  0.49865900  1
  O  O1  1  0.75684400  0.12623600  0.50113200  1
  O  O2  1  0.25622500  0.37641400  0.50376300  1
  O  O3  1  0.25480200  0.87219800  0.49635300  1
loop_
_geom_bond_atom_site_label_1
_geom_bond_atom_site_label_2
_geom_bond_distance
_geom_bond_site_symmetry_2
La0 O2 2.393615 1_555
La0 O3 2.397887 1_555
La0 O0 2.402618 1_455
La0 O0 2.446198 1_555
La0 S2 3.255076 1_455
La0 S3 3.287009 1_555
La0 S4 3.437861 1_454
La0 S3 3.481805 1_455
La0 S2 3.594781 1_555
La1 O3 2.385433 1_545
La1 O2 2.419208 1_555
La1 O1 2.420278 1_455
La1 O1 2.430556 1_555
La1 S2 3.116721 1_455
La1 S3 3.231826 1_545
La1 S2 3.264010 1_555
La1 S3 3.284759 1_445
La2 O1 2.387096 1_555
La2 O2 2.396164 1_555
La2 O0 2.411684 1_555
La2 O2 2.443498 1_655
La2 S1 3.264089 1_555
La2 S0 3.279253 1_655
La2 S4 3.419873 1_555
La2 S0 3.455908 1_555
La2 S1 3.615006 1_655
La3 O0 2.393210 1_555
La3 O1 2.405843 1_565
La3 O3 2.425954 1_555
La3 O3 2.436230 1_655
La3 S1 3.121550 1_565
La3 S0 3.234486 1_655
La3 S1 3.272934 1_665
La3 S0 3.276730 1_555
As0 S1 2.270746 1_555
As0 S2 2.275426 1_556
As0 S4 2.385870 1_555
As0 S4 2.719401 1_455
As1 S3 2.282183 1_555
As1 S0 2.285140 1_554
As1 S4 2.332764 1_554
