# generated using pymatgen
data_NaZn(BH4)3
_symmetry_space_group_name_H-M   'P 1'
_cell_length_a   4.47795200
_cell_length_b   8.66787500
_cell_length_c   18.83422080
_cell_angle_alpha   83.02529784
_cell_angle_beta   90.00000000
_cell_angle_gamma   90.00000000
_symmetry_Int_Tables_number   1
_chemical_formula_structural   NaZn(BH4)3
_chemical_formula_sum   'Na4 Zn4 B12 H48'
_cell_volume   725.62784933
_cell_formula_units_Z   4
loop_
 _symmetry_equiv_pos_site_id
 _symmetry_equiv_pos_as_xyz
  1  'x, y, z'
loop_
 _atom_site_type_symbol
 _atom_site_label
 _atom_site_symmetry_multiplicity
 _atom_site_fract_x
 _atom_site_fract_y
 _atom_site_fract_z
 _atom_site_occupancy
  Na  Na0  1  0.65499800  0.31451500  0.36208900  1
  Na  Na1  1  0.15499800  0.68548500  0.13791100  1
  Na  Na2  1  0.34500200  0.68548500  0.63791100  1
  Na  Na3  1  0.84500200  0.31451500  0.86208900  1
  Zn  Zn0  1  0.95625900  0.77464300  0.39358500  1
  Zn  Zn1  1  0.45625900  0.22535700  0.10641500  1
  Zn  Zn2  1  0.04374100  0.22535700  0.60641500  1
  Zn  Zn3  1  0.54374100  0.77464300  0.89358500  1
  B  B0  1  0.46558500  0.27784700  0.98811600  1
  B  B1  1  0.96558500  0.72215300  0.51188400  1
  B  B2  1  0.53441500  0.72215300  0.01188400  1
  B  B3  1  0.03441500  0.27784700  0.48811600  1
  B  B4  1  0.38454200  0.59465700  0.82293600  1
  B  B5  1  0.88454200  0.40534300  0.67706400  1
  B  B6  1  0.61545800  0.40534300  0.17706400  1
  B  B7  1  0.11545800  0.59465700  0.32293600  1
  B  B8  1  0.75716300  0.99814800  0.35125300  1
  B  B9  1  0.25716300  0.00185200  0.14874700  1
  B  B10  1  0.24283700  0.00185200  0.64874700  1
  B  B11  1  0.74283700  0.99814800  0.85125300  1
  H  H0  1  0.63276500  0.17793400  0.02087300  1
  H  H1  1  0.13276500  0.82206600  0.47912700  1
  H  H2  1  0.36723500  0.82206600  0.97912700  1
  H  H3  1  0.86723500  0.17793400  0.52087300  1
  H  H4  1  0.27814700  0.33660100  0.02660300  1
  H  H5  1  0.77814700  0.66339900  0.47339700  1
  H  H6  1  0.72185300  0.66339900  0.97339700  1
  H  H7  1  0.22185300  0.33660100  0.52660300  1
  H  H8  1  0.32256200  0.21073000  0.94659200  1
  H  H9  1  0.82256200  0.78927000  0.55340800  1
  H  H10  1  0.67743800  0.78927000  0.05340800  1
  H  H11  1  0.17743800  0.21073000  0.44659200  1
  H  H12  1  0.62152500  0.38488500  0.96277300  1
  H  H13  1  0.12152500  0.61511500  0.53722700  1
  H  H14  1  0.37847500  0.61511500  0.03722700  1
  H  H15  1  0.87847500  0.38488500  0.46277300  1
  H  H16  1  0.31358900  0.64613000  0.76291100  1
  H  H17  1  0.81358900  0.35387000  0.73708900  1
  H  H18  1  0.68641100  0.35387000  0.23708900  1
  H  H19  1  0.18641100  0.64613000  0.26291100  1
  H  H20  1  0.22529500  0.66242500  0.86470100  1
  H  H21  1  0.72529500  0.33757500  0.63529900  1
  H  H22  1  0.77470500  0.33757500  0.13529900  1
  H  H23  1  0.27470500  0.66242500  0.36470100  1
  H  H24  1  0.65707300  0.61387400  0.83114500  1
  H  H25  1  0.15707300  0.38612600  0.66885500  1
  H  H26  1  0.34292700  0.38612600  0.16885500  1
  H  H27  1  0.84292700  0.61387400  0.33114500  1
  H  H28  1  0.33110600  0.45683800  0.83843500  1
  H  H29  1  0.83110600  0.54316200  0.66156500  1
  H  H30  1  0.66889400  0.54316200  0.16156500  1
  H  H31  1  0.16889400  0.45683800  0.33843500  1
  H  H32  1  0.67211900  0.05803200  0.40274100  1
  H  H33  1  0.17211900  0.94196800  0.09725900  1
  H  H34  1  0.32788100  0.94196800  0.59725900  1
  H  H35  1  0.82788100  0.05803200  0.90274100  1
  H  H36  1  0.71795200  0.06888400  0.29285500  1
  H  H37  1  0.21795200  0.93111600  0.20714500  1
  H  H38  1  0.28204800  0.93111600  0.70714500  1
  H  H39  1  0.78204800  0.06888400  0.79285500  1
  H  H40  1  0.61338700  0.87459500  0.35053000  1
  H  H41  1  0.11338700  0.12540500  0.14947000  1
  H  H42  1  0.38661300  0.12540500  0.64947000  1
  H  H43  1  0.88661300  0.87459500  0.85053000  1
  H  H44  1  0.03537000  0.97840800  0.35580400  1
  H  H45  1  0.53537000  0.02159200  0.14419600  1
  H  H46  1  0.96463000  0.02159200  0.64419600  1
  H  H47  1  0.46463000  0.97840800  0.85580400  1
loop_
_geom_bond_atom_site_label_1
_geom_bond_atom_site_label_2
_geom_bond_distance
_geom_bond_site_symmetry_2
B0 H12 1.211895 1_555
B0 H8 1.212748 1_555
B0 H0 1.249528 1_556
B0 H4 1.256560 1_556
B1 H13 1.211895 1_655
B1 H9 1.212748 1_555
B1 H1 1.249528 1_655
B1 H5 1.256560 1_555
B2 H14 1.211895 1_555
B2 H10 1.212748 1_555
B2 H2 1.249528 1_554
B2 H6 1.256560 1_554
B3 H15 1.211895 1_455
B3 H11 1.212748 1_555
B3 H3 1.249528 1_455
B3 H7 1.256560 1_555
B4 H16 1.206480 1_555
B4 H28 1.218541 1_555
B4 H24 1.243879 1_555
B4 H20 1.258781 1_555
B5 H17 1.206480 1_555
B5 H29 1.218541 1_555
B5 H25 1.243879 1_655
B5 H21 1.258781 1_555
B6 H18 1.206480 1_555
B6 H30 1.218541 1_555
B6 H26 1.243879 1_555
B6 H22 1.258781 1_555
B7 H19 1.206480 1_555
B7 H31 1.218541 1_555
B7 H27 1.243879 1_455
B7 H23 1.258781 1_555
B8 H36 1.205288 1_565
B8 H32 1.215357 1_565
B8 H40 1.251060 1_555
B8 H44 1.258997 1_655
B9 H37 1.205288 1_545
B9 H33 1.215357 1_545
B9 H41 1.251060 1_555
B9 H45 1.258997 1_555
B10 H38 1.205288 1_545
B10 H34 1.215357 1_545
B10 H42 1.251060 1_555
B10 H46 1.258997 1_455
B11 H39 1.205288 1_565
B11 H35 1.215357 1_565
B11 H43 1.251060 1_555
B11 H47 1.258997 1_555
H0 Zn1 1.884201 1_555
H1 Zn0 1.884201 1_455
H2 Zn3 1.884201 1_555
H3 Zn2 1.884201 1_655
H4 Zn1 1.863730 1_555
H5 Zn0 1.863730 1_555
H6 Zn3 1.863730 1_555
H7 Zn2 1.863730 1_555
H12 Na3 2.291369 1_555
H13 Na2 2.291369 1_555
H14 Na1 2.291369 1_555
H15 Na0 2.291369 1_555
H16 Na2 2.341737 1_555
H17 Na3 2.341737 1_555
H18 Na0 2.341737 1_555
H19 Na1 2.341737 1_555
H20 Zn3 1.844999 1_555
H21 Zn2 1.844999 1_655
H22 Zn1 1.844999 1_555
H23 Zn0 1.844999 1_455
H24 Zn3 1.995110 1_555
H25 Zn2 1.995110 1_555
H26 Zn1 1.995110 1_555
H27 Zn0 1.995110 1_555
H28 Na3 2.514976 1_455
H29 Na2 2.514976 1_555
H30 Na1 2.514976 1_655
H31 Na0 2.514976 1_555
H32 Na0 2.262997 1_555
H33 Na1 2.262997 1_555
H34 Na2 2.262997 1_555
H35 Na3 2.262997 1_555
H40 Zn0 1.896020 1_555
H41 Zn1 1.896020 1_555
H42 Zn2 1.896020 1_555
H43 Zn3 1.896020 1_555
H44 Zn0 1.856369 1_455
H45 Zn1 1.856369 1_555
H46 Zn2 1.856369 1_655
H47 Zn3 1.856369 1_555
