# generated using pymatgen
data_Eu2Ta2O7
_symmetry_space_group_name_H-M   'P 1'
_cell_length_a   13.82251983
_cell_length_b   13.82251983
_cell_length_c   5.71117100
_cell_angle_alpha   90.00000000
_cell_angle_beta   90.00000000
_cell_angle_gamma   163.42489430
_symmetry_Int_Tables_number   1
_chemical_formula_structural   Eu2Ta2O7
_chemical_formula_sum   'Eu4 Ta4 O14'
_cell_volume   311.28535925
_cell_formula_units_Z   2
loop_
 _symmetry_equiv_pos_site_id
 _symmetry_equiv_pos_as_xyz
  1  'x, y, z'
loop_
 _atom_site_type_symbol
 _atom_site_label
 _atom_site_symmetry_multiplicity
 _atom_site_fract_x
 _atom_site_fract_y
 _atom_site_fract_z
 _atom_site_occupancy
  Eu  Eu0  1  0.71484000  0.28516000  0.75000000  1
  Eu  Eu1  1  0.28516000  0.71484000  0.25000000  1
  Eu  Eu2  1  0.55421800  0.44578200  0.25000000  1
  Eu  Eu3  1  0.44578200  0.55421800  0.75000000  1
  Ta  Ta0  1  0.15935400  0.84064600  0.25000000  1
  Ta  Ta1  1  0.84064600  0.15935400  0.75000000  1
  Ta  Ta2  1  0.05433000  0.94567000  0.75000000  1
  Ta  Ta3  1  0.94567000  0.05433000  0.25000000  1
  O  O0  1  0.20797600  0.79202400  0.49052600  1
  O  O1  1  0.79202400  0.20797600  0.50947400  1
  O  O2  1  0.20797600  0.79202400  0.00947400  1
  O  O3  1  0.79202400  0.20797600  0.99052600  1
  O  O4  1  0.65046400  0.34953600  0.25000000  1
  O  O5  1  0.34953600  0.65046400  0.75000000  1
  O  O6  1  0.10018800  0.89981200  0.49063800  1
  O  O7  1  0.89981200  0.10018800  0.50936200  1
  O  O8  1  0.10018800  0.89981200  0.00936200  1
  O  O9  1  0.89981200  0.10018800  0.99063800  1
  O  O10  1  0.54639200  0.45360800  0.75000000  1
  O  O11  1  0.45360800  0.54639200  0.25000000  1
  O  O12  1  0.00000000  0.00000000  0.50000000  1
  O  O13  1  0.00000000  0.00000000  0.00000000  1
loop_
_geom_bond_atom_site_label_1
_geom_bond_atom_site_label_2
_geom_bond_distance
_geom_bond_site_symmetry_2
Eu0 O2 2.490166 1_656
Eu0 O2 2.490166 1_546
Eu0 O0 2.490166 1_655
Eu0 O0 2.490166 1_545
Eu0 O1 2.518993 1_555
Eu0 O3 2.518993 1_555
Eu1 O3 2.490166 1_564
Eu1 O1 2.490166 1_455
Eu1 O3 2.490166 1_454
Eu1 O1 2.490166 1_565
Eu1 O2 2.518993 1_555
Eu1 O0 2.518993 1_555
Eu2 O4 2.632939 1_555
Eu2 O6 2.727617 1_655
Eu2 O6 2.727617 1_545
Eu2 O8 2.727617 1_655
Eu2 O8 2.727617 1_545
Eu2 O11 2.752322 1_555
Eu2 O10 2.863600 1_555
Eu2 O10 2.863600 1_554
Eu2 O13 2.864984 1_665
Eu2 O12 2.864984 1_555
Eu2 O12 2.864984 1_665
Eu2 O13 2.864984 1_555
Eu3 O5 2.632939 1_555
Eu3 O9 2.727617 1_565
Eu3 O7 2.727617 1_565
Eu3 O9 2.727617 1_455
Eu3 O7 2.727617 1_455
Eu3 O10 2.752322 1_555
Eu3 O11 2.863600 1_555
Eu3 O11 2.863600 1_556
Eu3 O13 2.864984 1_556
Eu3 O13 2.864984 1_666
Eu3 O12 2.864984 1_555
Eu3 O12 2.864984 1_665
O0 Ta0 1.912127 1_555
O1 Ta1 1.912127 1_555
O2 Ta0 1.912127 1_555
O3 Ta1 1.912127 1_555
O4 Ta0 2.007183 1_655
O4 Ta0 2.007183 1_545
O5 Ta1 2.007183 1_565
O5 Ta1 2.007183 1_455
O6 Ta2 1.941114 1_555
O6 Ta0 2.123328 1_555
O7 Ta3 1.941114 1_555
O7 Ta1 2.123328 1_555
O8 Ta2 1.941114 1_554
O8 Ta0 2.123328 1_555
O9 Ta3 1.941114 1_556
O9 Ta1 2.123328 1_555
O10 Ta2 2.004194 1_545
O10 Ta2 2.004194 1_655
O11 Ta3 2.004194 1_455
O11 Ta3 2.004194 1_565
O12 Ta2 2.060969 1_545
O12 Ta3 2.060969 1_455
O13 Ta2 2.060969 1_544
O13 Ta3 2.060969 1_455
