# generated using pymatgen
data_NaPrF4
_symmetry_space_group_name_H-M   'P 1'
_cell_length_a   6.09050365
_cell_length_b   7.12995823
_cell_length_c   7.14092148
_cell_angle_alpha   63.29751778
_cell_angle_beta   64.83170722
_cell_angle_gamma   64.80739272
_symmetry_Int_Tables_number   1
_chemical_formula_structural   NaPrF4
_chemical_formula_sum   'Na3 Pr3 F12'
_cell_volume   239.94149683
_cell_formula_units_Z   3
loop_
 _symmetry_equiv_pos_site_id
 _symmetry_equiv_pos_as_xyz
  1  'x, y, z'
loop_
 _atom_site_type_symbol
 _atom_site_label
 _atom_site_symmetry_multiplicity
 _atom_site_fract_x
 _atom_site_fract_y
 _atom_site_fract_z
 _atom_site_occupancy
  Na  Na0  1  0.66924672  0.47037077  0.17895030  1
  Na  Na1  1  0.66204915  0.99144895  0.69515359  1
  Na  Na2  1  0.32963346  0.42323826  0.91309608  1
  Pr  Pr0  1  0.00293609  0.99423463  0.00221501  1
  Pr  Pr1  1  0.99732796  0.49373048  0.50967584  1
  Pr  Pr2  1  0.33547480  0.91739957  0.41279285  1
  F  F0  1  0.26210041  0.61988120  0.13437340  1
  F  F1  1  0.27973023  0.12463525  0.63002047  1
  F  F2  1  0.98044566  0.37743878  0.88993917  1
  F  F3  1  0.97001802  0.88416730  0.39074510  1
  F  F4  1  0.75568323  0.72787173  0.23583155  1
  F  F5  1  0.75283313  0.23645052  0.74860577  1
  F  F6  1  0.37112917  0.00485994  0.03352098  1
  F  F7  1  0.36900885  0.53639210  0.50543727  1
  F  F8  1  0.58830600  0.70492742  0.66719481  1
  F  F9  1  0.59251833  0.16652989  0.20007786  1
  F  F10  1  0.04458536  0.81198633  0.77475987  1
  F  F11  1  0.03697445  0.27643887  0.31560707  1
loop_
_geom_bond_atom_site_label_1
_geom_bond_atom_site_label_2
_geom_bond_distance
_geom_bond_site_symmetry_2
F0 Na0 2.345797 1_555
F0 Na2 2.361996 1_554
F0 Pr0 2.433692 1_555
F0 Pr1 2.446308 1_455
F1 Na1 2.276370 1_545
F1 Pr2 2.426853 1_545
F1 Pr1 2.448193 1_455
F1 Pr0 2.464331 1_546
F2 Na0 2.263506 1_556
F2 Na2 2.365552 1_655
F2 Pr1 2.425544 1_555
F2 Pr0 2.435723 1_646
F3 Na1 2.373488 1_555
F3 Pr2 2.411589 1_655
F3 Pr0 2.461247 1_655
F3 Pr1 2.469752 1_555
F4 Na0 2.342613 1_555
F4 Pr2 2.410915 1_555
F4 Pr0 2.471467 1_655
F4 Pr1 2.489836 1_555
F5 Na1 2.259185 1_545
F5 Na2 2.388582 1_555
F5 Pr1 2.417674 1_555
F5 Pr0 2.424572 1_646
F6 Na1 2.325693 1_544
F6 Pr0 2.381320 1_545
F6 Pr2 2.422476 1_545
F6 Na2 2.634277 1_554
F7 Na0 2.372396 1_555
F7 Pr1 2.395314 1_455
F7 Pr2 2.426220 1_555
F7 Na2 2.577380 1_555
F8 Na1 2.374638 1_555
F8 Pr1 2.384101 1_555
F8 Pr2 2.426213 1_555
F8 Na2 2.602008 1_555
F9 Na0 2.332911 1_555
F9 Pr0 2.386513 1_645
F9 Pr2 2.415215 1_545
F9 Na2 2.652975 1_554
F10 Na1 2.307253 1_455
F10 Pr0 2.378393 1_556
F10 Pr2 2.424339 1_555
F10 Na2 2.563950 1_555
F11 Pr1 2.388634 1_455
F11 Pr2 2.419610 1_545
F11 Na0 2.426958 1_455
F11 Na2 2.657274 1_554
