# generated using pymatgen
data_Tb5(ReO6)2
_symmetry_space_group_name_H-M   'P 1'
_cell_length_a   6.83400858
_cell_length_b   6.83400916
_cell_length_c   7.54221894
_cell_angle_alpha   73.71200050
_cell_angle_beta   73.71201275
_cell_angle_gamma   48.86655644
_symmetry_Int_Tables_number   1
_chemical_formula_structural   Tb5(ReO6)2
_chemical_formula_sum   'Tb5 Re2 O12'
_cell_volume   252.40485612
_cell_formula_units_Z   1
loop_
 _symmetry_equiv_pos_site_id
 _symmetry_equiv_pos_as_xyz
  1  'x, y, z'
loop_
 _atom_site_type_symbol
 _atom_site_label
 _atom_site_symmetry_multiplicity
 _atom_site_fract_x
 _atom_site_fract_y
 _atom_site_fract_z
 _atom_site_occupancy
  Tb  Tb0  1  0.69316847  0.69910190  0.64154149  1
  Tb  Tb1  1  0.30089751  0.30683168  0.35845854  1
  Tb  Tb2  1  0.68627035  0.68582941  0.17454317  1
  Tb  Tb3  1  0.31417118  0.31372946  0.82545679  1
  Tb  Tb4  1  -0.00160505  0.00160477  0.50000000  1
  Re  Re0  1  0.78691774  0.21308211  0.00000029  1
  Re  Re1  1  0.21681787  0.78318196  0.00000006  1
  O  O0  1  -0.00196759  0.00390252  0.20558317  1
  O  O1  1  0.99609717  0.00196810  0.79441665  1
  O  O2  1  0.58745926  0.08742705  0.08359996  1
  O  O3  1  0.42094371  0.91171870  0.91650954  1
  O  O4  1  0.91257338  0.41254038  0.91640056  1
  O  O5  1  0.08828150  0.57905646  0.08349036  1
  O  O6  1  0.50126055  0.49662441  0.17613702  1
  O  O7  1  0.50337537  0.49873947  0.82386339  1
  O  O8  1  0.40596503  0.90417442  0.42436225  1
  O  O9  1  0.59307207  0.09952448  0.57289414  1
  O  O10  1  0.09582561  0.59403482  0.57563762  1
  O  O11  1  0.90047587  0.40692790  0.42710500  1
loop_
_geom_bond_atom_site_label_1
_geom_bond_atom_site_label_2
_geom_bond_distance
_geom_bond_site_symmetry_2
O0 Re0 1.956369 1_455
O0 Re1 1.989819 1_545
O0 Tb4 2.216889 1_555
O1 Re0 1.956372 1_556
O1 Re1 1.989821 1_646
O1 Tb4 2.216889 1_655
O2 Re0 1.935766 1_555
O2 Tb2 2.285708 1_545
O2 Tb1 2.446231 1_555
O2 Tb3 2.494240 1_554
O3 Re1 1.980737 1_556
O3 Tb3 2.266559 1_565
O3 Tb0 2.417225 1_555
O3 Tb2 2.463737 1_556
O4 Re0 1.935768 1_556
O4 Tb3 2.285710 1_655
O4 Tb0 2.446234 1_555
O4 Tb2 2.494241 1_556
O5 Re1 1.980733 1_555
O5 Tb2 2.266560 1_455
O5 Tb1 2.417223 1_555
O5 Tb3 2.463738 1_554
O6 Re0 2.084008 1_555
O6 Re1 2.087941 1_555
O6 Tb2 2.324712 1_555
O6 Tb1 2.393350 1_555
O7 Re0 2.084009 1_556
O7 Re1 2.087940 1_556
O7 Tb3 2.324709 1_555
O7 Tb0 2.393349 1_555
O8 Tb1 2.273391 1_565
O8 Tb2 2.288702 1_555
O8 Tb0 2.323006 1_555
O8 Tb4 2.325662 1_565
O9 Tb0 2.272786 1_545
O9 Tb3 2.293719 1_555
O9 Tb4 2.310045 1_655
O9 Tb1 2.326852 1_555
O10 Tb0 2.273392 1_455
O10 Tb3 2.288703 1_555
O10 Tb1 2.323005 1_555
O10 Tb4 2.325660 1_565
O11 Tb1 2.272781 1_655
O11 Tb2 2.293716 1_555
O11 Tb4 2.310048 1_655
O11 Tb0 2.326855 1_555
