# generated using pymatgen
data_LaB7IO15
_symmetry_space_group_name_H-M   'P 1'
_cell_length_a   17.48978100
_cell_length_b   8.21953500
_cell_length_c   12.87807747
_cell_angle_alpha   50.71812512
_cell_angle_beta   90.00000000
_cell_angle_gamma   90.00000000
_symmetry_Int_Tables_number   1
_chemical_formula_structural   LaB7IO15
_chemical_formula_sum   'La4 B28 I4 O60'
_cell_volume   1433.00055768
_cell_formula_units_Z   4
loop_
 _symmetry_equiv_pos_site_id
 _symmetry_equiv_pos_as_xyz
  1  'x, y, z'
loop_
 _atom_site_type_symbol
 _atom_site_label
 _atom_site_symmetry_multiplicity
 _atom_site_fract_x
 _atom_site_fract_y
 _atom_site_fract_z
 _atom_site_occupancy
  La  La0  1  0.79997600  0.43370700  0.75433400  1
  La  La1  1  0.70002400  0.43370700  0.25433400  1
  La  La2  1  0.20002400  0.56629300  0.24566600  1
  La  La3  1  0.29997600  0.56629300  0.74566600  1
  B  B0  1  0.91578700  0.09227700  0.21619200  1
  B  B1  1  0.58421300  0.09227700  0.71619200  1
  B  B2  1  0.08421300  0.90772300  0.78380800  1
  B  B3  1  0.41578700  0.90772300  0.28380800  1
  B  B4  1  0.80504700  0.92934200  0.36736100  1
  B  B5  1  0.69495300  0.92934200  0.86736100  1
  B  B6  1  0.19495300  0.07065800  0.63263900  1
  B  B7  1  0.30504700  0.07065800  0.13263900  1
  B  B8  1  0.79991800  0.85111500  0.75005800  1
  B  B9  1  0.70008200  0.85111500  0.25005800  1
  B  B10  1  0.20008200  0.14888500  0.24994200  1
  B  B11  1  0.29991800  0.14888500  0.74994200  1
  B  B12  1  0.78865700  0.19144400  0.11066300  1
  B  B13  1  0.71134300  0.19144400  0.61066300  1
  B  B14  1  0.21134300  0.80855600  0.88933700  1
  B  B15  1  0.28865700  0.80855600  0.38933700  1
  B  B16  1  0.74921700  0.56988500  0.47719700  1
  B  B17  1  0.75078300  0.56988500  0.97719700  1
  B  B18  1  0.25078300  0.43011500  0.52280300  1
  B  B19  1  0.24921700  0.43011500  0.02280300  1
  B  B20  1  0.94431000  0.91630000  0.72894500  1
  B  B21  1  0.55569000  0.91630000  0.22894500  1
  B  B22  1  0.05569000  0.08370000  0.27105500  1
  B  B23  1  0.44431000  0.08370000  0.77105500  1
  B  B24  1  0.72712300  0.03748200  0.01033600  1
  B  B25  1  0.77287700  0.03748200  0.51033600  1
  B  B26  1  0.27287700  0.96251800  0.98966400  1
  B  B27  1  0.22712300  0.96251800  0.48966400  1
  I  I0  1  0.57857500  0.65270900  0.66532400  1
  I  I1  1  0.92142500  0.65270900  0.16532400  1
  I  I2  1  0.42142500  0.34729100  0.33467600  1
  I  I3  1  0.07857500  0.34729100  0.83467600  1
  O  O0  1  0.87144700  0.91161800  0.76997200  1
  O  O1  1  0.62855300  0.91161800  0.26997200  1
  O  O2  1  0.12855300  0.08838200  0.23002800  1
  O  O3  1  0.37144700  0.08838200  0.73002800  1
  O  O4  1  0.78456400  0.71234400  0.48402100  1
  O  O5  1  0.71543600  0.71234400  0.98402100  1
  O  O6  1  0.21543600  0.28765600  0.51597900  1
  O  O7  1  0.28456400  0.28765600  0.01597900  1
  O  O8  1  0.75917400  0.20132600  0.99930700  1
  O  O9  1  0.74082600  0.20132600  0.49930700  1
  O  O10  1  0.24082600  0.79867400  0.00069300  1
  O  O11  1  0.25917400  0.79867400  0.50069300  1
  O  O12  1  0.73665200  0.98615700  0.74257700  1
  O  O13  1  0.76334800  0.98615700  0.24257700  1
  O  O14  1  0.26334800  0.01384300  0.25742300  1
  O  O15  1  0.23665200  0.01384300  0.75742300  1
  O  O16  1  0.79653900  0.85846300  0.63171200  1
  O  O17  1  0.70346100  0.85846300  0.13171200  1
  O  O18  1  0.20346100  0.14153700  0.36828800  1
  O  O19  1  0.29653900  0.14153700  0.86828800  1
  O  O20  1  0.99373100  0.11508100  0.19410100  1
  O  O21  1  0.50626900  0.11508100  0.69410100  1
  O  O22  1  0.00626900  0.88491900  0.80589900  1
  O  O23  1  0.49373100  0.88491900  0.30589900  1
  O  O24  1  0.86997400  0.21015100  0.10468800  1
  O  O25  1  0.63002600  0.21015100  0.60468800  1
  O  O26  1  0.13002600  0.78984900  0.89531200  1
  O  O27  1  0.36997400  0.78984900  0.39531200  1
  O  O28  1  0.88546400  0.95498700  0.34285800  1
  O  O29  1  0.61453600  0.95498700  0.84285800  1
  O  O30  1  0.11453600  0.04501300  0.65714200  1
  O  O31  1  0.38546400  0.04501300  0.15714200  1
  O  O32  1  0.74800500  0.36831200  0.59796200  1
  O  O33  1  0.75199500  0.36831200  0.09796200  1
  O  O34  1  0.25199500  0.63168800  0.40203800  1
  O  O35  1  0.24800500  0.63168800  0.90203800  1
  O  O36  1  0.96786800  0.49367000  0.76289100  1
  O  O37  1  0.53213200  0.49367000  0.26289100  1
  O  O38  1  0.03213200  0.50633000  0.23710900  1
  O  O39  1  0.46786800  0.50633000  0.73710900  1
  O  O40  1  0.78236600  0.62578800  0.86145400  1
  O  O41  1  0.71763400  0.62578800  0.36145400  1
  O  O42  1  0.21763400  0.37421200  0.13854600  1
  O  O43  1  0.28236600  0.37421200  0.63854600  1
  O  O44  1  0.89073500  0.18527800  0.84677300  1
  O  O45  1  0.60926500  0.18527800  0.34677300  1
  O  O46  1  0.10926500  0.81472200  0.15322700  1
  O  O47  1  0.39073500  0.81472200  0.65322700  1
  O  O48  1  0.72504800  0.07456900  0.89027000  1
  O  O49  1  0.77495200  0.07456900  0.39027000  1
  O  O50  1  0.27495200  0.92543100  0.10973000  1
  O  O51  1  0.22504800  0.92543100  0.60973000  1
  O  O52  1  0.93903500  0.51359300  0.66144600  1
  O  O53  1  0.56096500  0.51359300  0.16144600  1
  O  O54  1  0.06096500  0.48640700  0.33855400  1
  O  O55  1  0.43903500  0.48640700  0.83855400  1
  O  O56  1  0.95338700  0.94420300  0.61395900  1
  O  O57  1  0.54661300  0.94420300  0.11395900  1
  O  O58  1  0.04661300  0.05579700  0.38604100  1
  O  O59  1  0.45338700  0.05579700  0.88604100  1
loop_
_geom_bond_atom_site_label_1
_geom_bond_atom_site_label_2
_geom_bond_distance
_geom_bond_site_symmetry_2
La0 O44 2.242405 1_555
La0 O8 2.545564 1_555
La0 O32 2.557551 1_555
La0 O52 2.604351 1_555
La0 O48 2.636712 1_555
La0 O40 2.692295 1_555
La0 O4 2.709344 1_555
La0 O16 2.775822 1_555
La1 O45 2.242405 1_555
La1 O9 2.545564 1_555
La1 O33 2.557551 1_555
La1 O53 2.604351 1_555
La1 O49 2.636712 1_555
La1 O41 2.692295 1_555
La1 O5 2.709344 1_554
La1 O17 2.775822 1_555
La2 O46 2.242405 1_555
La2 O10 2.545564 1_555
La2 O34 2.557551 1_555
La2 O54 2.604351 1_555
La2 O50 2.636712 1_555
La2 O42 2.692295 1_555
La2 O6 2.709344 1_555
La2 O18 2.775822 1_555
La3 O47 2.242405 1_555
La3 O11 2.545564 1_555
La3 O35 2.557551 1_555
La3 O55 2.604351 1_555
La3 O51 2.636712 1_555
La3 O43 2.692295 1_555
La3 O7 2.709344 1_556
La3 O19 2.775822 1_555
B0 O24 1.371492 1_555
B0 O28 1.372823 1_545
B0 O20 1.380914 1_555
B1 O25 1.371492 1_555
B1 O29 1.372823 1_545
B1 O21 1.380914 1_555
B2 O26 1.371492 1_555
B2 O30 1.372823 1_565
B2 O22 1.380914 1_555
B3 O27 1.371492 1_555
B3 O31 1.372823 1_565
B3 O23 1.380914 1_555
B4 O28 1.427569 1_555
B4 O4 1.474304 1_555
B4 O49 1.494974 1_565
B4 O13 1.543398 1_555
B5 O29 1.427569 1_555
B5 O5 1.474304 1_555
B5 O48 1.494974 1_565
B5 O12 1.543398 1_555
B6 O30 1.427569 1_555
B6 O6 1.474304 1_555
B6 O51 1.494974 1_545
B6 O15 1.543398 1_555
B7 O31 1.427569 1_555
B7 O7 1.474304 1_555
B7 O50 1.494974 1_545
B7 O14 1.543398 1_555
B8 O0 1.428162 1_555
B8 O16 1.487739 1_555
B8 O40 1.489304 1_555
B8 O12 1.526530 1_555
B9 O1 1.428162 1_555
B9 O17 1.487739 1_555
B9 O41 1.489304 1_555
B9 O13 1.526530 1_555
B10 O2 1.428162 1_555
B10 O18 1.487739 1_555
B10 O42 1.489304 1_555
B10 O14 1.526530 1_555
B11 O3 1.428162 1_555
B11 O19 1.487739 1_555
B11 O43 1.489304 1_555
B11 O15 1.526530 1_555
B12 O24 1.427334 1_555
B12 O8 1.476990 1_554
B12 O33 1.500086 1_555
B12 O13 1.516342 1_545
B13 O25 1.427334 1_555
B13 O9 1.476990 1_555
B13 O32 1.500086 1_555
B13 O12 1.516342 1_545
B14 O26 1.427334 1_555
B14 O10 1.476990 1_556
B14 O35 1.500086 1_555
B14 O15 1.516342 1_565
B15 O27 1.427334 1_555
B15 O11 1.476990 1_555
B15 O34 1.500086 1_555
B15 O14 1.516342 1_565
B16 O41 1.367743 1_555
B16 O4 1.375255 1_555
B16 O32 1.378915 1_555
B17 O40 1.367743 1_555
B17 O5 1.375255 1_555
B17 O33 1.378915 1_556
B18 O43 1.367743 1_555
B18 O6 1.375255 1_555
B18 O34 1.378915 1_555
B19 O42 1.367743 1_555
B19 O7 1.375255 1_555
B19 O35 1.378915 1_554
B20 O56 1.356656 1_555
B20 O0 1.370720 1_555
B20 O22 1.378137 1_655
B21 O57 1.356656 1_555
B21 O1 1.370720 1_555
B21 O23 1.378137 1_555
B22 O58 1.356656 1_555
B22 O2 1.370720 1_555
B22 O20 1.378137 1_455
B23 O59 1.356656 1_555
B23 O3 1.370720 1_555
B23 O21 1.378137 1_555
B24 O17 1.366472 1_545
B24 O48 1.374112 1_554
B24 O8 1.380527 1_554
B25 O16 1.366472 1_545
B25 O49 1.374112 1_555
B25 O9 1.380527 1_555
B26 O19 1.366472 1_565
B26 O50 1.374112 1_556
B26 O10 1.380527 1_556
B27 O18 1.366472 1_565
B27 O51 1.374112 1_555
B27 O11 1.380527 1_555
I0 O39 2.154720 1_555
I1 O38 2.154720 1_655
I2 O37 2.154720 1_555
I3 O36 2.154720 1_455
O36 O52 1.310321 1_555
O37 O53 1.310321 1_555
O38 O54 1.310321 1_555
O39 O55 1.310321 1_555
