# generated using pymatgen
data_CaTi2O4
_symmetry_space_group_name_H-M   'P 1'
_cell_length_a   2.99500900
_cell_length_b   9.41910700
_cell_length_c   10.93460300
_cell_angle_alpha   90.00000000
_cell_angle_beta   90.00000000
_cell_angle_gamma   90.00000000
_symmetry_Int_Tables_number   1
_chemical_formula_structural   CaTi2O4
_chemical_formula_sum   'Ca4 Ti8 O16'
_cell_volume   308.46854295
_cell_formula_units_Z   4
loop_
 _symmetry_equiv_pos_site_id
 _symmetry_equiv_pos_as_xyz
  1  'x, y, z'
loop_
 _atom_site_type_symbol
 _atom_site_label
 _atom_site_symmetry_multiplicity
 _atom_site_fract_x
 _atom_site_fract_y
 _atom_site_fract_z
 _atom_site_occupancy
  Ca  Ca0  1  0.25000000  0.24037900  0.84253900  1
  Ca  Ca1  1  0.75000000  0.75962100  0.15746100  1
  Ca  Ca2  1  0.25000000  0.74037900  0.65746100  1
  Ca  Ca3  1  0.75000000  0.25962100  0.34253900  1
  Ti  Ti0  1  0.75000000  0.41719200  0.60271600  1
  Ti  Ti1  1  0.25000000  0.08280800  0.10271600  1
  Ti  Ti2  1  0.75000000  0.91719200  0.89728400  1
  Ti  Ti3  1  0.25000000  0.58280800  0.39728400  1
  Ti  Ti4  1  0.25000000  0.56252300  0.89144700  1
  Ti  Ti5  1  0.75000000  0.43747700  0.10855300  1
  Ti  Ti6  1  0.25000000  0.06252300  0.60855300  1
  Ti  Ti7  1  0.75000000  0.93747700  0.39144700  1
  O  O0  1  0.75000000  0.91117200  0.57492100  1
  O  O1  1  0.25000000  0.08882800  0.42507900  1
  O  O2  1  0.75000000  0.41117200  0.92507900  1
  O  O3  1  0.25000000  0.58882800  0.07492100  1
  O  O4  1  0.75000000  0.02127600  0.21809200  1
  O  O5  1  0.25000000  0.97872400  0.78190800  1
  O  O6  1  0.75000000  0.52127600  0.28190800  1
  O  O7  1  0.25000000  0.47872400  0.71809200  1
  O  O8  1  0.75000000  0.61795500  0.52705100  1
  O  O9  1  0.25000000  0.38204500  0.47294900  1
  O  O10  1  0.75000000  0.11795500  0.97294900  1
  O  O11  1  0.25000000  0.88204500  0.02705100  1
  O  O12  1  0.25000000  0.79080300  0.33874300  1
  O  O13  1  0.75000000  0.20919700  0.66125700  1
  O  O14  1  0.75000000  0.70919700  0.83874300  1
  O  O15  1  0.25000000  0.29080300  0.16125700  1
loop_
_geom_bond_atom_site_label_1
_geom_bond_atom_site_label_2
_geom_bond_distance
_geom_bond_site_symmetry_2
Ca0 O10 2.367623 1_455
Ca0 O10 2.367623 1_555
Ca0 O2 2.375936 1_555
Ca0 O2 2.375936 1_455
Ca0 O13 2.501617 1_555
Ca0 O13 2.501617 1_455
Ca0 O5 2.552171 1_545
Ca0 O7 2.625210 1_555
Ca1 O11 2.367623 1_655
Ca1 O11 2.367623 1_555
Ca1 O3 2.375936 1_555
Ca1 O3 2.375936 1_655
Ca1 O12 2.501617 1_655
Ca1 O12 2.501617 1_555
Ca1 O4 2.552171 1_565
Ca1 O6 2.625210 1_555
Ca2 O8 2.367623 1_455
Ca2 O8 2.367623 1_555
Ca2 O0 2.375936 1_455
Ca2 O0 2.375936 1_555
Ca2 O14 2.501617 1_455
Ca2 O14 2.501617 1_555
Ca2 O7 2.552171 1_555
Ca2 O5 2.625210 1_555
Ca3 O9 2.367623 1_555
Ca3 O9 2.367623 1_655
Ca3 O1 2.375936 1_555
Ca3 O1 2.375936 1_655
Ca3 O15 2.501617 1_655
Ca3 O15 2.501617 1_555
Ca3 O6 2.552171 1_555
Ca3 O4 2.625210 1_555
O0 Ti7 2.021457 1_555
O0 Ti6 2.100017 1_565
O0 Ti6 2.100017 1_665
O1 Ti6 2.021457 1_555
O1 Ti7 2.100017 1_545
O1 Ti7 2.100017 1_445
O2 Ti5 2.021457 1_556
O2 Ti4 2.100017 1_655
O2 Ti4 2.100017 1_555
O3 Ti4 2.021457 1_554
O3 Ti5 2.100017 1_455
O3 Ti5 2.100017 1_555
O4 Ti1 2.042068 1_655
O4 Ti1 2.042068 1_555
O4 Ti7 2.053337 1_545
O5 Ti2 2.042068 1_455
O5 Ti2 2.042068 1_555
O5 Ti6 2.053337 1_565
O6 Ti3 2.042068 1_555
O6 Ti3 2.042068 1_655
O6 Ti5 2.053337 1_555
O7 Ti0 2.042068 1_555
O7 Ti0 2.042068 1_455
O7 Ti4 2.053337 1_555
O8 Ti0 2.064085 1_555
O8 Ti3 2.089387 1_655
O8 Ti3 2.089387 1_555
O9 Ti3 2.064085 1_555
O9 Ti0 2.089387 1_455
O9 Ti0 2.089387 1_555
O10 Ti2 2.064085 1_545
O10 Ti1 2.089387 1_556
O10 Ti1 2.089387 1_656
O11 Ti1 2.064085 1_565
O11 Ti2 2.089387 1_554
O11 Ti2 2.089387 1_454
O12 Ti3 2.061052 1_555
O12 Ti7 2.117377 1_555
O12 Ti7 2.117377 1_455
O13 Ti0 2.061052 1_555
O13 Ti6 2.117377 1_555
O13 Ti6 2.117377 1_655
O14 Ti2 2.061052 1_555
O14 Ti4 2.117377 1_655
O14 Ti4 2.117377 1_555
O15 Ti1 2.061052 1_555
O15 Ti5 2.117377 1_455
O15 Ti5 2.117377 1_555
