# generated using pymatgen
data_Pr3(P3Pd10)2
_symmetry_space_group_name_H-M   'P 1'
_cell_length_a   8.70483976
_cell_length_b   8.70482624
_cell_length_c   8.70482930
_cell_angle_alpha   60.00012229
_cell_angle_beta   60.00007849
_cell_angle_gamma   60.00002193
_symmetry_Int_Tables_number   1
_chemical_formula_structural   Pr3(P3Pd10)2
_chemical_formula_sum   'Pr3 P6 Pd20'
_cell_volume   466.40895370
_cell_formula_units_Z   1
loop_
 _symmetry_equiv_pos_site_id
 _symmetry_equiv_pos_as_xyz
  1  'x, y, z'
loop_
 _atom_site_type_symbol
 _atom_site_label
 _atom_site_symmetry_multiplicity
 _atom_site_fract_x
 _atom_site_fract_y
 _atom_site_fract_z
 _atom_site_occupancy
  Pr  Pr0  1  0.25000156  0.24999995  0.25000164  1
  Pr  Pr1  1  0.74999922  0.74999962  0.74999786  1
  Pr  Pr2  1  -0.00000058  0.00000017  -0.00000103  1
  P  P0  1  0.73726910  0.26273024  0.26273052  1
  P  P1  1  0.26273087  0.73727031  0.73726955  1
  P  P2  1  0.26273040  0.73726893  0.26273009  1
  P  P3  1  0.73727006  0.26273085  0.73726927  1
  P  P4  1  0.26273076  0.26272995  0.73726848  1
  P  P5  1  0.73726971  0.73726930  0.26273112  1
  Pd  Pd0  1  0.38644111  0.38644217  0.38644176  1
  Pd  Pd1  1  0.61355701  0.61355761  0.61356073  1
  Pd  Pd2  1  0.38644287  0.38644208  0.84067277  1
  Pd  Pd3  1  0.38644211  0.84067368  0.38644163  1
  Pd  Pd4  1  0.61355816  0.61356198  0.15932376  1
  Pd  Pd5  1  0.61355886  0.15932328  0.61356009  1
  Pd  Pd6  1  0.84067900  0.38644142  0.38644131  1
  Pd  Pd7  1  0.15932649  0.61355757  0.61356082  1
  Pd  Pd8  1  0.34738248  0.99999919  -0.00000031  1
  Pd  Pd9  1  0.65261810  0.00000185  0.00000125  1
  Pd  Pd10  1  -0.00000326  0.34738142  0.65261850  1
  Pd  Pd11  1  0.99999594  0.65262019  0.34738223  1
  Pd  Pd12  1  0.99999825  0.34738211  0.00000040  1
  Pd  Pd13  1  0.65262069  -0.00000175  0.34738009  1
  Pd  Pd14  1  -0.00000065  0.65261910  0.00000204  1
  Pd  Pd15  1  0.34738312  -0.00000016  0.65261649  1
  Pd  Pd16  1  0.99999664  -0.00000146  0.34738349  1
  Pd  Pd17  1  -0.00000003  0.00000185  0.65261734  1
  Pd  Pd18  1  0.65261931  0.34738029  -0.00000093  1
  Pd  Pd19  1  0.34738267  0.65261727  -0.00000094  1
loop_
_geom_bond_atom_site_label_1
_geom_bond_atom_site_label_2
_geom_bond_distance
_geom_bond_site_symmetry_2
P0 Pd16 2.402798 1_555
P0 Pd12 2.402802 1_555
P0 Pd13 2.402806 1_555
P0 Pd18 2.402808 1_555
P0 Pd0 2.495589 1_555
P0 Pd5 2.495599 1_555
P0 Pd6 2.495610 1_555
P0 Pd4 2.495612 1_555
P0 Pr2 3.234343 1_655
P1 Pd19 2.402794 1_556
P1 Pd15 2.402797 1_565
P1 Pd17 2.402814 1_565
P1 Pd14 2.402820 1_556
P1 Pd7 2.495569 1_555
P1 Pd1 2.495576 1_555
P1 Pd2 2.495588 1_555
P1 Pd3 2.495588 1_555
P1 Pr2 3.234329 1_566
P2 Pd19 2.402806 1_555
P2 Pd8 2.402808 1_555
P2 Pd16 2.402814 1_465
P2 Pd11 2.402823 1_455
P2 Pd0 2.495578 1_555
P2 Pd3 2.495584 1_555
P2 Pd4 2.495587 1_555
P2 Pd7 2.495608 1_555
P2 Pr2 3.234351 1_565
P3 Pd10 2.402773 1_655
P3 Pd18 2.402788 1_556
P3 Pd17 2.402796 1_655
P3 Pd9 2.402806 1_556
P3 Pd1 2.495577 1_555
P3 Pd5 2.495583 1_555
P3 Pd2 2.495583 1_555
P3 Pd6 2.495587 1_555
P3 Pr2 3.234332 1_656
P4 Pd15 2.402799 1_555
P4 Pd8 2.402813 1_546
P4 Pd12 2.402821 1_456
P4 Pd10 2.402827 1_555
P4 Pd0 2.495580 1_555
P4 Pd7 2.495584 1_555
P4 Pd2 2.495588 1_555
P4 Pd5 2.495589 1_555
P4 Pr2 3.234347 1_556
P5 Pd11 2.402776 1_555
P5 Pd13 2.402782 1_565
P5 Pd14 2.402793 1_655
P5 Pd9 2.402810 1_565
P5 Pd4 2.495571 1_555
P5 Pd6 2.495584 1_555
P5 Pd3 2.495586 1_555
P5 Pd1 2.495600 1_555
P5 Pr2 3.234344 1_665
Pd0 Pr0 2.909240 1_555
Pd0 Pd15 3.059704 1_555
Pd0 Pd19 3.059708 1_555
Pd0 Pd18 3.059719 1_555
Pd0 Pd13 3.059726 1_555
Pd0 Pd10 3.059730 1_555
Pd0 Pd11 3.059731 1_455
Pd1 Pr1 2.909236 1_555
Pd1 Pd19 3.059679 1_556
Pd1 Pd10 3.059688 1_655
Pd1 Pd18 3.059691 1_556
Pd1 Pd15 3.059693 1_565
Pd1 Pd11 3.059700 1_555
Pd1 Pd13 3.059714 1_565
Pd2 Pr0 2.909294 1_556
Pd2 Pd9 3.059703 1_556
Pd2 Pd8 3.059714 1_546
Pd3 Pr0 2.909273 1_565
Pd3 Pd8 3.059706 1_555
Pd3 Pd9 3.059709 1_565
Pd4 Pr1 2.909273 1_554
Pd4 Pd8 3.059681 1_555
Pd4 Pd9 3.059694 1_565
Pd5 Pr1 2.909254 1_545
Pd5 Pd8 3.059697 1_546
Pd5 Pd9 3.059703 1_556
Pd6 Pr0 2.909250 1_655
Pd7 Pr1 2.909283 1_455
Pd8 Pd9 2.657046 1_565
Pd8 Pr2 3.023913 1_565
Pd8 Pr1 3.352123 1_554
Pd8 Pr0 3.352140 1_565
Pd9 Pr2 3.023881 1_655
Pd9 Pr0 3.352111 1_555
Pd9 Pr1 3.352161 1_544
Pd10 Pd11 2.657045 1_455
Pd10 Pd17 3.023870 1_555
Pd10 Pd18 3.023880 1_456
Pd10 Pr2 3.023896 1_556
Pd10 Pd12 3.023910 1_456
Pd10 Pd15 3.023921 1_555
Pd10 Pd6 3.059659 1_455
Pd10 Pd7 3.059742 1_555
Pd10 Pr1 3.352109 1_455
Pd10 Pr0 3.352110 1_555
Pd11 Pd13 3.023857 1_565
Pd11 Pd14 3.023875 1_655
Pd11 Pd16 3.023877 1_565
Pd11 Pr2 3.023903 1_665
Pd11 Pd19 3.023932 1_655
Pd11 Pd6 3.059670 1_555
Pd11 Pd7 3.059745 1_655
Pd11 Pr1 3.352093 1_555
Pd11 Pr0 3.352129 1_655
Pd12 Pd14 2.657047 1_655
Pd12 Pd18 3.023892 1_555
Pd12 Pr2 3.023901 1_655
Pd12 Pd8 3.023917 1_645
Pd12 Pd16 3.023918 1_555
Pd12 Pd6 3.059703 1_555
Pd12 Pd7 3.059704 1_654
Pd12 Pd4 3.059707 1_555
Pd12 Pd2 3.059729 1_654
Pd12 Pr1 3.352128 1_554
Pd12 Pr0 3.352154 1_655
Pd13 Pd15 2.657041 1_555
Pd13 Pd16 3.023868 1_555
Pd13 Pd9 3.023869 1_555
Pd13 Pr2 3.023888 1_655
Pd13 Pd18 3.023902 1_555
Pd13 Pd3 3.059711 1_545
Pd13 Pd5 3.059720 1_555
Pd13 Pr1 3.352108 1_545
Pd13 Pr0 3.352118 1_555
Pd14 Pr2 3.023879 1_565
Pd14 Pd19 3.023895 1_555
Pd14 Pd9 3.023903 1_465
Pd14 Pd17 3.023921 1_564
Pd14 Pd6 3.059691 1_455
Pd14 Pd4 3.059698 1_455
Pd14 Pd7 3.059703 1_554
Pd14 Pd2 3.059725 1_554
Pd14 Pr0 3.352135 1_555
Pd14 Pr1 3.352158 1_454
Pd15 Pd17 3.023902 1_555
Pd15 Pd8 3.023906 1_546
Pd15 Pd19 3.023911 1_546
Pd15 Pr2 3.023916 1_556
Pd15 Pd3 3.059698 1_545
Pd15 Pd5 3.059703 1_555
Pd15 Pr0 3.352098 1_555
Pd15 Pr1 3.352107 1_545
Pd16 Pd17 2.657037 1_655
Pd16 Pr2 3.023904 1_655
Pd16 Pd8 3.023931 1_645
Pd16 Pd5 3.059689 1_555
Pd16 Pd6 3.059713 1_555
Pd16 Pd7 3.059718 1_645
Pd16 Pd3 3.059731 1_645
Pd16 Pr1 3.352100 1_545
Pd16 Pr0 3.352169 1_655
Pd17 Pr2 3.023888 1_556
Pd17 Pd9 3.023914 1_456
Pd17 Pd6 3.059686 1_455
Pd17 Pd5 3.059697 1_455
Pd17 Pd7 3.059708 1_545
Pd17 Pd3 3.059713 1_545
Pd17 Pr0 3.352118 1_555
Pd17 Pr1 3.352149 1_445
Pd18 Pd19 2.657036 1_555
Pd18 Pd9 3.023865 1_555
Pd18 Pr2 3.023887 1_655
Pd18 Pd2 3.059704 1_554
Pd18 Pd4 3.059734 1_555
Pd18 Pr0 3.352118 1_555
Pd18 Pr1 3.352125 1_554
Pd19 Pd8 3.023901 1_555
Pd19 Pr2 3.023913 1_565
Pd19 Pd2 3.059696 1_554
Pd19 Pd4 3.059714 1_555
Pd19 Pr0 3.352115 1_555
Pd19 Pr1 3.352117 1_554
