# generated using pymatgen
data_Sr2YNi2O7
_symmetry_space_group_name_H-M   'P 1'
_cell_length_a   12.28995986
_cell_length_b   12.28995986
_cell_length_c   12.28995986
_cell_angle_alpha   154.69108784
_cell_angle_beta   154.57892480
_cell_angle_gamma   36.17736991
_symmetry_Int_Tables_number   1
_chemical_formula_structural   Sr2YNi2O7
_chemical_formula_sum   'Sr4 Y2 Ni4 O14'
_cell_volume   340.21718198
_cell_formula_units_Z   2
loop_
 _symmetry_equiv_pos_site_id
 _symmetry_equiv_pos_as_xyz
  1  'x, y, z'
loop_
 _atom_site_type_symbol
 _atom_site_label
 _atom_site_symmetry_multiplicity
 _atom_site_fract_x
 _atom_site_fract_y
 _atom_site_fract_z
 _atom_site_occupancy
  Sr  Sr0  1  0.84086100  0.79585700  0.97621500  1
  Sr  Sr1  1  0.18035800  0.20414300  0.04500400  1
  Sr  Sr2  1  0.68035800  0.63535500  0.97621500  1
  Sr  Sr3  1  0.34086100  0.36464500  0.04500400  1
  Y  Y0  1  0.51675300  0.50000000  0.01675300  1
  Y  Y1  1  0.01675300  0.00000000  0.01675300  1
  Ni  Ni0  1  0.43271200  0.92505200  0.52357100  1
  Ni  Ni1  1  0.59851900  0.07494800  0.50766000  1
  Ni  Ni2  1  0.09851900  0.59086000  0.52357100  1
  Ni  Ni3  1  0.93271200  0.40914000  0.50766000  1
  O  O0  1  0.01366400  0.51015300  0.02381700  1
  O  O1  1  0.51366400  0.48984700  0.50351000  1
  O  O2  1  0.19732300  0.20283500  0.51538300  1
  O  O3  1  0.31254800  0.79716500  0.99448800  1
  O  O4  1  0.81254800  0.81806000  0.51538300  1
  O  O5  1  0.69732300  0.18194000  0.99448800  1
  O  O6  1  0.71163100  0.67651900  0.51668700  1
  O  O7  1  0.84016800  0.32348100  0.03511200  1
  O  O8  1  0.34016800  0.30505600  0.51668700  1
  O  O9  1  0.21163100  0.69494400  0.03511200  1
  O  O10  1  0.85461300  0.30440400  0.48002100  1
  O  O11  1  0.17561700  0.69559600  0.55020900  1
  O  O12  1  0.67561700  0.12540800  0.48002100  1
  O  O13  1  0.35461300  0.87459200  0.55020900  1
loop_
_geom_bond_atom_site_label_1
_geom_bond_atom_site_label_2
_geom_bond_distance
_geom_bond_site_symmetry_2
Ni0 O13 1.818979 1_555
Ni0 O5 1.891989 1_565
Ni0 O9 1.914252 1_555
Ni0 O2 2.045798 1_565
Ni0 O6 2.059314 1_555
Ni1 O12 1.818979 1_555
Ni1 O4 1.891989 1_545
Ni1 O8 1.914252 1_555
Ni1 O3 2.045798 1_544
Ni1 O7 2.059314 1_556
Ni2 O11 1.818967 1_555
Ni2 O3 1.891993 1_555
Ni2 O7 1.914255 1_455
Ni2 O4 2.045798 1_455
Ni2 O8 2.059321 1_555
Ni3 O10 1.818967 1_555
Ni3 O2 1.891989 1_655
Ni3 O6 1.914258 1_555
Ni3 O5 2.045801 1_554
Ni3 O9 2.059317 1_656
O0 Sr2 2.571541 1_454
O0 Sr0 2.571547 1_454
O0 Sr3 2.603338 1_555
O0 Sr1 2.603344 1_555
O1 Sr3 2.571527 1_555
O1 Sr1 2.571553 1_555
O1 Sr0 2.603338 1_555
O1 Sr2 2.603347 1_555
O2 Y1 2.331994 1_555
O2 Y0 2.341135 1_556
O3 Y1 2.331994 1_566
O3 Y0 2.341135 1_556
O4 Y0 2.331994 1_555
O4 Y1 2.341135 1_666
O5 Y0 2.331994 1_556
O5 Y1 2.341135 1_656
O6 Y1 2.428969 1_666
O6 Y0 2.429052 1_555
O6 Sr0 3.025031 1_555
O6 Sr3 3.060672 1_555
O7 Y1 2.428969 1_655
O7 Y0 2.429052 1_555
O7 Sr1 3.025031 1_655
O7 Sr2 3.060674 1_554
O8 Y0 2.428969 1_556
O8 Y1 2.429052 1_555
O8 Sr2 3.025040 1_555
O8 Sr1 3.060663 1_555
O9 Y0 2.428969 1_555
O9 Y1 2.429052 1_565
O9 Sr3 3.025043 1_555
O9 Sr0 3.060663 1_454
O10 Sr0 2.697380 1_544
O10 Sr0 2.704889 1_555
O10 Sr3 2.714352 1_656
O10 Sr3 2.762469 1_555
O11 Sr1 2.697380 1_566
O11 Sr1 2.704889 1_555
O11 Sr2 2.714346 1_555
O11 Sr2 2.762475 1_454
O12 Sr2 2.697378 1_544
O12 Sr2 2.704892 1_555
O12 Sr1 2.714348 1_656
O12 Sr1 2.762471 1_555
O13 Sr3 2.697378 1_566
O13 Sr3 2.704892 1_555
O13 Sr0 2.714348 1_555
O13 Sr0 2.762471 1_454
