# generated using pymatgen
data_Yb3Sm
_symmetry_space_group_name_H-M   'P 1'
_cell_length_a   7.16979863
_cell_length_b   7.16979863
_cell_length_c   5.55423310
_cell_angle_alpha   90.00000000
_cell_angle_beta   90.00000000
_cell_angle_gamma   120.00000058
_symmetry_Int_Tables_number   1
_chemical_formula_structural   Yb3Sm
_chemical_formula_sum   'Yb6 Sm2'
_cell_volume   247.26841686
_cell_formula_units_Z   2
loop_
 _symmetry_equiv_pos_site_id
 _symmetry_equiv_pos_as_xyz
  1  'x, y, z'
loop_
 _atom_site_type_symbol
 _atom_site_label
 _atom_site_symmetry_multiplicity
 _atom_site_fract_x
 _atom_site_fract_y
 _atom_site_fract_z
 _atom_site_occupancy
  Yb  Yb0  1  0.16564131  0.33128162  0.25000000  1
  Yb  Yb1  1  0.66871838  0.83435869  0.25000000  1
  Yb  Yb2  1  0.16564131  0.83435869  0.25000000  1
  Yb  Yb3  1  0.83435869  0.66871838  0.75000000  1
  Yb  Yb4  1  0.33128162  0.16564131  0.75000000  1
  Yb  Yb5  1  0.83435869  0.16564131  0.75000000  1
  Sm  Sm0  1  0.33333300  0.66666700  0.75000000  1
  Sm  Sm1  1  0.66666700  0.33333300  0.25000000  1
loop_
_geom_bond_atom_site_label_1
_geom_bond_atom_site_label_2
_geom_bond_distance
_geom_bond_site_symmetry_2
Yb0 Yb4 3.455953 1_554
Yb0 Yb4 3.455953 1_555
Yb0 Yb5 3.455961 1_455
Yb0 Yb5 3.455961 1_454
Yb0 Yb1 3.562837 1_445
Yb0 Yb2 3.562837 1_545
Yb0 Yb1 3.606961 1_555
Yb0 Yb2 3.606961 1_555
Yb1 Yb3 3.455953 1_554
Yb1 Yb3 3.455953 1_555
Yb1 Yb5 3.455961 1_565
Yb1 Yb5 3.455961 1_564
Yb1 Yb2 3.562837 1_655
Yb1 Yb2 3.606961 1_555
Yb2 Yb3 3.455961 1_455
Yb2 Yb3 3.455961 1_454
Yb2 Yb4 3.455961 1_564
Yb2 Yb4 3.455961 1_565
Yb3 Yb4 3.562837 1_665
Yb3 Yb5 3.562837 1_565
Yb3 Yb4 3.606961 1_555
Yb3 Yb5 3.606961 1_555
Yb4 Yb5 3.562837 1_455
Yb4 Yb5 3.606961 1_555
Sm0 Yb2 3.471176 1_556
Sm0 Yb2 3.471176 1_555
Sm0 Yb0 3.471184 1_555
Sm0 Yb0 3.471184 1_556
Sm0 Yb1 3.471184 1_556
Sm0 Yb1 3.471184 1_555
Sm0 Yb5 3.584922 1_565
Sm0 Yb5 3.584922 1_455
Sm0 Yb4 3.584922 1_555
Sm0 Yb3 3.584922 1_555
Sm0 Yb3 3.584922 1_455
Sm0 Yb4 3.584922 1_565
Sm1 Yb5 3.471176 1_554
Sm1 Yb5 3.471176 1_555
Sm1 Yb4 3.471184 1_554
Sm1 Yb4 3.471184 1_555
Sm1 Yb3 3.471184 1_555
Sm1 Yb3 3.471184 1_554
Sm1 Yb2 3.584922 1_655
Sm1 Yb2 3.584922 1_545
Sm1 Yb0 3.584922 1_555
Sm1 Yb1 3.584922 1_555
Sm1 Yb1 3.584922 1_545
Sm1 Yb0 3.584922 1_655
