# generated using pymatgen
data_Y2Zr8O19
_symmetry_space_group_name_H-M   'P 1'
_cell_length_a   3.64661800
_cell_length_b   3.64661800
_cell_length_c   25.74810400
_cell_angle_alpha   90.00000000
_cell_angle_beta   90.00000000
_cell_angle_gamma   90.00000000
_symmetry_Int_Tables_number   1
_chemical_formula_structural   Y2Zr8O19
_chemical_formula_sum   'Y2 Zr8 O19'
_cell_volume   342.39372540
_cell_formula_units_Z   1
loop_
 _symmetry_equiv_pos_site_id
 _symmetry_equiv_pos_as_xyz
  1  'x, y, z'
loop_
 _atom_site_type_symbol
 _atom_site_label
 _atom_site_symmetry_multiplicity
 _atom_site_fract_x
 _atom_site_fract_y
 _atom_site_fract_z
 _atom_site_occupancy
  Y  Y0  1  0.50000000  0.00000000  0.44348400  1
  Y  Y1  1  0.00000000  0.50000000  0.55651600  1
  Zr  Zr0  1  0.50000000  0.00000000  0.65282700  1
  Zr  Zr1  1  0.00000000  0.50000000  0.75195400  1
  Zr  Zr2  1  0.50000000  0.00000000  0.85105700  1
  Zr  Zr3  1  0.00000000  0.50000000  0.95028700  1
  Zr  Zr4  1  0.50000000  0.00000000  0.04971300  1
  Zr  Zr5  1  0.00000000  0.50000000  0.14894300  1
  Zr  Zr6  1  0.50000000  0.00000000  0.24804600  1
  Zr  Zr7  1  0.00000000  0.50000000  0.34717300  1
  O  O0  1  0.00000000  0.00000000  0.00000000  1
  O  O1  1  0.50000000  0.50000000  0.10176200  1
  O  O2  1  0.00000000  0.00000000  0.19466700  1
  O  O3  1  0.50000000  0.50000000  0.30288400  1
  O  O4  1  0.00000000  0.00000000  0.39083800  1
  O  O5  1  0.00000000  0.00000000  0.50000000  1
  O  O6  1  0.00000000  0.00000000  0.60916200  1
  O  O7  1  0.50000000  0.50000000  0.59770400  1
  O  O8  1  0.50000000  0.50000000  0.69711600  1
  O  O9  1  0.00000000  0.00000000  0.80533300  1
  O  O10  1  0.00000000  0.00000000  0.70738900  1
  O  O11  1  0.50000000  0.50000000  0.79735900  1
  O  O12  1  0.50000000  0.50000000  0.89823800  1
  O  O13  1  0.00000000  0.00000000  0.90273800  1
  O  O14  1  0.50000000  0.50000000  0.00000000  1
  O  O15  1  0.00000000  0.00000000  0.09726200  1
  O  O16  1  0.50000000  0.50000000  0.20264100  1
  O  O17  1  0.00000000  0.00000000  0.29261100  1
  O  O18  1  0.50000000  0.50000000  0.40229600  1
loop_
_geom_bond_atom_site_label_1
_geom_bond_atom_site_label_2
_geom_bond_distance
_geom_bond_site_symmetry_2
O0 Zr4 2.227756 1_455
O0 Zr4 2.227756 1_555
O0 Zr3 2.227756 1_554
O0 Zr3 2.227756 1_544
O1 Zr5 2.190946 1_655
O1 Zr5 2.190946 1_555
O1 Zr4 2.262851 1_555
O1 Zr4 2.262851 1_565
O2 Zr5 2.170370 1_555
O2 Zr5 2.170370 1_545
O2 Zr6 2.283299 1_555
O2 Zr6 2.283299 1_455
O3 Zr7 2.150551 1_555
O3 Zr7 2.150551 1_655
O3 Zr6 2.306107 1_555
O3 Zr6 2.306107 1_565
O4 Zr7 2.142075 1_545
O4 Zr7 2.142075 1_555
O4 Y0 2.271988 1_455
O4 Y0 2.271988 1_555
O5 Y1 2.332810 1_555
O5 Y0 2.332810 1_455
O5 Y0 2.332810 1_555
O5 Y1 2.332810 1_545
O6 Zr0 2.142075 1_455
O6 Zr0 2.142075 1_555
O6 Y1 2.271988 1_545
O6 Y1 2.271988 1_555
O7 Y1 2.109299 1_655
O7 Y1 2.109299 1_555
O7 Zr0 2.310607 1_565
O7 Zr0 2.310607 1_555
O8 Zr0 2.150551 1_565
O8 Zr0 2.150551 1_555
O8 Zr1 2.306107 1_655
O8 Zr1 2.306107 1_555
O9 Zr2 2.170370 1_455
O9 Zr2 2.170370 1_555
O9 Zr1 2.283299 1_555
O9 Zr1 2.283299 1_545
O10 Zr1 2.154328 1_545
O10 Zr1 2.154328 1_555
O10 Zr0 2.301762 1_555
O10 Zr0 2.301762 1_455
O11 Zr1 2.165926 1_555
O11 Zr1 2.165926 1_655
O11 Zr2 2.288252 1_555
O11 Zr2 2.288252 1_565
O12 Zr2 2.190946 1_555
O12 Zr2 2.190946 1_565
O12 Zr3 2.262851 1_555
O12 Zr3 2.262851 1_655
O13 Zr3 2.196214 1_555
O13 Zr3 2.196214 1_545
O13 Zr2 2.257252 1_455
O13 Zr2 2.257252 1_555
O14 Zr4 2.227756 1_555
O14 Zr4 2.227756 1_565
O14 Zr3 2.227756 1_554
O14 Zr3 2.227756 1_654
O15 Zr4 2.196214 1_555
O15 Zr4 2.196214 1_455
O15 Zr5 2.257252 1_545
O15 Zr5 2.257252 1_555
O16 Zr6 2.165926 1_555
O16 Zr6 2.165926 1_565
O16 Zr5 2.288252 1_655
O16 Zr5 2.288252 1_555
O17 Zr6 2.154328 1_455
O17 Zr6 2.154328 1_555
O17 Zr7 2.301762 1_545
O17 Zr7 2.301762 1_555
O18 Y0 2.109299 1_555
O18 Y0 2.109299 1_565
O18 Zr7 2.310607 1_655
O18 Zr7 2.310607 1_555
