# generated using pymatgen
data_Pm3Zn
_symmetry_space_group_name_H-M   'P 1'
_cell_length_a   7.04951950
_cell_length_b   7.04951950
_cell_length_c   5.20897754
_cell_angle_alpha   90.00000000
_cell_angle_beta   90.00000000
_cell_angle_gamma   119.99998833
_symmetry_Int_Tables_number   1
_chemical_formula_structural   Pm3Zn
_chemical_formula_sum   'Pm6 Zn2'
_cell_volume   224.18275380
_cell_formula_units_Z   2
loop_
 _symmetry_equiv_pos_site_id
 _symmetry_equiv_pos_as_xyz
  1  'x, y, z'
loop_
 _atom_site_type_symbol
 _atom_site_label
 _atom_site_symmetry_multiplicity
 _atom_site_fract_x
 _atom_site_fract_y
 _atom_site_fract_z
 _atom_site_occupancy
  Pm  Pm0  1  0.17881975  0.35763950  0.25000000  1
  Pm  Pm1  1  0.64236050  0.82118025  0.25000000  1
  Pm  Pm2  1  0.17881975  0.82118025  0.25000000  1
  Pm  Pm3  1  0.82118025  0.64236050  0.75000000  1
  Pm  Pm4  1  0.35763950  0.17881975  0.75000000  1
  Pm  Pm5  1  0.82118025  0.17881975  0.75000000  1
  Zn  Zn0  1  0.33333300  0.66666700  0.75000000  1
  Zn  Zn1  1  0.66666700  0.33333300  0.25000000  1
loop_
_geom_bond_atom_site_label_1
_geom_bond_atom_site_label_2
_geom_bond_distance
_geom_bond_site_symmetry_2
Pm0 Zn0 3.216014 1_554
Pm0 Zn0 3.216014 1_555
Pm0 Pm2 3.267740 1_555
Pm0 Pm1 3.267740 1_555
Pm0 Pm4 3.398624 1_555
Pm0 Pm4 3.398624 1_554
Pm0 Pm5 3.398625 1_454
Pm0 Pm5 3.398625 1_455
Pm0 Zn1 3.527879 1_455
Pm0 Zn1 3.527886 1_555
Pm0 Pm2 3.781780 1_545
Pm0 Pm1 3.781781 1_445
Pm1 Zn0 3.216014 1_554
Pm1 Zn0 3.216014 1_555
Pm1 Pm2 3.267740 1_555
Pm1 Pm3 3.398624 1_555
Pm1 Pm3 3.398624 1_554
Pm1 Pm5 3.398625 1_564
Pm1 Pm5 3.398625 1_565
Pm1 Zn1 3.527879 1_565
Pm1 Zn1 3.527886 1_555
Pm1 Pm2 3.781780 1_655
Pm2 Zn0 3.216010 1_554
Pm2 Zn0 3.216010 1_555
Pm2 Pm4 3.398625 1_565
Pm2 Pm4 3.398625 1_564
Pm2 Pm3 3.398625 1_454
Pm2 Pm3 3.398625 1_455
Pm2 Zn1 3.527882 1_565
Pm2 Zn1 3.527882 1_455
Pm3 Zn1 3.216014 1_555
Pm3 Zn1 3.216014 1_556
Pm3 Pm5 3.267740 1_555
Pm3 Pm4 3.267740 1_555
Pm3 Zn0 3.527879 1_655
Pm3 Zn0 3.527886 1_555
Pm3 Pm5 3.781780 1_565
Pm3 Pm4 3.781781 1_665
Pm4 Zn1 3.216014 1_555
Pm4 Zn1 3.216014 1_556
Pm4 Pm5 3.267740 1_555
Pm4 Zn0 3.527879 1_545
Pm4 Zn0 3.527886 1_555
Pm4 Pm5 3.781780 1_455
Pm5 Zn1 3.216010 1_555
Pm5 Zn1 3.216010 1_556
Pm5 Zn0 3.527882 1_655
Pm5 Zn0 3.527882 1_545
