# generated using pymatgen
data_Ba2V2O5
_symmetry_space_group_name_H-M   'P 1'
_cell_length_a   4.13204724
_cell_length_b   7.96758355
_cell_length_c   8.25039012
_cell_angle_alpha   90.01261936
_cell_angle_beta   90.01567568
_cell_angle_gamma   89.96194831
_symmetry_Int_Tables_number   1
_chemical_formula_structural   Ba2V2O5
_chemical_formula_sum   'Ba4 V4 O10'
_cell_volume   271.62282794
_cell_formula_units_Z   2
loop_
 _symmetry_equiv_pos_site_id
 _symmetry_equiv_pos_as_xyz
  1  'x, y, z'
loop_
 _atom_site_type_symbol
 _atom_site_label
 _atom_site_symmetry_multiplicity
 _atom_site_fract_x
 _atom_site_fract_y
 _atom_site_fract_z
 _atom_site_occupancy
  Ba  Ba0  1  0.00129900  0.00004100  0.00006900  1
  Ba  Ba1  1  0.99929400  0.50003000  0.99995300  1
  Ba  Ba2  1  0.00060500  0.99998500  0.49997900  1
  Ba  Ba3  1  0.00051400  0.50002700  0.50017100  1
  V  V0  1  0.50245200  0.75036600  0.27245200  1
  V  V1  1  0.49993200  0.24972200  0.72736700  1
  V  V2  1  0.49987400  0.25040400  0.25641700  1
  V  V3  1  0.49995800  0.74980100  0.74363200  1
  O  O0  1  0.50049600  0.24989600  0.49812600  1
  O  O1  1  0.49819700  0.74998000  0.50179500  1
  O  O2  1  0.49998800  0.99869200  0.22568200  1
  O  O3  1  0.49980900  0.50150100  0.22548400  1
  O  O4  1  0.49990400  0.00135000  0.77445500  1
  O  O5  1  0.49986700  0.49836000  0.77447000  1
  O  O6  1  0.99990800  0.25020800  0.22945400  1
  O  O7  1  0.99809300  0.74988800  0.23600500  1
  O  O8  1  0.00018000  0.24989900  0.76389700  1
  O  O9  1  0.99964100  0.74985600  0.77059600  1
loop_
_geom_bond_atom_site_label_1
_geom_bond_atom_site_label_2
_geom_bond_distance
_geom_bond_site_symmetry_2
Ba0 O6 2.748259 1_455
Ba0 O9 2.748869 1_444
Ba0 O2 2.776488 1_545
Ba0 O4 2.777001 1_554
Ba0 O4 2.784799 1_454
Ba0 O2 2.785305 1_445
Ba0 O8 2.785956 1_554
Ba0 O7 2.786315 1_445
Ba1 O9 2.746732 1_555
Ba1 O6 2.747526 1_556
Ba1 O5 2.778053 1_555
Ba1 O3 2.779233 1_556
Ba1 O3 2.781651 1_656
Ba1 O5 2.782315 1_655
Ba1 O7 2.784653 1_556
Ba1 O8 2.786229 1_655
Ba2 O1 2.861822 1_555
Ba2 O0 2.868781 1_465
Ba2 O0 2.870043 1_565
Ba2 O1 2.878059 1_455
Ba2 O8 2.950288 1_565
Ba2 O7 2.951633 1_455
Ba2 O6 2.993030 1_465
Ba2 O9 2.993103 1_455
Ba2 O2 3.063001 1_555
Ba2 O4 3.063036 1_565
Ba2 O2 3.065613 1_455
Ba2 O4 3.067766 1_465
Ba3 O1 2.863693 1_555
Ba3 O0 2.869630 1_555
Ba3 O0 2.871635 1_455
Ba3 O1 2.875579 1_455
Ba3 O8 2.950919 1_555
Ba3 O7 2.952171 1_455
Ba3 O9 2.989671 1_455
Ba3 O6 2.991417 1_455
Ba3 O5 3.062110 1_555
Ba3 O3 3.065154 1_555
Ba3 O5 3.066561 1_455
Ba3 O3 3.068233 1_455
O0 V1 1.891331 1_555
O0 V2 1.994199 1_555
O1 V0 1.892259 1_555
O1 V3 1.995262 1_555
O2 V0 2.015936 1_555
O2 V2 2.021448 1_565
O3 V2 2.016904 1_555
O3 V0 2.020315 1_555
O4 V1 2.016782 1_555
O4 V3 2.020251 1_545
O5 V1 2.018717 1_555
O5 V3 2.019524 1_555
O6 V2 2.077767 1_655
O6 V2 2.078165 1_555
O7 V0 2.070052 1_555
O7 V0 2.105542 1_655
O8 V1 2.086958 1_555
O8 V1 2.088824 1_455
O9 V3 2.076604 1_555
O9 V3 2.079329 1_655
