# generated using pymatgen
data_Rb3Ta2AsS11
_symmetry_space_group_name_H-M   'P 1'
_cell_length_a   9.93659157
_cell_length_b   9.93659157
_cell_length_c   9.79468760
_cell_angle_alpha   83.60113002
_cell_angle_beta   83.60113002
_cell_angle_gamma   83.70509896
_symmetry_Int_Tables_number   1
_chemical_formula_structural   Rb3Ta2AsS11
_chemical_formula_sum   'Rb6 Ta4 As2 S22'
_cell_volume   950.43514551
_cell_formula_units_Z   2
loop_
 _symmetry_equiv_pos_site_id
 _symmetry_equiv_pos_as_xyz
  1  'x, y, z'
loop_
 _atom_site_type_symbol
 _atom_site_label
 _atom_site_symmetry_multiplicity
 _atom_site_fract_x
 _atom_site_fract_y
 _atom_site_fract_z
 _atom_site_occupancy
  Rb  Rb0  1  0.30631000  0.46083300  0.33976400  1
  Rb  Rb1  1  0.46083300  0.30631000  0.83976400  1
  Rb  Rb2  1  0.56733900  0.69974700  0.66969200  1
  Rb  Rb3  1  0.69974700  0.56733900  0.16969200  1
  Rb  Rb4  1  0.93319200  0.09520000  0.92674700  1
  Rb  Rb5  1  0.09520000  0.93319200  0.42674700  1
  Ta  Ta0  1  0.20209800  0.66222300  0.94647300  1
  Ta  Ta1  1  0.66222300  0.20209800  0.44647300  1
  Ta  Ta2  1  0.95524000  0.53810100  0.76135000  1
  Ta  Ta3  1  0.53810100  0.95524000  0.26135000  1
  As  As0  1  0.00646600  0.32350600  0.50318400  1
  As  As1  1  0.32350600  0.00646600  0.00318400  1
  S  S0  1  0.21927000  0.63644200  0.69604900  1
  S  S1  1  0.63644200  0.21927000  0.19604900  1
  S  S2  1  0.23074800  0.83388800  0.74676400  1
  S  S3  1  0.83388800  0.23074800  0.24676400  1
  S  S4  1  0.41223100  0.58364800  0.99856100  1
  S  S5  1  0.58364800  0.41223100  0.49856100  1
  S  S6  1  0.12132800  0.33648900  0.69278500  1
  S  S7  1  0.33648900  0.12132800  0.19278500  1
  S  S8  1  0.55314600  0.05287000  0.63775800  1
  S  S9  1  0.05287000  0.55314600  0.13775800  1
  S  S10  1  0.77094200  0.43557100  0.84894600  1
  S  S11  1  0.43557100  0.77094200  0.34894600  1
  S  S12  1  0.91908300  0.54252500  0.51294800  1
  S  S13  1  0.54252500  0.91908300  0.01294800  1
  S  S14  1  0.88167100  0.78160600  0.70671500  1
  S  S15  1  0.78160600  0.88167100  0.20671500  1
  S  S16  1  0.85419200  0.17326500  0.59581000  1
  S  S17  1  0.17326500  0.85419200  0.09581000  1
  S  S18  1  0.09843400  0.43897800  0.96931800  1
  S  S19  1  0.43897800  0.09843400  0.46931800  1
  S  S20  1  0.92628600  0.72763200  0.90848700  1
  S  S21  1  0.72763200  0.92628600  0.40848700  1
loop_
_geom_bond_atom_site_label_1
_geom_bond_atom_site_label_2
_geom_bond_distance
_geom_bond_site_symmetry_2
Rb0 S5 3.277640 1_555
Rb0 S9 3.361208 1_555
Rb0 S11 3.479717 1_555
Rb0 S4 3.514883 1_554
Rb0 S7 3.782528 1_555
Rb0 S19 3.824743 1_555
Rb0 S6 3.871714 1_555
Rb1 S4 3.277640 1_555
Rb1 S8 3.361208 1_555
Rb1 S10 3.479717 1_555
Rb1 S5 3.514883 1_555
Rb1 S6 3.782528 1_555
Rb1 S18 3.824743 1_555
Rb1 S7 3.871714 1_556
Rb2 S14 3.379942 1_555
Rb2 S5 3.450100 1_555
Rb2 S8 3.476544 1_565
Rb2 S2 3.495217 1_555
Rb2 S11 3.507542 1_555
Rb2 S4 3.540795 1_555
Rb2 S10 3.558954 1_555
Rb2 S0 3.558968 1_555
Rb2 S21 3.569844 1_555
Rb2 S12 3.892915 1_555
Rb3 S15 3.379942 1_555
Rb3 S4 3.450100 1_554
Rb3 S9 3.476544 1_655
Rb3 S3 3.495217 1_555
Rb3 S10 3.507542 1_554
Rb3 S5 3.540795 1_555
Rb3 S11 3.558954 1_555
Rb3 S1 3.558968 1_555
Rb3 S20 3.569844 1_554
Rb3 S13 3.892915 1_555
Rb4 S16 3.405574 1_555
Rb4 S3 3.545817 1_556
Rb4 S15 3.574010 1_546
Rb4 S17 3.593267 1_646
Rb4 S10 3.622478 1_555
Rb4 S6 3.646630 1_655
Rb4 S20 3.685082 1_545
Rb5 S17 3.405574 1_555
Rb5 S2 3.545817 1_555
Rb5 S14 3.574010 1_455
Rb5 S16 3.593267 1_465
Rb5 S11 3.622478 1_555
Rb5 S7 3.646630 1_565
Rb5 S21 3.685082 1_455
As0 S12 2.261163 1_455
As0 S16 2.286632 1_455
As0 S6 2.307853 1_555
As0 Rb0 3.555670 1_555
As1 S13 2.261163 1_545
As1 S17 2.286632 1_545
As1 S7 2.307853 1_555
As1 Rb1 3.555670 1_554
S0 S2 2.094730 1_555
S0 Ta0 2.479571 1_555
S0 Ta2 2.880255 1_455
S1 S3 2.094730 1_555
S1 Ta1 2.479571 1_555
S1 Ta3 2.880255 1_545
S2 Ta0 2.460811 1_555
S3 Ta1 2.460811 1_555
S4 Ta0 2.240717 1_555
S5 Ta1 2.240717 1_555
S6 Ta2 2.552613 1_455
S7 Ta3 2.552613 1_545
S8 Ta1 2.482806 1_555
S9 Ta0 2.482806 1_554
S10 Ta2 2.234232 1_555
S11 Ta3 2.234232 1_555
S12 Ta2 2.493619 1_555
S13 Ta3 2.493619 1_555
S14 S20 2.072873 1_555
S14 Ta2 2.466978 1_555
S15 S21 2.072873 1_555
S15 Ta3 2.466978 1_555
S16 Ta1 2.503775 1_555
S17 Ta0 2.503775 1_554
S18 S9 2.086118 1_556
S18 Ta0 2.524084 1_555
S18 Ta2 2.652442 1_455
S19 S8 2.086118 1_555
S19 Ta1 2.524084 1_555
S19 Ta3 2.652442 1_545
S20 Ta2 2.469867 1_555
S20 Ta0 2.802621 1_655
S21 Ta3 2.469867 1_555
S21 Ta1 2.802621 1_565
