# generated using pymatgen
data_Pr3(Al7Cu2)4
_symmetry_space_group_name_H-M   'P 1'
_cell_length_a   7.11004683
_cell_length_b   7.11004683
_cell_length_c   18.92155625
_cell_angle_alpha   87.46961966
_cell_angle_beta   87.46961966
_cell_angle_gamma   137.32311995
_symmetry_Int_Tables_number   1
_chemical_formula_structural   Pr3(Al7Cu2)4
_chemical_formula_sum   'Pr3 Al28 Cu8'
_cell_volume   643.61085980
_cell_formula_units_Z   1
loop_
 _symmetry_equiv_pos_site_id
 _symmetry_equiv_pos_as_xyz
  1  'x, y, z'
loop_
 _atom_site_type_symbol
 _atom_site_label
 _atom_site_symmetry_multiplicity
 _atom_site_fract_x
 _atom_site_fract_y
 _atom_site_fract_z
 _atom_site_occupancy
  Pr  Pr0  1  0.32990500  0.32990500  0.83434000  1
  Pr  Pr1  1  0.67009500  0.67009500  0.16566000  1
  Pr  Pr2  1  0.00000000  0.00000000  0.50000000  1
  Al  Al0  1  0.90273600  0.54149900  0.05135300  1
  Al  Al1  1  0.23461400  0.87672800  0.38393600  1
  Al  Al2  1  0.56745900  0.21039800  0.71690400  1
  Al  Al3  1  0.09726400  0.45850100  0.94864700  1
  Al  Al4  1  0.43254100  0.78960200  0.28309600  1
  Al  Al5  1  0.76538600  0.12327200  0.61606400  1
  Al  Al6  1  0.45850100  0.09726400  0.94864700  1
  Al  Al7  1  0.78960200  0.43254100  0.28309600  1
  Al  Al8  1  0.12327200  0.76538600  0.61606400  1
  Al  Al9  1  0.54149900  0.90273600  0.05135300  1
  Al  Al10  1  0.87672800  0.23461400  0.38393600  1
  Al  Al11  1  0.21039800  0.56745900  0.71690400  1
  Al  Al12  1  0.68055700  0.91323100  0.90462700  1
  Al  Al13  1  0.02341000  0.24860300  0.24051800  1
  Al  Al14  1  0.35653100  0.58279900  0.57284800  1
  Al  Al15  1  0.31944300  0.08676900  0.09537300  1
  Al  Al16  1  0.64346900  0.41720100  0.42715200  1
  Al  Al17  1  0.97659000  0.75139700  0.75948200  1
  Al  Al18  1  0.08676900  0.31944300  0.09537300  1
  Al  Al19  1  0.41720100  0.64346900  0.42715200  1
  Al  Al20  1  0.75139700  0.97659000  0.75948200  1
  Al  Al21  1  0.91323100  0.68055700  0.90462700  1
  Al  Al22  1  0.24860300  0.02341000  0.24051800  1
  Al  Al23  1  0.58279900  0.35653100  0.57284800  1
  Al  Al24  1  0.50000000  0.50000000  0.00000000  1
  Al  Al25  1  0.83258200  0.83258200  0.33353800  1
  Al  Al26  1  0.16741800  0.16741800  0.66646200  1
  Al  Al27  1  0.00000000  0.00000000  0.00000000  1
  Cu  Cu0  1  0.33387500  0.33387500  0.33354300  1
  Cu  Cu1  1  0.66612500  0.66612500  0.66645700  1
  Cu  Cu2  1  0.66676000  0.16782200  0.16812000  1
  Cu  Cu3  1  0.00000000  0.50000000  0.50000000  1
  Cu  Cu4  1  0.33324000  0.83217800  0.83188000  1
  Cu  Cu5  1  0.16782200  0.66676000  0.16812000  1
  Cu  Cu6  1  0.50000000  0.00000000  0.50000000  1
  Cu  Cu7  1  0.83217800  0.33324000  0.83188000  1
loop_
_geom_bond_atom_site_label_1
_geom_bond_atom_site_label_2
_geom_bond_distance
_geom_bond_site_symmetry_2
Al0 Al3 2.664939 1_654
Al0 Cu5 2.701913 1_655
Al0 Cu2 2.712070 1_555
Al0 Al18 2.813596 1_655
Al0 Al15 2.843953 1_555
Al0 Al15 2.848837 1_665
Al0 Al24 2.873912 1_555
Al0 Al21 2.884739 1_554
Al0 Al27 2.897563 1_665
Al0 Pr1 3.214415 1_555
Al1 Al4 2.674677 1_555
Al1 Cu6 2.693630 1_565
Al1 Cu3 2.714304 1_555
Al1 Al16 2.819241 1_565
Al1 Al22 2.834684 1_565
Al1 Al25 2.850718 1_455
Al1 Al19 2.871293 1_555
Al1 Cu0 2.875056 1_565
Al1 Al16 2.877166 1_455
Al1 Pr2 3.220245 1_565
Al2 Cu7 2.674037 1_555
Al2 Al5 2.674677 1_555
Al2 Cu4 2.704906 1_545
Al2 Al23 2.842232 1_555
Al2 Al26 2.842862 1_555
Al2 Cu1 2.868431 1_555
Al2 Al20 2.880007 1_545
Al2 Pr0 3.233872 1_555
Al3 Cu7 2.701913 1_455
Al3 Cu4 2.712070 1_555
Al3 Pr0 3.214415 1_555
Al4 Cu5 2.674037 1_555
Al4 Cu2 2.704906 1_565
Al4 Cu0 2.868431 1_555
Al4 Pr1 3.233872 1_555
Al5 Cu6 2.693630 1_555
Al5 Cu3 2.714304 1_655
Al5 Cu1 2.875056 1_545
Al5 Pr2 3.220245 1_655
Al6 Al9 2.664939 1_546
Al6 Cu4 2.701913 1_545
Al6 Cu7 2.712070 1_555
Al6 Pr0 3.214415 1_555
Al7 Cu2 2.674037 1_555
Al7 Cu5 2.704906 1_655
Al7 Cu0 2.868431 1_555
Al7 Pr1 3.233872 1_555
Al8 Cu3 2.693630 1_555
Al8 Cu6 2.714304 1_565
Al8 Cu1 2.875056 1_455
Al8 Pr2 3.220245 1_565
Al9 Cu2 2.701913 1_565
Al9 Cu5 2.712070 1_555
Al9 Pr1 3.214415 1_555
Al10 Al7 2.674677 1_555
Al10 Cu3 2.693630 1_655
Al10 Cu6 2.714304 1_555
Al10 Al19 2.819241 1_655
Al10 Al13 2.834684 1_655
Al10 Al25 2.850718 1_545
Al10 Al16 2.871293 1_555
Al10 Cu0 2.875056 1_655
Al10 Al19 2.877166 1_545
Al10 Pr2 3.220245 1_655
Al11 Cu4 2.674037 1_555
Al11 Al8 2.674677 1_555
Al11 Cu7 2.704906 1_455
Al11 Al20 2.816881 1_555
Al11 Al14 2.842232 1_555
Al11 Al26 2.842862 1_555
Al11 Cu1 2.868431 1_555
Al11 Al20 2.873755 1_445
Al11 Al17 2.880007 1_455
Al11 Pr0 3.233872 1_555
Al12 Cu4 2.569558 1_555
Al12 Cu7 2.597533 1_565
Al12 Al27 2.682483 1_666
Al12 Al24 2.705238 1_556
Al12 Al20 2.726566 1_555
Al12 Al6 2.813596 1_565
Al12 Al3 2.843953 1_555
Al12 Al3 2.848837 1_665
Al12 Al9 2.884739 1_556
Al12 Al21 3.081829 1_555
Al12 Pr0 3.280518 1_555
Al12 Pr0 3.295389 1_665
Al13 Cu5 2.607258 1_555
Al13 Cu0 2.609209 1_555
Al13 Cu2 2.621336 1_455
Al13 Al25 2.667677 1_445
Al13 Al18 2.726566 1_555
Al13 Al4 2.816881 1_555
Al13 Al4 2.873755 1_445
Al13 Al7 2.880007 1_455
Al13 Al22 2.982742 1_555
Al13 Pr1 3.297118 1_445
Al13 Pr1 3.304221 1_555
Al14 Cu6 2.608685 1_565
Al14 Cu1 2.617828 1_555
Al14 Cu3 2.618858 1_555
Al14 Al26 2.675204 1_555
Al14 Al19 2.736506 1_555
Al14 Al5 2.819241 1_565
Al14 Al8 2.871293 1_555
Al14 Al5 2.877166 1_455
Al14 Al23 2.996980 1_555
Al14 Pr2 3.279923 1_665
Al14 Pr2 3.296096 1_555
Al15 Cu2 2.569558 1_555
Al15 Cu5 2.597533 1_545
Al15 Al27 2.682483 1_555
Al15 Al24 2.705238 1_555
Al15 Al22 2.726566 1_555
Al15 Al9 2.813596 1_545
Al15 Al6 2.884739 1_554
Al15 Al18 3.081829 1_555
Al15 Pr1 3.280518 1_555
Al15 Pr1 3.295389 1_445
Al16 Cu6 2.608685 1_555
Al16 Cu0 2.617828 1_555
Al16 Cu3 2.618858 1_655
Al16 Al25 2.675204 1_555
Al16 Al23 2.736506 1_555
Al16 Al7 2.842232 1_555
Al16 Al19 2.996980 1_555
Al16 Pr2 3.279923 1_555
Al16 Pr2 3.296096 1_665
Al17 Cu7 2.607258 1_555
Al17 Cu1 2.609209 1_555
Al17 Cu4 2.621336 1_655
Al17 Al26 2.667677 1_665
Al17 Al21 2.726566 1_555
Al17 Al2 2.816881 1_555
Al17 Al8 2.834684 1_655
Al17 Al2 2.873755 1_665
Al17 Al20 2.982742 1_555
Al17 Pr0 3.297118 1_665
Al17 Pr0 3.304221 1_555
Al18 Cu5 2.569558 1_555
Al18 Cu2 2.597533 1_455
Al18 Al27 2.682483 1_555
Al18 Al24 2.705238 1_555
Al18 Al9 2.843953 1_555
Al18 Al9 2.848837 1_445
Al18 Al3 2.884739 1_554
Al18 Pr1 3.280518 1_555
Al18 Pr1 3.295389 1_445
Al19 Cu3 2.608685 1_555
Al19 Cu0 2.617828 1_555
Al19 Cu6 2.618858 1_565
Al19 Al25 2.675204 1_555
Al19 Al4 2.842232 1_555
Al19 Pr2 3.279923 1_555
Al19 Pr2 3.296096 1_665
Al20 Cu4 2.607258 1_555
Al20 Cu1 2.609209 1_555
Al20 Cu7 2.621336 1_565
Al20 Al26 2.667677 1_665
Al20 Al5 2.834684 1_565
Al20 Pr0 3.297118 1_665
Al20 Pr0 3.304221 1_555
Al21 Cu7 2.569558 1_555
Al21 Cu4 2.597533 1_655
Al21 Al27 2.682483 1_666
Al21 Al24 2.705238 1_556
Al21 Al3 2.813596 1_655
Al21 Al6 2.843953 1_555
Al21 Al6 2.848837 1_665
Al21 Pr0 3.280518 1_555
Al21 Pr0 3.295389 1_665
Al22 Cu2 2.607258 1_555
Al22 Cu0 2.609209 1_555
Al22 Cu5 2.621336 1_545
Al22 Al25 2.667677 1_445
Al22 Al7 2.816881 1_555
Al22 Al7 2.873755 1_445
Al22 Al4 2.880007 1_545
Al22 Pr1 3.297118 1_445
Al22 Pr1 3.304221 1_555
Al23 Cu3 2.608685 1_655
Al23 Cu1 2.617828 1_555
Al23 Cu6 2.618858 1_555
Al23 Al26 2.675204 1_555
Al23 Al8 2.819241 1_655
Al23 Al5 2.871293 1_555
Al23 Al8 2.877166 1_545
Al23 Pr2 3.279923 1_665
Al23 Pr2 3.296096 1_555
Al24 Al27 2.587177 1_665
Al24 Al27 2.587177 1_555
Al24 Al9 2.873912 1_555
Al24 Al6 2.873912 1_554
Al24 Al3 2.873912 1_554
Al24 Pr0 3.357001 1_554
Al24 Pr1 3.357001 1_555
Al25 Cu0 2.580475 1_555
Al25 Cu0 2.593879 1_665
Al25 Al4 2.842862 1_555
Al25 Al7 2.842862 1_555
Al25 Pr2 3.366495 1_665
Al25 Pr1 3.383075 1_555
Al26 Cu1 2.580475 1_555
Al26 Cu1 2.593879 1_445
Al26 Al5 2.850718 1_455
Al26 Al8 2.850718 1_545
Al26 Pr2 3.366495 1_555
Al26 Pr0 3.383075 1_555
Al27 Al9 2.897563 1_445
Al27 Al6 2.897563 1_554
Al27 Al3 2.897563 1_554
Al27 Pr0 3.382447 1_554
Al27 Pr1 3.382447 1_445
Cu0 Pr2 3.403575 1_555
Cu0 Pr1 3.431680 1_555
Cu1 Pr2 3.403575 1_665
Cu1 Pr0 3.431680 1_555
Cu2 Cu5 2.587215 1_655
Cu2 Cu5 2.587215 1_545
Cu2 Pr1 3.552014 1_555
Cu2 Pr1 3.558666 1_545
Cu3 Cu6 2.587177 1_565
Cu3 Cu6 2.587177 1_455
Cu3 Pr2 3.555023 1_565
Cu3 Pr2 3.555023 1_555
Cu4 Cu7 2.587215 1_455
Cu4 Cu7 2.587215 1_565
Cu4 Pr0 3.552014 1_555
Cu4 Pr0 3.558666 1_565
Cu5 Pr1 3.552014 1_555
Cu5 Pr1 3.558666 1_455
Cu6 Pr2 3.555023 1_655
Cu6 Pr2 3.555023 1_555
Cu7 Pr0 3.552014 1_555
Cu7 Pr0 3.558666 1_655
