# generated using pymatgen
data_Sc6Al16Ru7
_symmetry_space_group_name_H-M   'P 1'
_cell_length_a   8.74979022
_cell_length_b   8.74979022
_cell_length_c   8.74979022
_cell_angle_alpha   60.00000000
_cell_angle_beta   60.00000000
_cell_angle_gamma   60.00000000
_symmetry_Int_Tables_number   1
_chemical_formula_structural   Sc6Al16Ru7
_chemical_formula_sum   'Sc6 Al16 Ru7'
_cell_volume   473.67223071
_cell_formula_units_Z   1
loop_
 _symmetry_equiv_pos_site_id
 _symmetry_equiv_pos_as_xyz
  1  'x, y, z'
loop_
 _atom_site_type_symbol
 _atom_site_label
 _atom_site_symmetry_multiplicity
 _atom_site_fract_x
 _atom_site_fract_y
 _atom_site_fract_z
 _atom_site_occupancy
  Sc  Sc0  1  0.71005200  0.71005200  0.28994800  1
  Sc  Sc1  1  0.28994800  0.71005200  0.28994800  1
  Sc  Sc2  1  0.71005200  0.28994800  0.28994800  1
  Sc  Sc3  1  0.28994800  0.28994800  0.71005200  1
  Sc  Sc4  1  0.71005200  0.28994800  0.71005200  1
  Sc  Sc5  1  0.28994800  0.71005200  0.71005200  1
  Al  Al0  1  0.87954200  0.87954200  0.36137400  1
  Al  Al1  1  0.87954200  0.36137400  0.87954200  1
  Al  Al2  1  0.36137400  0.87954200  0.87954200  1
  Al  Al3  1  0.87954200  0.87954200  0.87954200  1
  Al  Al4  1  0.12045800  0.12045800  0.63862600  1
  Al  Al5  1  0.12045800  0.63862600  0.12045800  1
  Al  Al6  1  0.63862600  0.12045800  0.12045800  1
  Al  Al7  1  0.12045800  0.12045800  0.12045800  1
  Al  Al8  1  0.66373000  0.66373000  0.00881000  1
  Al  Al9  1  0.66373000  0.00881000  0.66373000  1
  Al  Al10  1  0.00881000  0.66373000  0.66373000  1
  Al  Al11  1  0.66373000  0.66373000  0.66373000  1
  Al  Al12  1  0.33627000  0.33627000  0.99119000  1
  Al  Al13  1  0.33627000  0.99119000  0.33627000  1
  Al  Al14  1  0.99119000  0.33627000  0.33627000  1
  Al  Al15  1  0.33627000  0.33627000  0.33627000  1
  Ru  Ru0  1  0.00000000  0.00000000  0.00000000  1
  Ru  Ru1  1  0.00000000  0.00000000  0.50000000  1
  Ru  Ru2  1  0.50000000  0.00000000  0.50000000  1
  Ru  Ru3  1  0.00000000  0.50000000  0.50000000  1
  Ru  Ru4  1  0.50000000  0.50000000  0.00000000  1
  Ru  Ru5  1  0.00000000  0.50000000  0.00000000  1
  Ru  Ru6  1  0.50000000  0.00000000  0.00000000  1
loop_
_geom_bond_atom_site_label_1
_geom_bond_atom_site_label_2
_geom_bond_distance
_geom_bond_site_symmetry_2
Al0 Ru0 2.581719 1_665
Al0 Ru2 2.713067 1_565
Al0 Ru3 2.713067 1_655
Al0 Ru1 2.713067 1_665
Al0 Al11 2.775760 1_555
Al0 Al10 2.775760 1_655
Al0 Al9 2.775760 1_565
Al0 Sc0 2.973568 1_555
Al0 Sc1 2.973568 1_655
Al0 Sc2 2.973568 1_565
Al0 Al6 2.981112 1_565
Al0 Al5 2.981112 1_655
Al0 Al7 2.981112 1_665
Al1 Ru0 2.581719 1_656
Al1 Ru4 2.713067 1_556
Al1 Ru3 2.713067 1_655
Al1 Ru5 2.713067 1_656
Al1 Al11 2.775760 1_555
Al1 Al10 2.775760 1_655
Al1 Al8 2.775760 1_556
Al1 Sc4 2.973568 1_555
Al1 Sc3 2.973568 1_655
Al1 Sc2 2.973568 1_556
Al1 Al6 2.981112 1_556
Al1 Al4 2.981112 1_655
Al1 Al7 2.981112 1_656
Al2 Ru0 2.581719 1_566
Al2 Ru2 2.713067 1_565
Al2 Ru4 2.713067 1_556
Al2 Ru6 2.713067 1_566
Al2 Al8 2.775760 1_556
Al2 Al9 2.775760 1_565
Al2 Sc5 2.973568 1_555
Al2 Sc3 2.973568 1_565
Al2 Sc1 2.973568 1_556
Al2 Al4 2.981112 1_565
Al2 Al5 2.981112 1_556
Al2 Al7 2.981112 1_566
Al3 Ru0 2.581719 1_666
Al3 Ru6 2.713067 1_566
Al3 Ru1 2.713067 1_665
Al3 Ru5 2.713067 1_656
Al3 Al9 2.775760 1_565
Al3 Al8 2.775760 1_556
Al3 Sc4 2.973568 1_565
Al3 Sc5 2.973568 1_655
Al3 Sc0 2.973568 1_556
Al3 Al5 2.981112 1_656
Al3 Al6 2.981112 1_566
Al3 Al4 2.981112 1_665
Al4 Ru0 2.581719 1_556
Al4 Ru1 2.713067 1_555
Al4 Ru3 2.713067 1_555
Al4 Ru2 2.713067 1_555
Al4 Sc5 2.973568 1_545
Al4 Sc4 2.973568 1_455
Al4 Sc3 2.973568 1_555
Al5 Ru0 2.581719 1_565
Al5 Ru5 2.713067 1_555
Al5 Ru3 2.713067 1_555
Al5 Ru4 2.713067 1_555
Al5 Sc5 2.973568 1_554
Al5 Sc0 2.973568 1_455
Al5 Sc1 2.973568 1_555
Al6 Ru0 2.581719 1_655
Al6 Ru6 2.713067 1_555
Al6 Ru4 2.713067 1_555
Al6 Ru2 2.713067 1_555
Al6 Sc0 2.973568 1_545
Al6 Sc4 2.973568 1_554
Al6 Sc2 2.973568 1_555
Al7 Ru0 2.581719 1_555
Al7 Ru6 2.713067 1_555
Al7 Ru1 2.713067 1_555
Al7 Ru5 2.713067 1_555
Al7 Sc2 2.973568 1_455
Al7 Sc3 2.973568 1_554
Al7 Sc1 2.973568 1_545
Al8 Ru6 2.526631 1_565
Al8 Ru5 2.526631 1_655
Al8 Ru4 2.526631 1_555
Al8 Sc0 2.921978 1_555
Al8 Sc2 2.921978 1_555
Al8 Sc1 2.921978 1_555
Al8 Al9 3.019378 1_564
Al9 Ru6 2.526631 1_556
Al9 Ru1 2.526631 1_655
Al9 Ru2 2.526631 1_555
Al9 Sc4 2.921978 1_555
Al9 Sc2 2.921978 1_555
Al9 Sc3 2.921978 1_555
Al10 Ru1 2.526631 1_565
Al10 Ru5 2.526631 1_556
Al10 Ru3 2.526631 1_555
Al10 Al3 2.775760 1_455
Al10 Sc3 2.921978 1_555
Al10 Sc5 2.921978 1_555
Al10 Sc1 2.921978 1_555
Al10 Al9 3.019378 1_465
Al10 Al8 3.019378 1_456
Al10 Al11 3.019378 1_455
Al11 Ru3 2.526631 1_655
Al11 Ru2 2.526631 1_565
Al11 Ru4 2.526631 1_556
Al11 Al2 2.775760 1_555
Al11 Sc5 2.921978 1_555
Al11 Sc0 2.921978 1_555
Al11 Sc4 2.921978 1_555
Al11 Al8 3.019378 1_556
Al11 Al9 3.019378 1_565
Al12 Ru4 2.526631 1_556
Al12 Ru5 2.526631 1_556
Al12 Ru6 2.526631 1_556
Al12 Al5 2.775760 1_556
Al12 Al6 2.775760 1_556
Al12 Al7 2.775760 1_556
Al12 Sc5 2.921978 1_555
Al12 Sc4 2.921978 1_555
Al12 Sc3 2.921978 1_555
Al12 Al13 3.019378 1_546
Al12 Al15 3.019378 1_556
Al12 Al14 3.019378 1_456
Al13 Ru2 2.526631 1_565
Al13 Ru6 2.526631 1_565
Al13 Ru1 2.526631 1_565
Al13 Al6 2.775760 1_565
Al13 Al4 2.775760 1_565
Al13 Al7 2.775760 1_565
Al13 Sc5 2.921978 1_555
Al13 Sc0 2.921978 1_555
Al13 Sc1 2.921978 1_555
Al13 Al14 3.019378 1_465
Al13 Al15 3.019378 1_565
Al14 Ru3 2.526631 1_655
Al14 Ru1 2.526631 1_655
Al14 Ru5 2.526631 1_655
Al14 Al4 2.775760 1_655
Al14 Al5 2.775760 1_655
Al14 Al7 2.775760 1_655
Al14 Sc0 2.921978 1_555
Al14 Sc4 2.921978 1_555
Al14 Sc2 2.921978 1_555
Al14 Al15 3.019378 1_655
Al15 Ru2 2.526631 1_555
Al15 Ru3 2.526631 1_555
Al15 Ru4 2.526631 1_555
Al15 Al4 2.775760 1_555
Al15 Al5 2.775760 1_555
Al15 Al6 2.775760 1_555
Al15 Sc2 2.921978 1_555
Al15 Sc1 2.921978 1_555
Al15 Sc3 2.921978 1_555
