# generated using pymatgen
data_Mg5Sb
_symmetry_space_group_name_H-M   'P 1'
_cell_length_a   12.17236404
_cell_length_b   12.17236404
_cell_length_c   15.35264743
_cell_angle_alpha   74.07777190
_cell_angle_beta   74.07777190
_cell_angle_gamma   31.05486069
_symmetry_Int_Tables_number   1
_chemical_formula_structural   Mg5Sb
_chemical_formula_sum   'Mg40 Sb8'
_cell_volume   1124.87828926
_cell_formula_units_Z   8
loop_
 _symmetry_equiv_pos_site_id
 _symmetry_equiv_pos_as_xyz
  1  'x, y, z'
loop_
 _atom_site_type_symbol
 _atom_site_label
 _atom_site_symmetry_multiplicity
 _atom_site_fract_x
 _atom_site_fract_y
 _atom_site_fract_z
 _atom_site_occupancy
  Mg  Mg0_0  1  0.49924350  0.49924350  0.49846400  1
  Mg  Mg0_1  1  0.49924350  0.49924350  0.99846400  1
  Mg  Mg0_2  1  0.49924350  0.99924350  0.49846400  1
  Mg  Mg0_3  1  0.49924350  0.99924350  0.99846400  1
  Mg  Mg0_4  1  0.99924350  0.49924350  0.49846400  1
  Mg  Mg0_5  1  0.99924350  0.49924350  0.99846400  1
  Mg  Mg0_6  1  0.99924350  0.99924350  0.49846400  1
  Mg  Mg0_7  1  0.99924350  0.99924350  0.99846400  1
  Mg  Mg1_0  1  0.16665050  0.16665050  0.16606250  1
  Mg  Mg1_1  1  0.16665050  0.16665050  0.66606250  1
  Mg  Mg1_2  1  0.16665050  0.66665050  0.16606250  1
  Mg  Mg1_3  1  0.16665050  0.66665050  0.66606250  1
  Mg  Mg1_4  1  0.66665050  0.16665050  0.16606250  1
  Mg  Mg1_5  1  0.66665050  0.16665050  0.66606250  1
  Mg  Mg1_6  1  0.66665050  0.66665050  0.16606250  1
  Mg  Mg1_7  1  0.66665050  0.66665050  0.66606250  1
  Mg  Mg2_0  1  0.47187200  0.47187200  0.30564650  1
  Mg  Mg2_1  1  0.47187200  0.47187200  0.80564650  1
  Mg  Mg2_2  1  0.47187200  0.97187200  0.30564650  1
  Mg  Mg2_3  1  0.47187200  0.97187200  0.80564650  1
  Mg  Mg2_4  1  0.97187200  0.47187200  0.30564650  1
  Mg  Mg2_5  1  0.97187200  0.47187200  0.80564650  1
  Mg  Mg2_6  1  0.97187200  0.97187200  0.30564650  1
  Mg  Mg2_7  1  0.97187200  0.97187200  0.80564650  1
  Mg  Mg3_0  1  0.33441100  0.33441100  0.33421050  1
  Mg  Mg3_1  1  0.33441100  0.33441100  0.83421050  1
  Mg  Mg3_2  1  0.33441100  0.83441100  0.33421050  1
  Mg  Mg3_3  1  0.33441100  0.83441100  0.83421050  1
  Mg  Mg3_4  1  0.83441100  0.33441100  0.33421050  1
  Mg  Mg3_5  1  0.83441100  0.33441100  0.83421050  1
  Mg  Mg3_6  1  0.83441100  0.83441100  0.33421050  1
  Mg  Mg3_7  1  0.83441100  0.83441100  0.83421050  1
  Mg  Mg4_0  1  0.13992400  0.13992400  0.47118850  1
  Mg  Mg4_1  1  0.13992400  0.13992400  0.97118850  1
  Mg  Mg4_2  1  0.13992400  0.63992400  0.47118850  1
  Mg  Mg4_3  1  0.13992400  0.63992400  0.97118850  1
  Mg  Mg4_4  1  0.63992400  0.13992400  0.47118850  1
  Mg  Mg4_5  1  0.63992400  0.13992400  0.97118850  1
  Mg  Mg4_6  1  0.63992400  0.63992400  0.47118850  1
  Mg  Mg4_7  1  0.63992400  0.63992400  0.97118850  1
  Sb  Sb0_0  1  0.30456600  0.30456600  0.14109450  1
  Sb  Sb0_1  1  0.30456600  0.30456600  0.64109450  1
  Sb  Sb0_2  1  0.30456600  0.80456600  0.14109450  1
  Sb  Sb0_3  1  0.30456600  0.80456600  0.64109450  1
  Sb  Sb0_4  1  0.80456600  0.30456600  0.14109450  1
  Sb  Sb0_5  1  0.80456600  0.30456600  0.64109450  1
  Sb  Sb0_6  1  0.80456600  0.80456600  0.14109450  1
  Sb  Sb0_7  1  0.80456600  0.80456600  0.64109450  1
loop_
_geom_bond_atom_site_label_1
_geom_bond_atom_site_label_2
_geom_bond_distance
_geom_bond_site_symmetry_2
Mg0_0 Mg4_4 3.164894 1_555
Mg0_0 Mg4_2 3.164894 1_555
Mg0_0 Mg3_2 3.183671 1_555
Mg0_0 Mg3_4 3.183671 1_555
Mg0_0 Mg1_3 3.192152 1_555
Mg0_0 Mg1_5 3.192152 1_555
Mg0_0 Mg2_0 3.202752 1_555
Mg0_0 Mg4_6 3.205833 1_555
Mg0_0 Mg0_6 3.258538 1_545
Mg0_0 Mg0_6 3.258538 1_455
Mg0_0 Sb0_5 3.278959 1_555
Mg0_0 Sb0_3 3.278959 1_555
Mg0_1 Mg4_5 3.164894 1_555
Mg0_1 Mg4_3 3.164894 1_555
Mg0_1 Mg3_5 3.183671 1_555
Mg0_1 Mg3_3 3.183671 1_555
Mg0_1 Mg1_2 3.192152 1_556
Mg0_1 Mg1_4 3.192152 1_556
Mg0_1 Mg2_1 3.202752 1_555
Mg0_1 Mg4_7 3.205833 1_555
Mg0_1 Mg0_7 3.258538 1_455
Mg0_1 Mg0_7 3.258538 1_545
Mg0_1 Sb0_2 3.278959 1_556
Mg0_1 Sb0_4 3.278959 1_556
Mg0_2 Mg4_6 3.164894 1_555
Mg0_2 Mg4_0 3.164894 1_565
Mg0_2 Mg3_6 3.183671 1_555
Mg0_2 Mg3_0 3.183671 1_565
Mg0_2 Mg1_7 3.192152 1_555
Mg0_2 Mg1_1 3.192152 1_565
Mg0_2 Mg2_2 3.202752 1_555
Mg0_2 Mg4_4 3.205833 1_565
Mg0_2 Mg0_4 3.258538 1_555
Mg0_2 Mg0_4 3.258538 1_465
Mg0_2 Sb0_7 3.278959 1_555
Mg0_2 Sb0_1 3.278959 1_565
Mg0_3 Mg4_7 3.164894 1_555
Mg0_3 Mg4_1 3.164894 1_565
Mg0_3 Mg3_7 3.183671 1_555
Mg0_3 Mg3_1 3.183671 1_565
Mg0_3 Mg1_0 3.192152 1_566
Mg0_3 Mg1_6 3.192152 1_556
Mg0_3 Mg2_3 3.202752 1_555
Mg0_3 Mg4_5 3.205833 1_565
Mg0_3 Mg0_5 3.258538 1_465
Mg0_3 Mg0_5 3.258538 1_555
Mg0_3 Sb0_6 3.278959 1_556
Mg0_3 Sb0_0 3.278959 1_566
Mg0_4 Mg4_6 3.164894 1_555
Mg0_4 Mg4_0 3.164894 1_655
Mg0_4 Mg3_6 3.183671 1_555
Mg0_4 Mg3_0 3.183671 1_655
Mg0_4 Mg1_7 3.192152 1_555
Mg0_4 Mg1_1 3.192152 1_655
Mg0_4 Mg2_4 3.202752 1_555
Mg0_4 Mg4_2 3.205833 1_655
Mg0_4 Sb0_7 3.278959 1_555
Mg0_4 Sb0_1 3.278959 1_655
Mg0_5 Mg4_7 3.164894 1_555
Mg0_5 Mg4_1 3.164894 1_655
Mg0_5 Mg3_7 3.183671 1_555
Mg0_5 Mg3_1 3.183671 1_655
Mg0_5 Mg1_0 3.192152 1_656
Mg0_5 Mg1_6 3.192152 1_556
Mg0_5 Mg2_5 3.202752 1_555
Mg0_5 Mg4_3 3.205833 1_655
Mg0_5 Sb0_6 3.278959 1_556
Mg0_5 Sb0_0 3.278959 1_656
Mg0_6 Mg4_2 3.164894 1_655
Mg0_6 Mg4_4 3.164894 1_565
Mg0_6 Mg3_2 3.183671 1_655
Mg0_6 Mg3_4 3.183671 1_565
Mg0_6 Mg1_5 3.192152 1_565
Mg0_6 Mg1_3 3.192152 1_655
Mg0_6 Mg2_6 3.202752 1_555
Mg0_6 Mg4_0 3.205833 1_665
Mg0_6 Sb0_5 3.278959 1_565
Mg0_6 Sb0_3 3.278959 1_655
Mg0_7 Mg4_3 3.164894 1_655
Mg0_7 Mg4_5 3.164894 1_565
Mg0_7 Mg3_5 3.183671 1_565
Mg0_7 Mg3_3 3.183671 1_655
Mg0_7 Mg1_4 3.192152 1_566
Mg0_7 Mg1_2 3.192152 1_656
Mg0_7 Mg2_7 3.202752 1_555
Mg0_7 Mg4_1 3.205833 1_665
Mg0_7 Sb0_4 3.278959 1_566
Mg0_7 Sb0_2 3.278959 1_656
Mg1_0 Sb0_0 3.147357 1_555
Mg1_0 Mg3_2 3.194393 1_545
Mg1_0 Mg3_4 3.194393 1_455
Mg1_0 Sb0_4 3.207395 1_455
Mg1_0 Sb0_2 3.207395 1_545
Mg1_0 Mg4_1 3.226781 1_554
Mg1_1 Sb0_1 3.147357 1_555
Mg1_1 Mg3_5 3.194393 1_455
Mg1_1 Mg3_3 3.194393 1_545
Mg1_1 Sb0_5 3.207395 1_455
Mg1_1 Sb0_3 3.207395 1_545
Mg1_1 Mg4_0 3.226781 1_555
Mg1_2 Sb0_2 3.147357 1_555
Mg1_2 Mg3_0 3.194393 1_555
Mg1_2 Mg3_6 3.194393 1_455
Mg1_2 Sb0_0 3.207395 1_555
Mg1_2 Sb0_6 3.207395 1_455
Mg1_2 Mg4_3 3.226781 1_554
Mg1_3 Sb0_3 3.147357 1_555
Mg1_3 Mg3_1 3.194393 1_555
Mg1_3 Mg3_7 3.194393 1_455
Mg1_3 Sb0_1 3.207395 1_555
Mg1_3 Sb0_7 3.207395 1_455
Mg1_3 Mg4_2 3.226781 1_555
Mg1_4 Sb0_4 3.147357 1_555
Mg1_4 Mg3_0 3.194393 1_555
Mg1_4 Mg3_6 3.194393 1_545
Mg1_4 Sb0_0 3.207395 1_555
Mg1_4 Sb0_6 3.207395 1_545
Mg1_4 Mg4_5 3.226781 1_554
Mg1_5 Sb0_5 3.147357 1_555
Mg1_5 Mg3_1 3.194393 1_555
Mg1_5 Mg3_7 3.194393 1_545
Mg1_5 Sb0_1 3.207395 1_555
Mg1_5 Sb0_7 3.207395 1_545
Mg1_5 Mg4_4 3.226781 1_555
Mg1_6 Sb0_6 3.147357 1_555
Mg1_6 Mg3_2 3.194393 1_555
Mg1_6 Mg3_4 3.194393 1_555
Mg1_6 Sb0_2 3.207395 1_555
Mg1_6 Sb0_4 3.207395 1_555
Mg1_6 Mg4_7 3.226781 1_554
Mg1_7 Sb0_7 3.147357 1_555
Mg1_7 Mg3_5 3.194393 1_555
Mg1_7 Mg3_3 3.194393 1_555
Mg1_7 Sb0_5 3.207395 1_555
Mg1_7 Sb0_3 3.207395 1_555
Mg1_7 Mg4_6 3.226781 1_555
Mg2_0 Mg3_0 3.127831 1_555
Mg2_0 Sb0_2 3.163653 1_555
Mg2_0 Sb0_4 3.163653 1_555
Mg2_0 Mg4_2 3.166495 1_555
Mg2_0 Mg4_4 3.166495 1_555
Mg2_0 Mg3_2 3.236394 1_555
Mg2_0 Mg3_4 3.236394 1_555
Mg2_1 Mg3_1 3.127831 1_555
Mg2_1 Sb0_3 3.163653 1_555
Mg2_1 Sb0_5 3.163653 1_555
Mg2_1 Mg4_3 3.166495 1_555
Mg2_1 Mg4_5 3.166495 1_555
Mg2_1 Mg3_5 3.236394 1_555
Mg2_1 Mg3_3 3.236394 1_555
Mg2_2 Mg3_2 3.127831 1_555
Mg2_2 Sb0_6 3.163653 1_555
Mg2_2 Sb0_0 3.163653 1_565
Mg2_2 Mg4_6 3.166495 1_555
Mg2_2 Mg4_0 3.166495 1_565
Mg2_2 Mg3_6 3.236394 1_555
Mg2_2 Mg3_0 3.236394 1_565
Mg2_3 Mg3_3 3.127831 1_555
Mg2_3 Sb0_7 3.163653 1_555
Mg2_3 Sb0_1 3.163653 1_565
Mg2_3 Mg4_7 3.166495 1_555
Mg2_3 Mg4_1 3.166495 1_565
Mg2_3 Mg3_7 3.236394 1_555
Mg2_3 Mg3_1 3.236394 1_565
Mg2_4 Mg3_4 3.127831 1_555
Mg2_4 Sb0_6 3.163653 1_555
Mg2_4 Sb0_0 3.163653 1_655
Mg2_4 Mg4_6 3.166495 1_555
Mg2_4 Mg4_0 3.166495 1_655
Mg2_4 Mg3_6 3.236394 1_555
Mg2_4 Mg3_0 3.236394 1_655
Mg2_5 Mg3_5 3.127831 1_555
Mg2_5 Sb0_7 3.163653 1_555
Mg2_5 Sb0_1 3.163653 1_655
Mg2_5 Mg4_7 3.166495 1_555
Mg2_5 Mg4_1 3.166495 1_655
Mg2_5 Mg3_7 3.236394 1_555
Mg2_5 Mg3_1 3.236394 1_655
Mg2_6 Mg3_6 3.127831 1_555
Mg2_6 Sb0_4 3.163653 1_565
Mg2_6 Sb0_2 3.163653 1_655
Mg2_6 Mg4_2 3.166495 1_655
Mg2_6 Mg4_4 3.166495 1_565
Mg2_6 Mg3_2 3.236394 1_655
Mg2_6 Mg3_4 3.236394 1_565
Mg2_7 Mg3_7 3.127831 1_555
Mg2_7 Sb0_3 3.163653 1_655
Mg2_7 Sb0_5 3.163653 1_565
Mg2_7 Mg4_3 3.166495 1_655
Mg2_7 Mg4_5 3.166495 1_565
Mg2_7 Mg3_3 3.236394 1_655
Mg2_7 Mg3_5 3.236394 1_565
Mg3_0 Mg4_4 3.214325 1_555
Mg3_0 Mg4_2 3.214325 1_555
Mg3_0 Sb0_0 3.234543 1_555
Mg3_0 Mg3_6 3.258538 1_455
Mg3_0 Mg3_6 3.258538 1_545
Mg3_1 Mg4_3 3.214325 1_555
Mg3_1 Mg4_5 3.214325 1_555
Mg3_1 Sb0_1 3.234543 1_555
Mg3_1 Mg3_7 3.258538 1_545
Mg3_1 Mg3_7 3.258538 1_455
Mg3_2 Mg4_0 3.214325 1_565
Mg3_2 Mg4_6 3.214325 1_555
Mg3_2 Sb0_2 3.234543 1_555
Mg3_2 Mg3_4 3.258538 1_555
Mg3_2 Mg3_4 3.258538 1_465
Mg3_3 Mg4_1 3.214325 1_565
Mg3_3 Mg4_7 3.214325 1_555
Mg3_3 Sb0_3 3.234543 1_555
Mg3_3 Mg3_5 3.258538 1_555
Mg3_3 Mg3_5 3.258538 1_465
Mg3_4 Mg4_0 3.214325 1_655
Mg3_4 Mg4_6 3.214325 1_555
Mg3_4 Sb0_4 3.234543 1_555
Mg3_5 Mg4_1 3.214325 1_655
Mg3_5 Mg4_7 3.214325 1_555
Mg3_5 Sb0_5 3.234543 1_555
Mg3_6 Mg4_2 3.214325 1_655
Mg3_6 Mg4_4 3.214325 1_565
Mg3_6 Sb0_6 3.234543 1_555
Mg3_7 Mg4_3 3.214325 1_655
Mg3_7 Mg4_5 3.214325 1_565
Mg3_7 Sb0_7 3.234543 1_555
Mg4_0 Sb0_5 3.239364 1_455
Mg4_0 Sb0_3 3.239364 1_545
Mg4_0 Mg4_6 3.258538 1_455
Mg4_0 Mg4_6 3.258538 1_545
Mg4_1 Sb0_4 3.239364 1_456
Mg4_1 Sb0_2 3.239364 1_546
Mg4_1 Mg4_7 3.258538 1_455
Mg4_1 Mg4_7 3.258538 1_545
Mg4_2 Sb0_1 3.239364 1_555
Mg4_2 Sb0_7 3.239364 1_455
Mg4_2 Mg4_4 3.258538 1_555
Mg4_2 Mg4_4 3.258538 1_465
Mg4_3 Sb0_0 3.239364 1_556
Mg4_3 Sb0_6 3.239364 1_456
Mg4_3 Mg4_5 3.258538 1_555
Mg4_3 Mg4_5 3.258538 1_465
Mg4_4 Sb0_1 3.239364 1_555
Mg4_4 Sb0_7 3.239364 1_545
Mg4_5 Sb0_0 3.239364 1_556
Mg4_5 Sb0_6 3.239364 1_546
Mg4_6 Sb0_5 3.239364 1_555
Mg4_6 Sb0_3 3.239364 1_555
Mg4_7 Sb0_2 3.239364 1_556
Mg4_7 Sb0_4 3.239364 1_556
