# generated using pymatgen
data_Ba9Y2(SiO4)6
_symmetry_space_group_name_H-M   'P 1'
_cell_length_a   9.52298104
_cell_length_b   9.52298104
_cell_length_c   9.52298055
_cell_angle_alpha   64.58000880
_cell_angle_beta   64.58000880
_cell_angle_gamma   64.58000956
_symmetry_Int_Tables_number   1
_chemical_formula_structural   Ba9Y2(SiO4)6
_chemical_formula_sum   'Ba9 Y2 Si6 O24'
_cell_volume   671.96366169
_cell_formula_units_Z   1
loop_
 _symmetry_equiv_pos_site_id
 _symmetry_equiv_pos_as_xyz
  1  'x, y, z'
loop_
 _atom_site_type_symbol
 _atom_site_label
 _atom_site_symmetry_multiplicity
 _atom_site_fract_x
 _atom_site_fract_y
 _atom_site_fract_z
 _atom_site_occupancy
  Ba  Ba0  1  0.00000000  0.00000000  0.00000000  1
  Ba  Ba1  1  0.66215600  0.66215600  0.66215600  1
  Ba  Ba2  1  0.33784400  0.33784400  0.33784400  1
  Ba  Ba3  1  0.56199000  0.25177200  0.85993100  1
  Ba  Ba4  1  0.85993100  0.56199000  0.25177200  1
  Ba  Ba5  1  0.25177200  0.85993100  0.56199000  1
  Ba  Ba6  1  0.43801000  0.74822800  0.14006900  1
  Ba  Ba7  1  0.14006900  0.43801000  0.74822800  1
  Ba  Ba8  1  0.74822800  0.14006900  0.43801000  1
  Y  Y0  1  0.83594800  0.83594800  0.83594800  1
  Y  Y1  1  0.16405200  0.16405200  0.16405200  1
  Si  Si0  1  0.94739400  0.24409100  0.58728100  1
  Si  Si1  1  0.58728100  0.94739400  0.24409100  1
  Si  Si2  1  0.24409100  0.58728100  0.94739400  1
  Si  Si3  1  0.05260600  0.75590900  0.41271900  1
  Si  Si4  1  0.41271900  0.05260600  0.75590900  1
  Si  Si5  1  0.75590900  0.41271900  0.05260600  1
  O  O0  1  0.06171000  0.29126900  0.63530800  1
  O  O1  1  0.63530800  0.06171000  0.29126900  1
  O  O2  1  0.29126900  0.63530800  0.06171000  1
  O  O3  1  0.93829000  0.70873100  0.36469200  1
  O  O4  1  0.36469200  0.93829000  0.70873100  1
  O  O5  1  0.70873100  0.36469200  0.93829000  1
  O  O6  1  0.04754600  0.21351500  0.40392800  1
  O  O7  1  0.40392800  0.04754600  0.21351500  1
  O  O8  1  0.21351500  0.40392800  0.04754600  1
  O  O9  1  0.95245400  0.78648500  0.59607200  1
  O  O10  1  0.59607200  0.95245400  0.78648500  1
  O  O11  1  0.78648500  0.59607200  0.95245400  1
  O  O12  1  0.07040700  0.71900400  0.90738200  1
  O  O13  1  0.90738200  0.07040700  0.71900400  1
  O  O14  1  0.71900400  0.90738200  0.07040700  1
  O  O15  1  0.92959300  0.28099600  0.09261800  1
  O  O16  1  0.09261800  0.92959300  0.28099600  1
  O  O17  1  0.28099600  0.09261800  0.92959300  1
  O  O18  1  0.38053300  0.57060800  0.77075900  1
  O  O19  1  0.77075900  0.38053300  0.57060800  1
  O  O20  1  0.57060800  0.77075900  0.38053300  1
  O  O21  1  0.61946700  0.42939200  0.22924100  1
  O  O22  1  0.22924100  0.61946700  0.42939200  1
  O  O23  1  0.42939200  0.22924100  0.61946700  1
loop_
_geom_bond_atom_site_label_1
_geom_bond_atom_site_label_2
_geom_bond_distance
_geom_bond_site_symmetry_2
Ba0 O13 2.892445 1_454
Ba0 O16 2.892445 1_545
Ba0 O12 2.892445 1_544
Ba0 O15 2.892445 1_455
Ba0 O14 2.892445 1_445
Ba0 O17 2.892445 1_554
Ba0 O0 3.387870 1_554
Ba0 O3 3.387870 1_445
Ba0 O1 3.387870 1_455
Ba0 O4 3.387870 1_544
Ba0 O5 3.387870 1_454
Ba0 O2 3.387870 1_545
Ba1 O20 2.806101 1_555
Ba1 O19 2.806101 1_555
Ba1 O18 2.806101 1_555
Ba1 O3 2.943418 1_555
Ba1 O5 2.943418 1_555
Ba1 O4 2.943418 1_555
Ba1 O11 3.180733 1_555
Ba1 O10 3.180733 1_555
Ba1 O9 3.180733 1_555
Ba2 O23 2.806101 1_555
Ba2 O22 2.806101 1_555
Ba2 O21 2.806101 1_555
Ba2 O0 2.943418 1_555
Ba2 O2 2.943418 1_555
Ba2 O1 2.943418 1_555
Ba2 O8 3.180733 1_555
Ba2 O7 3.180733 1_555
Ba2 O6 3.180733 1_555
Ba3 O5 2.557360 1_555
Ba3 O18 2.732767 1_555
Ba3 O19 2.745399 1_555
Ba3 O13 2.987639 1_555
Ba3 O8 3.050999 1_556
Ba3 O10 3.072742 1_545
Ba3 O14 3.119089 1_546
Ba3 O7 3.150552 1_556
Ba3 O23 3.165617 1_555
Ba3 O17 3.315457 1_555
Ba4 O3 2.557360 1_555
Ba4 O19 2.732766 1_555
Ba4 O20 2.745399 1_555
Ba4 O14 2.987639 1_555
Ba4 O6 3.050999 1_655
Ba4 O11 3.072742 1_554
Ba4 O12 3.119089 1_654
Ba4 O8 3.150552 1_655
Ba4 O21 3.165618 1_555
Ba4 O15 3.315457 1_555
Ba5 O4 2.557360 1_555
Ba5 O20 2.732767 1_555
Ba5 O18 2.745399 1_555
Ba5 O12 2.987639 1_555
Ba5 O7 3.050999 1_565
Ba5 O9 3.072742 1_455
Ba5 O13 3.119089 1_465
Ba5 O6 3.150552 1_565
Ba5 O22 3.165618 1_555
Ba5 O16 3.315457 1_555
Ba6 O2 2.557360 1_555
Ba6 O21 2.732767 1_555
Ba6 O22 2.745399 1_555
Ba6 O16 2.987639 1_555
Ba6 O11 3.050999 1_554
Ba6 O7 3.072742 1_565
Ba6 O17 3.119089 1_564
Ba6 O10 3.150552 1_554
Ba6 O20 3.165617 1_555
Ba6 O14 3.315457 1_555
Ba7 O0 2.557360 1_555
Ba7 O22 2.732766 1_555
Ba7 O23 2.745399 1_555
Ba7 O17 2.987639 1_555
Ba7 O9 3.050999 1_455
Ba7 O8 3.072742 1_556
Ba7 O15 3.119089 1_456
Ba7 O11 3.150552 1_455
Ba7 O18 3.165618 1_555
Ba7 O12 3.315457 1_555
Ba8 O1 2.557360 1_555
Ba8 O23 2.732767 1_555
Ba8 O21 2.745399 1_555
Ba8 O15 2.987639 1_555
Ba8 O10 3.050999 1_545
Ba8 O6 3.072742 1_655
Ba8 O16 3.119089 1_645
Ba8 O9 3.150552 1_545
Ba8 O19 3.165618 1_555
Ba8 O13 3.315457 1_555
O0 Si0 1.618603 1_455
O1 Si1 1.618603 1_545
O2 Si2 1.618603 1_554
O3 Si3 1.618603 1_655
O4 Si4 1.618603 1_565
O5 Si5 1.618603 1_556
O6 Si0 1.676770 1_455
O6 Y1 2.229415 1_555
O7 Si1 1.676770 1_545
O7 Y1 2.229415 1_555
O8 Si2 1.676770 1_554
O8 Y1 2.229415 1_555
O9 Si3 1.676770 1_655
O9 Y0 2.229415 1_555
O10 Si4 1.676770 1_565
O10 Y0 2.229415 1_555
O11 Si5 1.676770 1_556
O11 Y0 2.229415 1_555
O12 Si2 1.674488 1_555
O12 Y0 2.281894 1_455
O13 Si0 1.674488 1_555
O13 Y0 2.281894 1_545
O14 Si1 1.674488 1_555
O14 Y0 2.281894 1_554
O15 Si5 1.674488 1_555
O15 Y1 2.281894 1_655
O16 Si3 1.674488 1_555
O16 Y1 2.281894 1_565
O17 Si4 1.674488 1_555
O17 Y1 2.281894 1_556
O18 Si2 1.648863 1_555
O19 Si0 1.648863 1_555
O20 Si1 1.648863 1_555
O21 Si5 1.648863 1_555
O22 Si3 1.648863 1_555
O23 Si4 1.648863 1_555
