# generated using pymatgen
data_CsMg6Mn
_symmetry_space_group_name_H-M   'P 1'
_cell_length_a   6.97177254
_cell_length_b   6.97177254
_cell_length_c   5.29203600
_cell_angle_alpha   90.00000000
_cell_angle_beta   90.00000000
_cell_angle_gamma   121.08139712
_symmetry_Int_Tables_number   1
_chemical_formula_structural   CsMg6Mn
_chemical_formula_sum   'Cs1 Mg6 Mn1'
_cell_volume   220.29441596
_cell_formula_units_Z   1
loop_
 _symmetry_equiv_pos_site_id
 _symmetry_equiv_pos_as_xyz
  1  'x, y, z'
loop_
 _atom_site_type_symbol
 _atom_site_label
 _atom_site_symmetry_multiplicity
 _atom_site_fract_x
 _atom_site_fract_y
 _atom_site_fract_z
 _atom_site_occupancy
  Cs  Cs0  1  0.33241900  0.66758100  0.50000000  1
  Mg  Mg0  1  0.15551100  0.28876900  0.00000000  1
  Mg  Mg1  1  0.71123100  0.84448900  0.00000000  1
  Mg  Mg2  1  0.66464300  0.33535700  0.00000000  1
  Mg  Mg3  1  0.31643500  0.14737500  0.50000000  1
  Mg  Mg4  1  0.85262500  0.68356500  0.50000000  1
  Mg  Mg5  1  0.83389100  0.16610900  0.50000000  1
  Mn  Mn0  1  0.13324600  0.86675400  0.00000000  1
loop_
_geom_bond_atom_site_label_1
_geom_bond_atom_site_label_2
_geom_bond_distance
_geom_bond_site_symmetry_2
Cs0 Mg4 3.403883 1_455
Cs0 Mg3 3.403883 1_565
Cs0 Mg5 3.428801 1_565
Cs0 Mg5 3.428801 1_455
Cs0 Mg0 3.483422 1_556
Cs0 Mg0 3.483422 1_555
Cs0 Mg1 3.483422 1_556
Cs0 Mg1 3.483422 1_555
Cs0 Mg3 3.570504 1_555
Cs0 Mg4 3.570504 1_555
Cs0 Mn0 3.584499 1_556
Cs0 Mn0 3.584499 1_555
Mg0 Mn0 2.865142 1_545
Mg0 Mg1 3.046654 1_445
Mg0 Mg3 3.220835 1_554
Mg0 Mg3 3.220835 1_555
Mg0 Mg5 3.283385 1_455
Mg0 Mg5 3.283385 1_454
Mg0 Mg2 3.393293 1_555
Mg1 Mn0 2.865142 1_655
Mg1 Mg4 3.220835 1_555
Mg1 Mg4 3.220835 1_554
Mg1 Mg5 3.283385 1_565
Mg1 Mg5 3.283385 1_564
Mg1 Mg2 3.393293 1_555
Mg2 Mg5 3.350162 1_555
Mg2 Mg5 3.350162 1_554
Mg2 Mg4 3.365615 1_555
Mg2 Mg4 3.365615 1_554
Mg2 Mg3 3.365615 1_555
Mg2 Mg3 3.365615 1_554
Mg2 Mn0 3.449877 1_545
Mg2 Mn0 3.449877 1_655
Mg3 Mn0 3.143286 1_546
Mg3 Mn0 3.143286 1_545
Mg3 Mg4 3.180581 1_445
Mg3 Mg5 3.433437 1_455
Mg3 Mg5 3.541925 1_555
Mg4 Mn0 3.143286 1_655
Mg4 Mn0 3.143286 1_656
Mg4 Mg5 3.433437 1_565
Mg4 Mg5 3.541925 1_555
