# generated using pymatgen
data_PrS3(NO3)3
_symmetry_space_group_name_H-M   'P 1'
_cell_length_a   9.96380950
_cell_length_b   9.96380950
_cell_length_c   5.89848800
_cell_angle_alpha   90.00000000
_cell_angle_beta   90.00000000
_cell_angle_gamma   119.99999667
_symmetry_Int_Tables_number   1
_chemical_formula_structural   PrS3(NO3)3
_chemical_formula_sum   'Pr2 S6 N6 O18'
_cell_volume   507.13335710
_cell_formula_units_Z   2
loop_
 _symmetry_equiv_pos_site_id
 _symmetry_equiv_pos_as_xyz
  1  'x, y, z'
loop_
 _atom_site_type_symbol
 _atom_site_label
 _atom_site_symmetry_multiplicity
 _atom_site_fract_x
 _atom_site_fract_y
 _atom_site_fract_z
 _atom_site_occupancy
  Pr  Pr0  1  0.66666700  0.33333300  0.75000000  1
  Pr  Pr1  1  0.33333300  0.66666700  0.25000000  1
  S  S0  1  0.60023100  0.91394900  0.75000000  1
  S  S1  1  0.39976900  0.08605100  0.25000000  1
  S  S2  1  0.31371800  0.39976900  0.75000000  1
  S  S3  1  0.68628200  0.60023100  0.25000000  1
  S  S4  1  0.08605100  0.68628200  0.75000000  1
  S  S5  1  0.91394900  0.31371800  0.25000000  1
  N  N0  1  0.72934700  0.85556600  0.75000000  1
  N  N1  1  0.27065300  0.14443400  0.25000000  1
  N  N2  1  0.12621900  0.27065300  0.75000000  1
  N  N3  1  0.87378100  0.72934700  0.25000000  1
  N  N4  1  0.14443400  0.87378100  0.75000000  1
  N  N5  1  0.85556600  0.12621900  0.25000000  1
  O  O0  1  0.91649400  0.60746000  0.75000000  1
  O  O1  1  0.08350600  0.39254000  0.25000000  1
  O  O2  1  0.69096600  0.08350600  0.75000000  1
  O  O3  1  0.30903400  0.91649400  0.25000000  1
  O  O4  1  0.39254000  0.30903400  0.75000000  1
  O  O5  1  0.60746000  0.69096600  0.25000000  1
  O  O6  1  0.50806500  0.84956000  0.95664800  1
  O  O7  1  0.49193500  0.15044000  0.04335200  1
  O  O8  1  0.34149600  0.49193500  0.95664800  1
  O  O9  1  0.49193500  0.15044000  0.45664800  1
  O  O10  1  0.65850400  0.50806500  0.04335200  1
  O  O11  1  0.50806500  0.84956000  0.54335200  1
  O  O12  1  0.15044000  0.65850400  0.95664800  1
  O  O13  1  0.65850400  0.50806500  0.45664800  1
  O  O14  1  0.84956000  0.34149600  0.04335200  1
  O  O15  1  0.34149600  0.49193500  0.54335200  1
  O  O16  1  0.84956000  0.34149600  0.45664800  1
  O  O17  1  0.15044000  0.65850400  0.54335200  1
loop_
_geom_bond_atom_site_label_1
_geom_bond_atom_site_label_2
_geom_bond_distance
_geom_bond_site_symmetry_2
N0 S0 1.655843 1_555
N1 S1 1.655843 1_555
N2 S2 1.655843 1_555
N3 S3 1.655843 1_555
N4 S4 1.655843 1_555
N5 S5 1.655843 1_555
O0 S4 1.464296 1_655
O0 Pr0 2.618697 1_555
O1 S5 1.464296 1_455
O1 Pr1 2.618697 1_555
O2 S0 1.464296 1_545
O2 Pr0 2.618692 1_555
O3 S1 1.464296 1_565
O3 Pr1 2.618692 1_555
O4 S2 1.464296 1_555
O4 Pr0 2.618701 1_555
O5 S3 1.464296 1_555
O5 Pr1 2.618701 1_555
O6 S0 1.466800 1_555
O6 Pr1 2.484613 1_556
O7 S1 1.466800 1_555
O7 Pr0 2.484613 1_554
O8 S2 1.466799 1_555
O8 Pr1 2.484621 1_556
O9 S1 1.466800 1_555
O9 Pr0 2.484613 1_555
O10 S3 1.466799 1_555
O10 Pr0 2.484621 1_554
O11 S0 1.466800 1_555
O11 Pr1 2.484613 1_555
O12 S4 1.466804 1_555
O12 Pr1 2.484606 1_556
O13 S3 1.466799 1_555
O13 Pr0 2.484621 1_555
O14 S5 1.466804 1_555
O14 Pr0 2.484606 1_554
O15 S2 1.466799 1_555
O15 Pr1 2.484621 1_555
O16 S5 1.466804 1_555
O16 Pr0 2.484606 1_555
O17 S4 1.466804 1_555
O17 Pr1 2.484606 1_555
