# generated using pymatgen
data_NaTm3O6
_symmetry_space_group_name_H-M   'P 1'
_cell_length_a   11.10296377
_cell_length_b   8.45077161
_cell_length_c   32.23312649
_cell_angle_alpha   90.00000000
_cell_angle_beta   90.00000000
_cell_angle_gamma   131.06539735
_symmetry_Int_Tables_number   1
_chemical_formula_structural   NaTm3O6
_chemical_formula_sum   'Na1 Tm3 O6'
_cell_volume   2280.26949434
_cell_formula_units_Z   1
loop_
 _symmetry_equiv_pos_site_id
 _symmetry_equiv_pos_as_xyz
  1  'x, y, z'
loop_
 _atom_site_type_symbol
 _atom_site_label
 _atom_site_symmetry_multiplicity
 _atom_site_fract_x
 _atom_site_fract_y
 _atom_site_fract_z
 _atom_site_occupancy
  Na  Na0  1  0.00000000  0.00000000  -0.00000000  1
  Tm  Tm0  1  0.00000000  0.00000000  0.50000000  1
  Tm  Tm1  1  0.50000000  0.50000000  -0.00000000  1
  Tm  Tm2  1  0.00000000  0.50000000  -0.00000000  1
  O  O0  1  0.00000000  0.00000000  0.76845858  1
  O  O1  1  0.00000000  0.00000000  0.23154142  1
  O  O2  1  0.72349889  0.75652684  -0.00000000  1
  O  O3  1  0.27650111  0.24347316  -0.00000000  1
  O  O4  1  0.96697205  0.24347316  -0.00000000  1
  O  O5  1  0.03302795  0.75652684  -0.00000000  1
loop_
_geom_bond_atom_site_label_1
_geom_bond_atom_site_label_2
_geom_bond_distance
_geom_bond_site_symmetry_2
Na0 O5 2.315004 1_545
Na0 O4 2.315004 1_455
Na0 O2 2.315004 1_445
Na0 O3 2.315004 1_555
O2 Tm1 1.946686 1_555
O3 Tm1 1.946686 1_555
O4 Tm2 1.946686 1_655
O5 Tm2 1.946686 1_555
