# generated using pymatgen
data_Ce2Co7
_symmetry_space_group_name_H-M   'P 1'
_cell_length_a   4.89299614
_cell_length_b   4.89299614
_cell_length_c   24.67410100
_cell_angle_alpha   90.00000000
_cell_angle_beta   90.00000000
_cell_angle_gamma   120.00000191
_symmetry_Int_Tables_number   1
_chemical_formula_structural   Ce2Co7
_chemical_formula_sum   'Ce8 Co28'
_cell_volume   511.58960095
_cell_formula_units_Z   4
loop_
 _symmetry_equiv_pos_site_id
 _symmetry_equiv_pos_as_xyz
  1  'x, y, z'
loop_
 _atom_site_type_symbol
 _atom_site_label
 _atom_site_symmetry_multiplicity
 _atom_site_fract_x
 _atom_site_fract_y
 _atom_site_fract_z
 _atom_site_occupancy
  Ce  Ce0  1  0.33333300  0.66666700  0.47149500  1
  Ce  Ce1  1  0.66666700  0.33333300  0.52850500  1
  Ce  Ce2  1  0.66666700  0.33333300  0.97149500  1
  Ce  Ce3  1  0.33333300  0.66666700  0.02850500  1
  Ce  Ce4  1  0.33333300  0.66666700  0.32668800  1
  Ce  Ce5  1  0.66666700  0.33333300  0.67331200  1
  Ce  Ce6  1  0.66666700  0.33333300  0.82668800  1
  Ce  Ce7  1  0.33333300  0.66666700  0.17331200  1
  Co  Co0  1  0.00000000  0.00000000  0.50000000  1
  Co  Co1  1  0.00000000  0.00000000  0.00000000  1
  Co  Co2  1  0.83250700  0.16749300  0.25000000  1
  Co  Co3  1  0.83250700  0.66501400  0.25000000  1
  Co  Co4  1  0.33498600  0.16749300  0.25000000  1
  Co  Co5  1  0.16749300  0.83250700  0.75000000  1
  Co  Co6  1  0.16749300  0.33498600  0.75000000  1
  Co  Co7  1  0.66501400  0.83250700  0.75000000  1
  Co  Co8  1  0.83434700  0.16565300  0.41323100  1
  Co  Co9  1  0.83434700  0.66869400  0.41323100  1
  Co  Co10  1  0.33130600  0.16565300  0.41323100  1
  Co  Co11  1  0.16565300  0.83434700  0.58676900  1
  Co  Co12  1  0.16565300  0.33130600  0.58676900  1
  Co  Co13  1  0.66869400  0.83434700  0.58676900  1
  Co  Co14  1  0.16565300  0.83434700  0.91323100  1
  Co  Co15  1  0.16565300  0.33130600  0.91323100  1
  Co  Co16  1  0.66869400  0.83434700  0.91323100  1
  Co  Co17  1  0.83434700  0.16565300  0.08676900  1
  Co  Co18  1  0.83434700  0.66869400  0.08676900  1
  Co  Co19  1  0.33130600  0.16565300  0.08676900  1
  Co  Co20  1  0.00000000  0.00000000  0.33195400  1
  Co  Co21  1  0.00000000  0.00000000  0.66804600  1
  Co  Co22  1  0.00000000  0.00000000  0.83195400  1
  Co  Co23  1  0.00000000  0.00000000  0.16804600  1
  Co  Co24  1  0.33333300  0.66666700  0.66600900  1
  Co  Co25  1  0.66666700  0.33333300  0.33399100  1
  Co  Co26  1  0.66666700  0.33333300  0.16600900  1
  Co  Co27  1  0.33333300  0.66666700  0.83399100  1
loop_
_geom_bond_atom_site_label_1
_geom_bond_atom_site_label_2
_geom_bond_distance
_geom_bond_site_symmetry_2
Ce0 Co10 2.837630 1_565
Ce0 Co9 2.837630 1_455
Ce0 Co8 2.837632 1_565
Ce0 Co8 2.837632 1_455
Ce0 Co9 2.837634 1_555
Ce0 Co10 2.837634 1_555
Ce0 Co0 2.911209 1_565
Ce0 Co0 2.911213 1_665
Ce0 Co0 2.911213 1_555
Ce0 Ce1 3.155816 1_455
Ce0 Ce1 3.155816 1_565
Ce0 Ce1 3.155824 1_555
Ce0 Co11 3.179527 1_555
Ce0 Co13 3.179529 1_555
Ce0 Co12 3.179529 1_555
Ce0 Ce4 3.572983 1_555
Ce1 Co13 2.837630 1_545
Ce1 Co12 2.837630 1_655
Ce1 Co11 2.837632 1_655
Ce1 Co11 2.837632 1_545
Ce1 Co13 2.837634 1_555
Ce1 Co12 2.837634 1_555
Ce1 Co0 2.911209 1_655
Ce1 Co0 2.911213 1_665
Ce1 Co0 2.911213 1_555
Ce1 Co8 3.179527 1_555
Ce1 Co9 3.179529 1_555
Ce1 Co10 3.179529 1_555
Ce1 Ce5 3.572983 1_555
Ce2 Co16 2.837630 1_545
Ce2 Co15 2.837630 1_655
Ce2 Co14 2.837632 1_655
Ce2 Co14 2.837632 1_545
Ce2 Co15 2.837634 1_555
Ce2 Co16 2.837634 1_555
Ce2 Co1 2.911209 1_656
Ce2 Co1 2.911213 1_666
Ce2 Co1 2.911213 1_556
Ce2 Ce3 3.155816 1_546
Ce2 Ce3 3.155816 1_656
Ce2 Ce3 3.155824 1_556
Ce2 Co17 3.179527 1_556
Ce2 Co19 3.179529 1_556
Ce2 Co18 3.179529 1_556
Ce2 Ce6 3.572983 1_555
Ce3 Co19 2.837630 1_565
Ce3 Co18 2.837630 1_455
Ce3 Co17 2.837632 1_565
Ce3 Co17 2.837632 1_455
Ce3 Co18 2.837634 1_555
Ce3 Co19 2.837634 1_555
Ce3 Co1 2.911209 1_565
Ce3 Co1 2.911213 1_555
Ce3 Co1 2.911213 1_665
Ce3 Co14 3.179527 1_554
Ce3 Co16 3.179529 1_554
Ce3 Co15 3.179529 1_554
Ce3 Ce7 3.572983 1_555
Ce4 Co20 2.827956 1_565
Ce4 Co20 2.827961 1_555
Ce4 Co20 2.827961 1_665
Ce4 Co25 2.830711 1_565
Ce4 Co25 2.830711 1_455
Ce4 Co25 2.830719 1_555
Ce5 Co21 2.827956 1_655
Ce5 Co21 2.827961 1_665
Ce5 Co21 2.827961 1_555
Ce5 Co24 2.830711 1_545
Ce5 Co24 2.830711 1_655
Ce5 Co24 2.830719 1_555
Ce6 Co22 2.827956 1_655
Ce6 Co22 2.827961 1_555
Ce6 Co22 2.827961 1_665
Ce6 Co27 2.830711 1_545
Ce6 Co27 2.830711 1_655
Ce6 Co27 2.830719 1_555
Ce7 Co23 2.827956 1_565
Ce7 Co23 2.827961 1_665
Ce7 Co23 2.827961 1_555
Ce7 Co26 2.830711 1_565
Ce7 Co26 2.830711 1_455
Ce7 Co26 2.830719 1_555
Co0 Co13 2.560191 1_445
Co0 Co12 2.560191 1_555
Co0 Co10 2.560191 1_555
Co0 Co9 2.560191 1_445
Co0 Co11 2.560191 1_545
Co0 Co8 2.560191 1_455
Co1 Co19 2.560191 1_555
Co1 Co18 2.560191 1_445
Co1 Co15 2.560191 1_554
Co1 Co16 2.560191 1_444
Co1 Co17 2.560191 1_455
Co1 Co14 2.560191 1_544
Co2 Co3 2.434368 1_555
Co2 Co4 2.434368 1_555
Co2 Co4 2.458628 1_655
Co2 Co3 2.458628 1_545
Co2 Co20 2.470629 1_655
Co2 Co23 2.470629 1_655
Co2 Co25 2.504042 1_555
Co2 Co26 2.504042 1_555
Co3 Co4 2.434368 1_555
Co3 Co4 2.458628 1_665
Co5 Co6 2.434368 1_555
Co5 Co7 2.434368 1_555
Co5 Co6 2.458628 1_565
Co5 Co7 2.458628 1_455
Co6 Co7 2.434368 1_555
Co6 Co7 2.458628 1_445
Co8 Co9 2.431618 1_545
Co8 Co9 2.461378 1_555
Co10 Co25 2.417059 1_555
Co10 Co9 2.431618 1_445
Co10 Co8 2.431618 1_455
Co10 Co20 2.447999 1_555
Co10 Co9 2.461378 1_555
Co10 Co8 2.461378 1_555
Co11 Co24 2.417057 1_555
Co11 Co13 2.431618 1_455
Co11 Co12 2.431618 1_565
Co11 Co21 2.447999 1_565
Co11 Co12 2.461378 1_555
Co11 Co13 2.461378 1_555
Co12 Co24 2.417059 1_555
Co12 Co13 2.431618 1_445
Co12 Co21 2.447999 1_555
Co12 Co13 2.461378 1_555
Co13 Co24 2.417059 1_555
Co13 Co21 2.447999 1_665
Co14 Co27 2.417057 1_555
Co14 Co16 2.431618 1_455
Co14 Co15 2.431618 1_565
Co14 Co22 2.447999 1_565
Co14 Co15 2.461378 1_555
Co14 Co16 2.461378 1_555
Co15 Co27 2.417059 1_555
Co15 Co16 2.431618 1_445
Co15 Co22 2.447999 1_555
Co15 Co16 2.461378 1_555
Co16 Co27 2.417059 1_555
Co16 Co22 2.447999 1_665
Co17 Co26 2.417057 1_555
Co17 Co18 2.431618 1_545
Co17 Co19 2.431618 1_655
Co17 Co23 2.447999 1_655
Co17 Co19 2.461378 1_555
Co17 Co18 2.461378 1_555
Co18 Co26 2.417059 1_555
Co18 Co19 2.431618 1_665
Co18 Co23 2.447999 1_665
Co18 Co19 2.461378 1_555
Co19 Co26 2.417059 1_555
Co19 Co23 2.447999 1_555
Co20 Co9 2.447999 1_445
Co20 Co8 2.447999 1_455
Co20 Co3 2.470629 1_445
Co20 Co4 2.470629 1_555
Co20 Co25 2.825417 1_455
Co20 Co25 2.825421 1_445
Co20 Co25 2.825421 1_555
Co21 Co7 2.470629 1_445
Co21 Co6 2.470629 1_555
Co21 Co5 2.470629 1_545
Co21 Co24 2.825417 1_545
Co21 Co24 2.825421 1_445
Co21 Co24 2.825421 1_555
Co22 Co6 2.470629 1_555
Co22 Co7 2.470629 1_445
Co22 Co5 2.470629 1_545
Co22 Co27 2.825417 1_545
Co22 Co27 2.825421 1_555
Co22 Co27 2.825421 1_445
Co23 Co3 2.470629 1_445
Co23 Co4 2.470629 1_555
Co23 Co26 2.825417 1_455
Co23 Co26 2.825421 1_445
Co23 Co26 2.825421 1_555
Co24 Co5 2.504042 1_555
Co24 Co6 2.504044 1_555
Co24 Co7 2.504044 1_555
Co25 Co8 2.417057 1_555
Co25 Co9 2.417059 1_555
Co25 Co4 2.504044 1_555
Co25 Co3 2.504044 1_555
Co26 Co3 2.504044 1_555
Co26 Co4 2.504044 1_555
Co27 Co5 2.504042 1_555
Co27 Co6 2.504044 1_555
Co27 Co7 2.504044 1_555
