# generated using pymatgen
data_LaEr4Se7
_symmetry_space_group_name_H-M   'P 1'
_cell_length_a   3.97493300
_cell_length_b   7.05867030
_cell_length_c   12.23463068
_cell_angle_alpha   103.86232358
_cell_angle_beta   90.00000000
_cell_angle_gamma   73.64644090
_symmetry_Int_Tables_number   1
_chemical_formula_structural   LaEr4Se7
_chemical_formula_sum   'La1 Er4 Se7'
_cell_volume   318.95478931
_cell_formula_units_Z   1
loop_
 _symmetry_equiv_pos_site_id
 _symmetry_equiv_pos_as_xyz
  1  'x, y, z'
loop_
 _atom_site_type_symbol
 _atom_site_label
 _atom_site_symmetry_multiplicity
 _atom_site_fract_x
 _atom_site_fract_y
 _atom_site_fract_z
 _atom_site_occupancy
  La  La0  1  0.88754200  0.22491600  0.42156400  1
  Er  Er0  1  0.11285600  0.77428700  0.58162800  1
  Er  Er1  1  0.00040400  0.99919200  0.99787000  1
  Er  Er2  1  0.69999600  0.60000700  0.18582200  1
  Er  Er3  1  0.30029100  0.39941700  0.81359900  1
  Se  Se0  1  0.04630800  0.90738500  0.20731600  1
  Se  Se1  1  0.95774100  0.08451900  0.78525500  1
  Se  Se2  1  0.34177500  0.31645000  0.04913100  1
  Se  Se3  1  0.65996200  0.68007500  0.94970400  1
  Se  Se4  1  0.73571700  0.52856600  0.65535300  1
  Se  Se5  1  0.25013600  0.49972700  0.34784500  1
  Se  Se6  1  0.50727100  0.98545800  0.50491200  1
loop_
_geom_bond_atom_site_label_1
_geom_bond_atom_site_label_2
_geom_bond_distance
_geom_bond_site_symmetry_2
La0 Se6 2.906245 1_545
La0 Se6 2.906245 1_645
La0 Se0 2.946364 1_645
La0 Se5 3.011038 1_655
La0 Se5 3.011041 1_555
La0 Se4 3.077912 1_555
Er0 Se6 2.747193 1_455
Er0 Se6 2.747196 1_555
Er0 Se1 2.829767 1_465
Er0 Se4 2.878046 1_455
Er0 Se4 2.878049 1_555
Er0 Se5 2.997166 1_555
Er1 Se0 2.783658 1_556
Er1 Se1 2.802022 1_465
Er1 Se2 2.878850 1_566
Er1 Se2 2.878850 1_466
Er1 Se3 2.886678 1_555
Er1 Se3 2.886680 1_455
Er2 Se0 2.842546 1_555
Er2 Se0 2.842551 1_655
Er2 Se2 2.971768 1_555
Er2 Se2 2.971771 1_655
Er2 Se5 3.002197 1_555
Er2 Se5 3.002197 1_655
Er2 Se3 3.069480 1_554
Er3 Se1 2.872262 1_455
Er3 Se1 2.872268 1_555
Er3 Se3 2.958995 1_555
Er3 Se3 2.958995 1_455
Er3 Se4 3.051120 1_455
Er3 Se4 3.051122 1_555
Er3 Se2 3.070559 1_556
