# generated using pymatgen
data_MgAg3
_symmetry_space_group_name_H-M   'P 1'
_cell_length_a   18.91548747
_cell_length_b   18.91548747
_cell_length_c   18.91548741
_cell_angle_alpha   18.49243536
_cell_angle_beta   18.49243536
_cell_angle_gamma   18.49243825
_symmetry_Int_Tables_number   1
_chemical_formula_structural   MgAg3
_chemical_formula_sum   'Mg8 Ag24'
_cell_volume   594.76634423
_cell_formula_units_Z   8
loop_
 _symmetry_equiv_pos_site_id
 _symmetry_equiv_pos_as_xyz
  1  'x, y, z'
loop_
 _atom_site_type_symbol
 _atom_site_label
 _atom_site_symmetry_multiplicity
 _atom_site_fract_x
 _atom_site_fract_y
 _atom_site_fract_z
 _atom_site_occupancy
  Mg  Mg0_0  1  0.00000000  0.00000000  0.00000000  1
  Mg  Mg0_1  1  0.00000000  0.00000000  0.50000000  1
  Mg  Mg0_2  1  0.00000000  0.50000000  0.00000000  1
  Mg  Mg0_3  1  0.00000000  0.50000000  0.50000000  1
  Mg  Mg0_4  1  0.50000000  0.00000000  0.00000000  1
  Mg  Mg0_5  1  0.50000000  0.00000000  0.50000000  1
  Mg  Mg0_6  1  0.50000000  0.50000000  0.00000000  1
  Mg  Mg0_7  1  0.50000000  0.50000000  0.50000000  1
  Ag  Ag0_0  1  0.12534900  0.12534900  0.12534900  1
  Ag  Ag0_1  1  0.12534900  0.12534900  0.62534900  1
  Ag  Ag0_2  1  0.12534900  0.62534900  0.12534900  1
  Ag  Ag0_3  1  0.12534900  0.62534900  0.62534900  1
  Ag  Ag0_4  1  0.62534900  0.12534900  0.12534900  1
  Ag  Ag0_5  1  0.62534900  0.12534900  0.62534900  1
  Ag  Ag0_6  1  0.62534900  0.62534900  0.12534900  1
  Ag  Ag0_7  1  0.62534900  0.62534900  0.62534900  1
  Ag  Ag1_0  1  0.25000000  0.25000000  0.25000000  1
  Ag  Ag1_1  1  0.25000000  0.25000000  0.75000000  1
  Ag  Ag1_2  1  0.25000000  0.75000000  0.25000000  1
  Ag  Ag1_3  1  0.25000000  0.75000000  0.75000000  1
  Ag  Ag1_4  1  0.75000000  0.25000000  0.25000000  1
  Ag  Ag1_5  1  0.75000000  0.25000000  0.75000000  1
  Ag  Ag1_6  1  0.75000000  0.75000000  0.25000000  1
  Ag  Ag1_7  1  0.75000000  0.75000000  0.75000000  1
  Ag  Ag2_0  1  0.37465100  0.37465100  0.37465100  1
  Ag  Ag2_1  1  0.37465100  0.37465100  0.87465100  1
  Ag  Ag2_2  1  0.37465100  0.87465100  0.37465100  1
  Ag  Ag2_3  1  0.37465100  0.87465100  0.87465100  1
  Ag  Ag2_4  1  0.87465100  0.37465100  0.37465100  1
  Ag  Ag2_5  1  0.87465100  0.37465100  0.87465100  1
  Ag  Ag2_6  1  0.87465100  0.87465100  0.37465100  1
  Ag  Ag2_7  1  0.87465100  0.87465100  0.87465100  1
loop_
_geom_bond_atom_site_label_1
_geom_bond_atom_site_label_2
_geom_bond_distance
_geom_bond_site_symmetry_2
Ag0_0 Mg0_1 2.896059 1_555
Ag0_0 Mg0_4 2.896060 1_555
Ag0_0 Mg0_2 2.896060 1_555
Ag0_0 Ag1_1 2.927118 1_554
Ag0_0 Ag1_2 2.927118 1_545
Ag0_0 Ag1_4 2.927118 1_455
Ag0_1 Mg0_0 2.896059 1_556
Ag0_1 Mg0_3 2.896060 1_555
Ag0_1 Mg0_5 2.896060 1_555
Ag0_1 Ag1_0 2.927118 1_555
Ag0_1 Ag1_5 2.927118 1_455
Ag0_1 Ag1_3 2.927118 1_545
Ag0_2 Mg0_3 2.896059 1_555
Ag0_2 Mg0_0 2.896060 1_565
Ag0_2 Mg0_6 2.896060 1_555
Ag0_2 Ag1_3 2.927118 1_554
Ag0_2 Ag1_6 2.927118 1_455
Ag0_2 Ag1_0 2.927118 1_555
Ag0_3 Mg0_2 2.896059 1_556
Ag0_3 Mg0_1 2.896060 1_565
Ag0_3 Mg0_7 2.896060 1_555
Ag0_3 Ag1_2 2.927118 1_555
Ag0_3 Ag1_1 2.927118 1_555
Ag0_3 Ag1_7 2.927118 1_455
Ag0_4 Mg0_5 2.896059 1_555
Ag0_4 Mg0_6 2.896060 1_555
Ag0_4 Mg0_0 2.896060 1_655
Ag0_4 Ag1_5 2.927118 1_554
Ag0_4 Ag1_6 2.927118 1_545
Ag0_4 Ag1_0 2.927118 1_555
Ag0_5 Mg0_4 2.896059 1_556
Ag0_5 Mg0_1 2.896060 1_655
Ag0_5 Mg0_7 2.896060 1_555
Ag0_5 Ag1_4 2.927118 1_555
Ag0_5 Ag1_1 2.927118 1_555
Ag0_5 Ag1_7 2.927118 1_545
Ag0_6 Mg0_7 2.896059 1_555
Ag0_6 Mg0_2 2.896060 1_655
Ag0_6 Mg0_4 2.896060 1_565
Ag0_6 Ag1_7 2.927118 1_554
Ag0_6 Ag1_4 2.927118 1_555
Ag0_6 Ag1_2 2.927118 1_555
Ag0_7 Mg0_6 2.896059 1_556
Ag0_7 Mg0_3 2.896060 1_655
Ag0_7 Mg0_5 2.896060 1_565
Ag0_7 Ag1_6 2.927118 1_555
Ag0_7 Ag1_3 2.927118 1_555
Ag0_7 Ag1_5 2.927118 1_555
Ag1_0 Ag2_1 2.927118 1_554
Ag1_0 Ag2_4 2.927118 1_455
Ag1_0 Ag2_2 2.927118 1_545
Ag1_0 Ag1_5 3.039292 1_455
Ag1_0 Ag1_5 3.039292 1_554
Ag1_0 Ag1_3 3.039292 1_545
Ag1_0 Ag1_3 3.039292 1_554
Ag1_0 Ag1_6 3.039292 1_545
Ag1_0 Ag1_6 3.039292 1_455
Ag1_1 Ag2_0 2.927118 1_555
Ag1_1 Ag2_5 2.927118 1_455
Ag1_1 Ag2_3 2.927118 1_545
Ag1_1 Ag1_2 3.039292 1_555
Ag1_1 Ag1_4 3.039292 1_555
Ag1_1 Ag1_2 3.039292 1_546
Ag1_1 Ag1_4 3.039292 1_456
Ag1_1 Ag1_7 3.039292 1_545
Ag1_1 Ag1_7 3.039292 1_455
Ag1_2 Ag2_3 2.927118 1_554
Ag1_2 Ag2_0 2.927118 1_555
Ag1_2 Ag2_6 2.927118 1_455
Ag1_2 Ag1_7 3.039292 1_554
Ag1_2 Ag1_7 3.039292 1_455
Ag1_2 Ag1_4 3.039292 1_555
Ag1_2 Ag1_4 3.039292 1_465
Ag1_3 Ag2_2 2.927118 1_555
Ag1_3 Ag2_7 2.927118 1_455
Ag1_3 Ag2_1 2.927118 1_555
Ag1_3 Ag1_6 3.039292 1_456
Ag1_3 Ag1_6 3.039292 1_555
Ag1_3 Ag1_5 3.039292 1_465
Ag1_3 Ag1_5 3.039292 1_555
Ag1_4 Ag2_5 2.927118 1_554
Ag1_4 Ag2_0 2.927118 1_555
Ag1_4 Ag2_6 2.927118 1_545
Ag1_4 Ag1_7 3.039292 1_554
Ag1_4 Ag1_7 3.039292 1_545
Ag1_5 Ag2_4 2.927118 1_555
Ag1_5 Ag2_7 2.927118 1_545
Ag1_5 Ag2_1 2.927118 1_555
Ag1_5 Ag1_6 3.039292 1_555
Ag1_5 Ag1_6 3.039292 1_546
Ag1_6 Ag2_7 2.927118 1_554
Ag1_6 Ag2_4 2.927118 1_555
Ag1_6 Ag2_2 2.927118 1_555
Ag1_7 Ag2_6 2.927118 1_555
Ag1_7 Ag2_5 2.927118 1_555
Ag1_7 Ag2_3 2.927118 1_555
Ag2_0 Mg0_6 2.896059 1_555
Ag2_0 Mg0_5 2.896060 1_555
Ag2_0 Mg0_3 2.896060 1_555
Ag2_1 Mg0_7 2.896059 1_555
Ag2_1 Mg0_4 2.896060 1_556
Ag2_1 Mg0_2 2.896060 1_556
Ag2_2 Mg0_4 2.896059 1_565
Ag2_2 Mg0_7 2.896060 1_555
Ag2_2 Mg0_1 2.896060 1_565
Ag2_3 Mg0_5 2.896059 1_565
Ag2_3 Mg0_6 2.896060 1_556
Ag2_3 Mg0_0 2.896060 1_566
Ag2_4 Mg0_2 2.896059 1_655
Ag2_4 Mg0_7 2.896060 1_555
Ag2_4 Mg0_1 2.896060 1_655
Ag2_5 Mg0_3 2.896059 1_655
Ag2_5 Mg0_0 2.896060 1_656
Ag2_5 Mg0_6 2.896060 1_556
Ag2_6 Mg0_0 2.896059 1_665
Ag2_6 Mg0_5 2.896060 1_565
Ag2_6 Mg0_3 2.896060 1_655
Ag2_7 Mg0_1 2.896059 1_665
Ag2_7 Mg0_2 2.896060 1_656
Ag2_7 Mg0_4 2.896060 1_566
