# generated using pymatgen
data_Y2Si3Rh
_symmetry_space_group_name_H-M   'P 1'
_cell_length_a   8.18048540
_cell_length_b   8.18048540
_cell_length_c   7.94255000
_cell_angle_alpha   90.00000000
_cell_angle_beta   90.00000000
_cell_angle_gamma   119.99999516
_symmetry_Int_Tables_number   1
_chemical_formula_structural   Y2Si3Rh
_chemical_formula_sum   'Y8 Si12 Rh4'
_cell_volume   460.30824951
_cell_formula_units_Z   4
loop_
 _symmetry_equiv_pos_site_id
 _symmetry_equiv_pos_as_xyz
  1  'x, y, z'
loop_
 _atom_site_type_symbol
 _atom_site_label
 _atom_site_symmetry_multiplicity
 _atom_site_fract_x
 _atom_site_fract_y
 _atom_site_fract_z
 _atom_site_occupancy
  Y  Y0  1  0.00000000  0.00000000  0.25000000  1
  Y  Y1  1  0.00000000  0.00000000  0.75000000  1
  Y  Y2  1  0.50858500  0.49141500  0.25000000  1
  Y  Y3  1  0.50858500  0.01717000  0.25000000  1
  Y  Y4  1  0.98283000  0.49141500  0.25000000  1
  Y  Y5  1  0.49141500  0.50858500  0.75000000  1
  Y  Y6  1  0.49141500  0.98283000  0.75000000  1
  Y  Y7  1  0.01717000  0.50858500  0.75000000  1
  Si  Si0  1  0.16692900  0.83307100  0.49946800  1
  Si  Si1  1  0.16692900  0.33385800  0.49946800  1
  Si  Si2  1  0.66614200  0.83307100  0.49946800  1
  Si  Si3  1  0.83307100  0.16692900  0.50053200  1
  Si  Si4  1  0.83307100  0.66614200  0.50053200  1
  Si  Si5  1  0.33385800  0.16692900  0.50053200  1
  Si  Si6  1  0.83307100  0.16692900  0.99946800  1
  Si  Si7  1  0.83307100  0.66614200  0.99946800  1
  Si  Si8  1  0.33385800  0.16692900  0.99946800  1
  Si  Si9  1  0.16692900  0.83307100  0.00053200  1
  Si  Si10  1  0.16692900  0.33385800  0.00053200  1
  Si  Si11  1  0.66614200  0.83307100  0.00053200  1
  Rh  Rh0  1  0.33333300  0.66666700  0.46810800  1
  Rh  Rh1  1  0.66666700  0.33333300  0.53189200  1
  Rh  Rh2  1  0.66666700  0.33333300  0.96810800  1
  Rh  Rh3  1  0.33333300  0.66666700  0.03189200  1
loop_
_geom_bond_atom_site_label_1
_geom_bond_atom_site_label_2
_geom_bond_distance
_geom_bond_site_symmetry_2
Si0 Si4 2.365235 1_455
Si0 Si5 2.365235 1_565
Si0 Y7 3.042133 1_555
Si0 Y6 3.042133 1_555
Si0 Y0 3.085492 1_565
Si0 Y1 3.090925 1_565
Si0 Y4 3.129925 1_455
Si0 Y3 3.129925 1_565
Si1 Si5 2.365235 1_555
Si1 Si3 2.365235 1_455
Si1 Y7 3.042133 1_555
Si1 Y5 3.042133 1_555
Si1 Y0 3.085492 1_555
Si1 Y1 3.090925 1_555
Si1 Y4 3.129925 1_455
Si1 Y2 3.129925 1_555
Si2 Si4 2.365235 1_555
Si2 Si3 2.365235 1_565
Si2 Y6 3.042133 1_555
Si2 Y5 3.042133 1_555
Si2 Y0 3.085492 1_665
Si2 Y1 3.090925 1_665
Si2 Y3 3.129925 1_565
Si2 Y2 3.129925 1_555
Si3 Y4 3.042133 1_555
Si3 Y3 3.042133 1_555
Si3 Y1 3.085492 1_655
Si3 Y0 3.090925 1_655
Si3 Y7 3.129925 1_655
Si3 Y6 3.129925 1_545
Si4 Y4 3.042133 1_555
Si4 Y2 3.042133 1_555
Si4 Y1 3.085492 1_665
Si4 Y0 3.090925 1_665
Si4 Y7 3.129925 1_655
Si4 Y5 3.129925 1_555
Si5 Y3 3.042133 1_555
Si5 Y2 3.042133 1_555
Si5 Y1 3.085492 1_555
Si5 Y0 3.090925 1_555
Si5 Y6 3.129925 1_545
Si5 Y5 3.129925 1_555
Si6 Y3 3.042133 1_556
Si6 Y4 3.042133 1_556
Si6 Y1 3.085492 1_655
Si6 Y0 3.090925 1_656
Si6 Y7 3.129925 1_655
Si6 Y6 3.129925 1_545
Si7 Si9 2.365235 1_656
Si7 Y4 3.042133 1_556
Si7 Y2 3.042133 1_556
Si7 Y1 3.085492 1_665
Si7 Y0 3.090925 1_666
Si7 Y7 3.129925 1_655
Si7 Y5 3.129925 1_555
Si8 Si9 2.365235 1_546
Si8 Y3 3.042133 1_556
Si8 Y2 3.042133 1_556
Si8 Y1 3.085492 1_555
Si8 Y0 3.090925 1_556
Si8 Y6 3.129925 1_545
Si8 Y5 3.129925 1_555
Si9 Y6 3.042133 1_554
Si9 Y7 3.042133 1_554
Si9 Y0 3.085492 1_565
Si9 Y1 3.090925 1_564
Si9 Y4 3.129925 1_455
Si9 Y3 3.129925 1_565
Si10 Si8 2.365235 1_554
Si10 Si6 2.365235 1_454
Si10 Y7 3.042133 1_554
Si10 Y5 3.042133 1_554
Si10 Y0 3.085492 1_555
Si10 Y1 3.090925 1_554
Si10 Y4 3.129925 1_455
Si10 Y2 3.129925 1_555
Si11 Si7 2.365235 1_554
Si11 Si6 2.365235 1_564
Si11 Y6 3.042133 1_554
Si11 Y5 3.042133 1_554
Si11 Y0 3.085492 1_665
Si11 Y1 3.090925 1_664
Si11 Y3 3.129925 1_565
Si11 Y2 3.129925 1_555
Rh0 Si0 2.370901 1_555
Rh0 Si2 2.370908 1_555
Rh0 Si1 2.370908 1_555
Rh0 Y3 3.027701 1_565
Rh0 Y4 3.027701 1_455
Rh0 Y2 3.027706 1_555
Rh0 Y6 3.166990 1_555
Rh0 Y7 3.166990 1_555
Rh0 Y5 3.166995 1_555
Rh1 Si3 2.370901 1_555
Rh1 Si5 2.370908 1_555
Rh1 Si4 2.370908 1_555
Rh1 Y7 3.027701 1_655
Rh1 Y6 3.027701 1_545
Rh1 Y5 3.027706 1_555
Rh1 Y4 3.166990 1_555
Rh1 Y3 3.166990 1_555
Rh1 Y2 3.166995 1_555
Rh2 Si6 2.370901 1_555
Rh2 Si8 2.370908 1_555
Rh2 Si7 2.370908 1_555
Rh2 Y7 3.027701 1_655
Rh2 Y6 3.027701 1_545
Rh2 Y5 3.027706 1_555
Rh2 Y3 3.166990 1_556
Rh2 Y4 3.166990 1_556
Rh2 Y2 3.166995 1_556
Rh3 Si9 2.370901 1_555
Rh3 Si11 2.370908 1_555
Rh3 Si10 2.370908 1_555
Rh3 Y3 3.027701 1_565
Rh3 Y4 3.027701 1_455
Rh3 Y2 3.027706 1_555
Rh3 Y6 3.166990 1_554
Rh3 Y7 3.166990 1_554
Rh3 Y5 3.166995 1_554
