# generated using pymatgen
data_Sr4Ca4Mn5Fe3O20
_symmetry_space_group_name_H-M   'P 1'
_cell_length_a   11.03760507
_cell_length_b   11.16738907
_cell_length_c   17.65741270
_cell_angle_alpha   108.44489179
_cell_angle_beta   108.29048084
_cell_angle_gamma   90.00394755
_symmetry_Int_Tables_number   1
_chemical_formula_structural   Sr4Ca4Mn5Fe3O20
_chemical_formula_sum   'Sr16 Ca16 Mn20 Fe12 O80'
_cell_volume   1948.38827880
_cell_formula_units_Z   4
loop_
 _symmetry_equiv_pos_site_id
 _symmetry_equiv_pos_as_xyz
  1  'x, y, z'
loop_
 _atom_site_type_symbol
 _atom_site_label
 _atom_site_symmetry_multiplicity
 _atom_site_fract_x
 _atom_site_fract_y
 _atom_site_fract_z
 _atom_site_occupancy
  Sr  Sr0  1  0.30801100  0.55969100  0.61103200  1
  Sr  Sr1  1  0.80701100  0.05743800  0.60867700  1
  Sr  Sr2  1  0.81017700  0.55931900  0.61057800  1
  Sr  Sr3  1  0.19512800  0.43871400  0.38620000  1
  Sr  Sr4  1  0.19919000  0.44304200  0.89349900  1
  Sr  Sr5  1  0.69694200  0.43972300  0.38677200  1
  Sr  Sr6  1  0.69785900  0.93819000  0.38701300  1
  Sr  Sr7  1  0.69982200  0.94049100  0.89247400  1
  Sr  Sr8  1  0.06086100  0.30003000  0.61037600  1
  Sr  Sr9  1  0.05912500  0.80163300  0.61027300  1
  Sr  Sr10  1  0.55825800  0.30096300  0.61032800  1
  Sr  Sr11  1  0.55685200  0.80110400  0.60887500  1
  Sr  Sr12  1  0.44588700  0.19799100  0.38726200  1
  Sr  Sr13  1  0.44998800  0.19989100  0.89074600  1
  Sr  Sr14  1  0.94844700  0.19697100  0.38632300  1
  Sr  Sr15  1  0.94815700  0.20027800  0.89173100  1
  Ca  Ca0  1  0.30520500  0.06293200  0.10591200  1
  Ca  Ca1  1  0.30615800  0.05984200  0.60437800  1
  Ca  Ca2  1  0.30727500  0.56484200  0.10870800  1
  Ca  Ca3  1  0.80478600  0.06296500  0.10534800  1
  Ca  Ca4  1  0.80689100  0.56308200  0.10739900  1
  Ca  Ca5  1  0.19954100  0.93688200  0.39201400  1
  Ca  Ca6  1  0.20270100  0.93760400  0.89716000  1
  Ca  Ca7  1  0.70231200  0.44144900  0.89754000  1
  Ca  Ca8  1  0.05543300  0.29341900  0.10676000  1
  Ca  Ca9  1  0.05617200  0.79292600  0.10639100  1
  Ca  Ca10  1  0.55486700  0.29300100  0.10530100  1
  Ca  Ca11  1  0.55497100  0.79257900  0.10500200  1
  Ca  Ca12  1  0.44845700  0.70479200  0.39266200  1
  Ca  Ca13  1  0.45099400  0.70701200  0.89663500  1
  Ca  Ca14  1  0.94865400  0.70474000  0.39096300  1
  Ca  Ca15  1  0.95125800  0.70745800  0.89759200  1
  Mn  Mn0  1  0.00506500  0.99943700  0.49897500  1
  Mn  Mn1  1  0.00235800  0.49940100  0.49741700  1
  Mn  Mn2  1  0.25678500  0.25141700  0.00368900  1
  Mn  Mn3  1  0.25225000  0.24825600  0.49802200  1
  Mn  Mn4  1  0.10707200  0.08999800  0.24490500  1
  Mn  Mn5  1  0.11749500  0.09518800  0.75460000  1
  Mn  Mn6  1  0.10901400  0.60080600  0.24750200  1
  Mn  Mn7  1  0.11401900  0.60398300  0.75557600  1
  Mn  Mn8  1  0.60765600  0.09285300  0.24530600  1
  Mn  Mn9  1  0.60916300  0.10023100  0.74983400  1
  Mn  Mn10  1  0.60766200  0.59642700  0.24654600  1
  Mn  Mn11  1  0.61241600  0.59778500  0.75463300  1
  Mn  Mn12  1  0.35842400  0.40589400  0.24622400  1
  Mn  Mn13  1  0.36599700  0.40459300  0.75476500  1
  Mn  Mn14  1  0.35539900  0.89720300  0.24718300  1
  Mn  Mn15  1  0.36017000  0.90153100  0.75126900  1
  Mn  Mn16  1  0.85745100  0.40548300  0.24486200  1
  Mn  Mn17  1  0.86120500  0.40811100  0.75495900  1
  Mn  Mn18  1  0.85982600  0.89562000  0.24409800  1
  Mn  Mn19  1  0.86636000  0.89957700  0.75161600  1
  Fe  Fe0  1  0.00810700  0.00150100  0.00364500  1
  Fe  Fe1  1  0.00635500  0.50199100  0.00362000  1
  Fe  Fe2  1  0.50603600  0.00134100  0.00342800  1
  Fe  Fe3  1  0.50159100  0.99909900  0.49790100  1
  Fe  Fe4  1  0.50665300  0.50166400  0.00290500  1
  Fe  Fe5  1  0.50133300  0.49837300  0.49647100  1
  Fe  Fe6  1  0.25648400  0.75213100  0.00280500  1
  Fe  Fe7  1  0.25116000  0.74937900  0.49725400  1
  Fe  Fe8  1  0.75698200  0.25350900  0.00467600  1
  Fe  Fe9  1  0.75388800  0.24977600  0.49865900  1
  Fe  Fe10  1  0.75633600  0.74992100  0.00208600  1
  Fe  Fe11  1  0.75304100  0.74766100  0.49655600  1
  O  O0  1  0.12768100  0.11737800  0.49137100  1
  O  O1  1  0.13002100  0.12219400  0.99320000  1
  O  O2  1  0.11888500  0.62228800  0.48939400  1
  O  O3  1  0.12334300  0.62513400  0.99319800  1
  O  O4  1  0.62441100  0.12275300  0.49339900  1
  O  O5  1  0.62557300  0.12436200  0.99594900  1
  O  O6  1  0.62166200  0.62282500  0.49056200  1
  O  O7  1  0.62474000  0.62080200  0.99009100  1
  O  O8  1  0.13817000  0.37977100  0.01549800  1
  O  O9  1  0.13120900  0.37675600  0.50558000  1
  O  O10  1  0.13589900  0.88044500  0.01184600  1
  O  O11  1  0.13083300  0.87963300  0.50356000  1
  O  O12  1  0.63708400  0.38332900  0.01521000  1
  O  O13  1  0.63103000  0.37725800  0.50472300  1
  O  O14  1  0.63387500  0.87817900  0.01293400  1
  O  O15  1  0.62757400  0.87350400  0.50133800  1
  O  O16  1  0.37002600  0.11931500  0.49192100  1
  O  O17  1  0.37202100  0.11975000  0.99288600  1
  O  O18  1  0.37407100  0.62214400  0.49101500  1
  O  O19  1  0.37823400  0.62353400  0.99353800  1
  O  O20  1  0.87807000  0.12055300  0.49481800  1
  O  O21  1  0.87747900  0.12097100  0.99460600  1
  O  O22  1  0.87630300  0.62096500  0.49166400  1
  O  O23  1  0.87437700  0.61848000  0.98980400  1
  O  O24  1  0.38444900  0.38213900  0.01454900  1
  O  O25  1  0.37861900  0.37599600  0.50468400  1
  O  O26  1  0.38538800  0.88434800  0.01324400  1
  O  O27  1  0.37713500  0.88182200  0.50544600  1
  O  O28  1  0.88493400  0.38490500  0.01332700  1
  O  O29  1  0.88123100  0.37868900  0.50354900  1
  O  O30  1  0.88793000  0.88156200  0.01382200  1
  O  O31  1  0.88238900  0.87682000  0.50228100  1
  O  O32  1  0.08640600  0.09405200  0.13413600  1
  O  O33  1  0.08490000  0.08039600  0.63992300  1
  O  O34  1  0.07842400  0.59688900  0.13437700  1
  O  O35  1  0.07324200  0.58526700  0.64034400  1
  O  O36  1  0.58008700  0.09598700  0.13496300  1
  O  O37  1  0.57437300  0.08168200  0.63388400  1
  O  O38  1  0.57643500  0.59660500  0.13455500  1
  O  O39  1  0.57324800  0.58054400  0.63782300  1
  O  O40  1  0.43640900  0.41383500  0.36326200  1
  O  O41  1  0.44578400  0.41307800  0.86897600  1
  O  O42  1  0.43570100  0.91217200  0.36307000  1
  O  O43  1  0.44415400  0.91112700  0.86658000  1
  O  O44  1  0.93295600  0.41325200  0.35765000  1
  O  O45  1  0.94335600  0.41238400  0.86753000  1
  O  O46  1  0.93956600  0.90975200  0.35838100  1
  O  O47  1  0.94682000  0.90864800  0.86698700  1
  O  O48  1  0.33098800  0.28870200  0.13180600  1
  O  O49  1  0.32775400  0.29896100  0.64065300  1
  O  O50  1  0.32724000  0.78906600  0.13478100  1
  O  O51  1  0.31887800  0.80017100  0.63486100  1
  O  O52  1  0.83416100  0.29067900  0.13439700  1
  O  O53  1  0.82602400  0.30826000  0.63822500  1
  O  O54  1  0.83156300  0.78501800  0.13254800  1
  O  O55  1  0.82448000  0.80249000  0.63429200  1
  O  O56  1  0.18160000  0.19192800  0.35877000  1
  O  O57  1  0.19329800  0.20612100  0.87089400  1
  O  O58  1  0.19105800  0.70247700  0.36374900  1
  O  O59  1  0.20037400  0.71037400  0.86955000  1
  O  O60  1  0.68731100  0.19077600  0.36222300  1
  O  O61  1  0.68623300  0.20735900  0.86585100  1
  O  O62  1  0.69477500  0.69341300  0.36247100  1
  O  O63  1  0.69842100  0.70455500  0.86692000  1
  O  O64  1  0.42971600  0.05955800  0.24075700  1
  O  O65  1  0.42998400  0.06410700  0.74376100  1
  O  O66  1  0.43033600  0.57795600  0.24901900  1
  O  O67  1  0.44022000  0.57666800  0.75958700  1
  O  O68  1  0.92830200  0.06112000  0.23885700  1
  O  O69  1  0.94084700  0.06350200  0.75074000  1
  O  O70  1  0.92819000  0.57510800  0.24810100  1
  O  O71  1  0.93991900  0.57585100  0.76078900  1
  O  O72  1  0.17478100  0.43222300  0.24017000  1
  O  O73  1  0.19214900  0.44023800  0.75284800  1
  O  O74  1  0.17901200  0.92192900  0.24739700  1
  O  O75  1  0.18919300  0.93052100  0.76027600  1
  O  O76  1  0.67669400  0.42670700  0.23907200  1
  O  O77  1  0.68709000  0.43282400  0.75929500  1
  O  O78  1  0.68182100  0.92534200  0.23977300  1
  O  O79  1  0.69193800  0.94058500  0.75221100  1
loop_
_geom_bond_atom_site_label_1
_geom_bond_atom_site_label_2
_geom_bond_distance
_geom_bond_site_symmetry_2
Ca0 O64 2.358442 1_555
Ca0 O48 2.415693 1_555
Ca0 O26 2.506440 1_545
Ca0 O10 2.512640 1_545
Ca0 O1 2.560454 1_554
Ca0 O17 2.579645 1_554
Ca0 O32 2.616754 1_555
Ca0 O36 2.916837 1_555
Ca1 O65 2.396241 1_555
Ca1 O27 2.505834 1_545
Ca1 O49 2.533680 1_555
Ca1 O11 2.556194 1_545
Ca1 O16 2.567908 1_555
Ca1 O0 2.572824 1_555
Ca1 O33 2.698470 1_555
Ca1 O37 2.836649 1_555
Ca2 O66 2.379643 1_555
Ca2 O50 2.395263 1_555
Ca2 O8 2.526458 1_555
Ca2 O24 2.528901 1_555
Ca2 O3 2.646711 1_554
Ca2 O19 2.649842 1_554
Ca2 O34 2.707419 1_555
Ca2 O38 2.864720 1_555
Ca3 O68 2.330230 1_555
Ca3 O52 2.430029 1_555
Ca3 O14 2.533042 1_545
Ca3 O30 2.533249 1_545
Ca3 O5 2.560139 1_554
Ca3 O21 2.583270 1_554
Ca3 O36 2.693078 1_555
Ca3 O32 2.989573 1_655
Ca4 O54 2.375208 1_555
Ca4 O70 2.384114 1_555
Ca4 O12 2.491781 1_555
Ca4 O28 2.503449 1_555
Ca4 O7 2.641833 1_554
Ca4 O23 2.651929 1_554
Ca4 O38 2.737244 1_555
Ca4 O34 2.888223 1_655
Ca5 O74 2.442724 1_555
Ca5 O58 2.500819 1_555
Ca5 O0 2.530976 1_565
Ca5 O16 2.538749 1_565
Ca5 O27 2.558775 1_555
Ca5 O11 2.568567 1_555
Ca5 O46 2.737685 1_455
Ca5 O42 2.806948 1_555
Ca6 O75 2.350168 1_555
Ca6 O59 2.426289 1_555
Ca6 O17 2.515630 1_565
Ca6 O1 2.531942 1_565
Ca6 O26 2.607380 1_556
Ca6 O10 2.609035 1_556
Ca6 O47 2.703987 1_455
Ca6 O43 2.878171 1_555
Ca7 O77 2.364322 1_555
Ca7 O23 2.487736 1_555
Ca7 O61 2.488070 1_555
Ca7 O7 2.494523 1_555
Ca7 O28 2.621486 1_556
Ca7 O12 2.654968 1_556
Ca7 O41 2.715565 1_555
Ca7 O45 2.870688 1_555
Ca8 O72 2.329941 1_555
Ca8 O32 2.425867 1_555
Ca8 O8 2.503508 1_555
Ca8 O28 2.534802 1_455
Ca8 O21 2.575500 1_454
Ca8 O52 2.638464 1_455
Ca8 O1 2.639119 1_554
Ca8 O48 2.935878 1_555
Ca9 O34 2.388654 1_555
Ca9 O74 2.392484 1_555
Ca9 O30 2.493740 1_455
Ca9 O10 2.543822 1_555
Ca9 O3 2.572161 1_554
Ca9 O23 2.632181 1_454
Ca9 O54 2.666788 1_455
Ca9 O50 2.877004 1_555
Ca10 O76 2.321915 1_555
Ca10 O36 2.414568 1_555
Ca10 O24 2.492915 1_555
Ca10 O12 2.508583 1_555
Ca10 O5 2.555194 1_554
Ca10 O17 2.609842 1_554
Ca10 O48 2.658517 1_555
Ca10 O52 2.963484 1_555
Ca11 O78 2.344633 1_555
Ca11 O38 2.400662 1_555
Ca11 O14 2.487379 1_555
Ca11 O26 2.515225 1_555
Ca11 O19 2.545856 1_554
Ca11 O7 2.628277 1_554
Ca11 O50 2.727429 1_555
Ca11 O54 2.942444 1_555
Ca12 O66 2.426443 1_555
Ca12 O42 2.525036 1_555
Ca12 O6 2.531444 1_555
Ca12 O18 2.539902 1_555
Ca12 O15 2.543842 1_555
Ca12 O27 2.643291 1_555
Ca12 O58 2.722906 1_555
Ca12 O62 2.925559 1_555
Ca13 O67 2.362056 1_555
Ca13 O43 2.494692 1_555
Ca13 O19 2.512666 1_555
Ca13 O7 2.519314 1_555
Ca13 O14 2.619007 1_556
Ca13 O26 2.653601 1_556
Ca13 O59 2.657675 1_555
Ca13 O63 2.936789 1_555
Ca14 O70 2.416940 1_555
Ca14 O2 2.522334 1_655
Ca14 O46 2.525848 1_555
Ca14 O31 2.569775 1_555
Ca14 O22 2.572646 1_555
Ca14 O11 2.616062 1_655
Ca14 O62 2.682597 1_555
Ca14 O58 2.861726 1_655
Ca15 O71 2.361030 1_555
Ca15 O47 2.468624 1_555
Ca15 O23 2.499891 1_555
Ca15 O3 2.504497 1_655
Ca15 O30 2.618486 1_556
Ca15 O10 2.628304 1_656
Ca15 O63 2.668832 1_555
Ca15 O59 2.944746 1_655
Mn0 O11 1.929201 1_555
Mn0 O20 1.948872 1_465
Mn0 O0 1.951956 1_565
Mn0 O31 1.952386 1_455
Mn0 O33 2.233255 1_565
Mn0 O46 2.233551 1_455
Mn1 O22 1.946258 1_455
Mn1 O2 1.948012 1_555
Mn1 O29 1.949190 1_455
Mn1 O9 1.978848 1_555
Mn1 O44 2.216727 1_455
Mn1 O35 2.264949 1_555
Mn2 O1 1.934532 1_554
Mn2 O17 1.947116 1_554
Mn2 O8 1.947975 1_555
Mn2 O24 1.951002 1_555
Mn2 O48 2.050060 1_555
Mn2 O57 2.112617 1_554
Mn3 O16 1.940341 1_555
Mn3 O25 1.945471 1_555
Mn3 O0 1.957088 1_555
Mn3 O9 1.962895 1_555
Mn3 O56 2.206204 1_555
Mn3 O49 2.266740 1_555
Mn4 O56 1.878383 1_555
Mn4 O32 1.911963 1_555
Mn4 O68 1.963352 1_455
Mn4 O74 2.045899 1_545
Mn5 O33 1.894205 1_555
Mn5 O57 1.939882 1_555
Mn5 O69 1.957727 1_455
Mn5 O75 2.021117 1_545
Mn6 O34 1.904543 1_555
Mn6 O58 1.918557 1_555
Mn6 O72 1.998238 1_555
Mn6 O70 2.020157 1_455
Mn7 O35 1.882109 1_555
Mn7 O59 1.911289 1_555
Mn7 O71 1.982205 1_455
Mn7 O73 2.015030 1_555
Mn8 O36 1.887059 1_555
Mn8 O60 1.913856 1_555
Mn8 O64 1.970812 1_555
Mn8 O78 2.028248 1_545
Mn9 O37 1.902701 1_555
Mn9 O61 1.925281 1_555
Mn9 O65 1.981153 1_555
Mn9 O79 2.009597 1_545
Mn10 O38 1.898388 1_555
Mn10 O62 1.910273 1_555
Mn10 O66 1.983580 1_555
Mn10 O76 2.023682 1_555
Mn11 O63 1.891152 1_555
Mn11 O39 1.914980 1_555
Mn11 O67 1.947565 1_555
Mn11 O77 2.033062 1_555
Mn12 O40 1.946038 1_555
Mn12 O48 1.956784 1_555
Mn12 O72 2.022496 1_555
Mn12 O66 2.059064 1_555
Mn13 O49 1.895169 1_555
Mn13 O41 1.901533 1_555
Mn13 O73 1.951796 1_555
Mn13 O67 2.055124 1_555
Mn14 O50 1.894778 1_555
Mn14 O42 1.909417 1_555
Mn14 O74 1.967402 1_555
Mn14 O64 2.039950 1_565
Mn15 O51 1.911433 1_555
Mn15 O43 1.921900 1_555
Mn15 O75 1.961486 1_555
Mn15 O65 2.030719 1_565
Mn16 O44 1.875422 1_555
Mn16 O52 1.901880 1_555
Mn16 O76 1.983563 1_555
Mn16 O70 2.025924 1_555
Mn17 O45 1.893189 1_555
Mn17 O53 1.919886 1_555
Mn17 O77 1.963275 1_555
Mn17 O71 2.023857 1_555
Mn18 O46 1.885555 1_555
Mn18 O54 1.891388 1_555
Mn18 O78 1.974384 1_555
Mn18 O68 2.036568 1_565
Mn19 O55 1.912705 1_555
Mn19 O47 1.919062 1_555
Mn19 O79 1.981414 1_555
Mn19 O69 2.013212 1_565
Fe0 O10 1.958071 1_545
Fe0 O21 1.968475 1_454
Fe0 O30 1.971671 1_445
Fe0 O1 1.993543 1_554
Fe0 O32 2.089788 1_555
Fe0 O47 2.178887 1_444
Fe1 O28 1.954722 1_455
Fe1 O23 1.962614 1_454
Fe1 O3 1.975201 1_554
Fe1 O8 2.003388 1_555
Fe1 O34 2.094126 1_555
Fe1 O45 2.165356 1_454
Fe2 O26 1.948912 1_545
Fe2 O5 1.967123 1_554
Fe2 O14 1.977021 1_545
Fe2 O17 1.988573 1_554
Fe2 O36 2.105821 1_555
Fe2 O43 2.178051 1_544
Fe3 O27 1.960887 1_555
Fe3 O4 1.971746 1_565
Fe3 O15 1.976278 1_555
Fe3 O16 1.978877 1_565
Fe3 O42 2.142428 1_555
Fe3 O37 2.156188 1_565
Fe4 O12 1.962588 1_555
Fe4 O19 1.970858 1_554
Fe4 O7 1.973707 1_554
Fe4 O24 1.997689 1_555
Fe4 O38 2.106562 1_555
Fe4 O41 2.131850 1_554
Fe5 O6 1.971013 1_555
Fe5 O18 1.972926 1_555
Fe5 O13 1.973312 1_555
Fe5 O25 1.992924 1_555
Fe5 O40 2.115203 1_555
Fe5 O39 2.238030 1_555
Fe6 O10 1.959371 1_555
Fe6 O19 1.970939 1_554
Fe6 O3 1.972497 1_554
Fe6 O26 1.975171 1_555
Fe6 O50 2.111872 1_555
Fe6 O59 2.127988 1_554
Fe7 O18 1.966354 1_555
Fe7 O27 1.969764 1_555
Fe7 O11 1.970471 1_555
Fe7 O2 1.978152 1_555
Fe7 O58 2.123347 1_555
Fe7 O51 2.184527 1_555
Fe8 O12 1.967704 1_555
Fe8 O28 1.973187 1_555
Fe8 O5 1.981503 1_554
Fe8 O21 1.993337 1_554
Fe8 O52 2.078009 1_555
Fe8 O61 2.209813 1_554
Fe9 O13 1.967754 1_555
Fe9 O4 1.973885 1_555
Fe9 O29 1.974958 1_555
Fe9 O20 1.990608 1_555
Fe9 O60 2.159224 1_555
Fe9 O53 2.209867 1_555
Fe10 O7 1.961410 1_554
Fe10 O23 1.968585 1_554
Fe10 O14 1.975953 1_555
Fe10 O30 1.982879 1_555
Fe10 O54 2.092313 1_555
Fe10 O63 2.153778 1_554
Fe11 O22 1.963925 1_555
Fe11 O6 1.966605 1_555
Fe11 O15 1.974463 1_555
Fe11 O31 1.986408 1_555
Fe11 O62 2.126671 1_555
Fe11 O55 2.183007 1_555
O0 Sr14 2.623853 1_455
O0 Sr8 2.716765 1_555
O1 Sr15 2.594486 1_455
O2 Sr3 2.613430 1_555
O2 Sr9 2.679715 1_555
O2 Sr0 2.755993 1_555
O3 Sr4 2.568087 1_555
O4 Sr12 2.603793 1_555
O4 Sr6 2.634421 1_545
O4 Sr1 2.664979 1_555
O4 Sr10 2.665145 1_555
O5 Sr13 2.578787 1_555
O5 Sr7 2.606200 1_545
O6 Sr5 2.610538 1_555
O6 Sr11 2.673221 1_555
O6 Sr2 2.739875 1_555
O8 Sr4 2.732608 1_554
O8 Sr15 2.746469 1_454
O9 Sr8 2.581893 1_555
O9 Sr0 2.600085 1_555
O9 Sr14 2.681873 1_455
O9 Sr3 2.697446 1_555
O11 Sr9 2.628740 1_555
O12 Sr13 2.755523 1_554
O13 Sr10 2.606458 1_555
O13 Sr2 2.610011 1_555
O13 Sr12 2.682766 1_555
O13 Sr5 2.687724 1_555
O14 Sr7 2.728836 1_554
O15 Sr11 2.601983 1_555
O15 Sr1 2.629415 1_565
O15 Sr6 2.665404 1_555
O16 Sr12 2.624265 1_555
O16 Sr10 2.718815 1_555
O17 Sr13 2.605706 1_555
O18 Sr3 2.613134 1_555
O18 Sr11 2.669744 1_555
O18 Sr0 2.722883 1_555
O19 Sr4 2.577556 1_555
O20 Sr6 2.626259 1_545
O20 Sr14 2.640120 1_555
O20 Sr1 2.653339 1_555
O20 Sr8 2.660608 1_655
O21 Sr15 2.569055 1_555
O21 Sr7 2.576707 1_545
O22 Sr5 2.602321 1_555
O22 Sr9 2.683623 1_655
O22 Sr2 2.700366 1_555
O24 Sr4 2.718311 1_554
O24 Sr13 2.760743 1_554
O25 Sr10 2.604040 1_555
O25 Sr0 2.612096 1_555
O25 Sr12 2.675834 1_555
O25 Sr3 2.690213 1_555
O27 Sr11 2.617406 1_555
O28 Sr15 2.736294 1_554
O29 Sr2 2.602658 1_555
O29 Sr8 2.638567 1_655
O29 Sr5 2.666612 1_555
O29 Sr14 2.694282 1_555
O30 Sr7 2.726748 1_554
O31 Sr9 2.612484 1_655
O31 Sr1 2.621740 1_565
O31 Sr6 2.653595 1_555
O33 Sr8 2.661103 1_555
O33 Sr1 2.937044 1_455
O33 Sr9 2.986840 1_545
O35 Sr9 2.627624 1_555
O35 Sr2 2.781505 1_455
O35 Sr0 2.795105 1_555
O35 Sr8 3.055014 1_555
O37 Sr10 2.607564 1_555
O37 Sr1 2.739713 1_555
O37 Sr11 3.020079 1_545
O39 Sr11 2.664480 1_555
O39 Sr2 2.800732 1_555
O39 Sr0 2.812414 1_555
O39 Sr10 3.000247 1_555
O40 Sr12 2.572783 1_555
O40 Sr5 2.774885 1_555
O40 Sr3 2.817732 1_555
O41 Sr13 2.527008 1_555
O41 Sr4 2.890657 1_555
O42 Sr6 2.791123 1_555
O42 Sr12 3.080595 1_565
O43 Sr7 2.715731 1_555
O43 Sr13 3.114028 1_565
O44 Sr14 2.615096 1_555
O44 Sr3 2.775306 1_655
O44 Sr5 2.807615 1_555
O45 Sr15 2.534230 1_555
O45 Sr4 2.718288 1_655
O46 Sr6 2.866893 1_555
O46 Sr14 3.083701 1_565
O47 Sr7 2.903528 1_555
O47 Sr15 3.145322 1_565
O49 Sr10 2.760958 1_555
O49 Sr8 2.824814 1_555
O49 Sr0 3.113053 1_555
O51 Sr0 2.580072 1_555
O51 Sr9 2.762596 1_555
O51 Sr11 2.805266 1_555
O53 Sr1 2.677395 1_555
O53 Sr8 2.782155 1_655
O53 Sr10 2.836374 1_555
O53 Sr2 2.990326 1_555
O55 Sr2 2.610282 1_555
O55 Sr9 2.752185 1_655
O55 Sr11 2.844483 1_555
O55 Sr1 3.017936 1_565
O56 Sr3 2.638572 1_555
O56 Sr14 2.762436 1_455
O56 Sr12 2.797213 1_555
O57 Sr4 2.545422 1_555
O57 Sr13 2.747193 1_555
O57 Sr15 2.846199 1_455
O58 Sr3 3.092433 1_555
O59 Sr4 3.145463 1_555
O60 Sr5 2.671434 1_555
O60 Sr14 2.775805 1_555
O60 Sr12 2.831924 1_555
O60 Sr6 2.985133 1_545
O61 Sr13 2.782496 1_555
O61 Sr15 2.786882 1_555
O61 Sr7 3.157137 1_545
O62 Sr6 2.627210 1_555
O62 Sr5 2.995614 1_555
O63 Sr7 2.527701 1_555
O64 Sr12 2.508655 1_555
O65 Sr13 2.496796 1_555
O67 Sr0 2.515696 1_555
O68 Sr14 2.503598 1_555
O69 Sr15 2.450516 1_555
O69 Sr1 2.458822 1_555
O71 Sr2 2.534912 1_555
O72 Sr3 2.494527 1_555
O73 Sr4 2.450428 1_555
O73 Sr8 2.469654 1_555
O75 Sr9 2.519680 1_555
O76 Sr5 2.503400 1_555
O77 Sr10 2.512034 1_555
O78 Sr6 2.507262 1_555
O79 Sr7 2.451101 1_555
O79 Sr11 2.488270 1_555
