# generated using pymatgen
data_Mn2SiNi2Ge
_symmetry_space_group_name_H-M   'P 1'
_cell_length_a   3.60900900
_cell_length_b   5.92275700
_cell_length_c   6.99712200
_cell_angle_alpha   90.00000000
_cell_angle_beta   90.00000000
_cell_angle_gamma   90.00000000
_symmetry_Int_Tables_number   1
_chemical_formula_structural   Mn2SiNi2Ge
_chemical_formula_sum   'Mn4 Si2 Ni4 Ge2'
_cell_volume   149.56546516
_cell_formula_units_Z   2
loop_
 _symmetry_equiv_pos_site_id
 _symmetry_equiv_pos_as_xyz
  1  'x, y, z'
loop_
 _atom_site_type_symbol
 _atom_site_label
 _atom_site_symmetry_multiplicity
 _atom_site_fract_x
 _atom_site_fract_y
 _atom_site_fract_z
 _atom_site_occupancy
  Mn  Mn0  1  0.50000000  0.46473600  0.07896100  1
  Mn  Mn1  1  0.50000000  0.96473600  0.92103900  1
  Mn  Mn2  1  0.00000000  0.52822600  0.42736900  1
  Mn  Mn3  1  0.00000000  0.02822600  0.57263100  1
  Si  Si0  1  0.50000000  0.74244000  0.62179100  1
  Si  Si1  1  0.50000000  0.24244000  0.37820900  1
  Ni  Ni0  1  0.50000000  0.36068200  0.68210300  1
  Ni  Ni1  1  0.50000000  0.86068200  0.31789700  1
  Ni  Ni2  1  0.00000000  0.64795500  0.80120800  1
  Ni  Ni3  1  0.00000000  0.14795500  0.19879200  1
  Ge  Ge0  1  0.00000000  0.25596200  0.87814000  1
  Ge  Ge1  1  0.00000000  0.75596100  0.12186000  1
loop_
_geom_bond_atom_site_label_1
_geom_bond_atom_site_label_2
_geom_bond_distance
_geom_bond_site_symmetry_2
Mn0 Si1 2.473411 1_555
Mn0 Ni3 2.734860 1_555
Mn0 Ni3 2.734860 1_655
Mn0 Ni0 2.844430 1_554
Mn0 Ni2 2.865466 1_554
Mn0 Ni2 2.865466 1_654
Mn0 Ni1 2.880032 1_555
Mn1 Si0 2.473411 1_555
Mn1 Ni2 2.734860 1_555
Mn1 Ni2 2.734860 1_655
Mn1 Ni1 2.844430 1_556
Mn1 Ni3 2.865466 1_566
Mn1 Ni3 2.865466 1_666
Mn1 Ni0 2.880032 1_565
Mn2 Si1 2.497917 1_455
Mn2 Si1 2.497917 1_555
Mn2 Si0 2.591641 1_555
Mn2 Si0 2.591641 1_455
Mn2 Ni2 2.710213 1_555
Mn2 Ni0 2.723584 1_555
Mn2 Ni0 2.723584 1_455
Mn2 Ni3 2.762365 1_555
Mn2 Ni1 2.778517 1_455
Mn2 Ni1 2.778517 1_555
Mn3 Si0 2.497917 1_545
Mn3 Si0 2.497917 1_445
Mn3 Si1 2.591641 1_455
Mn3 Si1 2.591641 1_555
Mn3 Ni3 2.710213 1_555
Mn3 Ni1 2.723584 1_445
Mn3 Ni1 2.723584 1_545
Mn3 Ni2 2.762365 1_545
Mn3 Ni0 2.778517 1_455
Mn3 Ni0 2.778517 1_555
Ni0 Si1 2.238739 1_555
Ni0 Si0 2.300105 1_555
Ni0 Ni2 2.616430 1_555
Ni0 Ni2 2.616430 1_655
Ni1 Si0 2.238739 1_555
Ni1 Si1 2.300105 1_565
Ni1 Ni3 2.616430 1_565
Ni1 Ni3 2.616430 1_665
Ni2 Si0 2.268356 1_555
Ni2 Si0 2.268356 1_455
Ni3 Si1 2.268356 1_555
Ni3 Si1 2.268356 1_455
Ge0 Ni3 2.333054 1_556
Ge0 Ni0 2.349994 1_455
Ge0 Ni0 2.349994 1_555
Ge0 Ni2 2.383268 1_555
Ge0 Mn1 2.514256 1_445
Ge0 Mn1 2.514256 1_545
Ge0 Mn3 2.527651 1_555
Ge0 Mn0 2.599945 1_556
Ge0 Mn0 2.599945 1_456
Ge1 Ni2 2.333052 1_554
Ge1 Ni1 2.349995 1_455
Ge1 Ni1 2.349995 1_555
Ge1 Ni3 2.383273 1_565
Ge1 Mn0 2.514252 1_455
Ge1 Mn0 2.514252 1_555
Ge1 Mn2 2.527648 1_555
Ge1 Mn1 2.599948 1_454
Ge1 Mn1 2.599948 1_554
