# generated using pymatgen
data_Sr2NbGaO6
_symmetry_space_group_name_H-M   'P 1'
_cell_length_a   5.65924016
_cell_length_b   5.65924016
_cell_length_c   5.65924016
_cell_angle_alpha   120.28803465
_cell_angle_beta   120.28803465
_cell_angle_gamma   89.50182917
_symmetry_Int_Tables_number   1
_chemical_formula_structural   Sr2NbGaO6
_chemical_formula_sum   'Sr2 Nb1 Ga1 O6'
_cell_volume   127.59883005
_cell_formula_units_Z   1
loop_
 _symmetry_equiv_pos_site_id
 _symmetry_equiv_pos_as_xyz
  1  'x, y, z'
loop_
 _atom_site_type_symbol
 _atom_site_label
 _atom_site_symmetry_multiplicity
 _atom_site_fract_x
 _atom_site_fract_y
 _atom_site_fract_z
 _atom_site_occupancy
  Sr  Sr0  1  0.75000000  0.25000000  0.50000000  1
  Sr  Sr1  1  0.25000000  0.75000000  0.50000000  1
  Nb  Nb0  1  0.50000000  0.50000000  0.00000000  1
  Ga  Ga0  1  0.00000000  0.00000000  0.00000000  1
  O  O0  1  0.28155200  0.21746400  0.49901600  1
  O  O1  1  0.71844800  0.78253600  0.50098400  1
  O  O2  1  0.21746400  0.71844800  0.93591200  1
  O  O3  1  0.78253600  0.28155200  0.06408800  1
  O  O4  1  0.24950200  0.24950200  0.00000000  1
  O  O5  1  0.75049800  0.75049800  0.00000000  1
loop_
_geom_bond_atom_site_label_1
_geom_bond_atom_site_label_2
_geom_bond_distance
_geom_bond_site_symmetry_2
Nb0 O2 2.012313 1_554
Nb0 O3 2.012313 1_555
Nb0 O0 2.012313 1_554
Nb0 O1 2.012313 1_555
Nb0 O4 2.013526 1_555
Nb0 O5 2.013526 1_555
Ga0 O1 2.004535 1_444
Ga0 O0 2.004535 1_555
Ga0 O2 2.004535 1_544
Ga0 O3 2.004535 1_455
Ga0 O4 2.005520 1_555
Ga0 O5 2.005520 1_445
O0 Sr1 2.656053 1_545
O0 Sr0 2.656053 1_555
O0 Sr0 3.014849 1_455
O0 Sr1 3.014849 1_555
O1 Sr0 2.656053 1_565
O1 Sr1 2.656053 1_555
O1 Sr0 3.014849 1_555
O1 Sr1 3.014849 1_655
O2 Sr0 2.656053 1_455
O2 Sr1 2.656053 1_555
O2 Sr0 3.014849 1_566
O2 Sr1 3.014849 1_556
O3 Sr0 2.656053 1_555
O3 Sr1 2.656053 1_655
O3 Sr1 3.014849 1_544
O3 Sr0 3.014849 1_554
O4 Sr1 2.817295 1_555
O4 Sr1 2.817295 1_544
O4 Sr0 2.817295 1_555
O4 Sr0 2.817295 1_454
O5 Sr0 2.817295 1_565
O5 Sr1 2.817295 1_655
O5 Sr0 2.817295 1_554
O5 Sr1 2.817295 1_554
