# generated using pymatgen
data_LiAlSi2O7
_symmetry_space_group_name_H-M   'P 1'
_cell_length_a   5.02319900
_cell_length_b   7.71479613
_cell_length_c   8.68316399
_cell_angle_alpha   114.51070995
_cell_angle_beta   90.26739162
_cell_angle_gamma   89.93395399
_symmetry_Int_Tables_number   1
_chemical_formula_structural   LiAlSi2O7
_chemical_formula_sum   'Li2 Al2 Si4 O14'
_cell_volume   306.17085966
_cell_formula_units_Z   2
loop_
 _symmetry_equiv_pos_site_id
 _symmetry_equiv_pos_as_xyz
  1  'x, y, z'
loop_
 _atom_site_type_symbol
 _atom_site_label
 _atom_site_symmetry_multiplicity
 _atom_site_fract_x
 _atom_site_fract_y
 _atom_site_fract_z
 _atom_site_occupancy
  Li  Li0  1  0.38655300  0.13480700  0.29213000  1
  Li  Li1  1  0.88181800  0.87032700  0.68103600  1
  Al  Al0  1  0.89252700  0.93318600  0.36667800  1
  Al  Al1  1  0.38003200  0.89976200  0.87849800  1
  Si  Si0  1  0.88030500  0.08826100  0.08625500  1
  Si  Si1  1  0.82706200  0.50248000  0.09869600  1
  Si  Si2  1  0.32513100  0.48402300  0.88055200  1
  Si  Si3  1  0.39096000  0.05977500  0.60428900  1
  O  O0  1  0.75586400  0.03958000  0.23807800  1
  O  O1  1  0.19956100  0.03805700  0.06585500  1
  O  O2  1  0.83604500  0.31672100  0.14503300  1
  O  O3  1  0.52363200  0.52782500  0.04245700  1
  O  O4  1  0.92065700  0.68763600  0.26191000  1
  O  O5  1  0.21079000  0.03383400  0.43835100  1
  O  O6  1  0.25713500  0.94604100  0.70786000  1
  O  O7  1  0.72098600  0.96529200  0.90813100  1
  O  O8  1  0.33641000  0.65588600  0.81880400  1
  O  O9  1  0.02190800  0.46185000  0.93644400  1
  O  O10  1  0.41191700  0.28667800  0.72613500  1
  O  O11  1  0.69272700  0.98228500  0.54662800  1
  O  O12  1  0.45494000  0.44184400  0.44846700  1
  O  O13  1  0.77064000  0.56775100  0.55751400  1
loop_
_geom_bond_atom_site_label_1
_geom_bond_atom_site_label_2
_geom_bond_distance
_geom_bond_site_symmetry_2
Li0 O5 1.957306 1_555
Li0 O0 1.979993 1_555
Li0 O1 2.016767 1_555
Li0 O12 2.213861 1_555
Li1 O11 1.958187 1_555
Li1 O6 1.958399 1_655
Li1 O7 1.972981 1_555
Li1 O13 2.198027 1_555
Al0 O4 1.734031 1_555
Al0 O11 1.764922 1_555
Al0 O5 1.771635 1_665
Al0 O0 1.773118 1_565
Al1 O8 1.745645 1_555
Al1 O6 1.770263 1_555
Al1 O7 1.773418 1_555
Al1 O1 1.782735 1_566
O0 Si0 1.639741 1_555
O1 Si0 1.642405 1_455
O2 Si0 1.634066 1_555
O2 Si1 1.641885 1_555
O3 Si1 1.634456 1_555
O3 Si2 1.636565 1_554
O4 Si1 1.607981 1_555
O5 Si3 1.638357 1_555
O6 Si3 1.640825 1_565
O7 Si0 1.644814 1_566
O8 Si2 1.624492 1_555
O9 Si2 1.631307 1_555
O9 Si1 1.639158 1_456
O10 Si2 1.617387 1_555
O10 Si3 1.630165 1_555
O11 Si3 1.631708 1_565
