# generated using pymatgen
data_Mg6NiBi
_symmetry_space_group_name_H-M   'P 1'
_cell_length_a   4.90888000
_cell_length_b   6.23420600
_cell_length_c   11.25817500
_cell_angle_alpha   90.00000000
_cell_angle_beta   90.00000000
_cell_angle_gamma   90.00000000
_symmetry_Int_Tables_number   1
_chemical_formula_structural   Mg6NiBi
_chemical_formula_sum   'Mg12 Ni2 Bi2'
_cell_volume   344.53358220
_cell_formula_units_Z   2
loop_
 _symmetry_equiv_pos_site_id
 _symmetry_equiv_pos_as_xyz
  1  'x, y, z'
loop_
 _atom_site_type_symbol
 _atom_site_label
 _atom_site_symmetry_multiplicity
 _atom_site_fract_x
 _atom_site_fract_y
 _atom_site_fract_z
 _atom_site_occupancy
  Mg  Mg0  1  0.00000000  0.23820300  0.07044100  1
  Mg  Mg1  1  0.00000000  0.76179700  0.07044100  1
  Mg  Mg2  1  0.00000000  0.00000000  0.32931300  1
  Mg  Mg3  1  0.50000000  0.73566500  0.40875100  1
  Mg  Mg4  1  0.50000000  0.26433500  0.40875100  1
  Mg  Mg5  1  0.50000000  0.00000000  0.16843100  1
  Mg  Mg6  1  0.00000000  0.73820300  0.57044100  1
  Mg  Mg7  1  0.00000000  0.26179700  0.57044100  1
  Mg  Mg8  1  0.00000000  0.50000000  0.82931300  1
  Mg  Mg9  1  0.50000000  0.23566500  0.90875100  1
  Mg  Mg10  1  0.50000000  0.76433500  0.90875100  1
  Mg  Mg11  1  0.50000000  0.50000000  0.66843100  1
  Ni  Ni0  1  0.00000000  0.50000000  0.37414100  1
  Ni  Ni1  1  0.00000000  0.00000000  0.87414100  1
  Bi  Bi0  1  0.50000000  0.50000000  0.16973200  1
  Bi  Bi1  1  0.50000000  0.00000000  0.66973200  1
loop_
_geom_bond_atom_site_label_1
_geom_bond_atom_site_label_2
_geom_bond_distance
_geom_bond_site_symmetry_2
Mg0 Ni1 2.662565 1_554
Mg0 Mg9 3.055838 1_454
Mg0 Mg9 3.055838 1_554
Mg0 Mg8 3.167511 1_554
Mg0 Mg2 3.270952 1_555
Mg1 Ni1 2.662565 1_564
Mg1 Mg10 3.055838 1_554
Mg1 Mg10 3.055838 1_454
Mg1 Mg8 3.167511 1_554
Mg1 Mg2 3.270952 1_565
Mg2 Mg5 3.050386 1_555
Mg2 Mg5 3.050386 1_455
Mg2 Mg3 3.088646 1_545
Mg2 Mg3 3.088646 1_445
Mg2 Mg4 3.088646 1_455
Mg2 Mg4 3.088646 1_555
Mg2 Ni0 3.157694 1_545
Mg2 Ni0 3.157694 1_555
Mg2 Mg7 3.167511 1_555
Mg2 Mg6 3.167511 1_545
Mg3 Ni0 2.886971 1_655
Mg3 Ni0 2.886971 1_555
Mg3 Mg4 2.938368 1_555
Mg3 Mg6 3.055838 1_555
Mg3 Mg6 3.055838 1_655
Mg3 Mg5 3.167920 1_565
Mg3 Mg4 3.295838 1_565
Mg4 Ni0 2.886971 1_655
Mg4 Ni0 2.886971 1_555
Mg4 Mg7 3.055838 1_655
Mg4 Mg7 3.055838 1_555
Mg4 Mg5 3.167920 1_555
Mg5 Mg9 3.271924 1_554
Mg6 Ni0 2.662565 1_555
Mg6 Mg8 3.270952 1_555
Mg7 Ni0 2.662565 1_555
Mg7 Mg8 3.270952 1_555
Mg8 Mg9 3.088646 1_455
Mg8 Mg9 3.088646 1_555
Mg8 Ni1 3.157694 1_565
Mg8 Ni1 3.157694 1_555
Mg9 Ni1 2.886971 1_555
Mg9 Ni1 2.886971 1_655
Mg10 Ni1 2.886971 1_665
Mg10 Ni1 2.886971 1_565
Mg10 Mg9 2.938368 1_565
Mg10 Mg8 3.088646 1_555
Mg10 Mg8 3.088646 1_655
Mg10 Mg11 3.167920 1_555
Mg10 Mg5 3.271924 1_566
Mg10 Mg9 3.295838 1_555
Mg11 Mg8 3.050386 1_655
Mg11 Mg8 3.050386 1_555
Mg11 Mg9 3.167920 1_555
Mg11 Mg3 3.271924 1_555
Mg11 Mg4 3.271924 1_555
Bi0 Mg3 3.065867 1_555
Bi0 Mg4 3.065867 1_555
Bi0 Mg5 3.117137 1_555
Bi0 Mg5 3.117137 1_565
Bi0 Mg1 3.152391 1_555
Bi0 Mg0 3.152391 1_655
Bi0 Mg1 3.152391 1_655
Bi0 Mg0 3.152391 1_555
Bi0 Ni0 3.364540 1_555
Bi0 Ni0 3.364540 1_655
Bi0 Mg10 3.368750 1_554
Bi0 Mg9 3.368750 1_554
Bi1 Mg9 3.065867 1_555
Bi1 Mg10 3.065867 1_545
Bi1 Mg11 3.117137 1_545
Bi1 Mg11 3.117137 1_555
Bi1 Mg7 3.152391 1_555
Bi1 Mg7 3.152391 1_655
Bi1 Mg6 3.152391 1_645
Bi1 Mg6 3.152391 1_545
Bi1 Ni1 3.364540 1_555
Bi1 Ni1 3.364540 1_655
Bi1 Mg3 3.368750 1_545
Bi1 Mg4 3.368750 1_555
