# generated using pymatgen
data_BaNdAgS3
_symmetry_space_group_name_H-M   'P 1'
_cell_length_a   7.24000348
_cell_length_b   7.24000348
_cell_length_c   10.64851700
_cell_angle_alpha   90.00000000
_cell_angle_beta   90.00000000
_cell_angle_gamma   146.15670548
_symmetry_Int_Tables_number   1
_chemical_formula_structural   BaNdAgS3
_chemical_formula_sum   'Ba2 Nd2 Ag2 S6'
_cell_volume   310.85805456
_cell_formula_units_Z   2
loop_
 _symmetry_equiv_pos_site_id
 _symmetry_equiv_pos_as_xyz
  1  'x, y, z'
loop_
 _atom_site_type_symbol
 _atom_site_label
 _atom_site_symmetry_multiplicity
 _atom_site_fract_x
 _atom_site_fract_y
 _atom_site_fract_z
 _atom_site_occupancy
  Ba  Ba0  1  0.25480500  0.74519500  0.25000000  1
  Ba  Ba1  1  0.74519500  0.25480500  0.75000000  1
  Nd  Nd0  1  0.00000000  0.00000000  0.50000000  1
  Nd  Nd1  1  0.00000000  0.00000000  0.00000000  1
  Ag  Ag0  1  0.53227300  0.46772700  0.25000000  1
  Ag  Ag1  1  0.46772700  0.53227300  0.75000000  1
  S  S0  1  0.63654300  0.36345700  0.44371900  1
  S  S1  1  0.36345700  0.63654300  0.55628100  1
  S  S2  1  0.63654300  0.36345700  0.05628100  1
  S  S3  1  0.36345700  0.63654300  0.94371900  1
  S  S4  1  0.92273800  0.07726200  0.25000000  1
  S  S5  1  0.07726200  0.92273800  0.75000000  1
loop_
_geom_bond_atom_site_label_1
_geom_bond_atom_site_label_2
_geom_bond_distance
_geom_bond_site_symmetry_2
Ba0 S4 3.138918 1_455
Ba0 S4 3.138918 1_565
Ba0 S0 3.373418 1_455
Ba0 S2 3.373418 1_455
Ba0 S2 3.373418 1_565
Ba0 S0 3.373418 1_565
Ba0 S1 3.592005 1_555
Ba0 S3 3.592005 1_554
Ba1 S5 3.138918 1_545
Ba1 S5 3.138918 1_655
Ba1 S3 3.373418 1_545
Ba1 S1 3.373418 1_545
Ba1 S1 3.373418 1_655
Ba1 S3 3.373418 1_655
Ba1 S2 3.592005 1_556
Ba1 S0 3.592005 1_555
Nd0 S5 2.869235 1_545
Nd0 S4 2.869235 1_455
Nd0 S0 2.894446 1_555
Nd0 S1 2.894446 1_555
Nd0 S1 2.894446 1_445
Nd0 S0 2.894446 1_445
Nd1 S5 2.869235 1_544
Nd1 S4 2.869235 1_455
Nd1 S2 2.894446 1_555
Nd1 S3 2.894446 1_554
Nd1 S3 2.894446 1_444
Nd1 S2 2.894446 1_445
Ag0 S0 2.518272 1_555
Ag0 S2 2.518272 1_555
Ag0 S4 2.596770 1_565
Ag0 S4 2.596770 1_455
Ag1 S1 2.518272 1_555
Ag1 S3 2.518272 1_555
Ag1 S5 2.596770 1_655
Ag1 S5 2.596770 1_545
