# generated using pymatgen
data_Eu
_symmetry_space_group_name_H-M   'P 1'
_cell_length_a   6.62793308
_cell_length_b   7.15011167
_cell_length_c   7.15142801
_cell_angle_alpha   110.93061234
_cell_angle_beta   108.00657243
_cell_angle_gamma   108.06674207
_symmetry_Int_Tables_number   1
_chemical_formula_structural   Eu
_chemical_formula_sum   Eu6
_cell_volume   265.16293372
_cell_formula_units_Z   6
loop_
 _symmetry_equiv_pos_site_id
 _symmetry_equiv_pos_as_xyz
  1  'x, y, z'
loop_
 _atom_site_type_symbol
 _atom_site_label
 _atom_site_symmetry_multiplicity
 _atom_site_fract_x
 _atom_site_fract_y
 _atom_site_fract_z
 _atom_site_occupancy
  Eu  Eu0  1  0.93639020  0.18596219  0.37229910  1
  Eu  Eu1  1  0.56347332  0.62754525  0.81408959  1
  Eu  Eu2  1  0.75004908  0.18603899  0.81402172  1
  Eu  Eu3  1  0.43652668  0.37245475  0.18591041  1
  Eu  Eu4  1  0.24995092  0.81396101  0.18597828  1
  Eu  Eu5  1  0.06360980  0.81403781  0.62770090  1
loop_
_geom_bond_atom_site_label_1
_geom_bond_atom_site_label_2
_geom_bond_distance
_geom_bond_site_symmetry_2
Eu0 Eu1 3.720257 1_655
Eu0 Eu2 3.730361 1_555
Eu0 Eu1 3.791814 1_544
Eu0 Eu2 3.797195 1_554
Eu0 Eu5 3.876583 1_645
Eu0 Eu5 3.879842 1_655
Eu0 Eu4 3.970348 1_545
Eu0 Eu4 3.972144 1_645
Eu0 Eu3 3.975330 1_655
Eu0 Eu3 3.976298 1_555
Eu1 Eu2 3.730321 1_555
Eu1 Eu2 3.796639 1_565
Eu1 Eu3 3.873202 1_556
Eu1 Eu3 3.882411 1_555
Eu1 Eu4 3.971127 1_556
Eu1 Eu4 3.971905 1_656
Eu1 Eu5 3.975330 1_655
Eu1 Eu5 3.976298 1_555
Eu2 Eu4 3.873349 1_656
Eu2 Eu4 3.876384 1_545
Eu2 Eu5 3.970348 1_545
Eu2 Eu3 3.971127 1_556
Eu2 Eu3 3.971905 1_656
Eu2 Eu5 3.972144 1_645
Eu3 Eu5 3.720257 1_655
Eu3 Eu4 3.730321 1_555
Eu3 Eu5 3.791814 1_544
Eu3 Eu4 3.796639 1_545
Eu4 Eu5 3.730361 1_555
Eu4 Eu5 3.797195 1_554
