# generated using pymatgen
data_Ca2TaBiO6
_symmetry_space_group_name_H-M   'P 1'
_cell_length_a   8.13101500
_cell_length_b   5.77288700
_cell_length_c   5.98532536
_cell_angle_alpha   88.95349153
_cell_angle_beta   90.00000000
_cell_angle_gamma   90.00000000
_symmetry_Int_Tables_number   1
_chemical_formula_structural   Ca2TaBiO6
_chemical_formula_sum   'Ca4 Ta2 Bi2 O12'
_cell_volume   280.90090304
_cell_formula_units_Z   2
loop_
 _symmetry_equiv_pos_site_id
 _symmetry_equiv_pos_as_xyz
  1  'x, y, z'
loop_
 _atom_site_type_symbol
 _atom_site_label
 _atom_site_symmetry_multiplicity
 _atom_site_fract_x
 _atom_site_fract_y
 _atom_site_fract_z
 _atom_site_occupancy
  Ca  Ca0  1  0.75000000  0.98839100  0.05449100  1
  Ca  Ca1  1  0.75000000  0.50629900  0.55611200  1
  Ca  Ca2  1  0.25000000  0.49370100  0.44388800  1
  Ca  Ca3  1  0.25000000  0.01160900  0.94550900  1
  Ta  Ta0  1  0.00000000  0.00000000  0.50000000  1
  Ta  Ta1  1  0.50000000  0.00000000  0.50000000  1
  Bi  Bi0  1  0.00000000  0.50000000  0.00000000  1
  Bi  Bi1  1  0.50000000  0.50000000  0.00000000  1
  O  O0  1  0.43991100  0.15962400  0.21506600  1
  O  O1  1  0.55980700  0.71393800  0.33555600  1
  O  O2  1  0.56008900  0.84037600  0.78493400  1
  O  O3  1  0.05980700  0.28606200  0.66444400  1
  O  O4  1  0.25000000  0.89494000  0.54616400  1
  O  O5  1  0.44019300  0.28606200  0.66444400  1
  O  O6  1  0.94019300  0.71393800  0.33555600  1
  O  O7  1  0.06008900  0.15962400  0.21506600  1
  O  O8  1  0.75000000  0.35481800  0.92497600  1
  O  O9  1  0.93991100  0.84037600  0.78493400  1
  O  O10  1  0.25000000  0.64518200  0.07502400  1
  O  O11  1  0.75000000  0.10506000  0.45383600  1
loop_
_geom_bond_atom_site_label_1
_geom_bond_atom_site_label_2
_geom_bond_distance
_geom_bond_site_symmetry_2
Ca0 O8 2.239574 1_564
Ca0 O9 2.401657 1_554
Ca0 O2 2.401657 1_554
Ca0 O11 2.495102 1_565
Ca0 O6 2.763057 1_555
Ca0 O1 2.763057 1_555
Ca0 O0 2.879705 1_565
Ca0 O7 2.879705 1_665
Ca1 O6 2.348027 1_555
Ca1 O1 2.348027 1_555
Ca1 O8 2.359756 1_555
Ca1 O11 2.406618 1_555
Ca1 O9 2.841853 1_555
Ca1 O2 2.841853 1_555
Ca1 O3 2.890046 1_655
Ca1 O5 2.890046 1_555
Ca2 O5 2.348027 1_555
Ca2 O3 2.348027 1_555
Ca2 O10 2.359756 1_555
Ca2 O4 2.406618 1_555
Ca2 O0 2.841853 1_555
Ca2 O7 2.841853 1_555
Ca2 O1 2.890046 1_555
Ca2 O6 2.890046 1_455
Ca3 O10 2.239574 1_546
Ca3 O0 2.401657 1_556
Ca3 O7 2.401657 1_556
Ca3 O4 2.495102 1_545
Ca3 O5 2.763057 1_555
Ca3 O3 2.763057 1_555
Ca3 O2 2.879705 1_545
Ca3 O9 2.879705 1_445
Bi0 O10 2.247202 1_555
Bi0 O8 2.247202 1_454
Bi0 O7 2.379989 1_555
Bi0 O9 2.379989 1_454
Bi0 O6 2.426134 1_455
Bi0 O3 2.426134 1_554
Bi1 O10 2.247202 1_555
Bi1 O8 2.247202 1_554
Bi1 O0 2.379989 1_555
Bi1 O2 2.379989 1_554
Bi1 O1 2.426134 1_555
Bi1 O5 2.426134 1_554
O0 Ta1 1.984672 1_555
O1 Ta1 1.997933 1_565
O2 Ta1 1.984672 1_565
O3 Ta0 1.997933 1_555
O4 Ta1 2.137792 1_565
O4 Ta0 2.137792 1_565
O5 Ta1 1.997933 1_555
O6 Ta0 1.997933 1_665
O7 Ta0 1.984672 1_555
O9 Ta0 1.984672 1_665
O11 Ta0 2.137792 1_655
O11 Ta1 2.137792 1_555
