# generated using pymatgen
data_H6Pt(NO)4
_symmetry_space_group_name_H-M   'P 1'
_cell_length_a   13.17087700
_cell_length_b   7.15798300
_cell_length_c   7.75864195
_cell_angle_alpha   69.34700980
_cell_angle_beta   90.00000000
_cell_angle_gamma   90.00000000
_symmetry_Int_Tables_number   1
_chemical_formula_structural   H6Pt(NO)4
_chemical_formula_sum   'H24 Pt4 N16 O16'
_cell_volume   684.45256155
_cell_formula_units_Z   4
loop_
 _symmetry_equiv_pos_site_id
 _symmetry_equiv_pos_as_xyz
  1  'x, y, z'
loop_
 _atom_site_type_symbol
 _atom_site_label
 _atom_site_symmetry_multiplicity
 _atom_site_fract_x
 _atom_site_fract_y
 _atom_site_fract_z
 _atom_site_occupancy
  H  H0  1  0.35804900  0.65525800  0.98788100  1
  H  H1  1  0.85804900  0.34474200  0.51211900  1
  H  H2  1  0.64195100  0.34474200  0.01211900  1
  H  H3  1  0.14195100  0.65525800  0.48788100  1
  H  H4  1  0.38553100  0.60459800  0.20818800  1
  H  H5  1  0.88553100  0.39540200  0.29181200  1
  H  H6  1  0.61446900  0.39540200  0.79181200  1
  H  H7  1  0.11446900  0.60459800  0.70818800  1
  H  H8  1  0.28351000  0.73742100  0.11780700  1
  H  H9  1  0.78351000  0.26257900  0.38219300  1
  H  H10  1  0.71649000  0.26257900  0.88219300  1
  H  H11  1  0.21649000  0.73742100  0.61780700  1
  H  H12  1  0.37030800  0.05800400  0.32356900  1
  H  H13  1  0.87030800  0.94199600  0.17643100  1
  H  H14  1  0.62969200  0.94199600  0.67643100  1
  H  H15  1  0.12969200  0.05800400  0.82356900  1
  H  H16  1  0.43771900  0.26818900  0.25282300  1
  H  H17  1  0.93771900  0.73181100  0.24717700  1
  H  H18  1  0.56228100  0.73181100  0.74717700  1
  H  H19  1  0.06228100  0.26818900  0.75282300  1
  H  H20  1  0.39607500  0.17002000  0.10165000  1
  H  H21  1  0.89607500  0.82998000  0.39835000  1
  H  H22  1  0.60392500  0.82998000  0.89835000  1
  H  H23  1  0.10392500  0.17002000  0.60165000  1
  Pt  Pt0  1  0.24222300  0.35675400  0.18523100  1
  Pt  Pt1  1  0.74222300  0.64324600  0.31476900  1
  Pt  Pt2  1  0.75777700  0.64324600  0.81476900  1
  Pt  Pt3  1  0.25777700  0.35675400  0.68523100  1
  N  N0  1  0.16524900  0.09889700  0.24987000  1
  N  N1  1  0.66524900  0.90110300  0.25013000  1
  N  N2  1  0.83475100  0.90110300  0.75013000  1
  N  N3  1  0.33475100  0.09889700  0.74987000  1
  N  N4  1  0.11642900  0.52524100  0.15266500  1
  N  N5  1  0.61642900  0.47475900  0.34733500  1
  N  N6  1  0.88357100  0.47475900  0.84733500  1
  N  N7  1  0.38357100  0.52524100  0.65266500  1
  N  N8  1  0.32719200  0.61919900  0.11670800  1
  N  N9  1  0.82719200  0.38080100  0.38329200  1
  N  N10  1  0.67280800  0.38080100  0.88329200  1
  N  N11  1  0.17280800  0.61919900  0.61670800  1
  N  N12  1  0.37745600  0.19402600  0.22103200  1
  N  N13  1  0.87745600  0.80597400  0.27896800  1
  N  N14  1  0.62254400  0.80597400  0.77896800  1
  N  N15  1  0.12254400  0.19402600  0.72103200  1
  O  O0  1  0.08955400  0.06380400  0.35291900  1
  O  O1  1  0.58955400  0.93619600  0.14708100  1
  O  O2  1  0.91044600  0.93619600  0.64708100  1
  O  O3  1  0.41044600  0.06380400  0.85291900  1
  O  O4  1  0.19723000  0.96948700  0.18758400  1
  O  O5  1  0.69723000  0.03051300  0.31241600  1
  O  O6  1  0.80277000  0.03051300  0.81241600  1
  O  O7  1  0.30277000  0.96948700  0.68758400  1
  O  O8  1  0.05926000  0.50660300  0.28769200  1
  O  O9  1  0.55926000  0.49339700  0.21230800  1
  O  O10  1  0.94074000  0.49339700  0.71230800  1
  O  O11  1  0.44074000  0.50660300  0.78769200  1
  O  O12  1  0.09908300  0.65683400  0.99998000  1
  O  O13  1  0.59908300  0.34316600  0.50002000  1
  O  O14  1  0.90091700  0.34316600  0.00002000  1
  O  O15  1  0.40091700  0.65683400  0.49998000  1
loop_
_geom_bond_atom_site_label_1
_geom_bond_atom_site_label_2
_geom_bond_distance
_geom_bond_site_symmetry_2
H0 N8 1.024134 1_556
H1 N9 1.024134 1_555
H2 N10 1.024134 1_554
H3 N11 1.024134 1_555
H4 N8 1.026040 1_555
H5 N9 1.026040 1_555
H6 N10 1.026040 1_555
H7 N11 1.026040 1_555
H8 N8 1.025804 1_555
H9 N9 1.025804 1_555
H10 N10 1.025804 1_555
H11 N11 1.025804 1_555
H12 N12 1.021441 1_555
H13 N13 1.021441 1_555
H14 N14 1.021441 1_555
H15 N15 1.021441 1_555
H16 N12 1.031989 1_555
H17 N13 1.031989 1_555
H18 N14 1.031989 1_555
H19 N15 1.031989 1_555
H20 N12 1.029496 1_555
H21 N13 1.029496 1_555
H22 N14 1.029496 1_555
H23 N15 1.029496 1_555
N0 O0 1.246839 1_555
N0 O4 1.258886 1_545
N0 Pt0 2.008259 1_555
N1 O1 1.246839 1_555
N1 O5 1.258886 1_565
N1 Pt1 2.008259 1_555
N2 O2 1.246839 1_555
N2 O6 1.258886 1_565
N2 Pt2 2.008259 1_555
N3 O3 1.246839 1_555
N3 O7 1.258886 1_545
N3 Pt3 2.008259 1_555
N4 O12 1.247259 1_554
N4 O8 1.258445 1_555
N4 Pt0 2.012071 1_555
N5 O13 1.247259 1_555
N5 O9 1.258445 1_555
N5 Pt1 2.012071 1_555
N6 O14 1.247259 1_556
N6 O10 1.258445 1_555
N6 Pt2 2.012071 1_555
N7 O15 1.247259 1_555
N7 O11 1.258445 1_555
N7 Pt3 2.012071 1_555
N8 Pt0 2.087964 1_555
N9 Pt1 2.087964 1_555
N10 Pt2 2.087964 1_555
N11 Pt3 2.087964 1_555
N12 Pt0 2.092401 1_555
N13 Pt1 2.092401 1_555
N14 Pt2 2.092401 1_555
N15 Pt3 2.092401 1_555
