# generated using pymatgen
data_Ta2Tl4S11
_symmetry_space_group_name_H-M   'P 1'
_cell_length_a   8.00189746
_cell_length_b   9.01650556
_cell_length_c   13.31928775
_cell_angle_alpha   107.86513655
_cell_angle_beta   89.20872485
_cell_angle_gamma   94.74945225
_symmetry_Int_Tables_number   1
_chemical_formula_structural   Ta2Tl4S11
_chemical_formula_sum   'Ta4 Tl8 S22'
_cell_volume   911.42964042
_cell_formula_units_Z   2
loop_
 _symmetry_equiv_pos_site_id
 _symmetry_equiv_pos_as_xyz
  1  'x, y, z'
loop_
 _atom_site_type_symbol
 _atom_site_label
 _atom_site_symmetry_multiplicity
 _atom_site_fract_x
 _atom_site_fract_y
 _atom_site_fract_z
 _atom_site_occupancy
  Ta  Ta0  1  0.33555600  0.89056681  0.19074397  1
  Ta  Ta1  1  0.66444400  0.10943319  0.80925603  1
  Ta  Ta2  1  0.12458577  0.63707760  0.30496429  1
  Ta  Ta3  1  0.87541423  0.36292240  0.69503571  1
  Tl  Tl0  1  0.24211576  0.57968912  0.58509300  1
  Tl  Tl1  1  0.75788424  0.42031088  0.41490700  1
  Tl  Tl2  1  0.50125356  0.72635714  0.88573863  1
  Tl  Tl3  1  0.49874644  0.27364286  0.11426137  1
  Tl  Tl4  1  0.21604470  0.03567867  0.57292823  1
  Tl  Tl5  1  0.78395530  0.96432133  0.42707177  1
  Tl  Tl6  1  0.05832772  0.23843612  0.97623170  1
  Tl  Tl7  1  0.94167228  0.76156388  0.02376830  1
  S  S0  1  0.00489292  0.29274192  0.53389514  1
  S  S1  1  0.99510708  0.70725808  0.46610486  1
  S  S2  1  0.38933918  0.80819261  0.37159924  1
  S  S3  1  0.61066082  0.19180739  0.62840076  1
  S  S4  1  0.04542970  0.35581165  0.24561878  1
  S  S5  1  0.95457030  0.64418835  0.75438122  1
  S  S6  1  0.10461149  0.51103586  0.81341562  1
  S  S7  1  0.89538851  0.48896414  0.18658438  1
  S  S8  1  0.39514003  0.57158265  0.35162680  1
  S  S9  1  0.60485997  0.42841735  0.64837320  1
  S  S10  1  0.36654958  0.13896331  0.33178479  1
  S  S11  1  0.63345042  0.86103669  0.66821521  1
  S  S12  1  0.72786768  0.04282247  0.95598766  1
  S  S13  1  0.27213232  0.95717753  0.04401234  1
  S  S14  1  0.52230087  0.68431184  0.11871685  1
  S  S15  1  0.47769913  0.31568816  0.88128315  1
  S  S16  1  0.72747915  0.39798111  0.88810184  1
  S  S17  1  0.27252085  0.60201889  0.11189816  1
  S  S18  1  0.95555264  0.13278897  0.74545371  1
  S  S19  1  0.04444736  0.86721103  0.25454629  1
  S  S20  1  0.58740748  0.07157750  0.25288262  1
  S  S21  1  0.41259252  0.92842250  0.74711738  1
loop_
_geom_bond_atom_site_label_1
_geom_bond_atom_site_label_2
_geom_bond_distance
_geom_bond_site_symmetry_2
S0 Ta3 2.300921 1_455
S0 Tl0 2.983654 1_555
S0 Tl1 3.053341 1_455
S0 Tl4 3.147929 1_555
S0 Tl5 3.245946 1_445
S1 Ta2 2.300921 1_655
S1 Tl1 2.983654 1_555
S1 Tl0 3.053341 1_655
S1 Tl5 3.147929 1_555
S1 Tl4 3.245946 1_665
S2 S8 2.071749 1_555
S2 Ta2 2.515312 1_555
S2 Ta0 2.778269 1_555
S2 Tl4 3.211603 1_565
S3 S9 2.071749 1_555
S3 Ta3 2.515312 1_555
S3 Ta1 2.778269 1_555
S3 Tl5 3.211603 1_545
S4 S7 2.084484 1_455
S4 Ta2 2.444457 1_555
S4 Tl1 3.160736 1_455
S5 S6 2.084484 1_655
S5 Ta3 2.444457 1_555
S5 Tl0 3.160736 1_655
S6 Ta3 2.452651 1_455
S7 Ta2 2.452651 1_655
S8 Ta2 2.428183 1_555
S9 Ta3 2.428183 1_555
S10 S20 2.081256 1_555
S10 Ta0 2.438455 1_545
S11 S21 2.081256 1_555
S11 Ta1 2.438455 1_565
S12 Ta1 2.288200 1_555
S12 Tl6 3.021830 1_655
S12 Tl2 3.139677 1_545
S12 Tl3 3.157535 1_556
S13 Ta0 2.288200 1_555
S13 Tl7 3.021830 1_455
S13 Tl3 3.139677 1_565
S13 Tl2 3.157535 1_554
S14 S17 2.066820 1_555
S14 Ta0 2.436751 1_555
S14 Tl2 3.247788 1_554
S15 S16 2.066820 1_555
S15 Ta1 2.436751 1_555
S15 Tl3 3.247788 1_556
S16 Ta1 2.499408 1_555
S16 Ta3 2.755539 1_555
S17 Ta0 2.499408 1_555
S17 Ta2 2.755539 1_555
S18 Ta1 2.483265 1_555
S18 Ta3 2.500995 1_555
S18 Tl6 3.029119 1_655
S18 Tl4 3.054076 1_655
S19 Ta0 2.483265 1_555
S19 Ta2 2.500995 1_555
S19 Tl7 3.029119 1_455
S19 Tl5 3.054076 1_455
S20 Ta0 2.466313 1_545
S20 Tl3 3.089635 1_555
S20 Tl5 3.243582 1_545
S21 Ta1 2.466313 1_565
S21 Tl2 3.089635 1_555
S21 Tl4 3.243582 1_565
