# generated using pymatgen
data_Al3P3H7CNO13
_symmetry_space_group_name_H-M   'P 1'
_cell_length_a   10.41161867
_cell_length_b   14.10127936
_cell_length_c   17.23973636
_cell_angle_alpha   90.00000000
_cell_angle_beta   90.00000000
_cell_angle_gamma   90.00000000
_symmetry_Int_Tables_number   1
_chemical_formula_structural   Al3P3H7CNO13
_chemical_formula_sum   'Al24 P24 H56 C8 N8 O104'
_cell_volume   2531.08884630
_cell_formula_units_Z   8
loop_
 _symmetry_equiv_pos_site_id
 _symmetry_equiv_pos_as_xyz
  1  'x, y, z'
loop_
 _atom_site_type_symbol
 _atom_site_label
 _atom_site_symmetry_multiplicity
 _atom_site_fract_x
 _atom_site_fract_y
 _atom_site_fract_z
 _atom_site_occupancy
  Al  Al0  1  0.83054901  0.02236992  0.19776906  1
  Al  Al1  1  0.33054901  0.97763008  0.30223094  1
  Al  Al2  1  0.16945099  0.47763008  0.69776906  1
  Al  Al3  1  0.66945099  0.52236992  0.80223094  1
  Al  Al4  1  0.16945099  0.97763008  0.80223094  1
  Al  Al5  1  0.66945099  0.02236992  0.69776906  1
  Al  Al6  1  0.83054901  0.52236992  0.30223094  1
  Al  Al7  1  0.33054901  0.47763008  0.19776906  1
  Al  Al8  1  0.87416005  0.93704252  0.39314369  1
  Al  Al9  1  0.37416005  0.06295748  0.10685631  1
  Al  Al10  1  0.12583995  0.56295748  0.89314369  1
  Al  Al11  1  0.62583995  0.43704252  0.60685631  1
  Al  Al12  1  0.12583995  0.06295748  0.60685631  1
  Al  Al13  1  0.62583995  0.93704252  0.89314369  1
  Al  Al14  1  0.87416005  0.43704252  0.10685631  1
  Al  Al15  1  0.37416005  0.56295748  0.39314369  1
  Al  Al16  1  0.62151200  0.25778039  0.30736501  1
  Al  Al17  1  0.12151200  0.74221961  0.19263499  1
  Al  Al18  1  0.37848800  0.24221961  0.80736501  1
  Al  Al19  1  0.87848800  0.75778039  0.69263499  1
  Al  Al20  1  0.37848800  0.74221961  0.69263499  1
  Al  Al21  1  0.87848800  0.25778039  0.80736501  1
  Al  Al22  1  0.62151200  0.75778039  0.19263499  1
  Al  Al23  1  0.12151200  0.24221961  0.30736501  1
  P  P0  1  0.86723347  0.24667741  0.20339081  1
  P  P1  1  0.36723347  0.75332259  0.29660919  1
  P  P2  1  0.13276653  0.25332259  0.70339081  1
  P  P3  1  0.63276653  0.74667741  0.79660919  1
  P  P4  1  0.13276653  0.75332259  0.79660919  1
  P  P5  1  0.63276653  0.24667741  0.70339081  1
  P  P6  1  0.86723347  0.74667741  0.29660919  1
  P  P7  1  0.36723347  0.25332259  0.20339081  1
  P  P8  1  0.62690540  0.04025973  0.33727589  1
  P  P9  1  0.12690540  0.95974027  0.16272411  1
  P  P10  1  0.37309460  0.45974027  0.83727589  1
  P  P11  1  0.87309460  0.54025973  0.66272411  1
  P  P12  1  0.37309460  0.95974027  0.66272411  1
  P  P13  1  0.87309460  0.04025973  0.83727589  1
  P  P14  1  0.62690540  0.54025973  0.16272411  1
  P  P15  1  0.12690540  0.45974027  0.33727589  1
  P  P16  1  0.87079491  0.93403819  0.58026472  1
  P  P17  1  0.37079491  0.06596181  0.91973528  1
  P  P18  1  0.12920509  0.56596181  0.08026472  1
  P  P19  1  0.62920509  0.43403819  0.41973528  1
  P  P20  1  0.12920509  0.06596181  0.41973528  1
  P  P21  1  0.62920509  0.93403819  0.08026472  1
  P  P22  1  0.87079491  0.43403819  0.91973528  1
  P  P23  1  0.37079491  0.56596181  0.58026472  1
  H  H0  1  0.96469435  0.89552407  0.94270108  1
  H  H1  1  0.46469435  0.10447593  0.55729892  1
  H  H2  1  0.03530565  0.60447593  0.44270108  1
  H  H3  1  0.53530565  0.39552407  0.05729892  1
  H  H4  1  0.03530565  0.10447593  0.05729892  1
  H  H5  1  0.53530565  0.89552407  0.44270108  1
  H  H6  1  0.96469435  0.39552407  0.55729892  1
  H  H7  1  0.46469435  0.60447593  0.94270108  1
  H  H8  1  0.02792335  0.86158773  0.02840276  1
  H  H9  1  0.52792335  0.13841227  0.47159724  1
  H  H10  1  0.97207665  0.63841227  0.52840276  1
  H  H11  1  0.47207665  0.36158773  0.97159724  1
  H  H12  1  0.97207665  0.13841227  0.97159724  1
  H  H13  1  0.47207665  0.86158773  0.52840276  1
  H  H14  1  0.02792335  0.36158773  0.47159724  1
  H  H15  1  0.52792335  0.63841227  0.02840276  1
  H  H16  1  0.87891458  0.90315253  0.02442772  1
  H  H17  1  0.37891458  0.09684747  0.47557228  1
  H  H18  1  0.12108542  0.59684747  0.52442772  1
  H  H19  1  0.62108542  0.40315253  0.97557228  1
  H  H20  1  0.12108542  0.09684747  0.97557228  1
  H  H21  1  0.62108542  0.90315253  0.52442772  1
  H  H22  1  0.87891458  0.40315253  0.47557228  1
  H  H23  1  0.37891458  0.59684747  0.02442772  1
  H  H24  1  0.99757895  0.97710326  0.28316130  1
  H  H25  1  0.49757895  0.02289674  0.21683870  1
  H  H26  1  0.00242105  0.52289674  0.78316130  1
  H  H27  1  0.50242105  0.47710326  0.71683870  1
  H  H28  1  0.00242105  0.02289674  0.71683870  1
  H  H29  1  0.50242105  0.97710326  0.78316130  1
  H  H30  1  0.99757895  0.47710326  0.21683870  1
  H  H31  1  0.49757895  0.52289674  0.28316130  1
  H  H32  1  0.87980193  0.74891774  0.92271135  1
  H  H33  1  0.37980193  0.25108226  0.57728865  1
  H  H34  1  0.12019807  0.75108226  0.42271135  1
  H  H35  1  0.62019807  0.24891774  0.07728865  1
  H  H36  1  0.12019807  0.25108226  0.07728865  1
  H  H37  1  0.62019807  0.74891774  0.42271135  1
  H  H38  1  0.87980193  0.24891774  0.57728865  1
  H  H39  1  0.37980193  0.75108226  0.92271135  1
  H  H40  1  0.96671363  0.71252618  0.00708594  1
  H  H41  1  0.46671363  0.28747382  0.49291406  1
  H  H42  1  0.03328637  0.78747382  0.50708594  1
  H  H43  1  0.53328637  0.21252618  0.99291406  1
  H  H44  1  0.03328637  0.28747382  0.99291406  1
  H  H45  1  0.53328637  0.71252618  0.50708594  1
  H  H46  1  0.96671363  0.21252618  0.49291406  1
  H  H47  1  0.46671363  0.78747382  0.00708594  1
  H  H48  1  0.80501667  0.75563936  0.01524030  1
  H  H49  1  0.30501667  0.24436064  0.48475970  1
  H  H50  1  0.19498333  0.74436064  0.51524030  1
  H  H51  1  0.69498333  0.25563936  0.98475970  1
  H  H52  1  0.19498333  0.24436064  0.98475970  1
  H  H53  1  0.69498333  0.75563936  0.51524030  1
  H  H54  1  0.80501667  0.25563936  0.48475970  1
  H  H55  1  0.30501667  0.74436064  0.01524030  1
  C  C0  1  0.89599441  0.76235698  0.98425768  1
  C  C1  1  0.39599441  0.23764302  0.51574232  1
  C  C2  1  0.10400559  0.73764302  0.48425768  1
  C  C3  1  0.60400559  0.26235698  0.01574232  1
  C  C4  1  0.10400559  0.23764302  0.01574232  1
  C  C5  1  0.60400559  0.76235698  0.48425768  1
  C  C6  1  0.89599441  0.26235698  0.51574232  1
  C  C7  1  0.39599441  0.73764302  0.98425768  1
  N  N0  1  0.94564609  0.86196198  0.99503336  1
  N  N1  1  0.44564609  0.13803802  0.50496664  1
  N  N2  1  0.05435391  0.63803802  0.49503336  1
  N  N3  1  0.55435391  0.36196198  0.00496664  1
  N  N4  1  0.05435391  0.13803802  0.00496664  1
  N  N5  1  0.55435391  0.86196198  0.49503336  1
  N  N6  1  0.94564609  0.36196198  0.50496664  1
  N  N7  1  0.44564609  0.63803802  0.99503336  1
  O  O0  1  0.82982251  0.14702241  0.17630161  1
  O  O1  1  0.32982251  0.85297759  0.32369839  1
  O  O2  1  0.17017749  0.35297759  0.67630161  1
  O  O3  1  0.67017749  0.64702241  0.82369839  1
  O  O4  1  0.17017749  0.85297759  0.82369839  1
  O  O5  1  0.67017749  0.14702241  0.67630161  1
  O  O6  1  0.82982251  0.64702241  0.32369839  1
  O  O7  1  0.32982251  0.35297759  0.17630161  1
  O  O8  1  0.61770226  0.14850805  0.35798046  1
  O  O9  1  0.11770226  0.85149195  0.14201954  1
  O  O10  1  0.38229774  0.35149195  0.85798046  1
  O  O11  1  0.88229774  0.64850805  0.64201954  1
  O  O12  1  0.38229774  0.85149195  0.64201954  1
  O  O13  1  0.88229774  0.14850805  0.85798046  1
  O  O14  1  0.61770226  0.64850805  0.14201954  1
  O  O15  1  0.11770226  0.35149195  0.35798046  1
  O  O16  1  0.90331658  0.97853670  0.28759972  1
  O  O17  1  0.40331658  0.02146330  0.21240028  1
  O  O18  1  0.09668342  0.52146330  0.78759972  1
  O  O19  1  0.59668342  0.47853670  0.71240028  1
  O  O20  1  0.09668342  0.02146330  0.71240028  1
  O  O21  1  0.59668342  0.97853670  0.78759972  1
  O  O22  1  0.90331658  0.47853670  0.21240028  1
  O  O23  1  0.40331658  0.52146330  0.28759972  1
  O  O24  1  0.85936025  0.31376345  0.13377710  1
  O  O25  1  0.35936025  0.68623655  0.36622290  1
  O  O26  1  0.14063975  0.18623655  0.63377710  1
  O  O27  1  0.64063975  0.81376345  0.86622290  1
  O  O28  1  0.14063975  0.68623655  0.86622290  1
  O  O29  1  0.64063975  0.31376345  0.63377710  1
  O  O30  1  0.85936025  0.81376345  0.36622290  1
  O  O31  1  0.35936025  0.18623655  0.13377710  1
  O  O32  1  0.72156620  0.99697465  0.39576921  1
  O  O33  1  0.22156620  0.00302535  0.10423079  1
  O  O34  1  0.27843380  0.50302535  0.89576921  1
  O  O35  1  0.77843380  0.49697465  0.60423079  1
  O  O36  1  0.27843380  0.00302535  0.60423079  1
  O  O37  1  0.77843380  0.99697465  0.89576921  1
  O  O38  1  0.72156620  0.49697465  0.10423079  1
  O  O39  1  0.22156620  0.50302535  0.39576921  1
  O  O40  1  0.66899046  0.02652820  0.25200607  1
  O  O41  1  0.16899046  0.97347180  0.24799393  1
  O  O42  1  0.33100954  0.47347180  0.75200607  1
  O  O43  1  0.83100954  0.52652820  0.74799393  1
  O  O44  1  0.33100954  0.97347180  0.74799393  1
  O  O45  1  0.83100954  0.02652820  0.75200607  1
  O  O46  1  0.66899046  0.52652820  0.24799393  1
  O  O47  1  0.16899046  0.47347180  0.25200607  1
  O  O48  1  0.96829188  0.01515505  0.58602366  1
  O  O49  1  0.46829188  0.98484495  0.91397634  1
  O  O50  1  0.03170812  0.48484495  0.08602366  1
  O  O51  1  0.53170812  0.51515505  0.41397634  1
  O  O52  1  0.03170812  0.98484495  0.41397634  1
  O  O53  1  0.53170812  0.01515505  0.08602366  1
  O  O54  1  0.96829188  0.51515505  0.91397634  1
  O  O55  1  0.46829188  0.48484495  0.58602366  1
  O  O56  1  0.92009549  0.84594902  0.62606208  1
  O  O57  1  0.42009549  0.15405098  0.87393792  1
  O  O58  1  0.07990451  0.65405098  0.12606208  1
  O  O59  1  0.57990451  0.34594902  0.37393792  1
  O  O60  1  0.07990451  0.15405098  0.37393792  1
  O  O61  1  0.57990451  0.84594902  0.12606208  1
  O  O62  1  0.92009549  0.34594902  0.87393792  1
  O  O63  1  0.42009549  0.65405098  0.62606208  1
  O  O64  1  0.84921748  0.90309329  0.49653829  1
  O  O65  1  0.34921748  0.09690671  0.00346171  1
  O  O66  1  0.15078252  0.59690671  0.99653829  1
  O  O67  1  0.65078252  0.40309329  0.50346171  1
  O  O68  1  0.15078252  0.09690671  0.50346171  1
  O  O69  1  0.65078252  0.90309329  0.99653829  1
  O  O70  1  0.84921748  0.40309329  0.00346171  1
  O  O71  1  0.34921748  0.59690671  0.49653829  1
  O  O72  1  0.73888130  0.96421982  0.61413342  1
  O  O73  1  0.23888130  0.03578018  0.88586658  1
  O  O74  1  0.26111870  0.53578018  0.11413342  1
  O  O75  1  0.76111870  0.46421982  0.38586658  1
  O  O76  1  0.26111870  0.03578018  0.38586658  1
  O  O77  1  0.76111870  0.96421982  0.11413342  1
  O  O78  1  0.73888130  0.46421982  0.88586658  1
  O  O79  1  0.23888130  0.53578018  0.61413342  1
  O  O80  1  0.77539534  0.27962948  0.26931187  1
  O  O81  1  0.27539534  0.72037052  0.23068813  1
  O  O82  1  0.22460466  0.22037052  0.76931187  1
  O  O83  1  0.72460466  0.77962948  0.73068813  1
  O  O84  1  0.22460466  0.72037052  0.73068813  1
  O  O85  1  0.72460466  0.27962948  0.76931187  1
  O  O86  1  0.77539534  0.77962948  0.23068813  1
  O  O87  1  0.27539534  0.22037052  0.26931187  1
  O  O88  1  0.49531508  0.99373905  0.35194026  1
  O  O89  1  0.99531508  0.00626095  0.14805974  1
  O  O90  1  0.50468492  0.50626095  0.85194026  1
  O  O91  1  0.00468492  0.49373905  0.64805974  1
  O  O92  1  0.50468492  0.00626095  0.64805974  1
  O  O93  1  0.00468492  0.99373905  0.85194026  1
  O  O94  1  0.49531508  0.49373905  0.14805974  1
  O  O95  1  0.99531508  0.50626095  0.35194026  1
  O  O96  1  0.00660790  0.24619979  0.23399416  1
  O  O97  1  0.50660790  0.75380021  0.26600584  1
  O  O98  1  0.99339210  0.25380021  0.73399416  1
  O  O99  1  0.49339210  0.74619979  0.76600584  1
  O  O100  1  0.99339210  0.75380021  0.76600584  1
  O  O101  1  0.49339210  0.24619979  0.73399416  1
  O  O102  1  0.00660790  0.74619979  0.26600584  1
  O  O103  1  0.50660790  0.25380021  0.23399416  1
loop_
_geom_bond_atom_site_label_1
_geom_bond_atom_site_label_2
_geom_bond_distance
_geom_bond_site_symmetry_2
Al0 O0 1.796314 1_555
Al0 O77 1.809390 1_545
Al0 O16 1.831500 1_545
Al0 O40 1.925392 1_555
Al0 O89 1.931032 1_555
Al1 O1 1.796314 1_555
Al1 O76 1.809390 1_565
Al1 O17 1.831500 1_565
Al1 O41 1.925392 1_555
Al1 O88 1.931032 1_555
Al2 O2 1.796314 1_555
Al2 O79 1.809390 1_555
Al2 O18 1.831500 1_555
Al2 O42 1.925392 1_555
Al2 O91 1.931032 1_555
Al3 O3 1.796314 1_555
Al3 O78 1.809390 1_555
Al3 O19 1.831500 1_555
Al3 O43 1.925392 1_555
Al3 O90 1.931032 1_555
Al4 O4 1.796314 1_555
Al4 O73 1.809390 1_565
Al4 O20 1.831500 1_565
Al4 O44 1.925392 1_555
Al4 O93 1.931032 1_555
Al5 O5 1.796314 1_555
Al5 O72 1.809390 1_545
Al5 O21 1.831500 1_545
Al5 O45 1.925392 1_555
Al5 O92 1.931032 1_555
Al6 O6 1.796314 1_555
Al6 O75 1.809390 1_555
Al6 O22 1.831500 1_555
Al6 O46 1.925392 1_555
Al6 O95 1.931032 1_555
Al7 O7 1.796314 1_555
Al7 O74 1.809390 1_555
Al7 O23 1.831500 1_555
Al7 O47 1.925392 1_555
Al7 O94 1.931032 1_555
Al8 O32 1.800111 1_555
Al8 O30 1.805865 1_555
Al8 O52 1.809434 1_655
Al8 O64 1.863843 1_555
Al8 O16 1.935273 1_555
Al9 O33 1.800111 1_555
Al9 O31 1.805865 1_555
Al9 O53 1.809434 1_555
Al9 O65 1.863843 1_555
Al9 O17 1.935273 1_555
Al10 O34 1.800111 1_555
Al10 O28 1.805865 1_555
Al10 O54 1.809434 1_455
Al10 O66 1.863843 1_555
Al10 O18 1.935273 1_555
Al11 O35 1.800111 1_555
Al11 O29 1.805865 1_555
Al11 O55 1.809434 1_555
Al11 O67 1.863843 1_555
Al11 O19 1.935273 1_555
Al12 O36 1.800111 1_555
Al12 O26 1.805865 1_555
Al12 O48 1.809434 1_455
Al12 O68 1.863843 1_555
Al12 O20 1.935273 1_555
Al13 O37 1.800111 1_555
Al13 O27 1.805865 1_555
Al13 O49 1.809434 1_555
Al13 O69 1.863843 1_555
Al13 O21 1.935273 1_555
Al14 O38 1.800111 1_555
Al14 O24 1.805865 1_555
Al14 O50 1.809434 1_655
Al14 O70 1.863843 1_555
Al14 O22 1.935273 1_555
Al15 O39 1.800111 1_555
Al15 O25 1.805865 1_555
Al15 O51 1.809434 1_555
Al15 O71 1.863843 1_555
Al15 O23 1.935273 1_555
Al16 O103 1.741933 1_555
Al16 O59 1.746611 1_555
Al16 O80 1.758482 1_555
Al16 O8 1.771245 1_555
Al17 O102 1.741933 1_555
Al17 O58 1.746611 1_555
Al17 O81 1.758482 1_555
Al17 O9 1.771245 1_555
Al18 O101 1.741933 1_555
Al18 O57 1.746611 1_555
Al18 O82 1.758482 1_555
Al18 O10 1.771245 1_555
Al19 O100 1.741933 1_555
Al19 O56 1.746611 1_555
Al19 O83 1.758482 1_555
Al19 O11 1.771245 1_555
Al20 O99 1.741933 1_555
Al20 O63 1.746611 1_555
Al20 O84 1.758482 1_555
Al20 O12 1.771245 1_555
Al21 O98 1.741933 1_555
Al21 O62 1.746611 1_555
Al21 O85 1.758482 1_555
Al21 O13 1.771245 1_555
Al22 O97 1.741933 1_555
Al22 O61 1.746611 1_555
Al22 O86 1.758482 1_555
Al22 O14 1.771245 1_555
Al23 O96 1.741933 1_555
Al23 O60 1.746611 1_555
Al23 O87 1.758482 1_555
Al23 O15 1.771245 1_555
H0 N0 1.037916 1_555
H1 N1 1.037916 1_555
H2 N2 1.037916 1_555
H3 N3 1.037916 1_555
H4 N4 1.037916 1_555
H5 N5 1.037916 1_555
H6 N6 1.037916 1_555
H7 N7 1.037916 1_555
H8 N0 1.031894 1_454
H9 N1 1.031894 1_555
H10 N2 1.031894 1_655
H11 N3 1.031894 1_556
H12 N4 1.031894 1_656
H13 N5 1.031894 1_555
H14 N6 1.031894 1_455
H15 N7 1.031894 1_554
H16 N0 1.037735 1_554
H17 N1 1.037735 1_555
H18 N2 1.037735 1_555
H19 N3 1.037735 1_556
H20 N4 1.037735 1_556
H21 N5 1.037735 1_555
H22 N6 1.037735 1_555
H23 N7 1.037735 1_554
H24 O16 0.984610 1_555
H25 O17 0.984610 1_555
H26 O18 0.984610 1_555
H27 O19 0.984610 1_555
H28 O20 0.984610 1_555
H29 O21 0.984610 1_555
H30 O22 0.984610 1_555
H31 O23 0.984610 1_555
C0 H32 1.090939 1_555
C0 H40 1.091229 1_556
C0 H48 1.091562 1_556
C0 N0 1.508156 1_555
C1 H33 1.090939 1_555
C1 H41 1.091229 1_555
C1 H49 1.091562 1_555
C1 N1 1.508156 1_555
C2 H34 1.090939 1_555
C2 H42 1.091229 1_555
C2 H50 1.091562 1_555
C2 N2 1.508156 1_555
C3 H35 1.090939 1_555
C3 H43 1.091229 1_554
C3 H51 1.091562 1_554
C3 N3 1.508156 1_555
C4 H36 1.090939 1_555
C4 H44 1.091229 1_554
C4 H52 1.091562 1_554
C4 N4 1.508156 1_555
C5 H37 1.090939 1_555
C5 H45 1.091229 1_555
C5 H53 1.091562 1_555
C5 N5 1.508156 1_555
C6 H38 1.090939 1_555
C6 H46 1.091229 1_555
C6 H54 1.091562 1_555
C6 N6 1.508156 1_555
C7 H39 1.090939 1_555
C7 H47 1.091229 1_556
C7 H55 1.091562 1_556
C7 N7 1.508156 1_555
O0 P0 1.531202 1_555
O1 P1 1.531202 1_555
O2 P2 1.531202 1_555
O3 P3 1.531202 1_555
O4 P4 1.531202 1_555
O5 P5 1.531202 1_555
O6 P6 1.531202 1_555
O7 P7 1.531202 1_555
O8 P8 1.570544 1_555
O9 P9 1.570544 1_555
O10 P10 1.570544 1_555
O11 P11 1.570544 1_555
O12 P12 1.570544 1_555
O13 P13 1.570544 1_555
O14 P14 1.570544 1_555
O15 P15 1.570544 1_555
O24 P0 1.530335 1_555
O25 P1 1.530335 1_555
O26 P2 1.530335 1_555
O27 P3 1.530335 1_555
O28 P4 1.530335 1_555
O29 P5 1.530335 1_555
O30 P6 1.530335 1_555
O31 P7 1.530335 1_555
O32 P8 1.536489 1_565
O33 P9 1.536489 1_545
O34 P10 1.536489 1_555
O35 P11 1.536489 1_555
O36 P12 1.536489 1_545
O37 P13 1.536489 1_565
O38 P14 1.536489 1_555
O39 P15 1.536489 1_555
O40 P8 1.546116 1_555
O41 P9 1.546116 1_555
O42 P10 1.546116 1_555
O43 P11 1.546116 1_555
O44 P12 1.546116 1_555
O45 P13 1.546116 1_555
O46 P14 1.546116 1_555
O47 P15 1.546116 1_555
O48 P16 1.532542 1_545
O49 P17 1.532542 1_565
O50 P18 1.532542 1_555
O51 P19 1.532542 1_555
O52 P20 1.532542 1_565
O53 P21 1.532542 1_545
O54 P22 1.532542 1_555
O55 P23 1.532542 1_555
O56 P16 1.558790 1_555
O57 P17 1.558790 1_555
O58 P18 1.558790 1_555
O59 P19 1.558790 1_555
O60 P20 1.558790 1_555
O61 P21 1.558790 1_555
O62 P22 1.558790 1_555
O63 P23 1.558790 1_555
O64 P16 1.524581 1_555
O65 P17 1.524581 1_554
O66 P18 1.524581 1_556
O67 P19 1.524581 1_555
O68 P20 1.524581 1_555
O69 P21 1.524581 1_556
O70 P22 1.524581 1_554
O71 P23 1.524581 1_555
O72 P16 1.551896 1_555
O73 P17 1.551896 1_555
O74 P18 1.551896 1_555
O75 P19 1.551896 1_555
O76 P20 1.551896 1_555
O77 P21 1.551896 1_555
O78 P22 1.551896 1_555
O79 P23 1.551896 1_555
O80 P0 1.556196 1_555
O81 P1 1.556196 1_555
O82 P2 1.556196 1_555
O83 P3 1.556196 1_555
O84 P4 1.556196 1_555
O85 P5 1.556196 1_555
O86 P6 1.556196 1_555
O87 P7 1.556196 1_555
O88 P8 1.539915 1_565
O89 P9 1.539915 1_645
O90 P10 1.539915 1_555
O91 P11 1.539915 1_455
O92 P12 1.539915 1_545
O93 P13 1.539915 1_465
O94 P14 1.539915 1_555
O95 P15 1.539915 1_655
O96 P0 1.544063 1_455
O97 P1 1.544063 1_555
O98 P2 1.544063 1_655
O99 P3 1.544063 1_555
O100 P4 1.544063 1_655
O101 P5 1.544063 1_555
O102 P6 1.544063 1_455
O103 P7 1.544063 1_555
