# generated using pymatgen
data_Y3VCo8
_symmetry_space_group_name_H-M   'P 1'
_cell_length_a   5.04930130
_cell_length_b   5.04930130
_cell_length_c   8.39838268
_cell_angle_alpha   72.50566711
_cell_angle_beta   72.50566711
_cell_angle_gamma   60.00000912
_symmetry_Int_Tables_number   1
_chemical_formula_structural   Y3VCo8
_chemical_formula_sum   'Y3 V1 Co8'
_cell_volume   173.90392113
_cell_formula_units_Z   1
loop_
 _symmetry_equiv_pos_site_id
 _symmetry_equiv_pos_as_xyz
  1  'x, y, z'
loop_
 _atom_site_type_symbol
 _atom_site_label
 _atom_site_symmetry_multiplicity
 _atom_site_fract_x
 _atom_site_fract_y
 _atom_site_fract_z
 _atom_site_occupancy
  Y  Y0  1  0.99982500  0.99982500  0.00052500  1
  Y  Y1  1  0.14000400  0.14000400  0.57998700  1
  Y  Y2  1  0.85980100  0.85980100  0.42059600  1
  V  V0  1  0.66812100  0.66812100  0.99563700  1
  Co  Co0  1  0.91895700  0.41909100  0.24286000  1
  Co  Co1  1  0.41909100  0.41909100  0.24286000  1
  Co  Co2  1  0.41909100  0.91895700  0.24286000  1
  Co  Co3  1  0.08620700  0.57777100  0.75825100  1
  Co  Co4  1  0.57777100  0.57777100  0.75825100  1
  Co  Co5  1  0.57777100  0.08620700  0.75825100  1
  Co  Co6  1  0.50074700  0.50074700  0.49775900  1
  Co  Co7  1  0.33261300  0.33261300  0.00216100  1
loop_
_geom_bond_atom_site_label_1
_geom_bond_atom_site_label_2
_geom_bond_distance
_geom_bond_site_symmetry_2
Y0 Y2 3.308559 1_555
Y0 Y1 3.312237 1_664
Y1 Y2 3.174034 1_445
Y1 Y2 3.174035 1_545
Y1 Y2 3.174035 1_455
V0 Y0 2.915470 1_556
V0 Y0 2.915470 1_456
V0 Y0 2.915470 1_546
Co0 Co7 2.391608 1_655
Co0 V0 2.432071 1_554
Co0 Co6 2.480739 1_555
Co0 Co1 2.523974 1_555
Co0 Co2 2.523974 1_555
Co0 Co1 2.525327 1_655
Co0 Co2 2.525328 1_645
Co0 Y2 2.886786 1_555
Co0 Y2 2.886786 1_545
Co0 Y1 3.029233 1_655
Co0 Y0 3.164948 1_545
Co0 Y0 3.164952 1_555
Co1 Co7 2.391605 1_555
Co1 V0 2.432073 1_554
Co1 Co6 2.480742 1_555
Co1 Co2 2.523974 1_555
Co1 Co2 2.525327 1_545
Co1 Y2 2.886786 1_455
Co1 Y2 2.886786 1_545
Co1 Y1 3.029233 1_555
Co1 Y0 3.164950 1_455
Co1 Y0 3.164950 1_545
Co2 Co7 2.391608 1_565
Co2 V0 2.432071 1_554
Co2 Co6 2.480739 1_555
Co2 Y2 2.886786 1_555
Co2 Y2 2.886786 1_455
Co2 Y1 3.029233 1_565
Co2 Y0 3.164948 1_455
Co2 Y0 3.164952 1_555
Co3 V0 2.385935 1_455
Co3 Co7 2.396682 1_556
Co3 Co4 2.482055 1_555
Co3 Co5 2.482055 1_555
Co3 Co6 2.502587 1_555
Co3 Co4 2.567247 1_455
Co3 Co5 2.567247 1_465
Co3 Y1 2.888907 1_565
Co3 Y1 2.888911 1_555
Co3 Y2 3.044588 1_455
Co3 Y0 3.164755 1_456
Co3 Y0 3.164755 1_446
Co4 V0 2.385935 1_555
Co4 Co7 2.396682 1_556
Co4 Co5 2.482055 1_555
Co4 Co6 2.502587 1_555
Co4 Co5 2.567247 1_565
Co4 Y1 2.888910 1_655
Co4 Y1 2.888910 1_565
Co4 Y2 3.044586 1_555
Co4 Y0 3.164756 1_546
Co4 Y0 3.164756 1_456
Co5 V0 2.385935 1_545
Co5 Co7 2.396682 1_556
Co5 Co6 2.502587 1_555
Co5 Y1 2.888907 1_655
Co5 Y1 2.888911 1_555
Co5 Y2 3.044588 1_545
Co5 Y0 3.164755 1_546
Co5 Y0 3.164755 1_446
Co6 Y2 2.977889 1_555
Co6 Y2 2.977894 1_545
Co6 Y2 2.977894 1_455
Co6 Y1 2.986288 1_565
Co6 Y1 2.986288 1_655
Co6 Y1 2.986292 1_555
Co7 Y0 2.915244 1_445
Co7 Y0 2.915244 1_455
Co7 Y0 2.915244 1_545
Co7 V0 2.915668 1_554
Co7 V0 2.915669 1_454
Co7 V0 2.915669 1_544
