# generated using pymatgen
data_ScH4NF4
_symmetry_space_group_name_H-M   'P 1'
_cell_length_a   13.76609800
_cell_length_b   7.94783100
_cell_length_c   8.20806000
_cell_angle_alpha   90.00000000
_cell_angle_beta   90.00000000
_cell_angle_gamma   90.00000000
_symmetry_Int_Tables_number   1
_chemical_formula_structural   ScH4NF4
_chemical_formula_sum   'Sc8 H32 N8 F32'
_cell_volume   898.04893715
_cell_formula_units_Z   8
loop_
 _symmetry_equiv_pos_site_id
 _symmetry_equiv_pos_as_xyz
  1  'x, y, z'
loop_
 _atom_site_type_symbol
 _atom_site_label
 _atom_site_symmetry_multiplicity
 _atom_site_fract_x
 _atom_site_fract_y
 _atom_site_fract_z
 _atom_site_occupancy
  Sc  Sc0  1  0.75037500  0.99995700  0.62506300  1
  Sc  Sc1  1  0.25037500  0.50004300  0.87493700  1
  Sc  Sc2  1  0.24962500  0.49995700  0.37493700  1
  Sc  Sc3  1  0.74962500  0.00004300  0.12506300  1
  Sc  Sc4  1  0.24962500  0.00004300  0.37493700  1
  Sc  Sc5  1  0.74962500  0.49995700  0.12506300  1
  Sc  Sc6  1  0.75037500  0.50004300  0.62506300  1
  Sc  Sc7  1  0.25037500  0.99995700  0.87493700  1
  H  H0  1  0.53776100  0.14075500  0.63990900  1
  H  H1  1  0.03776100  0.35924500  0.86009100  1
  H  H2  1  0.46223900  0.64075500  0.36009100  1
  H  H3  1  0.96223900  0.85924500  0.13990900  1
  H  H4  1  0.46223900  0.85924500  0.36009100  1
  H  H5  1  0.96223900  0.64075500  0.13990900  1
  H  H6  1  0.53776100  0.35924500  0.63990900  1
  H  H7  1  0.03776100  0.14075500  0.86009100  1
  H  H8  1  0.44454600  0.25000000  0.72349300  1
  H  H9  1  0.94454600  0.25000000  0.77650700  1
  H  H10  1  0.55545400  0.75000000  0.27650700  1
  H  H11  1  0.05545400  0.75000000  0.22349300  1
  H  H12  1  0.45971800  0.25000000  0.52205600  1
  H  H13  1  0.95971800  0.25000000  0.97794400  1
  H  H14  1  0.54028200  0.75000000  0.47794400  1
  H  H15  1  0.04028200  0.75000000  0.02205600  1
  H  H16  1  0.04100600  0.75000000  0.52393000  1
  H  H17  1  0.54100600  0.75000000  0.97607000  1
  H  H18  1  0.95899400  0.25000000  0.47607000  1
  H  H19  1  0.45899400  0.25000000  0.02393000  1
  H  H20  1  0.96377400  0.85926500  0.64298000  1
  H  H21  1  0.46377400  0.64073500  0.85702000  1
  H  H22  1  0.03622600  0.35926500  0.35702000  1
  H  H23  1  0.53622600  0.14073500  0.14298000  1
  H  H24  1  0.03622600  0.14073500  0.35702000  1
  H  H25  1  0.53622600  0.35926500  0.14298000  1
  H  H26  1  0.96377400  0.64073500  0.64298000  1
  H  H27  1  0.46377400  0.85926500  0.85702000  1
  H  H28  1  0.05751700  0.75000000  0.72516900  1
  H  H29  1  0.55751700  0.75000000  0.77483100  1
  H  H30  1  0.94248300  0.25000000  0.27483100  1
  H  H31  1  0.44248300  0.25000000  0.22516900  1
  N  N0  1  0.49560900  0.25000000  0.63180700  1
  N  N1  1  0.99560900  0.25000000  0.86819300  1
  N  N2  1  0.50439100  0.75000000  0.36819300  1
  N  N3  1  0.00439100  0.75000000  0.13180700  1
  N  N4  1  0.00595000  0.75000000  0.63421000  1
  N  N5  1  0.50595000  0.75000000  0.86579000  1
  N  N6  1  0.99405000  0.25000000  0.36579000  1
  N  N7  1  0.49405000  0.25000000  0.13421000  1
  F  F0  1  0.78089500  0.75000000  0.60563700  1
  F  F1  1  0.28089500  0.75000000  0.89436300  1
  F  F2  1  0.21910500  0.25000000  0.39436300  1
  F  F3  1  0.71910500  0.25000000  0.10563700  1
  F  F4  1  0.60620600  0.95474100  0.62652600  1
  F  F5  1  0.10620600  0.54525900  0.87347400  1
  F  F6  1  0.39379400  0.45474100  0.37347400  1
  F  F7  1  0.89379400  0.04525900  0.12652600  1
  F  F8  1  0.39379400  0.04525900  0.37347400  1
  F  F9  1  0.89379400  0.45474100  0.12652600  1
  F  F10  1  0.60620600  0.54525900  0.62652600  1
  F  F11  1  0.10620600  0.95474100  0.87347400  1
  F  F12  1  0.89453700  0.04478000  0.62998000  1
  F  F13  1  0.39453700  0.45522000  0.87002000  1
  F  F14  1  0.10546300  0.54478000  0.37002000  1
  F  F15  1  0.60546300  0.95522000  0.12998000  1
  F  F16  1  0.10546300  0.95522000  0.37002000  1
  F  F17  1  0.60546300  0.54478000  0.12998000  1
  F  F18  1  0.89453700  0.45522000  0.62998000  1
  F  F19  1  0.39453700  0.04478000  0.87002000  1
  F  F20  1  0.72002300  0.25000000  0.64487200  1
  F  F21  1  0.22002300  0.25000000  0.85512800  1
  F  F22  1  0.27997700  0.75000000  0.35512800  1
  F  F23  1  0.77997700  0.75000000  0.14487200  1
  F  F24  1  0.75087400  0.98028800  0.87554500  1
  F  F25  1  0.25087400  0.51971200  0.62445500  1
  F  F26  1  0.24912600  0.48028800  0.12445500  1
  F  F27  1  0.74912600  0.01971200  0.37554500  1
  F  F28  1  0.24912600  0.01971200  0.12445500  1
  F  F29  1  0.74912600  0.48028800  0.37554500  1
  F  F30  1  0.75087400  0.51971200  0.87554500  1
  F  F31  1  0.25087400  0.98028800  0.62445500  1
loop_
_geom_bond_atom_site_label_1
_geom_bond_atom_site_label_2
_geom_bond_distance
_geom_bond_site_symmetry_2
H0 N0 1.046428 1_555
H1 N1 1.046428 1_455
H2 N2 1.046428 1_555
H3 N3 1.046428 1_655
H4 N2 1.046428 1_555
H5 N3 1.046428 1_655
H6 N0 1.046428 1_555
H7 N1 1.046428 1_455
H8 N0 1.029794 1_555
H9 N1 1.029794 1_555
H10 N2 1.029794 1_555
H11 N3 1.029794 1_555
H12 N0 1.027439 1_555
H13 N1 1.027439 1_555
H14 N2 1.027439 1_555
H15 N3 1.027439 1_555
H16 N4 1.025791 1_555
H17 N5 1.025791 1_555
H18 N6 1.025791 1_555
H19 N7 1.025791 1_555
H20 N4 1.047105 1_655
H21 N5 1.047105 1_555
H22 N6 1.047105 1_455
H23 N7 1.047105 1_555
H24 N6 1.047105 1_455
H25 N7 1.047105 1_555
H26 N4 1.047105 1_655
H27 N5 1.047105 1_555
H28 N4 1.030209 1_555
H29 N5 1.030209 1_555
H30 N6 1.030209 1_555
H31 N7 1.030209 1_555
F0 Sc0 2.036808 1_555
F0 Sc6 2.036808 1_555
F1 Sc1 2.036808 1_555
F1 Sc7 2.036808 1_555
F2 Sc4 2.036808 1_555
F2 Sc2 2.036808 1_555
F3 Sc5 2.036808 1_555
F3 Sc3 2.036808 1_555
F4 Sc0 2.016954 1_555
F5 Sc1 2.016954 1_555
F6 Sc2 2.016954 1_555
F7 Sc3 2.016954 1_555
F8 Sc4 2.016954 1_555
F9 Sc5 2.016954 1_555
F10 Sc6 2.016954 1_555
F11 Sc7 2.016954 1_555
F12 Sc0 2.016673 1_545
F13 Sc1 2.016673 1_555
F14 Sc2 2.016673 1_555
F15 Sc3 2.016673 1_565
F16 Sc4 2.016673 1_565
F17 Sc5 2.016673 1_555
F18 Sc6 2.016673 1_555
F19 Sc7 2.016673 1_545
F20 Sc6 2.037247 1_555
F20 Sc0 2.037247 1_545
F21 Sc1 2.037247 1_555
F21 Sc7 2.037247 1_545
F22 Sc2 2.037247 1_555
F22 Sc4 2.037247 1_565
F23 Sc5 2.037247 1_555
F23 Sc3 2.037247 1_565
F24 Sc3 2.054140 1_566
F24 Sc0 2.061917 1_555
F25 Sc2 2.054140 1_555
F25 Sc1 2.061917 1_555
F26 Sc1 2.054140 1_554
F26 Sc2 2.061917 1_555
F27 Sc0 2.054140 1_545
F27 Sc3 2.061917 1_555
F28 Sc7 2.054140 1_544
F28 Sc4 2.061917 1_555
F29 Sc6 2.054140 1_555
F29 Sc5 2.061917 1_555
F30 Sc5 2.054140 1_556
F30 Sc6 2.061917 1_555
F31 Sc4 2.054140 1_565
F31 Sc7 2.061917 1_555
