# generated using pymatgen
data_CaZnPd
_symmetry_space_group_name_H-M   'P 1'
_cell_length_a   4.35035818
_cell_length_b   7.14230736
_cell_length_c   7.73506173
_cell_angle_alpha   90.00000000
_cell_angle_beta   90.00000000
_cell_angle_gamma   90.00000000
_symmetry_Int_Tables_number   1
_chemical_formula_structural   CaZnPd
_chemical_formula_sum   'Ca4 Zn4 Pd4'
_cell_volume   240.34070729
_cell_formula_units_Z   4
loop_
 _symmetry_equiv_pos_site_id
 _symmetry_equiv_pos_as_xyz
  1  'x, y, z'
loop_
 _atom_site_type_symbol
 _atom_site_label
 _atom_site_symmetry_multiplicity
 _atom_site_fract_x
 _atom_site_fract_y
 _atom_site_fract_z
 _atom_site_occupancy
  Ca  Ca0  1  0.25000000  0.51131833  0.19228456  1
  Ca  Ca1  1  0.75000000  0.48868167  0.80771544  1
  Ca  Ca2  1  0.75000000  0.98868167  0.69228456  1
  Ca  Ca3  1  0.25000000  0.01131833  0.30771544  1
  Zn  Zn0  1  0.25000000  0.66697840  0.57820536  1
  Zn  Zn1  1  0.75000000  0.33302160  0.42179464  1
  Zn  Zn2  1  0.75000000  0.83302160  0.07820536  1
  Zn  Zn3  1  0.25000000  0.16697840  0.92179464  1
  Pd  Pd0  1  0.25000000  0.79418728  0.89777862  1
  Pd  Pd1  1  0.75000000  0.20581272  0.10222138  1
  Pd  Pd2  1  0.75000000  0.70581272  0.39777862  1
  Pd  Pd3  1  0.25000000  0.29418728  0.60222138  1
loop_
_geom_bond_atom_site_label_1
_geom_bond_atom_site_label_2
_geom_bond_distance
_geom_bond_site_symmetry_2
Ca0 Pd2 3.031114 1_555
Ca0 Pd2 3.031114 1_455
Ca0 Pd0 3.044855 1_554
Ca0 Zn1 3.082966 1_555
Ca0 Zn1 3.082966 1_455
Ca0 Pd1 3.158782 1_555
Ca0 Pd1 3.158782 1_455
Ca0 Zn0 3.185433 1_555
Ca0 Zn3 3.228946 1_554
Ca0 Zn2 3.284736 1_555
Ca0 Zn2 3.284736 1_455
Ca1 Pd3 3.031114 1_555
Ca1 Pd3 3.031114 1_655
Ca1 Pd1 3.044855 1_556
Ca1 Zn0 3.082966 1_555
Ca1 Zn0 3.082966 1_655
Ca1 Pd0 3.158782 1_555
Ca1 Pd0 3.158782 1_655
Ca1 Zn1 3.185433 1_555
Ca1 Zn2 3.228946 1_556
Ca1 Zn3 3.284736 1_555
Ca1 Zn3 3.284736 1_655
Ca2 Pd0 3.031114 1_555
Ca2 Pd0 3.031114 1_655
Ca2 Pd2 3.044855 1_555
Ca2 Zn3 3.082966 1_565
Ca2 Zn3 3.082966 1_665
Ca2 Pd3 3.158782 1_565
Ca2 Pd3 3.158782 1_665
Ca2 Zn2 3.185433 1_556
Ca2 Zn1 3.228946 1_565
Ca2 Zn0 3.284736 1_555
Ca2 Zn0 3.284736 1_655
Ca3 Pd1 3.031114 1_455
Ca3 Pd1 3.031114 1_555
Ca3 Pd3 3.044855 1_555
Ca3 Zn2 3.082966 1_445
Ca3 Zn2 3.082966 1_545
Ca3 Pd2 3.158782 1_445
Ca3 Pd2 3.158782 1_545
Ca3 Zn3 3.185433 1_554
Ca3 Zn0 3.228946 1_545
Ca3 Zn1 3.284736 1_555
Ca3 Zn1 3.284736 1_455
Pd0 Zn2 2.599244 1_556
Pd0 Zn2 2.599244 1_456
Pd0 Zn0 2.633605 1_555
Pd0 Zn3 2.669061 1_565
Pd1 Zn3 2.599244 1_654
Pd1 Zn3 2.599244 1_554
Pd1 Zn1 2.633605 1_555
Pd1 Zn2 2.669061 1_545
Pd2 Zn0 2.599244 1_555
Pd2 Zn0 2.599244 1_655
Pd2 Zn2 2.633605 1_555
Pd2 Zn1 2.669061 1_555
Pd3 Zn1 2.599244 1_555
Pd3 Zn1 2.599244 1_455
Pd3 Zn3 2.633605 1_555
Pd3 Zn0 2.669061 1_555
