# generated using pymatgen
data_Pr5Bi3
_symmetry_space_group_name_H-M   'P 1'
_cell_length_a   6.65475601
_cell_length_b   9.58560239
_cell_length_c   9.58573737
_cell_angle_alpha   119.99929706
_cell_angle_beta   89.99998109
_cell_angle_gamma   90.00001384
_symmetry_Int_Tables_number   1
_chemical_formula_structural   Pr5Bi3
_chemical_formula_sum   'Pr10 Bi6'
_cell_volume   529.55464502
_cell_formula_units_Z   2
loop_
 _symmetry_equiv_pos_site_id
 _symmetry_equiv_pos_as_xyz
  1  'x, y, z'
loop_
 _atom_site_type_symbol
 _atom_site_label
 _atom_site_symmetry_multiplicity
 _atom_site_fract_x
 _atom_site_fract_y
 _atom_site_fract_z
 _atom_site_occupancy
  Pr  Pr0  1  0.50000113  0.33333203  0.66666785  1
  Pr  Pr1  1  0.50000045  0.66666511  0.33333276  1
  Pr  Pr2  1  0.00000113  0.66666387  0.33333402  1
  Pr  Pr3  1  0.00000046  0.33333082  0.66666779  1
  Pr  Pr4  1  0.74999819  0.24971725  0.99999684  1
  Pr  Pr5  1  0.75000055  0.75024314  0.75024455  1
  Pr  Pr6  1  0.75000066  0.00000288  0.24975412  1
  Pr  Pr7  1  0.24999943  0.75028116  0.99999823  1
  Pr  Pr8  1  0.25000100  0.24975650  0.24975456  1
  Pr  Pr9  1  0.25000021  0.00000502  0.75024863  1
  Bi  Bi0  1  0.74999921  0.61431758  -0.00000156  1
  Bi  Bi1  1  0.74999991  0.38566727  0.38567336  1
  Bi  Bi2  1  0.74999986  -0.00000461  0.61432645  1
  Bi  Bi3  1  0.24999908  0.38567848  -0.00000228  1
  Bi  Bi4  1  0.25000046  0.61433240  0.61432816  1
  Bi  Bi5  1  0.25000029  0.00001010  0.38567652  1
loop_
_geom_bond_atom_site_label_1
_geom_bond_atom_site_label_2
_geom_bond_distance
_geom_bond_site_symmetry_2
Pr0 Pr3 3.327374 1_655
Pr0 Pr3 3.327382 1_555
Pr1 Pr2 3.327373 1_555
Pr1 Pr2 3.327383 1_655
Bi0 Pr5 3.247839 1_554
Bi0 Pr6 3.247899 1_565
Bi0 Pr0 3.409672 1_554
Bi0 Pr3 3.409686 1_654
Bi0 Pr1 3.409690 1_555
Bi0 Pr2 3.409715 1_655
Bi0 Pr4 3.494906 1_554
Bi0 Pr7 3.573515 1_554
Bi0 Pr7 3.573517 1_654
Bi1 Pr6 3.247705 1_555
Bi1 Pr4 3.247817 1_554
Bi1 Pr0 3.409674 1_555
Bi1 Pr3 3.409687 1_655
Bi1 Pr2 3.409692 1_655
Bi1 Pr1 3.409704 1_555
Bi1 Pr5 3.494719 1_555
Bi1 Pr8 3.573347 1_555
Bi1 Pr8 3.573360 1_655
Bi2 Pr5 3.247752 1_545
Bi2 Pr4 3.247769 1_555
Bi2 Pr3 3.409683 1_655
Bi2 Pr0 3.409687 1_555
Bi2 Pr1 3.409688 1_545
Bi2 Pr2 3.409696 1_645
Bi2 Pr6 3.494731 1_555
Bi2 Pr9 3.573359 1_555
Bi2 Pr9 3.573364 1_655
Bi3 Pr9 3.247801 1_554
Bi3 Pr8 3.247839 1_555
Bi3 Pr3 3.409653 1_554
Bi3 Pr0 3.409667 1_554
Bi3 Pr2 3.409701 1_555
Bi3 Pr1 3.409709 1_555
Bi3 Pr7 3.494934 1_554
Bi3 Pr4 3.573501 1_554
Bi3 Pr4 3.573511 1_454
Bi4 Pr7 3.247761 1_555
Bi4 Pr9 3.247777 1_565
Bi4 Pr2 3.409654 1_555
Bi4 Pr1 3.409672 1_555
Bi4 Pr0 3.409724 1_555
Bi4 Pr3 3.409731 1_555
Bi4 Pr8 3.494730 1_555
Bi4 Pr5 3.573349 1_455
Bi4 Pr5 3.573350 1_555
Bi5 Pr8 3.247728 1_555
Bi5 Pr7 3.247838 1_544
Bi5 Pr3 3.409632 1_555
Bi5 Pr0 3.409642 1_555
Bi5 Pr1 3.409754 1_545
Bi5 Pr2 3.409764 1_545
Bi5 Pr9 3.494717 1_555
Bi5 Pr6 3.573364 1_455
Bi5 Pr6 3.573368 1_555
