# generated using pymatgen
data_Li3Co2O5
_symmetry_space_group_name_H-M   'P 1'
_cell_length_a   2.90780406
_cell_length_b   2.90780406
_cell_length_c   24.82067303
_cell_angle_alpha   86.76629194
_cell_angle_beta   86.76629194
_cell_angle_gamma   59.37488001
_symmetry_Int_Tables_number   1
_chemical_formula_structural   Li3Co2O5
_chemical_formula_sum   'Li6 Co4 O10'
_cell_volume   180.21324897
_cell_formula_units_Z   2
loop_
 _symmetry_equiv_pos_site_id
 _symmetry_equiv_pos_as_xyz
  1  'x, y, z'
loop_
 _atom_site_type_symbol
 _atom_site_label
 _atom_site_symmetry_multiplicity
 _atom_site_fract_x
 _atom_site_fract_y
 _atom_site_fract_z
 _atom_site_occupancy
  Li  Li0  1  0.69310700  0.69310700  0.90144500  1
  Li  Li1  1  0.30689300  0.30689300  0.09855500  1
  Li  Li2  1  0.90451300  0.90451300  0.30153300  1
  Li  Li3  1  0.50000000  0.50000000  0.50000000  1
  Li  Li4  1  0.09548700  0.09548700  0.69846700  1
  Li  Li5  1  0.00000000  0.00000000  0.00000000  1
  Co  Co0  1  0.40240600  0.40240600  0.79755400  1
  Co  Co1  1  0.59759400  0.59759400  0.20244600  1
  Co  Co2  1  0.20204300  0.20204300  0.39948600  1
  Co  Co3  1  0.79795700  0.79795700  0.60051400  1
  O  O0  1  0.06777700  0.06777700  0.83887400  1
  O  O1  1  0.65128800  0.65128800  0.05352700  1
  O  O2  1  0.26340200  0.26340200  0.24533600  1
  O  O3  1  0.85156100  0.85156100  0.44581900  1
  O  O4  1  0.44610800  0.44610800  0.64772800  1
  O  O5  1  0.34871200  0.34871200  0.94647300  1
  O  O6  1  0.93222300  0.93222300  0.16112600  1
  O  O7  1  0.55389200  0.55389200  0.35227200  1
  O  O8  1  0.14843900  0.14843900  0.55418100  1
  O  O9  1  0.73659800  0.73659800  0.75466400  1
loop_
_geom_bond_atom_site_label_1
_geom_bond_atom_site_label_2
_geom_bond_distance
_geom_bond_site_symmetry_2
Li0 O5 2.006002 1_555
Li0 O5 2.013763 1_655
Li0 O5 2.013763 1_565
Li0 O0 2.239339 1_655
Li0 O0 2.239339 1_565
Li0 O0 2.369256 1_665
Li1 O1 2.006002 1_555
Li1 O1 2.013763 1_545
Li1 O1 2.013763 1_455
Li1 O6 2.239339 1_545
Li1 O6 2.239339 1_455
Li1 O6 2.369256 1_445
Li2 O7 2.086394 1_565
Li2 O7 2.086394 1_655
Li2 O7 2.105770 1_555
Li2 O2 2.158012 1_655
Li2 O2 2.158012 1_565
Li2 O2 2.214688 1_665
Li3 O3 2.139141 1_455
Li3 O3 2.139141 1_545
Li3 O8 2.139141 1_565
Li3 O8 2.139141 1_655
Li3 O3 2.157108 1_555
Li3 O8 2.157108 1_555
Li4 O4 2.086394 1_545
Li4 O4 2.086394 1_455
Li4 O4 2.105770 1_555
Li4 O9 2.158012 1_455
Li4 O9 2.158012 1_545
Li4 O9 2.214688 1_445
Li5 O1 2.134297 1_545
Li5 O1 2.134297 1_455
Li5 O5 2.134297 1_544
Li5 O5 2.134297 1_454
Li5 O1 2.136591 1_445
Li5 O5 2.136591 1_554
Co0 O0 1.919608 1_555
Co0 O9 1.936655 1_555
Co0 O0 1.983728 1_565
Co0 O0 1.983728 1_655
Co0 O9 2.006204 1_545
Co0 O9 2.006204 1_455
Co1 O6 1.919608 1_555
Co1 O2 1.936655 1_555
Co1 O6 1.983728 1_545
Co1 O6 1.983728 1_455
Co1 O2 2.006204 1_655
Co1 O2 2.006204 1_565
Co2 O3 2.019901 1_455
Co2 O3 2.019901 1_545
Co2 O7 2.030143 1_455
Co2 O7 2.030143 1_545
Co2 O3 2.047816 1_445
Co2 O7 2.064643 1_555
Co3 O8 2.019901 1_655
Co3 O8 2.019901 1_565
Co3 O4 2.030143 1_565
Co3 O4 2.030143 1_655
Co3 O8 2.047816 1_665
Co3 O4 2.064643 1_555
