# generated using pymatgen
data_Ta2BiO6F
_symmetry_space_group_name_H-M   'P 1'
_cell_length_a   7.44999950
_cell_length_b   7.44999950
_cell_length_c   7.44999950
_cell_angle_alpha   120.76760084
_cell_angle_beta   118.92930480
_cell_angle_gamma   90.27002712
_symmetry_Int_Tables_number   1
_chemical_formula_structural   Ta2BiO6F
_chemical_formula_sum   'Ta4 Bi2 O12 F2'
_cell_volume   292.95657575
_cell_formula_units_Z   2
loop_
 _symmetry_equiv_pos_site_id
 _symmetry_equiv_pos_as_xyz
  1  'x, y, z'
loop_
 _atom_site_type_symbol
 _atom_site_label
 _atom_site_symmetry_multiplicity
 _atom_site_fract_x
 _atom_site_fract_y
 _atom_site_fract_z
 _atom_site_occupancy
  Ta  Ta0  1  0.00000000  0.00000000  0.00000000  1
  Ta  Ta1  1  0.50000000  0.00000000  0.50000000  1
  Ta  Ta2  1  0.50000000  0.00000000  0.00000000  1
  Ta  Ta3  1  0.50000000  0.50000000  0.50000000  1
  Bi  Bi0  1  0.50000000  0.50000000  0.00000000  1
  Bi  Bi1  1  0.00000000  0.50000000  0.50000000  1
  O  O0  1  0.19731100  0.94731100  0.25000000  1
  O  O1  1  0.57436900  0.32436900  0.25000000  1
  O  O2  1  0.18459600  0.91797300  0.86140400  1
  O  O3  1  0.55657000  0.32319200  0.63859600  1
  O  O4  1  0.55657000  0.91797300  0.23337800  1
  O  O5  1  0.18459600  0.32319200  0.26662200  1
  O  O6  1  0.80268900  0.05268900  0.75000000  1
  O  O7  1  0.42563100  0.67563100  0.75000000  1
  O  O8  1  0.81540400  0.08202700  0.13859600  1
  O  O9  1  0.44343000  0.67680800  0.36140400  1
  O  O10  1  0.44343000  0.08202700  0.76662200  1
  O  O11  1  0.81540400  0.67680800  0.73337800  1
  F  F0  1  0.86660500  0.61660500  0.25000000  1
  F  F1  1  0.13339500  0.38339500  0.75000000  1
loop_
_geom_bond_atom_site_label_1
_geom_bond_atom_site_label_2
_geom_bond_distance
_geom_bond_site_symmetry_2
Bi0 F0 2.254767 1_555
Bi0 F1 2.254767 1_554
Bi0 O4 2.576139 1_555
Bi0 O10 2.576139 1_554
Bi0 O9 2.576145 1_555
Bi0 O3 2.576145 1_554
Bi0 O7 2.643810 1_554
Bi0 O1 2.643810 1_555
Bi1 F0 2.254767 1_455
Bi1 F1 2.254767 1_555
Bi1 O2 2.576140 1_555
Bi1 O8 2.576140 1_455
Bi1 O5 2.576145 1_555
Bi1 O11 2.576145 1_455
Bi1 O7 2.643810 1_555
Bi1 O1 2.643810 1_455
O0 Ta1 1.971927 1_565
O0 Ta0 1.971927 1_565
O1 Ta2 1.999943 1_555
O1 Ta3 1.999943 1_555
O2 Ta2 1.988612 1_566
O2 Ta0 2.016681 1_566
O3 Ta3 1.988611 1_555
O3 Ta1 2.016681 1_555
O4 Ta2 1.988617 1_565
O4 Ta1 2.016680 1_565
O5 Ta3 1.988611 1_555
O5 Ta0 2.016681 1_555
O6 Ta0 1.971927 1_656
O6 Ta1 1.971927 1_555
O7 Ta2 1.999943 1_566
O7 Ta3 1.999943 1_555
O8 Ta2 1.988612 1_555
O8 Ta0 2.016681 1_655
O9 Ta3 1.988611 1_555
O9 Ta1 2.016681 1_565
O10 Ta2 1.988617 1_556
O10 Ta1 2.016680 1_555
O11 Ta3 1.988611 1_555
O11 Ta0 2.016681 1_666
