# generated using pymatgen
data_Sn3Ge
_symmetry_space_group_name_H-M   'P 1'
_cell_length_a   5.86820226
_cell_length_b   5.86820226
_cell_length_c   5.86820226
_cell_angle_alpha   133.83032605
_cell_angle_beta   133.83032605
_cell_angle_gamma   67.35314360
_symmetry_Int_Tables_number   1
_chemical_formula_structural   Sn3Ge
_chemical_formula_sum   'Sn3 Ge1'
_cell_volume   103.41240764
_cell_formula_units_Z   1
loop_
 _symmetry_equiv_pos_site_id
 _symmetry_equiv_pos_as_xyz
  1  'x, y, z'
loop_
 _atom_site_type_symbol
 _atom_site_label
 _atom_site_symmetry_multiplicity
 _atom_site_fract_x
 _atom_site_fract_y
 _atom_site_fract_z
 _atom_site_occupancy
  Sn  Sn0  1  0.75000000  0.25000000  0.50000000  1
  Sn  Sn1  1  0.25000000  0.75000000  0.50000000  1
  Sn  Sn2  1  0.50000000  0.50000000  0.00000000  1
  Ge  Ge0  1  0.00000000  0.00000000  0.00000000  1
loop_
_geom_bond_atom_site_label_1
_geom_bond_atom_site_label_2
_geom_bond_distance
_geom_bond_site_symmetry_2
Sn0 Sn1 3.253943 1_656
Sn0 Sn1 3.253943 1_544
Sn0 Sn1 3.253943 1_645
Sn0 Sn1 3.253943 1_555
Sn0 Sn2 3.354994 1_555
Sn0 Sn2 3.354994 1_656
Sn0 Sn2 3.354994 1_545
Sn0 Sn2 3.354994 1_556
Sn1 Sn2 3.354994 1_455
Sn1 Sn2 3.354994 1_555
Sn1 Sn2 3.354994 1_566
Sn1 Sn2 3.354994 1_556
Ge0 Sn2 3.253943 1_556
Ge0 Sn2 3.253943 1_444
Ge0 Sn2 3.253943 1_455
Ge0 Sn2 3.253943 1_545
Ge0 Sn0 3.354994 1_455
Ge0 Sn0 3.354994 1_454
Ge0 Sn0 3.354994 1_444
Ge0 Sn0 3.354994 1_555
Ge0 Sn1 3.354994 1_544
Ge0 Sn1 3.354994 1_545
Ge0 Sn1 3.354994 1_444
Ge0 Sn1 3.354994 1_555
