# generated using pymatgen
data_CoPH6NO5
_symmetry_space_group_name_H-M   'P 1'
_cell_length_a   5.67590000
_cell_length_b   8.94165216
_cell_length_c   9.61428630
_cell_angle_alpha   89.97497721
_cell_angle_beta   89.99767042
_cell_angle_gamma   90.00184542
_symmetry_Int_Tables_number   1
_chemical_formula_structural   CoPH6NO5
_chemical_formula_sum   'Co4 P4 H24 N4 O20'
_cell_volume   487.94347568
_cell_formula_units_Z   4
loop_
 _symmetry_equiv_pos_site_id
 _symmetry_equiv_pos_as_xyz
  1  'x, y, z'
loop_
 _atom_site_type_symbol
 _atom_site_label
 _atom_site_symmetry_multiplicity
 _atom_site_fract_x
 _atom_site_fract_y
 _atom_site_fract_z
 _atom_site_occupancy
  Co  Co0  1  0.49997900  0.02029400  0.76449400  1
  Co  Co1  1  0.99999900  0.97573000  0.51067600  1
  Co  Co2  1  0.49999300  0.02474200  0.25982200  1
  Co  Co3  1  0.00001100  0.97955800  0.01348100  1
  P  P0  1  0.49998500  0.80638900  0.04542500  1
  P  P1  1  0.50002800  0.80912900  0.54557900  1
  P  P2  1  0.99996800  0.19194300  0.29580100  1
  P  P3  1  0.99995700  0.19246600  0.79537400  1
  H  H0  1  0.50000000  0.54289000  0.41651300  1
  H  H1  1  0.50003200  0.54141200  0.91580600  1
  H  H2  1  0.99995600  0.45776900  0.16576500  1
  H  H3  1  0.00008500  0.45826600  0.66663400  1
  H  H4  1  0.49997600  0.54650700  0.23656900  1
  H  H5  1  0.50008900  0.54711400  0.73618200  1
  H  H6  1  0.99999900  0.45307300  0.48691300  1
  H  H7  1  0.00002500  0.45342800  0.98603500  1
  H  H8  1  0.65036800  0.41152200  0.32342400  1
  H  H9  1  0.65016400  0.41095400  0.82162100  1
  H  H10  1  0.34961200  0.41151700  0.32344100  1
  H  H11  1  0.34961800  0.41110300  0.82159600  1
  H  H12  1  0.84975500  0.58881900  0.07230400  1
  H  H13  1  0.84960200  0.58889200  0.57255100  1
  H  H14  1  0.15027200  0.58879400  0.07232500  1
  H  H15  1  0.15039000  0.58892500  0.57250900  1
  H  H16  1  0.63851200  0.18798600  0.04634600  1
  H  H17  1  0.63857200  0.18690000  0.55201700  1
  H  H18  1  0.36144800  0.18800300  0.04645500  1
  H  H19  1  0.36135600  0.18688700  0.55194700  1
  H  H20  1  0.86132600  0.81273400  0.29757600  1
  H  H21  1  0.86169400  0.81225000  0.80069300  1
  H  H22  1  0.13865800  0.81278200  0.29750200  1
  H  H23  1  0.13862600  0.81221600  0.80081000  1
  N  N0  1  0.49999100  0.47715300  0.32516700  1
  N  N1  1  0.49999700  0.47671300  0.82399300  1
  N  N2  1  0.99999000  0.52309700  0.07434400  1
  N  N3  1  0.00001200  0.52328100  0.57479300  1
  O  O0  1  0.50008900  0.83775600  0.38866500  1
  O  O1  1  0.49999500  0.83335200  0.88810000  1
  O  O2  1  0.99994500  0.16514000  0.13838100  1
  O  O3  1  0.99989700  0.16390800  0.63863000  1
  O  O4  1  0.49990000  0.63484900  0.07347400  1
  O  O5  1  0.50001600  0.63726200  0.57289600  1
  O  O6  1  0.99999100  0.36341100  0.32378300  1
  O  O7  1  0.00039600  0.36428200  0.82296600  1
  O  O8  1  0.50003400  0.20097800  0.10745100  1
  O  O9  1  0.49991400  0.20187400  0.61234700  1
  O  O10  1  0.00003800  0.79906200  0.35830600  1
  O  O11  1  0.00007700  0.79797200  0.86142800  1
  O  O12  1  0.71871000  0.88149700  0.11819000  1
  O  O13  1  0.71888900  0.88364700  0.61933800  1
  O  O14  1  0.28141300  0.88160000  0.11827700  1
  O  O15  1  0.28114700  0.88365700  0.61930200  1
  O  O16  1  0.78105200  0.11687900  0.36883400  1
  O  O17  1  0.78134100  0.11760400  0.86899000  1
  O  O18  1  0.21886500  0.11686800  0.36883300  1
  O  O19  1  0.21825100  0.11716600  0.86895000  1
loop_
_geom_bond_atom_site_label_1
_geom_bond_atom_site_label_2
_geom_bond_distance
_geom_bond_site_symmetry_2
Co0 O1 2.050529 1_545
Co0 O19 2.077634 1_555
Co0 O17 2.077880 1_555
Co0 O9 2.184908 1_555
Co0 O15 2.232835 1_545
Co0 O13 2.232894 1_545
Co1 O13 2.077059 1_555
Co1 O15 2.077121 1_655
Co1 O3 2.084798 1_565
Co1 O10 2.154879 1_655
Co1 O18 2.234695 1_665
Co1 O16 2.235107 1_565
Co2 O16 2.079150 1_555
Co2 O18 2.079382 1_555
Co2 O0 2.080412 1_545
Co2 O8 2.151117 1_555
Co2 O14 2.242961 1_545
Co2 O12 2.244409 1_545
Co3 O2 2.048746 1_465
Co3 O12 2.080993 1_455
Co3 O14 2.081556 1_555
Co3 O11 2.185292 1_554
Co3 O19 2.231040 1_564
Co3 O17 2.234424 1_464
H0 N0 1.056995 1_555
H1 N1 1.055611 1_555
H2 N2 1.055140 1_555
H3 N3 1.056964 1_555
H4 N0 1.053416 1_555
H5 N1 1.052877 1_555
H6 N3 1.052819 1_655
H7 N2 1.053273 1_456
H8 N0 1.035962 1_555
H9 N1 1.035747 1_555
H10 N0 1.035964 1_555
H11 N1 1.035958 1_555
H12 N2 1.035802 1_555
H13 N3 1.036096 1_655
H14 N2 1.035859 1_455
H15 N3 1.036089 1_555
H16 O8 0.988146 1_555
H17 O9 0.986804 1_555
H18 O8 0.988026 1_555
H19 O9 0.986794 1_555
H20 O10 0.987777 1_655
H21 O11 0.987002 1_655
H22 O10 0.987790 1_555
H23 O11 0.987004 1_555
O0 P1 1.530068 1_555
O1 P0 1.531558 1_556
O2 P2 1.532442 1_555
O3 P3 1.528573 1_555
O4 P0 1.557261 1_555
O5 P1 1.558942 1_555
O6 P2 1.556747 1_555
O7 P3 1.559170 1_455
O12 P0 1.575469 1_555
O13 P1 1.578109 1_555
O14 P0 1.575539 1_555
O15 P1 1.578069 1_555
O16 P2 1.576996 1_555
O17 P3 1.577392 1_555
O18 P2 1.577027 1_455
O19 P3 1.577528 1_455
