# generated using pymatgen
data_Ba2LiV2(Si2O7)2
_symmetry_space_group_name_H-M   'P 1'
_cell_length_a   5.56454458
_cell_length_b   7.21077929
_cell_length_c   8.41545269
_cell_angle_alpha   88.26122051
_cell_angle_beta   113.18876814
_cell_angle_gamma   94.08940086
_symmetry_Int_Tables_number   1
_chemical_formula_structural   Ba2LiV2(Si2O7)2
_chemical_formula_sum   'Ba2 Li1 V2 Si4 O14'
_cell_volume   309.59704417
_cell_formula_units_Z   1
loop_
 _symmetry_equiv_pos_site_id
 _symmetry_equiv_pos_as_xyz
  1  'x, y, z'
loop_
 _atom_site_type_symbol
 _atom_site_label
 _atom_site_symmetry_multiplicity
 _atom_site_fract_x
 _atom_site_fract_y
 _atom_site_fract_z
 _atom_site_occupancy
  Ba  Ba0  1  0.78476600  0.75943800  0.61191100  1
  Ba  Ba1  1  0.23565300  0.24996600  0.41004400  1
  Li  Li0  1  0.14658800  0.78558200  0.42775300  1
  V  V0  1  0.16816800  0.69875300  0.14641300  1
  V  V1  1  0.90529000  0.25731300  0.80115900  1
  Si  Si0  1  0.39234700  0.52673500  0.79008600  1
  Si  Si1  1  0.65685100  0.47526600  0.20572600  1
  Si  Si2  1  0.40995300  0.97479100  0.81330700  1
  Si  Si3  1  0.61770700  0.01662000  0.22526700  1
  O  O0  1  0.08971500  0.43967000  0.69976200  1
  O  O1  1  0.48273900  0.55352200  0.30191400  1
  O  O2  1  0.13172400  0.07088600  0.74679800  1
  O  O3  1  0.38018500  0.93392400  0.28458400  1
  O  O4  1  0.50941200  0.51637700  0.99932200  1
  O  O5  1  0.54888500  0.96111100  0.02342600  1
  O  O6  1  0.98644600  0.73520700  0.93308700  1
  O  O7  1  0.02258300  0.27580100  0.01249200  1
  O  O8  1  0.35389600  0.75496100  0.72349000  1
  O  O9  1  0.65429500  0.24807800  0.24544200  1
  O  O10  1  0.58462100  0.43847400  0.71142500  1
  O  O11  1  0.96217900  0.56168600  0.28300500  1
  O  O12  1  0.60581900  0.06575500  0.72336700  1
  O  O13  1  0.89617800  0.95008500  0.35678100  1
loop_
_geom_bond_atom_site_label_1
_geom_bond_atom_site_label_2
_geom_bond_distance
_geom_bond_site_symmetry_2
Ba0 O6 2.491158 1_555
Ba0 O10 2.747254 1_555
Ba0 O13 2.762520 1_555
Ba0 O2 2.805339 1_665
Ba0 O12 2.815131 1_565
Ba0 O0 2.865185 1_655
Ba0 O1 2.874234 1_555
Ba0 O8 2.896772 1_555
Ba0 O8 2.929705 1_655
Ba0 O3 3.090166 1_555
Ba1 O13 2.693437 1_445
Ba1 O11 2.751702 1_455
Ba1 O1 2.818652 1_555
Ba1 O10 2.829349 1_555
Ba1 O3 2.833921 1_545
Ba1 O9 2.974899 1_455
Ba1 O12 2.976601 1_555
Ba1 O7 3.082726 1_555
Ba1 O9 3.145267 1_555
Ba1 O0 3.224144 1_555
Ba1 O2 3.315904 1_555
Li0 O13 1.800760 1_455
Li0 O11 2.010466 1_455
Li0 O3 2.289600 1_555
Li0 O8 2.305524 1_555
O0 Si0 1.636433 1_555
O0 V1 1.984798 1_455
O1 Si1 1.623467 1_555
O1 V0 2.060959 1_555
O2 Si2 1.624018 1_545
O2 V1 2.082505 1_455
O3 Si3 1.655525 1_565
O3 V0 2.091296 1_555
O4 Si0 1.620507 1_555
O4 Si1 1.630722 1_556
O5 Si2 1.630286 1_554
O5 Si3 1.642916 1_565
O6 V0 1.701217 1_656
O7 V1 1.641505 1_454
O8 Si0 1.722780 1_555
O8 Si2 1.731418 1_555
O9 Si1 1.662171 1_555
O9 Si3 1.672520 1_555
O10 Si0 1.633529 1_555
O10 V1 2.161511 1_555
O11 Si1 1.643573 1_555
O11 V0 2.102171 1_655
O12 Si2 1.645772 1_545
O12 V1 1.995223 1_555
O13 Si3 1.606065 1_565
