# generated using pymatgen
data_CaCr4(PO4)4
_symmetry_space_group_name_H-M   'P 1'
_cell_length_a   9.42253303
_cell_length_b   5.64988679
_cell_length_c   6.46114547
_cell_angle_alpha   100.96598441
_cell_angle_beta   104.00251906
_cell_angle_gamma   81.24303481
_symmetry_Int_Tables_number   1
_chemical_formula_structural   CaCr4(PO4)4
_chemical_formula_sum   'Ca1 Cr4 P4 O16'
_cell_volume   325.60880377
_cell_formula_units_Z   1
loop_
 _symmetry_equiv_pos_site_id
 _symmetry_equiv_pos_as_xyz
  1  'x, y, z'
loop_
 _atom_site_type_symbol
 _atom_site_label
 _atom_site_symmetry_multiplicity
 _atom_site_fract_x
 _atom_site_fract_y
 _atom_site_fract_z
 _atom_site_occupancy
  Ca  Ca0  1  0.32240700  0.94112200  0.06548200  1
  Cr  Cr0  1  0.07150700  0.30838500  0.33958700  1
  Cr  Cr1  1  0.28986400  0.86257400  0.55013000  1
  Cr  Cr2  1  0.70834800  0.13401600  0.44137400  1
  Cr  Cr3  1  0.91496600  0.69210500  0.66616600  1
  P  P0  1  0.03638700  0.19253200  0.78703000  1
  P  P1  1  0.40656800  0.30190000  0.64921900  1
  P  P2  1  0.59507400  0.69650200  0.35413600  1
  P  P3  1  0.96270200  0.80654600  0.21306500  1
  O  O0  1  0.07138400  0.38477400  0.66849800  1
  O  O1  1  0.12603800  0.94142400  0.71455900  1
  O  O2  1  0.10256600  0.24489900  0.03168800  1
  O  O3  1  0.13554800  0.81661300  0.26665500  1
  O  O4  1  0.29754800  0.17995300  0.43313200  1
  O  O5  1  0.39897300  0.11664400  0.79872300  1
  O  O6  1  0.34490500  0.56774000  0.72178500  1
  O  O7  1  0.43099500  0.70681900  0.36905300  1
  O  O8  1  0.55800900  0.29308100  0.60551100  1
  O  O9  1  0.65710400  0.43518000  0.28974900  1
  O  O10  1  0.58612500  0.88566300  0.19876300  1
  O  O11  1  0.69647700  0.82593000  0.56293800  1
  O  O12  1  0.87037500  0.17323300  0.72739600  1
  O  O13  1  0.91015700  0.72597800  0.97490700  1
  O  O14  1  0.88689000  0.05902400  0.29818400  1
  O  O15  1  0.93158400  0.62403000  0.34518500  1
loop_
_geom_bond_atom_site_label_1
_geom_bond_atom_site_label_2
_geom_bond_distance
_geom_bond_site_symmetry_2
Ca0 O10 2.417537 1_555
Ca0 O5 2.438129 1_564
Ca0 O2 2.474972 1_565
Ca0 O7 2.500138 1_555
Ca0 O4 2.543997 1_565
Ca0 O1 2.556329 1_554
Ca0 O3 2.667746 1_555
Ca0 O6 2.781360 1_554
Cr0 O2 2.037214 1_555
Cr0 O15 2.050012 1_455
Cr0 O0 2.086766 1_555
Cr0 O4 2.121681 1_555
Cr0 O14 2.336701 1_455
Cr1 O7 1.979016 1_555
Cr1 O1 2.028351 1_555
Cr1 O3 2.044888 1_555
Cr1 O4 2.091369 1_565
Cr1 O6 2.106025 1_555
Cr1 O5 2.114341 1_565
Cr2 O8 1.978838 1_555
Cr2 O9 2.059918 1_555
Cr2 O14 2.062204 1_555
Cr2 O11 2.069117 1_545
Cr2 O12 2.092127 1_555
Cr2 O10 2.129313 1_545
Cr3 O13 1.978344 1_555
Cr3 O11 2.075638 1_555
Cr3 O15 2.075782 1_555
Cr3 O0 2.099399 1_655
Cr3 O1 2.534160 1_655
Cr3 O12 2.654400 1_565
O0 P0 1.556511 1_555
O1 P0 1.587262 1_565
O2 P0 1.541569 1_554
O3 P3 1.588531 1_455
O4 P1 1.623175 1_555
O5 P1 1.573106 1_555
O6 P1 1.552904 1_555
O7 P2 1.563796 1_555
O8 P1 1.512102 1_555
O9 P2 1.521771 1_555
O10 P2 1.580153 1_555
O11 P2 1.575229 1_555
O12 P0 1.533466 1_655
O13 P3 1.501204 1_556
O14 P3 1.558509 1_545
O15 P3 1.557607 1_555
