# generated using pymatgen
data_TaTe4Os
_symmetry_space_group_name_H-M   'P 1'
_cell_length_a   3.77312200
_cell_length_b   12.56837600
_cell_length_c   13.75701200
_cell_angle_alpha   90.00000000
_cell_angle_beta   90.00000000
_cell_angle_gamma   90.00000000
_symmetry_Int_Tables_number   1
_chemical_formula_structural   TaTe4Os
_chemical_formula_sum   'Ta4 Te16 Os4'
_cell_volume   652.38524304
_cell_formula_units_Z   4
loop_
 _symmetry_equiv_pos_site_id
 _symmetry_equiv_pos_as_xyz
  1  'x, y, z'
loop_
 _atom_site_type_symbol
 _atom_site_label
 _atom_site_symmetry_multiplicity
 _atom_site_fract_x
 _atom_site_fract_y
 _atom_site_fract_z
 _atom_site_occupancy
  Ta  Ta0  1  0.50000000  0.94043900  0.50591700  1
  Ta  Ta1  1  0.00000000  0.05956100  0.00591700  1
  Ta  Ta2  1  0.50000000  0.72393100  0.98950900  1
  Ta  Ta3  1  0.00000000  0.27606900  0.48950900  1
  Te  Te0  1  0.50000000  0.93443600  0.89632500  1
  Te  Te1  1  0.00000000  0.06556400  0.39632500  1
  Te  Te2  1  0.50000000  0.80326900  0.35404700  1
  Te  Te3  1  0.00000000  0.19673100  0.85404700  1
  Te  Te4  1  0.50000000  0.65258700  0.59071200  1
  Te  Te5  1  0.00000000  0.34741300  0.09071200  1
  Te  Te6  1  0.50000000  0.58335500  0.13774000  1
  Te  Te7  1  0.00000000  0.41664500  0.63774000  1
  Te  Te8  1  0.50000000  0.43510100  0.90037800  1
  Te  Te9  1  0.00000000  0.56489900  0.40037800  1
  Te  Te10  1  0.50000000  0.32361400  0.34805800  1
  Te  Te11  1  0.00000000  0.67638600  0.84805800  1
  Te  Te12  1  0.50000000  0.15099900  0.60195100  1
  Te  Te13  1  0.00000000  0.84900100  0.10195100  1
  Te  Te14  1  0.50000000  0.10754400  0.14714700  1
  Te  Te15  1  0.00000000  0.89245600  0.64714700  1
  Os  Os0  1  0.50000000  0.45413700  0.50313700  1
  Os  Os1  1  0.00000000  0.54586300  0.00313700  1
  Os  Os2  1  0.50000000  0.23608400  0.98908000  1
  Os  Os3  1  0.00000000  0.76391600  0.48908000  1
loop_
_geom_bond_atom_site_label_1
_geom_bond_atom_site_label_2
_geom_bond_distance
_geom_bond_site_symmetry_2
Ta0 Te2 2.708740 1_555
Ta0 Te15 2.774468 1_555
Ta0 Te15 2.774468 1_655
Ta0 Te1 2.881887 1_665
Ta0 Te1 2.881887 1_565
Ta0 Te12 2.957842 1_565
Ta1 Te3 2.708740 1_554
Ta1 Te14 2.774468 1_455
Ta1 Te14 2.774468 1_555
Ta1 Te0 2.881887 1_444
Ta1 Te0 2.881887 1_544
Ta1 Te13 2.957842 1_545
Ta2 Te6 2.698152 1_556
Ta2 Te11 2.775408 1_555
Ta2 Te11 2.775408 1_655
Ta2 Te13 2.902216 1_656
Ta2 Te13 2.902216 1_556
Ta2 Te0 2.939917 1_555
Ta3 Te7 2.698152 1_555
Ta3 Te10 2.775408 1_555
Ta3 Te10 2.775408 1_455
Ta3 Te12 2.902216 1_455
Ta3 Te12 2.902216 1_555
Ta3 Te1 2.939917 1_555
Os0 Te7 2.685159 1_655
Os0 Te7 2.685159 1_555
Os0 Te10 2.691210 1_555
Os0 Te9 2.737787 1_555
Os0 Te9 2.737787 1_655
Os0 Te4 2.769924 1_555
Os0 Ta3 2.933090 1_555
Os0 Ta3 2.933090 1_655
Os1 Te6 2.685159 1_555
Os1 Te6 2.685159 1_455
Os1 Te11 2.691210 1_554
Os1 Te8 2.737787 1_454
Os1 Te8 2.737787 1_554
Os1 Te5 2.769924 1_555
Os1 Ta2 2.933090 1_554
Os1 Ta2 2.933090 1_454
Os2 Te3 2.693438 1_555
Os2 Te3 2.693438 1_655
Os2 Te14 2.708975 1_556
Os2 Te5 2.733454 1_556
Os2 Te5 2.733454 1_656
Os2 Te8 2.783105 1_555
Os2 Ta1 2.921469 1_656
Os2 Ta1 2.921469 1_556
Os3 Te2 2.693438 1_555
Os3 Te2 2.693438 1_455
Os3 Te15 2.708975 1_555
Os3 Te4 2.733454 1_455
Os3 Te4 2.733454 1_555
Os3 Te9 2.783105 1_555
Os3 Ta0 2.921469 1_455
Os3 Ta0 2.921469 1_555
