# generated using pymatgen
data_Na4SeS
_symmetry_space_group_name_H-M   'P 1'
_cell_length_a   4.69253300
_cell_length_b   4.69253300
_cell_length_c   6.65050700
_cell_angle_alpha   90.00000000
_cell_angle_beta   90.00000000
_cell_angle_gamma   90.00000000
_symmetry_Int_Tables_number   1
_chemical_formula_structural   Na4SeS
_chemical_formula_sum   'Na4 Se1 S1'
_cell_volume   146.44327268
_cell_formula_units_Z   1
loop_
 _symmetry_equiv_pos_site_id
 _symmetry_equiv_pos_as_xyz
  1  'x, y, z'
loop_
 _atom_site_type_symbol
 _atom_site_label
 _atom_site_symmetry_multiplicity
 _atom_site_fract_x
 _atom_site_fract_y
 _atom_site_fract_z
 _atom_site_occupancy
  Na  Na0  1  0.50000000  0.00000000  0.75658000  1
  Na  Na1  1  0.00000000  0.50000000  0.24342000  1
  Na  Na2  1  0.50000000  0.00000000  0.24342000  1
  Na  Na3  1  0.00000000  0.50000000  0.75658000  1
  Se  Se0  1  0.50000000  0.50000000  0.50000000  1
  S  S0  1  0.00000000  0.00000000  0.00000000  1
loop_
_geom_bond_atom_site_label_1
_geom_bond_atom_site_label_2
_geom_bond_distance
_geom_bond_site_symmetry_2
Na0 S0 2.850560 1_656
Na0 S0 2.850560 1_556
Na0 Se0 2.901159 1_545
Na0 Se0 2.901159 1_555
Na1 S0 2.850560 1_555
Na1 S0 2.850560 1_565
Na1 Se0 2.901159 1_555
Na1 Se0 2.901159 1_455
Na2 S0 2.850560 1_655
Na2 S0 2.850560 1_555
Na2 Se0 2.901159 1_555
Na2 Se0 2.901159 1_545
Na3 S0 2.850560 1_566
Na3 S0 2.850560 1_556
Na3 Se0 2.901159 1_555
Na3 Se0 2.901159 1_455
