# generated using pymatgen
data_PrPd3S4
_symmetry_space_group_name_H-M   'P 1'
_cell_length_a   6.75095250
_cell_length_b   6.75095250
_cell_length_c   6.75095250
_cell_angle_alpha   90.00000000
_cell_angle_beta   90.00000000
_cell_angle_gamma   90.00000000
_symmetry_Int_Tables_number   1
_chemical_formula_structural   PrPd3S4
_chemical_formula_sum   'Pr2 Pd6 S8'
_cell_volume   307.67708822
_cell_formula_units_Z   2
loop_
 _symmetry_equiv_pos_site_id
 _symmetry_equiv_pos_as_xyz
  1  'x, y, z'
loop_
 _atom_site_type_symbol
 _atom_site_label
 _atom_site_symmetry_multiplicity
 _atom_site_fract_x
 _atom_site_fract_y
 _atom_site_fract_z
 _atom_site_occupancy
  Pr  Pr0  1  0.50000000  0.50000000  0.50000000  1
  Pr  Pr1  1  -0.00000000  0.00000000  -0.00000000  1
  Pd  Pd0  1  0.50000000  0.00000000  0.75000000  1
  Pd  Pd1  1  -0.00000000  0.25000000  0.50000000  1
  Pd  Pd2  1  0.75000000  0.50000000  -0.00000000  1
  Pd  Pd3  1  0.50000000  0.00000000  0.25000000  1
  Pd  Pd4  1  -0.00000000  0.75000000  0.50000000  1
  Pd  Pd5  1  0.25000000  0.50000000  -0.00000000  1
  S  S0  1  0.75000000  0.25000000  0.75000000  1
  S  S1  1  0.25000000  0.75000000  0.25000000  1
  S  S2  1  0.75000000  0.75000000  0.25000000  1
  S  S3  1  0.25000000  0.25000000  0.75000000  1
  S  S4  1  0.25000000  0.75000000  0.75000000  1
  S  S5  1  0.75000000  0.25000000  0.25000000  1
  S  S6  1  0.25000000  0.25000000  0.25000000  1
  S  S7  1  0.75000000  0.75000000  0.75000000  1
loop_
_geom_bond_atom_site_label_1
_geom_bond_atom_site_label_2
_geom_bond_distance
_geom_bond_site_symmetry_2
Pr0 S1 2.923248 1_555
Pr0 S0 2.923248 1_555
Pr0 S6 2.923248 1_555
Pr0 S3 2.923248 1_555
Pr0 S4 2.923248 1_555
Pr0 S7 2.923248 1_555
Pr0 S5 2.923248 1_555
Pr0 S2 2.923248 1_555
Pr1 S1 2.923248 1_545
Pr1 S7 2.923248 1_444
Pr1 S2 2.923248 1_445
Pr1 S0 2.923248 1_454
Pr1 S6 2.923248 1_555
Pr1 S3 2.923248 1_554
Pr1 S5 2.923248 1_455
Pr1 S4 2.923248 1_544
Pd0 S0 2.386822 1_555
Pd0 S3 2.386822 1_555
Pd0 S7 2.386822 1_545
Pd0 S4 2.386822 1_545
Pd1 S6 2.386822 1_555
Pd1 S5 2.386822 1_455
Pd1 S0 2.386822 1_455
Pd1 S3 2.386822 1_555
Pd2 S0 2.386822 1_554
Pd2 S5 2.386822 1_555
Pd2 S7 2.386822 1_554
Pd2 S2 2.386822 1_555
Pd3 S1 2.386822 1_545
Pd3 S6 2.386822 1_555
Pd3 S5 2.386822 1_555
Pd3 S2 2.386822 1_545
Pd4 S7 2.386822 1_455
Pd4 S1 2.386822 1_555
Pd4 S4 2.386822 1_555
Pd4 S2 2.386822 1_455
Pd5 S1 2.386822 1_555
Pd5 S6 2.386822 1_555
Pd5 S3 2.386822 1_554
Pd5 S4 2.386822 1_554
