# generated using pymatgen
data_HoBi3
_symmetry_space_group_name_H-M   'P 1'
_cell_length_a   6.42567979
_cell_length_b   6.42567979
_cell_length_c   6.42567979
_cell_angle_alpha   137.33275219
_cell_angle_beta   137.33275219
_cell_angle_gamma   61.92647198
_symmetry_Int_Tables_number   1
_chemical_formula_structural   HoBi3
_chemical_formula_sum   'Ho1 Bi3'
_cell_volume   120.43995604
_cell_formula_units_Z   1
loop_
 _symmetry_equiv_pos_site_id
 _symmetry_equiv_pos_as_xyz
  1  'x, y, z'
loop_
 _atom_site_type_symbol
 _atom_site_label
 _atom_site_symmetry_multiplicity
 _atom_site_fract_x
 _atom_site_fract_y
 _atom_site_fract_z
 _atom_site_occupancy
  Ho  Ho0  1  0.00000000  0.00000000  0.00000000  1
  Bi  Bi0  1  0.75000000  0.25000000  0.50000000  1
  Bi  Bi1  1  0.25000000  0.75000000  0.50000000  1
  Bi  Bi2  1  0.50000000  0.50000000  0.00000000  1
loop_
_geom_bond_atom_site_label_1
_geom_bond_atom_site_label_2
_geom_bond_distance
_geom_bond_site_symmetry_2
Bi0 Bi1 3.305935 1_544
Bi0 Bi1 3.305935 1_555
Bi0 Bi1 3.305935 1_656
Bi0 Bi1 3.305935 1_645
Bi0 Bi2 3.613121 1_656
Bi0 Ho0 3.613121 1_555
Bi0 Bi2 3.613121 1_555
Bi0 Bi2 3.613121 1_545
Bi0 Ho0 3.613121 1_655
Bi0 Ho0 3.613121 1_656
Bi0 Bi2 3.613121 1_556
Bi0 Ho0 3.613121 1_666
Bi1 Ho0 3.613121 1_555
Bi1 Bi2 3.613121 1_455
Bi1 Bi2 3.613121 1_555
Bi1 Bi2 3.613121 1_566
Bi1 Ho0 3.613121 1_565
Bi1 Ho0 3.613121 1_566
Bi1 Bi2 3.613121 1_556
Bi1 Ho0 3.613121 1_666
Bi2 Ho0 3.305935 1_655
Bi2 Ho0 3.305935 1_565
Bi2 Ho0 3.305935 1_666
Bi2 Ho0 3.305935 1_554
