# generated using pymatgen
data_Cs2HoCl5
_symmetry_space_group_name_H-M   'P 1'
_cell_length_a   7.46882168
_cell_length_b   9.53086750
_cell_length_c   15.29706475
_cell_angle_alpha   90.00000000
_cell_angle_beta   90.00000000
_cell_angle_gamma   90.00000000
_symmetry_Int_Tables_number   1
_chemical_formula_structural   Cs2HoCl5
_chemical_formula_sum   'Cs8 Ho4 Cl20'
_cell_volume   1088.91160828
_cell_formula_units_Z   4
loop_
 _symmetry_equiv_pos_site_id
 _symmetry_equiv_pos_as_xyz
  1  'x, y, z'
loop_
 _atom_site_type_symbol
 _atom_site_label
 _atom_site_symmetry_multiplicity
 _atom_site_fract_x
 _atom_site_fract_y
 _atom_site_fract_z
 _atom_site_occupancy
  Cs  Cs0  1  0.25000000  0.66602678  0.91637549  1
  Cs  Cs1  1  0.75000000  0.33397322  0.08362451  1
  Cs  Cs2  1  0.75000000  0.83397322  0.41637549  1
  Cs  Cs3  1  0.25000000  0.16602678  0.58362451  1
  Cs  Cs4  1  0.25000000  0.97334604  0.21086473  1
  Cs  Cs5  1  0.75000000  0.02665396  0.78913527  1
  Cs  Cs6  1  0.75000000  0.52665396  0.71086473  1
  Cs  Cs7  1  0.25000000  0.47334604  0.28913527  1
  Ho  Ho0  1  0.25000000  0.67957027  0.56573245  1
  Ho  Ho1  1  0.75000000  0.32042973  0.43426755  1
  Ho  Ho2  1  0.75000000  0.82042973  0.06573245  1
  Ho  Ho3  1  0.25000000  0.17957027  0.93426755  1
  Cl  Cl0  1  0.25000000  0.51867435  0.70101733  1
  Cl  Cl1  1  0.75000000  0.48132565  0.29898267  1
  Cl  Cl2  1  0.75000000  0.98132565  0.20101733  1
  Cl  Cl3  1  0.25000000  0.01867435  0.79898267  1
  Cl  Cl4  1  0.50457301  0.83593879  0.61904762  1
  Cl  Cl5  1  0.49542699  0.16406121  0.38095238  1
  Cl  Cl6  1  0.49542699  0.66406121  0.11904762  1
  Cl  Cl7  1  0.00457301  0.16406121  0.38095238  1
  Cl  Cl8  1  0.50457301  0.33593879  0.88095238  1
  Cl  Cl9  1  0.99542699  0.83593879  0.61904762  1
  Cl  Cl10  1  0.99542699  0.33593879  0.88095238  1
  Cl  Cl11  1  0.00457301  0.66406121  0.11904762  1
  Cl  Cl12  1  0.25000000  0.79126913  0.40890767  1
  Cl  Cl13  1  0.75000000  0.20873087  0.59109233  1
  Cl  Cl14  1  0.75000000  0.70873087  0.90890767  1
  Cl  Cl15  1  0.25000000  0.29126913  0.09109233  1
  Cl  Cl16  1  -0.00000000  0.50000000  0.50000000  1
  Cl  Cl17  1  -0.00000000  0.00000000  0.00000000  1
  Cl  Cl18  1  0.50000000  0.50000000  0.50000000  1
  Cl  Cl19  1  0.50000000  0.00000000  0.00000000  1
loop_
_geom_bond_atom_site_label_1
_geom_bond_atom_site_label_2
_geom_bond_distance
_geom_bond_site_symmetry_2
Cl0 Ho0 2.575699 1_555
Cl0 Cs0 3.581209 1_555
Cl0 Cs6 3.738221 1_455
Cl0 Cs6 3.738221 1_555
Cl0 Cs3 3.810688 1_555
Cl1 Ho1 2.575699 1_555
Cl1 Cs1 3.581209 1_555
Cl1 Cs7 3.738221 1_555
Cl1 Cs7 3.738221 1_655
Cl1 Cs2 3.810688 1_555
Cl2 Ho2 2.575699 1_555
Cl2 Cs2 3.581209 1_555
Cl2 Cs4 3.738221 1_655
Cl2 Cs4 3.738221 1_555
Cl2 Cs1 3.810688 1_565
Cl3 Ho3 2.575699 1_555
Cl3 Cs3 3.581209 1_555
Cl3 Cs5 3.738221 1_555
Cl3 Cs5 3.738221 1_455
Cl3 Cs0 3.810688 1_545
Cl4 Ho0 2.549783 1_555
Cl4 Cs2 3.601696 1_555
Cl4 Cs5 3.665190 1_565
Cl4 Cs3 3.715679 1_565
Cl4 Cs6 3.744600 1_555
Cl5 Ho1 2.549783 1_555
Cl5 Cs3 3.601696 1_555
Cl5 Cs4 3.665190 1_545
Cl5 Cs2 3.715679 1_545
Cl5 Cs7 3.744600 1_555
Cl6 Ho2 2.549783 1_555
Cl6 Cs0 3.601696 1_554
Cl6 Cs7 3.665190 1_555
Cl6 Cs1 3.715679 1_555
Cl6 Cs4 3.744600 1_555
Cl7 Ho1 2.549783 1_455
Cl7 Cs3 3.601696 1_555
Cl7 Cs4 3.665190 1_545
Cl7 Cs2 3.715679 1_445
Cl7 Cs7 3.744600 1_555
Cl8 Ho3 2.549783 1_555
Cl8 Cs1 3.601696 1_556
Cl8 Cs6 3.665190 1_555
Cl8 Cs0 3.715679 1_555
Cl8 Cs5 3.744600 1_555
Cl9 Ho0 2.549783 1_655
Cl9 Cs2 3.601696 1_555
Cl9 Cs5 3.665190 1_565
Cl9 Cs3 3.715679 1_665
Cl9 Cs6 3.744600 1_555
Cl10 Ho3 2.549783 1_655
Cl10 Cs1 3.601696 1_556
Cl10 Cs6 3.665190 1_555
Cl10 Cs0 3.715679 1_655
Cl10 Cs5 3.744600 1_555
Cl11 Ho2 2.549783 1_455
Cl11 Cs0 3.601696 1_554
Cl11 Cs7 3.665190 1_555
Cl11 Cs1 3.715679 1_455
Cl11 Cs4 3.744600 1_555
Cl12 Ho0 2.624566 1_555
Cl12 Cs4 3.491299 1_555
Cl12 Cs7 3.540937 1_555
Cl12 Cs2 3.758261 1_555
Cl12 Cs2 3.758261 1_455
Cl13 Ho1 2.624566 1_555
Cl13 Cs5 3.491299 1_555
Cl13 Cs6 3.540937 1_555
Cl13 Cs3 3.758261 1_555
Cl13 Cs3 3.758261 1_655
Cl14 Ho2 2.624566 1_556
Cl14 Cs6 3.491299 1_555
Cl14 Cs5 3.540937 1_565
Cl14 Cs0 3.758261 1_555
Cl14 Cs0 3.758261 1_655
Cl15 Ho3 2.624566 1_554
Cl15 Cs7 3.491299 1_555
Cl15 Cs4 3.540937 1_545
Cl15 Cs1 3.758261 1_555
Cl15 Cs1 3.758261 1_455
Cl16 Ho1 2.725181 1_455
Cl16 Ho0 2.725181 1_555
Cl16 Cs6 3.735714 1_455
Cl16 Cs7 3.735714 1_555
Cl16 Cs3 3.905723 1_555
Cl16 Cs2 3.905723 1_455
Cl17 Ho3 2.725181 1_554
Cl17 Ho2 2.725181 1_445
Cl17 Cs5 3.735714 1_454
Cl17 Cs4 3.735714 1_545
Cl17 Cs0 3.905723 1_544
Cl17 Cs1 3.905723 1_455
Cl18 Ho1 2.725181 1_555
Cl18 Ho0 2.725181 1_555
Cl18 Cs6 3.735714 1_555
Cl18 Cs7 3.735714 1_555
Cl18 Cs2 3.905723 1_555
Cl18 Cs3 3.905723 1_555
Cl19 Ho2 2.725181 1_545
Cl19 Ho3 2.725181 1_554
Cl19 Cs5 3.735714 1_554
Cl19 Cs4 3.735714 1_545
Cl19 Cs0 3.905723 1_544
Cl19 Cs1 3.905723 1_555
