# generated using pymatgen
data_TbAgAs2
_symmetry_space_group_name_H-M   'P 1'
_cell_length_a   3.97831800
_cell_length_b   4.01292100
_cell_length_c   21.01820100
_cell_angle_alpha   90.00000000
_cell_angle_beta   90.00000000
_cell_angle_gamma   90.00000000
_symmetry_Int_Tables_number   1
_chemical_formula_structural   TbAgAs2
_chemical_formula_sum   'Tb4 Ag4 As8'
_cell_volume   335.54876585
_cell_formula_units_Z   4
loop_
 _symmetry_equiv_pos_site_id
 _symmetry_equiv_pos_as_xyz
  1  'x, y, z'
loop_
 _atom_site_type_symbol
 _atom_site_label
 _atom_site_symmetry_multiplicity
 _atom_site_fract_x
 _atom_site_fract_y
 _atom_site_fract_z
 _atom_site_occupancy
  Tb  Tb0  1  0.25000000  0.23227600  0.11442600  1
  Tb  Tb1  1  0.75000000  0.73227600  0.38557400  1
  Tb  Tb2  1  0.25000000  0.26772400  0.61442600  1
  Tb  Tb3  1  0.75000000  0.76772400  0.88557400  1
  Ag  Ag0  1  0.75000000  0.22975300  0.25000700  1
  Ag  Ag1  1  0.25000000  0.72975300  0.24999300  1
  Ag  Ag2  1  0.75000000  0.27024700  0.75000700  1
  Ag  Ag3  1  0.25000000  0.77024700  0.74999300  1
  As  As0  1  0.25000000  0.71939600  0.00123400  1
  As  As1  1  0.75000000  0.73143400  0.15618000  1
  As  As2  1  0.25000000  0.23143400  0.34382000  1
  As  As3  1  0.75000000  0.21939600  0.49876600  1
  As  As4  1  0.25000000  0.78060400  0.50123400  1
  As  As5  1  0.75000000  0.76856600  0.65618000  1
  As  As6  1  0.25000000  0.26856600  0.84382000  1
  As  As7  1  0.75000000  0.28060400  0.99876600  1
loop_
_geom_bond_atom_site_label_1
_geom_bond_atom_site_label_2
_geom_bond_distance
_geom_bond_site_symmetry_2
Ag0 As2 2.800842 1_555
Ag0 As2 2.800842 1_655
Ag0 As1 2.808547 1_545
Ag0 As1 2.818169 1_555
Ag0 Ag1 2.825356 1_645
Ag0 Ag1 2.825356 1_545
Ag0 Ag1 2.825356 1_655
Ag0 Ag1 2.825356 1_555
Ag0 Tb0 3.475265 1_555
Ag0 Tb0 3.475265 1_655
Ag0 Tb1 3.479122 1_545
Ag0 Tb1 3.490781 1_555
Ag1 As1 2.800842 1_455
Ag1 As1 2.800842 1_555
Ag1 As2 2.808547 1_555
Ag1 As2 2.818169 1_565
Ag1 Tb1 3.475265 1_555
Ag1 Tb1 3.475265 1_455
Ag1 Tb0 3.479122 1_555
Ag1 Tb0 3.490781 1_565
Ag2 As6 2.800842 1_555
Ag2 As6 2.800842 1_655
Ag2 As5 2.808547 1_555
Ag2 As5 2.818169 1_545
Ag2 Ag3 2.825356 1_555
Ag2 Ag3 2.825356 1_645
Ag2 Ag3 2.825356 1_655
Ag2 Ag3 2.825356 1_545
Ag2 Tb2 3.475265 1_555
Ag2 Tb2 3.475265 1_655
Ag2 Tb3 3.479122 1_555
Ag2 Tb3 3.490781 1_545
Ag3 As5 2.800842 1_555
Ag3 As5 2.800842 1_455
Ag3 As6 2.808547 1_565
Ag3 As6 2.818169 1_555
Ag3 Tb3 3.475265 1_555
Ag3 Tb3 3.475265 1_455
Ag3 Tb2 3.479122 1_565
Ag3 Tb2 3.490781 1_555
As0 As7 2.657065 1_454
As0 As7 2.657065 1_554
As0 As7 3.005216 1_564
As0 As7 3.005216 1_464
As0 Tb0 3.079159 1_555
As0 Tb0 3.145799 1_565
As0 Tb3 3.147055 1_554
As0 Tb3 3.147055 1_454
As1 Tb0 2.956224 1_555
As1 Tb0 2.956224 1_655
As1 Tb0 2.960807 1_665
As1 Tb0 2.960807 1_565
As2 Tb1 2.956224 1_445
As2 Tb1 2.956224 1_545
As2 Tb1 2.960807 1_555
As2 Tb1 2.960807 1_455
As3 As4 2.657065 1_545
As3 As4 2.657065 1_645
As3 As4 3.005216 1_555
As3 As4 3.005216 1_655
As3 Tb1 3.079159 1_545
As3 Tb1 3.145799 1_555
As3 Tb2 3.147055 1_555
As3 Tb2 3.147055 1_655
As4 Tb2 3.079159 1_565
As4 Tb2 3.145799 1_555
As4 Tb1 3.147055 1_555
As4 Tb1 3.147055 1_455
As5 Tb2 2.956224 1_665
As5 Tb2 2.956224 1_565
As5 Tb2 2.960807 1_655
As5 Tb2 2.960807 1_555
As6 Tb3 2.956224 1_455
As6 Tb3 2.956224 1_555
As6 Tb3 2.960807 1_545
As6 Tb3 2.960807 1_445
As7 Tb3 3.079159 1_555
As7 Tb3 3.145799 1_545
As7 Tb0 3.147055 1_556
As7 Tb0 3.147055 1_656
