# generated using pymatgen
data_Bi3Pd12Pb
_symmetry_space_group_name_H-M   'P 1'
_cell_length_a   5.07416400
_cell_length_b   5.85170700
_cell_length_c   9.54259900
_cell_angle_alpha   90.00000000
_cell_angle_beta   90.00000000
_cell_angle_gamma   90.00000000
_symmetry_Int_Tables_number   1
_chemical_formula_structural   Bi3Pd12Pb
_chemical_formula_sum   'Bi3 Pd12 Pb1'
_cell_volume   283.34382118
_cell_formula_units_Z   1
loop_
 _symmetry_equiv_pos_site_id
 _symmetry_equiv_pos_as_xyz
  1  'x, y, z'
loop_
 _atom_site_type_symbol
 _atom_site_label
 _atom_site_symmetry_multiplicity
 _atom_site_fract_x
 _atom_site_fract_y
 _atom_site_fract_z
 _atom_site_occupancy
  Bi  Bi0  1  0.15905700  0.50000000  0.00000000  1
  Bi  Bi1  1  0.49966700  0.00000000  0.24963500  1
  Bi  Bi2  1  0.49966700  0.00000000  0.75036500  1
  Pd  Pd0  1  0.99929000  0.25112800  0.25131200  1
  Pd  Pd1  1  0.99929000  0.25112800  0.74868800  1
  Pd  Pd2  1  0.99929000  0.74887200  0.25131200  1
  Pd  Pd3  1  0.99929000  0.74887200  0.74868800  1
  Pd  Pd4  1  0.33138700  0.25299300  0.50000000  1
  Pd  Pd5  1  0.66984800  0.25020000  0.00000000  1
  Pd  Pd6  1  0.66984800  0.74980000  0.00000000  1
  Pd  Pd7  1  0.33138700  0.74700700  0.50000000  1
  Pd  Pd8  1  0.84604900  0.00000000  0.50000000  1
  Pd  Pd9  1  0.15496100  0.00000000  0.00000000  1
  Pd  Pd10  1  0.50106900  0.50000000  0.25059600  1
  Pd  Pd11  1  0.50106900  0.50000000  0.74940400  1
  Pb  Pb0  1  0.83883200  0.50000000  0.50000000  1
loop_
_geom_bond_atom_site_label_1
_geom_bond_atom_site_label_2
_geom_bond_distance
_geom_bond_site_symmetry_2
Bi0 Pd5 2.880743 1_455
Bi0 Pd6 2.880743 1_455
Bi0 Pd2 2.920499 1_455
Bi0 Pd3 2.920499 1_454
Bi0 Pd0 2.920499 1_455
Bi0 Pd1 2.920499 1_454
Bi0 Pd9 2.925927 1_565
Bi0 Pd9 2.925927 1_555
Bi0 Pd10 2.954690 1_555
Bi0 Pd11 2.954690 1_554
Bi0 Pd6 2.975626 1_555
Bi0 Pd5 2.975626 1_555
Bi1 Pd10 2.925877 1_555
Bi1 Pd10 2.925877 1_545
Bi1 Pd5 2.926427 1_555
Bi1 Pd6 2.926427 1_545
Bi1 Pd0 2.930333 1_555
Bi1 Pd2 2.930333 1_545
Bi1 Pd0 2.933643 1_455
Bi1 Pd2 2.933643 1_445
Bi1 Pd4 2.937477 1_555
Bi1 Pd7 2.937477 1_545
Bi1 Pd9 2.955343 1_555
Bi1 Pd8 2.965992 1_555
Bi2 Pd11 2.925877 1_545
Bi2 Pd11 2.925877 1_555
Bi2 Pd6 2.926427 1_546
Bi2 Pd5 2.926427 1_556
Bi2 Pd1 2.930333 1_555
Bi2 Pd3 2.930333 1_545
Bi2 Pd1 2.933643 1_455
Bi2 Pd3 2.933643 1_445
Bi2 Pd4 2.937477 1_555
Bi2 Pd7 2.937477 1_545
Bi2 Pd9 2.955343 1_556
Bi2 Pd8 2.965992 1_555
Pd0 Pd8 2.897563 1_555
Pd0 Pd4 2.910580 1_655
Pd0 Pd2 2.912652 1_555
Pd0 Pd10 2.917532 1_555
Pd0 Pd9 2.921416 1_655
Pd0 Pd5 2.923292 1_555
Pd0 Pd10 2.933190 1_655
Pd0 Pd2 2.939055 1_545
Pd1 Pd8 2.897563 1_555
Pd1 Pd4 2.910580 1_655
Pd1 Pd3 2.912652 1_555
Pd1 Pd11 2.917532 1_555
Pd1 Pd9 2.921416 1_656
Pd1 Pd5 2.923292 1_556
Pd1 Pd11 2.933190 1_655
Pd1 Pd3 2.939055 1_545
Pd2 Pd8 2.897563 1_565
Pd2 Pd7 2.910580 1_655
Pd2 Pd9 2.921416 1_665
Pd2 Pd6 2.923292 1_555
Pd3 Pd8 2.897563 1_565
Pd3 Pd7 2.910580 1_655
Pd3 Pd9 2.921416 1_666
Pd3 Pd6 2.923292 1_556
Pd4 Pd8 2.873416 1_455
Pd4 Pd7 2.890825 1_555
Pd4 Pd7 2.960882 1_545
Pd4 Pd8 3.001921 1_555
Pd5 Pd9 2.864049 1_655
Pd5 Pd6 2.923513 1_555
Pd5 Pd6 2.928194 1_545
Pd5 Pd9 2.994891 1_555
Pd6 Pd9 2.864049 1_665
Pd6 Pd9 2.994891 1_565
Pd7 Pd8 2.873416 1_465
Pd7 Pd8 3.001921 1_565
Pd10 Pd7 2.914575 1_555
Pd10 Pd4 2.914575 1_555
Pd10 Pd2 2.917532 1_555
Pd10 Pd5 2.930643 1_555
Pd10 Pd6 2.930643 1_555
Pd10 Pd2 2.933190 1_455
Pd11 Pd7 2.914575 1_555
Pd11 Pd4 2.914575 1_555
Pd11 Pd3 2.917532 1_555
Pd11 Pd5 2.930643 1_556
Pd11 Pd6 2.930643 1_556
Pd11 Pd3 2.933190 1_455
Pb0 Pd7 2.887169 1_655
Pb0 Pd4 2.887169 1_655
Pb0 Pd2 2.900954 1_555
Pb0 Pd3 2.900954 1_555
Pb0 Pd1 2.900954 1_555
Pb0 Pd0 2.900954 1_555
Pb0 Pd8 2.926083 1_555
Pb0 Pd8 2.926083 1_565
Pb0 Pd11 2.932841 1_555
Pb0 Pd10 2.932841 1_555
Pb0 Pd7 2.952815 1_555
Pb0 Pd4 2.952815 1_555
