# generated using pymatgen
data_Fe5O7
_symmetry_space_group_name_H-M   'P 1'
_cell_length_a   5.08707230
_cell_length_b   5.08707230
_cell_length_c   8.88309894
_cell_angle_alpha   75.39589482
_cell_angle_beta   75.39589482
_cell_angle_gamma   33.28939359
_symmetry_Int_Tables_number   1
_chemical_formula_structural   Fe5O7
_chemical_formula_sum   'Fe5 O7'
_cell_volume   121.72601544
_cell_formula_units_Z   1
loop_
 _symmetry_equiv_pos_site_id
 _symmetry_equiv_pos_as_xyz
  1  'x, y, z'
loop_
 _atom_site_type_symbol
 _atom_site_label
 _atom_site_symmetry_multiplicity
 _atom_site_fract_x
 _atom_site_fract_y
 _atom_site_fract_z
 _atom_site_occupancy
  Fe  Fe0  1  0.00000000  0.00000000  0.00000000  1
  Fe  Fe1  1  0.30541600  0.30541600  0.81589900  1
  Fe  Fe2  1  0.69458400  0.69458400  0.18410100  1
  Fe  Fe3  1  0.11063800  0.11063800  0.58469300  1
  Fe  Fe4  1  0.88936200  0.88936200  0.41530700  1
  O  O0  1  0.03938000  0.03938000  0.21369900  1
  O  O1  1  0.96062000  0.96062000  0.78630100  1
  O  O2  1  0.26271900  0.26271900  0.36445100  1
  O  O3  1  0.73728100  0.73728100  0.63554900  1
  O  O4  1  0.34700800  0.34700800  0.05170300  1
  O  O5  1  0.65299200  0.65299200  0.94829700  1
  O  O6  1  0.50000000  0.50000000  0.50000000  1
loop_
_geom_bond_atom_site_label_1
_geom_bond_atom_site_label_2
_geom_bond_distance
_geom_bond_site_symmetry_2
Fe0 O0 2.033341 1_555
Fe0 O1 2.033341 1_444
Fe0 O5 2.048836 1_454
Fe0 O4 2.048836 1_545
Fe0 O5 2.048836 1_544
Fe0 O4 2.048836 1_455
Fe1 O1 2.066844 1_545
Fe1 O1 2.066844 1_455
Fe1 O5 2.189588 1_455
Fe1 O5 2.189588 1_545
Fe1 O4 2.235845 1_556
Fe1 O3 2.385577 1_455
Fe1 O3 2.385577 1_545
Fe2 O0 2.066844 1_565
Fe2 O0 2.066844 1_655
Fe2 O4 2.189588 1_655
Fe2 O4 2.189588 1_565
Fe2 O5 2.235845 1_554
Fe2 O2 2.385577 1_565
Fe2 O2 2.385577 1_655
Fe3 O1 1.991829 1_445
Fe3 O3 2.035877 1_545
Fe3 O3 2.035877 1_455
Fe3 O6 2.068668 1_455
Fe3 O6 2.068668 1_545
Fe3 O2 2.121033 1_555
Fe4 O0 1.991829 1_665
Fe4 O2 2.035877 1_565
Fe4 O2 2.035877 1_655
Fe4 O6 2.068668 1_655
Fe4 O6 2.068668 1_565
Fe4 O3 2.121033 1_555
