# generated using pymatgen
data_Mn7SnN6
_symmetry_space_group_name_H-M   'P 1'
_cell_length_a   9.32367500
_cell_length_b   5.39366400
_cell_length_c   11.76631100
_cell_angle_alpha   90.00000000
_cell_angle_beta   90.00000000
_cell_angle_gamma   90.00000000
_symmetry_Int_Tables_number   1
_chemical_formula_structural   Mn7SnN6
_chemical_formula_sum   'Mn28 Sn4 N24'
_cell_volume   591.71330992
_cell_formula_units_Z   4
loop_
 _symmetry_equiv_pos_site_id
 _symmetry_equiv_pos_as_xyz
  1  'x, y, z'
loop_
 _atom_site_type_symbol
 _atom_site_label
 _atom_site_symmetry_multiplicity
 _atom_site_fract_x
 _atom_site_fract_y
 _atom_site_fract_z
 _atom_site_occupancy
  Mn  Mn0  1  0.96176600  0.80616200  0.95635500  1
  Mn  Mn1  1  0.53823400  0.69383800  0.45635500  1
  Mn  Mn2  1  0.46176600  0.69383800  0.04364500  1
  Mn  Mn3  1  0.03823400  0.80616200  0.54364500  1
  Mn  Mn4  1  0.03823400  0.19383800  0.04364500  1
  Mn  Mn5  1  0.46176600  0.30616200  0.54364500  1
  Mn  Mn6  1  0.53823400  0.30616200  0.95635500  1
  Mn  Mn7  1  0.96176600  0.19383800  0.45635500  1
  Mn  Mn8  1  0.31324200  0.86630100  0.60032100  1
  Mn  Mn9  1  0.18675800  0.63369900  0.10032100  1
  Mn  Mn10  1  0.81324200  0.63369900  0.39967900  1
  Mn  Mn11  1  0.68675800  0.86630100  0.89967900  1
  Mn  Mn12  1  0.68675800  0.13369900  0.39967900  1
  Mn  Mn13  1  0.81324200  0.36630100  0.89967900  1
  Mn  Mn14  1  0.18675800  0.36630100  0.60032100  1
  Mn  Mn15  1  0.31324200  0.13369900  0.10032100  1
  Mn  Mn16  1  0.26299700  0.60164200  0.88143000  1
  Mn  Mn17  1  0.23700300  0.89835800  0.38143000  1
  Mn  Mn18  1  0.76299700  0.89835800  0.11857000  1
  Mn  Mn19  1  0.73700300  0.60164200  0.61857000  1
  Mn  Mn20  1  0.73700300  0.39835800  0.11857000  1
  Mn  Mn21  1  0.76299700  0.10164200  0.61857000  1
  Mn  Mn22  1  0.23700300  0.10164200  0.88143000  1
  Mn  Mn23  1  0.26299700  0.39835800  0.38143000  1
  Mn  Mn24  1  0.00000000  0.22440200  0.75000000  1
  Mn  Mn25  1  0.50000000  0.27559800  0.25000000  1
  Mn  Mn26  1  0.00000000  0.77559800  0.25000000  1
  Mn  Mn27  1  0.50000000  0.72440200  0.75000000  1
  Sn  Sn0  1  0.00000000  0.70374200  0.75000000  1
  Sn  Sn1  1  0.50000000  0.79625800  0.25000000  1
  Sn  Sn2  1  0.00000000  0.29625800  0.25000000  1
  Sn  Sn3  1  0.50000000  0.20374200  0.75000000  1
  N  N0  1  0.19234100  0.35533200  0.76909400  1
  N  N1  1  0.30765900  0.14466800  0.26909400  1
  N  N2  1  0.69234100  0.14466800  0.23090600  1
  N  N3  1  0.80765900  0.35533200  0.73090600  1
  N  N4  1  0.80765900  0.64466800  0.23090600  1
  N  N5  1  0.69234100  0.85533200  0.73090600  1
  N  N6  1  0.30765900  0.85533200  0.76909400  1
  N  N7  1  0.19234100  0.64466800  0.26909400  1
  N  N8  1  0.20270300  0.64564200  0.50551200  1
  N  N9  1  0.29729700  0.85435800  0.00551100  1
  N  N10  1  0.70270300  0.85435800  0.49448800  1
  N  N11  1  0.79729700  0.64564200  0.99448800  1
  N  N12  1  0.79729700  0.35435800  0.49448800  1
  N  N13  1  0.70270300  0.14564200  0.99448800  1
  N  N14  1  0.29729700  0.14564200  0.50551200  1
  N  N15  1  0.20270300  0.35435800  0.00551100  1
  N  N16  1  0.45687800  0.62947300  0.59743400  1
  N  N17  1  0.04312200  0.87052700  0.09743400  1
  N  N18  1  0.95687800  0.87052700  0.40256600  1
  N  N19  1  0.54312200  0.62947300  0.90256600  1
  N  N20  1  0.54312200  0.37052700  0.40256600  1
  N  N21  1  0.95687800  0.12947300  0.90256600  1
  N  N22  1  0.04312200  0.12947300  0.59743400  1
  N  N23  1  0.45687800  0.37052700  0.09743400  1
loop_
_geom_bond_atom_site_label_1
_geom_bond_atom_site_label_2
_geom_bond_distance
_geom_bond_site_symmetry_2
Mn0 N11 1.817250 1_555
Mn0 N21 1.855689 1_565
Mn0 N17 1.857803 1_656
Mn0 Sn0 2.515474 1_655
Mn1 N10 1.817250 1_555
Mn1 N20 1.855689 1_555
Mn1 N16 1.857803 1_555
Mn1 Sn1 2.515474 1_555
Mn2 N9 1.817253 1_555
Mn2 N23 1.855689 1_555
Mn2 N19 1.857803 1_554
Mn2 Sn1 2.515474 1_555
Mn3 N8 1.817250 1_555
Mn3 N22 1.855689 1_565
Mn3 N18 1.857803 1_455
Mn3 Sn0 2.515474 1_555
Mn4 N15 1.817253 1_555
Mn4 N17 1.855689 1_545
Mn4 N21 1.857803 1_454
Mn4 Sn2 2.515474 1_555
Mn5 N14 1.817250 1_555
Mn5 N16 1.855689 1_555
Mn5 N20 1.857803 1_555
Mn5 Sn3 2.515474 1_555
Mn6 N13 1.817250 1_555
Mn6 N19 1.855689 1_555
Mn6 N23 1.857803 1_556
Mn6 Sn3 2.515474 1_555
Mn7 N12 1.817250 1_555
Mn7 N18 1.855689 1_545
Mn7 N22 1.857803 1_655
Mn7 Sn2 2.515474 1_655
Mn8 N16 1.851034 1_555
Mn8 N14 1.880590 1_565
Mn8 N8 1.929543 1_555
Mn8 N6 1.987399 1_555
Mn9 N17 1.851034 1_555
Mn9 N15 1.880597 1_555
Mn9 N9 1.929550 1_555
Mn9 N7 1.987399 1_555
Mn10 N18 1.851034 1_555
Mn10 N12 1.880590 1_555
Mn10 N10 1.929543 1_555
Mn10 N4 1.987399 1_555
Mn11 N19 1.851034 1_555
Mn11 N13 1.880590 1_565
Mn11 N11 1.929543 1_555
Mn11 N5 1.987399 1_555
Mn12 N20 1.851034 1_555
Mn12 N10 1.880590 1_545
Mn12 N12 1.929543 1_555
Mn12 N2 1.987399 1_555
Mn13 N21 1.851034 1_555
Mn13 N11 1.880590 1_555
Mn13 N13 1.929543 1_555
Mn13 N3 1.987399 1_555
Mn14 N22 1.851034 1_555
Mn14 N8 1.880590 1_555
Mn14 N14 1.929543 1_555
Mn14 N0 1.987399 1_555
Mn15 N23 1.851034 1_555
Mn15 N9 1.880597 1_545
Mn15 N15 1.929550 1_555
Mn15 N1 1.987399 1_555
Mn16 N6 1.947511 1_555
Mn16 N0 1.986463 1_555
Mn16 N9 2.022807 1_556
Mn16 N15 2.055843 1_556
Mn17 N7 1.947511 1_555
Mn17 N1 1.986463 1_565
Mn17 N8 2.022816 1_555
Mn17 N14 2.055851 1_565
Mn18 N4 1.947511 1_555
Mn18 N2 1.986463 1_565
Mn18 N11 2.022816 1_554
Mn18 N13 2.055851 1_564
Mn19 N5 1.947511 1_555
Mn19 N3 1.986463 1_555
Mn19 N10 2.022816 1_555
Mn19 N12 2.055851 1_555
Mn20 N2 1.947511 1_555
Mn20 N4 1.986463 1_555
Mn20 N13 2.022816 1_554
Mn20 N11 2.055851 1_554
Mn21 N3 1.947511 1_555
Mn21 N5 1.986463 1_545
Mn21 N12 2.022816 1_555
Mn21 N10 2.055851 1_545
Mn22 N0 1.947511 1_555
Mn22 N6 1.986463 1_545
Mn22 N15 2.022807 1_556
Mn22 N9 2.055843 1_546
Mn23 N1 1.947511 1_555
Mn23 N7 1.986463 1_555
Mn23 N14 2.022816 1_555
Mn23 N8 2.055851 1_555
Mn24 N22 1.909537 1_555
Mn24 N21 1.909537 1_455
Mn24 N0 1.940412 1_555
Mn24 N3 1.940412 1_455
Mn24 Sn0 2.585399 1_555
Mn24 Sn0 2.808265 1_545
Mn25 N20 1.909537 1_555
Mn25 N23 1.909537 1_555
Mn25 N2 1.940412 1_555
Mn25 N1 1.940412 1_555
Mn25 Sn1 2.585399 1_545
Mn25 Sn1 2.808265 1_555
Mn26 N18 1.909537 1_455
Mn26 N17 1.909537 1_555
Mn26 N7 1.940412 1_555
Mn26 N4 1.940412 1_455
Mn26 Sn2 2.585399 1_555
Mn26 Sn2 2.808265 1_565
Mn27 N19 1.909537 1_555
Mn27 N16 1.909537 1_555
Mn27 N5 1.940412 1_555
Mn27 N6 1.940412 1_555
Mn27 Sn3 2.585399 1_565
Mn27 Sn3 2.808265 1_555
N0 Sn0 2.607279 1_555
N1 Sn1 2.607279 1_545
N2 Sn1 2.607279 1_545
N3 Sn0 2.607279 1_655
N4 Sn2 2.607279 1_655
N5 Sn3 2.607279 1_565
N6 Sn3 2.607279 1_565
N7 Sn2 2.607279 1_555
