# generated using pymatgen
data_LaMg6B
_symmetry_space_group_name_H-M   'P 1'
_cell_length_a   6.70693999
_cell_length_b   6.70693999
_cell_length_c   4.77910200
_cell_angle_alpha   90.00000000
_cell_angle_beta   90.00000000
_cell_angle_gamma   122.29070872
_symmetry_Int_Tables_number   1
_chemical_formula_structural   LaMg6B
_chemical_formula_sum   'La1 Mg6 B1'
_cell_volume   181.73179411
_cell_formula_units_Z   1
loop_
 _symmetry_equiv_pos_site_id
 _symmetry_equiv_pos_as_xyz
  1  'x, y, z'
loop_
 _atom_site_type_symbol
 _atom_site_label
 _atom_site_symmetry_multiplicity
 _atom_site_fract_x
 _atom_site_fract_y
 _atom_site_fract_z
 _atom_site_occupancy
  La  La0  1  0.19468400  0.80531600  0.00000000  1
  Mg  Mg0  1  0.18510600  0.33592100  0.00000000  1
  Mg  Mg1  1  0.66407900  0.81489400  0.00000000  1
  Mg  Mg2  1  0.66374200  0.33625800  0.00000000  1
  Mg  Mg3  1  0.33534900  0.19564500  0.50000000  1
  Mg  Mg4  1  0.80435500  0.66465100  0.50000000  1
  Mg  Mg5  1  0.82547600  0.17452400  0.50000000  1
  B  B0  1  0.32721000  0.67279000  0.50000000  1
loop_
_geom_bond_atom_site_label_1
_geom_bond_atom_site_label_2
_geom_bond_distance
_geom_bond_site_symmetry_2
La0 Mg2 3.257047 1_455
La0 Mg2 3.257047 1_565
La0 Mg4 3.288564 1_455
La0 Mg4 3.288564 1_454
La0 Mg3 3.288564 1_564
La0 Mg3 3.288564 1_565
Mg0 Mg3 2.936565 1_555
Mg0 Mg3 2.936565 1_554
Mg0 Mg5 3.148001 1_454
Mg0 Mg5 3.148001 1_455
Mg0 Mg2 3.208976 1_555
Mg1 Mg4 2.936565 1_554
Mg1 Mg4 2.936565 1_555
Mg1 Mg5 3.148001 1_565
Mg1 Mg5 3.148001 1_564
Mg1 Mg2 3.208976 1_555
Mg2 Mg4 3.038277 1_555
Mg2 Mg3 3.038277 1_554
Mg2 Mg4 3.038277 1_554
Mg2 Mg3 3.038277 1_555
Mg2 Mg5 3.052942 1_554
Mg2 Mg5 3.052942 1_555
Mg3 Mg4 3.036061 1_555
Mg3 Mg5 3.346156 1_455
Mg3 Mg5 3.365059 1_555
Mg3 Mg4 3.437333 1_445
Mg4 Mg5 3.346156 1_565
Mg4 Mg5 3.365059 1_555
B0 La0 2.852043 1_556
B0 La0 2.852043 1_555
