# generated using pymatgen
data_YThFe6
_symmetry_space_group_name_H-M   'P 1'
_cell_length_a   5.17168639
_cell_length_b   5.17190297
_cell_length_c   16.79391099
_cell_angle_alpha   81.13724691
_cell_angle_beta   89.99982787
_cell_angle_gamma   119.99754441
_symmetry_Int_Tables_number   1
_chemical_formula_structural   YThFe6
_chemical_formula_sum   'Y3 Th3 Fe18'
_cell_volume   382.81797499
_cell_formula_units_Z   3
loop_
 _symmetry_equiv_pos_site_id
 _symmetry_equiv_pos_as_xyz
  1  'x, y, z'
loop_
 _atom_site_type_symbol
 _atom_site_label
 _atom_site_symmetry_multiplicity
 _atom_site_fract_x
 _atom_site_fract_y
 _atom_site_fract_z
 _atom_site_occupancy
  Y  Y0  1  0.42950307  0.85900339  0.71132815  1
  Y  Y1  1  0.00011265  0.00022560  0.99954271  1
  Y  Y2  1  0.49866770  0.99733484  0.50401996  1
  Th  Th0  1  0.57002943  0.14006262  0.29021978  1
  Th  Th1  1  0.07066346  0.14133132  0.78782086  1
  Th  Th2  1  0.92962998  0.85925467  0.21118336  1
  Fe  Fe0  1  0.66622290  0.33244923  0.00057933  1
  Fe  Fe1  1  0.16622484  0.33245245  0.50073596  1
  Fe  Fe2  1  0.83370287  0.66740052  0.49952374  1
  Fe  Fe3  1  0.33403240  0.66806357  0.99837706  1
  Fe  Fe4  1  0.24963645  0.49927159  0.25137807  1
  Fe  Fe5  1  0.75096516  0.50192768  0.74683242  1
  Fe  Fe6  1  0.04138936  0.57801085  0.38082707  1
  Fe  Fe7  1  0.54236648  0.57896380  0.87840475  1
  Fe  Fe8  1  0.53662381  0.57801371  0.38082805  1
  Fe  Fe9  1  0.03660055  0.57896882  0.87840521  1
  Fe  Fe10  1  0.04122132  0.08244543  0.38079272  1
  Fe  Fe11  1  0.54250671  0.08501775  0.87833195  1
  Fe  Fe12  1  0.45786994  0.42201629  0.12018264  1
  Fe  Fe13  1  0.95907318  0.42086932  0.62012986  1
  Fe  Fe14  1  0.96414484  0.42201438  0.12018179  1
  Fe  Fe15  1  0.46179508  0.42086732  0.62012897  1
  Fe  Fe16  1  0.45786203  0.91571908  0.12013370  1
  Fe  Fe17  1  0.95915982  0.91831577  0.62011191  1
loop_
_geom_bond_atom_site_label_1
_geom_bond_atom_site_label_2
_geom_bond_distance
_geom_bond_site_symmetry_2
Th1 Y0 3.242517 1_545
Th1 Y0 3.242531 1_445
Th1 Y0 3.242560 1_555
Th1 Y1 3.498921 1_555
Th2 Y1 3.497579 1_664
Fe0 Fe16 2.486342 1_545
Fe0 Fe12 2.489172 1_555
Fe0 Fe14 2.489179 1_555
Fe0 Fe11 2.500535 1_554
Fe0 Fe7 2.501236 1_554
Fe0 Fe9 2.501263 1_654
Fe0 Y1 2.985020 1_654
Fe0 Y1 2.985054 1_554
Fe0 Y1 2.987996 1_664
Fe1 Fe10 2.472651 1_555
Fe1 Fe6 2.473196 1_555
Fe1 Fe8 2.473212 1_555
Fe1 Fe17 2.477280 1_445
Fe1 Fe13 2.479840 1_455
Fe1 Fe15 2.479846 1_555
Fe1 Y2 2.985492 1_545
Fe1 Y2 2.985525 1_445
Fe1 Y2 2.988386 1_555
Fe2 Fe6 2.474158 1_655
Fe2 Fe8 2.474167 1_555
Fe2 Y2 2.985940 1_555
Fe2 Y2 2.985967 1_655
Fe2 Y2 2.988789 1_545
Fe3 Fe7 2.493031 1_555
Fe3 Fe9 2.493033 1_555
Fe3 Y1 2.985084 1_565
Fe3 Y1 2.985126 1_665
Fe3 Y1 2.987899 1_555
Fe4 Fe6 2.600606 1_555
Fe4 Fe8 2.600636 1_555
Fe4 Th0 3.054035 1_555
Fe4 Th0 3.054105 1_455
Fe4 Th0 3.054429 1_565
Fe4 Th2 3.058535 1_455
Fe4 Th2 3.058600 1_555
Fe4 Th2 3.059767 1_445
Fe5 Fe7 2.627928 1_555
Fe5 Fe9 2.627949 1_655
Fe5 Y0 3.042907 1_545
Fe5 Y0 3.043136 1_555
Fe5 Y0 3.043184 1_655
Fe5 Th1 3.061587 1_655
Fe5 Th1 3.061665 1_555
Fe5 Th1 3.062275 1_665
Fe6 Fe8 2.561190 1_555
Fe6 Fe8 2.610497 1_455
Fe6 Th0 2.988178 1_455
Fe6 Th0 2.988346 1_565
Fe6 Th2 3.182807 1_455
Fe6 Y2 3.290976 1_555
Fe6 Y2 3.291546 1_445
Fe7 Fe9 2.556011 1_655
Fe7 Fe9 2.615676 1_555
Fe7 Th1 2.988008 1_555
Fe7 Th1 2.988159 1_665
Fe7 Y0 3.147126 1_555
Fe7 Y1 3.269952 1_555
Fe7 Y1 3.270809 1_665
Fe8 Th0 2.988151 1_555
Fe8 Th0 2.988316 1_565
Fe8 Th2 3.182839 1_555
Fe8 Y2 3.290924 1_555
Fe8 Y2 3.291513 1_545
Fe9 Th1 2.987982 1_555
Fe9 Th1 2.988120 1_565
Fe9 Y0 3.147143 1_555
Fe9 Y1 3.269928 1_555
Fe9 Y1 3.270757 1_565
Fe10 Fe2 2.472444 1_445
Fe10 Fe6 2.562671 1_555
Fe10 Fe8 2.562735 1_555
Fe10 Fe4 2.601070 1_555
Fe10 Fe6 2.609233 1_545
Fe10 Fe8 2.609252 1_445
Fe10 Th0 2.987837 1_555
Fe10 Th0 2.987841 1_455
Fe10 Th2 3.182130 1_445
Fe10 Y2 3.291484 1_445
Fe10 Y2 3.291497 1_545
Fe11 Fe3 2.492511 1_545
Fe11 Fe7 2.555192 1_555
Fe11 Fe9 2.555267 1_655
Fe11 Fe7 2.616711 1_545
Fe11 Fe9 2.616720 1_545
Fe11 Fe5 2.626182 1_555
Fe11 Th1 2.987356 1_655
Fe11 Th1 2.987357 1_555
Fe11 Y0 3.146600 1_545
Fe11 Y1 3.270992 1_555
Fe11 Y1 3.271007 1_655
Fe12 Fe3 2.495355 1_554
Fe12 Fe16 2.553277 1_555
Fe12 Fe14 2.553386 1_455
Fe12 Fe14 2.618300 1_555
Fe12 Fe16 2.618626 1_545
Fe12 Fe4 2.622092 1_555
Fe12 Th2 2.991446 1_445
Fe12 Th2 2.991653 1_555
Fe12 Th0 3.190610 1_555
Fe12 Y1 3.264843 1_664
Fe12 Y1 3.265872 1_554
Fe13 Fe2 2.485846 1_555
Fe13 Fe5 2.566670 1_555
Fe13 Fe15 2.571761 1_555
Fe13 Fe17 2.572474 1_555
Fe13 Fe17 2.599429 1_545
Fe13 Fe15 2.599925 1_655
Fe13 Y0 2.992720 1_655
Fe13 Y0 2.993571 1_545
Fe13 Th1 3.151805 1_655
Fe13 Y2 3.219919 1_655
Fe13 Y2 3.220378 1_545
Fe14 Fe3 2.495366 1_654
Fe14 Fe16 2.553342 1_655
Fe14 Fe16 2.618645 1_545
Fe14 Fe4 2.622125 1_655
Fe14 Th2 2.991421 1_545
Fe14 Th2 2.991619 1_555
Fe14 Th0 3.190638 1_555
Fe14 Y1 3.264808 1_664
Fe14 Y1 3.265824 1_654
Fe15 Fe2 2.485867 1_555
Fe15 Fe5 2.566706 1_555
Fe15 Fe17 2.572536 1_555
Fe15 Fe17 2.599451 1_445
Fe15 Y0 2.992694 1_555
Fe15 Y0 2.993539 1_545
Fe15 Th1 3.151836 1_555
Fe15 Y2 3.219883 1_555
Fe15 Y2 3.220330 1_545
Fe16 Fe3 2.493714 1_554
Fe16 Fe4 2.621958 1_555
Fe16 Th2 2.991828 1_455
Fe16 Th2 2.991829 1_555
Fe16 Th0 3.192189 1_565
Fe16 Y1 3.264730 1_664
Fe16 Y1 3.264750 1_564
Fe17 Fe2 2.484779 1_555
Fe17 Fe5 2.568104 1_555
Fe17 Y0 2.993158 1_655
Fe17 Y0 2.993164 1_555
Fe17 Th1 3.151420 1_665
Fe17 Y2 3.219842 1_655
Fe17 Y2 3.219855 1_555
