# generated using pymatgen
data_SrC7N10
_symmetry_space_group_name_H-M   'P 1'
_cell_length_a   5.86468990
_cell_length_b   5.68532400
_cell_length_c   8.16661883
_cell_angle_alpha   90.00000000
_cell_angle_beta   106.40794051
_cell_angle_gamma   90.00000000
_symmetry_Int_Tables_number   1
_chemical_formula_structural   SrC7N10
_chemical_formula_sum   'Sr2 C14 N20'
_cell_volume   261.20748096
_cell_formula_units_Z   2
loop_
 _symmetry_equiv_pos_site_id
 _symmetry_equiv_pos_as_xyz
  1  'x, y, z'
loop_
 _atom_site_type_symbol
 _atom_site_label
 _atom_site_symmetry_multiplicity
 _atom_site_fract_x
 _atom_site_fract_y
 _atom_site_fract_z
 _atom_site_occupancy
  Sr  Sr0  1  0.96071100  0.12056200  0.67227000  1
  Sr  Sr1  1  0.96071100  0.87943800  0.17227000  1
  C  C0  1  0.54007300  0.97452300  0.82816700  1
  C  C1  1  0.54007300  0.02547700  0.32816700  1
  C  C2  1  0.35785100  0.02998400  0.02023600  1
  C  C3  1  0.35785100  0.97001600  0.52023600  1
  C  C4  1  0.11115500  0.38885200  0.07334200  1
  C  C5  1  0.11115500  0.61114800  0.57334200  1
  C  C6  1  0.66305200  0.36690300  0.98932700  1
  C  C7  1  0.66305200  0.63309700  0.48932700  1
  C  C8  1  0.84088800  0.63190300  0.80961800  1
  C  C9  1  0.84088800  0.36809700  0.30961800  1
  C  C10  1  0.29671600  0.62342100  0.88611400  1
  C  C11  1  0.29671600  0.37657900  0.38611400  1
  C  C12  1  0.48354700  0.37631800  0.68617700  1
  C  C13  1  0.48354700  0.62368200  0.18617700  1
  N  N0  1  0.74926800  0.84556000  0.83761600  1
  N  N1  1  0.74926800  0.15444000  0.33761600  1
  N  N2  1  0.57550500  0.12630900  0.97981700  1
  N  N3  1  0.57550500  0.87369100  0.47981700  1
  N  N4  1  0.31907200  0.87487800  0.86701100  1
  N  N5  1  0.31907200  0.12512200  0.36701100  1
  N  N6  1  0.15629100  0.16977800  0.01012800  1
  N  N7  1  0.15629100  0.83022200  0.51012800  1
  N  N8  1  0.28338500  0.50318900  0.72594700  1
  N  N9  1  0.28338500  0.49681100  0.22594700  1
  N  N10  1  0.44173600  0.11734800  0.67537200  1
  N  N11  1  0.44173600  0.88265200  0.17537200  1
  N  N12  1  0.88231900  0.40308400  0.12405400  1
  N  N13  1  0.88231900  0.59691600  0.62405400  1
  N  N14  1  0.07982800  0.59209000  0.94071800  1
  N  N15  1  0.07982800  0.40791000  0.44071800  1
  N  N16  1  0.70397100  0.41198300  0.82170200  1
  N  N17  1  0.70397100  0.58801700  0.32170200  1
  N  N18  1  0.49693200  0.54017200  0.02168200  1
  N  N19  1  0.49693200  0.45982800  0.52168200  1
loop_
_geom_bond_atom_site_label_1
_geom_bond_atom_site_label_2
_geom_bond_distance
_geom_bond_site_symmetry_2
C0 N0 1.412530 1_555
C0 N10 1.463711 1_565
C0 N2 1.475222 1_565
C0 N4 1.527656 1_555
C1 N1 1.412530 1_555
C1 N11 1.463711 1_545
C1 N3 1.475222 1_545
C1 N5 1.527656 1_555
C2 N6 1.407367 1_555
C2 N11 1.482112 1_545
C2 N4 1.494789 1_544
C2 N2 1.508737 1_554
C3 N7 1.407367 1_555
C3 N10 1.482112 1_565
C3 N5 1.494789 1_565
C3 N3 1.508737 1_555
C4 N6 1.401809 1_555
C4 N9 1.496326 1_555
C4 N12 1.514321 1_455
C4 N14 1.558698 1_554
C5 N7 1.401809 1_555
C5 N8 1.496326 1_555
C5 N13 1.514321 1_455
C5 N15 1.558698 1_555
C6 N12 1.451617 1_556
C6 N2 1.455386 1_555
C6 N18 1.461096 1_556
C6 N16 1.477442 1_555
C7 N13 1.451617 1_555
C7 N3 1.455386 1_555
C7 N19 1.461096 1_555
C7 N17 1.477442 1_555
C8 N0 1.373289 1_555
C8 N16 1.504183 1_555
C8 N14 1.521047 1_655
C8 N13 1.613431 1_555
C9 N1 1.373289 1_555
C9 N17 1.504183 1_555
C9 N15 1.521047 1_655
C9 N12 1.613431 1_555
C10 N18 1.447092 1_556
C10 N4 1.448061 1_555
C10 N8 1.458257 1_555
C10 N14 1.472741 1_555
C11 N19 1.447092 1_555
C11 N5 1.448061 1_555
C11 N9 1.458257 1_555
C11 N15 1.472741 1_555
C12 N19 1.447685 1_555
C12 N16 1.459074 1_555
C12 N8 1.489688 1_555
C12 N10 1.491121 1_555
C13 N18 1.447685 1_555
C13 N17 1.459074 1_555
C13 N9 1.489688 1_555
C13 N11 1.491121 1_555
N0 Sr0 2.598368 1_565
N0 Sr1 2.670098 1_556
N1 Sr1 2.598368 1_545
N1 Sr0 2.670098 1_555
N2 Sr1 2.745508 1_546
N3 Sr0 2.745508 1_565
N4 Sr0 2.647462 1_465
N5 Sr1 2.647462 1_445
N6 Sr1 2.579111 1_445
N6 Sr0 2.686809 1_454
N7 Sr0 2.579111 1_465
N7 Sr1 2.686809 1_455
N8 Sr0 2.834926 1_455
N9 Sr1 2.834926 1_455
N10 Sr0 2.814071 1_455
N11 Sr1 2.814071 1_455
N12 Sr1 2.756562 1_555
N13 Sr0 2.756562 1_555
N14 Sr1 2.734788 1_456
N15 Sr0 2.734788 1_455
N16 Sr0 2.745823 1_555
N17 Sr1 2.745823 1_555
