# generated using pymatgen
data_LaMg15
_symmetry_space_group_name_H-M   'P 1'
_cell_length_a   6.59417519
_cell_length_b   6.59417519
_cell_length_c   10.35972200
_cell_angle_alpha   90.00000000
_cell_angle_beta   90.00000000
_cell_angle_gamma   119.99999189
_symmetry_Int_Tables_number   1
_chemical_formula_structural   LaMg15
_chemical_formula_sum   'La1 Mg15'
_cell_volume   390.12136122
_cell_formula_units_Z   1
loop_
 _symmetry_equiv_pos_site_id
 _symmetry_equiv_pos_as_xyz
  1  'x, y, z'
loop_
 _atom_site_type_symbol
 _atom_site_label
 _atom_site_symmetry_multiplicity
 _atom_site_fract_x
 _atom_site_fract_y
 _atom_site_fract_z
 _atom_site_occupancy
  La  La0  1  0.00000000  0.00000000  0.50000000  1
  Mg  Mg0  1  0.00000000  0.00000000  0.00000000  1
  Mg  Mg1  1  0.01094800  0.50547400  0.50000000  1
  Mg  Mg2  1  0.99809900  0.49905000  0.00000000  1
  Mg  Mg3  1  0.49452600  0.50547400  0.50000000  1
  Mg  Mg4  1  0.50095000  0.49905000  0.00000000  1
  Mg  Mg5  1  0.49452600  0.98905200  0.50000000  1
  Mg  Mg6  1  0.50095000  0.00190100  0.00000000  1
  Mg  Mg7  1  0.16824500  0.33649000  0.24403900  1
  Mg  Mg8  1  0.16824500  0.33649000  0.75596100  1
  Mg  Mg9  1  0.16824500  0.83175500  0.24403900  1
  Mg  Mg10  1  0.16824500  0.83175500  0.75596100  1
  Mg  Mg11  1  0.66351000  0.83175500  0.24403900  1
  Mg  Mg12  1  0.66351000  0.83175500  0.75596100  1
  Mg  Mg13  1  0.66666700  0.33333300  0.25497000  1
  Mg  Mg14  1  0.66666700  0.33333300  0.74503000  1
loop_
_geom_bond_atom_site_label_1
_geom_bond_atom_site_label_2
_geom_bond_distance
_geom_bond_site_symmetry_2
La0 Mg10 3.274749 1_545
La0 Mg9 3.274749 1_545
La0 Mg12 3.274750 1_445
La0 Mg8 3.274750 1_555
La0 Mg11 3.274750 1_445
La0 Mg7 3.274750 1_555
La0 Mg5 3.297680 1_545
La0 Mg1 3.297680 1_545
La0 Mg1 3.297680 1_555
La0 Mg5 3.297680 1_445
La0 Mg3 3.297681 1_555
La0 Mg3 3.297681 1_445
Mg0 Mg9 3.175567 1_545
Mg0 Mg10 3.175567 1_544
Mg0 Mg7 3.175567 1_555
Mg0 Mg11 3.175567 1_445
Mg0 Mg12 3.175567 1_444
Mg0 Mg8 3.175567 1_554
Mg0 Mg2 3.297102 1_445
Mg0 Mg6 3.297102 1_555
Mg0 Mg4 3.297106 1_445
Mg0 Mg4 3.297106 1_555
Mg0 Mg6 3.297109 1_455
Mg0 Mg2 3.297109 1_455
Mg1 Mg3 3.188798 1_555
Mg1 Mg5 3.188798 1_555
Mg1 Mg13 3.210797 1_455
Mg1 Mg14 3.210797 1_455
Mg1 Mg8 3.241112 1_555
Mg1 Mg7 3.241112 1_555
Mg1 Mg10 3.241112 1_555
Mg1 Mg9 3.241112 1_555
Mg1 Mg3 3.405377 1_455
Mg1 Mg5 3.405378 1_445
Mg2 Mg9 3.162633 1_655
Mg2 Mg7 3.162636 1_655
Mg2 Mg8 3.162636 1_654
Mg2 Mg4 3.278288 1_555
Mg2 Mg6 3.278288 1_555
Mg2 Mg4 3.315888 1_655
Mg2 Mg6 3.315888 1_665
Mg3 Mg5 3.188798 1_555
Mg3 Mg8 3.241112 1_555
Mg3 Mg7 3.241112 1_555
Mg3 Mg5 3.405377 1_545
Mg4 Mg7 3.162633 1_555
Mg4 Mg8 3.162633 1_554
Mg4 Mg6 3.278288 1_555
Mg4 Mg6 3.315888 1_565
Mg5 Mg9 3.241112 1_555
Mg6 Mg9 3.162633 1_545
Mg7 Mg9 3.265864 1_555
Mg7 Mg9 3.328311 1_545
Mg10 Mg2 3.162633 1_456
Mg10 Mg6 3.162633 1_566
Mg10 Mg5 3.241112 1_555
Mg10 Mg8 3.265864 1_555
Mg10 Mg12 3.265864 1_555
Mg10 Mg14 3.299081 1_455
Mg10 Mg14 3.299081 1_565
Mg10 Mg12 3.328311 1_455
Mg10 Mg8 3.328311 1_565
Mg11 Mg4 3.162633 1_555
Mg11 Mg6 3.162636 1_565
Mg11 Mg5 3.241112 1_555
Mg11 Mg3 3.241112 1_555
Mg11 Mg9 3.265864 1_555
Mg11 Mg7 3.265865 1_555
Mg11 Mg13 3.299078 1_565
Mg11 Mg13 3.299084 1_555
Mg11 Mg9 3.328311 1_655
Mg11 Mg7 3.328311 1_665
Mg12 Mg4 3.162633 1_556
Mg12 Mg6 3.162636 1_566
Mg12 Mg5 3.241112 1_555
Mg12 Mg3 3.241112 1_555
Mg12 Mg8 3.265865 1_555
Mg12 Mg14 3.299078 1_565
Mg12 Mg14 3.299084 1_555
Mg12 Mg8 3.328311 1_665
Mg13 Mg5 3.210797 1_545
Mg13 Mg3 3.210800 1_555
Mg13 Mg2 3.249533 1_555
Mg13 Mg6 3.249533 1_555
Mg13 Mg4 3.249540 1_555
Mg13 Mg7 3.299078 1_655
Mg13 Mg9 3.299081 1_655
Mg13 Mg9 3.299081 1_545
Mg13 Mg7 3.299084 1_555
Mg14 Mg5 3.210797 1_545
Mg14 Mg3 3.210800 1_555
Mg14 Mg2 3.249533 1_556
Mg14 Mg6 3.249533 1_556
Mg14 Mg4 3.249540 1_556
Mg14 Mg8 3.299078 1_655
Mg14 Mg8 3.299084 1_555
