# generated using pymatgen
data_Tb2MnCrO6
_symmetry_space_group_name_H-M   'P 1'
_cell_length_a   5.75038400
_cell_length_b   5.38181000
_cell_length_c   9.18761447
_cell_angle_alpha   54.71965110
_cell_angle_beta   90.00000000
_cell_angle_gamma   90.00000000
_symmetry_Int_Tables_number   1
_chemical_formula_structural   Tb2MnCrO6
_chemical_formula_sum   'Tb4 Mn2 Cr2 O12'
_cell_volume   232.11156451
_cell_formula_units_Z   2
loop_
 _symmetry_equiv_pos_site_id
 _symmetry_equiv_pos_as_xyz
  1  'x, y, z'
loop_
 _atom_site_type_symbol
 _atom_site_label
 _atom_site_symmetry_multiplicity
 _atom_site_fract_x
 _atom_site_fract_y
 _atom_site_fract_z
 _atom_site_occupancy
  Tb  Tb0  1  0.57147200  0.73071200  0.75045000  1
  Tb  Tb1  1  0.07147200  0.26928800  0.74955000  1
  Tb  Tb2  1  0.42852800  0.26928800  0.24955000  1
  Tb  Tb3  1  0.92852800  0.73071200  0.25045000  1
  Mn  Mn0  1  0.50000000  0.00000000  0.00000000  1
  Mn  Mn1  1  0.00000000  0.00000000  0.50000000  1
  Cr  Cr0  1  0.50000000  0.50000000  0.50000000  1
  Cr  Cr1  1  0.00000000  0.50000000  0.00000000  1
  O  O0  1  0.81374200  0.25402800  0.94266400  1
  O  O1  1  0.31374200  0.74597200  0.55733600  1
  O  O2  1  0.19506200  0.36489000  0.44621200  1
  O  O3  1  0.69506200  0.63511000  0.05378800  1
  O  O4  1  0.18625800  0.74597200  0.05733600  1
  O  O5  1  0.68625800  0.25402800  0.44266400  1
  O  O6  1  0.80493800  0.63511000  0.55378800  1
  O  O7  1  0.30493800  0.36489000  0.94621200  1
  O  O8  1  0.96018500  0.86739200  0.74476300  1
  O  O9  1  0.46018500  0.13260800  0.75523700  1
  O  O10  1  0.03981500  0.13260800  0.25523700  1
  O  O11  1  0.53981500  0.86739200  0.24476300  1
loop_
_geom_bond_atom_site_label_1
_geom_bond_atom_site_label_2
_geom_bond_distance
_geom_bond_site_symmetry_2
Mn0 O11 1.940332 1_545
Mn0 O9 1.940332 1_554
Mn0 O7 2.058577 1_554
Mn0 O3 2.058577 1_545
Mn0 O0 2.137647 1_554
Mn0 O4 2.137647 1_545
Mn1 O8 1.940332 1_445
Mn1 O10 1.940332 1_555
Mn1 O2 2.058577 1_555
Mn1 O6 2.058577 1_445
Mn1 O1 2.137647 1_545
Mn1 O5 2.137647 1_455
Cr0 O5 1.995638 1_555
Cr0 O1 1.995638 1_555
Cr0 O9 2.026064 1_555
Cr0 O11 2.026064 1_555
Cr0 O6 2.064664 1_555
Cr0 O2 2.064664 1_555
Cr1 O4 1.995638 1_555
Cr1 O0 1.995638 1_454
Cr1 O8 2.026064 1_454
Cr1 O10 2.026064 1_555
Cr1 O3 2.064664 1_455
Cr1 O7 2.064664 1_554
O0 Tb1 2.276592 1_655
O0 Tb0 2.531309 1_555
O0 Tb3 2.676631 1_546
O1 Tb0 2.276592 1_555
O1 Tb1 2.531309 1_555
O1 Tb2 2.676631 1_565
O2 Tb3 2.317255 1_455
O2 Tb2 2.530947 1_555
O2 Tb1 2.623072 1_555
O3 Tb2 2.317255 1_555
O3 Tb3 2.530947 1_555
O3 Tb0 2.623072 1_554
O4 Tb3 2.276592 1_455
O4 Tb2 2.531309 1_555
O4 Tb1 2.676631 1_564
O5 Tb2 2.276592 1_555
O5 Tb3 2.531309 1_555
O5 Tb0 2.676631 1_545
O6 Tb1 2.317255 1_655
O6 Tb0 2.530947 1_555
O6 Tb3 2.623072 1_555
O7 Tb0 2.317255 1_555
O7 Tb1 2.530947 1_555
O7 Tb2 2.623072 1_556
O8 Tb1 2.280264 1_665
O8 Tb0 2.344303 1_555
O9 Tb0 2.280264 1_545
O9 Tb1 2.344303 1_555
O10 Tb3 2.280264 1_445
O10 Tb2 2.344303 1_555
O11 Tb2 2.280264 1_565
O11 Tb3 2.344303 1_555
