# generated using pymatgen
data_HfTiTc2
_symmetry_space_group_name_H-M   'P 1'
_cell_length_a   10.65131851
_cell_length_b   10.65131851
_cell_length_c   10.65131851
_cell_angle_alpha   129.84193583
_cell_angle_beta   115.58157584
_cell_angle_gamma   85.84427076
_symmetry_Int_Tables_number   1
_chemical_formula_structural   HfTiTc2
_chemical_formula_sum   'Hf1 Ti1 Tc2'
_cell_volume   799.67784945
_cell_formula_units_Z   1
loop_
 _symmetry_equiv_pos_site_id
 _symmetry_equiv_pos_as_xyz
  1  'x, y, z'
loop_
 _atom_site_type_symbol
 _atom_site_label
 _atom_site_symmetry_multiplicity
 _atom_site_fract_x
 _atom_site_fract_y
 _atom_site_fract_z
 _atom_site_occupancy
  Hf  Hf0  1  0.00000000  0.50000000  0.50000000  1
  Ti  Ti0  1  0.00000000  0.00000000  0.00000000  1
  Tc  Tc0  1  0.00000000  0.24034100  0.24034100  1
  Tc  Tc1  1  0.00000000  0.75965900  0.75965900  1
loop_
_geom_bond_atom_site_label_1
_geom_bond_atom_site_label_2
_geom_bond_distance
_geom_bond_site_symmetry_2
Hf0 Tc0 2.344592 1_555
Hf0 Tc1 2.344592 1_555
Tc0 Ti0 2.170161 1_555
Tc1 Ti0 2.170161 1_566
