# generated using pymatgen
data_NaMn2FeAg(PO4)3
_symmetry_space_group_name_H-M   'P 1'
_cell_length_a   8.46500208
_cell_length_b   8.46500208
_cell_length_c   9.90466282
_cell_angle_alpha   67.78718704
_cell_angle_beta   67.78718704
_cell_angle_gamma   81.00412877
_symmetry_Int_Tables_number   1
_chemical_formula_structural   NaMn2FeAg(PO4)3
_chemical_formula_sum   'Na2 Mn4 Fe2 Ag2 P6 O24'
_cell_volume   608.22138570
_cell_formula_units_Z   2
loop_
 _symmetry_equiv_pos_site_id
 _symmetry_equiv_pos_as_xyz
  1  'x, y, z'
loop_
 _atom_site_type_symbol
 _atom_site_label
 _atom_site_symmetry_multiplicity
 _atom_site_fract_x
 _atom_site_fract_y
 _atom_site_fract_z
 _atom_site_occupancy
  Na  Na0  1  0.26840400  0.43873700  0.16145300  1
  Na  Na1  1  0.56126300  0.73159600  0.83854700  1
  Mn  Mn0  1  0.32478600  0.91886800  0.15834900  1
  Mn  Mn1  1  0.20666600  0.79333400  0.00000000  1
  Mn  Mn2  1  0.08113200  0.67521400  0.84165100  1
  Mn  Mn3  1  0.70219500  0.29780500  0.50000000  1
  Fe  Fe0  1  0.94849300  0.33887700  0.65594600  1
  Fe  Fe1  1  0.66112300  0.05150700  0.34405400  1
  Ag  Ag0  1  0.94529000  0.05471000  0.00000000  1
  Ag  Ag1  1  0.98535700  0.01464300  0.50000000  1
  P  P0  1  0.75712100  0.62504300  0.05984400  1
  P  P1  1  0.67765800  0.32234200  0.00000000  1
  P  P2  1  0.37495700  0.24287900  0.94015600  1
  P  P3  1  0.69528000  0.69892400  0.49245800  1
  P  P4  1  0.34546100  0.65453900  0.50000000  1
  P  P5  1  0.30107600  0.30472000  0.50754200  1
  O  O0  1  0.45486900  0.08934200  0.88860100  1
  O  O1  1  0.85689100  0.34742000  0.87290200  1
  O  O2  1  0.54626200  0.36385800  0.91251400  1
  O  O3  1  0.30127600  0.17403400  0.12480800  1
  O  O4  1  0.11318900  0.91952800  0.13716100  1
  O  O5  1  0.37370800  0.72540600  0.09762300  1
  O  O6  1  0.27459400  0.62629200  0.90237700  1
  O  O7  1  0.08047200  0.88681100  0.86283900  1
  O  O8  1  0.82596600  0.69872400  0.87519200  1
  O  O9  1  0.19041100  0.30567800  0.41725400  1
  O  O10  1  0.63614200  0.45373800  0.08748600  1
  O  O11  1  0.65258000  0.14310900  0.12709800  1
  O  O12  1  0.36663900  0.82444200  0.36812200  1
  O  O13  1  0.37869500  0.50039800  0.43483200  1
  O  O14  1  0.91065800  0.54513100  0.11139900  1
  O  O15  1  0.18203300  0.27765300  0.67616100  1
  O  O16  1  0.83657700  0.18175800  0.64840700  1
  O  O17  1  0.80364800  0.53094200  0.51548100  1
  O  O18  1  0.46905800  0.19635200  0.48451900  1
  O  O19  1  0.81824200  0.16342300  0.35159300  1
  O  O20  1  0.72234700  0.81796700  0.32383900  1
  O  O21  1  0.49960200  0.62130500  0.56516800  1
  O  O22  1  0.17555800  0.63336100  0.63187800  1
  O  O23  1  0.69432200  0.80958900  0.58274600  1
loop_
_geom_bond_atom_site_label_1
_geom_bond_atom_site_label_2
_geom_bond_distance
_geom_bond_site_symmetry_2
Na0 O9 2.221236 1_555
Na0 O3 2.360831 1_555
Na0 O6 2.439685 1_554
Na0 O5 2.484617 1_555
Na1 O23 2.221236 1_555
Na1 O8 2.360831 1_555
Na1 O5 2.439685 1_556
Na1 O6 2.484617 1_555
Mn0 O4 1.879509 1_555
Mn0 O5 1.886669 1_555
Mn0 O3 2.046581 1_565
Mn0 O12 2.072125 1_555
Mn0 O0 2.406372 1_564
Mn1 O5 1.903711 1_555
Mn1 O6 1.903711 1_554
Mn1 O4 1.906043 1_555
Mn1 O7 1.906043 1_554
Mn2 O7 1.879509 1_555
Mn2 O6 1.886669 1_555
Mn2 O8 2.046581 1_455
Mn2 O22 2.072125 1_555
Mn2 O14 2.406372 1_456
Mn3 O16 2.059782 1_555
Mn3 O19 2.059782 1_555
Mn3 O17 2.348225 1_555
Mn3 O18 2.348225 1_555
Fe0 O16 1.787354 1_555
Fe0 O1 2.016003 1_555
Fe0 O15 2.029113 1_655
Fe0 O17 2.244638 1_555
Fe0 O9 2.554150 1_655
Fe1 O19 1.787354 1_555
Fe1 O11 2.016003 1_555
Fe1 O20 2.029113 1_545
Fe1 O18 2.244638 1_555
Fe1 O23 2.554150 1_545
Ag0 O4 2.225069 1_645
Ag0 O7 2.225069 1_644
Ag0 O11 2.461327 1_555
Ag0 O1 2.461327 1_554
Ag1 O16 2.315886 1_555
Ag1 O19 2.315886 1_555
O0 P2 1.540525 1_555
O1 P1 1.544758 1_556
O2 P1 1.577256 1_556
O2 P2 1.782899 1_555
O3 P2 1.587096 1_554
O8 P0 1.587096 1_556
O9 P5 1.517529 1_555
O10 P1 1.577256 1_555
O10 P0 1.782899 1_555
O11 P1 1.544758 1_555
O12 P4 1.513267 1_555
O13 P4 1.607166 1_555
O13 P5 1.665742 1_555
O14 P0 1.540525 1_555
O15 P5 1.538709 1_555
O17 P3 1.555816 1_555
O18 P5 1.555816 1_555
O20 P3 1.538709 1_555
O21 P4 1.607166 1_555
O21 P3 1.665742 1_555
O22 P4 1.513267 1_555
O23 P3 1.517529 1_555
