# generated using pymatgen
data_Mg14SiB
_symmetry_space_group_name_H-M   'P 1'
_cell_length_a   6.16967829
_cell_length_b   6.16967783
_cell_length_c   10.02440889
_cell_angle_alpha   90.00000000
_cell_angle_beta   90.00000000
_cell_angle_gamma   120.00000251
_symmetry_Int_Tables_number   1
_chemical_formula_structural   Mg14SiB
_chemical_formula_sum   'Mg14 Si1 B1'
_cell_volume   330.45657642
_cell_formula_units_Z   1
loop_
 _symmetry_equiv_pos_site_id
 _symmetry_equiv_pos_as_xyz
  1  'x, y, z'
loop_
 _atom_site_type_symbol
 _atom_site_label
 _atom_site_symmetry_multiplicity
 _atom_site_fract_x
 _atom_site_fract_y
 _atom_site_fract_z
 _atom_site_occupancy
  Mg  Mg0  1  0.16672561  0.83336230  0.12500000  1
  Mg  Mg1  1  0.16566168  0.83283034  0.62500000  1
  Mg  Mg2  1  0.66663770  0.33327439  0.12500000  1
  Mg  Mg3  1  0.66716966  0.33433832  0.62500000  1
  Mg  Mg4  1  0.66663770  0.83336230  0.12500000  1
  Mg  Mg5  1  0.66716966  0.83283034  0.62500000  1
  Mg  Mg6  1  0.32890974  0.17109026  0.37977885  1
  Mg  Mg7  1  0.32890974  0.17109026  0.87022115  1
  Mg  Mg8  1  0.32890974  0.65782049  0.37977885  1
  Mg  Mg9  1  0.32890974  0.65782049  0.87022115  1
  Mg  Mg10  1  0.84217951  0.17109026  0.37977885  1
  Mg  Mg11  1  0.84217951  0.17109026  0.87022115  1
  Mg  Mg12  1  0.83333300  0.66666700  0.37506780  1
  Mg  Mg13  1  0.83333300  0.66666700  0.87493220  1
  Si  Si0  1  0.16666700  0.33333300  0.12500000  1
  B  B0  1  0.16666700  0.33333300  0.62500000  1
loop_
_geom_bond_atom_site_label_1
_geom_bond_atom_site_label_2
_geom_bond_distance
_geom_bond_site_symmetry_2
Mg0 Mg12 3.075250 1_455
Mg0 Mg13 3.075250 1_454
Mg0 Mg2 3.084297 1_565
Mg0 Mg4 3.084297 1_555
Mg0 Si0 3.084839 1_555
Mg0 Si0 3.084839 1_565
Mg0 Mg2 3.085381 1_455
Mg0 Mg4 3.085382 1_455
Mg0 Mg8 3.127440 1_555
Mg0 Mg9 3.127440 1_554
Mg0 Mg7 3.127446 1_564
Mg0 Mg6 3.127446 1_565
Mg1 Mg8 3.051319 1_555
Mg1 Mg9 3.051319 1_555
Mg1 Mg6 3.051325 1_565
Mg1 Mg7 3.051325 1_565
Mg1 Mg12 3.070851 1_455
Mg1 Mg13 3.070851 1_455
Mg2 Mg4 3.084297 1_545
Mg2 Si0 3.084839 1_655
Mg2 Si0 3.084839 1_555
Mg2 Mg4 3.085381 1_555
Mg2 Mg7 3.127446 1_554
Mg2 Mg6 3.127446 1_555
Mg3 Mg7 3.051325 1_555
Mg3 Mg6 3.051325 1_555
Mg4 Si0 3.084839 1_555
Mg4 Si0 3.084839 1_665
Mg4 Mg9 3.127446 1_554
Mg4 Mg8 3.127446 1_555
Mg5 Mg8 3.051325 1_555
Mg5 Mg9 3.051325 1_555
Mg6 Mg8 3.002969 1_555
Mg6 Si0 3.086887 1_555
Mg6 Mg8 3.166709 1_545
Mg7 Mg9 3.002969 1_555
Mg7 Si0 3.086887 1_556
Mg7 Mg9 3.166709 1_545
Mg8 Si0 3.086893 1_555
Mg9 Si0 3.086893 1_556
Mg10 Mg8 3.002969 1_655
Mg10 Mg6 3.002969 1_655
Mg10 Mg3 3.051319 1_555
Mg10 Mg5 3.051325 1_545
Mg10 Mg12 3.085562 1_555
Mg10 Mg12 3.085562 1_545
Mg10 Si0 3.086893 1_655
Mg10 Mg2 3.127440 1_555
Mg10 Mg4 3.127446 1_545
Mg10 Mg8 3.166709 1_545
Mg10 Mg6 3.166709 1_555
Mg11 Mg9 3.002969 1_655
Mg11 Mg7 3.002969 1_655
Mg11 Mg3 3.051319 1_555
Mg11 Mg5 3.051325 1_545
Mg11 Mg13 3.085562 1_555
Mg11 Mg13 3.085562 1_545
Mg11 Si0 3.086893 1_656
Mg11 Mg2 3.127440 1_556
Mg11 Mg4 3.127446 1_546
Mg11 Mg9 3.166709 1_545
Mg11 Mg7 3.166709 1_555
Mg12 Mg5 3.070845 1_555
Mg12 Mg3 3.070851 1_555
Mg12 Mg4 3.075244 1_555
Mg12 Mg2 3.075250 1_555
Mg12 Mg6 3.085562 1_665
Mg12 Mg6 3.085562 1_555
Mg12 Mg8 3.085563 1_655
Mg12 Mg8 3.085563 1_555
Mg13 Mg5 3.070845 1_555
Mg13 Mg3 3.070851 1_555
Mg13 Mg4 3.075244 1_556
Mg13 Mg2 3.075250 1_556
Mg13 Mg7 3.085562 1_665
Mg13 Mg7 3.085562 1_555
Mg13 Mg9 3.085563 1_655
Mg13 Mg9 3.085563 1_555
B0 Mg7 3.008097 1_555
B0 Mg6 3.008097 1_555
B0 Mg9 3.008103 1_555
B0 Mg8 3.008103 1_555
B0 Mg10 3.008103 1_455
B0 Mg11 3.008103 1_455
