# generated using pymatgen
data_Ba2SrCa3Mg2(SiO4)4
_symmetry_space_group_name_H-M   'P 1'
_cell_length_a   5.50842400
_cell_length_b   6.94513800
_cell_length_c   9.53835345
_cell_angle_alpha   90.00148917
_cell_angle_beta   90.01749205
_cell_angle_gamma   90.00177370
_symmetry_Int_Tables_number   1
_chemical_formula_structural   Ba2SrCa3Mg2(SiO4)4
_chemical_formula_sum   'Ba2 Sr1 Ca3 Mg2 Si4 O16'
_cell_volume   364.90652771
_cell_formula_units_Z   1
loop_
 _symmetry_equiv_pos_site_id
 _symmetry_equiv_pos_as_xyz
  1  'x, y, z'
loop_
 _atom_site_type_symbol
 _atom_site_label
 _atom_site_symmetry_multiplicity
 _atom_site_fract_x
 _atom_site_fract_y
 _atom_site_fract_z
 _atom_site_occupancy
  Ba  Ba0  1  0.99999500  0.50011500  0.99940700  1
  Ba  Ba1  1  0.50006100  0.50021300  0.50061000  1
  Sr  Sr0  1  0.99786300  0.15839000  0.33284500  1
  Ca  Ca0  1  0.50340900  0.16529900  0.83384800  1
  Ca  Ca1  1  0.50024800  0.83394900  0.16538100  1
  Ca  Ca2  1  0.99970800  0.83460300  0.66789100  1
  Mg  Mg0  1  0.99977300  0.99985900  0.99798800  1
  Mg  Mg1  1  0.50028700  0.99961500  0.50210300  1
  Si  Si0  1  0.00028100  0.72918800  0.33345400  1
  Si  Si1  1  0.49972900  0.72629400  0.83321700  1
  Si  Si2  1  0.50141400  0.27330000  0.16377000  1
  Si  Si3  1  0.99839100  0.27317100  0.66954100  1
  O  O0  1  0.00081800  0.49708300  0.33338400  1
  O  O1  1  0.49934900  0.49252800  0.83328100  1
  O  O2  1  0.49950200  0.50719900  0.16579300  1
  O  O3  1  0.00040900  0.50703000  0.66750300  1
  O  O4  1  0.20660600  0.82396500  0.44046500  1
  O  O5  1  0.70619300  0.82107000  0.93985100  1
  O  O6  1  0.73657100  0.82259600  0.38365300  1
  O  O7  1  0.23671700  0.82228900  0.88261500  1
  O  O8  1  0.05674800  0.82366500  0.17656200  1
  O  O9  1  0.55735100  0.82119000  0.67686500  1
  O  O10  1  0.28737500  0.17792900  0.06277100  1
  O  O11  1  0.78228100  0.17787100  0.57034700  1
  O  O12  1  0.75645300  0.17882100  0.10323500  1
  O  O13  1  0.25833600  0.17688300  0.61534800  1
  O  O14  1  0.46613700  0.17758900  0.32224500  1
  O  O15  1  0.94799200  0.17829600  0.82602900  1
loop_
_geom_bond_atom_site_label_1
_geom_bond_atom_site_label_2
_geom_bond_distance
_geom_bond_site_symmetry_2
Ba0 O12 2.785772 1_556
Ba0 O15 2.794989 1_555
Ba0 O10 2.806757 1_656
Ba0 O5 2.812540 1_555
Ba0 O7 2.819355 1_655
Ba0 O8 2.828769 1_656
Ba0 O3 3.166185 1_655
Ba0 O1 3.175279 1_655
Ba0 O2 3.176350 1_656
Ba0 O1 3.180605 1_555
Ba0 O2 3.181897 1_556
Ba0 O0 3.185663 1_656
Ba1 O11 2.805474 1_555
Ba1 O9 2.809780 1_555
Ba1 O14 2.819494 1_555
Ba1 O6 2.820590 1_555
Ba1 O4 2.828001 1_555
Ba1 O13 2.830921 1_555
Ba1 O1 3.173587 1_555
Ba1 O0 3.178795 1_555
Ba1 O3 3.180274 1_555
Ba1 O3 3.182749 1_655
Ba1 O0 3.186856 1_655
Ba1 O2 3.193973 1_555
Ca0 O1 2.272768 1_555
Ca0 O15 2.451769 1_555
Ca0 O13 2.484105 1_555
Ca0 O10 2.488630 1_556
Ca0 O12 2.924358 1_556
Ca0 O11 2.947326 1_555
Ca1 O2 2.269331 1_555
Ca1 O5 2.433931 1_554
Ca1 O8 2.446386 1_555
Ca1 O6 2.456362 1_555
Ca1 O14 2.823118 1_565
Ca1 O10 2.835446 1_565
Ca1 O12 2.842602 1_565
Ca2 O3 2.275046 1_655
Ca2 O7 2.430003 1_655
Ca2 O9 2.439995 1_555
Ca2 O4 2.451850 1_655
Ca2 O13 2.816387 1_665
Ca2 O11 2.825487 1_565
Mg0 O15 2.075395 1_565
Mg0 O12 2.085644 1_566
Mg0 O10 2.102462 1_666
Mg0 O7 2.106265 1_655
Mg0 O5 2.112787 1_555
Mg0 O8 2.120604 1_656
Mg1 O11 2.090092 1_565
Mg1 O9 2.100689 1_555
Mg1 O4 2.109531 1_555
Mg1 O13 2.111797 1_565
Mg1 O6 2.117293 1_555
Mg1 O14 2.122794 1_565
O0 Si0 1.612004 1_555
O0 Sr0 2.352331 1_455
O1 Si1 1.623539 1_555
O2 Si2 1.624609 1_555
O3 Si3 1.624338 1_455
O4 Si0 1.663137 1_555
O4 Sr0 2.787481 1_465
O5 Si1 1.661455 1_555
O6 Si0 1.661538 1_655
O6 Sr0 2.783092 1_565
O7 Si1 1.663106 1_555
O8 Si0 1.663460 1_555
O8 Sr0 2.780610 1_465
O9 Si1 1.661186 1_555
O10 Si2 1.660152 1_555
O10 Sr0 3.033193 1_455
O11 Si3 1.658196 1_555
O11 Sr0 2.561655 1_555
O12 Si2 1.654729 1_555
O12 Sr0 2.565788 1_555
O13 Si3 1.662888 1_455
O13 Sr0 3.055108 1_455
O14 Si2 1.662754 1_555
O14 Sr0 2.584901 1_455
O14 Sr0 2.933722 1_555
O15 Si3 1.655146 1_555
