# generated using pymatgen
data_Ca3Mo2O7
_symmetry_space_group_name_H-M   'P 1'
_cell_length_a   10.23751597
_cell_length_b   10.23751597
_cell_length_c   5.60198464
_cell_angle_alpha   90.00000000
_cell_angle_beta   90.00000000
_cell_angle_gamma   148.91987803
_symmetry_Int_Tables_number   1
_chemical_formula_structural   Ca3Mo2O7
_chemical_formula_sum   'Ca6 Mo4 O14'
_cell_volume   303.09556107
_cell_formula_units_Z   2
loop_
 _symmetry_equiv_pos_site_id
 _symmetry_equiv_pos_as_xyz
  1  'x, y, z'
loop_
 _atom_site_type_symbol
 _atom_site_label
 _atom_site_symmetry_multiplicity
 _atom_site_fract_x
 _atom_site_fract_y
 _atom_site_fract_z
 _atom_site_occupancy
  Ca  Ca0  1  0.24170463  0.24170463  0.29871632  1
  Ca  Ca1  1  0.75829537  0.75829537  0.79871632  1
  Ca  Ca2  1  0.04904542  0.42874967  0.20165120  1
  Ca  Ca3  1  0.95095458  0.57125033  0.70165120  1
  Ca  Ca4  1  0.42874967  0.04904542  0.20165120  1
  Ca  Ca5  1  0.57125033  0.95095458  0.70165120  1
  Mo  Mo0  1  0.84750103  0.64784060  0.24986862  1
  Mo  Mo1  1  0.15249897  0.35215940  0.74986862  1
  Mo  Mo2  1  0.35215940  0.15249897  0.74986862  1
  Mo  Mo3  1  0.64784060  0.84750103  0.24986862  1
  O  O0  1  0.62632384  0.02610196  0.27978854  1
  O  O1  1  0.37367616  0.97389804  0.77978854  1
  O  O2  1  0.97389804  0.37367616  0.77978854  1
  O  O3  1  0.02610196  0.62632384  0.27978854  1
  O  O4  1  0.42882261  0.66280628  0.95528423  1
  O  O5  1  0.57117739  0.33719372  0.45528423  1
  O  O6  1  0.33719372  0.57117739  0.45528423  1
  O  O7  1  0.66280628  0.42882261  0.95528423  1
  O  O8  1  0.96511729  0.12814884  0.04712190  1
  O  O9  1  0.03488271  0.87185116  0.54712190  1
  O  O10  1  0.65752667  0.65752667  0.21384970  1
  O  O11  1  0.34247333  0.34247333  0.71384970  1
  O  O12  1  0.12814884  0.96511729  0.04712190  1
  O  O13  1  0.87185116  0.03488271  0.54712190  1
loop_
_geom_bond_atom_site_label_1
_geom_bond_atom_site_label_2
_geom_bond_distance
_geom_bond_site_symmetry_2
Ca0 O10 2.330014 1_555
Ca0 O11 2.390362 1_555
Ca0 O8 2.391081 1_455
Ca0 O12 2.391081 1_545
Ca0 O9 2.650264 1_545
Ca0 O13 2.650264 1_455
Ca0 O5 2.730197 1_555
Ca0 O6 2.730197 1_555
Ca1 O11 2.330014 1_555
Ca1 O10 2.390362 1_556
Ca1 O9 2.391081 1_655
Ca1 O13 2.391081 1_565
Ca1 O8 2.650264 1_566
Ca1 O12 2.650264 1_656
Ca1 O7 2.730197 1_555
Ca1 O4 2.730197 1_555
Ca2 O3 2.269745 1_555
Ca2 O0 2.314201 1_455
Ca2 O6 2.340783 1_555
Ca2 O2 2.398292 1_454
Ca2 O8 2.535530 1_455
Ca2 O4 2.608652 1_554
Ca3 O2 2.269745 1_555
Ca3 O1 2.314201 1_655
Ca3 O7 2.340783 1_555
Ca3 O3 2.398292 1_655
Ca3 O9 2.535530 1_655
Ca3 O5 2.608652 1_555
Ca4 O0 2.269745 1_555
Ca4 O3 2.314201 1_545
Ca4 O5 2.340783 1_555
Ca4 O1 2.398292 1_544
Ca4 O12 2.535530 1_545
Ca4 O7 2.608652 1_554
Ca5 O1 2.269745 1_555
Ca5 O2 2.314201 1_565
Ca5 O4 2.340783 1_555
Ca5 O0 2.398292 1_565
Ca5 O13 2.535530 1_565
Ca5 O6 2.608652 1_555
Mo0 O5 2.007643 1_555
Mo0 O7 2.015946 1_554
Mo0 O3 2.027230 1_655
Mo0 O12 2.027313 1_655
Mo0 O10 2.040439 1_555
Mo0 O9 2.043676 1_655
Mo1 O4 2.007643 1_555
Mo1 O6 2.015946 1_555
Mo1 O2 2.027230 1_455
Mo1 O13 2.027313 1_455
Mo1 O11 2.040439 1_555
Mo1 O8 2.043676 1_456
Mo2 O7 2.007643 1_555
Mo2 O5 2.015946 1_555
Mo2 O1 2.027230 1_545
Mo2 O9 2.027313 1_545
Mo2 O11 2.040439 1_555
Mo2 O12 2.043676 1_546
Mo3 O6 2.007643 1_555
Mo3 O4 2.015946 1_554
Mo3 O0 2.027230 1_565
Mo3 O8 2.027313 1_565
Mo3 O10 2.040439 1_555
Mo3 O13 2.043676 1_565
