# generated using pymatgen
data_Zn2Mo(WO4)2
_symmetry_space_group_name_H-M   'P 1'
_cell_length_a   6.30344500
_cell_length_b   6.33827068
_cell_length_c   9.48810683
_cell_angle_alpha   89.62006825
_cell_angle_beta   89.72611396
_cell_angle_gamma   60.41295574
_symmetry_Int_Tables_number   1
_chemical_formula_structural   Zn2Mo(WO4)2
_chemical_formula_sum   'Zn4 Mo2 W4 O16'
_cell_volume   329.64078688
_cell_formula_units_Z   2
loop_
 _symmetry_equiv_pos_site_id
 _symmetry_equiv_pos_as_xyz
  1  'x, y, z'
loop_
 _atom_site_type_symbol
 _atom_site_label
 _atom_site_symmetry_multiplicity
 _atom_site_fract_x
 _atom_site_fract_y
 _atom_site_fract_z
 _atom_site_occupancy
  Zn  Zn0  1  0.33205300  0.33731700  0.03667100  1
  Zn  Zn1  1  0.65903300  0.67215900  0.53969400  1
  Zn  Zn2  1  0.33166100  0.33427600  0.41582000  1
  Zn  Zn3  1  0.67395600  0.66327500  0.91532800  1
  Mo  Mo0  1  0.16581800  0.67101200  0.74171500  1
  Mo  Mo1  1  0.16721900  0.16580100  0.74521900  1
  W  W0  1  0.67630400  0.16254400  0.74305600  1
  W  W1  1  0.83570000  0.32887800  0.24312300  1
  W  W2  1  0.83519900  0.83681100  0.24330000  1
  W  W3  1  0.32808900  0.83670900  0.24307000  1
  O  O0  1  0.98886100  0.99899600  0.85410800  1
  O  O1  1  0.99923200  0.00093200  0.35496800  1
  O  O2  1  0.50460600  0.02965400  0.86560900  1
  O  O3  1  0.48780600  0.47727800  0.86739300  1
  O  O4  1  0.03210300  0.49083100  0.86843600  1
  O  O5  1  0.51540000  0.96772900  0.36719600  1
  O  O6  1  0.51538500  0.51632000  0.36452000  1
  O  O7  1  0.96296100  0.51829600  0.36940400  1
  O  O8  1  0.34860500  0.32965300  0.62787000  1
  O  O9  1  0.66643600  0.66747500  0.12632900  1
  O  O10  1  0.16490100  0.67026000  0.14323700  1
  O  O11  1  0.16629600  0.16615400  0.14250500  1
  O  O12  1  0.67096900  0.16474200  0.14235300  1
  O  O13  1  0.80959700  0.33178600  0.64128400  1
  O  O14  1  0.83193400  0.83772800  0.64388500  1
  O  O15  1  0.32987600  0.82338500  0.64090500  1
loop_
_geom_bond_atom_site_label_1
_geom_bond_atom_site_label_2
_geom_bond_distance
_geom_bond_site_symmetry_2
Mo0 O15 1.970174 1_555
Mo0 O14 2.053575 1_455
Mo0 O4 2.093546 1_555
Mo0 O0 2.105049 1_455
Mo0 O3 2.142850 1_555
Mo0 O8 2.175538 1_555
Mo1 O15 2.136008 1_545
Mo1 O0 2.144143 1_445
Mo1 O4 2.150830 1_555
Mo1 O2 2.184080 1_555
Mo1 O8 2.184168 1_555
Mo1 O13 2.196933 1_455
O0 W0 2.013707 1_565
O1 W2 2.088302 1_545
O1 W3 2.090603 1_645
O1 W1 2.091575 1_555
O2 W0 2.026840 1_555
O2 Zn3 2.072942 1_545
O2 Zn0 2.355982 1_556
O3 Zn3 2.086074 1_555
O3 W0 2.111923 1_555
O3 Zn0 2.270812 1_556
O4 Zn3 2.012306 1_455
O4 Zn0 2.293709 1_556
O5 Zn2 2.074566 1_565
O5 W3 2.113108 1_555
O5 W2 2.114833 1_555
O5 Zn1 2.303617 1_555
O6 Zn2 2.053329 1_555
O6 W1 2.107613 1_555
O6 W3 2.111867 1_555
O6 Zn1 2.340378 1_555
O7 Zn2 2.069267 1_655
O7 W1 2.121275 1_555
O7 W2 2.127796 1_555
O7 Zn1 2.319107 1_555
O8 Zn2 2.014548 1_555
O8 W0 2.104483 1_555
O9 Zn3 2.002377 1_554
O9 W3 2.158748 1_555
O9 W2 2.160997 1_555
O9 W1 2.165830 1_555
O10 W3 2.040242 1_555
O10 W2 2.040316 1_455
O10 Zn0 2.099581 1_555
O11 W1 2.046802 1_455
O11 W3 2.047121 1_545
O11 Zn0 2.090900 1_555
O12 W1 2.040615 1_555
O12 W2 2.041459 1_545
O12 Zn0 2.112873 1_555
O13 W0 1.912481 1_555
O13 Zn1 2.107933 1_555
O14 W0 2.027006 1_565
O14 Zn1 2.102349 1_555
O15 Zn1 2.043308 1_555
