# generated using pymatgen
data_LiFe7O7F
_symmetry_space_group_name_H-M   'P 1'
_cell_length_a   3.56217266
_cell_length_b   3.56217266
_cell_length_c   17.72954200
_cell_angle_alpha   90.00000000
_cell_angle_beta   90.00000000
_cell_angle_gamma   118.37082680
_symmetry_Int_Tables_number   1
_chemical_formula_structural   LiFe7O7F
_chemical_formula_sum   'Li1 Fe7 O7 F1'
_cell_volume   197.95028964
_cell_formula_units_Z   1
loop_
 _symmetry_equiv_pos_site_id
 _symmetry_equiv_pos_as_xyz
  1  'x, y, z'
loop_
 _atom_site_type_symbol
 _atom_site_label
 _atom_site_symmetry_multiplicity
 _atom_site_fract_x
 _atom_site_fract_y
 _atom_site_fract_z
 _atom_site_occupancy
  Li  Li0  1  0.67060100  0.32939900  0.50000000  1
  Fe  Fe0  1  0.67422800  0.32577200  0.00000000  1
  Fe  Fe1  1  0.67115500  0.32884500  0.74861100  1
  Fe  Fe2  1  0.67115500  0.32884500  0.25138900  1
  Fe  Fe3  1  0.34304100  0.65695900  0.87532000  1
  Fe  Fe4  1  0.33434900  0.66565100  0.37564200  1
  Fe  Fe5  1  0.34304100  0.65695900  0.12468000  1
  Fe  Fe6  1  0.33434900  0.66565100  0.62435800  1
  O  O0  1  0.66487400  0.33512600  0.62065400  1
  O  O1  1  0.67086800  0.32913200  0.87534100  1
  O  O2  1  0.66487400  0.33512600  0.37934600  1
  O  O3  1  0.67086800  0.32913200  0.12465900  1
  O  O4  1  0.32026600  0.67973400  0.00000000  1
  O  O5  1  0.31688700  0.68311300  0.74947300  1
  O  O6  1  0.31688700  0.68311300  0.25052700  1
  F  F0  1  0.32979100  0.67020900  0.50000000  1
loop_
_geom_bond_atom_site_label_1
_geom_bond_atom_site_label_2
_geom_bond_distance
_geom_bond_site_symmetry_2
Li0 O2 2.139427 1_555
Li0 O0 2.139427 1_555
Fe0 O4 2.031795 1_655
Fe0 O4 2.031795 1_545
Fe0 O4 2.165751 1_555
Fe0 O1 2.210243 1_554
Fe0 O3 2.210243 1_555
Fe1 O5 2.031030 1_655
Fe1 O5 2.031030 1_545
Fe1 O5 2.167677 1_555
Fe1 O1 2.246866 1_555
Fe1 O0 2.268944 1_555
Fe2 O6 2.031030 1_655
Fe2 O6 2.031030 1_545
Fe2 O6 2.167677 1_555
Fe2 O3 2.246866 1_555
Fe2 O2 2.268944 1_555
Fe3 O1 2.005842 1_555
Fe3 O1 2.107021 1_455
Fe3 O1 2.107021 1_565
Fe3 O4 2.214907 1_556
Fe3 O5 2.236941 1_555
Fe4 O2 2.023416 1_555
Fe4 O2 2.099843 1_565
Fe4 O2 2.099843 1_455
Fe4 O6 2.220803 1_555
Fe5 O3 2.005842 1_555
Fe5 O3 2.107021 1_455
Fe5 O3 2.107021 1_565
Fe5 O4 2.214907 1_555
Fe5 O6 2.236941 1_555
Fe6 O0 2.023416 1_555
Fe6 O0 2.099843 1_565
Fe6 O0 2.099843 1_455
Fe6 O5 2.220803 1_555
F0 Li0 2.068448 1_455
F0 Li0 2.068448 1_565
F0 Li0 2.085279 1_555
F0 Fe6 2.204987 1_555
F0 Fe4 2.204987 1_555
