# generated using pymatgen
data_Sr2GaMo2O7
_symmetry_space_group_name_H-M   'P 1'
_cell_length_a   11.91148860
_cell_length_b   11.91148860
_cell_length_c   5.74285194
_cell_angle_alpha   76.09624464
_cell_angle_beta   76.09624464
_cell_angle_gamma   27.09122006
_symmetry_Int_Tables_number   1
_chemical_formula_structural   Sr2GaMo2O7
_chemical_formula_sum   'Sr4 Ga2 Mo4 O14'
_cell_volume   359.56089822
_cell_formula_units_Z   2
loop_
 _symmetry_equiv_pos_site_id
 _symmetry_equiv_pos_as_xyz
  1  'x, y, z'
loop_
 _atom_site_type_symbol
 _atom_site_label
 _atom_site_symmetry_multiplicity
 _atom_site_fract_x
 _atom_site_fract_y
 _atom_site_fract_z
 _atom_site_occupancy
  Sr  Sr0  1  0.15466900  0.14701100  0.32672500  1
  Sr  Sr1  1  0.85298900  0.84533100  0.67327500  1
  Sr  Sr2  1  0.65286700  0.64835900  0.86789700  1
  Sr  Sr3  1  0.35164100  0.34713300  0.13210300  1
  Ga  Ga0  1  0.28754900  0.20824300  0.67761200  1
  Ga  Ga1  1  0.79175700  0.71245100  0.32238800  1
  Mo  Mo0  1  0.43728700  0.43859900  0.56222400  1
  Mo  Mo1  1  0.06843100  0.07067000  0.92696100  1
  Mo  Mo2  1  0.92933000  0.93156900  0.07303900  1
  Mo  Mo3  1  0.56140100  0.56271300  0.43777600  1
  O  O0  1  0.32696700  0.80892300  0.19058400  1
  O  O1  1  0.62814100  0.87244500  0.61619000  1
  O  O2  1  0.82133200  0.32663900  0.18059600  1
  O  O3  1  0.81382200  0.84433100  0.13243700  1
  O  O4  1  0.16944900  0.66570800  0.33659100  1
  O  O5  1  0.66309400  0.18622800  0.33744900  1
  O  O6  1  0.12755500  0.37185900  0.38381000  1
  O  O7  1  0.67336100  0.17866800  0.81940400  1
  O  O8  1  0.19107700  0.67303300  0.80941600  1
  O  O9  1  0.28706000  0.34985500  0.74872800  1
  O  O10  1  0.15566900  0.18617800  0.86756300  1
  O  O11  1  0.65014500  0.71294000  0.25127200  1
  O  O12  1  0.33429200  0.83055100  0.66340900  1
  O  O13  1  0.81377200  0.33690600  0.66255100  1
loop_
_geom_bond_atom_site_label_1
_geom_bond_atom_site_label_2
_geom_bond_distance
_geom_bond_site_symmetry_2
Ga0 O9 1.823348 1_555
Ga0 O10 1.870979 1_555
Ga0 O6 1.904927 1_555
Ga0 O1 1.918026 1_545
Ga1 O11 1.823348 1_555
Ga1 O3 1.870979 1_555
Ga1 O1 1.904927 1_555
Ga1 O6 1.918026 1_655
Mo0 O8 1.932944 1_555
Mo0 O5 1.933120 1_555
Mo0 O7 1.992713 1_555
Mo0 O4 2.027402 1_555
Mo0 O9 2.714678 1_555
Mo1 O12 2.036993 1_545
Mo1 O2 2.043526 1_456
Mo1 O13 2.082068 1_455
Mo1 O0 2.091066 1_546
Mo1 O10 2.288883 1_555
Mo2 O4 2.036993 1_655
Mo2 O7 2.043526 1_564
Mo2 O5 2.082068 1_565
Mo2 O8 2.091066 1_654
Mo2 O3 2.288883 1_555
Mo3 O0 1.932944 1_555
Mo3 O13 1.933120 1_555
Mo3 O2 1.992713 1_555
Mo3 O12 2.027402 1_555
Mo3 O11 2.714678 1_555
O0 Sr0 2.658338 1_565
O0 Sr2 2.681031 1_554
O1 Sr1 2.493157 1_555
O1 Sr2 2.500287 1_555
O2 Sr0 2.580519 1_655
O2 Sr2 2.582490 1_554
O3 Sr1 2.564102 1_554
O3 Sr3 2.732912 1_565
O3 Sr3 2.925583 1_655
O4 Sr1 2.578840 1_455
O4 Sr3 2.596552 1_555
O5 Sr3 2.680113 1_555
O5 Sr1 2.702413 1_545
O6 Sr0 2.493157 1_555
O6 Sr3 2.500287 1_555
O7 Sr1 2.580519 1_545
O7 Sr3 2.582490 1_556
O8 Sr1 2.658338 1_455
O8 Sr3 2.681031 1_556
O9 Sr3 2.485027 1_556
O9 Sr1 2.695647 1_455
O9 Sr1 3.075713 1_545
O10 Sr0 2.564102 1_556
O10 Sr2 2.732912 1_455
O10 Sr2 2.925583 1_545
O11 Sr2 2.485027 1_554
O11 Sr0 2.695647 1_565
O11 Sr0 3.075713 1_655
O12 Sr0 2.578840 1_565
O12 Sr2 2.596552 1_555
O13 Sr2 2.680113 1_555
O13 Sr0 2.702413 1_655
