# generated using pymatgen
data_La2NiRhO6
_symmetry_space_group_name_H-M   'P 1'
_cell_length_a   5.71422300
_cell_length_b   9.69057604
_cell_length_c   9.68113547
_cell_angle_alpha   70.29294539
_cell_angle_beta   90.00234942
_cell_angle_gamma   90.00208429
_symmetry_Int_Tables_number   1
_chemical_formula_structural   La2NiRhO6
_chemical_formula_sum   'La8 Ni4 Rh4 O24'
_cell_volume   504.68530893
_cell_formula_units_Z   4
loop_
 _symmetry_equiv_pos_site_id
 _symmetry_equiv_pos_as_xyz
  1  'x, y, z'
loop_
 _atom_site_type_symbol
 _atom_site_label
 _atom_site_symmetry_multiplicity
 _atom_site_fract_x
 _atom_site_fract_y
 _atom_site_fract_z
 _atom_site_occupancy
  La  La0  1  0.55262100  0.88176600  0.36869400  1
  La  La1  1  0.55192600  0.38092300  0.87033000  1
  La  La2  1  0.05196200  0.11919900  0.12956400  1
  La  La3  1  0.05265600  0.61817400  0.63145700  1
  La  La4  1  0.44754500  0.11793600  0.63143900  1
  La  La5  1  0.44790300  0.61936300  0.12956500  1
  La  La6  1  0.94782500  0.88063800  0.87034300  1
  La  La7  1  0.94753900  0.38200900  0.36860900  1
  Ni  Ni0  1  0.49996400  0.49999700  0.50000400  1
  Ni  Ni1  1  0.99998300  0.00001000  0.50000400  1
  Ni  Ni2  1  0.49998400  0.99999700  0.00001100  1
  Ni  Ni3  1  0.00002000  0.50000800  0.99999200  1
  Rh  Rh0  1  0.49932700  0.24993800  0.25093300  1
  Rh  Rh1  1  0.50068200  0.75003100  0.74907700  1
  Rh  Rh2  1  0.00063600  0.74991500  0.25089700  1
  Rh  Rh3  1  0.99928500  0.25005300  0.74909400  1
  O  O0  1  0.79688200  0.92039100  0.12795300  1
  O  O1  1  0.79714500  0.42164100  0.62726600  1
  O  O2  1  0.29729200  0.07833100  0.37279800  1
  O  O3  1  0.29682600  0.57958600  0.87208800  1
  O  O4  1  0.20301400  0.07972300  0.87198400  1
  O  O5  1  0.20301700  0.57827800  0.37281300  1
  O  O6  1  0.70294900  0.92177000  0.62712400  1
  O  O7  1  0.70295500  0.42028700  0.12798700  1
  O  O8  1  0.20801000  0.87386200  0.67541100  1
  O  O9  1  0.20952400  0.37357000  0.17416800  1
  O  O10  1  0.70948600  0.12638400  0.82586100  1
  O  O11  1  0.70813300  0.62617000  0.32461600  1
  O  O12  1  0.79180400  0.12614600  0.32452700  1
  O  O13  1  0.79069800  0.62647600  0.82584800  1
  O  O14  1  0.29068900  0.87355800  0.17413400  1
  O  O15  1  0.29175800  0.37385900  0.67540600  1
  O  O16  1  0.97506400  0.82789600  0.42006700  1
  O  O17  1  0.97584300  0.32945100  0.91812000  1
  O  O18  1  0.47499500  0.67209000  0.57993300  1
  O  O19  1  0.47583200  0.17055400  0.08184700  1
  O  O20  1  0.02492200  0.17217300  0.57994400  1
  O  O21  1  0.02414900  0.67052900  0.08183300  1
  O  O22  1  0.52502600  0.32783300  0.42001800  1
  O  O23  1  0.52412900  0.82948200  0.91824200  1
loop_
_geom_bond_atom_site_label_1
_geom_bond_atom_site_label_2
_geom_bond_distance
_geom_bond_site_symmetry_2
La0 O18 2.388528 1_555
La0 O2 2.410373 1_565
La0 O14 2.427994 1_555
La0 O16 2.484319 1_555
La0 O0 2.632879 1_555
La0 O12 2.641212 1_565
La0 O6 2.793130 1_555
La0 O11 2.796368 1_555
La1 O19 2.392230 1_556
La1 O3 2.419445 1_555
La1 O15 2.421325 1_555
La1 O17 2.484958 1_555
La1 O13 2.649151 1_555
La1 O1 2.651496 1_555
La1 O7 2.784586 1_556
La1 O10 2.792234 1_555
La2 O17 2.391211 1_454
La2 O0 2.420021 1_445
La2 O12 2.421356 1_455
La2 O19 2.484458 1_555
La2 O14 2.649689 1_545
La2 O2 2.652904 1_555
La2 O4 2.784474 1_554
La2 O9 2.791236 1_555
La3 O16 2.389571 1_455
La3 O1 2.410908 1_455
La3 O13 2.427166 1_455
La3 O18 2.483997 1_555
La3 O3 2.631681 1_555
La3 O15 2.640811 1_555
La3 O5 2.794751 1_555
La3 O8 2.796307 1_555
La4 O22 2.390581 1_555
La4 O6 2.408135 1_545
La4 O10 2.427661 1_555
La4 O20 2.485980 1_555
La4 O4 2.632736 1_555
La4 O8 2.640024 1_545
La4 O2 2.793221 1_555
La4 O15 2.799353 1_555
La5 O23 2.389934 1_554
La5 O11 2.421789 1_555
La5 O7 2.421996 1_555
La5 O21 2.483576 1_555
La5 O9 2.649793 1_555
La5 O5 2.651450 1_555
La5 O3 2.784790 1_554
La5 O14 2.788916 1_555
La6 O21 2.390898 1_656
La6 O8 2.420733 1_655
La6 O4 2.422619 1_665
La6 O23 2.483434 1_555
La6 O10 2.649527 1_565
La6 O6 2.651030 1_555
La6 O0 2.785735 1_556
La6 O13 2.788064 1_555
La7 O20 2.389667 1_655
La7 O5 2.408795 1_655
La7 O9 2.428033 1_655
La7 O22 2.485180 1_555
La7 O7 2.633334 1_555
La7 O11 2.640394 1_555
La7 O1 2.793802 1_555
La7 O12 2.799147 1_555
Ni0 O18 2.066549 1_555
Ni0 O22 2.067585 1_555
Ni0 O5 2.083468 1_555
Ni0 O1 2.084999 1_555
Ni0 O11 2.095924 1_555
Ni0 O15 2.096022 1_555
Ni1 O16 2.066757 1_545
Ni1 O20 2.067227 1_655
Ni1 O6 2.083523 1_545
Ni1 O2 2.085323 1_655
Ni1 O8 2.095473 1_645
Ni1 O12 2.096346 1_555
Ni2 O23 2.063563 1_554
Ni2 O19 2.064368 1_565
Ni2 O0 2.088791 1_555
Ni2 O4 2.089708 1_564
Ni2 O14 2.092913 1_555
Ni2 O10 2.093590 1_564
Ni3 O21 2.064054 1_556
Ni3 O17 2.064593 1_455
Ni3 O3 2.088183 1_555
Ni3 O7 2.090032 1_456
Ni3 O13 2.093185 1_455
Ni3 O9 2.093877 1_556
O0 Rh2 2.043357 1_655
O1 Rh3 2.041446 1_555
O2 Rh0 2.041316 1_555
O3 Rh1 2.043694 1_555
O4 Rh3 2.042248 1_455
O5 Rh2 2.042778 1_555
O6 Rh1 2.043117 1_555
O7 Rh0 2.042187 1_555
O8 Rh1 2.041659 1_555
O9 Rh0 2.032131 1_555
O10 Rh3 2.032262 1_555
O11 Rh2 2.040531 1_655
O12 Rh0 2.040464 1_555
O13 Rh1 2.032785 1_555
O14 Rh2 2.033320 1_555
O15 Rh3 2.040623 1_455
O16 Rh2 2.027157 1_655
O17 Rh3 2.033906 1_555
O18 Rh1 2.026705 1_555
O19 Rh0 2.034367 1_555
O20 Rh3 2.026371 1_455
O21 Rh2 2.034200 1_555
O22 Rh0 2.025889 1_555
O23 Rh1 2.035483 1_555
