# generated using pymatgen
data_Sr(NiB)2
_symmetry_space_group_name_H-M   'P 1'
_cell_length_a   3.24972800
_cell_length_b   6.28179000
_cell_length_c   13.38479500
_cell_angle_alpha   90.00000000
_cell_angle_beta   90.00000000
_cell_angle_gamma   90.00000000
_symmetry_Int_Tables_number   1
_chemical_formula_structural   Sr(NiB)2
_chemical_formula_sum   'Sr4 Ni8 B8'
_cell_volume   273.23866211
_cell_formula_units_Z   4
loop_
 _symmetry_equiv_pos_site_id
 _symmetry_equiv_pos_as_xyz
  1  'x, y, z'
loop_
 _atom_site_type_symbol
 _atom_site_label
 _atom_site_symmetry_multiplicity
 _atom_site_fract_x
 _atom_site_fract_y
 _atom_site_fract_z
 _atom_site_occupancy
  Sr  Sr0  1  0.50000000  0.64137700  0.39826900  1
  Sr  Sr1  1  0.50000000  0.35862300  0.60173100  1
  Sr  Sr2  1  0.00000000  0.85862300  0.89826900  1
  Sr  Sr3  1  0.00000000  0.14137700  0.10173100  1
  Ni  Ni0  1  0.50000000  0.69427600  0.13038900  1
  Ni  Ni1  1  0.50000000  0.30572400  0.86961100  1
  Ni  Ni2  1  0.00000000  0.80572400  0.63038900  1
  Ni  Ni3  1  0.00000000  0.19427600  0.36961100  1
  Ni  Ni4  1  0.50000000  0.62378100  0.75829200  1
  Ni  Ni5  1  0.50000000  0.37621900  0.24170800  1
  Ni  Ni6  1  0.00000000  0.87621900  0.25829200  1
  Ni  Ni7  1  0.00000000  0.12378100  0.74170800  1
  B  B0  1  0.50000000  0.07208500  0.44609100  1
  B  B1  1  0.50000000  0.92791500  0.55390900  1
  B  B2  1  0.00000000  0.42791500  0.94609100  1
  B  B3  1  0.00000000  0.57208500  0.05390900  1
  B  B4  1  0.50000000  0.06059500  0.30986400  1
  B  B5  1  0.50000000  0.93940500  0.69013600  1
  B  B6  1  0.00000000  0.43940500  0.80986400  1
  B  B7  1  0.00000000  0.56059500  0.19013600  1
loop_
_geom_bond_atom_site_label_1
_geom_bond_atom_site_label_2
_geom_bond_distance
_geom_bond_site_symmetry_2
Ni4 Sr1 2.676886 1_555
Ni4 Sr2 2.885606 1_555
Ni4 Sr2 2.885606 1_655
Ni5 Sr0 2.676886 1_555
Ni5 Sr3 2.885606 1_555
Ni5 Sr3 2.885606 1_655
Ni6 Sr3 2.676886 1_565
Ni6 Sr0 2.885606 1_455
Ni6 Sr0 2.885606 1_555
Ni7 Sr2 2.676886 1_545
Ni7 Sr1 2.885606 1_455
Ni7 Sr1 2.885606 1_555
B0 B1 1.703759 1_545
B0 B4 1.824798 1_555
B0 Ni3 2.068153 1_555
B0 Ni3 2.068153 1_655
B0 Sr1 2.753118 1_555
B0 Sr0 2.780302 1_545
B1 B5 1.824798 1_555
B1 Ni2 2.068153 1_555
B1 Ni2 2.068153 1_655
B1 Sr0 2.753118 1_555
B1 Sr1 2.780302 1_565
B2 B3 1.703759 1_556
B2 B6 1.824798 1_555
B2 Ni1 2.068153 1_455
B2 Ni1 2.068153 1_555
B2 Sr3 2.753118 1_556
B2 Sr2 2.780302 1_555
B3 B7 1.824798 1_555
B3 Ni0 2.068153 1_455
B3 Ni0 2.068153 1_555
B3 Sr2 2.753118 1_554
B3 Sr3 2.780302 1_555
B4 Ni3 1.996220 1_555
B4 Ni3 1.996220 1_655
B4 Ni6 2.111427 1_645
B4 Ni6 2.111427 1_545
B4 Ni5 2.182485 1_555
B5 Ni2 1.996220 1_555
B5 Ni2 1.996220 1_655
B5 Ni7 2.111427 1_565
B5 Ni7 2.111427 1_665
B5 Ni4 2.182485 1_555
B6 Ni1 1.996220 1_555
B6 Ni1 1.996220 1_455
B6 Ni4 2.111427 1_455
B6 Ni4 2.111427 1_555
B6 Ni7 2.182485 1_555
B7 Ni0 1.996220 1_455
B7 Ni0 1.996220 1_555
B7 Ni5 2.111427 1_455
B7 Ni5 2.111427 1_555
B7 Ni6 2.182485 1_555
