# generated using pymatgen
data_HfN2
_symmetry_space_group_name_H-M   'P 1'
_cell_length_a   5.12818900
_cell_length_b   5.12818900
_cell_length_c   5.12818900
_cell_angle_alpha   90.00000000
_cell_angle_beta   90.00000000
_cell_angle_gamma   90.00000000
_symmetry_Int_Tables_number   1
_chemical_formula_structural   HfN2
_chemical_formula_sum   'Hf4 N8'
_cell_volume   134.86276775
_cell_formula_units_Z   4
loop_
 _symmetry_equiv_pos_site_id
 _symmetry_equiv_pos_as_xyz
  1  'x, y, z'
loop_
 _atom_site_type_symbol
 _atom_site_label
 _atom_site_symmetry_multiplicity
 _atom_site_fract_x
 _atom_site_fract_y
 _atom_site_fract_z
 _atom_site_occupancy
  Hf  Hf0  1  0.50000000  0.50000000  0.00000000  1
  Hf  Hf1  1  0.50000000  0.00000000  0.50000000  1
  Hf  Hf2  1  0.00000000  0.50000000  0.50000000  1
  Hf  Hf3  1  0.00000000  0.00000000  0.00000000  1
  N  N0  1  0.08525200  0.91474800  0.41474800  1
  N  N1  1  0.91474800  0.41474800  0.08525200  1
  N  N2  1  0.41474800  0.08525200  0.91474800  1
  N  N3  1  0.58525200  0.58525200  0.58525200  1
  N  N4  1  0.91474800  0.08525200  0.58525200  1
  N  N5  1  0.08525200  0.58525200  0.91474800  1
  N  N6  1  0.58525200  0.91474800  0.08525200  1
  N  N7  1  0.41474800  0.41474800  0.41474800  1
loop_
_geom_bond_atom_site_label_1
_geom_bond_atom_site_label_2
_geom_bond_distance
_geom_bond_site_symmetry_2
Hf0 N5 2.214949 1_554
Hf0 N6 2.214949 1_555
Hf0 N2 2.214949 1_554
Hf0 N7 2.214949 1_555
Hf0 N3 2.214949 1_554
Hf0 N1 2.214949 1_555
Hf1 N3 2.214949 1_545
Hf1 N6 2.214949 1_545
Hf1 N2 2.214949 1_555
Hf1 N7 2.214949 1_555
Hf1 N0 2.214949 1_545
Hf1 N4 2.214949 1_555
Hf2 N5 2.214949 1_555
Hf2 N7 2.214949 1_555
Hf2 N3 2.214949 1_455
Hf2 N0 2.214949 1_555
Hf2 N4 2.214949 1_455
Hf2 N1 2.214949 1_455
Hf3 N4 2.214949 1_454
Hf3 N6 2.214949 1_445
Hf3 N2 2.214949 1_554
Hf3 N0 2.214949 1_545
Hf3 N5 2.214949 1_544
Hf3 N1 2.214949 1_455
N0 N4 1.514465 1_465
N1 N5 1.514465 1_654
N2 N6 1.514465 1_546
N3 N7 1.514465 1_555
