# generated using pymatgen
data_NiSb2H8(O3F4)2
_symmetry_space_group_name_H-M   'P 1'
_cell_length_a   5.02285027
_cell_length_b   17.46978100
_cell_length_c   7.61917335
_cell_angle_alpha   90.00000000
_cell_angle_beta   119.09705742
_cell_angle_gamma   90.00000000
_symmetry_Int_Tables_number   1
_chemical_formula_structural   NiSb2H8(O3F4)2
_chemical_formula_sum   'Ni2 Sb4 H16 O12 F16'
_cell_volume   584.19279408
_cell_formula_units_Z   2
loop_
 _symmetry_equiv_pos_site_id
 _symmetry_equiv_pos_as_xyz
  1  'x, y, z'
loop_
 _atom_site_type_symbol
 _atom_site_label
 _atom_site_symmetry_multiplicity
 _atom_site_fract_x
 _atom_site_fract_y
 _atom_site_fract_z
 _atom_site_occupancy
  Ni  Ni0  1  0.50000000  0.50000000  0.00000000  1
  Ni  Ni1  1  0.50000000  0.00000000  0.50000000  1
  Sb  Sb0  1  0.11783300  0.28329300  0.52268600  1
  Sb  Sb1  1  0.88216700  0.78329300  0.97731400  1
  Sb  Sb2  1  0.88216700  0.71670700  0.47731400  1
  Sb  Sb3  1  0.11783300  0.21670700  0.02268600  1
  H  H0  1  0.77785600  0.38896900  0.99164000  1
  H  H1  1  0.22214400  0.88896900  0.50836000  1
  H  H2  1  0.22214400  0.61103100  0.00836000  1
  H  H3  1  0.77785600  0.11103100  0.49164000  1
  H  H4  1  0.32289300  0.39522200  0.14527900  1
  H  H5  1  0.67710700  0.89522200  0.35472100  1
  H  H6  1  0.67710700  0.60477800  0.85472100  1
  H  H7  1  0.32289300  0.10477800  0.64527900  1
  H  H8  1  0.68081000  0.42077200  0.30298100  1
  H  H9  1  0.31919000  0.92077200  0.19701900  1
  H  H10  1  0.31919000  0.57922800  0.69701900  1
  H  H11  1  0.68081000  0.07922800  0.80298100  1
  H  H12  1  0.08136600  0.45354900  0.69972100  1
  H  H13  1  0.91863400  0.95354900  0.80027900  1
  H  H14  1  0.91863400  0.54645100  0.30027900  1
  H  H15  1  0.08136600  0.04645100  0.19972100  1
  O  O0  1  0.59632700  0.41768800  0.88888500  1
  O  O1  1  0.40367300  0.91768800  0.61111500  1
  O  O2  1  0.40367300  0.58231200  0.11111500  1
  O  O3  1  0.59632700  0.08231200  0.38888500  1
  O  O4  1  0.47128900  0.43906800  0.19410700  1
  O  O5  1  0.52871100  0.93906800  0.30589300  1
  O  O6  1  0.52871100  0.56093200  0.80589300  1
  O  O7  1  0.47128900  0.06093200  0.69410700  1
  O  O8  1  0.09487200  0.48188900  0.81825000  1
  O  O9  1  0.90512800  0.98188900  0.68175000  1
  O  O10  1  0.90512800  0.51811100  0.18175000  1
  O  O11  1  0.09487200  0.01811100  0.31825000  1
  F  F0  1  0.08083900  0.17115700  0.62171500  1
  F  F1  1  0.91916100  0.67115700  0.87828500  1
  F  F2  1  0.91916100  0.82884300  0.37828500  1
  F  F3  1  0.08083900  0.32884300  0.12171500  1
  F  F4  1  0.99020500  0.40178400  0.46831600  1
  F  F5  1  0.00979500  0.90178400  0.03168400  1
  F  F6  1  0.00979500  0.59821600  0.53168400  1
  F  F7  1  0.99020500  0.09821600  0.96831600  1
  F  F8  1  0.05875200  0.30771000  0.75916500  1
  F  F9  1  0.94124800  0.80771000  0.74083500  1
  F  F10  1  0.94124800  0.69229000  0.24083500  1
  F  F11  1  0.05875200  0.19229000  0.25916500  1
  F  F12  1  0.67507300  0.22853000  0.85425000  1
  F  F13  1  0.32492700  0.72853000  0.64575000  1
  F  F14  1  0.32492700  0.77147000  0.14575000  1
  F  F15  1  0.67507300  0.27147000  0.35425000  1
loop_
_geom_bond_atom_site_label_1
_geom_bond_atom_site_label_2
_geom_bond_distance
_geom_bond_site_symmetry_2
Ni0 O0 1.848510 1_554
Ni0 O2 1.848510 1_555
Ni0 O8 1.848759 1_554
Ni0 O10 1.848759 1_555
Ni0 O4 1.883765 1_555
Ni0 O6 1.883765 1_554
Ni1 O3 1.848510 1_555
Ni1 O1 1.848510 1_545
Ni1 O9 1.848759 1_545
Ni1 O11 1.848759 1_555
Ni1 O5 1.883765 1_545
Ni1 O7 1.883765 1_555
H0 O0 1.000876 1_555
H1 O1 1.000876 1_555
H2 O2 1.000876 1_555
H3 O3 1.000876 1_555
H4 O4 1.005491 1_555
H5 O5 1.005491 1_555
H6 O6 1.005491 1_555
H7 O7 1.005491 1_555
H8 O4 1.024088 1_555
H9 O5 1.024088 1_555
H10 O6 1.024088 1_555
H11 O7 1.024088 1_555
H12 O8 1.002852 1_555
H13 O9 1.002852 1_555
H14 O10 1.002852 1_555
H15 O11 1.002852 1_555
F0 H7 1.625682 1_555
F0 Sb0 2.139587 1_555
F1 H6 1.625682 1_555
F1 Sb1 2.139587 1_555
F2 H5 1.625682 1_555
F2 Sb2 2.139587 1_555
F3 H4 1.625682 1_555
F3 Sb3 2.139587 1_555
F4 H8 1.485933 1_555
F4 Sb0 2.146912 1_655
F5 H9 1.485933 1_555
F5 Sb1 2.146912 1_454
F6 H10 1.485933 1_555
F6 Sb2 2.146912 1_455
F7 H11 1.485933 1_555
F7 Sb3 2.146912 1_656
F8 Sb0 2.009088 1_555
F8 Sb3 2.463200 1_556
F9 Sb1 2.009088 1_555
F9 Sb2 2.463200 1_555
F10 Sb2 2.009088 1_555
F10 Sb1 2.463200 1_554
F11 Sb3 2.009088 1_555
F11 Sb0 2.463200 1_555
F12 Sb3 1.964598 1_656
F13 Sb2 1.964598 1_455
F14 Sb1 1.964598 1_454
F15 Sb0 1.964598 1_655
