# generated using pymatgen
data_GdTl(MoO4)2
_symmetry_space_group_name_H-M   'P 1'
_cell_length_a   5.11326505
_cell_length_b   8.07464225
_cell_length_c   18.68498807
_cell_angle_alpha   90.00000000
_cell_angle_beta   90.00000000
_cell_angle_gamma   90.00000000
_symmetry_Int_Tables_number   1
_chemical_formula_structural   GdTl(MoO4)2
_chemical_formula_sum   'Gd4 Tl4 Mo8 O32'
_cell_volume   771.46178900
_cell_formula_units_Z   4
loop_
 _symmetry_equiv_pos_site_id
 _symmetry_equiv_pos_as_xyz
  1  'x, y, z'
loop_
 _atom_site_type_symbol
 _atom_site_label
 _atom_site_symmetry_multiplicity
 _atom_site_fract_x
 _atom_site_fract_y
 _atom_site_fract_z
 _atom_site_occupancy
  Gd  Gd0  1  -0.00000000  0.75000000  0.00676777  1
  Gd  Gd1  1  -0.00000000  0.25000000  0.99323223  1
  Gd  Gd2  1  0.50000000  0.25000000  0.49323223  1
  Gd  Gd3  1  0.50000000  0.75000000  0.50676777  1
  Tl  Tl0  1  -0.00000000  0.75000000  0.77027693  1
  Tl  Tl1  1  -0.00000000  0.25000000  0.22972307  1
  Tl  Tl2  1  0.50000000  0.25000000  0.72972307  1
  Tl  Tl3  1  0.50000000  0.75000000  0.27027693  1
  Mo  Mo0  1  0.01959712  0.51755257  0.39956009  1
  Mo  Mo1  1  0.98040288  0.48244743  0.60043991  1
  Mo  Mo2  1  0.48040288  0.01755257  0.10043991  1
  Mo  Mo3  1  0.98040288  0.98244743  0.39956009  1
  Mo  Mo4  1  0.51959712  0.98244743  0.89956009  1
  Mo  Mo5  1  0.01959712  0.01755257  0.60043991  1
  Mo  Mo6  1  0.51959712  0.48244743  0.10043991  1
  Mo  Mo7  1  0.48040288  0.51755257  0.89956009  1
  O  O0  1  0.10616343  0.97506986  0.31400868  1
  O  O1  1  0.89383657  0.02493014  0.68599132  1
  O  O2  1  0.39383657  0.47506986  0.18599132  1
  O  O3  1  0.89383657  0.52493014  0.31400868  1
  O  O4  1  0.60616343  0.52493014  0.81400868  1
  O  O5  1  0.10616343  0.47506986  0.68599132  1
  O  O6  1  0.60616343  0.02493014  0.18599132  1
  O  O7  1  0.39383657  0.97506986  0.81400868  1
  O  O8  1  0.27467098  0.84245352  0.09884891  1
  O  O9  1  0.72532902  0.15754648  0.90115109  1
  O  O10  1  0.22532902  0.34245352  0.40115109  1
  O  O11  1  0.72532902  0.65754648  0.09884891  1
  O  O12  1  0.77467098  0.65754648  0.59884891  1
  O  O13  1  0.27467098  0.34245352  0.90115109  1
  O  O14  1  0.77467098  0.15754648  0.40115109  1
  O  O15  1  0.22532902  0.84245352  0.59884891  1
  O  O16  1  0.25166462  0.50416154  0.03553024  1
  O  O17  1  0.74833538  0.49583846  0.96446976  1
  O  O18  1  0.24833538  0.00416154  0.46446976  1
  O  O19  1  0.74833538  0.99583846  0.03553024  1
  O  O20  1  0.75166462  0.99583846  0.53553024  1
  O  O21  1  0.25166462  0.00416154  0.96446976  1
  O  O22  1  0.75166462  0.49583846  0.46446976  1
  O  O23  1  0.24833538  0.50416154  0.53553024  1
  O  O24  1  0.23845640  0.68958892  0.40872233  1
  O  O25  1  0.76154360  0.31041108  0.59127767  1
  O  O26  1  0.26154360  0.18958892  0.09127767  1
  O  O27  1  0.76154360  0.81041108  0.40872233  1
  O  O28  1  0.73845640  0.81041108  0.90872233  1
  O  O29  1  0.23845640  0.18958892  0.59127767  1
  O  O30  1  0.73845640  0.31041108  0.09127767  1
  O  O31  1  0.26154360  0.68958892  0.90872233  1
loop_
_geom_bond_atom_site_label_1
_geom_bond_atom_site_label_2
_geom_bond_distance
_geom_bond_site_symmetry_2
Gd0 O31 2.320037 1_554
Gd0 O28 2.320037 1_454
Gd0 O11 2.343090 1_455
Gd0 O8 2.343090 1_555
Gd0 O19 2.425945 1_455
Gd0 O16 2.425945 1_555
Gd0 O21 2.548008 1_564
Gd0 O17 2.548008 1_454
Gd1 O30 2.320037 1_456
Gd1 O26 2.320037 1_556
Gd1 O13 2.343090 1_555
Gd1 O9 2.343090 1_455
Gd1 O17 2.425945 1_455
Gd1 O21 2.425945 1_555
Gd1 O19 2.548008 1_446
Gd1 O16 2.548008 1_556
Gd2 O29 2.320037 1_555
Gd2 O25 2.320037 1_555
Gd2 O14 2.343090 1_555
Gd2 O10 2.343090 1_555
Gd2 O22 2.425945 1_555
Gd2 O18 2.425945 1_555
Gd2 O23 2.548008 1_555
Gd2 O20 2.548008 1_545
Gd3 O27 2.320037 1_555
Gd3 O24 2.320037 1_555
Gd3 O15 2.343090 1_555
Gd3 O12 2.343090 1_555
Gd3 O20 2.425945 1_555
Gd3 O23 2.425945 1_555
Gd3 O18 2.548008 1_565
Gd3 O22 2.548008 1_555
Mo0 O3 1.724050 1_455
Mo0 O10 1.762530 1_555
Mo0 O24 1.792023 1_555
Mo0 O22 1.838108 1_455
Mo1 O5 1.724050 1_655
Mo1 O12 1.762530 1_555
Mo1 O25 1.792023 1_555
Mo1 O23 1.838108 1_655
Mo2 O6 1.724050 1_555
Mo2 O8 1.762530 1_545
Mo2 O26 1.792023 1_555
Mo2 O19 1.838108 1_545
Mo3 O0 1.724050 1_655
Mo3 O14 1.762530 1_565
Mo3 O27 1.792023 1_555
Mo3 O18 1.838108 1_665
Mo4 O7 1.724050 1_555
Mo4 O9 1.762530 1_565
Mo4 O28 1.792023 1_555
Mo4 O21 1.838108 1_565
Mo5 O1 1.724050 1_455
Mo5 O15 1.762530 1_545
Mo5 O29 1.792023 1_555
Mo5 O20 1.838108 1_445
Mo6 O2 1.724050 1_555
Mo6 O11 1.762530 1_555
Mo6 O30 1.792023 1_555
Mo6 O16 1.838108 1_555
Mo7 O4 1.724050 1_555
Mo7 O13 1.762530 1_555
Mo7 O31 1.792023 1_555
Mo7 O17 1.838108 1_555
O0 Tl1 2.775454 1_565
O0 Tl3 2.832992 1_555
O1 Tl0 2.775454 1_645
O1 Tl2 2.832992 1_555
O2 Tl3 2.775454 1_555
O2 Tl1 2.832992 1_555
O3 Tl1 2.775454 1_655
O3 Tl3 2.832992 1_555
O4 Tl2 2.775454 1_555
O4 Tl0 2.832992 1_655
O5 Tl0 2.775454 1_555
O5 Tl2 2.832992 1_555
O6 Tl3 2.775454 1_545
O6 Tl1 2.832992 1_655
O7 Tl2 2.775454 1_565
O7 Tl0 2.832992 1_555
