# generated using pymatgen
data_H8RuN3Cl5O
_symmetry_space_group_name_H-M   'P 1'
_cell_length_a   6.88708012
_cell_length_b   10.63132019
_cell_length_c   13.32687585
_cell_angle_alpha   90.00000000
_cell_angle_beta   90.00000000
_cell_angle_gamma   90.00000000
_symmetry_Int_Tables_number   1
_chemical_formula_structural   H8RuN3Cl5O
_chemical_formula_sum   'H32 Ru4 N12 Cl20 O4'
_cell_volume   975.77724352
_cell_formula_units_Z   4
loop_
 _symmetry_equiv_pos_site_id
 _symmetry_equiv_pos_as_xyz
  1  'x, y, z'
loop_
 _atom_site_type_symbol
 _atom_site_label
 _atom_site_symmetry_multiplicity
 _atom_site_fract_x
 _atom_site_fract_y
 _atom_site_fract_z
 _atom_site_occupancy
  H  H0  1  0.51997111  0.24622655  0.11452407  1
  H  H1  1  0.98002889  0.75377345  0.61452407  1
  H  H2  1  0.48002889  0.74622655  0.38547593  1
  H  H3  1  0.01997111  0.25377345  0.88547593  1
  H  H4  1  0.18378511  0.26134759  0.37364903  1
  H  H5  1  0.31621489  0.73865241  0.87364903  1
  H  H6  1  0.81621489  0.76134759  0.12635097  1
  H  H7  1  0.68378511  0.23865241  0.62635097  1
  H  H8  1  0.72851069  0.17328223  0.08131954  1
  H  H9  1  0.77148931  0.82671777  0.58131954  1
  H  H10  1  0.27148931  0.67328223  0.41868046  1
  H  H11  1  0.22851069  0.32671777  0.91868046  1
  H  H12  1  0.38166058  0.17322546  0.35107151  1
  H  H13  1  0.11833942  0.82677454  0.85107151  1
  H  H14  1  0.61833942  0.67322546  0.14892849  1
  H  H15  1  0.88166058  0.32677454  0.64892849  1
  H  H16  1  0.40196739  0.33039291  0.36514822  1
  H  H17  1  0.09803261  0.66960709  0.86514822  1
  H  H18  1  0.59803261  0.83039291  0.13485178  1
  H  H19  1  0.90196739  0.16960709  0.63485178  1
  H  H20  1  0.71664908  0.25860015  0.18761373  1
  H  H21  1  0.78335092  0.74139985  0.68761373  1
  H  H22  1  0.28335092  0.75860015  0.31238627  1
  H  H23  1  0.21664908  0.24139985  0.81238627  1
  H  H24  1  0.34669823  0.23977422  0.46453332  1
  H  H25  1  0.15330177  0.76022578  0.96453332  1
  H  H26  1  0.65330177  0.73977422  0.03546668  1
  H  H27  1  0.84669823  0.26022578  0.53546668  1
  H  H28  1  0.71257959  0.33110021  0.07612534  1
  H  H29  1  0.78742041  0.66889979  0.57612534  1
  H  H30  1  0.28742041  0.83110021  0.42387466  1
  H  H31  1  0.21257959  0.16889979  0.92387466  1
  Ru  Ru0  1  0.16712377  0.00577948  0.14242283  1
  Ru  Ru1  1  0.33287623  0.99422052  0.64242283  1
  Ru  Ru2  1  0.83287623  0.50577948  0.35757717  1
  Ru  Ru3  1  0.66712377  0.49422052  0.85757717  1
  N  N0  1  0.00610762  0.00628689  0.24143592  1
  N  N1  1  0.49389238  0.99371311  0.74143592  1
  N  N2  1  0.99389238  0.50628689  0.25856408  1
  N  N3  1  0.50610762  0.49371311  0.75856408  1
  N  N4  1  0.66937110  0.25213456  0.11482190  1
  N  N5  1  0.83062890  0.74786544  0.61482190  1
  N  N6  1  0.33062890  0.75213456  0.38517810  1
  N  N7  1  0.16937110  0.24786544  0.88517810  1
  N  N8  1  0.32947922  0.25115881  0.38831040  1
  N  N9  1  0.17052078  0.74884119  0.88831040  1
  N  N10  1  0.67052078  0.75115881  0.11168960  1
  N  N11  1  0.82947922  0.24884119  0.61168960  1
  Cl  Cl0  1  0.12524563  -0.00023417  0.50133156  1
  Cl  Cl1  1  0.37475437  0.00023417  0.00133156  1
  Cl  Cl2  1  0.87475437  0.49976583  0.99866844  1
  Cl  Cl3  1  0.62524563  0.50023417  0.49866844  1
  Cl  Cl4  1  0.04748464  0.99876604  0.74483568  1
  Cl  Cl5  1  0.45251536  0.00123396  0.24483568  1
  Cl  Cl6  1  0.95251536  0.49876604  0.75516432  1
  Cl  Cl7  1  0.54748464  0.50123396  0.25516432  1
  Cl  Cl8  1  0.09679071  0.50761989  0.47395718  1
  Cl  Cl9  1  0.40320929  0.49238011  0.97395718  1
  Cl  Cl10  1  0.90320929  0.00761989  0.02604282  1
  Cl  Cl11  1  0.59679071  0.99238011  0.52604282  1
  Cl  Cl12  1  0.33323486  0.22068812  0.63777255  1
  Cl  Cl13  1  0.16676514  0.77931188  0.13777255  1
  Cl  Cl14  1  0.66676514  0.72068812  0.86222745  1
  Cl  Cl15  1  0.83323486  0.27931188  0.36222745  1
  Cl  Cl16  1  0.18748331  0.22884717  0.13685770  1
  Cl  Cl17  1  0.31251669  0.77115283  0.63685770  1
  Cl  Cl18  1  0.81251669  0.72884717  0.36314230  1
  Cl  Cl19  1  0.68748331  0.27115283  0.86314230  1
  O  O0  1  0.11170345  0.50369969  0.19662073  1
  O  O1  1  0.38829655  0.49630031  0.69662073  1
  O  O2  1  0.88829655  0.00369969  0.30337927  1
  O  O3  1  0.61170345  0.99630031  0.80337927  1
loop_
_geom_bond_atom_site_label_1
_geom_bond_atom_site_label_2
_geom_bond_distance
_geom_bond_site_symmetry_2
H0 N4 1.030853 1_555
H1 N5 1.030853 1_555
H2 N6 1.030853 1_555
H3 N7 1.030853 1_555
H4 N8 1.027977 1_555
H5 N9 1.027977 1_555
H6 N10 1.027977 1_555
H7 N11 1.027977 1_555
H8 N4 1.033437 1_555
H9 N5 1.033437 1_555
H10 N6 1.033437 1_555
H11 N7 1.033437 1_555
H12 N8 1.030492 1_555
H13 N9 1.030492 1_555
H14 N10 1.030492 1_555
H15 N11 1.030492 1_555
H16 N8 1.026689 1_555
H17 N9 1.026689 1_555
H18 N10 1.026689 1_555
H19 N11 1.026689 1_555
H20 N4 1.025580 1_555
H21 N5 1.025580 1_555
H22 N6 1.025580 1_555
H23 N7 1.025580 1_555
H24 N8 1.029849 1_555
H25 N9 1.029849 1_555
H26 N10 1.029849 1_555
H27 N11 1.029849 1_555
H28 N4 1.029214 1_555
H29 N5 1.029214 1_555
H30 N6 1.029214 1_555
H31 N7 1.029214 1_555
N0 O2 1.157823 1_455
N0 Ru0 1.723639 1_555
N1 O3 1.157823 1_555
N1 Ru1 1.723639 1_555
N2 O0 1.157823 1_655
N2 Ru2 1.723639 1_555
N3 O1 1.157823 1_555
N3 Ru3 1.723639 1_555
Cl0 Ru1 2.363014 1_545
Cl1 Ru0 2.363014 1_555
Cl2 Ru3 2.363014 1_555
Cl3 Ru2 2.363014 1_555
Cl4 Ru1 2.393404 1_555
Cl5 Ru0 2.393404 1_555
Cl6 Ru3 2.393404 1_555
Cl7 Ru2 2.393404 1_555
Cl8 Ru2 2.389477 1_455
Cl9 Ru3 2.389477 1_555
Cl10 Ru0 2.389477 1_655
Cl11 Ru1 2.389477 1_555
Cl12 Ru1 2.408448 1_545
Cl13 Ru0 2.408448 1_565
Cl14 Ru3 2.408448 1_555
Cl15 Ru2 2.408448 1_555
Cl16 Ru0 2.376803 1_555
Cl17 Ru1 2.376803 1_555
Cl18 Ru2 2.376803 1_555
Cl19 Ru3 2.376803 1_555
