# generated using pymatgen
data_In3SnAu12
_symmetry_space_group_name_H-M   'P 1'
_cell_length_a   4.90178000
_cell_length_b   5.36030000
_cell_length_c   11.74317900
_cell_angle_alpha   90.00000000
_cell_angle_beta   90.00000000
_cell_angle_gamma   90.00000000
_symmetry_Int_Tables_number   1
_chemical_formula_structural   In3SnAu12
_chemical_formula_sum   'In3 Sn1 Au12'
_cell_volume   308.55216132
_cell_formula_units_Z   1
loop_
 _symmetry_equiv_pos_site_id
 _symmetry_equiv_pos_as_xyz
  1  'x, y, z'
loop_
 _atom_site_type_symbol
 _atom_site_label
 _atom_site_symmetry_multiplicity
 _atom_site_fract_x
 _atom_site_fract_y
 _atom_site_fract_z
 _atom_site_occupancy
  In  In0  1  0.50000000  0.66753500  0.50000000  1
  In  In1  1  0.00000000  0.33362400  0.74927900  1
  In  In2  1  0.00000000  0.33362400  0.25072100  1
  Sn  Sn0  1  0.50000000  0.66580300  0.00000000  1
  Au  Au0  1  0.00000000  0.32671800  0.00000000  1
  Au  Au1  1  0.00000000  0.33318300  0.50000000  1
  Au  Au2  1  0.50000000  0.66756900  0.74748700  1
  Au  Au3  1  0.50000000  0.66756900  0.25251300  1
  Au  Au4  1  0.50000000  0.16641200  0.62556500  1
  Au  Au5  1  0.50000000  0.16565000  0.12750100  1
  Au  Au6  1  0.50000000  0.16565000  0.87249900  1
  Au  Au7  1  0.50000000  0.16641200  0.37443500  1
  Au  Au8  1  0.00000000  0.83502800  0.62358200  1
  Au  Au9  1  0.00000000  0.83509800  0.12538200  1
  Au  Au10  1  0.00000000  0.83509800  0.87461800  1
  Au  Au11  1  0.00000000  0.83502800  0.37641800  1
loop_
_geom_bond_atom_site_label_1
_geom_bond_atom_site_label_2
_geom_bond_distance
_geom_bond_site_symmetry_2
Au0 In2 2.944494 1_555
Au0 In1 2.944494 1_554
Au0 Au5 2.999014 1_455
Au0 Au5 2.999014 1_555
Au0 Au6 2.999014 1_554
Au0 Au6 2.999014 1_454
Au0 Au10 3.018667 1_544
Au0 Au9 3.018667 1_545
Au0 Sn0 3.051315 1_455
Au0 Sn0 3.051315 1_555
Au0 Au10 3.097405 1_554
Au0 Au9 3.097405 1_555
Au1 In1 2.927329 1_555
Au1 In2 2.927329 1_555
Au1 Au4 2.996705 1_555
Au1 Au4 2.996705 1_455
Au1 Au7 2.996705 1_555
Au1 Au7 2.996705 1_455
Au1 In0 3.036271 1_455
Au1 In0 3.036271 1_555
Au1 Au8 3.039145 1_545
Au1 Au11 3.039145 1_545
Au1 Au11 3.056538 1_555
Au1 Au8 3.056538 1_555
Au2 In0 2.906284 1_555
Au2 Sn0 2.965320 1_556
Au2 Au8 2.988267 1_655
Au2 Au8 2.988267 1_555
Au2 Au4 3.033136 1_565
Au2 In1 3.035056 1_655
Au2 In1 3.035056 1_555
Au2 Au4 3.044076 1_555
Au2 Au6 3.046852 1_565
Au2 Au6 3.064896 1_555
Au3 In0 2.906284 1_555
Au3 Sn0 2.965320 1_555
Au3 Au9 3.007007 1_655
Au3 Au9 3.007007 1_555
Au3 Au7 3.033136 1_565
Au3 In2 3.035056 1_655
Au3 In2 3.035056 1_555
Au3 Au7 3.044076 1_555
Au3 Au5 3.046852 1_565
Au3 Au5 3.064896 1_555
Au4 Au6 2.899793 1_555
Au4 Au7 2.949065 1_555
Au4 In1 2.986778 1_555
Au4 In1 2.986778 1_655
Au4 Au8 3.026997 1_645
Au4 Au8 3.026997 1_545
Au4 In0 3.053722 1_545
Au4 In0 3.064270 1_555
Au5 Au7 2.899793 1_555
Au5 In2 2.985190 1_555
Au5 In2 2.985190 1_655
Au5 Au6 2.994534 1_554
Au5 Au9 3.024394 1_645
Au5 Au9 3.024394 1_545
Au5 Sn0 3.069302 1_545
Au5 Sn0 3.070734 1_555
Au6 In1 2.985190 1_555
Au6 In1 2.985190 1_655
Au6 Sn0 3.069302 1_546
Au6 Sn0 3.070734 1_556
Au7 In2 2.986778 1_655
Au7 In2 2.986778 1_555
Au7 In0 3.053722 1_545
Au7 In0 3.064270 1_555
Au8 In0 2.986477 1_455
Au8 In0 2.986477 1_555
Au8 In1 3.053152 1_565
Au8 In1 3.066337 1_555
Au9 Sn0 2.999713 1_455
Au9 Sn0 2.999713 1_555
Au9 In2 3.050793 1_565
Au9 In2 3.064644 1_555
Au10 Au9 2.944767 1_556
Au10 Au8 2.947961 1_555
Au10 Sn0 2.999713 1_456
Au10 Sn0 2.999713 1_556
Au10 Au2 3.007007 1_455
Au10 Au2 3.007007 1_555
Au10 Au6 3.024394 1_565
Au10 Au6 3.024394 1_465
Au10 In1 3.050793 1_565
Au10 In1 3.064644 1_555
Au11 Au8 2.902491 1_555
Au11 Au9 2.947961 1_555
Au11 In0 2.986477 1_455
Au11 In0 2.986477 1_555
Au11 Au3 2.988267 1_455
Au11 Au3 2.988267 1_555
Au11 Au7 3.026997 1_565
Au11 Au7 3.026997 1_465
Au11 In2 3.053152 1_565
Au11 In2 3.066337 1_555
