# generated using pymatgen
data_RbMg6Nb
_symmetry_space_group_name_H-M   'P 1'
_cell_length_a   6.78159500
_cell_length_b   6.78159500
_cell_length_c   4.49213400
_cell_angle_alpha   90.00000000
_cell_angle_beta   90.00000000
_cell_angle_gamma   90.00000000
_symmetry_Int_Tables_number   1
_chemical_formula_structural   RbMg6Nb
_chemical_formula_sum   'Rb1 Mg6 Nb1'
_cell_volume   206.59338077
_cell_formula_units_Z   1
loop_
 _symmetry_equiv_pos_site_id
 _symmetry_equiv_pos_as_xyz
  1  'x, y, z'
loop_
 _atom_site_type_symbol
 _atom_site_label
 _atom_site_symmetry_multiplicity
 _atom_site_fract_x
 _atom_site_fract_y
 _atom_site_fract_z
 _atom_site_occupancy
  Rb  Rb0  1  0.00000000  0.00000000  0.50000000  1
  Mg  Mg0  1  0.00000000  0.50000000  0.50000000  1
  Mg  Mg1  1  0.50000000  0.00000000  0.50000000  1
  Mg  Mg2  1  0.71431300  0.28568700  0.00000000  1
  Mg  Mg3  1  0.28568700  0.71431300  0.00000000  1
  Mg  Mg4  1  0.71431300  0.71431300  0.00000000  1
  Mg  Mg5  1  0.28568700  0.28568700  0.00000000  1
  Nb  Nb0  1  0.50000000  0.50000000  0.50000000  1
loop_
_geom_bond_atom_site_label_1
_geom_bond_atom_site_label_2
_geom_bond_distance
_geom_bond_site_symmetry_2
Mg0 Mg3 3.303137 1_555
Mg0 Mg3 3.303137 1_556
Mg0 Mg5 3.303137 1_555
Mg0 Mg5 3.303137 1_556
Mg0 Mg4 3.303137 1_455
Mg0 Mg4 3.303137 1_456
Mg0 Mg2 3.303137 1_455
Mg0 Mg2 3.303137 1_456
Mg0 Nb0 3.390798 1_455
Mg0 Rb0 3.390798 1_555
Mg0 Nb0 3.390798 1_555
Mg0 Rb0 3.390798 1_565
Mg1 Mg2 3.303137 1_556
Mg1 Mg2 3.303137 1_555
Mg1 Mg5 3.303137 1_555
Mg1 Mg5 3.303137 1_556
Mg1 Mg4 3.303137 1_546
Mg1 Mg4 3.303137 1_545
Mg1 Mg3 3.303137 1_545
Mg1 Mg3 3.303137 1_546
Mg1 Rb0 3.390798 1_555
Mg1 Nb0 3.390798 1_555
Mg1 Nb0 3.390798 1_545
Mg1 Rb0 3.390798 1_655
Mg2 Mg4 2.906768 1_555
Mg2 Mg5 2.906768 1_555
Mg2 Nb0 3.044580 1_555
Mg2 Nb0 3.044580 1_554
Mg2 Rb0 3.542874 1_654
Mg2 Rb0 3.542874 1_655
Mg3 Mg4 2.906768 1_555
Mg3 Mg5 2.906768 1_555
Mg3 Nb0 3.044580 1_555
Mg3 Nb0 3.044580 1_554
Mg3 Rb0 3.542874 1_564
Mg3 Rb0 3.542874 1_565
Mg4 Nb0 3.044580 1_555
Mg4 Nb0 3.044580 1_554
Mg4 Rb0 3.542874 1_664
Mg4 Rb0 3.542874 1_665
Mg5 Nb0 3.044580 1_555
Mg5 Nb0 3.044580 1_554
Mg5 Rb0 3.542874 1_555
Mg5 Rb0 3.542874 1_554
