# generated using pymatgen
data_Dy(BRu)4
_symmetry_space_group_name_H-M   'P 1'
_cell_length_a   9.20942699
_cell_length_b   9.20942699
_cell_length_c   9.20942699
_cell_angle_alpha   131.97322658
_cell_angle_beta   131.97322658
_cell_angle_gamma   70.27131588
_symmetry_Int_Tables_number   1
_chemical_formula_structural   Dy(BRu)4
_chemical_formula_sum   'Dy4 B16 Ru16'
_cell_volume   423.13873652
_cell_formula_units_Z   4
loop_
 _symmetry_equiv_pos_site_id
 _symmetry_equiv_pos_as_xyz
  1  'x, y, z'
loop_
 _atom_site_type_symbol
 _atom_site_label
 _atom_site_symmetry_multiplicity
 _atom_site_fract_x
 _atom_site_fract_y
 _atom_site_fract_z
 _atom_site_occupancy
  Dy  Dy0  1  0.75000000  0.75000000  0.00000000  1
  Dy  Dy1  1  0.25000000  0.25000000  0.00000000  1
  Dy  Dy2  1  0.00000000  0.50000000  0.50000000  1
  Dy  Dy3  1  0.50000000  0.00000000  0.50000000  1
  B  B0  1  0.72235100  0.41526100  0.97318100  1
  B  B1  1  0.22235100  0.24917000  0.30709000  1
  B  B2  1  0.66526100  0.47235100  0.47318100  1
  B  B3  1  0.16526100  0.69208000  0.19291000  1
  B  B4  1  0.02764900  0.83473900  0.52681900  1
  B  B5  1  0.52764900  0.00083000  0.19291000  1
  B  B6  1  0.08473900  0.77764900  0.02681900  1
  B  B7  1  0.58473900  0.55792000  0.30709000  1
  B  B8  1  0.94208000  0.91526100  0.69291000  1
  B  B9  1  0.44208000  0.74917000  0.02681900  1
  B  B10  1  0.49917000  0.97235100  0.80709000  1
  B  B11  1  0.99917000  0.19208000  0.52681900  1
  B  B12  1  0.80792000  0.33473900  0.80709000  1
  B  B13  1  0.30792000  0.50083000  0.47318100  1
  B  B14  1  0.25083000  0.27764900  0.69291000  1
  B  B15  1  0.75083000  0.05792000  0.97318100  1
  Ru  Ru0  1  0.03948500  0.57277200  0.23560600  1
  Ru  Ru1  1  0.53948500  0.30387800  0.46671300  1
  Ru  Ru2  1  0.82277200  0.78948500  0.73560600  1
  Ru  Ru3  1  0.32277200  0.58716500  0.03328700  1
  Ru  Ru4  1  0.71051500  0.67722800  0.26439400  1
  Ru  Ru5  1  0.21051500  0.94612200  0.03328700  1
  Ru  Ru6  1  0.92722800  0.46051500  0.76439400  1
  Ru  Ru7  1  0.42722800  0.66283500  0.46671300  1
  Ru  Ru8  1  0.83716500  0.07277200  0.53328700  1
  Ru  Ru9  1  0.33716500  0.80387800  0.76439400  1
  Ru  Ru10  1  0.55387800  0.28948500  0.96671300  1
  Ru  Ru11  1  0.05387800  0.08716500  0.26439400  1
  Ru  Ru12  1  0.91283500  0.17722800  0.96671300  1
  Ru  Ru13  1  0.41283500  0.44612200  0.73560600  1
  Ru  Ru14  1  0.19612200  0.96051500  0.53328700  1
  Ru  Ru15  1  0.69612200  0.16283500  0.23560600  1
loop_
_geom_bond_atom_site_label_1
_geom_bond_atom_site_label_2
_geom_bond_distance
_geom_bond_site_symmetry_2
Dy0 Ru6 2.922559 1_554
Dy0 Ru0 2.922559 1_655
Dy0 Ru15 2.922564 1_565
Dy0 Ru9 2.922564 1_554
Dy0 Ru11 3.168860 1_665
Dy0 Ru13 3.168860 1_554
Dy0 Ru4 3.168873 1_555
Dy0 Ru2 3.168873 1_554
Dy0 Ru14 3.226694 1_655
Dy0 Ru7 3.226694 1_554
Dy0 Ru1 3.226694 1_554
Dy0 Ru8 3.226694 1_565
Dy1 Ru1 2.922564 1_555
Dy1 Ru14 2.922564 1_544
Dy1 Ru7 2.922564 1_555
Dy1 Ru8 2.922564 1_454
Dy1 Ru3 3.168864 1_555
Dy1 Ru12 3.168864 1_454
Dy1 Ru10 3.168864 1_554
Dy1 Ru5 3.168864 1_545
Dy1 Ru6 3.226690 1_454
Dy1 Ru0 3.226690 1_555
Dy1 Ru9 3.226694 1_544
Dy1 Ru15 3.226694 1_555
Dy2 Ru4 2.922559 1_455
Dy2 Ru2 2.922559 1_455
Dy2 Ru13 2.922564 1_555
Dy2 Ru11 2.922564 1_555
Dy2 Ru9 3.168860 1_555
Dy2 Ru15 3.168860 1_455
Dy2 Ru0 3.168873 1_555
Dy2 Ru6 3.168873 1_455
Dy2 Ru5 3.226694 1_556
Dy2 Ru10 3.226694 1_454
Dy2 Ru3 3.226694 1_556
Dy2 Ru12 3.226694 1_454
Dy3 Ru10 2.922564 1_555
Dy3 Ru5 2.922564 1_545
Dy3 Ru12 2.922564 1_555
Dy3 Ru3 2.922564 1_545
Dy3 Ru8 3.168864 1_555
Dy3 Ru14 3.168864 1_545
Dy3 Ru1 3.168864 1_555
Dy3 Ru7 3.168864 1_545
Dy3 Ru2 3.226690 1_545
Dy3 Ru4 3.226690 1_545
Dy3 Ru13 3.226694 1_555
Dy3 Ru11 3.226694 1_555
B0 B12 1.791973 1_555
B0 Ru4 2.141033 1_556
B0 Ru10 2.179444 1_555
B0 Ru13 2.221682 1_555
B0 Ru0 2.281436 1_656
B0 Ru12 2.292441 1_555
B0 Dy3 2.978047 1_555
B0 Dy0 3.009423 1_556
B0 Dy2 3.221109 1_656
B1 B13 1.791973 1_555
B1 Ru5 2.141028 1_545
B1 Ru11 2.179451 1_555
B1 Ru12 2.221680 1_454
B1 Ru1 2.281434 1_555
B1 Ru13 2.292435 1_555
B1 Dy2 2.978047 1_555
B1 Dy1 3.009423 1_555
B1 Dy3 3.221109 1_555
B2 B7 1.791973 1_555
B2 Ru6 2.141033 1_555
B2 Ru1 2.179444 1_555
B2 Ru15 2.221682 1_555
B2 Ru2 2.281436 1_555
B2 Ru7 2.292441 1_555
B2 Dy1 2.978047 1_555
B2 Dy2 3.009423 1_655
B2 Dy0 3.221109 1_556
B3 B6 1.791973 1_555
B3 Ru7 2.141028 1_555
B3 Ru0 2.179436 1_555
B3 Ru14 2.221680 1_555
B3 Ru3 2.281434 1_555
B3 Ru6 2.292437 1_454
B3 Dy0 2.978047 1_455
B3 Dy3 3.009423 1_565
B3 Dy1 3.221109 1_555
B4 B8 1.791973 1_455
B4 Ru0 2.141033 1_555
B4 Ru14 2.179444 1_555
B4 Ru9 2.221682 1_555
B4 Ru4 2.281436 1_455
B4 Ru8 2.292441 1_465
B4 Dy1 2.978047 1_566
B4 Dy2 3.009423 1_555
B4 Dy0 3.221109 1_455
B5 B9 1.791973 1_545
B5 Ru1 2.141028 1_555
B5 Ru15 2.179451 1_555
B5 Ru8 2.221680 1_555
B5 Ru5 2.281434 1_545
B5 Ru9 2.292435 1_544
B5 Dy0 2.978047 1_545
B5 Dy3 3.009423 1_555
B5 Dy1 3.221109 1_555
B6 Ru2 2.141033 1_454
B6 Ru5 2.179444 1_555
B6 Ru11 2.221682 1_565
B6 Ru6 2.281436 1_454
B6 Ru3 2.292441 1_555
B6 Dy3 2.978047 1_565
B6 Dy0 3.009423 1_455
B6 Dy2 3.221109 1_554
B7 Ru3 2.141028 1_555
B7 Ru4 2.179436 1_555
B7 Ru10 2.221680 1_554
B7 Ru7 2.281434 1_555
B7 Ru2 2.292437 1_555
B7 Dy2 2.978047 1_655
B7 Dy1 3.009423 1_555
B7 Dy3 3.221109 1_565
B8 Ru12 2.141028 1_565
B8 Ru2 2.179436 1_555
B8 Ru5 2.221680 1_656
B8 Ru8 2.281434 1_565
B8 Ru4 2.292437 1_555
B8 Dy2 2.978047 1_655
B8 Dy1 3.009423 1_666
B8 Dy3 3.221109 1_565
B9 Ru13 2.141031 1_554
B9 Ru3 2.179444 1_555
B9 Ru4 2.221684 1_555
B9 Ru9 2.281425 1_554
B9 Ru5 2.292441 1_555
B9 Dy3 2.978047 1_565
B9 Dy0 3.009423 1_555
B9 Dy2 3.221109 1_554
B10 B15 1.791973 1_565
B10 Ru14 2.141028 1_555
B10 Ru9 2.179451 1_555
B10 Ru7 2.221680 1_555
B10 Ru10 2.281434 1_565
B10 Ru15 2.292435 1_566
B10 Dy0 2.978047 1_556
B10 Dy3 3.009423 1_565
B10 Dy1 3.221109 1_566
B11 B14 1.791973 1_655
B11 Ru15 2.141031 1_555
B11 Ru8 2.179444 1_555
B11 Ru6 2.221684 1_555
B11 Ru11 2.281425 1_655
B11 Ru14 2.292441 1_645
B11 Dy1 2.978047 1_656
B11 Dy2 3.009423 1_655
B11 Dy0 3.221109 1_545
B12 Ru8 2.141028 1_555
B12 Ru6 2.179436 1_555
B12 Ru1 2.221680 1_555
B12 Ru12 2.281434 1_555
B12 Ru0 2.292437 1_656
B12 Dy0 2.978047 1_556
B12 Dy3 3.009423 1_555
B12 Dy1 3.221109 1_656
B13 Ru9 2.141031 1_555
B13 Ru7 2.179444 1_555
B13 Ru0 2.221684 1_555
B13 Ru13 2.281425 1_555
B13 Ru1 2.292441 1_555
B13 Dy1 2.978047 1_555
B13 Dy2 3.009423 1_555
B13 Dy0 3.221109 1_556
B14 Ru10 2.141028 1_555
B14 Ru13 2.179451 1_555
B14 Ru3 2.221680 1_556
B14 Ru14 2.281434 1_545
B14 Ru11 2.292435 1_555
B14 Dy2 2.978047 1_555
B14 Dy1 3.009423 1_556
B14 Dy3 3.221109 1_555
B15 Ru11 2.141031 1_656
B15 Ru12 2.179444 1_555
B15 Ru2 2.221684 1_545
B15 Ru15 2.281425 1_556
B15 Ru10 2.292441 1_555
B15 Dy3 2.978047 1_555
B15 Dy0 3.009423 1_546
B15 Dy2 3.221109 1_656
