# generated using pymatgen
data_BaNa(PO3)3
_symmetry_space_group_name_H-M   'P 1'
_cell_length_a   5.90072000
_cell_length_b   11.27744600
_cell_length_c   12.48901000
_cell_angle_alpha   90.00000000
_cell_angle_beta   90.00000000
_cell_angle_gamma   90.00000000
_symmetry_Int_Tables_number   1
_chemical_formula_structural   BaNa(PO3)3
_chemical_formula_sum   'Ba4 Na4 P12 O36'
_cell_volume   831.08180940
_cell_formula_units_Z   4
loop_
 _symmetry_equiv_pos_site_id
 _symmetry_equiv_pos_as_xyz
  1  'x, y, z'
loop_
 _atom_site_type_symbol
 _atom_site_label
 _atom_site_symmetry_multiplicity
 _atom_site_fract_x
 _atom_site_fract_y
 _atom_site_fract_z
 _atom_site_occupancy
  Ba  Ba0  1  0.40199300  0.89367300  0.58127500  1
  Ba  Ba1  1  0.90199300  0.60632700  0.41872500  1
  Ba  Ba2  1  0.59800700  0.39367300  0.91872500  1
  Ba  Ba3  1  0.09800700  0.10632700  0.08127500  1
  Na  Na0  1  0.39804100  0.52282800  0.63623200  1
  Na  Na1  1  0.89804100  0.97717200  0.36376800  1
  Na  Na2  1  0.60195900  0.02282800  0.86376800  1
  Na  Na3  1  0.10195900  0.47717200  0.13623200  1
  P  P0  1  0.10537400  0.84958800  0.85467000  1
  P  P1  1  0.60537400  0.65041200  0.14533000  1
  P  P2  1  0.89462600  0.34958800  0.64533000  1
  P  P3  1  0.39462600  0.15041200  0.35467000  1
  P  P4  1  0.91234900  0.70279200  0.68532800  1
  P  P5  1  0.41234900  0.79720800  0.31467200  1
  P  P6  1  0.08765100  0.20279200  0.81467200  1
  P  P7  1  0.58765100  0.29720800  0.18532800  1
  P  P8  1  0.11166200  0.58958500  0.87072300  1
  P  P9  1  0.61166200  0.91041500  0.12927700  1
  P  P10  1  0.88833800  0.08958500  0.62927700  1
  P  P11  1  0.38833800  0.41041500  0.37072300  1
  O  O0  1  0.99414600  0.93815100  0.92646700  1
  O  O1  1  0.49414600  0.56184900  0.07353300  1
  O  O2  1  0.00585400  0.43815100  0.57353300  1
  O  O3  1  0.50585400  0.06184900  0.42646700  1
  O  O4  1  0.32969300  0.87582100  0.80338600  1
  O  O5  1  0.82969300  0.62417900  0.19661400  1
  O  O6  1  0.67030700  0.37582100  0.69661400  1
  O  O7  1  0.17030700  0.12417900  0.30338600  1
  O  O8  1  0.68852500  0.69660600  0.62825600  1
  O  O9  1  0.18852500  0.80339400  0.37174400  1
  O  O10  1  0.31147500  0.19660600  0.87174400  1
  O  O11  1  0.81147500  0.30339400  0.12825600  1
  O  O12  1  0.12089100  0.69769300  0.61490700  1
  O  O13  1  0.62089100  0.80230700  0.38509300  1
  O  O14  1  0.87910900  0.19769300  0.88509300  1
  O  O15  1  0.37910900  0.30230700  0.11490700  1
  O  O16  1  0.33514100  0.55801800  0.82118100  1
  O  O17  1  0.83514100  0.94198200  0.17881900  1
  O  O18  1  0.66485900  0.05801800  0.67881900  1
  O  O19  1  0.16485900  0.44198200  0.32118100  1
  O  O20  1  0.38785500  0.27692700  0.41779400  1
  O  O21  1  0.88785500  0.22307300  0.58220600  1
  O  O22  1  0.61214500  0.77692700  0.08220600  1
  O  O23  1  0.11214500  0.72307300  0.91779400  1
  O  O24  1  0.58072900  0.17917700  0.25898500  1
  O  O25  1  0.08072900  0.32082300  0.74101500  1
  O  O26  1  0.41927100  0.67917700  0.24101500  1
  O  O27  1  0.91927100  0.82082300  0.75898500  1
  O  O28  1  0.58018700  0.39972700  0.27600700  1
  O  O29  1  0.08018700  0.10027300  0.72399300  1
  O  O30  1  0.41981300  0.89972700  0.22399300  1
  O  O31  1  0.91981300  0.60027300  0.77600700  1
  O  O32  1  0.48798500  0.49261100  0.45279600  1
  O  O33  1  0.98798500  0.00738900  0.54720400  1
  O  O34  1  0.51201500  0.99261100  0.04720400  1
  O  O35  1  0.01201500  0.50738900  0.95279600  1
loop_
_geom_bond_atom_site_label_1
_geom_bond_atom_site_label_2
_geom_bond_distance
_geom_bond_site_symmetry_2
Ba0 O18 2.706483 1_565
Ba0 O3 2.776814 1_565
Ba0 O33 2.791713 1_465
Ba0 O12 2.795086 1_555
Ba0 O4 2.813773 1_555
Ba0 O8 2.853420 1_555
Ba0 O13 2.955187 1_555
Ba0 O9 3.077501 1_555
Ba1 O19 2.706483 1_655
Ba1 O2 2.776814 1_655
Ba1 O32 2.791713 1_555
Ba1 O13 2.795086 1_555
Ba1 O5 2.813773 1_555
Ba1 O9 2.853420 1_655
Ba1 O12 2.955187 1_655
Ba1 O8 3.077501 1_555
Ba2 O16 2.706483 1_555
Ba2 O1 2.776814 1_556
Ba2 O35 2.791713 1_655
Ba2 O14 2.795086 1_555
Ba2 O6 2.813773 1_555
Ba2 O10 2.853420 1_555
Ba2 O15 2.955187 1_556
Ba2 O11 3.077501 1_556
Ba3 O17 2.706483 1_445
Ba3 O0 2.776814 1_444
Ba3 O34 2.791713 1_545
Ba3 O15 2.795086 1_555
Ba3 O7 2.813773 1_555
Ba3 O11 2.853420 1_455
Ba3 O14 2.955187 1_454
Ba3 O10 3.077501 1_554
Na0 O16 2.372881 1_555
Na0 O32 2.376170 1_555
Na0 O6 2.428631 1_555
Na0 O12 2.575717 1_555
Na0 O8 2.605503 1_555
Na0 O2 2.623077 1_555
Na1 O17 2.372881 1_555
Na1 O33 2.376170 1_565
Na1 O7 2.428631 1_665
Na1 O13 2.575717 1_555
Na1 O9 2.605503 1_655
Na1 O3 2.623077 1_565
Na2 O18 2.372881 1_555
Na2 O34 2.376170 1_546
Na2 O4 2.428631 1_545
Na2 O14 2.575717 1_555
Na2 O10 2.605503 1_555
Na2 O0 2.623077 1_545
Na3 O19 2.372881 1_555
Na3 O35 2.376170 1_554
Na3 O5 2.428631 1_455
Na3 O15 2.575717 1_555
Na3 O11 2.605503 1_455
Na3 O1 2.623077 1_555
O0 P0 1.494094 1_655
O1 P1 1.494094 1_555
O2 P2 1.494094 1_455
O3 P3 1.494094 1_555
O4 P0 1.499926 1_555
O5 P1 1.499926 1_555
O6 P2 1.499926 1_555
O7 P3 1.499926 1_555
O8 P4 1.502405 1_555
O9 P5 1.502405 1_555
O10 P6 1.502405 1_555
O11 P7 1.502405 1_555
O12 P4 1.513623 1_455
O13 P5 1.513623 1_555
O14 P6 1.513623 1_655
O15 P7 1.513623 1_555
O16 P8 1.499498 1_555
O17 P9 1.499498 1_555
O18 P10 1.499498 1_555
O19 P11 1.499498 1_555
O20 P11 1.616119 1_555
O20 P3 1.630571 1_555
O21 P10 1.616119 1_555
O21 P2 1.630571 1_555
O22 P9 1.616119 1_555
O22 P1 1.630571 1_555
O23 P8 1.616119 1_555
O23 P0 1.630571 1_555
O24 P7 1.618544 1_555
O24 P3 1.655053 1_555
O25 P6 1.618544 1_555
O25 P2 1.655053 1_455
O26 P5 1.618544 1_555
O26 P1 1.655053 1_555
O27 P4 1.618544 1_555
O27 P0 1.655053 1_655
O28 P7 1.619001 1_555
O28 P11 1.641747 1_555
O29 P6 1.619001 1_555
O29 P10 1.641747 1_455
O30 P5 1.619001 1_555
O30 P9 1.641747 1_555
O31 P4 1.619001 1_555
O31 P8 1.641747 1_655
O32 P11 1.501877 1_555
O33 P10 1.501877 1_555
O34 P9 1.501877 1_555
O35 P8 1.501877 1_555
