# generated using pymatgen
data_MgCu2(SnO4)2
_symmetry_space_group_name_H-M   'P 1'
_cell_length_a   6.23486063
_cell_length_b   8.72627200
_cell_length_c   12.18907911
_cell_angle_alpha   90.00000000
_cell_angle_beta   89.36338910
_cell_angle_gamma   90.00000000
_symmetry_Int_Tables_number   1
_chemical_formula_structural   MgCu2(SnO4)2
_chemical_formula_sum   'Mg4 Cu8 Sn8 O32'
_cell_volume   663.13138596
_cell_formula_units_Z   4
loop_
 _symmetry_equiv_pos_site_id
 _symmetry_equiv_pos_as_xyz
  1  'x, y, z'
loop_
 _atom_site_type_symbol
 _atom_site_label
 _atom_site_symmetry_multiplicity
 _atom_site_fract_x
 _atom_site_fract_y
 _atom_site_fract_z
 _atom_site_occupancy
  Mg  Mg0  1  0.10146300  0.15098100  0.03156200  1
  Mg  Mg1  1  0.89853700  0.84901900  0.96843800  1
  Mg  Mg2  1  0.89853700  0.65098100  0.46843800  1
  Mg  Mg3  1  0.10146300  0.34901900  0.53156200  1
  Cu  Cu0  1  0.75421100  0.18918200  0.83717500  1
  Cu  Cu1  1  0.37229700  0.07220600  0.60810700  1
  Cu  Cu2  1  0.62770300  0.92779400  0.39189300  1
  Cu  Cu3  1  0.24578900  0.81081800  0.16282500  1
  Cu  Cu4  1  0.75421100  0.31081800  0.33717500  1
  Cu  Cu5  1  0.37229700  0.42779400  0.10810700  1
  Cu  Cu6  1  0.24578900  0.68918200  0.66282500  1
  Cu  Cu7  1  0.62770300  0.57220600  0.89189300  1
  Sn  Sn0  1  0.09459100  0.45242400  0.84047500  1
  Sn  Sn1  1  0.09459100  0.04757600  0.34047500  1
  Sn  Sn2  1  0.56784200  0.06957500  0.14765200  1
  Sn  Sn3  1  0.90540900  0.95242400  0.65952500  1
  Sn  Sn4  1  0.43215800  0.93042500  0.85234800  1
  Sn  Sn5  1  0.43215800  0.56957500  0.35234800  1
  Sn  Sn6  1  0.56784200  0.43042500  0.64765200  1
  Sn  Sn7  1  0.90540900  0.54757600  0.15952500  1
  O  O0  1  0.03285900  0.26480600  0.37638700  1
  O  O1  1  0.65076000  0.01554900  0.57542300  1
  O  O2  1  0.19639400  0.55457200  0.45983600  1
  O  O3  1  0.80360600  0.05457200  0.04016400  1
  O  O4  1  0.03285900  0.23519400  0.87638700  1
  O  O5  1  0.96714100  0.73519400  0.62361300  1
  O  O6  1  0.08417100  0.12813000  0.60546100  1
  O  O7  1  0.52548300  0.84803400  0.19260200  1
  O  O8  1  0.52548300  0.65196600  0.69260200  1
  O  O9  1  0.28003100  0.89709200  0.70008100  1
  O  O10  1  0.71996900  0.39709200  0.79991900  1
  O  O11  1  0.47451700  0.15196600  0.80739800  1
  O  O12  1  0.91582900  0.87187000  0.39453900  1
  O  O13  1  0.79956200  0.52566700  0.31832100  1
  O  O14  1  0.41731900  0.27096100  0.55792300  1
  O  O15  1  0.41731900  0.22903900  0.05792300  1
  O  O16  1  0.20043800  0.02566700  0.18167900  1
  O  O17  1  0.47451700  0.34803400  0.30739800  1
  O  O18  1  0.20043800  0.47433300  0.68167900  1
  O  O19  1  0.80360600  0.44542800  0.54016400  1
  O  O20  1  0.65076000  0.48445100  0.07542300  1
  O  O21  1  0.71996900  0.10290800  0.29991900  1
  O  O22  1  0.96714100  0.76480600  0.12361300  1
  O  O23  1  0.08417100  0.37187000  0.10546100  1
  O  O24  1  0.19639400  0.94542800  0.95983600  1
  O  O25  1  0.58268100  0.77096100  0.94207700  1
  O  O26  1  0.34924000  0.98445100  0.42457700  1
  O  O27  1  0.34924000  0.51554900  0.92457700  1
  O  O28  1  0.91582900  0.62813000  0.89453900  1
  O  O29  1  0.58268100  0.72903900  0.44207700  1
  O  O30  1  0.28003100  0.60290800  0.20008100  1
  O  O31  1  0.79956200  0.97433300  0.81832100  1
loop_
_geom_bond_atom_site_label_1
_geom_bond_atom_site_label_2
_geom_bond_distance
_geom_bond_site_symmetry_2
Mg0 O3 2.040403 1_455
Mg0 O4 2.078103 1_554
Mg0 O24 2.078601 1_544
Mg0 O15 2.111751 1_555
Mg0 O23 2.129844 1_555
Mg0 O16 2.224818 1_555
Mg1 O24 2.040403 1_655
Mg1 O22 2.078103 1_556
Mg1 O3 2.078601 1_566
Mg1 O25 2.111751 1_555
Mg1 O28 2.129844 1_555
Mg1 O31 2.224818 1_555
Mg2 O2 2.040403 1_655
Mg2 O5 2.078103 1_555
Mg2 O19 2.078601 1_555
Mg2 O29 2.111751 1_555
Mg2 O12 2.129844 1_555
Mg2 O13 2.224818 1_555
Mg3 O19 2.040403 1_455
Mg3 O0 2.078103 1_555
Mg3 O2 2.078601 1_555
Mg3 O14 2.111751 1_555
Mg3 O6 2.129844 1_555
Mg3 O18 2.224818 1_555
Cu0 O11 1.814467 1_555
Cu0 O4 1.851062 1_655
Cu0 O10 1.882967 1_555
Cu0 O31 1.909532 1_545
Cu1 O1 1.844476 1_555
Cu1 O14 1.859372 1_555
Cu1 O6 1.862156 1_555
Cu1 O9 1.976988 1_545
Cu1 O26 2.370373 1_545
Cu1 O11 2.612642 1_555
Cu2 O26 1.844476 1_555
Cu2 O29 1.859372 1_555
Cu2 O12 1.862156 1_555
Cu2 O21 1.976988 1_565
Cu2 O1 2.370373 1_565
Cu2 O7 2.612642 1_555
Cu3 O7 1.814467 1_555
Cu3 O22 1.851062 1_455
Cu3 O30 1.882967 1_555
Cu3 O16 1.909532 1_565
Cu4 O17 1.814467 1_555
Cu4 O0 1.851062 1_655
Cu4 O21 1.882967 1_555
Cu4 O13 1.909532 1_555
Cu5 O20 1.844476 1_555
Cu5 O15 1.859372 1_555
Cu5 O23 1.862156 1_555
Cu5 O30 1.976988 1_555
Cu5 O27 2.370373 1_554
Cu5 O17 2.612642 1_555
Cu6 O8 1.814467 1_555
Cu6 O5 1.851062 1_455
Cu6 O9 1.882967 1_555
Cu6 O18 1.909532 1_555
Cu7 O27 1.844476 1_555
Cu7 O25 1.859372 1_555
Cu7 O28 1.862156 1_555
Cu7 O10 1.976988 1_555
Cu7 O20 2.370373 1_556
Cu7 O8 2.612642 1_555
O0 Sn1 1.982256 1_555
O1 Sn3 1.977695 1_545
O2 Sn5 1.962571 1_555
O3 Sn2 1.962571 1_555
O4 Sn0 1.982256 1_555
O5 Sn3 1.982256 1_555
O6 Sn3 2.002764 1_445
O7 Sn2 2.025857 1_565
O8 Sn6 2.025857 1_555
O9 Sn4 2.113782 1_555
O9 Sn3 2.441052 1_455
O10 Sn6 2.113782 1_555
O10 Sn0 2.441052 1_655
O11 Sn4 2.025857 1_545
O12 Sn1 2.002764 1_665
O13 Sn7 2.046985 1_555
O13 Sn5 2.354800 1_555
O14 Sn6 2.009012 1_555
O15 Sn2 2.009012 1_555
O16 Sn1 2.046985 1_555
O16 Sn2 2.354800 1_555
O17 Sn5 2.025857 1_555
O18 Sn0 2.046985 1_555
O18 Sn6 2.354800 1_555
O19 Sn6 1.962571 1_555
O20 Sn7 1.977695 1_555
O21 Sn2 2.113782 1_555
O21 Sn1 2.441052 1_655
O22 Sn7 1.982256 1_555
O23 Sn7 2.002764 1_455
O24 Sn4 1.962571 1_555
O25 Sn4 2.009012 1_555
O26 Sn1 1.977695 1_565
O27 Sn0 1.977695 1_555
O28 Sn0 2.002764 1_655
O29 Sn5 2.009012 1_555
O30 Sn5 2.113782 1_555
O30 Sn7 2.441052 1_455
O31 Sn3 2.046985 1_555
O31 Sn4 2.354800 1_555
