# generated using pymatgen
data_Yb11Bi10
_symmetry_space_group_name_H-M   'P 1'
_cell_length_a   12.44081689
_cell_length_b   12.44081689
_cell_length_c   12.44081689
_cell_angle_alpha   120.67007540
_cell_angle_beta   120.67007540
_cell_angle_gamma   88.84326147
_symmetry_Int_Tables_number   1
_chemical_formula_structural   Yb11Bi10
_chemical_formula_sum   'Yb22 Bi20'
_cell_volume   1347.45622404
_cell_formula_units_Z   2
loop_
 _symmetry_equiv_pos_site_id
 _symmetry_equiv_pos_as_xyz
  1  'x, y, z'
loop_
 _atom_site_type_symbol
 _atom_site_label
 _atom_site_symmetry_multiplicity
 _atom_site_fract_x
 _atom_site_fract_y
 _atom_site_fract_z
 _atom_site_occupancy
  Yb  Yb0  1  0.94431700  0.60346500  0.34085100  1
  Yb  Yb1  1  0.26261400  0.60346500  0.65914900  1
  Yb  Yb2  1  0.60346500  0.26261400  0.65914900  1
  Yb  Yb3  1  0.60346500  0.94431700  0.34085100  1
  Yb  Yb4  1  0.05568300  0.39653500  0.65914900  1
  Yb  Yb5  1  0.73738600  0.39653500  0.34085100  1
  Yb  Yb6  1  0.39653500  0.73738600  0.34085100  1
  Yb  Yb7  1  0.39653500  0.05568300  0.65914900  1
  Yb  Yb8  1  0.06018800  0.80955200  0.25063600  1
  Yb  Yb9  1  0.55891700  0.80955200  0.74936400  1
  Yb  Yb10  1  0.80955200  0.55891700  0.74936400  1
  Yb  Yb11  1  0.80955200  0.06018800  0.25063600  1
  Yb  Yb12  1  0.93981200  0.19044800  0.74936400  1
  Yb  Yb13  1  0.44108300  0.19044800  0.25063600  1
  Yb  Yb14  1  0.19044800  0.44108300  0.25063600  1
  Yb  Yb15  1  0.19044800  0.93981200  0.74936400  1
  Yb  Yb16  1  0.66309500  0.66309500  0.00000000  1
  Yb  Yb17  1  0.33690500  0.33690500  0.00000000  1
  Yb  Yb18  1  0.16183300  0.16183300  0.32366600  1
  Yb  Yb19  1  0.83816700  0.83816700  0.67633400  1
  Yb  Yb20  1  0.16183300  0.83816700  0.00000000  1
  Yb  Yb21  1  0.83816700  0.16183300  0.00000000  1
  Bi  Bi0  1  0.25000000  0.75000000  0.50000000  1
  Bi  Bi1  1  0.75000000  0.25000000  0.50000000  1
  Bi  Bi2  1  0.87196500  0.87196500  0.00000000  1
  Bi  Bi3  1  0.12803500  0.12803500  0.00000000  1
  Bi  Bi4  1  0.00000000  0.34889900  0.34889900  1
  Bi  Bi5  1  0.00000000  0.65110100  0.65110100  1
  Bi  Bi6  1  0.34889900  0.00000000  0.34889900  1
  Bi  Bi7  1  0.65110100  0.00000000  0.65110100  1
  Bi  Bi8  1  0.87691900  0.87691900  0.40846100  1
  Bi  Bi9  1  0.46845800  0.46845800  0.59153900  1
  Bi  Bi10  1  0.87691900  0.46845800  0.00000000  1
  Bi  Bi11  1  0.46845800  0.87691900  0.00000000  1
  Bi  Bi12  1  0.12308100  0.12308100  0.59153900  1
  Bi  Bi13  1  0.53154200  0.53154200  0.40846100  1
  Bi  Bi14  1  0.12308100  0.53154200  0.00000000  1
  Bi  Bi15  1  0.53154200  0.12308100  0.00000000  1
  Bi  Bi16  1  0.36718700  0.36718700  0.73437300  1
  Bi  Bi17  1  0.63281300  0.63281300  0.26562700  1
  Bi  Bi18  1  0.36718700  0.63281300  0.00000000  1
  Bi  Bi19  1  0.63281300  0.36718700  0.00000000  1
loop_
_geom_bond_atom_site_label_1
_geom_bond_atom_site_label_2
_geom_bond_distance
_geom_bond_site_symmetry_2
Bi0 Yb15 3.248058 1_555
Bi0 Yb8 3.248058 1_555
Bi0 Yb9 3.248067 1_555
Bi0 Yb14 3.248067 1_555
Bi0 Yb7 3.259128 1_565
Bi0 Yb0 3.259128 1_455
Bi0 Yb1 3.259139 1_555
Bi0 Yb6 3.259139 1_555
Bi1 Yb11 3.248058 1_555
Bi1 Yb12 3.248058 1_555
Bi1 Yb13 3.248067 1_555
Bi1 Yb10 3.248067 1_555
Bi1 Yb4 3.259128 1_655
Bi1 Yb3 3.259128 1_545
Bi1 Yb2 3.259139 1_555
Bi1 Yb5 3.259139 1_555
Bi2 Yb10 3.279705 1_554
Bi2 Yb9 3.279705 1_554
Bi2 Yb8 3.279714 1_655
Bi2 Yb11 3.279714 1_565
Bi2 Yb19 3.622184 1_554
Bi2 Yb20 3.622184 1_655
Bi2 Yb18 3.622184 1_665
Bi2 Yb21 3.622184 1_565
Bi2 Yb16 3.711761 1_555
Bi3 Yb13 3.279705 1_555
Bi3 Yb14 3.279705 1_555
Bi3 Yb15 3.279714 1_544
Bi3 Yb12 3.279714 1_454
Bi3 Yb18 3.622184 1_555
Bi3 Yb21 3.622184 1_455
Bi3 Yb19 3.622184 1_444
Bi3 Yb20 3.622184 1_545
Bi3 Yb17 3.711761 1_555
Bi4 Yb21 3.046056 1_455
Bi4 Yb18 3.046056 1_555
Bi4 Yb0 3.268641 1_455
Bi4 Yb1 3.268644 1_555
Bi4 Yb5 3.268644 1_455
Bi4 Yb4 3.268648 1_555
Bi4 Yb14 3.594206 1_555
Bi4 Yb11 3.594212 1_455
Bi5 Yb20 3.046056 1_556
Bi5 Yb19 3.046056 1_455
Bi5 Yb4 3.268641 1_555
Bi5 Yb5 3.268644 1_455
Bi5 Yb1 3.268644 1_555
Bi5 Yb0 3.268648 1_455
Bi5 Yb10 3.594206 1_455
Bi5 Yb15 3.594212 1_555
Bi6 Yb18 3.046056 1_555
Bi6 Yb20 3.046056 1_545
Bi6 Yb3 3.268641 1_545
Bi6 Yb2 3.268644 1_555
Bi6 Yb6 3.268644 1_545
Bi6 Yb7 3.268648 1_555
Bi6 Yb13 3.594206 1_555
Bi6 Yb8 3.594212 1_545
Bi7 Yb19 3.046056 1_545
Bi7 Yb21 3.046056 1_556
Bi7 Yb7 3.268641 1_555
Bi7 Yb2 3.268644 1_555
Bi7 Yb6 3.268644 1_545
Bi7 Yb3 3.268648 1_545
Bi7 Yb9 3.594206 1_545
Bi7 Yb12 3.594212 1_555
Bi8 Yb0 3.266369 1_555
Bi8 Yb3 3.266369 1_555
Bi8 Yb11 3.545035 1_565
Bi8 Yb8 3.545035 1_655
Bi8 Yb16 3.560855 1_555
Bi8 Yb12 3.697938 1_565
Bi8 Yb15 3.697938 1_655
Bi8 Yb19 3.854653 1_555
Bi9 Yb1 3.266365 1_555
Bi9 Yb2 3.266365 1_555
Bi9 Yb10 3.545035 1_555
Bi9 Yb9 3.545035 1_555
Bi9 Yb16 3.560855 1_556
Bi9 Yb14 3.697932 1_555
Bi9 Yb13 3.697932 1_555
Bi9 Yb18 3.854653 1_555
Bi10 Bi14 3.176730 1_655
Bi10 Yb0 3.266360 1_555
Bi10 Yb2 3.266365 1_554
Bi10 Bi19 3.311260 1_555
Bi10 Yb8 3.545035 1_655
Bi10 Yb10 3.545044 1_554
Bi10 Yb16 3.560855 1_555
Bi10 Yb12 3.697938 1_554
Bi10 Yb14 3.697945 1_655
Bi10 Yb21 3.854653 1_555
Bi11 Bi15 3.176730 1_565
Bi11 Yb3 3.266360 1_555
Bi11 Yb1 3.266365 1_554
Bi11 Bi18 3.311260 1_555
Bi11 Yb11 3.545035 1_565
Bi11 Yb9 3.545044 1_554
Bi11 Yb16 3.560855 1_555
Bi11 Yb15 3.697938 1_554
Bi11 Yb13 3.697945 1_565
Bi11 Yb20 3.854653 1_555
Bi12 Bi8 3.176730 1_445
Bi12 Yb7 3.266369 1_555
Bi12 Yb4 3.266369 1_555
Bi12 Bi16 3.311265 1_555
Bi12 Yb15 3.545035 1_545
Bi12 Yb12 3.545035 1_455
Bi12 Yb17 3.560855 1_556
Bi12 Yb11 3.697938 1_455
Bi12 Yb8 3.697938 1_545
Bi12 Yb18 3.854653 1_555
Bi13 Bi9 3.176730 1_555
Bi13 Yb6 3.266365 1_555
Bi13 Yb5 3.266365 1_555
Bi13 Bi17 3.311248 1_555
Bi13 Yb14 3.545035 1_555
Bi13 Yb13 3.545035 1_555
Bi13 Yb17 3.560855 1_555
Bi13 Yb9 3.697932 1_555
Bi13 Yb10 3.697932 1_555
Bi13 Yb19 3.854653 1_555
Bi14 Yb4 3.266360 1_554
Bi14 Yb6 3.266365 1_555
Bi14 Bi18 3.311260 1_555
Bi14 Yb12 3.545035 1_454
Bi14 Yb14 3.545044 1_555
Bi14 Yb17 3.560855 1_555
Bi14 Yb8 3.697938 1_555
Bi14 Yb10 3.697945 1_454
Bi14 Yb20 3.854653 1_555
Bi15 Yb7 3.266360 1_554
Bi15 Yb5 3.266365 1_555
Bi15 Bi19 3.311260 1_555
Bi15 Yb15 3.545035 1_544
Bi15 Yb13 3.545044 1_555
Bi15 Yb17 3.560855 1_555
Bi15 Yb11 3.697938 1_555
Bi15 Yb9 3.697945 1_544
Bi15 Yb21 3.854653 1_555
Bi16 Bi19 3.271085 1_556
Bi16 Bi18 3.271085 1_556
Bi16 Bi9 3.311248 1_555
Bi16 Yb2 3.552311 1_555
Bi16 Yb1 3.552311 1_555
Bi16 Yb7 3.552332 1_555
Bi16 Yb4 3.552332 1_555
Bi16 Yb18 3.576329 1_555
Bi16 Yb16 3.708120 1_556
Bi16 Yb17 3.708134 1_556
Bi17 Bi19 3.271085 1_555
Bi17 Bi18 3.271085 1_555
Bi17 Bi8 3.311265 1_555
Bi17 Yb6 3.552311 1_555
Bi17 Yb5 3.552311 1_555
Bi17 Yb3 3.552332 1_555
Bi17 Yb0 3.552332 1_555
Bi17 Yb19 3.576329 1_555
Bi17 Yb17 3.708120 1_555
Bi17 Yb16 3.708134 1_555
Bi18 Yb6 3.552317 1_555
Bi18 Yb1 3.552317 1_554
Bi18 Yb3 3.552323 1_555
Bi18 Yb4 3.552323 1_554
Bi18 Yb20 3.576338 1_555
Bi18 Yb17 3.708122 1_555
Bi18 Yb16 3.708122 1_555
Bi19 Yb5 3.552317 1_555
Bi19 Yb2 3.552317 1_554
Bi19 Yb7 3.552323 1_554
Bi19 Yb0 3.552323 1_555
Bi19 Yb21 3.576338 1_555
Bi19 Yb17 3.708122 1_555
Bi19 Yb16 3.708122 1_555
