# generated using pymatgen
data_Lu(Al2Cr)4
_symmetry_space_group_name_H-M   'P 1'
_cell_length_a   5.06497200
_cell_length_b   6.75858643
_cell_length_c   6.75858643
_cell_angle_alpha   81.92872144
_cell_angle_beta   67.99382853
_cell_angle_gamma   67.99382853
_symmetry_Int_Tables_number   1
_chemical_formula_structural   Lu(Al2Cr)4
_chemical_formula_sum   'Lu1 Al8 Cr4'
_cell_volume   198.87615208
_cell_formula_units_Z   1
loop_
 _symmetry_equiv_pos_site_id
 _symmetry_equiv_pos_as_xyz
  1  'x, y, z'
loop_
 _atom_site_type_symbol
 _atom_site_label
 _atom_site_symmetry_multiplicity
 _atom_site_fract_x
 _atom_site_fract_y
 _atom_site_fract_z
 _atom_site_occupancy
  Lu  Lu0  1  0.00000000  0.00000000  0.00000000  1
  Al  Al0  1  0.00000000  0.66548700  0.33451300  1
  Al  Al1  1  0.00000000  0.33451300  0.66548700  1
  Al  Al2  1  0.66548700  0.33451300  0.33451300  1
  Al  Al3  1  0.33451300  0.66548700  0.66548700  1
  Al  Al4  1  0.50000000  0.22138600  0.77861400  1
  Al  Al5  1  0.50000000  0.77861400  0.22138600  1
  Al  Al6  1  0.72138600  0.77861400  0.77861400  1
  Al  Al7  1  0.27861400  0.22138600  0.22138600  1
  Cr  Cr0  1  0.50000000  0.50000000  0.00000000  1
  Cr  Cr1  1  0.00000000  0.50000000  0.00000000  1
  Cr  Cr2  1  0.00000000  0.00000000  0.50000000  1
  Cr  Cr3  1  0.50000000  0.00000000  0.50000000  1
loop_
_geom_bond_atom_site_label_1
_geom_bond_atom_site_label_2
_geom_bond_distance
_geom_bond_site_symmetry_2
Al0 Cr2 2.659397 1_565
Al0 Cr3 2.659397 1_465
Al0 Cr1 2.659397 1_555
Al0 Cr0 2.659397 1_555
Al0 Al5 2.723691 1_555
Al0 Al5 2.723691 1_455
Al0 Al7 2.871684 1_555
Al0 Al6 2.871684 1_455
Al0 Al1 2.932998 1_555
Al0 Lu0 2.964359 1_565
Al1 Cr1 2.659397 1_556
Al1 Cr2 2.659397 1_555
Al1 Cr0 2.659397 1_456
Al1 Cr3 2.659397 1_555
Al1 Al4 2.723691 1_555
Al1 Al4 2.723691 1_455
Al1 Al7 2.871684 1_555
Al1 Al6 2.871684 1_455
Al1 Lu0 2.964359 1_556
Al2 Cr0 2.659397 1_555
Al2 Cr2 2.659397 1_655
Al2 Cr1 2.659397 1_655
Al2 Cr3 2.659397 1_555
Al2 Al7 2.723691 1_655
Al2 Al7 2.723691 1_555
Al2 Al4 2.871684 1_555
Al2 Al5 2.871684 1_555
Al2 Al3 2.932998 1_555
Al2 Lu0 2.964359 1_655
Al3 Cr3 2.659397 1_565
Al3 Cr1 2.659397 1_556
Al3 Cr0 2.659397 1_556
Al3 Cr2 2.659397 1_565
Al3 Al6 2.723691 1_555
Al3 Al6 2.723691 1_455
Al3 Al4 2.871684 1_555
Al3 Al5 2.871684 1_555
Al3 Lu0 2.964359 1_566
Al4 Cr1 2.564331 1_556
Al4 Cr3 2.564331 1_555
Al4 Cr0 2.564331 1_556
Al4 Cr2 2.564331 1_655
Al4 Al6 2.774489 1_545
Al4 Al7 2.774489 1_556
Al4 Lu0 3.203495 1_556
Al4 Lu0 3.203495 1_656
Al5 Cr1 2.564331 1_655
Al5 Cr0 2.564331 1_555
Al5 Cr2 2.564331 1_565
Al5 Cr3 2.564331 1_565
Al5 Al6 2.774489 1_554
Al5 Al7 2.774489 1_565
Al5 Lu0 3.203495 1_665
Al5 Lu0 3.203495 1_565
Al6 Cr1 2.564331 1_656
Al6 Cr0 2.564331 1_556
Al6 Cr2 2.564331 1_665
Al6 Cr3 2.564331 1_565
Al6 Lu0 3.203495 1_666
Al6 Lu0 3.203495 1_566
Al7 Cr2 2.564331 1_555
Al7 Cr1 2.564331 1_555
Al7 Cr3 2.564331 1_555
Al7 Cr0 2.564331 1_555
Al7 Lu0 3.203495 1_555
Al7 Lu0 3.203495 1_655
Cr0 Cr1 2.532486 1_555
Cr0 Cr1 2.532486 1_655
Cr0 Lu0 3.379293 1_655
Cr0 Lu0 3.379293 1_565
Cr1 Lu0 3.379293 1_555
Cr1 Lu0 3.379293 1_565
Cr2 Cr3 2.532486 1_455
Cr2 Cr3 2.532486 1_555
Cr2 Lu0 3.379293 1_555
Cr2 Lu0 3.379293 1_556
Cr3 Lu0 3.379293 1_655
Cr3 Lu0 3.379293 1_556
