# generated using pymatgen
data_SmBO3
_symmetry_space_group_name_H-M   'P 1'
_cell_length_a   4.29852900
_cell_length_b   8.03537732
_cell_length_c   8.86876500
_cell_angle_alpha   90.00000000
_cell_angle_beta   90.00000000
_cell_angle_gamma   122.34055353
_symmetry_Int_Tables_number   1
_chemical_formula_structural   SmBO3
_chemical_formula_sum   'Sm4 B4 O12'
_cell_volume   258.81298776
_cell_formula_units_Z   4
loop_
 _symmetry_equiv_pos_site_id
 _symmetry_equiv_pos_as_xyz
  1  'x, y, z'
loop_
 _atom_site_type_symbol
 _atom_site_label
 _atom_site_symmetry_multiplicity
 _atom_site_fract_x
 _atom_site_fract_y
 _atom_site_fract_z
 _atom_site_occupancy
  Sm  Sm0  1  0.00000000  0.50000000  0.00000000  1
  Sm  Sm1  1  0.00000000  0.00000000  0.00000000  1
  Sm  Sm2  1  0.00000000  0.00000000  0.50000000  1
  Sm  Sm3  1  0.00000000  0.50000000  0.50000000  1
  B  B0  1  0.30203800  0.86919800  0.25000000  1
  B  B1  1  0.56364300  0.63080200  0.75000000  1
  B  B2  1  0.43635700  0.36919800  0.25000000  1
  B  B3  1  0.69796200  0.13080200  0.75000000  1
  O  O0  1  0.38628000  0.82628300  0.10891400  1
  O  O1  1  0.38628000  0.82628300  0.39108600  1
  O  O2  1  0.18422000  0.53046500  0.75000000  1
  O  O3  1  0.87671000  0.03046500  0.75000000  1
  O  O4  1  0.73371300  0.67371700  0.60891400  1
  O  O5  1  0.73371300  0.67371700  0.89108600  1
  O  O6  1  0.26628700  0.32628300  0.39108600  1
  O  O7  1  0.26628700  0.32628300  0.10891400  1
  O  O8  1  0.12329000  0.96953500  0.25000000  1
  O  O9  1  0.81578000  0.46953500  0.25000000  1
  O  O10  1  0.61372000  0.17371700  0.89108600  1
  O  O11  1  0.61372000  0.17371700  0.60891400  1
loop_
_geom_bond_atom_site_label_1
_geom_bond_atom_site_label_2
_geom_bond_distance
_geom_bond_site_symmetry_2
B0 O8 1.379559 1_555
B0 O0 1.396170 1_555
B0 O1 1.396170 1_555
B1 O2 1.379563 1_555
B1 O4 1.396166 1_555
B1 O5 1.396166 1_555
B2 O9 1.379563 1_555
B2 O7 1.396166 1_555
B2 O6 1.396166 1_555
B3 O3 1.379559 1_555
B3 O10 1.396170 1_555
B3 O11 1.396170 1_555
O0 Sm1 2.429233 1_665
O0 Sm0 2.430288 1_555
O0 Sm1 2.849271 1_565
O1 Sm2 2.429233 1_665
O1 Sm3 2.430288 1_555
O1 Sm2 2.849271 1_565
O2 Sm0 2.322828 1_556
O2 Sm3 2.322828 1_555
O3 Sm1 2.322828 1_656
O3 Sm2 2.322828 1_655
O4 Sm3 2.429236 1_655
O4 Sm2 2.430288 1_665
O4 Sm3 2.849267 1_555
O5 Sm0 2.429236 1_656
O5 Sm1 2.430288 1_666
O5 Sm0 2.849267 1_556
O6 Sm3 2.429236 1_555
O6 Sm2 2.430288 1_555
O6 Sm3 2.849267 1_655
O7 Sm0 2.429236 1_555
O7 Sm1 2.430288 1_555
O7 Sm0 2.849267 1_655
O8 Sm2 2.322828 1_565
O8 Sm1 2.322828 1_565
O9 Sm3 2.322828 1_655
O9 Sm0 2.322828 1_655
O10 Sm1 2.429233 1_556
O10 Sm0 2.430288 1_656
O10 Sm1 2.849271 1_656
O11 Sm2 2.429233 1_555
O11 Sm3 2.430288 1_655
O11 Sm2 2.849271 1_655
