# generated using pymatgen
data_Rb3AsSe4
_symmetry_space_group_name_H-M   'P 1'
_cell_length_a   9.74154943
_cell_length_b   10.13166005
_cell_length_c   11.45709047
_cell_angle_alpha   90.00000000
_cell_angle_beta   90.00000000
_cell_angle_gamma   90.00000000
_symmetry_Int_Tables_number   1
_chemical_formula_structural   Rb3AsSe4
_chemical_formula_sum   'Rb12 As4 Se16'
_cell_volume   1130.79268495
_cell_formula_units_Z   4
loop_
 _symmetry_equiv_pos_site_id
 _symmetry_equiv_pos_as_xyz
  1  'x, y, z'
loop_
 _atom_site_type_symbol
 _atom_site_label
 _atom_site_symmetry_multiplicity
 _atom_site_fract_x
 _atom_site_fract_y
 _atom_site_fract_z
 _atom_site_occupancy
  Rb  Rb0  1  0.64906684  0.91582837  0.25000000  1
  Rb  Rb1  1  0.14906684  0.58417163  0.25000000  1
  Rb  Rb2  1  0.85093316  0.41582837  0.75000000  1
  Rb  Rb3  1  0.35093316  0.08417163  0.75000000  1
  Rb  Rb4  1  0.05749913  0.80523321  0.95671240  1
  Rb  Rb5  1  0.55749913  0.69476679  0.54328760  1
  Rb  Rb6  1  0.44250087  0.30523321  0.04328760  1
  Rb  Rb7  1  0.94250087  0.19476679  0.45671240  1
  Rb  Rb8  1  0.94250087  0.19476679  0.04328760  1
  Rb  Rb9  1  0.44250087  0.30523321  0.45671240  1
  Rb  Rb10  1  0.55749913  0.69476679  0.95671240  1
  Rb  Rb11  1  0.05749913  0.80523321  0.54328760  1
  As  As0  1  0.77203669  0.97583124  0.75000000  1
  As  As1  1  0.22796331  0.02416876  0.25000000  1
  As  As2  1  0.72796331  0.47583124  0.25000000  1
  As  As3  1  0.27203669  0.52416876  0.75000000  1
  Se  Se0  1  0.34909280  0.96978562  0.08152626  1
  Se  Se1  1  0.84909280  0.53021438  0.41847374  1
  Se  Se2  1  0.15090720  0.46978562  0.91847374  1
  Se  Se3  1  0.65090720  0.03021438  0.58152626  1
  Se  Se4  1  0.01613512  0.91433297  0.25000000  1
  Se  Se5  1  0.51613512  0.58566703  0.25000000  1
  Se  Se6  1  0.48386488  0.41433297  0.75000000  1
  Se  Se7  1  0.98386488  0.08566703  0.75000000  1
  Se  Se8  1  0.65090720  0.03021438  0.91847374  1
  Se  Se9  1  0.34909280  0.96978562  0.41847374  1
  Se  Se10  1  0.84909280  0.53021438  0.08152626  1
  Se  Se11  1  0.15090720  0.46978562  0.58152626  1
  Se  Se12  1  0.81251935  0.74998504  0.75000000  1
  Se  Se13  1  0.31251935  0.75001496  0.75000000  1
  Se  Se14  1  0.68748065  0.24998504  0.25000000  1
  Se  Se15  1  0.18748065  0.25001496  0.25000000  1
loop_
_geom_bond_atom_site_label_1
_geom_bond_atom_site_label_2
_geom_bond_distance
_geom_bond_site_symmetry_2
Rb0 Se14 3.406180 1_565
Rb0 Se9 3.544562 1_555
Rb0 Se0 3.544562 1_555
Rb0 Se4 3.575846 1_655
Rb0 Se5 3.586990 1_555
Rb0 Se8 3.971234 1_564
Rb0 Se3 3.971234 1_565
Rb1 Se15 3.406180 1_555
Rb1 Se10 3.544562 1_455
Rb1 Se1 3.544562 1_455
Rb1 Se5 3.575846 1_555
Rb1 Se4 3.586990 1_555
Rb1 Se11 3.971234 1_555
Rb1 Se2 3.971234 1_554
Rb2 Se12 3.406180 1_555
Rb2 Se2 3.544562 1_655
Rb2 Se11 3.544562 1_655
Rb2 Se6 3.575846 1_555
Rb2 Se7 3.586990 1_555
Rb2 Se10 3.971234 1_556
Rb2 Se1 3.971234 1_555
Rb3 Se13 3.406180 1_545
Rb3 Se8 3.544562 1_555
Rb3 Se3 3.544562 1_555
Rb3 Se7 3.575846 1_455
Rb3 Se6 3.586990 1_555
Rb3 Se0 3.971234 1_546
Rb3 Se9 3.971234 1_545
Rb4 Se12 3.408457 1_455
Rb4 Se13 3.477592 1_555
Rb4 Se2 3.545516 1_555
Rb4 Se4 3.560237 1_556
Rb4 Se0 3.590723 1_556
Rb4 Se10 3.732377 1_456
Rb4 Se7 3.767791 1_465
Rb5 Se13 3.408457 1_555
Rb5 Se12 3.477592 1_555
Rb5 Se3 3.545516 1_565
Rb5 Se5 3.560237 1_555
Rb5 Se1 3.590723 1_555
Rb5 Se9 3.732377 1_555
Rb5 Se6 3.767791 1_555
Rb6 Se14 3.408457 1_555
Rb6 Se15 3.477592 1_555
Rb6 Se0 3.545516 1_545
Rb6 Se6 3.560237 1_554
Rb6 Se2 3.590723 1_554
Rb6 Se8 3.732377 1_554
Rb6 Se5 3.767791 1_555
Rb7 Se15 3.408457 1_655
Rb7 Se14 3.477592 1_555
Rb7 Se1 3.545516 1_555
Rb7 Se7 3.560237 1_555
Rb7 Se3 3.590723 1_555
Rb7 Se11 3.732377 1_655
Rb7 Se4 3.767791 1_645
Rb8 Se15 3.408457 1_655
Rb8 Se14 3.477592 1_555
Rb8 Se10 3.545516 1_555
Rb8 Se7 3.560237 1_554
Rb8 Se8 3.590723 1_554
Rb8 Se2 3.732377 1_654
Rb8 Se4 3.767791 1_645
Rb9 Se14 3.408457 1_555
Rb9 Se15 3.477592 1_555
Rb9 Se9 3.545516 1_545
Rb9 Se6 3.560237 1_555
Rb9 Se11 3.590723 1_555
Rb9 Se3 3.732377 1_555
Rb9 Se5 3.767791 1_555
Rb10 Se13 3.408457 1_555
Rb10 Se12 3.477592 1_555
Rb10 Se8 3.545516 1_565
Rb10 Se5 3.560237 1_556
Rb10 Se10 3.590723 1_556
Rb10 Se0 3.732377 1_556
Rb10 Se6 3.767791 1_555
Rb11 Se12 3.408457 1_455
Rb11 Se13 3.477592 1_555
Rb11 Se11 3.545516 1_555
Rb11 Se4 3.560237 1_555
Rb11 Se9 3.590723 1_555
Rb11 Se1 3.732377 1_455
Rb11 Se7 3.767791 1_465
As0 Se12 2.321932 1_555
As0 Se8 2.328457 1_565
As0 Se3 2.328457 1_565
As0 Se7 2.344470 1_565
As1 Se15 2.321932 1_555
As1 Se0 2.328457 1_545
As1 Se9 2.328457 1_545
As1 Se4 2.344470 1_545
As2 Se14 2.321932 1_555
As2 Se10 2.328457 1_555
As2 Se1 2.328457 1_555
As2 Se5 2.344470 1_555
As3 Se13 2.321932 1_555
As3 Se11 2.328457 1_555
As3 Se2 2.328457 1_555
As3 Se6 2.344470 1_555
