# generated using pymatgen
data_CaNi4O9
_symmetry_space_group_name_H-M   'P 1'
_cell_length_a   5.84989900
_cell_length_b   8.22816400
_cell_length_c   11.54029700
_cell_angle_alpha   47.04777042
_cell_angle_beta   90.00000000
_cell_angle_gamma   90.00000000
_symmetry_Int_Tables_number   1
_chemical_formula_structural   CaNi4O9
_chemical_formula_sum   'Ca2 Ni8 O18'
_cell_volume   406.56794298
_cell_formula_units_Z   2
loop_
 _symmetry_equiv_pos_site_id
 _symmetry_equiv_pos_as_xyz
  1  'x, y, z'
loop_
 _atom_site_type_symbol
 _atom_site_label
 _atom_site_symmetry_multiplicity
 _atom_site_fract_x
 _atom_site_fract_y
 _atom_site_fract_z
 _atom_site_occupancy
  Ca  Ca0  1  0.19189300  0.50000000  0.25000000  1
  Ca  Ca1  1  0.80810700  0.50000000  0.75000000  1
  Ni  Ni0  1  0.56341800  0.13106100  0.33923400  1
  Ni  Ni1  1  0.45812800  0.69956600  0.46664100  1
  Ni  Ni2  1  0.54187200  0.69956600  0.96664100  1
  Ni  Ni3  1  0.43658200  0.13106100  0.83923400  1
  Ni  Ni4  1  0.56341800  0.86893900  0.16076600  1
  Ni  Ni5  1  0.54187200  0.30043400  0.53335900  1
  Ni  Ni6  1  0.43658200  0.86893900  0.66076600  1
  Ni  Ni7  1  0.45812800  0.30043400  0.03335900  1
  O  O0  1  0.48931500  0.00000000  0.25000000  1
  O  O1  1  0.51068500  0.00000000  0.75000000  1
  O  O2  1  0.14785500  0.32924500  0.92591100  1
  O  O3  1  0.14775200  0.74160000  0.64975500  1
  O  O4  1  0.14775200  0.25840000  0.85024500  1
  O  O5  1  0.14785500  0.67075500  0.57408900  1
  O  O6  1  0.85214500  0.67075500  0.07408900  1
  O  O7  1  0.85224800  0.25840000  0.35024500  1
  O  O8  1  0.85224800  0.74160000  0.14975500  1
  O  O9  1  0.85214500  0.32924500  0.42591100  1
  O  O10  1  0.43451500  0.59996500  0.35638200  1
  O  O11  1  0.38512800  0.82469600  0.03683000  1
  O  O12  1  0.38512800  0.17530400  0.46317000  1
  O  O13  1  0.43451500  0.40003500  0.14361800  1
  O  O14  1  0.56548500  0.59996500  0.85638200  1
  O  O15  1  0.61487200  0.17530400  0.96317000  1
  O  O16  1  0.61487200  0.82469600  0.53683000  1
  O  O17  1  0.56548500  0.40003500  0.64361800  1
loop_
_geom_bond_atom_site_label_1
_geom_bond_atom_site_label_2
_geom_bond_distance
_geom_bond_site_symmetry_2
Ca0 O12 2.347482 1_555
Ca0 O11 2.347482 1_555
Ca0 O10 2.361004 1_555
Ca0 O13 2.361004 1_555
Ca0 O7 2.470597 1_455
Ca0 O8 2.470597 1_455
Ca0 O9 2.481601 1_455
Ca0 O6 2.481601 1_455
Ca1 O15 2.347482 1_555
Ca1 O16 2.347482 1_555
Ca1 O17 2.361004 1_555
Ca1 O14 2.361004 1_555
Ca1 O3 2.470597 1_655
Ca1 O4 2.470597 1_655
Ca1 O5 2.481601 1_655
Ca1 O2 2.481601 1_655
Ni0 O13 1.937586 1_555
Ni0 O16 1.952275 1_545
Ni0 O0 1.981083 1_555
Ni0 O12 1.993871 1_555
Ni0 O7 2.037213 1_555
Ni1 O16 1.921834 1_555
Ni1 O10 1.931545 1_555
Ni1 O17 1.944278 1_555
Ni1 O0 1.993064 1_565
Ni1 O5 2.118402 1_555
Ni2 O11 1.921834 1_556
Ni2 O14 1.931545 1_555
Ni2 O13 1.944278 1_556
Ni2 O1 1.993064 1_565
Ni2 O6 2.118402 1_556
Ni3 O17 1.937586 1_555
Ni3 O11 1.952275 1_546
Ni3 O1 1.981083 1_555
Ni3 O15 1.993871 1_555
Ni3 O4 2.037213 1_555
Ni4 O10 1.937586 1_555
Ni4 O15 1.952275 1_564
Ni4 O0 1.981083 1_565
Ni4 O11 1.993871 1_555
Ni4 O8 2.037213 1_555
Ni5 O12 1.921834 1_555
Ni5 O17 1.931545 1_555
Ni5 O10 1.944278 1_555
Ni5 O1 1.993064 1_555
Ni5 O9 2.118402 1_555
Ni6 O14 1.937586 1_555
Ni6 O12 1.952275 1_565
Ni6 O1 1.981083 1_565
Ni6 O16 1.993871 1_555
Ni6 O3 2.037213 1_555
Ni7 O15 1.921834 1_554
Ni7 O13 1.931545 1_555
Ni7 O14 1.944278 1_554
Ni7 O0 1.993064 1_555
Ni7 O2 2.118402 1_554
O2 O4 1.340137 1_555
O3 O5 1.340137 1_555
O6 O8 1.340137 1_555
O7 O9 1.340137 1_555
