# generated using pymatgen
data_LiMg30BO31
_symmetry_space_group_name_H-M   'P 1'
_cell_length_a   8.39557800
_cell_length_b   8.54534200
_cell_length_c   8.63106000
_cell_angle_alpha   90.00000000
_cell_angle_beta   90.00000000
_cell_angle_gamma   90.00000000
_symmetry_Int_Tables_number   1
_chemical_formula_structural   LiMg30BO31
_chemical_formula_sum   'Li1 Mg30 B1 O31'
_cell_volume   619.21887379
_cell_formula_units_Z   1
loop_
 _symmetry_equiv_pos_site_id
 _symmetry_equiv_pos_as_xyz
  1  'x, y, z'
loop_
 _atom_site_type_symbol
 _atom_site_label
 _atom_site_symmetry_multiplicity
 _atom_site_fract_x
 _atom_site_fract_y
 _atom_site_fract_z
 _atom_site_occupancy
  Li  Li0  1  0.00000000  0.99763300  0.00000000  1
  Mg  Mg0  1  0.00000000  0.99755200  0.50000000  1
  Mg  Mg1  1  0.50000000  0.99772200  0.00000000  1
  Mg  Mg2  1  0.00000000  0.50113100  0.00000000  1
  Mg  Mg3  1  0.00000000  0.51020700  0.50000000  1
  Mg  Mg4  1  0.50000000  0.50175700  0.00000000  1
  Mg  Mg5  1  0.50000000  0.49461900  0.50000000  1
  Mg  Mg6  1  0.74440200  0.00033500  0.75888200  1
  Mg  Mg7  1  0.74440200  0.00033500  0.24111800  1
  Mg  Mg8  1  0.25559800  0.00033500  0.75888200  1
  Mg  Mg9  1  0.25559800  0.00033500  0.24111800  1
  Mg  Mg10  1  0.74998300  0.49913000  0.75102700  1
  Mg  Mg11  1  0.74998300  0.49913000  0.24897300  1
  Mg  Mg12  1  0.25001700  0.49913000  0.75102700  1
  Mg  Mg13  1  0.25001700  0.49913000  0.24897300  1
  Mg  Mg14  1  0.00000000  0.24482700  0.75880000  1
  Mg  Mg15  1  0.00000000  0.24482700  0.24120000  1
  Mg  Mg16  1  0.50000000  0.24776300  0.76235200  1
  Mg  Mg17  1  0.50000000  0.24776300  0.23764800  1
  Mg  Mg18  1  0.00000000  0.75425300  0.75347300  1
  Mg  Mg19  1  0.00000000  0.75425300  0.24652700  1
  Mg  Mg20  1  0.50000000  0.75453300  0.74423400  1
  Mg  Mg21  1  0.50000000  0.75453300  0.25576600  1
  Mg  Mg22  1  0.75380500  0.24638200  0.00000000  1
  Mg  Mg23  1  0.75495500  0.25177400  0.50000000  1
  Mg  Mg24  1  0.24619500  0.24638200  0.00000000  1
  Mg  Mg25  1  0.24504500  0.25177400  0.50000000  1
  Mg  Mg26  1  0.75190600  0.75332500  0.00000000  1
  Mg  Mg27  1  0.73672400  0.74720500  0.50000000  1
  Mg  Mg28  1  0.24809400  0.75332500  0.00000000  1
  Mg  Mg29  1  0.26327600  0.74720500  0.50000000  1
  B  B0  1  0.50000000  0.05894000  0.50000000  1
  O  O0  1  0.00000000  0.25653900  0.00000000  1
  O  O1  1  0.50000000  0.25444200  0.00000000  1
  O  O2  1  0.50000000  0.23047900  0.50000000  1
  O  O3  1  0.00000000  0.74342700  0.00000000  1
  O  O4  1  0.00000000  0.75772900  0.50000000  1
  O  O5  1  0.50000000  0.74576900  0.00000000  1
  O  O6  1  0.50000000  0.72276100  0.50000000  1
  O  O7  1  0.75071500  0.24778400  0.74778000  1
  O  O8  1  0.75071500  0.24778400  0.25222000  1
  O  O9  1  0.24928500  0.24778400  0.74778000  1
  O  O10  1  0.24928500  0.24778400  0.25222000  1
  O  O11  1  0.74936200  0.75195000  0.74576700  1
  O  O12  1  0.74936200  0.75195000  0.25423300  1
  O  O13  1  0.25063800  0.75195000  0.74576700  1
  O  O14  1  0.25063800  0.75195000  0.25423300  1
  O  O15  1  0.00000000  0.99904900  0.73292800  1
  O  O16  1  0.00000000  0.99904900  0.26707200  1
  O  O17  1  0.50000000  0.00435400  0.76758200  1
  O  O18  1  0.50000000  0.00435400  0.23241800  1
  O  O19  1  0.00000000  0.49975800  0.74615400  1
  O  O20  1  0.00000000  0.49975800  0.25384600  1
  O  O21  1  0.50000000  0.49187800  0.74763400  1
  O  O22  1  0.50000000  0.49187800  0.25236600  1
  O  O23  1  0.75049700  0.99999800  0.00000000  1
  O  O24  1  0.66397000  0.00346000  0.50000000  1
  O  O25  1  0.24950300  0.99999800  0.00000000  1
  O  O26  1  0.33603000  0.00346000  0.50000000  1
  O  O27  1  0.74961300  0.49972200  0.00000000  1
  O  O28  1  0.75171800  0.49296500  0.50000000  1
  O  O29  1  0.25038700  0.49972200  0.00000000  1
  O  O30  1  0.24828200  0.49296500  0.50000000  1
loop_
_geom_bond_atom_site_label_1
_geom_bond_atom_site_label_2
_geom_bond_distance
_geom_bond_site_symmetry_2
Li0 O25 2.094819 1_555
Li0 O23 2.094819 1_455
Li0 O3 2.172277 1_555
Li0 O0 2.212440 1_565
Li0 O16 2.305146 1_555
Li0 O15 2.305146 1_554
Mg0 O15 2.010456 1_555
Mg0 O16 2.010456 1_555
Mg0 O4 2.049370 1_555
Mg1 O18 2.006814 1_565
Mg1 O17 2.006814 1_564
Mg1 O23 2.103157 1_555
Mg1 O25 2.103157 1_555
Mg1 O5 2.153025 1_555
Mg1 O1 2.193760 1_565
Mg2 O3 2.070502 1_555
Mg2 O0 2.090122 1_555
Mg2 O29 2.102178 1_555
Mg2 O27 2.102178 1_455
Mg2 O19 2.190991 1_554
Mg2 O20 2.190991 1_555
Mg3 O30 2.089672 1_555
Mg3 O28 2.089672 1_455
Mg3 O4 2.115160 1_555
Mg3 O19 2.126445 1_555
Mg3 O20 2.126445 1_555
Mg4 O5 2.085166 1_555
Mg4 O27 2.095718 1_555
Mg4 O29 2.095718 1_555
Mg4 O1 2.113391 1_555
Mg4 O21 2.179821 1_554
Mg4 O22 2.179821 1_555
Mg5 O6 1.949551 1_555
Mg5 O28 2.113365 1_555
Mg5 O30 2.113365 1_555
Mg5 O22 2.137472 1_555
Mg5 O21 2.137472 1_555
Mg5 O2 2.257167 1_555
Mg6 O17 2.053557 1_555
Mg6 O23 2.081735 1_546
Mg6 O7 2.117370 1_555
Mg6 O11 2.125959 1_545
Mg6 O15 2.157582 1_645
Mg6 O24 2.334388 1_555
Mg7 O18 2.053557 1_555
Mg7 O23 2.081735 1_545
Mg7 O8 2.117370 1_555
Mg7 O12 2.125959 1_545
Mg7 O16 2.157582 1_645
Mg7 O24 2.334388 1_555
Mg8 O17 2.053557 1_555
Mg8 O25 2.081735 1_546
Mg8 O9 2.117370 1_555
Mg8 O13 2.125959 1_545
Mg8 O15 2.157582 1_545
Mg8 O26 2.334388 1_555
Mg9 O18 2.053557 1_555
Mg9 O25 2.081735 1_545
Mg9 O10 2.117370 1_555
Mg9 O14 2.125959 1_545
Mg9 O16 2.157582 1_545
Mg9 O26 2.334388 1_555
Mg10 O19 2.099465 1_655
Mg10 O21 2.099871 1_555
Mg10 O7 2.148029 1_555
Mg10 O27 2.148909 1_556
Mg10 O11 2.160917 1_555
Mg10 O28 2.167318 1_555
Mg11 O20 2.099465 1_655
Mg11 O22 2.099871 1_555
Mg11 O8 2.148029 1_555
Mg11 O27 2.148909 1_555
Mg11 O12 2.160917 1_555
Mg11 O28 2.167318 1_555
Mg12 O19 2.099465 1_555
Mg12 O21 2.099871 1_555
Mg12 O9 2.148029 1_555
Mg12 O29 2.148909 1_556
Mg12 O13 2.160917 1_555
Mg12 O30 2.167318 1_555
Mg13 O20 2.099465 1_555
Mg13 O22 2.099871 1_555
Mg13 O10 2.148029 1_555
Mg13 O29 2.148909 1_555
Mg13 O14 2.160917 1_555
Mg13 O30 2.167318 1_555
Mg14 O0 2.084216 1_556
Mg14 O9 2.095204 1_555
Mg14 O7 2.095204 1_455
Mg14 O15 2.112095 1_545
Mg14 O19 2.181205 1_555
Mg15 O0 2.084216 1_555
Mg15 O10 2.095204 1_555
Mg15 O8 2.095204 1_455
Mg15 O16 2.112095 1_545
Mg15 O20 2.181205 1_555
Mg16 O1 2.051948 1_556
Mg16 O17 2.080503 1_555
Mg16 O21 2.089910 1_555
Mg16 O7 2.108652 1_555
Mg16 O9 2.108652 1_555
Mg16 O2 2.269188 1_555
Mg17 O1 2.051948 1_555
Mg17 O18 2.080503 1_555
Mg17 O22 2.089910 1_555
Mg17 O8 2.108652 1_555
Mg17 O10 2.108652 1_555
Mg17 O2 2.269188 1_555
Mg18 O15 2.099368 1_555
Mg18 O13 2.105394 1_555
Mg18 O11 2.105394 1_455
Mg18 O3 2.129799 1_556
Mg18 O19 2.175664 1_555
Mg18 O4 2.187942 1_555
Mg19 O16 2.099368 1_555
Mg19 O14 2.105394 1_555
Mg19 O12 2.105394 1_455
Mg19 O3 2.129799 1_555
Mg19 O20 2.175664 1_555
Mg19 O4 2.187942 1_555
Mg20 O11 2.093696 1_555
Mg20 O13 2.093696 1_555
Mg20 O6 2.125411 1_555
Mg20 O17 2.144296 1_565
Mg20 O5 2.208802 1_556
Mg20 O21 2.244669 1_555
Mg21 O12 2.093696 1_555
Mg21 O14 2.093696 1_555
Mg21 O6 2.125411 1_555
Mg21 O18 2.144296 1_565
Mg21 O5 2.208802 1_555
Mg21 O22 2.244669 1_555
Mg22 O0 2.068771 1_655
Mg22 O23 2.105619 1_545
Mg22 O1 2.131953 1_555
Mg22 O27 2.165163 1_555
Mg22 O7 2.177113 1_554
Mg22 O8 2.177113 1_555
Mg23 O28 2.061239 1_555
Mg23 O8 2.139172 1_555
Mg23 O7 2.139172 1_555
Mg23 O2 2.148216 1_555
Mg23 O24 2.255234 1_555
Mg24 O0 2.068771 1_555
Mg24 O25 2.105619 1_545
Mg24 O1 2.131953 1_555
Mg24 O29 2.165163 1_555
Mg24 O9 2.177113 1_554
Mg24 O10 2.177113 1_555
Mg25 O30 2.061239 1_555
Mg25 O10 2.139172 1_555
Mg25 O9 2.139172 1_555
Mg25 O2 2.148216 1_555
Mg25 O26 2.255234 1_555
Mg26 O3 2.084609 1_655
Mg26 O23 2.107938 1_555
Mg26 O5 2.115882 1_555
Mg26 O27 2.167210 1_555
Mg26 O12 2.194436 1_555
Mg26 O11 2.194436 1_554
Mg27 O6 1.998382 1_555
Mg27 O11 2.124269 1_555
Mg27 O12 2.124269 1_555
Mg27 O28 2.176212 1_555
Mg27 O4 2.212183 1_655
Mg27 O24 2.273380 1_565
Mg28 O3 2.084609 1_555
Mg28 O25 2.107938 1_555
Mg28 O5 2.115882 1_555
Mg28 O29 2.167210 1_555
Mg28 O14 2.194436 1_555
Mg28 O13 2.194436 1_554
Mg29 O6 1.998382 1_555
Mg29 O13 2.124269 1_555
Mg29 O14 2.124269 1_555
Mg29 O30 2.176212 1_555
Mg29 O4 2.212183 1_555
Mg29 O26 2.273380 1_565
B0 O26 1.455973 1_555
B0 O24 1.455973 1_555
B0 O2 1.465859 1_555
