# generated using pymatgen
data_Hf8Mg(N2O)4
_symmetry_space_group_name_H-M   'P 1'
_cell_length_a   5.46654082
_cell_length_b   5.46708137
_cell_length_c   10.79351672
_cell_angle_alpha   97.96754844
_cell_angle_beta   79.89867448
_cell_angle_gamma   59.52837800
_symmetry_Int_Tables_number   1
_chemical_formula_structural   Hf8Mg(N2O)4
_chemical_formula_sum   'Hf8 Mg1 N8 O4'
_cell_volume   263.68555396
_cell_formula_units_Z   1
loop_
 _symmetry_equiv_pos_site_id
 _symmetry_equiv_pos_as_xyz
  1  'x, y, z'
loop_
 _atom_site_type_symbol
 _atom_site_label
 _atom_site_symmetry_multiplicity
 _atom_site_fract_x
 _atom_site_fract_y
 _atom_site_fract_z
 _atom_site_occupancy
  Hf  Hf0  1  0.13511300  0.37639200  0.28354900  1
  Hf  Hf1  1  0.15144100  0.99484200  0.75305300  1
  Hf  Hf2  1  0.36344700  0.16662600  0.99020900  1
  Hf  Hf3  1  0.63104600  0.22180200  0.53752600  1
  Hf  Hf4  1  0.35442400  0.82546400  0.45836700  1
  Hf  Hf5  1  0.81635100  0.02792300  0.23678600  1
  Hf  Hf6  1  0.65787600  0.52206700  0.01863600  1
  Hf  Hf7  1  0.84452100  0.64437900  0.71899000  1
  Mg  Mg0  1  0.05840400  0.76536900  0.96184100  1
  N  N0  1  0.45153000  0.09635300  0.37577000  1
  N  N1  1  0.55024500  0.27306100  0.13267300  1
  N  N2  1  0.24638200  0.61551100  0.61944300  1
  N  N3  1  0.75254100  0.39648900  0.38146600  1
  N  N4  1  0.45126000  0.75314400  0.87292300  1
  N  N5  1  0.94952400  0.59229500  0.12001200  1
  N  N6  1  0.96125800  0.22306000  0.61461500  1
  N  N7  1  0.77292500  0.05095100  0.86578600  1
  O  O0  1  0.25092500  0.96648900  0.14040900  1
  O  O1  1  0.06193500  0.78064000  0.37469300  1
  O  O2  1  0.06981000  0.40390600  0.86170500  1
  O  O3  1  0.57376000  0.90552400  0.61307100  1
loop_
_geom_bond_atom_site_label_1
_geom_bond_atom_site_label_2
_geom_bond_distance
_geom_bond_site_symmetry_2
Hf0 O1 2.091584 1_555
Hf0 N3 2.112395 1_455
Hf0 N0 2.160373 1_555
Hf0 O0 2.251198 1_545
Hf0 N1 2.295514 1_555
Hf0 N5 2.351481 1_455
Hf1 N7 2.055662 1_465
Hf1 N2 2.113431 1_555
Hf1 N6 2.148599 1_465
Hf1 O2 2.157096 1_565
Hf1 N4 2.264404 1_555
Hf1 O3 2.297730 1_555
Hf2 N7 2.118581 1_555
Hf2 N1 2.156660 1_556
Hf2 N4 2.199088 1_545
Hf2 O0 2.242399 1_546
Hf2 N5 2.267597 1_456
Hf2 O2 2.313239 1_555
Hf3 N2 2.016480 1_555
Hf3 N6 2.118652 1_555
Hf3 O3 2.145522 1_545
Hf3 N3 2.210737 1_555
Hf3 N0 2.330936 1_555
Hf3 O1 2.462744 1_645
Hf4 N0 2.065721 1_565
Hf4 O1 2.067553 1_555
Hf4 N3 2.139063 1_555
Hf4 N6 2.272096 1_465
Hf4 O3 2.334391 1_555
Hf4 N2 2.359999 1_555
Hf5 N1 2.046620 1_555
Hf5 N0 2.099020 1_555
Hf5 N3 2.200950 1_555
Hf5 N5 2.208660 1_545
Hf5 O0 2.250672 1_645
Hf5 O1 2.294272 1_645
Hf6 N1 2.176529 1_555
Hf6 N5 2.236694 1_555
Hf6 N4 2.252110 1_554
Hf6 O0 2.277471 1_555
Hf6 O2 2.289226 1_654
Hf6 N7 2.562489 1_554
Hf7 O3 2.106874 1_555
Hf7 N6 2.125939 1_555
Hf7 N2 2.186012 1_655
Hf7 N4 2.216379 1_555
Hf7 O2 2.280938 1_655
Hf7 N7 2.351197 1_565
Mg0 O2 2.082426 1_555
Mg0 N7 2.119687 1_465
Mg0 N4 2.156675 1_555
Mg0 N5 2.196988 1_456
Mg0 O0 2.707218 1_556
