# generated using pymatgen
data_TaNi3
_symmetry_space_group_name_H-M   'P 1'
_cell_length_a   5.39059437
_cell_length_b   5.39081000
_cell_length_c   16.41878800
_cell_angle_alpha   90.00000000
_cell_angle_beta   90.00000000
_cell_angle_gamma   59.99868907
_symmetry_Int_Tables_number   1
_chemical_formula_structural   TaNi3
_chemical_formula_sum   'Ta8 Ni24'
_cell_volume   413.19653309
_cell_formula_units_Z   8
loop_
 _symmetry_equiv_pos_site_id
 _symmetry_equiv_pos_as_xyz
  1  'x, y, z'
loop_
 _atom_site_type_symbol
 _atom_site_label
 _atom_site_symmetry_multiplicity
 _atom_site_fract_x
 _atom_site_fract_y
 _atom_site_fract_z
 _atom_site_occupancy
  Ta  Ta0_0  1  0.16667250  0.16666350  0.18750000  1
  Ta  Ta0_1  1  0.16667250  0.16666350  0.68750000  1
  Ta  Ta0_2  1  0.16667250  0.66666350  0.18750000  1
  Ta  Ta0_3  1  0.16667250  0.66666350  0.68750000  1
  Ta  Ta0_4  1  0.66667250  0.16666350  0.18750000  1
  Ta  Ta0_5  1  0.66667250  0.16666350  0.68750000  1
  Ta  Ta0_6  1  0.66667250  0.66666350  0.18750000  1
  Ta  Ta0_7  1  0.66667250  0.66666350  0.68750000  1
  Ni  Ni0_0  1  0.16666200  0.16666900  0.43750000  1
  Ni  Ni0_1  1  0.16666200  0.16666900  0.93750000  1
  Ni  Ni0_2  1  0.16666200  0.66666900  0.43750000  1
  Ni  Ni0_3  1  0.16666200  0.66666900  0.93750000  1
  Ni  Ni0_4  1  0.66666200  0.16666900  0.43750000  1
  Ni  Ni0_5  1  0.66666200  0.16666900  0.93750000  1
  Ni  Ni0_6  1  0.66666200  0.66666900  0.43750000  1
  Ni  Ni0_7  1  0.66666200  0.66666900  0.93750000  1
  Ni  Ni1_0  1  0.33333250  0.33333350  0.05659400  1
  Ni  Ni1_1  1  0.33333250  0.33333350  0.55659400  1
  Ni  Ni1_2  1  0.33333250  0.83333350  0.05659400  1
  Ni  Ni1_3  1  0.33333250  0.83333350  0.55659400  1
  Ni  Ni1_4  1  0.83333250  0.33333350  0.05659400  1
  Ni  Ni1_5  1  0.83333250  0.33333350  0.55659400  1
  Ni  Ni1_6  1  0.83333250  0.83333350  0.05659400  1
  Ni  Ni1_7  1  0.83333250  0.83333350  0.55659400  1
  Ni  Ni2_0  1  0.33333250  0.33333350  0.31840600  1
  Ni  Ni2_1  1  0.33333250  0.33333350  0.81840600  1
  Ni  Ni2_2  1  0.33333250  0.83333350  0.31840600  1
  Ni  Ni2_3  1  0.33333250  0.83333350  0.81840600  1
  Ni  Ni2_4  1  0.83333250  0.33333350  0.31840600  1
  Ni  Ni2_5  1  0.83333250  0.33333350  0.81840600  1
  Ni  Ni2_6  1  0.83333250  0.83333350  0.31840600  1
  Ni  Ni2_7  1  0.83333250  0.83333350  0.81840600  1
loop_
_geom_bond_atom_site_label_1
_geom_bond_atom_site_label_2
_geom_bond_distance
_geom_bond_site_symmetry_2
Ta0_0 Ta0_4 2.695297 1_455
Ta0_0 Ta0_4 2.695297 1_555
Ta0_0 Ta0_6 2.695298 1_455
Ta0_0 Ta0_6 2.695298 1_545
Ta0_0 Ta0_2 2.695405 1_555
Ta0_0 Ta0_2 2.695405 1_545
Ta0_1 Ta0_5 2.695297 1_455
Ta0_1 Ta0_5 2.695297 1_555
Ta0_1 Ta0_7 2.695298 1_455
Ta0_1 Ta0_7 2.695298 1_545
Ta0_1 Ta0_3 2.695405 1_545
Ta0_1 Ta0_3 2.695405 1_555
Ta0_2 Ta0_6 2.695297 1_455
Ta0_2 Ta0_6 2.695297 1_555
Ta0_2 Ta0_4 2.695298 1_555
Ta0_2 Ta0_4 2.695298 1_465
Ta0_3 Ta0_7 2.695297 1_455
Ta0_3 Ta0_7 2.695297 1_555
Ta0_3 Ta0_5 2.695298 1_555
Ta0_3 Ta0_5 2.695298 1_465
Ta0_4 Ta0_6 2.695405 1_555
Ta0_4 Ta0_6 2.695405 1_545
Ta0_5 Ta0_7 2.695405 1_555
Ta0_5 Ta0_7 2.695405 1_545
Ni0_0 Ni2_4 2.498986 1_455
Ni0_0 Ni1_5 2.498986 1_455
Ni0_0 Ni2_0 2.499040 1_555
Ni0_0 Ni1_1 2.499040 1_555
Ni0_0 Ni2_2 2.499042 1_545
Ni0_0 Ni1_3 2.499042 1_545
Ni0_0 Ni0_4 2.695297 1_555
Ni0_0 Ni0_4 2.695297 1_455
Ni0_0 Ni0_6 2.695298 1_545
Ni0_0 Ni0_6 2.695298 1_455
Ni0_0 Ni0_2 2.695405 1_555
Ni0_0 Ni0_2 2.695405 1_545
Ni0_1 Ni2_5 2.498986 1_455
Ni0_1 Ni1_4 2.498986 1_456
Ni0_1 Ni2_1 2.499040 1_555
Ni0_1 Ni1_0 2.499040 1_556
Ni0_1 Ni2_3 2.499042 1_545
Ni0_1 Ni1_2 2.499042 1_546
Ni0_1 Ni0_5 2.695297 1_555
Ni0_1 Ni0_5 2.695297 1_455
Ni0_1 Ni0_7 2.695298 1_545
Ni0_1 Ni0_7 2.695298 1_455
Ni0_1 Ni0_3 2.695405 1_555
Ni0_1 Ni0_3 2.695405 1_545
Ni0_2 Ni2_6 2.498986 1_455
Ni0_2 Ni1_7 2.498986 1_455
Ni0_2 Ni2_2 2.499040 1_555
Ni0_2 Ni1_3 2.499040 1_555
Ni0_2 Ni2_0 2.499042 1_555
Ni0_2 Ni1_1 2.499042 1_555
Ni0_2 Ni0_6 2.695297 1_455
Ni0_2 Ni0_6 2.695297 1_555
Ni0_2 Ni0_4 2.695298 1_555
Ni0_2 Ni0_4 2.695298 1_465
Ni0_3 Ni2_7 2.498986 1_455
Ni0_3 Ni1_6 2.498986 1_456
Ni0_3 Ni2_3 2.499040 1_555
Ni0_3 Ni1_2 2.499040 1_556
Ni0_3 Ni2_1 2.499042 1_555
Ni0_3 Ni1_0 2.499042 1_556
Ni0_3 Ni0_7 2.695297 1_455
Ni0_3 Ni0_7 2.695297 1_555
Ni0_3 Ni0_5 2.695298 1_555
Ni0_3 Ni0_5 2.695298 1_465
Ni0_4 Ni2_0 2.498986 1_555
Ni0_4 Ni1_1 2.498986 1_555
Ni0_4 Ni2_4 2.499040 1_555
Ni0_4 Ni1_5 2.499040 1_555
Ni0_4 Ni2_6 2.499042 1_545
Ni0_4 Ni1_7 2.499042 1_545
Ni0_4 Ni0_6 2.695405 1_545
Ni0_4 Ni0_6 2.695405 1_555
Ni0_5 Ni2_1 2.498986 1_555
Ni0_5 Ni1_0 2.498986 1_556
Ni0_5 Ni2_5 2.499040 1_555
Ni0_5 Ni1_4 2.499040 1_556
Ni0_5 Ni2_7 2.499042 1_545
Ni0_5 Ni1_6 2.499042 1_546
Ni0_5 Ni0_7 2.695405 1_545
Ni0_5 Ni0_7 2.695405 1_555
Ni0_6 Ni2_2 2.498986 1_555
Ni0_6 Ni1_3 2.498986 1_555
Ni0_6 Ni2_6 2.499040 1_555
Ni0_6 Ni1_7 2.499040 1_555
Ni0_6 Ni2_4 2.499042 1_555
Ni0_6 Ni1_5 2.499042 1_555
Ni0_7 Ni2_3 2.498986 1_555
Ni0_7 Ni1_2 2.498986 1_556
Ni0_7 Ni2_7 2.499040 1_555
Ni0_7 Ni1_6 2.499040 1_556
Ni0_7 Ni2_5 2.499042 1_555
Ni0_7 Ni1_4 2.499042 1_556
Ni1_0 Ta0_4 2.653515 1_555
Ni1_0 Ta0_0 2.653524 1_555
Ni1_0 Ta0_2 2.653524 1_555
Ni1_0 Ni1_4 2.695297 1_555
Ni1_0 Ni1_4 2.695297 1_455
Ni1_0 Ni1_6 2.695298 1_545
Ni1_0 Ni1_6 2.695298 1_455
Ni1_0 Ni1_2 2.695405 1_545
Ni1_0 Ni1_2 2.695405 1_555
Ni1_1 Ta0_5 2.653515 1_555
Ni1_1 Ta0_1 2.653524 1_555
Ni1_1 Ta0_3 2.653524 1_555
Ni1_1 Ni1_5 2.695297 1_555
Ni1_1 Ni1_5 2.695297 1_455
Ni1_1 Ni1_7 2.695298 1_545
Ni1_1 Ni1_7 2.695298 1_455
Ni1_1 Ni1_3 2.695405 1_555
Ni1_1 Ni1_3 2.695405 1_545
Ni1_2 Ta0_6 2.653515 1_555
Ni1_2 Ta0_2 2.653524 1_555
Ni1_2 Ta0_0 2.653524 1_565
Ni1_2 Ni1_6 2.695297 1_555
Ni1_2 Ni1_6 2.695297 1_455
Ni1_2 Ni1_4 2.695298 1_555
Ni1_2 Ni1_4 2.695298 1_465
Ni1_3 Ta0_7 2.653515 1_555
Ni1_3 Ta0_3 2.653524 1_555
Ni1_3 Ta0_1 2.653524 1_565
Ni1_3 Ni1_7 2.695297 1_555
Ni1_3 Ni1_7 2.695297 1_455
Ni1_3 Ni1_5 2.695298 1_555
Ni1_3 Ni1_5 2.695298 1_465
Ni1_4 Ta0_0 2.653515 1_655
Ni1_4 Ta0_4 2.653524 1_555
Ni1_4 Ta0_6 2.653524 1_555
Ni1_4 Ni1_6 2.695405 1_555
Ni1_4 Ni1_6 2.695405 1_545
Ni1_5 Ta0_1 2.653515 1_655
Ni1_5 Ta0_5 2.653524 1_555
Ni1_5 Ta0_7 2.653524 1_555
Ni1_5 Ni1_7 2.695405 1_545
Ni1_5 Ni1_7 2.695405 1_555
Ni1_6 Ta0_2 2.653515 1_655
Ni1_6 Ta0_6 2.653524 1_555
Ni1_6 Ta0_4 2.653524 1_565
Ni1_7 Ta0_3 2.653515 1_655
Ni1_7 Ta0_7 2.653524 1_555
Ni1_7 Ta0_5 2.653524 1_565
Ni2_0 Ta0_4 2.653515 1_555
Ni2_0 Ta0_0 2.653524 1_555
Ni2_0 Ta0_2 2.653524 1_555
Ni2_0 Ni2_4 2.695297 1_555
Ni2_0 Ni2_4 2.695297 1_455
Ni2_0 Ni2_6 2.695298 1_545
Ni2_0 Ni2_6 2.695298 1_455
Ni2_0 Ni2_2 2.695405 1_545
Ni2_0 Ni2_2 2.695405 1_555
Ni2_1 Ta0_5 2.653515 1_555
Ni2_1 Ta0_1 2.653524 1_555
Ni2_1 Ta0_3 2.653524 1_555
Ni2_1 Ni2_5 2.695297 1_555
Ni2_1 Ni2_5 2.695297 1_455
Ni2_1 Ni2_7 2.695298 1_545
Ni2_1 Ni2_7 2.695298 1_455
Ni2_1 Ni2_3 2.695405 1_555
Ni2_1 Ni2_3 2.695405 1_545
Ni2_2 Ta0_6 2.653515 1_555
Ni2_2 Ta0_2 2.653524 1_555
Ni2_2 Ta0_0 2.653524 1_565
Ni2_2 Ni2_6 2.695297 1_555
Ni2_2 Ni2_6 2.695297 1_455
Ni2_2 Ni2_4 2.695298 1_555
Ni2_2 Ni2_4 2.695298 1_465
Ni2_3 Ta0_7 2.653515 1_555
Ni2_3 Ta0_3 2.653524 1_555
Ni2_3 Ta0_1 2.653524 1_565
Ni2_3 Ni2_7 2.695297 1_555
Ni2_3 Ni2_7 2.695297 1_455
Ni2_3 Ni2_5 2.695298 1_555
Ni2_3 Ni2_5 2.695298 1_465
Ni2_4 Ta0_0 2.653515 1_655
Ni2_4 Ta0_4 2.653524 1_555
Ni2_4 Ta0_6 2.653524 1_555
Ni2_4 Ni2_6 2.695405 1_555
Ni2_4 Ni2_6 2.695405 1_545
Ni2_5 Ta0_1 2.653515 1_655
Ni2_5 Ta0_5 2.653524 1_555
Ni2_5 Ta0_7 2.653524 1_555
Ni2_5 Ni2_7 2.695405 1_555
Ni2_5 Ni2_7 2.695405 1_545
Ni2_6 Ta0_2 2.653515 1_655
Ni2_6 Ta0_6 2.653524 1_555
Ni2_6 Ta0_4 2.653524 1_565
Ni2_7 Ta0_3 2.653515 1_655
Ni2_7 Ta0_7 2.653524 1_555
Ni2_7 Ta0_5 2.653524 1_565
