# generated using pymatgen
data_Tb(PPd)2
_symmetry_space_group_name_H-M   'P 1'
_cell_length_a   5.71483287
_cell_length_b   5.71483287
_cell_length_c   5.71483287
_cell_angle_alpha   138.10470684
_cell_angle_beta   138.10470684
_cell_angle_gamma   60.74267303
_symmetry_Int_Tables_number   1
_chemical_formula_structural   Tb(PPd)2
_chemical_formula_sum   'Tb1 P2 Pd2'
_cell_volume   82.32882299
_cell_formula_units_Z   1
loop_
 _symmetry_equiv_pos_site_id
 _symmetry_equiv_pos_as_xyz
  1  'x, y, z'
loop_
 _atom_site_type_symbol
 _atom_site_label
 _atom_site_symmetry_multiplicity
 _atom_site_fract_x
 _atom_site_fract_y
 _atom_site_fract_z
 _atom_site_occupancy
  Tb  Tb0  1  -0.00000000  0.00000000  -0.00000000  1
  P  P0  1  0.38940881  0.38940881  0.00000000  1
  P  P1  1  0.61059119  0.61059119  -0.00000000  1
  Pd  Pd0  1  0.75000000  0.25000000  0.50000000  1
  Pd  Pd1  1  0.25000000  0.75000000  0.50000000  1
loop_
_geom_bond_atom_site_label_1
_geom_bond_atom_site_label_2
_geom_bond_distance
_geom_bond_site_symmetry_2
P0 P1 2.181109 1_555
P0 Pd1 2.462578 1_544
P0 Pd0 2.462578 1_454
P0 Pd1 2.462578 1_555
P0 Pd0 2.462578 1_555
P0 Tb0 3.088386 1_554
P0 Tb0 3.088386 1_565
P0 Tb0 3.088386 1_666
P0 Tb0 3.088386 1_655
P1 Pd0 2.462578 1_565
P1 Pd1 2.462578 1_655
P1 Pd1 2.462578 1_554
P1 Pd0 2.462578 1_554
P1 Tb0 3.088386 1_554
P1 Tb0 3.088386 1_565
P1 Tb0 3.088386 1_666
P1 Tb0 3.088386 1_655
Pd0 Pd1 2.889432 1_656
Pd0 Pd1 2.889432 1_544
Pd0 Pd1 2.889432 1_645
Pd0 Pd1 2.889432 1_555
Pd0 Tb0 3.201880 1_555
Pd0 Tb0 3.201880 1_655
Pd0 Tb0 3.201880 1_656
Pd0 Tb0 3.201880 1_666
Pd1 Tb0 3.201880 1_666
Pd1 Tb0 3.201880 1_565
Pd1 Tb0 3.201880 1_566
Pd1 Tb0 3.201880 1_555
