# generated using pymatgen
data_Ca3Pd
_symmetry_space_group_name_H-M   'P 1'
_cell_length_a   6.65389273
_cell_length_b   7.79624976
_cell_length_c   9.71796279
_cell_angle_alpha   90.00000000
_cell_angle_beta   90.00000000
_cell_angle_gamma   90.00000000
_symmetry_Int_Tables_number   1
_chemical_formula_structural   Ca3Pd
_chemical_formula_sum   'Ca12 Pd4'
_cell_volume   504.12330020
_cell_formula_units_Z   4
loop_
 _symmetry_equiv_pos_site_id
 _symmetry_equiv_pos_as_xyz
  1  'x, y, z'
loop_
 _atom_site_type_symbol
 _atom_site_label
 _atom_site_symmetry_multiplicity
 _atom_site_fract_x
 _atom_site_fract_y
 _atom_site_fract_z
 _atom_site_occupancy
  Ca  Ca0  1  0.33596753  0.66962531  0.06631708  1
  Ca  Ca1  1  0.16403247  0.16962531  0.43368292  1
  Ca  Ca2  1  0.66403247  0.33037469  0.56631708  1
  Ca  Ca3  1  0.83596753  0.83037469  0.93368292  1
  Ca  Ca4  1  0.66403247  0.33037469  0.93368292  1
  Ca  Ca5  1  0.83596753  0.83037469  0.56631708  1
  Ca  Ca6  1  0.33596753  0.66962531  0.43368292  1
  Ca  Ca7  1  0.16403247  0.16962531  0.06631708  1
  Ca  Ca8  1  0.85802136  0.54159061  0.25000000  1
  Ca  Ca9  1  0.64197864  0.04159061  0.25000000  1
  Ca  Ca10  1  0.14197864  0.45840939  0.75000000  1
  Ca  Ca11  1  0.35802136  0.95840939  0.75000000  1
  Pd  Pd0  1  0.04648791  0.87731608  0.25000000  1
  Pd  Pd1  1  0.45351209  0.37731608  0.25000000  1
  Pd  Pd2  1  0.95351209  0.12268392  0.75000000  1
  Pd  Pd3  1  0.54648791  0.62268392  0.75000000  1
loop_
_geom_bond_atom_site_label_1
_geom_bond_atom_site_label_2
_geom_bond_distance
_geom_bond_site_symmetry_2
Ca0 Pd1 2.998582 1_555
Ca0 Pd0 3.085169 1_555
Ca0 Pd3 3.397842 1_554
Ca0 Ca6 3.570048 1_555
Ca0 Ca4 3.663584 1_554
Ca0 Ca10 3.718458 1_554
Ca0 Ca8 3.781056 1_455
Ca0 Ca3 3.781605 1_554
Ca0 Ca3 3.781605 1_454
Ca0 Ca11 3.813096 1_554
Ca0 Ca9 3.967606 1_565
Ca0 Ca8 4.031032 1_555
Ca0 Ca7 4.062536 1_555
Ca0 Ca7 4.062536 1_565
Ca1 Pd0 2.998582 1_545
Ca1 Pd1 3.085169 1_555
Ca1 Pd2 3.397842 1_455
Ca1 Ca7 3.570048 1_555
Ca1 Ca5 3.663584 1_445
Ca1 Ca11 3.718458 1_545
Ca1 Ca9 3.781056 1_555
Ca1 Ca2 3.781605 1_555
Ca1 Ca2 3.781605 1_455
Ca1 Ca10 3.813096 1_555
Ca1 Ca8 3.967606 1_455
Ca1 Ca9 4.031032 1_455
Ca1 Ca6 4.062536 1_545
Ca1 Ca6 4.062536 1_555
Ca2 Pd3 2.998582 1_555
Ca2 Pd2 3.085169 1_555
Ca2 Pd1 3.397842 1_555
Ca2 Ca4 3.570048 1_555
Ca2 Ca6 3.663584 1_555
Ca2 Ca8 3.718458 1_555
Ca2 Ca9 3.813096 1_555
Ca2 Ca5 4.062536 1_555
Ca2 Ca5 4.062536 1_545
Ca3 Pd2 2.998582 1_565
Ca3 Pd3 3.085169 1_555
Ca3 Pd0 3.397842 1_656
Ca3 Ca5 3.570048 1_555
Ca3 Ca7 3.663584 1_666
Ca3 Ca9 3.718458 1_566
Ca3 Ca8 3.813096 1_556
Ca3 Ca4 4.062536 1_555
Ca3 Ca4 4.062536 1_565
Ca4 Pd3 2.998582 1_555
Ca4 Pd2 3.085169 1_555
Ca4 Pd1 3.397842 1_556
Ca4 Ca8 3.718458 1_556
Ca4 Ca7 3.781605 1_556
Ca4 Ca7 3.781605 1_656
Ca4 Ca9 3.813096 1_556
Ca5 Pd2 2.998582 1_565
Ca5 Pd3 3.085169 1_555
Ca5 Pd0 3.397842 1_655
Ca5 Ca9 3.718458 1_565
Ca5 Ca6 3.781605 1_555
Ca5 Ca6 3.781605 1_655
Ca5 Ca8 3.813096 1_555
Ca6 Pd1 2.998582 1_555
Ca6 Pd0 3.085169 1_555
Ca6 Pd3 3.397842 1_555
Ca6 Ca8 3.781056 1_455
Ca6 Ca9 3.967606 1_565
Ca6 Ca8 4.031032 1_555
Ca7 Pd0 2.998582 1_545
Ca7 Pd1 3.085169 1_555
Ca7 Pd2 3.397842 1_454
Ca7 Ca9 3.781056 1_555
Ca7 Ca8 3.967606 1_455
Ca7 Ca9 4.031032 1_455
Ca8 Pd0 2.902307 1_655
Ca8 Pd1 2.980731 1_555
Ca9 Pd1 2.902307 1_555
Ca9 Pd0 2.980731 1_645
Ca10 Pd2 2.902307 1_455
Ca10 Pd3 2.980731 1_555
Ca10 Ca6 3.718458 1_555
Ca10 Ca2 3.781056 1_455
Ca10 Ca4 3.781056 1_455
Ca10 Ca7 3.813096 1_556
Ca10 Ca3 3.967606 1_455
Ca10 Ca5 3.967606 1_455
Ca10 Ca4 4.031032 1_555
Ca10 Ca2 4.031032 1_555
Ca11 Pd3 2.902307 1_555
Ca11 Pd2 2.980731 1_465
Ca11 Ca7 3.718458 1_566
Ca11 Ca5 3.781056 1_555
Ca11 Ca3 3.781056 1_555
Ca11 Ca6 3.813096 1_555
Ca11 Ca4 3.967606 1_565
Ca11 Ca2 3.967606 1_565
Ca11 Ca3 4.031032 1_455
Ca11 Ca5 4.031032 1_455
