# generated using pymatgen
data_SiMoO4
_symmetry_space_group_name_H-M   'P 1'
_cell_length_a   9.99226173
_cell_length_b   9.99226173
_cell_length_c   9.99226173
_cell_angle_alpha   109.47122063
_cell_angle_beta   109.47122063
_cell_angle_gamma   109.47122063
_symmetry_Int_Tables_number   1
_chemical_formula_structural   SiMoO4
_chemical_formula_sum   'Si12 Mo12 O48'
_cell_volume   768.01466469
_cell_formula_units_Z   12
loop_
 _symmetry_equiv_pos_site_id
 _symmetry_equiv_pos_as_xyz
  1  'x, y, z'
loop_
 _atom_site_type_symbol
 _atom_site_label
 _atom_site_symmetry_multiplicity
 _atom_site_fract_x
 _atom_site_fract_y
 _atom_site_fract_z
 _atom_site_occupancy
  Si  Si0  1  0.12500000  0.87500000  0.25000000  1
  Si  Si1  1  0.25000000  0.12500000  0.87500000  1
  Si  Si2  1  0.75000000  0.37500000  0.62500000  1
  Si  Si3  1  0.62500000  0.37500000  0.25000000  1
  Si  Si4  1  0.62500000  0.75000000  0.37500000  1
  Si  Si5  1  0.37500000  0.62500000  0.75000000  1
  Si  Si6  1  0.12500000  0.75000000  0.87500000  1
  Si  Si7  1  0.75000000  0.87500000  0.12500000  1
  Si  Si8  1  0.87500000  0.25000000  0.12500000  1
  Si  Si9  1  0.37500000  0.25000000  0.62500000  1
  Si  Si10  1  0.25000000  0.62500000  0.37500000  1
  Si  Si11  1  0.87500000  0.12500000  0.75000000  1
  Mo  Mo0  1  0.87500000  0.62500000  0.25000000  1
  Mo  Mo1  1  0.62500000  0.25000000  0.87500000  1
  Mo  Mo2  1  0.87500000  0.75000000  0.62500000  1
  Mo  Mo3  1  0.75000000  0.62500000  0.87500000  1
  Mo  Mo4  1  0.25000000  0.87500000  0.62500000  1
  Mo  Mo5  1  0.62500000  0.87500000  0.75000000  1
  Mo  Mo6  1  0.12500000  0.37500000  0.75000000  1
  Mo  Mo7  1  0.37500000  0.75000000  0.12500000  1
  Mo  Mo8  1  0.12500000  0.25000000  0.37500000  1
  Mo  Mo9  1  0.25000000  0.37500000  0.12500000  1
  Mo  Mo10  1  0.75000000  0.12500000  0.37500000  1
  Mo  Mo11  1  0.37500000  0.12500000  0.25000000  1
  O  O0  1  0.46839200  0.36954100  0.27493900  1
  O  O1  1  0.30654700  0.90114800  0.03160800  1
  O  O2  1  0.59885200  0.90539900  0.13045900  1
  O  O3  1  0.59460100  0.19345300  0.22506100  1
  O  O4  1  0.13045900  0.03160800  0.22506100  1
  O  O5  1  0.19345300  0.22506100  0.59460100  1
  O  O6  1  0.19345300  0.46839200  0.59885200  1
  O  O7  1  0.22506100  0.59460100  0.19345300  1
  O  O8  1  0.36954100  0.59460100  0.90114800  1
  O  O9  1  0.90539900  0.27493900  0.30654700  1
  O  O10  1  0.27493900  0.30654700  0.90539900  1
  O  O11  1  0.22506100  0.13045900  0.03160800  1
  O  O12  1  0.46839200  0.59885200  0.19345300  1
  O  O13  1  0.90114800  0.36954100  0.59460100  1
  O  O14  1  0.03160800  0.22506100  0.13045900  1
  O  O15  1  0.59885200  0.19345300  0.46839200  1
  O  O16  1  0.59460100  0.90114800  0.36954100  1
  O  O17  1  0.03160800  0.30654700  0.90114800  1
  O  O18  1  0.90539900  0.13045900  0.59885200  1
  O  O19  1  0.63045900  0.40539900  0.09885200  1
  O  O20  1  0.36954100  0.27493900  0.46839200  1
  O  O21  1  0.27493900  0.46839200  0.36954100  1
  O  O22  1  0.90114800  0.03160800  0.30654700  1
  O  O23  1  0.30654700  0.90539900  0.27493900  1
  O  O24  1  0.53160800  0.63045900  0.72506100  1
  O  O25  1  0.69345300  0.09885200  0.96839200  1
  O  O26  1  0.40114800  0.09460100  0.86954100  1
  O  O27  1  0.40539900  0.80654700  0.77493900  1
  O  O28  1  0.86954100  0.96839200  0.77493900  1
  O  O29  1  0.80654700  0.77493900  0.40539900  1
  O  O30  1  0.80654700  0.53160800  0.40114800  1
  O  O31  1  0.77493900  0.40539900  0.80654700  1
  O  O32  1  0.69345300  0.09460100  0.72506100  1
  O  O33  1  0.09885200  0.96839200  0.69345300  1
  O  O34  1  0.72506100  0.53160800  0.63045900  1
  O  O35  1  0.63045900  0.72506100  0.53160800  1
  O  O36  1  0.86954100  0.40114800  0.09460100  1
  O  O37  1  0.09460100  0.86954100  0.40114800  1
  O  O38  1  0.96839200  0.69345300  0.09885200  1
  O  O39  1  0.40539900  0.09885200  0.63045900  1
  O  O40  1  0.40114800  0.80654700  0.53160800  1
  O  O41  1  0.96839200  0.77493900  0.86954100  1
  O  O42  1  0.09885200  0.63045900  0.40539900  1
  O  O43  1  0.53160800  0.40114800  0.80654700  1
  O  O44  1  0.77493900  0.86954100  0.96839200  1
  O  O45  1  0.72506100  0.69345300  0.09460100  1
  O  O46  1  0.09460100  0.72506100  0.69345300  1
  O  O47  1  0.13045900  0.59885200  0.90539900  1
loop_
_geom_bond_atom_site_label_1
_geom_bond_atom_site_label_2
_geom_bond_distance
_geom_bond_site_symmetry_2
Mo0 O30 2.196025 1_555
Mo0 O38 2.196025 1_555
Mo0 O37 2.196031 1_655
Mo0 O19 2.196031 1_555
Mo0 O45 2.228005 1_555
Mo0 O29 2.228005 1_555
Mo0 O36 2.228011 1_555
Mo0 O42 2.228011 1_655
Mo1 O43 2.196025 1_555
Mo1 O25 2.196025 1_555
Mo1 O39 2.196031 1_555
Mo1 O36 2.196031 1_556
Mo1 O32 2.228005 1_555
Mo1 O31 2.228005 1_555
Mo1 O19 2.228011 1_556
Mo1 O26 2.228011 1_555
Mo2 O46 2.196025 1_655
Mo2 O29 2.196025 1_555
Mo2 O41 2.196034 1_555
Mo2 O35 2.196034 1_555
Mo2 O28 2.227999 1_555
Mo2 O34 2.227999 1_555
Mo2 O33 2.228005 1_655
Mo2 O30 2.228005 1_555
Mo3 O45 2.196025 1_556
Mo3 O31 2.196025 1_555
Mo3 O44 2.196034 1_555
Mo3 O34 2.196034 1_555
Mo3 O24 2.227999 1_555
Mo3 O41 2.227999 1_555
Mo3 O43 2.228005 1_555
Mo3 O38 2.228005 1_556
Mo4 O40 2.196025 1_555
Mo4 O33 2.196025 1_555
Mo4 O42 2.196031 1_555
Mo4 O26 2.196031 1_565
Mo4 O27 2.228005 1_555
Mo4 O46 2.228005 1_555
Mo4 O39 2.228011 1_565
Mo4 O37 2.228011 1_555
Mo5 O32 2.196025 1_565
Mo5 O27 2.196025 1_555
Mo5 O28 2.196034 1_555
Mo5 O24 2.196034 1_555
Mo5 O44 2.227999 1_555
Mo5 O35 2.227999 1_555
Mo5 O40 2.228005 1_555
Mo5 O25 2.228005 1_565
Mo6 O6 2.196025 1_555
Mo6 O17 2.196025 1_555
Mo6 O8 2.196031 1_555
Mo6 O18 2.196031 1_455
Mo6 O10 2.228005 1_555
Mo6 O5 2.228005 1_555
Mo6 O47 2.228011 1_555
Mo6 O13 2.228011 1_455
Mo7 O1 2.196025 1_555
Mo7 O12 2.196025 1_555
Mo7 O47 2.196031 1_554
Mo7 O16 2.196031 1_555
Mo7 O23 2.228005 1_555
Mo7 O7 2.228005 1_555
Mo7 O8 2.228011 1_554
Mo7 O2 2.228011 1_555
Mo8 O5 2.196025 1_555
Mo8 O9 2.196025 1_455
Mo8 O20 2.196034 1_555
Mo8 O14 2.196034 1_555
Mo8 O21 2.227999 1_555
Mo8 O4 2.227999 1_555
Mo8 O6 2.228005 1_555
Mo8 O22 2.228005 1_455
Mo9 O10 2.196025 1_554
Mo9 O7 2.196025 1_555
Mo9 O11 2.196034 1_555
Mo9 O21 2.196034 1_555
Mo9 O0 2.227999 1_555
Mo9 O14 2.227999 1_555
Mo9 O12 2.228005 1_555
Mo9 O17 2.228005 1_554
Mo10 O22 2.196025 1_555
Mo10 O15 2.196025 1_555
Mo10 O13 2.196031 1_555
Mo10 O2 2.196031 1_545
Mo10 O9 2.228005 1_555
Mo10 O3 2.228005 1_555
Mo10 O18 2.228011 1_555
Mo10 O16 2.228011 1_545
Mo11 O23 2.196025 1_545
Mo11 O3 2.196025 1_555
Mo11 O0 2.196034 1_555
Mo11 O4 2.196034 1_555
Mo11 O20 2.227999 1_555
Mo11 O11 2.227999 1_555
Mo11 O15 2.228005 1_555
Mo11 O1 2.228005 1_545
O0 Si3 1.651065 1_555
O1 Si6 1.651063 1_554
O2 Si7 1.651060 1_555
O3 Si3 1.651063 1_555
O4 Si0 1.651065 1_545
O5 Si9 1.651063 1_555
O6 Si5 1.651063 1_555
O7 Si10 1.651063 1_555
O8 Si5 1.651060 1_555
O9 Si8 1.651063 1_555
O10 Si1 1.651063 1_555
O11 Si1 1.651065 1_554
O12 Si4 1.651063 1_555
O13 Si2 1.651060 1_555
O14 Si8 1.651065 1_455
O15 Si2 1.651063 1_555
O16 Si4 1.651060 1_555
O17 Si11 1.651063 1_455
O18 Si11 1.651060 1_555
O19 Si3 1.651060 1_555
O20 Si9 1.651065 1_555
O21 Si10 1.651065 1_555
O22 Si7 1.651063 1_545
O23 Si0 1.651063 1_555
O24 Si5 1.651065 1_555
O25 Si8 1.651063 1_556
O26 Si1 1.651060 1_555
O27 Si5 1.651063 1_555
O28 Si11 1.651065 1_565
O29 Si4 1.651063 1_555
O30 Si3 1.651063 1_555
O31 Si2 1.651063 1_555
O32 Si11 1.651063 1_555
O33 Si1 1.651063 1_565
O34 Si2 1.651065 1_555
O35 Si4 1.651065 1_555
O36 Si8 1.651060 1_555
O37 Si0 1.651060 1_555
O38 Si0 1.651063 1_655
O39 Si9 1.651060 1_555
O40 Si10 1.651063 1_555
O41 Si6 1.651065 1_655
O42 Si10 1.651060 1_555
O43 Si9 1.651063 1_555
O44 Si7 1.651065 1_556
O45 Si7 1.651063 1_555
O46 Si6 1.651063 1_555
O47 Si6 1.651060 1_555
