# generated using pymatgen
data_CsRbMg6O7
_symmetry_space_group_name_H-M   'P 1'
_cell_length_a   8.01571157
_cell_length_b   5.11553541
_cell_length_c   5.11553854
_cell_angle_alpha   90.00000000
_cell_angle_beta   90.00000357
_cell_angle_gamma   89.99999846
_symmetry_Int_Tables_number   1
_chemical_formula_structural   CsRbMg6O7
_chemical_formula_sum   'Cs1 Rb1 Mg6 O7'
_cell_volume   209.76089999
_cell_formula_units_Z   1
loop_
 _symmetry_equiv_pos_site_id
 _symmetry_equiv_pos_as_xyz
  1  'x, y, z'
loop_
 _atom_site_type_symbol
 _atom_site_label
 _atom_site_symmetry_multiplicity
 _atom_site_fract_x
 _atom_site_fract_y
 _atom_site_fract_z
 _atom_site_occupancy
  Cs  Cs0  1  0.43297435  0.99999990  0.00000029  1
  Rb  Rb0  1  0.02805636  0.99999984  0.00000000  1
  Mg  Mg0  1  0.00207053  0.49999904  0.50000033  1
  Mg  Mg1  1  0.50894864  0.49999930  0.50000072  1
  Mg  Mg2  1  0.25270011  -0.00000028  0.49999982  1
  Mg  Mg3  1  0.75229230  -0.00000012  0.49999832  1
  Mg  Mg4  1  0.25270744  0.50000002  -0.00000059  1
  Mg  Mg5  1  0.75230044  0.50000024  0.99999880  1
  O  O0  1  0.73490709  -0.00000008  0.00000107  1
  O  O1  1  0.25597759  0.50000041  0.50000039  1
  O  O2  1  0.75512141  0.50000025  0.50000092  1
  O  O3  1  0.01118434  0.00000103  0.50000001  1
  O  O4  1  0.49978035  0.00000070  0.50000032  1
  O  O5  1  0.01119195  0.49999986  -0.00000011  1
  O  O6  1  0.49978709  0.49999989  0.99999970  1
loop_
_geom_bond_atom_site_label_1
_geom_bond_atom_site_label_2
_geom_bond_distance
_geom_bond_site_symmetry_2
Cs0 O0 2.420206 1_565
Cs0 O4 2.613224 1_564
Cs0 O4 2.613224 1_565
Cs0 O6 2.613234 1_564
Cs0 O6 2.613234 1_554
Mg0 O2 1.979473 1_455
Mg0 O1 2.035246 1_555
Mg0 O3 2.558801 1_555
Mg0 O5 2.558812 1_556
Mg0 O5 2.558816 1_555
Mg0 O3 2.558821 1_565
Mg1 O2 1.973250 1_555
Mg1 O1 2.027743 1_555
Mg1 O4 2.558816 1_555
Mg1 O6 2.558818 1_555
Mg1 O6 2.558828 1_554
Mg1 O4 2.558830 1_565
Mg2 O3 1.935921 1_555
Mg2 O4 1.980524 1_555
Mg2 O1 2.557899 1_545
Mg2 O1 2.557906 1_555
Mg3 O4 2.024063 1_555
Mg3 O3 2.075204 1_655
Mg3 O2 2.557866 1_545
Mg3 O2 2.557870 1_555
Mg3 O0 2.561549 1_555
Mg3 O0 2.561577 1_556
Mg4 O5 1.935919 1_555
Mg4 O6 1.980519 1_554
Mg4 O1 2.557899 1_554
Mg4 O1 2.557909 1_555
Mg5 O6 2.024074 1_555
Mg5 O5 2.075200 1_656
Mg5 O2 2.557858 1_555
Mg5 O2 2.557880 1_556
Mg5 O0 2.561563 1_566
Mg5 O0 2.561566 1_556
O0 Rb0 2.349800 1_645
O3 Rb0 2.561342 1_546
O3 Rb0 2.561342 1_545
O5 Rb0 2.561337 1_555
O5 Rb0 2.561338 1_545
