# generated using pymatgen
data_Lu5(Ge5Ir2)2
_symmetry_space_group_name_H-M   'P 1'
_cell_length_a   12.97806900
_cell_length_b   12.97806900
_cell_length_c   4.29470800
_cell_angle_alpha   90.00000000
_cell_angle_beta   90.00000000
_cell_angle_gamma   90.00000000
_symmetry_Int_Tables_number   1
_chemical_formula_structural   Lu5(Ge5Ir2)2
_chemical_formula_sum   'Lu10 Ge20 Ir8'
_cell_volume   723.35884935
_cell_formula_units_Z   2
loop_
 _symmetry_equiv_pos_site_id
 _symmetry_equiv_pos_as_xyz
  1  'x, y, z'
loop_
 _atom_site_type_symbol
 _atom_site_label
 _atom_site_symmetry_multiplicity
 _atom_site_fract_x
 _atom_site_fract_y
 _atom_site_fract_z
 _atom_site_occupancy
  Lu  Lu0  1  0.50000000  0.50000000  0.00000000  1
  Lu  Lu1  1  0.00000000  0.00000000  0.00000000  1
  Lu  Lu2  1  0.67392800  0.17392800  0.50000000  1
  Lu  Lu3  1  0.32607200  0.82607200  0.50000000  1
  Lu  Lu4  1  0.17392800  0.32607200  0.50000000  1
  Lu  Lu5  1  0.82607200  0.67392800  0.50000000  1
  Lu  Lu6  1  0.88412500  0.38412500  0.50000000  1
  Lu  Lu7  1  0.11587500  0.61587500  0.50000000  1
  Lu  Lu8  1  0.38412500  0.11587500  0.50000000  1
  Lu  Lu9  1  0.61587500  0.88412500  0.50000000  1
  Ge  Ge0  1  0.56620600  0.06620600  0.00000000  1
  Ge  Ge1  1  0.43379400  0.93379400  0.00000000  1
  Ge  Ge2  1  0.06620600  0.43379400  0.00000000  1
  Ge  Ge3  1  0.93379400  0.56620600  0.00000000  1
  Ge  Ge4  1  0.66340100  0.70013900  0.00000000  1
  Ge  Ge5  1  0.33659900  0.29986100  0.00000000  1
  Ge  Ge6  1  0.16340100  0.79986100  0.00000000  1
  Ge  Ge7  1  0.83659900  0.20013900  0.00000000  1
  Ge  Ge8  1  0.29986100  0.66340100  0.00000000  1
  Ge  Ge9  1  0.70013900  0.33659900  0.00000000  1
  Ge  Ge10  1  0.20013900  0.16340100  0.00000000  1
  Ge  Ge11  1  0.79986100  0.83659900  0.00000000  1
  Ge  Ge12  1  0.65437000  0.50910100  0.50000000  1
  Ge  Ge13  1  0.34563000  0.49089900  0.50000000  1
  Ge  Ge14  1  0.15437000  0.99089900  0.50000000  1
  Ge  Ge15  1  0.84563000  0.00910100  0.50000000  1
  Ge  Ge16  1  0.49089900  0.65437000  0.50000000  1
  Ge  Ge17  1  0.50910100  0.34563000  0.50000000  1
  Ge  Ge18  1  0.00910100  0.15437000  0.50000000  1
  Ge  Ge19  1  0.99089900  0.84563000  0.50000000  1
  Ir  Ir0  1  0.74696900  0.52086800  0.00000000  1
  Ir  Ir1  1  0.25303100  0.47913200  0.00000000  1
  Ir  Ir2  1  0.24696800  0.97913200  0.00000000  1
  Ir  Ir3  1  0.75303100  0.02086800  0.00000000  1
  Ir  Ir4  1  0.47913200  0.74696900  0.00000000  1
  Ir  Ir5  1  0.52086800  0.25303100  0.00000000  1
  Ir  Ir6  1  0.02086800  0.24696800  0.00000000  1
  Ir  Ir7  1  0.97913200  0.75303100  0.00000000  1
loop_
_geom_bond_atom_site_label_1
_geom_bond_atom_site_label_2
_geom_bond_distance
_geom_bond_site_symmetry_2
Ge0 Ge1 2.430258 1_545
Ge0 Ir3 2.495002 1_555
Ge0 Ir5 2.495002 1_555
Ge0 Lu2 2.918916 1_555
Ge0 Lu2 2.918916 1_554
Ge0 Lu9 3.257407 1_544
Ge0 Lu9 3.257407 1_545
Ge0 Lu8 3.257407 1_554
Ge0 Lu8 3.257407 1_555
Ge1 Ir4 2.495002 1_555
Ge1 Ir2 2.495014 1_555
Ge1 Lu3 2.918916 1_555
Ge1 Lu3 2.918916 1_554
Ge1 Lu9 3.257407 1_554
Ge1 Lu9 3.257407 1_555
Ge1 Lu8 3.257407 1_565
Ge1 Lu8 3.257407 1_564
Ge2 Ge3 2.430258 1_455
Ge2 Ir1 2.495002 1_555
Ge2 Ir6 2.495014 1_555
Ge2 Lu4 2.918916 1_555
Ge2 Lu4 2.918916 1_554
Ge2 Lu6 3.257407 1_455
Ge2 Lu6 3.257407 1_454
Ge2 Lu7 3.257407 1_554
Ge2 Lu7 3.257407 1_555
Ge3 Ir0 2.495002 1_555
Ge3 Ir7 2.495002 1_555
Ge3 Lu5 2.918916 1_555
Ge3 Lu5 2.918916 1_554
Ge3 Lu7 3.257407 1_655
Ge3 Lu7 3.257407 1_654
Ge3 Lu6 3.257407 1_555
Ge3 Lu6 3.257407 1_554
Ge4 Ir4 2.467476 1_555
Ge4 Ir0 2.566959 1_555
Ge4 Lu5 3.030482 1_555
Ge4 Lu5 3.030482 1_554
Ge4 Lu9 3.270027 1_555
Ge4 Lu9 3.270027 1_554
Ge4 Lu0 3.353155 1_555
Ge5 Ir5 2.467476 1_555
Ge5 Ir1 2.566959 1_555
Ge5 Lu4 3.030482 1_555
Ge5 Lu4 3.030482 1_554
Ge5 Lu8 3.270027 1_555
Ge5 Lu8 3.270027 1_554
Ge5 Lu0 3.353155 1_555
Ge6 Ir7 2.467476 1_455
Ge6 Ge8 2.504554 1_555
Ge6 Ir2 2.566954 1_555
Ge6 Lu3 3.030482 1_555
Ge6 Lu3 3.030482 1_554
Ge6 Lu7 3.270027 1_554
Ge6 Lu7 3.270027 1_555
Ge6 Lu1 3.353155 1_565
Ge7 Ir6 2.467473 1_655
Ge7 Ge9 2.504554 1_555
Ge7 Ir3 2.566959 1_555
Ge7 Lu2 3.030482 1_555
Ge7 Lu2 3.030482 1_554
Ge7 Lu6 3.270027 1_554
Ge7 Lu6 3.270027 1_555
Ge7 Lu1 3.353155 1_655
Ge8 Ir1 2.467476 1_555
Ge8 Ir4 2.566959 1_555
Ge8 Lu3 3.030482 1_555
Ge8 Lu3 3.030482 1_554
Ge8 Lu7 3.270027 1_555
Ge8 Lu7 3.270027 1_554
Ge8 Lu0 3.353155 1_555
Ge9 Ir0 2.467476 1_555
Ge9 Ir5 2.566959 1_555
Ge9 Lu2 3.030482 1_555
Ge9 Lu2 3.030482 1_554
Ge9 Lu6 3.270027 1_555
Ge9 Lu6 3.270027 1_554
Ge9 Lu0 3.353155 1_555
Ge10 Ir2 2.467473 1_545
Ge10 Ge5 2.504554 1_555
Ge10 Ir6 2.566954 1_555
Ge10 Lu4 3.030482 1_555
Ge10 Lu4 3.030482 1_554
Ge10 Lu8 3.270027 1_555
Ge10 Lu8 3.270027 1_554
Ge10 Lu1 3.353155 1_555
Ge11 Ir3 2.467476 1_565
Ge11 Ge4 2.504554 1_555
Ge11 Ir7 2.566959 1_555
Ge11 Lu5 3.030482 1_555
Ge11 Lu5 3.030482 1_554
Ge11 Lu9 3.270027 1_555
Ge11 Lu9 3.270027 1_554
Ge11 Lu1 3.353155 1_665
Ge12 Ir0 2.465496 1_556
Ge12 Ir0 2.465496 1_555
Ge12 Ge16 2.838190 1_555
Ge12 Ge17 2.838190 1_555
Ge12 Lu0 2.939182 1_556
Ge12 Lu0 2.939182 1_555
Ge12 Lu5 3.088931 1_555
Ge12 Lu6 3.394363 1_555
Ge13 Ir1 2.465496 1_556
Ge13 Ir1 2.465496 1_555
Ge13 Ge16 2.838190 1_555
Ge13 Ge17 2.838190 1_555
Ge13 Lu0 2.939182 1_556
Ge13 Lu0 2.939182 1_555
Ge13 Lu4 3.088931 1_555
Ge13 Lu7 3.394363 1_555
Ge14 Ir2 2.465489 1_555
Ge14 Ir2 2.465489 1_556
Ge14 Ge19 2.838190 1_455
Ge14 Ge18 2.838190 1_565
Ge14 Lu1 2.939182 1_565
Ge14 Lu1 2.939182 1_566
Ge14 Lu3 3.088931 1_555
Ge14 Lu8 3.394363 1_565
Ge15 Ir3 2.465496 1_555
Ge15 Ir3 2.465496 1_556
Ge15 Ge19 2.838190 1_545
Ge15 Ge18 2.838190 1_655
Ge15 Lu1 2.939182 1_655
Ge15 Lu1 2.939182 1_656
Ge15 Lu2 3.088931 1_555
Ge15 Lu9 3.394363 1_545
Ge16 Ir4 2.465496 1_555
Ge16 Ir4 2.465496 1_556
Ge16 Lu0 2.939182 1_556
Ge16 Lu0 2.939182 1_555
Ge16 Lu3 3.088931 1_555
Ge16 Lu9 3.394363 1_555
Ge17 Ir5 2.465496 1_556
Ge17 Ir5 2.465496 1_555
Ge17 Lu0 2.939182 1_556
Ge17 Lu0 2.939182 1_555
Ge17 Lu2 3.088931 1_555
Ge17 Lu8 3.394363 1_555
Ge18 Ir6 2.465489 1_555
Ge18 Ir6 2.465489 1_556
Ge18 Lu1 2.939182 1_556
Ge18 Lu1 2.939182 1_555
Ge18 Lu4 3.088931 1_555
Ge18 Lu6 3.394363 1_455
Ge19 Ir7 2.465496 1_555
Ge19 Ir7 2.465496 1_556
Ge19 Lu1 2.939182 1_666
Ge19 Lu1 2.939182 1_665
Ge19 Lu5 3.088931 1_555
Ge19 Lu7 3.394363 1_655
Ir0 Lu5 3.100149 1_555
Ir0 Lu5 3.100149 1_554
Ir0 Lu0 3.216602 1_555
Ir0 Lu6 3.305907 1_554
Ir0 Lu6 3.305907 1_555
Ir1 Lu4 3.100149 1_555
Ir1 Lu4 3.100149 1_554
Ir1 Lu0 3.216602 1_555
Ir1 Lu7 3.305907 1_554
Ir1 Lu7 3.305907 1_555
Ir2 Lu3 3.100153 1_555
Ir2 Lu3 3.100153 1_554
Ir2 Lu1 3.216589 1_565
Ir2 Lu8 3.305914 1_565
Ir2 Lu8 3.305914 1_564
Ir3 Lu2 3.100149 1_555
Ir3 Lu2 3.100149 1_554
Ir3 Lu1 3.216602 1_655
Ir3 Lu9 3.305907 1_545
Ir3 Lu9 3.305907 1_544
Ir4 Lu3 3.100149 1_555
Ir4 Lu3 3.100149 1_554
Ir4 Lu0 3.216602 1_555
Ir4 Lu9 3.305907 1_555
Ir4 Lu9 3.305907 1_554
Ir5 Lu2 3.100149 1_554
Ir5 Lu2 3.100149 1_555
Ir5 Lu0 3.216602 1_555
Ir5 Lu8 3.305907 1_554
Ir5 Lu8 3.305907 1_555
Ir6 Lu4 3.100153 1_554
Ir6 Lu4 3.100153 1_555
Ir6 Lu1 3.216589 1_555
Ir6 Lu6 3.305914 1_455
Ir6 Lu6 3.305914 1_454
Ir7 Lu5 3.100149 1_555
Ir7 Lu5 3.100149 1_554
Ir7 Lu1 3.216602 1_665
Ir7 Lu7 3.305907 1_654
Ir7 Lu7 3.305907 1_655
