# generated using pymatgen
data_KLiZnP2O7
_symmetry_space_group_name_H-M   'P 1'
_cell_length_a   5.14956000
_cell_length_b   10.40511818
_cell_length_c   12.51681253
_cell_angle_alpha   90.90201569
_cell_angle_beta   90.00000000
_cell_angle_gamma   90.00000000
_symmetry_Int_Tables_number   1
_chemical_formula_structural   KLiZnP2O7
_chemical_formula_sum   'K4 Li4 Zn4 P8 O28'
_cell_volume   670.58998998
_cell_formula_units_Z   4
loop_
 _symmetry_equiv_pos_site_id
 _symmetry_equiv_pos_as_xyz
  1  'x, y, z'
loop_
 _atom_site_type_symbol
 _atom_site_label
 _atom_site_symmetry_multiplicity
 _atom_site_fract_x
 _atom_site_fract_y
 _atom_site_fract_z
 _atom_site_occupancy
  K  K0  1  0.99706800  0.75664600  0.00549500  1
  K  K1  1  0.00293200  0.25664600  0.00549500  1
  K  K2  1  0.50157200  0.97654600  0.50598600  1
  K  K3  1  0.49842800  0.47654600  0.50598600  1
  Li  Li0  1  0.97433400  0.96883800  0.24934300  1
  Li  Li1  1  0.02566600  0.46883800  0.24934300  1
  Li  Li2  1  0.95038700  0.96316100  0.74978300  1
  Li  Li3  1  0.04961300  0.46316100  0.74978300  1
  Zn  Zn0  1  0.45680900  0.76872000  0.74979300  1
  Zn  Zn1  1  0.54319100  0.26872000  0.74979300  1
  Zn  Zn2  1  0.47124300  0.76107700  0.24911900  1
  Zn  Zn3  1  0.52875700  0.26107700  0.24911900  1
  P  P0  1  0.50642700  0.51045700  0.11481200  1
  P  P1  1  0.49357300  0.01045700  0.11481200  1
  P  P2  1  0.98885500  0.71627900  0.38413200  1
  P  P3  1  0.01114500  0.21627900  0.38413200  1
  P  P4  1  0.56147100  0.52424700  0.87957100  1
  P  P5  1  0.43852900  0.02424700  0.87957100  1
  P  P6  1  0.95545100  0.70673400  0.61861900  1
  P  P7  1  0.04454900  0.20673400  0.61861900  1
  O  O0  1  0.05693100  0.76666800  0.50602900  1
  O  O1  1  0.94306900  0.26666800  0.50602900  1
  O  O2  1  0.13452800  0.81415100  0.31393700  1
  O  O3  1  0.86547200  0.31415100  0.31393700  1
  O  O4  1  0.41848400  0.44371200  0.79259600  1
  O  O5  1  0.58151600  0.94371200  0.79259600  1
  O  O6  1  0.35340700  0.40758200  0.17761700  1
  O  O7  1  0.64659300  0.90758200  0.17761700  1
  O  O8  1  0.02524900  0.56591700  0.62216500  1
  O  O9  1  0.97475100  0.06591700  0.62216500  1
  O  O10  1  0.66053500  0.73375300  0.62073900  1
  O  O11  1  0.33946500  0.23375300  0.62073900  1
  O  O12  1  0.08687500  0.58026700  0.37084100  1
  O  O13  1  0.91312500  0.08026700  0.37084100  1
  O  O14  1  0.09256900  0.79112200  0.70460500  1
  O  O15  1  0.90743100  0.29112200  0.70460500  1
  O  O16  1  0.44685300  0.46691400  0.99101800  1
  O  O17  1  0.55314700  0.96691400  0.99101800  1
  O  O18  1  0.47016900  0.66567900  0.87849700  1
  O  O19  1  0.52983100  0.16567900  0.87849700  1
  O  O20  1  0.37873500  0.64352100  0.13070300  1
  O  O21  1  0.62126500  0.14352100  0.13070300  1
  O  O22  1  0.69238900  0.73242200  0.37377100  1
  O  O23  1  0.30761100  0.23242200  0.37377100  1
  O  O24  1  0.79528400  0.50941800  0.13342700  1
  O  O25  1  0.20471600  0.00941800  0.13342700  1
  O  O26  1  0.85243200  0.50716800  0.87740100  1
  O  O27  1  0.14756800  0.00716800  0.87740100  1
loop_
_geom_bond_atom_site_label_1
_geom_bond_atom_site_label_2
_geom_bond_distance
_geom_bond_site_symmetry_2
K0 O20 2.786143 1_655
K0 O18 3.051355 1_654
K0 O26 3.119743 1_554
K0 O17 3.171411 1_554
K0 O27 3.177709 1_664
K0 O7 3.202929 1_555
K0 O24 3.223510 1_555
K0 O25 3.239213 1_665
K0 O18 3.276794 1_554
K1 O21 2.786143 1_455
K1 O19 3.051355 1_454
K1 O27 3.119743 1_554
K1 O16 3.171411 1_554
K1 O26 3.177709 1_454
K1 O6 3.202929 1_555
K1 O25 3.223510 1_555
K1 O24 3.239213 1_455
K1 O19 3.276794 1_554
K2 O13 2.928340 1_565
K2 O9 2.978954 1_565
K2 O10 3.038018 1_555
K2 O11 3.130706 1_565
K2 O0 3.164142 1_555
K2 O22 3.166107 1_555
K2 O9 3.208838 1_465
K2 O23 3.311127 1_565
K3 O12 2.928340 1_555
K3 O8 2.978954 1_555
K3 O11 3.038018 1_555
K3 O10 3.130706 1_555
K3 O1 3.164142 1_555
K3 O23 3.166107 1_555
K3 O8 3.208838 1_655
K3 O22 3.311127 1_555
Li0 O13 1.923760 1_565
Li0 O25 1.926174 1_665
Li0 O2 1.991426 1_655
Li0 O7 2.010634 1_555
Li1 O12 1.923760 1_555
Li1 O24 1.926174 1_455
Li1 O3 1.991426 1_455
Li1 O6 2.010634 1_555
Li2 O9 1.940173 1_565
Li2 O27 1.941459 1_665
Li2 O5 1.984874 1_555
Li2 O14 2.007085 1_655
Li3 O8 1.940173 1_555
Li3 O26 1.941459 1_455
Li3 O4 1.984874 1_555
Li3 O15 2.007085 1_455
O0 P6 1.635755 1_455
O0 P2 1.643335 1_455
O1 P7 1.635755 1_655
O1 P3 1.643335 1_655
O2 P2 1.549176 1_455
O2 Zn2 1.988875 1_555
O3 P3 1.549176 1_655
O3 Zn3 1.988875 1_555
O4 P4 1.549454 1_555
O4 Zn1 1.996017 1_555
O5 P5 1.549454 1_565
O5 Zn0 1.996017 1_555
O6 P0 1.552807 1_555
O6 Zn3 1.995772 1_555
O7 P1 1.552807 1_565
O7 Zn2 1.995772 1_555
O8 P6 1.509990 1_455
O9 P7 1.509990 1_655
O10 P6 1.544642 1_555
O10 Zn0 1.955459 1_555
O11 P7 1.544642 1_555
O11 Zn1 1.955459 1_555
O12 P2 1.509270 1_455
O13 P3 1.509270 1_655
O14 P6 1.548606 1_455
O14 Zn0 1.973970 1_555
O15 P7 1.548606 1_655
O15 Zn1 1.973970 1_555
O16 P4 1.635962 1_555
O16 P0 1.636537 1_556
O17 P5 1.635962 1_565
O17 P1 1.636537 1_566
O18 P4 1.545158 1_555
O18 Zn0 1.950342 1_555
O19 P5 1.545158 1_555
O19 Zn1 1.950342 1_555
O20 P0 1.542804 1_555
O20 Zn2 1.965431 1_555
O21 P1 1.542804 1_555
O21 Zn3 1.965431 1_555
O22 P2 1.541570 1_555
O22 Zn2 1.958261 1_555
O23 P3 1.541570 1_555
O23 Zn3 1.958261 1_555
O24 P0 1.505690 1_555
O25 P1 1.505690 1_555
O26 P4 1.509017 1_555
O27 P5 1.509017 1_555
