# generated using pymatgen
data_NaMnSe2
_symmetry_space_group_name_H-M   'P 1'
_cell_length_a   4.02575740
_cell_length_b   4.02575740
_cell_length_c   7.23413700
_cell_angle_alpha   90.00000000
_cell_angle_beta   90.00000000
_cell_angle_gamma   119.99999007
_symmetry_Int_Tables_number   1
_chemical_formula_structural   NaMnSe2
_chemical_formula_sum   'Na1 Mn1 Se2'
_cell_volume   101.53425890
_cell_formula_units_Z   1
loop_
 _symmetry_equiv_pos_site_id
 _symmetry_equiv_pos_as_xyz
  1  'x, y, z'
loop_
 _atom_site_type_symbol
 _atom_site_label
 _atom_site_symmetry_multiplicity
 _atom_site_fract_x
 _atom_site_fract_y
 _atom_site_fract_z
 _atom_site_occupancy
  Na  Na0  1  0.00000000  0.00000000  0.77288100  1
  Mn  Mn0  1  0.33333300  0.66666700  0.33438300  1
  Se  Se0  1  0.33333300  0.66666700  0.01711800  1
  Se  Se1  1  0.66666700  0.33333300  0.47651800  1
loop_
_geom_bond_atom_site_label_1
_geom_bond_atom_site_label_2
_geom_bond_distance
_geom_bond_site_symmetry_2
Na0 Se0 2.919583 1_546
Na0 Se0 2.919586 1_446
Na0 Se0 2.919586 1_556
Na0 Se1 3.162067 1_455
Na0 Se1 3.162070 1_555
Na0 Se1 3.162070 1_445
Mn0 Se0 2.295138 1_555
Mn0 Se1 2.541550 1_455
Mn0 Se1 2.541550 1_565
Mn0 Se1 2.541556 1_555
