# generated using pymatgen
data_MoWSe4
_symmetry_space_group_name_H-M   'P 1'
_cell_length_a   3.32326396
_cell_length_b   3.32326396
_cell_length_c   37.84522600
_cell_angle_alpha   90.00000000
_cell_angle_beta   90.00000000
_cell_angle_gamma   119.99999918
_symmetry_Int_Tables_number   1
_chemical_formula_structural   MoWSe4
_chemical_formula_sum   'Mo2 W2 Se8'
_cell_volume   361.96902966
_cell_formula_units_Z   2
loop_
 _symmetry_equiv_pos_site_id
 _symmetry_equiv_pos_as_xyz
  1  'x, y, z'
loop_
 _atom_site_type_symbol
 _atom_site_label
 _atom_site_symmetry_multiplicity
 _atom_site_fract_x
 _atom_site_fract_y
 _atom_site_fract_z
 _atom_site_occupancy
  Mo  Mo0  1  0.33333300  0.66666700  0.09392900  1
  Mo  Mo1  1  0.66666700  0.33333300  0.90607100  1
  W  W0  1  0.33333300  0.66666700  0.71819200  1
  W  W1  1  0.66666700  0.33333300  0.28180800  1
  Se  Se0  1  0.33333300  0.66666700  0.95036000  1
  Se  Se1  1  0.33333300  0.66666700  0.32630400  1
  Se  Se2  1  0.66666700  0.33333300  0.67369600  1
  Se  Se3  1  0.66666700  0.33333300  0.04964000  1
  Se  Se4  1  0.66666700  0.33333300  0.76270300  1
  Se  Se5  1  0.66666700  0.33333300  0.13820900  1
  Se  Se6  1  0.33333300  0.66666700  0.86179100  1
  Se  Se7  1  0.33333300  0.66666700  0.23729700  1
loop_
_geom_bond_atom_site_label_1
_geom_bond_atom_site_label_2
_geom_bond_distance
_geom_bond_site_symmetry_2
Mo0 Se5 2.547472 1_455
Mo0 Se5 2.547472 1_565
Mo0 Se5 2.547477 1_555
Mo0 Se3 2.547696 1_455
Mo0 Se3 2.547696 1_565
Mo0 Se3 2.547701 1_555
Mo1 Se6 2.547472 1_545
Mo1 Se6 2.547472 1_655
Mo1 Se6 2.547477 1_555
Mo1 Se0 2.547696 1_545
Mo1 Se0 2.547696 1_655
Mo1 Se0 2.547701 1_555
Se1 W1 2.552857 1_455
Se1 W1 2.552857 1_565
Se1 W1 2.552861 1_555
Se2 W0 2.552857 1_655
Se2 W0 2.552857 1_545
Se2 W0 2.552861 1_555
Se4 W0 2.553232 1_655
Se4 W0 2.553232 1_545
Se4 W0 2.553236 1_555
Se7 W1 2.553232 1_455
Se7 W1 2.553232 1_565
Se7 W1 2.553236 1_555
