# generated using pymatgen
data_Sm2Co3Ge5
_symmetry_space_group_name_H-M   'P 1'
_cell_length_a   8.15514844
_cell_length_b   8.15514844
_cell_length_c   5.81167913
_cell_angle_alpha   69.83221021
_cell_angle_beta   69.83221021
_cell_angle_gamma   93.06400018
_symmetry_Int_Tables_number   1
_chemical_formula_structural   Sm2Co3Ge5
_chemical_formula_sum   'Sm4 Co6 Ge10'
_cell_volume   333.99434479
_cell_formula_units_Z   2
loop_
 _symmetry_equiv_pos_site_id
 _symmetry_equiv_pos_as_xyz
  1  'x, y, z'
loop_
 _atom_site_type_symbol
 _atom_site_label
 _atom_site_symmetry_multiplicity
 _atom_site_fract_x
 _atom_site_fract_y
 _atom_site_fract_z
 _atom_site_occupancy
  Sm  Sm0  1  0.87108800  0.59561500  0.76620500  1
  Sm  Sm1  1  0.40438500  0.12891200  0.73379500  1
  Sm  Sm2  1  0.12891200  0.40438500  0.23379500  1
  Sm  Sm3  1  0.59561500  0.87108800  0.26620500  1
  Co  Co0  1  0.25999500  0.53904600  0.61459100  1
  Co  Co1  1  0.46095400  0.74000500  0.88540900  1
  Co  Co2  1  0.74000500  0.46095400  0.38540900  1
  Co  Co3  1  0.53904600  0.25999500  0.11459100  1
  Co  Co4  1  0.00227600  0.99772400  0.75000000  1
  Co  Co5  1  0.99772400  0.00227600  0.25000000  1
  Ge  Ge0  1  0.07214500  0.25951700  0.83197900  1
  Ge  Ge1  1  0.74048300  0.92785500  0.66802100  1
  Ge  Ge2  1  0.92785500  0.74048300  0.16802100  1
  Ge  Ge3  1  0.25951700  0.07214500  0.33197900  1
  Ge  Ge4  1  0.21937100  0.78062900  0.75000000  1
  Ge  Ge5  1  0.78062900  0.21937100  0.25000000  1
  Ge  Ge6  1  0.50579300  0.49420700  0.75000000  1
  Ge  Ge7  1  0.49420700  0.50579300  0.25000000  1
  Ge  Ge8  1  0.77179900  0.22820100  0.75000000  1
  Ge  Ge9  1  0.22820100  0.77179900  0.25000000  1
loop_
_geom_bond_atom_site_label_1
_geom_bond_atom_site_label_2
_geom_bond_distance
_geom_bond_site_symmetry_2
Co0 Ge0 2.333623 1_555
Co0 Ge4 2.360000 1_555
Co0 Ge6 2.395572 1_555
Co0 Ge9 2.412049 1_555
Co0 Ge7 2.423296 1_555
Co1 Ge1 2.333623 1_555
Co1 Ge4 2.360000 1_555
Co1 Ge6 2.395572 1_555
Co1 Ge9 2.412049 1_556
Co1 Ge7 2.423296 1_556
Co2 Ge2 2.333623 1_555
Co2 Ge5 2.360000 1_555
Co2 Ge7 2.395572 1_555
Co2 Ge8 2.412049 1_555
Co2 Ge6 2.423296 1_555
Co3 Ge3 2.333623 1_555
Co3 Ge5 2.360000 1_555
Co3 Ge7 2.395572 1_555
Co3 Ge8 2.412049 1_554
Co3 Ge6 2.423296 1_554
Co4 Ge1 2.422444 1_455
Co4 Ge0 2.422444 1_565
Co4 Ge2 2.450354 1_456
Co4 Ge3 2.450354 1_565
Co4 Ge4 2.569827 1_555
Co4 Ge8 2.728235 1_465
Co5 Ge2 2.422444 1_545
Co5 Ge3 2.422444 1_655
Co5 Ge1 2.450354 1_545
Co5 Ge0 2.450354 1_654
Co5 Ge5 2.569827 1_555
Co5 Ge9 2.728235 1_645
Ge0 Ge5 2.654595 1_456
Ge0 Ge8 2.667078 1_455
Ge0 Sm1 2.909083 1_555
Ge0 Sm2 3.106878 1_556
Ge0 Sm2 3.113765 1_555
Ge0 Sm0 3.246140 1_455
Ge1 Ge5 2.654595 1_565
Ge1 Ge8 2.667078 1_565
Ge1 Sm0 2.909083 1_555
Ge1 Sm3 3.106878 1_555
Ge1 Sm3 3.113765 1_556
Ge1 Sm1 3.246140 1_565
Ge2 Ge4 2.654595 1_654
Ge2 Ge9 2.667078 1_655
Ge2 Sm3 2.909083 1_555
Ge2 Sm0 3.106878 1_554
Ge2 Sm0 3.113765 1_555
Ge2 Sm2 3.246140 1_655
Ge3 Ge4 2.654595 1_545
Ge3 Ge9 2.667078 1_545
Ge3 Sm2 2.909083 1_555
Ge3 Sm1 3.106878 1_555
Ge3 Sm1 3.113765 1_554
Ge3 Sm3 3.246140 1_545
Ge4 Ge9 2.907719 1_555
Ge4 Ge9 2.907719 1_556
Ge4 Sm0 3.100345 1_455
Ge4 Sm1 3.100345 1_565
Ge4 Sm2 3.200520 1_556
Ge4 Sm3 3.200520 1_555
Ge5 Ge8 2.907719 1_554
Ge5 Ge8 2.907719 1_555
Ge5 Sm3 3.100345 1_545
Ge5 Sm2 3.100345 1_655
Ge5 Sm1 3.200520 1_555
Ge5 Sm0 3.200520 1_554
Ge6 Sm1 3.090507 1_555
Ge6 Sm0 3.090507 1_555
Ge6 Sm2 3.204511 1_556
Ge6 Sm3 3.204511 1_555
Ge7 Sm2 3.090507 1_555
Ge7 Sm3 3.090507 1_555
Ge7 Sm1 3.204511 1_555
Ge7 Sm0 3.204511 1_554
