# generated using pymatgen
data_Cu3B7ClO13
_symmetry_space_group_name_H-M   'P 1'
_cell_length_a   8.51118300
_cell_length_b   8.56687300
_cell_length_c   12.06592700
_cell_angle_alpha   90.00000000
_cell_angle_beta   90.00000000
_cell_angle_gamma   90.00000000
_symmetry_Int_Tables_number   1
_chemical_formula_structural   Cu3B7ClO13
_chemical_formula_sum   'Cu12 B28 Cl4 O52'
_cell_volume   879.77770212
_cell_formula_units_Z   4
loop_
 _symmetry_equiv_pos_site_id
 _symmetry_equiv_pos_as_xyz
  1  'x, y, z'
loop_
 _atom_site_type_symbol
 _atom_site_label
 _atom_site_symmetry_multiplicity
 _atom_site_fract_x
 _atom_site_fract_y
 _atom_site_fract_z
 _atom_site_occupancy
  Cu  Cu0  1  0.75022800  0.25815400  0.61869200  1
  Cu  Cu1  1  0.24977200  0.74184600  0.11869200  1
  Cu  Cu2  1  0.24977200  0.75815400  0.61869200  1
  Cu  Cu3  1  0.75022800  0.24184600  0.11869200  1
  Cu  Cu4  1  0.02867800  0.51625700  0.84478400  1
  Cu  Cu5  1  0.97132200  0.48374300  0.34478400  1
  Cu  Cu6  1  0.97132200  0.01625700  0.84478400  1
  Cu  Cu7  1  0.02867800  0.98374300  0.34478400  1
  Cu  Cu8  1  0.52852900  0.01521000  0.84324200  1
  Cu  Cu9  1  0.47147100  0.98479000  0.34324200  1
  Cu  Cu10  1  0.47147100  0.51521000  0.84324200  1
  Cu  Cu11  1  0.52852900  0.48479000  0.34324200  1
  B  B0  1  0.25064000  0.09266200  0.52181000  1
  B  B1  1  0.74936000  0.90733800  0.02181000  1
  B  B2  1  0.74936000  0.59266200  0.52181000  1
  B  B3  1  0.25064000  0.40733800  0.02181000  1
  B  B4  1  0.40564200  0.24747100  0.67556600  1
  B  B5  1  0.59435800  0.75252900  0.17556600  1
  B  B6  1  0.59435800  0.74747100  0.67556600  1
  B  B7  1  0.40564200  0.25252900  0.17556600  1
  B  B8  1  0.25054100  0.04338200  0.99313000  1
  B  B9  1  0.74945900  0.95661800  0.49313000  1
  B  B10  1  0.74945900  0.54338200  0.99313000  1
  B  B11  1  0.25054100  0.45661800  0.49313000  1
  B  B12  1  0.25369400  0.24430200  0.84784600  1
  B  B13  1  0.74630600  0.75569800  0.34784600  1
  B  B14  1  0.74630600  0.74430200  0.84784600  1
  B  B15  1  0.25369400  0.25569800  0.34784600  1
  B  B16  1  0.00334600  0.50100400  0.59548600  1
  B  B17  1  0.99665400  0.49899600  0.09548600  1
  B  B18  1  0.99665400  0.00100400  0.59548600  1
  B  B19  1  0.00334600  0.99899600  0.09548600  1
  B  B20  1  0.09537600  0.24698700  0.67651800  1
  B  B21  1  0.90462400  0.75301300  0.17651800  1
  B  B22  1  0.90462400  0.74698700  0.67651800  1
  B  B23  1  0.09537600  0.25301300  0.17651800  1
  B  B24  1  0.50337900  0.00111100  0.59536400  1
  B  B25  1  0.49662100  0.99888900  0.09536400  1
  B  B26  1  0.49662100  0.50111100  0.59536400  1
  B  B27  1  0.50337900  0.49888900  0.09536400  1
  Cl  Cl0  1  0.24895400  0.72437800  0.83385900  1
  Cl  Cl1  1  0.75104600  0.27562200  0.33385900  1
  Cl  Cl2  1  0.75104600  0.22437800  0.83385900  1
  Cl  Cl3  1  0.24895400  0.77562200  0.33385900  1
  O  O0  1  0.52940600  0.16935300  0.61487900  1
  O  O1  1  0.47059400  0.83064700  0.11487900  1
  O  O2  1  0.47059400  0.66935300  0.61487900  1
  O  O3  1  0.52940600  0.33064700  0.11487900  1
  O  O4  1  0.08908700  0.05116600  0.49887200  1
  O  O5  1  0.91091300  0.94883400  0.99887200  1
  O  O6  1  0.91091300  0.55116600  0.49887200  1
  O  O7  1  0.08908700  0.44883400  0.99887200  1
  O  O8  1  0.32963800  0.35984900  0.92016000  1
  O  O9  1  0.67036200  0.64015100  0.42016000  1
  O  O10  1  0.67036200  0.85984900  0.92016000  1
  O  O11  1  0.32963800  0.14015100  0.42016000  1
  O  O12  1  0.24921900  0.23141600  0.60574000  1
  O  O13  1  0.75078100  0.76858400  0.10574000  1
  O  O14  1  0.75078100  0.73141600  0.60574000  1
  O  O15  1  0.24921900  0.26858400  0.10574000  1
  O  O16  1  0.37524600  0.16870200  0.78015200  1
  O  O17  1  0.62475400  0.83129800  0.28015200  1
  O  O18  1  0.62475400  0.66870200  0.78015200  1
  O  O19  1  0.37524600  0.33129800  0.28015200  1
  O  O20  1  0.02200500  0.83377100  0.61409000  1
  O  O21  1  0.97799500  0.16622900  0.11409000  1
  O  O22  1  0.97799500  0.33377100  0.61409000  1
  O  O23  1  0.02200500  0.66622900  0.11409000  1
  O  O24  1  0.16933500  0.11982600  0.91097500  1
  O  O25  1  0.83066500  0.88017400  0.41097500  1
  O  O26  1  0.83066500  0.61982600  0.91097500  1
  O  O27  1  0.16933500  0.38017400  0.41097500  1
  O  O28  1  0.13725500  0.32409700  0.77875300  1
  O  O29  1  0.86274500  0.67590300  0.27875300  1
  O  O30  1  0.86274500  0.82409700  0.77875300  1
  O  O31  1  0.13725500  0.17590300  0.27875300  1
  O  O32  1  0.41173900  0.03975000  0.99081200  1
  O  O33  1  0.58826100  0.96025000  0.49081200  1
  O  O34  1  0.58826100  0.53975000  0.99081200  1
  O  O35  1  0.41173900  0.46025000  0.49081200  1
  O  O36  1  0.66308100  0.46721400  0.57580700  1
  O  O37  1  0.33691900  0.53278600  0.07580700  1
  O  O38  1  0.33691900  0.96721400  0.57580700  1
  O  O39  1  0.66308100  0.03278600  0.07580700  1
  O  O40  1  0.44026300  0.41179100  0.69063800  1
  O  O41  1  0.55973700  0.58820900  0.19063800  1
  O  O42  1  0.55973700  0.91179100  0.69063800  1
  O  O43  1  0.44026300  0.08820900  0.19063800  1
  O  O44  1  0.04184900  0.08705600  0.69582100  1
  O  O45  1  0.95815100  0.91294400  0.19582100  1
  O  O46  1  0.95815100  0.58705600  0.69582100  1
  O  O47  1  0.04184900  0.41294400  0.19582100  1
  O  O48  1  0.17044700  0.54069300  0.57220300  1
  O  O49  1  0.82955300  0.45930700  0.07220300  1
  O  O50  1  0.82955300  0.04069300  0.57220300  1
  O  O51  1  0.17044700  0.95930700  0.07220300  1
loop_
_geom_bond_atom_site_label_1
_geom_bond_atom_site_label_2
_geom_bond_distance
_geom_bond_site_symmetry_2
Cu0 O36 2.006378 1_555
Cu0 O0 2.028105 1_555
Cu0 O22 2.044693 1_555
Cu0 O50 2.059392 1_555
Cu1 O37 2.006378 1_555
Cu1 O1 2.028105 1_555
Cu1 O23 2.044693 1_555
Cu1 O51 2.059392 1_555
Cu2 O38 2.006378 1_555
Cu2 O2 2.028105 1_555
Cu2 O20 2.044693 1_555
Cu2 O48 2.059392 1_555
Cu3 O39 2.006378 1_555
Cu3 O3 2.028105 1_555
Cu3 O21 2.044693 1_555
Cu3 O49 2.059392 1_555
Cu4 O46 1.989663 1_455
Cu4 O7 2.013618 1_555
Cu4 O28 2.049091 1_555
Cu4 O26 2.065286 1_455
Cu5 O47 1.989663 1_655
Cu5 O6 2.013618 1_555
Cu5 O29 2.049091 1_555
Cu5 O27 2.065286 1_655
Cu6 O44 1.989663 1_655
Cu6 O5 2.013618 1_545
Cu6 O30 2.049091 1_545
Cu6 O24 2.065286 1_655
Cu7 O45 1.989663 1_455
Cu7 O4 2.013618 1_565
Cu7 O31 2.049091 1_565
Cu7 O25 2.065286 1_455
Cu8 O16 2.002649 1_555
Cu8 O10 2.022386 1_545
Cu8 O32 2.050049 1_555
Cu8 O42 2.060565 1_545
Cu9 O17 2.002649 1_555
Cu9 O11 2.022386 1_565
Cu9 O33 2.050049 1_555
Cu9 O43 2.060565 1_565
Cu10 O18 2.002649 1_555
Cu10 O8 2.022386 1_555
Cu10 O34 2.050049 1_555
Cu10 O40 2.060565 1_555
Cu11 O19 2.002649 1_555
Cu11 O9 2.022386 1_555
Cu11 O35 2.050049 1_555
Cu11 O41 2.060565 1_555
B0 O4 1.446934 1_555
B0 O38 1.455578 1_545
B0 O11 1.456673 1_555
B0 O12 1.561625 1_555
B1 O5 1.446934 1_554
B1 O39 1.455578 1_565
B1 O10 1.456673 1_554
B1 O13 1.561625 1_555
B2 O6 1.446934 1_555
B2 O36 1.455578 1_555
B2 O9 1.456673 1_555
B2 O14 1.561625 1_555
B3 O7 1.446934 1_554
B3 O37 1.455578 1_555
B3 O8 1.456673 1_554
B3 O15 1.561625 1_555
B4 O0 1.446946 1_555
B4 O40 1.449670 1_555
B4 O16 1.454218 1_555
B4 O12 1.581527 1_555
B5 O1 1.446946 1_555
B5 O41 1.449670 1_555
B5 O17 1.454218 1_555
B5 O13 1.581527 1_555
B6 O2 1.446946 1_555
B6 O42 1.449670 1_555
B6 O18 1.454218 1_555
B6 O14 1.581527 1_555
B7 O3 1.446946 1_555
B7 O43 1.449670 1_555
B7 O19 1.454218 1_555
B7 O15 1.581527 1_555
B8 O32 1.372623 1_555
B8 O24 1.374484 1_555
B8 O51 1.376142 1_546
B9 O33 1.372623 1_555
B9 O25 1.374484 1_555
B9 O50 1.376142 1_565
B10 O34 1.372623 1_555
B10 O26 1.374484 1_555
B10 O49 1.376142 1_556
B11 O35 1.372623 1_555
B11 O27 1.374484 1_555
B11 O48 1.376142 1_555
B12 O28 1.464396 1_555
B12 O16 1.468639 1_555
B12 O8 1.469344 1_555
B12 O24 1.494277 1_555
B13 O29 1.464396 1_555
B13 O17 1.468639 1_555
B13 O9 1.469344 1_555
B13 O25 1.494277 1_555
B14 O30 1.464396 1_555
B14 O18 1.468639 1_555
B14 O10 1.469344 1_555
B14 O26 1.494277 1_555
B15 O31 1.464396 1_555
B15 O19 1.468639 1_555
B15 O11 1.469344 1_555
B15 O27 1.494277 1_555
B16 O22 1.466107 1_455
B16 O46 1.468694 1_455
B16 O6 1.470555 1_455
B16 O48 1.489047 1_555
B17 O23 1.466107 1_655
B17 O47 1.468694 1_655
B17 O7 1.470555 1_654
B17 O49 1.489047 1_555
B18 O20 1.466107 1_645
B18 O44 1.468694 1_655
B18 O4 1.470555 1_655
B18 O50 1.489047 1_555
B19 O21 1.466107 1_465
B19 O45 1.468694 1_455
B19 O5 1.470555 1_454
B19 O51 1.489047 1_555
B20 O28 1.443988 1_555
B20 O22 1.455416 1_455
B20 O44 1.462530 1_555
B20 O12 1.568950 1_555
B21 O29 1.443988 1_555
B21 O23 1.455416 1_655
B21 O45 1.462530 1_555
B21 O13 1.568950 1_555
B22 O30 1.443988 1_555
B22 O20 1.455416 1_655
B22 O46 1.462530 1_555
B22 O14 1.568950 1_555
B23 O31 1.443988 1_555
B23 O21 1.455416 1_455
B23 O47 1.462530 1_555
B23 O15 1.568950 1_555
B24 O42 1.461888 1_545
B24 O38 1.465350 1_545
B24 O0 1.477120 1_555
B24 O33 1.495289 1_545
B25 O43 1.461888 1_565
B25 O39 1.465350 1_565
B25 O1 1.477120 1_555
B25 O32 1.495289 1_564
B26 O40 1.461888 1_555
B26 O36 1.465350 1_555
B26 O2 1.477120 1_555
B26 O35 1.495289 1_555
B27 O41 1.461888 1_555
B27 O37 1.465350 1_555
B27 O3 1.477120 1_555
B27 O34 1.495289 1_554
Cl0 Cu4 2.590595 1_555
Cl0 Cu10 2.609707 1_555
Cl0 Cu2 2.612274 1_555
Cl1 Cu5 2.590595 1_555
Cl1 Cu11 2.609707 1_555
Cl1 Cu3 2.612274 1_555
Cl2 Cu6 2.590595 1_555
Cl2 Cu8 2.609707 1_555
Cl2 Cu0 2.612274 1_555
Cl3 Cu7 2.590595 1_555
Cl3 Cu9 2.609707 1_555
Cl3 Cu1 2.612274 1_555
