# generated using pymatgen
data_Tm(GaFe)6
_symmetry_space_group_name_H-M   'P 1'
_cell_length_a   5.00841000
_cell_length_b   6.55313991
_cell_length_c   6.55313991
_cell_angle_alpha   80.51233041
_cell_angle_beta   67.53381014
_cell_angle_gamma   67.53381014
_symmetry_Int_Tables_number   1
_chemical_formula_structural   Tm(GaFe)6
_chemical_formula_sum   'Tm1 Ga6 Fe6'
_cell_volume   183.62687579
_cell_formula_units_Z   1
loop_
 _symmetry_equiv_pos_site_id
 _symmetry_equiv_pos_as_xyz
  1  'x, y, z'
loop_
 _atom_site_type_symbol
 _atom_site_label
 _atom_site_symmetry_multiplicity
 _atom_site_fract_x
 _atom_site_fract_y
 _atom_site_fract_z
 _atom_site_occupancy
  Tm  Tm0  1  0.00000000  0.00000000  0.00000000  1
  Ga  Ga0  1  0.00000000  0.66622600  0.33377400  1
  Ga  Ga1  1  0.00000000  0.33377400  0.66622600  1
  Ga  Ga2  1  0.34246400  0.65753600  0.65753600  1
  Ga  Ga3  1  0.65753600  0.34246400  0.34246400  1
  Ga  Ga4  1  0.32165600  0.17834400  0.17834400  1
  Ga  Ga5  1  0.67834400  0.82165600  0.82165600  1
  Fe  Fe0  1  0.50000000  0.24512800  0.75487200  1
  Fe  Fe1  1  0.50000000  0.75487200  0.24512800  1
  Fe  Fe2  1  0.00000000  0.50000000  0.00000000  1
  Fe  Fe3  1  0.50000000  0.50000000  0.00000000  1
  Fe  Fe4  1  0.00000000  0.00000000  0.50000000  1
  Fe  Fe5  1  0.50000000  0.00000000  0.50000000  1
loop_
_geom_bond_atom_site_label_1
_geom_bond_atom_site_label_2
_geom_bond_distance
_geom_bond_site_symmetry_2
Ga0 Ga1 2.815655 1_555
Ga0 Tm0 2.826851 1_565
Ga1 Tm0 2.826851 1_556
Ga2 Ga3 2.727883 1_555
Ga2 Ga5 2.879258 1_555
Ga2 Ga5 2.879258 1_455
Ga2 Tm0 2.965042 1_566
Ga3 Ga4 2.879258 1_655
Ga3 Ga4 2.879258 1_555
Ga3 Tm0 2.965042 1_655
Ga4 Tm0 2.941985 1_555
Ga4 Tm0 2.941985 1_655
Ga5 Tm0 2.941985 1_566
Ga5 Tm0 2.941985 1_666
Fe0 Fe5 2.500897 1_555
Fe0 Fe4 2.500897 1_655
Fe0 Fe2 2.500897 1_556
Fe0 Fe3 2.500897 1_556
Fe0 Ga2 2.553409 1_555
Fe0 Ga3 2.553409 1_555
Fe0 Ga4 2.587340 1_556
Fe0 Ga5 2.587340 1_545
Fe0 Ga1 2.614327 1_655
Fe0 Ga1 2.614327 1_555
Fe0 Tm0 3.252866 1_556
Fe0 Tm0 3.252866 1_656
Fe1 Fe4 2.500897 1_565
Fe1 Fe5 2.500897 1_565
Fe1 Fe3 2.500897 1_555
Fe1 Fe2 2.500897 1_655
Fe1 Ga3 2.553409 1_555
Fe1 Ga2 2.553409 1_555
Fe1 Ga5 2.587340 1_554
Fe1 Ga4 2.587340 1_565
Fe1 Ga0 2.614327 1_555
Fe1 Ga0 2.614327 1_655
Fe1 Tm0 3.252866 1_665
Fe1 Tm0 3.252866 1_565
Fe2 Fe3 2.504205 1_455
Fe2 Fe3 2.504205 1_555
Fe2 Ga5 2.536883 1_454
Fe2 Ga4 2.536883 1_555
Fe2 Ga3 2.586845 1_455
Fe2 Ga2 2.586845 1_554
Fe2 Ga1 2.599267 1_554
Fe2 Ga0 2.599267 1_555
Fe2 Tm0 3.276570 1_555
Fe2 Tm0 3.276570 1_565
Fe3 Ga5 2.536883 1_554
Fe3 Ga4 2.536883 1_555
Fe3 Ga3 2.586845 1_555
Fe3 Ga2 2.586845 1_554
Fe3 Ga1 2.599267 1_654
Fe3 Ga0 2.599267 1_555
Fe3 Tm0 3.276570 1_565
Fe3 Tm0 3.276570 1_655
Fe4 Fe5 2.504205 1_455
Fe4 Fe5 2.504205 1_555
Fe4 Ga4 2.536883 1_555
Fe4 Ga5 2.536883 1_445
Fe4 Ga3 2.586845 1_455
Fe4 Ga2 2.586845 1_545
Fe4 Ga0 2.599267 1_545
Fe4 Ga1 2.599267 1_555
Fe4 Tm0 3.276570 1_555
Fe4 Tm0 3.276570 1_556
Fe5 Ga5 2.536883 1_545
Fe5 Ga4 2.536883 1_555
Fe5 Ga3 2.586845 1_555
Fe5 Ga2 2.586845 1_545
Fe5 Ga1 2.599267 1_555
Fe5 Ga0 2.599267 1_645
Fe5 Tm0 3.276570 1_556
Fe5 Tm0 3.276570 1_655
