# generated using pymatgen
data_Y3Te3N
_symmetry_space_group_name_H-M   'P 1'
_cell_length_a   11.98108305
_cell_length_b   8.12793992
_cell_length_c   8.65918173
_cell_angle_alpha   71.34961153
_cell_angle_beta   90.00000000
_cell_angle_gamma   90.00000000
_symmetry_Int_Tables_number   1
_chemical_formula_structural   Y3Te3N
_chemical_formula_sum   'Y12 Te12 N4'
_cell_volume   798.96347063
_cell_formula_units_Z   4
loop_
 _symmetry_equiv_pos_site_id
 _symmetry_equiv_pos_as_xyz
  1  'x, y, z'
loop_
 _atom_site_type_symbol
 _atom_site_label
 _atom_site_symmetry_multiplicity
 _atom_site_fract_x
 _atom_site_fract_y
 _atom_site_fract_z
 _atom_site_occupancy
  Y  Y0  1  0.02386668  0.60207753  0.13765507  1
  Y  Y1  1  0.52386668  0.39792247  0.36234493  1
  Y  Y2  1  0.97613332  0.39792247  0.86234493  1
  Y  Y3  1  0.47613332  0.60207753  0.63765507  1
  Y  Y4  1  0.41221645  0.83822196  0.20544309  1
  Y  Y5  1  0.91221645  0.16177804  0.29455691  1
  Y  Y6  1  0.58778355  0.16177804  0.79455691  1
  Y  Y7  1  0.08778355  0.83822196  0.70544309  1
  Y  Y8  1  0.70931329  0.76604597  0.34727968  1
  Y  Y9  1  0.20931329  0.23395403  0.15272032  1
  Y  Y10  1  0.29068671  0.23395403  0.65272032  1
  Y  Y11  1  0.79068671  0.76604597  0.84727968  1
  Te  Te0  1  0.97898085  0.77778146  0.41261411  1
  Te  Te1  1  0.47898085  0.22221854  0.08738589  1
  Te  Te2  1  0.02101915  0.22221854  0.58738589  1
  Te  Te3  1  0.52101915  0.77778146  0.91261411  1
  Te  Te4  1  0.26655988  0.50809948  0.31166104  1
  Te  Te5  1  0.76655988  0.49190052  0.18833896  1
  Te  Te6  1  0.73344012  0.49190052  0.68833896  1
  Te  Te7  1  0.23344012  0.50809948  0.81166104  1
  Te  Te8  1  0.30644234  0.95386956  0.48192281  1
  Te  Te9  1  0.80644234  0.04613044  0.01807719  1
  Te  Te10  1  0.69355766  0.04613044  0.51807719  1
  Te  Te11  1  0.19355766  0.95386956  0.98192281  1
  N  N0  1  0.53481167  0.67308278  0.37689462  1
  N  N1  1  0.03481167  0.32691722  0.12310538  1
  N  N2  1  0.46518833  0.32691722  0.62310538  1
  N  N3  1  0.96518833  0.67308278  0.87689462  1
loop_
_geom_bond_atom_site_label_1
_geom_bond_atom_site_label_2
_geom_bond_distance
_geom_bond_site_symmetry_2
Te0 Y7 3.027691 1_655
Te0 Y5 3.063576 1_565
Te0 Y0 3.189392 1_655
Te0 Y8 3.286709 1_555
Te1 Y6 3.027691 1_554
Te1 Y4 3.063576 1_545
Te1 Y1 3.189392 1_555
Te1 Y9 3.286709 1_555
Te2 Y5 3.027691 1_455
Te2 Y7 3.063576 1_545
Te2 Y2 3.189392 1_455
Te2 Y10 3.286709 1_555
Te3 Y4 3.027691 1_556
Te3 Y6 3.063576 1_565
Te3 Y3 3.189392 1_555
Te3 Y11 3.286709 1_555
Te4 Y9 3.048129 1_555
Te4 Y4 3.084253 1_555
Te4 Y10 3.092195 1_555
Te4 Y1 3.201083 1_555
Te4 Y0 3.251541 1_555
Te5 Y8 3.048129 1_555
Te5 Y5 3.084253 1_555
Te5 Y11 3.092195 1_554
Te5 Y0 3.201083 1_655
Te5 Y1 3.251541 1_555
Te6 Y11 3.048129 1_555
Te6 Y6 3.084253 1_555
Te6 Y8 3.092195 1_555
Te6 Y3 3.201083 1_555
Te6 Y2 3.251541 1_555
Te7 Y10 3.048129 1_555
Te7 Y7 3.084253 1_555
Te7 Y9 3.092195 1_556
Te7 Y2 3.201083 1_455
Te7 Y3 3.251541 1_555
Te8 Y10 3.091744 1_565
Te8 Y4 3.108142 1_555
Te8 Y7 3.213923 1_555
Te8 Y9 3.242253 1_565
Te8 Y3 3.414909 1_555
Te9 Y11 3.091744 1_544
Te9 Y5 3.108142 1_555
Te9 Y6 3.213923 1_554
Te9 Y8 3.242253 1_545
Te9 Y2 3.414909 1_554
Te10 Y8 3.091744 1_545
Te10 Y6 3.108142 1_555
Te10 Y5 3.213923 1_555
Te10 Y11 3.242253 1_545
Te10 Y1 3.414909 1_555
Te11 Y9 3.091744 1_566
Te11 Y7 3.108142 1_555
Te11 Y4 3.213923 1_556
Te11 Y10 3.242253 1_565
Te11 Y0 3.414909 1_556
N0 Y8 2.209947 1_555
N0 Y4 2.211031 1_555
N0 Y3 2.256612 1_555
N0 Y1 2.283672 1_555
N1 Y9 2.209947 1_555
N1 Y5 2.211031 1_455
N1 Y2 2.256612 1_454
N1 Y0 2.283672 1_555
N2 Y10 2.209947 1_555
N2 Y6 2.211031 1_555
N2 Y1 2.256612 1_555
N2 Y3 2.283672 1_555
N3 Y11 2.209947 1_555
N3 Y7 2.211031 1_655
N3 Y0 2.256612 1_656
N3 Y2 2.283672 1_555
