# generated using pymatgen
data_CaCo2O5
_symmetry_space_group_name_H-M   'P 1'
_cell_length_a   3.47398400
_cell_length_b   5.07440800
_cell_length_c   11.26992900
_cell_angle_alpha   90.00000000
_cell_angle_beta   90.00000000
_cell_angle_gamma   90.00000000
_symmetry_Int_Tables_number   1
_chemical_formula_structural   CaCo2O5
_chemical_formula_sum   'Ca2 Co4 O10'
_cell_volume   198.67095389
_cell_formula_units_Z   2
loop_
 _symmetry_equiv_pos_site_id
 _symmetry_equiv_pos_as_xyz
  1  'x, y, z'
loop_
 _atom_site_type_symbol
 _atom_site_label
 _atom_site_symmetry_multiplicity
 _atom_site_fract_x
 _atom_site_fract_y
 _atom_site_fract_z
 _atom_site_occupancy
  Ca  Ca0  1  0.50000000  0.62252500  0.00000000  1
  Ca  Ca1  1  0.00000000  0.37747500  0.50000000  1
  Co  Co0  1  0.00000000  0.09185400  0.84707200  1
  Co  Co1  1  0.50000000  0.90814600  0.65292800  1
  Co  Co2  1  0.50000000  0.90814600  0.34707200  1
  Co  Co3  1  0.00000000  0.09185400  0.15292800  1
  O  O0  1  0.50000000  0.04839900  0.50000000  1
  O  O1  1  0.00000000  0.95160100  0.00000000  1
  O  O2  1  0.50000000  0.91568500  0.82029800  1
  O  O3  1  0.00000000  0.08431500  0.67970200  1
  O  O4  1  0.50000000  0.91568500  0.17970200  1
  O  O5  1  0.00000000  0.08431500  0.32029800  1
  O  O6  1  0.00000000  0.41626700  0.12063200  1
  O  O7  1  0.50000000  0.58373300  0.37936800  1
  O  O8  1  0.50000000  0.58373300  0.62063200  1
  O  O9  1  0.00000000  0.41626700  0.87936800  1
loop_
_geom_bond_atom_site_label_1
_geom_bond_atom_site_label_2
_geom_bond_distance
_geom_bond_site_symmetry_2
Ca0 O1 2.409480 1_655
Ca0 O1 2.409480 1_555
Ca0 O9 2.441489 1_654
Ca0 O9 2.441489 1_554
Ca0 O6 2.441489 1_555
Ca0 O6 2.441489 1_655
Ca0 O4 2.512876 1_555
Ca0 O2 2.512876 1_554
Ca1 O0 2.409480 1_555
Ca1 O0 2.409480 1_455
Ca1 O8 2.441489 1_455
Ca1 O8 2.441489 1_555
Ca1 O7 2.441489 1_455
Ca1 O7 2.441489 1_555
Ca1 O5 2.512876 1_555
Ca1 O3 2.512876 1_555
Co0 O9 1.685961 1_555
Co0 O1 1.864652 1_546
Co0 O3 1.886636 1_555
Co0 O2 1.976700 1_445
Co0 O2 1.976700 1_545
Co1 O8 1.685961 1_555
Co1 O0 1.864652 1_565
Co1 O2 1.886636 1_555
Co1 O3 1.976700 1_665
Co1 O3 1.976700 1_565
Co2 O7 1.685961 1_555
Co2 O0 1.864652 1_565
Co2 O4 1.886636 1_555
Co2 O5 1.976700 1_665
Co2 O5 1.976700 1_565
Co3 O6 1.685961 1_555
Co3 O1 1.864652 1_545
Co3 O5 1.886636 1_555
Co3 O4 1.976700 1_445
Co3 O4 1.976700 1_545
