# generated using pymatgen
data_Mg2Fe9O13
_symmetry_space_group_name_H-M   'P 1'
_cell_length_a   5.28667106
_cell_length_b   5.28667106
_cell_length_c   17.11995002
_cell_angle_alpha   81.72196568
_cell_angle_beta   81.72196568
_cell_angle_gamma   32.75094043
_symmetry_Int_Tables_number   1
_chemical_formula_structural   Mg2Fe9O13
_chemical_formula_sum   'Mg2 Fe9 O13'
_cell_volume   255.92282776
_cell_formula_units_Z   1
loop_
 _symmetry_equiv_pos_site_id
 _symmetry_equiv_pos_as_xyz
  1  'x, y, z'
loop_
 _atom_site_type_symbol
 _atom_site_label
 _atom_site_symmetry_multiplicity
 _atom_site_fract_x
 _atom_site_fract_y
 _atom_site_fract_z
 _atom_site_occupancy
  Mg  Mg0  1  0.78676800  0.78676800  0.22939300  1
  Mg  Mg1  1  0.21323200  0.21323200  0.77060700  1
  Fe  Fe0  1  0.50000000  0.50000000  0.50000000  1
  Fe  Fe1  1  0.35093500  0.35093500  0.04422800  1
  Fe  Fe2  1  0.64906500  0.64906500  0.95577200  1
  Fe  Fe3  1  0.25172600  0.25172600  0.41547200  1
  Fe  Fe4  1  0.74827400  0.74827400  0.58452800  1
  Fe  Fe5  1  0.06395600  0.06395600  0.13199500  1
  Fe  Fe6  1  0.93604400  0.93604400  0.86800500  1
  Fe  Fe7  1  0.01202700  0.01202700  0.32454800  1
  Fe  Fe8  1  0.98797300  0.98797300  0.67545200  1
  O  O0  1  0.00000000  0.00000000  0.00000000  1
  O  O1  1  0.14730300  0.14730300  0.22882600  1
  O  O2  1  0.85269700  0.85269700  0.77117400  1
  O  O3  1  0.71234300  0.71234300  0.06638800  1
  O  O4  1  0.28765700  0.28765700  0.93361200  1
  O  O5  1  0.40875600  0.40875600  0.14645900  1
  O  O6  1  0.59124400  0.59124400  0.85354100  1
  O  O7  1  0.36411600  0.36411600  0.31311700  1
  O  O8  1  0.63588400  0.63588400  0.68688300  1
  O  O9  1  0.62260500  0.62260500  0.39313700  1
  O  O10  1  0.37739500  0.37739500  0.60686300  1
  O  O11  1  0.85882300  0.85882300  0.46176900  1
  O  O12  1  0.14117700  0.14117700  0.53823100  1
loop_
_geom_bond_atom_site_label_1
_geom_bond_atom_site_label_2
_geom_bond_distance
_geom_bond_site_symmetry_2
Mg0 O1 2.056057 1_655
Mg0 O1 2.056057 1_565
Mg0 O7 2.286752 1_565
Mg0 O7 2.286752 1_655
Mg0 O5 2.289430 1_565
Mg0 O5 2.289430 1_655
Mg1 O2 2.056057 1_545
Mg1 O2 2.056057 1_455
Mg1 O8 2.286752 1_545
Mg1 O8 2.286752 1_455
Mg1 O6 2.289430 1_455
Mg1 O6 2.289430 1_545
Fe0 O9 2.052082 1_555
Fe0 O10 2.052082 1_555
Fe0 O12 2.232110 1_655
Fe0 O12 2.232110 1_565
Fe0 O11 2.232110 1_545
Fe0 O11 2.232110 1_455
Fe1 O5 1.927519 1_555
Fe1 O3 2.044999 1_545
Fe1 O3 2.044999 1_455
Fe1 O4 2.088817 1_554
Fe1 O0 2.176667 1_655
Fe1 O0 2.176667 1_565
Fe2 O6 1.927519 1_555
Fe2 O4 2.044999 1_565
Fe2 O4 2.044999 1_655
Fe2 O3 2.088817 1_556
Fe2 O0 2.176667 1_566
Fe2 O0 2.176667 1_656
Fe3 O7 1.941877 1_555
Fe3 O9 2.057615 1_455
Fe3 O9 2.057615 1_545
Fe3 O11 2.070876 1_545
Fe3 O11 2.070876 1_455
Fe3 O12 2.228708 1_555
Fe4 O8 1.941877 1_555
Fe4 O10 2.057615 1_565
Fe4 O10 2.057615 1_655
Fe4 O12 2.070876 1_655
Fe4 O12 2.070876 1_565
Fe4 O11 2.228708 1_555
Fe5 O1 1.970701 1_555
Fe5 O5 2.155136 1_455
Fe5 O5 2.155136 1_545
Fe5 O3 2.289446 1_545
Fe5 O3 2.289446 1_455
Fe5 O0 2.442831 1_555
Fe6 O2 1.970701 1_555
Fe6 O6 2.155136 1_655
Fe6 O6 2.155136 1_565
Fe6 O4 2.289446 1_565
Fe6 O4 2.289446 1_655
Fe6 O0 2.442831 1_666
Fe7 O1 1.973265 1_555
Fe7 O7 2.144612 1_455
Fe7 O7 2.144612 1_545
Fe7 O9 2.292163 1_545
Fe7 O9 2.292163 1_455
Fe7 O11 2.615046 1_445
Fe8 O2 1.973265 1_555
Fe8 O8 2.144612 1_565
Fe8 O8 2.144612 1_655
Fe8 O10 2.292163 1_655
Fe8 O10 2.292163 1_565
Fe8 O12 2.615046 1_665
