# generated using pymatgen
data_Sr3Nd(FeO4)2
_symmetry_space_group_name_H-M   'P 1'
_cell_length_a   6.91649566
_cell_length_b   6.91649566
_cell_length_c   5.49320200
_cell_angle_alpha   90.00000000
_cell_angle_beta   90.00000000
_cell_angle_gamma   133.33522757
_symmetry_Int_Tables_number   1
_chemical_formula_structural   Sr3Nd(FeO4)2
_chemical_formula_sum   'Sr3 Nd1 Fe2 O8'
_cell_volume   191.13569466
_cell_formula_units_Z   1
loop_
 _symmetry_equiv_pos_site_id
 _symmetry_equiv_pos_as_xyz
  1  'x, y, z'
loop_
 _atom_site_type_symbol
 _atom_site_label
 _atom_site_symmetry_multiplicity
 _atom_site_fract_x
 _atom_site_fract_y
 _atom_site_fract_z
 _atom_site_occupancy
  Sr  Sr0  1  0.64550100  0.35449900  0.00000000  1
  Sr  Sr1  1  0.35569700  0.64430300  0.00000000  1
  Sr  Sr2  1  0.85458900  0.14541100  0.50000000  1
  Nd  Nd0  1  0.14067600  0.85932400  0.50000000  1
  Fe  Fe0  1  0.50130700  0.49869300  0.50000000  1
  Fe  Fe1  1  0.99724800  0.00275200  0.00000000  1
  O  O0  1  0.84155100  0.15844900  0.00000000  1
  O  O1  1  0.32348000  0.67652000  0.50000000  1
  O  O2  1  0.66453300  0.33546700  0.50000000  1
  O  O3  1  0.16088600  0.83911400  0.00000000  1
  O  O4  1  0.25269500  0.24542900  0.25786200  1
  O  O5  1  0.75457100  0.74730500  0.74213800  1
  O  O6  1  0.75457100  0.74730500  0.25786200  1
  O  O7  1  0.25269500  0.24542900  0.74213800  1
loop_
_geom_bond_atom_site_label_1
_geom_bond_atom_site_label_2
_geom_bond_distance
_geom_bond_site_symmetry_2
Nd0 O1 2.321934 1_555
Nd0 O4 2.580929 1_565
Nd0 O7 2.580929 1_565
Nd0 O5 2.580929 1_455
Nd0 O6 2.580929 1_455
Nd0 O2 2.756088 1_565
Nd0 O2 2.756088 1_455
Nd0 O3 2.758571 1_555
Nd0 O3 2.758571 1_556
Fe0 O6 1.913172 1_555
Fe0 O5 1.913172 1_555
Fe0 O7 1.913172 1_555
Fe0 O4 1.913172 1_555
Fe0 O2 2.073258 1_555
Fe0 O1 2.258717 1_555
Fe1 O6 1.968505 1_545
Fe1 O5 1.968505 1_544
Fe1 O4 1.968505 1_655
Fe1 O7 1.968505 1_654
Fe1 O0 1.977627 1_555
Fe1 O3 2.078492 1_645
O0 Sr0 2.490181 1_555
O0 Sr1 2.745265 1_545
O0 Sr1 2.745265 1_655
O0 Sr2 2.751589 1_555
O0 Sr2 2.751589 1_554
O1 Sr2 2.767731 1_565
O1 Sr2 2.767731 1_455
O1 Sr1 2.776918 1_555
O1 Sr1 2.776918 1_556
O2 Sr2 2.414047 1_555
O2 Sr0 2.757219 1_556
O2 Sr0 2.757219 1_555
O3 Sr1 2.474444 1_555
O3 Sr0 2.746340 1_455
O3 Sr0 2.746340 1_565
O4 Sr0 2.672771 1_555
O4 Sr2 2.686096 1_455
O4 Sr1 2.725328 1_555
O5 Sr0 2.672771 1_556
O5 Sr2 2.686096 1_565
O5 Sr1 2.725328 1_556
O6 Sr0 2.672771 1_555
O6 Sr2 2.686096 1_565
O6 Sr1 2.725328 1_555
O7 Sr0 2.672771 1_556
O7 Sr2 2.686096 1_455
O7 Sr1 2.725328 1_556
