# generated using pymatgen
data_BaCoO3
_symmetry_space_group_name_H-M   'P 1'
_cell_length_a   5.72648266
_cell_length_b   5.72263780
_cell_length_c   9.70762787
_cell_angle_alpha   89.80945837
_cell_angle_beta   89.71405459
_cell_angle_gamma   59.96179190
_symmetry_Int_Tables_number   1
_chemical_formula_structural   BaCoO3
_chemical_formula_sum   'Ba4 Co4 O12'
_cell_volume   275.39434450
_cell_formula_units_Z   4
loop_
 _symmetry_equiv_pos_site_id
 _symmetry_equiv_pos_as_xyz
  1  'x, y, z'
loop_
 _atom_site_type_symbol
 _atom_site_label
 _atom_site_symmetry_multiplicity
 _atom_site_fract_x
 _atom_site_fract_y
 _atom_site_fract_z
 _atom_site_occupancy
  Ba  Ba0  1  0.33353900  0.33343000  0.49968200  1
  Ba  Ba1  1  0.33283300  0.33362900  0.00008900  1
  Ba  Ba2  1  0.66659700  0.66670200  0.24976200  1
  Ba  Ba3  1  0.66671900  0.66627300  0.75016100  1
  Co  Co0  1  0.00073500  0.99929500  0.62500800  1
  Co  Co1  1  0.99835800  0.00081100  0.87515400  1
  Co  Co2  1  0.99927000  0.00079200  0.12526400  1
  Co  Co3  1  0.00161100  0.99894300  0.37460400  1
  O  O0  1  0.85415500  0.85356400  0.49497700  1
  O  O1  1  0.85375500  0.85389500  0.99497100  1
  O  O2  1  0.70730300  0.14613900  0.24706400  1
  O  O3  1  0.70669500  0.14667000  0.74899500  1
  O  O4  1  0.29398600  0.85298500  0.50118400  1
  O  O5  1  0.29159500  0.85471000  0.00269200  1
  O  O6  1  0.85450200  0.29227400  0.50337700  1
  O  O7  1  0.85189100  0.29573900  0.00300500  1
  O  O8  1  0.14834200  0.70441400  0.24753100  1
  O  O9  1  0.14601800  0.70689500  0.74618800  1
  O  O10  1  0.14560500  0.14710100  0.25515200  1
  O  O11  1  0.14648400  0.14574200  0.75514100  1
loop_
_geom_bond_atom_site_label_1
_geom_bond_atom_site_label_2
_geom_bond_distance
_geom_bond_site_symmetry_2
Ba0 O4 2.866640 1_555
Ba0 O0 2.866648 1_455
Ba0 O6 2.868392 1_455
Ba0 O4 2.869485 1_545
Ba0 O0 2.869559 1_545
Ba0 O6 2.873034 1_555
Ba0 O10 3.020157 1_555
Ba0 O9 3.026198 1_555
Ba0 O3 3.051884 1_555
Ba0 O8 3.059540 1_555
Ba0 O2 3.067924 1_555
Ba0 O11 3.091689 1_555
Ba1 O5 2.866211 1_545
Ba1 O1 2.866375 1_454
Ba1 O7 2.868791 1_455
Ba1 O7 2.870260 1_555
Ba1 O1 2.870269 1_544
Ba1 O5 2.871223 1_555
Ba1 O11 3.023261 1_554
Ba1 O8 3.025344 1_555
Ba1 O2 3.037858 1_555
Ba1 O3 3.056434 1_554
Ba1 O9 3.079914 1_554
Ba1 O10 3.085691 1_555
Ba2 O10 2.864123 1_655
Ba2 O8 2.866032 1_555
Ba2 O2 2.867465 1_565
Ba2 O2 2.869612 1_555
Ba2 O10 2.872197 1_565
Ba2 O8 2.872789 1_655
Ba2 O7 3.020579 1_555
Ba2 O0 3.025880 1_555
Ba2 O5 3.040204 1_555
Ba2 O4 3.055231 1_555
Ba2 O6 3.081166 1_555
Ba2 O1 3.085345 1_554
Ba3 O3 2.865824 1_555
Ba3 O11 2.867383 1_565
Ba3 O9 2.868198 1_655
Ba3 O11 2.868920 1_655
Ba3 O3 2.870562 1_565
Ba3 O9 2.872925 1_555
Ba3 O1 3.023499 1_555
Ba3 O6 3.029953 1_555
Ba3 O4 3.048010 1_555
Ba3 O7 3.063590 1_556
Ba3 O5 3.071317 1_556
Ba3 O0 3.089506 1_555
Co0 O9 1.865177 1_555
Co0 O6 1.870166 1_465
Co0 O4 1.882777 1_555
Co0 O3 1.886799 1_465
Co0 O0 1.926619 1_455
Co0 O11 1.926833 1_565
Co1 O1 1.851033 1_545
Co1 O11 1.858161 1_655
Co1 O3 1.898445 1_555
Co1 O5 1.913101 1_646
Co1 O7 1.918008 1_556
Co1 O9 1.921194 1_645
Co2 O2 1.865426 1_555
Co2 O5 1.871533 1_645
Co2 O7 1.881574 1_555
Co2 O8 1.887152 1_645
Co2 O10 1.926947 1_655
Co2 O1 1.928665 1_544
Co3 O10 1.851296 1_565
Co3 O0 1.859473 1_455
Co3 O4 1.903795 1_555
Co3 O8 1.911598 1_555
Co3 O2 1.917152 1_465
Co3 O6 1.917776 1_465
