# generated using pymatgen
data_Li2TeWO6
_symmetry_space_group_name_H-M   'P 1'
_cell_length_a   13.10793300
_cell_length_b   5.47570700
_cell_length_c   8.69624037
_cell_angle_alpha   54.92672266
_cell_angle_beta   90.00000000
_cell_angle_gamma   90.00000000
_symmetry_Int_Tables_number   1
_chemical_formula_structural   Li2TeWO6
_chemical_formula_sum   'Li8 Te4 W4 O24'
_cell_volume   510.83544232
_cell_formula_units_Z   4
loop_
 _symmetry_equiv_pos_site_id
 _symmetry_equiv_pos_as_xyz
  1  'x, y, z'
loop_
 _atom_site_type_symbol
 _atom_site_label
 _atom_site_symmetry_multiplicity
 _atom_site_fract_x
 _atom_site_fract_y
 _atom_site_fract_z
 _atom_site_occupancy
  Li  Li0  1  0.56640300  0.45522500  0.73890800  1
  Li  Li1  1  0.93359700  0.45522500  0.23890800  1
  Li  Li2  1  0.43359700  0.54477500  0.26109200  1
  Li  Li3  1  0.06640300  0.54477500  0.76109200  1
  Li  Li4  1  0.35563700  0.76402400  0.47933800  1
  Li  Li5  1  0.14436300  0.76402400  0.97933800  1
  Li  Li6  1  0.64436300  0.23597600  0.52066200  1
  Li  Li7  1  0.85563700  0.23597600  0.02066200  1
  Te  Te0  1  0.70224400  0.68134600  0.06972200  1
  Te  Te1  1  0.79775600  0.68134600  0.56972200  1
  Te  Te2  1  0.29775600  0.31865400  0.93027800  1
  Te  Te3  1  0.20224400  0.31865400  0.43027800  1
  W  W0  1  0.59569000  0.02645100  0.25562900  1
  W  W1  1  0.90431000  0.02645100  0.75562900  1
  W  W2  1  0.40431000  0.97354900  0.74437100  1
  W  W3  1  0.09569000  0.97354900  0.24437100  1
  O  O0  1  0.47981900  0.80894000  0.33719700  1
  O  O1  1  0.02018100  0.80894000  0.83719700  1
  O  O2  1  0.52018100  0.19106000  0.66280300  1
  O  O3  1  0.97981900  0.19106000  0.16280300  1
  O  O4  1  0.59373700  0.18732000  0.00680500  1
  O  O5  1  0.90626300  0.18732000  0.50680500  1
  O  O6  1  0.40626300  0.81268000  0.99319500  1
  O  O7  1  0.09373700  0.81268000  0.49319500  1
  O  O8  1  0.55714700  0.34833900  0.26002400  1
  O  O9  1  0.94285300  0.34833900  0.76002400  1
  O  O10  1  0.44285300  0.65166100  0.73997600  1
  O  O11  1  0.05714700  0.65166100  0.23997600  1
  O  O12  1  0.69394900  0.69332600  0.29080800  1
  O  O13  1  0.80605100  0.69332600  0.79080800  1
  O  O14  1  0.30605100  0.30667400  0.70919200  1
  O  O15  1  0.19394900  0.30667400  0.20919200  1
  O  O16  1  0.84256100  0.82933300  0.03088300  1
  O  O17  1  0.65743900  0.82933300  0.53088300  1
  O  O18  1  0.15743900  0.17066700  0.96911700  1
  O  O19  1  0.34256100  0.17066700  0.46911700  1
  O  O20  1  0.74826900  0.27931400  0.19201200  1
  O  O21  1  0.75173100  0.27931400  0.69201200  1
  O  O22  1  0.25173100  0.72068600  0.80798800  1
  O  O23  1  0.24826900  0.72068600  0.30798800  1
loop_
_geom_bond_atom_site_label_1
_geom_bond_atom_site_label_2
_geom_bond_distance
_geom_bond_site_symmetry_2
Li0 O4 1.944273 1_556
Li0 O10 1.947119 1_555
Li0 O2 1.999410 1_555
Li0 O17 2.152680 1_555
Li1 O5 1.944273 1_555
Li1 O11 1.947119 1_655
Li1 O3 1.999410 1_555
Li1 O16 2.152680 1_555
Li2 O6 1.944273 1_554
Li2 O8 1.947119 1_555
Li2 O0 1.999410 1_555
Li2 O19 2.152680 1_555
Li3 O7 1.944273 1_555
Li3 O9 1.947119 1_455
Li3 O1 1.999410 1_555
Li3 O18 2.152680 1_555
Li4 O0 1.971969 1_555
Li4 O23 2.159583 1_555
Li4 O19 2.183536 1_565
Li4 O14 2.221852 1_555
Li4 O10 2.284770 1_555
Li5 O1 1.971969 1_555
Li5 O22 2.159583 1_555
Li5 O18 2.183536 1_565
Li5 O15 2.221852 1_556
Li5 O11 2.284770 1_556
Li6 O2 1.971969 1_555
Li6 O21 2.159583 1_555
Li6 O17 2.183536 1_545
Li6 O12 2.221852 1_555
Li6 O8 2.284770 1_555
Li7 O3 1.971969 1_555
Li7 O20 2.159583 1_555
Li7 O16 2.183536 1_545
Li7 O13 2.221852 1_554
Li7 O9 2.284770 1_554
O0 W0 1.804887 1_565
O1 W1 1.804887 1_465
O2 W2 1.804887 1_545
O3 W3 1.804887 1_645
O4 W0 1.807825 1_555
O5 W1 1.807825 1_555
O6 W2 1.807825 1_555
O7 W3 1.807825 1_555
O8 W0 1.854928 1_555
O8 Te0 2.492586 1_555
O9 W1 1.854928 1_555
O9 Te1 2.492586 1_555
O10 W2 1.854928 1_555
O10 Te2 2.492586 1_555
O11 W3 1.854928 1_555
O11 Te3 2.492586 1_555
O12 Te0 1.964059 1_555
O12 W0 2.106766 1_565
O13 Te1 1.964059 1_555
O13 W1 2.106766 1_565
O14 Te2 1.964059 1_555
O14 W2 2.106766 1_545
O15 Te3 1.964059 1_555
O15 W3 2.106766 1_545
O16 Te0 1.959356 1_555
O16 W1 2.140232 1_564
O17 Te1 1.959356 1_555
O17 W0 2.140232 1_565
O18 Te2 1.959356 1_555
O18 W3 2.140232 1_546
O19 Te3 1.959356 1_555
O19 W2 2.140232 1_545
O20 Te0 1.910653 1_555
O20 W0 2.311459 1_555
O21 Te1 1.910653 1_555
O21 W1 2.311459 1_555
O22 Te2 1.910653 1_555
O22 W2 2.311459 1_555
O23 Te3 1.910653 1_555
O23 W3 2.311459 1_555
