# generated using pymatgen
data_Cu8NiSb3S13N6
_symmetry_space_group_name_H-M   'P 1'
_cell_length_a   12.53861968
_cell_length_b   12.53861968
_cell_length_c   12.53861968
_cell_angle_alpha   60.00000000
_cell_angle_beta   60.00000000
_cell_angle_gamma   60.00000000
_symmetry_Int_Tables_number   1
_chemical_formula_structural   Cu8NiSb3S13N6
_chemical_formula_sum   'Cu16 Ni2 Sb6 S26 N12'
_cell_volume   1393.90825679
_cell_formula_units_Z   2
loop_
 _symmetry_equiv_pos_site_id
 _symmetry_equiv_pos_as_xyz
  1  'x, y, z'
loop_
 _atom_site_type_symbol
 _atom_site_label
 _atom_site_symmetry_multiplicity
 _atom_site_fract_x
 _atom_site_fract_y
 _atom_site_fract_z
 _atom_site_occupancy
  Cu  Cu0  1  0.08458800  0.08458800  0.08458800  1
  Cu  Cu1  1  0.08458800  0.08458800  0.74623600  1
  Cu  Cu2  1  0.08458800  0.74623600  0.08458800  1
  Cu  Cu3  1  0.58458800  0.58458800  0.58458800  1
  Cu  Cu4  1  0.74623600  0.08458800  0.08458800  1
  Cu  Cu5  1  0.58458800  0.58458800  0.24623600  1
  Cu  Cu6  1  0.24623600  0.58458800  0.58458800  1
  Cu  Cu7  1  0.58458800  0.24623600  0.58458800  1
  Cu  Cu8  1  0.91541200  0.91541200  0.91541200  1
  Cu  Cu9  1  0.91541200  0.91541200  0.25376400  1
  Cu  Cu10  1  0.91541200  0.25376400  0.91541200  1
  Cu  Cu11  1  0.41541200  0.41541200  0.41541200  1
  Cu  Cu12  1  0.25376400  0.91541200  0.91541200  1
  Cu  Cu13  1  0.41541200  0.41541200  0.75376400  1
  Cu  Cu14  1  0.75376400  0.41541200  0.41541200  1
  Cu  Cu15  1  0.41541200  0.75376400  0.41541200  1
  Ni  Ni0  1  0.75000000  0.75000000  0.75000000  1
  Ni  Ni1  1  0.25000000  0.25000000  0.25000000  1
  Sb  Sb0  1  0.25000000  0.75000000  0.75000000  1
  Sb  Sb1  1  0.75000000  0.25000000  0.25000000  1
  Sb  Sb2  1  0.75000000  0.25000000  0.75000000  1
  Sb  Sb3  1  0.25000000  0.75000000  0.25000000  1
  Sb  Sb4  1  0.75000000  0.75000000  0.25000000  1
  Sb  Sb5  1  0.25000000  0.25000000  0.75000000  1
  S  S0  1  0.06081400  0.93918600  0.71020700  1
  S  S1  1  0.93918600  0.06081400  0.28979300  1
  S  S2  1  0.71020700  0.28979300  0.06081400  1
  S  S3  1  0.71020700  0.06081400  0.93918600  1
  S  S4  1  0.43918600  0.56081400  0.21020700  1
  S  S5  1  0.28979300  0.71020700  0.93918600  1
  S  S6  1  0.28979300  0.93918600  0.06081400  1
  S  S7  1  0.56081400  0.43918600  0.78979300  1
  S  S8  1  0.06081400  0.71020700  0.28979300  1
  S  S9  1  0.78979300  0.21020700  0.56081400  1
  S  S10  1  0.93918600  0.28979300  0.71020700  1
  S  S11  1  0.21020700  0.78979300  0.43918600  1
  S  S12  1  0.93918600  0.71020700  0.06081400  1
  S  S13  1  0.56081400  0.21020700  0.43918600  1
  S  S14  1  0.28979300  0.06081400  0.71020700  1
  S  S15  1  0.21020700  0.56081400  0.78979300  1
  S  S16  1  0.71020700  0.93918600  0.28979300  1
  S  S17  1  0.78979300  0.43918600  0.21020700  1
  S  S18  1  0.06081400  0.28979300  0.93918600  1
  S  S19  1  0.43918600  0.78979300  0.56081400  1
  S  S20  1  0.21020700  0.43918600  0.56081400  1
  S  S21  1  0.78979300  0.56081400  0.43918600  1
  S  S22  1  0.43918600  0.21020700  0.78979300  1
  S  S23  1  0.56081400  0.78979300  0.21020700  1
  S  S24  1  0.00000000  0.00000000  0.00000000  1
  S  S25  1  0.50000000  0.50000000  0.50000000  1
  N  N0  1  0.64549700  0.85450300  0.85450300  1
  N  N1  1  0.85450300  0.64549700  0.64549700  1
  N  N2  1  0.85450300  0.64549700  0.85450300  1
  N  N3  1  0.35450300  0.14549700  0.35450300  1
  N  N4  1  0.64549700  0.85450300  0.64549700  1
  N  N5  1  0.14549700  0.35450300  0.14549700  1
  N  N6  1  0.85450300  0.85450300  0.64549700  1
  N  N7  1  0.14549700  0.35450300  0.35450300  1
  N  N8  1  0.64549700  0.64549700  0.85450300  1
  N  N9  1  0.35450300  0.14549700  0.14549700  1
  N  N10  1  0.35450300  0.35450300  0.14549700  1
  N  N11  1  0.14549700  0.14549700  0.35450300  1
loop_
_geom_bond_atom_site_label_1
_geom_bond_atom_site_label_2
_geom_bond_distance
_geom_bond_site_symmetry_2
Cu0 S6 2.262415 1_545
Cu0 S1 2.262415 1_455
Cu0 S18 2.262415 1_554
Cu0 S24 2.597970 1_555
Cu1 S14 2.262415 1_555
Cu1 S10 2.262415 1_455
Cu1 S0 2.262415 1_545
Cu1 S24 2.597970 1_556
Cu2 S8 2.262415 1_555
Cu2 S5 2.262415 1_554
Cu2 S12 2.262415 1_455
Cu2 S24 2.597970 1_565
Cu3 S19 2.262415 1_555
Cu3 S21 2.262415 1_555
Cu3 S7 2.262415 1_555
Cu3 S25 2.597970 1_555
Cu4 S2 2.262415 1_555
Cu4 S16 2.262415 1_545
Cu4 S3 2.262415 1_554
Cu4 S24 2.597970 1_655
Cu5 S23 2.262415 1_555
Cu5 S17 2.262415 1_555
Cu5 S4 2.262415 1_555
Cu5 S25 2.597970 1_555
Cu6 S15 2.262415 1_555
Cu6 S11 2.262415 1_555
Cu6 S20 2.262415 1_555
Cu6 S25 2.597970 1_555
Cu7 S9 2.262415 1_555
Cu7 S22 2.262415 1_555
Cu7 S13 2.262415 1_555
Cu7 S25 2.597970 1_555
Cu8 S3 2.262415 1_565
Cu8 S12 2.262415 1_556
Cu8 S0 2.262415 1_655
Cu8 S24 2.597970 1_666
Cu9 S1 2.262415 1_565
Cu9 S8 2.262415 1_655
Cu9 S16 2.262415 1_555
Cu9 S24 2.597970 1_665
Cu10 S18 2.262415 1_655
Cu10 S2 2.262415 1_556
Cu10 S10 2.262415 1_555
Cu10 S24 2.597970 1_656
Cu11 S13 2.262415 1_555
Cu11 S4 2.262415 1_555
Cu11 S20 2.262415 1_555
Cu11 S25 2.597970 1_555
Cu12 S6 2.262415 1_556
Cu12 S14 2.262415 1_565
Cu12 S5 2.262415 1_555
Cu12 S24 2.597970 1_566
Cu13 S7 2.262415 1_555
Cu13 S15 2.262415 1_555
Cu13 S22 2.262415 1_555
Cu13 S25 2.597970 1_555
Cu14 S21 2.262415 1_555
Cu14 S9 2.262415 1_555
Cu14 S17 2.262415 1_555
Cu14 S25 2.597970 1_555
Cu15 S19 2.262415 1_555
Cu15 S23 2.262415 1_555
Cu15 S11 2.262415 1_555
Cu15 S25 2.597970 1_555
S0 Sb0 2.424037 1_555
S1 Sb1 2.424037 1_555
S2 Sb1 2.424037 1_555
S3 Sb2 2.424037 1_555
S4 Sb3 2.424037 1_555
S5 Sb0 2.424037 1_555
S6 Sb3 2.424037 1_555
S7 Sb2 2.424037 1_555
S8 Sb3 2.424037 1_555
S9 Sb2 2.424037 1_555
S10 Sb2 2.424037 1_555
S11 Sb3 2.424037 1_555
S12 Sb4 2.424037 1_555
S13 Sb1 2.424037 1_555
S14 Sb5 2.424037 1_555
S15 Sb0 2.424037 1_555
S16 Sb4 2.424037 1_555
S17 Sb1 2.424037 1_555
S18 Sb5 2.424037 1_555
S19 Sb0 2.424037 1_555
S20 Sb5 2.424037 1_555
S21 Sb4 2.424037 1_555
S22 Sb5 2.424037 1_555
S23 Sb4 2.424037 1_555
N0 Ni0 1.853077 1_555
N1 Ni0 1.853077 1_555
N2 Ni0 1.853077 1_555
N3 Ni1 1.853077 1_555
N4 Ni0 1.853077 1_555
N5 Ni1 1.853077 1_555
N6 Ni0 1.853077 1_555
N7 Ni1 1.853077 1_555
N8 Ni0 1.853077 1_555
N9 Ni1 1.853077 1_555
N10 Ni1 1.853077 1_555
N11 Ni1 1.853077 1_555
