# generated using pymatgen
data_Mg3Si4
_symmetry_space_group_name_H-M   'P 1'
_cell_length_a   5.83356000
_cell_length_b   5.93393516
_cell_length_c   7.97837630
_cell_angle_alpha   103.64520180
_cell_angle_beta   107.00001142
_cell_angle_gamma   88.16043459
_symmetry_Int_Tables_number   1
_chemical_formula_structural   Mg3Si4
_chemical_formula_sum   'Mg6 Si8'
_cell_volume   256.45487855
_cell_formula_units_Z   2
loop_
 _symmetry_equiv_pos_site_id
 _symmetry_equiv_pos_as_xyz
  1  'x, y, z'
loop_
 _atom_site_type_symbol
 _atom_site_label
 _atom_site_symmetry_multiplicity
 _atom_site_fract_x
 _atom_site_fract_y
 _atom_site_fract_z
 _atom_site_occupancy
  Mg  Mg0  1  0.55935200  0.12189500  0.56846700  1
  Mg  Mg1  1  0.73434300  0.40382300  0.25945700  1
  Mg  Mg2  1  0.43269400  0.92303500  0.13521800  1
  Mg  Mg3  1  0.13785300  0.47072600  0.97709500  1
  Mg  Mg4  1  0.27386200  0.71784900  0.69540500  1
  Mg  Mg5  1  0.73948900  0.63495200  0.63556100  1
  Si  Si0  1  0.90752500  0.87528100  0.40682200  1
  Si  Si1  1  0.22053900  0.29192900  0.33071000  1
  Si  Si2  1  0.62456100  0.53900200  0.92831500  1
  Si  Si3  1  0.61353400  0.11608700  0.91041400  1
  Si  Si4  1  0.92452800  0.92307700  0.11613100  1
  Si  Si5  1  0.01173700  0.02337200  0.85589800  1
  Si  Si6  1  0.27973300  0.70012300  0.35473000  1
  Si  Si7  1  0.04013900  0.26539200  0.57904900  1
loop_
_geom_bond_atom_site_label_1
_geom_bond_atom_site_label_2
_geom_bond_distance
_geom_bond_site_symmetry_2
Mg0 Si3 2.661485 1_555
Mg0 Si1 2.665607 1_555
Mg0 Si0 2.894906 1_545
Mg0 Si6 2.907652 1_545
Mg0 Si7 2.929073 1_655
Mg0 Si5 3.091896 1_655
Mg0 Si7 3.139460 1_555
Mg0 Si2 3.253078 1_555
Mg1 Si3 2.802366 1_554
Mg1 Si1 2.814735 1_655
Mg1 Si2 2.830398 1_554
Mg1 Si0 2.857365 1_555
Mg1 Si7 2.931382 1_655
Mg1 Si4 3.110631 1_545
Mg2 Si6 2.774109 1_555
Mg2 Si3 2.792043 1_564
Mg2 Si1 2.846053 1_565
Mg2 Si2 2.883150 1_554
Mg2 Si4 2.917315 1_555
Mg2 Si4 2.923518 1_455
Mg2 Si5 2.946741 1_564
Mg2 Si0 3.029543 1_555
Mg3 Si5 2.649778 1_555
Mg3 Si6 2.880059 1_556
Mg3 Si2 2.932003 1_455
Mg3 Si7 3.009210 1_555
Mg3 Si2 3.028411 1_555
Mg3 Si4 3.028543 1_456
Mg3 Si1 3.146679 1_556
Mg4 Si5 2.671381 1_565
Mg4 Si6 2.705412 1_555
Mg4 Si2 2.707922 1_555
Mg4 Si7 2.871952 1_555
Mg4 Si0 2.958097 1_455
Mg4 Si3 2.975521 1_565
Mg5 Si5 2.759667 1_665
Mg5 Si2 2.792275 1_555
Mg5 Si7 2.799515 1_655
Mg5 Si0 2.947692 1_555
Mg5 Si6 3.031713 1_555
Si0 Si7 2.416180 1_665
Si0 Si4 2.432249 1_555
Si0 Si6 2.479222 1_655
Si1 Si6 2.412259 1_555
Si1 Si7 2.536751 1_555
Si1 Si4 2.729357 1_445
Si2 Si3 2.481585 1_555
Si2 Si4 2.759187 1_556
Si3 Si5 2.506744 1_655
Si3 Si4 2.511822 1_546
Si4 Si5 2.478681 1_664
Si4 Si6 2.893699 1_655
