# generated using pymatgen
data_Mn2CdO3
_symmetry_space_group_name_H-M   'P 1'
_cell_length_a   5.64775805
_cell_length_b   5.63172703
_cell_length_c   5.64775804
_cell_angle_alpha   80.16748326
_cell_angle_beta   60.01918489
_cell_angle_gamma   99.83255881
_symmetry_Int_Tables_number   1
_chemical_formula_structural   Mn2CdO3
_chemical_formula_sum   'Mn4 Cd2 O6'
_cell_volume   146.24861515
_cell_formula_units_Z   2
loop_
 _symmetry_equiv_pos_site_id
 _symmetry_equiv_pos_as_xyz
  1  'x, y, z'
loop_
 _atom_site_type_symbol
 _atom_site_label
 _atom_site_symmetry_multiplicity
 _atom_site_fract_x
 _atom_site_fract_y
 _atom_site_fract_z
 _atom_site_occupancy
  Mn  Mn0  1  0.66727400  0.99999900  0.66727000  1
  Mn  Mn1  1  0.33272700  0.00000100  0.33272900  1
  Mn  Mn2  1  0.16728100  0.50000100  0.16727600  1
  Mn  Mn3  1  0.83272200  0.50000400  0.83272200  1
  Cd  Cd0  1  0.99999900  0.99999800  0.00000100  1
  Cd  Cd1  1  0.50000000  0.49999900  0.50000000  1
  O  O0  1  0.75000000  0.25000100  0.25000100  1
  O  O1  1  0.24999800  0.74999800  0.75000100  1
  O  O2  1  0.92875600  0.75000300  0.42875800  1
  O  O3  1  0.42875700  0.24999700  0.92875700  1
  O  O4  1  0.57124200  0.75000100  0.07124400  1
  O  O5  1  0.07124400  0.24999700  0.57124300  1
loop_
_geom_bond_atom_site_label_1
_geom_bond_atom_site_label_2
_geom_bond_distance
_geom_bond_site_symmetry_2
Mn0 O5 2.210703 1_665
Mn0 O4 2.210711 1_556
Mn0 O0 2.301306 1_565
Mn0 O1 2.301323 1_555
Mn0 O2 2.312438 1_555
Mn0 O3 2.312470 1_565
Mn1 O3 2.210702 1_554
Mn1 O2 2.210703 1_445
Mn1 O0 2.301314 1_555
Mn1 O1 2.301315 1_545
Mn1 O5 2.312445 1_555
Mn1 O4 2.312470 1_545
Mn2 O4 2.210656 1_555
Mn2 O5 2.210683 1_555
Mn2 O1 2.301343 1_554
Mn2 O0 2.301358 1_455
Mn2 O3 2.312474 1_554
Mn2 O2 2.312492 1_455
Mn3 O2 2.210664 1_555
Mn3 O3 2.210684 1_555
Mn3 O1 2.301331 1_655
Mn3 O0 2.301364 1_556
Mn3 O4 2.312458 1_556
Mn3 O5 2.312502 1_655
Cd0 O1 2.309738 1_654
Cd0 O0 2.309751 1_565
Cd0 O2 2.382477 1_555
Cd0 O4 2.382480 1_555
Cd0 O5 2.382485 1_664
Cd0 O3 2.382487 1_664
Cd1 O0 2.309728 1_555
Cd1 O1 2.309742 1_555
Cd1 O5 2.382487 1_555
Cd1 O4 2.382490 1_555
Cd1 O3 2.382492 1_555
Cd1 O2 2.382493 1_555
