# generated using pymatgen
data_Ca(NO5)2
_symmetry_space_group_name_H-M   'P 1'
_cell_length_a   8.57445100
_cell_length_b   6.30135500
_cell_length_c   14.77455393
_cell_angle_alpha   72.04009125
_cell_angle_beta   90.00000000
_cell_angle_gamma   90.00000000
_symmetry_Int_Tables_number   1
_chemical_formula_structural   Ca(NO5)2
_chemical_formula_sum   'Ca4 N8 O40'
_cell_volume   759.38076838
_cell_formula_units_Z   4
loop_
 _symmetry_equiv_pos_site_id
 _symmetry_equiv_pos_as_xyz
  1  'x, y, z'
loop_
 _atom_site_type_symbol
 _atom_site_label
 _atom_site_symmetry_multiplicity
 _atom_site_fract_x
 _atom_site_fract_y
 _atom_site_fract_z
 _atom_site_occupancy
  Ca  Ca0  1  0.56598500  0.70976000  0.85973600  1
  Ca  Ca1  1  0.93401500  0.70976000  0.35973600  1
  Ca  Ca2  1  0.43401500  0.29024000  0.14026400  1
  Ca  Ca3  1  0.06598500  0.29024000  0.64026400  1
  N  N0  1  0.74867600  0.48632800  0.09018900  1
  N  N1  1  0.75132400  0.48632800  0.59018900  1
  N  N2  1  0.25132400  0.51367200  0.90981100  1
  N  N3  1  0.24867600  0.51367200  0.40981100  1
  N  N4  1  0.62727000  0.95007000  0.66406600  1
  N  N5  1  0.87273000  0.95007000  0.16406600  1
  N  N6  1  0.37273000  0.04993000  0.33593400  1
  N  N7  1  0.12727000  0.04993000  0.83593400  1
  O  O0  1  0.70462900  0.35926000  0.17175200  1
  O  O1  1  0.79537100  0.35926000  0.67175200  1
  O  O2  1  0.29537100  0.64074000  0.82824800  1
  O  O3  1  0.20462900  0.64074000  0.32824800  1
  O  O4  1  0.63759300  0.53043300  0.02572000  1
  O  O5  1  0.86240700  0.53043300  0.52572000  1
  O  O6  1  0.36240700  0.46956700  0.97428000  1
  O  O7  1  0.13759300  0.46956700  0.47428000  1
  O  O8  1  0.88021800  0.56024300  0.07230500  1
  O  O9  1  0.61978200  0.56024300  0.57230500  1
  O  O10  1  0.11978200  0.43975700  0.92769500  1
  O  O11  1  0.38021800  0.43975700  0.42769500  1
  O  O12  1  0.73121400  0.82048500  0.71484200  1
  O  O13  1  0.76878600  0.82048500  0.21484200  1
  O  O14  1  0.26878600  0.17951500  0.28515800  1
  O  O15  1  0.23121400  0.17951500  0.78515800  1
  O  O16  1  0.64428500  0.04694400  0.57858700  1
  O  O17  1  0.85571500  0.04694400  0.07858700  1
  O  O18  1  0.35571500  0.95305600  0.42141300  1
  O  O19  1  0.14428500  0.95305600  0.92141300  1
  O  O20  1  0.50223700  0.97307600  0.70930400  1
  O  O21  1  0.99776300  0.97307600  0.20930400  1
  O  O22  1  0.49776300  0.02692400  0.29069600  1
  O  O23  1  0.00223700  0.02692400  0.79069600  1
  O  O24  1  0.88609000  0.34517300  0.32903700  1
  O  O25  1  0.61391000  0.34517300  0.82903700  1
  O  O26  1  0.11391000  0.65482700  0.67096300  1
  O  O27  1  0.38609000  0.65482700  0.17096300  1
  O  O28  1  0.97396200  0.02134700  0.53507400  1
  O  O29  1  0.52603800  0.02134700  0.03507400  1
  O  O30  1  0.02603800  0.97865300  0.46492600  1
  O  O31  1  0.47396200  0.97865300  0.96492600  1
  O  O32  1  0.76865000  0.05115700  0.88506000  1
  O  O33  1  0.73135000  0.05115700  0.38506000  1
  O  O34  1  0.23135000  0.94884300  0.11494000  1
  O  O35  1  0.26865000  0.94884300  0.61494000  1
  O  O36  1  0.76110400  0.25451500  0.37894400  1
  O  O37  1  0.73889600  0.25451500  0.87894400  1
  O  O38  1  0.23889600  0.74548500  0.62105600  1
  O  O39  1  0.26110400  0.74548500  0.12105600  1
loop_
_geom_bond_atom_site_label_1
_geom_bond_atom_site_label_2
_geom_bond_distance
_geom_bond_site_symmetry_2
Ca0 O20 2.391110 1_555
Ca0 O2 2.431968 1_555
Ca0 O4 2.441085 1_556
Ca0 O12 2.481057 1_555
Ca0 O25 2.509025 1_555
Ca0 O6 2.573361 1_555
Ca0 O31 2.744606 1_555
Ca0 O32 2.878203 1_565
Ca1 O21 2.391110 1_555
Ca1 O3 2.431968 1_655
Ca1 O5 2.441085 1_555
Ca1 O13 2.481057 1_555
Ca1 O24 2.509025 1_555
Ca1 O7 2.573361 1_655
Ca1 O30 2.744606 1_655
Ca1 O33 2.878203 1_565
Ca2 O22 2.391110 1_555
Ca2 O0 2.431968 1_555
Ca2 O6 2.441085 1_554
Ca2 O14 2.481057 1_555
Ca2 O27 2.509025 1_555
Ca2 O4 2.573361 1_555
Ca2 O29 2.744606 1_555
Ca2 O34 2.878203 1_545
Ca3 O23 2.391110 1_555
Ca3 O1 2.431968 1_455
Ca3 O7 2.441085 1_555
Ca3 O15 2.481057 1_555
Ca3 O26 2.509025 1_555
Ca3 O5 2.573361 1_455
Ca3 O28 2.744606 1_455
Ca3 O35 2.878203 1_545
N0 O8 1.217792 1_555
N0 O0 1.280966 1_555
N0 O4 1.314707 1_555
N1 O9 1.217792 1_555
N1 O1 1.280966 1_555
N1 O5 1.314707 1_555
N2 O10 1.217792 1_555
N2 O2 1.280966 1_555
N2 O6 1.314707 1_555
N3 O11 1.217792 1_555
N3 O3 1.280966 1_555
N3 O7 1.314707 1_555
N4 O16 1.230218 1_565
N4 O12 1.283017 1_555
N4 O20 1.294939 1_555
N5 O17 1.230218 1_565
N5 O13 1.283017 1_555
N5 O21 1.294939 1_555
N6 O18 1.230218 1_545
N6 O14 1.283017 1_555
N6 O22 1.294939 1_555
N7 O19 1.230218 1_545
N7 O15 1.283017 1_555
N7 O23 1.294939 1_555
O24 O36 1.326189 1_555
O25 O37 1.326189 1_555
O26 O38 1.326189 1_555
O27 O39 1.326189 1_555
O28 O30 1.232010 1_645
O29 O31 1.232010 1_544
O32 O37 1.282150 1_555
O33 O36 1.282150 1_555
O34 O39 1.282150 1_555
O35 O38 1.282150 1_555
