# generated using pymatgen
data_MnAl12
_symmetry_space_group_name_H-M   'P 1'
_cell_length_a   6.41219517
_cell_length_b   6.41219517
_cell_length_c   6.41219517
_cell_angle_alpha   109.47122063
_cell_angle_beta   109.47122063
_cell_angle_gamma   109.47122063
_symmetry_Int_Tables_number   1
_chemical_formula_structural   MnAl12
_chemical_formula_sum   'Mn1 Al12'
_cell_volume   202.95432378
_cell_formula_units_Z   1
loop_
 _symmetry_equiv_pos_site_id
 _symmetry_equiv_pos_as_xyz
  1  'x, y, z'
loop_
 _atom_site_type_symbol
 _atom_site_label
 _atom_site_symmetry_multiplicity
 _atom_site_fract_x
 _atom_site_fract_y
 _atom_site_fract_z
 _atom_site_occupancy
  Mn  Mn0  1  -0.00000000  0.00000000  -0.00000000  1
  Al  Al0  1  0.30488383  0.11970564  0.81482180  1
  Al  Al1  1  0.69511617  0.88029436  0.18517820  1
  Al  Al2  1  0.69511617  0.50993497  0.81482180  1
  Al  Al3  1  0.30488383  0.49006503  0.18517820  1
  Al  Al4  1  0.11970564  0.81482180  0.30488383  1
  Al  Al5  1  0.88029436  0.18517820  0.69511617  1
  Al  Al6  1  0.50993497  0.81482180  0.69511617  1
  Al  Al7  1  0.49006503  0.18517820  0.30488383  1
  Al  Al8  1  0.81482180  0.30488383  0.11970564  1
  Al  Al9  1  0.18517820  0.69511617  0.88029436  1
  Al  Al10  1  0.81482180  0.69511617  0.50993497  1
  Al  Al11  1  0.18517820  0.30488383  0.49006503  1
loop_
_geom_bond_atom_site_label_1
_geom_bond_atom_site_label_2
_geom_bond_distance
_geom_bond_site_symmetry_2
Al0 Mn0 2.641172 1_556
Al0 Al3 2.742191 1_556
Al0 Al11 2.743343 1_555
Al0 Al6 2.743344 1_545
Al0 Al8 2.743359 1_556
Al0 Al4 2.743359 1_545
Al0 Al5 2.785920 1_455
Al0 Al9 2.785920 1_545
Al0 Al10 2.785920 1_445
Al0 Al7 2.785920 1_556
Al0 Al2 2.889334 1_555
Al1 Mn0 2.641172 1_665
Al1 Al2 2.742191 1_554
Al1 Al10 2.743343 1_555
Al1 Al7 2.743344 1_565
Al1 Al9 2.743359 1_554
Al1 Al5 2.743359 1_565
Al1 Al8 2.785920 1_565
Al1 Al4 2.785920 1_655
Al1 Al11 2.785920 1_665
Al1 Al6 2.785920 1_554
Al1 Al3 2.889334 1_555
Al2 Mn0 2.641187 1_666
Al2 Al5 2.743343 1_555
Al2 Al8 2.743344 1_556
Al2 Al7 2.743359 1_555
Al2 Al4 2.785920 1_656
Al2 Al9 2.785920 1_655
Al2 Al6 2.785949 1_555
Al3 Mn0 2.641187 1_555
Al3 Al4 2.743343 1_555
Al3 Al9 2.743344 1_554
Al3 Al6 2.743359 1_555
Al3 Al5 2.785920 1_454
Al3 Al8 2.785920 1_455
Al3 Al7 2.785949 1_555
Al4 Mn0 2.641172 1_565
Al4 Al7 2.742191 1_565
Al4 Al8 2.743359 1_455
Al4 Al9 2.785920 1_554
Al4 Al6 2.889334 1_555
Al5 Mn0 2.641172 1_656
Al5 Al6 2.742191 1_545
Al5 Al9 2.743359 1_655
Al5 Al8 2.785920 1_556
Al5 Al7 2.889334 1_555
Al6 Mn0 2.641187 1_666
Al6 Al9 2.743343 1_555
Al6 Al8 2.785920 1_566
Al7 Mn0 2.641187 1_555
Al7 Al8 2.743343 1_555
Al7 Al9 2.785920 1_544
Al8 Mn0 2.641172 1_655
Al9 Mn0 2.641172 1_566
Al10 Mn0 2.641187 1_666
Al10 Al9 2.742191 1_655
Al10 Al4 2.743344 1_655
Al10 Al3 2.743359 1_555
Al10 Al7 2.743359 1_555
Al10 Al5 2.785920 1_565
Al10 Al6 2.785949 1_555
Al10 Al2 2.785949 1_555
Al10 Al8 2.889334 1_555
Al11 Mn0 2.641187 1_555
Al11 Al8 2.742191 1_455
Al11 Al5 2.743344 1_455
Al11 Al6 2.743359 1_555
Al11 Al2 2.743359 1_555
Al11 Al4 2.785920 1_545
Al11 Al3 2.785949 1_555
Al11 Al7 2.785949 1_555
Al11 Al9 2.889334 1_555
