# generated using pymatgen
data_LaZnFeBiO6
_symmetry_space_group_name_H-M   'P 1'
_cell_length_a   6.22224700
_cell_length_b   5.56269601
_cell_length_c   8.00976344
_cell_angle_alpha   90.87072581
_cell_angle_beta   90.00000000
_cell_angle_gamma   90.00000000
_symmetry_Int_Tables_number   1
_chemical_formula_structural   LaZnFeBiO6
_chemical_formula_sum   'La2 Zn2 Fe2 Bi2 O12'
_cell_volume   277.20567184
_cell_formula_units_Z   2
loop_
 _symmetry_equiv_pos_site_id
 _symmetry_equiv_pos_as_xyz
  1  'x, y, z'
loop_
 _atom_site_type_symbol
 _atom_site_label
 _atom_site_symmetry_multiplicity
 _atom_site_fract_x
 _atom_site_fract_y
 _atom_site_fract_z
 _atom_site_occupancy
  La  La0  1  0.08290800  0.97197000  0.24985700  1
  La  La1  1  0.41709200  0.47197000  0.74985700  1
  Zn  Zn0  1  0.37904600  0.47648500  0.23631500  1
  Zn  Zn1  1  0.12095400  0.97648500  0.73631500  1
  Fe  Fe0  1  0.52310200  0.98702200  0.00660100  1
  Fe  Fe1  1  0.97689800  0.48702200  0.50660100  1
  Bi  Bi0  1  0.55526800  0.98980000  0.49230400  1
  Bi  Bi1  1  0.94473200  0.48980000  0.99230400  1
  O  O0  1  0.04267000  0.63588700  0.73699000  1
  O  O1  1  0.17641000  0.18404500  0.93813100  1
  O  O2  1  0.18934300  0.20917400  0.55705100  1
  O  O3  1  0.31065700  0.70917400  0.05705100  1
  O  O4  1  0.32359000  0.68404500  0.43813100  1
  O  O5  1  0.45733000  0.13588700  0.23698900  1
  O  O6  1  0.48157000  0.90248700  0.76186100  1
  O  O7  1  0.71073100  0.33519600  0.56582100  1
  O  O8  1  0.64332800  0.30793300  0.95506800  1
  O  O9  1  0.85667200  0.80793300  0.45506800  1
  O  O10  1  0.78926900  0.83519600  0.06582100  1
  O  O11  1  0.01843000  0.40248700  0.26186100  1
loop_
_geom_bond_atom_site_label_1
_geom_bond_atom_site_label_2
_geom_bond_distance
_geom_bond_site_symmetry_2
La0 O9 2.358294 1_455
La0 O11 2.428671 1_565
La0 O10 2.460890 1_455
La0 O5 2.504519 1_565
La0 O3 2.541960 1_555
La0 O4 2.674989 1_555
La0 O1 2.837955 1_564
La0 O2 2.852244 1_565
La1 O8 2.358294 1_555
La1 O6 2.428671 1_555
La1 O7 2.460890 1_555
La1 O0 2.504518 1_555
La1 O2 2.541960 1_555
La1 O1 2.674989 1_555
La1 O4 2.837955 1_555
La1 O3 2.852244 1_556
Fe0 O10 1.921799 1_555
Fe0 O8 1.984711 1_564
Fe0 O6 2.025514 1_554
Fe0 O5 2.052341 1_565
Fe0 O3 2.078096 1_555
Fe0 O1 2.484701 1_564
Fe1 O7 1.921799 1_555
Fe1 O9 1.984711 1_555
Fe1 O11 2.025514 1_655
Fe1 O0 2.052348 1_655
Fe1 O2 2.078096 1_655
Fe1 O4 2.484701 1_655
Bi0 O9 2.149517 1_555
Bi0 O7 2.222523 1_565
Bi0 O4 2.266437 1_555
Bi0 O6 2.267094 1_555
Bi0 O5 2.294412 1_565
Bi0 O2 2.631167 1_565
Bi1 O8 2.149517 1_555
Bi1 O10 2.222523 1_556
Bi1 O1 2.266437 1_655
Bi1 O11 2.267094 1_656
Bi1 O0 2.294405 1_655
Bi1 O3 2.631167 1_656
O0 Zn1 1.956344 1_555
O1 Zn1 2.002122 1_545
O2 Zn1 1.993660 1_545
O3 Zn0 1.993660 1_555
O4 Zn0 2.002122 1_555
O5 Zn0 1.956344 1_555
O6 Zn1 2.291002 1_555
O11 Zn0 2.291002 1_555
