# generated using pymatgen
data_LiCd4(TcO3)4
_symmetry_space_group_name_H-M   'P 1'
_cell_length_a   5.59749530
_cell_length_b   5.53504904
_cell_length_c   7.95615803
_cell_angle_alpha   89.77378266
_cell_angle_beta   90.02515198
_cell_angle_gamma   88.98749172
_symmetry_Int_Tables_number   1
_chemical_formula_structural   LiCd4(TcO3)4
_chemical_formula_sum   'Li1 Cd4 Tc4 O12'
_cell_volume   246.46051687
_cell_formula_units_Z   1
loop_
 _symmetry_equiv_pos_site_id
 _symmetry_equiv_pos_as_xyz
  1  'x, y, z'
loop_
 _atom_site_type_symbol
 _atom_site_label
 _atom_site_symmetry_multiplicity
 _atom_site_fract_x
 _atom_site_fract_y
 _atom_site_fract_z
 _atom_site_occupancy
  Li  Li0  1  0.78650200  0.66539300  0.24908400  1
  Cd  Cd0  1  0.44757200  0.41568100  0.24729300  1
  Cd  Cd1  1  0.99571400  0.07069200  0.24736700  1
  Cd  Cd2  1  0.50094900  0.45291400  0.75226600  1
  Cd  Cd3  1  0.01607700  0.96998500  0.75376700  1
  Tc  Tc0  1  0.00877500  0.50811900  0.98751600  1
  Tc  Tc1  1  0.50576700  0.99286100  0.50554500  1
  Tc  Tc2  1  0.01035800  0.50726200  0.51381900  1
  Tc  Tc3  1  0.50562300  0.99374000  0.99665300  1
  O  O0  1  0.81594100  0.81312000  0.04426300  1
  O  O1  1  0.70715900  0.30766200  0.45074800  1
  O  O2  1  0.21077900  0.20329300  0.55549100  1
  O  O3  1  0.30654500  0.70245400  0.93718200  1
  O  O4  1  0.20721600  0.20192000  0.94868000  1
  O  O5  1  0.30824800  0.70246800  0.55582000  1
  O  O6  1  0.81797100  0.81597300  0.45260700  1
  O  O7  1  0.70990900  0.30546000  0.05089300  1
  O  O8  1  0.40423300  0.97954500  0.25130200  1
  O  O9  1  0.07738900  0.48708700  0.25146800  1
  O  O10  1  0.61481300  0.02923700  0.74907100  1
  O  O11  1  0.89960300  0.52990000  0.74916700  1
loop_
_geom_bond_atom_site_label_1
_geom_bond_atom_site_label_2
_geom_bond_distance
_geom_bond_site_symmetry_2
Li0 O0 1.829148 1_555
Li0 O6 1.833930 1_555
Li0 O9 1.889071 1_655
Li0 O7 2.587214 1_555
Li0 O1 2.588208 1_555
Cd0 O9 2.102885 1_555
Cd0 O7 2.224421 1_555
Cd0 O1 2.246917 1_555
Cd0 Li0 2.366983 1_555
Cd0 O8 2.430540 1_545
Cd1 O8 2.333123 1_645
Cd1 O9 2.357932 1_655
Cd1 O6 2.382620 1_545
Cd1 O0 2.392453 1_545
Cd1 Li0 2.548884 1_545
Cd1 O7 2.568994 1_555
Cd1 O1 2.625215 1_555
Cd1 O4 2.756026 1_654
Cd1 O2 2.835577 1_655
Cd2 O11 2.279296 1_555
Cd2 O3 2.284887 1_555
Cd2 O5 2.333043 1_555
Cd2 O10 2.419482 1_555
Cd2 O2 2.663134 1_555
Cd2 O4 2.672306 1_555
Cd2 O7 2.761836 1_556
Cd2 O1 2.778201 1_555
Cd3 O10 2.264420 1_465
Cd3 O4 2.293559 1_565
Cd3 O2 2.319292 1_565
Cd3 O11 2.533135 1_455
Cd3 O3 2.619456 1_555
Cd3 O5 2.698619 1_555
Cd3 O0 2.715041 1_456
Cd3 O6 2.782936 1_455
O0 Tc3 2.023662 1_554
O0 Tc0 2.039845 1_654
O1 Tc2 2.103000 1_655
O1 Tc1 2.135604 1_545
O2 Tc2 2.031698 1_555
O2 Tc1 2.043834 1_545
O3 Tc3 2.033259 1_555
O3 Tc0 2.038642 1_555
O4 Tc0 2.034608 1_555
O4 Tc3 2.047291 1_545
O5 Tc1 2.005999 1_555
O5 Tc2 2.031127 1_555
O6 Tc1 2.033077 1_555
O6 Tc2 2.060233 1_655
O7 Tc0 2.091344 1_654
O7 Tc3 2.132118 1_544
O8 Tc1 2.102807 1_555
O8 Tc3 2.105797 1_554
O9 Tc2 2.123945 1_555
O9 Tc0 2.137060 1_554
O10 Tc1 2.042920 1_545
O10 Tc3 2.072322 1_545
O11 Tc2 1.976435 1_655
O11 Tc0 1.994656 1_655
