# generated using pymatgen
data_Na5Sm4Si4O16F
_symmetry_space_group_name_H-M   'P 1'
_cell_length_a   8.85475859
_cell_length_b   8.85475859
_cell_length_c   8.85475859
_cell_angle_alpha   95.51382412
_cell_angle_beta   95.51382412
_cell_angle_gamma   143.88427718
_symmetry_Int_Tables_number   1
_chemical_formula_structural   Na5Sm4Si4O16F
_chemical_formula_sum   'Na5 Sm4 Si4 O16 F1'
_cell_volume   389.06054493
_cell_formula_units_Z   1
loop_
 _symmetry_equiv_pos_site_id
 _symmetry_equiv_pos_as_xyz
  1  'x, y, z'
loop_
 _atom_site_type_symbol
 _atom_site_label
 _atom_site_symmetry_multiplicity
 _atom_site_fract_x
 _atom_site_fract_y
 _atom_site_fract_z
 _atom_site_occupancy
  Na  Na0  1  0.58131300  0.09675800  0.69432700  1
  Na  Na1  1  0.40243100  0.88698600  0.30567300  1
  Na  Na2  1  0.11301400  0.41868700  0.51544500  1
  Na  Na3  1  0.90324200  0.59756900  0.48455500  1
  Na  Na4  1  0.00000000  0.00000000  0.00000000  1
  Sm  Sm0  1  0.59655100  0.66380000  0.30044700  1
  Sm  Sm1  1  0.36335300  0.29610400  0.69955300  1
  Sm  Sm2  1  0.70389600  0.40344900  0.06724800  1
  Sm  Sm3  1  0.33620000  0.63664700  0.93275200  1
  Si  Si0  1  0.76217400  0.90687500  0.65021400  1
  Si  Si1  1  0.25666100  0.11196000  0.34978600  1
  Si  Si2  1  0.88804000  0.23782600  0.14470100  1
  Si  Si3  1  0.09312500  0.74333900  0.85529900  1
  O  O0  1  0.59966700  0.87767300  0.50730400  1
  O  O1  1  0.37036900  0.09236400  0.49269600  1
  O  O2  1  0.90763600  0.40033300  0.27800600  1
  O  O3  1  0.12232700  0.62963100  0.72199400  1
  O  O4  1  0.57766900  0.71927300  0.76335900  1
  O  O5  1  0.95591300  0.81430900  0.23664100  1
  O  O6  1  0.18569100  0.42233100  0.14160400  1
  O  O7  1  0.28072700  0.04408700  0.85839600  1
  O  O8  1  0.04809400  0.22067900  0.75694300  1
  O  O9  1  0.46373600  0.29115100  0.24305700  1
  O  O10  1  0.70884900  0.95190600  0.17258500  1
  O  O11  1  0.77932100  0.53626400  0.82741500  1
  O  O12  1  0.85201700  0.82148300  0.56512000  1
  O  O13  1  0.25636300  0.28689800  0.43488000  1
  O  O14  1  0.71310200  0.14798300  0.96946500  1
  O  O15  1  0.17851700  0.74363700  0.03053500  1
  F  F0  1  0.50000000  0.50000000  0.00000000  1
loop_
_geom_bond_atom_site_label_1
_geom_bond_atom_site_label_2
_geom_bond_distance
_geom_bond_site_symmetry_2
Na0 O14 2.426745 1_555
Na0 O1 2.430310 1_555
Na0 O0 2.544800 1_545
Na0 O3 2.629145 1_545
Na0 O11 2.702901 1_555
Na0 O7 2.877503 1_555
Na0 O3 2.881883 1_655
Na1 O15 2.426748 1_555
Na1 O0 2.430304 1_555
Na1 O1 2.544807 1_565
Na1 O2 2.629148 1_455
Na1 O10 2.702901 1_555
Na1 O6 2.877503 1_555
Na1 O2 2.881880 1_565
Na2 O13 2.426748 1_555
Na2 O3 2.430304 1_555
Na2 O2 2.544805 1_455
Na2 O0 2.629145 1_555
Na2 O8 2.702901 1_555
Na2 O4 2.877499 1_555
Na2 O0 2.881883 1_445
Na3 O12 2.426755 1_555
Na3 O2 2.430298 1_555
Na3 O3 2.544800 1_655
Na3 O1 2.629148 1_665
Na3 O9 2.702901 1_555
Na3 O5 2.877496 1_555
Na3 O1 2.881881 1_555
Na4 O6 2.651197 1_555
Na4 O7 2.651197 1_554
Na4 O4 2.651202 1_444
Na4 O5 2.651204 1_445
Na4 O11 2.876032 1_444
Na4 O10 2.876032 1_445
Na4 O9 2.876032 1_555
Na4 O8 2.876032 1_554
O0 Si0 1.650705 1_555
O0 Sm0 2.486260 1_555
O1 Si1 1.650699 1_555
O1 Sm1 2.486254 1_555
O2 Si2 1.650711 1_555
O2 Sm2 2.486260 1_555
O3 Si3 1.650705 1_555
O3 Sm3 2.486266 1_555
O4 Si0 1.637668 1_555
O4 Sm3 2.378347 1_555
O4 Sm1 2.420622 1_555
O5 Si1 1.637673 1_665
O5 Sm2 2.378341 1_555
O5 Sm0 2.420619 1_555
O6 Si2 1.637675 1_455
O6 Sm0 2.378334 1_555
O6 Sm3 2.420615 1_554
O7 Si3 1.637675 1_545
O7 Sm1 2.378334 1_555
O7 Sm2 2.420618 1_556
O8 Si0 1.641178 1_445
O8 Sm3 2.334885 1_555
O8 Sm1 2.413012 1_555
O9 Si1 1.641178 1_555
O9 Sm2 2.334888 1_555
O9 Sm0 2.413012 1_555
O10 Si2 1.641178 1_565
O10 Sm0 2.334881 1_555
O10 Sm3 2.413006 1_554
O11 Si3 1.641178 1_655
O11 Sm1 2.334881 1_555
O11 Sm2 2.413003 1_556
O12 Si0 1.658287 1_555
O12 Sm0 2.410086 1_555
O12 Sm1 2.615160 1_665
O13 Si1 1.658295 1_555
O13 Sm1 2.410089 1_555
O13 Sm0 2.615157 1_555
O14 Si2 1.658298 1_556
O14 Sm2 2.410079 1_556
O14 Sm3 2.615165 1_545
O15 Si3 1.658295 1_554
O15 Sm3 2.410086 1_554
O15 Sm2 2.615154 1_455
F0 Sm3 2.594265 1_554
F0 Sm2 2.594265 1_555
F0 Sm0 2.594267 1_555
F0 Sm1 2.594267 1_554
F0 Na4 2.744774 1_665
F0 Na4 2.744774 1_555
