# generated using pymatgen
data_Li3MnV(PO4)3
_symmetry_space_group_name_H-M   'P 1'
_cell_length_a   8.65611200
_cell_length_b   8.68140063
_cell_length_c   15.13305389
_cell_angle_alpha   89.53113182
_cell_angle_beta   105.30834885
_cell_angle_gamma   118.85786001
_symmetry_Int_Tables_number   1
_chemical_formula_structural   Li3MnV(PO4)3
_chemical_formula_sum   'Li12 Mn4 V4 P12 O48'
_cell_volume   951.03052874
_cell_formula_units_Z   4
loop_
 _symmetry_equiv_pos_site_id
 _symmetry_equiv_pos_as_xyz
  1  'x, y, z'
loop_
 _atom_site_type_symbol
 _atom_site_label
 _atom_site_symmetry_multiplicity
 _atom_site_fract_x
 _atom_site_fract_y
 _atom_site_fract_z
 _atom_site_occupancy
  Li  Li0  1  0.75299300  0.69796000  0.31750900  1
  Li  Li1  1  0.71572400  0.81540300  0.54925100  1
  Li  Li2  1  0.71556100  0.31430200  0.05415900  1
  Li  Li3  1  0.25669600  0.82757300  0.18934600  1
  Li  Li4  1  0.67775300  0.78672100  0.83002200  1
  Li  Li5  1  0.68024000  0.28771800  0.33120100  1
  Li  Li6  1  0.22204800  0.72941400  0.63624900  1
  Li  Li7  1  0.22532600  0.23523700  0.13439500  1
  Li  Li8  1  0.74317700  0.18361900  0.81375600  1
  Li  Li9  1  0.24422200  0.32081900  0.68808900  1
  Li  Li10  1  0.18129400  0.63731100  0.97814100  1
  Li  Li11  1  0.17968200  0.14278400  0.47903700  1
  Mn  Mn0  1  0.86308900  0.71807700  0.07392700  1
  Mn  Mn1  1  0.34827200  0.96588900  0.81804400  1
  Mn  Mn2  1  0.85443500  0.21800100  0.57166800  1
  Mn  Mn3  1  0.13745700  0.27685700  0.92363300  1
  V  V0  1  0.63698300  0.52666400  0.68052300  1
  V  V1  1  0.35728400  0.46858200  0.31967300  1
  V  V2  1  0.13856200  0.78492200  0.42425100  1
  V  V3  1  0.64603700  0.02846600  0.18103400  1
  P  P0  1  0.94305300  0.98849200  0.73207800  1
  P  P1  1  0.95513300  0.48925300  0.23516800  1
  P  P2  1  0.25737900  0.97774700  0.02294300  1
  P  P3  1  0.53800800  0.89793800  0.37459600  1
  P  P4  1  0.46082500  0.59978700  0.12379700  1
  P  P5  1  0.74823300  0.51978900  0.47676900  1
  P  P6  1  0.25096400  0.47908700  0.52407100  1
  P  P7  1  0.53052400  0.39238800  0.87560700  1
  P  P8  1  0.45207400  0.09656300  0.62449600  1
  P  P9  1  0.76391200  0.02342200  0.97863500  1
  P  P10  1  0.04123700  0.51690500  0.76597300  1
  P  P11  1  0.04615700  0.01593400  0.26491900  1
  O  O0  1  0.84493500  0.97686600  0.24115900  1
  O  O1  1  0.91650200  0.54112600  0.13533300  1
  O  O2  1  0.93972400  0.60162700  0.30806500  1
  O  O3  1  0.67717400  0.98386700  0.47019300  1
  O  O4  1  0.91001200  0.70071600  0.46834200  1
  O  O5  1  0.65709300  0.65044100  0.12372200  1
  O  O6  1  0.45113300  0.76799400  0.14887500  1
  O  O7  1  0.54868700  0.73036600  0.34886900  1
  O  O8  1  0.78604500  0.79374100  0.72455900  1
  O  O9  1  0.79640400  0.29588800  0.22761600  1
  O  O10  1  0.10226500  0.79394900  0.03808000  1
  O  O11  1  0.33782900  0.84314600  0.36965700  1
  O  O12  1  0.06793100  0.90341400  0.19623400  1
  O  O13  1  0.29436700  0.99130400  0.53439500  1
  O  O14  1  0.81486300  0.87446600  0.99425500  1
  O  O15  1  0.68659000  0.56360100  0.55508800  1
  O  O16  1  0.30628000  0.50062800  0.03284900  1
  O  O17  1  0.41753000  0.97225100  0.70140900  1
  O  O18  1  0.61768800  0.95780800  0.88239100  1
  O  O19  1  0.80289600  0.37313200  0.49143600  1
  O  O20  1  0.70204600  0.06960500  0.05637300  1
  O  O21  1  0.08849700  0.97293200  0.36614500  1
  O  O22  1  0.42206500  0.47401500  0.19946600  1
  O  O23  1  0.59567600  0.44636500  0.38077100  1
  O  O24  1  0.84152700  0.48274800  0.73956400  1
  O  O25  1  0.14815300  0.51228000  0.25872200  1
  O  O26  1  0.41078600  0.55509400  0.61647800  1
  O  O27  1  0.42093300  0.05610400  0.11368000  1
  O  O28  1  0.90520200  0.04139800  0.63208800  1
  O  O29  1  0.58056100  0.52444700  0.80371500  1
  O  O30  1  0.30456200  0.92470500  0.94059800  1
  O  O31  1  0.18935900  0.61949400  0.50878000  1
  O  O32  1  0.58327700  0.02913000  0.30189800  1
  O  O33  1  0.30492300  0.43208000  0.44313000  1
  O  O34  1  0.19859600  0.11999600  0.00824800  1
  O  O35  1  0.92428100  0.09938300  0.80365500  1
  O  O36  1  0.66916900  0.47410800  0.97157900  1
  O  O37  1  0.93385700  0.20778600  0.97616200  1
  O  O38  1  0.64653400  0.14838100  0.62225200  1
  O  O39  1  0.18564800  0.71333100  0.76371200  1
  O  O40  1  0.18548200  0.21104900  0.26199700  1
  O  O41  1  0.43884300  0.26312200  0.64716500  1
  O  O42  1  0.53618200  0.22143400  0.84860800  1
  O  O43  1  0.09481500  0.29374300  0.53663700  1
  O  O44  1  0.32961200  0.34375500  0.86751200  1
  O  O45  1  0.06206000  0.40834800  0.69421300  1
  O  O46  1  0.07891200  0.46831200  0.86531300  1
  O  O47  1  0.13599100  0.01390000  0.75504800  1
loop_
_geom_bond_atom_site_label_1
_geom_bond_atom_site_label_2
_geom_bond_distance
_geom_bond_site_symmetry_2
Li0 O7 2.087473 1_555
Li0 O2 2.182025 1_555
Li0 O23 2.307530 1_555
Li0 O4 2.321503 1_555
Li0 O0 2.531934 1_555
Li1 O3 1.978195 1_555
Li1 O28 1.989784 1_565
Li1 O15 2.080009 1_555
Li2 O36 1.972842 1_554
Li2 O1 2.004289 1_555
Li2 O20 2.070876 1_555
Li3 O12 2.060034 1_555
Li3 O6 2.205701 1_555
Li3 O10 2.265110 1_555
Li3 O27 2.316936 1_565
Li4 O29 2.009853 1_555
Li4 O18 2.021556 1_555
Li4 O8 2.040287 1_555
Li4 O14 2.401370 1_555
Li5 O32 1.985371 1_555
Li5 O9 2.057907 1_555
Li5 O23 2.067713 1_555
Li5 O19 2.338170 1_555
Li6 O17 1.997384 1_555
Li6 O39 2.028173 1_555
Li6 O31 2.047675 1_555
Li7 O22 1.976667 1_555
Li7 O40 2.041312 1_555
Li7 O34 2.067188 1_555
Li8 O35 2.061711 1_555
Li8 O18 2.146780 1_545
Li8 O42 2.160094 1_555
Li8 O37 2.518097 1_555
Li9 O45 2.075387 1_555
Li9 O41 2.200687 1_555
Li9 O43 2.265177 1_555
Li9 O26 2.312585 1_555
Li10 O46 1.959635 1_555
Li10 O16 2.003520 1_556
Li10 O10 2.094196 1_556
Li10 O30 2.326671 1_555
Li11 O21 1.980327 1_545
Li11 O13 2.054188 1_545
Li11 O43 2.074390 1_555
Li11 O33 2.332099 1_555
Mn0 O14 1.930218 1_554
Mn0 O5 1.945186 1_555
Mn0 O1 1.967870 1_555
Mn0 O10 2.070089 1_655
Mn0 O12 2.172680 1_655
Mn0 O36 2.225209 1_554
Mn1 O39 1.975858 1_555
Mn1 O42 1.979310 1_565
Mn1 O30 1.984862 1_555
Mn1 O17 2.000753 1_555
Mn1 O47 2.065641 1_565
Mn1 O18 2.312901 1_555
Mn2 O19 1.937559 1_555
Mn2 O28 1.948064 1_555
Mn2 O38 1.964637 1_555
Mn2 O43 2.073404 1_655
Mn2 O3 2.154161 1_545
Mn2 O45 2.196208 1_655
Mn3 O44 1.905404 1_555
Mn3 O37 1.951748 1_455
Mn3 O34 2.020753 1_556
Mn3 O46 2.085949 1_555
Mn3 O35 2.146571 1_455
Mn3 O16 2.162863 1_556
O0 P11 1.542479 1_665
O0 V3 1.975694 1_565
O1 P1 1.569911 1_555
O2 P1 1.551572 1_555
O2 V2 2.095253 1_655
O3 P3 1.526608 1_555
O4 P5 1.553139 1_555
O4 V2 2.046093 1_655
O5 P4 1.536085 1_555
O6 P4 1.558075 1_555
O6 V3 2.024458 1_565
O7 P3 1.560297 1_555
O7 V1 2.024962 1_555
O8 P0 1.556283 1_555
O8 V0 2.041649 1_555
O9 P1 1.553282 1_555
O9 V3 2.050936 1_555
O10 P2 1.577873 1_555
O11 P3 1.539784 1_555
O11 V2 1.953791 1_555
O12 P11 1.538793 1_565
O13 P8 1.546335 1_565
O13 V2 2.082477 1_555
O14 P9 1.553412 1_565
O15 P5 1.539905 1_555
O15 V0 2.044004 1_555
O16 P4 1.536388 1_555
O17 P8 1.568610 1_565
O18 P9 1.546624 1_565
O19 P5 1.554219 1_555
O20 P9 1.542433 1_554
O20 V3 2.055789 1_555
O21 P11 1.564142 1_565
O21 V2 2.020676 1_555
O22 P4 1.563589 1_555
O22 V1 2.034078 1_555
O23 P5 1.565337 1_555
O23 V1 2.127000 1_555
O24 P10 1.542211 1_655
O24 V0 1.972110 1_555
O25 P1 1.524103 1_455
O25 V1 2.011774 1_555
O26 P6 1.554748 1_555
O26 V0 2.072319 1_555
O27 P2 1.552975 1_545
O27 V3 2.071671 1_555
O28 P0 1.574815 1_545
O29 P7 1.560343 1_555
O29 V0 2.045853 1_555
O30 P2 1.546402 1_556
O31 P6 1.543167 1_555
O31 V2 2.043197 1_555
O32 P3 1.561202 1_545
O32 V3 2.041671 1_555
O33 P6 1.542497 1_555
O33 V1 2.023640 1_555
O34 P2 1.541330 1_545
O35 P0 1.545138 1_545
O36 P7 1.525643 1_555
O37 P9 1.575595 1_555
O38 P8 1.528370 1_555
O39 P10 1.560663 1_555
O40 P11 1.542938 1_555
O40 V1 2.027090 1_555
O41 P8 1.552526 1_555
O41 V0 2.050600 1_555
O42 P7 1.569267 1_555
O43 P6 1.575913 1_555
O44 P7 1.548347 1_555
O45 P10 1.544026 1_555
O46 P10 1.551717 1_555
O47 P0 1.515856 1_445
