# generated using pymatgen
data_NaYbSiO4
_symmetry_space_group_name_H-M   'P 1'
_cell_length_a   5.24132500
_cell_length_b   6.52837000
_cell_length_c   11.38799300
_cell_angle_alpha   90.00000000
_cell_angle_beta   90.00000000
_cell_angle_gamma   90.00000000
_symmetry_Int_Tables_number   1
_chemical_formula_structural   NaYbSiO4
_chemical_formula_sum   'Na4 Yb4 Si4 O16'
_cell_volume   389.66647412
_cell_formula_units_Z   4
loop_
 _symmetry_equiv_pos_site_id
 _symmetry_equiv_pos_as_xyz
  1  'x, y, z'
loop_
 _atom_site_type_symbol
 _atom_site_label
 _atom_site_symmetry_multiplicity
 _atom_site_fract_x
 _atom_site_fract_y
 _atom_site_fract_z
 _atom_site_occupancy
  Na  Na0  1  0.00000000  0.50000000  0.00000000  1
  Na  Na1  1  0.50000000  0.00000000  0.50000000  1
  Na  Na2  1  0.00000000  0.00000000  0.00000000  1
  Na  Na3  1  0.50000000  0.50000000  0.50000000  1
  Yb  Yb0  1  0.49823800  0.75000000  0.22139600  1
  Yb  Yb1  1  0.00176200  0.75000000  0.72139600  1
  Yb  Yb2  1  0.50176200  0.25000000  0.77860400  1
  Yb  Yb3  1  0.99823800  0.25000000  0.27860400  1
  Si  Si0  1  0.93956800  0.75000000  0.39719600  1
  Si  Si1  1  0.56043200  0.75000000  0.89719600  1
  Si  Si2  1  0.06043200  0.25000000  0.60280400  1
  Si  Si3  1  0.43956800  0.25000000  0.10280400  1
  O  O0  1  0.80261700  0.55252200  0.33149000  1
  O  O1  1  0.69738300  0.94747800  0.83149000  1
  O  O2  1  0.19738300  0.05252200  0.66851000  1
  O  O3  1  0.30261700  0.44747800  0.16851000  1
  O  O4  1  0.19738300  0.44747800  0.66851000  1
  O  O5  1  0.30261700  0.05252200  0.16851000  1
  O  O6  1  0.80261700  0.94747800  0.33149000  1
  O  O7  1  0.69738300  0.55252200  0.83149000  1
  O  O8  1  0.66834800  0.75000000  0.03314300  1
  O  O9  1  0.83165200  0.75000000  0.53314300  1
  O  O10  1  0.33165200  0.25000000  0.96685700  1
  O  O11  1  0.16834800  0.25000000  0.46685700  1
  O  O12  1  0.24906000  0.75000000  0.38913300  1
  O  O13  1  0.25094000  0.75000000  0.88913300  1
  O  O14  1  0.75094000  0.25000000  0.61086700  1
  O  O15  1  0.74906000  0.25000000  0.11086700  1
loop_
_geom_bond_atom_site_label_1
_geom_bond_atom_site_label_2
_geom_bond_distance
_geom_bond_site_symmetry_2
Na0 O8 2.414095 1_455
Na0 O10 2.414095 1_554
Na0 O13 2.446971 1_554
Na0 O15 2.446971 1_455
Na0 O3 2.513136 1_555
Na0 O7 2.513136 1_454
Na1 O11 2.414095 1_555
Na1 O9 2.414095 1_545
Na1 O12 2.446971 1_545
Na1 O14 2.446971 1_555
Na1 O6 2.513136 1_545
Na1 O2 2.513136 1_555
Na2 O8 2.414095 1_445
Na2 O10 2.414095 1_554
Na2 O15 2.446971 1_455
Na2 O13 2.446971 1_544
Na2 O1 2.513136 1_444
Na2 O5 2.513136 1_555
Na3 O11 2.414095 1_555
Na3 O9 2.414095 1_555
Na3 O12 2.446971 1_555
Na3 O14 2.446971 1_555
Na3 O0 2.513136 1_555
Na3 O4 2.513136 1_555
O0 Si0 1.654448 1_555
O0 Yb3 2.305324 1_555
O0 Yb0 2.403974 1_555
O1 Si1 1.654448 1_555
O1 Yb2 2.305324 1_565
O1 Yb1 2.403974 1_655
O2 Si2 1.654448 1_555
O2 Yb1 2.305324 1_545
O2 Yb2 2.403974 1_555
O3 Si3 1.654448 1_555
O3 Yb0 2.305324 1_555
O3 Yb3 2.403974 1_455
O4 Si2 1.654448 1_555
O4 Yb1 2.305324 1_555
O4 Yb2 2.403974 1_555
O5 Si3 1.654448 1_555
O5 Yb0 2.305324 1_545
O5 Yb3 2.403974 1_455
O6 Si0 1.654448 1_555
O6 Yb3 2.305324 1_565
O6 Yb0 2.403974 1_555
O7 Si1 1.654448 1_555
O7 Yb2 2.305324 1_555
O7 Yb1 2.403974 1_655
O8 Si1 1.648253 1_554
O8 Yb0 2.321839 1_555
O9 Si0 1.648253 1_555
O9 Yb1 2.321839 1_655
O10 Si3 1.648253 1_556
O10 Yb2 2.321839 1_555
O11 Si2 1.648253 1_555
O11 Yb3 2.321839 1_455
O12 Si0 1.624745 1_455
O12 Yb0 2.313982 1_555
O13 Si1 1.624745 1_555
O13 Yb1 2.313982 1_555
O14 Si2 1.624745 1_655
O14 Yb2 2.313982 1_555
O15 Si3 1.624745 1_555
O15 Yb3 2.313982 1_555
