# generated using pymatgen
data_Ti3V2Si3
_symmetry_space_group_name_H-M   'P 1'
_cell_length_a   7.31229005
_cell_length_b   7.31229005
_cell_length_c   4.92322050
_cell_angle_alpha   90.00000000
_cell_angle_beta   90.00000000
_cell_angle_gamma   119.99999520
_symmetry_Int_Tables_number   1
_chemical_formula_structural   Ti3V2Si3
_chemical_formula_sum   'Ti6 V4 Si6'
_cell_volume   227.97475603
_cell_formula_units_Z   2
loop_
 _symmetry_equiv_pos_site_id
 _symmetry_equiv_pos_as_xyz
  1  'x, y, z'
loop_
 _atom_site_type_symbol
 _atom_site_label
 _atom_site_symmetry_multiplicity
 _atom_site_fract_x
 _atom_site_fract_y
 _atom_site_fract_z
 _atom_site_occupancy
  Ti  Ti0  1  0.75397103  0.75397103  0.75000000  1
  Ti  Ti1  1  0.24602897  0.00000000  0.75000000  1
  Ti  Ti2  1  0.00000000  0.24602897  0.75000000  1
  Ti  Ti3  1  0.24602897  0.24602897  0.25000000  1
  Ti  Ti4  1  0.75397103  -0.00000000  0.25000000  1
  Ti  Ti5  1  -0.00000000  0.75397103  0.25000000  1
  V  V0  1  0.66666700  0.33333300  0.00000000  1
  V  V1  1  0.33333300  0.66666700  -0.00000000  1
  V  V2  1  0.33333300  0.66666700  0.50000000  1
  V  V3  1  0.66666700  0.33333300  0.50000000  1
  Si  Si0  1  0.39926250  0.39926250  0.75000000  1
  Si  Si1  1  0.60073750  -0.00000000  0.75000000  1
  Si  Si2  1  -0.00000000  0.60073750  0.75000000  1
  Si  Si3  1  0.60073750  0.60073750  0.25000000  1
  Si  Si4  1  0.39926250  0.00000000  0.25000000  1
  Si  Si5  1  0.00000000  0.39926250  0.25000000  1
loop_
_geom_bond_atom_site_label_1
_geom_bond_atom_site_label_2
_geom_bond_distance
_geom_bond_site_symmetry_2
V0 V3 2.461610 1_554
V0 V3 2.461610 1_555
V1 V2 2.461610 1_555
V1 V2 2.461610 1_554
Si0 Ti2 2.551043 1_555
Si0 Ti1 2.551043 1_555
Si0 V1 2.552119 1_556
Si0 V3 2.552119 1_555
Si0 V0 2.552119 1_556
Si0 V2 2.552119 1_555
Si0 Ti0 2.593732 1_555
Si0 Ti3 2.704629 1_556
Si0 Ti3 2.704629 1_555
Si1 Ti0 2.551043 1_545
Si1 Ti2 2.551043 1_655
Si1 V0 2.552112 1_556
Si1 V3 2.552112 1_555
Si1 V1 2.552115 1_546
Si1 V2 2.552115 1_545
Si1 Ti1 2.593732 1_555
Si1 Ti4 2.704629 1_556
Si1 Ti4 2.704629 1_555
Si2 Ti0 2.551043 1_455
Si2 Ti1 2.551043 1_565
Si2 V1 2.552112 1_556
Si2 V2 2.552112 1_555
Si2 V3 2.552115 1_455
Si2 V0 2.552115 1_456
Si2 Ti2 2.593732 1_555
Si2 Ti5 2.704629 1_555
Si2 Ti5 2.704629 1_556
Si3 Ti4 2.551043 1_565
Si3 Ti5 2.551043 1_655
Si3 V2 2.552119 1_555
Si3 V1 2.552119 1_555
Si3 V0 2.552119 1_555
Si3 V3 2.552119 1_555
Si3 Ti3 2.593732 1_555
Si3 Ti0 2.704629 1_555
Si3 Ti0 2.704629 1_554
Si4 Ti3 2.551043 1_555
Si4 Ti5 2.551043 1_545
Si4 V2 2.552112 1_545
Si4 V1 2.552112 1_545
Si4 V0 2.552115 1_555
Si4 V3 2.552115 1_555
Si4 Ti4 2.593732 1_555
Si4 Ti1 2.704629 1_555
Si4 Ti1 2.704629 1_554
Si5 Ti3 2.551043 1_555
Si5 Ti4 2.551043 1_455
Si5 V3 2.552112 1_455
Si5 V0 2.552112 1_455
Si5 V2 2.552115 1_555
Si5 V1 2.552115 1_555
Si5 Ti5 2.593732 1_555
Si5 Ti2 2.704629 1_554
Si5 Ti2 2.704629 1_555
