# generated using pymatgen
data_Pd(C4N3)2
_symmetry_space_group_name_H-M   'P 1'
_cell_length_a   13.59913843
_cell_length_b   17.23019310
_cell_length_c   4.68291287
_cell_angle_alpha   90.82743444
_cell_angle_beta   89.47583070
_cell_angle_gamma   129.30904784
_symmetry_Int_Tables_number   1
_chemical_formula_structural   Pd(C4N3)2
_chemical_formula_sum   'Pd3 C24 N18'
_cell_volume   848.92139274
_cell_formula_units_Z   3
loop_
 _symmetry_equiv_pos_site_id
 _symmetry_equiv_pos_as_xyz
  1  'x, y, z'
loop_
 _atom_site_type_symbol
 _atom_site_label
 _atom_site_symmetry_multiplicity
 _atom_site_fract_x
 _atom_site_fract_y
 _atom_site_fract_z
 _atom_site_occupancy
  Pd  Pd0  1  0.00000000  0.99091000  0.12708000  1
  Pd  Pd1  1  0.33715500  0.67290800  0.90467300  1
  Pd  Pd2  1  0.66284500  0.33575100  0.90467300  1
  C  C0  1  0.00000000  0.64427100  0.21041200  1
  C  C1  1  0.67263900  0.98420100  0.19642000  1
  C  C2  1  0.32736100  0.31156100  0.19642000  1
  C  C3  1  0.00000000  0.71958400  0.33476400  1
  C  C4  1  0.78011600  0.99260800  0.23519400  1
  C  C5  1  0.21988400  0.21249200  0.23519400  1
  C  C6  1  0.11183800  0.66076200  0.14136200  1
  C  C7  1  0.56060500  0.88838200  0.12834900  1
  C  C8  1  0.32425700  0.39213300  0.21215300  1
  C  C9  1  0.88816200  0.54892300  0.14136200  1
  C  C10  1  0.67574300  0.06787600  0.21215300  1
  C  C11  1  0.43939500  0.32777700  0.12834900  1
  C  C12  1  0.66979500  0.68771500  0.76233400  1
  C  C13  1  0.00000000  0.35499400  0.75599200  1
  C  C14  1  0.33020500  0.01792000  0.76233400  1
  C  C15  1  0.77881100  0.77860900  0.87068200  1
  C  C16  1  0.00000000  0.27296300  0.77429000  1
  C  C17  1  0.22118900  0.99979800  0.87068200  1
  C  C18  1  0.56135700  0.67925600  0.74967800  1
  C  C19  1  0.11267800  0.45373100  0.75349800  1
  C  C20  1  0.33156600  0.93943900  0.67712200  1
  C  C21  1  0.43864300  0.11790000  0.74967800  1
  C  C22  1  0.66843400  0.60787100  0.67712200  1
  C  C23  1  0.88732200  0.34105300  0.75349800  1
  N  N0  1  0.00000000  0.78183300  0.43833300  1
  N  N1  1  0.86447800  0.99213100  0.28223200  1
  N  N2  1  0.13552200  0.12765200  0.28223200  1
  N  N3  1  0.20016400  0.66685600  0.08205600  1
  N  N4  1  0.47020400  0.80649500  0.07474600  1
  N  N5  1  0.32293600  0.45937700  0.22392100  1
  N  N6  1  0.79983600  0.46669200  0.08205600  1
  N  N7  1  0.67706400  0.13644000  0.22392100  1
  N  N8  1  0.52979600  0.33629100  0.07474600  1
  N  N9  1  0.86437700  0.85566900  0.96879300  1
  N  N10  1  0.00000000  0.20524200  0.79100700  1
  N  N11  1  0.13562300  0.99129100  0.96879300  1
  N  N12  1  0.47585000  0.67985500  0.72831000  1
  N  N13  1  0.20397600  0.53804800  0.73867700  1
  N  N14  1  0.33409000  0.87537600  0.60513900  1
  N  N15  1  0.52415000  0.20400500  0.72831000  1
  N  N16  1  0.66591000  0.54128600  0.60513900  1
  N  N17  1  0.79602400  0.33407300  0.73867700  1
loop_
_geom_bond_atom_site_label_1
_geom_bond_atom_site_label_2
_geom_bond_distance
_geom_bond_site_symmetry_2
C0 C6 1.394471 1_555
C0 C9 1.394479 1_455
C0 C3 1.414637 1_555
C1 C4 1.387825 1_555
C1 C7 1.398317 1_555
C1 C10 1.416226 1_565
C2 C5 1.387816 1_555
C2 C8 1.416243 1_555
C3 N0 1.170724 1_555
C4 N1 1.175328 1_555
C5 N2 1.175339 1_555
C6 N3 1.168707 1_555
C7 N4 1.167395 1_555
C8 N5 1.170592 1_555
C9 N6 1.168698 1_555
C10 N7 1.170575 1_555
C11 N8 1.167395 1_555
C11 C2 1.398309 1_555
C12 C18 1.388674 1_555
C12 C15 1.398969 1_555
C12 C22 1.415705 1_555
C13 C23 1.392748 1_455
C13 C19 1.392748 1_555
C13 C16 1.417240 1_555
C14 C21 1.388684 1_555
C14 C17 1.398969 1_545
C14 C20 1.415672 1_545
C15 N9 1.167338 1_555
C16 N10 1.170596 1_555
C17 N11 1.167329 1_555
C18 N12 1.174580 1_555
C19 N13 1.171713 1_555
C20 N14 1.170584 1_555
C21 N15 1.174569 1_555
C22 N16 1.170551 1_555
C23 N17 1.171723 1_555
N1 Pd0 1.987235 1_655
N2 Pd0 1.987225 1_545
N3 Pd1 1.974730 1_554
N4 Pd1 1.975556 1_554
N6 Pd2 1.974748 1_554
N8 Pd2 1.975576 1_554
N9 Pd0 1.977595 1_656
N11 Pd0 1.977605 1_556
N12 Pd1 1.985504 1_555
N13 Pd1 1.981240 1_555
N15 Pd2 1.985486 1_555
N17 Pd2 1.981210 1_555
