# generated using pymatgen
data_Er4Co3
_symmetry_space_group_name_H-M   'P 1'
_cell_length_a   11.06245209
_cell_length_b   11.06494168
_cell_length_c   4.02263477
_cell_angle_alpha   89.99899819
_cell_angle_beta   89.99823712
_cell_angle_gamma   120.01061701
_symmetry_Int_Tables_number   1
_chemical_formula_structural   Er4Co3
_chemical_formula_sum   'Er12 Co9'
_cell_volume   426.37849668
_cell_formula_units_Z   3
loop_
 _symmetry_equiv_pos_site_id
 _symmetry_equiv_pos_as_xyz
  1  'x, y, z'
loop_
 _atom_site_type_symbol
 _atom_site_label
 _atom_site_symmetry_multiplicity
 _atom_site_fract_x
 _atom_site_fract_y
 _atom_site_fract_z
 _atom_site_occupancy
  Er  Er0  1  0.51407104  0.13384307  0.74962251  1
  Er  Er1  1  0.86621833  0.38024216  0.74962902  1
  Er  Er2  1  0.61981037  0.48590647  0.74962444  1
  Er  Er3  1  0.48592896  0.86615693  0.25037749  1
  Er  Er4  1  0.13378167  0.61975784  0.25037098  1
  Er  Er5  1  0.38018963  0.51409353  0.25037556  1
  Er  Er6  1  0.97298341  0.75143189  0.75039270  1
  Er  Er7  1  0.24850659  0.22141989  0.75043059  1
  Er  Er8  1  0.77850839  0.02707635  0.75041022  1
  Er  Er9  1  0.02701659  0.24856811  0.24960730  1
  Er  Er10  1  0.75149341  0.77858011  0.24956941  1
  Er  Er11  1  0.22149161  0.97292365  0.24958978  1
  Co  Co0  1  0.33326136  0.66667043  0.74950032  1
  Co  Co1  1  0.66673864  0.33332957  0.25049968  1
  Co  Co2  1  0.15702735  0.44118327  0.74899189  1
  Co  Co3  1  0.55879317  0.71610574  0.74899456  1
  Co  Co4  1  0.28392533  0.84279753  0.74897611  1
  Co  Co5  1  0.84297265  0.55881673  0.25100811  1
  Co  Co6  1  0.44120683  0.28389426  0.25100544  1
  Co  Co7  1  0.71607467  0.15720247  0.25102389  1
  Co  Co8  1  0.00000000  0.00000000  0.50000000  1
loop_
_geom_bond_atom_site_label_1
_geom_bond_atom_site_label_2
_geom_bond_distance
_geom_bond_site_symmetry_2
Co0 Co3 2.271288 1_555
Co0 Co4 2.271522 1_555
Co0 Co2 2.271593 1_555
Co0 Er4 2.832827 1_555
Co0 Er3 2.833072 1_555
Co0 Er5 2.833326 1_555
Co0 Er4 2.837686 1_556
Co0 Er3 2.838206 1_556
Co0 Er5 2.838301 1_556
Co1 Co6 2.271288 1_555
Co1 Co7 2.271522 1_555
Co1 Co5 2.271593 1_555
Co1 Er1 2.832827 1_555
Co1 Er0 2.833072 1_555
Co1 Er2 2.833326 1_555
Co1 Er1 2.837686 1_554
Co1 Er0 2.838206 1_554
Co1 Er2 2.838301 1_554
Co2 Er9 2.753247 1_555
Co2 Er9 2.756743 1_556
Co2 Er4 2.915761 1_555
Co2 Er4 2.923441 1_556
Co2 Er1 2.938399 1_455
Co2 Er5 2.962403 1_555
Co2 Er5 2.970074 1_556
Co2 Er7 3.065740 1_555
Co3 Er10 2.753882 1_555
Co3 Er10 2.757371 1_556
Co3 Er5 2.916468 1_555
Co3 Er5 2.923982 1_556
Co3 Er2 2.943371 1_555
Co3 Er3 2.961100 1_555
Co3 Er3 2.968654 1_556
Co3 Er8 3.062902 1_565
Co4 Er11 2.753250 1_555
Co4 Er11 2.756861 1_556
Co4 Er3 2.916363 1_555
Co4 Er3 2.924229 1_556
Co4 Er0 2.941308 1_565
Co4 Er4 2.961794 1_555
Co4 Er4 2.969277 1_556
Co4 Er6 3.061955 1_455
Co5 Er6 2.753247 1_555
Co5 Er6 2.756743 1_554
Co5 Er1 2.915761 1_555
Co5 Er1 2.923441 1_554
Co5 Er4 2.938399 1_655
Co5 Er2 2.962403 1_555
Co5 Er2 2.970074 1_554
Co5 Er10 3.065740 1_555
Co6 Er7 2.753882 1_555
Co6 Er7 2.757371 1_554
Co6 Er2 2.916468 1_555
Co6 Er2 2.923982 1_554
Co6 Er5 2.943371 1_555
Co6 Er0 2.961100 1_555
Co6 Er0 2.968654 1_554
Co6 Er11 3.062902 1_545
Co7 Er8 2.753250 1_555
Co7 Er8 2.756861 1_554
Co7 Er0 2.916363 1_555
Co7 Er0 2.924229 1_554
Co7 Er3 2.941308 1_545
Co7 Er1 2.961794 1_555
Co7 Er1 2.969277 1_554
Co7 Er9 3.061955 1_655
Co8 Er10 2.799582 1_445
Co8 Er7 2.799582 1_555
Co8 Er8 2.800409 1_455
Co8 Er11 2.800409 1_545
Co8 Er6 2.801092 1_445
Co8 Er9 2.801092 1_555
