# generated using pymatgen
data_La6Al4Fe9As
_symmetry_space_group_name_H-M   'P 1'
_cell_length_a   8.16245800
_cell_length_b   8.16245800
_cell_length_c   13.22960442
_cell_angle_alpha   107.96838341
_cell_angle_beta   107.96838341
_cell_angle_gamma   90.00000000
_symmetry_Int_Tables_number   1
_chemical_formula_structural   La6Al4Fe9As
_chemical_formula_sum   'La12 Al8 Fe18 As2'
_cell_volume   793.12477055
_cell_formula_units_Z   2
loop_
 _symmetry_equiv_pos_site_id
 _symmetry_equiv_pos_as_xyz
  1  'x, y, z'
loop_
 _atom_site_type_symbol
 _atom_site_label
 _atom_site_symmetry_multiplicity
 _atom_site_fract_x
 _atom_site_fract_y
 _atom_site_fract_z
 _atom_site_occupancy
  La  La0  1  0.10537500  0.10537500  0.21074900  1
  La  La1  1  0.89462500  0.89462500  0.78925100  1
  La  La2  1  0.39462500  0.39462500  0.78925100  1
  La  La3  1  0.60537500  0.60537500  0.21074900  1
  La  La4  1  0.35594900  0.85594900  0.37831100  1
  La  La5  1  0.64405100  0.14405100  0.62168900  1
  La  La6  1  0.02236100  0.52236100  0.37831100  1
  La  La7  1  0.52236100  0.35594900  0.37831100  1
  La  La8  1  0.14405100  0.97763900  0.62168900  1
  La  La9  1  0.97763900  0.47763900  0.62168900  1
  La  La10  1  0.47763900  0.64405100  0.62168900  1
  La  La11  1  0.85594900  0.02236100  0.37831100  1
  Al  Al0  1  0.70960000  0.20960000  0.18253200  1
  Al  Al1  1  0.29040000  0.79040000  0.81746800  1
  Al  Al2  1  0.47293200  0.97293200  0.18253200  1
  Al  Al3  1  0.97293200  0.70960000  0.18253200  1
  Al  Al4  1  0.79040000  0.52706800  0.81746800  1
  Al  Al5  1  0.52706800  0.02706800  0.81746800  1
  Al  Al6  1  0.02706800  0.29040000  0.81746800  1
  Al  Al7  1  0.20960000  0.47293200  0.18253200  1
  Fe  Fe0  1  0.06735800  0.21096600  0.00000000  1
  Fe  Fe1  1  0.93264200  0.78903400  0.00000000  1
  Fe  Fe2  1  0.78903400  0.06735800  0.00000000  1
  Fe  Fe3  1  0.43264200  0.71096600  0.00000000  1
  Fe  Fe4  1  0.21096600  0.93264200  0.00000000  1
  Fe  Fe5  1  0.56735800  0.28903400  0.00000000  1
  Fe  Fe6  1  0.71096600  0.56735800  0.00000000  1
  Fe  Fe7  1  0.28903400  0.43264200  0.00000000  1
  Fe  Fe8  1  0.00000000  0.50000000  0.00000000  1
  Fe  Fe9  1  0.50000000  0.00000000  0.00000000  1
  Fe  Fe10  1  0.23178400  0.73178400  0.11137400  1
  Fe  Fe11  1  0.76821600  0.26821600  0.88862600  1
  Fe  Fe12  1  0.87959100  0.37959100  0.11137400  1
  Fe  Fe13  1  0.37959100  0.23178400  0.11137400  1
  Fe  Fe14  1  0.26821600  0.12040900  0.88862600  1
  Fe  Fe15  1  0.12040900  0.62040900  0.88862600  1
  Fe  Fe16  1  0.62040900  0.76821600  0.88862600  1
  Fe  Fe17  1  0.73178400  0.87959100  0.11137400  1
  As  As0  1  0.25000000  0.25000000  0.50000000  1
  As  As1  1  0.75000000  0.75000000  0.50000000  1
loop_
_geom_bond_atom_site_label_1
_geom_bond_atom_site_label_2
_geom_bond_distance
_geom_bond_site_symmetry_2
Al0 Fe12 2.519646 1_555
Al0 Fe9 2.566589 1_555
Al0 Fe17 2.591440 1_545
Al0 Fe13 2.591440 1_555
Al0 Fe5 2.614569 1_555
Al0 Fe2 2.614569 1_555
Al0 Al2 2.731967 1_545
Al0 La3 3.278887 1_555
Al0 La0 3.278887 1_655
Al0 La7 3.317327 1_555
Al0 La11 3.317327 1_555
Al0 La6 3.403503 1_655
Al1 Fe15 2.519646 1_555
Al1 Fe9 2.566589 1_566
Al1 Fe14 2.591440 1_565
Al1 Fe16 2.591440 1_555
Al1 Fe3 2.614569 1_556
Al1 Fe4 2.614569 1_556
Al1 Al5 2.731967 1_565
Al1 La1 3.278887 1_455
Al1 La2 3.278887 1_555
Al1 La8 3.317327 1_555
Al1 La10 3.317327 1_555
Al1 La9 3.403503 1_455
Al2 Fe10 2.519635 1_555
Al2 Fe9 2.566589 1_565
Al2 Fe17 2.591446 1_555
Al2 Fe13 2.591446 1_565
Al2 Fe3 2.614569 1_555
Al2 Fe4 2.614569 1_555
Al2 La0 3.278882 1_565
Al2 La3 3.278882 1_555
Al2 La7 3.317322 1_565
Al2 La11 3.317322 1_565
Al2 La4 3.403511 1_555
Al3 Fe17 2.519641 1_555
Al3 Fe8 2.566589 1_655
Al3 Fe12 2.591438 1_555
Al3 Fe10 2.591447 1_655
Al3 Fe6 2.614569 1_555
Al3 Fe1 2.614569 1_555
Al3 Al7 2.731967 1_655
Al3 La3 3.278879 1_555
Al3 La0 3.278889 1_665
Al3 La4 3.317321 1_655
Al3 La6 3.317328 1_655
Al3 La11 3.403507 1_565
Al4 Fe16 2.519641 1_555
Al4 Fe8 2.566589 1_656
Al4 Fe15 2.591438 1_655
Al4 Fe11 2.591447 1_555
Al4 Fe6 2.614569 1_556
Al4 Fe1 2.614569 1_556
Al4 Al6 2.731967 1_655
Al4 La1 3.278879 1_555
Al4 La2 3.278889 1_555
Al4 La5 3.317321 1_555
Al4 La9 3.317328 1_555
Al4 La10 3.403507 1_555
Al5 Fe11 2.519635 1_555
Al5 Fe9 2.566589 1_556
Al5 Fe14 2.591446 1_555
Al5 Fe16 2.591446 1_545
Al5 Fe5 2.614569 1_556
Al5 Fe2 2.614569 1_556
Al5 La2 3.278882 1_555
Al5 La1 3.278882 1_545
Al5 La8 3.317322 1_545
Al5 La10 3.317322 1_545
Al5 La5 3.403511 1_555
Al6 Fe14 2.519641 1_555
Al6 Fe8 2.566589 1_556
Al6 Fe15 2.591438 1_555
Al6 Fe11 2.591447 1_455
Al6 Fe7 2.614569 1_556
Al6 Fe0 2.614569 1_556
Al6 La2 3.278879 1_555
Al6 La1 3.278889 1_445
Al6 La5 3.317321 1_455
Al6 La9 3.317328 1_455
Al6 La8 3.403507 1_545
Al7 Fe13 2.519641 1_555
Al7 Fe8 2.566589 1_555
Al7 Fe12 2.591438 1_455
Al7 Fe10 2.591447 1_555
Al7 Fe0 2.614569 1_555
Al7 Fe7 2.614569 1_555
Al7 La0 3.278879 1_555
Al7 La3 3.278889 1_555
Al7 La4 3.317321 1_555
Al7 La6 3.317328 1_555
Al7 La7 3.403507 1_555
Fe0 Fe8 2.422446 1_555
Fe0 Fe14 2.494753 1_554
Fe0 Fe13 2.494759 1_555
Fe0 Fe2 2.556394 1_455
Fe0 Fe4 2.556394 1_545
Fe0 Fe7 2.558908 1_555
Fe0 Fe12 2.560566 1_455
Fe0 Fe11 2.560569 1_454
Fe0 La0 3.092185 1_555
Fe0 La1 3.092191 1_444
Fe1 Fe8 2.422446 1_655
Fe1 Fe17 2.494753 1_555
Fe1 Fe16 2.494759 1_554
Fe1 Fe4 2.556394 1_655
Fe1 Fe2 2.556394 1_565
Fe1 Fe6 2.558908 1_555
Fe1 Fe15 2.560566 1_654
Fe1 Fe10 2.560569 1_655
Fe1 La1 3.092185 1_554
Fe1 La0 3.092191 1_665
Fe2 Fe9 2.422446 1_555
Fe2 Fe5 2.558908 1_555
Fe2 La1 3.092186 1_544
Fe2 La0 3.092189 1_655
Fe3 Fe9 2.422446 1_565
Fe3 Fe7 2.556394 1_555
Fe3 Fe6 2.556394 1_555
Fe3 Fe4 2.558908 1_555
Fe3 La3 3.092186 1_555
Fe3 La2 3.092189 1_554
Fe4 Fe9 2.422446 1_565
Fe4 La0 3.092186 1_565
Fe4 La1 3.092189 1_454
Fe5 Fe9 2.422446 1_555
Fe5 Fe7 2.556394 1_555
Fe5 Fe6 2.556394 1_555
Fe5 La2 3.092186 1_554
Fe5 La3 3.092189 1_555
Fe6 Fe8 2.422446 1_655
Fe6 La3 3.092185 1_555
Fe6 La2 3.092191 1_554
Fe7 Fe8 2.422446 1_555
Fe7 La2 3.092185 1_554
Fe7 La3 3.092191 1_555
Fe10 Fe8 2.426919 1_555
Fe10 Fe3 2.494753 1_555
Fe10 Fe4 2.494753 1_555
Fe10 Fe7 2.560569 1_555
Fe10 Fe15 2.651633 1_554
Fe10 La4 3.179481 1_555
Fe10 La3 3.233487 1_555
Fe10 La0 3.233487 1_565
Fe11 Fe8 2.426919 1_656
Fe11 Fe5 2.494753 1_556
Fe11 Fe2 2.494753 1_556
Fe11 Fe6 2.560569 1_556
Fe11 Fe12 2.651633 1_556
Fe11 La5 3.179481 1_555
Fe11 La2 3.233487 1_555
Fe11 La1 3.233487 1_545
Fe12 Fe8 2.426910 1_655
Fe12 Fe2 2.494760 1_555
Fe12 Fe5 2.494760 1_555
Fe12 Fe6 2.560566 1_555
Fe12 La6 3.179480 1_655
Fe12 La0 3.233487 1_655
Fe12 La3 3.233487 1_555
Fe13 Fe9 2.426914 1_555
Fe13 Fe7 2.494753 1_555
Fe13 Fe5 2.560563 1_555
Fe13 Fe4 2.560572 1_545
Fe13 Fe14 2.651633 1_554
Fe13 La7 3.179481 1_555
Fe13 La0 3.233487 1_555
Fe13 La3 3.233487 1_555
Fe14 Fe9 2.426914 1_556
Fe14 Fe7 2.494759 1_556
Fe14 Fe4 2.560563 1_546
Fe14 Fe5 2.560572 1_556
Fe14 La8 3.179481 1_545
Fe14 La1 3.233487 1_445
Fe14 La2 3.233487 1_555
Fe15 Fe8 2.426910 1_556
Fe15 Fe3 2.494760 1_556
Fe15 Fe4 2.494760 1_556
Fe15 Fe7 2.560566 1_556
Fe15 La9 3.179480 1_455
Fe15 La1 3.233487 1_455
Fe15 La2 3.233487 1_555
Fe16 Fe9 2.426914 1_566
Fe16 Fe6 2.494753 1_556
Fe16 Fe3 2.560563 1_556
Fe16 Fe2 2.560572 1_566
Fe16 Fe17 2.651633 1_556
Fe16 La10 3.179481 1_555
Fe16 La2 3.233487 1_555
Fe16 La1 3.233487 1_555
Fe17 Fe9 2.426914 1_565
Fe17 Fe6 2.494759 1_555
Fe17 Fe2 2.560563 1_565
Fe17 Fe3 2.560572 1_555
Fe17 La11 3.179481 1_565
Fe17 La0 3.233487 1_665
Fe17 La3 3.233487 1_555
As0 La7 3.368854 1_555
As0 La8 3.368854 1_545
As0 La9 3.368858 1_455
As0 La6 3.368858 1_555
As0 La5 3.368861 1_555
As0 La4 3.368861 1_545
As0 La10 3.368864 1_555
As0 La11 3.368864 1_455
As0 La2 3.443297 1_555
As0 La0 3.443297 1_555
As1 La10 3.368854 1_555
As1 La11 3.368854 1_565
As1 La9 3.368858 1_555
As1 La6 3.368858 1_655
As1 La5 3.368861 1_565
As1 La4 3.368861 1_555
As1 La8 3.368864 1_655
As1 La7 3.368864 1_555
As1 La1 3.443297 1_555
As1 La3 3.443297 1_555
