# generated using pymatgen
data_YMg30AlO32
_symmetry_space_group_name_H-M   'P 1'
_cell_length_a   8.63710600
_cell_length_b   8.63710600
_cell_length_c   8.59952200
_cell_angle_alpha   90.00000000
_cell_angle_beta   90.00000000
_cell_angle_gamma   90.00000000
_symmetry_Int_Tables_number   1
_chemical_formula_structural   YMg30AlO32
_chemical_formula_sum   'Y1 Mg30 Al1 O32'
_cell_volume   641.52090187
_cell_formula_units_Z   1
loop_
 _symmetry_equiv_pos_site_id
 _symmetry_equiv_pos_as_xyz
  1  'x, y, z'
loop_
 _atom_site_type_symbol
 _atom_site_label
 _atom_site_symmetry_multiplicity
 _atom_site_fract_x
 _atom_site_fract_y
 _atom_site_fract_z
 _atom_site_occupancy
  Y  Y0  1  0.00000000  0.00000000  0.50000000  1
  Mg  Mg0  1  0.50000000  0.00000000  0.00000000  1
  Mg  Mg1  1  0.50000000  0.00000000  0.50000000  1
  Mg  Mg2  1  0.00000000  0.50000000  0.00000000  1
  Mg  Mg3  1  0.00000000  0.50000000  0.50000000  1
  Mg  Mg4  1  0.50000000  0.50000000  0.00000000  1
  Mg  Mg5  1  0.50000000  0.50000000  0.50000000  1
  Mg  Mg6  1  0.25676700  0.00000000  0.24488700  1
  Mg  Mg7  1  0.25676700  0.00000000  0.75511300  1
  Mg  Mg8  1  0.74323300  0.00000000  0.24488700  1
  Mg  Mg9  1  0.74323300  0.00000000  0.75511300  1
  Mg  Mg10  1  0.25168500  0.50000000  0.24955200  1
  Mg  Mg11  1  0.25168500  0.50000000  0.75044800  1
  Mg  Mg12  1  0.74831500  0.50000000  0.24955200  1
  Mg  Mg13  1  0.74831500  0.50000000  0.75044800  1
  Mg  Mg14  1  0.00000000  0.25676700  0.24488700  1
  Mg  Mg15  1  0.00000000  0.25676700  0.75511300  1
  Mg  Mg16  1  0.50000000  0.25168500  0.24955200  1
  Mg  Mg17  1  0.50000000  0.25168500  0.75044800  1
  Mg  Mg18  1  0.00000000  0.74323300  0.24488700  1
  Mg  Mg19  1  0.00000000  0.74323300  0.75511300  1
  Mg  Mg20  1  0.50000000  0.74831500  0.24955200  1
  Mg  Mg21  1  0.50000000  0.74831500  0.75044800  1
  Mg  Mg22  1  0.25171700  0.25171700  0.00000000  1
  Mg  Mg23  1  0.25677100  0.25677100  0.50000000  1
  Mg  Mg24  1  0.74828300  0.25171700  0.00000000  1
  Mg  Mg25  1  0.74322900  0.25677100  0.50000000  1
  Mg  Mg26  1  0.25171700  0.74828300  0.00000000  1
  Mg  Mg27  1  0.25677100  0.74322900  0.50000000  1
  Mg  Mg28  1  0.74828300  0.74828300  0.00000000  1
  Mg  Mg29  1  0.74322900  0.74322900  0.50000000  1
  Al  Al0  1  0.00000000  0.00000000  0.00000000  1
  O  O0  1  0.00000000  0.23572800  0.00000000  1
  O  O1  1  0.00000000  0.25948600  0.50000000  1
  O  O2  1  0.50000000  0.24814100  0.00000000  1
  O  O3  1  0.50000000  0.25131700  0.50000000  1
  O  O4  1  0.00000000  0.76427200  0.00000000  1
  O  O5  1  0.00000000  0.74051400  0.50000000  1
  O  O6  1  0.50000000  0.75185900  0.00000000  1
  O  O7  1  0.50000000  0.74868300  0.50000000  1
  O  O8  1  0.24982200  0.24982200  0.25018100  1
  O  O9  1  0.24982200  0.24982200  0.74981900  1
  O  O10  1  0.75017800  0.24982200  0.25018100  1
  O  O11  1  0.75017800  0.24982200  0.74981900  1
  O  O12  1  0.24982200  0.75017800  0.25018100  1
  O  O13  1  0.24982200  0.75017800  0.74981900  1
  O  O14  1  0.75017800  0.75017800  0.25018100  1
  O  O15  1  0.75017800  0.75017800  0.74981900  1
  O  O16  1  0.00000000  0.00000000  0.22817800  1
  O  O17  1  0.00000000  0.00000000  0.77182200  1
  O  O18  1  0.50000000  0.00000000  0.24643800  1
  O  O19  1  0.50000000  0.00000000  0.75356200  1
  O  O20  1  0.00000000  0.50000000  0.24643800  1
  O  O21  1  0.00000000  0.50000000  0.75356200  1
  O  O22  1  0.50000000  0.50000000  0.24962100  1
  O  O23  1  0.50000000  0.50000000  0.75037900  1
  O  O24  1  0.23572800  0.00000000  0.00000000  1
  O  O25  1  0.25948600  0.00000000  0.50000000  1
  O  O26  1  0.76427200  0.00000000  0.00000000  1
  O  O27  1  0.74051400  0.00000000  0.50000000  1
  O  O28  1  0.24814100  0.50000000  0.00000000  1
  O  O29  1  0.25131700  0.50000000  0.50000000  1
  O  O30  1  0.75185900  0.50000000  0.00000000  1
  O  O31  1  0.74868300  0.50000000  0.50000000  1
loop_
_geom_bond_atom_site_label_1
_geom_bond_atom_site_label_2
_geom_bond_distance
_geom_bond_site_symmetry_2
Mg0 O18 2.119249 1_555
Mg0 O19 2.119249 1_554
Mg0 O6 2.143220 1_545
Mg0 O2 2.143220 1_555
Mg0 O26 2.282545 1_555
Mg0 O24 2.282545 1_555
Mg1 O25 2.077345 1_555
Mg1 O27 2.077345 1_555
Mg1 O7 2.170652 1_545
Mg1 O3 2.170652 1_555
Mg1 O19 2.180512 1_555
Mg1 O18 2.180512 1_555
Mg2 O20 2.119249 1_555
Mg2 O21 2.119249 1_554
Mg2 O30 2.143220 1_455
Mg2 O28 2.143220 1_555
Mg2 O4 2.282545 1_555
Mg2 O0 2.282545 1_555
Mg3 O1 2.077345 1_555
Mg3 O5 2.077345 1_555
Mg3 O31 2.170652 1_455
Mg3 O29 2.170652 1_555
Mg3 O21 2.180512 1_555
Mg3 O20 2.180512 1_555
Mg4 O22 2.146621 1_555
Mg4 O23 2.146621 1_554
Mg4 O2 2.175333 1_555
Mg4 O28 2.175333 1_555
Mg4 O6 2.175333 1_555
Mg4 O30 2.175333 1_555
Mg5 O29 2.147901 1_555
Mg5 O7 2.147901 1_555
Mg5 O31 2.147901 1_555
Mg5 O3 2.147901 1_555
Mg5 O22 2.153140 1_555
Mg5 O23 2.153140 1_555
Mg6 O18 2.100872 1_555
Mg6 O24 2.113737 1_555
Mg6 O8 2.159053 1_555
Mg6 O12 2.159053 1_545
Mg6 O25 2.193976 1_555
Mg6 O16 2.222374 1_555
Mg7 O19 2.100872 1_555
Mg7 O24 2.113737 1_556
Mg7 O13 2.159053 1_545
Mg7 O9 2.159053 1_555
Mg7 O25 2.193976 1_555
Mg7 O17 2.222374 1_555
Mg8 O18 2.100872 1_555
Mg8 O26 2.113737 1_555
Mg8 O14 2.159053 1_545
Mg8 O10 2.159053 1_555
Mg8 O27 2.193976 1_555
Mg8 O16 2.222374 1_655
Mg9 O19 2.100872 1_555
Mg9 O26 2.113737 1_556
Mg9 O11 2.159053 1_555
Mg9 O15 2.159053 1_545
Mg9 O27 2.193976 1_555
Mg9 O17 2.222374 1_655
Mg10 O22 2.144723 1_555
Mg10 O28 2.146246 1_555
Mg10 O29 2.153735 1_555
Mg10 O12 2.160881 1_555
Mg10 O8 2.160881 1_555
Mg10 O20 2.173995 1_555
Mg11 O23 2.144723 1_555
Mg11 O28 2.146246 1_556
Mg11 O29 2.153735 1_555
Mg11 O9 2.160881 1_555
Mg11 O13 2.160881 1_555
Mg11 O21 2.173995 1_555
Mg12 O22 2.144723 1_555
Mg12 O30 2.146246 1_555
Mg12 O31 2.153735 1_555
Mg12 O14 2.160881 1_555
Mg12 O10 2.160881 1_555
Mg12 O20 2.173995 1_655
Mg13 O23 2.144723 1_555
Mg13 O30 2.146246 1_556
Mg13 O31 2.153735 1_555
Mg13 O11 2.160881 1_555
Mg13 O15 2.160881 1_555
Mg13 O21 2.173995 1_655
Mg14 O20 2.100872 1_555
Mg14 O0 2.113737 1_555
Mg14 O8 2.159053 1_555
Mg14 O10 2.159053 1_455
Mg14 O1 2.193976 1_555
Mg14 O16 2.222374 1_555
Mg15 O21 2.100872 1_555
Mg15 O0 2.113737 1_556
Mg15 O9 2.159053 1_555
Mg15 O11 2.159053 1_455
Mg15 O1 2.193976 1_555
Mg15 O17 2.222374 1_555
Mg16 O22 2.144723 1_555
Mg16 O2 2.146246 1_555
Mg16 O3 2.153735 1_555
Mg16 O8 2.160881 1_555
Mg16 O10 2.160881 1_555
Mg16 O18 2.173995 1_555
Mg17 O23 2.144723 1_555
Mg17 O2 2.146246 1_556
Mg17 O3 2.153735 1_555
Mg17 O11 2.160881 1_555
Mg17 O9 2.160881 1_555
Mg17 O19 2.173995 1_555
Mg18 O20 2.100872 1_555
Mg18 O4 2.113737 1_555
Mg18 O14 2.159053 1_455
Mg18 O12 2.159053 1_555
Mg18 O5 2.193976 1_555
Mg18 O16 2.222374 1_565
Mg19 O21 2.100872 1_555
Mg19 O4 2.113737 1_556
Mg19 O15 2.159053 1_455
Mg19 O13 2.159053 1_555
Mg19 O5 2.193976 1_555
Mg19 O17 2.222374 1_565
Mg20 O22 2.144723 1_555
Mg20 O6 2.146246 1_555
Mg20 O7 2.153735 1_555
Mg20 O12 2.160881 1_555
Mg20 O14 2.160881 1_555
Mg20 O18 2.173995 1_565
Mg21 O23 2.144723 1_555
Mg21 O6 2.146246 1_556
Mg21 O7 2.153735 1_555
Mg21 O15 2.160881 1_555
Mg21 O13 2.160881 1_555
Mg21 O19 2.173995 1_565
Mg22 O2 2.144669 1_555
Mg22 O28 2.144669 1_555
Mg22 O8 2.151562 1_555
Mg22 O9 2.151562 1_554
Mg22 O0 2.178488 1_555
Mg22 O24 2.178488 1_555
Mg23 O3 2.101323 1_555
Mg23 O29 2.101323 1_555
Mg23 O9 2.150000 1_555
Mg23 O8 2.150000 1_555
Mg23 O25 2.217882 1_555
Mg23 O1 2.217882 1_555
Mg24 O30 2.144669 1_555
Mg24 O2 2.144669 1_555
Mg24 O10 2.151562 1_555
Mg24 O11 2.151562 1_554
Mg24 O0 2.178488 1_655
Mg24 O26 2.178488 1_555
Mg25 O31 2.101323 1_555
Mg25 O3 2.101323 1_555
Mg25 O11 2.150000 1_555
Mg25 O10 2.150000 1_555
Mg25 O1 2.217882 1_655
Mg25 O27 2.217882 1_555
Mg26 O6 2.144669 1_555
Mg26 O28 2.144669 1_555
Mg26 O12 2.151562 1_555
Mg26 O13 2.151562 1_554
Mg26 O24 2.178488 1_565
Mg26 O4 2.178488 1_555
Mg27 O7 2.101323 1_555
Mg27 O29 2.101323 1_555
Mg27 O13 2.150000 1_555
Mg27 O12 2.150000 1_555
Mg27 O25 2.217882 1_565
Mg27 O5 2.217882 1_555
Mg28 O6 2.144669 1_555
Mg28 O30 2.144669 1_555
Mg28 O14 2.151562 1_555
Mg28 O15 2.151562 1_554
Mg28 O26 2.178488 1_565
Mg28 O4 2.178488 1_655
Mg29 O31 2.101323 1_555
Mg29 O7 2.101323 1_555
Mg29 O14 2.150000 1_555
Mg29 O15 2.150000 1_555
Mg29 O5 2.217882 1_655
Mg29 O27 2.217882 1_565
Al0 O17 1.962222 1_554
Al0 O16 1.962222 1_555
Al0 O24 2.036008 1_555
Al0 O0 2.036008 1_555
Al0 O4 2.036008 1_545
Al0 O26 2.036008 1_455
O1 Y0 2.241208 1_555
O5 Y0 2.241208 1_565
O16 Y0 2.337539 1_555
O17 Y0 2.337539 1_555
O25 Y0 2.241208 1_555
O27 Y0 2.241208 1_655
