# generated using pymatgen
data_Nd3Ga5SiO14
_symmetry_space_group_name_H-M   'P 1'
_cell_length_a   5.12443500
_cell_length_b   8.17667600
_cell_length_c   8.17658194
_cell_angle_alpha   60.00013766
_cell_angle_beta   89.99969690
_cell_angle_gamma   90.00018054
_symmetry_Int_Tables_number   1
_chemical_formula_structural   Nd3Ga5SiO14
_chemical_formula_sum   'Nd3 Ga5 Si1 O14'
_cell_volume   296.70564252
_cell_formula_units_Z   1
loop_
 _symmetry_equiv_pos_site_id
 _symmetry_equiv_pos_as_xyz
  1  'x, y, z'
loop_
 _atom_site_type_symbol
 _atom_site_label
 _atom_site_symmetry_multiplicity
 _atom_site_fract_x
 _atom_site_fract_y
 _atom_site_fract_z
 _atom_site_occupancy
  Nd  Nd0  1  0.00306100  0.57807800  0.00932900  1
  Nd  Nd1  1  0.00306500  0.41260100  0.57809000  1
  Nd  Nd2  1  0.00306100  0.00933200  0.41259300  1
  Ga  Ga0  1  0.49316100  0.23780000  0.99793400  1
  Ga  Ga1  1  0.49316400  0.76427100  0.23780500  1
  Ga  Ga2  1  0.49316100  0.99793100  0.76426200  1
  Ga  Ga3  1  0.99677600  0.99999900  0.99999800  1
  Ga  Ga4  1  0.47183900  0.33334400  0.33333000  1
  Si  Si0  1  0.54682300  0.66665500  0.66667300  1
  O  O0  1  0.82658400  0.33334500  0.33332800  1
  O  O1  1  0.22899700  0.66664500  0.66667700  1
  O  O2  1  0.23670100  0.84926800  0.92802900  1
  O  O3  1  0.23670000  0.22269500  0.84926600  1
  O  O4  1  0.23669800  0.92803600  0.22270500  1
  O  O5  1  0.76109700  0.14198400  0.77389300  1
  O  O6  1  0.76108900  0.08411700  0.14198500  1
  O  O7  1  0.76109100  0.77390600  0.08411400  1
  O  O8  1  0.68401900  0.84437300  0.67946800  1
  O  O9  1  0.68403300  0.47614800  0.84437900  1
  O  O10  1  0.68402600  0.67946100  0.47615500  1
  O  O11  1  0.29829400  0.14108900  0.54024700  1
  O  O12  1  0.29828100  0.31866300  0.14108700  1
  O  O13  1  0.29827800  0.54026000  0.31865500  1
loop_
_geom_bond_atom_site_label_1
_geom_bond_atom_site_label_2
_geom_bond_distance
_geom_bond_site_symmetry_2
Nd0 O2 2.306144 1_554
Nd0 O7 2.335477 1_455
Nd0 O12 2.379804 1_555
Nd0 O9 2.512071 1_454
Nd0 O0 2.557184 1_455
Nd0 O1 2.772289 1_554
Nd0 O13 2.828284 1_555
Nd0 O8 2.969159 1_454
Nd1 O3 2.306083 1_555
Nd1 O5 2.335443 1_455
Nd1 O13 2.379857 1_555
Nd1 O10 2.512008 1_455
Nd1 O0 2.557358 1_455
Nd1 O1 2.772115 1_555
Nd1 O11 2.828464 1_555
Nd1 O9 2.968981 1_455
Nd2 O4 2.306086 1_545
Nd2 O6 2.335441 1_455
Nd2 O11 2.379807 1_555
Nd2 O8 2.512087 1_445
Nd2 O0 2.557320 1_455
Nd2 O1 2.772509 1_545
Nd2 O12 2.828309 1_555
Nd2 O10 2.969213 1_445
Ga0 O3 1.835824 1_555
Ga0 O6 1.836140 1_556
Ga0 O12 1.891683 1_556
Ga0 O9 1.970875 1_555
Ga1 O4 1.835818 1_555
Ga1 O7 1.836153 1_555
Ga1 O13 1.891692 1_555
Ga1 O10 1.970839 1_555
Ga2 O2 1.835782 1_555
Ga2 O5 1.836171 1_565
Ga2 O11 1.891657 1_565
Ga2 O8 1.970865 1_555
Ga3 O7 2.019369 1_556
Ga3 O5 2.019420 1_565
Ga3 O6 2.019436 1_566
Ga3 O3 2.025358 1_665
Ga3 O2 2.025382 1_655
Ga3 O4 2.025421 1_656
Ga4 O0 1.817868 1_555
Ga4 O11 1.861419 1_555
Ga4 O13 1.861427 1_555
Ga4 O12 1.861442 1_555
O1 Si0 1.628679 1_555
O8 Si0 1.663992 1_555
O9 Si0 1.663962 1_555
O10 Si0 1.663991 1_555
