# generated using pymatgen
data_TmMnIn
_symmetry_space_group_name_H-M   'P 1'
_cell_length_a   9.49652037
_cell_length_b   9.49652037
_cell_length_c   6.93663200
_cell_angle_alpha   90.00000000
_cell_angle_beta   90.00000000
_cell_angle_gamma   120.00000261
_symmetry_Int_Tables_number   1
_chemical_formula_structural   TmMnIn
_chemical_formula_sum   'Tm8 Mn8 In8'
_cell_volume   541.76168106
_cell_formula_units_Z   8
loop_
 _symmetry_equiv_pos_site_id
 _symmetry_equiv_pos_as_xyz
  1  'x, y, z'
loop_
 _atom_site_type_symbol
 _atom_site_label
 _atom_site_symmetry_multiplicity
 _atom_site_fract_x
 _atom_site_fract_y
 _atom_site_fract_z
 _atom_site_occupancy
  Tm  Tm0_0  1  0.33333350  0.16666650  0.00000000  1
  Tm  Tm0_1  1  0.33333350  0.16666650  0.50000000  1
  Tm  Tm0_2  1  0.33333350  0.66666650  0.00000000  1
  Tm  Tm0_3  1  0.33333350  0.66666650  0.50000000  1
  Tm  Tm0_4  1  0.83333350  0.16666650  0.00000000  1
  Tm  Tm0_5  1  0.83333350  0.16666650  0.50000000  1
  Tm  Tm0_6  1  0.83333350  0.66666650  0.00000000  1
  Tm  Tm0_7  1  0.83333350  0.66666650  0.50000000  1
  Mn  Mn0_0  1  0.00000000  0.00000000  0.25000000  1
  Mn  Mn0_1  1  0.00000000  0.00000000  0.75000000  1
  Mn  Mn0_2  1  0.00000000  0.50000000  0.25000000  1
  Mn  Mn0_3  1  0.00000000  0.50000000  0.75000000  1
  Mn  Mn0_4  1  0.50000000  0.00000000  0.25000000  1
  Mn  Mn0_5  1  0.50000000  0.00000000  0.75000000  1
  Mn  Mn0_6  1  0.50000000  0.50000000  0.25000000  1
  Mn  Mn0_7  1  0.50000000  0.50000000  0.75000000  1
  In  In0_0  1  0.16666650  0.33333350  0.25000000  1
  In  In0_1  1  0.16666650  0.33333350  0.75000000  1
  In  In0_2  1  0.16666650  0.83333350  0.25000000  1
  In  In0_3  1  0.16666650  0.83333350  0.75000000  1
  In  In0_4  1  0.66666650  0.33333350  0.25000000  1
  In  In0_5  1  0.66666650  0.33333350  0.75000000  1
  In  In0_6  1  0.66666650  0.83333350  0.25000000  1
  In  In0_7  1  0.66666650  0.83333350  0.75000000  1
loop_
_geom_bond_atom_site_label_1
_geom_bond_atom_site_label_2
_geom_bond_distance
_geom_bond_site_symmetry_2
Tm0_0 Tm0_1 3.468316 1_555
Tm0_0 Tm0_1 3.468316 1_554
Tm0_2 Tm0_3 3.468316 1_555
Tm0_2 Tm0_3 3.468316 1_554
Tm0_4 Tm0_5 3.468316 1_555
Tm0_4 Tm0_5 3.468316 1_554
Tm0_6 Tm0_7 3.468316 1_554
Tm0_6 Tm0_7 3.468316 1_555
Mn0_0 Tm0_4 3.243858 1_455
Mn0_0 Tm0_5 3.243858 1_455
Mn0_0 Tm0_6 3.243861 1_445
Mn0_0 Tm0_7 3.243861 1_445
Mn0_0 Tm0_1 3.243861 1_555
Mn0_0 Tm0_0 3.243861 1_555
Mn0_0 Mn0_1 3.468316 1_554
Mn0_0 Mn0_1 3.468316 1_555
Mn0_1 Tm0_4 3.243858 1_456
Mn0_1 Tm0_5 3.243858 1_455
Mn0_1 Tm0_6 3.243861 1_446
Mn0_1 Tm0_0 3.243861 1_556
Mn0_1 Tm0_1 3.243861 1_555
Mn0_1 Tm0_7 3.243861 1_445
Mn0_2 Tm0_7 3.243858 1_455
Mn0_2 Tm0_6 3.243858 1_455
Mn0_2 Tm0_2 3.243861 1_555
Mn0_2 Tm0_4 3.243861 1_455
Mn0_2 Tm0_3 3.243861 1_555
Mn0_2 Tm0_5 3.243861 1_455
Mn0_2 Mn0_3 3.468316 1_554
Mn0_2 Mn0_3 3.468316 1_555
Mn0_3 Tm0_6 3.243858 1_456
Mn0_3 Tm0_7 3.243858 1_455
Mn0_3 Tm0_4 3.243861 1_456
Mn0_3 Tm0_2 3.243861 1_556
Mn0_3 Tm0_3 3.243861 1_555
Mn0_3 Tm0_5 3.243861 1_455
Mn0_4 Tm0_0 3.243858 1_555
Mn0_4 Tm0_1 3.243858 1_555
Mn0_4 Tm0_2 3.243861 1_545
Mn0_4 Tm0_3 3.243861 1_545
Mn0_4 Tm0_5 3.243861 1_555
Mn0_4 Tm0_4 3.243861 1_555
Mn0_4 Mn0_5 3.468316 1_554
Mn0_4 Mn0_5 3.468316 1_555
Mn0_5 Tm0_0 3.243858 1_556
Mn0_5 Tm0_1 3.243858 1_555
Mn0_5 Tm0_2 3.243861 1_546
Mn0_5 Tm0_4 3.243861 1_556
Mn0_5 Tm0_3 3.243861 1_545
Mn0_5 Tm0_5 3.243861 1_555
Mn0_6 Tm0_2 3.243858 1_555
Mn0_6 Tm0_3 3.243858 1_555
Mn0_6 Tm0_7 3.243861 1_555
Mn0_6 Tm0_6 3.243861 1_555
Mn0_6 Tm0_1 3.243861 1_555
Mn0_6 Tm0_0 3.243861 1_555
Mn0_6 Mn0_7 3.468316 1_554
Mn0_6 Mn0_7 3.468316 1_555
Mn0_7 Tm0_2 3.243858 1_556
Mn0_7 Tm0_3 3.243858 1_555
Mn0_7 Tm0_6 3.243861 1_556
Mn0_7 Tm0_0 3.243861 1_556
Mn0_7 Tm0_1 3.243861 1_555
Mn0_7 Tm0_7 3.243861 1_555
In0_0 Mn0_2 2.741407 1_555
In0_0 Mn0_6 2.741411 1_555
In0_0 Mn0_0 2.741411 1_555
In0_0 Tm0_2 3.243858 1_555
In0_0 Tm0_4 3.243858 1_455
In0_0 Tm0_3 3.243858 1_555
In0_0 Tm0_5 3.243858 1_455
In0_0 Tm0_1 3.243865 1_555
In0_0 Tm0_0 3.243865 1_555
In0_0 In0_1 3.468316 1_554
In0_0 In0_1 3.468316 1_555
In0_1 Mn0_3 2.741407 1_555
In0_1 Mn0_1 2.741411 1_555
In0_1 Mn0_7 2.741411 1_555
In0_1 Tm0_4 3.243858 1_456
In0_1 Tm0_2 3.243858 1_556
In0_1 Tm0_5 3.243858 1_455
In0_1 Tm0_3 3.243858 1_555
In0_1 Tm0_0 3.243865 1_556
In0_1 Tm0_1 3.243865 1_555
In0_2 Mn0_0 2.741407 1_565
In0_2 Mn0_2 2.741411 1_555
In0_2 Mn0_4 2.741411 1_565
In0_2 Tm0_7 3.243858 1_455
In0_2 Tm0_6 3.243858 1_455
In0_2 Tm0_1 3.243858 1_565
In0_2 Tm0_0 3.243858 1_565
In0_2 Tm0_2 3.243865 1_555
In0_2 Tm0_3 3.243865 1_555
In0_2 In0_3 3.468316 1_554
In0_2 In0_3 3.468316 1_555
In0_3 Mn0_1 2.741407 1_565
In0_3 Mn0_3 2.741411 1_555
In0_3 Mn0_5 2.741411 1_565
In0_3 Tm0_6 3.243858 1_456
In0_3 Tm0_0 3.243858 1_566
In0_3 Tm0_7 3.243858 1_455
In0_3 Tm0_1 3.243858 1_565
In0_3 Tm0_2 3.243865 1_556
In0_3 Tm0_3 3.243865 1_555
In0_4 Mn0_6 2.741407 1_555
In0_4 Mn0_2 2.741411 1_655
In0_4 Mn0_4 2.741411 1_555
In0_4 Tm0_0 3.243858 1_555
In0_4 Tm0_6 3.243858 1_555
In0_4 Tm0_1 3.243858 1_555
In0_4 Tm0_7 3.243858 1_555
In0_4 Tm0_5 3.243865 1_555
In0_4 Tm0_4 3.243865 1_555
In0_4 In0_5 3.468316 1_554
In0_4 In0_5 3.468316 1_555
In0_5 Mn0_7 2.741407 1_555
In0_5 Mn0_3 2.741411 1_655
In0_5 Mn0_5 2.741411 1_555
In0_5 Tm0_6 3.243858 1_556
In0_5 Tm0_0 3.243858 1_556
In0_5 Tm0_1 3.243858 1_555
In0_5 Tm0_7 3.243858 1_555
In0_5 Tm0_4 3.243865 1_556
In0_5 Tm0_5 3.243865 1_555
In0_6 Mn0_4 2.741407 1_565
In0_6 Mn0_6 2.741411 1_555
In0_6 Mn0_0 2.741411 1_665
In0_6 Tm0_2 3.243858 1_555
In0_6 Tm0_3 3.243858 1_555
In0_6 Tm0_5 3.243858 1_565
In0_6 Tm0_4 3.243858 1_565
In0_6 Tm0_6 3.243865 1_555
In0_6 Tm0_7 3.243865 1_555
In0_6 In0_7 3.468316 1_554
In0_6 In0_7 3.468316 1_555
In0_7 Mn0_5 2.741407 1_565
In0_7 Mn0_1 2.741411 1_665
In0_7 Mn0_7 2.741411 1_555
In0_7 Tm0_2 3.243858 1_556
In0_7 Tm0_4 3.243858 1_566
In0_7 Tm0_3 3.243858 1_555
In0_7 Tm0_5 3.243858 1_565
In0_7 Tm0_6 3.243865 1_556
In0_7 Tm0_7 3.243865 1_555
