# generated using pymatgen
data_Al8Zn3CdS16
_symmetry_space_group_name_H-M   'P 1'
_cell_length_a   12.43778616
_cell_length_b   12.43778616
_cell_length_c   12.43778658
_cell_angle_alpha   33.58326536
_cell_angle_beta   33.58326536
_cell_angle_gamma   33.58326739
_symmetry_Int_Tables_number   1
_chemical_formula_structural   Al8Zn3CdS16
_chemical_formula_sum   'Al8 Zn3 Cd1 S16'
_cell_volume   524.41348382
_cell_formula_units_Z   1
loop_
 _symmetry_equiv_pos_site_id
 _symmetry_equiv_pos_as_xyz
  1  'x, y, z'
loop_
 _atom_site_type_symbol
 _atom_site_label
 _atom_site_symmetry_multiplicity
 _atom_site_fract_x
 _atom_site_fract_y
 _atom_site_fract_z
 _atom_site_occupancy
  Al  Al0  1  0.24986100  0.24986100  0.24986100  1
  Al  Al1  1  0.75011300  0.75011300  0.75011300  1
  Al  Al2  1  0.50020900  0.50020900  0.00109900  1
  Al  Al3  1  0.99988600  0.99988600  0.49872700  1
  Al  Al4  1  0.50020900  0.00109900  0.50020900  1
  Al  Al5  1  0.99988600  0.49872700  0.99988600  1
  Al  Al6  1  0.00109900  0.50020900  0.50020900  1
  Al  Al7  1  0.49872700  0.99988600  0.99988600  1
  Zn  Zn0  1  0.43733300  0.43733300  0.43733300  1
  Zn  Zn1  1  0.56249800  0.56249800  0.56249800  1
  Zn  Zn2  1  0.06250600  0.06250600  0.06250600  1
  Cd  Cd0  1  0.93757200  0.93757200  0.93757200  1
  S  S0  1  0.86697100  0.86697100  0.86697100  1
  S  S1  1  0.37080200  0.37080200  0.37080200  1
  S  S2  1  0.14741200  0.14741200  0.58824900  1
  S  S3  1  0.63915100  0.63915100  0.10095900  1
  S  S4  1  0.14741200  0.58824900  0.14741200  1
  S  S5  1  0.63915100  0.10095900  0.63915100  1
  S  S6  1  0.58824900  0.14741200  0.14741200  1
  S  S7  1  0.10095900  0.63915100  0.63915100  1
  S  S8  1  0.62998100  0.62998100  0.62998100  1
  S  S9  1  0.12998200  0.12998200  0.12998200  1
  S  S10  1  0.36004000  0.36004000  0.90007200  1
  S  S11  1  0.86006000  0.86006000  0.39975800  1
  S  S12  1  0.36004000  0.90007200  0.36004000  1
  S  S13  1  0.86006000  0.39975800  0.86006000  1
  S  S14  1  0.90007200  0.36004000  0.36004000  1
  S  S15  1  0.39975800  0.86006000  0.86006000  1
loop_
_geom_bond_atom_site_label_1
_geom_bond_atom_site_label_2
_geom_bond_distance
_geom_bond_site_symmetry_2
Al0 S4 2.407351 1_555
Al0 S6 2.407351 1_555
Al0 S2 2.407351 1_555
Al0 S12 2.438294 1_545
Al0 S14 2.438294 1_455
Al0 S10 2.438294 1_554
Al1 S5 2.440573 1_565
Al1 S7 2.440573 1_655
Al1 S3 2.440573 1_556
Al1 S13 2.446911 1_555
Al1 S15 2.446911 1_555
Al1 S11 2.446911 1_555
Al2 S6 2.403096 1_555
Al2 S4 2.403096 1_555
Al2 S15 2.433807 1_554
Al2 S13 2.433807 1_554
Al2 S1 2.445176 1_555
Al2 S8 2.455703 1_554
Al3 S0 2.401173 1_555
Al3 S9 2.429771 1_665
Al3 S7 2.442435 1_655
Al3 S5 2.442435 1_565
Al3 S14 2.451652 1_565
Al3 S12 2.451652 1_655
Al4 S2 2.403096 1_555
Al4 S6 2.403096 1_555
Al4 S11 2.433807 1_545
Al4 S15 2.433807 1_545
Al4 S1 2.445176 1_555
Al4 S8 2.455703 1_545
Al5 S0 2.401173 1_555
Al5 S9 2.429771 1_656
Al5 S3 2.442435 1_556
Al5 S7 2.442435 1_655
Al5 S10 2.451652 1_655
Al5 S14 2.451652 1_556
Al6 S2 2.403096 1_555
Al6 S4 2.403096 1_555
Al6 S11 2.433807 1_455
Al6 S13 2.433807 1_455
Al6 S1 2.445176 1_555
Al6 S8 2.455703 1_455
Al7 S0 2.401173 1_555
Al7 S9 2.429771 1_566
Al7 S3 2.442435 1_556
Al7 S5 2.442435 1_565
Al7 S10 2.451652 1_565
Al7 S12 2.451652 1_556
Cd0 S2 2.462300 1_665
Cd0 S6 2.462300 1_566
Cd0 S4 2.462300 1_656
Cd0 S0 2.483466 1_555
S1 Zn0 2.340299 1_555
S3 Zn0 2.368166 1_555
S5 Zn0 2.368166 1_555
S7 Zn0 2.368166 1_555
S8 Zn1 2.373787 1_555
S9 Zn2 2.373540 1_555
S10 Zn1 2.375677 1_555
S11 Zn2 2.375535 1_665
S12 Zn1 2.375677 1_555
S13 Zn2 2.375535 1_656
S14 Zn1 2.375677 1_555
S15 Zn2 2.375535 1_566
