# generated using pymatgen
data_SrWNO2
_symmetry_space_group_name_H-M   'P 1'
_cell_length_a   4.11557500
_cell_length_b   4.11557500
_cell_length_c   3.99362100
_cell_angle_alpha   90.00000000
_cell_angle_beta   90.00000000
_cell_angle_gamma   90.00000000
_symmetry_Int_Tables_number   1
_chemical_formula_structural   SrWNO2
_chemical_formula_sum   'Sr1 W1 N1 O2'
_cell_volume   67.64378309
_cell_formula_units_Z   1
loop_
 _symmetry_equiv_pos_site_id
 _symmetry_equiv_pos_as_xyz
  1  'x, y, z'
loop_
 _atom_site_type_symbol
 _atom_site_label
 _atom_site_symmetry_multiplicity
 _atom_site_fract_x
 _atom_site_fract_y
 _atom_site_fract_z
 _atom_site_occupancy
  Sr  Sr0  1  0.50000000  0.50000000  0.50000000  1
  W  W0  1  0.00000000  0.00000000  0.00000000  1
  N  N0  1  0.00000000  0.00000000  0.50000000  1
  O  O0  1  0.50000000  0.00000000  0.00000000  1
  O  O1  1  0.00000000  0.50000000  0.00000000  1
loop_
_geom_bond_atom_site_label_1
_geom_bond_atom_site_label_2
_geom_bond_distance
_geom_bond_site_symmetry_2
N0 W0 1.996811 1_555
N0 W0 1.996811 1_556
N0 Sr0 2.910151 1_555
N0 Sr0 2.910151 1_455
N0 Sr0 2.910151 1_445
N0 Sr0 2.910151 1_545
O0 W0 2.057787 1_555
O0 W0 2.057787 1_655
O0 Sr0 2.867358 1_555
O0 Sr0 2.867358 1_554
O0 Sr0 2.867358 1_544
O0 Sr0 2.867358 1_545
O1 W0 2.057787 1_565
O1 W0 2.057787 1_555
O1 Sr0 2.867358 1_455
O1 Sr0 2.867358 1_454
O1 Sr0 2.867358 1_555
O1 Sr0 2.867358 1_554
