# generated using pymatgen
data_Zn(WO2)2
_symmetry_space_group_name_H-M   'P 1'
_cell_length_a   5.47514906
_cell_length_b   5.47514906
_cell_length_c   10.34451200
_cell_angle_alpha   90.00000000
_cell_angle_beta   90.00000000
_cell_angle_gamma   146.38675485
_symmetry_Int_Tables_number   1
_chemical_formula_structural   Zn(WO2)2
_chemical_formula_sum   'Zn2 W4 O8'
_cell_volume   171.66647772
_cell_formula_units_Z   2
loop_
 _symmetry_equiv_pos_site_id
 _symmetry_equiv_pos_as_xyz
  1  'x, y, z'
loop_
 _atom_site_type_symbol
 _atom_site_label
 _atom_site_symmetry_multiplicity
 _atom_site_fract_x
 _atom_site_fract_y
 _atom_site_fract_z
 _atom_site_occupancy
  Zn  Zn0  1  0.61051200  0.38948800  0.75000000  1
  Zn  Zn1  1  0.38948800  0.61051200  0.25000000  1
  W  W0  1  0.13076900  0.86923100  0.07348900  1
  W  W1  1  0.86923100  0.13076900  0.92651100  1
  W  W2  1  0.13076900  0.86923100  0.42651100  1
  W  W3  1  0.86923100  0.13076900  0.57348900  1
  O  O0  1  0.76766100  0.23233900  0.38722100  1
  O  O1  1  0.23233900  0.76766100  0.61277900  1
  O  O2  1  0.23233900  0.76766100  0.88722100  1
  O  O3  1  0.76766100  0.23233900  0.11277900  1
  O  O4  1  0.01525600  0.98474400  0.25000000  1
  O  O5  1  0.98474400  0.01525600  0.75000000  1
  O  O6  1  0.50000000  0.50000000  0.00000000  1
  O  O7  1  0.50000000  0.50000000  0.50000000  1
loop_
_geom_bond_atom_site_label_1
_geom_bond_atom_site_label_2
_geom_bond_distance
_geom_bond_site_symmetry_2
O0 W2 2.174984 1_655
O0 W2 2.174984 1_545
O0 W3 2.201448 1_555
O0 Zn1 2.480326 1_545
O0 Zn1 2.480326 1_655
O1 W3 2.174984 1_455
O1 W3 2.174984 1_565
O1 W2 2.201448 1_555
O1 Zn0 2.480326 1_565
O1 Zn0 2.480326 1_455
O2 W1 2.174984 1_565
O2 W1 2.174984 1_455
O2 W0 2.201448 1_556
O2 Zn0 2.480326 1_565
O2 Zn0 2.480326 1_455
O3 W0 2.174984 1_655
O3 W0 2.174984 1_545
O3 W1 2.201448 1_554
O3 Zn1 2.480326 1_545
O3 Zn1 2.480326 1_655
O4 Zn1 2.060171 1_565
O4 Zn1 2.060171 1_455
O4 W2 2.190935 1_555
O4 W0 2.190935 1_555
O5 Zn0 2.060171 1_655
O5 Zn0 2.060171 1_545
O5 W1 2.190935 1_555
O5 W3 2.190935 1_555
O6 W0 2.227823 1_655
O6 W1 2.227823 1_564
O6 W0 2.227823 1_545
O6 W1 2.227823 1_454
O7 W2 2.227823 1_655
O7 W3 2.227823 1_565
O7 W3 2.227823 1_455
O7 W2 2.227823 1_545
