# generated using pymatgen
data_SrCaNdSbO6
_symmetry_space_group_name_H-M   'P 1'
_cell_length_a   5.81929913
_cell_length_b   5.81929913
_cell_length_c   8.44257099
_cell_angle_alpha   90.00000000
_cell_angle_beta   90.00000000
_cell_angle_gamma   90.00000000
_symmetry_Int_Tables_number   1
_chemical_formula_structural   SrCaNdSbO6
_chemical_formula_sum   'Sr2 Ca2 Nd2 Sb2 O12'
_cell_volume   285.90127018
_cell_formula_units_Z   2
loop_
 _symmetry_equiv_pos_site_id
 _symmetry_equiv_pos_as_xyz
  1  'x, y, z'
loop_
 _atom_site_type_symbol
 _atom_site_label
 _atom_site_symmetry_multiplicity
 _atom_site_fract_x
 _atom_site_fract_y
 _atom_site_fract_z
 _atom_site_occupancy
  Sr  Sr0  1  -0.00000000  0.50000000  0.25000000  1
  Sr  Sr1  1  0.50000000  0.00000000  0.75000000  1
  Ca  Ca0  1  0.00000000  0.00000000  0.00000000  1
  Ca  Ca1  1  0.50000000  0.50000000  0.50000000  1
  Nd  Nd0  1  0.50000000  0.00000000  0.25000000  1
  Nd  Nd1  1  -0.00000000  0.50000000  0.75000000  1
  Sb  Sb0  1  0.00000000  0.00000000  0.50000000  1
  Sb  Sb1  1  0.50000000  0.50000000  0.00000000  1
  O  O0  1  -0.00000000  0.00000000  0.26314523  1
  O  O1  1  0.50000000  0.50000000  0.23685477  1
  O  O2  1  -0.00000000  0.00000000  0.73685477  1
  O  O3  1  0.50000000  0.50000000  0.76314523  1
  O  O4  1  0.34389304  0.19334622  0.01343738  1
  O  O5  1  0.65610696  0.80665378  0.01343738  1
  O  O6  1  0.80665378  0.34389304  0.98656262  1
  O  O7  1  0.19334622  0.65610696  0.98656262  1
  O  O8  1  0.84389304  0.30665378  0.51343738  1
  O  O9  1  0.15610696  0.69334622  0.51343738  1
  O  O10  1  0.30665378  0.15610696  0.48656262  1
  O  O11  1  0.69334622  0.84389304  0.48656262  1
loop_
_geom_bond_atom_site_label_1
_geom_bond_atom_site_label_2
_geom_bond_distance
_geom_bond_site_symmetry_2
Ca0 O2 2.221622 1_554
Ca0 O0 2.221622 1_555
Ca0 O7 2.298625 1_544
Ca0 O5 2.298625 1_445
Ca0 O4 2.298625 1_555
Ca0 O6 2.298625 1_454
Ca1 O1 2.221622 1_555
Ca1 O3 2.221622 1_555
Ca1 O8 2.298625 1_555
Ca1 O10 2.298625 1_555
Ca1 O11 2.298625 1_555
Ca1 O9 2.298625 1_555
Nd0 O10 2.465762 1_555
Nd0 O11 2.465762 1_545
Nd0 O5 2.465762 1_545
Nd0 O4 2.465762 1_555
Nd0 O1 2.911765 1_545
Nd0 O0 2.911765 1_555
Nd0 O0 2.911765 1_655
Nd0 O1 2.911765 1_555
Nd1 O6 2.465762 1_455
Nd1 O9 2.465762 1_555
Nd1 O7 2.465762 1_555
Nd1 O8 2.465762 1_455
Nd1 O2 2.911765 1_555
Nd1 O3 2.911765 1_455
Nd1 O3 2.911765 1_555
Nd1 O2 2.911765 1_565
O0 Sb0 1.999663 1_555
O0 Sr0 2.911765 1_555
O0 Sr0 2.911765 1_545
O1 Sb1 1.999663 1_555
O1 Sr0 2.911765 1_555
O1 Sr0 2.911765 1_655
O2 Sb0 1.999663 1_555
O2 Sr1 2.911765 1_455
O2 Sr1 2.911765 1_555
O3 Sb1 1.999663 1_556
O3 Sr1 2.911765 1_555
O3 Sr1 2.911765 1_565
O4 Sb1 2.005641 1_555
O4 Sr1 2.652878 1_554
O5 Sb1 2.005641 1_555
O5 Sr1 2.652878 1_564
O6 Sb1 2.005641 1_556
O6 Sr0 2.652878 1_656
O7 Sb1 2.005641 1_556
O7 Sr0 2.652878 1_556
O8 Sb0 2.005641 1_655
O8 Sr0 2.652878 1_655
O9 Sb0 2.005641 1_565
O9 Sr0 2.652878 1_555
O10 Sb0 2.005641 1_555
O10 Sr1 2.652878 1_555
O11 Sb0 2.005641 1_665
O11 Sr1 2.652878 1_565
