# generated using pymatgen
data_Te3H9Br13O4
_symmetry_space_group_name_H-M   'P 1'
_cell_length_a   9.58853500
_cell_length_b   9.61090259
_cell_length_c   10.33351813
_cell_angle_alpha   114.60277945
_cell_angle_beta   114.49375977
_cell_angle_gamma   95.49408164
_symmetry_Int_Tables_number   1
_chemical_formula_structural   Te3H9Br13O4
_chemical_formula_sum   'Te3 H9 Br13 O4'
_cell_volume   745.31769853
_cell_formula_units_Z   1
loop_
 _symmetry_equiv_pos_site_id
 _symmetry_equiv_pos_as_xyz
  1  'x, y, z'
loop_
 _atom_site_type_symbol
 _atom_site_label
 _atom_site_symmetry_multiplicity
 _atom_site_fract_x
 _atom_site_fract_y
 _atom_site_fract_z
 _atom_site_occupancy
  Te  Te0  1  0.36272800  0.36063800  0.72278100  1
  Te  Te1  1  0.64031500  0.63735700  0.27666300  1
  Te  Te2  1  0.77227200  0.22613800  0.99936100  1
  H  H0  1  0.18458300  0.88808500  0.99664600  1
  H  H1  1  0.05718900  0.69370100  0.89486100  1
  H  H2  1  0.16369700  0.79989700  0.10453400  1
  H  H3  1  0.21807300  0.14546700  0.07934000  1
  H  H4  1  0.24612100  0.06998300  0.92857800  1
  H  H5  1  0.83171100  0.48247700  0.73834700  1
  H  H6  1  0.09277400  0.74512800  0.26200200  1
  H  H7  1  0.84160300  0.57643500  0.64805600  1
  H  H8  1  0.19368200  0.92770800  0.35290200  1
  Br  Br0  1  0.83870400  0.16079600  0.76678300  1
  Br  Br1  1  0.07314900  0.38746600  0.22728500  1
  Br  Br2  1  0.44350500  0.26461900  0.49410400  1
  Br  Br3  1  0.94748800  0.77032400  0.50220100  1
  Br  Br4  1  0.78794800  0.96201100  0.99962200  1
  Br  Br5  1  0.41751000  0.07457500  0.75203700  1
  Br  Br6  1  0.67384500  0.32794600  0.25241500  1
  Br  Br7  1  0.06386600  0.19527700  0.52114500  1
  Br  Br8  1  0.54245700  0.67427400  0.48014600  1
  Br  Br9  1  0.30761400  0.45176400  0.99933400  1
  Br  Br10  1  0.72662400  0.53546100  0.99935200  1
  Br  Br11  1  0.33616600  0.62527300  0.72227800  1
  Br  Br12  1  0.61292200  0.90224400  0.27645300  1
  O  O0  1  0.22874400  0.04823600  0.00563600  1
  O  O1  1  0.16214600  0.78154800  0.99843600  1
  O  O2  1  0.90668800  0.55682800  0.73662600  1
  O  O3  1  0.17085600  0.82068400  0.26439400  1
loop_
_geom_bond_atom_site_label_1
_geom_bond_atom_site_label_2
_geom_bond_distance
_geom_bond_site_symmetry_2
H0 O1 1.035336 1_555
H0 O0 1.510157 1_566
H1 O1 1.030973 1_555
H1 O2 1.541272 1_455
H2 O1 1.028751 1_554
H2 O3 1.549841 1_555
H3 O0 0.976780 1_555
H4 O0 0.973361 1_556
H5 O2 0.974986 1_555
H6 O3 0.976763 1_555
H7 O2 0.977318 1_555
H8 O3 0.974677 1_555
Br0 Te2 2.581764 1_555
Br1 Te2 2.596709 1_454
Br2 Te0 2.621871 1_555
Br3 Te1 2.616731 1_555
Br4 Te2 2.558321 1_565
Br5 Te0 2.960241 1_555
Br5 Te2 2.994574 1_555
Br6 Te1 2.939150 1_555
Br6 Te2 2.962894 1_554
Br7 Te0 2.549279 1_555
Br8 Te1 2.550722 1_555
Br9 Te0 2.910330 1_555
Br9 Te1 2.940189 1_556
Br10 Te2 3.046131 1_555
Br10 Te1 3.104919 1_556
Br10 Te0 3.126667 1_555
Br11 Te0 2.582176 1_555
Br12 Te1 2.585010 1_555
