# generated using pymatgen
data_SmZn3
_symmetry_space_group_name_H-M   'P 1'
_cell_length_a   4.43691308
_cell_length_b   6.70232537
_cell_length_c   10.08681585
_cell_angle_alpha   90.00000000
_cell_angle_beta   90.00000000
_cell_angle_gamma   90.00000000
_symmetry_Int_Tables_number   1
_chemical_formula_structural   SmZn3
_chemical_formula_sum   'Sm4 Zn12'
_cell_volume   299.95804907
_cell_formula_units_Z   4
loop_
 _symmetry_equiv_pos_site_id
 _symmetry_equiv_pos_as_xyz
  1  'x, y, z'
loop_
 _atom_site_type_symbol
 _atom_site_label
 _atom_site_symmetry_multiplicity
 _atom_site_fract_x
 _atom_site_fract_y
 _atom_site_fract_z
 _atom_site_occupancy
  Sm  Sm0  1  0.25000000  0.28242387  0.65787784  1
  Sm  Sm1  1  0.25000000  0.78242387  0.84212216  1
  Sm  Sm2  1  0.75000000  0.71761199  0.34219031  1
  Sm  Sm3  1  0.75000000  0.21761199  0.15780969  1
  Zn  Zn0  1  0.25000000  0.53403701  0.10555253  1
  Zn  Zn1  1  0.25000000  0.03403701  0.39444747  1
  Zn  Zn2  1  0.75000000  0.46593550  0.89425024  1
  Zn  Zn3  1  0.75000000  0.96593550  0.60574976  1
  Zn  Zn4  1  0.25000000  0.91130820  0.14738264  1
  Zn  Zn5  1  0.25000000  0.41130820  0.35261736  1
  Zn  Zn6  1  0.75000000  0.08869959  0.85240961  1
  Zn  Zn7  1  0.75000000  0.58869959  0.64759039  1
  Zn  Zn8  1  0.25000000  0.22221143  0.95410544  1
  Zn  Zn9  1  0.25000000  0.72221143  0.54589456  1
  Zn  Zn10  1  0.75000000  0.77777143  0.04563367  1
  Zn  Zn11  1  0.75000000  0.27777143  0.45436633  1
loop_
_geom_bond_atom_site_label_1
_geom_bond_atom_site_label_2
_geom_bond_distance
_geom_bond_site_symmetry_2
Sm0 Zn8 3.015123 1_555
Sm0 Zn11 3.022655 1_555
Sm0 Zn11 3.022655 1_455
Sm0 Zn7 3.024258 1_555
Sm0 Zn7 3.024258 1_455
Sm0 Zn3 3.114088 1_545
Sm0 Zn3 3.114088 1_445
Sm0 Zn1 3.135607 1_555
Sm0 Zn9 3.156618 1_555
Sm0 Zn5 3.197982 1_555
Sm0 Zn6 3.233829 1_455
Sm0 Zn6 3.233829 1_555
Sm0 Zn2 3.481230 1_455
Sm0 Zn2 3.481230 1_555
Sm1 Zn9 3.015123 1_555
Sm1 Zn10 3.022655 1_556
Sm1 Zn10 3.022655 1_456
Sm1 Zn6 3.024258 1_565
Sm1 Zn6 3.024258 1_465
Sm1 Zn2 3.114088 1_455
Sm1 Zn2 3.114088 1_555
Sm1 Zn0 3.135607 1_556
Sm1 Zn8 3.156618 1_565
Sm1 Zn4 3.197982 1_556
Sm1 Zn7 3.233829 1_455
Sm1 Zn7 3.233829 1_555
Sm1 Zn3 3.481230 1_555
Sm1 Zn3 3.481230 1_455
Sm2 Zn10 3.018365 1_555
Sm2 Zn9 3.023972 1_655
Sm2 Zn9 3.023972 1_555
Sm2 Zn5 3.024435 1_555
Sm2 Zn5 3.024435 1_655
Sm2 Zn1 3.114019 1_665
Sm2 Zn1 3.114019 1_565
Sm2 Zn3 3.136485 1_555
Sm2 Zn11 3.157646 1_555
Sm2 Zn7 3.199389 1_555
Sm2 Zn4 3.235443 1_555
Sm2 Zn4 3.235443 1_655
Sm2 Zn0 3.483214 1_555
Sm2 Zn0 3.483214 1_655
Sm3 Zn11 3.018365 1_555
Sm3 Zn8 3.023972 1_654
Sm3 Zn8 3.023972 1_554
Sm3 Zn4 3.024435 1_545
Sm3 Zn4 3.024435 1_645
Sm3 Zn0 3.114019 1_655
Sm3 Zn0 3.114019 1_555
Sm3 Zn2 3.136485 1_554
Sm3 Zn10 3.157646 1_545
Sm3 Zn6 3.199389 1_554
Sm3 Zn5 3.235443 1_655
Sm3 Zn5 3.235443 1_555
Sm3 Zn1 3.483214 1_555
Sm3 Zn1 3.483214 1_655
Zn0 Zn4 2.563555 1_555
Zn0 Zn8 2.588733 1_554
Zn0 Zn5 2.624342 1_555
Zn0 Zn10 2.820540 1_455
Zn0 Zn10 2.820540 1_555
Zn0 Zn2 3.110082 1_554
Zn0 Zn2 3.110082 1_454
Zn1 Zn5 2.563555 1_555
Zn1 Zn9 2.588733 1_545
Zn1 Zn4 2.624342 1_545
Zn1 Zn11 2.820540 1_555
Zn1 Zn11 2.820540 1_455
Zn1 Zn3 3.110082 1_545
Zn1 Zn3 3.110082 1_445
Zn2 Zn6 2.563340 1_555
Zn2 Zn7 2.620537 1_555
Zn2 Zn8 2.820362 1_555
Zn2 Zn8 2.820362 1_655
Zn3 Zn7 2.563340 1_555
Zn3 Zn6 2.620537 1_565
Zn3 Zn9 2.820362 1_555
Zn3 Zn9 2.820362 1_655
Zn4 Zn8 2.853571 1_564
Zn5 Zn9 2.853571 1_555
Zn6 Zn8 2.602792 1_655
Zn6 Zn8 2.602792 1_555
Zn7 Zn9 2.602792 1_655
Zn7 Zn9 2.602792 1_555
Zn10 Zn2 2.588410 1_554
Zn10 Zn4 2.603061 1_655
Zn10 Zn4 2.603061 1_555
Zn10 Zn6 2.853327 1_564
Zn11 Zn3 2.588410 1_545
Zn11 Zn5 2.603061 1_555
Zn11 Zn5 2.603061 1_655
Zn11 Zn7 2.853327 1_555
