# generated using pymatgen
data_Al6CoCu3
_symmetry_space_group_name_H-M   'P 1'
_cell_length_a   4.07648716
_cell_length_b   4.07648716
_cell_length_c   9.82260598
_cell_angle_alpha   90.00000000
_cell_angle_beta   90.00000000
_cell_angle_gamma   120.00001954
_symmetry_Int_Tables_number   1
_chemical_formula_structural   Al6CoCu3
_chemical_formula_sum   'Al6 Co1 Cu3'
_cell_volume   141.36094111
_cell_formula_units_Z   1
loop_
 _symmetry_equiv_pos_site_id
 _symmetry_equiv_pos_as_xyz
  1  'x, y, z'
loop_
 _atom_site_type_symbol
 _atom_site_label
 _atom_site_symmetry_multiplicity
 _atom_site_fract_x
 _atom_site_fract_y
 _atom_site_fract_z
 _atom_site_occupancy
  Al  Al0  1  0.66666700  0.33333300  0.18853238  1
  Al  Al1  1  0.66666700  0.33333300  0.67245015  1
  Al  Al2  1  -0.00000000  0.00000000  0.32917763  1
  Al  Al3  1  -0.00000000  0.00000000  0.82323748  1
  Al  Al4  1  0.33333300  0.66666700  0.00463521  1
  Al  Al5  1  0.33333300  0.66666700  0.47333112  1
  Co  Co0  1  0.66666700  0.33333300  0.43025670  1
  Cu  Cu0  1  0.66666700  0.33333300  0.92611463  1
  Cu  Cu1  1  -0.00000000  -0.00000000  0.07606866  1
  Cu  Cu2  1  -0.00000000  -0.00000000  0.57619404  1
loop_
_geom_bond_atom_site_label_1
_geom_bond_atom_site_label_2
_geom_bond_distance
_geom_bond_site_symmetry_2
Al0 Co0 2.374363 1_555
Al0 Cu0 2.577626 1_554
Al0 Cu1 2.599918 1_655
Al0 Cu1 2.599920 1_555
Al0 Cu1 2.599920 1_665
Al1 Co0 2.378971 1_555
Al1 Cu0 2.491646 1_555
Al1 Cu2 2.536372 1_655
Al1 Cu2 2.536375 1_665
Al1 Cu2 2.536375 1_555
Al2 Cu2 2.426345 1_555
Al2 Cu1 2.486190 1_555
Al2 Co0 2.554410 1_455
Al2 Co0 2.554413 1_555
Al2 Co0 2.554413 1_445
Al3 Cu2 2.426610 1_555
Al3 Cu1 2.483461 1_556
Al3 Cu0 2.561326 1_455
Al3 Cu0 2.561329 1_555
Al3 Cu0 2.561329 1_445
Al4 Cu1 2.455925 1_565
Al4 Cu1 2.455928 1_665
Al4 Cu1 2.455928 1_555
Al4 Cu0 2.476712 1_454
Al4 Cu0 2.476712 1_564
Al4 Cu0 2.476720 1_554
Al5 Co0 2.391287 1_455
Al5 Co0 2.391287 1_565
Al5 Co0 2.391294 1_555
Al5 Cu2 2.561271 1_565
Al5 Cu2 2.561274 1_555
Al5 Cu2 2.561274 1_665
