# generated using pymatgen
data_K2Mo(SO)2
_symmetry_space_group_name_H-M   'P 1'
_cell_length_a   8.40196200
_cell_length_b   6.68681800
_cell_length_c   13.91816080
_cell_angle_alpha   65.33629916
_cell_angle_beta   90.00000000
_cell_angle_gamma   90.00000000
_symmetry_Int_Tables_number   1
_chemical_formula_structural   K2Mo(SO)2
_chemical_formula_sum   'K8 Mo4 S8 O8'
_cell_volume   710.61987920
_cell_formula_units_Z   4
loop_
 _symmetry_equiv_pos_site_id
 _symmetry_equiv_pos_as_xyz
  1  'x, y, z'
loop_
 _atom_site_type_symbol
 _atom_site_label
 _atom_site_symmetry_multiplicity
 _atom_site_fract_x
 _atom_site_fract_y
 _atom_site_fract_z
 _atom_site_occupancy
  K  K0  1  0.68437500  0.67268500  0.05114200  1
  K  K1  1  0.18437500  0.32731500  0.44885800  1
  K  K2  1  0.31562500  0.32731500  0.94885800  1
  K  K3  1  0.81562500  0.67268500  0.55114200  1
  K  K4  1  0.48165300  0.84856100  0.29867500  1
  K  K5  1  0.98165300  0.15143900  0.20132500  1
  K  K6  1  0.51834700  0.15143900  0.70132500  1
  K  K7  1  0.01834700  0.84856100  0.79867500  1
  Mo  Mo0  1  0.20691200  0.72564000  0.08408900  1
  Mo  Mo1  1  0.70691200  0.27436000  0.41591100  1
  Mo  Mo2  1  0.79308800  0.27436000  0.91591100  1
  Mo  Mo3  1  0.29308800  0.72564000  0.58408900  1
  S  S0  1  0.16149700  0.84979900  0.42885000  1
  S  S1  1  0.66149700  0.15020100  0.07115000  1
  S  S2  1  0.83850300  0.15020100  0.57115000  1
  S  S3  1  0.33850300  0.84979900  0.92885000  1
  S  S4  1  0.33302400  0.42755000  0.19882000  1
  S  S5  1  0.83302400  0.57245000  0.30118000  1
  S  S6  1  0.66697600  0.57245000  0.80118000  1
  S  S7  1  0.16697600  0.42755000  0.69882000  1
  O  O0  1  0.01198600  0.65236500  0.06341800  1
  O  O1  1  0.51198600  0.34763500  0.43658200  1
  O  O2  1  0.98801400  0.34763500  0.93658200  1
  O  O3  1  0.48801400  0.65236500  0.56341800  1
  O  O4  1  0.20714300  0.93345500  0.13254200  1
  O  O5  1  0.70714300  0.06654500  0.36745800  1
  O  O6  1  0.79285700  0.06654500  0.86745800  1
  O  O7  1  0.29285700  0.93345500  0.63254200  1
loop_
_geom_bond_atom_site_label_1
_geom_bond_atom_site_label_2
_geom_bond_distance
_geom_bond_site_symmetry_2
K0 O0 2.757707 1_655
K0 O6 2.946790 1_564
K0 S1 3.324492 1_565
K0 S3 3.325988 1_554
K0 S1 3.392468 1_555
K0 S5 3.489025 1_555
K0 S4 3.579701 1_555
K1 O1 2.757707 1_555
K1 O7 2.946790 1_545
K1 S0 3.324492 1_545
K1 S2 3.325988 1_455
K1 S0 3.392468 1_555
K1 S4 3.489025 1_555
K1 S5 3.579701 1_455
K2 O2 2.757707 1_455
K2 O4 2.946790 1_546
K2 S3 3.324492 1_545
K2 S1 3.325988 1_556
K2 S3 3.392468 1_555
K2 S7 3.489025 1_555
K2 S6 3.579701 1_555
K3 O3 2.757707 1_555
K3 O5 2.946790 1_565
K3 S2 3.324492 1_565
K3 S0 3.325988 1_655
K3 S2 3.392468 1_555
K3 S6 3.489025 1_555
K3 S7 3.579701 1_655
K4 O5 2.791969 1_565
K4 O1 3.098898 1_555
K4 O4 3.145303 1_555
K4 S0 3.245144 1_555
K4 S1 3.324004 1_565
K4 O3 3.356609 1_555
K4 S5 3.474457 1_555
K4 S4 3.740261 1_565
K5 O4 2.791969 1_645
K5 O0 3.098898 1_655
K5 O5 3.145303 1_555
K5 S1 3.245144 1_555
K5 S0 3.324004 1_645
K5 O2 3.356609 1_554
K5 S4 3.474457 1_655
K5 S5 3.740261 1_545
K6 O7 2.791969 1_545
K6 O3 3.098898 1_555
K6 O6 3.145303 1_555
K6 S2 3.245144 1_555
K6 S3 3.324004 1_545
K6 O1 3.356609 1_555
K6 S7 3.474457 1_555
K6 S6 3.740261 1_545
K7 O6 2.791969 1_465
K7 O2 3.098898 1_455
K7 O7 3.145303 1_555
K7 S3 3.245144 1_555
K7 S2 3.324004 1_465
K7 O0 3.356609 1_556
K7 S6 3.474457 1_455
K7 S7 3.740261 1_565
Mo0 O0 1.767133 1_555
Mo0 O4 1.779872 1_555
Mo0 S4 2.233684 1_555
Mo0 S3 2.254541 1_554
Mo1 O1 1.767133 1_555
Mo1 O5 1.779872 1_555
Mo1 S5 2.233684 1_555
Mo1 S2 2.254541 1_555
Mo2 O2 1.767133 1_555
Mo2 O6 1.779872 1_555
Mo2 S6 2.233684 1_555
Mo2 S1 2.254541 1_556
Mo3 O3 1.767133 1_555
Mo3 O7 1.779872 1_555
Mo3 S7 2.233684 1_555
Mo3 S0 2.254541 1_555
