# generated using pymatgen
data_MnCr8Cu3S16
_symmetry_space_group_name_H-M   'P 1'
_cell_length_a   12.12553445
_cell_length_b   12.12553445
_cell_length_c   12.12553462
_cell_angle_alpha   33.67033915
_cell_angle_beta   33.67033915
_cell_angle_gamma   33.67034274
_symmetry_Int_Tables_number   1
_chemical_formula_structural   MnCr8Cu3S16
_chemical_formula_sum   'Mn1 Cr8 Cu3 S16'
_cell_volume   488.19613870
_cell_formula_units_Z   1
loop_
 _symmetry_equiv_pos_site_id
 _symmetry_equiv_pos_as_xyz
  1  'x, y, z'
loop_
 _atom_site_type_symbol
 _atom_site_label
 _atom_site_symmetry_multiplicity
 _atom_site_fract_x
 _atom_site_fract_y
 _atom_site_fract_z
 _atom_site_occupancy
  Mn  Mn0  1  0.06249400  0.06249400  0.06249400  1
  Cr  Cr0  1  0.75180000  0.75180000  0.75180000  1
  Cr  Cr1  1  0.24960400  0.24960400  0.24960400  1
  Cr  Cr2  1  0.00356100  0.49666400  0.49666400  1
  Cr  Cr3  1  0.50400800  0.99885600  0.99885600  1
  Cr  Cr4  1  0.49666400  0.00356100  0.49666400  1
  Cr  Cr5  1  0.99885600  0.50400800  0.99885600  1
  Cr  Cr6  1  0.49666400  0.49666400  0.00356100  1
  Cr  Cr7  1  0.99885600  0.99885600  0.50400800  1
  Cu  Cu0  1  0.56240000  0.56240000  0.56240000  1
  Cu  Cu1  1  0.43756700  0.43756700  0.43756700  1
  Cu  Cu2  1  0.93754600  0.93754600  0.93754600  1
  S  S0  1  0.12988000  0.12988000  0.12988000  1
  S  S1  1  0.62928400  0.62928400  0.62928400  1
  S  S2  1  0.39949200  0.86035600  0.86035600  1
  S  S3  1  0.89522500  0.36271700  0.36271700  1
  S  S4  1  0.86035600  0.39949200  0.86035600  1
  S  S5  1  0.36271700  0.89522500  0.36271700  1
  S  S6  1  0.86035600  0.86035600  0.39949200  1
  S  S7  1  0.36271700  0.36271700  0.89522500  1
  S  S8  1  0.37076400  0.37076400  0.37076400  1
  S  S9  1  0.87107800  0.87107800  0.87107800  1
  S  S10  1  0.10521700  0.63715400  0.63715400  1
  S  S11  1  0.60477800  0.13690500  0.13690500  1
  S  S12  1  0.63715400  0.10521700  0.63715400  1
  S  S13  1  0.13690500  0.60477800  0.13690500  1
  S  S14  1  0.63715400  0.63715400  0.10521700  1
  S  S15  1  0.13690500  0.13690500  0.60477800  1
loop_
_geom_bond_atom_site_label_1
_geom_bond_atom_site_label_2
_geom_bond_distance
_geom_bond_site_symmetry_2
Mn0 S0 2.310136 1_555
Mn0 S6 2.317473 1_445
Mn0 S2 2.317473 1_544
Mn0 S4 2.317473 1_454
Cr0 S14 2.369479 1_556
Cr0 S10 2.369479 1_655
Cr0 S12 2.369479 1_565
Cr0 S6 2.424741 1_555
Cr0 S4 2.424741 1_555
Cr0 S2 2.424741 1_555
Cr1 S7 2.395484 1_554
Cr1 S5 2.395484 1_545
Cr1 S3 2.395484 1_455
Cr1 S15 2.408084 1_555
Cr1 S11 2.408084 1_555
Cr1 S13 2.408084 1_555
Cr2 S13 2.373122 1_555
Cr2 S15 2.373122 1_555
Cr2 S8 2.395281 1_555
Cr2 S1 2.403667 1_455
Cr2 S4 2.421154 1_455
Cr2 S6 2.421154 1_455
Cr3 S9 2.377074 1_555
Cr3 S5 2.398721 1_556
Cr3 S7 2.398721 1_565
Cr3 S12 2.402145 1_565
Cr3 S14 2.402145 1_556
Cr3 S0 2.415873 1_566
Cr4 S11 2.373122 1_555
Cr4 S15 2.373122 1_555
Cr4 S8 2.395281 1_555
Cr4 S1 2.403667 1_545
Cr4 S2 2.421154 1_545
Cr4 S6 2.421154 1_545
Cr5 S9 2.377074 1_555
Cr5 S3 2.398721 1_556
Cr5 S7 2.398721 1_655
Cr5 S10 2.402145 1_655
Cr5 S14 2.402145 1_556
Cr5 S0 2.415873 1_656
Cr6 S13 2.373122 1_555
Cr6 S11 2.373122 1_555
Cr6 S8 2.395281 1_555
Cr6 S1 2.403667 1_554
Cr6 S2 2.421154 1_554
Cr6 S4 2.421154 1_554
Cr7 S9 2.377074 1_555
Cr7 S3 2.398721 1_565
Cr7 S5 2.398721 1_655
Cr7 S10 2.402145 1_655
Cr7 S12 2.402145 1_565
Cr7 S0 2.415873 1_665
Cu0 S7 2.289324 1_555
Cu0 S3 2.289324 1_555
Cu0 S5 2.289324 1_555
Cu0 S1 2.292927 1_555
Cu1 S14 2.288217 1_555
Cu1 S12 2.288218 1_555
Cu1 S10 2.288218 1_555
Cu1 S8 2.290150 1_555
Cu2 S9 2.278665 1_555
Cu2 S15 2.285631 1_665
Cu2 S13 2.285631 1_656
Cu2 S11 2.285631 1_566
