# generated using pymatgen
data_Na4Sr(SiO3)3
_symmetry_space_group_name_H-M   'P 1'
_cell_length_a   6.70676503
_cell_length_b   6.70676503
_cell_length_c   6.70676490
_cell_angle_alpha   109.53792931
_cell_angle_beta   109.53792931
_cell_angle_gamma   109.53793128
_symmetry_Int_Tables_number   1
_chemical_formula_structural   Na4Sr(SiO3)3
_chemical_formula_sum   'Na4 Sr1 Si3 O9'
_cell_volume   231.65414650
_cell_formula_units_Z   1
loop_
 _symmetry_equiv_pos_site_id
 _symmetry_equiv_pos_as_xyz
  1  'x, y, z'
loop_
 _atom_site_type_symbol
 _atom_site_label
 _atom_site_symmetry_multiplicity
 _atom_site_fract_x
 _atom_site_fract_y
 _atom_site_fract_z
 _atom_site_occupancy
  Na  Na0  1  0.50000000  0.50000000  0.50000000  1
  Na  Na1  1  0.00000000  0.52812800  0.47187200  1
  Na  Na2  1  0.47187200  0.00000000  0.52812800  1
  Na  Na3  1  0.52812800  0.47187200  0.00000000  1
  Sr  Sr0  1  0.00000000  0.00000000  0.00000000  1
  Si  Si0  1  0.96336500  0.03663500  0.50000000  1
  Si  Si1  1  0.50000000  0.96336500  0.03663500  1
  Si  Si2  1  0.03663500  0.50000000  0.96336500  1
  O  O0  1  0.25898500  0.74101500  0.00000000  1
  O  O1  1  0.12211800  0.46002600  0.19160500  1
  O  O2  1  0.80839500  0.53997400  0.87788200  1
  O  O3  1  0.87788200  0.80839500  0.53997400  1
  O  O4  1  0.19160500  0.12211800  0.46002600  1
  O  O5  1  0.52356100  0.86566200  0.79211500  1
  O  O6  1  0.74101500  0.00000000  0.25898500  1
  O  O7  1  0.00000000  0.25898500  0.74101500  1
  O  O8  1  0.46002600  0.19160500  0.12211800  1
loop_
_geom_bond_atom_site_label_1
_geom_bond_atom_site_label_2
_geom_bond_distance
_geom_bond_site_symmetry_2
Na0 O5 2.489505 1_555
Na0 O4 2.537995 1_555
Na0 O3 2.537995 1_555
Na0 O2 2.537995 1_555
Na0 O8 2.537995 1_555
Na0 O1 2.537995 1_555
Na1 O1 2.262365 1_555
Na1 O3 2.262365 1_455
Na1 O5 2.907635 1_555
Na2 O5 2.220794 1_545
Na2 O4 2.262365 1_555
Na3 O2 2.262365 1_554
Na3 O8 2.262365 1_555
O0 Si2 1.665543 1_554
O0 Si1 1.665543 1_555
O0 Sr0 2.837597 1_565
O1 Si2 1.591877 1_554
O1 Sr0 2.606752 1_555
O2 Si2 1.591877 1_655
O2 Sr0 2.606752 1_666
O3 Si0 1.591877 1_565
O3 Sr0 2.606752 1_666
O4 Si0 1.591877 1_455
O4 Sr0 2.606752 1_555
O5 Si1 1.633270 1_556
O5 Sr0 2.687070 1_666
O6 Si0 1.665543 1_555
O6 Si1 1.665543 1_545
O6 Sr0 2.837597 1_655
O7 Si0 1.665543 1_455
O7 Si2 1.665543 1_555
O7 Sr0 2.837597 1_556
O8 Si1 1.591877 1_545
O8 Sr0 2.606752 1_555
