# generated using pymatgen
data_Sr2GaBi2O7
_symmetry_space_group_name_H-M   'P 1'
_cell_length_a   11.78172722
_cell_length_b   11.78172722
_cell_length_c   11.78172722
_cell_angle_alpha   150.15036273
_cell_angle_beta   149.02853932
_cell_angle_gamma   43.55125339
_symmetry_Int_Tables_number   1
_chemical_formula_structural   Sr2GaBi2O7
_chemical_formula_sum   'Sr4 Ga2 Bi4 O14'
_cell_volume   417.74233436
_cell_formula_units_Z   2
loop_
 _symmetry_equiv_pos_site_id
 _symmetry_equiv_pos_as_xyz
  1  'x, y, z'
loop_
 _atom_site_type_symbol
 _atom_site_label
 _atom_site_symmetry_multiplicity
 _atom_site_fract_x
 _atom_site_fract_y
 _atom_site_fract_z
 _atom_site_occupancy
  Sr  Sr0  1  0.37757300  0.84522700  0.53067800  1
  Sr  Sr1  1  0.62242700  0.15310600  0.46765400  1
  Sr  Sr2  1  0.81454900  0.34522700  0.46765400  1
  Sr  Sr3  1  0.18545100  0.65310600  0.53067800  1
  Ga  Ga0  1  0.84491700  0.70720100  0.05211800  1
  Ga  Ga1  1  0.15508300  0.20720100  0.86228400  1
  Bi  Bi0  1  0.58645100  0.57960800  0.00937000  1
  Bi  Bi1  1  0.92976200  0.92292000  0.00937000  1
  Bi  Bi2  1  0.07023800  0.07960800  0.99315700  1
  Bi  Bi3  1  0.41354900  0.42292000  0.99315700  1
  O  O0  1  0.67264600  0.66530100  0.50309500  1
  O  O1  1  0.90715200  0.39084400  0.79799600  1
  O  O2  1  0.66220600  0.16530100  0.99265500  1
  O  O3  1  0.24494500  0.19439300  0.07922600  1
  O  O4  1  0.85520300  0.85750600  0.50593900  1
  O  O5  1  0.85156800  0.35750600  0.00230400  1
  O  O6  1  0.09284800  0.89084400  0.48369200  1
  O  O7  1  0.33779400  0.33044800  0.50309500  1
  O  O8  1  0.32735400  0.83044800  0.99265500  1
  O  O9  1  0.61516700  0.69439300  0.94944800  1
  O  O10  1  0.75505500  0.83428100  0.94944800  1
  O  O11  1  0.38483300  0.33428100  0.07922600  1
  O  O12  1  0.14479700  0.65073600  0.00230400  1
  O  O13  1  0.14843200  0.15073600  0.50593900  1
loop_
_geom_bond_atom_site_label_1
_geom_bond_atom_site_label_2
_geom_bond_distance
_geom_bond_site_symmetry_2
Ga0 O10 1.863748 1_554
Ga0 O9 1.863748 1_554
Ga0 O6 1.917075 1_655
Ga0 O1 1.959426 1_554
Ga1 O11 1.863748 1_556
Ga1 O3 1.863748 1_556
Ga1 O1 1.917075 1_455
Ga1 O6 1.959426 1_545
Bi0 O5 2.197993 1_555
Bi0 O7 2.214633 1_554
Bi0 O8 2.234524 1_554
Bi0 O4 2.237415 1_555
Bi0 O9 2.273928 1_554
Bi1 O12 2.197999 1_655
Bi1 O0 2.214634 1_554
Bi1 O2 2.234525 1_564
Bi1 O13 2.237420 1_665
Bi1 O10 2.273938 1_554
Bi2 O4 2.197989 1_445
Bi2 O8 2.214637 1_545
Bi2 O7 2.234528 1_556
Bi2 O5 2.237410 1_456
Bi2 O3 2.273928 1_556
Bi3 O13 2.197994 1_555
Bi3 O2 2.214638 1_555
Bi3 O0 2.234529 1_556
Bi3 O12 2.237416 1_556
Bi3 O11 2.273939 1_556
O0 Sr2 2.552866 1_555
O0 Sr0 2.597161 1_555
O1 Sr1 2.562532 1_555
O1 Sr2 2.562541 1_555
O2 Sr0 2.552866 1_545
O2 Sr2 2.597161 1_556
O3 Sr1 2.604345 1_555
O3 Sr3 3.004665 1_555
O3 Sr3 3.185197 1_544
O4 Sr1 2.571535 1_565
O4 Sr3 2.591181 1_655
O5 Sr3 2.571526 1_655
O5 Sr1 2.591189 1_554
O6 Sr3 2.562529 1_555
O6 Sr0 2.562541 1_555
O7 Sr1 2.552872 1_555
O7 Sr3 2.597181 1_555
O8 Sr3 2.552879 1_555
O8 Sr1 2.597174 1_566
O9 Sr3 2.604351 1_555
O9 Sr1 3.004665 1_566
O9 Sr1 3.185197 1_555
O10 Sr0 2.604350 1_555
O10 Sr2 3.004664 1_566
O10 Sr2 3.185202 1_555
O11 Sr2 2.604350 1_555
O11 Sr0 3.004664 1_555
O11 Sr0 3.185202 1_544
O12 Sr0 2.571518 1_555
O12 Sr2 2.591179 1_454
O13 Sr2 2.571518 1_455
O13 Sr0 2.591179 1_545
