# generated using pymatgen
data_RbSrMg14
_symmetry_space_group_name_H-M   'P 1'
_cell_length_a   6.76743547
_cell_length_b   6.67528776
_cell_length_c   10.91100990
_cell_angle_alpha   90.00000000
_cell_angle_beta   90.00000000
_cell_angle_gamma   119.55059394
_symmetry_Int_Tables_number   1
_chemical_formula_structural   RbSrMg14
_chemical_formula_sum   'Rb1 Sr1 Mg14'
_cell_volume   428.78407339
_cell_formula_units_Z   1
loop_
 _symmetry_equiv_pos_site_id
 _symmetry_equiv_pos_as_xyz
  1  'x, y, z'
loop_
 _atom_site_type_symbol
 _atom_site_label
 _atom_site_symmetry_multiplicity
 _atom_site_fract_x
 _atom_site_fract_y
 _atom_site_fract_z
 _atom_site_occupancy
  Rb  Rb0  1  0.16670329  0.33335114  0.12500000  1
  Sr  Sr0  1  0.17271186  0.83635543  0.12500000  1
  Mg  Mg0  1  0.16311104  0.33155502  0.62500000  1
  Mg  Mg1  1  0.16267442  0.83133671  0.62500000  1
  Mg  Mg2  1  0.66479324  0.33532767  0.12500000  1
  Mg  Mg3  1  0.66955766  0.33398164  0.62500000  1
  Mg  Mg4  1  0.66479324  0.82946457  0.12500000  1
  Mg  Mg5  1  0.66955766  0.83557502  0.62500000  1
  Mg  Mg6  1  0.34600320  0.16874778  0.39951210  1
  Mg  Mg7  1  0.34600320  0.16874778  0.85048790  1
  Mg  Mg8  1  0.34600320  0.67725642  0.39951210  1
  Mg  Mg9  1  0.34600320  0.67725642  0.85048790  1
  Mg  Mg10  1  0.81709590  0.15854845  0.38739128  1
  Mg  Mg11  1  0.81709590  0.15854845  0.86260872  1
  Mg  Mg12  1  0.82394649  0.66197375  0.38188918  1
  Mg  Mg13  1  0.82394649  0.66197375  0.86811082  1
loop_
_geom_bond_atom_site_label_1
_geom_bond_atom_site_label_2
_geom_bond_distance
_geom_bond_site_symmetry_2
Rb0 Sr0 3.337831 1_545
Rb0 Sr0 3.337831 1_555
Mg0 Mg7 3.176936 1_555
Mg0 Mg6 3.176936 1_555
Mg0 Mg9 3.176943 1_555
Mg0 Mg8 3.176943 1_555
Mg0 Mg10 3.297096 1_455
Mg0 Mg11 3.297096 1_455
Mg0 Mg1 3.337645 1_545
Mg0 Mg1 3.337645 1_555
Mg0 Mg5 3.348109 1_445
Mg0 Mg3 3.348109 1_455
Mg0 Mg5 3.419385 1_555
Mg0 Mg3 3.419385 1_555
Mg1 Mg9 3.147839 1_555
Mg1 Mg8 3.147839 1_555
Mg1 Mg7 3.147846 1_565
Mg1 Mg6 3.147846 1_565
Mg1 Mg13 3.318551 1_455
Mg1 Mg12 3.318551 1_455
Mg1 Mg3 3.351179 1_455
Mg1 Mg5 3.351180 1_455
Mg1 Mg3 3.416435 1_565
Mg1 Mg5 3.416435 1_555
Mg2 Sr0 3.353054 1_545
Mg2 Rb0 3.364304 1_555
Mg2 Rb0 3.403170 1_655
Mg2 Sr0 3.414855 1_655
Mg2 Mg6 3.534936 1_555
Mg2 Mg7 3.534936 1_554
Mg3 Mg7 3.111576 1_555
Mg3 Mg6 3.111576 1_555
Mg3 Mg5 3.327008 1_545
Mg3 Mg5 3.348280 1_555
Mg4 Sr0 3.353054 1_555
Mg4 Rb0 3.364304 1_555
Mg4 Rb0 3.403170 1_665
Mg4 Sr0 3.414855 1_655
Mg4 Mg8 3.534936 1_555
Mg4 Mg9 3.534936 1_554
Mg5 Mg9 3.111576 1_555
Mg5 Mg8 3.111576 1_555
Mg6 Mg8 3.280846 1_545
Mg6 Mg8 3.394441 1_555
Mg6 Sr0 3.564133 1_545
Mg6 Rb0 3.600833 1_555
Mg7 Mg9 3.280846 1_545
Mg7 Mg9 3.394441 1_555
Mg7 Sr0 3.564133 1_546
Mg7 Rb0 3.600833 1_556
Mg8 Sr0 3.564127 1_555
Mg8 Rb0 3.600839 1_555
Mg9 Sr0 3.564127 1_556
Mg9 Rb0 3.600839 1_556
Mg10 Mg3 3.200464 1_555
Mg10 Mg5 3.200471 1_545
Mg10 Mg8 3.224925 1_545
Mg10 Mg6 3.224925 1_555
Mg10 Mg12 3.338427 1_545
Mg10 Mg12 3.338427 1_555
Mg10 Mg2 3.442540 1_555
Mg10 Mg4 3.442547 1_545
Mg10 Rb0 3.525993 1_655
Mg10 Mg8 3.548727 1_655
Mg10 Mg6 3.548728 1_655
Mg11 Mg3 3.200464 1_555
Mg11 Mg5 3.200471 1_545
Mg11 Mg9 3.224925 1_545
Mg11 Mg7 3.224925 1_555
Mg11 Mg13 3.338427 1_545
Mg11 Mg13 3.338427 1_555
Mg11 Mg2 3.442540 1_556
Mg11 Mg4 3.442547 1_546
Mg11 Rb0 3.525993 1_656
Mg11 Mg9 3.548727 1_655
Mg11 Mg7 3.548728 1_655
Mg12 Mg5 3.265737 1_555
Mg12 Mg3 3.265744 1_555
Mg12 Mg6 3.291583 1_555
Mg12 Mg8 3.291584 1_555
Mg12 Mg4 3.384415 1_555
Mg12 Mg2 3.384421 1_555
Mg12 Sr0 3.474494 1_655
Mg12 Mg6 3.489104 1_665
Mg12 Mg8 3.489104 1_655
Mg13 Mg5 3.265737 1_555
Mg13 Mg3 3.265744 1_555
Mg13 Mg7 3.291583 1_555
Mg13 Mg9 3.291584 1_555
Mg13 Mg4 3.384415 1_556
Mg13 Mg2 3.384421 1_556
Mg13 Sr0 3.474494 1_656
Mg13 Mg7 3.489104 1_665
Mg13 Mg9 3.489104 1_655
