# generated using pymatgen
data_Mg2Nb2MoO8
_symmetry_space_group_name_H-M   'P 1'
_cell_length_a   10.20057655
_cell_length_b   10.20057655
_cell_length_c   5.33678184
_cell_angle_alpha   89.64553634
_cell_angle_beta   89.64553634
_cell_angle_gamma   34.28455374
_symmetry_Int_Tables_number   1
_chemical_formula_structural   Mg2Nb2MoO8
_chemical_formula_sum   'Mg4 Nb4 Mo2 O16'
_cell_volume   312.79665442
_cell_formula_units_Z   2
loop_
 _symmetry_equiv_pos_site_id
 _symmetry_equiv_pos_as_xyz
  1  'x, y, z'
loop_
 _atom_site_type_symbol
 _atom_site_label
 _atom_site_symmetry_multiplicity
 _atom_site_fract_x
 _atom_site_fract_y
 _atom_site_fract_z
 _atom_site_occupancy
  Mg  Mg0  1  0.87468000  0.57603600  0.26281300  1
  Mg  Mg1  1  0.42396400  0.12532000  0.23718700  1
  Mg  Mg2  1  0.12532000  0.42396400  0.73718700  1
  Mg  Mg3  1  0.57603600  0.87468000  0.76281300  1
  Nb  Nb0  1  0.04022000  0.72194000  0.24351500  1
  Nb  Nb1  1  0.27806000  0.95978000  0.25648500  1
  Nb  Nb2  1  0.95978000  0.27806000  0.75648500  1
  Nb  Nb3  1  0.72194000  0.04022000  0.74351500  1
  Mo  Mo0  1  0.65294000  0.34706000  0.25000000  1
  Mo  Mo1  1  0.34706000  0.65294000  0.75000000  1
  O  O0  1  0.04578000  0.81314700  0.57506700  1
  O  O1  1  0.18685300  0.95422000  0.92493300  1
  O  O2  1  0.95422000  0.18685300  0.42493300  1
  O  O3  1  0.81314700  0.04578000  0.07506700  1
  O  O4  1  0.31962300  0.56275800  0.09283100  1
  O  O5  1  0.43724200  0.68037700  0.40716900  1
  O  O6  1  0.68037700  0.43724200  0.90716900  1
  O  O7  1  0.56275800  0.31962300  0.59283100  1
  O  O8  1  0.92039100  0.71032300  0.94403000  1
  O  O9  1  0.28967700  0.07960900  0.55597000  1
  O  O10  1  0.45309100  0.15827400  0.87134300  1
  O  O11  1  0.84172600  0.54690900  0.62865700  1
  O  O12  1  0.54690900  0.84172600  0.12865700  1
  O  O13  1  0.15827400  0.45309100  0.37134300  1
  O  O14  1  0.71032300  0.92039100  0.44403000  1
  O  O15  1  0.07960900  0.28967700  0.05597000  1
loop_
_geom_bond_atom_site_label_1
_geom_bond_atom_site_label_2
_geom_bond_distance
_geom_bond_site_symmetry_2
Mg0 O15 2.010399 1_655
Mg0 O12 2.016944 1_555
Mg0 O11 2.040343 1_555
Mg0 O13 2.072027 1_655
Mg0 O8 2.450498 1_554
Mg0 O14 2.524861 1_555
Mg1 O14 2.010399 1_545
Mg1 O13 2.016944 1_555
Mg1 O10 2.040343 1_554
Mg1 O12 2.072027 1_545
Mg1 O9 2.450498 1_555
Mg1 O15 2.524861 1_555
Mg2 O8 2.010399 1_455
Mg2 O10 2.016944 1_555
Mg2 O13 2.040343 1_555
Mg2 O11 2.072027 1_455
Mg2 O15 2.450498 1_556
Mg2 O9 2.524861 1_555
Mg3 O9 2.010399 1_565
Mg3 O11 2.016944 1_555
Mg3 O12 2.040343 1_556
Mg3 O10 2.072027 1_565
Mg3 O14 2.450498 1_555
Mg3 O8 2.524861 1_555
Nb0 O4 1.935591 1_555
Nb0 O13 1.991495 1_555
Nb0 O0 2.026931 1_555
Nb0 O8 2.080508 1_454
Nb0 O3 2.104847 1_465
Nb0 O14 2.300519 1_455
Nb1 O5 1.935591 1_555
Nb1 O12 1.991495 1_555
Nb1 O1 2.026931 1_554
Nb1 O9 2.080508 1_565
Nb1 O2 2.104847 1_465
Nb1 O15 2.300519 1_565
Nb2 O6 1.935591 1_555
Nb2 O11 1.991495 1_555
Nb2 O2 2.026931 1_555
Nb2 O15 2.080508 1_656
Nb2 O1 2.104847 1_645
Nb2 O9 2.300519 1_655
Nb3 O7 1.935591 1_555
Nb3 O10 1.991495 1_555
Nb3 O3 2.026931 1_556
Nb3 O14 2.080508 1_545
Nb3 O0 2.104847 1_645
Nb3 O8 2.300519 1_545
Mo0 O7 2.161096 1_555
Mo0 O6 2.161096 1_554
Mo0 O3 2.168924 1_555
Mo0 O2 2.168924 1_555
Mo0 O4 2.180614 1_555
Mo0 O5 2.180614 1_555
Mo1 O4 2.161096 1_556
Mo1 O5 2.161096 1_555
Mo1 O0 2.168924 1_555
Mo1 O1 2.168924 1_555
Mo1 O7 2.180614 1_555
Mo1 O6 2.180614 1_555
