# generated using pymatgen
data_NaSi2W2O5
_symmetry_space_group_name_H-M   'P 1'
_cell_length_a   18.71657800
_cell_length_b   8.63367100
_cell_length_c   9.56138574
_cell_angle_alpha   89.49340073
_cell_angle_beta   90.00000000
_cell_angle_gamma   90.00000000
_symmetry_Int_Tables_number   1
_chemical_formula_structural   NaSi2W2O5
_chemical_formula_sum   'Na8 Si16 W16 O40'
_cell_volume   1544.99047712
_cell_formula_units_Z   8
loop_
 _symmetry_equiv_pos_site_id
 _symmetry_equiv_pos_as_xyz
  1  'x, y, z'
loop_
 _atom_site_type_symbol
 _atom_site_label
 _atom_site_symmetry_multiplicity
 _atom_site_fract_x
 _atom_site_fract_y
 _atom_site_fract_z
 _atom_site_occupancy
  Na  Na0  1  0.00000000  0.50000000  0.00000000  1
  Na  Na1  1  0.50000000  0.50000000  0.50000000  1
  Na  Na2  1  0.54112800  0.30056000  0.13842200  1
  Na  Na3  1  0.45887200  0.69944000  0.86157800  1
  Na  Na4  1  0.04112800  0.69944000  0.36157800  1
  Na  Na5  1  0.95887200  0.30056000  0.63842200  1
  Na  Na6  1  0.00000000  0.00000000  0.00000000  1
  Na  Na7  1  0.50000000  0.00000000  0.50000000  1
  Si  Si0  1  0.20603600  0.17648200  0.31976500  1
  Si  Si1  1  0.79396400  0.82351800  0.68023500  1
  Si  Si2  1  0.70603600  0.82351800  0.18023500  1
  Si  Si3  1  0.29396400  0.17648200  0.81976500  1
  Si  Si4  1  0.33229000  0.30723000  0.12475800  1
  Si  Si5  1  0.66771000  0.69277000  0.87524200  1
  Si  Si6  1  0.83229000  0.69277000  0.37524200  1
  Si  Si7  1  0.16771000  0.30723000  0.62475800  1
  Si  Si8  1  0.71692000  0.19695800  0.17281300  1
  Si  Si9  1  0.28308000  0.80304200  0.82718700  1
  Si  Si10  1  0.21692000  0.80304200  0.32718700  1
  Si  Si11  1  0.78308000  0.19695800  0.67281300  1
  Si  Si12  1  0.33177900  0.68128900  0.12034900  1
  Si  Si13  1  0.66822100  0.31871100  0.87965100  1
  Si  Si14  1  0.83177900  0.31871100  0.37965100  1
  Si  Si15  1  0.16822100  0.68128900  0.62034900  1
  W  W0  1  0.61879400  0.24243400  0.46766100  1
  W  W1  1  0.38120600  0.75756600  0.53233900  1
  W  W2  1  0.11879400  0.75756600  0.03233900  1
  W  W3  1  0.88120600  0.24243400  0.96766100  1
  W  W4  1  0.36402600  0.22563900  0.49955000  1
  W  W5  1  0.63597400  0.77436100  0.50045000  1
  W  W6  1  0.86402600  0.77436100  0.00045000  1
  W  W7  1  0.13597400  0.22563900  0.99955000  1
  W  W8  1  0.92714900  0.00160600  0.34547200  1
  W  W9  1  0.07285100  0.99839400  0.65452800  1
  W  W10  1  0.42714900  0.99839400  0.15452800  1
  W  W11  1  0.57285100  0.00160600  0.84547200  1
  W  W12  1  0.02549200  0.26028300  0.29593100  1
  W  W13  1  0.97450800  0.73971700  0.70406900  1
  W  W14  1  0.52549200  0.73971700  0.20406900  1
  W  W15  1  0.47450800  0.26028300  0.79593100  1
  O  O0  1  0.20144000  0.24258300  0.47884700  1
  O  O1  1  0.79856000  0.75741700  0.52115300  1
  O  O2  1  0.70144000  0.75741700  0.02115300  1
  O  O3  1  0.29856000  0.24258300  0.97884700  1
  O  O4  1  0.27784500  0.25822600  0.25262200  1
  O  O5  1  0.72215500  0.74177400  0.74737800  1
  O  O6  1  0.77784500  0.74177400  0.24737800  1
  O  O7  1  0.22215500  0.25822600  0.75262200  1
  O  O8  1  0.29359200  0.73953600  0.26419500  1
  O  O9  1  0.70640800  0.26046400  0.73580500  1
  O  O10  1  0.79359200  0.26046400  0.23580500  1
  O  O11  1  0.20640800  0.73953600  0.76419500  1
  O  O12  1  0.71826200  0.25692000  0.00883400  1
  O  O13  1  0.28173800  0.74308000  0.99116600  1
  O  O14  1  0.21826200  0.74308000  0.49116600  1
  O  O15  1  0.78173800  0.25692000  0.50883400  1
  O  O16  1  0.13474800  0.22183800  0.22990500  1
  O  O17  1  0.86525200  0.77816200  0.77009500  1
  O  O18  1  0.63474800  0.77816200  0.27009500  1
  O  O19  1  0.36525200  0.22183800  0.72990500  1
  O  O20  1  0.22167300  0.99198200  0.32862800  1
  O  O21  1  0.77832700  0.00801800  0.67137200  1
  O  O22  1  0.72167300  0.00801800  0.17137200  1
  O  O23  1  0.27832700  0.99198200  0.82862800  1
  O  O24  1  0.41053900  0.23367000  0.15494600  1
  O  O25  1  0.58946100  0.76633000  0.84505400  1
  O  O26  1  0.91053900  0.76633000  0.34505400  1
  O  O27  1  0.08946100  0.23367000  0.65494600  1
  O  O28  1  0.14723500  0.74055600  0.24854700  1
  O  O29  1  0.85276500  0.25944400  0.75145300  1
  O  O30  1  0.64723500  0.25944400  0.25145300  1
  O  O31  1  0.35276500  0.74055600  0.74854700  1
  O  O32  1  0.33685700  0.49429800  0.11660200  1
  O  O33  1  0.66314300  0.50570200  0.88339800  1
  O  O34  1  0.83685700  0.50570200  0.38339800  1
  O  O35  1  0.16314300  0.49429800  0.61660200  1
  O  O36  1  0.41307200  0.75215000  0.10707000  1
  O  O37  1  0.58692800  0.24785000  0.89293000  1
  O  O38  1  0.91307200  0.24785000  0.39293000  1
  O  O39  1  0.08692800  0.75215000  0.60707000  1
loop_
_geom_bond_atom_site_label_1
_geom_bond_atom_site_label_2
_geom_bond_distance
_geom_bond_site_symmetry_2
Na0 W2 3.161704 1_555
Na0 W3 3.161704 1_454
Na0 W7 3.476780 1_554
Na0 W6 3.476780 1_455
Na0 W12 3.523297 1_555
Na0 W13 3.523297 1_454
Na1 W1 3.161704 1_555
Na1 W0 3.161704 1_555
Na1 W5 3.476780 1_555
Na1 W4 3.476780 1_555
Na1 W15 3.523297 1_555
Na1 W14 3.523297 1_555
Na2 O30 2.287192 1_555
Na2 O24 2.516123 1_555
Na2 O37 2.543691 1_554
Na3 O31 2.287192 1_555
Na3 O25 2.516123 1_555
Na3 O36 2.543691 1_556
Na4 O28 2.287192 1_555
Na4 O26 2.516123 1_455
Na4 O39 2.543691 1_555
Na5 O29 2.287192 1_555
Na5 O27 2.516123 1_655
Na5 O38 2.543691 1_555
Na6 W2 3.067376 1_545
Na6 W3 3.067376 1_454
Na6 W7 3.204965 1_554
Na6 W6 3.204965 1_445
Na6 W9 3.573691 1_544
Na6 W8 3.573691 1_455
Na6 W12 3.660070 1_555
Na6 W13 3.660070 1_444
Na7 W0 3.067376 1_555
Na7 W1 3.067376 1_545
Na7 W5 3.204965 1_545
Na7 W4 3.204965 1_555
Na7 W11 3.573691 1_555
Na7 W10 3.573691 1_545
Na7 W15 3.660070 1_555
Na7 W14 3.660070 1_545
O0 Si0 1.631569 1_555
O0 Si7 1.634068 1_555
O1 Si1 1.631569 1_555
O1 Si6 1.634068 1_555
O2 Si2 1.631569 1_555
O2 Si5 1.634068 1_554
O3 Si3 1.631569 1_555
O3 Si4 1.634068 1_556
O4 Si4 1.644053 1_555
O4 Si0 1.645782 1_555
O5 Si5 1.644053 1_555
O5 Si1 1.645782 1_555
O6 Si6 1.644053 1_555
O6 Si2 1.645782 1_555
O7 Si7 1.644053 1_555
O7 Si3 1.645782 1_555
O8 Si12 1.633278 1_555
O8 Si10 1.651832 1_555
O9 Si13 1.633278 1_555
O9 Si11 1.651832 1_555
O10 Si14 1.633278 1_555
O10 Si8 1.651832 1_555
O11 Si15 1.633278 1_555
O11 Si9 1.651832 1_555
O12 Si13 1.635789 1_554
O12 Si8 1.646963 1_555
O13 Si12 1.635789 1_556
O13 Si9 1.646963 1_555
O14 Si15 1.635789 1_555
O14 Si10 1.646963 1_555
O15 Si14 1.635789 1_555
O15 Si11 1.646963 1_555
O16 Si0 1.632747 1_555
O16 W12 2.166570 1_555
O16 W7 2.202587 1_554
O17 Si1 1.632747 1_555
O17 W13 2.166570 1_555
O17 W6 2.202587 1_556
O18 Si2 1.632747 1_555
O18 W14 2.166570 1_555
O18 W5 2.202587 1_555
O19 Si3 1.632747 1_555
O19 W15 2.166570 1_555
O19 W4 2.202587 1_555
O20 Si0 1.621055 1_565
O20 Si10 1.633849 1_555
O21 Si1 1.621055 1_545
O21 Si11 1.633849 1_555
O22 Si2 1.621055 1_545
O22 Si8 1.633849 1_555
O23 Si3 1.621055 1_565
O23 Si9 1.633849 1_555
O24 Si4 1.621213 1_555
O24 W10 2.054986 1_545
O25 Si5 1.621213 1_555
O25 W11 2.054986 1_565
O26 Si6 1.621213 1_555
O26 W8 2.054986 1_565
O27 Si7 1.621213 1_555
O27 W9 2.054986 1_545
O28 Si10 1.601464 1_555
O28 W2 2.138475 1_555
O29 Si11 1.601464 1_555
O29 W3 2.138475 1_555
O30 Si8 1.601464 1_555
O30 W0 2.138475 1_555
O31 Si9 1.601464 1_555
O31 W1 2.138475 1_555
O32 Si12 1.617927 1_555
O32 Si4 1.618535 1_555
O33 Si13 1.617927 1_555
O33 Si5 1.618535 1_555
O34 Si14 1.617927 1_555
O34 Si6 1.618535 1_555
O35 Si15 1.617927 1_555
O35 Si7 1.618535 1_555
O36 Si12 1.644408 1_555
O36 W10 2.193675 1_555
O36 W14 2.301571 1_555
O37 Si13 1.644408 1_555
O37 W11 2.193675 1_555
O37 W15 2.301571 1_555
O38 Si14 1.644408 1_555
O38 W8 2.193675 1_555
O38 W12 2.301571 1_655
O39 Si15 1.644408 1_555
O39 W9 2.193675 1_555
O39 W13 2.301571 1_455
