# generated using pymatgen
data_Te4Mo3WSe4
_symmetry_space_group_name_H-M   'P 1'
_cell_length_a   3.43721071
_cell_length_b   3.43721071
_cell_length_c   39.10391600
_cell_angle_alpha   90.00000000
_cell_angle_beta   90.00000000
_cell_angle_gamma   120.00001370
_symmetry_Int_Tables_number   1
_chemical_formula_structural   Te4Mo3WSe4
_chemical_formula_sum   'Te4 Mo3 W1 Se4'
_cell_volume   400.09501120
_cell_formula_units_Z   1
loop_
 _symmetry_equiv_pos_site_id
 _symmetry_equiv_pos_as_xyz
  1  'x, y, z'
loop_
 _atom_site_type_symbol
 _atom_site_label
 _atom_site_symmetry_multiplicity
 _atom_site_fract_x
 _atom_site_fract_y
 _atom_site_fract_z
 _atom_site_occupancy
  Te  Te0  1  0.33333300  0.66666700  0.70503400  1
  Te  Te1  1  0.66666700  0.33333300  0.42214800  1
  Te  Te2  1  0.66666700  0.33333300  0.51709000  1
  Te  Te3  1  0.33333300  0.66666700  0.61007700  1
  Mo  Mo0  1  0.33333300  0.66666700  0.09392900  1
  Mo  Mo1  1  0.33333300  0.66666700  0.46964600  1
  Mo  Mo2  1  0.66666700  0.33333300  0.65758000  1
  W  W0  1  0.66666700  0.33333300  0.28181300  1
  Se  Se0  1  0.33333300  0.66666700  0.32376400  1
  Se  Se1  1  0.66666700  0.33333300  0.05204200  1
  Se  Se2  1  0.66666700  0.33333300  0.13580400  1
  Se  Se3  1  0.33333300  0.66666700  0.23982100  1
loop_
_geom_bond_atom_site_label_1
_geom_bond_atom_site_label_2
_geom_bond_distance
_geom_bond_site_symmetry_2
Mo0 Se2 2.572831 1_455
Mo0 Se2 2.572831 1_565
Mo0 Se2 2.572836 1_555
Mo0 Se1 2.573130 1_455
Mo0 Se1 2.573130 1_565
Mo0 Se1 2.573135 1_555
Mo1 Te2 2.716628 1_565
Mo1 Te2 2.716628 1_455
Mo1 Te2 2.716633 1_555
Mo1 Te1 2.718071 1_455
Mo1 Te1 2.718071 1_565
Mo1 Te1 2.718075 1_555
Mo2 Te0 2.716895 1_545
Mo2 Te0 2.716895 1_655
Mo2 Te0 2.716900 1_555
Mo2 Te3 2.718204 1_545
Mo2 Te3 2.718204 1_655
Mo2 Te3 2.718209 1_555
Se0 W0 2.574723 1_455
Se0 W0 2.574723 1_565
Se0 W0 2.574728 1_555
Se3 W0 2.575745 1_455
Se3 W0 2.575745 1_565
Se3 W0 2.575750 1_555
