# generated using pymatgen
data_CaPH4O5F
_symmetry_space_group_name_H-M   'P 1'
_cell_length_a   5.80423000
_cell_length_b   6.30402406
_cell_length_c   8.48356204
_cell_angle_alpha   109.19914809
_cell_angle_beta   92.91931124
_cell_angle_gamma   114.88877889
_symmetry_Int_Tables_number   1
_chemical_formula_structural   CaPH4O5F
_chemical_formula_sum   'Ca2 P2 H8 O10 F2'
_cell_volume   259.34738433
_cell_formula_units_Z   2
loop_
 _symmetry_equiv_pos_site_id
 _symmetry_equiv_pos_as_xyz
  1  'x, y, z'
loop_
 _atom_site_type_symbol
 _atom_site_label
 _atom_site_symmetry_multiplicity
 _atom_site_fract_x
 _atom_site_fract_y
 _atom_site_fract_z
 _atom_site_occupancy
  Ca  Ca0  1  0.11639200  0.31897100  0.85775600  1
  Ca  Ca1  1  0.88360800  0.68102900  0.14224400  1
  P  P0  1  0.58837500  0.79883600  0.84963200  1
  P  P1  1  0.41162500  0.20116400  0.15036800  1
  H  H0  1  0.26151000  0.03858700  0.63717700  1
  H  H1  1  0.73849000  0.96141300  0.36282300  1
  H  H2  1  0.31463000  0.25392800  0.49020100  1
  H  H3  1  0.68537000  0.74607200  0.50979900  1
  H  H4  1  0.79876600  0.34021200  0.46779900  1
  H  H5  1  0.20123400  0.65978800  0.53220100  1
  H  H6  1  0.07626200  0.38493900  0.31602100  1
  H  H7  1  0.92373800  0.61506100  0.68397900  1
  O  O0  1  0.79349800  0.87769600  0.93407300  1
  O  O1  1  0.20650200  0.12230400  0.06592700  1
  O  O2  1  0.63397300  0.65212200  0.72545800  1
  O  O3  1  0.36602700  0.34787800  0.27454200  1
  O  O4  1  0.28217800  0.67704500  0.96858800  1
  O  O5  1  0.71782200  0.32295500  0.03141200  1
  O  O6  1  0.30874800  0.21071700  0.60703300  1
  O  O7  1  0.69125200  0.78928300  0.39296700  1
  O  O8  1  0.89758000  0.38925200  0.34397600  1
  O  O9  1  0.10242000  0.61074800  0.65602400  1
  F  F0  1  0.33963100  0.94266100  0.26887700  1
  F  F1  1  0.66036900  0.05733900  0.73112300  1
loop_
_geom_bond_atom_site_label_1
_geom_bond_atom_site_label_2
_geom_bond_distance
_geom_bond_site_symmetry_2
Ca0 O4 1.894479 1_555
Ca0 F1 2.398067 1_455
Ca0 O6 2.482941 1_555
Ca0 H0 2.563924 1_555
Ca0 O1 2.611757 1_556
Ca0 O5 2.809718 1_456
Ca0 O9 2.915575 1_555
Ca0 O0 2.930857 1_445
Ca1 O5 1.894479 1_555
Ca1 F0 2.398067 1_655
Ca1 O7 2.482941 1_555
Ca1 H1 2.563924 1_555
Ca1 O0 2.611757 1_554
Ca1 O4 2.809718 1_654
Ca1 O8 2.915575 1_555
Ca1 O1 2.930857 1_665
H0 O6 1.121279 1_555
H1 O7 1.121279 1_555
H2 O6 1.109480 1_555
H3 O7 1.109480 1_555
H4 O8 1.285963 1_555
H5 O9 1.285963 1_555
H6 O8 1.084956 1_455
H7 O9 1.084956 1_655
O0 P0 1.165548 1_555
O1 P1 1.165548 1_555
O2 P0 1.276253 1_555
O3 P1 1.276253 1_555
O4 P0 2.076109 1_555
O5 P1 2.076109 1_555
F0 P1 2.094805 1_565
F1 P0 2.094805 1_545
