# generated using pymatgen
data_LiPd5O6
_symmetry_space_group_name_H-M   'P 1'
_cell_length_a   5.40914411
_cell_length_b   5.40914411
_cell_length_c   5.82662211
_cell_angle_alpha   77.67489361
_cell_angle_beta   77.67489361
_cell_angle_gamma   114.49153318
_symmetry_Int_Tables_number   1
_chemical_formula_structural   LiPd5O6
_chemical_formula_sum   'Li1 Pd5 O6'
_cell_volume   142.55587039
_cell_formula_units_Z   1
loop_
 _symmetry_equiv_pos_site_id
 _symmetry_equiv_pos_as_xyz
  1  'x, y, z'
loop_
 _atom_site_type_symbol
 _atom_site_label
 _atom_site_symmetry_multiplicity
 _atom_site_fract_x
 _atom_site_fract_y
 _atom_site_fract_z
 _atom_site_occupancy
  Li  Li0  1  0.00000000  0.00000000  0.50000000  1
  Pd  Pd0  1  0.50000000  0.50000000  0.00000000  1
  Pd  Pd1  1  0.66711700  0.33288300  0.50000000  1
  Pd  Pd2  1  0.33288300  0.66711700  0.50000000  1
  Pd  Pd3  1  0.82696000  0.17304000  0.00000000  1
  Pd  Pd4  1  0.17304000  0.82696000  0.00000000  1
  O  O0  1  0.77368800  0.77368800  0.19191300  1
  O  O1  1  0.22631200  0.22631200  0.80808700  1
  O  O2  1  0.47321300  0.14034500  0.27348400  1
  O  O3  1  0.52678700  0.85965500  0.72651600  1
  O  O4  1  0.85965500  0.52678700  0.72651600  1
  O  O5  1  0.14034500  0.47321300  0.27348400  1
loop_
_geom_bond_atom_site_label_1
_geom_bond_atom_site_label_2
_geom_bond_distance
_geom_bond_site_symmetry_2
Li0 O4 2.321435 1_445
Li0 O3 2.321435 1_445
Li0 O2 2.321435 1_555
Li0 O5 2.321435 1_555
Li0 O1 2.617886 1_555
Li0 O0 2.617886 1_445
O0 Pd3 2.077211 1_565
O0 Pd4 2.077211 1_655
O0 Pd0 2.286914 1_555
O0 Pd1 2.414805 1_555
O0 Pd2 2.414805 1_555
O1 Pd4 2.077211 1_546
O1 Pd3 2.077211 1_456
O1 Pd0 2.286914 1_556
O1 Pd1 2.414805 1_555
O1 Pd2 2.414805 1_555
O2 Pd1 2.049097 1_555
O2 Pd3 2.128204 1_555
O2 Pd0 2.165444 1_555
O2 Pd2 2.321524 1_545
O3 Pd2 2.049097 1_555
O3 Pd4 2.128204 1_556
O3 Pd0 2.165444 1_556
O3 Pd1 2.321524 1_565
O4 Pd1 2.049097 1_555
O4 Pd3 2.128204 1_556
O4 Pd0 2.165444 1_556
O4 Pd2 2.321524 1_655
O5 Pd2 2.049097 1_555
O5 Pd4 2.128204 1_555
O5 Pd0 2.165444 1_555
O5 Pd1 2.321524 1_455
