# generated using pymatgen
data_Ca9(FeN4)2
_symmetry_space_group_name_H-M   'P 1'
_cell_length_a   9.55673099
_cell_length_b   4.92554825
_cell_length_c   7.82054845
_cell_angle_alpha   89.99999883
_cell_angle_beta   69.40594016
_cell_angle_gamma   75.06632951
_symmetry_Int_Tables_number   1
_chemical_formula_structural   Ca9(FeN4)2
_chemical_formula_sum   'Ca9 Fe2 N8'
_cell_volume   331.28957138
_cell_formula_units_Z   1
loop_
 _symmetry_equiv_pos_site_id
 _symmetry_equiv_pos_as_xyz
  1  'x, y, z'
loop_
 _atom_site_type_symbol
 _atom_site_label
 _atom_site_symmetry_multiplicity
 _atom_site_fract_x
 _atom_site_fract_y
 _atom_site_fract_z
 _atom_site_occupancy
  Ca  Ca0  1  0.00000000  0.50000000  0.50000000  1
  Ca  Ca1  1  0.07613700  0.96193100  0.76563500  1
  Ca  Ca2  1  0.92386300  0.03806900  0.23436500  1
  Ca  Ca3  1  0.65362900  0.67318500  0.44852300  1
  Ca  Ca4  1  0.34637100  0.32681500  0.55147700  1
  Ca  Ca5  1  0.82408000  0.58796000  0.98375400  1
  Ca  Ca6  1  0.17592000  0.41204000  0.01624600  1
  Ca  Ca7  1  0.61197200  0.19401300  0.81888000  1
  Ca  Ca8  1  0.38802800  0.80598700  0.18112000  1
  Fe  Fe0  1  0.38703500  0.80648300  0.80087000  1
  Fe  Fe1  1  0.61296500  0.19351700  0.19913000  1
  N  N0  1  0.21832700  0.89083600  0.99898900  1
  N  N1  1  0.78167300  0.10916400  0.00101100  1
  N  N2  1  0.36387400  0.81806300  0.59137500  1
  N  N3  1  0.63612600  0.18193700  0.40862500  1
  N  N4  1  0.57324300  0.71337900  0.81057100  1
  N  N5  1  0.42675700  0.28662100  0.18942900  1
  N  N6  1  0.07278700  0.46360600  0.75307400  1
  N  N7  1  0.92721300  0.53639400  0.24692600  1
loop_
_geom_bond_atom_site_label_1
_geom_bond_atom_site_label_2
_geom_bond_distance
_geom_bond_site_symmetry_2
Ca0 N6 2.310279 1_555
Ca0 N7 2.310279 1_455
Ca1 N6 2.465375 1_565
Ca1 N6 2.465375 1_555
Ca1 N2 2.506055 1_555
Ca1 N0 2.607478 1_555
Ca1 N1 2.671626 1_466
Ca2 N7 2.465375 1_545
Ca2 N7 2.465375 1_555
Ca2 N3 2.506055 1_555
Ca2 N1 2.607478 1_555
Ca2 N0 2.671626 1_644
Ca3 N7 2.442906 1_555
Ca3 N3 2.495084 1_555
Ca3 N3 2.495088 1_565
Ca3 N2 2.496102 1_555
Ca3 N4 2.652862 1_555
Ca4 N6 2.442906 1_555
Ca4 N2 2.495084 1_555
Ca4 N2 2.495088 1_545
Ca4 N3 2.496102 1_555
Ca4 N5 2.652862 1_555
Ca5 N6 2.347811 1_655
Ca5 N1 2.489642 1_556
Ca5 N1 2.489647 1_566
Ca5 N7 2.563193 1_556
Ca5 N4 3.079488 1_555
Ca6 N7 2.347811 1_455
Ca6 N0 2.489642 1_554
Ca6 N0 2.489647 1_544
Ca6 N6 2.563193 1_554
Ca6 N5 3.079488 1_555
Ca7 N1 2.471721 1_556
Ca7 N4 2.492841 1_545
Ca7 N4 2.492855 1_555
Ca7 N5 2.777467 1_556
Ca7 N3 3.134117 1_555
Ca8 N0 2.471721 1_554
Ca8 N5 2.492841 1_565
Ca8 N5 2.492855 1_555
Ca8 N4 2.777467 1_554
Ca8 N2 3.134117 1_555
Fe0 N2 1.727743 1_555
Fe0 N4 1.748483 1_555
Fe0 N0 1.752178 1_555
Fe1 N3 1.727743 1_555
Fe1 N5 1.748483 1_555
Fe1 N1 1.752178 1_555
