# generated using pymatgen
data_CaMg
_symmetry_space_group_name_H-M   'P 1'
_cell_length_a   12.06885220
_cell_length_b   12.06885220
_cell_length_c   12.06885132
_cell_angle_alpha   35.28209338
_cell_angle_beta   35.28209338
_cell_angle_gamma   35.28209350
_symmetry_Int_Tables_number   1
_chemical_formula_structural   CaMg
_chemical_formula_sum   'Ca8 Mg8'
_cell_volume   523.91346190
_cell_formula_units_Z   8
loop_
 _symmetry_equiv_pos_site_id
 _symmetry_equiv_pos_as_xyz
  1  'x, y, z'
loop_
 _atom_site_type_symbol
 _atom_site_label
 _atom_site_symmetry_multiplicity
 _atom_site_fract_x
 _atom_site_fract_y
 _atom_site_fract_z
 _atom_site_occupancy
  Ca  Ca0_0  1  0.00000000  0.00000000  0.00000000  1
  Ca  Ca0_1  1  0.00000000  0.00000000  0.50000000  1
  Ca  Ca0_2  1  0.00000000  0.50000000  0.00000000  1
  Ca  Ca0_3  1  0.00000000  0.50000000  0.50000000  1
  Ca  Ca0_4  1  0.50000000  0.00000000  0.00000000  1
  Ca  Ca0_5  1  0.50000000  0.00000000  0.50000000  1
  Ca  Ca0_6  1  0.50000000  0.50000000  0.00000000  1
  Ca  Ca0_7  1  0.50000000  0.50000000  0.50000000  1
  Mg  Mg0_0  1  0.25000000  0.25000000  0.25000000  1
  Mg  Mg0_1  1  0.25000000  0.25000000  0.75000000  1
  Mg  Mg0_2  1  0.25000000  0.75000000  0.25000000  1
  Mg  Mg0_3  1  0.25000000  0.75000000  0.75000000  1
  Mg  Mg0_4  1  0.75000000  0.25000000  0.25000000  1
  Mg  Mg0_5  1  0.75000000  0.25000000  0.75000000  1
  Mg  Mg0_6  1  0.75000000  0.75000000  0.25000000  1
  Mg  Mg0_7  1  0.75000000  0.75000000  0.75000000  1
loop_
_geom_bond_atom_site_label_1
_geom_bond_atom_site_label_2
_geom_bond_distance
_geom_bond_site_symmetry_2
Ca0_0 Mg0_3 3.528158 1_544
Ca0_0 Mg0_2 3.528158 1_545
Ca0_0 Mg0_5 3.528158 1_454
Ca0_0 Mg0_4 3.528158 1_455
Ca0_0 Mg0_6 3.528158 1_445
Ca0_0 Mg0_1 3.528158 1_554
Ca0_0 Ca0_3 3.657498 1_545
Ca0_0 Ca0_5 3.657498 1_455
Ca0_0 Ca0_5 3.657498 1_554
Ca0_0 Ca0_3 3.657498 1_554
Ca0_0 Ca0_6 3.657498 1_545
Ca0_0 Ca0_6 3.657498 1_455
Ca0_1 Mg0_4 3.528158 1_455
Ca0_1 Mg0_2 3.528158 1_545
Ca0_1 Mg0_3 3.528158 1_545
Ca0_1 Mg0_5 3.528158 1_455
Ca0_1 Mg0_7 3.528158 1_445
Ca0_1 Mg0_0 3.528158 1_555
Ca0_1 Ca0_2 3.657498 1_555
Ca0_1 Ca0_4 3.657498 1_555
Ca0_1 Ca0_2 3.657498 1_546
Ca0_1 Ca0_4 3.657498 1_456
Ca0_1 Ca0_7 3.657498 1_545
Ca0_1 Ca0_7 3.657498 1_455
Ca0_2 Mg0_7 3.528158 1_454
Ca0_2 Mg0_1 3.528158 1_554
Ca0_2 Mg0_0 3.528158 1_555
Ca0_2 Mg0_6 3.528158 1_455
Ca0_2 Mg0_4 3.528158 1_455
Ca0_2 Mg0_3 3.528158 1_554
Ca0_2 Ca0_7 3.657498 1_554
Ca0_2 Ca0_7 3.657498 1_455
Ca0_2 Ca0_4 3.657498 1_555
Ca0_2 Ca0_4 3.657498 1_465
Ca0_3 Mg0_6 3.528158 1_455
Ca0_3 Mg0_1 3.528158 1_555
Ca0_3 Mg0_0 3.528158 1_555
Ca0_3 Mg0_7 3.528158 1_455
Ca0_3 Mg0_2 3.528158 1_555
Ca0_3 Mg0_5 3.528158 1_455
Ca0_3 Ca0_6 3.657498 1_555
Ca0_3 Ca0_6 3.657498 1_456
Ca0_3 Ca0_5 3.657498 1_555
Ca0_3 Ca0_5 3.657498 1_465
Ca0_4 Mg0_7 3.528158 1_544
Ca0_4 Mg0_1 3.528158 1_554
Ca0_4 Mg0_0 3.528158 1_555
Ca0_4 Mg0_6 3.528158 1_545
Ca0_4 Mg0_2 3.528158 1_545
Ca0_4 Mg0_5 3.528158 1_554
Ca0_4 Ca0_7 3.657498 1_545
Ca0_4 Ca0_7 3.657498 1_554
Ca0_5 Mg0_6 3.528158 1_545
Ca0_5 Mg0_0 3.528158 1_555
Ca0_5 Mg0_1 3.528158 1_555
Ca0_5 Mg0_7 3.528158 1_545
Ca0_5 Mg0_3 3.528158 1_545
Ca0_5 Mg0_4 3.528158 1_555
Ca0_5 Ca0_6 3.657498 1_555
Ca0_5 Ca0_6 3.657498 1_546
Ca0_6 Mg0_5 3.528158 1_554
Ca0_6 Mg0_3 3.528158 1_554
Ca0_6 Mg0_2 3.528158 1_555
Ca0_6 Mg0_4 3.528158 1_555
Ca0_6 Mg0_0 3.528158 1_555
Ca0_6 Mg0_7 3.528158 1_554
Ca0_7 Mg0_4 3.528158 1_555
Ca0_7 Mg0_2 3.528158 1_555
Ca0_7 Mg0_3 3.528158 1_555
Ca0_7 Mg0_5 3.528158 1_555
Ca0_7 Mg0_1 3.528158 1_555
Ca0_7 Mg0_6 3.528158 1_555
