# generated using pymatgen
data_Fe2SiP
_symmetry_space_group_name_H-M   'P 1'
_cell_length_a   2.95421300
_cell_length_b   5.25936700
_cell_length_c   5.89828500
_cell_angle_alpha   90.00000000
_cell_angle_beta   90.00000000
_cell_angle_gamma   90.00000000
_symmetry_Int_Tables_number   1
_chemical_formula_structural   Fe2SiP
_chemical_formula_sum   'Fe4 Si2 P2'
_cell_volume   91.64336669
_cell_formula_units_Z   2
loop_
 _symmetry_equiv_pos_site_id
 _symmetry_equiv_pos_as_xyz
  1  'x, y, z'
loop_
 _atom_site_type_symbol
 _atom_site_label
 _atom_site_symmetry_multiplicity
 _atom_site_fract_x
 _atom_site_fract_y
 _atom_site_fract_z
 _atom_site_occupancy
  Fe  Fe0  1  0.75000000  0.49793800  0.69248500  1
  Fe  Fe1  1  0.75000000  0.99793800  0.80751500  1
  Fe  Fe2  1  0.25000000  0.50139200  0.29823500  1
  Fe  Fe3  1  0.25000000  0.00139200  0.20176500  1
  Si  Si0  1  0.25000000  0.68575400  0.93709300  1
  Si  Si1  1  0.25000000  0.18575400  0.56290700  1
  P  P0  1  0.75000000  0.31491600  0.06059100  1
  P  P1  1  0.75000000  0.81491600  0.43940900  1
loop_
_geom_bond_atom_site_label_1
_geom_bond_atom_site_label_2
_geom_bond_distance
_geom_bond_site_symmetry_2
Fe0 P1 2.237729 1_555
Fe0 Si0 2.288921 1_655
Fe0 Si0 2.288921 1_555
Fe0 Si1 2.337046 1_555
Fe0 Si1 2.337046 1_655
Fe0 P0 2.375004 1_556
Fe1 P0 2.237729 1_566
Fe1 Si1 2.288921 1_565
Fe1 Si1 2.288921 1_665
Fe1 Si0 2.337046 1_655
Fe1 Si0 2.337046 1_555
Fe1 P1 2.375004 1_555
Fe2 P0 2.260187 1_555
Fe2 P0 2.260187 1_455
Fe2 Si1 2.278783 1_555
Fe2 Si0 2.340423 1_554
Fe2 P1 2.365207 1_455
Fe2 P1 2.365207 1_555
Fe3 P1 2.260187 1_445
Fe3 P1 2.260187 1_545
Fe3 Si0 2.278783 1_544
Fe3 Si1 2.340423 1_555
Fe3 P0 2.365207 1_555
Fe3 P0 2.365207 1_455
P0 Si0 2.552725 1_554
P0 Si0 2.552725 1_654
P1 Si1 2.552725 1_565
P1 Si1 2.552725 1_665
