# generated using pymatgen
data_LiLa4CuO8
_symmetry_space_group_name_H-M   'P 1'
_cell_length_a   7.03221085
_cell_length_b   7.03221085
_cell_length_c   7.56149593
_cell_angle_alpha   74.43248294
_cell_angle_beta   74.43248294
_cell_angle_gamma   31.48770029
_symmetry_Int_Tables_number   1
_chemical_formula_structural   LiLa4CuO8
_chemical_formula_sum   'Li1 La4 Cu1 O8'
_cell_volume   187.56382342
_cell_formula_units_Z   1
loop_
 _symmetry_equiv_pos_site_id
 _symmetry_equiv_pos_as_xyz
  1  'x, y, z'
loop_
 _atom_site_type_symbol
 _atom_site_label
 _atom_site_symmetry_multiplicity
 _atom_site_fract_x
 _atom_site_fract_y
 _atom_site_fract_z
 _atom_site_occupancy
  Li  Li0  1  0.00000000  0.00000000  0.00000000  1
  La  La0  1  0.36150700  0.36150700  0.30979700  1
  La  La1  1  0.36429000  0.36429000  0.82681500  1
  La  La2  1  0.63849300  0.63849300  0.69020300  1
  La  La3  1  0.63571000  0.63571000  0.17318500  1
  Cu  Cu0  1  0.00000000  0.00000000  0.50000000  1
  O  O0  1  0.99893300  0.99893300  0.25932400  1
  O  O1  1  0.00106700  0.00106700  0.74067600  1
  O  O2  1  0.50000000  0.50000000  0.00000000  1
  O  O3  1  0.50000000  0.50000000  0.50000000  1
  O  O4  1  0.18063300  0.18063300  0.40845300  1
  O  O5  1  0.18162700  0.18162700  0.91010200  1
  O  O6  1  0.81936700  0.81936700  0.59154700  1
  O  O7  1  0.81837300  0.81837300  0.08989800  1
loop_
_geom_bond_atom_site_label_1
_geom_bond_atom_site_label_2
_geom_bond_distance
_geom_bond_site_symmetry_2
Li0 O2 1.908100 1_455
Li0 O2 1.908100 1_545
Li0 O0 1.956899 1_445
Li0 O1 1.956899 1_554
Li0 O5 2.361141 1_554
Li0 O7 2.361141 1_445
La0 O4 2.352196 1_555
La0 O2 2.559891 1_555
La0 O0 2.617500 1_545
La0 O0 2.617500 1_455
La0 O3 2.662105 1_555
La0 O7 2.699629 1_455
La0 O7 2.699629 1_545
La0 O6 2.797738 1_545
La0 O6 2.797738 1_455
La1 O5 2.375352 1_555
La1 O2 2.536008 1_556
La1 O1 2.611645 1_655
La1 O1 2.611645 1_565
La1 O3 2.636290 1_555
La1 O7 2.700919 1_456
La1 O7 2.700919 1_546
La1 O6 2.789033 1_455
La1 O6 2.789033 1_545
La2 O6 2.352196 1_555
La2 O2 2.559891 1_556
La2 O1 2.617500 1_565
La2 O1 2.617500 1_655
La2 O3 2.662105 1_555
La2 O5 2.699629 1_565
La2 O5 2.699629 1_655
La2 O4 2.797738 1_655
La2 O4 2.797738 1_565
La3 O7 2.375352 1_555
La3 O2 2.536008 1_555
La3 O0 2.611645 1_455
La3 O0 2.611645 1_545
La3 O3 2.636290 1_555
La3 O5 2.700919 1_654
La3 O5 2.700919 1_564
La3 O4 2.789033 1_565
La3 O4 2.789033 1_655
Cu0 O1 1.823951 1_555
Cu0 O0 1.823951 1_445
Cu0 O3 1.908100 1_545
Cu0 O3 1.908100 1_455
Cu0 O4 2.348235 1_555
Cu0 O6 2.348235 1_445
