# generated using pymatgen
data_DyLu3
_symmetry_space_group_name_H-M   'P 1'
_cell_length_a   7.09902857
_cell_length_b   7.09902869
_cell_length_c   5.47407562
_cell_angle_alpha   90.00000196
_cell_angle_beta   89.99999745
_cell_angle_gamma   120.00005965
_symmetry_Int_Tables_number   1
_chemical_formula_structural   DyLu3
_chemical_formula_sum   'Dy2 Lu6'
_cell_volume   238.91258026
_cell_formula_units_Z   2
loop_
 _symmetry_equiv_pos_site_id
 _symmetry_equiv_pos_as_xyz
  1  'x, y, z'
loop_
 _atom_site_type_symbol
 _atom_site_label
 _atom_site_symmetry_multiplicity
 _atom_site_fract_x
 _atom_site_fract_y
 _atom_site_fract_z
 _atom_site_occupancy
  Dy  Dy0  1  0.33333430  0.66666752  0.75000101  1
  Dy  Dy1  1  0.66666801  0.33333353  0.25000099  1
  Lu  Lu0  1  0.16608586  0.33217238  0.25000095  1
  Lu  Lu1  1  0.66782896  0.83391512  0.25000088  1
  Lu  Lu2  1  0.16608635  0.83391438  0.25000098  1
  Lu  Lu3  1  0.83391657  0.66783191  0.75000113  1
  Lu  Lu4  1  0.33216841  0.16608453  0.75000103  1
  Lu  Lu5  1  0.83391555  0.16608462  0.75000104  1
loop_
_geom_bond_atom_site_label_1
_geom_bond_atom_site_label_2
_geom_bond_distance
_geom_bond_site_symmetry_2
Dy0 Lu1 3.423502 1_556
Dy0 Lu1 3.423503 1_555
Dy0 Lu2 3.423504 1_556
Dy0 Lu0 3.423504 1_556
Dy0 Lu2 3.423504 1_555
Dy0 Lu0 3.423504 1_555
Dy0 Lu5 3.549512 1_565
Dy0 Lu3 3.549521 1_455
Dy0 Lu4 3.549521 1_565
Dy0 Lu4 3.549522 1_555
Dy0 Lu3 3.549522 1_555
Dy0 Lu5 3.549524 1_455
Dy1 Lu5 3.423510 1_554
Dy1 Lu5 3.423510 1_555
Dy1 Lu3 3.423516 1_554
Dy1 Lu3 3.423517 1_555
Dy1 Lu4 3.423521 1_554
Dy1 Lu4 3.423521 1_555
Dy1 Lu0 3.549510 1_655
Dy1 Lu1 3.549514 1_545
Dy1 Lu2 3.549515 1_655
Dy1 Lu2 3.549521 1_545
Dy1 Lu1 3.549529 1_555
Dy1 Lu0 3.549533 1_555
Lu0 Lu5 3.414937 1_454
Lu0 Lu5 3.414938 1_455
Lu0 Lu4 3.414939 1_554
Lu0 Lu4 3.414940 1_555
Lu0 Lu1 3.537138 1_445
Lu0 Lu2 3.537150 1_545
Lu0 Lu2 3.561879 1_555
Lu0 Lu1 3.561884 1_555
Lu1 Lu5 3.414934 1_564
Lu1 Lu5 3.414935 1_565
Lu1 Lu3 3.414940 1_554
Lu1 Lu3 3.414942 1_555
Lu1 Lu2 3.537146 1_655
Lu1 Lu2 3.561882 1_555
Lu2 Lu3 3.414935 1_454
Lu2 Lu3 3.414936 1_455
Lu2 Lu4 3.414937 1_564
Lu2 Lu4 3.414937 1_565
Lu3 Lu4 3.537104 1_665
Lu3 Lu5 3.537114 1_565
Lu3 Lu5 3.561915 1_555
Lu3 Lu4 3.561919 1_555
Lu4 Lu5 3.537112 1_455
Lu4 Lu5 3.561917 1_555
