# generated using pymatgen
data_KEuZr4O12
_symmetry_space_group_name_H-M   'P 1'
_cell_length_a   5.80215694
_cell_length_b   5.80215694
_cell_length_c   8.46359513
_cell_angle_alpha   90.00000000
_cell_angle_beta   90.00000000
_cell_angle_gamma   89.60256420
_symmetry_Int_Tables_number   1
_chemical_formula_structural   KEuZr4O12
_chemical_formula_sum   'K1 Eu1 Zr4 O12'
_cell_volume   284.92028866
_cell_formula_units_Z   1
loop_
 _symmetry_equiv_pos_site_id
 _symmetry_equiv_pos_as_xyz
  1  'x, y, z'
loop_
 _atom_site_type_symbol
 _atom_site_label
 _atom_site_symmetry_multiplicity
 _atom_site_fract_x
 _atom_site_fract_y
 _atom_site_fract_z
 _atom_site_occupancy
  K  K0  1  0.97595056  0.02404944  -0.00000000  1
  Eu  Eu0  1  0.52043858  0.47956142  0.50000000  1
  Zr  Zr0  1  0.48968154  0.98912551  0.23660509  1
  Zr  Zr1  1  0.48968154  0.98912551  0.76339491  1
  Zr  Zr2  1  0.01087449  0.51031846  0.76339491  1
  Zr  Zr3  1  0.01087449  0.51031846  0.23660509  1
  O  O0  1  0.20854970  0.20928413  0.25957258  1
  O  O1  1  0.79071587  0.79145030  0.25957258  1
  O  O2  1  0.79071587  0.79145030  0.74042742  1
  O  O3  1  0.20854970  0.20928413  0.74042742  1
  O  O4  1  0.31082886  0.68917114  0.31229172  1
  O  O5  1  0.70031015  0.29968985  0.21991120  1
  O  O6  1  0.70031015  0.29968985  0.78008880  1
  O  O7  1  0.31082886  0.68917114  0.68770828  1
  O  O8  1  0.45891757  0.94707329  -0.00000000  1
  O  O9  1  0.53217341  0.07792806  0.50000000  1
  O  O10  1  0.05292671  0.54108243  0.00000000  1
  O  O11  1  0.92207194  0.46782659  0.50000000  1
loop_
_geom_bond_atom_site_label_1
_geom_bond_atom_site_label_2
_geom_bond_distance
_geom_bond_site_symmetry_2
K0 O1 2.796969 1_545
K0 O2 2.796969 1_544
K0 O0 2.796969 1_655
K0 O3 2.796969 1_654
K0 O10 2.834558 1_645
K0 O8 2.834558 1_645
K0 O5 2.923064 1_555
K0 O6 2.923064 1_554
K0 O8 3.036034 1_545
K0 O10 3.036034 1_655
Eu0 O11 2.330862 1_555
Eu0 O9 2.330862 1_555
Eu0 O7 2.337014 1_555
Eu0 O4 2.337014 1_555
Eu0 O6 2.789770 1_555
Eu0 O5 2.789770 1_555
O0 Zr0 2.073966 1_545
O0 Zr3 2.091949 1_555
O1 Zr3 2.073966 1_655
O1 Zr0 2.091949 1_555
O2 Zr2 2.073966 1_655
O2 Zr1 2.091949 1_555
O3 Zr1 2.073966 1_545
O3 Zr2 2.091949 1_555
O4 Zr3 2.131013 1_555
O4 Zr0 2.131013 1_555
O5 Zr0 2.188845 1_545
O5 Zr3 2.188845 1_655
O6 Zr1 2.188845 1_545
O6 Zr2 2.188845 1_655
O7 Zr2 2.131013 1_555
O7 Zr1 2.131013 1_555
O8 Zr1 2.025370 1_554
O8 Zr0 2.025370 1_555
O9 Zr0 2.301665 1_545
O9 Zr1 2.301665 1_545
O10 Zr2 2.025370 1_554
O10 Zr3 2.025370 1_555
O11 Zr2 2.301665 1_655
O11 Zr3 2.301665 1_655
