# generated using pymatgen
data_AlSnF5
_symmetry_space_group_name_H-M   'P 1'
_cell_length_a   5.68309907
_cell_length_b   5.68309907
_cell_length_c   5.68309907
_cell_angle_alpha   140.89992944
_cell_angle_beta   106.28367943
_cell_angle_gamma   86.76456832
_symmetry_Int_Tables_number   1
_chemical_formula_structural   AlSnF5
_chemical_formula_sum   'Al1 Sn1 F5'
_cell_volume   107.10758984
_cell_formula_units_Z   1
loop_
 _symmetry_equiv_pos_site_id
 _symmetry_equiv_pos_as_xyz
  1  'x, y, z'
loop_
 _atom_site_type_symbol
 _atom_site_label
 _atom_site_symmetry_multiplicity
 _atom_site_fract_x
 _atom_site_fract_y
 _atom_site_fract_z
 _atom_site_occupancy
  Al  Al0  1  0.50000000  0.50000000  0.00000000  1
  Sn  Sn0  1  0.00000000  0.00000000  0.00000000  1
  F  F0  1  0.77163700  0.50000000  0.27163700  1
  F  F1  1  0.22836300  0.50000000  0.72836300  1
  F  F2  1  0.28302700  0.28302700  0.00000000  1
  F  F3  1  0.71697300  0.71697300  0.00000000  1
  F  F4  1  0.50000000  0.00000000  0.50000000  1
loop_
_geom_bond_atom_site_label_1
_geom_bond_atom_site_label_2
_geom_bond_distance
_geom_bond_site_symmetry_2
Al0 F3 1.792372 1_555
Al0 F2 1.792372 1_555
Al0 F0 1.851982 1_555
Al0 F1 1.851982 1_554
Al0 F4 1.901735 1_565
Al0 F4 1.901735 1_554
F0 Sn0 2.457779 1_655
F0 Sn0 2.457779 1_666
F1 Sn0 2.457779 1_566
F1 Sn0 2.457779 1_555
F2 Sn0 2.338031 1_555
F3 Sn0 2.338031 1_665
