# generated using pymatgen
data_Pr2AlSi
_symmetry_space_group_name_H-M   'P 1'
_cell_length_a   6.13017662
_cell_length_b   6.13017662
_cell_length_c   4.12698231
_cell_angle_alpha   90.00000000
_cell_angle_beta   90.00000000
_cell_angle_gamma   136.69448908
_symmetry_Int_Tables_number   1
_chemical_formula_structural   Pr2AlSi
_chemical_formula_sum   'Pr2 Al1 Si1'
_cell_volume   106.37314718
_cell_formula_units_Z   1
loop_
 _symmetry_equiv_pos_site_id
 _symmetry_equiv_pos_as_xyz
  1  'x, y, z'
loop_
 _atom_site_type_symbol
 _atom_site_label
 _atom_site_symmetry_multiplicity
 _atom_site_fract_x
 _atom_site_fract_y
 _atom_site_fract_z
 _atom_site_occupancy
  Pr  Pr0  1  0.35859531  0.64140469  0.00000000  1
  Pr  Pr1  1  0.64416920  0.35583080  0.50000000  1
  Al  Al0  1  0.06563981  0.93436019  -0.00000000  1
  Si  Si0  1  0.93159569  0.06840431  0.50000000  1
loop_
_geom_bond_atom_site_label_1
_geom_bond_atom_site_label_2
_geom_bond_distance
_geom_bond_site_symmetry_2
Pr0 Si0 3.172734 1_455
Pr0 Si0 3.172734 1_454
Pr0 Si0 3.172734 1_565
Pr0 Si0 3.172734 1_564
Pr1 Si0 3.275290 1_555
Pr1 Si0 3.314199 1_565
Pr1 Si0 3.314199 1_455
Al0 Si0 2.567322 1_465
Al0 Si0 2.567322 1_464
Al0 Pr1 3.189833 1_455
Al0 Pr1 3.189833 1_454
Al0 Pr1 3.189833 1_565
Al0 Pr1 3.189833 1_564
Al0 Pr0 3.268432 1_455
Al0 Pr0 3.268432 1_565
Al0 Pr0 3.338295 1_555
