# generated using pymatgen
data_Be13Re
_symmetry_space_group_name_H-M   'P 1'
_cell_length_a   9.56583529
_cell_length_b   9.56583529
_cell_length_c   9.56583529
_cell_angle_alpha   60.00000000
_cell_angle_beta   60.00000000
_cell_angle_gamma   60.00000000
_symmetry_Int_Tables_number   1
_chemical_formula_structural   Be13Re
_chemical_formula_sum   'Be52 Re4'
_cell_volume   618.94733585
_cell_formula_units_Z   4
loop_
 _symmetry_equiv_pos_site_id
 _symmetry_equiv_pos_as_xyz
  1  'x, y, z'
loop_
 _atom_site_type_symbol
 _atom_site_label
 _atom_site_symmetry_multiplicity
 _atom_site_fract_x
 _atom_site_fract_y
 _atom_site_fract_z
 _atom_site_occupancy
  Be  Be0  1  0.50000000  0.50000000  0.50000000  1
  Be  Be1  1  0.75000000  0.75000000  0.75000000  1
  Be  Be2  1  0.73704100  0.50538800  0.50538800  1
  Be  Be3  1  0.50538800  0.73704100  0.25218200  1
  Be  Be4  1  0.50538800  0.25218200  0.73704100  1
  Be  Be5  1  0.50538800  0.73704100  0.50538800  1
  Be  Be6  1  0.51295900  0.74461200  0.99781800  1
  Be  Be7  1  0.51295900  0.74461200  0.74461200  1
  Be  Be8  1  0.25218200  0.50538800  0.50538800  1
  Be  Be9  1  0.25218200  0.50538800  0.73704100  1
  Be  Be10  1  0.74461200  0.51295900  0.74461200  1
  Be  Be11  1  0.74461200  0.51295900  0.99781800  1
  Be  Be12  1  0.73704100  0.50538800  0.25218200  1
  Be  Be13  1  0.74461200  0.99781800  0.74461200  1
  Be  Be14  1  0.74461200  0.99781800  0.51295900  1
  Be  Be15  1  0.50538800  0.25218200  0.50538800  1
  Be  Be16  1  0.99781800  0.74461200  0.51295900  1
  Be  Be17  1  0.99781800  0.74461200  0.74461200  1
  Be  Be18  1  0.50538800  0.50538800  0.73704100  1
  Be  Be19  1  0.25218200  0.73704100  0.50538800  1
  Be  Be20  1  0.50538800  0.50538800  0.25218200  1
  Be  Be21  1  0.73704100  0.25218200  0.50538800  1
  Be  Be22  1  0.99781800  0.51295900  0.74461200  1
  Be  Be23  1  0.74461200  0.74461200  0.51295900  1
  Be  Be24  1  0.51295900  0.99781800  0.74461200  1
  Be  Be25  1  0.74461200  0.74461200  0.99781800  1
  Be  Be26  1  0.00000000  0.00000000  0.00000000  1
  Be  Be27  1  0.25000000  0.25000000  0.25000000  1
  Be  Be28  1  0.24874700  0.24874700  0.85835500  1
  Be  Be29  1  0.24874700  0.24874700  0.64415000  1
  Be  Be30  1  0.85835500  0.64415000  0.24874700  1
  Be  Be31  1  0.85835500  0.24874700  0.24874700  1
  Be  Be32  1  0.00125300  0.00125300  0.60585000  1
  Be  Be33  1  0.00125300  0.00125300  0.39164500  1
  Be  Be34  1  0.64415000  0.85835500  0.24874700  1
  Be  Be35  1  0.64415000  0.24874700  0.24874700  1
  Be  Be36  1  0.24874700  0.85835500  0.64415000  1
  Be  Be37  1  0.39164500  0.60585000  0.00125300  1
  Be  Be38  1  0.24874700  0.64415000  0.85835500  1
  Be  Be39  1  0.60585000  0.39164500  0.00125300  1
  Be  Be40  1  0.24874700  0.85835500  0.24874700  1
  Be  Be41  1  0.39164500  0.00125300  0.60585000  1
  Be  Be42  1  0.39164500  0.00125300  0.00125300  1
  Be  Be43  1  0.64415000  0.24874700  0.85835500  1
  Be  Be44  1  0.00125300  0.39164500  0.00125300  1
  Be  Be45  1  0.00125300  0.39164500  0.60585000  1
  Be  Be46  1  0.85835500  0.24874700  0.64415000  1
  Be  Be47  1  0.00125300  0.60585000  0.00125300  1
  Be  Be48  1  0.00125300  0.60585000  0.39164500  1
  Be  Be49  1  0.24874700  0.64415000  0.24874700  1
  Be  Be50  1  0.60585000  0.00125300  0.39164500  1
  Be  Be51  1  0.60585000  0.00125300  0.00125300  1
  Re  Re0  1  0.12500000  0.12500000  0.12500000  1
  Re  Re1  1  0.12500000  0.12500000  0.62500000  1
  Re  Re2  1  0.12500000  0.62500000  0.12500000  1
  Re  Re3  1  0.62500000  0.12500000  0.12500000  1
loop_
_geom_bond_atom_site_label_1
_geom_bond_atom_site_label_2
_geom_bond_distance
_geom_bond_site_symmetry_2
Be0 Be18 2.320181 1_555
Be0 Be2 2.320181 1_555
Be0 Be5 2.320181 1_555
Be0 Be21 2.320186 1_555
Be0 Be12 2.320186 1_555
Be0 Be9 2.320186 1_555
Be0 Be19 2.320186 1_555
Be0 Be3 2.320186 1_555
Be0 Be4 2.320186 1_555
Be0 Be20 2.320191 1_555
Be0 Be15 2.320191 1_555
Be0 Be8 2.320191 1_555
Be1 Be23 2.320181 1_555
Be1 Be7 2.320181 1_555
Be1 Be10 2.320181 1_555
Be1 Be11 2.320186 1_555
Be1 Be14 2.320186 1_555
Be1 Be6 2.320186 1_555
Be1 Be24 2.320186 1_555
Be1 Be22 2.320186 1_555
Be1 Be16 2.320186 1_555
Be1 Be25 2.320191 1_555
Be1 Be13 2.320191 1_555
Be1 Be17 2.320191 1_555
Be2 Be30 2.137364 1_555
Be2 Be46 2.137364 1_555
Be2 Be5 2.215954 1_555
Be2 Be23 2.363021 1_555
Be2 Be21 2.422127 1_555
Be3 Be40 2.137364 1_555
Be3 Be34 2.137364 1_555
Be3 Be6 2.363002 1_554
Be3 Be5 2.422127 1_555
Be4 Be43 2.137364 1_555
Be4 Be9 2.422127 1_555
Be5 Be7 2.363021 1_555
Be6 Be7 2.422127 1_555
Be8 Be9 2.215954 1_555
Be10 Be45 2.137364 1_655
Be10 Be39 2.137364 1_556
Be10 Be7 2.215954 1_555
Be10 Be23 2.215954 1_555
Be10 Be2 2.363021 1_555
Be10 Be18 2.363021 1_555
Be10 Be22 2.422127 1_555
Be10 Be11 2.422127 1_555
Be11 Be44 2.137364 1_656
Be11 Be39 2.137364 1_556
Be11 Be25 2.215954 1_555
Be11 Be6 2.215954 1_555
Be11 Be12 2.363002 1_556
Be11 Be20 2.363011 1_556
Be11 Be22 2.422127 1_555
Be12 Be31 2.137364 1_555
Be12 Be30 2.137364 1_555
Be12 Be3 2.215954 1_555
Be12 Be20 2.215954 1_555
Be12 Be25 2.363011 1_554
Be12 Be21 2.422127 1_555
Be12 Be2 2.422127 1_555
Be13 Be32 2.137364 1_665
Be13 Be51 2.137364 1_566
Be13 Be24 2.215954 1_555
Be13 Be14 2.215954 1_555
Be13 Be21 2.363011 1_565
Be13 Be4 2.363011 1_565
Be13 Be25 2.422127 1_555
Be13 Be17 2.422127 1_555
Be14 Be33 2.137364 1_665
Be14 Be50 2.137364 1_565
Be14 Be24 2.215954 1_555
Be14 Be21 2.363002 1_565
Be14 Be15 2.363011 1_565
Be14 Be16 2.422127 1_555
Be14 Be23 2.422127 1_555
Be15 Be29 2.137364 1_555
Be15 Be35 2.137364 1_555
Be15 Be4 2.215954 1_555
Be15 Be21 2.215954 1_555
Be15 Be24 2.363011 1_545
Be15 Be20 2.422127 1_555
Be15 Be8 2.422127 1_555
Be16 Be33 2.137364 1_665
Be16 Be48 2.137364 1_655
Be16 Be17 2.215954 1_555
Be16 Be22 2.215954 1_555
Be16 Be19 2.363002 1_655
Be16 Be8 2.363011 1_655
Be16 Be23 2.422127 1_555
Be17 Be32 2.137364 1_665
Be17 Be47 2.137364 1_656
Be17 Be22 2.215954 1_555
Be17 Be19 2.363011 1_655
Be17 Be9 2.363011 1_655
Be17 Be25 2.422127 1_555
Be18 Be43 2.137364 1_555
Be18 Be38 2.137364 1_555
Be18 Be2 2.215954 1_555
Be18 Be5 2.215954 1_555
Be18 Be7 2.363021 1_555
Be18 Be9 2.422127 1_555
Be18 Be4 2.422127 1_555
Be19 Be40 2.137364 1_555
Be19 Be36 2.137364 1_555
Be19 Be8 2.215954 1_555
Be19 Be9 2.215954 1_555
Be19 Be5 2.422127 1_555
Be19 Be3 2.422127 1_555
Be20 Be35 2.137364 1_555
Be20 Be49 2.137364 1_555
Be20 Be3 2.215954 1_555
Be20 Be6 2.363011 1_554
Be20 Be8 2.422127 1_555
Be21 Be31 2.137364 1_555
Be21 Be46 2.137364 1_555
Be21 Be4 2.215954 1_555
Be22 Be44 2.137364 1_656
Be22 Be45 2.137364 1_655
Be22 Be9 2.363002 1_655
Be22 Be8 2.363011 1_655
Be23 Be50 2.137364 1_565
Be23 Be48 2.137364 1_655
Be23 Be7 2.215954 1_555
Be23 Be5 2.363021 1_555
Be24 Be42 2.137364 1_566
Be24 Be41 2.137364 1_565
Be24 Be4 2.363002 1_565
Be24 Be6 2.422127 1_555
Be24 Be7 2.422127 1_555
Be25 Be51 2.137364 1_566
Be25 Be47 2.137364 1_656
Be25 Be6 2.215954 1_555
Be25 Be3 2.363011 1_556
Be26 Re3 2.928927 1_455
Be26 Re2 2.928927 1_545
Be26 Re0 2.928927 1_555
Be26 Re1 2.928927 1_554
Be27 Re3 2.928927 1_555
Be27 Re1 2.928927 1_555
Be27 Re0 2.928927 1_555
Be27 Re2 2.928927 1_555
Be28 Be29 2.049050 1_555
Be28 Be9 2.137364 1_555
Be28 Be4 2.137364 1_555
Be28 Re0 2.161254 1_556
Be28 Be44 2.176727 1_556
Be28 Be42 2.176727 1_556
Be29 Be8 2.137364 1_555
Be29 Re1 2.161248 1_555
Be29 Be41 2.176719 1_555
Be29 Be45 2.176719 1_555
Be30 Be34 2.049050 1_555
Be30 Re2 2.161256 1_655
Be30 Be47 2.176719 1_655
Be30 Be48 2.176736 1_655
Be31 Be35 2.049050 1_555
Be31 Re0 2.161254 1_655
Be31 Be44 2.176727 1_655
Be31 Be33 2.176727 1_655
Be32 Be33 2.049050 1_555
Be32 Re1 2.161248 1_555
Be32 Be46 2.176719 1_455
Be32 Be36 2.176719 1_545
Be33 Re0 2.161254 1_555
Be33 Be40 2.176727 1_545
Be34 Be5 2.137364 1_555
Be34 Re3 2.161256 1_565
Be34 Be51 2.176719 1_565
Be34 Be50 2.176736 1_565
Be35 Re3 2.161248 1_555
Be35 Be50 2.176719 1_555
Be35 Be39 2.176719 1_555
Be36 Be38 2.049050 1_555
Be36 Be5 2.137364 1_555
Be36 Re1 2.161256 1_565
Be36 Be41 2.176736 1_565
Be37 Be39 2.049050 1_555
Be37 Be7 2.137364 1_554
Be37 Be6 2.137364 1_554
Be37 Re2 2.161256 1_555
Be37 Be49 2.176719 1_555
Be37 Be38 2.176736 1_554
Be38 Be9 2.137364 1_555
Be38 Re2 2.161256 1_556
Be38 Be47 2.176719 1_556
Be39 Re3 2.161256 1_555
Be39 Be43 2.176736 1_554
Be40 Be49 2.049050 1_555
Be40 Re0 2.161254 1_565
Be40 Be42 2.176727 1_565
Be41 Be50 2.049050 1_555
Be41 Be7 2.137364 1_545
Be41 Re1 2.161256 1_555
Be42 Be51 2.049050 1_555
Be42 Be6 2.137364 1_544
Be42 Re0 2.161254 1_555
Be43 Be46 2.049050 1_555
Be43 Re3 2.161256 1_556
Be43 Be51 2.176719 1_556
Be44 Be47 2.049050 1_555
Be44 Re0 2.161254 1_555
Be45 Be48 2.049050 1_555
Be45 Re1 2.161256 1_555
Be45 Be46 2.176736 1_455
Be46 Re1 2.161256 1_655
Be47 Re2 2.161248 1_555
Be48 Re2 2.161256 1_555
Be48 Be49 2.176719 1_555
Be49 Be8 2.137364 1_555
Be49 Re2 2.161248 1_555
Be50 Re3 2.161256 1_555
Be51 Re3 2.161248 1_555
