# generated using pymatgen
data_CeMg14Al
_symmetry_space_group_name_H-M   'P 1'
_cell_length_a   6.51273447
_cell_length_b   6.41742405
_cell_length_c   10.33730448
_cell_angle_alpha   90.00000000
_cell_angle_beta   90.00000000
_cell_angle_gamma   119.51707049
_symmetry_Int_Tables_number   1
_chemical_formula_structural   CeMg14Al
_chemical_formula_sum   'Ce1 Mg14 Al1'
_cell_volume   375.97153220
_cell_formula_units_Z   1
loop_
 _symmetry_equiv_pos_site_id
 _symmetry_equiv_pos_as_xyz
  1  'x, y, z'
loop_
 _atom_site_type_symbol
 _atom_site_label
 _atom_site_symmetry_multiplicity
 _atom_site_fract_x
 _atom_site_fract_y
 _atom_site_fract_z
 _atom_site_occupancy
  Ce  Ce0  1  0.15743075  0.82871487  0.12500000  1
  Mg  Mg0  1  0.16187000  0.33093450  0.62500000  1
  Mg  Mg1  1  0.16640039  0.83319970  0.62500000  1
  Mg  Mg2  1  0.65290835  0.33573566  0.12500000  1
  Mg  Mg3  1  0.66592187  0.32947586  0.62500000  1
  Mg  Mg4  1  0.65290835  0.81717169  0.12500000  1
  Mg  Mg5  1  0.66592187  0.83644501  0.62500000  1
  Mg  Mg6  1  0.33559972  0.17258209  0.37936055  1
  Mg  Mg7  1  0.33559972  0.17258209  0.87063945  1
  Mg  Mg8  1  0.33559972  0.66301863  0.37936055  1
  Mg  Mg9  1  0.33559972  0.66301863  0.87063945  1
  Mg  Mg10  1  0.84135598  0.17067849  0.35984108  1
  Mg  Mg11  1  0.84135598  0.17067849  0.89015892  1
  Mg  Mg12  1  0.83041580  0.66520840  0.38458445  1
  Mg  Mg13  1  0.83041580  0.66520840  0.86541555  1
  Al  Al0  1  0.19069599  0.34534750  0.12500000  1
loop_
_geom_bond_atom_site_label_1
_geom_bond_atom_site_label_2
_geom_bond_distance
_geom_bond_site_symmetry_2
Ce0 Mg2 3.249963 1_455
Ce0 Mg4 3.249963 1_455
Ce0 Mg8 3.256796 1_555
Ce0 Mg9 3.256796 1_554
Ce0 Mg6 3.256802 1_565
Ce0 Mg7 3.256802 1_564
Ce0 Mg13 3.261214 1_454
Ce0 Mg12 3.261214 1_455
Ce0 Mg2 3.264047 1_565
Ce0 Mg4 3.264047 1_555
Mg0 Mg6 3.145417 1_555
Mg0 Mg7 3.145417 1_555
Mg0 Mg8 3.145423 1_555
Mg0 Mg9 3.145423 1_555
Mg0 Mg1 3.208815 1_545
Mg0 Mg1 3.208815 1_555
Mg0 Mg5 3.225377 1_445
Mg0 Mg3 3.225377 1_455
Mg0 Mg5 3.287378 1_555
Mg0 Mg3 3.287378 1_555
Mg0 Mg11 3.288296 1_455
Mg0 Mg10 3.288296 1_455
Mg1 Mg12 3.130868 1_455
Mg1 Mg13 3.130868 1_455
Mg1 Mg9 3.168702 1_555
Mg1 Mg8 3.168702 1_555
Mg1 Mg6 3.168709 1_565
Mg1 Mg7 3.168709 1_565
Mg1 Mg3 3.243040 1_565
Mg1 Mg5 3.243041 1_555
Mg1 Mg3 3.269795 1_455
Mg1 Mg5 3.269795 1_455
Mg2 Mg4 3.089579 1_555
Mg2 Mg7 3.185682 1_554
Mg2 Mg6 3.185682 1_555
Mg2 Mg4 3.327845 1_545
Mg3 Mg7 3.155201 1_555
Mg3 Mg6 3.155201 1_555
Mg3 Mg5 3.163988 1_545
Mg3 Mg5 3.253436 1_555
Mg4 Mg9 3.185683 1_554
Mg4 Mg8 3.185683 1_555
Mg5 Mg8 3.155200 1_555
Mg5 Mg9 3.155200 1_555
Mg6 Mg8 3.147339 1_555
Mg6 Mg8 3.270085 1_545
Mg7 Mg9 3.147339 1_555
Mg7 Mg9 3.270085 1_545
Mg10 Mg2 3.130915 1_555
Mg10 Mg4 3.130922 1_545
Mg10 Mg8 3.219207 1_655
Mg10 Mg6 3.219207 1_655
Mg10 Mg12 3.219488 1_545
Mg10 Mg12 3.219488 1_555
Mg10 Mg8 3.306055 1_545
Mg10 Mg6 3.306055 1_555
Mg10 Mg3 3.317300 1_555
Mg10 Mg5 3.317306 1_545
Mg11 Mg2 3.130915 1_556
Mg11 Mg4 3.130922 1_546
Mg11 Mg9 3.219207 1_655
Mg11 Mg7 3.219207 1_655
Mg11 Mg13 3.219488 1_545
Mg11 Mg13 3.219488 1_555
Mg11 Mg9 3.306055 1_545
Mg11 Mg7 3.306055 1_555
Mg11 Mg3 3.317300 1_555
Mg11 Mg5 3.317306 1_545
Mg12 Mg5 3.113159 1_555
Mg12 Mg3 3.113166 1_555
Mg12 Mg6 3.216159 1_555
Mg12 Mg8 3.216159 1_555
Mg12 Mg4 3.255622 1_555
Mg12 Mg2 3.255628 1_555
Mg12 Mg6 3.297517 1_665
Mg12 Mg8 3.297517 1_655
Mg13 Mg5 3.113159 1_555
Mg13 Mg3 3.113166 1_555
Mg13 Mg7 3.216159 1_555
Mg13 Mg9 3.216159 1_555
Mg13 Mg4 3.255622 1_556
Mg13 Mg2 3.255628 1_556
Mg13 Mg7 3.297517 1_665
Mg13 Mg9 3.297517 1_655
Al0 Mg4 3.041130 1_555
Al0 Mg2 3.041130 1_555
Al0 Mg10 3.132605 1_455
Al0 Mg11 3.132605 1_454
Al0 Mg7 3.172475 1_554
Al0 Mg6 3.172475 1_555
Al0 Mg9 3.172481 1_554
Al0 Mg8 3.172481 1_555
Al0 Ce0 3.214246 1_555
Al0 Ce0 3.214246 1_545
