# generated using pymatgen
data_RbNdTiNbO6F
_symmetry_space_group_name_H-M   'P 1'
_cell_length_a   3.85274100
_cell_length_b   3.85274100
_cell_length_c   11.35129800
_cell_angle_alpha   90.00000000
_cell_angle_beta   90.00000000
_cell_angle_gamma   90.00000000
_symmetry_Int_Tables_number   1
_chemical_formula_structural   RbNdTiNbO6F
_chemical_formula_sum   'Rb1 Nd1 Ti1 Nb1 O6 F1'
_cell_volume   168.49427698
_cell_formula_units_Z   1
loop_
 _symmetry_equiv_pos_site_id
 _symmetry_equiv_pos_as_xyz
  1  'x, y, z'
loop_
 _atom_site_type_symbol
 _atom_site_label
 _atom_site_symmetry_multiplicity
 _atom_site_fract_x
 _atom_site_fract_y
 _atom_site_fract_z
 _atom_site_occupancy
  Rb  Rb0  1  0.50000000  0.50000000  0.51066900  1
  Nd  Nd0  1  0.50000000  0.50000000  0.97534500  1
  Ti  Ti0  1  0.00000000  0.00000000  0.79061800  1
  Nb  Nb0  1  0.00000000  0.00000000  0.20896500  1
  O  O0  1  0.00000000  0.00000000  0.64078500  1
  O  O1  1  0.00000000  0.00000000  0.36705200  1
  O  O2  1  0.50000000  0.00000000  0.84438300  1
  O  O3  1  0.00000000  0.50000000  0.84438300  1
  O  O4  1  0.50000000  0.00000000  0.15846400  1
  O  O5  1  0.00000000  0.50000000  0.15846400  1
  F  F0  1  0.00000000  0.00000000  0.00087200  1
loop_
_geom_bond_atom_site_label_1
_geom_bond_atom_site_label_2
_geom_bond_distance
_geom_bond_site_symmetry_2
Nd0 O2 2.433280 1_555
Nd0 O2 2.433280 1_565
Nd0 O3 2.433280 1_655
Nd0 O3 2.433280 1_555
Nd0 O5 2.834015 1_656
Nd0 O4 2.834015 1_566
Nd0 O4 2.834015 1_556
Nd0 O5 2.834015 1_556
Nb0 O1 1.794493 1_555
Nb0 O5 2.009856 1_545
Nb0 O4 2.009856 1_555
Nb0 O5 2.009856 1_555
Nb0 O4 2.009856 1_455
O0 Ti0 1.700799 1_555
O0 Rb0 3.098918 1_545
O0 Rb0 3.098918 1_445
O0 Rb0 3.098918 1_455
O0 Rb0 3.098918 1_555
O1 Rb0 3.174821 1_545
O1 Rb0 3.174821 1_445
O1 Rb0 3.174821 1_455
O1 Rb0 3.174821 1_555
O2 Ti0 2.020736 1_655
O2 Ti0 2.020736 1_555
O3 Ti0 2.020736 1_555
O3 Ti0 2.020736 1_565
F0 Nb0 2.362126 1_555
F0 Ti0 2.386656 1_554
F0 Nd0 2.739666 1_444
F0 Nd0 2.739666 1_454
F0 Nd0 2.739666 1_544
F0 Nd0 2.739666 1_554
