# generated using pymatgen
data_Th3W
_symmetry_space_group_name_H-M   'P 1'
_cell_length_a   6.03012925
_cell_length_b   6.03012925
_cell_length_c   6.03012925
_cell_angle_alpha   134.96677019
_cell_angle_beta   134.96677019
_cell_angle_gamma   65.58183548
_symmetry_Int_Tables_number   1
_chemical_formula_structural   Th3W
_chemical_formula_sum   'Th3 W1'
_cell_volume   108.12932739
_cell_formula_units_Z   1
loop_
 _symmetry_equiv_pos_site_id
 _symmetry_equiv_pos_as_xyz
  1  'x, y, z'
loop_
 _atom_site_type_symbol
 _atom_site_label
 _atom_site_symmetry_multiplicity
 _atom_site_fract_x
 _atom_site_fract_y
 _atom_site_fract_z
 _atom_site_occupancy
  Th  Th0  1  0.74999900  0.25000000  0.49999900  1
  Th  Th1  1  0.25000000  0.74999900  0.49999900  1
  Th  Th2  1  0.50000100  0.50000100  0.00000000  1
  W  W0  1  0.00000000  0.00000000  0.00000000  1
loop_
_geom_bond_atom_site_label_1
_geom_bond_atom_site_label_2
_geom_bond_distance
_geom_bond_site_symmetry_2
Th0 Th1 3.265760 1_555
Th0 Th1 3.265767 1_656
Th0 Th1 3.265767 1_544
Th0 Th1 3.265774 1_645
Th0 Th2 3.428830 1_556
Th0 Th2 3.428830 1_545
Th0 W0 3.428834 1_555
Th0 W0 3.428837 1_666
Th0 W0 3.428837 1_655
Th0 W0 3.428840 1_656
Th0 Th2 3.428841 1_555
Th0 Th2 3.428848 1_656
Th1 Th2 3.428830 1_556
Th1 Th2 3.428830 1_455
Th1 W0 3.428834 1_555
Th1 W0 3.428837 1_666
Th1 W0 3.428837 1_565
Th1 W0 3.428840 1_566
Th1 Th2 3.428841 1_555
Th1 Th2 3.428848 1_566
Th2 W0 3.265767 1_666
Th2 W0 3.265767 1_655
Th2 W0 3.265767 1_565
Th2 W0 3.265767 1_554
