# generated using pymatgen
data_Sm4ZrFe33
_symmetry_space_group_name_H-M   'P 1'
_cell_length_a   6.46962370
_cell_length_b   6.46962370
_cell_length_c   13.02040218
_cell_angle_alpha   83.06525512
_cell_angle_beta   83.06525512
_cell_angle_gamma   82.86948950
_symmetry_Int_Tables_number   1
_chemical_formula_structural   Sm4ZrFe33
_chemical_formula_sum   'Sm4 Zr1 Fe33'
_cell_volume   533.70863426
_cell_formula_units_Z   1
loop_
 _symmetry_equiv_pos_site_id
 _symmetry_equiv_pos_as_xyz
  1  'x, y, z'
loop_
 _atom_site_type_symbol
 _atom_site_label
 _atom_site_symmetry_multiplicity
 _atom_site_fract_x
 _atom_site_fract_y
 _atom_site_fract_z
 _atom_site_occupancy
  Sm  Sm0  1  0.65079700  0.65079700  0.32107500  1
  Sm  Sm1  1  0.65844200  0.65844200  0.83061000  1
  Sm  Sm2  1  0.34140200  0.34140200  0.16778700  1
  Sm  Sm3  1  0.34101800  0.34101800  0.67504500  1
  Zr  Zr0  1  0.90614400  0.90614400  0.45191500  1
  Fe  Fe0  1  0.84559400  0.34282500  0.16802600  1
  Fe  Fe1  1  0.84527300  0.33892600  0.67255800  1
  Fe  Fe2  1  0.33978800  0.33978800  0.42103900  1
  Fe  Fe3  1  0.34183200  0.34183200  0.92198400  1
  Fe  Fe4  1  0.34282500  0.84559400  0.16802600  1
  Fe  Fe5  1  0.33892600  0.84527300  0.67255800  1
  Fe  Fe6  1  0.16436700  0.65324000  0.32564100  1
  Fe  Fe7  1  0.15466700  0.65790100  0.83063300  1
  Fe  Fe8  1  0.65883100  0.65883100  0.07683600  1
  Fe  Fe9  1  0.65556700  0.65556700  0.58399500  1
  Fe  Fe10  1  0.65324000  0.16436700  0.32564100  1
  Fe  Fe11  1  0.65790100  0.15466700  0.83063300  1
  Fe  Fe12  1  0.00531600  0.00531600  0.24432200  1
  Fe  Fe13  1  0.99720600  0.99720600  0.75198200  1
  Fe  Fe14  1  0.00356200  0.48791900  0.50239700  1
  Fe  Fe15  1  0.00059100  0.50018800  0.99957100  1
  Fe  Fe16  1  0.50018800  0.00059100  0.99957100  1
  Fe  Fe17  1  0.48791900  0.00356200  0.50239700  1
  Fe  Fe18  1  0.30842800  0.69287100  0.50089300  1
  Fe  Fe19  1  0.29285100  0.70714300  0.00013500  1
  Fe  Fe20  1  0.70987400  0.00172900  0.14398300  1
  Fe  Fe21  1  0.70215900  0.00259300  0.64885500  1
  Fe  Fe22  1  0.99907900  0.30202100  0.35056000  1
  Fe  Fe23  1  0.99718000  0.28976200  0.85630500  1
  Fe  Fe24  1  0.30202100  0.99907900  0.35056000  1
  Fe  Fe25  1  0.28976200  0.99718000  0.85630500  1
  Fe  Fe26  1  0.00172900  0.70987400  0.14398300  1
  Fe  Fe27  1  0.00259300  0.70215900  0.64885500  1
  Fe  Fe28  1  0.70714300  0.29285100  0.00013500  1
  Fe  Fe29  1  0.69287100  0.30842800  0.50089300  1
  Fe  Fe30  1  0.90389600  0.90389600  0.95093700  1
  Fe  Fe31  1  0.09687900  0.09687900  0.04636400  1
  Fe  Fe32  1  0.10214000  0.10214000  0.55699300  1
loop_
_geom_bond_atom_site_label_1
_geom_bond_atom_site_label_2
_geom_bond_distance
_geom_bond_site_symmetry_2
Sm0 Zr0 3.224459 1_555
Fe0 Fe12 2.446729 1_655
Fe0 Fe15 2.456816 1_654
Fe0 Fe8 2.489265 1_555
Fe0 Fe10 2.502215 1_555
Fe0 Fe28 2.529996 1_555
Fe0 Fe20 2.540281 1_555
Fe0 Fe31 2.651176 1_655
Fe0 Fe22 2.656608 1_555
Fe0 Fe26 2.664031 1_655
Fe0 Sm0 3.042732 1_555
Fe0 Sm2 3.206188 1_655
Fe0 Sm2 3.263466 1_555
Fe1 Fe14 2.463346 1_655
Fe1 Fe13 2.465186 1_545
Fe1 Fe9 2.485905 1_555
Fe1 Fe11 2.508095 1_555
Fe1 Fe21 2.533498 1_555
Fe1 Fe32 2.587154 1_655
Fe1 Fe29 2.587266 1_555
Fe1 Fe27 2.645068 1_655
Fe1 Fe23 2.664077 1_555
Fe1 Sm1 3.126556 1_555
Fe1 Sm3 3.213077 1_655
Fe1 Sm3 3.256951 1_555
Fe2 Fe6 2.470648 1_555
Fe2 Fe22 2.537100 1_455
Fe2 Fe24 2.537100 1_545
Fe2 Fe29 2.597658 1_555
Fe2 Fe32 2.670903 1_555
Fe2 Sm0 3.087322 1_555
Fe2 Sm2 3.294958 1_555
Fe2 Sm3 3.309203 1_555
Fe3 Fe7 2.491615 1_555
Fe3 Fe31 2.651338 1_556
Fe3 Sm1 3.109917 1_555
Fe3 Sm2 3.199785 1_556
Fe3 Sm3 3.216526 1_555
Fe4 Fe8 2.489265 1_555
Fe4 Fe6 2.502215 1_555
Fe4 Sm0 3.042732 1_555
Fe4 Sm2 3.206188 1_565
Fe4 Sm2 3.263466 1_555
Fe5 Fe9 2.485905 1_555
Fe5 Fe7 2.508095 1_555
Fe5 Sm1 3.126556 1_555
Fe5 Sm3 3.213077 1_565
Fe5 Sm3 3.256951 1_555
Fe6 Zr0 2.734772 1_455
Fe6 Sm2 3.076617 1_555
Fe6 Sm0 3.138505 1_555
Fe6 Sm0 3.332334 1_455
Fe7 Sm3 3.091914 1_555
Fe7 Sm1 3.209993 1_455
Fe7 Sm1 3.259635 1_555
Fe8 Sm2 3.116054 1_555
Fe8 Sm0 3.168473 1_555
Fe8 Sm1 3.206571 1_554
Fe9 Zr0 2.742202 1_555
Fe9 Sm3 3.090463 1_555
Fe9 Sm1 3.215636 1_555
Fe9 Sm0 3.431080 1_555
Fe10 Fe2 2.470648 1_555
Fe10 Fe12 2.543050 1_655
Fe10 Fe17 2.574211 1_555
Fe10 Fe22 2.577658 1_555
Fe10 Fe24 2.598720 1_545
Fe10 Fe29 2.618284 1_555
Fe10 Fe20 2.670550 1_555
Fe10 Zr0 2.734772 1_545
Fe10 Sm2 3.076617 1_555
Fe10 Sm0 3.138505 1_555
Fe10 Sm0 3.332334 1_545
Fe11 Fe16 2.460532 1_555
Fe11 Fe13 2.461542 1_545
Fe11 Fe3 2.491615 1_555
Fe11 Fe23 2.533315 1_555
Fe11 Fe28 2.547241 1_556
Fe11 Fe30 2.639308 1_545
Fe11 Fe21 2.642072 1_555
Fe11 Fe25 2.674025 1_545
Fe11 Sm3 3.091914 1_555
Fe11 Sm1 3.209993 1_545
Fe11 Sm1 3.259635 1_555
Fe12 Fe26 2.445843 1_545
Fe12 Fe20 2.445843 1_455
Fe12 Fe4 2.446729 1_545
Fe12 Fe24 2.491640 1_545
Fe12 Fe22 2.491640 1_455
Fe12 Fe6 2.543050 1_545
Fe12 Fe31 2.587472 1_555
Fe12 Zr0 2.719167 1_445
Fe12 Sm2 3.252062 1_555
Fe12 Sm0 3.423297 1_445
Fe13 Fe27 2.457439 1_655
Fe13 Fe21 2.457439 1_565
Fe13 Fe23 2.459301 1_565
Fe13 Fe25 2.459301 1_655
Fe13 Fe7 2.461542 1_655
Fe13 Fe5 2.465186 1_655
Fe13 Fe32 2.578655 1_665
Fe13 Fe30 2.602813 1_555
Fe13 Sm1 3.280830 1_555
Fe13 Sm3 3.324305 1_665
Fe14 Fe2 2.437929 1_555
Fe14 Fe22 2.439757 1_455
Fe14 Fe29 2.446150 1_455
Fe14 Fe27 2.488136 1_555
Fe14 Fe18 2.506485 1_555
Fe14 Fe32 2.535189 1_555
Fe14 Fe9 2.543303 1_455
Fe14 Fe6 2.574211 1_555
Fe14 Zr0 2.719853 1_455
Fe14 Sm3 3.298033 1_555
Fe14 Sm0 3.463553 1_455
Fe15 Fe23 2.442152 1_455
Fe15 Fe26 2.449022 1_556
Fe15 Fe19 2.449932 1_556
Fe15 Fe28 2.455639 1_456
Fe15 Fe7 2.460532 1_555
Fe15 Fe3 2.468590 1_555
Fe15 Fe8 2.470443 1_456
Fe15 Fe31 2.621398 1_556
Fe15 Fe30 2.627676 1_455
Fe15 Sm2 3.282476 1_556
Fe15 Sm1 3.295041 1_455
Fe16 Fe25 2.442152 1_545
Fe16 Fe20 2.449022 1_556
Fe16 Fe28 2.449932 1_556
Fe16 Fe19 2.455639 1_546
Fe16 Fe4 2.456816 1_546
Fe16 Fe3 2.468590 1_555
Fe16 Fe8 2.470443 1_546
Fe16 Fe31 2.621398 1_556
Fe16 Fe30 2.627676 1_545
Fe16 Sm2 3.282476 1_556
Fe16 Sm1 3.295041 1_545
Fe17 Fe2 2.437929 1_555
Fe17 Fe24 2.439757 1_545
Fe17 Fe18 2.446150 1_545
Fe17 Fe5 2.463346 1_545
Fe17 Fe21 2.488136 1_555
Fe17 Fe29 2.506485 1_555
Fe17 Fe32 2.535189 1_555
Fe17 Fe9 2.543303 1_545
Fe17 Zr0 2.719853 1_545
Fe17 Sm3 3.298033 1_555
Fe17 Sm0 3.463553 1_545
Fe18 Fe9 2.581101 1_555
Fe18 Fe5 2.587266 1_555
Fe18 Fe27 2.589993 1_555
Fe18 Fe2 2.597658 1_555
Fe18 Fe24 2.611610 1_555
Fe18 Fe6 2.618284 1_555
Fe18 Zr0 2.894989 1_455
Fe18 Sm3 3.019570 1_555
Fe18 Sm0 3.035445 1_555
Fe19 Fe25 2.485891 1_554
Fe19 Fe26 2.490694 1_555
Fe19 Fe4 2.529996 1_555
Fe19 Fe7 2.547241 1_554
Fe19 Fe8 2.648245 1_555
Fe19 Fe3 2.653028 1_554
Fe19 Fe31 2.777775 1_565
Fe19 Fe30 2.785682 1_454
Fe19 Sm2 3.032559 1_555
Fe19 Sm1 3.047614 1_554
Fe20 Fe28 2.490694 1_555
Fe20 Fe26 2.499085 1_645
Fe20 Fe8 2.552401 1_545
Fe20 Fe4 2.664031 1_545
Fe20 Fe31 2.772833 1_655
Fe20 Fe30 2.778340 1_544
Fe20 Sm2 3.048553 1_555
Fe20 Sm0 3.058758 1_545
Fe21 Fe9 2.555773 1_545
Fe21 Fe27 2.572545 1_645
Fe21 Fe29 2.589993 1_555
Fe21 Fe5 2.645068 1_545
Fe21 Fe32 2.832321 1_655
Fe21 Zr0 2.840963 1_545
Fe21 Sm3 3.014465 1_555
Fe21 Sm1 3.059442 1_545
Fe22 Fe24 2.594020 1_645
Fe22 Fe6 2.598720 1_655
Fe22 Fe29 2.611610 1_555
Fe22 Zr0 2.834996 1_545
Fe22 Sm0 3.008914 1_555
Fe22 Sm2 3.058451 1_655
Fe23 Fe28 2.485891 1_556
Fe23 Fe25 2.505310 1_645
Fe23 Fe3 2.556006 1_655
Fe23 Fe7 2.674025 1_655
Fe23 Fe31 2.745366 1_656
Fe23 Fe30 2.750665 1_545
Fe23 Sm1 3.048041 1_555
Fe23 Sm3 3.058551 1_655
Fe24 Fe6 2.577658 1_555
Fe24 Fe4 2.656608 1_555
Fe24 Zr0 2.834996 1_455
Fe24 Sm0 3.008914 1_555
Fe24 Sm2 3.058451 1_565
Fe25 Fe7 2.533315 1_555
Fe25 Fe3 2.556006 1_565
Fe25 Fe5 2.664077 1_555
Fe25 Fe31 2.745366 1_566
Fe25 Fe30 2.750665 1_455
Fe25 Sm1 3.048041 1_555
Fe25 Sm3 3.058551 1_565
Fe26 Fe4 2.540281 1_555
Fe26 Fe8 2.552401 1_455
Fe26 Fe6 2.670550 1_555
Fe26 Fe31 2.772833 1_565
Fe26 Fe30 2.778340 1_454
Fe26 Sm2 3.048553 1_555
Fe26 Sm0 3.058758 1_455
Fe27 Fe5 2.533498 1_555
Fe27 Fe9 2.555773 1_455
Fe27 Fe7 2.642072 1_555
Fe27 Fe32 2.832321 1_565
Fe27 Zr0 2.840963 1_455
Fe27 Sm3 3.014465 1_555
Fe27 Sm1 3.059442 1_455
Fe28 Fe8 2.648245 1_555
Fe28 Fe3 2.653028 1_554
Fe28 Fe31 2.777775 1_655
Fe28 Fe30 2.785682 1_544
Fe28 Sm2 3.032559 1_555
Fe28 Sm1 3.047614 1_554
Fe29 Fe9 2.581101 1_555
Fe29 Zr0 2.894989 1_545
Fe29 Sm3 3.019570 1_555
Fe29 Sm0 3.035445 1_555
Fe30 Fe31 2.407829 1_666
Fe30 Fe7 2.639308 1_655
Fe30 Fe8 2.661485 1_556
Fe30 Sm1 3.053788 1_555
Fe31 Fe4 2.651176 1_545
Fe31 Sm2 3.055153 1_555
Fe32 Zr0 2.514883 1_445
Fe32 Fe5 2.587154 1_545
Fe32 Sm3 2.979877 1_555
