# generated using pymatgen
data_AlW2C
_symmetry_space_group_name_H-M   'P 1'
_cell_length_a   3.00730876
_cell_length_b   3.00730876
_cell_length_c   13.73553500
_cell_angle_alpha   90.00000000
_cell_angle_beta   90.00000000
_cell_angle_gamma   120.00001667
_symmetry_Int_Tables_number   1
_chemical_formula_structural   AlW2C
_chemical_formula_sum   'Al2 W4 C2'
_cell_volume   107.58015773
_cell_formula_units_Z   2
loop_
 _symmetry_equiv_pos_site_id
 _symmetry_equiv_pos_as_xyz
  1  'x, y, z'
loop_
 _atom_site_type_symbol
 _atom_site_label
 _atom_site_symmetry_multiplicity
 _atom_site_fract_x
 _atom_site_fract_y
 _atom_site_fract_z
 _atom_site_occupancy
  Al  Al0  1  0.33333300  0.66666700  0.75000000  1
  Al  Al1  1  0.66666700  0.33333300  0.25000000  1
  W  W0  1  0.33333300  0.66666700  0.40988700  1
  W  W1  1  0.66666700  0.33333300  0.59011300  1
  W  W2  1  0.66666700  0.33333300  0.90988700  1
  W  W3  1  0.33333300  0.66666700  0.09011300  1
  C  C0  1  0.00000000  0.00000000  0.50000000  1
  C  C1  1  0.00000000  0.00000000  0.00000000  1
loop_
_geom_bond_atom_site_label_1
_geom_bond_atom_site_label_2
_geom_bond_distance
_geom_bond_site_symmetry_2
Al0 W1 2.799577 1_455
Al0 W2 2.799577 1_455
Al0 W2 2.799577 1_565
Al0 W1 2.799577 1_565
Al0 W2 2.799580 1_555
Al0 W1 2.799580 1_555
Al1 W3 2.799577 1_545
Al1 W0 2.799577 1_545
Al1 W0 2.799577 1_655
Al1 W3 2.799577 1_655
Al1 W3 2.799580 1_555
Al1 W0 2.799580 1_555
C0 W0 2.132289 1_545
C0 W1 2.132289 1_455
C0 W1 2.132291 1_555
C0 W0 2.132291 1_445
C0 W0 2.132291 1_555
C0 W1 2.132291 1_445
C1 W2 2.132289 1_454
C1 W3 2.132289 1_545
C1 W3 2.132291 1_445
C1 W2 2.132291 1_554
C1 W2 2.132291 1_444
C1 W3 2.132291 1_555
