# generated using pymatgen
data_OsO4
_symmetry_space_group_name_H-M   'P 1'
_cell_length_a   5.08686429
_cell_length_b   5.08686429
_cell_length_c   4.54456287
_cell_angle_alpha   63.88960918
_cell_angle_beta   63.88960918
_cell_angle_gamma   52.91715920
_symmetry_Int_Tables_number   1
_chemical_formula_structural   OsO4
_chemical_formula_sum   'Os1 O4'
_cell_volume   81.69548341
_cell_formula_units_Z   1
loop_
 _symmetry_equiv_pos_site_id
 _symmetry_equiv_pos_as_xyz
  1  'x, y, z'
loop_
 _atom_site_type_symbol
 _atom_site_label
 _atom_site_symmetry_multiplicity
 _atom_site_fract_x
 _atom_site_fract_y
 _atom_site_fract_z
 _atom_site_occupancy
  Os  Os0  1  0.00022215  -0.00022215  0.50000000  1
  O  O0  1  0.65495319  0.09299079  0.41041797  1
  O  O1  1  0.09749343  0.66003899  0.84226769  1
  O  O2  1  0.90700921  0.34504681  0.58958203  1
  O  O3  1  0.33996101  0.90250657  0.15773231  1
loop_
_geom_bond_atom_site_label_1
_geom_bond_atom_site_label_2
_geom_bond_distance
_geom_bond_site_symmetry_2
O0 Os0 1.711856 1_655
O1 Os0 1.712038 1_565
O2 Os0 1.711856 1_655
O3 Os0 1.712038 1_565
