# generated using pymatgen
data_Ho2MgS4
_symmetry_space_group_name_H-M   'P 1'
_cell_length_a   12.56094100
_cell_length_b   3.82379000
_cell_length_c   13.26042100
_cell_angle_alpha   90.00000000
_cell_angle_beta   90.00000000
_cell_angle_gamma   90.00000000
_symmetry_Int_Tables_number   1
_chemical_formula_structural   Ho2MgS4
_chemical_formula_sum   'Ho8 Mg4 S16'
_cell_volume   636.90333257
_cell_formula_units_Z   4
loop_
 _symmetry_equiv_pos_site_id
 _symmetry_equiv_pos_as_xyz
  1  'x, y, z'
loop_
 _atom_site_type_symbol
 _atom_site_label
 _atom_site_symmetry_multiplicity
 _atom_site_fract_x
 _atom_site_fract_y
 _atom_site_fract_z
 _atom_site_occupancy
  Ho  Ho0  1  0.11478700  0.25000000  0.07841500  1
  Ho  Ho1  1  0.88521300  0.75000000  0.92158500  1
  Ho  Ho2  1  0.38521300  0.75000000  0.57841500  1
  Ho  Ho3  1  0.61478700  0.25000000  0.42158500  1
  Ho  Ho4  1  0.14155400  0.25000000  0.70432000  1
  Ho  Ho5  1  0.85844600  0.75000000  0.29568000  1
  Ho  Ho6  1  0.35844600  0.75000000  0.20432000  1
  Ho  Ho7  1  0.64155400  0.25000000  0.79568000  1
  Mg  Mg0  1  0.11663900  0.75000000  0.44058700  1
  Mg  Mg1  1  0.88336100  0.25000000  0.55941300  1
  Mg  Mg2  1  0.38336100  0.25000000  0.94058700  1
  Mg  Mg3  1  0.61663900  0.75000000  0.05941300  1
  S  S0  1  0.01489600  0.75000000  0.61259600  1
  S  S1  1  0.98510400  0.25000000  0.38740400  1
  S  S2  1  0.48510400  0.25000000  0.11259600  1
  S  S3  1  0.51489600  0.75000000  0.88740400  1
  S  S4  1  0.03032200  0.25000000  0.88272600  1
  S  S5  1  0.96967800  0.75000000  0.11727400  1
  S  S6  1  0.46967800  0.75000000  0.38272600  1
  S  S7  1  0.53032200  0.25000000  0.61727400  1
  S  S8  1  0.22143600  0.25000000  0.25486800  1
  S  S9  1  0.77856400  0.75000000  0.74513200  1
  S  S10  1  0.27856400  0.75000000  0.75486800  1
  S  S11  1  0.72143600  0.25000000  0.24513200  1
  S  S12  1  0.25760200  0.75000000  0.01693500  1
  S  S13  1  0.74239800  0.25000000  0.98306500  1
  S  S14  1  0.24239800  0.25000000  0.51693500  1
  S  S15  1  0.75760200  0.75000000  0.48306500  1
loop_
_geom_bond_atom_site_label_1
_geom_bond_atom_site_label_2
_geom_bond_distance
_geom_bond_site_symmetry_2
Ho0 S5 2.691304 1_455
Ho0 S5 2.691304 1_445
Ho0 S8 2.696185 1_555
Ho0 S12 2.745546 1_555
Ho0 S12 2.745546 1_545
Ho0 S4 2.803433 1_554
Ho1 S4 2.691304 1_655
Ho1 S4 2.691304 1_665
Ho1 S9 2.696185 1_555
Ho1 S13 2.745546 1_555
Ho1 S13 2.745546 1_565
Ho1 S5 2.803433 1_556
Ho2 S7 2.691304 1_565
Ho2 S7 2.691304 1_555
Ho2 S10 2.696185 1_555
Ho2 S14 2.745546 1_565
Ho2 S14 2.745546 1_555
Ho2 S6 2.803433 1_555
Ho3 S6 2.691304 1_545
Ho3 S6 2.691304 1_555
Ho3 S11 2.696185 1_555
Ho3 S15 2.745546 1_555
Ho3 S15 2.745546 1_545
Ho3 S7 2.803433 1_555
Ho4 S10 2.658267 1_545
Ho4 S10 2.658267 1_555
Ho4 S4 2.747513 1_555
Ho4 S0 2.768723 1_555
Ho4 S0 2.768723 1_545
Ho4 S14 2.789044 1_555
Ho5 S11 2.658267 1_555
Ho5 S11 2.658267 1_565
Ho5 S5 2.747513 1_555
Ho5 S1 2.768723 1_555
Ho5 S1 2.768723 1_565
Ho5 S15 2.789044 1_555
Ho6 S8 2.658267 1_565
Ho6 S8 2.658267 1_555
Ho6 S6 2.747513 1_555
Ho6 S2 2.768723 1_555
Ho6 S2 2.768723 1_565
Ho6 S12 2.789044 1_555
Ho7 S9 2.658267 1_545
Ho7 S9 2.658267 1_555
Ho7 S7 2.747513 1_555
Ho7 S3 2.768723 1_555
Ho7 S3 2.768723 1_545
Ho7 S13 2.789044 1_555
Mg0 S0 2.614538 1_555
Mg0 S1 2.623446 1_455
Mg0 S1 2.623446 1_465
Mg0 S14 2.678733 1_555
Mg0 S14 2.678733 1_565
Mg1 S1 2.614538 1_555
Mg1 S0 2.623446 1_655
Mg1 S0 2.623446 1_645
Mg1 S15 2.678733 1_555
Mg1 S15 2.678733 1_545
Mg2 S2 2.614538 1_556
Mg2 S3 2.623446 1_545
Mg2 S3 2.623446 1_555
Mg2 S12 2.678733 1_556
Mg2 S12 2.678733 1_546
Mg3 S3 2.614538 1_554
Mg3 S2 2.623446 1_555
Mg3 S2 2.623446 1_565
Mg3 S13 2.678733 1_554
Mg3 S13 2.678733 1_564
