# generated using pymatgen
data_PrAl2Ni3
_symmetry_space_group_name_H-M   'P 1'
_cell_length_a   5.32185344
_cell_length_b   5.32185266
_cell_length_c   3.76175416
_cell_angle_alpha   90.00000000
_cell_angle_beta   90.00000000
_cell_angle_gamma   120.00000487
_symmetry_Int_Tables_number   1
_chemical_formula_structural   PrAl2Ni3
_chemical_formula_sum   'Pr1 Al2 Ni3'
_cell_volume   92.26708005
_cell_formula_units_Z   1
loop_
 _symmetry_equiv_pos_site_id
 _symmetry_equiv_pos_as_xyz
  1  'x, y, z'
loop_
 _atom_site_type_symbol
 _atom_site_label
 _atom_site_symmetry_multiplicity
 _atom_site_fract_x
 _atom_site_fract_y
 _atom_site_fract_z
 _atom_site_occupancy
  Pr  Pr0  1  -0.00000000  0.00000000  0.00000000  1
  Al  Al0  1  0.33333300  0.66666700  0.00000000  1
  Al  Al1  1  0.66666700  0.33333300  0.00000000  1
  Ni  Ni0  1  0.50000000  0.00000000  0.50000000  1
  Ni  Ni1  1  0.50000000  0.50000000  0.50000000  1
  Ni  Ni2  1  -0.00000000  0.50000000  0.50000000  1
loop_
_geom_bond_atom_site_label_1
_geom_bond_atom_site_label_2
_geom_bond_distance
_geom_bond_site_symmetry_2
Al0 Ni0 2.428553 1_565
Al0 Ni0 2.428553 1_564
Al0 Ni2 2.428553 1_555
Al0 Ni2 2.428553 1_554
Al0 Ni1 2.428556 1_554
Al0 Ni1 2.428556 1_555
Al0 Pr0 3.072570 1_565
Al0 Pr0 3.072574 1_555
Al0 Pr0 3.072575 1_665
Al1 Ni0 2.428553 1_554
Al1 Ni0 2.428553 1_555
Al1 Ni2 2.428553 1_654
Al1 Ni2 2.428553 1_655
Al1 Ni1 2.428556 1_554
Al1 Ni1 2.428556 1_555
Al1 Pr0 3.072570 1_655
Al1 Pr0 3.072574 1_665
Al1 Pr0 3.072575 1_555
Ni0 Pr0 3.258563 1_555
Ni0 Pr0 3.258563 1_656
Ni0 Pr0 3.258563 1_655
Ni0 Pr0 3.258563 1_556
Ni1 Pr0 3.258562 1_665
Ni1 Pr0 3.258562 1_666
Ni1 Pr0 3.258562 1_555
Ni1 Pr0 3.258562 1_556
Ni2 Pr0 3.258562 1_566
Ni2 Pr0 3.258562 1_555
Ni2 Pr0 3.258562 1_556
Ni2 Pr0 3.258562 1_565
