# generated using pymatgen
data_Ti13Pb3
_symmetry_space_group_name_H-M   'P 1'
_cell_length_a   4.79320552
_cell_length_b   5.99438966
_cell_length_c   10.29236692
_cell_angle_alpha   90.00000000
_cell_angle_beta   90.00000000
_cell_angle_gamma   90.00000000
_symmetry_Int_Tables_number   1
_chemical_formula_structural   Ti13Pb3
_chemical_formula_sum   'Ti13 Pb3'
_cell_volume   295.72380229
_cell_formula_units_Z   1
loop_
 _symmetry_equiv_pos_site_id
 _symmetry_equiv_pos_as_xyz
  1  'x, y, z'
loop_
 _atom_site_type_symbol
 _atom_site_label
 _atom_site_symmetry_multiplicity
 _atom_site_fract_x
 _atom_site_fract_y
 _atom_site_fract_z
 _atom_site_occupancy
  Ti  Ti0  1  0.50000000  0.50000000  0.33252633  1
  Ti  Ti1  1  0.50000000  -0.00000000  0.85049374  1
  Ti  Ti2  1  0.50000000  0.74090486  0.08717757  1
  Ti  Ti3  1  0.50000000  0.26083170  0.57678415  1
  Ti  Ti4  1  0.50000000  0.25909514  0.08717757  1
  Ti  Ti5  1  0.50000000  0.73916830  0.57678415  1
  Ti  Ti6  1  0.00000000  -0.00000000  0.15541456  1
  Ti  Ti7  1  -0.00000000  0.50000000  0.66192118  1
  Ti  Ti8  1  -0.00000000  0.73427858  0.40734213  1
  Ti  Ti9  1  0.00000000  0.25765171  0.92768147  1
  Ti  Ti10  1  -0.00000000  0.26572142  0.40734213  1
  Ti  Ti11  1  -0.00000000  0.74234829  0.92768147  1
  Ti  Ti12  1  -0.00000000  0.50000000  0.16906907  1
  Pb  Pb0  1  -0.00000000  -0.00000000  0.66801265  1
  Pb  Pb1  1  0.50000000  -0.00000000  0.33333348  1
  Pb  Pb2  1  0.50000000  0.50000000  0.83118835  1
loop_
_geom_bond_atom_site_label_1
_geom_bond_atom_site_label_2
_geom_bond_distance
_geom_bond_site_symmetry_2
Ti0 Ti10 2.882511 1_655
Ti0 Ti8 2.882511 1_655
Ti0 Ti8 2.882511 1_555
Ti0 Ti10 2.882511 1_555
Ti0 Ti5 2.894055 1_555
Ti0 Ti3 2.894055 1_555
Ti0 Ti4 2.908968 1_555
Ti0 Ti2 2.908968 1_555
Ti0 Ti12 2.928147 1_555
Ti0 Ti12 2.928147 1_655
Ti1 Ti9 2.959767 1_555
Ti1 Ti11 2.959767 1_545
Ti1 Ti9 2.959767 1_655
Ti1 Ti11 2.959767 1_645
Ti2 Ti6 2.940941 1_565
Ti2 Ti6 2.940941 1_665
Ti4 Ti9 2.904928 1_654
Ti4 Ti9 2.904928 1_554
Ti4 Ti6 2.940941 1_655
Ti4 Ti6 2.940941 1_555
Ti5 Ti8 2.964112 1_655
Ti5 Ti8 2.964112 1_555
Ti6 Ti9 2.807009 1_554
Ti6 Ti8 3.043094 1_545
Ti7 Ti8 2.972840 1_555
Ti7 Ti9 3.097144 1_555
Ti10 Ti8 2.808714 1_555
Ti10 Ti12 2.826031 1_555
Ti10 Ti3 2.964112 1_455
Ti10 Ti3 2.964112 1_555
Ti10 Ti7 2.972840 1_555
Ti10 Ti6 3.043094 1_555
Ti10 Ti8 3.185675 1_545
Ti11 Ti6 2.807009 1_566
Ti11 Ti12 2.878005 1_556
Ti11 Ti2 2.904928 1_556
Ti11 Ti2 2.904928 1_456
Ti11 Ti9 2.905460 1_555
Ti11 Ti9 3.088929 1_565
Ti11 Ti7 3.097144 1_555
Ti12 Ti8 2.826031 1_555
Ti12 Ti9 2.878005 1_554
Ti12 Ti2 2.922238 1_455
Ti12 Ti2 2.922238 1_555
Ti12 Ti4 2.922238 1_455
Ti12 Ti4 2.922238 1_555
Ti12 Ti6 3.000488 1_555
Ti12 Ti6 3.000488 1_565
Pb0 Ti7 2.997850 1_555
Pb0 Ti7 2.997850 1_545
Pb0 Ti3 3.011638 1_455
Pb0 Ti5 3.011638 1_545
Pb0 Ti5 3.011638 1_445
Pb0 Ti3 3.011638 1_555
Pb0 Ti1 3.044864 1_455
Pb0 Ti1 3.044864 1_555
Pb0 Ti9 3.086778 1_555
Pb0 Ti11 3.086778 1_545
Pb0 Ti10 3.120124 1_555
Pb0 Ti8 3.120124 1_545
Pb1 Ti5 2.953484 1_545
Pb1 Ti3 2.953484 1_555
Pb1 Ti2 2.971688 1_545
Pb1 Ti4 2.971688 1_555
Pb1 Ti8 2.976753 1_545
Pb1 Ti10 2.976753 1_655
Pb1 Ti8 2.976753 1_645
Pb1 Ti10 2.976753 1_555
Pb1 Ti0 2.997206 1_555
Pb1 Ti0 2.997206 1_545
Pb1 Ti6 3.016127 1_555
Pb1 Ti6 3.016127 1_655
Pb2 Ti7 2.962908 1_555
Pb2 Ti7 2.962908 1_655
Pb2 Ti9 2.973291 1_655
Pb2 Ti11 2.973291 1_555
Pb2 Ti9 2.973291 1_555
Pb2 Ti11 2.973291 1_655
Pb2 Ti5 2.985219 1_555
Pb2 Ti3 2.985219 1_555
Pb2 Ti1 3.003774 1_555
Pb2 Ti1 3.003774 1_565
Pb2 Ti4 3.004528 1_556
Pb2 Ti2 3.004528 1_556
