# generated using pymatgen
data_NaCoF4
_symmetry_space_group_name_H-M   'P 1'
_cell_length_a   5.01535300
_cell_length_b   5.67845900
_cell_length_c   10.99692100
_cell_angle_alpha   90.00000000
_cell_angle_beta   90.00000000
_cell_angle_gamma   90.00000000
_symmetry_Int_Tables_number   1
_chemical_formula_structural   NaCoF4
_chemical_formula_sum   'Na4 Co4 F16'
_cell_volume   313.18655188
_cell_formula_units_Z   4
loop_
 _symmetry_equiv_pos_site_id
 _symmetry_equiv_pos_as_xyz
  1  'x, y, z'
loop_
 _atom_site_type_symbol
 _atom_site_label
 _atom_site_symmetry_multiplicity
 _atom_site_fract_x
 _atom_site_fract_y
 _atom_site_fract_z
 _atom_site_occupancy
  Na  Na0  1  0.00000000  0.00000000  0.00000000  1
  Na  Na1  1  0.50000000  0.50000000  0.50000000  1
  Na  Na2  1  0.00000000  0.00000000  0.50000000  1
  Na  Na3  1  0.50000000  0.50000000  0.00000000  1
  Co  Co0  1  0.00000000  0.34472600  0.25000000  1
  Co  Co1  1  0.00000000  0.65527400  0.75000000  1
  Co  Co2  1  0.50000000  0.15527400  0.75000000  1
  Co  Co3  1  0.50000000  0.84472600  0.25000000  1
  F  F0  1  0.16050100  0.32542900  0.10119900  1
  F  F1  1  0.83949900  0.67457100  0.89880100  1
  F  F2  1  0.33949900  0.17457100  0.60119900  1
  F  F3  1  0.83949900  0.32542900  0.39880100  1
  F  F4  1  0.66050100  0.82542900  0.39880100  1
  F  F5  1  0.16050100  0.67457100  0.60119900  1
  F  F6  1  0.66050100  0.17457100  0.89880100  1
  F  F7  1  0.33949900  0.82542900  0.10119900  1
  F  F8  1  0.24719900  0.08496500  0.31366500  1
  F  F9  1  0.75280100  0.91503500  0.68633500  1
  F  F10  1  0.25280100  0.41503500  0.81366500  1
  F  F11  1  0.75280100  0.08496500  0.18633500  1
  F  F12  1  0.74719900  0.58496500  0.18633500  1
  F  F13  1  0.24719900  0.91503500  0.81366500  1
  F  F14  1  0.74719900  0.41503500  0.68633500  1
  F  F15  1  0.25280100  0.58496500  0.31366500  1
loop_
_geom_bond_atom_site_label_1
_geom_bond_atom_site_label_2
_geom_bond_distance
_geom_bond_site_symmetry_2
Co0 F3 1.826919 1_455
Co0 F0 1.826919 1_555
Co0 F15 1.989651 1_555
Co0 F12 1.989651 1_455
Co0 F8 2.050121 1_555
Co0 F11 2.050121 1_455
Co1 F1 1.826919 1_455
Co1 F5 1.826919 1_555
Co1 F10 1.989651 1_555
Co1 F14 1.989651 1_455
Co1 F13 2.050121 1_555
Co1 F9 2.050121 1_455
Co2 F6 1.826919 1_555
Co2 F2 1.826919 1_555
Co2 F13 1.989651 1_545
Co2 F9 1.989651 1_545
Co2 F10 2.050121 1_555
Co2 F14 2.050121 1_555
Co3 F4 1.826919 1_555
Co3 F7 1.826919 1_555
Co3 F8 1.989651 1_565
Co3 F11 1.989651 1_565
Co3 F15 2.050121 1_555
Co3 F12 2.050121 1_555
F0 Na3 2.262824 1_555
F0 Na0 2.302463 1_555
F1 Na3 2.262824 1_556
F1 Na0 2.302463 1_666
F2 Na2 2.262824 1_555
F2 Na1 2.302463 1_555
F3 Na1 2.262824 1_555
F3 Na2 2.302463 1_655
F4 Na2 2.262824 1_665
F4 Na1 2.302463 1_555
F5 Na1 2.262824 1_555
F5 Na2 2.302463 1_565
F6 Na0 2.262824 1_656
F6 Na3 2.302463 1_556
F7 Na0 2.262824 1_565
F7 Na3 2.302463 1_555
F8 Na2 2.443095 1_555
F9 Na2 2.443095 1_665
F10 Na3 2.443095 1_556
F11 Na0 2.443095 1_655
F12 Na3 2.443095 1_555
F13 Na0 2.443095 1_566
F14 Na1 2.443095 1_555
F15 Na1 2.443095 1_555
