# generated using pymatgen
data_HfMg30NbO32
_symmetry_space_group_name_H-M   'P 1'
_cell_length_a   8.60036700
_cell_length_b   8.60036700
_cell_length_c   8.61340000
_cell_angle_alpha   90.00000000
_cell_angle_beta   90.00000000
_cell_angle_gamma   90.00000000
_symmetry_Int_Tables_number   1
_chemical_formula_structural   HfMg30NbO32
_chemical_formula_sum   'Hf1 Mg30 Nb1 O32'
_cell_volume   637.10143639
_cell_formula_units_Z   1
loop_
 _symmetry_equiv_pos_site_id
 _symmetry_equiv_pos_as_xyz
  1  'x, y, z'
loop_
 _atom_site_type_symbol
 _atom_site_label
 _atom_site_symmetry_multiplicity
 _atom_site_fract_x
 _atom_site_fract_y
 _atom_site_fract_z
 _atom_site_occupancy
  Hf  Hf0  1  0.00000000  0.00000000  0.50000000  1
  Mg  Mg0  1  0.00000000  0.50000000  0.00000000  1
  Mg  Mg1  1  0.00000000  0.50000000  0.50000000  1
  Mg  Mg2  1  0.50000000  0.00000000  0.00000000  1
  Mg  Mg3  1  0.50000000  0.00000000  0.50000000  1
  Mg  Mg4  1  0.50000000  0.50000000  0.00000000  1
  Mg  Mg5  1  0.50000000  0.50000000  0.50000000  1
  Mg  Mg6  1  0.00000000  0.25371000  0.24447400  1
  Mg  Mg7  1  0.00000000  0.25371000  0.75552600  1
  Mg  Mg8  1  0.00000000  0.74629000  0.24447400  1
  Mg  Mg9  1  0.00000000  0.74629000  0.75552600  1
  Mg  Mg10  1  0.50000000  0.25037800  0.24881100  1
  Mg  Mg11  1  0.50000000  0.25037800  0.75118900  1
  Mg  Mg12  1  0.50000000  0.74962200  0.24881100  1
  Mg  Mg13  1  0.50000000  0.74962200  0.75118900  1
  Mg  Mg14  1  0.25371000  0.00000000  0.24447400  1
  Mg  Mg15  1  0.25371000  0.00000000  0.75552600  1
  Mg  Mg16  1  0.25037800  0.50000000  0.24881100  1
  Mg  Mg17  1  0.25037800  0.50000000  0.75118900  1
  Mg  Mg18  1  0.74629000  0.00000000  0.24447400  1
  Mg  Mg19  1  0.74629000  0.00000000  0.75552600  1
  Mg  Mg20  1  0.74962200  0.50000000  0.24881100  1
  Mg  Mg21  1  0.74962200  0.50000000  0.75118900  1
  Mg  Mg22  1  0.25088000  0.25088000  0.00000000  1
  Mg  Mg23  1  0.25517100  0.25517100  0.50000000  1
  Mg  Mg24  1  0.25088000  0.74912000  0.00000000  1
  Mg  Mg25  1  0.25517100  0.74482900  0.50000000  1
  Mg  Mg26  1  0.74912000  0.25088000  0.00000000  1
  Mg  Mg27  1  0.74482900  0.25517100  0.50000000  1
  Mg  Mg28  1  0.74912000  0.74912000  0.00000000  1
  Mg  Mg29  1  0.74482900  0.74482900  0.50000000  1
  Nb  Nb0  1  0.00000000  0.00000000  0.00000000  1
  O  O0  1  0.26698900  0.00000000  0.00000000  1
  O  O1  1  0.25172600  0.00000000  0.50000000  1
  O  O2  1  0.25193600  0.50000000  0.00000000  1
  O  O3  1  0.25005400  0.50000000  0.50000000  1
  O  O4  1  0.73301100  0.00000000  0.00000000  1
  O  O5  1  0.74827400  0.00000000  0.50000000  1
  O  O6  1  0.74806400  0.50000000  0.00000000  1
  O  O7  1  0.74994600  0.50000000  0.50000000  1
  O  O8  1  0.24947400  0.24947400  0.25145100  1
  O  O9  1  0.24947400  0.24947400  0.74854900  1
  O  O10  1  0.24947400  0.75052600  0.25145100  1
  O  O11  1  0.24947400  0.75052600  0.74854900  1
  O  O12  1  0.75052600  0.24947400  0.25145100  1
  O  O13  1  0.75052600  0.24947400  0.74854900  1
  O  O14  1  0.75052600  0.75052600  0.25145100  1
  O  O15  1  0.75052600  0.75052600  0.74854900  1
  O  O16  1  0.00000000  0.00000000  0.25938300  1
  O  O17  1  0.00000000  0.00000000  0.74061700  1
  O  O18  1  0.00000000  0.50000000  0.25300800  1
  O  O19  1  0.00000000  0.50000000  0.74699200  1
  O  O20  1  0.50000000  0.00000000  0.25300800  1
  O  O21  1  0.50000000  0.00000000  0.74699200  1
  O  O22  1  0.50000000  0.50000000  0.25121200  1
  O  O23  1  0.50000000  0.50000000  0.74878800  1
  O  O24  1  0.00000000  0.26698900  0.00000000  1
  O  O25  1  0.00000000  0.25172600  0.50000000  1
  O  O26  1  0.00000000  0.73301100  0.00000000  1
  O  O27  1  0.00000000  0.74827400  0.50000000  1
  O  O28  1  0.50000000  0.25193600  0.00000000  1
  O  O29  1  0.50000000  0.25005400  0.50000000  1
  O  O30  1  0.50000000  0.74806400  0.00000000  1
  O  O31  1  0.50000000  0.74994600  0.50000000  1
loop_
_geom_bond_atom_site_label_1
_geom_bond_atom_site_label_2
_geom_bond_distance
_geom_bond_site_symmetry_2
Hf0 O17 2.072530 1_555
Hf0 O16 2.072530 1_555
Hf0 O27 2.164936 1_545
Hf0 O1 2.164936 1_555
Hf0 O5 2.164936 1_455
Hf0 O25 2.164936 1_555
Mg0 O26 2.003980 1_555
Mg0 O24 2.003980 1_555
Mg0 O2 2.166742 1_555
Mg0 O6 2.166742 1_455
Mg0 O18 2.179259 1_555
Mg0 O19 2.179259 1_554
Mg1 O18 2.127441 1_555
Mg1 O19 2.127441 1_555
Mg1 O27 2.135248 1_555
Mg1 O25 2.135248 1_555
Mg1 O3 2.150556 1_555
Mg1 O7 2.150556 1_455
Mg2 O4 2.003980 1_555
Mg2 O0 2.003980 1_555
Mg2 O28 2.166742 1_555
Mg2 O30 2.166742 1_545
Mg2 O20 2.179259 1_555
Mg2 O21 2.179259 1_554
Mg3 O21 2.127441 1_555
Mg3 O20 2.127441 1_555
Mg3 O1 2.135248 1_555
Mg3 O5 2.135248 1_555
Mg3 O31 2.150556 1_545
Mg3 O29 2.150556 1_555
Mg4 O30 2.133441 1_555
Mg4 O6 2.133441 1_555
Mg4 O2 2.133441 1_555
Mg4 O28 2.133441 1_555
Mg4 O23 2.163789 1_554
Mg4 O22 2.163789 1_555
Mg5 O22 2.142911 1_555
Mg5 O23 2.142911 1_555
Mg5 O29 2.149627 1_555
Mg5 O7 2.149627 1_555
Mg5 O31 2.149627 1_555
Mg5 O3 2.149627 1_555
Mg6 O24 2.108847 1_555
Mg6 O18 2.119459 1_555
Mg6 O8 2.146719 1_555
Mg6 O12 2.146719 1_455
Mg6 O16 2.185775 1_555
Mg6 O25 2.201014 1_555
Mg7 O24 2.108847 1_556
Mg7 O19 2.119459 1_555
Mg7 O9 2.146719 1_555
Mg7 O13 2.146719 1_455
Mg7 O17 2.185775 1_555
Mg7 O25 2.201014 1_555
Mg8 O26 2.108847 1_555
Mg8 O18 2.119459 1_555
Mg8 O10 2.146719 1_555
Mg8 O14 2.146719 1_455
Mg8 O16 2.185775 1_565
Mg8 O27 2.201014 1_555
Mg9 O26 2.108847 1_556
Mg9 O19 2.119459 1_555
Mg9 O11 2.146719 1_555
Mg9 O15 2.146719 1_455
Mg9 O17 2.185775 1_565
Mg9 O27 2.201014 1_555
Mg10 O28 2.143151 1_555
Mg10 O22 2.146940 1_555
Mg10 O20 2.153646 1_555
Mg10 O12 2.154750 1_555
Mg10 O8 2.154750 1_555
Mg10 O29 2.163593 1_555
Mg11 O28 2.143151 1_556
Mg11 O23 2.146940 1_555
Mg11 O21 2.153646 1_555
Mg11 O13 2.154750 1_555
Mg11 O9 2.154750 1_555
Mg11 O29 2.163593 1_555
Mg12 O30 2.143151 1_555
Mg12 O22 2.146940 1_555
Mg12 O20 2.153646 1_565
Mg12 O14 2.154750 1_555
Mg12 O10 2.154750 1_555
Mg12 O31 2.163593 1_555
Mg13 O30 2.143151 1_556
Mg13 O23 2.146940 1_555
Mg13 O21 2.153646 1_565
Mg13 O15 2.154750 1_555
Mg13 O11 2.154750 1_555
Mg13 O31 2.163593 1_555
Mg14 O0 2.108847 1_555
Mg14 O20 2.119459 1_555
Mg14 O8 2.146719 1_555
Mg14 O10 2.146719 1_545
Mg14 O16 2.185775 1_555
Mg14 O1 2.201014 1_555
Mg15 O0 2.108847 1_556
Mg15 O21 2.119459 1_555
Mg15 O9 2.146719 1_555
Mg15 O11 2.146719 1_545
Mg15 O17 2.185775 1_555
Mg15 O1 2.201014 1_555
Mg16 O2 2.143151 1_555
Mg16 O22 2.146940 1_555
Mg16 O18 2.153646 1_555
Mg16 O10 2.154750 1_555
Mg16 O8 2.154750 1_555
Mg16 O3 2.163593 1_555
Mg17 O2 2.143151 1_556
Mg17 O23 2.146940 1_555
Mg17 O19 2.153646 1_555
Mg17 O11 2.154750 1_555
Mg17 O9 2.154750 1_555
Mg17 O3 2.163593 1_555
Mg18 O4 2.108847 1_555
Mg18 O20 2.119459 1_555
Mg18 O12 2.146719 1_555
Mg18 O14 2.146719 1_545
Mg18 O16 2.185775 1_655
Mg18 O5 2.201014 1_555
Mg19 O4 2.108847 1_556
Mg19 O21 2.119459 1_555
Mg19 O13 2.146719 1_555
Mg19 O15 2.146719 1_545
Mg19 O17 2.185775 1_655
Mg19 O5 2.201014 1_555
Mg20 O6 2.143151 1_555
Mg20 O22 2.146940 1_555
Mg20 O18 2.153646 1_655
Mg20 O14 2.154750 1_555
Mg20 O12 2.154750 1_555
Mg20 O7 2.163593 1_555
Mg21 O6 2.143151 1_556
Mg21 O23 2.146940 1_555
Mg21 O19 2.153646 1_655
Mg21 O15 2.154750 1_555
Mg21 O13 2.154750 1_555
Mg21 O7 2.163593 1_555
Mg22 O2 2.142543 1_555
Mg22 O28 2.142543 1_555
Mg22 O0 2.162103 1_555
Mg22 O24 2.162103 1_555
Mg22 O8 2.165916 1_555
Mg22 O9 2.165916 1_554
Mg23 O29 2.106079 1_555
Mg23 O3 2.106079 1_555
Mg23 O8 2.141973 1_555
Mg23 O9 2.141973 1_555
Mg23 O1 2.194764 1_555
Mg23 O25 2.194764 1_555
Mg24 O30 2.142543 1_555
Mg24 O2 2.142543 1_555
Mg24 O26 2.162103 1_555
Mg24 O0 2.162103 1_565
Mg24 O10 2.165916 1_555
Mg24 O11 2.165916 1_554
Mg25 O3 2.106079 1_555
Mg25 O31 2.106079 1_555
Mg25 O11 2.141973 1_555
Mg25 O10 2.141973 1_555
Mg25 O27 2.194764 1_555
Mg25 O1 2.194764 1_565
Mg26 O28 2.142543 1_555
Mg26 O6 2.142543 1_555
Mg26 O24 2.162103 1_655
Mg26 O4 2.162103 1_555
Mg26 O13 2.165916 1_554
Mg26 O12 2.165916 1_555
Mg27 O29 2.106079 1_555
Mg27 O7 2.106079 1_555
Mg27 O13 2.141973 1_555
Mg27 O12 2.141973 1_555
Mg27 O5 2.194764 1_555
Mg27 O25 2.194764 1_655
Mg28 O30 2.142543 1_555
Mg28 O6 2.142543 1_555
Mg28 O26 2.162103 1_655
Mg28 O4 2.162103 1_565
Mg28 O15 2.165916 1_554
Mg28 O14 2.165916 1_555
Mg29 O31 2.106079 1_555
Mg29 O7 2.106079 1_555
Mg29 O15 2.141973 1_555
Mg29 O14 2.141973 1_555
Mg29 O27 2.194764 1_655
Mg29 O5 2.194764 1_565
Nb0 O16 2.234170 1_555
Nb0 O17 2.234170 1_554
Nb0 O0 2.296203 1_555
Nb0 O24 2.296203 1_555
Nb0 O4 2.296203 1_455
Nb0 O26 2.296203 1_545
