# generated using pymatgen
data_Na4V10Co(H11O13)4
_symmetry_space_group_name_H-M   'P 1'
_cell_length_a   9.00261367
_cell_length_b   11.42576409
_cell_length_c   11.85234475
_cell_angle_alpha   105.53092433
_cell_angle_beta   96.24034599
_cell_angle_gamma   100.53901470
_symmetry_Int_Tables_number   1
_chemical_formula_structural   Na4V10Co(H11O13)4
_chemical_formula_sum   'Na4 V10 Co1 H44 O52'
_cell_volume   1138.71002928
_cell_formula_units_Z   1
loop_
 _symmetry_equiv_pos_site_id
 _symmetry_equiv_pos_as_xyz
  1  'x, y, z'
loop_
 _atom_site_type_symbol
 _atom_site_label
 _atom_site_symmetry_multiplicity
 _atom_site_fract_x
 _atom_site_fract_y
 _atom_site_fract_z
 _atom_site_occupancy
  Na  Na0  1  0.78749385  0.90310413  0.20441778  1
  Na  Na1  1  0.21250615  0.09689587  0.79558222  1
  Na  Na2  1  -0.00000000  0.00000000  0.50000000  1
  Na  Na3  1  -0.00000000  0.00000000  0.00000000  1
  V  V0  1  0.53233178  0.47385565  0.72590170  1
  V  V1  1  0.46766822  0.52614435  0.27409830  1
  V  V2  1  0.67025726  0.75644156  0.74386385  1
  V  V3  1  0.32974274  0.24355844  0.25613615  1
  V  V4  1  0.46015669  0.73612123  0.50288391  1
  V  V5  1  0.53984331  0.26387877  0.49711609  1
  V  V6  1  0.31385103  0.44878907  0.48168095  1
  V  V7  1  0.68614897  0.55121093  0.51831905  1
  V  V8  1  0.31564699  0.66009624  0.71186930  1
  V  V9  1  0.68435301  0.33990376  0.28813070  1
  Co  Co0  1  -0.00000000  0.50000000  0.00000000  1
  H  H0  1  0.01153512  0.18248205  0.36256796  1
  H  H1  1  0.98846488  0.81751795  0.63743204  1
  H  H2  1  0.25857690  0.03143885  0.37650857  1
  H  H3  1  0.74142310  0.96856115  0.62349143  1
  H  H4  1  0.25151133  0.89941414  0.39220111  1
  H  H5  1  0.74848867  0.10058586  0.60779889  1
  H  H6  1  0.13767079  0.37050489  0.12587732  1
  H  H7  1  0.86232921  0.62949511  0.87412268  1
  H  H8  1  0.75544556  0.59584342  0.05738011  1
  H  H9  1  0.24455444  0.40415658  0.94261989  1
  H  H10  1  0.95979560  0.33952314  0.13267025  1
  H  H11  1  0.04020440  0.66047686  0.86732975  1
  H  H12  1  0.53952120  0.03863296  0.27923081  1
  H  H13  1  0.46047880  0.96136704  0.72076919  1
  H  H14  1  0.84363746  0.16376388  0.38545227  1
  H  H15  1  0.15636254  0.83623612  0.61454773  1
  H  H16  1  0.23937238  0.63825165  0.15487629  1
  H  H17  1  0.76062762  0.36174835  0.84512371  1
  H  H18  1  0.09157904  0.89547086  0.20633402  1
  H  H19  1  0.90842096  0.10452914  0.79366598  1
  H  H20  1  0.75582987  0.49378009  0.12447595  1
  H  H21  1  0.24417013  0.50621991  0.87552405  1
  H  H22  1  0.09002152  0.63628515  0.21747014  1
  H  H23  1  0.90997848  0.36371485  0.78252986  1
  H  H24  1  0.29523033  0.95327389  0.96405830  1
  H  H25  1  0.70476967  0.04672611  0.03594170  1
  H  H26  1  0.55105878  0.68106924  0.08715984  1
  H  H27  1  0.44894122  0.31893076  0.91284016  1
  H  H28  1  0.92007134  0.76152791  0.35160692  1
  H  H29  1  0.07992866  0.23847209  0.64839308  1
  H  H30  1  0.75543120  0.75707909  0.38117744  1
  H  H31  1  0.24456880  0.24292091  0.61882256  1
  H  H32  1  0.61277463  0.69627239  0.97104485  1
  H  H33  1  0.38722537  0.30372761  0.02895515  1
  H  H34  1  0.02603035  0.78781630  0.08751417  1
  H  H35  1  0.97396965  0.21218370  0.91248583  1
  H  H36  1  0.95931562  0.57951030  0.37247186  1
  H  H37  1  0.04068438  0.42048970  0.62752814  1
  H  H38  1  0.50826907  0.91483098  0.31526112  1
  H  H39  1  0.49173093  0.08516902  0.68473888  1
  H  H40  1  0.18282238  0.86863532  0.85114260  1
  H  H41  1  0.81717762  0.13136468  0.14885740  1
  H  H42  1  0.13787617  0.62291406  0.38783199  1
  H  H43  1  0.86212383  0.37708594  0.61216801  1
  O  O0  1  0.55843352  0.95473506  0.26059334  1
  O  O1  1  0.44156648  0.04526494  0.73940666  1
  O  O2  1  0.20735948  0.95318391  0.90669705  1
  O  O3  1  0.79264052  0.04681609  0.09330295  1
  O  O4  1  0.61482940  0.83121019  0.62377795  1
  O  O5  1  0.38517060  0.16878981  0.37622205  1
  O  O6  1  0.39142223  0.35178476  0.58088368  1
  O  O7  1  0.60857777  0.64821524  0.41911632  1
  O  O8  1  0.03348468  0.35784349  0.08000841  1
  O  O9  1  0.96651532  0.64215651  0.91999159  1
  O  O10  1  0.43004108  0.82960696  0.42205252  1
  O  O11  1  0.56995892  0.17039304  0.57794748  1
  O  O12  1  0.12949528  0.63945329  0.14218445  1
  O  O13  1  0.87050472  0.36054671  0.85781555  1
  O  O14  1  0.18566782  0.95279567  0.37136819  1
  O  O15  1  0.81433218  0.04720433  0.62863181  1
  O  O16  1  0.01699302  0.87100119  0.13180922  1
  O  O17  1  0.98300698  0.12899881  0.86819078  1
  O  O18  1  0.04087678  0.63819961  0.35331595  1
  O  O19  1  0.95912322  0.36180039  0.64668405  1
  O  O20  1  0.64479156  0.70627789  0.05539490  1
  O  O21  1  0.35520844  0.29372211  0.94460510  1
  O  O22  1  0.17555381  0.69864578  0.78336995  1
  O  O23  1  0.82444619  0.30135422  0.21663005  1
  O  O24  1  0.67721427  0.61808850  0.80330763  1
  O  O25  1  0.32278573  0.38191150  0.19669237  1
  O  O26  1  0.37044582  0.53562221  0.77712041  1
  O  O27  1  0.62955418  0.46437779  0.22287959  1
  O  O28  1  0.83992828  0.80996453  0.35852019  1
  O  O29  1  0.16007172  0.19003547  0.64147981  1
  O  O30  1  0.56234034  0.38024343  0.80673149  1
  O  O31  1  0.43765966  0.61975657  0.19326851  1
  O  O32  1  0.19556577  0.50976751  0.57756074  1
  O  O33  1  0.80443423  0.49023249  0.42243926  1
  O  O34  1  0.48879698  0.77263594  0.80002815  1
  O  O35  1  0.51120302  0.22736406  0.19997185  1
  O  O36  1  0.80167924  0.86533657  0.83955117  1
  O  O37  1  0.19832076  0.13466343  0.16044883  1
  O  O38  1  0.31004070  0.74612513  0.59697482  1
  O  O39  1  0.68995930  0.25387487  0.40302518  1
  O  O40  1  0.49748831  0.58792702  0.59723448  1
  O  O41  1  0.50251169  0.41207298  0.40276552  1
  O  O42  1  0.32657266  0.57095304  0.39599265  1
  O  O43  1  0.67342734  0.42904696  0.60400735  1
  O  O44  1  0.79955552  0.67792616  0.62762884  1
  O  O45  1  0.20044448  0.32207384  0.37237116  1
  O  O46  1  0.92553919  0.11829415  0.36684563  1
  O  O47  1  0.07446081  0.88170585  0.63315437  1
  O  O48  1  0.80644397  0.52725360  0.06603937  1
  O  O49  1  0.19355603  0.47274640  0.93396063  1
  O  O50  1  0.39318622  0.85914772  0.05514545  1
  O  O51  1  0.60681378  0.14085228  0.94485455  1
loop_
_geom_bond_atom_site_label_1
_geom_bond_atom_site_label_2
_geom_bond_distance
_geom_bond_site_symmetry_2
Na0 O3 2.361413 1_565
Na0 O0 2.361546 1_555
Na0 O16 2.374576 1_655
Na0 O28 2.393441 1_555
Na0 O20 2.479985 1_555
Na0 O46 2.668937 1_565
Na1 O2 2.361413 1_545
Na1 O1 2.361546 1_555
Na1 O17 2.374576 1_455
Na1 O29 2.393441 1_555
Na1 O21 2.479985 1_555
Na1 O47 2.668937 1_545
Na2 O15 2.419216 1_455
Na2 O14 2.419216 1_545
Na2 O29 2.446086 1_555
Na2 O28 2.446086 1_445
Na2 O46 2.451657 1_455
Na2 O47 2.451657 1_545
Na3 O3 2.343333 1_455
Na3 O2 2.343333 1_544
Na3 O36 2.421061 1_444
Na3 O37 2.421061 1_555
Na3 O17 2.429001 1_454
Na3 O16 2.429001 1_545
Co0 O48 2.027421 1_455
Co0 O49 2.027421 1_554
Co0 O12 2.047750 1_555
Co0 O13 2.047750 1_454
Co0 O9 2.137778 1_454
Co0 O8 2.137778 1_555
H0 O46 0.980077 1_455
H1 O47 0.980077 1_655
H2 O14 0.994074 1_545
H3 O15 0.994074 1_565
H4 O14 0.982564 1_555
H5 O15 0.982564 1_555
H6 O8 0.996807 1_555
H7 O9 0.996807 1_555
H8 O48 0.999973 1_555
H9 O49 0.999973 1_555
H10 O8 0.991302 1_655
H11 O9 0.991302 1_455
H12 O0 0.975283 1_545
H13 O1 0.975283 1_565
H14 O46 0.988089 1_555
H15 O47 0.988089 1_555
H16 O12 0.987432 1_555
H17 O13 0.987432 1_555
H18 O16 0.989638 1_555
H19 O17 0.989638 1_555
H20 O48 0.990114 1_555
H21 O49 0.990114 1_555
H22 O12 1.002669 1_555
H23 O13 1.002669 1_555
H24 O2 0.985095 1_555
H25 O3 0.985095 1_555
H26 O20 0.987420 1_555
H27 O21 0.987420 1_555
H28 O28 0.983964 1_555
H29 O29 0.983964 1_555
H30 O28 0.989473 1_555
H31 O29 0.989473 1_555
H32 O20 0.979661 1_556
H33 O21 0.979661 1_554
H34 O16 0.977732 1_555
H35 O17 0.977732 1_555
H36 O18 0.988946 1_655
H37 O19 0.988946 1_455
H38 O0 0.989015 1_555
H39 O1 0.989015 1_555
H40 O2 0.982474 1_555
H41 O3 0.982474 1_555
H42 O18 0.988338 1_555
H43 O19 0.988338 1_555
O4 V4 1.830746 1_555
O4 V2 1.912398 1_555
O5 V5 1.830746 1_555
O5 V3 1.912398 1_555
O6 V6 1.975120 1_555
O6 V5 2.006298 1_555
O6 V0 2.025785 1_555
O7 V7 1.975120 1_555
O7 V4 2.006298 1_555
O7 V1 2.025785 1_555
O10 V4 1.652199 1_555
O11 V5 1.652199 1_555
O22 V8 1.654838 1_555
O23 V9 1.654838 1_555
O24 V0 1.844628 1_555
O24 V2 1.903223 1_555
O25 V1 1.844628 1_555
O25 V3 1.903223 1_555
O26 V0 1.824758 1_555
O26 V8 1.904445 1_555
O27 V1 1.824758 1_555
O27 V9 1.904445 1_555
O30 V0 1.653177 1_555
O31 V1 1.653177 1_555
O32 V6 1.738182 1_555
O32 V8 2.033554 1_555
O33 V7 1.738182 1_555
O33 V9 2.033554 1_555
O34 V8 1.835279 1_555
O34 V2 1.851242 1_555
O35 V9 1.835279 1_555
O35 V3 1.851242 1_555
O36 V2 1.627340 1_555
O37 V3 1.627340 1_555
O38 V4 1.843638 1_555
O38 V8 1.882329 1_555
O39 V5 1.843638 1_555
O39 V9 1.882329 1_555
O40 V7 2.081204 1_555
O40 V6 2.125219 1_555
O40 V0 2.287519 1_555
O40 V4 2.317540 1_555
O40 V8 2.362899 1_555
O40 V2 2.381512 1_555
O41 V6 2.081204 1_555
O41 V7 2.125219 1_555
O41 V1 2.287519 1_555
O41 V5 2.317540 1_555
O41 V9 2.362899 1_555
O41 V3 2.381512 1_555
O42 V6 1.928429 1_555
O42 V4 2.042290 1_555
O42 V1 2.050269 1_555
O43 V7 1.928429 1_555
O43 V5 2.042290 1_555
O43 V0 2.050269 1_555
O44 V7 1.727502 1_555
O44 V2 2.031367 1_555
O45 V6 1.727502 1_555
O45 V3 2.031367 1_555
