# generated using pymatgen
data_OsPt4
_symmetry_space_group_name_H-M   'P 1'
_cell_length_a   22.98355011
_cell_length_b   22.98355011
_cell_length_c   22.98355061
_cell_angle_alpha   13.97675466
_cell_angle_beta   13.97675466
_cell_angle_gamma   13.97675188
_symmetry_Int_Tables_number   1
_chemical_formula_structural   OsPt4
_chemical_formula_sum   'Os8 Pt32'
_cell_volume   616.40456262
_cell_formula_units_Z   8
loop_
 _symmetry_equiv_pos_site_id
 _symmetry_equiv_pos_as_xyz
  1  'x, y, z'
loop_
 _atom_site_type_symbol
 _atom_site_label
 _atom_site_symmetry_multiplicity
 _atom_site_fract_x
 _atom_site_fract_y
 _atom_site_fract_z
 _atom_site_occupancy
  Os  Os0_0  1  0.00000000  0.00000000  0.00000000  1
  Os  Os0_1  1  0.00000000  0.00000000  0.50000000  1
  Os  Os0_2  1  0.00000000  0.50000000  0.00000000  1
  Os  Os0_3  1  0.00000000  0.50000000  0.50000000  1
  Os  Os0_4  1  0.50000000  0.00000000  0.00000000  1
  Os  Os0_5  1  0.50000000  0.00000000  0.50000000  1
  Os  Os0_6  1  0.50000000  0.50000000  0.00000000  1
  Os  Os0_7  1  0.50000000  0.50000000  0.50000000  1
  Pt  Pt0_0  1  0.30143450  0.30143450  0.30143450  1
  Pt  Pt0_1  1  0.30143450  0.30143450  0.80143450  1
  Pt  Pt0_2  1  0.30143450  0.80143450  0.30143450  1
  Pt  Pt0_3  1  0.30143450  0.80143450  0.80143450  1
  Pt  Pt0_4  1  0.80143450  0.30143450  0.30143450  1
  Pt  Pt0_5  1  0.80143450  0.30143450  0.80143450  1
  Pt  Pt0_6  1  0.80143450  0.80143450  0.30143450  1
  Pt  Pt0_7  1  0.80143450  0.80143450  0.80143450  1
  Pt  Pt1_0  1  0.10047800  0.10047800  0.10047800  1
  Pt  Pt1_1  1  0.10047800  0.10047800  0.60047800  1
  Pt  Pt1_2  1  0.10047800  0.60047800  0.10047800  1
  Pt  Pt1_3  1  0.10047800  0.60047800  0.60047800  1
  Pt  Pt1_4  1  0.60047800  0.10047800  0.10047800  1
  Pt  Pt1_5  1  0.60047800  0.10047800  0.60047800  1
  Pt  Pt1_6  1  0.60047800  0.60047800  0.10047800  1
  Pt  Pt1_7  1  0.60047800  0.60047800  0.60047800  1
  Pt  Pt2_0  1  0.39952200  0.39952200  0.39952200  1
  Pt  Pt2_1  1  0.39952200  0.39952200  0.89952200  1
  Pt  Pt2_2  1  0.39952200  0.89952200  0.39952200  1
  Pt  Pt2_3  1  0.39952200  0.89952200  0.89952200  1
  Pt  Pt2_4  1  0.89952200  0.39952200  0.39952200  1
  Pt  Pt2_5  1  0.89952200  0.39952200  0.89952200  1
  Pt  Pt2_6  1  0.89952200  0.89952200  0.39952200  1
  Pt  Pt2_7  1  0.89952200  0.89952200  0.89952200  1
  Pt  Pt3_0  1  0.19856550  0.19856550  0.19856550  1
  Pt  Pt3_1  1  0.19856550  0.19856550  0.69856550  1
  Pt  Pt3_2  1  0.19856550  0.69856550  0.19856550  1
  Pt  Pt3_3  1  0.19856550  0.69856550  0.69856550  1
  Pt  Pt3_4  1  0.69856550  0.19856550  0.19856550  1
  Pt  Pt3_5  1  0.69856550  0.19856550  0.69856550  1
  Pt  Pt3_6  1  0.69856550  0.69856550  0.19856550  1
  Pt  Pt3_7  1  0.69856550  0.69856550  0.69856550  1
loop_
_geom_bond_atom_site_label_1
_geom_bond_atom_site_label_2
_geom_bond_distance
_geom_bond_site_symmetry_2
Os0_0 Pt3_4 2.710835 1_455
Os0_0 Pt3_2 2.710835 1_545
Os0_0 Pt0_3 2.710835 1_544
Os0_0 Pt0_5 2.710835 1_454
Os0_0 Pt3_1 2.710835 1_554
Os0_0 Pt0_6 2.710835 1_445
Os0_0 Os0_6 2.796362 1_455
Os0_0 Os0_6 2.796362 1_545
Os0_0 Os0_3 2.796363 1_545
Os0_0 Os0_5 2.796363 1_554
Os0_0 Os0_5 2.796363 1_455
Os0_0 Os0_3 2.796363 1_554
Os0_1 Pt3_5 2.710835 1_455
Os0_1 Pt3_3 2.710835 1_545
Os0_1 Pt0_2 2.710835 1_545
Os0_1 Pt0_4 2.710835 1_455
Os0_1 Pt3_0 2.710835 1_555
Os0_1 Pt0_7 2.710835 1_445
Os0_1 Os0_7 2.796362 1_545
Os0_1 Os0_7 2.796362 1_455
Os0_1 Os0_2 2.796363 1_546
Os0_1 Os0_4 2.796363 1_555
Os0_1 Os0_2 2.796363 1_555
Os0_1 Os0_4 2.796363 1_456
Os0_2 Pt3_0 2.710835 1_555
Os0_2 Pt3_6 2.710835 1_455
Os0_2 Pt0_1 2.710835 1_554
Os0_2 Pt0_7 2.710835 1_454
Os0_2 Pt3_3 2.710835 1_554
Os0_2 Pt0_4 2.710835 1_455
Os0_2 Os0_4 2.796362 1_555
Os0_2 Os0_4 2.796362 1_465
Os0_2 Os0_7 2.796363 1_554
Os0_2 Os0_7 2.796363 1_455
Os0_3 Pt3_7 2.710835 1_455
Os0_3 Pt3_1 2.710835 1_555
Os0_3 Pt0_0 2.710835 1_555
Os0_3 Pt0_6 2.710835 1_455
Os0_3 Pt3_2 2.710835 1_555
Os0_3 Pt0_5 2.710835 1_455
Os0_3 Os0_5 2.796362 1_465
Os0_3 Os0_5 2.796362 1_555
Os0_3 Os0_6 2.796363 1_555
Os0_3 Os0_6 2.796363 1_456
Os0_4 Pt3_6 2.710835 1_545
Os0_4 Pt3_0 2.710835 1_555
Os0_4 Pt0_1 2.710835 1_554
Os0_4 Pt0_7 2.710835 1_544
Os0_4 Pt3_5 2.710835 1_554
Os0_4 Pt0_2 2.710835 1_545
Os0_4 Os0_7 2.796363 1_554
Os0_4 Os0_7 2.796363 1_545
Os0_5 Pt3_7 2.710835 1_545
Os0_5 Pt3_1 2.710835 1_555
Os0_5 Pt0_0 2.710835 1_555
Os0_5 Pt0_6 2.710835 1_545
Os0_5 Pt3_4 2.710835 1_555
Os0_5 Pt0_3 2.710835 1_545
Os0_5 Os0_6 2.796363 1_546
Os0_5 Os0_6 2.796363 1_555
Os0_6 Pt3_4 2.710835 1_555
Os0_6 Pt3_2 2.710835 1_555
Os0_6 Pt0_3 2.710835 1_554
Os0_6 Pt0_5 2.710835 1_554
Os0_6 Pt3_7 2.710835 1_554
Os0_6 Pt0_0 2.710835 1_555
Os0_7 Pt3_5 2.710835 1_555
Os0_7 Pt3_3 2.710835 1_555
Os0_7 Pt0_2 2.710835 1_555
Os0_7 Pt0_4 2.710835 1_555
Os0_7 Pt3_6 2.710835 1_555
Os0_7 Pt0_1 2.710835 1_555
Pt0_0 Pt0_6 2.796362 1_545
Pt0_0 Pt0_6 2.796362 1_455
Pt0_0 Pt0_5 2.796363 1_554
Pt0_0 Pt0_3 2.796363 1_545
Pt0_0 Pt0_5 2.796363 1_455
Pt0_0 Pt0_3 2.796363 1_554
Pt0_0 Pt1_2 2.843618 1_555
Pt0_0 Pt1_4 2.843618 1_555
Pt0_0 Pt1_1 2.843618 1_555
Pt0_1 Pt0_7 2.796362 1_545
Pt0_1 Pt0_7 2.796362 1_455
Pt0_1 Pt0_4 2.796363 1_555
Pt0_1 Pt0_2 2.796363 1_555
Pt0_1 Pt0_2 2.796363 1_546
Pt0_1 Pt0_4 2.796363 1_456
Pt0_1 Pt1_3 2.843618 1_555
Pt0_1 Pt1_5 2.843618 1_555
Pt0_1 Pt1_0 2.843618 1_556
Pt0_2 Pt0_4 2.796362 1_555
Pt0_2 Pt0_4 2.796362 1_465
Pt0_2 Pt0_7 2.796363 1_554
Pt0_2 Pt0_7 2.796363 1_455
Pt0_2 Pt1_0 2.843618 1_565
Pt0_2 Pt1_6 2.843618 1_555
Pt0_2 Pt1_3 2.843618 1_555
Pt0_3 Pt0_5 2.796362 1_465
Pt0_3 Pt0_5 2.796362 1_555
Pt0_3 Pt0_6 2.796363 1_555
Pt0_3 Pt0_6 2.796363 1_456
Pt0_3 Pt1_1 2.843618 1_565
Pt0_3 Pt1_7 2.843618 1_555
Pt0_3 Pt1_2 2.843618 1_556
Pt0_4 Pt0_7 2.796363 1_554
Pt0_4 Pt0_7 2.796363 1_545
Pt0_4 Pt1_0 2.843618 1_655
Pt0_4 Pt1_6 2.843618 1_555
Pt0_4 Pt1_5 2.843618 1_555
Pt0_5 Pt0_6 2.796363 1_555
Pt0_5 Pt0_6 2.796363 1_546
Pt0_5 Pt1_1 2.843618 1_655
Pt0_5 Pt1_7 2.843618 1_555
Pt0_5 Pt1_4 2.843618 1_556
Pt0_6 Pt1_4 2.843618 1_565
Pt0_6 Pt1_2 2.843618 1_655
Pt0_6 Pt1_7 2.843618 1_555
Pt0_7 Pt1_5 2.843618 1_565
Pt0_7 Pt1_3 2.843618 1_655
Pt0_7 Pt1_6 2.843618 1_556
Pt1_0 Pt1_6 2.796362 1_545
Pt1_0 Pt1_6 2.796362 1_455
Pt1_0 Pt1_5 2.796363 1_455
Pt1_0 Pt1_3 2.796363 1_545
Pt1_0 Pt1_5 2.796363 1_554
Pt1_0 Pt1_3 2.796363 1_554
Pt1_0 Pt2_3 2.843589 1_544
Pt1_0 Pt2_5 2.843589 1_454
Pt1_0 Pt2_6 2.843589 1_445
Pt1_1 Pt1_7 2.796362 1_545
Pt1_1 Pt1_7 2.796362 1_455
Pt1_1 Pt1_4 2.796363 1_555
Pt1_1 Pt1_2 2.796363 1_555
Pt1_1 Pt1_2 2.796363 1_546
Pt1_1 Pt1_4 2.796363 1_456
Pt1_1 Pt2_4 2.843589 1_455
Pt1_1 Pt2_2 2.843589 1_545
Pt1_1 Pt2_7 2.843589 1_445
Pt1_2 Pt1_4 2.796362 1_465
Pt1_2 Pt1_4 2.796362 1_555
Pt1_2 Pt1_7 2.796363 1_554
Pt1_2 Pt1_7 2.796363 1_455
Pt1_2 Pt2_1 2.843589 1_554
Pt1_2 Pt2_7 2.843589 1_454
Pt1_2 Pt2_4 2.843589 1_455
Pt1_3 Pt1_5 2.796362 1_465
Pt1_3 Pt1_5 2.796362 1_555
Pt1_3 Pt1_6 2.796363 1_555
Pt1_3 Pt1_6 2.796363 1_456
Pt1_3 Pt2_6 2.843589 1_455
Pt1_3 Pt2_0 2.843589 1_555
Pt1_3 Pt2_5 2.843589 1_455
Pt1_4 Pt1_7 2.796363 1_545
Pt1_4 Pt1_7 2.796363 1_554
Pt1_4 Pt2_1 2.843589 1_554
Pt1_4 Pt2_7 2.843589 1_544
Pt1_4 Pt2_2 2.843589 1_545
Pt1_5 Pt1_6 2.796363 1_555
Pt1_5 Pt1_6 2.796363 1_546
Pt1_5 Pt2_6 2.843589 1_545
Pt1_5 Pt2_0 2.843589 1_555
Pt1_5 Pt2_3 2.843589 1_545
Pt1_6 Pt2_3 2.843589 1_554
Pt1_6 Pt2_5 2.843589 1_554
Pt1_6 Pt2_0 2.843589 1_555
Pt1_7 Pt2_4 2.843589 1_555
Pt1_7 Pt2_2 2.843589 1_555
Pt1_7 Pt2_1 2.843589 1_555
Pt2_0 Pt2_6 2.796362 1_545
Pt2_0 Pt2_6 2.796362 1_455
Pt2_0 Pt2_5 2.796363 1_554
Pt2_0 Pt2_3 2.796363 1_554
Pt2_0 Pt2_3 2.796363 1_545
Pt2_0 Pt2_5 2.796363 1_455
Pt2_0 Pt3_2 2.843618 1_555
Pt2_0 Pt3_4 2.843618 1_555
Pt2_0 Pt3_1 2.843618 1_555
Pt2_1 Pt2_7 2.796362 1_545
Pt2_1 Pt2_7 2.796362 1_455
Pt2_1 Pt2_4 2.796363 1_456
Pt2_1 Pt2_2 2.796363 1_546
Pt2_1 Pt2_4 2.796363 1_555
Pt2_1 Pt2_2 2.796363 1_555
Pt2_1 Pt3_3 2.843618 1_555
Pt2_1 Pt3_5 2.843618 1_555
Pt2_1 Pt3_0 2.843618 1_556
Pt2_2 Pt2_4 2.796362 1_465
Pt2_2 Pt2_4 2.796362 1_555
Pt2_2 Pt2_7 2.796363 1_554
Pt2_2 Pt2_7 2.796363 1_455
Pt2_2 Pt3_6 2.843618 1_555
Pt2_2 Pt3_0 2.843618 1_565
Pt2_2 Pt3_3 2.843618 1_555
Pt2_3 Pt2_5 2.796362 1_555
Pt2_3 Pt2_5 2.796362 1_465
Pt2_3 Pt2_6 2.796363 1_456
Pt2_3 Pt2_6 2.796363 1_555
Pt2_3 Pt3_1 2.843618 1_565
Pt2_3 Pt3_7 2.843618 1_555
Pt2_3 Pt3_2 2.843618 1_556
Pt2_4 Pt2_7 2.796363 1_554
Pt2_4 Pt2_7 2.796363 1_545
Pt2_4 Pt3_0 2.843618 1_655
Pt2_4 Pt3_6 2.843618 1_555
Pt2_4 Pt3_5 2.843618 1_555
Pt2_5 Pt2_6 2.796363 1_546
Pt2_5 Pt2_6 2.796363 1_555
Pt2_5 Pt3_1 2.843618 1_655
Pt2_5 Pt3_7 2.843618 1_555
Pt2_5 Pt3_4 2.843618 1_556
Pt2_6 Pt3_4 2.843618 1_565
Pt2_6 Pt3_2 2.843618 1_655
Pt2_6 Pt3_7 2.843618 1_555
Pt2_7 Pt3_5 2.843618 1_565
Pt2_7 Pt3_3 2.843618 1_655
Pt2_7 Pt3_6 2.843618 1_556
Pt3_0 Pt3_6 2.796362 1_545
Pt3_0 Pt3_6 2.796362 1_455
Pt3_0 Pt3_5 2.796363 1_554
Pt3_0 Pt3_3 2.796363 1_545
Pt3_0 Pt3_3 2.796363 1_554
Pt3_0 Pt3_5 2.796363 1_455
Pt3_1 Pt3_7 2.796362 1_545
Pt3_1 Pt3_7 2.796362 1_455
Pt3_1 Pt3_4 2.796363 1_555
Pt3_1 Pt3_2 2.796363 1_546
Pt3_1 Pt3_2 2.796363 1_555
Pt3_1 Pt3_4 2.796363 1_456
Pt3_2 Pt3_4 2.796362 1_555
Pt3_2 Pt3_4 2.796362 1_465
Pt3_2 Pt3_7 2.796363 1_554
Pt3_2 Pt3_7 2.796363 1_455
Pt3_3 Pt3_5 2.796362 1_465
Pt3_3 Pt3_5 2.796362 1_555
Pt3_3 Pt3_6 2.796363 1_456
Pt3_3 Pt3_6 2.796363 1_555
Pt3_4 Pt3_7 2.796363 1_554
Pt3_4 Pt3_7 2.796363 1_545
Pt3_5 Pt3_6 2.796363 1_546
Pt3_5 Pt3_6 2.796363 1_555
