# generated using pymatgen
data_Yb2GeSe4
_symmetry_space_group_name_H-M   'P 1'
_cell_length_a   6.79771682
_cell_length_b   7.05283500
_cell_length_c   8.02774785
_cell_angle_alpha   90.00000000
_cell_angle_beta   107.58374636
_cell_angle_gamma   90.00000000
_symmetry_Int_Tables_number   1
_chemical_formula_structural   Yb2GeSe4
_chemical_formula_sum   'Yb4 Ge2 Se8'
_cell_volume   366.89294403
_cell_formula_units_Z   2
loop_
 _symmetry_equiv_pos_site_id
 _symmetry_equiv_pos_as_xyz
  1  'x, y, z'
loop_
 _atom_site_type_symbol
 _atom_site_label
 _atom_site_symmetry_multiplicity
 _atom_site_fract_x
 _atom_site_fract_y
 _atom_site_fract_z
 _atom_site_occupancy
  Yb  Yb0  1  0.27368300  0.75000000  0.94536200  1
  Yb  Yb1  1  0.72631700  0.25000000  0.05463800  1
  Yb  Yb2  1  0.26642100  0.75000000  0.43899500  1
  Yb  Yb3  1  0.73357900  0.25000000  0.56100500  1
  Ge  Ge0  1  0.73754200  0.75000000  0.80541200  1
  Ge  Ge1  1  0.26245800  0.25000000  0.19458800  1
  Se  Se0  1  0.93107600  0.75000000  0.10274600  1
  Se  Se1  1  0.06892400  0.25000000  0.89725400  1
  Se  Se2  1  0.93677900  0.75000000  0.61231000  1
  Se  Se3  1  0.06322100  0.25000000  0.38769000  1
  Se  Se4  1  0.49614500  0.49589000  0.74381400  1
  Se  Se5  1  0.50385500  0.99589000  0.25618600  1
  Se  Se6  1  0.50385500  0.50411000  0.25618600  1
  Se  Se7  1  0.49614500  0.00411000  0.74381400  1
loop_
_geom_bond_atom_site_label_1
_geom_bond_atom_site_label_2
_geom_bond_distance
_geom_bond_site_symmetry_2
Ge0 Se2 2.346451 1_555
Ge0 Se0 2.351779 1_556
Ge0 Se4 2.378851 1_555
Ge0 Se7 2.378851 1_565
Ge1 Se3 2.346451 1_555
Ge1 Se1 2.351779 1_554
Ge1 Se6 2.378851 1_555
Ge1 Se5 2.378851 1_545
Se0 Yb2 2.960574 1_655
Se0 Yb0 2.966161 1_654
Se1 Yb3 2.960574 1_455
Se1 Yb1 2.966161 1_456
Se2 Yb0 2.948518 1_655
Se2 Yb2 2.973341 1_655
Se3 Yb1 2.948518 1_455
Se3 Yb3 2.973341 1_455
Se4 Yb3 3.032715 1_555
Se4 Yb1 3.053338 1_556
Se4 Yb2 3.054443 1_555
Se4 Yb0 3.097579 1_555
Se5 Yb2 3.032715 1_555
Se5 Yb0 3.053338 1_554
Se5 Yb3 3.054443 1_565
Se5 Yb1 3.097579 1_565
Se6 Yb2 3.032715 1_555
Se6 Yb0 3.053338 1_554
Se6 Yb3 3.054443 1_555
Se6 Yb1 3.097579 1_555
Se7 Yb3 3.032715 1_555
Se7 Yb1 3.053338 1_556
Se7 Yb2 3.054443 1_545
Se7 Yb0 3.097579 1_545
