# generated using pymatgen
data_Eu(DyS2)2
_symmetry_space_group_name_H-M   'P 1'
_cell_length_a   3.96698775
_cell_length_b   11.87653503
_cell_length_c   14.25424695
_cell_angle_alpha   90.00000000
_cell_angle_beta   90.00000000
_cell_angle_gamma   90.00000000
_symmetry_Int_Tables_number   1
_chemical_formula_structural   Eu(DyS2)2
_chemical_formula_sum   'Eu4 Dy8 S16'
_cell_volume   671.57557401
_cell_formula_units_Z   4
loop_
 _symmetry_equiv_pos_site_id
 _symmetry_equiv_pos_as_xyz
  1  'x, y, z'
loop_
 _atom_site_type_symbol
 _atom_site_label
 _atom_site_symmetry_multiplicity
 _atom_site_fract_x
 _atom_site_fract_y
 _atom_site_fract_z
 _atom_site_occupancy
  Eu  Eu0  1  0.25000000  0.75602231  0.33886974  1
  Eu  Eu1  1  0.25000000  0.25602231  0.16113026  1
  Eu  Eu2  1  0.75000000  0.24397769  0.66113026  1
  Eu  Eu3  1  0.75000000  0.74397769  0.83886974  1
  Dy  Dy0  1  0.25000000  0.42950231  0.38986274  1
  Dy  Dy1  1  0.25000000  0.92950231  0.11013726  1
  Dy  Dy2  1  0.75000000  0.57049769  0.61013726  1
  Dy  Dy3  1  0.75000000  0.07049769  0.88986274  1
  Dy  Dy4  1  0.25000000  0.41968528  0.89892242  1
  Dy  Dy5  1  0.25000000  0.91968528  0.60107758  1
  Dy  Dy6  1  0.75000000  0.58031472  0.10107758  1
  Dy  Dy7  1  0.75000000  0.08031472  0.39892242  1
  S  S0  1  0.25000000  0.20903975  0.82117577  1
  S  S1  1  0.25000000  0.70903975  0.67882423  1
  S  S2  1  0.75000000  0.79096025  0.17882423  1
  S  S3  1  0.75000000  0.29096025  0.32117577  1
  S  S4  1  0.25000000  0.13322912  0.52720089  1
  S  S5  1  0.25000000  0.63322912  0.97279911  1
  S  S6  1  0.75000000  0.86677088  0.47279911  1
  S  S7  1  0.75000000  0.36677088  0.02720089  1
  S  S8  1  0.25000000  0.02058272  0.28419943  1
  S  S9  1  0.25000000  0.52058272  0.21580057  1
  S  S10  1  0.75000000  0.97941728  0.71580057  1
  S  S11  1  0.75000000  0.47941728  0.78419943  1
  S  S12  1  0.25000000  0.41425808  0.57996530  1
  S  S13  1  0.25000000  0.91425808  0.92003470  1
  S  S14  1  0.75000000  0.58574192  0.42003470  1
  S  S15  1  0.75000000  0.08574192  0.07996530  1
loop_
_geom_bond_atom_site_label_1
_geom_bond_atom_site_label_2
_geom_bond_distance
_geom_bond_site_symmetry_2
Eu0 S6 3.051033 1_455
Eu0 S6 3.051033 1_555
Eu0 S2 3.051374 1_455
Eu0 S2 3.051374 1_555
Eu0 S14 3.059842 1_455
Eu0 S14 3.059842 1_555
Eu0 S8 3.237257 1_565
Eu0 S9 3.300938 1_555
Eu1 S7 3.051033 1_455
Eu1 S7 3.051033 1_555
Eu1 S3 3.051374 1_455
Eu1 S3 3.051374 1_555
Eu1 S15 3.059842 1_455
Eu1 S15 3.059842 1_555
Eu1 S9 3.237257 1_555
Eu1 S8 3.300938 1_555
Eu2 S4 3.051033 1_655
Eu2 S4 3.051033 1_555
Eu2 S0 3.051374 1_555
Eu2 S0 3.051374 1_655
Eu2 S12 3.059842 1_655
Eu2 S12 3.059842 1_555
Eu2 S10 3.237257 1_545
Eu2 S11 3.300938 1_555
Eu3 S5 3.051033 1_555
Eu3 S5 3.051033 1_655
Eu3 S1 3.051374 1_555
Eu3 S1 3.051374 1_655
Eu3 S13 3.059842 1_555
Eu3 S13 3.059842 1_655
Eu3 S11 3.237257 1_555
Eu3 S10 3.300938 1_555
Dy0 S9 2.706677 1_555
Dy0 S12 2.715810 1_555
Dy0 S14 2.749984 1_455
Dy0 S14 2.749984 1_555
Dy0 S3 2.756844 1_455
Dy0 S3 2.756844 1_555
Dy1 S8 2.706677 1_565
Dy1 S13 2.715810 1_554
Dy1 S15 2.749984 1_465
Dy1 S15 2.749984 1_565
Dy1 S2 2.756844 1_455
Dy1 S2 2.756844 1_555
Dy2 S11 2.706677 1_555
Dy2 S14 2.715810 1_555
Dy2 S12 2.749984 1_655
Dy2 S12 2.749984 1_555
Dy2 S1 2.756844 1_555
Dy2 S1 2.756844 1_655
Dy3 S10 2.706677 1_545
Dy3 S15 2.715810 1_556
Dy3 S13 2.749984 1_645
Dy3 S13 2.749984 1_545
Dy3 S0 2.756844 1_655
Dy3 S0 2.756844 1_555
Dy4 S11 2.666774 1_455
Dy4 S11 2.666774 1_555
Dy4 S0 2.736211 1_555
Dy4 S5 2.746095 1_555
Dy4 S7 2.769954 1_556
Dy4 S7 2.769954 1_456
Dy5 S10 2.666774 1_455
Dy5 S10 2.666774 1_555
Dy5 S1 2.736211 1_555
Dy5 S4 2.746095 1_565
Dy5 S6 2.769954 1_455
Dy5 S6 2.769954 1_555
Dy6 S9 2.666774 1_555
Dy6 S9 2.666774 1_655
Dy6 S2 2.736211 1_555
Dy6 S7 2.746095 1_555
Dy6 S5 2.769954 1_654
Dy6 S5 2.769954 1_554
Dy7 S8 2.666774 1_655
Dy7 S8 2.666774 1_555
Dy7 S3 2.736211 1_555
Dy7 S6 2.746095 1_545
Dy7 S4 2.769954 1_555
Dy7 S4 2.769954 1_655
