# generated using pymatgen
data_Cs3VSe4
_symmetry_space_group_name_H-M   'P 1'
_cell_length_a   7.45453031
_cell_length_b   7.45453031
_cell_length_c   7.45453031
_cell_angle_alpha   109.47122063
_cell_angle_beta   109.47122063
_cell_angle_gamma   109.47122063
_symmetry_Int_Tables_number   1
_chemical_formula_structural   Cs3VSe4
_chemical_formula_sum   'Cs3 V1 Se4'
_cell_volume   318.88857782
_cell_formula_units_Z   1
loop_
 _symmetry_equiv_pos_site_id
 _symmetry_equiv_pos_as_xyz
  1  'x, y, z'
loop_
 _atom_site_type_symbol
 _atom_site_label
 _atom_site_symmetry_multiplicity
 _atom_site_fract_x
 _atom_site_fract_y
 _atom_site_fract_z
 _atom_site_occupancy
  Cs  Cs0  1  0.50000000  0.50000000  -0.00000000  1
  Cs  Cs1  1  -0.00000000  0.50000000  0.50000000  1
  Cs  Cs2  1  0.50000000  -0.00000000  0.50000000  1
  V  V0  1  -0.00000000  -0.00000000  -0.00000000  1
  Se  Se0  1  0.30707416  -0.00000000  0.00000000  1
  Se  Se1  1  -0.00000000  0.00000000  0.30707416  1
  Se  Se2  1  0.69292584  0.69292584  0.69292584  1
  Se  Se3  1  0.00000000  0.30707416  0.00000000  1
loop_
_geom_bond_atom_site_label_1
_geom_bond_atom_site_label_2
_geom_bond_distance
_geom_bond_site_symmetry_2
Cs0 Se3 3.519547 1_555
Cs0 Se0 3.519547 1_555
Cs0 Se1 3.519547 1_665
Cs0 Se2 3.519547 1_554
Cs1 Se3 3.519547 1_555
Cs1 Se1 3.519547 1_555
Cs1 Se0 3.519547 1_566
Cs1 Se2 3.519547 1_455
Cs2 Se2 3.519547 1_545
Cs2 Se1 3.519547 1_555
Cs2 Se0 3.519547 1_555
Cs2 Se3 3.519547 1_656
Se0 V0 2.289094 1_555
Se1 V0 2.289094 1_555
Se2 V0 2.289094 1_666
Se3 V0 2.289094 1_555
