# generated using pymatgen
data_Ca3Fe2(ReO6)2
_symmetry_space_group_name_H-M   'P 1'
_cell_length_a   5.37929200
_cell_length_b   5.53661938
_cell_length_c   7.72428361
_cell_angle_alpha   89.98173440
_cell_angle_beta   89.98625516
_cell_angle_gamma   89.55050771
_symmetry_Int_Tables_number   1
_chemical_formula_structural   Ca3Fe2(ReO6)2
_chemical_formula_sum   'Ca3 Fe2 Re2 O12'
_cell_volume   230.04595434
_cell_formula_units_Z   1
loop_
 _symmetry_equiv_pos_site_id
 _symmetry_equiv_pos_as_xyz
  1  'x, y, z'
loop_
 _atom_site_type_symbol
 _atom_site_label
 _atom_site_symmetry_multiplicity
 _atom_site_fract_x
 _atom_site_fract_y
 _atom_site_fract_z
 _atom_site_occupancy
  Ca  Ca0  1  0.01550000  0.94263200  0.75288900  1
  Ca  Ca1  1  0.49002700  0.44899000  0.74936300  1
  Ca  Ca2  1  0.51086500  0.55320400  0.25248100  1
  Fe  Fe0  1  0.00006500  0.48952300  0.00403300  1
  Fe  Fe1  1  0.50330200  0.00067700  0.49609800  1
  Re  Re0  1  0.50416600  0.00267700  0.00881600  1
  Re  Re1  1  0.99751300  0.49248700  0.49222100  1
  O  O0  1  0.08183900  0.47564700  0.25755900  1
  O  O1  1  0.42477500  0.98397200  0.24178600  1
  O  O2  1  0.91911500  0.52226800  0.74450600  1
  O  O3  1  0.58908700  0.02172100  0.75618500  1
  O  O4  1  0.78122500  0.79586200  0.03655400  1
  O  O5  1  0.70371900  0.30534900  0.46465200  1
  O  O6  1  0.21921300  0.20233400  0.94914600  1
  O  O7  1  0.28850200  0.69732700  0.53953500  1
  O  O8  1  0.30205000  0.71569400  0.95631900  1
  O  O9  1  0.19929100  0.21823900  0.55249400  1
  O  O10  1  0.79737300  0.77430900  0.45976600  1
  O  O11  1  0.68652400  0.29591900  0.03800000  1
loop_
_geom_bond_atom_site_label_1
_geom_bond_atom_site_label_2
_geom_bond_distance
_geom_bond_site_symmetry_2
Ca0 O3 2.331980 1_465
Ca0 O6 2.365020 1_565
Ca0 O2 2.389316 1_455
Ca0 O9 2.392357 1_565
Ca0 O8 2.528517 1_555
Ca0 O7 2.585761 1_555
Ca0 O4 2.657647 1_456
Ca0 O10 2.718737 1_455
Ca1 O2 2.346996 1_555
Ca1 O7 2.380883 1_555
Ca1 O8 2.394939 1_555
Ca1 O3 2.421378 1_555
Ca1 O6 2.529309 1_555
Ca1 O9 2.534627 1_555
Ca1 O5 2.603045 1_555
Ca1 O11 2.606172 1_556
Ca2 O0 2.351089 1_555
Ca2 O5 2.371144 1_555
Ca2 O11 2.376210 1_555
Ca2 O1 2.427359 1_555
Ca2 O10 2.543537 1_555
Ca2 O4 2.594228 1_555
Ca2 O7 2.639841 1_555
Ca2 O8 2.699717 1_554
Fe0 O0 2.008520 1_555
Fe0 O6 2.017056 1_554
Fe0 O11 2.022504 1_455
Fe0 O2 2.059150 1_454
Fe0 O4 2.072296 1_455
Fe0 O8 2.091439 1_554
Fe1 O1 2.011691 1_545
Fe1 O5 2.023591 1_555
Fe1 O10 2.029986 1_545
Fe1 O3 2.064942 1_555
Fe1 O9 2.069837 1_555
Fe1 O7 2.073264 1_545
O0 Re1 1.870565 1_455
O1 Re0 1.852461 1_565
O2 Re1 2.000318 1_555
O3 Re0 2.006971 1_556
O4 Re0 1.884547 1_565
O5 Re1 1.908546 1_555
O6 Re0 1.938413 1_556
O7 Re1 1.974437 1_455
O8 Re0 1.974565 1_566
O9 Re1 1.916869 1_455
O10 Re1 1.905289 1_555
O11 Re0 1.916872 1_555
