# generated using pymatgen
data_TlBiF4
_symmetry_space_group_name_H-M   'P 1'
_cell_length_a   3.97658207
_cell_length_b   3.97658207
_cell_length_c   6.61438915
_cell_angle_alpha   90.00000000
_cell_angle_beta   90.00000000
_cell_angle_gamma   90.00000000
_symmetry_Int_Tables_number   1
_chemical_formula_structural   TlBiF4
_chemical_formula_sum   'Tl1 Bi1 F4'
_cell_volume   104.59469131
_cell_formula_units_Z   1
loop_
 _symmetry_equiv_pos_site_id
 _symmetry_equiv_pos_as_xyz
  1  'x, y, z'
loop_
 _atom_site_type_symbol
 _atom_site_label
 _atom_site_symmetry_multiplicity
 _atom_site_fract_x
 _atom_site_fract_y
 _atom_site_fract_z
 _atom_site_occupancy
  Tl  Tl0  1  -0.00000000  0.00000000  -0.00000000  1
  Bi  Bi0  1  0.50000000  0.50000000  0.50000000  1
  F  F0  1  0.50000000  -0.00000000  0.69755014  1
  F  F1  1  -0.00000000  0.50000000  0.30244986  1
  F  F2  1  0.50000000  0.00000000  0.30244986  1
  F  F3  1  0.00000000  0.50000000  0.69755014  1
loop_
_geom_bond_atom_site_label_1
_geom_bond_atom_site_label_2
_geom_bond_distance
_geom_bond_site_symmetry_2
Bi0 F2 2.379222 1_565
Bi0 F1 2.379222 1_555
Bi0 F2 2.379222 1_555
Bi0 F1 2.379222 1_655
Bi0 F3 2.379222 1_555
Bi0 F0 2.379222 1_565
Bi0 F0 2.379222 1_555
Bi0 F3 2.379222 1_655
