# generated using pymatgen
data_BaTmFe4O7
_symmetry_space_group_name_H-M   'P 1'
_cell_length_a   6.39527682
_cell_length_b   6.39527682
_cell_length_c   6.39527682
_cell_angle_alpha   119.07506468
_cell_angle_beta   119.07506468
_cell_angle_gamma   91.60964264
_symmetry_Int_Tables_number   1
_chemical_formula_structural   BaTmFe4O7
_chemical_formula_sum   'Ba1 Tm1 Fe4 O7'
_cell_volume   187.45938108
_cell_formula_units_Z   1
loop_
 _symmetry_equiv_pos_site_id
 _symmetry_equiv_pos_as_xyz
  1  'x, y, z'
loop_
 _atom_site_type_symbol
 _atom_site_label
 _atom_site_symmetry_multiplicity
 _atom_site_fract_x
 _atom_site_fract_y
 _atom_site_fract_z
 _atom_site_occupancy
  Ba  Ba0  1  0.25000000  0.75000000  0.50000000  1
  Tm  Tm0  1  0.00000000  0.00000000  0.00000000  1
  Fe  Fe0  1  0.62248300  0.40607600  0.26424800  1
  Fe  Fe1  1  0.14182800  0.35823500  0.73575200  1
  Fe  Fe2  1  0.59392400  0.85817200  0.21640700  1
  Fe  Fe3  1  0.64176500  0.37751700  0.78359300  1
  O  O0  1  0.22296900  0.73965400  0.92355600  1
  O  O1  1  0.81609700  0.29941200  0.07644400  1
  O  O2  1  0.26034600  0.18390300  0.48331500  1
  O  O3  1  0.70058800  0.77703100  0.51668500  1
  O  O4  1  0.74840500  0.74840500  0.00000000  1
  O  O5  1  0.25159500  0.25159500  0.00000000  1
  O  O6  1  0.75000000  0.25000000  0.50000000  1
loop_
_geom_bond_atom_site_label_1
_geom_bond_atom_site_label_2
_geom_bond_distance
_geom_bond_site_symmetry_2
Ba0 O0 2.828479 1_555
Ba0 O2 2.828485 1_565
Ba0 O3 2.828485 1_555
Ba0 O1 2.828485 1_455
Ba0 O4 3.242269 1_556
Ba0 O5 3.242269 1_555
Ba0 O5 3.242269 1_566
Ba0 O4 3.242269 1_455
Fe0 O5 1.951371 1_555
Fe0 O3 1.977678 1_555
Fe0 O1 2.034110 1_555
Fe0 O6 2.061037 1_555
Fe1 O5 1.951371 1_556
Fe1 O2 1.977678 1_555
Fe1 O0 2.034116 1_555
Fe1 O6 2.061037 1_455
Fe2 O4 1.951371 1_555
Fe2 O0 1.977679 1_554
Fe2 O3 2.034115 1_555
Fe2 O6 2.061037 1_565
Fe3 O4 1.951371 1_556
Fe3 O1 1.977683 1_556
Fe3 O2 2.034115 1_555
Fe3 O6 2.061037 1_555
O0 Tm0 2.250402 1_566
O1 Tm0 2.250402 1_655
O2 Tm0 2.250401 1_555
O3 Tm0 2.250401 1_666
O4 Tm0 2.243311 1_665
O5 Tm0 2.243311 1_555
