# generated using pymatgen
data_Sr3Nb
_symmetry_space_group_name_H-M   'P 1'
_cell_length_a   6.50026220
_cell_length_b   6.50026220
_cell_length_c   6.50026220
_cell_angle_alpha   129.46749961
_cell_angle_beta   129.46749961
_cell_angle_gamma   74.25950119
_symmetry_Int_Tables_number   1
_chemical_formula_structural   Sr3Nb
_chemical_formula_sum   'Sr3 Nb1'
_cell_volume   159.57268965
_cell_formula_units_Z   1
loop_
 _symmetry_equiv_pos_site_id
 _symmetry_equiv_pos_as_xyz
  1  'x, y, z'
loop_
 _atom_site_type_symbol
 _atom_site_label
 _atom_site_symmetry_multiplicity
 _atom_site_fract_x
 _atom_site_fract_y
 _atom_site_fract_z
 _atom_site_occupancy
  Sr  Sr0  1  0.75000000  0.25000000  0.50000000  1
  Sr  Sr1  1  0.25000000  0.75000000  0.50000000  1
  Sr  Sr2  1  0.50000000  0.50000000  0.00000000  1
  Nb  Nb0  1  0.00000000  0.00000000  0.00000000  1
loop_
_geom_bond_atom_site_label_1
_geom_bond_atom_site_label_2
_geom_bond_distance
_geom_bond_site_symmetry_2
Sr0 Sr2 3.796342 1_545
Sr0 Sr2 3.796342 1_556
Sr0 Sr2 3.796342 1_555
Sr0 Sr2 3.796342 1_656
Sr1 Sr2 3.796342 1_556
Sr1 Sr2 3.796342 1_555
Sr1 Sr2 3.796342 1_566
Sr1 Sr2 3.796342 1_455
Nb0 Sr1 3.796342 1_444
Nb0 Sr1 3.796342 1_544
Nb0 Sr1 3.796342 1_545
Nb0 Sr0 3.796342 1_455
Nb0 Sr0 3.796342 1_454
Nb0 Sr0 3.796342 1_555
Nb0 Sr0 3.796342 1_444
Nb0 Sr1 3.796342 1_555
Nb0 Sr2 3.923702 1_455
Nb0 Sr2 3.923702 1_545
Nb0 Sr2 3.923702 1_556
Nb0 Sr2 3.923702 1_444
