# generated using pymatgen
data_MgZn
_symmetry_space_group_name_H-M   'P 1'
_cell_length_a   6.33429665
_cell_length_b   6.33429665
_cell_length_c   26.35524200
_cell_angle_alpha   90.00000000
_cell_angle_beta   90.00000000
_cell_angle_gamma   120.00000677
_symmetry_Int_Tables_number   1
_chemical_formula_structural   MgZn
_chemical_formula_sum   'Mg24 Zn24'
_cell_volume   915.78685887
_cell_formula_units_Z   24
loop_
 _symmetry_equiv_pos_site_id
 _symmetry_equiv_pos_as_xyz
  1  'x, y, z'
loop_
 _atom_site_type_symbol
 _atom_site_label
 _atom_site_symmetry_multiplicity
 _atom_site_fract_x
 _atom_site_fract_y
 _atom_site_fract_z
 _atom_site_occupancy
  Mg  Mg0_0  1  0.00000000  0.00000000  0.00430850  1
  Mg  Mg0_1  1  0.00000000  0.00000000  0.50430850  1
  Mg  Mg0_2  1  0.00000000  0.50000000  0.00430850  1
  Mg  Mg0_3  1  0.00000000  0.50000000  0.50430850  1
  Mg  Mg0_4  1  0.50000000  0.00000000  0.00430850  1
  Mg  Mg0_5  1  0.50000000  0.00000000  0.50430850  1
  Mg  Mg0_6  1  0.50000000  0.50000000  0.00430850  1
  Mg  Mg0_7  1  0.50000000  0.50000000  0.50430850  1
  Mg  Mg1_0  1  0.00000000  0.00000000  0.33832450  1
  Mg  Mg1_1  1  0.00000000  0.00000000  0.83832450  1
  Mg  Mg1_2  1  0.00000000  0.50000000  0.33832450  1
  Mg  Mg1_3  1  0.00000000  0.50000000  0.83832450  1
  Mg  Mg1_4  1  0.50000000  0.00000000  0.33832450  1
  Mg  Mg1_5  1  0.50000000  0.00000000  0.83832450  1
  Mg  Mg1_6  1  0.50000000  0.50000000  0.33832450  1
  Mg  Mg1_7  1  0.50000000  0.50000000  0.83832450  1
  Mg  Mg2_0  1  0.16666650  0.33333350  0.24132700  1
  Mg  Mg2_1  1  0.16666650  0.33333350  0.74132700  1
  Mg  Mg2_2  1  0.16666650  0.83333350  0.24132700  1
  Mg  Mg2_3  1  0.16666650  0.83333350  0.74132700  1
  Mg  Mg2_4  1  0.66666650  0.33333350  0.24132700  1
  Mg  Mg2_5  1  0.66666650  0.33333350  0.74132700  1
  Mg  Mg2_6  1  0.66666650  0.83333350  0.24132700  1
  Mg  Mg2_7  1  0.66666650  0.83333350  0.74132700  1
  Zn  Zn0_0  1  0.16666650  0.33333350  0.42148400  1
  Zn  Zn0_1  1  0.16666650  0.33333350  0.92148400  1
  Zn  Zn0_2  1  0.16666650  0.83333350  0.42148400  1
  Zn  Zn0_3  1  0.16666650  0.83333350  0.92148400  1
  Zn  Zn0_4  1  0.66666650  0.33333350  0.42148400  1
  Zn  Zn0_5  1  0.66666650  0.33333350  0.92148400  1
  Zn  Zn0_6  1  0.66666650  0.83333350  0.42148400  1
  Zn  Zn0_7  1  0.66666650  0.83333350  0.92148400  1
  Zn  Zn1_0  1  0.00000000  0.00000000  0.15834200  1
  Zn  Zn1_1  1  0.00000000  0.00000000  0.65834200  1
  Zn  Zn1_2  1  0.00000000  0.50000000  0.15834200  1
  Zn  Zn1_3  1  0.00000000  0.50000000  0.65834200  1
  Zn  Zn1_4  1  0.50000000  0.00000000  0.15834200  1
  Zn  Zn1_5  1  0.50000000  0.00000000  0.65834200  1
  Zn  Zn1_6  1  0.50000000  0.50000000  0.15834200  1
  Zn  Zn1_7  1  0.50000000  0.50000000  0.65834200  1
  Zn  Zn2_0  1  0.16666650  0.33333350  0.08621400  1
  Zn  Zn2_1  1  0.16666650  0.33333350  0.58621400  1
  Zn  Zn2_2  1  0.16666650  0.83333350  0.08621400  1
  Zn  Zn2_3  1  0.16666650  0.83333350  0.58621400  1
  Zn  Zn2_4  1  0.66666650  0.33333350  0.08621400  1
  Zn  Zn2_5  1  0.66666650  0.33333350  0.58621400  1
  Zn  Zn2_6  1  0.66666650  0.83333350  0.08621400  1
  Zn  Zn2_7  1  0.66666650  0.83333350  0.58621400  1
loop_
_geom_bond_atom_site_label_1
_geom_bond_atom_site_label_2
_geom_bond_distance
_geom_bond_site_symmetry_2
Mg0_0 Zn2_2 2.829015 1_545
Mg0_0 Zn2_0 2.829017 1_555
Mg0_0 Zn2_6 2.829017 1_445
Mg0_0 Zn0_3 2.847539 1_544
Mg0_0 Zn0_1 2.847541 1_554
Mg0_0 Zn0_7 2.847541 1_444
Mg0_0 Mg0_6 3.167148 1_555
Mg0_0 Mg0_6 3.167148 1_445
Mg0_0 Mg0_2 3.167148 1_555
Mg0_0 Mg0_2 3.167148 1_545
Mg0_0 Mg0_4 3.167148 1_455
Mg0_0 Mg0_4 3.167148 1_555
Mg0_1 Zn2_3 2.829015 1_545
Mg0_1 Zn2_7 2.829017 1_445
Mg0_1 Zn2_1 2.829017 1_555
Mg0_1 Zn0_2 2.847539 1_545
Mg0_1 Zn0_6 2.847541 1_445
Mg0_1 Zn0_0 2.847541 1_555
Mg0_1 Mg0_7 3.167148 1_555
Mg0_1 Mg0_7 3.167148 1_445
Mg0_1 Mg0_5 3.167148 1_455
Mg0_1 Mg0_3 3.167148 1_555
Mg0_1 Mg0_5 3.167148 1_555
Mg0_1 Mg0_3 3.167148 1_545
Mg0_2 Zn2_0 2.829015 1_555
Mg0_2 Zn2_2 2.829017 1_555
Mg0_2 Zn2_4 2.829017 1_455
Mg0_2 Zn0_1 2.847539 1_554
Mg0_2 Zn0_3 2.847541 1_554
Mg0_2 Zn0_5 2.847541 1_454
Mg0_2 Mg0_4 3.167148 1_455
Mg0_2 Mg0_4 3.167148 1_565
Mg0_2 Mg0_6 3.167148 1_455
Mg0_2 Mg0_6 3.167148 1_555
Mg0_3 Zn2_1 2.829015 1_555
Mg0_3 Zn2_5 2.829017 1_455
Mg0_3 Zn2_3 2.829017 1_555
Mg0_3 Zn0_0 2.847539 1_555
Mg0_3 Zn0_4 2.847541 1_455
Mg0_3 Zn0_2 2.847541 1_555
Mg0_3 Mg0_5 3.167148 1_565
Mg0_3 Mg0_5 3.167148 1_455
Mg0_3 Mg0_7 3.167148 1_455
Mg0_3 Mg0_7 3.167148 1_555
Mg0_4 Zn2_6 2.829015 1_545
Mg0_4 Zn2_4 2.829017 1_555
Mg0_4 Zn2_2 2.829017 1_545
Mg0_4 Zn0_7 2.847539 1_544
Mg0_4 Zn0_3 2.847541 1_544
Mg0_4 Zn0_5 2.847541 1_554
Mg0_4 Mg0_6 3.167148 1_555
Mg0_4 Mg0_6 3.167148 1_545
Mg0_5 Zn2_7 2.829015 1_545
Mg0_5 Zn2_3 2.829017 1_545
Mg0_5 Zn2_5 2.829017 1_555
Mg0_5 Zn0_6 2.847539 1_545
Mg0_5 Zn0_4 2.847541 1_555
Mg0_5 Zn0_2 2.847541 1_545
Mg0_5 Mg0_7 3.167148 1_545
Mg0_5 Mg0_7 3.167148 1_555
Mg0_6 Zn2_4 2.829015 1_555
Mg0_6 Zn2_0 2.829017 1_555
Mg0_6 Zn2_6 2.829017 1_555
Mg0_6 Zn0_5 2.847539 1_554
Mg0_6 Zn0_1 2.847541 1_554
Mg0_6 Zn0_7 2.847541 1_554
Mg0_7 Zn2_5 2.829015 1_555
Mg0_7 Zn2_1 2.829017 1_555
Mg0_7 Zn2_7 2.829017 1_555
Mg0_7 Zn0_4 2.847539 1_555
Mg0_7 Zn0_0 2.847541 1_555
Mg0_7 Zn0_6 2.847541 1_555
Mg1_0 Zn0_2 2.854313 1_545
Mg1_0 Zn0_0 2.854315 1_555
Mg1_0 Zn0_6 2.854315 1_445
Mg1_0 Mg2_2 3.143047 1_545
Mg1_0 Mg2_0 3.143049 1_555
Mg1_0 Mg2_6 3.143049 1_445
Mg1_0 Mg1_6 3.167148 1_555
Mg1_0 Mg1_6 3.167148 1_445
Mg1_0 Mg1_4 3.167148 1_455
Mg1_0 Mg1_4 3.167148 1_555
Mg1_0 Mg1_2 3.167148 1_555
Mg1_0 Mg1_2 3.167148 1_545
Mg1_1 Zn0_3 2.854313 1_545
Mg1_1 Zn0_7 2.854315 1_445
Mg1_1 Zn0_1 2.854315 1_555
Mg1_1 Mg2_3 3.143047 1_545
Mg1_1 Mg2_7 3.143049 1_445
Mg1_1 Mg2_1 3.143049 1_555
Mg1_1 Mg1_7 3.167148 1_445
Mg1_1 Mg1_7 3.167148 1_555
Mg1_1 Mg1_3 3.167148 1_545
Mg1_1 Mg1_3 3.167148 1_555
Mg1_1 Mg1_5 3.167148 1_455
Mg1_1 Mg1_5 3.167148 1_555
Mg1_2 Zn0_0 2.854313 1_555
Mg1_2 Zn0_4 2.854315 1_455
Mg1_2 Zn0_2 2.854315 1_555
Mg1_2 Mg2_0 3.143047 1_555
Mg1_2 Mg2_4 3.143049 1_455
Mg1_2 Mg2_2 3.143049 1_555
Mg1_2 Mg1_4 3.167148 1_455
Mg1_2 Mg1_4 3.167148 1_565
Mg1_2 Mg1_6 3.167148 1_555
Mg1_2 Mg1_6 3.167148 1_455
Mg1_3 Zn0_1 2.854313 1_555
Mg1_3 Zn0_3 2.854315 1_555
Mg1_3 Zn0_5 2.854315 1_455
Mg1_3 Mg2_1 3.143047 1_555
Mg1_3 Mg2_3 3.143049 1_555
Mg1_3 Mg2_5 3.143049 1_455
Mg1_3 Mg1_5 3.167148 1_455
Mg1_3 Mg1_5 3.167148 1_565
Mg1_3 Mg1_7 3.167148 1_455
Mg1_3 Mg1_7 3.167148 1_555
Mg1_4 Zn0_6 2.854313 1_545
Mg1_4 Zn0_4 2.854315 1_555
Mg1_4 Zn0_2 2.854315 1_545
Mg1_4 Mg2_6 3.143047 1_545
Mg1_4 Mg2_4 3.143049 1_555
Mg1_4 Mg2_2 3.143049 1_545
Mg1_4 Mg1_6 3.167148 1_545
Mg1_4 Mg1_6 3.167148 1_555
Mg1_5 Zn0_7 2.854313 1_545
Mg1_5 Zn0_3 2.854315 1_545
Mg1_5 Zn0_5 2.854315 1_555
Mg1_5 Mg2_7 3.143047 1_545
Mg1_5 Mg2_5 3.143049 1_555
Mg1_5 Mg2_3 3.143049 1_545
Mg1_5 Mg1_7 3.167148 1_555
Mg1_5 Mg1_7 3.167148 1_545
Mg1_6 Zn0_4 2.854313 1_555
Mg1_6 Zn0_0 2.854315 1_555
Mg1_6 Zn0_6 2.854315 1_555
Mg1_6 Mg2_4 3.143047 1_555
Mg1_6 Mg2_6 3.143049 1_555
Mg1_6 Mg2_0 3.143049 1_555
Mg1_7 Zn0_5 2.854313 1_555
Mg1_7 Zn0_7 2.854315 1_555
Mg1_7 Zn0_1 2.854315 1_555
Mg1_7 Mg2_5 3.143047 1_555
Mg1_7 Mg2_7 3.143049 1_555
Mg1_7 Mg2_1 3.143049 1_555
Mg2_0 Zn1_2 2.850783 1_555
Mg2_0 Zn1_6 2.850785 1_555
Mg2_0 Zn1_0 2.850785 1_555
Mg2_0 Mg2_6 3.167148 1_555
Mg2_0 Mg2_6 3.167148 1_445
Mg2_0 Mg2_2 3.167148 1_545
Mg2_0 Mg2_4 3.167148 1_555
Mg2_0 Mg2_2 3.167148 1_555
Mg2_0 Mg2_4 3.167148 1_455
Mg2_1 Zn1_3 2.850783 1_555
Mg2_1 Zn1_1 2.850785 1_555
Mg2_1 Zn1_7 2.850785 1_555
Mg2_1 Mg2_7 3.167148 1_445
Mg2_1 Mg2_7 3.167148 1_555
Mg2_1 Mg2_5 3.167148 1_555
Mg2_1 Mg2_3 3.167148 1_545
Mg2_1 Mg2_3 3.167148 1_555
Mg2_1 Mg2_5 3.167148 1_455
Mg2_2 Zn1_0 2.850783 1_565
Mg2_2 Zn1_4 2.850785 1_565
Mg2_2 Zn1_2 2.850785 1_555
Mg2_2 Mg2_4 3.167148 1_565
Mg2_2 Mg2_4 3.167148 1_455
Mg2_2 Mg2_6 3.167148 1_555
Mg2_2 Mg2_6 3.167148 1_455
Mg2_3 Zn1_1 2.850783 1_565
Mg2_3 Zn1_5 2.850785 1_565
Mg2_3 Zn1_3 2.850785 1_555
Mg2_3 Mg2_5 3.167148 1_565
Mg2_3 Mg2_5 3.167148 1_455
Mg2_3 Mg2_7 3.167148 1_555
Mg2_3 Mg2_7 3.167148 1_455
Mg2_4 Zn1_6 2.850783 1_555
Mg2_4 Zn1_4 2.850785 1_555
Mg2_4 Zn1_2 2.850785 1_655
Mg2_4 Mg2_6 3.167148 1_545
Mg2_4 Mg2_6 3.167148 1_555
Mg2_5 Zn1_7 2.850783 1_555
Mg2_5 Zn1_5 2.850785 1_555
Mg2_5 Zn1_3 2.850785 1_655
Mg2_5 Mg2_7 3.167148 1_545
Mg2_5 Mg2_7 3.167148 1_555
Mg2_6 Zn1_4 2.850783 1_565
Mg2_6 Zn1_0 2.850785 1_665
Mg2_6 Zn1_6 2.850785 1_555
Mg2_7 Zn1_5 2.850783 1_565
Mg2_7 Zn1_1 2.850785 1_665
Mg2_7 Zn1_7 2.850785 1_555
Zn1_0 Zn2_2 2.637654 1_545
Zn1_0 Zn2_0 2.637656 1_555
Zn1_0 Zn2_6 2.637656 1_445
Zn1_1 Zn2_3 2.637654 1_545
Zn1_1 Zn2_7 2.637656 1_445
Zn1_1 Zn2_1 2.637656 1_555
Zn1_2 Zn2_0 2.637654 1_555
Zn1_2 Zn2_2 2.637656 1_555
Zn1_2 Zn2_4 2.637656 1_455
Zn1_3 Zn2_1 2.637654 1_555
Zn1_3 Zn2_5 2.637656 1_455
Zn1_3 Zn2_3 2.637656 1_555
Zn1_4 Zn2_6 2.637654 1_545
Zn1_4 Zn2_2 2.637656 1_545
Zn1_4 Zn2_4 2.637656 1_555
Zn1_5 Zn2_7 2.637654 1_545
Zn1_5 Zn2_3 2.637656 1_545
Zn1_5 Zn2_5 2.637656 1_555
Zn1_6 Zn2_4 2.637654 1_555
Zn1_6 Zn2_0 2.637656 1_555
Zn1_6 Zn2_6 2.637656 1_555
Zn1_7 Zn2_5 2.637654 1_555
Zn1_7 Zn2_7 2.637656 1_555
Zn1_7 Zn2_1 2.637656 1_555
