# generated using pymatgen
data_Li9Mn2Co5O16
_symmetry_space_group_name_H-M   'P 1'
_cell_length_a   2.93165500
_cell_length_b   9.84158738
_cell_length_c   10.46043051
_cell_angle_alpha   107.18976270
_cell_angle_beta   97.55677408
_cell_angle_gamma   88.27647485
_symmetry_Int_Tables_number   1
_chemical_formula_structural   Li9Mn2Co5O16
_chemical_formula_sum   'Li9 Mn2 Co5 O16'
_cell_volume   285.80808922
_cell_formula_units_Z   1
loop_
 _symmetry_equiv_pos_site_id
 _symmetry_equiv_pos_as_xyz
  1  'x, y, z'
loop_
 _atom_site_type_symbol
 _atom_site_label
 _atom_site_symmetry_multiplicity
 _atom_site_fract_x
 _atom_site_fract_y
 _atom_site_fract_z
 _atom_site_occupancy
  Li  Li0  1  0.07139900  0.31151000  0.13006400  1
  Li  Li1  1  0.57230400  0.82010400  0.13121100  1
  Li  Li2  1  0.68475700  0.43579800  0.37818700  1
  Li  Li3  1  0.18511800  0.94521400  0.36626000  1
  Li  Li4  1  0.30759300  0.55958700  0.62453000  1
  Li  Li5  1  0.81052700  0.06380400  0.62364000  1
  Li  Li6  1  0.93271900  0.68329300  0.87236000  1
  Li  Li7  1  0.43513200  0.18708200  0.87297400  1
  Li  Li8  1  0.61598700  0.11717400  0.25039100  1
  Mn  Mn0  1  0.00045900  0.00127300  0.00589500  1
  Mn  Mn1  1  0.75097600  0.75337100  0.50420100  1
  Co  Co0  1  0.49931200  0.49795900  0.99786500  1
  Co  Co1  1  0.12350200  0.62201700  0.24945200  1
  Co  Co2  1  0.24478600  0.24543500  0.48933600  1
  Co  Co3  1  0.87212800  0.37662100  0.74580700  1
  Co  Co4  1  0.38707800  0.87811900  0.75246400  1
  O  O0  1  0.51455000  0.13844300  0.05352500  1
  O  O1  1  0.04631900  0.64371000  0.06315300  1
  O  O2  1  0.16710100  0.28091200  0.33363600  1
  O  O3  1  0.66130100  0.77200300  0.31621700  1
  O  O4  1  0.81556800  0.39678900  0.56501200  1
  O  O5  1  0.32214600  0.90078700  0.57286400  1
  O  O6  1  0.40764100  0.52426500  0.81063800  1
  O  O7  1  0.90352900  0.01405300  0.81401100  1
  O  O8  1  0.58622100  0.47474100  0.18816800  1
  O  O9  1  0.08140800  0.96798600  0.17059400  1
  O  O10  1  0.17971100  0.60295000  0.43913300  1
  O  O11  1  0.68871600  0.10503800  0.44344600  1
  O  O12  1  0.87093500  0.74020300  0.69354200  1
  O  O13  1  0.33630000  0.22893100  0.67602000  1
  O  O14  1  0.47528200  0.86131900  0.93445500  1
  O  O15  1  0.94949400  0.34950600  0.93095000  1
loop_
_geom_bond_atom_site_label_1
_geom_bond_atom_site_label_2
_geom_bond_distance
_geom_bond_site_symmetry_2
Li0 O8 2.118033 1_455
Li0 O8 2.134358 1_555
Li0 O0 2.136434 1_555
Li0 O15 2.205046 1_454
Li0 O2 2.218279 1_555
Li0 O0 2.285730 1_455
Li1 O9 2.008620 1_555
Li1 O9 2.032252 1_655
Li1 O3 2.106799 1_555
Li1 O14 2.194073 1_554
Li1 O1 2.199142 1_655
Li1 O1 2.245013 1_555
Li2 O2 2.040614 1_655
Li2 O4 2.085932 1_555
Li2 O2 2.092146 1_555
Li2 O8 2.115138 1_555
Li2 O10 2.120963 1_655
Li2 O10 2.187852 1_555
Li3 O11 2.093126 1_565
Li3 O9 2.105994 1_555
Li3 O3 2.156471 1_555
Li3 O11 2.159748 1_465
Li3 O3 2.226374 1_455
Li3 O5 2.311451 1_555
Li4 O6 2.059241 1_555
Li4 O4 2.085306 1_455
Li4 O10 2.090939 1_555
Li4 O12 2.160383 1_455
Li4 O4 2.164047 1_555
Li4 O12 2.347954 1_555
Li5 O11 2.027669 1_555
Li5 O5 2.083380 1_545
Li5 O13 2.100521 1_555
Li5 O5 2.160282 1_645
Li5 O7 2.169120 1_555
Li5 O13 2.172397 1_655
Li6 O6 2.076765 1_655
Li6 O12 2.090298 1_555
Li6 O6 2.126544 1_555
Li6 O1 2.126668 1_656
Li6 O14 2.169130 1_555
Li6 O14 2.290170 1_655
Li7 O0 2.064539 1_556
Li7 O15 2.113576 1_455
Li7 O15 2.127991 1_555
Li7 O7 2.151077 1_555
Li7 O13 2.198968 1_555
Li7 O7 2.234967 1_455
Li8 O11 2.040991 1_555
Li8 O9 2.041782 1_645
Li8 O9 2.092501 1_545
Li8 O2 2.105050 1_555
Li8 O0 2.112570 1_555
Li8 O2 2.218690 1_655
Mn0 O9 1.831158 1_545
Mn0 O0 1.942510 1_455
Mn0 O0 1.967092 1_555
Mn0 O14 1.985745 1_544
Mn0 O14 2.010630 1_444
Mn0 O7 2.030377 1_454
Mn1 O5 1.926936 1_555
Mn1 O10 1.937038 1_655
Mn1 O12 2.007231 1_555
Mn1 O3 2.010895 1_555
Mn1 O5 2.153710 1_655
Mn1 O10 2.171024 1_555
Co0 O1 1.957686 1_556
Co0 O15 1.972014 1_555
Co0 O6 2.032720 1_555
Co0 O8 2.052262 1_556
Co0 O1 2.089714 1_656
Co0 O15 2.112604 1_455
Co1 O8 1.978187 1_555
Co1 O1 2.005369 1_555
Co1 O3 2.005476 1_455
Co1 O10 2.032588 1_555
Co1 O8 2.077344 1_455
Co1 O3 2.096060 1_555
Co2 O2 1.749336 1_555
Co2 O11 1.870154 1_555
Co2 O4 1.970046 1_455
Co2 O13 1.989681 1_555
Co2 O11 2.082019 1_455
Co2 O4 2.179464 1_555
Co3 O4 1.944459 1_555
Co3 O6 1.991720 1_555
Co3 O13 2.003114 1_655
Co3 O15 2.014862 1_555
Co3 O6 2.076227 1_655
Co3 O13 2.078883 1_555
Co4 O5 1.940775 1_555
Co4 O14 1.942238 1_555
Co4 O7 1.957212 1_465
Co4 O7 1.962895 1_565
Co4 O12 1.963158 1_555
Co4 O12 1.973723 1_455
