# generated using pymatgen
data_Zn7Tc
_symmetry_space_group_name_H-M   'P 1'
_cell_length_a   5.40641072
_cell_length_b   5.40641072
_cell_length_c   5.40641072
_cell_angle_alpha   60.00000000
_cell_angle_beta   60.00000000
_cell_angle_gamma   60.00000000
_symmetry_Int_Tables_number   1
_chemical_formula_structural   Zn7Tc
_chemical_formula_sum   'Zn7 Tc1'
_cell_volume   111.74088538
_cell_formula_units_Z   1
loop_
 _symmetry_equiv_pos_site_id
 _symmetry_equiv_pos_as_xyz
  1  'x, y, z'
loop_
 _atom_site_type_symbol
 _atom_site_label
 _atom_site_symmetry_multiplicity
 _atom_site_fract_x
 _atom_site_fract_y
 _atom_site_fract_z
 _atom_site_occupancy
  Zn  Zn0  1  -0.00000000  0.00000000  0.50000000  1
  Zn  Zn1  1  0.50000000  0.50000000  -0.00000000  1
  Zn  Zn2  1  0.00000000  0.50000000  -0.00000000  1
  Zn  Zn3  1  0.50000000  -0.00000000  0.50000000  1
  Zn  Zn4  1  0.50000000  0.00000000  -0.00000000  1
  Zn  Zn5  1  0.00000000  0.50000000  0.50000000  1
  Zn  Zn6  1  0.50000000  0.50000000  0.50000000  1
  Tc  Tc0  1  -0.00000000  0.00000000  0.00000000  1
loop_
_geom_bond_atom_site_label_1
_geom_bond_atom_site_label_2
_geom_bond_distance
_geom_bond_site_symmetry_2
Zn0 Zn4 2.703205 1_555
Zn0 Zn4 2.703205 1_456
Zn0 Zn2 2.703205 1_555
Zn0 Zn5 2.703205 1_545
Zn0 Zn6 2.703205 1_455
Zn0 Zn3 2.703205 1_455
Zn0 Zn6 2.703205 1_545
Zn0 Zn5 2.703205 1_555
Zn0 Zn3 2.703205 1_555
Zn0 Zn2 2.703205 1_546
Zn1 Zn2 2.703205 1_655
Zn1 Zn3 2.703205 1_564
Zn1 Zn4 2.703205 1_555
Zn1 Zn4 2.703205 1_565
Zn1 Zn6 2.703205 1_554
Zn1 Zn2 2.703205 1_555
Zn1 Zn5 2.703205 1_654
Zn1 Zn5 2.703205 1_555
Zn1 Zn6 2.703205 1_555
Zn1 Zn3 2.703205 1_555
Zn2 Zn4 2.703205 1_555
Zn2 Zn5 2.703205 1_554
Zn2 Zn4 2.703205 1_465
Zn2 Zn6 2.703205 1_554
Zn2 Zn6 2.703205 1_455
Zn2 Zn5 2.703205 1_555
Zn3 Zn4 2.703205 1_555
Zn3 Zn5 2.703205 1_645
Zn3 Zn6 2.703205 1_545
Zn3 Zn4 2.703205 1_556
Zn3 Zn5 2.703205 1_555
Zn3 Zn6 2.703205 1_555
Zn4 Zn6 2.703205 1_554
Zn4 Zn6 2.703205 1_545
Zn5 Zn6 2.703205 1_455
Zn5 Zn6 2.703205 1_555
Tc0 Zn4 2.703205 1_455
Tc0 Zn1 2.703205 1_545
Tc0 Zn4 2.703205 1_555
Tc0 Zn5 2.703205 1_554
Tc0 Zn2 2.703205 1_555
Tc0 Zn3 2.703205 1_554
Tc0 Zn0 2.703205 1_554
Tc0 Zn5 2.703205 1_545
Tc0 Zn2 2.703205 1_545
Tc0 Zn3 2.703205 1_455
Tc0 Zn1 2.703205 1_455
Tc0 Zn0 2.703205 1_555
