# generated using pymatgen
data_BaNa
_symmetry_space_group_name_H-M   'P 1'
_cell_length_a   12.07395611
_cell_length_b   12.07409108
_cell_length_c   12.07369658
_cell_angle_alpha   59.94347972
_cell_angle_beta   59.94900865
_cell_angle_gamma   59.95262532
_symmetry_Int_Tables_number   1
_chemical_formula_structural   BaNa
_chemical_formula_sum   'Ba12 Na12'
_cell_volume   1243.14121929
_cell_formula_units_Z   12
loop_
 _symmetry_equiv_pos_site_id
 _symmetry_equiv_pos_as_xyz
  1  'x, y, z'
loop_
 _atom_site_type_symbol
 _atom_site_label
 _atom_site_symmetry_multiplicity
 _atom_site_fract_x
 _atom_site_fract_y
 _atom_site_fract_z
 _atom_site_occupancy
  Ba  Ba0  1  0.19092497  0.80908280  0.80908022  1
  Ba  Ba1  1  0.94093323  0.94092322  0.55906306  1
  Ba  Ba2  1  0.80906194  0.19090985  0.19096170  1
  Ba  Ba3  1  0.55908230  0.55908000  0.94091126  1
  Ba  Ba4  1  0.80907384  0.19090491  0.80909173  1
  Ba  Ba5  1  0.55907599  0.94091487  0.94092028  1
  Ba  Ba6  1  0.19092726  0.80907784  0.19093008  1
  Ba  Ba7  1  0.94093831  0.55909165  0.55903715  1
  Ba  Ba8  1  0.80906427  0.80907483  0.19093816  1
  Ba  Ba9  1  0.94092590  0.55909473  0.94091043  1
  Ba  Ba10  1  0.19092349  0.19092409  0.80908608  1
  Ba  Ba11  1  0.55907048  0.94092514  0.55906581  1
  Na  Na0  1  0.57820185  0.26536663  0.57821985  1
  Na  Na1  1  0.48463090  0.17181260  0.17176989  1
  Na  Na2  1  0.57822910  0.57821068  0.57825104  1
  Na  Na3  1  0.17177743  0.17180457  0.48464660  1
  Na  Na4  1  0.26536855  0.57818707  0.57822967  1
  Na  Na5  1  0.17179793  0.48463324  0.17178051  1
  Na  Na6  1  0.57822180  0.57819407  0.26535668  1
  Na  Na7  1  0.17177126  0.17178879  0.17174945  1
  Na  Na8  1  0.37499968  0.37500026  0.37500014  1
  Na  Na9  1  0.37500015  0.37499989  0.87500062  1
  Na  Na10  1  0.37499959  0.87500033  0.37500001  1
  Na  Na11  1  0.87499976  0.37499995  0.37500061  1
loop_
_geom_bond_atom_site_label_1
_geom_bond_atom_site_label_2
_geom_bond_distance
_geom_bond_site_symmetry_2
Ba0 Na5 4.157556 1_556
Ba0 Na3 4.157662 1_565
Ba0 Na10 4.355182 1_555
Ba0 Na9 4.355523 1_555
Ba0 Na2 4.368140 1_555
Ba0 Na4 4.371931 1_555
Ba0 Ba11 4.498673 1_555
Ba0 Ba3 4.498944 1_555
Ba0 Ba9 4.500541 1_455
Ba0 Ba1 4.500790 1_455
Ba0 Ba8 4.606949 1_456
Ba0 Ba4 4.607003 1_465
Ba0 Ba6 4.610323 1_556
Ba0 Ba10 4.610413 1_565
Ba1 Na4 4.158341 1_655
Ba1 Na0 4.158383 1_565
Ba1 Na11 4.355194 1_565
Ba1 Na10 4.355313 1_655
Ba1 Na7 4.367525 1_665
Ba1 Na3 4.371594 1_665
Ba1 Ba2 4.498307 1_565
Ba1 Ba6 4.498852 1_655
Ba1 Ba4 4.501024 1_565
Ba1 Ba9 4.606331 1_555
Ba1 Ba5 4.606924 1_555
Ba1 Ba7 4.610395 1_555
Ba1 Ba11 4.610566 1_555
Ba2 Na7 4.160460 1_655
Ba2 Na1 4.161510 1_555
Ba2 Na8 4.354641 1_555
Ba2 Na11 4.359240 1_555
Ba2 Na0 4.368929 1_555
Ba2 Na6 4.369132 1_555
Ba2 Ba3 4.497964 1_554
Ba2 Ba9 4.499073 1_554
Ba2 Ba6 4.607148 1_645
Ba2 Ba8 4.610439 1_545
Ba2 Ba4 4.610540 1_554
Ba3 Na2 4.160037 1_555
Ba3 Na6 4.161392 1_556
Ba3 Na8 4.354333 1_556
Ba3 Na9 4.359285 1_555
Ba3 Na1 4.368710 1_556
Ba3 Na5 4.369022 1_556
Ba3 Ba6 4.498243 1_556
Ba3 Ba4 4.499312 1_555
Ba3 Ba7 4.607018 1_555
Ba3 Ba5 4.610325 1_555
Ba3 Ba9 4.610447 1_555
Ba4 Na1 4.157678 1_556
Ba4 Na3 4.157938 1_655
Ba4 Na11 4.355136 1_555
Ba4 Na9 4.355514 1_555
Ba4 Na2 4.367680 1_555
Ba4 Na0 4.371584 1_555
Ba4 Ba7 4.499094 1_555
Ba4 Ba5 4.500555 1_545
Ba4 Ba8 4.606335 1_546
Ba5 Na0 4.157569 1_565
Ba5 Na6 4.157671 1_556
Ba5 Na10 4.355183 1_556
Ba5 Na9 4.355547 1_565
Ba5 Na7 4.368153 1_566
Ba5 Na1 4.371934 1_566
Ba5 Ba6 4.498672 1_556
Ba5 Ba8 4.500764 1_556
Ba5 Ba9 4.606983 1_555
Ba6 Na7 4.160490 1_565
Ba6 Na5 4.161664 1_555
Ba6 Na8 4.354514 1_555
Ba6 Na10 4.359173 1_555
Ba6 Na4 4.368943 1_555
Ba6 Na6 4.369227 1_555
Ba6 Ba7 4.497115 1_455
Ba6 Ba8 4.610566 1_455
Ba7 Na2 4.160461 1_555
Ba7 Na4 4.161492 1_655
Ba7 Na8 4.354632 1_655
Ba7 Na11 4.359239 1_555
Ba7 Na5 4.368922 1_655
Ba7 Na3 4.369139 1_655
Ba7 Ba8 4.498300 1_555
Ba7 Ba9 4.610566 1_555
Ba8 Na1 4.158342 1_565
Ba8 Na5 4.158389 1_655
Ba8 Na11 4.355171 1_555
Ba8 Na10 4.355291 1_555
Ba8 Na2 4.367500 1_555
Ba8 Na6 4.371559 1_555
Ba8 Ba9 4.500990 1_554
Ba9 Na4 4.157694 1_655
Ba9 Na6 4.157947 1_556
Ba9 Na11 4.355126 1_556
Ba9 Na9 4.355518 1_655
Ba9 Na7 4.367675 1_656
Ba9 Na5 4.371567 1_656
Ba10 Na7 4.160021 1_556
Ba10 Na3 4.161401 1_555
Ba10 Na8 4.354288 1_555
Ba10 Na9 4.359217 1_555
Ba10 Na4 4.368632 1_555
Ba10 Na0 4.368938 1_555
Ba10 Ba7 4.497979 1_455
Ba10 Ba11 4.498229 1_545
Ba10 Ba5 4.498915 1_545
Ba10 Ba9 4.499297 1_455
Ba10 Ba6 4.606418 1_546
Ba10 Ba2 4.607061 1_456
Ba10 Ba4 4.610518 1_455
Ba11 Na2 4.160494 1_555
Ba11 Na0 4.161670 1_565
Ba11 Na8 4.354481 1_565
Ba11 Na10 4.359135 1_555
Ba11 Na1 4.368896 1_565
Ba11 Na3 4.369174 1_565
Ba11 Ba2 4.497110 1_565
Ba11 Ba8 4.498829 1_555
Ba11 Ba3 4.606420 1_555
Ba11 Ba7 4.607172 1_555
Ba11 Ba5 4.610366 1_555
Na0 Na11 3.647590 1_555
Na0 Na9 3.647657 1_555
Na0 Na8 3.649000 1_555
Na0 Na6 3.774034 1_555
Na0 Na4 3.774374 1_555
Na0 Na2 3.777661 1_555
Na1 Na9 3.647209 1_554
Na1 Na10 3.647619 1_545
Na1 Na8 3.649208 1_555
Na1 Na5 3.774373 1_555
Na1 Na3 3.774567 1_555
Na1 Na7 3.777721 1_555
Na2 Na9 3.646398 1_555
Na2 Na4 3.777737 1_555
Na2 Na6 3.777936 1_555
Na3 Na8 3.648853 1_555
Na3 Na5 3.774059 1_555
Na3 Na7 3.777958 1_555
Na4 Na9 3.647231 1_555
Na4 Na8 3.649193 1_555
Na4 Na6 3.774543 1_555
Na5 Na9 3.647649 1_554
Na5 Na8 3.648997 1_555
Na5 Na7 3.777661 1_555
Na6 Na8 3.648844 1_555
Na7 Na9 3.646396 1_554
Na10 Na7 3.647004 1_565
Na10 Na2 3.647019 1_555
Na10 Na4 3.647627 1_555
Na10 Na6 3.648132 1_555
Na10 Na3 3.648132 1_565
Na11 Na2 3.647168 1_555
Na11 Na7 3.647178 1_655
Na11 Na5 3.647592 1_655
Na11 Na6 3.647637 1_555
Na11 Na3 3.647647 1_655
