# generated using pymatgen
data_Sm2MgMo2(I4O15)2
_symmetry_space_group_name_H-M   'P 1'
_cell_length_a   6.90437473
_cell_length_b   7.26627570
_cell_length_c   14.73592343
_cell_angle_alpha   91.45159130
_cell_angle_beta   92.22321060
_cell_angle_gamma   114.09683740
_symmetry_Int_Tables_number   1
_chemical_formula_structural   Sm2MgMo2(I4O15)2
_chemical_formula_sum   'Sm2 Mg1 Mo2 I8 O30'
_cell_volume   673.66868673
_cell_formula_units_Z   1
loop_
 _symmetry_equiv_pos_site_id
 _symmetry_equiv_pos_as_xyz
  1  'x, y, z'
loop_
 _atom_site_type_symbol
 _atom_site_label
 _atom_site_symmetry_multiplicity
 _atom_site_fract_x
 _atom_site_fract_y
 _atom_site_fract_z
 _atom_site_occupancy
  Sm  Sm0  1  0.11770822  0.44605855  0.42660706  1
  Sm  Sm1  1  0.86580299  0.54710817  0.96203378  1
  Mg  Mg0  1  0.95966466  0.34794812  0.65184837  1
  Mo  Mo0  1  0.60043093  0.78772735  0.27331967  1
  Mo  Mo1  1  0.39196663  0.20318785  0.76932267  1
  I  I0  1  0.47946504  0.74660677  0.03826933  1
  I  I1  1  0.51115971  0.25806046  0.52795287  1
  I  I2  1  0.73560866  0.28618348  0.19423048  1
  I  I3  1  0.30413620  0.73376743  0.67612801  1
  I  I4  1  0.15931201  0.94854054  0.31774198  1
  I  I5  1  0.83056580  0.03773653  0.82512630  1
  I  I6  1  0.79140611  0.88377830  0.54244888  1
  I  I7  1  0.19790915  0.12254939  0.05731088  1
  O  O0  1  0.37461162  0.69689122  0.15231165  1
  O  O1  1  0.64563753  0.29854755  0.64753035  1
  O  O2  1  0.23183887  0.63591887  0.96865619  1
  O  O3  1  0.74861263  0.36320571  0.46494141  1
  O  O4  1  0.54915714  0.52601911  0.02605837  1
  O  O5  1  0.44734923  0.47988833  0.52783320  1
  O  O6  1  0.74582108  0.03395716  0.18041436  1
  O  O7  1  0.25443636  0.96594749  0.66523681  1
  O  O8  1  0.89338627  0.39498558  0.09725402  1
  O  O9  1  0.12001940  0.59006602  0.57793201  1
  O  O10  1  0.94011682  0.38409528  0.28562820  1
  O  O11  1  0.09391383  0.59785874  0.75270601  1
  O  O12  1  0.43874567  0.99064919  0.29678788  1
  O  O13  1  0.54336724  0.99562254  0.79116924  1
  O  O14  1  0.24344923  0.18507460  0.38756904  1
  O  O15  1  0.75370217  0.79932111  0.87830681  1
  O  O16  1  0.11718121  0.77331085  0.41001935  1
  O  O17  1  0.87216762  0.21540061  0.92097346  1
  O  O18  1  0.53731306  0.90720743  0.53006860  1
  O  O19  1  0.44075862  0.08092733  0.04248511  1
  O  O20  1  0.78438260  0.84474766  0.66400930  1
  O  O21  1  0.22615174  0.17412345  0.17904234  1
  O  O22  1  0.97306688  0.15777003  0.54893667  1
  O  O23  1  0.99473185  0.86175672  0.04626487  1
  O  O24  1  0.80168087  0.93388891  0.36156410  1
  O  O25  1  0.20192771  0.08363387  0.85187330  1
  O  O26  1  0.40525343  0.60486910  0.33663774  1
  O  O27  1  0.60768406  0.39195360  0.83270277  1
  O  O28  1  0.73855291  0.65644842  0.22337826  1
  O  O29  1  0.24651322  0.32295657  0.70886831  1
loop_
_geom_bond_atom_site_label_1
_geom_bond_atom_site_label_2
_geom_bond_distance
_geom_bond_site_symmetry_2
Mg0 O9 2.026688 1_655
Mg0 O1 2.046081 1_555
Mg0 O22 2.055984 1_555
Mg0 O11 2.178889 1_655
Mg0 O29 2.198568 1_655
Mo0 O28 1.767111 1_555
Mo0 O26 1.774903 1_555
Mo0 O24 1.826046 1_555
Mo0 O6 2.201650 1_565
Mo0 O12 2.210905 1_555
Mo0 O0 2.220495 1_555
Mo1 O27 1.769454 1_555
Mo1 O25 1.789601 1_555
Mo1 O29 1.800851 1_555
Mo1 O7 2.154599 1_545
Mo1 O13 2.181047 1_545
Mo1 O1 2.466699 1_555
I0 O2 1.822509 1_554
I0 O0 1.841288 1_555
I0 O4 1.858744 1_555
I0 O19 2.549582 1_565
I1 O3 1.806925 1_555
I1 O5 1.836345 1_555
I1 O1 1.917637 1_555
I1 O14 2.612377 1_555
I1 O18 2.629161 1_545
I2 O10 1.815895 1_555
I2 O8 1.824457 1_555
I2 O6 1.868987 1_555
I3 O11 1.835337 1_555
I3 O7 1.863311 1_555
I3 O9 1.870019 1_555
I3 O13 2.505085 1_555
I4 O16 1.835983 1_555
I4 O14 1.843633 1_565
I4 O12 1.865528 1_555
I4 O24 2.537306 1_455
I4 O21 2.588900 1_565
I5 O15 1.802020 1_545
I5 O17 1.821344 1_555
I5 O13 1.922447 1_545
I5 O25 2.461192 1_655
I6 O20 1.820112 1_555
I6 O18 1.833205 1_555
I6 O22 1.867619 1_565
I7 O21 1.809808 1_555
I7 O23 1.838845 1_445
I7 O19 1.841129 1_555
O2 Sm1 2.336430 1_455
O3 Sm0 2.460062 1_655
O4 Sm1 2.363694 1_554
O5 Sm0 2.593584 1_555
O8 Sm1 2.341491 1_554
O9 Sm0 2.435795 1_555
O10 Sm0 2.307851 1_655
O14 Sm0 2.451271 1_555
O15 Sm1 2.584302 1_555
O16 Sm0 2.398049 1_555
O17 Sm1 2.488400 1_555
O22 Sm0 2.694014 1_655
O23 Sm1 2.380952 1_554
O26 Sm0 2.332770 1_555
O27 Sm1 2.462966 1_555
