# generated using pymatgen
data_Li3FeO4
_symmetry_space_group_name_H-M   'P 1'
_cell_length_a   5.01669406
_cell_length_b   10.12452695
_cell_length_c   5.84101443
_cell_angle_alpha   73.16754769
_cell_angle_beta   90.00557640
_cell_angle_gamma   79.35356030
_symmetry_Int_Tables_number   1
_chemical_formula_structural   Li3FeO4
_chemical_formula_sum   'Li12 Fe4 O16'
_cell_volume   278.62243248
_cell_formula_units_Z   4
loop_
 _symmetry_equiv_pos_site_id
 _symmetry_equiv_pos_as_xyz
  1  'x, y, z'
loop_
 _atom_site_type_symbol
 _atom_site_label
 _atom_site_symmetry_multiplicity
 _atom_site_fract_x
 _atom_site_fract_y
 _atom_site_fract_z
 _atom_site_occupancy
  Li  Li0  1  0.24604100  0.75019900  0.37828000  1
  Li  Li1  1  0.24693900  0.74984700  0.87840300  1
  Li  Li2  1  0.75394300  0.25421900  0.12649900  1
  Li  Li3  1  0.74133600  0.24564600  0.63014400  1
  Li  Li4  1  0.99951300  0.99874900  0.00496900  1
  Li  Li5  1  0.99955800  0.99882700  0.50263200  1
  Li  Li6  1  0.50119700  0.49973900  0.75286500  1
  Li  Li7  1  0.50119900  0.49967700  0.25372000  1
  Li  Li8  1  0.24967100  0.24888600  0.87922700  1
  Li  Li9  1  0.24967100  0.24887600  0.37810100  1
  Li  Li10  1  0.74895000  0.74832300  0.62616400  1
  Li  Li11  1  0.74863700  0.74818900  0.13182500  1
  Fe  Fe0  1  0.49402100  0.99857200  0.75401800  1
  Fe  Fe1  1  0.00588500  0.49940500  0.00358000  1
  Fe  Fe2  1  0.50193000  0.99826600  0.25414300  1
  Fe  Fe3  1  0.99919100  0.49947600  0.50361600  1
  O  O0  1  0.61343500  0.11249200  0.93410900  1
  O  O1  1  0.61358500  0.11262100  0.46028000  1
  O  O2  1  0.11664400  0.61437200  0.70717800  1
  O  O3  1  0.11650500  0.61425400  0.18536000  1
  O  O4  1  0.88742100  0.38527500  0.82387100  1
  O  O5  1  0.88729500  0.38509000  0.29765100  1
  O  O6  1  0.38398400  0.88347600  0.57262600  1
  O  O7  1  0.38388600  0.88334200  0.05076400  1
  O  O8  1  0.84300200  0.88480400  0.31130400  1
  O  O9  1  0.83853300  0.88345000  0.81203000  1
  O  O10  1  0.34767300  0.38499200  0.06115200  1
  O  O11  1  0.33949000  0.38592000  0.56068300  1
  O  O12  1  0.16178200  0.11169500  0.19718900  1
  O  O13  1  0.15247600  0.11289700  0.69653300  1
  O  O14  1  0.66206800  0.61433600  0.94572300  1
  O  O15  1  0.65845500  0.61237100  0.44677300  1
loop_
_geom_bond_atom_site_label_1
_geom_bond_atom_site_label_2
_geom_bond_distance
_geom_bond_site_symmetry_2
Li0 O8 2.184355 1_455
Li0 O2 2.191620 1_555
Li0 O7 2.192307 1_555
Li0 O3 2.194331 1_555
Li0 O6 2.195520 1_555
Li0 O15 2.235538 1_555
Li1 O3 2.105724 1_556
Li1 O2 2.105820 1_555
Li1 O6 2.106546 1_555
Li1 O7 2.107923 1_556
Li1 O9 2.202248 1_455
Li1 O14 2.237349 1_555
Li2 O5 2.072952 1_555
Li2 O4 2.074550 1_554
Li2 O10 2.182376 1_555
Li2 O12 2.236676 1_655
Li2 O1 2.259780 1_555
Li2 O0 2.264094 1_554
Li3 O1 2.074073 1_555
Li3 O0 2.077265 1_555
Li3 O11 2.203146 1_555
Li3 O13 2.210123 1_655
Li3 O5 2.257299 1_555
Li3 O4 2.263868 1_555
Li4 O7 2.035058 1_655
Li4 O0 2.036778 1_564
Li4 O8 2.070862 1_555
Li4 O13 2.071786 1_664
Li4 O12 2.078046 1_665
Li4 O9 2.096425 1_554
Li5 O6 2.035062 1_655
Li5 O1 2.036763 1_565
Li5 O8 2.068934 1_555
Li5 O13 2.071179 1_665
Li5 O12 2.077097 1_665
Li5 O9 2.099860 1_555
Li6 O2 2.033025 1_555
Li6 O4 2.039857 1_555
Li6 O15 2.066696 1_555
Li6 O10 2.074784 1_556
Li6 O11 2.083397 1_555
Li6 O14 2.090261 1_555
Li7 O3 2.033221 1_555
Li7 O5 2.039766 1_555
Li7 O15 2.067190 1_555
Li7 O10 2.072013 1_555
Li7 O11 2.085409 1_555
Li7 O14 2.091007 1_554
Li8 O4 2.031748 1_455
Li8 O0 2.037723 1_555
Li8 O12 2.074949 1_556
Li8 O11 2.079894 1_555
Li8 O10 2.089995 1_556
Li8 O13 2.090693 1_555
Li9 O5 2.031195 1_455
Li9 O1 2.037697 1_555
Li9 O12 2.077555 1_555
Li9 O10 2.083549 1_555
Li9 O11 2.086492 1_555
Li9 O13 2.087536 1_555
Li10 O6 2.036866 1_555
Li10 O2 2.041952 1_655
Li10 O15 2.065127 1_555
Li10 O14 2.065527 1_555
Li10 O8 2.069686 1_555
Li10 O9 2.083161 1_555
Li11 O7 2.035768 1_555
Li11 O3 2.042556 1_655
Li11 O15 2.060277 1_555
Li11 O14 2.068171 1_554
Li11 O9 2.077214 1_554
Li11 O8 2.077952 1_555
Fe0 O13 1.852118 1_565
Fe0 O9 1.867411 1_555
Fe0 O6 1.933343 1_555
Fe0 O7 1.933364 1_556
Fe0 O1 1.935344 1_565
Fe0 O0 1.937405 1_565
Fe1 O10 1.853463 1_555
Fe1 O14 1.863811 1_454
Fe1 O2 1.932105 1_554
Fe1 O3 1.934108 1_555
Fe1 O4 1.935539 1_454
Fe1 O5 1.935756 1_455
Fe2 O12 1.842804 1_565
Fe2 O8 1.846698 1_555
Fe2 O0 2.032720 1_564
Fe2 O1 2.037355 1_565
Fe2 O6 2.040485 1_555
Fe2 O7 2.042234 1_555
Fe3 O15 1.843046 1_555
Fe3 O11 1.843933 1_655
Fe3 O4 2.034111 1_555
Fe3 O5 2.037304 1_555
Fe3 O3 2.038200 1_655
Fe3 O2 2.041638 1_655
