# generated using pymatgen
data_LaTe2
_symmetry_space_group_name_H-M   'P 1'
_cell_length_a   9.14142881
_cell_length_b   9.13761061
_cell_length_c   9.28492748
_cell_angle_alpha   90.00000000
_cell_angle_beta   89.99102736
_cell_angle_gamma   90.00000000
_symmetry_Int_Tables_number   1
_chemical_formula_structural   LaTe2
_chemical_formula_sum   'La8 Te16'
_cell_volume   775.57756805
_cell_formula_units_Z   8
loop_
 _symmetry_equiv_pos_site_id
 _symmetry_equiv_pos_as_xyz
  1  'x, y, z'
loop_
 _atom_site_type_symbol
 _atom_site_label
 _atom_site_symmetry_multiplicity
 _atom_site_fract_x
 _atom_site_fract_y
 _atom_site_fract_z
 _atom_site_occupancy
  La  La0  1  0.00304354  0.50073178  0.27324004  1
  La  La1  1  0.75199018  0.24976551  0.72682300  1
  La  La2  1  0.75206161  0.74966493  0.72672026  1
  La  La3  1  0.25198918  0.75023449  0.72682300  1
  La  La4  1  0.00068270  0.00056121  0.27355122  1
  La  La5  1  0.50068270  0.99943879  0.27355122  1
  La  La6  1  0.25206161  0.25033507  0.72672026  1
  La  La7  1  0.50304354  0.49926822  0.27324004  1
  Te  Te0  1  0.25481561  0.50043893  0.00007127  1
  Te  Te1  1  0.00224521  0.25094244  0.00008659  1
  Te  Te2  1  0.50219319  0.49989401  0.63297660  1
  Te  Te3  1  0.25185794  0.25011331  0.36709722  1
  Te  Te4  1  0.50178553  0.99977456  0.63302169  1
  Te  Te5  1  0.50224521  0.74905756  0.00008659  1
  Te  Te6  1  0.25184524  0.75003441  0.36715852  1
  Te  Te7  1  0.75184524  0.24996559  0.36715852  1
  Te  Te8  1  0.00254047  0.75123293  0.00009258  1
  Te  Te9  1  0.50254047  0.24876707  0.00009258  1
  Te  Te10  1  0.75185794  0.74988669  0.36709722  1
  Te  Te11  1  0.75481561  0.49956107  0.00007127  1
  Te  Te12  1  0.74923878  0.99876157  0.00005902  1
  Te  Te13  1  0.24923878  0.00123843  0.00005902  1
  Te  Te14  1  0.00178553  0.00022544  0.63302169  1
  Te  Te15  1  0.00219319  0.50010599  0.63297660  1
loop_
_geom_bond_atom_site_label_1
_geom_bond_atom_site_label_2
_geom_bond_distance
_geom_bond_site_symmetry_2
La0 Te6 3.335174 1_555
La0 Te15 3.340141 1_555
La0 Te3 3.343328 1_555
La0 Te10 3.348820 1_455
La0 Te7 3.359074 1_455
La0 Te11 3.403539 1_455
La0 Te1 3.412056 1_555
La0 Te8 3.416364 1_555
La0 Te0 3.424679 1_555
La1 Te7 3.339460 1_555
La1 Te14 3.342384 1_655
La1 Te2 3.346360 1_555
La1 Te4 3.347938 1_545
La1 Te15 3.350030 1_655
La1 Te9 3.411157 1_556
La1 Te11 3.412840 1_556
La1 Te1 3.416578 1_656
La1 Te12 3.420140 1_546
La2 Te10 3.339075 1_555
La2 Te2 3.344327 1_555
La2 Te15 3.344463 1_655
La2 Te14 3.348059 1_665
La2 Te4 3.348876 1_555
La2 Te12 3.409192 1_556
La2 Te5 3.414058 1_556
La2 Te11 3.415429 1_556
La2 Te8 3.418711 1_656
La3 Te6 3.339460 1_555
La3 Te4 3.342391 1_555
La3 Te15 3.346354 1_555
La3 Te14 3.347931 1_565
La3 Te2 3.350036 1_555
La3 Te8 3.411151 1_556
La3 Te0 3.412840 1_556
La3 Te5 3.416584 1_556
La3 Te13 3.420140 1_566
La4 Te7 3.335091 1_455
La4 Te14 3.337675 1_555
La4 Te10 3.342806 1_445
La4 Te3 3.350661 1_555
La4 Te6 3.356796 1_545
La4 Te13 3.407236 1_555
La4 Te8 3.411379 1_545
La4 Te1 3.417842 1_555
La4 Te12 3.425461 1_445
La5 Te6 3.335091 1_555
La5 Te4 3.337675 1_555
La5 Te3 3.342806 1_565
La5 Te10 3.350661 1_555
La5 Te7 3.356796 1_565
La5 Te12 3.407236 1_555
La5 Te9 3.411379 1_565
La5 Te5 3.417842 1_555
La5 Te13 3.425461 1_565
La6 Te3 3.339075 1_555
La6 Te15 3.344327 1_555
La6 Te2 3.344463 1_555
La6 Te4 3.348059 1_545
La6 Te14 3.348876 1_555
La6 Te13 3.409192 1_556
La6 Te1 3.414058 1_556
La6 Te0 3.415429 1_556
La6 Te9 3.418711 1_556
La7 Te7 3.335174 1_555
La7 Te2 3.340141 1_555
La7 Te10 3.343328 1_555
La7 Te3 3.348820 1_555
La7 Te6 3.359074 1_555
La7 Te0 3.403539 1_555
La7 Te5 3.412056 1_555
La7 Te9 3.416364 1_555
La7 Te11 3.424679 1_555
Te0 Te5 3.205775 1_555
Te0 Te9 3.227500 1_555
Te0 Te1 3.244735 1_555
Te0 Te8 3.251161 1_555
Te1 Te11 3.205775 1_455
Te1 Te13 3.210006 1_555
Te1 Te12 3.264838 1_445
Te11 Te8 3.227500 1_655
Te11 Te5 3.244735 1_555
Te11 Te9 3.251161 1_555
Te12 Te5 3.210006 1_555
Te12 Te9 3.210068 1_565
Te12 Te8 3.236905 1_655
Te13 Te8 3.210068 1_545
Te13 Te9 3.236905 1_555
Te13 Te5 3.264838 1_545
