# generated using pymatgen
data_AgH36S8N11O18
_symmetry_space_group_name_H-M   'P 1'
_cell_length_a   12.55652217
_cell_length_b   12.55652217
_cell_length_c   12.55652217
_cell_angle_alpha   114.59531023
_cell_angle_beta   114.59531023
_cell_angle_gamma   99.64756700
_symmetry_Int_Tables_number   1
_chemical_formula_structural   AgH36S8N11O18
_chemical_formula_sum   'Ag2 H72 S16 N22 O36'
_cell_volume   1491.25465787
_cell_formula_units_Z   2
loop_
 _symmetry_equiv_pos_site_id
 _symmetry_equiv_pos_as_xyz
  1  'x, y, z'
loop_
 _atom_site_type_symbol
 _atom_site_label
 _atom_site_symmetry_multiplicity
 _atom_site_fract_x
 _atom_site_fract_y
 _atom_site_fract_z
 _atom_site_occupancy
  Ag  Ag0  1  0.75000000  0.25000000  0.50000000  1
  Ag  Ag1  1  0.00000000  0.00000000  0.00000000  1
  H  H0  1  0.22311400  0.78369800  0.43424700  1
  H  H1  1  0.40054900  0.46630200  0.93941500  1
  H  H2  1  0.34945100  0.78886600  0.56575300  1
  H  H3  1  0.52688600  0.46113400  0.06058500  1
  H  H4  1  0.21113400  0.77688600  0.56058500  1
  H  H5  1  0.53369800  0.47311400  0.93424700  1
  H  H6  1  0.21630200  0.65054900  0.43941500  1
  H  H7  1  0.53886600  0.59945100  0.06575300  1
  H  H8  1  0.97687000  0.54041900  0.56036700  1
  H  H9  1  0.76994800  0.70958100  0.93645100  1
  H  H10  1  0.98005200  0.41650300  0.43963300  1
  H  H11  1  0.77313000  0.83349700  0.06354900  1
  H  H12  1  0.58349700  0.02313000  0.56354900  1
  H  H13  1  0.29041900  0.22687000  0.06036700  1
  H  H14  1  0.45958100  0.01994800  0.43645100  1
  H  H15  1  0.16650300  0.23005200  0.93963300  1
  H  H16  1  0.98786800  0.55265700  0.43807000  1
  H  H17  1  0.63541300  0.69734300  0.93521000  1
  H  H18  1  0.11458700  0.54979700  0.56193000  1
  H  H19  1  0.76213300  0.70020300  0.06479000  1
  H  H20  1  0.45020300  0.01213300  0.56479000  1
  H  H21  1  0.30265700  0.23786800  0.93807000  1
  H  H22  1  0.44734300  0.88541300  0.43521000  1
  H  H23  1  0.29979700  0.36458700  0.06193000  1
  H  H24  1  0.81785600  0.57465300  0.75016400  1
  H  H25  1  0.92551100  0.67534700  0.74320300  1
  H  H26  1  0.82448900  0.06769200  0.24983600  1
  H  H27  1  0.93214400  0.18230800  0.25679700  1
  H  H28  1  0.93230800  0.18214400  0.75679700  1
  H  H29  1  0.32465300  0.06785600  0.25016400  1
  H  H30  1  0.42534700  0.17551100  0.24320300  1
  H  H31  1  0.81769200  0.07448900  0.74983600  1
  H  H32  1  0.95726600  0.56133800  0.77268200  1
  H  H33  1  0.96134500  0.68866200  0.89592900  1
  H  H34  1  0.78865500  0.18458400  0.22731800  1
  H  H35  1  0.79273400  0.06541600  0.10407100  1
  H  H36  1  0.81541600  0.04273400  0.60407100  1
  H  H37  1  0.31133800  0.20726600  0.27268200  1
  H  H38  1  0.43866200  0.21134500  0.39592900  1
  H  H39  1  0.93458400  0.03865500  0.72731800  1
  H  H40  1  0.99487300  0.04677200  0.47925900  1
  H  H41  1  0.18248700  0.20322800  0.44810100  1
  H  H42  1  0.56751300  0.51561300  0.52074100  1
  H  H43  1  0.75512700  0.73438700  0.55189900  1
  H  H44  1  0.48438700  0.00512700  0.05189900  1
  H  H45  1  0.79677200  0.24487300  0.97925900  1
  H  H46  1  0.95322800  0.43248700  0.94810100  1
  H  H47  1  0.26561300  0.81751300  0.02074100  1
  H  H48  1  0.92382800  0.88481700  0.38556000  1
  H  H49  1  0.25074300  0.36518300  0.53901100  1
  H  H50  1  0.49925700  0.53826800  0.61444000  1
  H  H51  1  0.82617200  0.71173200  0.46098900  1
  H  H52  1  0.46173200  0.07617200  0.96098900  1
  H  H53  1  0.63481700  0.17382800  0.88556000  1
  H  H54  1  0.11518300  0.50074300  0.03901100  1
  H  H55  1  0.28826800  0.74925700  0.11444000  1
  H  H56  1  0.07951400  0.95718600  0.44974500  1
  H  H57  1  0.24255900  0.29281400  0.62232900  1
  H  H58  1  0.50744100  0.62976900  0.55025500  1
  H  H59  1  0.67048600  0.62023100  0.37767100  1
  H  H60  1  0.37023100  0.92048600  0.87767100  1
  H  H61  1  0.70718600  0.32951400  0.94974500  1
  H  H62  1  0.04281400  0.49255900  0.12232900  1
  H  H63  1  0.37976900  0.75744100  0.05025500  1
  H  H64  1  0.03162200  0.96599000  0.56054700  1
  H  H65  1  0.34455700  0.28401000  0.56563300  1
  H  H66  1  0.40544300  0.47107600  0.43945300  1
  H  H67  1  0.71837800  0.77892400  0.43436700  1
  H  H68  1  0.52892400  0.96837800  0.93436700  1
  H  H69  1  0.71599000  0.28162200  0.06054700  1
  H  H70  1  0.03401000  0.59455700  0.06563300  1
  H  H71  1  0.22107600  0.65544300  0.93945300  1
  S  S0  1  0.97100700  0.24701100  0.54637200  1
  S  S1  1  0.04936100  0.00298900  0.22399600  1
  S  S2  1  0.70063900  0.42463500  0.45362800  1
  S  S3  1  0.77899300  0.82536500  0.77600400  1
  S  S4  1  0.57536500  0.02899300  0.27600400  1
  S  S5  1  0.99701100  0.22100700  0.04637200  1
  S  S6  1  0.75298900  0.29936100  0.72399600  1
  S  S7  1  0.17463500  0.95063900  0.95362800  1
  S  S8  1  0.09969300  0.37417800  0.75536500  1
  S  S9  1  0.13118600  0.87582200  0.22551500  1
  S  S10  1  0.61881400  0.34432900  0.24463500  1
  S  S11  1  0.65030700  0.90567100  0.77448500  1
  S  S12  1  0.65567100  0.90030700  0.27448500  1
  S  S13  1  0.12417800  0.34969300  0.25536500  1
  S  S14  1  0.62582200  0.38118600  0.72551500  1
  S  S15  1  0.09432900  0.86881400  0.74463500  1
  N  N0  1  0.25000000  0.75000000  0.50000000  1
  N  N1  1  0.50000000  0.50000000  0.00000000  1
  N  N2  1  0.01472600  0.51472600  0.50000000  1
  N  N3  1  0.73527400  0.73527400  0.00000000  1
  N  N4  1  0.48527400  0.98527400  0.50000000  1
  N  N5  1  0.26472600  0.26472600  0.00000000  1
  N  N6  1  0.91404600  0.62500000  0.78904600  1
  N  N7  1  0.83595400  0.12500000  0.21095400  1
  N  N8  1  0.87500000  0.08595400  0.71095400  1
  N  N9  1  0.37500000  0.16404600  0.28904600  1
  N  N10  1  0.00786600  0.96406800  0.46934300  1
  N  N11  1  0.25527500  0.28593200  0.54379800  1
  N  N12  1  0.49472500  0.53852300  0.53065700  1
  N  N13  1  0.74213400  0.71147700  0.45620200  1
  N  N14  1  0.46147700  0.99213400  0.95620200  1
  N  N15  1  0.71406800  0.25786600  0.96934300  1
  N  N16  1  0.03593200  0.50527500  0.04379800  1
  N  N17  1  0.28852300  0.74472500  0.03065700  1
  N  N18  1  0.37834700  0.12500000  0.75334700  1
  N  N19  1  0.37165300  0.62500000  0.24665300  1
  N  N20  1  0.37500000  0.62165300  0.74665300  1
  N  N21  1  0.87500000  0.62834700  0.25334700  1
  O  O0  1  0.41536700  0.19292800  0.88169700  1
  O  O1  1  0.43876900  0.05707200  0.72243900  1
  O  O2  1  0.31123100  0.53367000  0.11830300  1
  O  O3  1  0.33463300  0.71633000  0.27756100  1
  O  O4  1  0.46633000  0.58463300  0.77756100  1
  O  O5  1  0.94292800  0.66536700  0.38169700  1
  O  O6  1  0.80707200  0.68876900  0.22243900  1
  O  O7  1  0.28367000  0.56123100  0.61830300  1
  O  O8  1  0.28607000  0.12500000  0.66107000  1
  O  O9  1  0.46393000  0.62500000  0.33893000  1
  O  O10  1  0.37500000  0.71393000  0.83893000  1
  O  O11  1  0.87500000  0.53607000  0.16107000  1
  O  O12  1  0.08826900  0.49966300  0.79414700  1
  O  O13  1  0.04448500  0.75033700  0.08860700  1
  O  O14  1  0.70551500  0.29412200  0.20585300  1
  O  O15  1  0.66173100  0.95587800  0.91139300  1
  O  O16  1  0.70587800  0.91173100  0.41139300  1
  O  O17  1  0.24966300  0.33826900  0.29414700  1
  O  O18  1  0.50033700  0.29448500  0.58860700  1
  O  O19  1  0.04412200  0.95551500  0.70585300  1
  O  O20  1  0.23025100  0.38856300  0.78409600  1
  O  O21  1  0.14553300  0.86143700  0.34168800  1
  O  O22  1  0.60446700  0.44615500  0.21590400  1
  O  O23  1  0.51974900  0.80384500  0.65831200  1
  O  O24  1  0.55384500  0.76974900  0.15831200  1
  O  O25  1  0.13856300  0.48025100  0.28409600  1
  O  O26  1  0.61143700  0.39553300  0.84168800  1
  O  O27  1  0.19615500  0.85446700  0.71590400  1
  O  O28  1  0.06842900  0.32196200  0.83054800  1
  O  O29  1  0.25858600  0.92803800  0.24646700  1
  O  O30  1  0.49141400  0.23788100  0.16945200  1
  O  O31  1  0.68157100  0.01211900  0.75353300  1
  O  O32  1  0.76211900  0.93157100  0.25353300  1
  O  O33  1  0.07196200  0.31842900  0.33054800  1
  O  O34  1  0.67803800  0.50858600  0.74646700  1
  O  O35  1  0.98788100  0.74141400  0.66945200  1
loop_
_geom_bond_atom_site_label_1
_geom_bond_atom_site_label_2
_geom_bond_distance
_geom_bond_site_symmetry_2
Ag0 S0 2.597992 1_555
Ag0 S6 2.597992 1_555
Ag0 S2 2.597992 1_555
Ag0 S4 2.597992 1_555
Ag1 S3 2.597992 1_444
Ag1 S1 2.597992 1_555
Ag1 S7 2.597992 1_544
Ag1 S5 2.597992 1_455
H0 N0 1.039873 1_555
H1 N1 1.039874 1_556
H2 N0 1.039874 1_555
H3 N1 1.039872 1_555
H4 N0 1.039872 1_555
H5 N1 1.039873 1_556
H6 N0 1.039874 1_555
H7 N1 1.039874 1_555
H8 N2 1.025844 1_655
H9 N3 1.025844 1_556
H10 N2 1.025844 1_655
H11 N3 1.025844 1_555
H12 N4 1.025844 1_545
H13 N5 1.025844 1_555
H14 N4 1.025844 1_545
H15 N5 1.025844 1_556
H16 N2 1.043607 1_655
H17 N3 1.043608 1_556
H18 N2 1.043608 1_555
H19 N3 1.043608 1_555
H20 N4 1.043608 1_545
H21 N5 1.043607 1_556
H22 N4 1.043608 1_555
H23 N5 1.043608 1_555
H24 N6 1.045525 1_555
H25 N6 1.045525 1_555
H26 N7 1.045525 1_555
H27 N7 1.045525 1_555
H28 N8 1.045525 1_555
H29 N9 1.045525 1_555
H30 N9 1.045525 1_555
H31 N8 1.045525 1_555
H32 N6 1.037899 1_555
H33 N6 1.037907 1_555
H34 N7 1.037909 1_555
H35 N7 1.037909 1_555
H36 N8 1.037909 1_555
H37 N9 1.037899 1_555
H38 N9 1.037907 1_555
H39 N8 1.037909 1_555
H40 N10 1.042407 1_645
H41 N11 1.042407 1_555
H42 N12 1.042412 1_555
H43 N13 1.042405 1_555
H44 N14 1.042405 1_544
H45 N15 1.042407 1_555
H46 N16 1.042407 1_656
H47 N17 1.042412 1_555
H48 N10 1.031035 1_655
H49 N11 1.031035 1_555
H50 N12 1.031035 1_555
H51 N13 1.031035 1_555
H52 N14 1.031035 1_545
H53 N15 1.031035 1_555
H54 N16 1.031035 1_555
H55 N17 1.031035 1_555
H56 N10 1.034425 1_555
H57 N11 1.034438 1_555
H58 N12 1.034425 1_555
H59 N13 1.034427 1_555
H60 N14 1.034427 1_555
H61 N15 1.034425 1_555
H62 N16 1.034438 1_555
H63 N17 1.034425 1_555
H64 N10 1.044643 1_555
H65 N11 1.044641 1_555
H66 N12 1.044641 1_555
H67 N13 1.044637 1_555
H68 N14 1.044637 1_555
H69 N15 1.044643 1_554
H70 N16 1.044641 1_555
H71 N17 1.044641 1_556
S0 S8 2.040744 1_655
S1 S9 2.040736 1_545
S10 S2 2.040747 1_555
S11 S3 2.040736 1_555
S12 S4 2.040736 1_565
S13 S5 2.040744 1_455
S14 S6 2.040736 1_555
S15 S7 2.040747 1_555
N18 O8 1.252009 1_555
N18 O0 1.280697 1_555
N18 O1 1.280697 1_555
N19 O9 1.252009 1_555
N19 O2 1.280697 1_555
N19 O3 1.280697 1_555
N20 O10 1.252009 1_555
N20 O7 1.280697 1_555
N20 O4 1.280697 1_555
N21 O11 1.252009 1_555
N21 O6 1.280697 1_555
N21 O5 1.280697 1_555
O12 S8 1.495193 1_555
O13 S9 1.495186 1_555
O14 S10 1.495175 1_555
O15 S11 1.495180 1_555
O16 S12 1.495180 1_555
O17 S13 1.495193 1_555
O18 S14 1.495186 1_555
O19 S15 1.495175 1_555
O20 S8 1.484744 1_555
O21 S9 1.484741 1_555
O22 S10 1.484734 1_555
O23 S11 1.484741 1_555
O24 S12 1.484741 1_555
O25 S13 1.484744 1_555
O26 S14 1.484741 1_555
O27 S15 1.484734 1_555
O28 S8 1.487496 1_555
O29 S9 1.487507 1_555
O30 S10 1.487510 1_555
O31 S11 1.487507 1_545
O32 S12 1.487507 1_555
O33 S13 1.487496 1_555
O34 S14 1.487507 1_555
O35 S15 1.487510 1_655
