# generated using pymatgen
data_MgTi3V5O16
_symmetry_space_group_name_H-M   'P 1'
_cell_length_a   5.93945831
_cell_length_b   5.97046316
_cell_length_c   9.32010235
_cell_angle_alpha   89.13097899
_cell_angle_beta   89.95794589
_cell_angle_gamma   120.50083751
_symmetry_Int_Tables_number   1
_chemical_formula_structural   MgTi3V5O16
_chemical_formula_sum   'Mg1 Ti3 V5 O16'
_cell_volume   284.72226841
_cell_formula_units_Z   1
loop_
 _symmetry_equiv_pos_site_id
 _symmetry_equiv_pos_as_xyz
  1  'x, y, z'
loop_
 _atom_site_type_symbol
 _atom_site_label
 _atom_site_symmetry_multiplicity
 _atom_site_fract_x
 _atom_site_fract_y
 _atom_site_fract_z
 _atom_site_occupancy
  Mg  Mg0  1  0.18360700  0.35381200  0.95024800  1
  Ti  Ti0  1  0.18489900  0.85795200  0.21056400  1
  Ti  Ti1  1  0.12314800  0.32907700  0.25505800  1
  Ti  Ti2  1  0.35238100  0.15825600  0.69419500  1
  V  V0  1  0.36117700  0.69008400  0.49057100  1
  V  V1  1  0.65990600  0.80123800  0.19978600  1
  V  V2  1  0.66392900  0.31411400  0.98323500  1
  V  V3  1  0.84945500  0.18670900  0.69719400  1
  V  V4  1  0.83769100  0.67557100  0.71957800  1
  O  O0  1  0.18379900  0.84554600  0.59780100  1
  O  O1  1  0.03292600  0.52632400  0.35476900  1
  O  O2  1  0.30063500  0.63246300  0.10804700  1
  O  O3  1  0.98201200  0.97434800  0.31718900  1
  O  O4  1  0.01848900  0.02787500  0.80968300  1
  O  O5  1  0.17100800  0.35024300  0.59735400  1
  O  O6  1  0.47882700  0.94834600  0.32578900  1
  O  O7  1  0.45939000  0.51458200  0.34332000  1
  O  O8  1  0.31438400  0.15618600  0.09704300  1
  O  O9  1  0.65442700  0.84053700  0.59720000  1
  O  O10  1  0.51604500  0.46608600  0.84202700  1
  O  O11  1  0.53821900  0.04711700  0.82235000  1
  O  O12  1  0.67894700  0.35556100  0.59943100  1
  O  O13  1  0.81219700  0.65112800  0.10604200  1
  O  O14  1  0.96932200  0.47000400  0.83853800  1
  O  O15  1  0.83984700  0.16036900  0.10156600  1
loop_
_geom_bond_atom_site_label_1
_geom_bond_atom_site_label_2
_geom_bond_distance
_geom_bond_site_symmetry_2
Mg0 O10 1.999587 1_555
Mg0 O14 2.015289 1_455
Mg0 O2 2.077447 1_556
Mg0 O4 2.146378 1_555
Mg0 O8 2.179516 1_556
Mg0 O15 2.245935 1_456
O0 Ti2 1.857423 1_565
O0 V0 1.997362 1_555
O0 V4 2.094726 1_455
O1 Ti1 1.791850 1_555
O1 V0 2.113090 1_555
O1 Ti0 2.155159 1_555
O2 V1 2.036167 1_555
O2 Ti0 2.043374 1_555
O2 Ti1 2.062498 1_555
O3 Ti1 1.919220 1_665
O3 Ti0 1.947273 1_655
O3 V1 1.988919 1_555
O4 V3 1.986016 1_455
O4 V4 2.011170 1_445
O4 Ti2 2.025275 1_555
O5 V3 1.882457 1_455
O5 V0 1.998461 1_555
O5 Ti2 2.124266 1_555
O6 Ti0 1.885787 1_555
O6 V0 2.014289 1_555
O6 V1 2.072580 1_555
O7 Ti1 1.917422 1_555
O7 V0 1.996145 1_555
O7 V1 1.999057 1_555
O8 Ti0 1.852832 1_545
O8 V2 2.074531 1_554
O8 Ti1 2.399658 1_555
O9 V0 1.808211 1_555
O9 V3 2.027752 1_565
O9 V4 2.124102 1_555
O10 V4 2.011070 1_555
O10 V2 2.025166 1_555
O10 Ti2 2.118101 1_555
O11 Ti2 1.951058 1_555
O11 V3 1.968729 1_555
O11 V2 2.052551 1_555
O12 Ti2 1.891146 1_555
O12 V3 1.970280 1_555
O12 V4 2.007767 1_555
O13 V1 1.797287 1_555
O13 V2 2.099252 1_554
O13 Ti0 2.153815 1_655
O14 V3 1.987382 1_555
O14 V2 2.054189 1_555
O14 V4 2.069026 1_555
O15 V2 2.023657 1_554
O15 V1 2.047083 1_545
O15 Ti1 2.054065 1_655
