# generated using pymatgen
data_Nd4CrS7
_symmetry_space_group_name_H-M   'P 1'
_cell_length_a   6.47709500
_cell_length_b   10.22441039
_cell_length_c   10.23422129
_cell_angle_alpha   120.01484781
_cell_angle_beta   90.00000000
_cell_angle_gamma   90.00000000
_symmetry_Int_Tables_number   1
_chemical_formula_structural   Nd4CrS7
_chemical_formula_sum   'Nd8 Cr2 S14'
_cell_volume   586.86603800
_cell_formula_units_Z   2
loop_
 _symmetry_equiv_pos_site_id
 _symmetry_equiv_pos_as_xyz
  1  'x, y, z'
loop_
 _atom_site_type_symbol
 _atom_site_label
 _atom_site_symmetry_multiplicity
 _atom_site_fract_x
 _atom_site_fract_y
 _atom_site_fract_z
 _atom_site_occupancy
  Nd  Nd0  1  0.47815600  0.99992300  0.00011400  1
  Nd  Nd1  1  0.97815600  0.00007700  0.99988600  1
  Nd  Nd2  1  0.25184800  0.25331900  0.39571300  1
  Nd  Nd3  1  0.25227100  0.60417300  0.85720500  1
  Nd  Nd4  1  0.25207200  0.14217200  0.74587900  1
  Nd  Nd5  1  0.75184800  0.74668100  0.60428700  1
  Nd  Nd6  1  0.75227100  0.39582700  0.14279500  1
  Nd  Nd7  1  0.75207200  0.85782800  0.25412100  1
  Cr  Cr0  1  0.83501500  0.33197200  0.66678700  1
  Cr  Cr1  1  0.33501500  0.66802800  0.33321300  1
  S  S0  1  0.72533900  0.16308400  0.25634900  1
  S  S1  1  0.72583300  0.74408400  0.90713100  1
  S  S2  1  0.72566500  0.09386800  0.83593200  1
  S  S3  1  0.22533900  0.83691600  0.74365100  1
  S  S4  1  0.22583300  0.25591600  0.09286900  1
  S  S5  1  0.22566500  0.90613200  0.16406800  1
  S  S6  1  0.99303500  0.10014800  0.51292400  1
  S  S7  1  0.99324900  0.48707600  0.58774400  1
  S  S8  1  0.99332000  0.41274600  0.89923800  1
  S  S9  1  0.49303500  0.89985200  0.48707600  1
  S  S10  1  0.49324900  0.51292400  0.41225600  1
  S  S11  1  0.49332000  0.58725400  0.10076200  1
  S  S12  1  0.46419700  0.33368300  0.66687500  1
  S  S13  1  0.96419700  0.66631700  0.33312500  1
loop_
_geom_bond_atom_site_label_1
_geom_bond_atom_site_label_2
_geom_bond_distance
_geom_bond_site_symmetry_2
Nd0 S1 2.798427 1_554
Nd0 S0 2.801144 1_565
Nd0 S2 2.816147 1_564
Nd0 S4 2.817279 1_565
Nd0 S3 2.823441 1_554
Nd0 S5 2.831862 1_555
Nd1 S4 2.798427 1_656
Nd1 S3 2.801144 1_645
Nd1 S5 2.816147 1_646
Nd1 S1 2.817279 1_545
Nd1 S0 2.823441 1_556
Nd1 S2 2.831862 1_555
Nd2 S7 2.771446 1_455
Nd2 S12 2.826122 1_555
Nd2 S6 2.929368 1_455
Nd2 S10 3.011511 1_555
Nd2 S4 3.117297 1_555
Nd2 S5 3.135394 1_545
Nd2 S0 3.312784 1_555
Nd2 S0 3.633014 1_455
Nd3 S8 2.769709 1_455
Nd3 S12 2.817360 1_555
Nd3 S7 2.924037 1_455
Nd3 S11 3.018624 1_556
Nd3 S5 3.118335 1_556
Nd3 S3 3.132172 1_555
Nd3 S1 3.314293 1_555
Nd3 S1 3.633571 1_455
Nd4 S6 2.767455 1_455
Nd4 S12 2.821260 1_555
Nd4 S8 2.929432 1_455
Nd4 S9 3.004074 1_545
Nd4 S3 3.114536 1_545
Nd4 S4 3.140136 1_556
Nd4 S2 3.310329 1_555
Nd4 S2 3.629597 1_455
Nd5 S10 2.771446 1_555
Nd5 S13 2.826122 1_555
Nd5 S9 2.929368 1_555
Nd5 S7 3.011511 1_555
Nd5 S1 3.117297 1_555
Nd5 S2 3.135394 1_565
Nd5 S3 3.312784 1_655
Nd5 S3 3.633014 1_555
Nd6 S11 2.769709 1_555
Nd6 S13 2.817360 1_555
Nd6 S10 2.924037 1_555
Nd6 S8 3.018624 1_554
Nd6 S2 3.118335 1_554
Nd6 S0 3.132172 1_555
Nd6 S4 3.314293 1_655
Nd6 S4 3.633571 1_555
Nd7 S9 2.767455 1_555
Nd7 S13 2.821260 1_555
Nd7 S11 2.929432 1_555
Nd7 S6 3.004074 1_565
Nd7 S0 3.114536 1_565
Nd7 S1 3.140136 1_554
Nd7 S5 3.310329 1_655
Nd7 S5 3.629597 1_555
Cr0 S6 2.326209 1_555
Cr0 S8 2.329647 1_555
Cr0 S7 2.345879 1_555
Cr0 S12 2.401884 1_555
Cr1 S9 2.326209 1_555
Cr1 S11 2.329647 1_555
Cr1 S10 2.345879 1_555
Cr1 S13 2.401884 1_455
