# generated using pymatgen
data_Cs4FeO4
_symmetry_space_group_name_H-M   'P 1'
_cell_length_a   6.91990430
_cell_length_b   10.87469230
_cell_length_c   11.56888767
_cell_angle_alpha   81.13012839
_cell_angle_beta   90.00000000
_cell_angle_gamma   90.00000000
_symmetry_Int_Tables_number   1
_chemical_formula_structural   Cs4FeO4
_chemical_formula_sum   'Cs16 Fe4 O16'
_cell_volume   860.16877377
_cell_formula_units_Z   4
loop_
 _symmetry_equiv_pos_site_id
 _symmetry_equiv_pos_as_xyz
  1  'x, y, z'
loop_
 _atom_site_type_symbol
 _atom_site_label
 _atom_site_symmetry_multiplicity
 _atom_site_fract_x
 _atom_site_fract_y
 _atom_site_fract_z
 _atom_site_occupancy
  Cs  Cs0  1  0.62048433  0.83955897  0.00850072  1
  Cs  Cs1  1  0.12048433  0.16044103  0.49149928  1
  Cs  Cs2  1  0.37951567  0.16044103  0.99149928  1
  Cs  Cs3  1  0.87951567  0.83955897  0.50850072  1
  Cs  Cs4  1  0.41947671  0.93451805  0.32534572  1
  Cs  Cs5  1  0.91947671  0.06548195  0.17465428  1
  Cs  Cs6  1  0.58052329  0.06548195  0.67465428  1
  Cs  Cs7  1  0.08052329  0.93451805  0.82534572  1
  Cs  Cs8  1  0.20700503  0.39074506  0.21239309  1
  Cs  Cs9  1  0.70700503  0.60925494  0.28760691  1
  Cs  Cs10  1  0.79299497  0.60925494  0.78760691  1
  Cs  Cs11  1  0.29299497  0.39074506  0.71239309  1
  Cs  Cs12  1  0.23222434  0.59399014  0.43106071  1
  Cs  Cs13  1  0.73222434  0.40600986  0.06893929  1
  Cs  Cs14  1  0.76777566  0.40600986  0.56893929  1
  Cs  Cs15  1  0.26777566  0.59399014  0.93106071  1
  Fe  Fe0  1  0.12898327  0.75977908  0.14594073  1
  Fe  Fe1  1  0.62898327  0.24022092  0.35405927  1
  Fe  Fe2  1  0.87101673  0.24022092  0.85405927  1
  Fe  Fe3  1  0.37101673  0.75977908  0.64594073  1
  O  O0  1  0.34531897  0.66513064  0.16494060  1
  O  O1  1  0.84531897  0.33486936  0.33505940  1
  O  O2  1  0.65468103  0.33486936  0.83505940  1
  O  O3  1  0.15468103  0.66513064  0.66494060  1
  O  O4  1  0.22383641  0.90592843  0.07909671  1
  O  O5  1  0.72383641  0.09407157  0.42090329  1
  O  O6  1  0.77616359  0.09407157  0.92090329  1
  O  O7  1  0.27616359  0.90592843  0.57909671  1
  O  O8  1  0.99518102  0.80237605  0.26803781  1
  O  O9  1  0.49518102  0.19762395  0.23196219  1
  O  O10  1  0.00481898  0.19762395  0.73196219  1
  O  O11  1  0.50481898  0.80237605  0.76803781  1
  O  O12  1  0.53712219  0.66094588  0.58026259  1
  O  O13  1  0.03712219  0.33905412  0.91973741  1
  O  O14  1  0.46287781  0.33905412  0.41973741  1
  O  O15  1  0.96287781  0.66094588  0.08026259  1
loop_
_geom_bond_atom_site_label_1
_geom_bond_atom_site_label_2
_geom_bond_distance
_geom_bond_site_symmetry_2
Cs0 O11 2.981597 1_554
Cs0 O4 2.983867 1_555
Cs0 O6 2.997163 1_564
Cs0 O0 3.072548 1_555
Cs0 O15 3.094908 1_555
Cs1 O10 2.981597 1_555
Cs1 O5 2.983867 1_455
Cs1 O7 2.997163 1_545
Cs1 O1 3.072548 1_455
Cs1 O14 3.094908 1_555
Cs2 O9 2.981597 1_556
Cs2 O6 2.983867 1_555
Cs2 O4 2.997163 1_546
Cs2 O2 3.072548 1_555
Cs2 O13 3.094908 1_555
Cs3 O8 2.981597 1_555
Cs3 O7 2.983867 1_655
Cs3 O5 2.997163 1_565
Cs3 O3 3.072548 1_655
Cs3 O12 3.094908 1_555
Cs4 O9 2.945299 1_565
Cs4 O5 3.043028 1_565
Cs4 O7 3.068639 1_555
Cs4 O4 3.212230 1_555
Cs4 O8 3.379191 1_455
Cs5 O8 2.945299 1_545
Cs5 O4 3.043028 1_645
Cs5 O6 3.068639 1_554
Cs5 O5 3.212230 1_555
Cs5 O9 3.379191 1_555
Cs6 O11 2.945299 1_545
Cs6 O7 3.043028 1_545
Cs6 O5 3.068639 1_555
Cs6 O6 3.212230 1_555
Cs6 O10 3.379191 1_655
Cs7 O10 2.945299 1_565
Cs7 O6 3.043028 1_465
Cs7 O4 3.068639 1_556
Cs7 O7 3.212230 1_555
Cs7 O11 3.379191 1_555
Cs8 O9 2.879553 1_555
Cs8 O1 2.895057 1_455
Cs8 O14 2.964660 1_555
Cs8 O0 3.100922 1_555
Cs9 O8 2.879553 1_555
Cs9 O0 2.895057 1_555
Cs9 O15 2.964660 1_555
Cs9 O1 3.100922 1_555
Cs10 O11 2.879553 1_555
Cs10 O3 2.895057 1_655
Cs10 O12 2.964660 1_555
Cs10 O2 3.100922 1_555
Cs11 O10 2.879553 1_555
Cs11 O2 2.895057 1_555
Cs11 O13 2.964660 1_555
Cs11 O3 3.100922 1_555
Cs12 O12 2.889410 1_555
Cs12 O3 2.975387 1_555
Cs12 O0 3.155147 1_555
Cs12 O8 3.172534 1_455
Cs12 O14 3.219102 1_555
Cs13 O13 2.889410 1_654
Cs13 O2 2.975387 1_554
Cs13 O1 3.155147 1_555
Cs13 O9 3.172534 1_555
Cs13 O15 3.219102 1_555
Cs14 O14 2.889410 1_555
Cs14 O1 2.975387 1_555
Cs14 O2 3.155147 1_555
Cs14 O10 3.172534 1_655
Cs14 O12 3.219102 1_555
Cs15 O15 2.889410 1_456
Cs15 O0 2.975387 1_556
Cs15 O3 3.155147 1_555
Cs15 O11 3.172534 1_555
Cs15 O13 3.219102 1_555
Fe0 O4 1.782075 1_555
Fe0 O8 1.808006 1_455
Fe0 O0 1.810808 1_555
Fe0 O15 1.818109 1_455
Fe1 O5 1.782075 1_555
Fe1 O9 1.808006 1_555
Fe1 O1 1.810808 1_555
Fe1 O14 1.818109 1_555
Fe2 O6 1.782075 1_555
Fe2 O10 1.808006 1_655
Fe2 O2 1.810808 1_555
Fe2 O13 1.818109 1_655
Fe3 O7 1.782075 1_555
Fe3 O11 1.808006 1_555
Fe3 O3 1.810808 1_555
Fe3 O12 1.818109 1_555
