# generated using pymatgen
data_TeMoWS3
_symmetry_space_group_name_H-M   'P 1'
_cell_length_a   3.27127503
_cell_length_b   3.27127503
_cell_length_c   37.14651600
_cell_angle_alpha   90.00000000
_cell_angle_beta   90.00000000
_cell_angle_gamma   119.99998040
_symmetry_Int_Tables_number   1
_chemical_formula_structural   TeMoWS3
_chemical_formula_sum   'Te2 Mo2 W2 S6'
_cell_volume   344.25711289
_cell_formula_units_Z   2
loop_
 _symmetry_equiv_pos_site_id
 _symmetry_equiv_pos_as_xyz
  1  'x, y, z'
loop_
 _atom_site_type_symbol
 _atom_site_label
 _atom_site_symmetry_multiplicity
 _atom_site_fract_x
 _atom_site_fract_y
 _atom_site_fract_z
 _atom_site_occupancy
  Te  Te0  1  0.33333300  0.66666700  0.04201000  1
  Te  Te1  1  0.33333300  0.66666700  0.14574100  1
  Mo  Mo0  1  0.00000000  0.00000000  0.09386100  1
  Mo  Mo1  1  0.33333300  0.66666700  0.28183200  1
  W  W0  1  0.00000000  0.00000000  0.46965500  1
  W  W1  1  0.33333300  0.66666700  0.65755900  1
  S  S0  1  0.00000000  0.00000000  0.32324200  1
  S  S1  1  0.00000000  0.00000000  0.69913000  1
  S  S2  1  0.33333300  0.66666700  0.42807200  1
  S  S3  1  0.33333300  0.66666700  0.51124300  1
  S  S4  1  0.00000000  0.00000000  0.24043800  1
  S  S5  1  0.00000000  0.00000000  0.61596500  1
loop_
_geom_bond_atom_site_label_1
_geom_bond_atom_site_label_2
_geom_bond_distance
_geom_bond_site_symmetry_2
Mo0 Te0 2.697568 1_545
Mo0 Te0 2.697570 1_445
Mo0 Te0 2.697570 1_555
Mo0 Te1 2.698337 1_545
Mo0 Te1 2.698339 1_445
Mo0 Te1 2.698339 1_555
Mo1 S4 2.435450 1_565
Mo1 S4 2.435453 1_665
Mo1 S4 2.435453 1_555
Mo1 S0 2.435826 1_565
Mo1 S0 2.435828 1_665
Mo1 S0 2.435828 1_555
S1 W1 2.439607 1_545
S1 W1 2.439609 1_555
S1 W1 2.439609 1_445
S2 W0 2.439889 1_565
S2 W0 2.439892 1_665
S2 W0 2.439892 1_555
S3 W0 2.440006 1_565
S3 W0 2.440009 1_555
S3 W0 2.440009 1_665
S5 W1 2.440148 1_545
S5 W1 2.440150 1_555
S5 W1 2.440150 1_445
