# generated using pymatgen
data_Ta2Zn2WO8
_symmetry_space_group_name_H-M   'P 1'
_cell_length_a   5.34439700
_cell_length_b   5.98332699
_cell_length_c   10.26020830
_cell_angle_alpha   105.03537055
_cell_angle_beta   90.73260925
_cell_angle_gamma   91.18839774
_symmetry_Int_Tables_number   1
_chemical_formula_structural   Ta2Zn2WO8
_chemical_formula_sum   'Ta4 Zn4 W2 O16'
_cell_volume   316.73727334
_cell_formula_units_Z   2
loop_
 _symmetry_equiv_pos_site_id
 _symmetry_equiv_pos_as_xyz
  1  'x, y, z'
loop_
 _atom_site_type_symbol
 _atom_site_label
 _atom_site_symmetry_multiplicity
 _atom_site_fract_x
 _atom_site_fract_y
 _atom_site_fract_z
 _atom_site_occupancy
  Ta  Ta0  1  0.26477300  0.04020400  0.76192000  1
  Ta  Ta1  1  0.19995300  0.24267100  0.24176100  1
  Ta  Ta2  1  0.75815100  0.98587700  0.22841000  1
  Ta  Ta3  1  0.76231100  0.72866900  0.76268900  1
  Zn  Zn0  1  0.22209900  0.85324400  0.41959100  1
  Zn  Zn1  1  0.25960400  0.44458800  0.56394600  1
  Zn  Zn2  1  0.76665500  0.13644500  0.55038600  1
  Zn  Zn3  1  0.70906000  0.56672900  0.42275000  1
  W  W0  1  0.26729600  0.64207300  0.00051400  1
  W  W1  1  0.75802700  0.34525500  0.00320300  1
  O  O0  1  0.93844800  0.04511200  0.86015000  1
  O  O1  1  0.56614100  0.17592300  0.13827200  1
  O  O2  1  0.08717700  0.91935600  0.12972400  1
  O  O3  1  0.43878800  0.81529600  0.85841800  1
  O  O4  1  0.41394500  0.31053200  0.88118500  1
  O  O5  1  0.10510900  0.42620800  0.11995800  1
  O  O6  1  0.61085600  0.67367400  0.11424900  1
  O  O7  1  0.91199700  0.56579200  0.88018200  1
  O  O8  1  0.57397400  0.94111800  0.65235700  1
  O  O9  1  0.91257400  0.29020000  0.37677900  1
  O  O10  1  0.63336400  0.46270900  0.62032900  1
  O  O11  1  0.85338800  0.85071700  0.39042600  1
  O  O12  1  0.34597300  0.54100100  0.39446300  1
  O  O13  1  0.13693900  0.16935600  0.61797200  1
  O  O14  1  0.07262700  0.73061500  0.65469900  1
  O  O15  1  0.42113400  0.07279100  0.35293600  1
loop_
_geom_bond_atom_site_label_1
_geom_bond_atom_site_label_2
_geom_bond_distance
_geom_bond_site_symmetry_2
O0 Ta0 2.022359 1_655
O0 Ta3 2.095388 1_545
O0 W1 2.247132 1_556
O1 Ta2 1.941939 1_545
O1 W1 2.172662 1_555
O1 Ta1 2.232166 1_555
O2 Ta2 2.035007 1_455
O2 Ta1 2.051129 1_565
O2 W0 2.096294 1_555
O3 Ta3 2.009826 1_555
O3 Ta0 2.091824 1_565
O3 W0 2.195125 1_556
O4 Ta0 1.908881 1_555
O4 W1 2.186874 1_556
O4 W0 2.208469 1_556
O5 Ta1 1.934847 1_555
O5 W1 2.171481 1_455
O5 W0 2.173339 1_555
O6 Ta2 2.064303 1_555
O6 W0 2.141304 1_555
O6 W1 2.168774 1_555
O7 Ta3 1.913154 1_555
O7 W1 2.203903 1_556
O7 W0 2.224866 1_656
O8 Ta0 2.021947 1_565
O8 Zn2 2.032964 1_565
O8 Ta3 2.163557 1_555
O9 Zn3 1.955997 1_555
O9 Ta1 2.055963 1_655
O9 Ta2 2.186651 1_545
O9 Zn2 2.341644 1_555
O10 Ta3 1.965588 1_555
O10 Zn2 2.043828 1_555
O10 Zn1 2.065293 1_555
O10 Zn3 2.307750 1_555
O11 Zn3 1.958770 1_555
O11 Zn0 1.988499 1_655
O11 Ta2 2.090284 1_555
O11 Zn2 2.104232 1_565
O12 Zn0 1.949586 1_555
O12 Zn3 1.955358 1_555
O12 Zn1 2.024763 1_555
O12 Ta1 2.170237 1_555
O13 Ta0 1.957932 1_555
O13 Zn1 1.971580 1_555
O13 Zn2 2.076960 1_455
O13 Zn0 2.447348 1_545
O14 Ta3 2.007771 1_455
O14 Zn1 2.015540 1_555
O14 Ta0 2.128611 1_565
O15 Zn0 1.936896 1_545
O15 Ta1 2.085314 1_555
O15 Ta2 2.213591 1_545
