# generated using pymatgen
data_MgH8C3(NO3)2
_symmetry_space_group_name_H-M   'P 1'
_cell_length_a   7.86321414
_cell_length_b   13.73812786
_cell_length_c   7.37876697
_cell_angle_alpha   90.00000000
_cell_angle_beta   90.00000000
_cell_angle_gamma   90.00000000
_symmetry_Int_Tables_number   1
_chemical_formula_structural   MgH8C3(NO3)2
_chemical_formula_sum   'Mg4 H32 C12 N8 O24'
_cell_volume   797.09750863
_cell_formula_units_Z   4
loop_
 _symmetry_equiv_pos_site_id
 _symmetry_equiv_pos_as_xyz
  1  'x, y, z'
loop_
 _atom_site_type_symbol
 _atom_site_label
 _atom_site_symmetry_multiplicity
 _atom_site_fract_x
 _atom_site_fract_y
 _atom_site_fract_z
 _atom_site_occupancy
  Mg  Mg0  1  0.71673974  0.66354984  0.76156531  1
  Mg  Mg1  1  0.78326026  0.33645016  0.26156531  1
  Mg  Mg2  1  0.28326026  0.16354984  0.73843469  1
  Mg  Mg3  1  0.21673974  0.83645016  0.23843469  1
  H  H0  1  0.42281414  0.68947009  0.47068641  1
  H  H1  1  0.07718586  0.31052991  0.97068641  1
  H  H2  1  0.57718583  0.18947009  0.02931359  1
  H  H3  1  0.92281417  0.81052991  0.52931359  1
  H  H4  1  0.00494043  0.71452213  0.00413992  1
  H  H5  1  0.49505958  0.28547787  0.50413993  1
  H  H6  1  0.99505955  0.21452213  0.49586007  1
  H  H7  1  0.50494045  0.78547787  0.99586007  1
  H  H8  1  0.82650969  0.52052733  0.47492377  1
  H  H9  1  0.67349031  0.47947267  0.97492377  1
  H  H10  1  0.17349031  0.02052733  0.02507623  1
  H  H11  1  0.32650969  0.97947267  0.52507623  1
  H  H12  1  0.56013799  0.97925263  0.78781791  1
  H  H13  1  0.93986201  0.02074738  0.28781791  1
  H  H14  1  0.43986201  0.47925263  0.71218209  1
  H  H15  1  0.06013799  0.52074737  0.21218209  1
  H  H16  1  0.72094974  0.89642362  0.80232735  1
  H  H17  1  0.77905026  0.10357638  0.30232735  1
  H  H18  1  0.27905026  0.39642362  0.69767265  1
  H  H19  1  0.22094974  0.60357638  0.19767265  1
  H  H20  1  0.69304292  0.96246147  0.60810469  1
  H  H21  1  0.80695708  0.03753852  0.10810469  1
  H  H22  1  0.30695708  0.46246147  0.89189531  1
  H  H23  1  0.19304292  0.53753853  0.39189531  1
  H  H24  1  0.90678868  0.03527621  0.78381202  1
  H  H25  1  0.59321132  0.96472377  0.28381202  1
  H  H26  1  0.09321132  0.53527623  0.71618798  1
  H  H27  1  0.40678868  0.46472380  0.21618798  1
  H  H28  1  0.73707325  0.10292687  0.78793716  1
  H  H29  1  0.76292675  0.89707314  0.28793716  1
  H  H30  1  0.26292675  0.60292686  0.71206284  1
  H  H31  1  0.23707325  0.39707314  0.21206284  1
  C  C0  1  0.47914585  0.76200991  0.49639011  1
  C  C1  1  0.02085415  0.23799009  0.99639011  1
  C  C2  1  0.52085415  0.26200991  0.00360989  1
  C  C3  1  0.97914585  0.73799009  0.50360989  1
  C  C4  1  0.93892020  0.78489061  0.99514903  1
  C  C5  1  0.56107980  0.21510939  0.49514903  1
  C  C6  1  0.06107983  0.28489061  0.50485097  1
  C  C7  1  0.43892017  0.71510939  0.00485098  1
  C  C8  1  0.69494718  0.49792125  0.50325388  1
  C  C9  1  0.80505282  0.50207878  0.00325388  1
  C  C10  1  0.30505282  0.99792122  0.99674612  1
  C  C11  1  0.19494718  0.00207875  0.49674612  1
  N  N0  1  0.68474854  0.96359711  0.74901473  1
  N  N1  1  0.81525146  0.03640291  0.24901473  1
  N  N2  1  0.31525146  0.46359708  0.75098527  1
  N  N3  1  0.18474854  0.53640289  0.25098527  1
  N  N4  1  0.78601463  0.03885633  0.83416150  1
  N  N5  1  0.71398537  0.96114370  0.33416150  1
  N  N6  1  0.21398537  0.53885630  0.66583850  1
  N  N7  1  0.28601463  0.46114367  0.16583850  1
  O  O0  1  0.59605602  0.76783927  0.61225056  1
  O  O1  1  0.90394398  0.23216073  0.11225056  1
  O  O2  1  0.40394398  0.26783927  0.88774944  1
  O  O3  1  0.09605602  0.73216073  0.38774944  1
  O  O4  1  0.42205184  0.83285935  0.40750285  1
  O  O5  1  0.07794816  0.16714065  0.90750282  1
  O  O6  1  0.57794819  0.33285935  0.09249715  1
  O  O7  1  0.92205181  0.66714065  0.59249718  1
  O  O8  1  0.80254099  0.78672119  0.90341139  1
  O  O9  1  0.69745901  0.21327881  0.40341139  1
  O  O10  1  0.19745901  0.28672119  0.59658861  1
  O  O11  1  0.30254099  0.71327881  0.09658862  1
  O  O12  1  0.00243362  0.85698343  0.07565300  1
  O  O13  1  0.49756639  0.14301657  0.57565297  1
  O  O14  1  0.99756639  0.35698343  0.42434700  1
  O  O15  1  0.50243361  0.64301657  0.92434703  1
  O  O16  1  0.61450631  0.54600732  0.62225567  1
  O  O17  1  0.88549369  0.45399268  0.12225567  1
  O  O18  1  0.38549369  0.04600732  0.87774433  1
  O  O19  1  0.11450631  0.95399268  0.37774433  1
  O  O20  1  0.63351086  0.42719931  0.41765963  1
  O  O21  1  0.86648914  0.57280066  0.91765963  1
  O  O22  1  0.36648914  0.92719934  0.08234037  1
  O  O23  1  0.13351086  0.07280069  0.58234037  1
loop_
_geom_bond_atom_site_label_1
_geom_bond_atom_site_label_2
_geom_bond_distance
_geom_bond_site_symmetry_2
Mg0 O7 2.040846 1_555
Mg0 O0 2.041360 1_555
Mg0 O21 2.065783 1_555
Mg0 O16 2.076174 1_555
Mg0 O15 2.088531 1_555
Mg0 O8 2.100954 1_555
Mg1 O6 2.040847 1_555
Mg1 O1 2.041360 1_555
Mg1 O20 2.065783 1_555
Mg1 O17 2.076174 1_555
Mg1 O14 2.088531 1_555
Mg1 O9 2.100954 1_555
Mg2 O5 2.040847 1_555
Mg2 O2 2.041360 1_555
Mg2 O23 2.065783 1_555
Mg2 O18 2.076174 1_555
Mg2 O13 2.088531 1_555
Mg2 O10 2.100954 1_555
Mg3 O4 2.040847 1_555
Mg3 O3 2.041360 1_555
Mg3 O22 2.065783 1_555
Mg3 O19 2.076174 1_555
Mg3 O12 2.088531 1_555
Mg3 O11 2.100954 1_555
H12 N0 1.043227 1_555
H13 N1 1.043227 1_555
H14 N2 1.043227 1_555
H15 N3 1.043227 1_555
H16 N0 1.042789 1_555
H17 N1 1.042789 1_555
H18 N2 1.042789 1_555
H19 N3 1.042789 1_555
H20 N0 1.041903 1_555
H21 N1 1.041903 1_555
H22 N2 1.041903 1_555
H23 N3 1.041903 1_555
H24 N4 1.020941 1_555
H25 N5 1.020941 1_555
H26 N6 1.020941 1_555
H27 N7 1.020941 1_555
H28 N4 1.019413 1_555
H29 N5 1.019413 1_555
H30 N6 1.019413 1_555
H31 N7 1.019413 1_555
C0 H0 1.106937 1_555
C0 O4 1.256628 1_555
C0 O0 1.257924 1_555
C1 H1 1.106937 1_555
C1 O5 1.256628 1_555
C1 O1 1.257924 1_456
C2 H2 1.106937 1_555
C2 O6 1.256628 1_555
C2 O2 1.257924 1_554
C3 H3 1.106937 1_555
C3 O7 1.256628 1_555
C3 O3 1.257924 1_655
C4 H4 1.099303 1_656
C4 O12 1.258258 1_656
C4 O8 1.268399 1_555
C5 H5 1.099303 1_555
C5 O13 1.258258 1_555
C5 O9 1.268399 1_555
C6 H6 1.099303 1_455
C6 O14 1.258258 1_455
C6 O10 1.268399 1_555
C7 H7 1.099303 1_554
C7 O15 1.258258 1_554
C7 O11 1.268399 1_555
C8 H8 1.100158 1_555
C8 O20 1.255487 1_555
C8 O16 1.267885 1_555
C9 H9 1.100158 1_554
C9 O21 1.255486 1_554
C9 O17 1.267885 1_555
C10 H10 1.100158 1_566
C10 O22 1.255486 1_556
C10 O18 1.267885 1_565
C11 H11 1.100158 1_545
C11 O23 1.255487 1_555
C11 O19 1.267885 1_545
