# generated using pymatgen
data_ZrVGe
_symmetry_space_group_name_H-M   'P 1'
_cell_length_a   3.73501711
_cell_length_b   3.73501587
_cell_length_c   7.72917127
_cell_angle_alpha   103.98206477
_cell_angle_beta   103.98205851
_cell_angle_gamma   90.00000060
_symmetry_Int_Tables_number   1
_chemical_formula_structural   ZrVGe
_chemical_formula_sum   'Zr2 V2 Ge2'
_cell_volume   101.33458277
_cell_formula_units_Z   2
loop_
 _symmetry_equiv_pos_site_id
 _symmetry_equiv_pos_as_xyz
  1  'x, y, z'
loop_
 _atom_site_type_symbol
 _atom_site_label
 _atom_site_symmetry_multiplicity
 _atom_site_fract_x
 _atom_site_fract_y
 _atom_site_fract_z
 _atom_site_occupancy
  Zr  Zr0  1  0.67621589  0.67621589  0.35243177  1
  Zr  Zr1  1  0.32378411  0.32378411  0.64756823  1
  V  V0  1  0.00000000  0.50000000  0.00000000  1
  V  V1  1  0.50000000  0.00000000  0.00000000  1
  Ge  Ge0  1  0.12654853  0.12654853  0.25309506  1
  Ge  Ge1  1  0.87345147  0.87345147  0.74690494  1
loop_
_geom_bond_atom_site_label_1
_geom_bond_atom_site_label_2
_geom_bond_distance
_geom_bond_site_symmetry_2
V0 V1 2.641055 1_455
V0 V1 2.641055 1_565
V0 V1 2.641056 1_465
V0 V1 2.641056 1_555
V0 Zr0 3.168820 1_455
V0 Zr1 3.168820 1_554
V0 Zr0 3.168820 1_555
V0 Zr1 3.168820 1_454
V1 Zr1 3.168820 1_544
V1 Zr0 3.168820 1_555
V1 Zr0 3.168820 1_545
V1 Zr1 3.168820 1_554
Ge0 V0 2.620599 1_555
Ge0 V1 2.620599 1_555
Ge0 V0 2.620604 1_545
Ge0 V1 2.620605 1_455
Ge0 Zr0 2.737849 1_555
Ge0 Zr0 2.737854 1_455
Ge0 Zr0 2.737855 1_545
Ge0 Zr0 2.737859 1_445
Ge0 Zr1 2.865432 1_555
Ge1 V0 2.620599 1_656
Ge1 V1 2.620599 1_566
Ge1 V0 2.620604 1_666
Ge1 V1 2.620605 1_666
Ge1 Zr1 2.737849 1_555
Ge1 Zr1 2.737854 1_655
Ge1 Zr1 2.737855 1_565
Ge1 Zr1 2.737859 1_665
Ge1 Zr0 2.865432 1_555
