# generated using pymatgen
data_Ru(CN)2
_symmetry_space_group_name_H-M   'P 1'
_cell_length_a   6.06104300
_cell_length_b   7.12012900
_cell_length_c   11.45423600
_cell_angle_alpha   90.00000000
_cell_angle_beta   90.00000000
_cell_angle_gamma   90.00000000
_symmetry_Int_Tables_number   1
_chemical_formula_structural   Ru(CN)2
_chemical_formula_sum   'Ru8 C16 N16'
_cell_volume   494.31222830
_cell_formula_units_Z   8
loop_
 _symmetry_equiv_pos_site_id
 _symmetry_equiv_pos_as_xyz
  1  'x, y, z'
loop_
 _atom_site_type_symbol
 _atom_site_label
 _atom_site_symmetry_multiplicity
 _atom_site_fract_x
 _atom_site_fract_y
 _atom_site_fract_z
 _atom_site_occupancy
  Ru  Ru0  1  0.50152800  0.11292800  0.36917200  1
  Ru  Ru1  1  0.00152800  0.38707200  0.63082800  1
  Ru  Ru2  1  0.49847200  0.61292800  0.13082800  1
  Ru  Ru3  1  0.99847200  0.88707200  0.86917200  1
  Ru  Ru4  1  0.49847200  0.88707200  0.63082800  1
  Ru  Ru5  1  0.99847200  0.61292800  0.36917200  1
  Ru  Ru6  1  0.50152800  0.38707200  0.86917200  1
  Ru  Ru7  1  0.00152800  0.11292800  0.13082800  1
  C  C0  1  0.74408800  0.24390300  0.42222500  1
  C  C1  1  0.24408800  0.25609700  0.57777500  1
  C  C2  1  0.25591200  0.74390300  0.07777500  1
  C  C3  1  0.75591200  0.75609700  0.92222500  1
  C  C4  1  0.25591200  0.75609700  0.57777500  1
  C  C5  1  0.75591200  0.74390300  0.42222500  1
  C  C6  1  0.74408800  0.25609700  0.92222500  1
  C  C7  1  0.24408800  0.24390300  0.07777500  1
  C  C8  1  0.39881500  0.34650800  0.31598700  1
  C  C9  1  0.89881500  0.15349200  0.68401300  1
  C  C10  1  0.60118500  0.84650800  0.18401300  1
  C  C11  1  0.10118500  0.65349200  0.81598700  1
  C  C12  1  0.60118500  0.65349200  0.68401300  1
  C  C13  1  0.10118500  0.84650800  0.31598700  1
  C  C14  1  0.39881500  0.15349200  0.81598700  1
  C  C15  1  0.89881500  0.34650800  0.18401300  1
  N  N0  1  0.87872900  0.35169100  0.46066700  1
  N  N1  1  0.37872900  0.14830900  0.53933300  1
  N  N2  1  0.12127100  0.85169100  0.03933300  1
  N  N3  1  0.62127100  0.64830900  0.96066700  1
  N  N4  1  0.12127100  0.64830900  0.53933300  1
  N  N5  1  0.62127100  0.85169100  0.46066700  1
  N  N6  1  0.87872900  0.14830900  0.96066700  1
  N  N7  1  0.37872900  0.35169100  0.03933300  1
  N  N8  1  0.33768000  0.50193900  0.28848200  1
  N  N9  1  0.83768000  0.99806100  0.71151800  1
  N  N10  1  0.66232000  0.00193900  0.21151800  1
  N  N11  1  0.16232000  0.49806100  0.78848200  1
  N  N12  1  0.66232000  0.49806100  0.71151800  1
  N  N13  1  0.16232000  0.00193900  0.28848200  1
  N  N14  1  0.33768000  0.99806100  0.78848200  1
  N  N15  1  0.83768000  0.50193900  0.21151800  1
loop_
_geom_bond_atom_site_label_1
_geom_bond_atom_site_label_2
_geom_bond_distance
_geom_bond_site_symmetry_2
C0 N0 1.203681 1_555
C0 Ru0 1.843999 1_555
C1 N1 1.203681 1_555
C1 Ru1 1.843999 1_555
C2 N2 1.203681 1_555
C2 Ru2 1.843999 1_555
C3 N3 1.203681 1_555
C3 Ru3 1.843999 1_555
C4 N4 1.203681 1_555
C4 Ru4 1.843999 1_555
C5 N5 1.203681 1_555
C5 Ru5 1.843999 1_555
C6 N6 1.203681 1_555
C6 Ru6 1.843999 1_555
C7 N7 1.203681 1_555
C7 Ru7 1.843999 1_555
C8 N8 1.208849 1_555
C8 Ru0 1.877405 1_555
C9 N9 1.208849 1_545
C9 Ru1 1.877405 1_655
C10 N10 1.208849 1_565
C10 Ru2 1.877405 1_555
C11 N11 1.208849 1_555
C11 Ru3 1.877405 1_455
C12 N12 1.208849 1_555
C12 Ru4 1.877405 1_555
C13 N13 1.208849 1_565
C13 Ru5 1.877405 1_455
C14 N14 1.208849 1_545
C14 Ru6 1.877405 1_555
C15 N15 1.208849 1_555
C15 Ru7 1.877405 1_655
N0 Ru1 2.101495 1_655
N0 Ru5 2.254952 1_555
N1 Ru0 2.101495 1_555
N1 Ru4 2.254952 1_545
N2 Ru3 2.101495 1_454
N2 Ru7 2.254952 1_565
N3 Ru2 2.101495 1_556
N3 Ru6 2.254952 1_555
N4 Ru5 2.101495 1_455
N4 Ru1 2.254952 1_555
N5 Ru4 2.101495 1_555
N5 Ru0 2.254952 1_565
N6 Ru7 2.101495 1_656
N6 Ru3 2.254952 1_545
N7 Ru6 2.101495 1_554
N7 Ru2 2.254952 1_555
N8 Ru2 2.198914 1_555
N8 Ru5 2.388656 1_455
N9 Ru3 2.198914 1_555
N9 Ru4 2.388656 1_555
N10 Ru0 2.198914 1_555
N10 Ru7 2.388656 1_655
N11 Ru1 2.198914 1_555
N11 Ru6 2.388656 1_555
N12 Ru6 2.198914 1_555
N12 Ru1 2.388656 1_655
N13 Ru7 2.198914 1_555
N13 Ru0 2.388656 1_555
N14 Ru4 2.198914 1_555
N14 Ru3 2.388656 1_455
N15 Ru5 2.198914 1_555
N15 Ru2 2.388656 1_555
