# generated using pymatgen
data_Eu2Co5Ge3
_symmetry_space_group_name_H-M   'P 1'
_cell_length_a   4.02065800
_cell_length_b   4.02065800
_cell_length_c   10.22467300
_cell_angle_alpha   90.00000000
_cell_angle_beta   90.00000000
_cell_angle_gamma   90.00000000
_symmetry_Int_Tables_number   1
_chemical_formula_structural   Eu2Co5Ge3
_chemical_formula_sum   'Eu2 Co5 Ge3'
_cell_volume   165.28890177
_cell_formula_units_Z   1
loop_
 _symmetry_equiv_pos_site_id
 _symmetry_equiv_pos_as_xyz
  1  'x, y, z'
loop_
 _atom_site_type_symbol
 _atom_site_label
 _atom_site_symmetry_multiplicity
 _atom_site_fract_x
 _atom_site_fract_y
 _atom_site_fract_z
 _atom_site_occupancy
  Eu  Eu0  1  0.00000000  0.00000000  0.00618300  1
  Eu  Eu1  1  0.50000000  0.50000000  0.49777400  1
  Co  Co0  1  0.00000000  0.50000000  0.24283000  1
  Co  Co1  1  0.50000000  0.00000000  0.75225100  1
  Co  Co2  1  0.50000000  0.00000000  0.24283000  1
  Co  Co3  1  0.00000000  0.50000000  0.75225100  1
  Co  Co4  1  0.50000000  0.50000000  0.12751800  1
  Ge  Ge0  1  0.00000000  0.00000000  0.63768800  1
  Ge  Ge1  1  0.00000000  0.00000000  0.36393800  1
  Ge  Ge2  1  0.50000000  0.50000000  0.87673800  1
loop_
_geom_bond_atom_site_label_1
_geom_bond_atom_site_label_2
_geom_bond_distance
_geom_bond_site_symmetry_2
Eu0 Ge2 3.136014 1_554
Eu0 Ge2 3.136014 1_454
Eu0 Ge2 3.136014 1_444
Eu0 Ge2 3.136014 1_544
Eu1 Ge1 3.155225 1_565
Eu1 Ge1 3.155225 1_655
Eu1 Ge1 3.155225 1_555
Eu1 Ge1 3.155225 1_665
Eu1 Ge0 3.182670 1_565
Eu1 Ge0 3.182670 1_555
Eu1 Ge0 3.182670 1_655
Eu1 Ge0 3.182670 1_665
Co0 Co4 2.330564 1_555
Co0 Co4 2.330564 1_455
Co0 Ge1 2.361098 1_565
Co0 Ge1 2.361098 1_555
Co0 Co2 2.843035 1_555
Co0 Co2 2.843035 1_465
Co0 Co2 2.843035 1_565
Co0 Co2 2.843035 1_455
Co0 Eu0 3.145802 1_565
Co0 Eu0 3.145802 1_555
Co0 Eu1 3.291870 1_455
Co0 Eu1 3.291870 1_555
Co1 Ge0 2.326699 1_555
Co1 Ge0 2.326699 1_655
Co1 Ge2 2.379399 1_545
Co1 Ge2 2.379399 1_555
Co1 Eu0 3.283682 1_656
Co1 Eu0 3.283682 1_556
Co1 Eu1 3.288090 1_555
Co1 Eu1 3.288090 1_545
Co2 Co4 2.330564 1_555
Co2 Co4 2.330564 1_545
Co2 Ge1 2.361098 1_655
Co2 Ge1 2.361098 1_555
Co2 Eu0 3.145802 1_555
Co2 Eu0 3.145802 1_655
Co2 Eu1 3.291870 1_555
Co2 Eu1 3.291870 1_545
Co3 Ge0 2.326699 1_555
Co3 Ge0 2.326699 1_565
Co3 Ge2 2.379399 1_555
Co3 Ge2 2.379399 1_455
Co3 Eu0 3.283682 1_566
Co3 Eu0 3.283682 1_556
Co3 Eu1 3.288090 1_455
Co3 Eu1 3.288090 1_555
Co4 Ge2 2.564143 1_554
Co4 Eu0 3.101928 1_565
Co4 Eu0 3.101928 1_555
Co4 Eu0 3.101928 1_655
Co4 Eu0 3.101928 1_665
Ge0 Ge1 2.799004 1_555
