# generated using pymatgen
data_SrLa(FeO3)2
_symmetry_space_group_name_H-M   'P 1'
_cell_length_a   5.53987214
_cell_length_b   5.53879130
_cell_length_c   5.53989991
_cell_angle_alpha   60.55853384
_cell_angle_beta   60.54876684
_cell_angle_gamma   60.56060464
_symmetry_Int_Tables_number   1
_chemical_formula_structural   SrLa(FeO3)2
_chemical_formula_sum   'Sr1 La1 Fe2 O6'
_cell_volume   121.70894997
_cell_formula_units_Z   1
loop_
 _symmetry_equiv_pos_site_id
 _symmetry_equiv_pos_as_xyz
  1  'x, y, z'
loop_
 _atom_site_type_symbol
 _atom_site_label
 _atom_site_symmetry_multiplicity
 _atom_site_fract_x
 _atom_site_fract_y
 _atom_site_fract_z
 _atom_site_occupancy
  Sr  Sr0  1  0.24999600  0.25000000  0.25000300  1
  La  La0  1  0.75001000  0.74999700  0.74999200  1
  Fe  Fe0  1  0.50016800  0.50016000  0.50017100  1
  Fe  Fe1  1  0.99982900  0.99984100  0.99983100  1
  O  O0  1  0.70654800  0.79345000  0.24999900  1
  O  O1  1  0.79346300  0.24999900  0.70654000  1
  O  O2  1  0.25000200  0.70654600  0.79345400  1
  O  O3  1  0.18951700  0.75000100  0.31048100  1
  O  O4  1  0.75000100  0.31046600  0.18953100  1
  O  O5  1  0.31046500  0.18954000  0.74999900  1
loop_
_geom_bond_atom_site_label_1
_geom_bond_atom_site_label_2
_geom_bond_distance
_geom_bond_site_symmetry_2
La0 O3 2.454998 1_655
La0 O4 2.455262 1_556
La0 O5 2.455382 1_565
La0 O1 2.780006 1_555
La0 O1 2.780017 1_565
La0 O2 2.780500 1_555
La0 O0 2.780523 1_556
La0 O2 2.780605 1_655
La0 O0 2.780612 1_555
Fe0 O0 1.980184 1_555
Fe0 O2 1.980285 1_555
Fe0 O1 1.980730 1_555
Fe0 O5 1.996536 1_555
Fe0 O4 1.996718 1_555
Fe0 O3 1.997197 1_555
Fe1 O0 1.980234 1_556
Fe1 O2 1.980264 1_655
Fe1 O1 1.980694 1_565
Fe1 O4 1.996616 1_566
Fe1 O5 1.996660 1_665
Fe1 O3 1.997175 1_656
O0 Sr0 2.550387 1_565
O0 Sr0 3.035816 1_655
O1 Sr0 2.550101 1_655
O1 Sr0 3.035672 1_556
O2 Sr0 2.550294 1_556
O2 Sr0 3.035750 1_565
O3 Sr0 2.789910 1_565
O3 Sr0 2.789938 1_555
O4 Sr0 2.790374 1_555
O4 Sr0 2.790537 1_655
O5 Sr0 2.790384 1_556
O5 Sr0 2.790551 1_555
