# generated using pymatgen
data_Zr4Pd
_symmetry_space_group_name_H-M   'P 1'
_cell_length_a   20.30449884
_cell_length_b   20.30449884
_cell_length_c   20.30449884
_cell_angle_alpha   161.31847111
_cell_angle_beta   161.31847111
_cell_angle_gamma   26.53941810
_symmetry_Int_Tables_number   1
_chemical_formula_structural   Zr4Pd
_chemical_formula_sum   'Zr32 Pd8'
_cell_volume   858.52376978
_cell_formula_units_Z   8
loop_
 _symmetry_equiv_pos_site_id
 _symmetry_equiv_pos_as_xyz
  1  'x, y, z'
loop_
 _atom_site_type_symbol
 _atom_site_label
 _atom_site_symmetry_multiplicity
 _atom_site_fract_x
 _atom_site_fract_y
 _atom_site_fract_z
 _atom_site_occupancy
  Zr  Zr0_0  1  0.20610450  0.20610450  0.00000000  1
  Zr  Zr0_1  1  0.20610450  0.20610450  0.50000000  1
  Zr  Zr0_2  1  0.20610450  0.70610450  0.00000000  1
  Zr  Zr0_3  1  0.20610450  0.70610450  0.50000000  1
  Zr  Zr0_4  1  0.70610450  0.20610450  0.00000000  1
  Zr  Zr0_5  1  0.70610450  0.20610450  0.50000000  1
  Zr  Zr0_6  1  0.70610450  0.70610450  0.00000000  1
  Zr  Zr0_7  1  0.70610450  0.70610450  0.50000000  1
  Zr  Zr1_0  1  0.40239650  0.40239650  0.00000000  1
  Zr  Zr1_1  1  0.40239650  0.40239650  0.50000000  1
  Zr  Zr1_2  1  0.40239650  0.90239650  0.00000000  1
  Zr  Zr1_3  1  0.40239650  0.90239650  0.50000000  1
  Zr  Zr1_4  1  0.90239650  0.40239650  0.00000000  1
  Zr  Zr1_5  1  0.90239650  0.40239650  0.50000000  1
  Zr  Zr1_6  1  0.90239650  0.90239650  0.00000000  1
  Zr  Zr1_7  1  0.90239650  0.90239650  0.50000000  1
  Zr  Zr2_0  1  0.09760350  0.09760350  0.00000000  1
  Zr  Zr2_1  1  0.09760350  0.09760350  0.50000000  1
  Zr  Zr2_2  1  0.09760350  0.59760350  0.00000000  1
  Zr  Zr2_3  1  0.09760350  0.59760350  0.50000000  1
  Zr  Zr2_4  1  0.59760350  0.09760350  0.00000000  1
  Zr  Zr2_5  1  0.59760350  0.09760350  0.50000000  1
  Zr  Zr2_6  1  0.59760350  0.59760350  0.00000000  1
  Zr  Zr2_7  1  0.59760350  0.59760350  0.50000000  1
  Zr  Zr3_0  1  0.29389550  0.29389550  0.00000000  1
  Zr  Zr3_1  1  0.29389550  0.29389550  0.50000000  1
  Zr  Zr3_2  1  0.29389550  0.79389550  0.00000000  1
  Zr  Zr3_3  1  0.29389550  0.79389550  0.50000000  1
  Zr  Zr3_4  1  0.79389550  0.29389550  0.00000000  1
  Zr  Zr3_5  1  0.79389550  0.29389550  0.50000000  1
  Zr  Zr3_6  1  0.79389550  0.79389550  0.00000000  1
  Zr  Zr3_7  1  0.79389550  0.79389550  0.50000000  1
  Pd  Pd0_0  1  0.00000000  0.00000000  0.00000000  1
  Pd  Pd0_1  1  0.00000000  0.00000000  0.50000000  1
  Pd  Pd0_2  1  0.00000000  0.50000000  0.00000000  1
  Pd  Pd0_3  1  0.00000000  0.50000000  0.50000000  1
  Pd  Pd0_4  1  0.50000000  0.00000000  0.00000000  1
  Pd  Pd0_5  1  0.50000000  0.00000000  0.50000000  1
  Pd  Pd0_6  1  0.50000000  0.50000000  0.00000000  1
  Pd  Pd0_7  1  0.50000000  0.50000000  0.50000000  1
loop_
_geom_bond_atom_site_label_1
_geom_bond_atom_site_label_2
_geom_bond_distance
_geom_bond_site_symmetry_2
Zr0_0 Zr1_2 3.152230 1_545
Zr0_0 Zr1_4 3.152230 1_455
Zr0_0 Zr1_7 3.152230 1_444
Zr0_0 Zr1_1 3.152230 1_555
Zr0_1 Zr1_0 3.152230 1_556
Zr0_1 Zr1_3 3.152230 1_545
Zr0_1 Zr1_5 3.152230 1_455
Zr0_1 Zr1_6 3.152230 1_445
Zr0_2 Zr1_3 3.152230 1_555
Zr0_2 Zr1_5 3.152230 1_454
Zr0_2 Zr1_0 3.152230 1_555
Zr0_2 Zr1_6 3.152230 1_455
Zr0_3 Zr1_2 3.152230 1_556
Zr0_3 Zr1_7 3.152230 1_455
Zr0_3 Zr1_4 3.152230 1_455
Zr0_3 Zr1_1 3.152230 1_555
Zr0_4 Zr1_3 3.152230 1_544
Zr0_4 Zr1_0 3.152230 1_555
Zr0_4 Zr1_5 3.152230 1_555
Zr0_4 Zr1_6 3.152230 1_545
Zr0_5 Zr1_4 3.152230 1_556
Zr0_5 Zr1_7 3.152230 1_545
Zr0_5 Zr1_2 3.152230 1_545
Zr0_5 Zr1_1 3.152230 1_555
Zr0_6 Zr1_2 3.152230 1_555
Zr0_6 Zr1_7 3.152230 1_555
Zr0_6 Zr1_4 3.152230 1_555
Zr0_6 Zr1_1 3.152230 1_554
Zr0_7 Zr1_3 3.152230 1_555
Zr0_7 Zr1_0 3.152230 1_555
Zr0_7 Zr1_5 3.152230 1_555
Zr0_7 Zr1_6 3.152230 1_556
Zr1_0 Zr2_4 3.181267 1_555
Zr1_0 Zr2_1 3.181267 1_554
Zr1_0 Zr2_2 3.181267 1_555
Zr1_0 Zr2_7 3.181267 1_555
Zr1_0 Zr1_3 3.295540 1_544
Zr1_0 Zr1_5 3.295540 1_555
Zr1_0 Zr1_3 3.295540 1_555
Zr1_0 Zr1_5 3.295540 1_454
Zr1_1 Zr2_0 3.181267 1_555
Zr1_1 Zr2_5 3.181267 1_555
Zr1_1 Zr2_3 3.181267 1_555
Zr1_1 Zr2_6 3.181267 1_556
Zr1_1 Zr1_4 3.295540 1_556
Zr1_1 Zr1_4 3.295540 1_455
Zr1_1 Zr1_2 3.295540 1_556
Zr1_1 Zr1_2 3.295540 1_545
Zr1_2 Zr2_0 3.181267 1_565
Zr1_2 Zr2_3 3.181267 1_554
Zr1_2 Zr2_5 3.181267 1_565
Zr1_2 Zr2_6 3.181267 1_555
Zr1_2 Zr1_7 3.295540 1_555
Zr1_2 Zr1_7 3.295540 1_454
Zr1_3 Zr2_1 3.181267 1_565
Zr1_3 Zr2_2 3.181267 1_555
Zr1_3 Zr2_4 3.181267 1_566
Zr1_3 Zr2_7 3.181267 1_555
Zr1_3 Zr1_6 3.295540 1_455
Zr1_3 Zr1_6 3.295540 1_556
Zr1_4 Zr2_0 3.181267 1_655
Zr1_4 Zr2_5 3.181267 1_554
Zr1_4 Zr2_6 3.181267 1_555
Zr1_4 Zr2_3 3.181267 1_655
Zr1_4 Zr1_7 3.295540 1_555
Zr1_4 Zr1_7 3.295540 1_544
Zr1_5 Zr2_7 3.181267 1_555
Zr1_5 Zr2_4 3.181267 1_555
Zr1_5 Zr2_1 3.181267 1_655
Zr1_5 Zr2_2 3.181267 1_656
Zr1_5 Zr1_6 3.295540 1_545
Zr1_5 Zr1_6 3.295540 1_556
Zr1_6 Zr2_7 3.181267 1_554
Zr1_6 Zr2_1 3.181267 1_665
Zr1_6 Zr2_4 3.181267 1_565
Zr1_6 Zr2_2 3.181267 1_655
Zr1_7 Zr2_5 3.181267 1_565
Zr1_7 Zr2_6 3.181267 1_555
Zr1_7 Zr2_0 3.181267 1_666
Zr1_7 Zr2_3 3.181267 1_655
Zr2_0 Zr3_1 3.152230 1_555
Zr2_0 Zr3_7 3.152230 1_444
Zr2_0 Zr3_2 3.152230 1_545
Zr2_0 Zr3_4 3.152230 1_455
Zr2_0 Zr2_5 3.295540 1_454
Zr2_0 Zr2_5 3.295540 1_555
Zr2_0 Zr2_3 3.295540 1_555
Zr2_0 Zr2_3 3.295540 1_544
Zr2_1 Zr3_6 3.152230 1_445
Zr2_1 Zr3_5 3.152230 1_455
Zr2_1 Zr3_3 3.152230 1_545
Zr2_1 Zr3_0 3.152230 1_556
Zr2_1 Zr2_2 3.295540 1_556
Zr2_1 Zr2_4 3.295540 1_455
Zr2_1 Zr2_2 3.295540 1_545
Zr2_1 Zr2_4 3.295540 1_556
Zr2_2 Zr3_5 3.152230 1_454
Zr2_2 Zr3_0 3.152230 1_555
Zr2_2 Zr3_6 3.152230 1_455
Zr2_2 Zr3_3 3.152230 1_555
Zr2_2 Zr2_7 3.295540 1_555
Zr2_2 Zr2_7 3.295540 1_454
Zr2_3 Zr3_4 3.152230 1_455
Zr2_3 Zr3_1 3.152230 1_555
Zr2_3 Zr3_7 3.152230 1_455
Zr2_3 Zr3_2 3.152230 1_556
Zr2_3 Zr2_6 3.295540 1_455
Zr2_3 Zr2_6 3.295540 1_556
Zr2_4 Zr3_0 3.152230 1_555
Zr2_4 Zr3_5 3.152230 1_555
Zr2_4 Zr3_6 3.152230 1_545
Zr2_4 Zr3_3 3.152230 1_544
Zr2_4 Zr2_7 3.295540 1_544
Zr2_4 Zr2_7 3.295540 1_555
Zr2_5 Zr3_4 3.152230 1_556
Zr2_5 Zr3_1 3.152230 1_555
Zr2_5 Zr3_7 3.152230 1_545
Zr2_5 Zr3_2 3.152230 1_545
Zr2_5 Zr2_6 3.295540 1_556
Zr2_5 Zr2_6 3.295540 1_545
Zr2_6 Zr3_2 3.152230 1_555
Zr2_6 Zr3_1 3.152230 1_554
Zr2_6 Zr3_7 3.152230 1_555
Zr2_6 Zr3_4 3.152230 1_555
Zr2_7 Zr3_3 3.152230 1_555
Zr2_7 Zr3_6 3.152230 1_556
Zr2_7 Zr3_0 3.152230 1_555
Zr2_7 Zr3_5 3.152230 1_555
Pd0_0 Zr3_4 2.905232 1_455
Pd0_0 Zr0_4 2.905232 1_455
Pd0_0 Zr3_1 2.905232 1_555
Pd0_0 Zr3_7 2.905232 1_444
Pd0_0 Zr0_7 2.905232 1_444
Pd0_0 Zr3_2 2.905232 1_545
Pd0_0 Zr0_2 2.905232 1_545
Pd0_0 Zr0_1 2.905232 1_555
Pd0_1 Zr3_0 2.905232 1_556
Pd0_1 Zr0_6 2.905232 1_445
Pd0_1 Zr3_6 2.905232 1_445
Pd0_1 Zr0_5 2.905232 1_455
Pd0_1 Zr0_3 2.905232 1_545
Pd0_1 Zr3_3 2.905232 1_545
Pd0_1 Zr3_5 2.905232 1_455
Pd0_1 Zr0_0 2.905232 1_556
Pd0_2 Zr3_3 2.905232 1_555
Pd0_2 Zr0_3 2.905232 1_555
Pd0_2 Zr3_5 2.905232 1_454
Pd0_2 Zr0_5 2.905232 1_454
Pd0_2 Zr0_6 2.905232 1_455
Pd0_2 Zr3_6 2.905232 1_455
Pd0_2 Zr3_0 2.905232 1_555
Pd0_2 Zr0_0 2.905232 1_555
Pd0_3 Zr0_2 2.905232 1_556
Pd0_3 Zr3_4 2.905232 1_455
Pd0_3 Zr0_4 2.905232 1_455
Pd0_3 Zr3_2 2.905232 1_556
Pd0_3 Zr3_1 2.905232 1_555
Pd0_3 Zr3_7 2.905232 1_455
Pd0_3 Zr0_7 2.905232 1_455
Pd0_3 Zr0_1 2.905232 1_555
Pd0_4 Zr0_5 2.905232 1_555
Pd0_4 Zr3_3 2.905232 1_544
Pd0_4 Zr0_6 2.905232 1_545
Pd0_4 Zr3_5 2.905232 1_555
Pd0_4 Zr0_3 2.905232 1_544
Pd0_4 Zr3_0 2.905232 1_555
Pd0_4 Zr0_0 2.905232 1_555
Pd0_4 Zr3_6 2.905232 1_545
Pd0_5 Zr3_4 2.905232 1_556
Pd0_5 Zr0_2 2.905232 1_545
Pd0_5 Zr3_2 2.905232 1_545
Pd0_5 Zr0_4 2.905232 1_556
Pd0_5 Zr3_7 2.905232 1_545
Pd0_5 Zr3_1 2.905232 1_555
Pd0_5 Zr0_7 2.905232 1_545
Pd0_5 Zr0_1 2.905232 1_555
Pd0_6 Zr3_1 2.905232 1_554
Pd0_6 Zr3_7 2.905232 1_555
Pd0_6 Zr3_4 2.905232 1_555
Pd0_6 Zr0_1 2.905232 1_554
Pd0_6 Zr0_7 2.905232 1_555
Pd0_6 Zr0_4 2.905232 1_555
Pd0_6 Zr0_2 2.905232 1_555
Pd0_6 Zr3_2 2.905232 1_555
Pd0_7 Zr0_6 2.905232 1_556
Pd0_7 Zr3_6 2.905232 1_556
Pd0_7 Zr0_0 2.905232 1_555
Pd0_7 Zr3_0 2.905232 1_555
Pd0_7 Zr3_5 2.905232 1_555
Pd0_7 Zr3_3 2.905232 1_555
Pd0_7 Zr0_5 2.905232 1_555
Pd0_7 Zr0_3 2.905232 1_555
