# generated using pymatgen
data_ErGe2Os
_symmetry_space_group_name_H-M   'P 1'
_cell_length_a   8.36353200
_cell_length_b   9.66479900
_cell_length_c   10.59851300
_cell_angle_alpha   90.00000000
_cell_angle_beta   90.00000000
_cell_angle_gamma   90.00000000
_symmetry_Int_Tables_number   1
_chemical_formula_structural   ErGe2Os
_chemical_formula_sum   'Er12 Ge24 Os12'
_cell_volume   856.69747356
_cell_formula_units_Z   12
loop_
 _symmetry_equiv_pos_site_id
 _symmetry_equiv_pos_as_xyz
  1  'x, y, z'
loop_
 _atom_site_type_symbol
 _atom_site_label
 _atom_site_symmetry_multiplicity
 _atom_site_fract_x
 _atom_site_fract_y
 _atom_site_fract_z
 _atom_site_occupancy
  Er  Er0  1  0.24506700  0.82323500  0.44928400  1
  Er  Er1  1  0.24506700  0.17676500  0.55071600  1
  Er  Er2  1  0.75493300  0.32323500  0.05071600  1
  Er  Er3  1  0.75493300  0.67676500  0.94928400  1
  Er  Er4  1  0.75493300  0.17676500  0.55071600  1
  Er  Er5  1  0.75493300  0.82323500  0.44928400  1
  Er  Er6  1  0.24506700  0.67676500  0.94928400  1
  Er  Er7  1  0.24506700  0.32323500  0.05071600  1
  Er  Er8  1  0.00000000  0.83577200  0.17683000  1
  Er  Er9  1  0.00000000  0.16422800  0.82317000  1
  Er  Er10  1  0.00000000  0.33577200  0.32317000  1
  Er  Er11  1  0.00000000  0.66422800  0.67683000  1
  Ge  Ge0  1  0.34846200  0.84190300  0.17942800  1
  Ge  Ge1  1  0.34846200  0.15809700  0.82057200  1
  Ge  Ge2  1  0.65153800  0.34190300  0.32057200  1
  Ge  Ge3  1  0.65153800  0.65809700  0.67942800  1
  Ge  Ge4  1  0.65153800  0.15809700  0.82057200  1
  Ge  Ge5  1  0.65153800  0.84190300  0.17942800  1
  Ge  Ge6  1  0.34846200  0.65809700  0.67942800  1
  Ge  Ge7  1  0.34846200  0.34190300  0.32057200  1
  Ge  Ge8  1  0.50000000  0.54541700  0.11824900  1
  Ge  Ge9  1  0.50000000  0.45458300  0.88175100  1
  Ge  Ge10  1  0.50000000  0.04541700  0.38175100  1
  Ge  Ge11  1  0.50000000  0.95458300  0.61824900  1
  Ge  Ge12  1  0.00000000  0.53683900  0.11898800  1
  Ge  Ge13  1  0.00000000  0.46316100  0.88101200  1
  Ge  Ge14  1  0.00000000  0.03683900  0.38101200  1
  Ge  Ge15  1  0.00000000  0.96316100  0.61898800  1
  Ge  Ge16  1  0.50000000  0.62739900  0.40319300  1
  Ge  Ge17  1  0.50000000  0.37260100  0.59680700  1
  Ge  Ge18  1  0.50000000  0.12739900  0.09680700  1
  Ge  Ge19  1  0.50000000  0.87260100  0.90319300  1
  Ge  Ge20  1  0.00000000  0.62961800  0.39892100  1
  Ge  Ge21  1  0.00000000  0.37038200  0.60107900  1
  Ge  Ge22  1  0.00000000  0.12961800  0.10107900  1
  Ge  Ge23  1  0.00000000  0.87038200  0.89892100  1
  Os  Os0  1  0.25080400  0.58869600  0.23816200  1
  Os  Os1  1  0.25080400  0.41130400  0.76183800  1
  Os  Os2  1  0.74919600  0.08869600  0.26183800  1
  Os  Os3  1  0.74919600  0.91130400  0.73816200  1
  Os  Os4  1  0.74919600  0.41130400  0.76183800  1
  Os  Os5  1  0.74919600  0.58869600  0.23816200  1
  Os  Os6  1  0.25080400  0.91130400  0.73816200  1
  Os  Os7  1  0.25080400  0.08869600  0.26183800  1
  Os  Os8  1  0.24930500  0.50000000  0.50000000  1
  Os  Os9  1  0.75069500  0.00000000  0.00000000  1
  Os  Os10  1  0.75069500  0.50000000  0.50000000  1
  Os  Os11  1  0.24930500  0.00000000  0.00000000  1
loop_
_geom_bond_atom_site_label_1
_geom_bond_atom_site_label_2
_geom_bond_distance
_geom_bond_site_symmetry_2
Er0 Ge20 2.826222 1_555
Er0 Ge16 2.892581 1_555
Er0 Ge0 2.993385 1_555
Er0 Ge14 2.997740 1_565
Er0 Ge6 3.040511 1_555
Er0 Ge15 3.043819 1_555
Er0 Ge11 3.060133 1_555
Er0 Ge10 3.109567 1_565
Er0 Os8 3.170104 1_555
Er0 Os6 3.178153 1_555
Er0 Os0 3.185486 1_555
Er0 Os7 3.245230 1_565
Er1 Ge21 2.826222 1_555
Er1 Ge17 2.892581 1_555
Er1 Ge1 2.993385 1_555
Er1 Ge15 2.997740 1_545
Er1 Ge7 3.040511 1_555
Er1 Ge14 3.043819 1_555
Er1 Ge10 3.060133 1_555
Er1 Ge11 3.109567 1_545
Er1 Os8 3.170104 1_555
Er1 Os7 3.178153 1_555
Er1 Os1 3.185486 1_555
Er1 Os6 3.245230 1_545
Er2 Ge22 2.826222 1_655
Er2 Ge18 2.892581 1_555
Er2 Ge2 2.993385 1_555
Er2 Ge12 2.997740 1_655
Er2 Ge4 3.040511 1_554
Er2 Ge13 3.043819 1_654
Er2 Ge9 3.060133 1_554
Er2 Ge8 3.109567 1_555
Er2 Os9 3.170104 1_555
Er2 Os4 3.178153 1_554
Er2 Os2 3.185486 1_555
Er2 Os5 3.245230 1_555
Er3 Ge23 2.826222 1_655
Er3 Ge19 2.892581 1_555
Er3 Ge3 2.993385 1_555
Er3 Ge13 2.997740 1_655
Er3 Ge5 3.040511 1_556
Er3 Ge12 3.043819 1_656
Er3 Ge8 3.060133 1_556
Er3 Ge9 3.109567 1_555
Er3 Os9 3.170104 1_566
Er3 Os5 3.178153 1_556
Er3 Os3 3.185486 1_555
Er3 Os4 3.245230 1_555
Er4 Ge21 2.826222 1_655
Er4 Ge17 2.892581 1_555
Er4 Ge4 2.993385 1_555
Er4 Ge15 2.997740 1_645
Er4 Ge2 3.040511 1_555
Er4 Ge14 3.043819 1_655
Er4 Ge10 3.060133 1_555
Er4 Ge11 3.109567 1_545
Er4 Os10 3.170104 1_555
Er4 Os2 3.178153 1_555
Er4 Os4 3.185486 1_555
Er4 Os3 3.245230 1_545
Er5 Ge20 2.826222 1_655
Er5 Ge16 2.892581 1_555
Er5 Ge5 2.993385 1_555
Er5 Ge14 2.997740 1_665
Er5 Ge3 3.040511 1_555
Er5 Ge15 3.043819 1_655
Er5 Ge11 3.060133 1_555
Er5 Ge10 3.109567 1_565
Er5 Os10 3.170104 1_555
Er5 Os3 3.178153 1_555
Er5 Os5 3.185486 1_555
Er5 Os2 3.245230 1_565
Er6 Ge23 2.826222 1_555
Er6 Ge19 2.892581 1_555
Er6 Ge6 2.993385 1_555
Er6 Ge13 2.997740 1_555
Er6 Ge0 3.040511 1_556
Er6 Ge12 3.043819 1_556
Er6 Ge8 3.060133 1_556
Er6 Ge9 3.109567 1_555
Er6 Os11 3.170104 1_566
Er6 Os0 3.178153 1_556
Er6 Os6 3.185486 1_555
Er6 Os1 3.245230 1_555
Er7 Ge22 2.826222 1_555
Er7 Ge18 2.892581 1_555
Er7 Ge7 2.993385 1_555
Er7 Ge12 2.997740 1_555
Er7 Ge1 3.040511 1_554
Er7 Ge13 3.043819 1_554
Er7 Ge9 3.060133 1_554
Er7 Ge8 3.109567 1_555
Er7 Os11 3.170104 1_555
Er7 Os1 3.178153 1_554
Er7 Os7 3.185486 1_555
Er7 Os0 3.245230 1_555
Er8 Ge14 2.908490 1_565
Er8 Ge0 2.915105 1_555
Er8 Ge5 2.915105 1_455
Er8 Ge22 2.951263 1_565
Er8 Ge12 2.953451 1_555
Er8 Ge23 2.964355 1_554
Er8 Ge20 3.083884 1_555
Er8 Os11 3.221677 1_565
Er8 Os9 3.221677 1_465
Er8 Os0 3.244187 1_555
Er8 Os5 3.244187 1_455
Er8 Os7 3.344707 1_565
Er8 Os2 3.344707 1_465
Er9 Ge15 2.908490 1_545
Er9 Ge1 2.915105 1_555
Er9 Ge4 2.915105 1_455
Er9 Ge23 2.951263 1_545
Er9 Ge13 2.953451 1_555
Er9 Ge22 2.964355 1_556
Er9 Ge21 3.083884 1_555
Er9 Os11 3.221677 1_556
Er9 Os9 3.221677 1_456
Er9 Os1 3.244187 1_555
Er9 Os4 3.244187 1_455
Er9 Os6 3.344707 1_545
Er9 Os3 3.344707 1_445
Er10 Ge12 2.908490 1_555
Er10 Ge7 2.915105 1_555
Er10 Ge2 2.915105 1_455
Er10 Ge20 2.951263 1_555
Er10 Ge14 2.953451 1_555
Er10 Ge21 2.964355 1_555
Er10 Ge22 3.083884 1_555
Er10 Os10 3.221677 1_455
Er10 Os8 3.221677 1_555
Er10 Os7 3.244187 1_555
Er10 Os2 3.244187 1_455
Er10 Os0 3.344707 1_555
Er10 Os5 3.344707 1_455
Er11 Ge13 2.908490 1_555
Er11 Ge6 2.915105 1_555
Er11 Ge3 2.915105 1_455
Er11 Ge21 2.951263 1_555
Er11 Ge15 2.953451 1_555
Er11 Ge20 2.964355 1_555
Er11 Ge23 3.083884 1_555
Er11 Os8 3.221677 1_555
Er11 Os10 3.221677 1_455
Er11 Os6 3.244187 1_555
Er11 Os3 3.244187 1_455
Er11 Os1 3.344707 1_555
Er11 Os4 3.344707 1_455
Ge0 Ge5 2.534786 1_555
Ge0 Os11 2.576587 1_565
Ge0 Os0 2.653934 1_555
Ge0 Os7 2.668179 1_565
Ge1 Ge4 2.534786 1_555
Ge1 Os11 2.576587 1_556
Ge1 Os1 2.653934 1_555
Ge1 Os6 2.668179 1_545
Ge2 Ge7 2.534786 1_555
Ge2 Os10 2.576587 1_555
Ge2 Os2 2.653934 1_555
Ge2 Os5 2.668179 1_555
Ge3 Ge6 2.534786 1_555
Ge3 Os10 2.576587 1_555
Ge3 Os3 2.653934 1_555
Ge3 Os4 2.668179 1_555
Ge4 Os9 2.576587 1_556
Ge4 Os4 2.653934 1_555
Ge4 Os3 2.668179 1_545
Ge5 Os9 2.576587 1_565
Ge5 Os5 2.653934 1_555
Ge5 Os2 2.668179 1_565
Ge6 Os8 2.576587 1_555
Ge6 Os6 2.653934 1_555
Ge6 Os1 2.668179 1_555
Ge7 Os8 2.576587 1_555
Ge7 Os7 2.653934 1_555
Ge7 Os0 2.668179 1_555
Ge8 Os5 2.476664 1_555
Ge8 Os0 2.476664 1_555
Ge8 Ge9 2.655819 1_554
Ge9 Os4 2.476664 1_555
Ge9 Os1 2.476664 1_555
Ge10 Os2 2.476664 1_555
Ge10 Os7 2.476664 1_555
Ge10 Ge11 2.655819 1_545
Ge11 Os3 2.476664 1_555
Ge11 Os6 2.476664 1_555
Ge12 Os0 2.499297 1_555
Ge12 Os5 2.499297 1_455
Ge12 Ge13 2.620785 1_554
Ge13 Os1 2.499297 1_555
Ge13 Os4 2.499297 1_455
Ge14 Os7 2.499297 1_555
Ge14 Os2 2.499297 1_455
Ge14 Ge15 2.620785 1_545
Ge15 Os6 2.499297 1_555
Ge15 Os3 2.499297 1_455
Ge16 Os8 2.639109 1_555
Ge16 Os10 2.639109 1_555
Ge16 Os5 2.746439 1_555
Ge16 Os0 2.746439 1_555
Ge17 Os10 2.639109 1_555
Ge17 Os8 2.639109 1_555
Ge17 Os4 2.746439 1_555
Ge17 Os1 2.746439 1_555
Ge18 Os11 2.639109 1_555
Ge18 Os9 2.639109 1_555
Ge18 Os2 2.746439 1_555
Ge18 Os7 2.746439 1_555
Ge19 Os11 2.639109 1_566
Ge19 Os9 2.639109 1_566
Ge19 Os3 2.746439 1_555
Ge19 Os6 2.746439 1_555
Ge20 Os8 2.657915 1_555
Ge20 Os10 2.657915 1_455
Ge20 Os0 2.731178 1_555
Ge20 Os5 2.731178 1_455
Ge21 Os10 2.657915 1_455
Ge21 Os8 2.657915 1_555
Ge21 Os1 2.731178 1_555
Ge21 Os4 2.731178 1_455
Ge22 Os9 2.657915 1_455
Ge22 Os11 2.657915 1_555
Ge22 Os7 2.731178 1_555
Ge22 Os2 2.731178 1_455
Ge23 Os11 2.657915 1_566
Ge23 Os9 2.657915 1_466
Ge23 Os6 2.731178 1_555
Ge23 Os3 2.731178 1_455
Os0 Os8 2.904504 1_555
Os1 Os8 2.904504 1_555
Os2 Os9 2.904504 1_555
Os3 Os9 2.904504 1_566
Os10 Os4 2.904504 1_555
Os10 Os5 2.904504 1_555
Os11 Os6 2.904504 1_544
Os11 Os7 2.904504 1_555
