# generated using pymatgen
data_MgBiWO5
_symmetry_space_group_name_H-M   'P 1'
_cell_length_a   11.88723200
_cell_length_b   5.43302700
_cell_length_c   8.46890938
_cell_angle_alpha   66.29862790
_cell_angle_beta   90.00000000
_cell_angle_gamma   90.00000000
_symmetry_Int_Tables_number   1
_chemical_formula_structural   MgBiWO5
_chemical_formula_sum   'Mg4 Bi4 W4 O20'
_cell_volume   500.81922848
_cell_formula_units_Z   4
loop_
 _symmetry_equiv_pos_site_id
 _symmetry_equiv_pos_as_xyz
  1  'x, y, z'
loop_
 _atom_site_type_symbol
 _atom_site_label
 _atom_site_symmetry_multiplicity
 _atom_site_fract_x
 _atom_site_fract_y
 _atom_site_fract_z
 _atom_site_occupancy
  Mg  Mg0  1  0.07979100  0.56485300  0.82670100  1
  Mg  Mg1  1  0.92020900  0.43514700  0.17329900  1
  Mg  Mg2  1  0.57979100  0.43514700  0.67329900  1
  Mg  Mg3  1  0.42020900  0.56485300  0.32670100  1
  Bi  Bi0  1  0.89700400  0.05531900  0.84567200  1
  Bi  Bi1  1  0.10299600  0.94468100  0.15432800  1
  Bi  Bi2  1  0.60299600  0.05531900  0.34567200  1
  Bi  Bi3  1  0.39700400  0.94468100  0.65432800  1
  W  W0  1  0.36192500  0.21078600  0.02365600  1
  W  W1  1  0.63807500  0.78921400  0.97634400  1
  W  W2  1  0.86192500  0.78921400  0.47634400  1
  W  W3  1  0.13807500  0.21078600  0.52365600  1
  O  O0  1  0.93437100  0.77657200  0.67557800  1
  O  O1  1  0.07213900  0.34680800  0.66810300  1
  O  O2  1  0.81317500  0.14414500  0.33828700  1
  O  O3  1  0.47112400  0.75761400  0.48653400  1
  O  O4  1  0.70418800  0.69644600  0.52195800  1
  O  O5  1  0.79581200  0.69644600  0.02195800  1
  O  O6  1  0.42786100  0.34680800  0.16810300  1
  O  O7  1  0.57213900  0.65319200  0.83189700  1
  O  O8  1  0.52887600  0.24238600  0.51346600  1
  O  O9  1  0.43437100  0.22342800  0.82442200  1
  O  O10  1  0.29581200  0.30355400  0.47804200  1
  O  O11  1  0.06562900  0.22342800  0.32442200  1
  O  O12  1  0.56562900  0.77657200  0.17557800  1
  O  O13  1  0.20418800  0.30355400  0.97804200  1
  O  O14  1  0.97112400  0.24238600  0.01346600  1
  O  O15  1  0.02887600  0.75761400  0.98653400  1
  O  O16  1  0.18682500  0.85585500  0.66171300  1
  O  O17  1  0.92786100  0.65319200  0.33189700  1
  O  O18  1  0.31317500  0.85585500  0.16171300  1
  O  O19  1  0.68682500  0.14414500  0.83828700  1
loop_
_geom_bond_atom_site_label_1
_geom_bond_atom_site_label_2
_geom_bond_distance
_geom_bond_site_symmetry_2
Mg0 O16 2.072400 1_555
Mg0 O13 2.093318 1_555
Mg0 O15 2.105951 1_555
Mg0 O1 2.120120 1_555
Mg0 O0 2.183072 1_455
Mg0 O14 2.238749 1_456
Mg1 O2 2.072400 1_555
Mg1 O5 2.093318 1_555
Mg1 O14 2.105951 1_555
Mg1 O17 2.120120 1_555
Mg1 O11 2.183072 1_655
Mg1 O15 2.238749 1_654
Mg2 O19 2.072400 1_555
Mg2 O4 2.093318 1_555
Mg2 O8 2.105951 1_555
Mg2 O7 2.120120 1_555
Mg2 O9 2.183072 1_555
Mg2 O3 2.238749 1_555
Mg3 O18 2.072400 1_555
Mg3 O10 2.093318 1_555
Mg3 O3 2.105951 1_555
Mg3 O6 2.120120 1_555
Mg3 O12 2.183072 1_555
Mg3 O8 2.238749 1_555
Bi0 O15 2.223818 1_645
Bi0 O14 2.233758 1_556
Bi0 O5 2.266550 1_546
Bi0 O0 2.513912 1_545
Bi0 O19 2.540626 1_555
Bi0 O1 2.681237 1_655
Bi1 O14 2.223818 1_465
Bi1 O15 2.233758 1_554
Bi1 O13 2.266550 1_564
Bi1 O11 2.513912 1_565
Bi1 O18 2.540626 1_555
Bi1 O17 2.681237 1_455
Bi2 O3 2.223818 1_545
Bi2 O8 2.233758 1_555
Bi2 O4 2.266550 1_545
Bi2 O12 2.513912 1_545
Bi2 O2 2.540626 1_555
Bi2 O6 2.681237 1_555
Bi3 O8 2.223818 1_565
Bi3 O3 2.233758 1_555
Bi3 O10 2.266550 1_565
Bi3 O9 2.513912 1_565
Bi3 O16 2.540626 1_555
Bi3 O7 2.681237 1_555
O0 W2 1.870868 1_555
O1 W3 1.839497 1_555
O2 W2 1.899683 1_545
O4 W2 1.939733 1_555
O5 W1 1.939733 1_554
O6 W0 1.839497 1_555
O7 W1 1.839497 1_555
O9 W0 1.870868 1_556
O10 W3 1.939733 1_555
O11 W3 1.870868 1_555
O12 W1 1.870868 1_554
O13 W0 1.939733 1_556
O16 W3 1.899683 1_565
O17 W2 1.839497 1_555
O18 W0 1.899683 1_565
O19 W1 1.899683 1_545
