# generated using pymatgen
data_Os3W
_symmetry_space_group_name_H-M   'P 1'
_cell_length_a   5.52852866
_cell_length_b   5.52853056
_cell_length_c   4.39709007
_cell_angle_alpha   89.99985928
_cell_angle_beta   90.00008343
_cell_angle_gamma   120.00023438
_symmetry_Int_Tables_number   1
_chemical_formula_structural   Os3W
_chemical_formula_sum   'Os6 W2'
_cell_volume   116.38961924
_cell_formula_units_Z   2
loop_
 _symmetry_equiv_pos_site_id
 _symmetry_equiv_pos_as_xyz
  1  'x, y, z'
loop_
 _atom_site_type_symbol
 _atom_site_label
 _atom_site_symmetry_multiplicity
 _atom_site_fract_x
 _atom_site_fract_y
 _atom_site_fract_z
 _atom_site_occupancy
  Os  Os0  1  0.16638002  0.33274839  0.24998290  1
  Os  Os1  1  0.66725161  0.83362198  0.24998290  1
  Os  Os2  1  0.16637623  0.83362677  0.25003389  1
  Os  Os3  1  0.83361847  0.66725361  0.75001608  1
  Os  Os4  1  0.33274739  0.16638253  0.75001608  1
  Os  Os5  1  0.83362798  0.16637202  0.74996507  1
  W  W0  1  0.33333343  0.66666957  0.75000916  1
  W  W1  1  0.66666588  0.33332912  0.24998992  1
loop_
_geom_bond_atom_site_label_1
_geom_bond_atom_site_label_2
_geom_bond_distance
_geom_bond_site_symmetry_2
Os0 Os4 2.714935 1_554
Os0 Os5 2.715036 1_455
Os0 Os5 2.715163 1_454
Os0 Os4 2.715165 1_555
Os0 W0 2.718292 1_554
Os0 W0 2.718484 1_555
Os0 Os2 2.759399 1_545
Os0 Os1 2.759431 1_445
Os0 W1 2.764241 1_555
Os0 W1 2.764291 1_455
Os0 Os1 2.769079 1_555
Os0 Os2 2.769132 1_555
Os1 Os3 2.714940 1_554
Os1 Os5 2.715033 1_565
Os1 Os5 2.715155 1_564
Os1 Os3 2.715171 1_555
Os1 W0 2.718286 1_554
Os1 W0 2.718473 1_555
Os1 Os2 2.759412 1_655
Os1 W1 2.764267 1_555
Os1 W1 2.764267 1_565
Os1 Os2 2.769117 1_555
Os2 Os4 2.715049 1_565
Os2 Os3 2.715052 1_455
Os2 Os4 2.715171 1_564
Os2 Os3 2.715179 1_454
Os2 W0 2.718281 1_555
Os2 W0 2.718463 1_554
Os2 W1 2.764234 1_565
Os2 W1 2.764279 1_455
Os3 W1 2.718302 1_556
Os3 W1 2.718493 1_555
Os3 Os5 2.759365 1_565
Os3 Os4 2.759439 1_665
Os3 W0 2.764227 1_555
Os3 W0 2.764304 1_655
Os3 Os4 2.769071 1_555
Os3 Os5 2.769165 1_555
Os4 W1 2.718287 1_556
Os4 W1 2.718474 1_555
Os4 Os5 2.759367 1_455
Os4 W0 2.764234 1_555
Os4 W0 2.764300 1_545
Os4 Os5 2.769162 1_555
Os5 W1 2.718294 1_555
Os5 W1 2.718477 1_556
Os5 W0 2.764248 1_545
Os5 W0 2.764265 1_655
