# generated using pymatgen
data_TiNF5
_symmetry_space_group_name_H-M   'P 1'
_cell_length_a   7.45917500
_cell_length_b   14.86404900
_cell_length_c   20.18353708
_cell_angle_alpha   70.27988618
_cell_angle_beta   90.00000000
_cell_angle_gamma   90.00000000
_symmetry_Int_Tables_number   1
_chemical_formula_structural   TiNF5
_chemical_formula_sum   'Ti16 N16 F80'
_cell_volume   2106.57691056
_cell_formula_units_Z   16
loop_
 _symmetry_equiv_pos_site_id
 _symmetry_equiv_pos_as_xyz
  1  'x, y, z'
loop_
 _atom_site_type_symbol
 _atom_site_label
 _atom_site_symmetry_multiplicity
 _atom_site_fract_x
 _atom_site_fract_y
 _atom_site_fract_z
 _atom_site_occupancy
  Ti  Ti0  1  0.77587200  0.35830900  0.29015700  1
  Ti  Ti1  1  0.72412800  0.35830900  0.79015700  1
  Ti  Ti2  1  0.22412800  0.64169100  0.70984300  1
  Ti  Ti3  1  0.27587200  0.64169100  0.20984300  1
  Ti  Ti4  1  0.68815900  0.14718000  0.46263500  1
  Ti  Ti5  1  0.81184100  0.14718000  0.96263500  1
  Ti  Ti6  1  0.31184100  0.85282000  0.53736500  1
  Ti  Ti7  1  0.18815900  0.85282000  0.03736500  1
  Ti  Ti8  1  0.70287600  0.35914300  0.53700600  1
  Ti  Ti9  1  0.79712400  0.35914300  0.03700600  1
  Ti  Ti10  1  0.29712400  0.64085700  0.46299400  1
  Ti  Ti11  1  0.20287600  0.64085700  0.96299400  1
  Ti  Ti12  1  0.76638200  0.14544100  0.71306600  1
  Ti  Ti13  1  0.73361800  0.14544100  0.21306600  1
  Ti  Ti14  1  0.23361800  0.85455900  0.28693400  1
  Ti  Ti15  1  0.26638200  0.85455900  0.78693400  1
  N  N0  1  0.21035400  0.13376800  0.57162300  1
  N  N1  1  0.28964600  0.13376800  0.07162300  1
  N  N2  1  0.78964600  0.86623200  0.42837700  1
  N  N3  1  0.71035400  0.86623200  0.92837700  1
  N  N4  1  0.32557700  0.16218600  0.83266300  1
  N  N5  1  0.17442300  0.16218600  0.33266300  1
  N  N6  1  0.67442300  0.83781400  0.16733700  1
  N  N7  1  0.82557700  0.83781400  0.66733700  1
  N  N8  1  0.17909100  0.33235400  0.66816200  1
  N  N9  1  0.32090900  0.33235400  0.16816200  1
  N  N10  1  0.82090900  0.66764600  0.33183800  1
  N  N11  1  0.67909100  0.66764600  0.83183800  1
  N  N12  1  0.21266200  0.35687400  0.43507800  1
  N  N13  1  0.28733800  0.35687400  0.93507800  1
  N  N14  1  0.78733800  0.64312600  0.56492200  1
  N  N15  1  0.71266200  0.64312600  0.06492200  1
  F  F0  1  0.84325300  0.41424100  0.20114700  1
  F  F1  1  0.65674700  0.41424100  0.70114700  1
  F  F2  1  0.15674700  0.58575900  0.79885300  1
  F  F3  1  0.34325300  0.58575900  0.29885300  1
  F  F4  1  0.91781400  0.42890100  0.32323900  1
  F  F5  1  0.58218600  0.42890100  0.82323900  1
  F  F6  1  0.08218600  0.57109900  0.67676100  1
  F  F7  1  0.41781400  0.57109900  0.17676100  1
  F  F8  1  0.15425100  0.25816400  0.31213600  1
  F  F9  1  0.34574900  0.25816400  0.81213600  1
  F  F10  1  0.84574900  0.74183600  0.68786400  1
  F  F11  1  0.65425100  0.74183600  0.18786400  1
  F  F12  1  0.55223100  0.39125800  0.29628300  1
  F  F13  1  0.94776900  0.39125800  0.79628300  1
  F  F14  1  0.44776900  0.60874200  0.70371700  1
  F  F15  1  0.05223100  0.60874200  0.20371700  1
  F  F16  1  0.74152300  0.24218200  0.26185000  1
  F  F17  1  0.75847700  0.24218200  0.76185000  1
  F  F18  1  0.25847700  0.75781800  0.73815000  1
  F  F19  1  0.24152300  0.75781800  0.23815000  1
  F  F20  1  0.79604800  0.25689100  0.38352000  1
  F  F21  1  0.70395200  0.25689100  0.88352000  1
  F  F22  1  0.20395200  0.74310900  0.61648000  1
  F  F23  1  0.29604800  0.74310900  0.11648000  1
  F  F24  1  0.81612800  0.07297500  0.42822800  1
  F  F25  1  0.68387200  0.07297500  0.92822800  1
  F  F26  1  0.18387200  0.92702500  0.57177200  1
  F  F27  1  0.31612800  0.92702500  0.07177200  1
  F  F28  1  0.47077700  0.16677400  0.42689700  1
  F  F29  1  0.02922300  0.16677400  0.92689700  1
  F  F30  1  0.52922300  0.83322600  0.57310300  1
  F  F31  1  0.97077700  0.83322600  0.07310300  1
  F  F32  1  0.09700100  0.12918800  0.52102000  1
  F  F33  1  0.40299900  0.12918800  0.02102000  1
  F  F34  1  0.90299900  0.87081200  0.47898000  1
  F  F35  1  0.59700100  0.87081200  0.97898000  1
  F  F36  1  0.64981100  0.05853500  0.54588900  1
  F  F37  1  0.85018900  0.05853500  0.04588900  1
  F  F38  1  0.35018900  0.94146500  0.45411100  1
  F  F39  1  0.14981100  0.94146500  0.95411100  1
  F  F40  1  0.72762600  0.23985700  0.51196700  1
  F  F41  1  0.77237400  0.23985700  0.01196700  1
  F  F42  1  0.27237400  0.76014300  0.48803300  1
  F  F43  1  0.22762600  0.76014300  0.98803300  1
  F  F44  1  0.69193400  0.42110300  0.44504200  1
  F  F45  1  0.80806600  0.42110300  0.94504200  1
  F  F46  1  0.30806600  0.57889700  0.55495800  1
  F  F47  1  0.19193400  0.57889700  0.05495800  1
  F  F48  1  0.83681800  0.44439200  0.55707800  1
  F  F49  1  0.66318200  0.44439200  0.05707800  1
  F  F50  1  0.16318200  0.55560800  0.44292200  1
  F  F51  1  0.33681800  0.55560800  0.94292200  1
  F  F52  1  0.09716400  0.34247700  0.48907500  1
  F  F53  1  0.40283600  0.34247700  0.98907500  1
  F  F54  1  0.90283600  0.65752300  0.51092500  1
  F  F55  1  0.59716400  0.65752300  0.01092500  1
  F  F56  1  0.47882500  0.36609200  0.56201400  1
  F  F57  1  0.02117500  0.36609200  0.06201400  1
  F  F58  1  0.52117500  0.63390800  0.43798600  1
  F  F59  1  0.97882500  0.63390800  0.93798600  1
  F  F60  1  0.78220300  0.26442100  0.62927000  1
  F  F61  1  0.71779700  0.26442100  0.12927000  1
  F  F62  1  0.21779700  0.73557900  0.37073000  1
  F  F63  1  0.28220300  0.73557900  0.87073000  1
  F  F64  1  0.15409300  0.23666800  0.68939300  1
  F  F65  1  0.34590700  0.23666800  0.18939300  1
  F  F66  1  0.84590700  0.76333200  0.31060700  1
  F  F67  1  0.65409300  0.76333200  0.81060700  1
  F  F68  1  0.53615600  0.12159000  0.71159200  1
  F  F69  1  0.96384400  0.12159000  0.21159200  1
  F  F70  1  0.46384400  0.87841000  0.28840800  1
  F  F71  1  0.03615600  0.87841000  0.78840800  1
  F  F72  1  0.87384800  0.08715300  0.66021400  1
  F  F73  1  0.62615200  0.08715300  0.16021400  1
  F  F74  1  0.12615200  0.91284700  0.33978600  1
  F  F75  1  0.37384800  0.91284700  0.83978600  1
  F  F76  1  0.85742000  0.06764100  0.79302500  1
  F  F77  1  0.64258000  0.06764100  0.29302500  1
  F  F78  1  0.14258000  0.93235900  0.20697500  1
  F  F79  1  0.35742000  0.93235900  0.70697500  1
loop_
_geom_bond_atom_site_label_1
_geom_bond_atom_site_label_2
_geom_bond_distance
_geom_bond_site_symmetry_2
F0 Ti0 1.778591 1_555
F1 Ti1 1.778591 1_555
F2 Ti2 1.778591 1_555
F3 Ti3 1.778591 1_555
F4 Ti0 1.772186 1_555
F5 Ti1 1.772186 1_555
F6 Ti2 1.772186 1_555
F7 Ti3 1.772186 1_555
F8 N5 1.353020 1_555
F9 N4 1.353020 1_555
F10 N7 1.353020 1_555
F11 N6 1.353020 1_555
F12 Ti0 1.754660 1_555
F13 Ti1 1.754660 1_555
F14 Ti2 1.754660 1_555
F15 Ti3 1.754660 1_555
F16 Ti13 1.999054 1_555
F16 Ti0 2.009250 1_555
F17 Ti12 1.999054 1_555
F17 Ti1 2.009250 1_555
F18 Ti15 1.999054 1_555
F18 Ti2 2.009250 1_555
F19 Ti14 1.999054 1_555
F19 Ti3 2.009250 1_555
F20 Ti0 1.982184 1_555
F20 Ti4 2.024722 1_555
F21 Ti1 1.982184 1_555
F21 Ti5 2.024722 1_555
F22 Ti2 1.982184 1_555
F22 Ti6 2.024722 1_555
F23 Ti3 1.982184 1_555
F23 Ti7 2.024722 1_555
F24 Ti4 1.768310 1_555
F25 Ti5 1.768310 1_555
F26 Ti6 1.768310 1_555
F27 Ti7 1.768310 1_555
F28 Ti4 1.758574 1_555
F29 Ti5 1.758574 1_455
F30 Ti6 1.758574 1_555
F31 Ti7 1.758574 1_655
F32 N0 1.345218 1_555
F33 N1 1.345218 1_555
F34 N2 1.345218 1_555
F35 N3 1.345218 1_555
F36 Ti4 1.774088 1_555
F37 Ti5 1.774088 1_554
F38 Ti6 1.774088 1_555
F39 Ti7 1.774088 1_556
F40 Ti4 1.975190 1_555
F40 Ti8 2.009474 1_555
F41 Ti5 1.975190 1_554
F41 Ti9 2.009474 1_555
F42 Ti6 1.975190 1_555
F42 Ti10 2.009474 1_555
F43 Ti7 1.975190 1_556
F43 Ti11 2.009474 1_555
F44 Ti8 1.773849 1_555
F45 Ti9 1.773849 1_556
F46 Ti10 1.773849 1_555
F47 Ti11 1.773849 1_554
F48 Ti8 1.764770 1_555
F49 Ti9 1.764770 1_555
F50 Ti10 1.764770 1_555
F51 Ti11 1.764770 1_555
F52 N12 1.348478 1_555
F53 N13 1.348478 1_555
F54 N14 1.348478 1_555
F55 N15 1.348478 1_555
F56 Ti8 1.758879 1_555
F57 Ti9 1.758879 1_455
F58 Ti10 1.758879 1_555
F59 Ti11 1.758879 1_655
F60 Ti12 1.995883 1_555
F60 Ti8 2.007709 1_555
F61 Ti13 1.995883 1_555
F61 Ti9 2.007709 1_555
F62 Ti14 1.995883 1_555
F62 Ti10 2.007709 1_555
F63 Ti15 1.995883 1_555
F63 Ti11 2.007709 1_555
F64 N8 1.352767 1_555
F65 N9 1.352767 1_555
F66 N10 1.352767 1_555
F67 N11 1.352767 1_555
F68 Ti12 1.755789 1_555
F69 Ti13 1.755789 1_555
F70 Ti14 1.755789 1_555
F71 Ti15 1.755789 1_555
F72 Ti12 1.776193 1_555
F73 Ti13 1.776193 1_555
F74 Ti14 1.776193 1_555
F75 Ti15 1.776193 1_555
F76 Ti12 1.772992 1_555
F77 Ti13 1.772992 1_555
F78 Ti14 1.772992 1_555
F79 Ti15 1.772992 1_555
