# generated using pymatgen
data_BaAlSn4O7
_symmetry_space_group_name_H-M   'P 1'
_cell_length_a   6.11572593
_cell_length_b   6.11572593
_cell_length_c   14.06683600
_cell_angle_alpha   90.00000000
_cell_angle_beta   90.00000000
_cell_angle_gamma   119.99999926
_symmetry_Int_Tables_number   1
_chemical_formula_structural   BaAlSn4O7
_chemical_formula_sum   'Ba2 Al2 Sn8 O14'
_cell_volume   455.64130687
_cell_formula_units_Z   2
loop_
 _symmetry_equiv_pos_site_id
 _symmetry_equiv_pos_as_xyz
  1  'x, y, z'
loop_
 _atom_site_type_symbol
 _atom_site_label
 _atom_site_symmetry_multiplicity
 _atom_site_fract_x
 _atom_site_fract_y
 _atom_site_fract_z
 _atom_site_occupancy
  Ba  Ba0  1  0.66666700  0.33333300  0.44992100  1
  Ba  Ba1  1  0.33333300  0.66666700  0.94992100  1
  Al  Al0  1  0.66666700  0.33333300  0.87499300  1
  Al  Al1  1  0.33333300  0.66666700  0.37499300  1
  Sn  Sn0  1  0.82916400  0.17083600  0.20301700  1
  Sn  Sn1  1  0.65832900  0.82916400  0.70301700  1
  Sn  Sn2  1  0.17083600  0.34167100  0.70301700  1
  Sn  Sn3  1  0.82916400  0.65832900  0.20301700  1
  Sn  Sn4  1  0.34167100  0.17083600  0.20301700  1
  Sn  Sn5  1  0.17083600  0.82916400  0.70301700  1
  Sn  Sn6  1  0.00000000  0.00000000  0.43909000  1
  Sn  Sn7  1  0.00000000  0.00000000  0.93909000  1
  O  O0  1  0.81588400  0.18411600  0.95953000  1
  O  O1  1  0.63176800  0.81588400  0.45953000  1
  O  O2  1  0.18411600  0.36823200  0.45953000  1
  O  O3  1  0.81588400  0.63176800  0.95953000  1
  O  O4  1  0.36823200  0.18411600  0.95953000  1
  O  O5  1  0.18411600  0.81588400  0.45953000  1
  O  O6  1  0.00000000  0.00000000  0.79474300  1
  O  O7  1  0.00000000  0.00000000  0.29474300  1
  O  O8  1  0.49355800  0.50644200  0.29587000  1
  O  O9  1  0.98711600  0.49355800  0.79587000  1
  O  O10  1  0.50644200  0.01288400  0.79587000  1
  O  O11  1  0.49355800  0.98711600  0.29587000  1
  O  O12  1  0.50644200  0.49355800  0.79587000  1
  O  O13  1  0.01288400  0.50644200  0.29587000  1
loop_
_geom_bond_atom_site_label_1
_geom_bond_atom_site_label_2
_geom_bond_distance
_geom_bond_site_symmetry_2
Ba0 O13 2.838727 1_655
Ba0 O11 2.838727 1_545
Ba0 O8 2.838730 1_555
Ba0 O1 3.066422 1_545
Ba0 O2 3.066422 1_655
Ba0 O5 3.066425 1_545
Ba0 O5 3.066425 1_655
Ba0 O1 3.066428 1_555
Ba0 O2 3.066428 1_555
Ba1 O10 2.838727 1_565
Ba1 O9 2.838727 1_455
Ba1 O12 2.838730 1_555
Ba1 O4 3.066422 1_565
Ba1 O3 3.066422 1_455
Ba1 O0 3.066425 1_455
Ba1 O0 3.066425 1_565
Ba1 O4 3.066428 1_555
Ba1 O3 3.066428 1_555
Al0 O0 1.977998 1_555
Al0 O3 1.978002 1_555
Al0 O4 1.978002 1_555
Al0 O10 2.029616 1_555
Al0 O9 2.029616 1_555
Al0 O12 2.029620 1_555
Al1 O5 1.977998 1_555
Al1 O1 1.978002 1_555
Al1 O2 1.978002 1_555
Al1 O11 2.029616 1_555
Al1 O13 2.029616 1_555
Al1 O8 2.029620 1_555
O0 Sn7 1.971375 1_655
O1 Sn6 1.971375 1_665
O2 Sn6 1.971375 1_555
O3 Sn7 1.971375 1_665
O4 Sn7 1.971375 1_555
O5 Sn6 1.971375 1_565
O6 Sn7 2.030506 1_555
O6 Sn2 2.222516 1_555
O6 Sn1 2.222516 1_445
O6 Sn5 2.222520 1_545
O7 Sn6 2.030506 1_555
O7 Sn4 2.222516 1_555
O7 Sn3 2.222516 1_445
O7 Sn0 2.222520 1_455
O8 Sn4 2.207937 1_555
O8 Sn3 2.207937 1_555
O9 Sn5 2.207937 1_655
O9 Sn2 2.207941 1_655
O10 Sn5 2.207937 1_545
O10 Sn1 2.207941 1_545
O11 Sn0 2.207937 1_565
O11 Sn4 2.207941 1_565
O12 Sn1 2.207937 1_555
O12 Sn2 2.207937 1_555
O13 Sn0 2.207937 1_455
O13 Sn3 2.207941 1_455
