# generated using pymatgen
data_MgV4(PO5)4
_symmetry_space_group_name_H-M   'P 1'
_cell_length_a   5.20992981
_cell_length_b   10.35815533
_cell_length_c   7.46251317
_cell_angle_alpha   68.50474072
_cell_angle_beta   69.82219769
_cell_angle_gamma   77.13196686
_symmetry_Int_Tables_number   1
_chemical_formula_structural   MgV4(PO5)4
_chemical_formula_sum   'Mg1 V4 P4 O20'
_cell_volume   349.56442141
_cell_formula_units_Z   1
loop_
 _symmetry_equiv_pos_site_id
 _symmetry_equiv_pos_as_xyz
  1  'x, y, z'
loop_
 _atom_site_type_symbol
 _atom_site_label
 _atom_site_symmetry_multiplicity
 _atom_site_fract_x
 _atom_site_fract_y
 _atom_site_fract_z
 _atom_site_occupancy
  Mg  Mg0  1  0.58972800  0.70603500  0.96633100  1
  V  V0  1  0.07166600  0.46510000  0.01478000  1
  V  V1  1  0.96811800  0.73710900  0.23827400  1
  V  V2  1  0.54640600  0.25121800  0.72792400  1
  V  V3  1  0.96821100  0.98806700  0.47655700  1
  P  P0  1  0.58672300  0.04450500  0.19167400  1
  P  P1  1  0.39909100  0.44800300  0.30901100  1
  P  P2  1  0.32212000  0.96346200  0.79421300  1
  P  P3  1  0.68837000  0.54608100  0.71124700  1
  O  O0  1  0.27284100  0.07529600  0.29547800  1
  O  O1  1  0.18574200  0.39366900  0.26387900  1
  O  O2  1  0.04453400  0.84284000  0.41685100  1
  O  O3  1  0.25314900  0.85873100  0.01231300  1
  O  O4  1  0.32436300  0.61175200  0.25984500  1
  O  O5  1  0.29330500  0.11434400  0.79130700  1
  O  O6  1  0.37812700  0.38090400  0.53636600  1
  O  O7  1  0.21403500  0.33148000  0.92617000  1
  O  O8  1  0.73980100  0.08264300  0.31063100  1
  O  O9  1  0.13462800  0.94318700  0.68759700  1
  O  O10  1  0.69263300  0.42156900  0.17991500  1
  O  O11  1  0.40220900  0.58221700  0.85360700  1
  O  O12  1  0.79497200  0.17379800  0.58029500  1
  O  O13  1  0.65373700  0.13820700  0.97403500  1
  O  O14  1  0.89092600  0.58345400  0.79281300  1
  O  O15  1  0.66417800  0.89004500  0.20936500  1
  O  O16  1  0.72249000  0.64003300  0.49311500  1
  O  O17  1  0.90829500  0.66482600  0.08535500  1
  O  O18  1  0.62776700  0.90482800  0.70884300  1
  O  O19  1  0.73684400  0.39159900  0.71899600  1
loop_
_geom_bond_atom_site_label_1
_geom_bond_atom_site_label_2
_geom_bond_distance
_geom_bond_site_symmetry_2
Mg0 O17 2.037000 1_556
Mg0 O3 2.107507 1_556
Mg0 O4 2.146498 1_556
Mg0 O14 2.160321 1_555
Mg0 O18 2.234038 1_555
Mg0 O11 2.285309 1_555
O0 P0 1.565518 1_555
O0 V3 1.850865 1_445
O1 P1 1.530194 1_555
O1 V0 1.978520 1_555
O2 V3 1.649861 1_455
O2 V1 2.182571 1_455
O3 P2 1.559224 1_554
O3 V1 2.045643 1_455
O4 P1 1.584748 1_555
O4 V1 2.033767 1_455
O5 P2 1.529196 1_545
O5 V2 1.970676 1_555
O6 P1 1.554145 1_555
O6 V2 1.883977 1_555
O7 V0 1.666771 1_556
O7 V2 2.090742 1_555
O8 P0 1.570314 1_555
O8 V3 1.875447 1_545
O9 P2 1.543139 1_555
O9 V3 1.916777 1_455
O10 P1 1.527195 1_555
O10 V0 1.982951 1_655
O11 P3 1.562575 1_555
O11 V0 2.077557 1_556
O12 V2 1.653634 1_555
O12 V3 2.225100 1_545
O13 P0 1.518635 1_556
O13 V2 1.974202 1_555
O14 P3 1.559424 1_555
O14 V0 2.051108 1_656
O15 P0 1.527876 1_565
O15 V1 1.982781 1_555
O16 P3 1.531316 1_555
O16 V1 1.938613 1_555
O17 V1 1.713307 1_555
O17 V0 2.233085 1_655
O18 P2 1.569519 1_555
O18 V3 2.087817 1_555
O19 P3 1.545919 1_555
O19 V2 1.905048 1_555
