# generated using pymatgen
data_Y2Th8O19
_symmetry_space_group_name_H-M   'P 1'
_cell_length_a   3.95681893
_cell_length_b   3.95681893
_cell_length_c   27.94028547
_cell_angle_alpha   89.95876845
_cell_angle_beta   89.95876845
_cell_angle_gamma   90.00010239
_symmetry_Int_Tables_number   1
_chemical_formula_structural   Y2Th8O19
_chemical_formula_sum   'Y2 Th8 O19'
_cell_volume   437.44450802
_cell_formula_units_Z   1
loop_
 _symmetry_equiv_pos_site_id
 _symmetry_equiv_pos_as_xyz
  1  'x, y, z'
loop_
 _atom_site_type_symbol
 _atom_site_label
 _atom_site_symmetry_multiplicity
 _atom_site_fract_x
 _atom_site_fract_y
 _atom_site_fract_z
 _atom_site_occupancy
  Y  Y0  1  0.50104300  0.99087600  0.44422100  1
  Y  Y1  1  0.00912400  0.49895700  0.55577900  1
  Th  Th0  1  0.50263100  0.99724300  0.64795600  1
  Th  Th1  1  0.99986900  0.49696500  0.74913700  1
  Th  Th2  1  0.49920600  0.99885800  0.84957200  1
  Th  Th3  1  0.99861700  0.49954000  0.94979300  1
  Th  Th4  1  0.50046000  0.00138300  0.05020700  1
  Th  Th5  1  0.00114200  0.50079400  0.15042800  1
  Th  Th6  1  0.50303500  0.00013100  0.25086300  1
  Th  Th7  1  0.00275700  0.49736900  0.35204400  1
  O  O0  1  0.00127600  0.99661600  0.69649700  1
  O  O1  1  0.49957900  0.49812200  0.79986500  1
  O  O2  1  0.99938400  0.99982900  0.89970800  1
  O  O3  1  0.49934500  0.50065500  0.00000000  1
  O  O4  1  0.00017100  0.00061600  0.10029200  1
  O  O5  1  0.50187800  0.50042100  0.20013500  1
  O  O6  1  0.00338400  0.99872400  0.30350300  1
  O  O7  1  0.50148900  0.49493300  0.39715900  1
  O  O8  1  0.50223000  0.50023500  0.29904800  1
  O  O9  1  0.00126000  0.99456100  0.40894000  1
  O  O10  1  0.49744700  0.50255300  0.50000000  1
  O  O11  1  0.50506700  0.49851100  0.60284100  1
  O  O12  1  0.00543900  0.99874000  0.59106000  1
  O  O13  1  0.49976500  0.49777000  0.70095200  1
  O  O14  1  0.99962900  0.99748600  0.79871400  1
  O  O15  1  0.49909900  0.49941100  0.89973400  1
  O  O16  1  0.99938100  0.00061900  0.00000000  1
  O  O17  1  0.50058900  0.50090100  0.10026600  1
  O  O18  1  0.00251400  0.00037100  0.20128600  1
loop_
_geom_bond_atom_site_label_1
_geom_bond_atom_site_label_2
_geom_bond_distance
_geom_bond_site_symmetry_2
O0 Th0 2.395033 1_455
O0 Th0 2.402267 1_555
O0 Th1 2.463262 1_455
O0 Th1 2.467177 1_465
O1 Th2 2.414018 1_545
O1 Th2 2.420421 1_555
O1 Th1 2.433624 1_455
O1 Th1 2.433831 1_555
O2 Th2 2.422733 1_655
O2 Th3 2.423191 1_565
O2 Th3 2.423414 1_555
O2 Th2 2.425528 1_555
O3 Th4 2.422106 1_555
O3 Th3 2.422106 1_554
O3 Th4 2.428452 1_565
O3 Th3 2.428452 1_454
O4 Th5 2.422733 1_545
O4 Th4 2.423191 1_455
O4 Th4 2.423414 1_555
O4 Th5 2.425528 1_555
O5 Th5 2.414018 1_655
O5 Th5 2.420421 1_555
O5 Th6 2.433624 1_565
O5 Th6 2.433831 1_555
O6 Th7 2.395033 1_565
O6 Th7 2.402267 1_555
O6 Th6 2.463262 1_565
O6 Th6 2.467177 1_465
O7 Th7 2.342404 1_555
O7 Th7 2.349337 1_655
O7 Y0 2.362961 1_555
O7 Y0 2.388124 1_545
O8 Th6 2.391898 1_565
O8 Th6 2.394181 1_555
O8 Th7 2.468662 1_555
O8 Th7 2.473707 1_655
O9 Y0 2.210301 1_555
O9 Y0 2.210568 1_455
O9 Th7 2.530198 1_555
O9 Th7 2.545737 1_565
O10 Y0 2.481556 1_555
O10 Y1 2.481556 1_555
O10 Y1 2.555902 1_655
O10 Y0 2.555902 1_545
O11 Th0 2.342404 1_555
O11 Th0 2.349337 1_545
O11 Y1 2.362961 1_555
O11 Y1 2.388124 1_655
O12 Y1 2.210301 1_555
O12 Y1 2.210568 1_565
O12 Th0 2.530198 1_555
O12 Th0 2.545737 1_455
O13 Th1 2.391898 1_455
O13 Th1 2.394181 1_555
O13 Th0 2.468662 1_555
O13 Th0 2.473707 1_545
O14 Th1 2.412629 1_565
O14 Th1 2.417639 1_555
O14 Th2 2.435318 1_655
O14 Th2 2.436375 1_555
O15 Th2 2.421937 1_555
O15 Th3 2.422148 1_555
O15 Th3 2.423618 1_455
O15 Th2 2.427154 1_545
O16 Th4 2.420971 1_555
O16 Th3 2.420971 1_554
O16 Th4 2.429583 1_655
O16 Th3 2.429583 1_544
O17 Th5 2.421937 1_555
O17 Th4 2.422148 1_555
O17 Th4 2.423618 1_565
O17 Th5 2.427154 1_655
O18 Th6 2.412629 1_455
O18 Th6 2.417639 1_555
O18 Th5 2.435318 1_545
O18 Th5 2.436375 1_555
