# generated using pymatgen
data_Ba3YRuPtO9
_symmetry_space_group_name_H-M   'P 1'
_cell_length_a   5.96188040
_cell_length_b   5.96188040
_cell_length_c   14.97522500
_cell_angle_alpha   90.00000000
_cell_angle_beta   90.00000000
_cell_angle_gamma   120.00000448
_symmetry_Int_Tables_number   1
_chemical_formula_structural   Ba3YRuPtO9
_chemical_formula_sum   'Ba6 Y2 Ru2 Pt2 O18'
_cell_volume   460.96769198
_cell_formula_units_Z   2
loop_
 _symmetry_equiv_pos_site_id
 _symmetry_equiv_pos_as_xyz
  1  'x, y, z'
loop_
 _atom_site_type_symbol
 _atom_site_label
 _atom_site_symmetry_multiplicity
 _atom_site_fract_x
 _atom_site_fract_y
 _atom_site_fract_z
 _atom_site_occupancy
  Ba  Ba0  1  0.33333300  0.66666700  0.58964400  1
  Ba  Ba1  1  0.66666700  0.33333300  0.41035600  1
  Ba  Ba2  1  0.66666700  0.33333300  0.09935700  1
  Ba  Ba3  1  0.33333300  0.66666700  0.90064300  1
  Ba  Ba4  1  0.00000000  0.00000000  0.25656000  1
  Ba  Ba5  1  0.00000000  0.00000000  0.74344000  1
  Y  Y0  1  0.00000000  0.00000000  0.50000000  1
  Y  Y1  1  0.00000000  0.00000000  0.00000000  1
  Ru  Ru0  1  0.66666700  0.33333300  0.84259300  1
  Ru  Ru1  1  0.33333300  0.66666700  0.15740700  1
  Pt  Pt0  1  0.33333300  0.66666700  0.33712300  1
  Pt  Pt1  1  0.66666700  0.33333300  0.66287700  1
  O  O0  1  0.17505700  0.82494300  0.08665800  1
  O  O1  1  0.17505700  0.35011500  0.08665800  1
  O  O2  1  0.64988500  0.82494300  0.08665800  1
  O  O3  1  0.82494300  0.17505700  0.91334200  1
  O  O4  1  0.82494300  0.64988500  0.91334200  1
  O  O5  1  0.35011500  0.17505700  0.91334200  1
  O  O6  1  0.82649700  0.17350300  0.58695900  1
  O  O7  1  0.82649700  0.65299400  0.58695900  1
  O  O8  1  0.34700600  0.17350300  0.58695900  1
  O  O9  1  0.17350300  0.82649700  0.41304100  1
  O  O10  1  0.17350300  0.34700600  0.41304100  1
  O  O11  1  0.65299400  0.82649700  0.41304100  1
  O  O12  1  0.48486000  0.51514000  0.24581000  1
  O  O13  1  0.48486000  0.96971900  0.24581000  1
  O  O14  1  0.03028100  0.51514000  0.24581000  1
  O  O15  1  0.51514000  0.48486000  0.75419000  1
  O  O16  1  0.51514000  0.03028100  0.75419000  1
  O  O17  1  0.96971900  0.48486000  0.75419000  1
loop_
_geom_bond_atom_site_label_1
_geom_bond_atom_site_label_2
_geom_bond_distance
_geom_bond_site_symmetry_2
Ba0 O8 2.982044 1_565
Ba0 O7 2.982044 1_455
Ba0 O6 2.982047 1_565
Ba0 O6 2.982047 1_455
Ba0 O7 2.982050 1_555
Ba0 O8 2.982050 1_555
Ba0 O16 3.097813 1_565
Ba0 O17 3.097813 1_455
Ba0 O15 3.097813 1_555
Ba0 O9 3.117412 1_555
Ba0 O11 3.117415 1_555
Ba0 O10 3.117415 1_555
Ba1 O10 2.982044 1_655
Ba1 O11 2.982044 1_545
Ba1 O9 2.982047 1_655
Ba1 O9 2.982047 1_545
Ba1 O11 2.982050 1_555
Ba1 O10 2.982050 1_555
Ba1 O13 3.097813 1_545
Ba1 O14 3.097813 1_655
Ba1 O12 3.097813 1_555
Ba1 O6 3.117412 1_555
Ba1 O7 3.117415 1_555
Ba1 O8 3.117415 1_555
Ba2 O13 2.886966 1_545
Ba2 O14 2.886966 1_655
Ba2 O12 2.886966 1_555
Ba2 O2 2.988251 1_545
Ba2 O1 2.988251 1_655
Ba2 O0 2.988256 1_655
Ba2 O0 2.988256 1_545
Ba2 O1 2.988262 1_555
Ba2 O2 2.988262 1_555
Ba2 O4 3.229695 1_554
Ba2 O5 3.229695 1_554
Ba2 O3 3.229695 1_554
Ba3 O16 2.886966 1_565
Ba3 O17 2.886966 1_455
Ba3 O15 2.886966 1_555
Ba3 O4 2.988251 1_455
Ba3 O5 2.988251 1_565
Ba3 O3 2.988256 1_455
Ba3 O3 2.988256 1_565
Ba3 O5 2.988262 1_555
Ba3 O4 2.988262 1_555
Ba3 O2 3.229695 1_556
Ba3 O1 3.229695 1_556
Ba3 O0 3.229695 1_556
Ba4 O11 2.949781 1_445
Ba4 O10 2.949781 1_555
Ba4 O9 2.949781 1_545
Ba4 O13 2.989372 1_445
Ba4 O14 2.989372 1_555
Ba4 O12 2.989375 1_445
Ba4 O12 2.989375 1_555
Ba4 O14 2.989378 1_545
Ba4 O13 2.989378 1_545
Ba4 O0 3.121106 1_545
Ba4 O1 3.121109 1_555
Ba4 O2 3.121109 1_445
Ba5 O7 2.949781 1_445
Ba5 O8 2.949781 1_555
Ba5 O6 2.949781 1_455
Ba5 O17 2.989372 1_445
Ba5 O16 2.989372 1_555
Ba5 O15 2.989375 1_445
Ba5 O15 2.989375 1_555
Ba5 O16 2.989378 1_455
Ba5 O17 2.989378 1_455
Ba5 O3 3.121106 1_455
Ba5 O5 3.121109 1_555
Ba5 O4 3.121109 1_445
O0 Ru1 1.947761 1_555
O0 Y1 2.225268 1_565
O1 Ru1 1.947761 1_555
O1 Y1 2.225273 1_555
O2 Ru1 1.947761 1_555
O2 Y1 2.225273 1_665
O3 Ru0 1.947761 1_555
O3 Y1 2.225268 1_656
O4 Ru0 1.947761 1_555
O4 Y1 2.225273 1_666
O5 Ru0 1.947761 1_555
O5 Y1 2.225273 1_556
O6 Pt1 2.004121 1_555
O6 Y0 2.214900 1_655
O7 Pt1 2.004125 1_555
O7 Y0 2.214900 1_665
O8 Pt1 2.004125 1_555
O8 Y0 2.214900 1_555
O9 Pt0 2.004121 1_555
O9 Y0 2.214900 1_565
O10 Pt0 2.004125 1_555
O10 Y0 2.214900 1_555
O11 Pt0 2.004125 1_555
O11 Y0 2.214900 1_665
O12 Ru1 2.049612 1_555
O12 Pt0 2.078026 1_555
O13 Ru1 2.049604 1_555
O13 Pt0 2.078018 1_555
O14 Ru1 2.049604 1_555
O14 Pt0 2.078018 1_555
O15 Ru0 2.049612 1_555
O15 Pt1 2.078026 1_555
O16 Ru0 2.049604 1_555
O16 Pt1 2.078018 1_555
O17 Ru0 2.049604 1_555
O17 Pt1 2.078018 1_555
