# generated using pymatgen
data_Ti6Al16Fe7
_symmetry_space_group_name_H-M   'P 1'
_cell_length_a   8.37911636
_cell_length_b   8.37911636
_cell_length_c   8.37911636
_cell_angle_alpha   60.00000000
_cell_angle_beta   60.00000000
_cell_angle_gamma   60.00000000
_symmetry_Int_Tables_number   1
_chemical_formula_structural   Ti6Al16Fe7
_chemical_formula_sum   'Ti6 Al16 Fe7'
_cell_volume   415.98691206
_cell_formula_units_Z   1
loop_
 _symmetry_equiv_pos_site_id
 _symmetry_equiv_pos_as_xyz
  1  'x, y, z'
loop_
 _atom_site_type_symbol
 _atom_site_label
 _atom_site_symmetry_multiplicity
 _atom_site_fract_x
 _atom_site_fract_y
 _atom_site_fract_z
 _atom_site_occupancy
  Ti  Ti0  1  0.70776500  0.29223500  0.29223500  1
  Ti  Ti1  1  0.29223500  0.70776500  0.70776500  1
  Ti  Ti2  1  0.29223500  0.70776500  0.29223500  1
  Ti  Ti3  1  0.70776500  0.29223500  0.70776500  1
  Ti  Ti4  1  0.29223500  0.29223500  0.70776500  1
  Ti  Ti5  1  0.70776500  0.70776500  0.29223500  1
  Al  Al0  1  0.34200900  0.34200900  0.34200900  1
  Al  Al1  1  0.65799100  0.65799100  0.65799100  1
  Al  Al2  1  0.34200900  0.34200900  0.97397400  1
  Al  Al3  1  0.34200900  0.97397400  0.34200900  1
  Al  Al4  1  0.65799100  0.65799100  0.02602600  1
  Al  Al5  1  0.65799100  0.02602600  0.65799100  1
  Al  Al6  1  0.97397400  0.34200900  0.34200900  1
  Al  Al7  1  0.02602600  0.65799100  0.65799100  1
  Al  Al8  1  0.11980300  0.11980300  0.11980300  1
  Al  Al9  1  0.88019700  0.88019700  0.88019700  1
  Al  Al10  1  0.11980300  0.11980300  0.64059200  1
  Al  Al11  1  0.11980300  0.64059200  0.11980300  1
  Al  Al12  1  0.88019800  0.88019800  0.35940800  1
  Al  Al13  1  0.88019700  0.35940800  0.88019700  1
  Al  Al14  1  0.64059200  0.11980300  0.11980300  1
  Al  Al15  1  0.35940800  0.88019700  0.88019700  1
  Fe  Fe0  1  0.50000000  0.00000000  0.00000000  1
  Fe  Fe1  1  0.00000000  0.50000000  0.50000000  1
  Fe  Fe2  1  0.00000000  0.50000000  0.00000000  1
  Fe  Fe3  1  0.50000000  0.00000000  0.50000000  1
  Fe  Fe4  1  0.00000000  0.00000000  0.50000000  1
  Fe  Fe5  1  0.50000000  0.50000000  0.00000000  1
  Fe  Fe6  1  0.00000000  0.00000000  0.00000000  1
loop_
_geom_bond_atom_site_label_1
_geom_bond_atom_site_label_2
_geom_bond_distance
_geom_bond_site_symmetry_2
Al0 Fe1 2.425388 1_555
Al0 Fe3 2.425388 1_555
Al0 Fe5 2.425388 1_555
Al0 Al14 2.709766 1_555
Al0 Al10 2.709766 1_555
Al0 Al11 2.709766 1_555
Al0 Ti2 2.712551 1_555
Al0 Ti0 2.712551 1_555
Al0 Ti4 2.712551 1_555
Al1 Fe3 2.425388 1_565
Al1 Fe1 2.425388 1_655
Al1 Fe5 2.425388 1_556
Al1 Al15 2.709766 1_555
Al1 Al13 2.709766 1_555
Al1 Al12 2.709776 1_555
Al1 Ti5 2.712551 1_555
Al1 Ti3 2.712551 1_555
Al1 Ti1 2.712551 1_555
Al2 Fe5 2.425383 1_556
Al2 Fe2 2.425390 1_556
Al2 Fe0 2.425390 1_556
Al2 Al8 2.709766 1_556
Al2 Ti1 2.712554 1_555
Al2 Ti3 2.712554 1_555
Al2 Ti4 2.712559 1_555
Al3 Fe3 2.425383 1_565
Al3 Fe4 2.425390 1_565
Al3 Fe0 2.425390 1_565
Al3 Al8 2.709766 1_565
Al3 Ti5 2.712554 1_555
Al3 Ti1 2.712554 1_555
Al3 Ti2 2.712559 1_555
Al4 Fe5 2.425383 1_555
Al4 Fe0 2.425390 1_565
Al4 Fe2 2.425390 1_655
Al4 Al9 2.709766 1_554
Al4 Ti0 2.712554 1_555
Al4 Ti2 2.712554 1_555
Al4 Ti5 2.712559 1_555
Al5 Fe3 2.425383 1_555
Al5 Fe4 2.425390 1_655
Al5 Fe0 2.425390 1_556
Al5 Al9 2.709766 1_545
Al5 Ti0 2.712554 1_555
Al5 Ti4 2.712554 1_555
Al5 Ti3 2.712559 1_555
Al6 Fe1 2.425383 1_655
Al6 Fe4 2.425390 1_655
Al6 Fe2 2.425390 1_655
Al6 Al8 2.709766 1_655
Al6 Ti5 2.712554 1_555
Al6 Ti3 2.712554 1_555
Al6 Ti0 2.712559 1_555
Al7 Fe1 2.425383 1_555
Al7 Fe4 2.425390 1_565
Al7 Fe2 2.425390 1_556
Al7 Al9 2.709766 1_455
Al7 Ti4 2.712554 1_555
Al7 Ti2 2.712554 1_555
Al7 Ti1 2.712559 1_555
Al8 Fe6 2.458904 1_555
Al8 Fe4 2.603069 1_555
Al8 Fe2 2.603069 1_555
Al8 Fe0 2.603069 1_555
Al8 Ti4 2.864587 1_554
Al8 Ti2 2.864587 1_545
Al8 Ti0 2.864587 1_455
Al9 Fe6 2.458904 1_666
Al9 Fe2 2.603069 1_656
Al9 Fe4 2.603069 1_665
Al9 Fe0 2.603069 1_566
Al9 Ti3 2.864587 1_565
Al9 Ti1 2.864587 1_655
Al9 Ti5 2.864587 1_556
Al10 Fe6 2.458897 1_556
Al10 Fe3 2.603069 1_555
Al10 Fe1 2.603069 1_555
Al10 Fe4 2.603076 1_555
Al10 Al3 2.709766 1_545
Al10 Al6 2.709766 1_455
Al10 Al13 2.839286 1_455
Al10 Al15 2.839286 1_545
Al10 Al9 2.839298 1_445
Al10 Ti4 2.864581 1_555
Al10 Ti1 2.864589 1_545
Al10 Ti3 2.864589 1_455
Al11 Fe6 2.458897 1_565
Al11 Fe5 2.603069 1_555
Al11 Fe1 2.603069 1_555
Al11 Fe2 2.603076 1_555
Al11 Al6 2.709766 1_455
Al11 Al2 2.709766 1_554
Al11 Al15 2.839286 1_554
Al11 Al12 2.839292 1_455
Al11 Al9 2.839298 1_454
Al11 Ti2 2.864581 1_555
Al11 Ti5 2.864589 1_455
Al11 Ti1 2.864589 1_554
Al12 Fe6 2.458897 1_665
Al12 Fe4 2.603062 1_665
Al12 Fe3 2.603076 1_565
Al12 Fe1 2.603076 1_655
Al12 Al5 2.709761 1_565
Al12 Al7 2.709761 1_655
Al12 Al8 2.839286 1_665
Al12 Al14 2.839292 1_565
Al12 Ti2 2.864581 1_655
Al12 Ti0 2.864581 1_565
Al12 Ti5 2.864596 1_555
Al13 Fe6 2.458897 1_656
Al13 Fe1 2.603069 1_655
Al13 Fe5 2.603069 1_556
Al13 Fe2 2.603076 1_656
Al13 Al7 2.709766 1_655
Al13 Al4 2.709766 1_556
Al13 Al14 2.839286 1_556
Al13 Al8 2.839298 1_656
Al13 Ti3 2.864581 1_555
Al13 Ti4 2.864589 1_655
Al13 Ti0 2.864589 1_556
Al14 Fe6 2.458897 1_655
Al14 Fe3 2.603069 1_555
Al14 Fe5 2.603069 1_555
Al14 Fe0 2.603076 1_555
Al14 Al2 2.709766 1_554
Al14 Al3 2.709766 1_545
Al14 Al9 2.839298 1_544
Al14 Ti0 2.864581 1_555
Al14 Ti3 2.864589 1_554
Al14 Ti5 2.864589 1_545
Al15 Fe6 2.458897 1_566
Al15 Fe3 2.603069 1_565
Al15 Fe5 2.603069 1_556
Al15 Fe0 2.603076 1_566
Al15 Al5 2.709766 1_565
Al15 Al4 2.709766 1_556
Al15 Al8 2.839298 1_566
Al15 Ti1 2.864581 1_555
Al15 Ti4 2.864589 1_565
Al15 Ti2 2.864589 1_556
Fe0 Ti5 3.004443 1_545
Fe0 Ti3 3.004443 1_554
Fe0 Ti4 3.004443 1_554
Fe0 Ti2 3.004443 1_545
Fe1 Ti2 3.004443 1_555
Fe1 Ti4 3.004443 1_555
Fe1 Ti5 3.004443 1_455
Fe1 Ti3 3.004443 1_455
Fe2 Ti1 3.004443 1_554
Fe2 Ti5 3.004443 1_455
Fe2 Ti0 3.004443 1_455
Fe2 Ti4 3.004443 1_554
Fe3 Ti4 3.004443 1_555
Fe3 Ti0 3.004443 1_555
Fe3 Ti5 3.004443 1_545
Fe3 Ti1 3.004443 1_545
Fe4 Ti3 3.004443 1_455
Fe4 Ti1 3.004443 1_545
Fe4 Ti0 3.004443 1_455
Fe4 Ti2 3.004443 1_545
Fe5 Ti0 3.004443 1_555
Fe5 Ti2 3.004443 1_555
Fe5 Ti3 3.004443 1_554
Fe5 Ti1 3.004443 1_554
