# generated using pymatgen
data_Rb2NaScF6
_symmetry_space_group_name_H-M   'P 1'
_cell_length_a   6.18652248
_cell_length_b   6.18652248
_cell_length_c   6.18652248
_cell_angle_alpha   60.00000000
_cell_angle_beta   60.00000000
_cell_angle_gamma   60.00000000
_symmetry_Int_Tables_number   1
_chemical_formula_structural   Rb2NaScF6
_chemical_formula_sum   'Rb2 Na1 Sc1 F6'
_cell_volume   167.42672762
_cell_formula_units_Z   1
loop_
 _symmetry_equiv_pos_site_id
 _symmetry_equiv_pos_as_xyz
  1  'x, y, z'
loop_
 _atom_site_type_symbol
 _atom_site_label
 _atom_site_symmetry_multiplicity
 _atom_site_fract_x
 _atom_site_fract_y
 _atom_site_fract_z
 _atom_site_occupancy
  Rb  Rb0  1  0.75000000  0.75000000  0.75000000  1
  Rb  Rb1  1  0.25000000  0.25000000  0.25000000  1
  Na  Na0  1  0.50000000  0.50000000  0.50000000  1
  Sc  Sc0  1  0.00000000  0.00000000  0.00000000  1
  F  F0  1  0.76676900  0.23323100  0.23323100  1
  F  F1  1  0.23323100  0.23323100  0.76676900  1
  F  F2  1  0.23323100  0.76676900  0.76676900  1
  F  F3  1  0.23323100  0.76676900  0.23323100  1
  F  F4  1  0.76676900  0.23323100  0.76676900  1
  F  F5  1  0.76676900  0.76676900  0.23323100  1
loop_
_geom_bond_atom_site_label_1
_geom_bond_atom_site_label_2
_geom_bond_distance
_geom_bond_site_symmetry_2
F0 Sc0 2.040553 1_655
F0 Na0 2.333979 1_555
F0 Rb1 3.096739 1_555
F0 Rb0 3.096739 1_554
F0 Rb0 3.096739 1_545
F0 Rb1 3.096739 1_655
F1 Sc0 2.040553 1_556
F1 Na0 2.333979 1_555
F1 Rb1 3.096739 1_555
F1 Rb0 3.096739 1_455
F1 Rb0 3.096739 1_545
F1 Rb1 3.096739 1_556
F2 Sc0 2.040553 1_566
F2 Na0 2.333979 1_555
F2 Rb0 3.096739 1_455
F2 Rb1 3.096739 1_565
F2 Rb1 3.096739 1_556
F2 Rb0 3.096739 1_555
F3 Sc0 2.040553 1_565
F3 Na0 2.333979 1_555
F3 Rb1 3.096739 1_555
F3 Rb0 3.096739 1_554
F3 Rb0 3.096739 1_455
F3 Rb1 3.096739 1_565
F4 Sc0 2.040553 1_656
F4 Na0 2.333979 1_555
F4 Rb0 3.096739 1_545
F4 Rb1 3.096739 1_655
F4 Rb1 3.096739 1_556
F4 Rb0 3.096739 1_555
F5 Sc0 2.040553 1_665
F5 Na0 2.333979 1_555
F5 Rb0 3.096739 1_554
F5 Rb1 3.096739 1_565
F5 Rb1 3.096739 1_655
F5 Rb0 3.096739 1_555
