# generated using pymatgen
data_RbAlH4
_symmetry_space_group_name_H-M   'P 1'
_cell_length_a   5.81072084
_cell_length_b   7.56194805
_cell_length_c   9.34242193
_cell_angle_alpha   90.00000000
_cell_angle_beta   90.00000000
_cell_angle_gamma   90.00000000
_symmetry_Int_Tables_number   1
_chemical_formula_structural   RbAlH4
_chemical_formula_sum   'Rb4 Al4 H16'
_cell_volume   410.50946813
_cell_formula_units_Z   4
loop_
 _symmetry_equiv_pos_site_id
 _symmetry_equiv_pos_as_xyz
  1  'x, y, z'
loop_
 _atom_site_type_symbol
 _atom_site_label
 _atom_site_symmetry_multiplicity
 _atom_site_fract_x
 _atom_site_fract_y
 _atom_site_fract_z
 _atom_site_occupancy
  Rb  Rb0  1  0.25000000  0.65967659  0.18130178  1
  Rb  Rb1  1  0.75000000  0.34032341  0.81869822  1
  Rb  Rb2  1  0.75000000  0.15967659  0.31869822  1
  Rb  Rb3  1  0.25000000  0.84032341  0.68130178  1
  Al  Al0  1  0.25000000  0.18635094  0.06181135  1
  Al  Al1  1  0.75000000  0.81364906  0.93818865  1
  Al  Al2  1  0.75000000  0.68635094  0.43818865  1
  Al  Al3  1  0.25000000  0.31364906  0.56181135  1
  H  H0  1  0.02396883  0.31167597  0.08011611  1
  H  H1  1  0.97603117  0.68832403  0.91988389  1
  H  H2  1  0.97603117  0.81167597  0.41988389  1
  H  H3  1  0.52396883  0.68832403  0.91988389  1
  H  H4  1  0.02396883  0.18832403  0.58011611  1
  H  H5  1  0.47603117  0.31167597  0.08011611  1
  H  H6  1  0.47603117  0.18832403  0.58011611  1
  H  H7  1  0.52396883  0.81167597  0.41988389  1
  H  H8  1  0.25000000  0.04000790  0.18881832  1
  H  H9  1  0.75000000  0.95999210  0.81118168  1
  H  H10  1  0.75000000  0.54000790  0.31118168  1
  H  H11  1  0.25000000  0.45999210  0.68881832  1
  H  H12  1  0.25000000  0.39925627  0.40263153  1
  H  H13  1  0.75000000  0.60074373  0.59736847  1
  H  H14  1  0.75000000  0.89925627  0.09736847  1
  H  H15  1  0.25000000  0.10074373  0.90263153  1
loop_
_geom_bond_atom_site_label_1
_geom_bond_atom_site_label_2
_geom_bond_distance
_geom_bond_site_symmetry_2
Al0 H15 1.621916 1_554
Al0 H8 1.622515 1_555
Al0 H0 1.628623 1_555
Al0 H5 1.628623 1_555
Al1 H14 1.621916 1_556
Al1 H9 1.622515 1_555
Al1 H3 1.628623 1_555
Al1 H1 1.628623 1_555
Al2 H13 1.621916 1_555
Al2 H10 1.622515 1_555
Al2 H7 1.628623 1_555
Al2 H2 1.628623 1_555
Al3 H12 1.621916 1_555
Al3 H11 1.622515 1_555
Al3 H4 1.628623 1_555
Al3 H6 1.628623 1_555
H0 Rb1 2.923349 1_454
H0 Rb2 2.970458 1_455
H0 Rb0 3.089301 1_555
H1 Rb0 2.923349 1_656
H1 Rb3 2.970458 1_655
H1 Rb1 3.089301 1_555
H2 Rb3 2.923349 1_655
H2 Rb0 2.970458 1_655
H2 Rb2 3.089301 1_565
H3 Rb0 2.923349 1_556
H3 Rb3 2.970458 1_555
H3 Rb1 3.089301 1_555
H4 Rb2 2.923349 1_455
H4 Rb1 2.970458 1_455
H4 Rb3 3.089301 1_545
H5 Rb1 2.923349 1_554
H5 Rb2 2.970458 1_555
H5 Rb0 3.089301 1_555
H6 Rb2 2.923349 1_555
H6 Rb1 2.970458 1_555
H6 Rb3 3.089301 1_545
H7 Rb3 2.923349 1_555
H7 Rb0 2.970458 1_555
H7 Rb2 3.089301 1_565
H8 Rb0 2.876903 1_545
H9 Rb1 2.876903 1_565
H10 Rb2 2.876903 1_555
H11 Rb3 2.876903 1_555
H12 Rb0 2.855468 1_555
H13 Rb1 2.855468 1_555
H14 Rb2 2.855468 1_565
H15 Rb3 2.855468 1_545
