# generated using pymatgen
data_SrEu3
_symmetry_space_group_name_H-M   'P 1'
_cell_length_a   8.27472637
_cell_length_b   8.29925514
_cell_length_c   6.47707982
_cell_angle_alpha   90.00000000
_cell_angle_beta   90.00000000
_cell_angle_gamma   120.09810759
_symmetry_Int_Tables_number   1
_chemical_formula_structural   SrEu3
_chemical_formula_sum   'Sr2 Eu6'
_cell_volume   384.83312423
_cell_formula_units_Z   2
loop_
 _symmetry_equiv_pos_site_id
 _symmetry_equiv_pos_as_xyz
  1  'x, y, z'
loop_
 _atom_site_type_symbol
 _atom_site_label
 _atom_site_symmetry_multiplicity
 _atom_site_fract_x
 _atom_site_fract_y
 _atom_site_fract_z
 _atom_site_occupancy
  Sr  Sr0  1  0.33050256  0.66525228  0.75000000  1
  Sr  Sr1  1  0.66949744  0.33474772  0.25000000  1
  Eu  Eu0  1  0.15951010  0.31621700  0.25000000  1
  Eu  Eu1  1  0.67965257  0.83982629  0.25000000  1
  Eu  Eu2  1  0.15951010  0.84329409  0.25000000  1
  Eu  Eu3  1  0.84048990  0.68378300  0.75000000  1
  Eu  Eu4  1  0.32034743  0.16017371  0.75000000  1
  Eu  Eu5  1  0.84048990  0.15670591  0.75000000  1
loop_
_geom_bond_atom_site_label_1
_geom_bond_atom_site_label_2
_geom_bond_distance
_geom_bond_site_symmetry_2
Eu0 Eu2 3.924908 1_545
Eu0 Eu1 3.956339 1_445
Eu0 Eu4 3.957928 1_554
Eu0 Eu4 3.957928 1_555
Eu0 Eu5 3.962856 1_454
Eu0 Eu5 3.962856 1_455
Eu0 Sr0 4.095169 1_555
Eu0 Sr0 4.095169 1_554
Eu0 Sr1 4.133986 1_455
Eu0 Sr1 4.145018 1_555
Eu0 Eu1 4.318537 1_555
Eu0 Eu2 4.374347 1_555
Eu1 Eu2 3.956335 1_655
Eu1 Eu5 3.957924 1_564
Eu1 Eu5 3.957924 1_565
Eu1 Eu3 3.957928 1_555
Eu1 Eu3 3.957928 1_554
Eu1 Sr0 4.090967 1_555
Eu1 Sr0 4.090967 1_554
Eu1 Sr1 4.150256 1_565
Eu1 Sr1 4.150273 1_555
Eu1 Eu2 4.318541 1_555
Eu2 Eu4 3.957924 1_564
Eu2 Eu4 3.957924 1_565
Eu2 Eu3 3.962856 1_455
Eu2 Eu3 3.962856 1_454
Eu2 Sr0 4.095164 1_554
Eu2 Sr0 4.095164 1_555
Eu2 Sr1 4.133999 1_455
Eu2 Sr1 4.145006 1_565
Eu3 Eu5 3.924908 1_565
Eu3 Eu4 3.956339 1_665
Eu3 Sr1 4.095169 1_555
Eu3 Sr1 4.095169 1_556
Eu3 Sr0 4.133986 1_655
Eu3 Sr0 4.145018 1_555
Eu3 Eu4 4.318537 1_555
Eu3 Eu5 4.374347 1_555
Eu4 Eu5 3.956335 1_455
Eu4 Sr1 4.090967 1_556
Eu4 Sr1 4.090967 1_555
Eu4 Sr0 4.150256 1_545
Eu4 Sr0 4.150273 1_555
Eu4 Eu5 4.318541 1_555
Eu5 Sr1 4.095164 1_555
Eu5 Sr1 4.095164 1_556
Eu5 Sr0 4.133999 1_655
Eu5 Sr0 4.145006 1_545
