# generated using pymatgen
data_RbSnAsO5
_symmetry_space_group_name_H-M   'P 1'
_cell_length_a   6.81924829
_cell_length_b   10.99982614
_cell_length_c   13.65100553
_cell_angle_alpha   90.00000000
_cell_angle_beta   90.00000000
_cell_angle_gamma   90.00000000
_symmetry_Int_Tables_number   1
_chemical_formula_structural   RbSnAsO5
_chemical_formula_sum   'Rb8 Sn8 As8 O40'
_cell_volume   1023.96937273
_cell_formula_units_Z   8
loop_
 _symmetry_equiv_pos_site_id
 _symmetry_equiv_pos_as_xyz
  1  'x, y, z'
loop_
 _atom_site_type_symbol
 _atom_site_label
 _atom_site_symmetry_multiplicity
 _atom_site_fract_x
 _atom_site_fract_y
 _atom_site_fract_z
 _atom_site_occupancy
  Rb  Rb0  1  0.77887359  0.79441447  0.37833632  1
  Rb  Rb1  1  0.27887359  0.29441447  0.12166368  1
  Rb  Rb2  1  0.72112641  0.79441447  0.87833632  1
  Rb  Rb3  1  0.31219711  0.04941306  0.88801484  1
  Rb  Rb4  1  0.81219711  0.54941306  0.61198516  1
  Rb  Rb5  1  0.68780289  0.54941306  0.11198516  1
  Rb  Rb6  1  0.18780289  0.04941306  0.38801484  1
  Rb  Rb7  1  0.22112641  0.29441447  0.62166368  1
  Sn  Sn0  1  0.74632524  0.23700729  0.75011978  1
  Sn  Sn1  1  0.25367476  0.73700729  0.24988022  1
  Sn  Sn2  1  0.75367476  0.23700729  0.25011978  1
  Sn  Sn3  1  0.50111962  0.98568245  0.62533817  1
  Sn  Sn4  1  0.49888038  0.48568245  0.37466183  1
  Sn  Sn5  1  0.99888038  0.98568245  0.12533817  1
  Sn  Sn6  1  0.00111962  0.48568245  0.87466183  1
  Sn  Sn7  1  0.24632524  0.73700729  0.74988022  1
  As  As0  1  0.99805080  0.98803527  0.67618654  1
  As  As1  1  0.00194920  0.48803527  0.32381346  1
  As  As2  1  0.50194920  0.98803527  0.17618654  1
  As  As3  1  0.49805080  0.48803527  0.82381346  1
  As  As4  1  0.16765974  0.73404965  0.00246918  1
  As  As5  1  0.83234026  0.23404965  0.99753082  1
  As  As6  1  0.33234026  0.73404965  0.50246918  1
  As  As7  1  0.66765974  0.23404965  0.49753082  1
  O  O0  1  0.46652787  0.87240527  0.25631468  1
  O  O1  1  0.53347213  0.37240527  0.74368532  1
  O  O2  1  0.03347213  0.87240527  0.75631468  1
  O  O3  1  0.96652787  0.37240527  0.24368532  1
  O  O4  1  0.97076749  0.10993787  0.75155764  1
  O  O5  1  0.02923251  0.60993787  0.24844236  1
  O  O6  1  0.52923251  0.10993787  0.25155764  1
  O  O7  1  0.47076749  0.60993787  0.74844236  1
  O  O8  1  0.04703395  0.86294357  0.22965634  1
  O  O9  1  0.95296605  0.36294357  0.77034366  1
  O  O10  1  0.45296605  0.86294357  0.72965634  1
  O  O11  1  0.54703395  0.36294357  0.27034366  1
  O  O12  1  0.53108370  0.12098115  0.72108679  1
  O  O13  1  0.46891630  0.62098115  0.27891321  1
  O  O14  1  0.96891630  0.12098115  0.22108679  1
  O  O15  1  0.81781761  0.21177743  0.40035032  1
  O  O16  1  0.03108370  0.62098115  0.77891321  1
  O  O17  1  0.30401236  0.45907010  0.89758216  1
  O  O18  1  0.80401236  0.95907010  0.60241784  1
  O  O19  1  0.19598764  0.45907010  0.39758216  1
  O  O20  1  0.19336296  0.01598659  0.60245913  1
  O  O21  1  0.80663704  0.51598659  0.39754087  1
  O  O22  1  0.30663704  0.01598659  0.10245913  1
  O  O23  1  0.69336296  0.51598659  0.89754087  1
  O  O24  1  0.51201050  0.11438890  0.51033300  1
  O  O25  1  0.48798950  0.61438890  0.48966700  1
  O  O26  1  0.98798950  0.11438890  0.01033300  1
  O  O27  1  0.01201050  0.61438890  0.98966700  1
  O  O28  1  0.02238263  0.85933503  0.01299608  1
  O  O29  1  0.97761737  0.35933503  0.98700392  1
  O  O30  1  0.47761737  0.85933503  0.51299608  1
  O  O31  1  0.52238263  0.35933503  0.48700392  1
  O  O32  1  0.81114840  0.25827190  0.59704200  1
  O  O33  1  0.18885160  0.75827190  0.40295800  1
  O  O34  1  0.68885160  0.25827190  0.09704200  1
  O  O35  1  0.31114840  0.75827190  0.90295800  1
  O  O36  1  0.31781761  0.71177743  0.09964968  1
  O  O37  1  0.68218239  0.21177743  0.90035032  1
  O  O38  1  0.18218239  0.71177743  0.59964968  1
  O  O39  1  0.69598764  0.95907010  0.10241784  1
loop_
_geom_bond_atom_site_label_1
_geom_bond_atom_site_label_2
_geom_bond_distance
_geom_bond_site_symmetry_2
As0 O18 1.693058 1_555
As0 O2 1.694864 1_655
As0 O20 1.697466 1_665
As0 O4 1.700372 1_565
As1 O19 1.693058 1_555
As1 O3 1.694864 1_455
As1 O21 1.697466 1_455
As1 O5 1.700372 1_555
As2 O39 1.693058 1_555
As2 O0 1.694864 1_555
As2 O22 1.697466 1_565
As2 O6 1.700372 1_565
As3 O17 1.693058 1_555
As3 O1 1.694864 1_555
As3 O23 1.697466 1_555
As3 O7 1.700372 1_555
As4 O36 1.693641 1_555
As4 O35 1.695213 1_554
As4 O27 1.699895 1_554
As4 O28 1.703322 1_555
As5 O37 1.693641 1_555
As5 O34 1.695213 1_556
As5 O26 1.699895 1_556
As5 O29 1.703322 1_555
As6 O38 1.693641 1_555
As6 O33 1.695213 1_555
As6 O25 1.699895 1_555
As6 O30 1.703322 1_555
As7 O15 1.693641 1_555
As7 O32 1.695213 1_555
As7 O24 1.699895 1_555
As7 O31 1.703322 1_555
O0 Sn1 2.081523 1_555
O0 Rb0 2.836781 1_555
O0 Rb6 3.261271 1_565
O1 Sn0 2.081523 1_555
O1 Rb7 2.836781 1_555
O1 Rb4 3.261271 1_555
O2 Sn7 2.081523 1_555
O2 Rb2 2.836781 1_455
O2 Rb3 3.261271 1_565
O3 Sn2 2.081523 1_555
O3 Rb1 2.836781 1_655
O3 Rb5 3.261271 1_555
O4 Sn0 2.072820 1_555
O4 Rb3 3.055181 1_655
O4 Rb7 3.190080 1_655
O5 Sn1 2.072820 1_555
O5 Rb5 3.055181 1_455
O5 Rb0 3.190080 1_455
O6 Sn2 2.072820 1_555
O6 Rb6 3.055181 1_555
O6 Rb1 3.190080 1_555
O7 Sn7 2.072820 1_555
O7 Rb4 3.055181 1_555
O7 Rb2 3.190080 1_555
O8 Sn5 1.989605 1_455
O8 Sn1 1.995212 1_555
O8 Rb0 2.834007 1_455
O8 Rb6 3.130782 1_565
O9 Sn6 1.989605 1_655
O9 Sn0 1.995212 1_555
O9 Rb7 2.834007 1_655
O9 Rb4 3.130782 1_555
O10 Sn3 1.989605 1_555
O10 Sn7 1.995212 1_555
O10 Rb2 2.834007 1_555
O10 Rb3 3.130782 1_565
O11 Sn4 1.989605 1_555
O11 Sn2 1.995212 1_555
O11 Rb1 2.834007 1_555
O11 Rb5 3.130782 1_555
O12 Sn0 1.985026 1_555
O12 Sn3 1.991255 1_545
O12 Rb3 2.835553 1_555
O12 Rb7 3.154226 1_555
O13 Sn1 1.985026 1_555
O13 Sn4 1.991255 1_555
O13 Rb5 2.835553 1_555
O13 Rb0 3.154226 1_555
O14 Sn2 1.985026 1_555
O14 Sn5 1.991255 1_545
O14 Rb6 2.835553 1_655
O14 Rb1 3.154226 1_655
O15 Sn2 2.115211 1_555
O15 Rb6 3.095758 1_655
O16 Sn7 1.985026 1_555
O16 Sn6 1.991255 1_555
O16 Rb4 2.835553 1_455
O16 Rb2 3.154226 1_455
O17 Sn6 2.109474 1_555
O17 Rb1 3.559055 1_556
O18 Sn3 2.109474 1_555
O18 Rb0 3.559055 1_555
O19 Sn4 2.109474 1_555
O19 Rb7 3.559055 1_555
O20 Sn3 2.147806 1_545
O20 Rb6 2.950624 1_555
O20 Rb7 3.079683 1_555
O21 Sn4 2.147806 1_555
O21 Rb4 2.950624 1_555
O21 Rb0 3.079683 1_555
O22 Sn5 2.147806 1_445
O22 Rb3 2.950624 1_554
O22 Rb1 3.079683 1_555
O23 Sn6 2.147806 1_655
O23 Rb5 2.950624 1_556
O23 Rb2 3.079683 1_555
O24 Sn3 2.115315 1_545
O24 Rb6 2.861261 1_555
O24 Rb7 3.188388 1_555
O25 Sn4 2.115315 1_555
O25 Rb4 2.861261 1_555
O25 Rb0 3.188388 1_555
O26 Sn5 2.115315 1_545
O26 Rb3 2.861261 1_654
O26 Rb1 3.188388 1_655
O27 Sn6 2.115315 1_555
O27 Rb5 2.861261 1_456
O27 Rb2 3.188388 1_455
O28 Sn5 2.075838 1_455
O28 Rb2 2.847702 1_454
O28 Rb3 3.344880 1_564
O29 Sn6 2.075838 1_655
O29 Rb1 2.847702 1_656
O29 Rb5 3.344880 1_556
O30 Sn3 2.075838 1_555
O30 Rb0 2.847702 1_555
O30 Rb6 3.344880 1_565
O31 Sn4 2.075838 1_555
O31 Rb7 2.847702 1_555
O31 Rb4 3.344880 1_555
O32 Sn0 2.148678 1_555
O32 Rb7 2.843800 1_655
O32 Rb4 3.209000 1_555
O33 Sn1 2.148678 1_555
O33 Rb0 2.843800 1_455
O33 Rb6 3.209000 1_565
O34 Sn2 2.148678 1_555
O34 Rb1 2.843800 1_555
O34 Rb5 3.209000 1_555
O35 Sn7 2.148678 1_555
O35 Rb2 2.843800 1_555
O35 Rb3 3.209000 1_565
O36 Sn1 2.115211 1_555
O36 Rb5 3.095758 1_555
O37 Sn0 2.115211 1_555
O37 Rb3 3.095758 1_555
O38 Sn7 2.115211 1_555
O38 Rb4 3.095758 1_455
O39 Sn5 2.109474 1_555
O39 Rb2 3.559055 1_554
