# generated using pymatgen
data_Mg(FeO2)2
_symmetry_space_group_name_H-M   'P 1'
_cell_length_a   2.92711900
_cell_length_b   7.66377404
_cell_length_c   8.07589670
_cell_angle_alpha   70.99536836
_cell_angle_beta   79.86064063
_cell_angle_gamma   79.14914704
_symmetry_Int_Tables_number   1
_chemical_formula_structural   Mg(FeO2)2
_chemical_formula_sum   'Mg2 Fe4 O8'
_cell_volume   166.93816916
_cell_formula_units_Z   2
loop_
 _symmetry_equiv_pos_site_id
 _symmetry_equiv_pos_as_xyz
  1  'x, y, z'
loop_
 _atom_site_type_symbol
 _atom_site_label
 _atom_site_symmetry_multiplicity
 _atom_site_fract_x
 _atom_site_fract_y
 _atom_site_fract_z
 _atom_site_occupancy
  Mg  Mg0  1  0.80601800  0.21088000  0.67009100  1
  Mg  Mg1  1  0.19398200  0.78912000  0.32990900  1
  Fe  Fe0  1  0.09827200  0.59514100  0.70103100  1
  Fe  Fe1  1  0.65861100  0.18036200  0.02000300  1
  Fe  Fe2  1  0.34138900  0.81963800  0.97999700  1
  Fe  Fe3  1  0.90172800  0.40485900  0.29896900  1
  O  O0  1  0.35943800  0.58523000  0.20172000  1
  O  O1  1  0.93625100  0.76112800  0.84268200  1
  O  O2  1  0.06374900  0.23887200  0.15731800  1
  O  O3  1  0.64056200  0.41477000  0.79828000  1
  O  O4  1  0.64198800  0.70531600  0.51560600  1
  O  O5  1  0.27178300  0.09665000  0.85729600  1
  O  O6  1  0.35801200  0.29468400  0.48439400  1
  O  O7  1  0.72821700  0.90335000  0.14270400  1
loop_
_geom_bond_atom_site_label_1
_geom_bond_atom_site_label_2
_geom_bond_distance
_geom_bond_site_symmetry_2
Mg0 O6 2.032042 1_555
Mg0 O6 2.045098 1_655
Mg0 O5 2.078095 1_555
Mg0 O5 2.079697 1_655
Mg0 O3 2.083264 1_555
Mg1 O4 2.032042 1_555
Mg1 O4 2.045098 1_455
Mg1 O7 2.078095 1_555
Mg1 O7 2.079697 1_455
Mg1 O0 2.083264 1_555
Fe0 O1 1.918690 1_455
Fe0 O3 1.985539 1_455
Fe0 O3 1.988222 1_555
Fe0 O4 2.048238 1_455
Fe0 O4 2.081263 1_555
Fe1 O2 1.952626 1_555
Fe1 O2 1.955566 1_655
Fe1 O7 2.017054 1_545
Fe1 O3 2.082992 1_554
Fe1 O5 2.155165 1_654
Fe1 O5 2.183269 1_554
Fe2 O1 1.952626 1_555
Fe2 O1 1.955566 1_455
Fe2 O5 2.017054 1_565
Fe2 O0 2.082992 1_556
Fe2 O7 2.155165 1_456
Fe2 O7 2.183269 1_556
Fe3 O2 1.918690 1_655
Fe3 O0 1.985539 1_655
Fe3 O0 1.988222 1_555
Fe3 O6 2.048238 1_655
Fe3 O6 2.081263 1_555
