# generated using pymatgen
data_Sr4LiMn2Ga2O11
_symmetry_space_group_name_H-M   'P 1'
_cell_length_a   5.80006462
_cell_length_b   5.80053263
_cell_length_c   8.61053358
_cell_angle_alpha   69.03062711
_cell_angle_beta   69.03938100
_cell_angle_gamma   86.44436962
_symmetry_Int_Tables_number   1
_chemical_formula_structural   Sr4LiMn2Ga2O11
_chemical_formula_sum   'Sr4 Li1 Mn2 Ga2 O11'
_cell_volume   251.87792233
_cell_formula_units_Z   1
loop_
 _symmetry_equiv_pos_site_id
 _symmetry_equiv_pos_as_xyz
  1  'x, y, z'
loop_
 _atom_site_type_symbol
 _atom_site_label
 _atom_site_symmetry_multiplicity
 _atom_site_fract_x
 _atom_site_fract_y
 _atom_site_fract_z
 _atom_site_occupancy
  Sr  Sr0  1  0.13222200  0.63221400  0.73968600  1
  Sr  Sr1  1  0.63737900  0.13737200  0.71012100  1
  Sr  Sr2  1  0.34738700  0.84737200  0.29001200  1
  Sr  Sr3  1  0.87187000  0.37183100  0.26033100  1
  Li  Li0  1  0.34287800  0.84292100  0.00020300  1
  Mn  Mn0  1  0.24610900  0.24611200  0.49997300  1
  Mn  Mn1  1  0.74608100  0.74605900  0.49999900  1
  Ga  Ga0  1  0.51483500  0.42505600  0.00000800  1
  Ga  Ga1  1  0.92506100  0.01479300  0.00000300  1
  O  O0  1  0.16819100  0.05353000  0.76857700  1
  O  O1  1  0.55359800  0.66820300  0.76854500  1
  O  O2  1  0.32209900  0.43701100  0.23131800  1
  O  O3  1  0.93703700  0.82211200  0.23130400  1
  O  O4  1  0.52552300  0.02549000  0.45523900  1
  O  O5  1  0.98084900  0.48080500  0.54466600  1
  O  O6  1  0.99872800  0.99883400  0.49998300  1
  O  O7  1  0.49877900  0.49877200  0.49998300  1
  O  O8  1  0.82265500  0.32273000  0.00001200  1
  O  O9  1  0.68258400  0.81753000  0.00001200  1
  O  O10  1  0.31756200  0.18268300  0.00002600  1
loop_
_geom_bond_atom_site_label_1
_geom_bond_atom_site_label_2
_geom_bond_distance
_geom_bond_site_symmetry_2
Li0 O9 1.966139 1_555
Li0 O10 1.966656 1_565
Li0 O3 2.455050 1_455
Li0 O2 2.455276 1_555
Li0 O0 2.458667 1_564
Li0 O1 2.459416 1_554
Mn0 O5 2.014942 1_455
Mn0 O4 2.015297 1_555
Mn0 O0 2.065642 1_555
Mn0 O2 2.066230 1_555
Mn0 O6 2.090732 1_445
Mn0 O7 2.135920 1_555
Mn1 O4 2.015097 1_565
Mn1 O5 2.015112 1_555
Mn1 O1 2.065271 1_555
Mn1 O3 2.066604 1_555
Mn1 O7 2.090546 1_555
Mn1 O6 2.136199 1_555
Ga0 O8 1.846199 1_555
Ga0 O10 1.866805 1_555
Ga0 O2 1.928118 1_555
Ga0 O1 1.928398 1_554
Ga1 O8 1.847097 1_555
Ga1 O9 1.867253 1_545
Ga1 O3 1.927874 1_545
Ga1 O0 1.928289 1_654
O0 Sr0 2.571643 1_545
O0 Sr1 2.627626 1_555
O1 Sr0 2.571657 1_555
O1 Sr1 2.627668 1_565
O2 Sr3 2.571510 1_455
O2 Sr2 2.626817 1_555
O3 Sr3 2.571929 1_555
O3 Sr2 2.626543 1_655
O4 Sr2 2.528862 1_545
O4 Sr3 2.561890 1_555
O4 Sr1 2.783699 1_555
O4 Sr0 3.009248 1_545
O5 Sr1 2.529256 1_555
O5 Sr0 2.562805 1_655
O5 Sr2 2.781589 1_655
O5 Sr3 3.009574 1_555
O6 Sr2 2.535899 1_655
O6 Sr1 2.535924 1_565
O6 Sr3 2.678424 1_565
O6 Sr0 2.679450 1_655
O7 Sr2 2.535248 1_555
O7 Sr1 2.536039 1_555
O7 Sr3 2.679204 1_555
O7 Sr0 2.679377 1_555
O8 Sr0 2.472089 1_654
O8 Sr3 2.472173 1_555
O9 Sr1 2.614322 1_564
O9 Sr2 2.615216 1_555
O10 Sr1 2.614846 1_554
O10 Sr2 2.615126 1_545
