# generated using pymatgen
data_U(SiNi5)2
_symmetry_space_group_name_H-M   'P 1'
_cell_length_a   6.17327370
_cell_length_b   6.17327370
_cell_length_c   6.17327370
_cell_angle_alpha   134.28253773
_cell_angle_beta   100.95406743
_cell_angle_gamma   96.41798586
_symmetry_Int_Tables_number   1
_chemical_formula_structural   U(SiNi5)2
_chemical_formula_sum   'U1 Si2 Ni10'
_cell_volume   155.03150076
_cell_formula_units_Z   1
loop_
 _symmetry_equiv_pos_site_id
 _symmetry_equiv_pos_as_xyz
  1  'x, y, z'
loop_
 _atom_site_type_symbol
 _atom_site_label
 _atom_site_symmetry_multiplicity
 _atom_site_fract_x
 _atom_site_fract_y
 _atom_site_fract_z
 _atom_site_occupancy
  U  U0  1  0.00000000  0.00000000  0.00000000  1
  Si  Si0  1  0.74929800  0.24929800  0.50000000  1
  Si  Si1  1  0.25070200  0.75070200  0.50000000  1
  Ni  Ni0  1  0.35323500  0.35323500  0.00000000  1
  Ni  Ni1  1  0.64676500  0.64676500  0.00000000  1
  Ni  Ni2  1  0.65971200  0.00000000  0.65971200  1
  Ni  Ni3  1  0.34028800  0.00000000  0.34028800  1
  Ni  Ni4  1  0.17978200  0.50000000  0.67978200  1
  Ni  Ni5  1  0.82021800  0.50000000  0.32021800  1
  Ni  Ni6  1  0.50000000  0.00000000  0.00000000  1
  Ni  Ni7  1  0.50000000  0.50000000  0.50000000  1
  Ni  Ni8  1  0.00000000  0.00000000  0.50000000  1
  Ni  Ni9  1  0.00000000  0.50000000  0.00000000  1
loop_
_geom_bond_atom_site_label_1
_geom_bond_atom_site_label_2
_geom_bond_distance
_geom_bond_site_symmetry_2
Si0 U0 3.163182 1_655
Si0 U0 3.163182 1_666
Si1 U0 3.163182 1_566
Si1 U0 3.163182 1_555
Ni0 Ni1 2.415144 1_555
Ni0 Ni6 2.453089 1_555
Ni0 Ni8 2.453089 1_554
Ni0 Ni7 2.453089 1_555
Ni0 Ni9 2.453089 1_555
Ni0 Si1 2.542139 1_544
Ni0 Si1 2.542139 1_555
Ni0 Ni4 2.790798 1_554
Ni0 Ni5 2.790798 1_555
Ni0 U0 2.906393 1_555
Ni0 Ni2 2.963734 1_565
Ni0 Ni2 2.963734 1_554
Ni0 Ni3 2.963734 1_554
Ni0 Ni3 2.963734 1_565
Ni1 Ni7 2.453089 1_554
Ni1 Ni9 2.453089 1_655
Ni1 Ni8 2.453089 1_665
Ni1 Ni6 2.453089 1_565
Ni1 Si0 2.542139 1_565
Ni1 Si0 2.542139 1_554
Ni1 Ni4 2.790798 1_554
Ni1 Ni5 2.790798 1_555
Ni1 U0 2.906393 1_665
Ni1 Ni2 2.963734 1_565
Ni1 Ni2 2.963734 1_554
Ni1 Ni3 2.963734 1_554
Ni1 Ni3 2.963734 1_565
Ni2 Si1 2.404618 1_545
Ni2 Si0 2.404618 1_555
Ni2 Ni6 2.484376 1_556
Ni2 Ni8 2.484376 1_655
Ni2 Ni7 2.484376 1_545
Ni2 Ni9 2.484376 1_656
Ni2 Ni3 2.509774 1_555
Ni2 U0 2.673707 1_656
Ni2 Ni5 2.709463 1_545
Ni2 Ni5 2.709463 1_556
Ni3 Si1 2.404618 1_545
Ni3 Si0 2.404618 1_555
Ni3 Ni8 2.484376 1_555
Ni3 Ni9 2.484376 1_545
Ni3 Ni6 2.484376 1_555
Ni3 Ni7 2.484376 1_555
Ni3 U0 2.673707 1_555
Ni3 Ni4 2.709463 1_555
Ni3 Ni4 2.709463 1_544
Ni4 Ni6 2.444024 1_566
Ni4 Ni7 2.444024 1_555
Ni4 Ni8 2.444024 1_555
Ni4 Ni9 2.444024 1_556
Ni4 Si1 2.500072 1_555
Ni4 Si0 2.500072 1_455
Ni4 U0 2.783188 1_555
Ni4 U0 2.783188 1_566
Ni4 Ni5 2.825162 1_455
Ni5 Ni6 2.444024 1_555
Ni5 Ni7 2.444024 1_555
Ni5 Ni9 2.444024 1_655
Ni5 Ni8 2.444024 1_665
Ni5 Si0 2.500072 1_555
Ni5 Si1 2.500072 1_655
Ni5 U0 2.783188 1_666
Ni5 U0 2.783188 1_655
Ni6 Si0 2.301344 1_555
Ni6 Si1 2.301344 1_544
Ni6 Ni7 2.398072 1_544
Ni6 Ni7 2.398072 1_555
Ni6 U0 3.086637 1_555
Ni6 U0 3.086637 1_655
Ni7 Si0 2.301344 1_555
Ni7 Si1 2.301344 1_555
Ni7 U0 3.086637 1_555
Ni7 U0 3.086637 1_666
Ni8 Si0 2.301344 1_455
Ni8 Si1 2.301344 1_545
Ni8 Ni9 2.398072 1_545
Ni8 Ni9 2.398072 1_556
Ni8 U0 3.086637 1_556
Ni8 U0 3.086637 1_555
Ni9 Si0 2.301344 1_454
Ni9 Si1 2.301344 1_555
Ni9 U0 3.086637 1_555
Ni9 U0 3.086637 1_565
