# generated using pymatgen
data_Mg14NiB
_symmetry_space_group_name_H-M   'P 1'
_cell_length_a   6.20589684
_cell_length_b   6.20589637
_cell_length_c   9.81163601
_cell_angle_alpha   90.00000000
_cell_angle_beta   90.00000000
_cell_angle_gamma   120.00000252
_symmetry_Int_Tables_number   1
_chemical_formula_structural   Mg14NiB
_chemical_formula_sum   'Mg14 Ni1 B1'
_cell_volume   327.25110384
_cell_formula_units_Z   1
loop_
 _symmetry_equiv_pos_site_id
 _symmetry_equiv_pos_as_xyz
  1  'x, y, z'
loop_
 _atom_site_type_symbol
 _atom_site_label
 _atom_site_symmetry_multiplicity
 _atom_site_fract_x
 _atom_site_fract_y
 _atom_site_fract_z
 _atom_site_occupancy
  Mg  Mg0  1  0.16666172  0.83333036  0.12500000  1
  Mg  Mg1  1  0.16607640  0.83303770  0.62500000  1
  Mg  Mg2  1  0.66666964  0.33333828  0.12500000  1
  Mg  Mg3  1  0.66696230  0.33392360  0.62500000  1
  Mg  Mg4  1  0.66666964  0.83333036  0.12500000  1
  Mg  Mg5  1  0.66696230  0.83303770  0.62500000  1
  Mg  Mg6  1  0.32516551  0.17483449  0.37499471  1
  Mg  Mg7  1  0.32516551  0.17483449  0.87500529  1
  Mg  Mg8  1  0.32516551  0.65033202  0.37499471  1
  Mg  Mg9  1  0.32516551  0.65033202  0.87500529  1
  Mg  Mg10  1  0.84966798  0.17483449  0.37499471  1
  Mg  Mg11  1  0.84966798  0.17483449  0.87500529  1
  Mg  Mg12  1  0.83333300  0.66666700  0.37334519  1
  Mg  Mg13  1  0.83333300  0.66666700  0.87665481  1
  Ni  Ni0  1  0.16666700  0.33333300  0.12500000  1
  B  B0  1  0.16666700  0.33333300  0.62500000  1
loop_
_geom_bond_atom_site_label_1
_geom_bond_atom_site_label_2
_geom_bond_distance
_geom_bond_site_symmetry_2
Mg0 Mg12 3.024353 1_455
Mg0 Mg13 3.024353 1_454
Mg0 Mg9 3.064465 1_554
Mg0 Mg8 3.064465 1_555
Mg0 Mg7 3.064471 1_564
Mg0 Mg6 3.064471 1_565
Mg0 Mg2 3.102899 1_455
Mg0 Mg4 3.102899 1_455
Mg0 Ni0 3.102948 1_565
Mg0 Ni0 3.102948 1_555
Mg0 Mg2 3.102997 1_565
Mg0 Mg4 3.102998 1_555
Mg1 Mg12 3.048731 1_455
Mg1 Mg13 3.048731 1_455
Mg1 Mg9 3.065424 1_555
Mg1 Mg8 3.065424 1_555
Mg1 Mg6 3.065430 1_565
Mg1 Mg7 3.065430 1_565
Mg2 Mg7 3.064471 1_554
Mg2 Mg6 3.064471 1_555
Mg2 Mg4 3.102899 1_555
Mg2 Ni0 3.102948 1_655
Mg2 Ni0 3.102948 1_555
Mg2 Mg4 3.102997 1_545
Mg3 Mg6 3.065430 1_555
Mg3 Mg7 3.065430 1_555
Mg4 Mg9 3.064471 1_554
Mg4 Mg8 3.064471 1_555
Mg4 Ni0 3.102948 1_665
Mg4 Ni0 3.102948 1_555
Mg5 Mg9 3.065430 1_555
Mg5 Mg8 3.065430 1_555
Mg6 Mg8 2.950888 1_555
Mg6 Ni0 2.986480 1_555
Mg6 Mg8 3.255008 1_545
Mg7 Mg9 2.950888 1_555
Mg7 Ni0 2.986480 1_556
Mg7 Mg9 3.255008 1_545
Mg8 Ni0 2.986486 1_555
Mg9 Ni0 2.986486 1_556
Mg10 Mg8 2.950888 1_655
Mg10 Mg6 2.950889 1_655
Mg10 Ni0 2.986486 1_655
Mg10 Mg2 3.064465 1_555
Mg10 Mg4 3.064471 1_545
Mg10 Mg3 3.065424 1_555
Mg10 Mg5 3.065430 1_545
Mg10 Mg12 3.104232 1_545
Mg10 Mg12 3.104232 1_555
Mg10 Mg8 3.255008 1_545
Mg10 Mg6 3.255008 1_555
Mg11 Mg9 2.950888 1_655
Mg11 Mg7 2.950889 1_655
Mg11 Ni0 2.986486 1_656
Mg11 Mg2 3.064465 1_556
Mg11 Mg4 3.064471 1_546
Mg11 Mg3 3.065424 1_555
Mg11 Mg5 3.065430 1_545
Mg11 Mg13 3.104232 1_545
Mg11 Mg13 3.104232 1_555
Mg11 Mg9 3.255008 1_545
Mg11 Mg7 3.255008 1_555
Mg12 Mg4 3.024347 1_555
Mg12 Mg2 3.024353 1_555
Mg12 Mg5 3.048724 1_555
Mg12 Mg3 3.048731 1_555
Mg12 Mg6 3.104232 1_665
Mg12 Mg6 3.104232 1_555
Mg12 Mg8 3.104232 1_655
Mg12 Mg8 3.104232 1_555
Mg13 Mg4 3.024347 1_556
Mg13 Mg2 3.024353 1_556
Mg13 Mg5 3.048724 1_555
Mg13 Mg3 3.048731 1_555
Mg13 Mg7 3.104232 1_665
Mg13 Mg7 3.104232 1_555
Mg13 Mg9 3.104232 1_555
Mg13 Mg9 3.104232 1_655
B0 Mg6 2.986566 1_555
B0 Mg7 2.986566 1_555
B0 Mg8 2.986572 1_555
B0 Mg9 2.986572 1_555
B0 Mg10 2.986572 1_455
B0 Mg11 2.986572 1_455
