# generated using pymatgen
data_Ba2Mn(PO4)2
_symmetry_space_group_name_H-M   'P 1'
_cell_length_a   5.41325329
_cell_length_b   9.11716000
_cell_length_c   16.44473347
_cell_angle_alpha   90.00000000
_cell_angle_beta   90.35895994
_cell_angle_gamma   90.00000000
_symmetry_Int_Tables_number   1
_chemical_formula_structural   Ba2Mn(PO4)2
_chemical_formula_sum   'Ba8 Mn4 P8 O32'
_cell_volume   811.58916500
_cell_formula_units_Z   4
loop_
 _symmetry_equiv_pos_site_id
 _symmetry_equiv_pos_as_xyz
  1  'x, y, z'
loop_
 _atom_site_type_symbol
 _atom_site_label
 _atom_site_symmetry_multiplicity
 _atom_site_fract_x
 _atom_site_fract_y
 _atom_site_fract_z
 _atom_site_occupancy
  Ba  Ba0  1  0.23982100  0.65739300  0.77042500  1
  Ba  Ba1  1  0.26017900  0.15739400  0.72957500  1
  Ba  Ba2  1  0.76017800  0.34260700  0.22957500  1
  Ba  Ba3  1  0.73982200  0.84260600  0.27042500  1
  Ba  Ba4  1  0.79629500  0.20212800  0.47947100  1
  Ba  Ba5  1  0.70370500  0.70212900  0.02052900  1
  Ba  Ba6  1  0.20370600  0.79787100  0.52052900  1
  Ba  Ba7  1  0.29629400  0.29787100  0.97947100  1
  Mn  Mn0  1  0.76830100  0.01787300  0.86436700  1
  Mn  Mn1  1  0.73169800  0.51787300  0.63563300  1
  Mn  Mn2  1  0.26830300  0.48212700  0.36436800  1
  Mn  Mn3  1  0.23169800  0.98212700  0.13563300  1
  P  P0  1  0.74145100  0.89592400  0.66302700  1
  P  P1  1  0.75854900  0.39592400  0.83697300  1
  P  P2  1  0.25855000  0.10407700  0.33697300  1
  P  P3  1  0.24145000  0.60407600  0.16302700  1
  P  P4  1  0.23972800  0.90460800  0.92208600  1
  P  P5  1  0.73972900  0.59539200  0.42208600  1
  P  P6  1  0.76027100  0.09539200  0.07791400  1
  P  P7  1  0.26027200  0.40460800  0.57791400  1
  O  O0  1  0.83753600  0.98946100  0.73649800  1
  O  O1  1  0.66246400  0.48946000  0.76350200  1
  O  O2  1  0.16246400  0.01053900  0.26350100  1
  O  O3  1  0.33753700  0.51053900  0.23649800  1
  O  O4  1  0.45353000  0.88761500  0.66577300  1
  O  O5  1  0.04647000  0.38761400  0.83422700  1
  O  O6  1  0.54646900  0.11238600  0.33422600  1
  O  O7  1  0.95353100  0.61238600  0.16577400  1
  O  O8  1  0.85849200  0.73905600  0.66963200  1
  O  O9  1  0.64150900  0.23905600  0.83036800  1
  O  O10  1  0.14150900  0.26094400  0.33036800  1
  O  O11  1  0.35849200  0.76094500  0.16963200  1
  O  O12  1  0.82883200  0.96762300  0.58231100  1
  O  O13  1  0.67117000  0.46762200  0.91768900  1
  O  O14  1  0.17116900  0.03237800  0.41768900  1
  O  O15  1  0.32883100  0.53237700  0.08231100  1
  O  O16  1  0.47686100  0.85167700  0.87650400  1
  O  O17  1  0.02313700  0.35167800  0.62349600  1
  O  O18  1  0.52313800  0.14832300  0.12349600  1
  O  O19  1  0.97686200  0.64832200  0.37650400  1
  O  O20  1  0.79037900  0.59804300  0.51404100  1
  O  O21  1  0.70962100  0.09804400  0.98595900  1
  O  O22  1  0.20962200  0.40195600  0.48595900  1
  O  O23  1  0.29037800  0.90195600  0.01404100  1
  O  O24  1  0.52082900  0.69858800  0.39930000  1
  O  O25  1  0.97917000  0.19858800  0.10070000  1
  O  O26  1  0.16878200  0.06000100  0.88896200  1
  O  O27  1  0.02082900  0.80141200  0.89929900  1
  O  O28  1  0.66878300  0.43999900  0.38896200  1
  O  O29  1  0.83121700  0.93999900  0.11103800  1
  O  O30  1  0.33121800  0.56000100  0.61103800  1
  O  O31  1  0.47917000  0.30141200  0.60070100  1
loop_
_geom_bond_atom_site_label_1
_geom_bond_atom_site_label_2
_geom_bond_distance
_geom_bond_site_symmetry_2
Ba0 O8 2.742236 1_455
Ba0 O1 2.755861 1_555
Ba0 O27 2.766280 1_555
Ba0 O16 2.792685 1_555
Ba0 O30 2.814162 1_555
Ba0 O5 2.873989 1_555
Ba0 O4 2.954777 1_555
Ba1 O9 2.742238 1_555
Ba1 O0 2.755861 1_445
Ba1 O31 2.766273 1_555
Ba1 O17 2.792690 1_555
Ba1 O26 2.814165 1_555
Ba1 O4 2.873989 1_545
Ba1 O5 2.954764 1_555
Ba2 O10 2.742245 1_655
Ba2 O3 2.755847 1_555
Ba2 O25 2.766293 1_555
Ba2 O18 2.792685 1_555
Ba2 O28 2.814160 1_555
Ba2 O7 2.873986 1_555
Ba2 O6 2.954760 1_555
Ba3 O11 2.742236 1_555
Ba3 O2 2.755858 1_665
Ba3 O24 2.766291 1_555
Ba3 O19 2.792685 1_555
Ba3 O29 2.814163 1_555
Ba3 O6 2.873994 1_565
Ba3 O7 2.954754 1_555
Ba4 O28 2.717020 1_555
Ba4 O12 2.731025 1_545
Ba4 O14 2.751592 1_655
Ba4 O31 2.789920 1_555
Ba4 O6 2.857075 1_555
Ba4 O22 2.886821 1_655
Ba4 O17 2.989992 1_655
Ba4 O10 3.138347 1_655
Ba5 O29 2.717013 1_555
Ba5 O13 2.731038 1_554
Ba5 O15 2.751602 1_555
Ba5 O27 2.789913 1_654
Ba5 O7 2.857078 1_555
Ba5 O23 2.886815 1_555
Ba5 O16 2.989988 1_554
Ba5 O11 3.138343 1_555
Ba6 O30 2.717013 1_555
Ba6 O14 2.731039 1_565
Ba6 O12 2.751602 1_455
Ba6 O24 2.789898 1_555
Ba6 O4 2.857062 1_555
Ba6 O20 2.886821 1_455
Ba6 O19 2.989992 1_455
Ba6 O8 3.138345 1_455
Ba7 O26 2.717013 1_555
Ba7 O15 2.731032 1_556
Ba7 O13 2.751605 1_555
Ba7 O25 2.789902 1_456
Ba7 O5 2.857059 1_555
Ba7 O21 2.886815 1_555
Ba7 O18 2.989988 1_556
Ba7 O9 3.138348 1_555
Mn0 O0 2.153854 1_545
Mn0 O21 2.154371 1_555
Mn0 O16 2.197422 1_545
Mn0 O9 2.201225 1_555
Mn0 O26 2.236054 1_655
Mn0 O27 2.466490 1_645
Mn1 O1 2.153854 1_555
Mn1 O20 2.154369 1_555
Mn1 O17 2.197412 1_655
Mn1 O8 2.201229 1_555
Mn1 O30 2.236048 1_555
Mn1 O31 2.466490 1_555
Mn2 O3 2.153869 1_555
Mn2 O22 2.154356 1_555
Mn2 O19 2.197418 1_455
Mn2 O10 2.201233 1_555
Mn2 O28 2.236045 1_555
Mn2 O24 2.466484 1_555
Mn3 O2 2.153837 1_565
Mn3 O23 2.154371 1_555
Mn3 O18 2.197422 1_565
Mn3 O11 2.201220 1_555
Mn3 O29 2.236054 1_455
Mn3 O25 2.466494 1_465
O0 P0 1.565149 1_555
O1 P1 1.565144 1_555
O2 P2 1.565168 1_555
O3 P3 1.565152 1_555
O4 P0 1.561365 1_555
O5 P1 1.561365 1_455
O6 P2 1.561355 1_555
O7 P3 1.561355 1_655
O8 P0 1.567736 1_555
O9 P1 1.567733 1_555
O10 P2 1.567727 1_555
O11 P3 1.567746 1_555
O12 P0 1.555889 1_555
O13 P1 1.555881 1_555
O14 P2 1.555889 1_555
O15 P3 1.555889 1_555
O16 P4 1.566717 1_555
O17 P7 1.566723 1_555
O18 P6 1.566717 1_555
O19 P5 1.566714 1_555
O20 P5 1.535330 1_555
O21 P6 1.535330 1_556
O22 P7 1.535330 1_555
O23 P4 1.535330 1_554
O24 P5 1.556979 1_555
O25 P6 1.556975 1_555
O26 P4 1.564847 1_545
O27 P4 1.556979 1_555
O28 P5 1.564847 1_555
O29 P6 1.564847 1_565
O30 P7 1.564847 1_555
O31 P7 1.556975 1_555
