# generated using pymatgen
data_Cs
_symmetry_space_group_name_H-M   'P 1'
_cell_length_a   10.95426374
_cell_length_b   18.41417986
_cell_length_c   19.80575834
_cell_angle_alpha   90.00000000
_cell_angle_beta   90.00000000
_cell_angle_gamma   90.00000000
_symmetry_Int_Tables_number   1
_chemical_formula_structural   Cs
_chemical_formula_sum   Cs32
_cell_volume   3995.09443484
_cell_formula_units_Z   32
loop_
 _symmetry_equiv_pos_site_id
 _symmetry_equiv_pos_as_xyz
  1  'x, y, z'
loop_
 _atom_site_type_symbol
 _atom_site_label
 _atom_site_symmetry_multiplicity
 _atom_site_fract_x
 _atom_site_fract_y
 _atom_site_fract_z
 _atom_site_occupancy
  Cs  Cs0_0  1  0.36768405  0.37500000  0.19650688  1
  Cs  Cs0_1  1  0.36768405  0.37500000  0.69650688  1
  Cs  Cs0_2  1  0.36768405  0.87500000  0.19650688  1
  Cs  Cs0_3  1  0.36768405  0.87500000  0.69650688  1
  Cs  Cs0_4  1  0.86768405  0.37500000  0.19650688  1
  Cs  Cs0_5  1  0.86768405  0.37500000  0.69650688  1
  Cs  Cs0_6  1  0.86768405  0.87500000  0.19650688  1
  Cs  Cs0_7  1  0.86768405  0.87500000  0.69650688  1
  Cs  Cs1_0  1  0.13231595  0.12500000  0.30349312  1
  Cs  Cs1_1  1  0.13231595  0.12500000  0.80349312  1
  Cs  Cs1_2  1  0.13231595  0.62500000  0.30349312  1
  Cs  Cs1_3  1  0.13231595  0.62500000  0.80349312  1
  Cs  Cs1_4  1  0.63231595  0.12500000  0.30349312  1
  Cs  Cs1_5  1  0.63231595  0.12500000  0.80349312  1
  Cs  Cs1_6  1  0.63231595  0.62500000  0.30349312  1
  Cs  Cs1_7  1  0.63231595  0.62500000  0.80349312  1
  Cs  Cs2_0  1  0.36768405  0.12500000  0.05349312  1
  Cs  Cs2_1  1  0.36768405  0.12500000  0.55349312  1
  Cs  Cs2_2  1  0.36768405  0.62500000  0.05349312  1
  Cs  Cs2_3  1  0.36768405  0.62500000  0.55349312  1
  Cs  Cs2_4  1  0.86768405  0.12500000  0.05349312  1
  Cs  Cs2_5  1  0.86768405  0.12500000  0.55349312  1
  Cs  Cs2_6  1  0.86768405  0.62500000  0.05349312  1
  Cs  Cs2_7  1  0.86768405  0.62500000  0.55349312  1
  Cs  Cs3_0  1  0.13231595  0.37500000  0.44650688  1
  Cs  Cs3_1  1  0.13231595  0.37500000  0.94650688  1
  Cs  Cs3_2  1  0.13231595  0.87500000  0.44650688  1
  Cs  Cs3_3  1  0.13231595  0.87500000  0.94650688  1
  Cs  Cs3_4  1  0.63231595  0.37500000  0.44650688  1
  Cs  Cs3_5  1  0.63231595  0.37500000  0.94650688  1
  Cs  Cs3_6  1  0.63231595  0.87500000  0.44650688  1
  Cs  Cs3_7  1  0.63231595  0.87500000  0.94650688  1
loop_
_geom_bond_atom_site_label_1
_geom_bond_atom_site_label_2
_geom_bond_distance
_geom_bond_site_symmetry_2
Cs0_0 Cs2_0 5.405151 1_555
Cs0_0 Cs2_2 5.405151 1_555
Cs0_0 Cs0_4 5.477132 1_555
Cs0_0 Cs0_4 5.477132 1_455
Cs0_0 Cs3_1 5.582500 1_554
Cs0_0 Cs3_0 5.582500 1_555
Cs0_1 Cs2_1 5.405151 1_555
Cs0_1 Cs2_3 5.405151 1_555
Cs0_1 Cs0_5 5.477132 1_555
Cs0_1 Cs0_5 5.477132 1_455
Cs0_1 Cs3_0 5.582500 1_555
Cs0_1 Cs3_1 5.582500 1_555
Cs0_2 Cs2_2 5.405151 1_555
Cs0_2 Cs2_0 5.405151 1_565
Cs0_2 Cs0_6 5.477132 1_555
Cs0_2 Cs0_6 5.477132 1_455
Cs0_2 Cs3_3 5.582500 1_554
Cs0_2 Cs3_2 5.582500 1_555
Cs0_3 Cs2_3 5.405151 1_555
Cs0_3 Cs2_1 5.405151 1_565
Cs0_3 Cs0_7 5.477132 1_555
Cs0_3 Cs0_7 5.477132 1_455
Cs0_3 Cs3_2 5.582500 1_555
Cs0_3 Cs3_3 5.582500 1_555
Cs0_4 Cs2_4 5.405151 1_555
Cs0_4 Cs2_6 5.405151 1_555
Cs0_4 Cs3_5 5.582500 1_554
Cs0_4 Cs3_4 5.582500 1_555
Cs0_5 Cs2_5 5.405151 1_555
Cs0_5 Cs2_7 5.405151 1_555
Cs0_5 Cs3_4 5.582500 1_555
Cs0_5 Cs3_5 5.582500 1_555
Cs0_6 Cs2_6 5.405151 1_555
Cs0_6 Cs2_4 5.405151 1_565
Cs0_6 Cs3_7 5.582500 1_554
Cs0_6 Cs3_6 5.582500 1_555
Cs0_7 Cs2_7 5.405151 1_555
Cs0_7 Cs2_5 5.405151 1_565
Cs0_7 Cs3_6 5.582500 1_555
Cs0_7 Cs3_7 5.582500 1_555
Cs1_0 Cs3_0 5.405151 1_555
Cs1_0 Cs3_2 5.405151 1_545
Cs1_0 Cs1_4 5.477132 1_555
Cs1_0 Cs1_4 5.477132 1_455
Cs1_0 Cs2_0 5.582500 1_555
Cs1_0 Cs2_1 5.582500 1_555
Cs1_1 Cs3_1 5.405151 1_555
Cs1_1 Cs3_3 5.405151 1_545
Cs1_1 Cs1_5 5.477132 1_555
Cs1_1 Cs1_5 5.477132 1_455
Cs1_1 Cs2_1 5.582500 1_555
Cs1_1 Cs2_0 5.582500 1_556
Cs1_2 Cs3_2 5.405151 1_555
Cs1_2 Cs3_0 5.405151 1_555
Cs1_2 Cs1_6 5.477132 1_455
Cs1_2 Cs1_6 5.477132 1_555
Cs1_2 Cs2_2 5.582500 1_555
Cs1_2 Cs2_3 5.582500 1_555
Cs1_3 Cs3_3 5.405151 1_555
Cs1_3 Cs3_1 5.405151 1_555
Cs1_3 Cs1_7 5.477132 1_455
Cs1_3 Cs1_7 5.477132 1_555
Cs1_3 Cs2_3 5.582500 1_555
Cs1_3 Cs2_2 5.582500 1_556
Cs1_4 Cs3_4 5.405151 1_555
Cs1_4 Cs3_6 5.405151 1_545
Cs1_4 Cs2_4 5.582500 1_555
Cs1_4 Cs2_5 5.582500 1_555
Cs1_5 Cs3_5 5.405151 1_555
Cs1_5 Cs3_7 5.405151 1_545
Cs1_5 Cs2_4 5.582500 1_556
Cs1_5 Cs2_5 5.582500 1_555
Cs1_6 Cs3_6 5.405151 1_555
Cs1_6 Cs3_4 5.405151 1_555
Cs1_6 Cs2_6 5.582500 1_555
Cs1_6 Cs2_7 5.582500 1_555
Cs1_7 Cs3_7 5.405151 1_555
Cs1_7 Cs3_5 5.405151 1_555
Cs1_7 Cs2_7 5.582500 1_555
Cs1_7 Cs2_6 5.582500 1_556
Cs2_0 Cs2_4 5.477132 1_555
Cs2_0 Cs2_4 5.477132 1_455
Cs2_1 Cs2_5 5.477132 1_555
Cs2_1 Cs2_5 5.477132 1_455
Cs2_2 Cs2_6 5.477132 1_555
Cs2_2 Cs2_6 5.477132 1_455
Cs2_3 Cs2_7 5.477132 1_555
Cs2_3 Cs2_7 5.477132 1_455
Cs3_0 Cs3_4 5.477132 1_555
Cs3_0 Cs3_4 5.477132 1_455
Cs3_1 Cs3_5 5.477132 1_555
Cs3_1 Cs3_5 5.477132 1_455
Cs3_2 Cs3_6 5.477132 1_555
Cs3_2 Cs3_6 5.477132 1_455
Cs3_3 Cs3_7 5.477132 1_555
Cs3_3 Cs3_7 5.477132 1_455
