# generated using pymatgen
data_ErCdNi4
_symmetry_space_group_name_H-M   'P 1'
_cell_length_a   4.90046825
_cell_length_b   4.90046825
_cell_length_c   4.90046538
_cell_angle_alpha   59.99995150
_cell_angle_beta   59.99996115
_cell_angle_gamma   59.99997088
_symmetry_Int_Tables_number   1
_chemical_formula_structural   ErCdNi4
_chemical_formula_sum   'Er1 Cd1 Ni4'
_cell_volume   83.21413528
_cell_formula_units_Z   1
loop_
 _symmetry_equiv_pos_site_id
 _symmetry_equiv_pos_as_xyz
  1  'x, y, z'
loop_
 _atom_site_type_symbol
 _atom_site_label
 _atom_site_symmetry_multiplicity
 _atom_site_fract_x
 _atom_site_fract_y
 _atom_site_fract_z
 _atom_site_occupancy
  Er  Er0  1  0.25000000  0.25000000  0.25000000  1
  Cd  Cd0  1  0.00000000  0.00000000  -0.00000000  1
  Ni  Ni0  1  0.62595057  0.62594957  0.12214928  1
  Ni  Ni1  1  0.62594957  0.12214928  0.62594957  1
  Ni  Ni2  1  0.12214928  0.62595057  0.62595057  1
  Ni  Ni3  1  0.62594957  0.62595057  0.62595057  1
loop_
_geom_bond_atom_site_label_1
_geom_bond_atom_site_label_2
_geom_bond_distance
_geom_bond_site_symmetry_2
Er0 Ni1 2.875155 1_555
Er0 Ni3 2.875157 1_554
Er0 Ni2 2.875158 1_554
Er0 Ni3 2.875158 1_545
Er0 Ni2 2.875159 1_545
Er0 Ni0 2.875159 1_455
Er0 Ni0 2.875160 1_555
Er0 Ni1 2.875162 1_554
Er0 Ni3 2.875163 1_455
Er0 Ni1 2.875163 1_455
Er0 Ni0 2.875164 1_545
Er0 Ni2 2.875164 1_555
Cd0 Ni1 2.871185 1_455
Cd0 Ni3 2.871186 1_544
Cd0 Ni1 2.871187 1_554
Cd0 Ni0 2.871187 1_455
Cd0 Ni2 2.871187 1_544
Cd0 Ni3 2.871189 1_445
Cd0 Ni2 2.871189 1_545
Cd0 Ni3 2.871190 1_454
Cd0 Ni2 2.871191 1_554
Cd0 Ni0 2.871191 1_545
Cd0 Ni0 2.871192 1_445
Cd0 Ni1 2.871195 1_454
Cd0 Er0 3.000908 1_554
Cd0 Er0 3.000910 1_545
Cd0 Er0 3.000911 1_455
Cd0 Er0 3.000912 1_555
Ni0 Ni2 2.431604 1_654
Ni0 Ni3 2.431605 1_554
Ni0 Ni1 2.431608 1_564
Ni0 Ni1 2.468855 1_555
Ni0 Ni2 2.468860 1_555
Ni0 Ni3 2.468861 1_555
Ni1 Ni3 2.431604 1_545
Ni1 Ni2 2.431607 1_645
Ni1 Ni2 2.468859 1_555
Ni1 Ni3 2.468865 1_555
Ni2 Ni3 2.431611 1_455
Ni2 Ni3 2.468857 1_555
