# generated using pymatgen
data_KBa3(FeAs)8
_symmetry_space_group_name_H-M   'P 1'
_cell_length_a   7.16214663
_cell_length_b   8.71998441
_cell_length_c   7.85870086
_cell_angle_alpha   64.32572570
_cell_angle_beta   73.72604981
_cell_angle_gamma   97.22124286
_symmetry_Int_Tables_number   1
_chemical_formula_structural   KBa3(FeAs)8
_chemical_formula_sum   'K1 Ba3 Fe8 As8'
_cell_volume   406.93625192
_cell_formula_units_Z   1
loop_
 _symmetry_equiv_pos_site_id
 _symmetry_equiv_pos_as_xyz
  1  'x, y, z'
loop_
 _atom_site_type_symbol
 _atom_site_label
 _atom_site_symmetry_multiplicity
 _atom_site_fract_x
 _atom_site_fract_y
 _atom_site_fract_z
 _atom_site_occupancy
  K  K0  1  0.00000000  0.00000000  0.00000000  1
  Ba  Ba0  1  0.99995500  0.49356000  0.75338500  1
  Ba  Ba1  1  0.00000000  0.00000000  0.50000000  1
  Ba  Ba2  1  0.00004500  0.50644000  0.24661500  1
  Fe  Fe0  1  0.50030900  0.62524400  0.31307400  1
  Fe  Fe1  1  0.50054100  0.62532900  0.81352200  1
  Fe  Fe2  1  0.49976100  0.12478900  0.06233600  1
  Fe  Fe3  1  0.49970100  0.12481700  0.56245600  1
  Fe  Fe4  1  0.49969100  0.37475600  0.68692600  1
  Fe  Fe5  1  0.49945900  0.37467100  0.18647800  1
  Fe  Fe6  1  0.50029900  0.87518300  0.43754400  1
  Fe  Fe7  1  0.50023900  0.87521100  0.93766400  1
  As  As0  1  0.30280000  0.32707600  0.50959600  1
  As  As1  1  0.30211800  0.32758700  0.01125100  1
  As  As2  1  0.30052500  0.82364300  0.26395500  1
  As  As3  1  0.30095600  0.82385300  0.76273900  1
  As  As4  1  0.69720000  0.67292400  0.49040400  1
  As  As5  1  0.69788200  0.67241300  0.98874900  1
  As  As6  1  0.69904400  0.17614700  0.23726100  1
  As  As7  1  0.69947500  0.17635700  0.73604500  1
loop_
_geom_bond_atom_site_label_1
_geom_bond_atom_site_label_2
_geom_bond_distance
_geom_bond_site_symmetry_2
As0 Fe0 2.349003 1_555
As0 Fe5 2.353596 1_555
As0 Fe4 2.357873 1_555
As0 Fe3 2.364470 1_555
As0 Ba0 3.369775 1_455
As0 Ba1 3.400945 1_555
As0 K0 3.453505 1_556
As0 Ba2 3.461596 1_555
As1 Fe5 2.344645 1_555
As1 Fe1 2.348175 1_554
As1 Fe4 2.364674 1_554
As1 Fe2 2.371671 1_555
As1 Ba0 3.404228 1_454
As1 K0 3.409099 1_555
As1 Ba2 3.411650 1_555
As1 Ba1 3.446101 1_555
As2 Fe0 2.354292 1_555
As2 Fe6 2.360880 1_555
As2 Fe7 2.367896 1_554
As2 Fe2 2.372333 1_565
As2 Ba2 3.360843 1_555
As2 Ba1 3.391914 1_565
As2 K0 3.445435 1_565
As2 Ba0 3.452755 1_455
As3 Fe1 2.354276 1_555
As3 Fe6 2.360738 1_555
As3 Fe7 2.366413 1_555
As3 Fe3 2.369998 1_565
As3 K0 3.397575 1_566
As3 Ba2 3.398946 1_556
As3 Ba0 3.414601 1_455
As3 Ba1 3.442004 1_565
As4 Fe4 2.349003 1_555
As4 Fe1 2.353596 1_555
As4 Fe0 2.357873 1_555
As4 Fe6 2.364470 1_555
As4 Ba2 3.369775 1_655
As4 Ba1 3.400945 1_665
As4 K0 3.453505 1_665
As4 Ba0 3.461596 1_555
As5 Fe1 2.344645 1_555
As5 Fe5 2.348175 1_556
As5 Fe0 2.364674 1_556
As5 Fe7 2.371671 1_555
As5 Ba2 3.404228 1_656
As5 K0 3.409099 1_666
As5 Ba0 3.411650 1_555
As5 Ba1 3.446101 1_665
As6 Fe5 2.354276 1_555
As6 Fe3 2.360738 1_555
As6 Fe2 2.366413 1_555
As6 Fe6 2.369998 1_545
As6 K0 3.397575 1_655
As6 Ba0 3.398946 1_554
As6 Ba2 3.414601 1_655
As6 Ba1 3.442004 1_655
As7 Fe4 2.354292 1_555
As7 Fe3 2.360880 1_555
As7 Fe2 2.367896 1_556
As7 Fe7 2.372333 1_545
As7 Ba0 3.360843 1_555
As7 Ba1 3.391914 1_655
As7 K0 3.445435 1_656
As7 Ba2 3.452755 1_655
