# generated using pymatgen
data_YCoO3
_symmetry_space_group_name_H-M   'P 1'
_cell_length_a   3.63088779
_cell_length_b   3.63088779
_cell_length_c   11.21973600
_cell_angle_alpha   90.00000000
_cell_angle_beta   90.00000000
_cell_angle_gamma   119.99999611
_symmetry_Int_Tables_number   1
_chemical_formula_structural   YCoO3
_chemical_formula_sum   'Y2 Co2 O6'
_cell_volume   128.09699479
_cell_formula_units_Z   2
loop_
 _symmetry_equiv_pos_site_id
 _symmetry_equiv_pos_as_xyz
  1  'x, y, z'
loop_
 _atom_site_type_symbol
 _atom_site_label
 _atom_site_symmetry_multiplicity
 _atom_site_fract_x
 _atom_site_fract_y
 _atom_site_fract_z
 _atom_site_occupancy
  Y  Y0  1  0.00000000  0.00000000  0.50000000  1
  Y  Y1  1  0.00000000  0.00000000  0.00000000  1
  Co  Co0  1  0.66666700  0.33333300  0.75000000  1
  Co  Co1  1  0.33333300  0.66666700  0.25000000  1
  O  O0  1  0.33333300  0.66666700  0.41585100  1
  O  O1  1  0.66666700  0.33333300  0.91585100  1
  O  O2  1  0.66666700  0.33333300  0.58414900  1
  O  O3  1  0.33333300  0.66666700  0.08414900  1
  O  O4  1  0.00000000  0.00000000  0.25000000  1
  O  O5  1  0.00000000  0.00000000  0.75000000  1
loop_
_geom_bond_atom_site_label_1
_geom_bond_atom_site_label_2
_geom_bond_distance
_geom_bond_site_symmetry_2
Co0 O1 1.860804 1_555
Co0 O2 1.860804 1_555
Co0 O5 2.096292 1_655
Co0 O5 2.096295 1_665
Co0 O5 2.096295 1_555
Co1 O0 1.860804 1_555
Co1 O3 1.860804 1_555
Co1 O4 2.096292 1_565
Co1 O4 2.096295 1_665
Co1 O4 2.096295 1_555
O0 Y0 2.299091 1_565
O0 Y0 2.299094 1_665
O0 Y0 2.299094 1_555
O1 Y1 2.299091 1_656
O1 Y1 2.299094 1_666
O1 Y1 2.299094 1_556
O2 Y0 2.299091 1_655
O2 Y0 2.299094 1_665
O2 Y0 2.299094 1_555
O3 Y1 2.299091 1_565
O3 Y1 2.299094 1_665
O3 Y1 2.299094 1_555
O4 Y1 2.804934 1_555
O4 Y0 2.804934 1_555
O5 Y1 2.804934 1_556
O5 Y0 2.804934 1_555
