# generated using pymatgen
data_Ba2LiY2(Fe2O5)2
_symmetry_space_group_name_H-M   'P 1'
_cell_length_a   3.72793800
_cell_length_b   9.24516207
_cell_length_c   7.92409126
_cell_angle_alpha   89.39475915
_cell_angle_beta   90.00000000
_cell_angle_gamma   90.00000000
_symmetry_Int_Tables_number   1
_chemical_formula_structural   Ba2LiY2(Fe2O5)2
_chemical_formula_sum   'Ba2 Li1 Y2 Fe4 O10'
_cell_volume   273.09166645
_cell_formula_units_Z   1
loop_
 _symmetry_equiv_pos_site_id
 _symmetry_equiv_pos_as_xyz
  1  'x, y, z'
loop_
 _atom_site_type_symbol
 _atom_site_label
 _atom_site_symmetry_multiplicity
 _atom_site_fract_x
 _atom_site_fract_y
 _atom_site_fract_z
 _atom_site_occupancy
  Ba  Ba0  1  0.00000000  0.04023400  0.51178400  1
  Ba  Ba1  1  0.00000000  0.95409700  0.01941900  1
  Li  Li0  1  0.00000000  0.28804100  0.98039000  1
  Y  Y0  1  0.00000000  0.57201400  0.96634600  1
  Y  Y1  1  0.00000000  0.45697900  0.48387600  1
  Fe  Fe0  1  0.49999900  0.70444300  0.27563900  1
  Fe  Fe1  1  0.49999900  0.28346900  0.75901500  1
  Fe  Fe2  1  0.49999900  0.27056500  0.22061900  1
  Fe  Fe3  1  0.49999900  0.73777800  0.69775900  1
  O  O0  1  0.49999900  0.60306200  0.50607700  1
  O  O1  1  0.49999900  0.29227600  0.47852900  1
  O  O2  1  0.49999900  0.71685900  0.01611600  1
  O  O3  1  0.49999900  0.39673700  0.01109300  1
  O  O4  1  0.00000000  0.75635000  0.75147800  1
  O  O5  1  0.00000000  0.20067100  0.20076800  1
  O  O6  1  0.00000000  0.61296000  0.25055700  1
  O  O7  1  0.00000000  0.39588300  0.75594700  1
  O  O8  1  0.49999900  0.90238300  0.31943700  1
  O  O9  1  0.49999900  0.07353100  0.79515000  1
loop_
_geom_bond_atom_site_label_1
_geom_bond_atom_site_label_2
_geom_bond_distance
_geom_bond_site_symmetry_2
Ba0 O8 2.731803 1_545
Ba0 O8 2.731808 1_445
Ba0 O5 2.862989 1_555
Ba0 O9 2.936943 1_555
Ba0 O9 2.936948 1_455
Ba0 O1 2.993413 1_555
Ba0 O1 2.993418 1_455
Ba0 O4 3.223434 1_545
Ba1 O5 2.707564 1_565
Ba1 O9 2.794695 1_564
Ba1 O9 2.794700 1_464
Ba1 O4 2.816427 1_554
Ba1 O2 2.878688 1_555
Ba1 O2 2.878693 1_455
Ba1 O8 3.054640 1_555
Ba1 O8 3.054645 1_455
Li0 O5 1.916300 1_556
Li0 O7 2.029696 1_555
Li0 O3 2.132738 1_556
Li0 O3 2.132745 1_456
Fe0 O8 1.866205 1_555
Fe0 O0 2.043688 1_555
Fe0 O6 2.057366 1_555
Fe0 O6 2.057373 1_655
Fe0 O2 2.058474 1_555
Fe1 O9 1.958924 1_555
Fe1 O7 2.134136 1_555
Fe1 O7 2.134143 1_655
Fe1 O1 2.223228 1_555
Fe1 O3 2.265114 1_556
Fe2 O5 1.979598 1_555
Fe2 O5 1.979605 1_655
Fe2 O3 2.019002 1_555
Fe2 O1 2.055645 1_555
Fe3 O4 1.920050 1_555
Fe3 O4 1.920057 1_655
Fe3 O0 1.974396 1_555
Fe3 O2 2.528055 1_556
O0 Y1 2.309621 1_555
O0 Y1 2.309627 1_655
O1 Y1 2.407521 1_555
O1 Y1 2.407527 1_655
O2 Y0 2.331157 1_554
O2 Y0 2.331163 1_654
O3 Y0 2.492761 1_554
O3 Y0 2.492767 1_654
O4 Y0 2.396250 1_555
O6 Y0 2.287647 1_554
O6 Y1 2.332692 1_555
O7 Y1 2.222902 1_555
O7 Y0 2.342762 1_555
