# generated using pymatgen
data_CeZr7O16
_symmetry_space_group_name_H-M   'P 1'
_cell_length_a   7.35295900
_cell_length_b   7.35295900
_cell_length_c   5.33225600
_cell_angle_alpha   90.00000000
_cell_angle_beta   90.00000000
_cell_angle_gamma   90.00000000
_symmetry_Int_Tables_number   1
_chemical_formula_structural   CeZr7O16
_chemical_formula_sum   'Ce1 Zr7 O16'
_cell_volume   288.29378519
_cell_formula_units_Z   1
loop_
 _symmetry_equiv_pos_site_id
 _symmetry_equiv_pos_as_xyz
  1  'x, y, z'
loop_
 _atom_site_type_symbol
 _atom_site_label
 _atom_site_symmetry_multiplicity
 _atom_site_fract_x
 _atom_site_fract_y
 _atom_site_fract_z
 _atom_site_occupancy
  Ce  Ce0  1  0.00000000  0.00000000  0.00000000  1
  Zr  Zr0  1  0.74797800  0.25202200  0.50000000  1
  Zr  Zr1  1  0.50000000  0.00000000  0.99935000  1
  Zr  Zr2  1  0.25202200  0.25202200  0.50000000  1
  Zr  Zr3  1  0.00000000  0.50000000  0.00065000  1
  Zr  Zr4  1  0.74797800  0.74797800  0.50000000  1
  Zr  Zr5  1  0.50000000  0.50000000  0.00000000  1
  Zr  Zr6  1  0.25202200  0.74797800  0.50000000  1
  O  O0  1  0.00000000  0.26534600  0.78555700  1
  O  O1  1  0.75153900  0.00000000  0.69894800  1
  O  O2  1  0.73465400  0.00000000  0.21444300  1
  O  O3  1  0.00000000  0.24846100  0.30105200  1
  O  O4  1  0.50000000  0.24486800  0.80887700  1
  O  O5  1  0.24846100  0.00000000  0.69894800  1
  O  O6  1  0.26534600  0.00000000  0.21444300  1
  O  O7  1  0.50000000  0.26750200  0.30848800  1
  O  O8  1  0.00000000  0.73465400  0.78555700  1
  O  O9  1  0.73249800  0.50000000  0.69151200  1
  O  O10  1  0.75513200  0.50000000  0.19112300  1
  O  O11  1  0.00000000  0.75153900  0.30105200  1
  O  O12  1  0.50000000  0.75513200  0.80887700  1
  O  O13  1  0.26750200  0.50000000  0.69151200  1
  O  O14  1  0.24486800  0.50000000  0.19112300  1
  O  O15  1  0.50000000  0.73249800  0.30848800  1
loop_
_geom_bond_atom_site_label_1
_geom_bond_atom_site_label_2
_geom_bond_distance
_geom_bond_site_symmetry_2
Ce0 O8 2.261464 1_544
Ce0 O2 2.261464 1_455
Ce0 O0 2.261464 1_554
Ce0 O6 2.261464 1_555
Ce0 O5 2.431994 1_554
Ce0 O1 2.431994 1_454
Ce0 O3 2.431994 1_555
Ce0 O11 2.431994 1_545
O0 Zr3 2.071825 1_556
O0 Zr0 2.400439 1_455
O0 Zr2 2.400439 1_555
O1 Zr4 2.135434 1_545
O1 Zr0 2.135434 1_555
O1 Zr1 2.446770 1_555
O2 Zr1 2.071825 1_554
O2 Zr4 2.400439 1_545
O2 Zr0 2.400439 1_555
O3 Zr0 2.135434 1_455
O3 Zr2 2.135434 1_555
O3 Zr3 2.446770 1_555
O4 Zr1 2.067211 1_555
O4 Zr5 2.134920 1_556
O4 Zr2 2.457661 1_555
O4 Zr0 2.457661 1_555
O5 Zr6 2.135434 1_545
O5 Zr2 2.135434 1_555
O5 Zr1 2.446770 1_555
O6 Zr1 2.071825 1_554
O6 Zr6 2.400439 1_545
O6 Zr2 2.400439 1_555
O7 Zr2 2.092958 1_555
O7 Zr0 2.092958 1_555
O7 Zr5 2.372419 1_555
O7 Zr1 2.566330 1_554
O8 Zr3 2.071825 1_556
O8 Zr4 2.400439 1_455
O8 Zr6 2.400439 1_555
O9 Zr0 2.092958 1_555
O9 Zr4 2.092958 1_555
O9 Zr5 2.372419 1_556
O9 Zr3 2.566330 1_656
O10 Zr3 2.067211 1_655
O10 Zr5 2.134920 1_555
O10 Zr0 2.457661 1_555
O10 Zr4 2.457661 1_555
O11 Zr4 2.135434 1_455
O11 Zr6 2.135434 1_555
O11 Zr3 2.446770 1_555
O12 Zr1 2.067211 1_565
O12 Zr5 2.134920 1_556
O12 Zr6 2.457661 1_555
O12 Zr4 2.457661 1_555
O13 Zr2 2.092958 1_555
O13 Zr6 2.092958 1_555
O13 Zr5 2.372419 1_556
O13 Zr3 2.566330 1_556
O14 Zr3 2.067211 1_555
O14 Zr5 2.134920 1_555
O14 Zr2 2.457661 1_555
O14 Zr6 2.457661 1_555
O15 Zr6 2.092958 1_555
O15 Zr4 2.092958 1_555
O15 Zr5 2.372419 1_555
O15 Zr1 2.566330 1_564
