# generated using pymatgen
data_Li2MnO2F
_symmetry_space_group_name_H-M   'P 1'
_cell_length_a   4.60658400
_cell_length_b   5.69083300
_cell_length_c   8.71038500
_cell_angle_alpha   90.00049817
_cell_angle_beta   89.99997441
_cell_angle_gamma   89.99995499
_symmetry_Int_Tables_number   1
_chemical_formula_structural   Li2MnO2F
_chemical_formula_sum   'Li8 Mn4 O8 F4'
_cell_volume   228.34535802
_cell_formula_units_Z   4
loop_
 _symmetry_equiv_pos_site_id
 _symmetry_equiv_pos_as_xyz
  1  'x, y, z'
loop_
 _atom_site_type_symbol
 _atom_site_label
 _atom_site_symmetry_multiplicity
 _atom_site_fract_x
 _atom_site_fract_y
 _atom_site_fract_z
 _atom_site_occupancy
  Li  Li0  1  0.73961800  0.12580700  0.42703300  1
  Li  Li1  1  0.73971000  0.12577500  0.07306100  1
  Li  Li2  1  0.23962200  0.37419000  0.57297100  1
  Li  Li3  1  0.23971200  0.37422900  0.92694400  1
  Li  Li4  1  0.76029600  0.62579200  0.07303900  1
  Li  Li5  1  0.76039600  0.62579700  0.42701000  1
  Li  Li6  1  0.26039900  0.87421000  0.57298400  1
  Li  Li7  1  0.26031700  0.87420400  0.92695700  1
  Mn  Mn0  1  0.25085800  0.37581800  0.25006700  1
  Mn  Mn1  1  0.24907700  0.87583600  0.25004400  1
  Mn  Mn2  1  0.75085500  0.12419400  0.74990300  1
  Mn  Mn3  1  0.74911700  0.62416800  0.74998000  1
  O  O0  1  0.25495600  0.12616500  0.09782100  1
  O  O1  1  0.25498600  0.12617900  0.40219700  1
  O  O2  1  0.75496700  0.37384000  0.90218400  1
  O  O3  1  0.75499900  0.37380100  0.59780200  1
  O  O4  1  0.24502900  0.62613100  0.09784300  1
  O  O5  1  0.24500700  0.62611200  0.40215900  1
  O  O6  1  0.74504700  0.87387800  0.59785200  1
  O  O7  1  0.74506000  0.87383400  0.90214700  1
  F  F0  1  0.25014100  0.12369600  0.74997700  1
  F  F1  1  0.75012800  0.37631700  0.25003100  1
  F  F2  1  0.24985700  0.62373600  0.74995400  1
  F  F3  1  0.74984600  0.87629300  0.25003800  1
loop_
_geom_bond_atom_site_label_1
_geom_bond_atom_site_label_2
_geom_bond_distance
_geom_bond_site_symmetry_2
Li0 O3 2.051653 1_555
Li0 O6 2.066389 1_545
Li0 O1 2.242956 1_555
Li0 O1 2.383923 1_655
Li1 O2 2.052611 1_554
Li1 O7 2.067010 1_544
Li1 O0 2.243452 1_555
Li1 O0 2.383303 1_655
Li2 O1 2.051748 1_555
Li2 O5 2.066315 1_555
Li2 O3 2.242910 1_455
Li2 O3 2.383960 1_555
Li3 O0 2.052605 1_556
Li3 O4 2.066760 1_556
Li3 O2 2.243410 1_455
Li3 O2 2.383344 1_555
Li4 O7 2.052612 1_554
Li4 O2 2.066682 1_554
Li4 O4 2.243392 1_655
Li4 O4 2.383434 1_555
Li5 O6 2.052449 1_555
Li5 O3 2.066482 1_555
Li5 O5 2.242872 1_655
Li5 O5 2.384031 1_555
Li6 O5 2.052415 1_555
Li6 O1 2.066345 1_565
Li6 O6 2.243056 1_555
Li6 O6 2.383874 1_455
Li7 O4 2.052704 1_556
Li7 O0 2.066775 1_566
Li7 O7 2.243443 1_555
Li7 O7 2.383393 1_455
Mn0 O1 1.942825 1_555
Mn0 O0 1.943555 1_555
Mn0 O5 1.945404 1_555
Mn0 O4 1.946282 1_555
Mn1 O5 1.943087 1_555
Mn1 O4 1.943501 1_555
Mn1 O1 1.945974 1_565
Mn1 O0 1.946346 1_565
Mn2 O3 1.942521 1_555
Mn2 O2 1.943734 1_555
Mn2 O6 1.945250 1_545
Mn2 O7 1.946594 1_545
Mn3 O6 1.943106 1_555
Mn3 O7 1.943138 1_555
Mn3 O3 1.946220 1_555
Mn3 O2 1.946227 1_555
F0 Li7 2.096315 1_545
F0 Li6 2.096365 1_545
F0 Li3 2.100257 1_555
F0 Li2 2.100383 1_555
F0 Mn2 2.300005 1_455
F0 Mn2 2.306583 1_555
F1 Li5 2.096254 1_555
F1 Li4 2.096325 1_555
F1 Li1 2.100310 1_555
F1 Li0 2.100419 1_555
F1 Mn0 2.299931 1_555
F1 Mn0 2.306657 1_655
F2 Li3 2.096434 1_555
F2 Li2 2.096530 1_555
F2 Li6 2.100078 1_555
F2 Li7 2.100239 1_555
F2 Mn3 2.299884 1_555
F2 Mn3 2.306702 1_455
F3 Li1 2.096253 1_565
F3 Li0 2.096483 1_565
F3 Li5 2.100177 1_555
F3 Li4 2.100340 1_555
F3 Mn1 2.299751 1_655
F3 Mn1 2.306836 1_555
