# generated using pymatgen
data_Li9Mn2Co5O16
_symmetry_space_group_name_H-M   'P 1'
_cell_length_a   3.02171400
_cell_length_b   9.91135008
_cell_length_c   10.22392773
_cell_angle_alpha   73.53380307
_cell_angle_beta   82.53306756
_cell_angle_gamma   87.08755140
_symmetry_Int_Tables_number   1
_chemical_formula_structural   Li9Mn2Co5O16
_chemical_formula_sum   'Li9 Mn2 Co5 O16'
_cell_volume   291.11950610
_cell_formula_units_Z   1
loop_
 _symmetry_equiv_pos_site_id
 _symmetry_equiv_pos_as_xyz
  1  'x, y, z'
loop_
 _atom_site_type_symbol
 _atom_site_label
 _atom_site_symmetry_multiplicity
 _atom_site_fract_x
 _atom_site_fract_y
 _atom_site_fract_z
 _atom_site_occupancy
  Li  Li0  1  0.93747200  0.68066700  0.12314300  1
  Li  Li1  1  0.44018000  0.19083200  0.12819200  1
  Li  Li2  1  0.31551900  0.55982400  0.37424300  1
  Li  Li3  1  0.81566900  0.06396400  0.37519400  1
  Li  Li4  1  0.68356800  0.43855700  0.62593600  1
  Li  Li5  1  0.18447400  0.93824300  0.62511500  1
  Li  Li6  1  0.06339000  0.31781400  0.87505500  1
  Li  Li7  1  0.55996400  0.80965800  0.87243700  1
  Li  Li8  1  0.49991800  0.49952200  0.00021400  1
  Mn  Mn0  1  0.00121300  0.00218800  0.99712400  1
  Mn  Mn1  1  0.37002800  0.87278200  0.25189000  1
  Co  Co0  1  0.88015500  0.38149000  0.24117900  1
  Co  Co1  1  0.74349000  0.74826500  0.50567900  1
  Co  Co2  1  0.25315400  0.24912800  0.49816400  1
  Co  Co3  1  0.11951200  0.61766300  0.76019900  1
  Co  Co4  1  0.63033000  0.12728000  0.74695100  1
  O  O0  1  0.43490600  0.84856800  0.06647200  1
  O  O1  1  0.95472900  0.34373800  0.08306500  1
  O  O2  1  0.80734100  0.72254000  0.32305300  1
  O  O3  1  0.31191400  0.22884500  0.31737700  1
  O  O4  1  0.21890800  0.60131500  0.57533000  1
  O  O5  1  0.72452700  0.10291600  0.56747900  1
  O  O6  1  0.57551100  0.48120300  0.80796200  1
  O  O7  1  0.06483400  0.98157200  0.81235000  1
  O  O8  1  0.42646900  0.51830300  0.19214400  1
  O  O9  1  0.93830300  0.02402000  0.18265400  1
  O  O10  1  0.78169100  0.39759800  0.42573400  1
  O  O11  1  0.27578200  0.89847800  0.43542900  1
  O  O12  1  0.19165500  0.27298500  0.68053600  1
  O  O13  1  0.68718600  0.77084000  0.68389000  1
  O  O14  1  0.56209000  0.15257200  0.92871200  1
  O  O15  1  0.04612000  0.65663100  0.91709800  1
loop_
_geom_bond_atom_site_label_1
_geom_bond_atom_site_label_2
_geom_bond_distance
_geom_bond_site_symmetry_2
Li0 O8 2.157867 1_655
Li0 O15 2.167730 1_654
Li0 O2 2.181661 1_555
Li0 O8 2.190302 1_555
Li0 O0 2.199199 1_555
Li0 O0 2.201266 1_655
Li1 O1 2.053049 1_455
Li1 O3 2.058346 1_555
Li1 O1 2.140959 1_555
Li1 O14 2.160533 1_554
Li1 O9 2.179952 1_555
Li1 O9 2.203825 1_455
Li2 O8 2.001506 1_555
Li2 O10 2.080721 1_555
Li2 O2 2.155543 1_555
Li2 O2 2.170605 1_455
Li2 O4 2.189098 1_555
Li2 O10 2.242192 1_455
Li3 O5 2.090078 1_555
Li3 O9 2.099145 1_555
Li3 O11 2.102541 1_645
Li3 O3 2.177052 1_655
Li3 O3 2.184162 1_555
Li3 O11 2.273558 1_545
Li4 O6 2.005652 1_555
Li4 O4 2.080110 1_555
Li4 O12 2.174162 1_555
Li4 O10 2.177936 1_555
Li4 O12 2.192981 1_655
Li4 O4 2.249715 1_655
Li5 O7 2.061546 1_555
Li5 O11 2.067768 1_555
Li5 O5 2.092806 1_465
Li5 O13 2.196692 1_455
Li5 O13 2.199417 1_555
Li5 O5 2.269283 1_565
Li6 O12 2.141459 1_555
Li6 O6 2.157976 1_455
Li6 O14 2.169978 1_555
Li6 O14 2.191941 1_455
Li6 O1 2.194608 1_456
Li6 O6 2.199260 1_555
Li7 O15 2.054808 1_655
Li7 O13 2.055385 1_555
Li7 O0 2.109750 1_556
Li7 O15 2.140601 1_555
Li7 O7 2.214845 1_555
Li7 O7 2.243927 1_655
Li8 O8 2.006022 1_555
Li8 O6 2.007491 1_554
Li8 O1 2.082248 1_555
Li8 O15 2.088760 1_554
Li8 O1 2.229314 1_455
Li8 O15 2.239957 1_654
Mn0 O7 1.941111 1_545
Mn0 O9 1.953398 1_456
Mn0 O14 1.980086 1_455
Mn0 O0 1.991255 1_546
Mn0 O14 2.222794 1_555
Mn0 O0 2.255363 1_446
Mn1 O11 1.947265 1_555
Mn1 O0 1.961186 1_555
Mn1 O9 1.972211 1_465
Mn1 O2 1.982094 1_555
Mn1 O2 2.226949 1_455
Mn1 O9 2.245166 1_565
Co0 O1 1.744609 1_555
Co0 O8 1.890451 1_555
Co0 O10 1.922070 1_555
Co0 O3 1.998341 1_655
Co0 O8 2.107658 1_655
Co0 O3 2.256609 1_555
Co1 O13 1.882930 1_555
Co1 O2 1.939009 1_555
Co1 O4 2.038985 1_655
Co1 O11 2.042937 1_555
Co1 O4 2.119984 1_555
Co1 O11 2.157865 1_655
Co2 O3 1.900019 1_555
Co2 O12 1.929362 1_555
Co2 O5 2.025207 1_555
Co2 O10 2.046157 1_455
Co2 O5 2.124301 1_455
Co2 O10 2.139666 1_555
Co3 O15 1.738282 1_555
Co3 O6 1.891406 1_555
Co3 O4 1.926140 1_555
Co3 O13 2.003012 1_455
Co3 O6 2.100651 1_455
Co3 O13 2.258616 1_555
Co4 O5 1.901231 1_555
Co4 O14 1.928190 1_555
Co4 O7 1.935093 1_645
Co4 O12 1.946069 1_555
Co4 O12 2.194820 1_655
Co4 O7 2.204308 1_545
