# generated using pymatgen
data_VO
_symmetry_space_group_name_H-M   'P 1'
_cell_length_a   3.12784757
_cell_length_b   5.03074541
_cell_length_c   5.31986896
_cell_angle_alpha   96.34820704
_cell_angle_beta   72.90299510
_cell_angle_gamma   89.99011493
_symmetry_Int_Tables_number   1
_chemical_formula_structural   VO
_chemical_formula_sum   'V4 O4'
_cell_volume   79.47332576
_cell_formula_units_Z   4
loop_
 _symmetry_equiv_pos_site_id
 _symmetry_equiv_pos_as_xyz
  1  'x, y, z'
loop_
 _atom_site_type_symbol
 _atom_site_label
 _atom_site_symmetry_multiplicity
 _atom_site_fract_x
 _atom_site_fract_y
 _atom_site_fract_z
 _atom_site_occupancy
  V  V0  1  0.49901118  0.49167011  0.00200886  1
  V  V1  1  0.75098769  0.75832707  0.49799011  1
  V  V2  1  -0.00098895  -0.00833248  0.00200713  1
  V  V3  1  0.25098906  0.25832999  0.49799300  1
  O  O0  1  0.87499988  0.37500173  0.24999693  1
  O  O1  1  0.12499879  0.62500059  0.75000117  1
  O  O2  1  0.37500318  0.87500120  0.25000276  1
  O  O3  1  0.62499818  0.12500180  0.75000004  1
loop_
_geom_bond_atom_site_label_1
_geom_bond_atom_site_label_2
_geom_bond_distance
_geom_bond_site_symmetry_2
O0 V0 2.133366 1_555
O0 V3 2.133407 1_655
O0 V0 2.133569 1_655
O0 V3 2.133590 1_555
O0 V1 2.178531 1_555
O0 V2 2.178559 1_655
O1 V2 2.120714 1_566
O1 V3 2.120734 1_555
O1 V0 2.176363 1_556
O1 V1 2.176367 1_455
O1 V0 2.176433 1_456
O1 V1 2.176435 1_555
O2 V1 2.133363 1_555
O2 V2 2.133403 1_565
O2 V2 2.133573 1_665
O2 V1 2.133587 1_455
O2 V3 2.178538 1_565
O2 V0 2.178556 1_555
O3 V0 2.120726 1_556
O3 V1 2.120755 1_545
O3 V3 2.176349 1_555
O3 V2 2.176369 1_656
O3 V3 2.176434 1_655
O3 V2 2.176438 1_556
