# generated using pymatgen
data_Ba2Ti3Nb4O18
_symmetry_space_group_name_H-M   'P 1'
_cell_length_a   10.07495900
_cell_length_b   7.51322700
_cell_length_c   10.17062561
_cell_angle_alpha   68.52505706
_cell_angle_beta   90.00000000
_cell_angle_gamma   90.00000000
_symmetry_Int_Tables_number   1
_chemical_formula_structural   Ba2Ti3Nb4O18
_chemical_formula_sum   'Ba4 Ti6 Nb8 O36'
_cell_volume   716.42401456
_cell_formula_units_Z   2
loop_
 _symmetry_equiv_pos_site_id
 _symmetry_equiv_pos_as_xyz
  1  'x, y, z'
loop_
 _atom_site_type_symbol
 _atom_site_label
 _atom_site_symmetry_multiplicity
 _atom_site_fract_x
 _atom_site_fract_y
 _atom_site_fract_z
 _atom_site_occupancy
  Ba  Ba0  1  0.08715100  0.93355700  0.20468400  1
  Ba  Ba1  1  0.58715100  0.56644300  0.79531600  1
  Ba  Ba2  1  0.91284900  0.06644300  0.79531600  1
  Ba  Ba3  1  0.41284900  0.43355700  0.20468400  1
  Ti  Ti0  1  0.50000000  0.00000000  0.00000000  1
  Ti  Ti1  1  0.00000000  0.50000000  0.00000000  1
  Ti  Ti2  1  0.01505700  0.40793700  0.37575700  1
  Ti  Ti3  1  0.51505700  0.09206300  0.62424300  1
  Ti  Ti4  1  0.98494300  0.59206300  0.62424300  1
  Ti  Ti5  1  0.48494300  0.90793700  0.37575700  1
  Nb  Nb0  1  0.75419900  0.65166200  0.10291400  1
  Nb  Nb1  1  0.25419900  0.84833800  0.89708600  1
  Nb  Nb2  1  0.24580100  0.34833800  0.89708600  1
  Nb  Nb3  1  0.74580100  0.15166200  0.10291400  1
  Nb  Nb4  1  0.27212700  0.48694300  0.51483800  1
  Nb  Nb5  1  0.77212700  0.01305700  0.48516200  1
  Nb  Nb6  1  0.72787300  0.51305700  0.48516200  1
  Nb  Nb7  1  0.22787300  0.98694300  0.51483800  1
  O  O0  1  0.17510000  0.95787800  0.70229600  1
  O  O1  1  0.67510000  0.54212200  0.29770400  1
  O  O2  1  0.82490000  0.04212200  0.29770400  1
  O  O3  1  0.32490000  0.45787800  0.70229600  1
  O  O4  1  0.06709300  0.52216500  0.80815700  1
  O  O5  1  0.56709300  0.97783500  0.19184300  1
  O  O6  1  0.93290700  0.47783500  0.19184300  1
  O  O7  1  0.43290700  0.02216500  0.80815700  1
  O  O8  1  0.17099700  0.53894800  0.32126200  1
  O  O9  1  0.67099700  0.96105200  0.67873800  1
  O  O10  1  0.82900300  0.46105200  0.67873800  1
  O  O11  1  0.32900300  0.03894800  0.32126200  1
  O  O12  1  0.16128100  0.35693600  0.06929500  1
  O  O13  1  0.66128100  0.14306400  0.93070500  1
  O  O14  1  0.83871900  0.64306400  0.93070500  1
  O  O15  1  0.33871900  0.85693600  0.06929500  1
  O  O16  1  0.08346600  0.38732200  0.58152200  1
  O  O17  1  0.58346600  0.11267800  0.41847800  1
  O  O18  1  0.91653400  0.61267800  0.41847800  1
  O  O19  1  0.41653400  0.88732200  0.58152200  1
  O  O20  1  0.08935100  0.74428600  0.98296300  1
  O  O21  1  0.58935100  0.75571400  0.01703700  1
  O  O22  1  0.91064900  0.25571400  0.01703700  1
  O  O23  1  0.41064900  0.24428600  0.98296300  1
  O  O24  1  0.15979500  0.74972600  0.50853800  1
  O  O25  1  0.65979500  0.75027400  0.49146200  1
  O  O26  1  0.84020500  0.25027400  0.49146200  1
  O  O27  1  0.34020500  0.24972600  0.50853800  1
  O  O28  1  0.16467400  0.12371300  0.90142500  1
  O  O29  1  0.66467400  0.37628700  0.09857500  1
  O  O30  1  0.83532600  0.87628700  0.09857500  1
  O  O31  1  0.33532600  0.62371300  0.90142500  1
  O  O32  1  0.09298100  0.16024100  0.40592900  1
  O  O33  1  0.59298100  0.33975900  0.59407100  1
  O  O34  1  0.90701900  0.83975900  0.59407100  1
  O  O35  1  0.40701900  0.66024100  0.40592900  1
loop_
_geom_bond_atom_site_label_1
_geom_bond_atom_site_label_2
_geom_bond_distance
_geom_bond_site_symmetry_2
Ba0 O30 2.850757 1_455
Ba0 O8 2.887133 1_555
Ba0 O11 2.942359 1_565
Ba0 O24 2.978008 1_555
Ba0 O28 2.989626 1_564
Ba0 O2 3.017689 1_465
Ba0 O15 3.038385 1_555
Ba0 O22 3.046435 1_465
Ba0 O12 3.060264 1_565
Ba0 O20 3.075034 1_554
Ba0 O32 3.105769 1_565
Ba0 O18 3.107539 1_455
Ba1 O31 2.850757 1_555
Ba1 O9 2.887133 1_555
Ba1 O10 2.942359 1_555
Ba1 O25 2.978008 1_555
Ba1 O29 2.989626 1_556
Ba1 O3 3.017689 1_555
Ba1 O14 3.038385 1_555
Ba1 O23 3.046435 1_555
Ba1 O13 3.060264 1_555
Ba1 O21 3.075034 1_556
Ba1 O33 3.105769 1_555
Ba1 O19 3.107539 1_555
Ba2 O28 2.850757 1_655
Ba2 O10 2.887133 1_555
Ba2 O9 2.942359 1_545
Ba2 O26 2.978008 1_555
Ba2 O30 2.989626 1_546
Ba2 O0 3.017689 1_645
Ba2 O13 3.038385 1_555
Ba2 O20 3.046435 1_645
Ba2 O14 3.060264 1_545
Ba2 O22 3.075034 1_556
Ba2 O34 3.105769 1_545
Ba2 O16 3.107539 1_655
Ba3 O29 2.850757 1_555
Ba3 O11 2.887133 1_555
Ba3 O8 2.942359 1_555
Ba3 O27 2.978008 1_555
Ba3 O31 2.989626 1_554
Ba3 O1 3.017689 1_555
Ba3 O12 3.038385 1_555
Ba3 O21 3.046435 1_555
Ba3 O15 3.060264 1_555
Ba3 O23 3.075034 1_554
Ba3 O35 3.105769 1_555
Ba3 O17 3.107539 1_555
Nb0 O30 1.861094 1_555
Nb0 O21 1.905901 1_555
Nb0 O14 1.969717 1_554
Nb0 O1 2.010844 1_555
Nb0 O6 2.213713 1_555
Nb0 O29 2.272203 1_555
Nb1 O31 1.861094 1_555
Nb1 O20 1.905901 1_555
Nb1 O15 1.969717 1_556
Nb1 O0 2.010844 1_555
Nb1 O7 2.213713 1_565
Nb1 O28 2.272203 1_565
Nb2 O28 1.861094 1_555
Nb2 O23 1.905901 1_555
Nb2 O12 1.969717 1_556
Nb2 O3 2.010844 1_555
Nb2 O4 2.213713 1_555
Nb2 O31 2.272203 1_555
Nb3 O29 1.861094 1_555
Nb3 O22 1.905901 1_555
Nb3 O13 1.969717 1_554
Nb3 O2 2.010844 1_555
Nb3 O5 2.213713 1_545
Nb3 O30 2.272203 1_545
Nb4 O3 1.913250 1_555
Nb4 O35 1.926967 1_555
Nb4 O27 1.932518 1_555
Nb4 O16 2.064309 1_555
Nb4 O8 2.122186 1_555
Nb4 O24 2.256184 1_555
Nb5 O2 1.913250 1_555
Nb5 O34 1.926967 1_545
Nb5 O26 1.932518 1_555
Nb5 O17 2.064309 1_555
Nb5 O9 2.122186 1_545
Nb5 O25 2.256184 1_545
Nb6 O1 1.913250 1_555
Nb6 O33 1.926967 1_555
Nb6 O25 1.932518 1_555
Nb6 O18 2.064309 1_555
Nb6 O10 2.122186 1_555
Nb6 O26 2.256184 1_555
Nb7 O0 1.913250 1_555
Nb7 O32 1.926967 1_565
Nb7 O24 1.932518 1_555
Nb7 O19 2.064309 1_555
Nb7 O11 2.122186 1_565
Nb7 O27 2.256184 1_565
O4 Ti4 1.934015 1_455
O4 Ti1 2.013401 1_556
O5 Ti5 1.934015 1_555
O5 Ti0 2.013401 1_565
O6 Ti2 1.934015 1_655
O6 Ti1 2.013401 1_655
O7 Ti3 1.934015 1_555
O7 Ti0 2.013401 1_556
O8 Ti2 1.828918 1_555
O9 Ti3 1.828918 1_565
O10 Ti4 1.828918 1_555
O11 Ti5 1.828918 1_545
O12 Ti1 1.933311 1_555
O13 Ti0 1.933311 1_556
O14 Ti1 1.933311 1_656
O15 Ti0 1.933311 1_565
O16 Ti4 2.007414 1_455
O16 Ti2 2.154372 1_555
O17 Ti5 2.007414 1_545
O17 Ti3 2.154372 1_555
O18 Ti2 2.007414 1_655
O18 Ti4 2.154372 1_555
O19 Ti3 2.007414 1_565
O19 Ti5 2.154372 1_555
O20 Ti1 1.994028 1_556
O21 Ti0 1.994028 1_565
O22 Ti1 1.994028 1_655
O23 Ti0 1.994028 1_556
O24 Ti4 2.206964 1_455
O25 Ti5 2.206964 1_555
O26 Ti2 2.206964 1_655
O27 Ti3 2.206964 1_555
O32 Ti2 1.937960 1_555
O33 Ti3 1.937960 1_555
O34 Ti4 1.937960 1_555
O35 Ti5 1.937960 1_555
