# generated using pymatgen
data_Na5(WO3)14
_symmetry_space_group_name_H-M   'P 1'
_cell_length_a   7.66396379
_cell_length_b   19.53669660
_cell_length_c   5.41851602
_cell_angle_alpha   97.97124451
_cell_angle_beta   90.00678518
_cell_angle_gamma   78.67608858
_symmetry_Int_Tables_number   1
_chemical_formula_structural   Na5(WO3)14
_chemical_formula_sum   'Na5 W14 O42'
_cell_volume   787.51908038
_cell_formula_units_Z   1
loop_
 _symmetry_equiv_pos_site_id
 _symmetry_equiv_pos_as_xyz
  1  'x, y, z'
loop_
 _atom_site_type_symbol
 _atom_site_label
 _atom_site_symmetry_multiplicity
 _atom_site_fract_x
 _atom_site_fract_y
 _atom_site_fract_z
 _atom_site_occupancy
  Na  Na0  1  0.64289362  0.71446577  0.85736598  1
  Na  Na1  1  0.85798470  0.28524709  0.14195670  1
  Na  Na2  1  0.07060357  0.85793572  0.42887872  1
  Na  Na3  1  0.42859318  0.14298211  0.56851321  1
  Na  Na4  1  0.21500116  0.57100146  0.28596914  1
  W  W0  1  0.96447873  0.56963969  0.78376245  1
  W  W1  1  0.89352352  0.71421196  0.35579056  1
  W  W2  1  0.81947818  0.85880453  0.92804384  1
  W  W3  1  0.67960081  0.14199912  0.06977567  1
  W  W4  1  0.60626866  0.28654516  0.64224863  1
  W  W5  1  0.53670770  0.42812063  0.21303492  1
  W  W6  1  0.75059253  0.00042990  0.49901828  1
  W  W7  1  0.39325177  0.71423788  0.35603120  1
  W  W8  1  0.46688198  0.56967627  0.78392212  1
  W  W9  1  0.32186027  0.85878830  0.92815751  1
  W  W10  1  0.25065560  0.00034255  0.49899430  1
  W  W11  1  0.10880149  0.28649937  0.64218022  1
  W  W12  1  0.17724013  0.14189330  0.06975963  1
  W  W13  1  0.03671828  0.42805809  0.21279081  1
  O  O0  1  0.85759420  0.78538343  0.14094904  1
  O  O1  1  0.78901634  0.92787023  0.71079880  1
  O  O2  1  0.92866291  0.64300540  0.57045725  1
  O  O3  1  0.85718070  0.78576803  0.64076365  1
  O  O4  1  0.92919452  0.64274395  0.07074260  1
  O  O5  1  0.78957360  0.92761270  0.21549031  1
  O  O6  1  0.85781151  0.28541846  0.64168168  1
  O  O7  1  0.57238432  0.85565059  0.92711235  1
  O  O8  1  0.92783551  0.14428331  0.07067488  1
  O  O9  1  0.78701344  0.42734129  0.21237273  1
  O  O10  1  0.64332864  0.71425213  0.35534915  1
  O  O11  1  0.71421269  0.57277233  0.78539158  1
  O  O12  1  0.71098790  0.07215244  0.78265021  1
  O  O13  1  0.71125822  0.07217661  0.28708287  1
  O  O14  1  0.64297859  0.21409595  0.85539650  1
  O  O15  1  0.57567075  0.35604647  0.93017661  1
  O  O16  1  0.64301538  0.21438646  0.35554349  1
  O  O17  1  0.49725316  0.50108212  0.49569313  1
  O  O18  1  0.57537080  0.35660572  0.42606597  1
  O  O19  1  0.49746212  0.50034216  0.00003622  1
  O  O20  1  0.42945048  0.64331311  0.57175656  1
  O  O21  1  0.42921984  0.64242512  0.07177455  1
  O  O22  1  0.28351461  0.92807455  0.71166689  1
  O  O23  1  0.28336529  0.92736775  0.21619075  1
  O  O24  1  0.35763040  0.78597919  0.64024770  1
  O  O25  1  0.35780034  0.78513855  0.14009071  1
  O  O26  1  0.35835657  0.28434872  0.64109715  1
  O  O27  1  0.42854957  0.14292745  0.07051844  1
  O  O28  1  0.28588085  0.42959255  0.21376543  1
  O  O29  1  0.21482350  0.57159101  0.78386353  1
  O  O30  1  0.07178288  0.85687358  0.92690331  1
  O  O31  1  0.14336764  0.71418897  0.35624607  1
  O  O32  1  0.49972767  0.00117162  0.49889379  1
  O  O33  1  0.00343727  0.50072092  0.00152541  1
  O  O34  1  0.14345647  0.21397936  0.35662009  1
  O  O35  1  0.00314522  0.50069424  0.49673971  1
  O  O36  1  0.14313973  0.21444957  0.85687336  1
  O  O37  1  0.06947442  0.35645134  0.92874832  1
  O  O38  1  0.21697800  0.07181907  0.28573139  1
  O  O39  1  0.06937669  0.35614863  0.42421495  1
  O  O40  1  0.21698706  0.07242610  0.78172583  1
  O  O41  1  0.00091828  0.99880893  0.49856717  1
loop_
_geom_bond_atom_site_label_1
_geom_bond_atom_site_label_2
_geom_bond_distance
_geom_bond_site_symmetry_2
Na0 O7 2.677417 1_555
Na0 O11 2.687067 1_555
Na0 O25 2.693815 1_556
Na0 O10 2.698912 1_556
Na0 O0 2.700462 1_556
Na0 O20 2.701665 1_555
Na0 O4 2.712191 1_556
Na0 O2 2.713054 1_555
Na0 O3 2.714295 1_555
Na0 O21 2.715027 1_556
Na0 O24 2.715043 1_555
Na0 O10 2.719612 1_555
Na1 O8 2.673230 1_555
Na1 O39 2.678752 1_655
Na1 O15 2.678761 1_554
Na1 O18 2.687842 1_555
Na1 O37 2.688605 1_654
Na1 O9 2.694660 1_555
Na1 O36 2.701200 1_654
Na1 O16 2.703837 1_555
Na1 O6 2.707306 1_555
Na1 O34 2.707488 1_655
Na1 O6 2.711214 1_554
Na1 O14 2.712703 1_554
Na2 O5 2.667090 1_455
Na2 O1 2.668621 1_455
Na2 O23 2.670142 1_555
Na2 O41 2.671514 1_555
Na2 O22 2.680170 1_555
Na2 O30 2.701510 1_555
Na2 O3 2.708590 1_455
Na2 O24 2.712651 1_555
Na2 O30 2.717164 1_554
Na2 O0 2.720846 1_455
Na2 O31 2.726007 1_555
Na2 O25 2.733172 1_555
Na3 O13 2.677844 1_555
Na3 O40 2.680456 1_555
Na3 O26 2.680883 1_555
Na3 O38 2.684222 1_555
Na3 O12 2.685850 1_555
Na3 O32 2.689287 1_555
Na3 O34 2.695987 1_555
Na3 O27 2.698245 1_555
Na3 O16 2.706552 1_555
Na3 O14 2.709814 1_555
Na3 O36 2.715340 1_555
Na3 O27 2.720272 1_556
Na4 O17 2.665740 1_555
Na4 O35 2.671819 1_555
Na4 O33 2.678900 1_555
Na4 O28 2.681675 1_555
Na4 O19 2.688186 1_555
Na4 O29 2.696275 1_555
Na4 O21 2.709021 1_555
Na4 O2 2.712550 1_455
Na4 O4 2.714690 1_455
Na4 O31 2.715400 1_555
Na4 O20 2.720194 1_555
Na4 O29 2.722287 1_554
O0 W1 1.913863 1_555
O0 W2 1.941144 1_554
O1 W2 1.891450 1_555
O1 W6 1.923600 1_565
O2 W1 1.913732 1_555
O2 W0 1.941783 1_555
O3 W1 1.914346 1_555
O3 W2 1.940301 1_555
O4 W1 1.913613 1_555
O4 W0 1.939957 1_554
O5 W2 1.893124 1_554
O5 W6 1.923622 1_565
O6 W4 1.923612 1_555
O6 W11 1.927833 1_655
O7 W2 1.906758 1_555
O7 W9 1.908901 1_555
O8 W12 1.902801 1_655
O8 W3 1.911715 1_555
O9 W5 1.915402 1_555
O9 W13 1.916527 1_655
O10 W7 1.916639 1_555
O10 W1 1.917332 1_555
O11 W0 1.906939 1_555
O11 W8 1.908313 1_555
O12 W3 1.903361 1_556
O12 W6 1.911365 1_555
O13 W3 1.903036 1_555
O13 W6 1.911756 1_555
O14 W3 1.926283 1_556
O14 W4 1.927017 1_555
O15 W4 1.902689 1_555
O15 W5 1.912431 1_556
O16 W3 1.926992 1_555
O16 W4 1.927919 1_555
O17 W8 1.893753 1_555
O17 W5 1.922075 1_555
O18 W4 1.902379 1_555
O18 W5 1.912315 1_555
O19 W8 1.891096 1_554
O19 W5 1.923083 1_555
O20 W7 1.913502 1_555
O20 W8 1.941677 1_555
O21 W7 1.914575 1_555
O21 W8 1.939139 1_554
O22 W9 1.891779 1_555
O22 W10 1.922584 1_565
O23 W9 1.892852 1_554
O23 W10 1.922865 1_565
O24 W7 1.913596 1_555
O24 W9 1.940038 1_555
O25 W7 1.913957 1_555
O25 W9 1.941012 1_554
O26 W11 1.904768 1_555
O26 W4 1.908869 1_555
O27 W3 1.920568 1_555
O27 W12 1.930093 1_555
O28 W13 1.915680 1_555
O28 W5 1.916885 1_555
O29 W8 1.924772 1_555
O29 W0 1.926480 1_455
O30 W9 1.924272 1_555
O30 W2 1.926596 1_455
O31 W1 1.914710 1_455
O31 W7 1.915291 1_555
O32 W10 1.912126 1_555
O32 W6 1.919827 1_555
O33 W0 1.891304 1_454
O33 W13 1.923328 1_555
O34 W12 1.927746 1_555
O34 W11 1.927782 1_555
O35 W0 1.892945 1_455
O35 W13 1.923108 1_555
O36 W11 1.926802 1_555
O36 W12 1.927749 1_556
O37 W11 1.902477 1_555
O37 W13 1.911518 1_556
O38 W12 1.901832 1_555
O38 W10 1.912556 1_555
O39 W11 1.903129 1_555
O39 W13 1.912315 1_555
O40 W12 1.902839 1_556
O40 W10 1.912018 1_555
O41 W6 1.912518 1_465
O41 W10 1.920082 1_565
