# generated using pymatgen
data_Ce3Gd
_symmetry_space_group_name_H-M   'P 1'
_cell_length_a   4.84168200
_cell_length_b   4.84168200
_cell_length_c   4.84168200
_cell_angle_alpha   90.00000000
_cell_angle_beta   90.00000000
_cell_angle_gamma   90.00000000
_symmetry_Int_Tables_number   1
_chemical_formula_structural   Ce3Gd
_chemical_formula_sum   'Ce3 Gd1'
_cell_volume   113.49815066
_cell_formula_units_Z   1
loop_
 _symmetry_equiv_pos_site_id
 _symmetry_equiv_pos_as_xyz
  1  'x, y, z'
loop_
 _atom_site_type_symbol
 _atom_site_label
 _atom_site_symmetry_multiplicity
 _atom_site_fract_x
 _atom_site_fract_y
 _atom_site_fract_z
 _atom_site_occupancy
  Ce  Ce0  1  0.00000000  0.50000100  0.50000100  1
  Ce  Ce1  1  0.50000100  0.00000000  0.50000100  1
  Ce  Ce2  1  0.50000100  0.50000100  0.00000000  1
  Gd  Gd0  1  0.00000000  0.00000000  0.00000000  1
loop_
_geom_bond_atom_site_label_1
_geom_bond_atom_site_label_2
_geom_bond_distance
_geom_bond_site_symmetry_2
Ce0 Ce1 3.423579 1_465
Ce0 Gd0 3.423579 1_566
Ce0 Ce2 3.423579 1_456
Ce0 Ce1 3.423586 1_565
Ce0 Ce1 3.423586 1_455
Ce0 Ce2 3.423586 1_455
Ce0 Ce2 3.423586 1_556
Ce0 Gd0 3.423586 1_565
Ce0 Gd0 3.423586 1_556
Ce0 Ce2 3.423593 1_555
Ce0 Ce1 3.423593 1_555
Ce0 Gd0 3.423593 1_555
Ce1 Gd0 3.423579 1_656
Ce1 Ce2 3.423579 1_546
Ce1 Ce2 3.423586 1_545
Ce1 Ce2 3.423586 1_556
Ce1 Gd0 3.423586 1_556
Ce1 Gd0 3.423586 1_655
Ce1 Ce2 3.423593 1_555
Ce1 Gd0 3.423593 1_555
Ce2 Gd0 3.423579 1_665
Ce2 Gd0 3.423586 1_565
Ce2 Gd0 3.423586 1_655
Ce2 Gd0 3.423593 1_555
