# generated using pymatgen
data_Sr2DyTaO6
_symmetry_space_group_name_H-M   'P 1'
_cell_length_a   5.85838758
_cell_length_b   5.93250600
_cell_length_c   8.33047382
_cell_angle_alpha   90.00000000
_cell_angle_beta   90.28521362
_cell_angle_gamma   90.00000000
_symmetry_Int_Tables_number   1
_chemical_formula_structural   Sr2DyTaO6
_chemical_formula_sum   'Sr4 Dy2 Ta2 O12'
_cell_volume   289.52135983
_cell_formula_units_Z   2
loop_
 _symmetry_equiv_pos_site_id
 _symmetry_equiv_pos_as_xyz
  1  'x, y, z'
loop_
 _atom_site_type_symbol
 _atom_site_label
 _atom_site_symmetry_multiplicity
 _atom_site_fract_x
 _atom_site_fract_y
 _atom_site_fract_z
 _atom_site_occupancy
  Sr  Sr0  1  0.00781400  0.46439500  0.25102500  1
  Sr  Sr1  1  0.99218600  0.53560500  0.74897500  1
  Sr  Sr2  1  0.49218600  0.96439500  0.24897500  1
  Sr  Sr3  1  0.50781400  0.03560500  0.75102500  1
  Dy  Dy0  1  0.00000000  0.00000000  0.50000000  1
  Dy  Dy1  1  0.50000000  0.50000000  0.00000000  1
  Ta  Ta0  1  0.00000000  0.00000000  0.00000000  1
  Ta  Ta1  1  0.50000000  0.50000000  0.50000000  1
  O  O0  1  0.91937300  0.02440300  0.23460100  1
  O  O1  1  0.08062700  0.97559700  0.76539900  1
  O  O2  1  0.58062700  0.52440300  0.26539900  1
  O  O3  1  0.41937300  0.47559700  0.73460100  1
  O  O4  1  0.19451300  0.72508800  0.04583500  1
  O  O5  1  0.80548700  0.27491200  0.95416500  1
  O  O6  1  0.30548700  0.22508800  0.45416500  1
  O  O7  1  0.69451300  0.77491200  0.54583500  1
  O  O8  1  0.27427700  0.19711500  0.04091400  1
  O  O9  1  0.72572300  0.80288500  0.95908600  1
  O  O10  1  0.22572300  0.69711500  0.45908600  1
  O  O11  1  0.77427700  0.30288500  0.54091400  1
loop_
_geom_bond_atom_site_label_1
_geom_bond_atom_site_label_2
_geom_bond_distance
_geom_bond_site_symmetry_2
Dy0 O11 2.257887 1_455
Dy0 O10 2.257887 1_545
Dy0 O1 2.263128 1_545
Dy0 O0 2.263128 1_455
Dy0 O6 2.266849 1_555
Dy0 O7 2.266849 1_445
Dy1 O9 2.257887 1_554
Dy1 O8 2.257887 1_555
Dy1 O2 2.263128 1_555
Dy1 O3 2.263128 1_554
Dy1 O4 2.266849 1_555
Dy1 O5 2.266849 1_554
O0 Ta0 2.018091 1_655
O0 Sr2 2.531244 1_545
O0 Sr0 2.664563 1_655
O1 Ta0 2.018091 1_566
O1 Sr3 2.531244 1_565
O1 Sr1 2.664563 1_455
O2 Ta1 2.018091 1_555
O2 Sr0 2.531244 1_655
O2 Sr2 2.664563 1_555
O3 Ta1 2.018091 1_555
O3 Sr1 2.531244 1_455
O3 Sr3 2.664563 1_555
O4 Ta0 2.024817 1_565
O4 Sr0 2.555108 1_555
O4 Sr2 2.809090 1_555
O4 Sr1 2.958893 1_454
O5 Ta0 2.024817 1_656
O5 Sr1 2.555108 1_555
O5 Sr3 2.809090 1_555
O5 Sr0 2.958893 1_656
O6 Ta1 2.024817 1_555
O6 Sr2 2.555108 1_545
O6 Sr0 2.809090 1_555
O6 Sr3 2.958893 1_555
O7 Ta1 2.024817 1_555
O7 Sr3 2.555108 1_565
O7 Sr1 2.809090 1_555
O7 Sr2 2.958893 1_555
O8 Ta0 2.014957 1_555
O8 Sr2 2.553018 1_545
O8 Sr0 2.835833 1_555
O8 Sr3 2.941870 1_554
O9 Ta0 2.014957 1_666
O9 Sr3 2.553018 1_565
O9 Sr1 2.835833 1_555
O9 Sr2 2.941870 1_556
O10 Ta1 2.014957 1_555
O10 Sr0 2.553018 1_555
O10 Sr2 2.835833 1_555
O10 Sr1 2.941870 1_455
O11 Ta1 2.014957 1_555
O11 Sr1 2.553018 1_555
O11 Sr3 2.835833 1_555
O11 Sr0 2.941870 1_655
