# generated using pymatgen
data_LiMg14AlO16
_symmetry_space_group_name_H-M   'P 1'
_cell_length_a   4.23090100
_cell_length_b   8.46575600
_cell_length_c   8.48997100
_cell_angle_alpha   90.00000000
_cell_angle_beta   90.00000000
_cell_angle_gamma   90.00000000
_symmetry_Int_Tables_number   1
_chemical_formula_structural   LiMg14AlO16
_chemical_formula_sum   'Li1 Mg14 Al1 O16'
_cell_volume   304.09187550
_cell_formula_units_Z   1
loop_
 _symmetry_equiv_pos_site_id
 _symmetry_equiv_pos_as_xyz
  1  'x, y, z'
loop_
 _atom_site_type_symbol
 _atom_site_label
 _atom_site_symmetry_multiplicity
 _atom_site_fract_x
 _atom_site_fract_y
 _atom_site_fract_z
 _atom_site_occupancy
  Li  Li0  1  0.00000000  0.00000000  0.50000000  1
  Mg  Mg0  1  0.00000000  0.50000000  0.00000000  1
  Mg  Mg1  1  0.00000000  0.50000000  0.50000000  1
  Mg  Mg2  1  0.50000000  0.00000000  0.25755400  1
  Mg  Mg3  1  0.50000000  0.00000000  0.74244600  1
  Mg  Mg4  1  0.50000000  0.50000000  0.25246500  1
  Mg  Mg5  1  0.50000000  0.50000000  0.74753500  1
  Mg  Mg6  1  0.50000000  0.24974700  0.00000000  1
  Mg  Mg7  1  0.50000000  0.24451100  0.50000000  1
  Mg  Mg8  1  0.50000000  0.75025300  0.00000000  1
  Mg  Mg9  1  0.50000000  0.75548900  0.50000000  1
  Mg  Mg10  1  0.00000000  0.24782200  0.25555000  1
  Mg  Mg11  1  0.00000000  0.24782200  0.74445000  1
  Mg  Mg12  1  0.00000000  0.75217800  0.25555000  1
  Mg  Mg13  1  0.00000000  0.75217800  0.74445000  1
  Al  Al0  1  0.00000000  0.00000000  0.00000000  1
  O  O0  1  0.00000000  0.23477700  0.00000000  1
  O  O1  1  0.00000000  0.25443900  0.50000000  1
  O  O2  1  0.00000000  0.76522300  0.00000000  1
  O  O3  1  0.00000000  0.74556100  0.50000000  1
  O  O4  1  0.50000000  0.24954700  0.24844500  1
  O  O5  1  0.50000000  0.24954700  0.75155500  1
  O  O6  1  0.50000000  0.75045300  0.24844500  1
  O  O7  1  0.50000000  0.75045300  0.75155500  1
  O  O8  1  0.50000000  0.00000000  0.00000000  1
  O  O9  1  0.50000000  0.00000000  0.50000000  1
  O  O10  1  0.50000000  0.50000000  0.00000000  1
  O  O11  1  0.50000000  0.50000000  0.50000000  1
  O  O12  1  0.00000000  0.00000000  0.22224900  1
  O  O13  1  0.00000000  0.00000000  0.77775100  1
  O  O14  1  0.00000000  0.50000000  0.24498900  1
  O  O15  1  0.00000000  0.50000000  0.75501100  1
loop_
_geom_bond_atom_site_label_1
_geom_bond_atom_site_label_2
_geom_bond_distance
_geom_bond_site_symmetry_2
Li0 O9 2.115451 1_555
Li0 O9 2.115451 1_455
Li0 O1 2.154018 1_555
Li0 O3 2.154018 1_545
Li0 O13 2.358098 1_555
Li0 O12 2.358098 1_555
Mg0 O14 2.079950 1_555
Mg0 O15 2.079950 1_554
Mg0 O10 2.115451 1_555
Mg0 O10 2.115451 1_455
Mg0 O2 2.245313 1_555
Mg0 O0 2.245313 1_555
Mg1 O3 2.078860 1_555
Mg1 O1 2.078860 1_555
Mg1 O11 2.115451 1_455
Mg1 O11 2.115451 1_555
Mg1 O15 2.165036 1_555
Mg1 O14 2.165036 1_555
Mg2 O9 2.058360 1_555
Mg2 O4 2.114019 1_555
Mg2 O6 2.114019 1_545
Mg2 O12 2.136580 1_655
Mg2 O12 2.136580 1_555
Mg2 O8 2.186626 1_555
Mg3 O9 2.058360 1_555
Mg3 O5 2.114019 1_555
Mg3 O7 2.114019 1_545
Mg3 O13 2.136580 1_655
Mg3 O13 2.136580 1_555
Mg3 O8 2.186626 1_556
Mg4 O11 2.101565 1_555
Mg4 O14 2.116402 1_555
Mg4 O14 2.116402 1_655
Mg4 O6 2.120549 1_555
Mg4 O4 2.120549 1_555
Mg4 O10 2.143421 1_555
Mg5 O11 2.101565 1_555
Mg5 O15 2.116402 1_555
Mg5 O15 2.116402 1_655
Mg5 O7 2.120549 1_555
Mg5 O5 2.120549 1_555
Mg5 O10 2.143421 1_556
Mg6 O5 2.109292 1_554
Mg6 O4 2.109292 1_555
Mg6 O8 2.114297 1_555
Mg6 O10 2.118581 1_555
Mg6 O0 2.119243 1_555
Mg6 O0 2.119243 1_655
Mg7 O9 2.069970 1_555
Mg7 O1 2.117119 1_555
Mg7 O1 2.117119 1_655
Mg7 O4 2.136120 1_555
Mg7 O5 2.136120 1_555
Mg7 O11 2.162908 1_555
Mg8 O6 2.109292 1_555
Mg8 O7 2.109292 1_554
Mg8 O8 2.114297 1_565
Mg8 O10 2.118581 1_555
Mg8 O2 2.119243 1_655
Mg8 O2 2.119243 1_555
Mg9 O9 2.069970 1_565
Mg9 O3 2.117119 1_655
Mg9 O3 2.117119 1_555
Mg9 O7 2.136120 1_555
Mg9 O6 2.136120 1_555
Mg9 O11 2.162908 1_555
Mg10 O1 2.076129 1_555
Mg10 O4 2.116361 1_455
Mg10 O4 2.116361 1_555
Mg10 O12 2.116965 1_555
Mg10 O14 2.136759 1_555
Mg10 O0 2.172421 1_555
Mg11 O1 2.076129 1_555
Mg11 O5 2.116361 1_455
Mg11 O5 2.116361 1_555
Mg11 O13 2.116965 1_555
Mg11 O15 2.136759 1_555
Mg11 O0 2.172421 1_556
Mg12 O3 2.076129 1_555
Mg12 O6 2.116361 1_555
Mg12 O6 2.116361 1_455
Mg12 O12 2.116965 1_565
Mg12 O14 2.136759 1_555
Mg12 O2 2.172421 1_555
Mg13 O3 2.076129 1_555
Mg13 O7 2.116361 1_555
Mg13 O7 2.116361 1_455
Mg13 O13 2.116965 1_565
Mg13 O15 2.136759 1_555
Mg13 O2 2.172421 1_556
Al0 O12 1.886888 1_555
Al0 O13 1.886888 1_554
Al0 O0 1.987565 1_555
Al0 O2 1.987565 1_545
Al0 O8 2.115451 1_555
Al0 O8 2.115451 1_455
