# generated using pymatgen
data_Ba(BH)12
_symmetry_space_group_name_H-M   'P 1'
_cell_length_a   7.30536839
_cell_length_b   7.30537085
_cell_length_c   11.81023968
_cell_angle_alpha   90.00001552
_cell_angle_beta   90.00000595
_cell_angle_gamma   119.99997916
_symmetry_Int_Tables_number   1
_chemical_formula_structural   Ba(BH)12
_chemical_formula_sum   'Ba2 B24 H24'
_cell_volume   545.85063850
_cell_formula_units_Z   2
loop_
 _symmetry_equiv_pos_site_id
 _symmetry_equiv_pos_as_xyz
  1  'x, y, z'
loop_
 _atom_site_type_symbol
 _atom_site_label
 _atom_site_symmetry_multiplicity
 _atom_site_fract_x
 _atom_site_fract_y
 _atom_site_fract_z
 _atom_site_occupancy
  Ba  Ba0  1  0.66666639  0.33333218  0.26313762  1
  Ba  Ba1  1  0.33333349  0.66666635  0.76309960  1
  B  B0  1  0.91478910  0.38613277  0.61094105  1
  B  B1  1  0.47134377  0.08521147  0.61094112  1
  B  B2  1  0.61386726  0.52865672  0.61094076  1
  B  B3  1  0.52865733  0.61386732  0.11094302  1
  B  B4  1  0.38613278  0.91479001  0.11094285  1
  B  B5  1  0.08520985  0.47134264  0.11094284  1
  B  B6  1  0.51239982  0.30025564  0.52478695  1
  B  B7  1  0.78785570  0.48759980  0.52478695  1
  B  B8  1  0.69974435  0.21214371  0.52478658  1
  B  B9  1  0.21214533  0.69974339  0.02478989  1
  B  B10  1  0.30025663  0.51240191  0.02479005  1
  B  B11  1  0.48759818  0.78785461  0.02479002  1
  B  B12  1  0.82005952  0.36497147  0.75158935  1
  B  B13  1  0.54491205  0.17994104  0.75158898  1
  B  B14  1  0.63502846  0.45508798  0.75158934  1
  B  B15  1  0.45508761  0.63502784  0.25159145  1
  B  B16  1  0.36497215  0.82006018  0.25159152  1
  B  B17  1  0.17993959  0.54491207  0.25159167  1
  B  B18  1  0.41730315  0.28065288  0.66541716  1
  B  B19  1  0.86334898  0.58269639  0.66541724  1
  B  B20  1  0.71934778  0.13665078  0.66541738  1
  B  B21  1  0.13665449  0.71934683  0.16541917  1
  B  B22  1  0.28065306  0.41730729  0.16541935  1
  B  B23  1  0.58269301  0.86334601  0.16541943  1
  H  H0  1  0.08932620  0.42176204  0.58799630  1
  H  H1  1  0.33243648  0.91067422  0.58799634  1
  H  H2  1  0.57823799  0.66756368  0.58799600  1
  H  H3  1  0.66756144  0.57824327  0.08798907  1
  H  H4  1  0.42175675  0.08931807  0.08798916  1
  H  H5  1  0.91068197  0.33243866  0.08798919  1
  H  H6  1  0.39981931  0.27575114  0.44537764  1
  H  H7  1  0.87593206  0.60018015  0.44537778  1
  H  H8  1  0.72424800  0.12406785  0.44537776  1
  H  H9  1  0.12406399  0.72425291  0.94538474  1
  H  H10  1  0.27574712  0.39981105  0.94538460  1
  H  H11  1  0.60018896  0.87593603  0.94538472  1
  H  H12  1  0.92532000  0.38404033  0.83344420  1
  H  H13  1  0.45872049  0.07468056  0.83344410  1
  H  H14  1  0.61596023  0.54127956  0.83344373  1
  H  H15  1  0.54127990  0.61595175  0.33344414  1
  H  H16  1  0.38404835  0.92532804  0.33344415  1
  H  H17  1  0.07467199  0.45872014  0.33344408  1
  H  H18  1  0.24078056  0.24186369  0.68540350  1
  H  H19  1  0.00108232  0.75921869  0.68540339  1
  H  H20  1  0.75813666  0.99891789  0.68540371  1
  H  H21  1  0.99892520  0.75814443  0.18540316  1
  H  H22  1  0.24185578  0.24078067  0.18540308  1
  H  H23  1  0.75921941  0.00107492  0.18540311  1
loop_
_geom_bond_atom_site_label_1
_geom_bond_atom_site_label_2
_geom_bond_distance
_geom_bond_site_symmetry_2
Ba0 H4 2.732818 1_555
Ba0 H5 2.732820 1_555
Ba0 H3 2.732828 1_555
Ba0 H16 2.771712 1_545
Ba0 H17 2.771717 1_655
Ba0 H15 2.771722 1_555
Ba0 H8 2.790970 1_555
Ba0 H6 2.790974 1_555
Ba0 H7 2.790977 1_555
Ba0 H23 2.971995 1_555
Ba0 H22 2.972000 1_555
Ba0 H21 2.972008 1_555
Ba1 H0 2.732385 1_555
Ba1 H2 2.732388 1_555
Ba1 H1 2.732388 1_555
Ba1 H14 2.771904 1_555
Ba1 H12 2.771906 1_455
Ba1 H13 2.771911 1_565
Ba1 H10 2.791414 1_555
Ba1 H11 2.791416 1_555
Ba1 H9 2.791418 1_555
Ba1 H18 2.971804 1_555
Ba1 H20 2.971809 1_555
Ba1 H19 2.971810 1_555
B0 H0 1.197946 1_655
B1 H1 1.197946 1_545
B2 H2 1.197940 1_555
B3 H3 1.197920 1_555
B4 H4 1.197919 1_565
B5 H5 1.197918 1_455
B6 H6 1.200324 1_555
B7 H7 1.200323 1_555
B8 H8 1.200316 1_555
B9 H9 1.200325 1_554
B10 H10 1.200327 1_554
B11 H11 1.200326 1_554
B12 H12 1.199230 1_555
B13 H13 1.199233 1_555
B14 H14 1.199224 1_555
B15 H15 1.199232 1_555
B16 H16 1.199229 1_555
B17 H17 1.199227 1_555
B18 H18 1.197315 1_555
B19 H19 1.197314 1_655
B20 H20 1.197310 1_545
B21 H21 1.197321 1_455
B22 H22 1.197320 1_555
B23 H23 1.197318 1_565
