# generated using pymatgen
data_Pr3CrS6
_symmetry_space_group_name_H-M   'P 1'
_cell_length_a   3.92449259
_cell_length_b   13.77488390
_cell_length_c   16.32791845
_cell_angle_alpha   90.00000000
_cell_angle_beta   90.00000000
_cell_angle_gamma   90.00000000
_symmetry_Int_Tables_number   1
_chemical_formula_structural   Pr3CrS6
_chemical_formula_sum   'Pr12 Cr4 S24'
_cell_volume   882.67796112
_cell_formula_units_Z   4
loop_
 _symmetry_equiv_pos_site_id
 _symmetry_equiv_pos_as_xyz
  1  'x, y, z'
loop_
 _atom_site_type_symbol
 _atom_site_label
 _atom_site_symmetry_multiplicity
 _atom_site_fract_x
 _atom_site_fract_y
 _atom_site_fract_z
 _atom_site_occupancy
  Pr  Pr0  1  0.00000000  0.55345763  0.28240278  1
  Pr  Pr1  1  0.00000000  0.44654237  0.71759722  1
  Pr  Pr2  1  0.50000000  0.94654237  0.78240278  1
  Pr  Pr3  1  0.50000000  0.05345763  0.21759722  1
  Pr  Pr4  1  0.00000000  0.75999136  0.09568294  1
  Pr  Pr5  1  0.00000000  0.24000864  0.90431706  1
  Pr  Pr6  1  0.50000000  0.74000864  0.59568294  1
  Pr  Pr7  1  0.50000000  0.25999136  0.40431706  1
  Pr  Pr8  1  -0.00000000  0.32134914  0.14813568  1
  Pr  Pr9  1  -0.00000000  0.67865086  0.85186432  1
  Pr  Pr10  1  0.50000000  0.17865086  0.64813568  1
  Pr  Pr11  1  0.50000000  0.82134914  0.35186432  1
  Cr  Cr0  1  0.00000000  0.00000000  0.50000000  1
  Cr  Cr1  1  0.50000000  0.50000000  0.00000000  1
  Cr  Cr2  1  -0.00000000  0.00000000  0.00000000  1
  Cr  Cr3  1  0.50000000  0.50000000  0.50000000  1
  S  S0  1  -0.00000000  0.12326017  0.10063667  1
  S  S1  1  -0.00000000  0.87673983  0.89936333  1
  S  S2  1  0.50000000  0.37673983  0.60063667  1
  S  S3  1  0.50000000  0.62326017  0.39936333  1
  S  S4  1  0.00000000  0.18973010  0.28954331  1
  S  S5  1  0.00000000  0.81026990  0.71045669  1
  S  S6  1  0.50000000  0.31026990  0.78954331  1
  S  S7  1  0.50000000  0.68973010  0.21045669  1
  S  S8  1  -0.00000000  0.17481594  0.51959169  1
  S  S9  1  0.00000000  0.82518406  0.48040831  1
  S  S10  1  0.50000000  0.32518406  0.01959169  1
  S  S11  1  0.50000000  0.67481594  0.98040831  1
  S  S12  1  -0.00000000  0.52409730  0.09497627  1
  S  S13  1  0.00000000  0.47590270  0.90502373  1
  S  S14  1  0.50000000  0.97590270  0.59497627  1
  S  S15  1  0.50000000  0.02409730  0.40502373  1
  S  S16  1  0.00000000  0.09964435  0.75523485  1
  S  S17  1  0.00000000  0.90035565  0.24476515  1
  S  S18  1  0.50000000  0.40035565  0.25523485  1
  S  S19  1  0.50000000  0.59964435  0.74476515  1
  S  S20  1  0.00000000  0.42175790  0.42817339  1
  S  S21  1  -0.00000000  0.57824210  0.57182661  1
  S  S22  1  0.50000000  0.07824210  0.92817339  1
  S  S23  1  0.50000000  0.92175790  0.07182661  1
loop_
_geom_bond_atom_site_label_1
_geom_bond_atom_site_label_2
_geom_bond_distance
_geom_bond_site_symmetry_2
Pr0 S3 2.902064 1_555
Pr0 S3 2.902064 1_455
Pr0 S18 2.914603 1_555
Pr0 S18 2.914603 1_455
Pr0 S7 2.958724 1_455
Pr0 S7 2.958724 1_555
Pr0 S20 2.992684 1_555
Pr0 S12 3.086893 1_555
Pr1 S2 2.902064 1_555
Pr1 S2 2.902064 1_455
Pr1 S19 2.914603 1_455
Pr1 S19 2.914603 1_555
Pr1 S6 2.958724 1_555
Pr1 S6 2.958724 1_455
Pr1 S21 2.992684 1_555
Pr1 S13 3.086893 1_555
Pr2 S1 2.902064 1_655
Pr2 S1 2.902064 1_555
Pr2 S16 2.914603 1_665
Pr2 S16 2.914603 1_565
Pr2 S5 2.958724 1_555
Pr2 S5 2.958724 1_655
Pr2 S22 2.992684 1_565
Pr2 S14 3.086893 1_555
Pr3 S0 2.902064 1_655
Pr3 S0 2.902064 1_555
Pr3 S17 2.914603 1_545
Pr3 S17 2.914603 1_645
Pr3 S4 2.958724 1_555
Pr3 S4 2.958724 1_655
Pr3 S23 2.992684 1_545
Pr3 S15 3.086893 1_555
Pr4 S7 2.880810 1_555
Pr4 S7 2.880810 1_455
Pr4 S11 2.961361 1_454
Pr4 S11 2.961361 1_554
Pr4 S23 2.994583 1_555
Pr4 S23 2.994583 1_455
Pr4 S17 3.108660 1_555
Pr4 S12 3.249434 1_555
Pr4 S1 3.586289 1_554
Pr5 S6 2.880810 1_555
Pr5 S6 2.880810 1_455
Pr5 S10 2.961361 1_456
Pr5 S10 2.961361 1_556
Pr5 S22 2.994583 1_455
Pr5 S22 2.994583 1_555
Pr5 S16 3.108660 1_555
Pr5 S13 3.249434 1_555
Pr5 S0 3.586289 1_556
Pr6 S5 2.880810 1_655
Pr6 S5 2.880810 1_555
Pr6 S9 2.961361 1_555
Pr6 S9 2.961361 1_655
Pr6 S21 2.994583 1_555
Pr6 S21 2.994583 1_655
Pr6 S19 3.108660 1_555
Pr6 S14 3.249434 1_555
Pr6 S3 3.586289 1_555
Pr7 S4 2.880810 1_655
Pr7 S4 2.880810 1_555
Pr7 S8 2.961361 1_555
Pr7 S8 2.961361 1_655
Pr7 S20 2.994583 1_555
Pr7 S20 2.994583 1_655
Pr7 S18 3.108660 1_555
Pr7 S15 3.249434 1_555
Pr7 S2 3.586289 1_555
Pr8 S0 2.836730 1_555
Pr8 S18 2.844784 1_555
Pr8 S18 2.844784 1_455
Pr8 S10 2.873743 1_555
Pr8 S10 2.873743 1_455
Pr8 S12 2.924604 1_555
Pr8 S4 2.935658 1_555
Pr9 S1 2.836730 1_555
Pr9 S19 2.844784 1_455
Pr9 S19 2.844784 1_555
Pr9 S11 2.873743 1_555
Pr9 S11 2.873743 1_455
Pr9 S13 2.924604 1_555
Pr9 S5 2.935658 1_555
Pr10 S2 2.836730 1_555
Pr10 S16 2.844784 1_555
Pr10 S16 2.844784 1_655
Pr10 S8 2.873743 1_655
Pr10 S8 2.873743 1_555
Pr10 S14 2.924604 1_545
Pr10 S6 2.935658 1_555
Pr11 S3 2.836730 1_555
Pr11 S17 2.844784 1_555
Pr11 S17 2.844784 1_655
Pr11 S9 2.873743 1_555
Pr11 S9 2.873743 1_655
Pr11 S15 2.924604 1_565
Pr11 S7 2.935658 1_555
Cr0 S8 2.429224 1_555
Cr0 S9 2.429224 1_545
Cr0 S15 2.522987 1_555
Cr0 S15 2.522987 1_455
Cr0 S14 2.522987 1_445
Cr0 S14 2.522987 1_545
Cr1 S11 2.429224 1_554
Cr1 S10 2.429224 1_555
Cr1 S12 2.522987 1_555
Cr1 S12 2.522987 1_655
Cr1 S13 2.522987 1_554
Cr1 S13 2.522987 1_654
Cr2 S1 2.362818 1_544
Cr2 S0 2.362818 1_555
Cr2 S22 2.527335 1_454
Cr2 S22 2.527335 1_554
Cr2 S23 2.527335 1_445
Cr2 S23 2.527335 1_545
Cr3 S2 2.362818 1_555
Cr3 S3 2.362818 1_555
Cr3 S21 2.527335 1_555
Cr3 S21 2.527335 1_655
Cr3 S20 2.527335 1_555
Cr3 S20 2.527335 1_655
