# generated using pymatgen
data_Rb8(GaH3)5
_symmetry_space_group_name_H-M   'P 1'
_cell_length_a   11.91052642
_cell_length_b   11.91052642
_cell_length_c   11.91052642
_cell_angle_alpha   60.00000000
_cell_angle_beta   60.00000000
_cell_angle_gamma   60.00000000
_symmetry_Int_Tables_number   1
_chemical_formula_structural   Rb8(GaH3)5
_chemical_formula_sum   'Rb16 Ga10 H30'
_cell_volume   1194.75229303
_cell_formula_units_Z   2
loop_
 _symmetry_equiv_pos_site_id
 _symmetry_equiv_pos_as_xyz
  1  'x, y, z'
loop_
 _atom_site_type_symbol
 _atom_site_label
 _atom_site_symmetry_multiplicity
 _atom_site_fract_x
 _atom_site_fract_y
 _atom_site_fract_z
 _atom_site_occupancy
  Rb  Rb0  1  0.62500000  0.12500000  0.12500000  1
  Rb  Rb1  1  0.12500000  0.12500000  0.62500000  1
  Rb  Rb2  1  0.12500000  0.12500000  0.12500000  1
  Rb  Rb3  1  0.12500000  0.62500000  0.12500000  1
  Rb  Rb4  1  0.57783300  0.92216700  0.57783300  1
  Rb  Rb5  1  0.92216700  0.57783300  0.92216700  1
  Rb  Rb6  1  0.57783300  0.92216700  0.92216700  1
  Rb  Rb7  1  0.92216700  0.57783300  0.57783300  1
  Rb  Rb8  1  0.92216700  0.92216700  0.57783300  1
  Rb  Rb9  1  0.57783300  0.57783300  0.92216700  1
  Rb  Rb10  1  0.67216700  0.32783300  0.67216700  1
  Rb  Rb11  1  0.32783300  0.67216700  0.32783300  1
  Rb  Rb12  1  0.67216700  0.32783300  0.32783300  1
  Rb  Rb13  1  0.32783300  0.67216700  0.67216700  1
  Rb  Rb14  1  0.32783300  0.32783300  0.67216700  1
  Rb  Rb15  1  0.67216700  0.67216700  0.32783300  1
  Ga  Ga0  1  0.99523200  0.33492300  0.33492300  1
  Ga  Ga1  1  0.33492300  0.33492300  0.99523200  1
  Ga  Ga2  1  0.33492300  0.33492300  0.33492300  1
  Ga  Ga3  1  0.33492300  0.99523200  0.33492300  1
  Ga  Ga4  1  0.25476800  0.91507700  0.91507700  1
  Ga  Ga5  1  0.91507700  0.91507700  0.25476800  1
  Ga  Ga6  1  0.91507700  0.91507700  0.91507700  1
  Ga  Ga7  1  0.91507700  0.25476800  0.91507700  1
  Ga  Ga8  1  0.25000000  0.25000000  0.25000000  1
  Ga  Ga9  1  0.00000000  0.00000000  0.00000000  1
  H  H0  1  0.45634500  0.22034100  0.40370600  1
  H  H1  1  0.40370600  0.91960800  0.45634500  1
  H  H2  1  0.91960800  0.40370600  0.22034100  1
  H  H3  1  0.22034100  0.45634500  0.91960800  1
  H  H4  1  0.40370600  0.22034100  0.91960800  1
  H  H5  1  0.45634500  0.91960800  0.22034100  1
  H  H6  1  0.22034100  0.40370600  0.45634500  1
  H  H7  1  0.91960800  0.45634500  0.40370600  1
  H  H8  1  0.91960800  0.22034100  0.45634500  1
  H  H9  1  0.22034100  0.91960800  0.40370600  1
  H  H10  1  0.45634500  0.40370600  0.91960800  1
  H  H11  1  0.40370600  0.45634500  0.22034100  1
  H  H12  1  0.79365500  0.02965900  0.84629400  1
  H  H13  1  0.84629400  0.33039200  0.79365500  1
  H  H14  1  0.33039200  0.84629400  0.02965900  1
  H  H15  1  0.02965900  0.79365500  0.33039200  1
  H  H16  1  0.84629400  0.02965900  0.33039200  1
  H  H17  1  0.79365500  0.33039200  0.02965900  1
  H  H18  1  0.02965900  0.84629400  0.79365500  1
  H  H19  1  0.33039200  0.79365500  0.84629400  1
  H  H20  1  0.33039200  0.02965900  0.79365500  1
  H  H21  1  0.02965900  0.33039200  0.84629400  1
  H  H22  1  0.79365500  0.84629400  0.33039200  1
  H  H23  1  0.84629400  0.79365500  0.02965900  1
  H  H24  1  0.12500000  0.62500000  0.62500000  1
  H  H25  1  0.62500000  0.62500000  0.12500000  1
  H  H26  1  0.62500000  0.62500000  0.62500000  1
  H  H27  1  0.62500000  0.12500000  0.62500000  1
  H  H28  1  0.75000000  0.75000000  0.75000000  1
  H  H29  1  0.50000000  0.50000000  0.50000000  1
loop_
_geom_bond_atom_site_label_1
_geom_bond_atom_site_label_2
_geom_bond_distance
_geom_bond_site_symmetry_2
Ga0 H7 1.648698 1_555
Ga0 H8 1.648706 1_555
Ga0 H2 1.648708 1_555
Ga0 Ga8 2.477594 1_655
Ga1 H10 1.648698 1_555
Ga1 H3 1.648706 1_555
Ga1 H4 1.648708 1_555
Ga1 Ga8 2.477594 1_556
Ga2 H0 1.648700 1_555
Ga2 H6 1.648700 1_555
Ga2 H11 1.648700 1_555
Ga2 Ga8 2.477604 1_555
Ga3 H1 1.648698 1_555
Ga3 H5 1.648706 1_555
Ga3 H9 1.648708 1_555
Ga3 Ga8 2.477594 1_565
Ga4 H19 1.648698 1_555
Ga4 H20 1.648706 1_565
Ga4 H14 1.648708 1_556
Ga4 Ga9 2.477594 1_566
Ga5 H22 1.648698 1_555
Ga5 H15 1.648706 1_655
Ga5 H16 1.648708 1_565
Ga5 Ga9 2.477594 1_665
Ga6 H18 1.648700 1_655
Ga6 H12 1.648700 1_565
Ga6 H23 1.648700 1_556
Ga6 Ga9 2.477604 1_666
Ga7 H13 1.648698 1_555
Ga7 H17 1.648706 1_556
Ga7 H21 1.648708 1_655
Ga7 Ga9 2.477594 1_656
Ga8 Rb3 3.646839 1_555
Ga8 Rb2 3.646839 1_555
Ga8 Rb0 3.646839 1_555
Ga8 Rb1 3.646839 1_555
Ga9 Rb3 3.646839 1_545
Ga9 Rb1 3.646839 1_554
Ga9 Rb0 3.646839 1_455
Ga9 Rb2 3.646839 1_555
H0 Rb12 2.979030 1_555
H0 Rb4 3.082892 1_545
H1 Rb13 2.979030 1_555
H1 Rb4 3.082892 1_555
H2 Rb12 2.979030 1_555
H2 Rb5 3.082892 1_554
H3 Rb13 2.979030 1_555
H3 Rb5 3.082892 1_455
H4 Rb14 2.979030 1_555
H4 Rb6 3.082892 1_545
H5 Rb15 2.979030 1_555
H5 Rb6 3.082892 1_554
H6 Rb14 2.979030 1_555
H6 Rb7 3.082892 1_455
H7 Rb15 2.979030 1_555
H7 Rb7 3.082892 1_555
H8 Rb10 2.979030 1_555
H8 Rb8 3.082892 1_545
H9 Rb11 2.979030 1_555
H9 Rb8 3.082892 1_455
H10 Rb10 2.979030 1_555
H10 Rb9 3.082892 1_555
H11 Rb11 2.979030 1_555
H11 Rb9 3.082892 1_554
H12 Rb6 2.979030 1_545
H12 Rb10 3.082892 1_555
H13 Rb7 2.979030 1_555
H13 Rb10 3.082892 1_555
H14 Rb6 2.979030 1_554
H14 Rb11 3.082892 1_555
H15 Rb7 2.979030 1_455
H15 Rb11 3.082892 1_555
H16 Rb8 2.979030 1_545
H16 Rb12 3.082892 1_555
H17 Rb9 2.979030 1_554
H17 Rb12 3.082892 1_555
H18 Rb8 2.979030 1_455
H18 Rb13 3.082892 1_555
H19 Rb9 2.979030 1_555
H19 Rb13 3.082892 1_555
H20 Rb4 2.979030 1_545
H20 Rb14 3.082892 1_555
H21 Rb5 2.979030 1_455
H21 Rb14 3.082892 1_555
H22 Rb4 2.979030 1_555
H22 Rb15 3.082892 1_555
H23 Rb5 2.979030 1_554
H23 Rb15 3.082892 1_555
H24 Rb13 3.081800 1_555
H24 Rb11 3.081800 1_555
H24 Rb8 3.081800 1_455
H24 Rb5 3.081800 1_455
H24 Rb14 3.081800 1_555
H24 Rb7 3.081800 1_455
H25 Rb15 3.081800 1_555
H25 Rb12 3.081800 1_555
H25 Rb6 3.081800 1_554
H25 Rb11 3.081800 1_555
H25 Rb5 3.081800 1_554
H25 Rb9 3.081800 1_554
H26 Rb7 3.081800 1_555
H26 Rb9 3.081800 1_555
H26 Rb4 3.081800 1_555
H26 Rb15 3.081800 1_555
H26 Rb10 3.081800 1_555
H26 Rb13 3.081800 1_555
H27 Rb10 3.081800 1_555
H27 Rb8 3.081800 1_545
H27 Rb12 3.081800 1_555
H27 Rb6 3.081800 1_545
H27 Rb14 3.081800 1_555
H27 Rb4 3.081800 1_545
H28 Rb8 2.899986 1_555
H28 Rb6 2.899986 1_555
H28 Rb5 2.899986 1_555
H28 Rb7 2.899986 1_555
H28 Rb4 2.899986 1_555
H28 Rb9 2.899986 1_555
H29 Rb13 2.899986 1_555
H29 Rb15 2.899986 1_555
H29 Rb10 2.899986 1_555
H29 Rb12 2.899986 1_555
H29 Rb11 2.899986 1_555
H29 Rb14 2.899986 1_555
