# generated using pymatgen
data_Tc3Os
_symmetry_space_group_name_H-M   'P 1'
_cell_length_a   5.48616031
_cell_length_b   5.48616031
_cell_length_c   17.43841100
_cell_angle_alpha   90.00000000
_cell_angle_beta   90.00000000
_cell_angle_gamma   119.99999750
_symmetry_Int_Tables_number   1
_chemical_formula_structural   Tc3Os
_chemical_formula_sum   'Tc24 Os8'
_cell_volume   454.54254579
_cell_formula_units_Z   8
loop_
 _symmetry_equiv_pos_site_id
 _symmetry_equiv_pos_as_xyz
  1  'x, y, z'
loop_
 _atom_site_type_symbol
 _atom_site_label
 _atom_site_symmetry_multiplicity
 _atom_site_fract_x
 _atom_site_fract_y
 _atom_site_fract_z
 _atom_site_occupancy
  Tc  Tc0_0  1  0.33333350  0.16666650  0.25000000  1
  Tc  Tc0_1  1  0.33333350  0.16666650  0.75000000  1
  Tc  Tc0_2  1  0.33333350  0.66666650  0.25000000  1
  Tc  Tc0_3  1  0.33333350  0.66666650  0.75000000  1
  Tc  Tc0_4  1  0.83333350  0.16666650  0.25000000  1
  Tc  Tc0_5  1  0.83333350  0.16666650  0.75000000  1
  Tc  Tc0_6  1  0.83333350  0.66666650  0.25000000  1
  Tc  Tc0_7  1  0.83333350  0.66666650  0.75000000  1
  Tc  Tc1_0  1  0.16666650  0.33333350  0.12458336  1
  Tc  Tc1_1  1  0.16666650  0.33333350  0.62458335  1
  Tc  Tc1_2  1  0.16666650  0.83333350  0.12458336  1
  Tc  Tc1_3  1  0.16666650  0.83333350  0.62458335  1
  Tc  Tc1_4  1  0.66666650  0.33333350  0.12458336  1
  Tc  Tc1_5  1  0.66666650  0.33333350  0.62458335  1
  Tc  Tc1_6  1  0.66666650  0.83333350  0.12458336  1
  Tc  Tc1_7  1  0.66666650  0.83333350  0.62458335  1
  Tc  Tc2_0  1  0.16666650  0.33333350  0.37541665  1
  Tc  Tc2_1  1  0.16666650  0.33333350  0.87541665  1
  Tc  Tc2_2  1  0.16666650  0.83333350  0.37541665  1
  Tc  Tc2_3  1  0.16666650  0.83333350  0.87541665  1
  Tc  Tc2_4  1  0.66666650  0.33333350  0.37541665  1
  Tc  Tc2_5  1  0.66666650  0.33333350  0.87541665  1
  Tc  Tc2_6  1  0.66666650  0.83333350  0.37541665  1
  Tc  Tc2_7  1  0.66666650  0.83333350  0.87541665  1
  Os  Os0_0  1  0.33333350  0.16666650  0.00000000  1
  Os  Os0_1  1  0.33333350  0.16666650  0.50000000  1
  Os  Os0_2  1  0.33333350  0.66666650  0.00000000  1
  Os  Os0_3  1  0.33333350  0.66666650  0.50000000  1
  Os  Os0_4  1  0.83333350  0.16666650  0.00000000  1
  Os  Os0_5  1  0.83333350  0.16666650  0.50000000  1
  Os  Os0_6  1  0.83333350  0.66666650  0.00000000  1
  Os  Os0_7  1  0.83333350  0.66666650  0.50000000  1
loop_
_geom_bond_atom_site_label_1
_geom_bond_atom_site_label_2
_geom_bond_distance
_geom_bond_site_symmetry_2
Tc0_0 Tc1_2 2.700263 1_545
Tc0_0 Tc1_4 2.700263 1_555
Tc0_0 Tc2_4 2.700263 1_555
Tc0_0 Tc2_2 2.700263 1_545
Tc0_0 Tc1_0 2.700266 1_555
Tc0_0 Tc2_0 2.700266 1_555
Tc0_0 Tc0_2 2.743080 1_555
Tc0_0 Tc0_2 2.743080 1_545
Tc0_0 Tc0_4 2.743080 1_455
Tc0_0 Tc0_4 2.743080 1_555
Tc0_0 Tc0_6 2.743080 1_445
Tc0_0 Tc0_6 2.743080 1_555
Tc0_1 Tc2_5 2.700263 1_555
Tc0_1 Tc2_3 2.700263 1_545
Tc0_1 Tc1_5 2.700263 1_555
Tc0_1 Tc1_3 2.700263 1_545
Tc0_1 Tc1_1 2.700266 1_555
Tc0_1 Tc2_1 2.700266 1_555
Tc0_1 Tc0_3 2.743080 1_555
Tc0_1 Tc0_5 2.743080 1_455
Tc0_1 Tc0_3 2.743080 1_545
Tc0_1 Tc0_5 2.743080 1_555
Tc0_1 Tc0_7 2.743080 1_445
Tc0_1 Tc0_7 2.743080 1_555
Tc0_2 Tc1_0 2.700263 1_555
Tc0_2 Tc1_6 2.700263 1_555
Tc0_2 Tc2_0 2.700263 1_555
Tc0_2 Tc2_6 2.700263 1_555
Tc0_2 Tc1_2 2.700266 1_555
Tc0_2 Tc2_2 2.700266 1_555
Tc0_2 Tc0_6 2.743080 1_455
Tc0_2 Tc0_6 2.743080 1_555
Tc0_2 Tc0_4 2.743080 1_565
Tc0_2 Tc0_4 2.743080 1_455
Tc0_3 Tc2_1 2.700263 1_555
Tc0_3 Tc1_1 2.700263 1_555
Tc0_3 Tc1_7 2.700263 1_555
Tc0_3 Tc2_7 2.700263 1_555
Tc0_3 Tc2_3 2.700266 1_555
Tc0_3 Tc1_3 2.700266 1_555
Tc0_3 Tc0_7 2.743080 1_455
Tc0_3 Tc0_7 2.743080 1_555
Tc0_3 Tc0_5 2.743080 1_565
Tc0_3 Tc0_5 2.743080 1_455
Tc0_4 Tc1_6 2.700263 1_545
Tc0_4 Tc2_6 2.700263 1_545
Tc0_4 Tc1_0 2.700263 1_655
Tc0_4 Tc2_0 2.700263 1_655
Tc0_4 Tc1_4 2.700266 1_555
Tc0_4 Tc2_4 2.700266 1_555
Tc0_4 Tc0_6 2.743080 1_555
Tc0_4 Tc0_6 2.743080 1_545
Tc0_5 Tc2_7 2.700263 1_545
Tc0_5 Tc1_7 2.700263 1_545
Tc0_5 Tc1_1 2.700263 1_655
Tc0_5 Tc2_1 2.700263 1_655
Tc0_5 Tc2_5 2.700266 1_555
Tc0_5 Tc1_5 2.700266 1_555
Tc0_5 Tc0_7 2.743080 1_555
Tc0_5 Tc0_7 2.743080 1_545
Tc0_6 Tc1_4 2.700263 1_555
Tc0_6 Tc2_4 2.700263 1_555
Tc0_6 Tc1_2 2.700263 1_655
Tc0_6 Tc2_2 2.700263 1_655
Tc0_6 Tc1_6 2.700266 1_555
Tc0_6 Tc2_6 2.700266 1_555
Tc0_7 Tc2_5 2.700263 1_555
Tc0_7 Tc1_5 2.700263 1_555
Tc0_7 Tc2_3 2.700263 1_655
Tc0_7 Tc1_3 2.700263 1_655
Tc0_7 Tc1_7 2.700266 1_555
Tc0_7 Tc2_7 2.700266 1_555
Tc1_0 Tc1_4 2.743080 1_455
Tc1_0 Tc1_2 2.743080 1_545
Tc1_0 Tc1_2 2.743080 1_555
Tc1_0 Tc1_4 2.743080 1_555
Tc1_0 Tc1_6 2.743080 1_445
Tc1_0 Tc1_6 2.743080 1_555
Tc1_1 Tc1_3 2.743080 1_555
Tc1_1 Tc1_5 2.743080 1_455
Tc1_1 Tc1_3 2.743080 1_545
Tc1_1 Tc1_5 2.743080 1_555
Tc1_1 Tc1_7 2.743080 1_445
Tc1_1 Tc1_7 2.743080 1_555
Tc1_2 Tc1_6 2.743080 1_455
Tc1_2 Tc1_6 2.743080 1_555
Tc1_2 Tc1_4 2.743080 1_455
Tc1_2 Tc1_4 2.743080 1_565
Tc1_3 Tc1_7 2.743080 1_455
Tc1_3 Tc1_7 2.743080 1_555
Tc1_3 Tc1_5 2.743080 1_455
Tc1_3 Tc1_5 2.743080 1_565
Tc1_4 Tc1_6 2.743080 1_545
Tc1_4 Tc1_6 2.743080 1_555
Tc1_5 Tc1_7 2.743080 1_545
Tc1_5 Tc1_7 2.743080 1_555
Tc2_0 Tc2_2 2.743080 1_555
Tc2_0 Tc2_2 2.743080 1_545
Tc2_0 Tc2_4 2.743080 1_455
Tc2_0 Tc2_4 2.743080 1_555
Tc2_0 Tc2_6 2.743080 1_445
Tc2_0 Tc2_6 2.743080 1_555
Tc2_1 Tc2_3 2.743080 1_555
Tc2_1 Tc2_5 2.743080 1_455
Tc2_1 Tc2_3 2.743080 1_545
Tc2_1 Tc2_5 2.743080 1_555
Tc2_1 Tc2_7 2.743080 1_445
Tc2_1 Tc2_7 2.743080 1_555
Tc2_2 Tc2_6 2.743080 1_455
Tc2_2 Tc2_6 2.743080 1_555
Tc2_2 Tc2_4 2.743080 1_455
Tc2_2 Tc2_4 2.743080 1_565
Tc2_3 Tc2_7 2.743080 1_455
Tc2_3 Tc2_7 2.743080 1_555
Tc2_3 Tc2_5 2.743080 1_455
Tc2_3 Tc2_5 2.743080 1_565
Tc2_4 Tc2_6 2.743080 1_545
Tc2_4 Tc2_6 2.743080 1_555
Tc2_5 Tc2_7 2.743080 1_545
Tc2_5 Tc2_7 2.743080 1_555
Os0_0 Tc2_5 2.688507 1_554
Os0_0 Tc2_3 2.688507 1_544
Os0_0 Tc1_4 2.688507 1_555
Os0_0 Tc1_2 2.688507 1_545
Os0_0 Tc2_1 2.688510 1_554
Os0_0 Tc1_0 2.688510 1_555
Os0_0 Os0_4 2.743080 1_455
Os0_0 Os0_2 2.743080 1_555
Os0_0 Os0_2 2.743080 1_545
Os0_0 Os0_4 2.743080 1_555
Os0_0 Os0_6 2.743080 1_555
Os0_0 Os0_6 2.743080 1_445
Os0_1 Tc2_2 2.688507 1_545
Os0_1 Tc1_3 2.688507 1_545
Os0_1 Tc1_5 2.688507 1_555
Os0_1 Tc2_4 2.688507 1_555
Os0_1 Tc1_1 2.688510 1_555
Os0_1 Tc2_0 2.688510 1_555
Os0_1 Os0_3 2.743080 1_555
Os0_1 Os0_5 2.743080 1_455
Os0_1 Os0_3 2.743080 1_545
Os0_1 Os0_5 2.743080 1_555
Os0_1 Os0_7 2.743080 1_555
Os0_1 Os0_7 2.743080 1_445
Os0_2 Tc2_1 2.688507 1_554
Os0_2 Tc2_7 2.688507 1_554
Os0_2 Tc1_0 2.688507 1_555
Os0_2 Tc1_6 2.688507 1_555
Os0_2 Tc2_3 2.688510 1_554
Os0_2 Tc1_2 2.688510 1_555
Os0_2 Os0_6 2.743080 1_555
Os0_2 Os0_6 2.743080 1_455
Os0_2 Os0_4 2.743080 1_565
Os0_2 Os0_4 2.743080 1_455
Os0_3 Tc1_1 2.688507 1_555
Os0_3 Tc2_0 2.688507 1_555
Os0_3 Tc1_7 2.688507 1_555
Os0_3 Tc2_6 2.688507 1_555
Os0_3 Tc1_3 2.688510 1_555
Os0_3 Tc2_2 2.688510 1_555
Os0_3 Os0_7 2.743080 1_455
Os0_3 Os0_7 2.743080 1_555
Os0_3 Os0_5 2.743080 1_565
Os0_3 Os0_5 2.743080 1_455
Os0_4 Tc2_7 2.688507 1_544
Os0_4 Tc1_6 2.688507 1_545
Os0_4 Tc2_1 2.688507 1_654
Os0_4 Tc1_0 2.688507 1_655
Os0_4 Tc2_5 2.688510 1_554
Os0_4 Tc1_4 2.688510 1_555
Os0_4 Os0_6 2.743080 1_545
Os0_4 Os0_6 2.743080 1_555
Os0_5 Tc2_6 2.688507 1_545
Os0_5 Tc1_7 2.688507 1_545
Os0_5 Tc2_0 2.688507 1_655
Os0_5 Tc1_1 2.688507 1_655
Os0_5 Tc1_5 2.688510 1_555
Os0_5 Tc2_4 2.688510 1_555
Os0_5 Os0_7 2.743080 1_545
Os0_5 Os0_7 2.743080 1_555
Os0_6 Tc2_5 2.688507 1_554
Os0_6 Tc2_3 2.688507 1_654
Os0_6 Tc1_4 2.688507 1_555
Os0_6 Tc1_2 2.688507 1_655
Os0_6 Tc2_7 2.688510 1_554
Os0_6 Tc1_6 2.688510 1_555
Os0_7 Tc1_5 2.688507 1_555
Os0_7 Tc2_4 2.688507 1_555
Os0_7 Tc1_3 2.688507 1_655
Os0_7 Tc2_2 2.688507 1_655
Os0_7 Tc2_6 2.688510 1_555
Os0_7 Tc1_7 2.688510 1_555
