# generated using pymatgen
data_Gd7Y5Nb4O28
_symmetry_space_group_name_H-M   'P 1'
_cell_length_a   6.54260300
_cell_length_b   7.56597736
_cell_length_c   12.59656883
_cell_angle_alpha   89.92624991
_cell_angle_beta   79.30883804
_cell_angle_gamma   89.95473725
_symmetry_Int_Tables_number   1
_chemical_formula_structural   Gd7Y5Nb4O28
_chemical_formula_sum   'Gd7 Y5 Nb4 O28'
_cell_volume   612.72064022
_cell_formula_units_Z   1
loop_
 _symmetry_equiv_pos_site_id
 _symmetry_equiv_pos_as_xyz
  1  'x, y, z'
loop_
 _atom_site_type_symbol
 _atom_site_label
 _atom_site_symmetry_multiplicity
 _atom_site_fract_x
 _atom_site_fract_y
 _atom_site_fract_z
 _atom_site_occupancy
  Gd  Gd0  1  0.23165300  0.00785200  0.76784200  1
  Gd  Gd1  1  0.46522800  0.99253800  0.00089000  1
  Gd  Gd2  1  0.96429100  0.99244300  0.49964800  1
  Gd  Gd3  1  0.26807500  0.74903100  0.26700600  1
  Gd  Gd4  1  0.76696300  0.74848700  0.76732200  1
  Gd  Gd5  1  0.23253100  0.25078300  0.23369300  1
  Gd  Gd6  1  0.73246400  0.25139900  0.73329400  1
  Y  Y0  1  0.76869800  0.50765200  0.23160600  1
  Y  Y1  1  0.26895500  0.50765000  0.73164000  1
  Y  Y2  1  0.03761300  0.49213500  0.49945900  1
  Y  Y3  1  0.53703700  0.49207900  0.00013800  1
  Y  Y4  1  0.73236700  0.00716100  0.26768900  1
  Nb  Nb0  1  0.50293000  0.74876100  0.50103500  1
  Nb  Nb1  1  0.00210700  0.74875800  0.00199800  1
  Nb  Nb2  1  0.99853600  0.25085600  0.99880100  1
  Nb  Nb3  1  0.49981600  0.25133800  0.49752500  1
  O  O0  1  0.89677600  0.79396300  0.15429200  1
  O  O1  1  0.39933100  0.79134400  0.65399000  1
  O  O2  1  0.21807400  0.20914800  0.47226000  1
  O  O3  1  0.71759000  0.21003900  0.97270000  1
  O  O4  1  0.60346800  0.29426200  0.34562900  1
  O  O5  1  0.10234900  0.29713400  0.84710900  1
  O  O6  1  0.28061200  0.70319400  0.02645900  1
  O  O7  1  0.78123300  0.70265700  0.52522700  1
  O  O8  1  0.05365700  0.49988900  0.31511500  1
  O  O9  1  0.55338800  0.50005100  0.81545400  1
  O  O10  1  0.44689600  0.00119800  0.18685200  1
  O  O11  1  0.94360800  0.99997400  0.68528100  1
  O  O12  1  0.89470900  0.50001400  0.03652000  1
  O  O13  1  0.39574700  0.49989000  0.53388600  1
  O  O14  1  0.60011400  0.99992800  0.46561300  1
  O  O15  1  0.09899000  0.00004700  0.96724000  1
  O  O16  1  0.04002300  0.99940000  0.31873000  1
  O  O17  1  0.54188300  0.00002800  0.81972300  1
  O  O18  1  0.46160100  0.50018500  0.18002100  1
  O  O19  1  0.96190800  0.49997600  0.67925900  1
  O  O20  1  0.21198800  0.77040900  0.45778300  1
  O  O21  1  0.71113500  0.77006900  0.95852600  1
  O  O22  1  0.91594300  0.22654600  0.16523300  1
  O  O23  1  0.41813800  0.22903800  0.66467600  1
  O  O24  1  0.28683900  0.27593100  0.04147800  1
  O  O25  1  0.78737000  0.27623900  0.54015600  1
  O  O26  1  0.58450100  0.72631900  0.33515100  1
  O  O27  1  0.08286700  0.72420500  0.83605100  1
loop_
_geom_bond_atom_site_label_1
_geom_bond_atom_site_label_2
_geom_bond_distance
_geom_bond_site_symmetry_2
Gd0 O17 2.245483 1_555
Gd0 O1 2.315837 1_545
Gd0 O11 2.316081 1_445
Gd0 O23 2.321063 1_555
Gd0 O27 2.445334 1_545
Gd0 O5 2.488449 1_555
Gd0 O15 2.501291 1_555
Gd1 O17 2.244482 1_564
Gd1 O3 2.312037 1_564
Gd1 O21 2.320748 1_554
Gd1 O10 2.324230 1_565
Gd1 O24 2.449165 1_565
Gd1 O6 2.492623 1_555
Gd1 O15 2.510179 1_564
Gd2 O16 2.241125 1_655
Gd2 O2 2.313980 1_665
Gd2 O11 2.317825 1_555
Gd2 O20 2.325373 1_655
Gd2 O25 2.447533 1_565
Gd2 O7 2.490886 1_555
Gd2 O14 2.498568 1_555
Gd3 O8 2.360992 1_555
Gd3 O10 2.364010 1_565
Gd3 O20 2.368458 1_555
Gd3 O26 2.389710 1_555
Gd3 O18 2.415647 1_555
Gd3 O16 2.424268 1_555
Gd4 O9 2.353753 1_555
Gd4 O11 2.362071 1_555
Gd4 O21 2.373927 1_555
Gd4 O27 2.391229 1_655
Gd4 O17 2.421657 1_565
Gd4 O19 2.422640 1_555
Gd5 O8 2.351572 1_555
Gd5 O10 2.360655 1_555
Gd5 O24 2.388435 1_555
Gd5 O22 2.394027 1_455
Gd5 O16 2.418506 1_545
Gd5 O18 2.426752 1_555
Gd5 O2 3.005180 1_555
Gd5 O4 3.042738 1_555
Gd6 O9 2.352594 1_555
Gd6 O11 2.362542 1_545
Gd6 O23 2.380212 1_555
Gd6 O25 2.399566 1_555
Gd6 O17 2.419065 1_555
Gd6 O19 2.424040 1_555
Gd6 O3 3.015052 1_555
Gd6 O5 3.053116 1_655
Nb0 O7 1.932497 1_555
Nb0 O1 1.947342 1_555
Nb0 O13 2.025073 1_555
Nb0 O14 2.027084 1_555
Nb0 O26 2.065662 1_555
Nb0 O20 2.081132 1_555
Nb1 O6 1.934181 1_555
Nb1 O0 1.944963 1_455
Nb1 O15 2.026083 1_564
Nb1 O12 2.027644 1_455
Nb1 O27 2.067450 1_554
Nb1 O21 2.082322 1_454
Nb2 O5 1.937057 1_655
Nb2 O3 1.951290 1_555
Nb2 O15 2.023357 1_655
Nb2 O12 2.030128 1_556
Nb2 O24 2.063976 1_656
Nb2 O22 2.073611 1_556
Nb3 O4 1.934853 1_555
Nb3 O2 1.954452 1_555
Nb3 O13 2.023437 1_555
Nb3 O14 2.027942 1_545
Nb3 O25 2.058889 1_555
Nb3 O23 2.080636 1_555
O0 Y4 2.287456 1_565
O0 Y0 2.457196 1_555
O1 Y1 2.445278 1_555
O2 Y2 2.437909 1_555
O3 Y3 2.432055 1_556
O4 Y0 2.293230 1_555
O4 Y4 2.467579 1_555
O5 Y1 2.291112 1_555
O6 Y3 2.294918 1_555
O7 Y2 2.291534 1_655
O8 Y0 2.305041 1_455
O8 Y2 2.305610 1_555
O9 Y1 2.304271 1_555
O9 Y3 2.309645 1_556
O10 Y4 2.287617 1_555
O12 Y0 2.443463 1_555
O12 Y3 2.467373 1_555
O13 Y2 2.461514 1_555
O13 Y1 2.475961 1_555
O14 Y4 2.483319 1_565
O16 Y4 2.224491 1_465
O18 Y0 2.224195 1_555
O18 Y3 2.228692 1_555
O19 Y2 2.227674 1_655
O19 Y1 2.228552 1_655
O20 Y2 2.405967 1_555
O21 Y3 2.403195 1_556
O22 Y4 2.299095 1_555
O22 Y0 2.419306 1_555
O23 Y1 2.409063 1_555
O24 Y3 2.304553 1_555
O25 Y2 2.302655 1_655
O26 Y0 2.304321 1_555
O26 Y4 2.422105 1_565
O27 Y1 2.303237 1_555
