# generated using pymatgen
data_Cs3CeCl6
_symmetry_space_group_name_H-M   'P 1'
_cell_length_a   8.47305294
_cell_length_b   8.47305294
_cell_length_c   8.47305294
_cell_angle_alpha   60.00000000
_cell_angle_beta   60.00000000
_cell_angle_gamma   60.00000000
_symmetry_Int_Tables_number   1
_chemical_formula_structural   Cs3CeCl6
_chemical_formula_sum   'Cs3 Ce1 Cl6'
_cell_volume   430.13497937
_cell_formula_units_Z   1
loop_
 _symmetry_equiv_pos_site_id
 _symmetry_equiv_pos_as_xyz
  1  'x, y, z'
loop_
 _atom_site_type_symbol
 _atom_site_label
 _atom_site_symmetry_multiplicity
 _atom_site_fract_x
 _atom_site_fract_y
 _atom_site_fract_z
 _atom_site_occupancy
  Cs  Cs0  1  0.75000000  0.75000000  0.75000000  1
  Cs  Cs1  1  0.25000000  0.25000000  0.25000000  1
  Cs  Cs2  1  0.50000000  0.50000000  0.50000000  1
  Ce  Ce0  1  -0.00000000  0.00000000  0.00000000  1
  Cl  Cl0  1  0.77129804  0.22870196  0.22870196  1
  Cl  Cl1  1  0.22870196  0.22870196  0.77129804  1
  Cl  Cl2  1  0.22870196  0.77129804  0.77129804  1
  Cl  Cl3  1  0.22870196  0.77129804  0.22870196  1
  Cl  Cl4  1  0.77129804  0.22870196  0.77129804  1
  Cl  Cl5  1  0.77129804  0.77129804  0.22870196  1
loop_
_geom_bond_atom_site_label_1
_geom_bond_atom_site_label_2
_geom_bond_distance
_geom_bond_site_symmetry_2
Ce0 Cl4 2.740468 1_454
Ce0 Cl5 2.740468 1_445
Ce0 Cl2 2.740468 1_544
Ce0 Cl0 2.740468 1_455
Ce0 Cl3 2.740468 1_545
Ce0 Cl1 2.740468 1_554
Cl0 Cs2 3.250885 1_555
Cl1 Cs2 3.250885 1_555
Cl2 Cs2 3.250885 1_555
Cl3 Cs2 3.250885 1_555
Cl4 Cs2 3.250885 1_555
Cl5 Cs2 3.250885 1_555
