# generated using pymatgen
data_Mg30TiCoO32
_symmetry_space_group_name_H-M   'P 1'
_cell_length_a   8.53474500
_cell_length_b   8.54334900
_cell_length_c   8.54334900
_cell_angle_alpha   90.00000000
_cell_angle_beta   90.00000000
_cell_angle_gamma   90.00000000
_symmetry_Int_Tables_number   1
_chemical_formula_structural   Mg30TiCoO32
_chemical_formula_sum   'Mg30 Ti1 Co1 O32'
_cell_volume   622.94089943
_cell_formula_units_Z   1
loop_
 _symmetry_equiv_pos_site_id
 _symmetry_equiv_pos_as_xyz
  1  'x, y, z'
loop_
 _atom_site_type_symbol
 _atom_site_label
 _atom_site_symmetry_multiplicity
 _atom_site_fract_x
 _atom_site_fract_y
 _atom_site_fract_z
 _atom_site_occupancy
  Mg  Mg0  1  0.00000000  0.00000000  0.50000000  1
  Mg  Mg1  1  0.00000000  0.50000000  0.00000000  1
  Mg  Mg2  1  0.50000000  0.00000000  0.00000000  1
  Mg  Mg3  1  0.50000000  0.00000000  0.50000000  1
  Mg  Mg4  1  0.50000000  0.50000000  0.00000000  1
  Mg  Mg5  1  0.50000000  0.50000000  0.50000000  1
  Mg  Mg6  1  0.00000000  0.24467300  0.24467300  1
  Mg  Mg7  1  0.00000000  0.24467300  0.75532700  1
  Mg  Mg8  1  0.00000000  0.75532700  0.24467300  1
  Mg  Mg9  1  0.00000000  0.75532700  0.75532700  1
  Mg  Mg10  1  0.50000000  0.24897900  0.24897900  1
  Mg  Mg11  1  0.50000000  0.24897900  0.75102100  1
  Mg  Mg12  1  0.50000000  0.75102100  0.24897900  1
  Mg  Mg13  1  0.50000000  0.75102100  0.75102100  1
  Mg  Mg14  1  0.24818300  0.00000000  0.24722100  1
  Mg  Mg15  1  0.24818300  0.00000000  0.75277900  1
  Mg  Mg16  1  0.25208500  0.50000000  0.24723500  1
  Mg  Mg17  1  0.25208500  0.50000000  0.75276500  1
  Mg  Mg18  1  0.75181700  0.00000000  0.24722100  1
  Mg  Mg19  1  0.75181700  0.00000000  0.75277900  1
  Mg  Mg20  1  0.74791500  0.50000000  0.24723500  1
  Mg  Mg21  1  0.74791500  0.50000000  0.75276500  1
  Mg  Mg22  1  0.24818300  0.24722100  0.00000000  1
  Mg  Mg23  1  0.25208500  0.24723500  0.50000000  1
  Mg  Mg24  1  0.24818300  0.75277900  0.00000000  1
  Mg  Mg25  1  0.25208500  0.75276500  0.50000000  1
  Mg  Mg26  1  0.75181700  0.24722100  0.00000000  1
  Mg  Mg27  1  0.74791500  0.24723500  0.50000000  1
  Mg  Mg28  1  0.75181700  0.75277900  0.00000000  1
  Mg  Mg29  1  0.74791500  0.75276500  0.50000000  1
  Ti  Ti0  1  0.00000000  0.50000000  0.50000000  1
  Co  Co0  1  0.00000000  0.00000000  0.00000000  1
  O  O0  1  0.26057100  0.00000000  0.00000000  1
  O  O1  1  0.25055500  0.00000000  0.50000000  1
  O  O2  1  0.25055500  0.50000000  0.00000000  1
  O  O3  1  0.24895400  0.50000000  0.50000000  1
  O  O4  1  0.73942900  0.00000000  0.00000000  1
  O  O5  1  0.74944500  0.00000000  0.50000000  1
  O  O6  1  0.74944500  0.50000000  0.00000000  1
  O  O7  1  0.75104600  0.50000000  0.50000000  1
  O  O8  1  0.24927200  0.25104400  0.25104400  1
  O  O9  1  0.24927200  0.25104400  0.74895600  1
  O  O10  1  0.24927200  0.74895600  0.25104400  1
  O  O11  1  0.24927200  0.74895600  0.74895600  1
  O  O12  1  0.75072800  0.25104400  0.25104400  1
  O  O13  1  0.75072800  0.25104400  0.74895600  1
  O  O14  1  0.75072800  0.74895600  0.25104400  1
  O  O15  1  0.75072800  0.74895600  0.74895600  1
  O  O16  1  0.00000000  0.00000000  0.26184500  1
  O  O17  1  0.00000000  0.00000000  0.73815500  1
  O  O18  1  0.00000000  0.50000000  0.25491100  1
  O  O19  1  0.00000000  0.50000000  0.74508900  1
  O  O20  1  0.50000000  0.00000000  0.25183700  1
  O  O21  1  0.50000000  0.00000000  0.74816300  1
  O  O22  1  0.50000000  0.50000000  0.25109500  1
  O  O23  1  0.50000000  0.50000000  0.74890500  1
  O  O24  1  0.00000000  0.26184500  0.00000000  1
  O  O25  1  0.00000000  0.25491100  0.50000000  1
  O  O26  1  0.00000000  0.73815500  0.00000000  1
  O  O27  1  0.00000000  0.74508900  0.50000000  1
  O  O28  1  0.50000000  0.25183700  0.00000000  1
  O  O29  1  0.50000000  0.25109500  0.50000000  1
  O  O30  1  0.50000000  0.74816300  0.00000000  1
  O  O31  1  0.50000000  0.74890500  0.50000000  1
loop_
_geom_bond_atom_site_label_1
_geom_bond_atom_site_label_2
_geom_bond_distance
_geom_bond_site_symmetry_2
Mg0 O17 2.034641 1_555
Mg0 O16 2.034641 1_555
Mg0 O1 2.138423 1_555
Mg0 O5 2.138423 1_455
Mg0 O25 2.177794 1_555
Mg0 O27 2.177794 1_545
Mg1 O24 2.034641 1_555
Mg1 O26 2.034641 1_555
Mg1 O2 2.138423 1_555
Mg1 O6 2.138423 1_455
Mg1 O18 2.177794 1_555
Mg1 O19 2.177794 1_554
Mg2 O4 2.043465 1_555
Mg2 O0 2.043465 1_555
Mg2 O20 2.151531 1_555
Mg2 O28 2.151531 1_555
Mg2 O21 2.151531 1_554
Mg2 O30 2.151531 1_545
Mg3 O21 2.120143 1_555
Mg3 O20 2.120143 1_555
Mg3 O5 2.128949 1_555
Mg3 O1 2.128949 1_555
Mg3 O29 2.145192 1_555
Mg3 O31 2.145192 1_545
Mg4 O30 2.120143 1_555
Mg4 O28 2.120143 1_555
Mg4 O6 2.128949 1_555
Mg4 O2 2.128949 1_555
Mg4 O22 2.145192 1_555
Mg4 O23 2.145192 1_554
Mg5 O31 2.126482 1_555
Mg5 O23 2.126482 1_555
Mg5 O22 2.126482 1_555
Mg5 O29 2.126482 1_555
Mg5 O7 2.142614 1_555
Mg5 O3 2.142614 1_555
Mg6 O24 2.095469 1_555
Mg6 O16 2.095469 1_555
Mg6 O8 2.128865 1_555
Mg6 O12 2.128865 1_455
Mg6 O25 2.183101 1_555
Mg6 O18 2.183101 1_555
Mg7 O17 2.095469 1_555
Mg7 O24 2.095469 1_556
Mg7 O9 2.128865 1_555
Mg7 O13 2.128865 1_455
Mg7 O19 2.183101 1_555
Mg7 O25 2.183101 1_555
Mg8 O26 2.095469 1_555
Mg8 O16 2.095469 1_565
Mg8 O10 2.128865 1_555
Mg8 O14 2.128865 1_455
Mg8 O27 2.183101 1_555
Mg8 O18 2.183101 1_555
Mg9 O26 2.095469 1_556
Mg9 O17 2.095469 1_565
Mg9 O11 2.128865 1_555
Mg9 O15 2.128865 1_455
Mg9 O19 2.183101 1_555
Mg9 O27 2.183101 1_555
Mg10 O20 2.127255 1_555
Mg10 O28 2.127255 1_555
Mg10 O12 2.140045 1_555
Mg10 O8 2.140045 1_555
Mg10 O29 2.144636 1_555
Mg10 O22 2.144636 1_555
Mg11 O21 2.127255 1_555
Mg11 O28 2.127255 1_556
Mg11 O13 2.140045 1_555
Mg11 O9 2.140045 1_555
Mg11 O29 2.144636 1_555
Mg11 O23 2.144636 1_555
Mg12 O30 2.127255 1_555
Mg12 O20 2.127255 1_565
Mg12 O14 2.140045 1_555
Mg12 O10 2.140045 1_555
Mg12 O22 2.144636 1_555
Mg12 O31 2.144636 1_555
Mg13 O30 2.127255 1_556
Mg13 O21 2.127255 1_565
Mg13 O15 2.140045 1_555
Mg13 O11 2.140045 1_555
Mg13 O31 2.144636 1_555
Mg13 O23 2.144636 1_555
Mg14 O0 2.114740 1_555
Mg14 O16 2.121860 1_555
Mg14 O8 2.145025 1_555
Mg14 O10 2.145025 1_545
Mg14 O20 2.149556 1_555
Mg14 O1 2.159674 1_555
Mg15 O0 2.114740 1_556
Mg15 O17 2.121860 1_555
Mg15 O9 2.145025 1_555
Mg15 O11 2.145025 1_545
Mg15 O21 2.149556 1_555
Mg15 O1 2.159674 1_555
Mg16 O2 2.112255 1_555
Mg16 O22 2.116148 1_555
Mg16 O10 2.127302 1_555
Mg16 O8 2.127302 1_555
Mg16 O18 2.152480 1_555
Mg16 O3 2.159625 1_555
Mg17 O2 2.112255 1_556
Mg17 O23 2.116148 1_555
Mg17 O11 2.127302 1_555
Mg17 O9 2.127302 1_555
Mg17 O19 2.152480 1_555
Mg17 O3 2.159625 1_555
Mg18 O4 2.114740 1_555
Mg18 O16 2.121860 1_655
Mg18 O12 2.145025 1_555
Mg18 O14 2.145025 1_545
Mg18 O20 2.149556 1_555
Mg18 O5 2.159674 1_555
Mg19 O4 2.114740 1_556
Mg19 O17 2.121860 1_655
Mg19 O13 2.145025 1_555
Mg19 O15 2.145025 1_545
Mg19 O21 2.149556 1_555
Mg19 O5 2.159674 1_555
Mg20 O6 2.112255 1_555
Mg20 O22 2.116148 1_555
Mg20 O14 2.127302 1_555
Mg20 O12 2.127302 1_555
Mg20 O18 2.152480 1_655
Mg20 O7 2.159625 1_555
Mg21 O6 2.112255 1_556
Mg21 O23 2.116148 1_555
Mg21 O15 2.127302 1_555
Mg21 O13 2.127302 1_555
Mg21 O19 2.152480 1_655
Mg21 O7 2.159625 1_555
Mg22 O0 2.114740 1_555
Mg22 O24 2.121860 1_555
Mg22 O8 2.145025 1_555
Mg22 O9 2.145025 1_554
Mg22 O28 2.149556 1_555
Mg22 O2 2.159674 1_555
Mg23 O1 2.112255 1_555
Mg23 O29 2.116148 1_555
Mg23 O9 2.127302 1_555
Mg23 O8 2.127302 1_555
Mg23 O25 2.152480 1_555
Mg23 O3 2.159625 1_555
Mg24 O0 2.114740 1_565
Mg24 O26 2.121860 1_555
Mg24 O10 2.145025 1_555
Mg24 O11 2.145025 1_554
Mg24 O30 2.149556 1_555
Mg24 O2 2.159674 1_555
Mg25 O1 2.112255 1_565
Mg25 O31 2.116148 1_555
Mg25 O11 2.127302 1_555
Mg25 O10 2.127302 1_555
Mg25 O27 2.152480 1_555
Mg25 O3 2.159625 1_555
Mg26 O4 2.114740 1_555
Mg26 O24 2.121860 1_655
Mg26 O12 2.145025 1_555
Mg26 O13 2.145025 1_554
Mg26 O28 2.149556 1_555
Mg26 O6 2.159674 1_555
Mg27 O5 2.112255 1_555
Mg27 O29 2.116148 1_555
Mg27 O13 2.127302 1_555
Mg27 O12 2.127302 1_555
Mg27 O25 2.152480 1_655
Mg27 O7 2.159625 1_555
Mg28 O4 2.114740 1_565
Mg28 O26 2.121860 1_655
Mg28 O14 2.145025 1_555
Mg28 O15 2.145025 1_554
Mg28 O30 2.149556 1_555
Mg28 O6 2.159674 1_555
Mg29 O5 2.112255 1_565
Mg29 O31 2.116148 1_555
Mg29 O15 2.127302 1_555
Mg29 O14 2.127302 1_555
Mg29 O27 2.152480 1_655
Mg29 O7 2.159625 1_555
Co0 O0 2.223907 1_555
Co0 O4 2.223907 1_455
Co0 O17 2.237033 1_554
Co0 O24 2.237033 1_555
Co0 O26 2.237033 1_545
Co0 O16 2.237033 1_555
O3 Ti0 2.124759 1_555
O7 Ti0 2.124759 1_655
O18 Ti0 2.093881 1_555
O19 Ti0 2.093881 1_555
O25 Ti0 2.093881 1_555
O27 Ti0 2.093881 1_555
