# generated using pymatgen
data_BaMg6Zn
_symmetry_space_group_name_H-M   'P 1'
_cell_length_a   5.07319500
_cell_length_b   7.02004900
_cell_length_c   12.10781400
_cell_angle_alpha   90.00000000
_cell_angle_beta   90.00000000
_cell_angle_gamma   90.00000000
_symmetry_Int_Tables_number   1
_chemical_formula_structural   BaMg6Zn
_chemical_formula_sum   'Ba2 Mg12 Zn2'
_cell_volume   431.20862599
_cell_formula_units_Z   2
loop_
 _symmetry_equiv_pos_site_id
 _symmetry_equiv_pos_as_xyz
  1  'x, y, z'
loop_
 _atom_site_type_symbol
 _atom_site_label
 _atom_site_symmetry_multiplicity
 _atom_site_fract_x
 _atom_site_fract_y
 _atom_site_fract_z
 _atom_site_occupancy
  Ba  Ba0  1  0.50000000  0.50000000  0.17307100  1
  Ba  Ba1  1  0.50000000  0.00000000  0.67307100  1
  Mg  Mg0  1  0.00000000  0.21849400  0.06712100  1
  Mg  Mg1  1  0.00000000  0.78150600  0.06712100  1
  Mg  Mg2  1  0.00000000  0.50000000  0.83301400  1
  Mg  Mg3  1  0.50000000  0.23773500  0.92029900  1
  Mg  Mg4  1  0.50000000  0.76226500  0.92029900  1
  Mg  Mg5  1  0.50000000  0.50000000  0.66174700  1
  Mg  Mg6  1  0.00000000  0.71849400  0.56712100  1
  Mg  Mg7  1  0.00000000  0.28150600  0.56712100  1
  Mg  Mg8  1  0.00000000  0.00000000  0.33301400  1
  Mg  Mg9  1  0.50000000  0.73773500  0.42029900  1
  Mg  Mg10  1  0.50000000  0.26226500  0.42029900  1
  Mg  Mg11  1  0.50000000  0.00000000  0.16174700  1
  Zn  Zn0  1  0.00000000  0.50000000  0.35732800  1
  Zn  Zn1  1  0.00000000  0.00000000  0.85732800  1
loop_
_geom_bond_atom_site_label_1
_geom_bond_atom_site_label_2
_geom_bond_distance
_geom_bond_site_symmetry_2
Ba0 Zn0 3.378086 1_555
Ba0 Zn0 3.378086 1_655
Ba0 Mg10 3.427193 1_555
Ba0 Mg9 3.427193 1_555
Ba0 Mg1 3.461975 1_655
Ba0 Mg0 3.461975 1_555
Ba0 Mg0 3.461975 1_655
Ba0 Mg1 3.461975 1_555
Ba0 Mg11 3.512701 1_565
Ba0 Mg11 3.512701 1_555
Ba0 Mg4 3.571618 1_554
Ba0 Mg3 3.571618 1_554
Ba1 Zn1 3.378086 1_655
Ba1 Zn1 3.378086 1_555
Ba1 Mg4 3.427193 1_545
Ba1 Mg3 3.427193 1_555
Ba1 Mg7 3.461975 1_555
Ba1 Mg7 3.461975 1_655
Ba1 Mg6 3.461975 1_545
Ba1 Mg6 3.461975 1_645
Ba1 Mg5 3.512701 1_555
Ba1 Mg5 3.512701 1_545
Ba1 Mg9 3.571618 1_545
Ba1 Mg10 3.571618 1_555
Mg0 Zn1 2.967313 1_554
Mg0 Mg3 3.100446 1_454
Mg0 Mg3 3.100446 1_554
Mg0 Mg11 3.177994 1_455
Mg0 Mg11 3.177994 1_555
Mg1 Zn1 2.967313 1_564
Mg1 Mg4 3.100446 1_554
Mg1 Mg4 3.100446 1_454
Mg1 Mg11 3.177994 1_465
Mg1 Mg11 3.177994 1_565
Mg2 Mg5 3.276344 1_555
Mg2 Mg5 3.276344 1_455
Mg2 Mg4 3.307705 1_455
Mg2 Mg4 3.307705 1_555
Mg2 Mg3 3.307705 1_555
Mg2 Mg3 3.307705 1_455
Mg3 Zn1 3.130640 1_555
Mg3 Zn1 3.130640 1_655
Mg3 Mg4 3.337823 1_545
Mg4 Zn1 3.130640 1_565
Mg4 Zn1 3.130640 1_665
Mg5 Mg7 3.177994 1_555
Mg5 Mg6 3.177994 1_655
Mg5 Mg7 3.177994 1_655
Mg5 Mg6 3.177994 1_555
Mg5 Mg9 3.366241 1_555
Mg6 Zn0 2.967313 1_555
Mg6 Mg9 3.100446 1_455
Mg6 Mg9 3.100446 1_555
Mg7 Zn0 2.967313 1_555
Mg8 Mg9 3.307705 1_545
Mg8 Mg9 3.307705 1_445
Mg9 Zn0 3.130640 1_655
Mg9 Zn0 3.130640 1_555
Mg10 Mg7 3.100446 1_655
Mg10 Mg7 3.100446 1_555
Mg10 Zn0 3.130640 1_655
Mg10 Zn0 3.130640 1_555
Mg10 Mg8 3.307705 1_655
Mg10 Mg8 3.307705 1_555
Mg10 Mg9 3.337823 1_555
Mg10 Mg5 3.366241 1_555
Mg11 Mg8 3.276344 1_555
Mg11 Mg8 3.276344 1_655
Mg11 Mg4 3.366241 1_544
Mg11 Mg3 3.366241 1_554
