# generated using pymatgen
data_Sr4Y2Mg(RuO6)2
_symmetry_space_group_name_H-M   'P 1'
_cell_length_a   6.26658762
_cell_length_b   5.91347412
_cell_length_c   8.21438586
_cell_angle_alpha   88.58779881
_cell_angle_beta   91.84962814
_cell_angle_gamma   94.45808110
_symmetry_Int_Tables_number   1
_chemical_formula_structural   Sr4Y2Mg(RuO6)2
_chemical_formula_sum   'Sr4 Y2 Mg1 Ru2 O12'
_cell_volume   303.24903485
_cell_formula_units_Z   1
loop_
 _symmetry_equiv_pos_site_id
 _symmetry_equiv_pos_as_xyz
  1  'x, y, z'
loop_
 _atom_site_type_symbol
 _atom_site_label
 _atom_site_symmetry_multiplicity
 _atom_site_fract_x
 _atom_site_fract_y
 _atom_site_fract_z
 _atom_site_occupancy
  Sr  Sr0  1  0.54430600  0.59667100  0.25225100  1
  Sr  Sr1  1  0.09294800  0.86245900  0.23442200  1
  Sr  Sr2  1  0.96184600  0.95858900  0.72015000  1
  Sr  Sr3  1  0.50201200  0.51451100  0.76559500  1
  Y  Y0  1  0.45109800  0.03583300  0.52152300  1
  Y  Y1  1  0.02640500  0.43264600  0.98255800  1
  Mg  Mg0  1  0.75391400  0.17186200  0.24629400  1
  Ru  Ru0  1  0.49133400  0.01173400  0.99738400  1
  Ru  Ru1  1  0.98761300  0.49648900  0.50081800  1
  O  O0  1  0.92268900  0.53669300  0.73759100  1
  O  O1  1  0.56993600  0.96157600  0.76832200  1
  O  O2  1  0.00662600  0.42826100  0.25490300  1
  O  O3  1  0.45010700  0.03829600  0.24796300  1
  O  O4  1  0.81149300  0.78241800  0.45085400  1
  O  O5  1  0.66672200  0.32545700  0.02409000  1
  O  O6  1  0.18424500  0.24303500  0.55434000  1
  O  O7  1  0.30063500  0.70118100  0.00106100  1
  O  O8  1  0.22433000  0.16369700  0.93783000  1
  O  O9  1  0.25874300  0.70761700  0.50743000  1
  O  O10  1  0.76981600  0.89463900  0.07955600  1
  O  O11  1  0.71068100  0.30300700  0.47287600  1
loop_
_geom_bond_atom_site_label_1
_geom_bond_atom_site_label_2
_geom_bond_distance
_geom_bond_site_symmetry_2
Mg0 O3 2.003996 1_555
Mg0 O11 2.067699 1_555
Mg0 O5 2.094322 1_555
Mg0 O2 2.106321 1_655
Mg0 O10 2.172147 1_545
O0 Ru1 2.023307 1_555
O0 Y1 2.183318 1_655
O0 Sr2 2.488895 1_555
O0 Sr3 2.646436 1_555
O1 Ru0 1.995264 1_565
O1 Y0 2.183316 1_565
O1 Sr2 2.501669 1_555
O1 Sr3 2.645418 1_555
O2 Ru1 2.078636 1_455
O2 Y1 2.243970 1_554
O2 Sr1 2.585005 1_555
O3 Ru0 2.093993 1_554
O3 Y0 2.246627 1_555
O3 Sr1 2.393910 1_545
O3 Sr0 2.720958 1_545
O4 Ru1 2.114738 1_555
O4 Sr0 2.509485 1_555
O4 Sr1 2.554765 1_655
O4 Sr2 2.587063 1_555
O4 Y0 2.887370 1_565
O5 Ru0 2.094126 1_554
O5 Y1 2.327121 1_654
O5 Sr3 2.597086 1_554
O5 Sr0 2.665632 1_555
O6 Ru1 2.043937 1_455
O6 Y0 2.175856 1_555
O6 Sr2 2.504393 1_445
O6 Sr3 2.995193 1_555
O7 Ru0 2.111865 1_564
O7 Y1 2.251391 1_554
O7 Sr1 2.592709 1_555
O7 Sr0 2.617555 1_555
O7 Sr3 2.651709 1_554
O8 Ru0 2.001425 1_555
O8 Y1 2.137218 1_555
O8 Sr2 2.642152 1_445
O8 Sr3 2.964189 1_555
O8 Sr1 3.078040 1_546
O9 Ru1 2.028822 1_455
O9 Y0 2.207227 1_565
O9 Sr1 2.615985 1_555
O9 Sr3 2.840387 1_555
O9 Sr0 2.918734 1_555
O9 Sr2 3.079677 1_455
O10 Ru0 2.017263 1_564
O10 Sr1 2.374146 1_655
O10 Sr0 2.594858 1_555
O11 Ru1 2.012957 1_555
O11 Y0 2.216598 1_555
O11 Sr0 2.718733 1_555
O11 Sr3 3.108271 1_555
