# generated using pymatgen
data_ErZrF7
_symmetry_space_group_name_H-M   'P 1'
_cell_length_a   5.65511121
_cell_length_b   5.98215465
_cell_length_c   8.13566946
_cell_angle_alpha   102.79630581
_cell_angle_beta   90.00000000
_cell_angle_gamma   90.00000000
_symmetry_Int_Tables_number   1
_chemical_formula_structural   ErZrF7
_chemical_formula_sum   'Er2 Zr2 F14'
_cell_volume   268.39200821
_cell_formula_units_Z   2
loop_
 _symmetry_equiv_pos_site_id
 _symmetry_equiv_pos_as_xyz
  1  'x, y, z'
loop_
 _atom_site_type_symbol
 _atom_site_label
 _atom_site_symmetry_multiplicity
 _atom_site_fract_x
 _atom_site_fract_y
 _atom_site_fract_z
 _atom_site_occupancy
  Er  Er0  1  0.69822001  0.65305237  0.68603135  1
  Er  Er1  1  0.19822001  0.34694763  0.31396865  1
  Zr  Zr0  1  0.70783934  0.81350659  0.22646866  1
  Zr  Zr1  1  0.20783934  0.18649341  0.77353134  1
  F  F0  1  0.89546464  0.46205192  0.47697917  1
  F  F1  1  0.39546464  0.53794808  0.52302083  1
  F  F2  1  0.43238283  0.92369635  0.76895209  1
  F  F3  1  0.93238283  0.07630365  0.23104791  1
  F  F4  1  0.95104260  0.94639786  0.75864493  1
  F  F5  1  0.45104260  0.05360214  0.24135507  1
  F  F6  1  0.99042530  0.45692790  0.78800087  1
  F  F7  1  0.49042530  0.54307210  0.21199913  1
  F  F8  1  0.69674847  0.75384548  0.97428296  1
  F  F9  1  0.19674847  0.24615452  0.02571704  1
  F  F10  1  0.69909888  0.86710496  0.47962343  1
  F  F11  1  0.19909888  0.13289504  0.52037657  1
  F  F12  1  0.50513993  0.37788286  0.78165511  1
  F  F13  1  0.00513993  0.62211714  0.21834489  1
loop_
_geom_bond_atom_site_label_1
_geom_bond_atom_site_label_2
_geom_bond_distance
_geom_bond_site_symmetry_2
Er0 F0 2.140456 1_555
Er0 F1 2.181688 1_555
Er0 F2 2.202857 1_555
Er0 F4 2.239059 1_555
Er0 F12 2.252641 1_555
Er0 F6 2.286150 1_555
Er0 F8 2.288416 1_555
Er0 F10 2.326402 1_555
Er1 F1 2.140456 1_555
Er1 F0 2.181688 1_455
Er1 F3 2.202857 1_455
Er1 F5 2.239059 1_555
Er1 F13 2.252641 1_555
Er1 F7 2.286150 1_555
Er1 F9 2.288416 1_555
Er1 F11 2.326402 1_555
F2 Zr1 2.014785 1_565
F3 Zr0 2.014785 1_545
F4 Zr1 2.027181 1_665
F5 Zr0 2.027181 1_545
F6 Zr1 2.014543 1_655
F7 Zr0 2.014543 1_555
F8 Zr0 2.004100 1_556
F9 Zr1 2.004100 1_554
F10 Zr0 2.013606 1_555
F11 Zr1 2.013606 1_555
F12 Zr1 2.026908 1_555
F13 Zr0 2.026908 1_455
