# generated using pymatgen
data_Na3Cd(RhO2)8
_symmetry_space_group_name_H-M   'P 1'
_cell_length_a   3.10701500
_cell_length_b   9.15097100
_cell_length_c   10.94746384
_cell_angle_alpha   89.60829088
_cell_angle_beta   90.00000000
_cell_angle_gamma   90.00000000
_symmetry_Int_Tables_number   1
_chemical_formula_structural   Na3Cd(RhO2)8
_chemical_formula_sum   'Na3 Cd1 Rh8 O16'
_cell_volume   311.25325286
_cell_formula_units_Z   1
loop_
 _symmetry_equiv_pos_site_id
 _symmetry_equiv_pos_as_xyz
  1  'x, y, z'
loop_
 _atom_site_type_symbol
 _atom_site_label
 _atom_site_symmetry_multiplicity
 _atom_site_fract_x
 _atom_site_fract_y
 _atom_site_fract_z
 _atom_site_occupancy
  Na  Na0  1  0.50000000  0.76347400  0.65775400  1
  Na  Na1  1  0.00000000  0.73635000  0.15767800  1
  Na  Na2  1  0.00000000  0.23742800  0.34200300  1
  Cd  Cd0  1  0.50000000  0.26304600  0.83914600  1
  Rh  Rh0  1  0.50000000  0.91130600  0.39683300  1
  Rh  Rh1  1  0.50000000  0.41200200  0.10395900  1
  Rh  Rh2  1  0.00000000  0.08687400  0.59812900  1
  Rh  Rh3  1  0.00000000  0.59134800  0.90071900  1
  Rh  Rh4  1  0.50000000  0.94135600  0.88413100  1
  Rh  Rh5  1  0.50000000  0.44803300  0.61510100  1
  Rh  Rh6  1  0.00000000  0.05491000  0.11805100  1
  Rh  Rh7  1  0.00000000  0.55586500  0.38254600  1
  O  O0  1  0.50000000  0.04359500  0.71359900  1
  O  O1  1  0.50000000  0.53044400  0.79162300  1
  O  O2  1  0.00000000  0.96377800  0.28772900  1
  O  O3  1  0.00000000  0.46463200  0.21288800  1
  O  O4  1  0.50000000  0.69552700  0.33997000  1
  O  O5  1  0.50000000  0.19408700  0.16117800  1
  O  O6  1  0.00000000  0.30212600  0.66538400  1
  O  O7  1  0.00000000  0.80493900  0.83952300  1
  O  O8  1  0.50000000  0.61656400  0.02348000  1
  O  O9  1  0.50000000  0.11286400  0.47557700  1
  O  O10  1  0.00000000  0.38403500  0.97498600  1
  O  O11  1  0.00000000  0.88276400  0.52031500  1
  O  O12  1  0.50000000  0.91756100  0.07025700  1
  O  O13  1  0.50000000  0.41741400  0.42960200  1
  O  O14  1  0.00000000  0.08529300  0.93114200  1
  O  O15  1  0.00000000  0.58238500  0.56669800  1
loop_
_geom_bond_atom_site_label_1
_geom_bond_atom_site_label_2
_geom_bond_distance
_geom_bond_site_symmetry_2
Na0 O11 2.417935 1_655
Na0 O11 2.417935 1_555
Na0 O15 2.485108 1_555
Na0 O15 2.485108 1_655
Na0 O7 2.554883 1_655
Na0 O7 2.554883 1_555
Na0 O1 2.579221 1_555
Na0 O0 2.639338 1_565
Na1 O8 2.407344 1_555
Na1 O8 2.407344 1_455
Na1 O12 2.461183 1_455
Na1 O12 2.461183 1_555
Na1 O2 2.529596 1_555
Na1 O4 2.554468 1_455
Na1 O4 2.554468 1_555
Na1 O3 2.554870 1_555
Na2 O9 2.414174 1_455
Na2 O9 2.414174 1_555
Na2 O13 2.463209 1_455
Na2 O13 2.463209 1_555
Na2 O3 2.506104 1_555
Na2 O5 2.549537 1_455
Na2 O5 2.549537 1_555
Na2 O2 2.577636 1_545
Cd0 O10 2.423467 1_555
Cd0 O10 2.423467 1_655
Cd0 O0 2.441229 1_555
Cd0 O14 2.459909 1_655
Cd0 O14 2.459909 1_555
Cd0 O6 2.480029 1_655
Cd0 O6 2.480029 1_555
Cd0 O1 2.498166 1_555
O0 Rh2 2.039939 1_655
O0 Rh2 2.039939 1_555
O0 Rh4 2.082481 1_545
O1 Rh3 2.039489 1_555
O1 Rh3 2.039489 1_655
O1 Rh5 2.079204 1_555
O2 Rh0 2.015621 1_455
O2 Rh0 2.015621 1_555
O2 Rh6 2.030949 1_565
O3 Rh1 2.018722 1_555
O3 Rh1 2.018722 1_455
O3 Rh7 2.041535 1_555
O4 Rh7 2.062979 1_655
O4 Rh7 2.062979 1_555
O4 Rh0 2.074443 1_555
O5 Rh6 2.065571 1_555
O5 Rh6 2.065571 1_655
O5 Rh1 2.086114 1_555
O6 Rh2 2.107581 1_555
O6 Rh5 2.118747 1_555
O6 Rh5 2.118747 1_455
O7 Rh4 2.053917 1_455
O7 Rh4 2.053917 1_555
O7 Rh3 2.061854 1_555
O8 Rh1 2.063455 1_555
O8 Rh3 2.068090 1_654
O8 Rh3 2.068090 1_554
O9 Rh0 2.041290 1_545
O9 Rh2 2.065325 1_655
O9 Rh2 2.065325 1_555
O10 Rh3 2.058879 1_555
O10 Rh1 2.115978 1_556
O10 Rh1 2.115978 1_456
O11 Rh2 2.058185 1_565
O11 Rh0 2.074652 1_555
O11 Rh0 2.074652 1_455
O12 Rh4 2.047729 1_554
O12 Rh6 2.067820 1_665
O12 Rh6 2.067820 1_565
O13 Rh5 2.051879 1_555
O13 Rh7 2.067613 1_655
O13 Rh7 2.067613 1_555
O14 Rh6 2.063098 1_556
O14 Rh4 2.102960 1_445
O14 Rh4 2.102960 1_545
O15 Rh7 2.032198 1_555
O15 Rh5 2.048612 1_555
O15 Rh5 2.048612 1_455
