# generated using pymatgen
data_RbMg14BO15
_symmetry_space_group_name_H-M   'P 1'
_cell_length_a   4.15876900
_cell_length_b   8.46789600
_cell_length_c   10.21883100
_cell_angle_alpha   90.00000000
_cell_angle_beta   90.00000000
_cell_angle_gamma   90.00000000
_symmetry_Int_Tables_number   1
_chemical_formula_structural   RbMg14BO15
_chemical_formula_sum   'Rb1 Mg14 B1 O15'
_cell_volume   359.86659141
_cell_formula_units_Z   1
loop_
 _symmetry_equiv_pos_site_id
 _symmetry_equiv_pos_as_xyz
  1  'x, y, z'
loop_
 _atom_site_type_symbol
 _atom_site_label
 _atom_site_symmetry_multiplicity
 _atom_site_fract_x
 _atom_site_fract_y
 _atom_site_fract_z
 _atom_site_occupancy
  Rb  Rb0  1  0.00000000  0.00000000  0.05121300  1
  Mg  Mg0  1  0.00000000  0.50000000  0.00482900  1
  Mg  Mg1  1  0.00000000  0.00000000  0.51607700  1
  Mg  Mg2  1  0.50000000  0.75062300  0.93082000  1
  Mg  Mg3  1  0.50000000  0.24937700  0.93082000  1
  Mg  Mg4  1  0.50000000  0.74646200  0.50701500  1
  Mg  Mg5  1  0.50000000  0.25353800  0.50701500  1
  Mg  Mg6  1  0.50000000  0.00000000  0.72824900  1
  Mg  Mg7  1  0.50000000  0.50000000  0.67911800  1
  Mg  Mg8  1  0.50000000  0.00000000  0.31269300  1
  Mg  Mg9  1  0.50000000  0.50000000  0.27363800  1
  Mg  Mg10  1  0.00000000  0.75902200  0.72515100  1
  Mg  Mg11  1  0.00000000  0.24097800  0.72515100  1
  Mg  Mg12  1  0.00000000  0.75643600  0.31353200  1
  Mg  Mg13  1  0.00000000  0.24356400  0.31353200  1
  B  B0  1  0.00000000  0.50000000  0.49001400  1
  O  O0  1  0.00000000  0.00000000  0.71163500  1
  O  O1  1  0.00000000  0.00000000  0.30967200  1
  O  O2  1  0.00000000  0.50000000  0.34608000  1
  O  O3  1  0.50000000  0.73032500  0.72114600  1
  O  O4  1  0.50000000  0.26967500  0.72114600  1
  O  O5  1  0.50000000  0.75441500  0.29039400  1
  O  O6  1  0.50000000  0.24558500  0.29039400  1
  O  O7  1  0.50000000  0.00000000  0.92127700  1
  O  O8  1  0.50000000  0.50000000  0.06081000  1
  O  O9  1  0.50000000  0.00000000  0.51378400  1
  O  O10  1  0.50000000  0.50000000  0.48768100  1
  O  O11  1  0.00000000  0.70815600  0.92325200  1
  O  O12  1  0.00000000  0.29184400  0.92325200  1
  O  O13  1  0.00000000  0.75594700  0.51030300  1
  O  O14  1  0.00000000  0.24405300  0.51030300  1
loop_
_geom_bond_atom_site_label_1
_geom_bond_atom_site_label_2
_geom_bond_distance
_geom_bond_site_symmetry_2
Mg0 O11 1.949830 1_554
Mg0 O12 1.949830 1_554
Mg0 O8 2.156639 1_455
Mg0 O8 2.156639 1_555
Mg1 O0 1.998374 1_555
Mg1 O14 2.067458 1_555
Mg1 O13 2.067458 1_545
Mg1 O9 2.079517 1_455
Mg1 O9 2.079517 1_555
Mg1 O1 2.109218 1_555
Mg2 O11 2.111667 1_655
Mg2 O11 2.111667 1_555
Mg2 O7 2.113949 1_565
Mg2 O3 2.149506 1_555
Mg2 O8 2.503686 1_556
Mg3 O12 2.111667 1_655
Mg3 O12 2.111667 1_555
Mg3 O7 2.113949 1_555
Mg3 O4 2.149506 1_555
Mg3 O8 2.503686 1_556
Mg4 O13 2.081206 1_555
Mg4 O13 2.081206 1_655
Mg4 O10 2.096345 1_555
Mg4 O9 2.148047 1_565
Mg4 O3 2.192431 1_555
Mg4 O5 2.214638 1_555
Mg5 O14 2.081206 1_555
Mg5 O14 2.081206 1_655
Mg5 O10 2.096345 1_555
Mg5 O9 2.148047 1_555
Mg5 O4 2.192431 1_555
Mg5 O6 2.214638 1_555
Mg6 O7 1.972521 1_555
Mg6 O0 2.086304 1_655
Mg6 O0 2.086304 1_555
Mg6 O9 2.191582 1_555
Mg6 O4 2.284733 1_555
Mg6 O3 2.284733 1_545
Mg7 O10 1.956262 1_555
Mg7 O4 1.997094 1_555
Mg7 O3 1.997094 1_555
Mg8 O9 2.054915 1_555
Mg8 O1 2.079614 1_655
Mg8 O1 2.079614 1_555
Mg8 O6 2.092035 1_555
Mg8 O5 2.092035 1_545
Mg9 O5 2.161154 1_555
Mg9 O6 2.161154 1_555
Mg9 O8 2.174853 1_555
Mg9 O10 2.187269 1_555
Mg9 O2 2.207225 1_555
Mg9 O2 2.207225 1_655
Mg10 O0 2.045246 1_565
Mg10 O11 2.069677 1_555
Mg10 O3 2.093935 1_555
Mg10 O3 2.093935 1_455
Mg10 O13 2.195650 1_555
Mg11 O0 2.045246 1_555
Mg11 O12 2.069677 1_555
Mg11 O4 2.093935 1_555
Mg11 O4 2.093935 1_455
Mg11 O14 2.195650 1_555
Mg12 O13 2.010774 1_555
Mg12 O1 2.062852 1_565
Mg12 O5 2.092854 1_455
Mg12 O5 2.092854 1_555
Mg12 O2 2.196798 1_555
Mg13 O14 2.010774 1_555
Mg13 O1 2.062852 1_555
Mg13 O6 2.092854 1_555
Mg13 O6 2.092854 1_455
Mg13 O2 2.196798 1_555
B0 O2 1.470837 1_555
B0 O10 2.079521 1_455
B0 O10 2.079521 1_555
B0 O13 2.177227 1_555
B0 O14 2.177227 1_555
O1 Rb0 2.641149 1_555
O7 Rb0 2.467160 1_556
O7 Rb0 2.467160 1_656
O11 Rb0 2.795925 1_566
O12 Rb0 2.795925 1_556
