# generated using pymatgen
data_TbFe11Mo
_symmetry_space_group_name_H-M   'P 1'
_cell_length_a   4.69956300
_cell_length_b   6.46463053
_cell_length_c   6.46463053
_cell_angle_alpha   97.86070028
_cell_angle_beta   111.31424136
_cell_angle_gamma   68.68575864
_symmetry_Int_Tables_number   1
_chemical_formula_structural   TbFe11Mo
_chemical_formula_sum   'Tb1 Fe11 Mo1'
_cell_volume   170.45057866
_cell_formula_units_Z   1
loop_
 _symmetry_equiv_pos_site_id
 _symmetry_equiv_pos_as_xyz
  1  'x, y, z'
loop_
 _atom_site_type_symbol
 _atom_site_label
 _atom_site_symmetry_multiplicity
 _atom_site_fract_x
 _atom_site_fract_y
 _atom_site_fract_z
 _atom_site_occupancy
  Tb  Tb0  1  0.00658200  0.99341800  0.00658200  1
  Fe  Fe0  1  0.72948600  0.77051400  0.22948600  1
  Fe  Fe1  1  0.27258200  0.22741800  0.77258200  1
  Fe  Fe2  1  0.49839900  0.77886000  0.77565900  1
  Fe  Fe3  1  0.49839900  0.22434100  0.22114000  1
  Fe  Fe4  1  0.50058900  0.99800200  0.49989400  1
  Fe  Fe5  1  0.00130300  0.99800200  0.49989400  1
  Fe  Fe6  1  0.50058900  0.50010600  0.00199800  1
  Fe  Fe7  1  0.00130300  0.50010600  0.00199800  1
  Fe  Fe8  1  0.35866600  0.64133400  0.35866600  1
  Fe  Fe9  1  0.99930700  0.35926400  0.35787700  1
  Fe  Fe10  1  0.99930700  0.64212300  0.64073600  1
  Mo  Mo0  1  0.63348700  0.36651300  0.63348700  1
loop_
_geom_bond_atom_site_label_1
_geom_bond_atom_site_label_2
_geom_bond_distance
_geom_bond_site_symmetry_2
Fe0 Fe7 2.426831 1_655
Fe0 Fe5 2.426831 1_655
Fe0 Fe6 2.426831 1_555
Fe0 Fe4 2.426831 1_555
Fe0 Fe8 2.595854 1_655
Fe0 Fe8 2.595855 1_555
Fe0 Fe9 2.598577 1_555
Fe0 Fe10 2.598577 1_555
Fe0 Fe3 2.733884 1_565
Fe0 Fe2 2.733884 1_554
Fe0 Tb0 3.024070 1_555
Fe0 Tb0 3.024070 1_655
Fe1 Fe7 2.440918 1_556
Fe1 Fe5 2.440918 1_545
Fe1 Fe4 2.440918 1_545
Fe1 Fe6 2.440918 1_556
Fe1 Fe9 2.624775 1_455
Fe1 Fe10 2.624775 1_455
Fe1 Mo0 2.632954 1_455
Fe1 Mo0 2.632954 1_555
Fe1 Fe2 2.701583 1_545
Fe1 Fe3 2.701583 1_556
Fe1 Tb0 3.084596 1_646
Fe1 Tb0 3.084596 1_546
Fe2 Fe5 2.428968 1_555
Fe2 Fe4 2.428971 1_555
Fe2 Fe6 2.466821 1_556
Fe2 Fe7 2.466823 1_656
Fe2 Mo0 2.622469 1_555
Fe2 Fe8 2.640163 1_555
Fe2 Tb0 3.017620 1_556
Fe2 Tb0 3.017624 1_656
Fe3 Fe7 2.428968 1_555
Fe3 Fe6 2.428971 1_555
Fe3 Fe4 2.466821 1_545
Fe3 Fe5 2.466823 1_645
Fe3 Fe9 2.617765 1_455
Fe3 Fe9 2.617774 1_555
Fe3 Mo0 2.622469 1_555
Fe3 Fe8 2.640163 1_555
Fe3 Tb0 3.017620 1_545
Fe3 Tb0 3.017624 1_645
Fe4 Fe5 2.346426 1_555
Fe4 Fe5 2.353137 1_655
Fe4 Fe8 2.587328 1_555
Fe4 Fe9 2.619441 1_465
Fe4 Mo0 2.634006 1_565
Fe4 Tb0 3.194191 1_555
Fe4 Tb0 3.270729 1_656
Fe5 Fe8 2.587328 1_555
Fe5 Fe9 2.619443 1_465
Fe5 Mo0 2.634006 1_465
Fe5 Tb0 3.194191 1_555
Fe5 Tb0 3.270729 1_556
Fe6 Fe7 2.346426 1_555
Fe6 Fe7 2.353137 1_655
Fe6 Fe8 2.587328 1_555
Fe6 Fe9 2.591686 1_555
Fe6 Mo0 2.634006 1_554
Fe6 Tb0 3.194191 1_555
Fe6 Tb0 3.270729 1_645
Fe7 Fe8 2.587328 1_555
Fe7 Fe9 2.591684 1_455
Fe7 Mo0 2.634006 1_454
Fe7 Tb0 3.194191 1_555
Fe7 Tb0 3.270729 1_545
Fe8 Mo0 2.346917 1_555
Fe8 Fe9 2.899511 1_455
Fe8 Fe9 2.899515 1_555
Fe8 Tb0 3.006728 1_555
Fe9 Mo0 2.877098 1_655
Fe9 Mo0 2.877102 1_555
Fe9 Tb0 3.046408 1_645
Fe10 Fe9 2.402665 1_555
Fe10 Fe5 2.591684 1_655
Fe10 Fe4 2.591686 1_555
Fe10 Fe2 2.617765 1_655
Fe10 Fe2 2.617774 1_555
Fe10 Fe6 2.619441 1_656
Fe10 Fe7 2.619443 1_656
Fe10 Mo0 2.877098 1_655
Fe10 Mo0 2.877102 1_555
Fe10 Fe8 2.899511 1_655
Fe10 Fe8 2.899515 1_555
Fe10 Tb0 3.046408 1_656
Mo0 Tb0 3.186157 1_646
