# generated using pymatgen
data_ZnFe3
_symmetry_space_group_name_H-M   'P 1'
_cell_length_a   4.99378291
_cell_length_b   4.99378291
_cell_length_c   16.32975430
_cell_angle_alpha   90.00000000
_cell_angle_beta   90.00000000
_cell_angle_gamma   107.60769142
_symmetry_Int_Tables_number   1
_chemical_formula_structural   ZnFe3
_chemical_formula_sum   'Zn8 Fe24'
_cell_volume   388.15059005
_cell_formula_units_Z   8
loop_
 _symmetry_equiv_pos_site_id
 _symmetry_equiv_pos_as_xyz
  1  'x, y, z'
loop_
 _atom_site_type_symbol
 _atom_site_label
 _atom_site_symmetry_multiplicity
 _atom_site_fract_x
 _atom_site_fract_y
 _atom_site_fract_z
 _atom_site_occupancy
  Zn  Zn0_0  1  0.00000000  0.00000000  0.00000000  1
  Zn  Zn0_1  1  0.00000000  0.00000000  0.50000000  1
  Zn  Zn0_2  1  0.00000000  0.50000000  0.00000000  1
  Zn  Zn0_3  1  1.00000000  0.50000000  0.50000000  1
  Zn  Zn0_4  1  0.50000000  0.00000000  0.00000000  1
  Zn  Zn0_5  1  0.50000000  0.00000000  0.50000000  1
  Zn  Zn0_6  1  0.50000000  0.50000000  0.00000000  1
  Zn  Zn0_7  1  0.50000000  0.50000000  0.50000000  1
  Fe  Fe0_0  1  0.25000000  0.25000000  0.12864300  1
  Fe  Fe0_1  1  0.25000000  0.25000000  0.62864300  1
  Fe  Fe0_2  1  0.25000000  0.75000000  0.12864300  1
  Fe  Fe0_3  1  0.25000000  0.75000000  0.62864300  1
  Fe  Fe0_4  1  0.75000000  0.25000000  0.12864300  1
  Fe  Fe0_5  1  0.75000000  0.25000000  0.62864300  1
  Fe  Fe0_6  1  0.75000000  0.75000000  0.12864300  1
  Fe  Fe0_7  1  0.75000000  0.75000000  0.62864300  1
  Fe  Fe1_0  1  0.00000000  0.00000000  0.25000000  1
  Fe  Fe1_1  1  1.00000000  0.00000000  0.75000000  1
  Fe  Fe1_2  1  0.00000000  0.50000000  0.25000000  1
  Fe  Fe1_3  1  1.00000000  0.50000000  0.75000000  1
  Fe  Fe1_4  1  0.50000000  0.00000000  0.25000000  1
  Fe  Fe1_5  1  0.50000000  0.00000000  0.75000000  1
  Fe  Fe1_6  1  0.50000000  0.50000000  0.25000000  1
  Fe  Fe1_7  1  0.50000000  0.50000000  0.75000000  1
  Fe  Fe2_0  1  0.25000000  0.25000000  0.37135700  1
  Fe  Fe2_1  1  0.25000000  0.25000000  0.87135700  1
  Fe  Fe2_2  1  0.25000000  0.75000000  0.37135700  1
  Fe  Fe2_3  1  0.25000000  0.75000000  0.87135700  1
  Fe  Fe2_4  1  0.75000000  0.25000000  0.37135700  1
  Fe  Fe2_5  1  0.75000000  0.25000000  0.87135700  1
  Fe  Fe2_6  1  0.75000000  0.75000000  0.37135700  1
  Fe  Fe2_7  1  0.75000000  0.75000000  0.87135700  1
loop_
_geom_bond_atom_site_label_1
_geom_bond_atom_site_label_2
_geom_bond_distance
_geom_bond_site_symmetry_2
Zn0_0 Zn0_2 2.496891 1_555
Zn0_0 Zn0_4 2.496891 1_555
Zn0_0 Zn0_4 2.496891 1_455
Zn0_0 Zn0_2 2.496891 1_545
Zn0_1 Zn0_5 2.496891 1_555
Zn0_1 Zn0_5 2.496891 1_455
Zn0_1 Zn0_3 2.496891 1_445
Zn0_1 Zn0_3 2.496891 1_455
Zn0_2 Zn0_6 2.496891 1_555
Zn0_2 Zn0_6 2.496891 1_455
Zn0_3 Zn0_7 2.496891 1_555
Zn0_3 Zn0_7 2.496891 1_655
Zn0_4 Zn0_6 2.496891 1_555
Zn0_4 Zn0_6 2.496891 1_545
Zn0_5 Zn0_7 2.496891 1_545
Zn0_5 Zn0_7 2.496891 1_555
Fe0_0 Fe1_6 2.470128 1_555
Fe0_0 Fe1_0 2.470128 1_555
Fe0_0 Fe0_2 2.496891 1_555
Fe0_0 Fe0_4 2.496891 1_555
Fe0_0 Fe0_4 2.496891 1_455
Fe0_0 Fe0_2 2.496891 1_545
Fe0_0 Zn0_6 2.566565 1_555
Fe0_0 Zn0_0 2.566565 1_555
Fe0_1 Fe1_1 2.470128 1_455
Fe0_1 Fe1_7 2.470128 1_555
Fe0_1 Fe0_5 2.496891 1_455
Fe0_1 Fe0_3 2.496891 1_545
Fe0_1 Fe0_3 2.496891 1_555
Fe0_1 Fe0_5 2.496891 1_555
Fe0_1 Zn0_1 2.566565 1_555
Fe0_1 Zn0_7 2.566565 1_555
Fe0_2 Fe1_4 2.470128 1_565
Fe0_2 Fe1_2 2.470128 1_555
Fe0_2 Fe0_6 2.496891 1_455
Fe0_2 Fe0_6 2.496891 1_555
Fe0_2 Zn0_2 2.566565 1_555
Fe0_2 Zn0_4 2.566565 1_565
Fe0_3 Fe1_3 2.470128 1_455
Fe0_3 Fe1_5 2.470128 1_565
Fe0_3 Fe0_7 2.496891 1_455
Fe0_3 Fe0_7 2.496891 1_555
Fe0_3 Zn0_5 2.566565 1_565
Fe0_3 Zn0_3 2.566565 1_455
Fe0_4 Fe1_2 2.470128 1_655
Fe0_4 Fe1_4 2.470128 1_555
Fe0_4 Fe0_6 2.496891 1_545
Fe0_4 Fe0_6 2.496891 1_555
Fe0_4 Zn0_2 2.566565 1_655
Fe0_4 Zn0_4 2.566565 1_555
Fe0_5 Fe1_3 2.470128 1_555
Fe0_5 Fe1_5 2.470128 1_555
Fe0_5 Fe0_7 2.496891 1_545
Fe0_5 Fe0_7 2.496891 1_555
Fe0_5 Zn0_5 2.566565 1_555
Fe0_5 Zn0_3 2.566565 1_555
Fe0_6 Fe1_0 2.470128 1_665
Fe0_6 Fe1_6 2.470128 1_555
Fe0_6 Zn0_0 2.566565 1_665
Fe0_6 Zn0_6 2.566565 1_555
Fe0_7 Fe1_1 2.470128 1_565
Fe0_7 Fe1_7 2.470128 1_555
Fe0_7 Zn0_1 2.566565 1_665
Fe0_7 Zn0_7 2.566565 1_555
Fe1_0 Fe2_6 2.470128 1_445
Fe1_0 Fe2_0 2.470128 1_555
Fe1_0 Fe1_2 2.496891 1_555
Fe1_0 Fe1_4 2.496891 1_455
Fe1_0 Fe1_4 2.496891 1_555
Fe1_0 Fe1_2 2.496891 1_545
Fe1_1 Fe2_7 2.470128 1_545
Fe1_1 Fe2_1 2.470128 1_655
Fe1_1 Fe1_5 2.496891 1_555
Fe1_1 Fe1_3 2.496891 1_555
Fe1_1 Fe1_3 2.496891 1_545
Fe1_1 Fe1_5 2.496891 1_655
Fe1_2 Fe2_2 2.470128 1_555
Fe1_2 Fe2_4 2.470128 1_455
Fe1_2 Fe1_6 2.496891 1_455
Fe1_2 Fe1_6 2.496891 1_555
Fe1_3 Fe2_5 2.470128 1_555
Fe1_3 Fe2_3 2.470128 1_655
Fe1_3 Fe1_7 2.496891 1_555
Fe1_3 Fe1_7 2.496891 1_655
Fe1_4 Fe2_2 2.470128 1_545
Fe1_4 Fe2_4 2.470128 1_555
Fe1_4 Fe1_6 2.496891 1_555
Fe1_4 Fe1_6 2.496891 1_545
Fe1_5 Fe2_3 2.470128 1_545
Fe1_5 Fe2_5 2.470128 1_555
Fe1_5 Fe1_7 2.496891 1_545
Fe1_5 Fe1_7 2.496891 1_555
Fe1_6 Fe2_0 2.470128 1_555
Fe1_6 Fe2_6 2.470128 1_555
Fe1_7 Fe2_7 2.470128 1_555
Fe1_7 Fe2_1 2.470128 1_555
Fe2_0 Fe2_4 2.496891 1_555
Fe2_0 Fe2_2 2.496891 1_545
Fe2_0 Fe2_4 2.496891 1_455
Fe2_0 Fe2_2 2.496891 1_555
Fe2_0 Zn0_1 2.566565 1_555
Fe2_0 Zn0_7 2.566565 1_555
Fe2_1 Fe2_5 2.496891 1_455
Fe2_1 Fe2_3 2.496891 1_545
Fe2_1 Fe2_3 2.496891 1_555
Fe2_1 Fe2_5 2.496891 1_555
Fe2_1 Zn0_0 2.566565 1_556
Fe2_1 Zn0_6 2.566565 1_556
Fe2_2 Fe2_6 2.496891 1_455
Fe2_2 Fe2_6 2.496891 1_555
Fe2_2 Zn0_5 2.566565 1_565
Fe2_2 Zn0_3 2.566565 1_455
Fe2_3 Fe2_7 2.496891 1_455
Fe2_3 Fe2_7 2.496891 1_555
Fe2_3 Zn0_4 2.566565 1_566
Fe2_3 Zn0_2 2.566565 1_556
Fe2_4 Fe2_6 2.496891 1_545
Fe2_4 Fe2_6 2.496891 1_555
Fe2_4 Zn0_5 2.566565 1_555
Fe2_4 Zn0_3 2.566565 1_555
Fe2_5 Fe2_7 2.496891 1_545
Fe2_5 Fe2_7 2.496891 1_555
Fe2_5 Zn0_2 2.566565 1_656
Fe2_5 Zn0_4 2.566565 1_556
Fe2_6 Zn0_1 2.566565 1_665
Fe2_6 Zn0_7 2.566565 1_555
Fe2_7 Zn0_0 2.566565 1_666
Fe2_7 Zn0_6 2.566565 1_556
