# generated using pymatgen
data_Li2CoO3
_symmetry_space_group_name_H-M   'P 1'
_cell_length_a   2.89723156
_cell_length_b   2.89723156
_cell_length_c   14.82927600
_cell_angle_alpha   90.00000000
_cell_angle_beta   90.00000000
_cell_angle_gamma   119.99998986
_symmetry_Int_Tables_number   1
_chemical_formula_structural   Li2CoO3
_chemical_formula_sum   'Li4 Co2 O6'
_cell_volume   107.79957234
_cell_formula_units_Z   2
loop_
 _symmetry_equiv_pos_site_id
 _symmetry_equiv_pos_as_xyz
  1  'x, y, z'
loop_
 _atom_site_type_symbol
 _atom_site_label
 _atom_site_symmetry_multiplicity
 _atom_site_fract_x
 _atom_site_fract_y
 _atom_site_fract_z
 _atom_site_occupancy
  Li  Li0  1  0.33333300  0.66666700  0.33792500  1
  Li  Li1  1  0.66666700  0.33333300  0.66207500  1
  Li  Li2  1  0.00000000  0.00000000  0.00000000  1
  Li  Li3  1  0.00000000  0.00000000  0.50000000  1
  Co  Co0  1  0.33333300  0.66666700  0.83576700  1
  Co  Co1  1  0.66666700  0.33333300  0.16423300  1
  O  O0  1  0.33333300  0.66666700  0.58788500  1
  O  O1  1  0.66666700  0.33333300  0.90932500  1
  O  O2  1  0.00000000  0.00000000  0.23284500  1
  O  O3  1  0.33333300  0.66666700  0.09067500  1
  O  O4  1  0.66666700  0.33333300  0.41211500  1
  O  O5  1  0.00000000  0.00000000  0.76715500  1
loop_
_geom_bond_atom_site_label_1
_geom_bond_atom_site_label_2
_geom_bond_distance
_geom_bond_site_symmetry_2
Li0 O4 2.002095 1_455
Li0 O4 2.002095 1_565
Li0 O4 2.002099 1_555
Li0 O2 2.286078 1_565
Li0 O2 2.286080 1_665
Li0 O2 2.286080 1_555
Li1 O0 2.002095 1_545
Li1 O0 2.002095 1_655
Li1 O0 2.002099 1_555
Li1 O5 2.286078 1_655
Li1 O5 2.286080 1_665
Li1 O5 2.286080 1_555
Li2 O3 2.146170 1_545
Li2 O1 2.146170 1_454
Li2 O3 2.146172 1_555
Li2 O3 2.146172 1_445
Li2 O1 2.146172 1_554
Li2 O1 2.146172 1_444
Li3 O4 2.120494 1_455
Li3 O0 2.120494 1_545
Li3 O0 2.120496 1_555
Li3 O4 2.120496 1_555
Li3 O0 2.120496 1_445
Li3 O4 2.120496 1_445
Co0 O5 1.957860 1_565
Co0 O5 1.957862 1_665
Co0 O5 1.957862 1_555
Co0 O1 1.996960 1_455
Co0 O1 1.996960 1_565
Co0 O1 1.996964 1_555
Co1 O2 1.957860 1_655
Co1 O2 1.957862 1_665
Co1 O2 1.957862 1_555
Co1 O3 1.996960 1_545
Co1 O3 1.996960 1_655
Co1 O3 1.996964 1_555
