# generated using pymatgen
data_Sr2ZrVO6
_symmetry_space_group_name_H-M   'P 1'
_cell_length_a   5.71337202
_cell_length_b   11.40739505
_cell_length_c   8.16452600
_cell_angle_alpha   89.99944800
_cell_angle_beta   89.99997295
_cell_angle_gamma   90.00981642
_symmetry_Int_Tables_number   1
_chemical_formula_structural   Sr2ZrVO6
_chemical_formula_sum   'Sr8 Zr4 V4 O24'
_cell_volume   532.12045682
_cell_formula_units_Z   4
loop_
 _symmetry_equiv_pos_site_id
 _symmetry_equiv_pos_as_xyz
  1  'x, y, z'
loop_
 _atom_site_type_symbol
 _atom_site_label
 _atom_site_symmetry_multiplicity
 _atom_site_fract_x
 _atom_site_fract_y
 _atom_site_fract_z
 _atom_site_occupancy
  Sr  Sr0  1  0.00091000  0.25052100  0.74918300  1
  Sr  Sr1  1  0.49958800  0.49944000  0.24926800  1
  Sr  Sr2  1  0.99861700  0.75052300  0.74995800  1
  Sr  Sr3  1  0.50032400  0.99969700  0.24916800  1
  Sr  Sr4  1  0.00089800  0.25053100  0.25083500  1
  Sr  Sr5  1  0.49957200  0.49943900  0.75072700  1
  Sr  Sr6  1  0.99864700  0.75049100  0.25003600  1
  Sr  Sr7  1  0.50033500  0.99968600  0.75083000  1
  Zr  Zr0  1  0.50123700  0.25044100  0.00000200  1
  Zr  Zr1  1  0.99787400  0.49997800  0.50000200  1
  Zr  Zr2  1  0.49860200  0.75037200  0.99999800  1
  Zr  Zr3  1  0.00210400  0.99923600  0.49998800  1
  V  V0  1  0.99736800  0.50056000  0.00003600  1
  V  V1  1  0.49697000  0.74932600  0.49998700  1
  V  V2  1  0.00250000  0.00063300  0.99999700  1
  V  V3  1  0.50294300  0.24944500  0.49999300  1
  O  O0  1  0.51014200  0.25007500  0.74413000  1
  O  O1  1  0.98996700  0.50008900  0.24411700  1
  O  O2  1  0.49008700  0.74993500  0.74412300  1
  O  O3  1  0.01025900  0.99988100  0.24412000  1
  O  O4  1  0.50991000  0.24986300  0.25587300  1
  O  O5  1  0.98976100  0.49988100  0.75587400  1
  O  O6  1  0.48988100  0.74973900  0.25587500  1
  O  O7  1  0.01003900  0.99967600  0.75586800  1
  O  O8  1  0.77694900  0.37602600  0.00016600  1
  O  O9  1  0.23176000  0.63683000  0.50014500  1
  O  O10  1  0.74441800  0.88227900  0.00014800  1
  O  O11  1  0.27952900  0.12847900  0.50014400  1
  O  O12  1  0.26115900  0.11640700  0.99983900  1
  O  O13  1  0.72320900  0.37361200  0.49984800  1
  O  O14  1  0.22026500  0.62204300  0.99985800  1
  O  O15  1  0.76283900  0.86436300  0.49985200  1
  O  O16  1  0.77941900  0.12187700  0.99994200  1
  O  O17  1  0.24382700  0.36812500  0.49996200  1
  O  O18  1  0.73854900  0.61625600  0.99995800  1
  O  O19  1  0.28386100  0.87682600  0.49995200  1
  O  O20  1  0.25634500  0.38265600  0.00005000  1
  O  O21  1  0.71378900  0.62533100  0.50004700  1
  O  O22  1  0.22388200  0.87629400  0.00005700  1
  O  O23  1  0.76167000  0.13313900  0.50004600  1
loop_
_geom_bond_atom_site_label_1
_geom_bond_atom_site_label_2
_geom_bond_distance
_geom_bond_site_symmetry_2
O0 V3 1.993700 1_555
O0 Zr0 2.089697 1_556
O0 Sr0 2.804247 1_655
O0 Sr5 2.845755 1_555
O0 Sr7 2.857349 1_545
O0 Sr0 2.909730 1_555
O1 V0 1.993261 1_555
O1 Zr1 2.089669 1_555
O1 Sr1 2.802042 1_555
O1 Sr4 2.848030 1_655
O1 Sr6 2.857266 1_555
O1 Sr1 2.911969 1_655
O2 V1 1.993655 1_555
O2 Zr2 2.089670 1_555
O2 Sr2 2.808364 1_455
O2 Sr7 2.850126 1_555
O2 Sr5 2.858538 1_555
O2 Sr2 2.905818 1_555
O3 V2 1.993660 1_564
O3 Zr3 2.089573 1_555
O3 Sr3 2.800228 1_555
O3 Sr6 2.846062 1_455
O3 Sr4 2.860299 1_565
O3 Sr3 2.913740 1_455
O4 V3 1.993527 1_555
O4 Zr0 2.089663 1_555
O4 Sr4 2.805508 1_655
O4 Sr1 2.848154 1_555
O4 Sr3 2.854784 1_545
O4 Sr4 2.908477 1_555
O5 V0 1.993956 1_556
O5 Zr1 2.089588 1_555
O5 Sr5 2.800951 1_555
O5 Sr0 2.845797 1_655
O5 Sr2 2.860019 1_555
O5 Sr5 2.913048 1_655
O6 V1 1.993476 1_555
O6 Zr2 2.089721 1_554
O6 Sr6 2.807022 1_455
O6 Sr3 2.852509 1_555
O6 Sr1 2.856318 1_555
O6 Sr6 2.907171 1_555
O7 V2 1.993693 1_565
O7 Zr3 2.089637 1_555
O7 Sr7 2.801545 1_555
O7 Sr2 2.843335 1_455
O7 Sr0 2.862492 1_565
O7 Sr7 2.912419 1_455
O8 V0 1.898274 1_555
O8 Zr0 2.129075 1_555
O8 Sr4 2.806358 1_655
O8 Sr0 2.808337 1_654
O8 Sr1 2.937740 1_555
O8 Sr5 2.939672 1_554
O9 V1 1.985478 1_555
O9 Zr1 2.054759 1_455
O9 Sr2 2.759890 1_455
O9 Sr6 2.761405 1_455
O9 Sr5 2.997329 1_555
O9 Sr1 2.999034 1_555
O10 V2 1.999081 1_664
O10 Zr2 2.058128 1_554
O10 Sr3 2.805940 1_555
O10 Sr7 2.807595 1_554
O10 Sr6 2.921135 1_555
O10 Sr2 2.922604 1_554
O11 V3 1.879590 1_555
O11 Zr3 2.164524 1_545
O11 Sr7 2.817751 1_545
O11 Sr3 2.819397 1_545
O11 Sr0 2.933808 1_555
O11 Sr4 2.935410 1_555
O12 V2 1.981783 1_555
O12 Zr0 2.053898 1_556
O12 Sr7 2.788207 1_545
O12 Sr3 2.790004 1_546
O12 Sr0 2.956395 1_555
O12 Sr4 2.958430 1_556
O13 V3 1.894563 1_555
O13 Zr1 2.130670 1_555
O13 Sr1 2.806915 1_555
O13 Sr5 2.808750 1_555
O13 Sr4 2.936430 1_655
O13 Sr0 2.938325 1_655
O14 V0 1.881924 1_456
O14 Zr2 2.161268 1_555
O14 Sr2 2.813392 1_455
O14 Sr6 2.814791 1_456
O14 Sr5 2.939509 1_555
O14 Sr1 2.941112 1_556
O15 V1 2.007178 1_555
O15 Zr3 2.057944 1_655
O15 Sr6 2.768248 1_555
O15 Sr2 2.769721 1_555
O15 Sr3 2.970297 1_555
O15 Sr7 2.971874 1_555
O16 V2 1.880950 1_655
O16 Zr0 2.162802 1_556
O16 Sr0 2.818826 1_655
O16 Sr4 2.819671 1_656
O16 Sr7 2.936212 1_545
O16 Sr3 2.936811 1_546
O17 V3 2.006291 1_555
O17 Zr1 2.058564 1_455
O17 Sr4 2.804005 1_555
O17 Sr0 2.804562 1_555
O17 Sr1 2.927069 1_555
O17 Sr5 2.927444 1_555
O18 V0 1.982210 1_556
O18 Zr2 2.054444 1_555
O18 Sr5 2.789273 1_555
O18 Sr1 2.789673 1_556
O18 Sr2 2.952809 1_555
O18 Sr6 2.953168 1_556
O19 V1 1.896969 1_555
O19 Zr3 2.131207 1_555
O19 Sr3 2.772334 1_555
O19 Sr7 2.772886 1_555
O19 Sr6 2.982445 1_455
O19 Sr2 2.982845 1_455
O20 V0 1.999739 1_455
O20 Zr0 2.057456 1_555
O20 Sr1 2.801026 1_555
O20 Sr5 2.801578 1_554
O20 Sr4 2.931433 1_555
O20 Sr0 2.931946 1_554
O21 V1 1.880384 1_555
O21 Zr1 2.163320 1_555
O21 Sr5 2.783625 1_555
O21 Sr1 2.784195 1_555
O21 Sr2 2.974933 1_555
O21 Sr6 2.975391 1_555
O22 V2 1.900590 1_564
O22 Zr2 2.127842 1_554
O22 Sr6 2.807184 1_455
O22 Sr2 2.807809 1_454
O22 Sr3 2.934643 1_555
O22 Sr7 2.935253 1_554
O23 V3 1.986459 1_555
O23 Zr3 2.054495 1_645
O23 Sr0 2.792533 1_655
O23 Sr4 2.792974 1_655
O23 Sr7 2.956089 1_545
O23 Sr3 2.956609 1_545
