# generated using pymatgen
data_Ce4(Si3Rh)3
_symmetry_space_group_name_H-M   'P 1'
_cell_length_a   4.18708300
_cell_length_b   4.21443200
_cell_length_c   16.68032200
_cell_angle_alpha   90.00000000
_cell_angle_beta   90.00000000
_cell_angle_gamma   90.00000000
_symmetry_Int_Tables_number   1
_chemical_formula_structural   Ce4(Si3Rh)3
_chemical_formula_sum   'Ce4 Si9 Rh3'
_cell_volume   294.34390745
_cell_formula_units_Z   1
loop_
 _symmetry_equiv_pos_site_id
 _symmetry_equiv_pos_as_xyz
  1  'x, y, z'
loop_
 _atom_site_type_symbol
 _atom_site_label
 _atom_site_symmetry_multiplicity
 _atom_site_fract_x
 _atom_site_fract_y
 _atom_site_fract_z
 _atom_site_occupancy
  Ce  Ce0  1  0.25000000  0.00000000  0.40074300  1
  Ce  Ce1  1  0.25000000  0.50000000  0.89598700  1
  Ce  Ce2  1  0.75000000  0.50000000  0.11227500  1
  Ce  Ce3  1  0.75000000  0.00000000  0.60543300  1
  Si  Si0  1  0.25000000  0.00000000  0.03197100  1
  Si  Si1  1  0.25000000  0.50000000  0.53617200  1
  Si  Si2  1  0.75000000  0.50000000  0.46029200  1
  Si  Si3  1  0.75000000  0.00000000  0.96413800  1
  Si  Si4  1  0.25000000  0.50000000  0.25128500  1
  Si  Si5  1  0.25000000  0.00000000  0.74995000  1
  Si  Si6  1  0.75000000  0.00000000  0.25278900  1
  Si  Si7  1  0.75000000  0.50000000  0.75149900  1
  Si  Si8  1  0.25000000  0.00000000  0.17023600  1
  Rh  Rh0  1  0.25000000  0.50000000  0.67841400  1
  Rh  Rh1  1  0.75000000  0.50000000  0.31561000  1
  Rh  Rh2  1  0.75000000  0.00000000  0.82320600  1
loop_
_geom_bond_atom_site_label_1
_geom_bond_atom_site_label_2
_geom_bond_distance
_geom_bond_site_symmetry_2
Ce0 Si1 3.089245 1_545
Ce0 Si1 3.089245 1_555
Ce0 Si2 3.132078 1_555
Ce0 Si2 3.132078 1_545
Ce0 Si2 3.132078 1_455
Ce0 Si2 3.132078 1_445
Ce0 Si6 3.236286 1_455
Ce0 Si6 3.236286 1_555
Ce0 Si4 3.264268 1_545
Ce0 Si4 3.264268 1_555
Ce0 Rh1 3.292386 1_545
Ce0 Rh1 3.292386 1_455
Ce0 Rh1 3.292386 1_445
Ce0 Rh1 3.292386 1_555
Ce1 Si0 3.096021 1_556
Ce1 Si0 3.096021 1_566
Ce1 Si3 3.180495 1_455
Ce1 Si3 3.180495 1_555
Ce1 Si3 3.180495 1_465
Ce1 Si3 3.180495 1_565
Ce1 Si7 3.192417 1_555
Ce1 Si7 3.192417 1_455
Ce1 Rh2 3.208909 1_465
Ce1 Rh2 3.208909 1_455
Ce1 Rh2 3.208909 1_555
Ce1 Rh2 3.208909 1_565
Ce1 Si5 3.220898 1_555
Ce1 Si5 3.220898 1_565
Ce2 Si8 3.123779 1_565
Ce2 Si8 3.123779 1_665
Ce2 Si8 3.123779 1_655
Ce2 Si8 3.123779 1_555
Ce2 Si4 3.124009 1_655
Ce2 Si4 3.124009 1_555
Ce2 Si6 3.151800 1_565
Ce2 Si6 3.151800 1_555
Ce2 Si3 3.247471 1_554
Ce2 Si3 3.247471 1_564
Ce2 Si0 3.258455 1_665
Ce2 Si0 3.258455 1_555
Ce2 Si0 3.258455 1_655
Ce2 Si0 3.258455 1_565
Ce3 Si1 3.187159 1_645
Ce3 Si1 3.187159 1_545
Ce3 Si1 3.187159 1_555
Ce3 Si1 3.187159 1_655
Ce3 Si5 3.192783 1_555
Ce3 Si5 3.192783 1_655
Ce3 Si2 3.209610 1_555
Ce3 Si2 3.209610 1_545
Ce3 Rh0 3.210173 1_655
Ce3 Rh0 3.210173 1_545
Ce3 Rh0 3.210173 1_645
Ce3 Rh0 3.210173 1_555
Ce3 Si7 3.221264 1_555
Ce3 Si7 3.221264 1_545
Si0 Si8 2.306305 1_555
Si0 Si3 2.379738 1_454
Si0 Si3 2.379738 1_554
Si1 Si2 2.446410 1_455
Si1 Si2 2.446410 1_555
Si4 Si8 2.503609 1_555
Si4 Si8 2.503609 1_565
Si6 Si8 2.505808 1_555
Si6 Si8 2.505808 1_655
Rh0 Si1 2.372642 1_555
Rh0 Si5 2.421609 1_555
Rh0 Si5 2.421609 1_565
Rh0 Si7 2.422617 1_555
Rh0 Si7 2.422617 1_455
Rh1 Si4 2.352480 1_655
Rh1 Si4 2.352480 1_555
Rh1 Si6 2.353381 1_565
Rh1 Si6 2.353381 1_555
Rh1 Si2 2.413342 1_555
Rh2 Si3 2.350791 1_555
Rh2 Si7 2.423016 1_555
Rh2 Si7 2.423016 1_545
Rh2 Si5 2.424054 1_555
Rh2 Si5 2.424054 1_655
