# generated using pymatgen
data_Dy3FeB7
_symmetry_space_group_name_H-M   'P 1'
_cell_length_a   8.02883478
_cell_length_b   8.02883478
_cell_length_c   9.29492177
_cell_angle_alpha   90.00000000
_cell_angle_beta   90.00000000
_cell_angle_gamma   155.49679277
_symmetry_Int_Tables_number   1
_chemical_formula_structural   Dy3FeB7
_chemical_formula_sum   'Dy6 Fe2 B14'
_cell_volume   248.50268155
_cell_formula_units_Z   2
loop_
 _symmetry_equiv_pos_site_id
 _symmetry_equiv_pos_as_xyz
  1  'x, y, z'
loop_
 _atom_site_type_symbol
 _atom_site_label
 _atom_site_symmetry_multiplicity
 _atom_site_fract_x
 _atom_site_fract_y
 _atom_site_fract_z
 _atom_site_occupancy
  Dy  Dy0  1  0.89537125  0.10462875  0.43973224  1
  Dy  Dy1  1  0.10462875  0.89537125  0.56026776  1
  Dy  Dy2  1  0.89537125  0.10462875  0.06026776  1
  Dy  Dy3  1  0.10462875  0.89537125  0.93973224  1
  Dy  Dy4  1  0.24293546  0.75706454  0.25000000  1
  Dy  Dy5  1  0.75706454  0.24293546  0.75000000  1
  Fe  Fe0  1  0.05454111  0.94545889  0.25000000  1
  Fe  Fe1  1  0.94545889  0.05454111  0.75000000  1
  B  B0  1  0.72727742  0.27272258  0.46759856  1
  B  B1  1  0.27272258  0.72727742  0.53240144  1
  B  B2  1  0.72727742  0.27272258  0.03240144  1
  B  B3  1  0.27272258  0.72727742  0.96759856  1
  B  B4  1  0.62992164  0.37007836  0.15343198  1
  B  B5  1  0.37007836  0.62992164  0.84656802  1
  B  B6  1  0.62992164  0.37007836  0.34656802  1
  B  B7  1  0.37007836  0.62992164  0.65343198  1
  B  B8  1  0.52201866  0.47798134  0.09972451  1
  B  B9  1  0.47798134  0.52201866  0.90027549  1
  B  B10  1  0.52201866  0.47798134  0.40027549  1
  B  B11  1  0.47798134  0.52201866  0.59972451  1
  B  B12  1  0.46018304  0.53981696  0.25000000  1
  B  B13  1  0.53981696  0.46018304  0.75000000  1
loop_
_geom_bond_atom_site_label_1
_geom_bond_atom_site_label_2
_geom_bond_distance
_geom_bond_site_symmetry_2
B0 B6 1.897217 1_555
B0 B1 1.942717 1_655
B0 B1 1.942717 1_545
B0 Dy0 2.650408 1_555
B0 Dy4 2.655922 1_655
B0 Dy4 2.655922 1_545
B0 Dy5 2.666191 1_555
B0 Dy1 2.710867 1_655
B0 Dy1 2.710867 1_545
B1 B7 1.897217 1_555
B1 Dy1 2.650408 1_555
B1 Dy5 2.655922 1_565
B1 Dy5 2.655922 1_455
B1 Dy4 2.666191 1_555
B1 Dy0 2.710867 1_455
B1 Dy0 2.710867 1_565
B2 B4 1.897217 1_555
B2 B3 1.942717 1_544
B2 B3 1.942717 1_654
B2 Dy2 2.650408 1_555
B2 Dy4 2.655922 1_655
B2 Dy4 2.655922 1_545
B2 Dy5 2.666191 1_554
B2 Dy3 2.710867 1_654
B2 Dy3 2.710867 1_544
B3 B5 1.897217 1_555
B3 Dy3 2.650408 1_555
B3 Dy5 2.655922 1_565
B3 Dy5 2.655922 1_455
B3 Dy4 2.666191 1_556
B3 Dy2 2.710867 1_456
B3 Dy2 2.710867 1_566
B4 B8 1.765266 1_555
B4 B6 1.795184 1_555
B4 Fe0 2.260010 1_545
B4 Fe0 2.260010 1_655
B4 Dy4 2.617908 1_545
B4 Dy4 2.617908 1_655
B4 Dy3 2.646847 1_654
B4 Dy3 2.646847 1_544
B5 B9 1.765266 1_555
B5 B7 1.795184 1_555
B5 Fe1 2.260010 1_455
B5 Fe1 2.260010 1_565
B5 Dy5 2.617908 1_565
B5 Dy5 2.617908 1_455
B5 Dy2 2.646847 1_566
B5 Dy2 2.646847 1_456
B6 Fe0 2.260010 1_545
B6 Fe0 2.260010 1_655
B6 Dy4 2.617908 1_545
B6 Dy4 2.617908 1_655
B6 Dy1 2.646847 1_545
B6 Dy1 2.646847 1_655
B7 Fe1 2.260010 1_455
B7 Fe1 2.260010 1_565
B7 Dy5 2.617908 1_565
B7 Dy5 2.617908 1_455
B7 Dy0 2.646847 1_565
B7 Dy0 2.646847 1_455
B8 B9 1.978467 1_554
B8 Fe0 2.261480 1_545
B8 Fe0 2.261480 1_655
B8 Dy3 2.606672 1_544
B8 Dy3 2.606672 1_654
B8 Dy2 2.643264 1_455
B8 Dy2 2.643264 1_565
B9 Fe1 2.261480 1_455
B9 Fe1 2.261480 1_565
B9 Dy2 2.606672 1_456
B9 Dy2 2.606672 1_566
B9 Dy3 2.643264 1_545
B9 Dy3 2.643264 1_655
B10 B12 1.700756 1_555
B10 B6 1.765266 1_555
B10 B11 1.978467 1_555
B10 Fe0 2.261480 1_545
B10 Fe0 2.261480 1_655
B10 Dy1 2.606672 1_545
B10 Dy1 2.606672 1_655
B10 Dy0 2.643264 1_455
B10 Dy0 2.643264 1_565
B11 B13 1.700756 1_555
B11 B7 1.765266 1_555
B11 Fe1 2.261480 1_455
B11 Fe1 2.261480 1_565
B11 Dy0 2.606672 1_455
B11 Dy0 2.606672 1_565
B11 Dy1 2.643264 1_545
B11 Dy1 2.643264 1_655
B12 B8 1.700756 1_555
B12 Fe0 2.257246 1_655
B12 Fe0 2.257246 1_545
B12 Dy0 2.654662 1_455
B12 Dy2 2.654662 1_455
B12 Dy2 2.654662 1_565
B12 Dy0 2.654662 1_565
B13 B9 1.700756 1_555
B13 Fe1 2.257246 1_565
B13 Fe1 2.257246 1_455
B13 Dy1 2.654662 1_545
B13 Dy3 2.654662 1_545
B13 Dy3 2.654662 1_655
B13 Dy1 2.654662 1_655
