# generated using pymatgen
data_Pr5(SiN3)3
_symmetry_space_group_name_H-M   'P 1'
_cell_length_a   7.78838711
_cell_length_b   7.78838711
_cell_length_c   16.01169900
_cell_angle_alpha   90.00000000
_cell_angle_beta   90.00000000
_cell_angle_gamma   93.78336765
_symmetry_Int_Tables_number   1
_chemical_formula_structural   Pr5(SiN3)3
_chemical_formula_sum   'Pr20 Si12 N36'
_cell_volume   969.13654277
_cell_formula_units_Z   4
loop_
 _symmetry_equiv_pos_site_id
 _symmetry_equiv_pos_as_xyz
  1  'x, y, z'
loop_
 _atom_site_type_symbol
 _atom_site_label
 _atom_site_symmetry_multiplicity
 _atom_site_fract_x
 _atom_site_fract_y
 _atom_site_fract_z
 _atom_site_occupancy
  Pr  Pr0  1  0.01188000  0.98812000  0.33497200  1
  Pr  Pr1  1  0.98812000  0.01188000  0.66502800  1
  Pr  Pr2  1  0.48812000  0.51188000  0.83497200  1
  Pr  Pr3  1  0.51188000  0.48812000  0.16502800  1
  Pr  Pr4  1  0.95251500  0.46877300  0.36943900  1
  Pr  Pr5  1  0.46877300  0.95251500  0.63056100  1
  Pr  Pr6  1  0.96877300  0.45251500  0.86943900  1
  Pr  Pr7  1  0.45251500  0.96877300  0.13056100  1
  Pr  Pr8  1  0.04748500  0.53122700  0.63056100  1
  Pr  Pr9  1  0.53122700  0.04748500  0.36943900  1
  Pr  Pr10  1  0.03122700  0.54748500  0.13056100  1
  Pr  Pr11  1  0.54748500  0.03122700  0.86943900  1
  Pr  Pr12  1  0.99415400  0.00584600  0.11232200  1
  Pr  Pr13  1  0.00584600  0.99415400  0.88767800  1
  Pr  Pr14  1  0.50584600  0.49415400  0.61232200  1
  Pr  Pr15  1  0.49415400  0.50584600  0.38767800  1
  Pr  Pr16  1  0.79279800  0.79279800  0.50000000  1
  Pr  Pr17  1  0.29279800  0.29279800  0.00000000  1
  Pr  Pr18  1  0.20720200  0.20720200  0.50000000  1
  Pr  Pr19  1  0.70720200  0.70720200  0.00000000  1
  Si  Si0  1  0.74005600  0.25994400  0.51697700  1
  Si  Si1  1  0.25994400  0.74005600  0.48302300  1
  Si  Si2  1  0.75994400  0.24005600  0.01697700  1
  Si  Si3  1  0.24005600  0.75994400  0.98302300  1
  Si  Si4  1  0.27278500  0.72721500  0.27417600  1
  Si  Si5  1  0.72721500  0.27278500  0.72582400  1
  Si  Si6  1  0.22721500  0.77278500  0.77417600  1
  Si  Si7  1  0.77278500  0.22721500  0.22582400  1
  Si  Si8  1  0.21323500  0.28676500  0.25000000  1
  Si  Si9  1  0.28676500  0.21323500  0.75000000  1
  Si  Si10  1  0.78676500  0.71323500  0.75000000  1
  Si  Si11  1  0.71323500  0.78676500  0.25000000  1
  N  N0  1  0.15781900  0.84218100  0.20454200  1
  N  N1  1  0.84218100  0.15781900  0.79545800  1
  N  N2  1  0.34218100  0.65781900  0.70454200  1
  N  N3  1  0.65781900  0.34218100  0.29545800  1
  N  N4  1  0.22396000  0.77604000  0.37653800  1
  N  N5  1  0.77604000  0.22396000  0.62346200  1
  N  N6  1  0.27604000  0.72396000  0.87653800  1
  N  N7  1  0.72396000  0.27604000  0.12346200  1
  N  N8  1  0.74077100  0.00902700  0.24201700  1
  N  N9  1  0.00902700  0.74077100  0.75798300  1
  N  N10  1  0.50902700  0.24077100  0.74201700  1
  N  N11  1  0.24077100  0.50902700  0.25798300  1
  N  N12  1  0.25922900  0.99097300  0.75798300  1
  N  N13  1  0.99097300  0.25922900  0.24201700  1
  N  N14  1  0.49097300  0.75922900  0.25798300  1
  N  N15  1  0.75922900  0.49097300  0.74201700  1
  N  N16  1  0.79723300  0.72825400  0.34603400  1
  N  N17  1  0.72825400  0.79723300  0.65396600  1
  N  N18  1  0.22825400  0.29723300  0.84603400  1
  N  N19  1  0.29723300  0.22825400  0.15396600  1
  N  N20  1  0.20276700  0.27174600  0.65396600  1
  N  N21  1  0.27174600  0.20276700  0.34603400  1
  N  N22  1  0.77174600  0.70276700  0.15396600  1
  N  N23  1  0.70276700  0.77174600  0.84603400  1
  N  N24  1  0.77884200  0.48464900  0.50114600  1
  N  N25  1  0.48464900  0.77884200  0.49885400  1
  N  N26  1  0.98464900  0.27884200  0.00114600  1
  N  N27  1  0.27884200  0.98464900  0.99885400  1
  N  N28  1  0.22115800  0.51535100  0.49885400  1
  N  N29  1  0.51535100  0.22115800  0.50114600  1
  N  N30  1  0.01535100  0.72115800  0.99885400  1
  N  N31  1  0.72115800  0.01535100  0.00114600  1
  N  N32  1  0.86483400  0.13516600  0.45228300  1
  N  N33  1  0.13516600  0.86483400  0.54771700  1
  N  N34  1  0.63516600  0.36483400  0.95228300  1
  N  N35  1  0.36483400  0.63516600  0.04771700  1
loop_
_geom_bond_atom_site_label_1
_geom_bond_atom_site_label_2
_geom_bond_distance
_geom_bond_site_symmetry_2
N0 Si4 1.718260 1_555
N0 Pr12 2.375799 1_465
N0 Pr0 2.667543 1_555
N0 Pr7 2.710095 1_555
N0 Pr10 2.710095 1_555
N1 Si5 1.718260 1_555
N1 Pr13 2.375799 1_645
N1 Pr1 2.667543 1_555
N1 Pr6 2.710095 1_555
N1 Pr11 2.710095 1_555
N2 Si6 1.718260 1_555
N2 Pr14 2.375799 1_555
N2 Pr2 2.667543 1_555
N2 Pr8 2.710095 1_555
N2 Pr5 2.710095 1_555
N3 Si7 1.718260 1_555
N3 Pr15 2.375799 1_555
N3 Pr3 2.667543 1_555
N3 Pr9 2.710095 1_555
N3 Pr4 2.710095 1_555
N4 Si4 1.730485 1_555
N4 Si1 1.753425 1_555
N4 Pr0 2.501925 1_555
N4 Pr9 3.088971 1_565
N4 Pr4 3.088971 1_455
N5 Si5 1.730485 1_555
N5 Si0 1.753425 1_555
N5 Pr1 2.501925 1_555
N5 Pr8 3.088971 1_655
N5 Pr5 3.088971 1_545
N6 Si6 1.730485 1_555
N6 Si3 1.753425 1_555
N6 Pr2 2.501925 1_555
N6 Pr11 3.088971 1_565
N6 Pr6 3.088971 1_455
N7 Si7 1.730485 1_555
N7 Si2 1.753425 1_555
N7 Pr3 2.501925 1_555
N7 Pr10 3.088971 1_655
N7 Pr7 3.088971 1_545
N8 Si7 1.720816 1_555
N8 Si11 1.734911 1_545
N8 Pr0 2.597223 1_645
N8 Pr9 2.642020 1_555
N8 Pr7 2.868876 1_545
N9 Si6 1.720816 1_555
N9 Si10 1.734911 1_455
N9 Pr1 2.597223 1_465
N9 Pr8 2.642020 1_555
N9 Pr6 2.868876 1_455
N10 Si5 1.720816 1_555
N10 Si9 1.734911 1_555
N10 Pr2 2.597223 1_555
N10 Pr11 2.642020 1_555
N10 Pr5 2.868876 1_545
N11 Si4 1.720816 1_555
N11 Si8 1.734911 1_555
N11 Pr3 2.597223 1_555
N11 Pr10 2.642020 1_555
N11 Pr4 2.868876 1_455
N12 Si6 1.720816 1_555
N12 Si9 1.734911 1_565
N12 Pr1 2.597223 1_465
N12 Pr5 2.642020 1_555
N12 Pr11 2.868876 1_565
N13 Si7 1.720816 1_555
N13 Si8 1.734911 1_655
N13 Pr0 2.597223 1_645
N13 Pr4 2.642020 1_555
N13 Pr10 2.868876 1_655
N14 Si4 1.720816 1_555
N14 Si11 1.734911 1_555
N14 Pr3 2.597223 1_555
N14 Pr7 2.642020 1_555
N14 Pr9 2.868876 1_565
N15 Si5 1.720816 1_555
N15 Si10 1.734911 1_555
N15 Pr2 2.597223 1_555
N15 Pr6 2.642020 1_555
N15 Pr8 2.868876 1_655
N16 Si11 1.743394 1_555
N16 Pr4 2.451493 1_555
N16 Pr16 2.516680 1_555
N16 Pr0 2.544786 1_655
N16 Pr15 2.911610 1_555
N17 Si10 1.743394 1_555
N17 Pr5 2.451493 1_555
N17 Pr16 2.516680 1_555
N17 Pr1 2.544786 1_565
N17 Pr14 2.911610 1_555
N18 Si9 1.743394 1_555
N18 Pr6 2.451493 1_455
N18 Pr17 2.516680 1_556
N18 Pr2 2.544786 1_555
N18 Pr13 2.911610 1_545
N19 Si8 1.743394 1_555
N19 Pr7 2.451493 1_545
N19 Pr17 2.516680 1_555
N19 Pr3 2.544786 1_555
N19 Pr12 2.911610 1_455
N20 Si9 1.743394 1_555
N20 Pr8 2.451493 1_555
N20 Pr18 2.516680 1_555
N20 Pr1 2.544786 1_455
N20 Pr14 2.911610 1_555
N21 Si8 1.743394 1_555
N21 Pr9 2.451493 1_555
N21 Pr18 2.516680 1_555
N21 Pr0 2.544786 1_545
N21 Pr15 2.911610 1_555
N22 Si11 1.743394 1_555
N22 Pr10 2.451493 1_655
N22 Pr19 2.516680 1_555
N22 Pr3 2.544786 1_555
N22 Pr12 2.911610 1_565
N23 Si10 1.743394 1_555
N23 Pr11 2.451493 1_565
N23 Pr19 2.516680 1_556
N23 Pr2 2.544786 1_555
N23 Pr13 2.911610 1_655
N24 Si0 1.774416 1_555
N24 Pr16 2.395339 1_555
N24 Pr4 2.512814 1_555
N24 Pr14 2.777731 1_555
N24 Pr15 2.879692 1_555
N24 Pr8 2.950078 1_655
N25 Si1 1.774416 1_555
N25 Pr16 2.395339 1_555
N25 Pr5 2.512814 1_555
N25 Pr15 2.777731 1_555
N25 Pr14 2.879692 1_555
N25 Pr9 2.950078 1_565
N26 Si2 1.774416 1_555
N26 Pr17 2.395339 1_655
N26 Pr6 2.512814 1_554
N26 Pr12 2.777731 1_555
N26 Pr13 2.879692 1_644
N26 Pr10 2.950078 1_655
N27 Si3 1.774416 1_555
N27 Pr17 2.395339 1_566
N27 Pr7 2.512814 1_556
N27 Pr13 2.777731 1_555
N27 Pr12 2.879692 1_466
N27 Pr11 2.950078 1_565
N28 Si1 1.774416 1_555
N28 Pr18 2.395339 1_555
N28 Pr8 2.512814 1_555
N28 Pr15 2.777731 1_555
N28 Pr14 2.879692 1_555
N28 Pr4 2.950078 1_455
N29 Si0 1.774416 1_555
N29 Pr18 2.395339 1_555
N29 Pr9 2.512814 1_555
N29 Pr14 2.777731 1_555
N29 Pr15 2.879692 1_555
N29 Pr5 2.950078 1_545
N30 Si3 1.774416 1_555
N30 Pr19 2.395339 1_456
N30 Pr10 2.512814 1_556
N30 Pr13 2.777731 1_555
N30 Pr12 2.879692 1_466
N30 Pr6 2.950078 1_455
N31 Si2 1.774416 1_555
N31 Pr19 2.395339 1_545
N31 Pr11 2.512814 1_554
N31 Pr12 2.777731 1_555
N31 Pr13 2.879692 1_644
N31 Pr7 2.950078 1_545
N32 Si0 1.756846 1_555
N32 Pr0 2.514853 1_645
N32 Pr16 2.794866 1_545
N32 Pr18 2.794866 1_655
N32 Pr9 2.956802 1_555
N32 Pr4 2.956802 1_555
N33 Si1 1.756846 1_555
N33 Pr1 2.514853 1_465
N33 Pr16 2.794866 1_455
N33 Pr18 2.794866 1_565
N33 Pr8 2.956802 1_555
N33 Pr5 2.956802 1_555
N34 Si2 1.756846 1_556
N34 Pr2 2.514853 1_555
N34 Pr19 2.794866 1_556
N34 Pr17 2.794866 1_556
N34 Pr6 2.956802 1_555
N34 Pr11 2.956802 1_555
N35 Si3 1.756846 1_554
N35 Pr3 2.514853 1_555
N35 Pr19 2.794866 1_555
N35 Pr17 2.794866 1_555
N35 Pr7 2.956802 1_555
N35 Pr10 2.956802 1_555
