# generated using pymatgen
data_Lu6FeSb2
_symmetry_space_group_name_H-M   'P 1'
_cell_length_a   7.98181804
_cell_length_b   7.98133861
_cell_length_c   4.08859459
_cell_angle_alpha   90.00000000
_cell_angle_beta   90.00000000
_cell_angle_gamma   119.99801498
_symmetry_Int_Tables_number   1
_chemical_formula_structural   Lu6FeSb2
_chemical_formula_sum   'Lu6 Fe1 Sb2'
_cell_volume   225.57497985
_cell_formula_units_Z   1
loop_
 _symmetry_equiv_pos_site_id
 _symmetry_equiv_pos_as_xyz
  1  'x, y, z'
loop_
 _atom_site_type_symbol
 _atom_site_label
 _atom_site_symmetry_multiplicity
 _atom_site_fract_x
 _atom_site_fract_y
 _atom_site_fract_z
 _atom_site_occupancy
  Lu  Lu0  1  0.23664300  -0.00000244  -0.00000000  1
  Lu  Lu1  1  0.76335700  0.76335357  -0.00000000  1
  Lu  Lu2  1  -0.00000000  0.23667372  -0.00000000  1
  Lu  Lu3  1  0.00000000  0.60723861  0.50000000  1
  Lu  Lu4  1  0.39284707  0.39282571  0.50000000  1
  Lu  Lu5  1  0.60715293  0.99997864  0.50000000  1
  Fe  Fe0  1  -0.00000000  0.99999043  0.50000000  1
  Sb  Sb0  1  0.33338184  0.66666130  -0.00000000  1
  Sb  Sb1  1  0.66661816  0.33327946  -0.00000000  1
loop_
_geom_bond_atom_site_label_1
_geom_bond_atom_site_label_2
_geom_bond_distance
_geom_bond_site_symmetry_2
Lu0 Sb1 3.118597 1_555
Lu0 Sb0 3.119051 1_545
Lu1 Sb0 3.118600 1_555
Lu1 Sb1 3.119043 1_555
Lu2 Sb0 3.118815 1_555
Lu2 Sb1 3.118815 1_455
Lu3 Sb1 3.197344 1_456
Lu3 Sb1 3.197344 1_455
Lu3 Sb0 3.197344 1_556
Lu3 Sb0 3.197344 1_555
Lu4 Sb0 3.196634 1_556
Lu4 Sb0 3.196634 1_555
Lu4 Sb1 3.196647 1_555
Lu4 Sb1 3.196647 1_556
Lu5 Sb1 3.196634 1_565
Lu5 Sb1 3.196634 1_566
Lu5 Sb0 3.196647 1_556
Lu5 Sb0 3.196647 1_555
Fe0 Lu0 2.783301 1_566
Fe0 Lu0 2.783301 1_565
Fe0 Lu1 2.783304 1_456
Fe0 Lu1 2.783304 1_455
Fe0 Lu2 2.783462 1_565
Fe0 Lu2 2.783462 1_566
Fe0 Lu3 3.134685 1_555
Fe0 Lu4 3.135587 1_565
Fe0 Lu5 3.135587 1_455
