# generated using pymatgen
data_Mn4GeN4
_symmetry_space_group_name_H-M   'P 1'
_cell_length_a   4.71926100
_cell_length_b   12.01316700
_cell_length_c   7.08470800
_cell_angle_alpha   90.00000000
_cell_angle_beta   90.00000000
_cell_angle_gamma   90.00000000
_symmetry_Int_Tables_number   1
_chemical_formula_structural   Mn4GeN4
_chemical_formula_sum   'Mn16 Ge4 N16'
_cell_volume   401.65526713
_cell_formula_units_Z   4
loop_
 _symmetry_equiv_pos_site_id
 _symmetry_equiv_pos_as_xyz
  1  'x, y, z'
loop_
 _atom_site_type_symbol
 _atom_site_label
 _atom_site_symmetry_multiplicity
 _atom_site_fract_x
 _atom_site_fract_y
 _atom_site_fract_z
 _atom_site_occupancy
  Mn  Mn0  1  0.95674500  0.31400800  0.60777900  1
  Mn  Mn1  1  0.54325500  0.68599200  0.60777900  1
  Mn  Mn2  1  0.95674500  0.18599200  0.89222100  1
  Mn  Mn3  1  0.54325500  0.81400800  0.89222100  1
  Mn  Mn4  1  0.04325500  0.68599200  0.39222100  1
  Mn  Mn5  1  0.45674500  0.31400800  0.39222100  1
  Mn  Mn6  1  0.04325500  0.81400800  0.10777900  1
  Mn  Mn7  1  0.45674500  0.18599200  0.10777900  1
  Mn  Mn8  1  0.75000000  0.50000000  0.25322100  1
  Mn  Mn9  1  0.75000000  0.00000000  0.24677900  1
  Mn  Mn10  1  0.25000000  0.50000000  0.74677900  1
  Mn  Mn11  1  0.25000000  0.00000000  0.75322100  1
  Mn  Mn12  1  0.48551500  0.25000000  0.75000000  1
  Mn  Mn13  1  0.01448500  0.75000000  0.75000000  1
  Mn  Mn14  1  0.51448500  0.75000000  0.25000000  1
  Mn  Mn15  1  0.98551500  0.25000000  0.25000000  1
  Ge  Ge0  1  0.75000000  0.50000000  0.89052900  1
  Ge  Ge1  1  0.75000000  0.00000000  0.60947100  1
  Ge  Ge2  1  0.25000000  0.50000000  0.10947100  1
  Ge  Ge3  1  0.25000000  0.00000000  0.39052900  1
  N  N0  1  0.32651200  0.37587500  0.62378400  1
  N  N1  1  0.17348800  0.62412500  0.62378400  1
  N  N2  1  0.32651200  0.12412500  0.87621600  1
  N  N3  1  0.17348800  0.87587500  0.87621600  1
  N  N4  1  0.67348800  0.62412500  0.37621600  1
  N  N5  1  0.82651200  0.37587500  0.37621600  1
  N  N6  1  0.67348800  0.87587500  0.12378400  1
  N  N7  1  0.82651200  0.12412500  0.12378400  1
  N  N8  1  0.78371300  0.17140400  0.64712100  1
  N  N9  1  0.71628700  0.82859600  0.64712100  1
  N  N10  1  0.78371300  0.32859600  0.85287900  1
  N  N11  1  0.71628700  0.67140400  0.85287900  1
  N  N12  1  0.21628700  0.82859600  0.35287900  1
  N  N13  1  0.28371300  0.17140400  0.35287900  1
  N  N14  1  0.21628700  0.67140400  0.14712100  1
  N  N15  1  0.28371300  0.32859600  0.14712100  1
loop_
_geom_bond_atom_site_label_1
_geom_bond_atom_site_label_2
_geom_bond_distance
_geom_bond_site_symmetry_2
Mn0 N0 1.900092 1_655
Mn0 N5 1.903033 1_555
Mn0 N8 1.918149 1_555
Mn0 N10 1.926868 1_555
Mn1 N1 1.900092 1_555
Mn1 N4 1.903033 1_555
Mn1 N9 1.918149 1_555
Mn1 N11 1.926868 1_555
Mn2 N2 1.900092 1_655
Mn2 N7 1.903033 1_556
Mn2 N10 1.918149 1_555
Mn2 N8 1.926868 1_555
Mn3 N3 1.900092 1_555
Mn3 N6 1.903033 1_556
Mn3 N11 1.918149 1_555
Mn3 N9 1.926868 1_555
Mn4 N4 1.900092 1_455
Mn4 N1 1.903033 1_555
Mn4 N12 1.918149 1_555
Mn4 N14 1.926868 1_555
Mn5 N5 1.900092 1_555
Mn5 N0 1.903033 1_555
Mn5 N13 1.918149 1_555
Mn5 N15 1.926868 1_555
Mn6 N6 1.900092 1_455
Mn6 N3 1.903033 1_554
Mn6 N14 1.918149 1_555
Mn6 N12 1.926868 1_555
Mn7 N7 1.900092 1_555
Mn7 N2 1.903033 1_554
Mn7 N15 1.918149 1_555
Mn7 N13 1.926868 1_555
Mn8 N5 1.764418 1_555
Mn8 N4 1.764418 1_555
Mn9 N7 1.764418 1_555
Mn9 N6 1.764418 1_545
Mn10 N0 1.764418 1_555
Mn10 N1 1.764418 1_555
Mn11 N2 1.764418 1_555
Mn11 N3 1.764418 1_545
Mn12 N8 1.844765 1_555
Mn12 N10 1.844765 1_555
Mn12 N2 1.910310 1_555
Mn12 N0 1.910310 1_555
Mn13 N9 1.844765 1_455
Mn13 N11 1.844765 1_455
Mn13 N3 1.910310 1_555
Mn13 N1 1.910310 1_555
Mn14 N14 1.844765 1_555
Mn14 N12 1.844765 1_555
Mn14 N4 1.910310 1_555
Mn14 N6 1.910310 1_555
Mn15 N15 1.844765 1_655
Mn15 N13 1.844765 1_655
Mn15 N7 1.910310 1_555
Mn15 N5 1.910310 1_555
Ge0 N11 2.082397 1_555
Ge0 N10 2.082397 1_555
Ge1 N8 2.082397 1_555
Ge1 N9 2.082397 1_545
Ge2 N14 2.082397 1_555
Ge2 N15 2.082397 1_555
Ge3 N13 2.082397 1_555
Ge3 N12 2.082397 1_545
