# generated using pymatgen
data_GdMoO5
_symmetry_space_group_name_H-M   'P 1'
_cell_length_a   12.65083200
_cell_length_b   5.40164500
_cell_length_c   6.97764886
_cell_angle_alpha   64.60265194
_cell_angle_beta   90.00000000
_cell_angle_gamma   90.00000000
_symmetry_Int_Tables_number   1
_chemical_formula_structural   GdMoO5
_chemical_formula_sum   'Gd4 Mo4 O20'
_cell_volume   430.73757636
_cell_formula_units_Z   4
loop_
 _symmetry_equiv_pos_site_id
 _symmetry_equiv_pos_as_xyz
  1  'x, y, z'
loop_
 _atom_site_type_symbol
 _atom_site_label
 _atom_site_symmetry_multiplicity
 _atom_site_fract_x
 _atom_site_fract_y
 _atom_site_fract_z
 _atom_site_occupancy
  Gd  Gd0  1  0.05537700  0.64458900  0.71142700  1
  Gd  Gd1  1  0.94462300  0.35541100  0.28857300  1
  Gd  Gd2  1  0.55537700  0.35541100  0.78857300  1
  Gd  Gd3  1  0.44462300  0.64458900  0.21142700  1
  Mo  Mo0  1  0.36125900  0.91297400  0.64365700  1
  Mo  Mo1  1  0.63874100  0.08702600  0.35634300  1
  Mo  Mo2  1  0.86125900  0.08702600  0.85634300  1
  Mo  Mo3  1  0.13874100  0.91297400  0.14365700  1
  O  O0  1  0.42067800  0.49741800  0.95191900  1
  O  O1  1  0.57932200  0.50258200  0.04808100  1
  O  O2  1  0.92067800  0.50258200  0.54808100  1
  O  O3  1  0.07932200  0.49741800  0.45191900  1
  O  O4  1  0.92661900  0.98768800  0.66080200  1
  O  O5  1  0.07338100  0.01231200  0.33919800  1
  O  O6  1  0.42661900  0.01231200  0.83919800  1
  O  O7  1  0.57338100  0.98768800  0.16080200  1
  O  O8  1  0.43573200  0.70668300  0.53526100  1
  O  O9  1  0.56426800  0.29331700  0.46473900  1
  O  O10  1  0.93573200  0.29331700  0.96473900  1
  O  O11  1  0.06426800  0.70668300  0.03526100  1
  O  O12  1  0.22974400  0.79386200  0.71302700  1
  O  O13  1  0.77025600  0.20613800  0.28697300  1
  O  O14  1  0.72974400  0.20613800  0.78697300  1
  O  O15  1  0.27025600  0.79386200  0.21302700  1
  O  O16  1  0.65241700  0.76711400  0.57798100  1
  O  O17  1  0.34758300  0.23288600  0.42201900  1
  O  O18  1  0.15241700  0.23288600  0.92201900  1
  O  O19  1  0.84758300  0.76711400  0.07798100  1
loop_
_geom_bond_atom_site_label_1
_geom_bond_atom_site_label_2
_geom_bond_distance
_geom_bond_site_symmetry_2
Gd0 O3 2.288524 1_555
Gd0 O12 2.350306 1_555
Gd0 O2 2.353981 1_455
Gd0 O4 2.377233 1_455
Gd0 O18 2.410153 1_555
Gd0 O11 2.425088 1_556
Gd0 O10 2.477624 1_455
Gd0 O5 2.513534 1_565
Gd1 O2 2.288524 1_555
Gd1 O13 2.350306 1_555
Gd1 O3 2.353981 1_655
Gd1 O5 2.377233 1_655
Gd1 O19 2.410153 1_555
Gd1 O10 2.425088 1_554
Gd1 O11 2.477624 1_655
Gd1 O4 2.513534 1_545
Gd2 O1 2.288524 1_556
Gd2 O14 2.350306 1_555
Gd2 O0 2.353981 1_555
Gd2 O6 2.377233 1_555
Gd2 O16 2.410153 1_555
Gd2 O9 2.425088 1_555
Gd2 O8 2.477624 1_555
Gd2 O7 2.513534 1_546
Gd3 O0 2.288524 1_554
Gd3 O15 2.350306 1_555
Gd3 O1 2.353981 1_555
Gd3 O7 2.377233 1_555
Gd3 O17 2.410153 1_555
Gd3 O8 2.425088 1_555
Gd3 O9 2.477624 1_555
Gd3 O6 2.513534 1_564
Mo0 O17 1.765050 1_565
Mo0 O12 1.774616 1_555
Mo0 O8 1.850497 1_555
Mo0 O6 1.860448 1_565
Mo0 O0 2.467523 1_555
Mo1 O16 1.765050 1_545
Mo1 O13 1.774616 1_555
Mo1 O9 1.850497 1_555
Mo1 O7 1.860448 1_545
Mo1 O1 2.467523 1_555
Mo2 O19 1.765050 1_546
Mo2 O14 1.774616 1_555
Mo2 O10 1.850497 1_555
Mo2 O4 1.860448 1_545
Mo2 O2 2.467523 1_555
Mo3 O18 1.765050 1_564
Mo3 O15 1.774616 1_555
Mo3 O11 1.850497 1_555
Mo3 O5 1.860448 1_565
Mo3 O3 2.467523 1_555
