# generated using pymatgen
data_Pr3Re2O9
_symmetry_space_group_name_H-M   'P 1'
_cell_length_a   5.64193073
_cell_length_b   6.83208664
_cell_length_c   11.09075342
_cell_angle_alpha   77.16411615
_cell_angle_beta   75.47204205
_cell_angle_gamma   68.91523527
_symmetry_Int_Tables_number   1
_chemical_formula_structural   Pr3Re2O9
_chemical_formula_sum   'Pr6 Re4 O18'
_cell_volume   381.98947956
_cell_formula_units_Z   2
loop_
 _symmetry_equiv_pos_site_id
 _symmetry_equiv_pos_as_xyz
  1  'x, y, z'
loop_
 _atom_site_type_symbol
 _atom_site_label
 _atom_site_symmetry_multiplicity
 _atom_site_fract_x
 _atom_site_fract_y
 _atom_site_fract_z
 _atom_site_occupancy
  Pr  Pr0  1  0.00274397  0.22560268  0.27031212  1
  Pr  Pr1  1  0.99725603  0.77439732  0.72968788  1
  Pr  Pr2  1  0.22331104  0.16227660  0.88271630  1
  Pr  Pr3  1  0.77668896  0.83772340  0.11728370  1
  Pr  Pr4  1  0.28366733  0.59365387  0.37962693  1
  Pr  Pr5  1  0.71633267  0.40634613  0.62037307  1
  Re  Re0  1  0.51045397  0.38848682  0.09143742  1
  Re  Re1  1  0.48954603  0.61151318  0.90856258  1
  Re  Re2  1  0.35615597  0.12197710  0.57123940  1
  Re  Re3  1  0.64384403  0.87802290  0.42876060  1
  O  O0  1  0.30187505  0.41816381  0.59122313  1
  O  O1  1  0.69812495  0.58183619  0.40877687  1
  O  O2  1  0.58804601  0.06026066  0.68670686  1
  O  O3  1  0.41195399  0.93973934  0.31329314  1
  O  O4  1  0.85754071  0.18828320  0.06388981  1
  O  O5  1  0.14245929  0.81171680  0.93611019  1
  O  O6  1  0.38676721  0.17052064  0.07260014  1
  O  O7  1  0.61323279  0.82947936  0.92739986  1
  O  O8  1  0.06341229  0.11334291  0.71163809  1
  O  O9  1  0.93658771  0.88665709  0.28836191  1
  O  O10  1  0.17624366  0.51279432  0.18965309  1
  O  O11  1  0.82375634  0.48720568  0.81034691  1
  O  O12  1  0.11095666  0.25423482  0.46124954  1
  O  O13  1  0.88904334  0.74576518  0.53875046  1
  O  O14  1  0.64100128  0.52363718  0.18366699  1
  O  O15  1  0.35899872  0.47636282  0.81633301  1
  O  O16  1  0.62347880  0.18343160  0.41981224  1
  O  O17  1  0.37652120  0.81656840  0.58018776  1
loop_
_geom_bond_atom_site_label_1
_geom_bond_atom_site_label_2
_geom_bond_distance
_geom_bond_site_symmetry_2
O0 Re2 1.989245 1_555
O0 Pr4 2.395311 1_555
O0 Pr5 2.410543 1_555
O0 Pr1 2.926171 1_455
O1 Re3 1.989245 1_555
O1 Pr5 2.395311 1_555
O1 Pr4 2.410543 1_555
O1 Pr0 2.926171 1_655
O2 Re2 1.932148 1_555
O2 Pr1 2.503219 1_545
O2 Pr2 2.615930 1_555
O2 Pr5 2.616711 1_555
O3 Re3 1.932148 1_555
O3 Pr0 2.503219 1_565
O3 Pr3 2.615930 1_555
O3 Pr4 2.616711 1_555
O4 Re0 1.938373 1_555
O4 Pr2 2.478338 1_654
O4 Pr3 2.513049 1_545
O4 Pr0 2.707028 1_655
O5 Re1 1.938373 1_555
O5 Pr3 2.478338 1_456
O5 Pr2 2.513049 1_565
O5 Pr1 2.707028 1_455
O6 Re0 1.925434 1_555
O6 Pr2 2.520543 1_554
O6 Pr3 2.588890 1_545
O6 Pr0 2.653415 1_555
O7 Re1 1.925434 1_555
O7 Pr3 2.520543 1_556
O7 Pr2 2.588890 1_565
O7 Pr1 2.653415 1_555
O8 Re2 1.973584 1_555
O8 Pr2 2.425554 1_555
O8 Pr1 2.433168 1_445
O8 Pr5 2.477923 1_455
O9 Re3 1.973584 1_555
O9 Pr3 2.425554 1_555
O9 Pr0 2.433168 1_665
O9 Pr4 2.477923 1_655
O10 Re0 1.921365 1_555
O10 Pr0 2.402301 1_555
O10 Pr4 2.551570 1_555
O10 Pr3 2.677596 1_455
O11 Re1 1.921365 1_555
O11 Pr1 2.402301 1_555
O11 Pr5 2.551570 1_555
O11 Pr2 2.677596 1_655
O12 Re2 1.917254 1_555
O12 Pr0 2.411232 1_555
O12 Pr5 2.516027 1_455
O12 Pr4 2.719739 1_555
O13 Re3 1.917254 1_555
O13 Pr1 2.411232 1_555
O13 Pr4 2.516027 1_655
O13 Pr5 2.719739 1_555
O14 Re0 1.930897 1_555
O14 Pr3 2.435169 1_555
O14 Pr0 2.521797 1_655
O14 Pr4 2.566420 1_555
O15 Re1 1.930897 1_555
O15 Pr2 2.435169 1_555
O15 Pr1 2.521797 1_455
O15 Pr5 2.566420 1_555
O16 Re3 2.029304 1_545
O16 Re2 2.035446 1_555
O16 Pr0 2.421199 1_655
O16 Pr4 2.781525 1_555
O17 Re2 2.029304 1_565
O17 Re3 2.035446 1_555
O17 Pr1 2.421199 1_455
O17 Pr5 2.781525 1_555
