# generated using pymatgen
data_Sr2TbWO6
_symmetry_space_group_name_H-M   'P 1'
_cell_length_a   8.37893815
_cell_length_b   8.37893815
_cell_length_c   8.37893815
_cell_angle_alpha   90.00000000
_cell_angle_beta   90.00000000
_cell_angle_gamma   90.00000000
_symmetry_Int_Tables_number   1
_chemical_formula_structural   Sr2TbWO6
_chemical_formula_sum   'Sr8 Tb4 W4 O24'
_cell_volume   588.25679701
_cell_formula_units_Z   4
loop_
 _symmetry_equiv_pos_site_id
 _symmetry_equiv_pos_as_xyz
  1  'x, y, z'
loop_
 _atom_site_type_symbol
 _atom_site_label
 _atom_site_symmetry_multiplicity
 _atom_site_fract_x
 _atom_site_fract_y
 _atom_site_fract_z
 _atom_site_occupancy
  Sr  Sr0  1  0.50000000  0.50000000  0.50000000  1
  Sr  Sr1  1  -0.00000000  0.00000000  -0.00000000  1
  Sr  Sr2  1  -0.00000000  -0.00000000  0.50000000  1
  Sr  Sr3  1  -0.00000000  0.50000000  -0.00000000  1
  Sr  Sr4  1  0.50000000  0.00000000  -0.00000000  1
  Sr  Sr5  1  0.50000000  0.50000000  -0.00000000  1
  Sr  Sr6  1  0.50000000  0.00000000  0.50000000  1
  Sr  Sr7  1  -0.00000000  0.50000000  0.50000000  1
  Tb  Tb0  1  0.75000000  0.75000000  0.75000000  1
  Tb  Tb1  1  0.75000000  0.25000000  0.25000000  1
  Tb  Tb2  1  0.25000000  0.75000000  0.25000000  1
  Tb  Tb3  1  0.25000000  0.25000000  0.75000000  1
  W  W0  1  0.25000000  0.25000000  0.25000000  1
  W  W1  1  0.25000000  0.75000000  0.75000000  1
  W  W2  1  0.75000000  0.25000000  0.75000000  1
  W  W3  1  0.75000000  0.75000000  0.25000000  1
  O  O0  1  0.21553158  0.28615416  0.48541680  1
  O  O1  1  0.21553158  0.71384584  0.51458320  1
  O  O2  1  0.78446842  0.28615416  0.51458320  1
  O  O3  1  0.78446842  0.71384584  0.48541680  1
  O  O4  1  0.28615416  0.48541680  0.21553158  1
  O  O5  1  0.71384584  0.51458320  0.21553158  1
  O  O6  1  0.28615416  0.51458320  0.78446842  1
  O  O7  1  0.71384584  0.48541680  0.78446842  1
  O  O8  1  0.48541680  0.21553158  0.28615416  1
  O  O9  1  0.51458320  0.21553158  0.71384584  1
  O  O10  1  0.51458320  0.78446842  0.28615416  1
  O  O11  1  0.48541680  0.78446842  0.71384584  1
  O  O12  1  0.28446842  0.21384584  0.01458320  1
  O  O13  1  0.28446842  0.78615416  0.98541680  1
  O  O14  1  0.71553158  0.21384584  0.98541680  1
  O  O15  1  0.71553158  0.78615416  0.01458320  1
  O  O16  1  0.21384584  0.01458320  0.28446842  1
  O  O17  1  0.78615416  0.98541680  0.28446842  1
  O  O18  1  0.21384584  0.98541680  0.71553158  1
  O  O19  1  0.78615416  0.01458320  0.71553158  1
  O  O20  1  0.01458320  0.28446842  0.21384584  1
  O  O21  1  0.98541680  0.28446842  0.78615416  1
  O  O22  1  0.98541680  0.71553158  0.21384584  1
  O  O23  1  0.01458320  0.71553158  0.78615416  1
loop_
_geom_bond_atom_site_label_1
_geom_bond_atom_site_label_2
_geom_bond_distance
_geom_bond_site_symmetry_2
O0 W0 2.016458 1_555
O0 Tb3 2.256090 1_555
O0 Sr7 2.546929 1_555
O0 Sr0 2.984420 1_555
O0 Sr2 3.004182 1_555
O1 W1 2.016458 1_555
O1 Tb2 2.256090 1_555
O1 Sr7 2.546929 1_555
O1 Sr0 2.984420 1_555
O1 Sr2 3.004182 1_565
O2 W2 2.016458 1_555
O2 Tb1 2.256090 1_555
O2 Sr7 2.546929 1_655
O2 Sr0 2.984420 1_555
O2 Sr2 3.004182 1_655
O3 W3 2.016458 1_555
O3 Tb0 2.256090 1_555
O3 Sr7 2.546929 1_655
O3 Sr0 2.984420 1_555
O3 Sr2 3.004182 1_665
O4 W0 2.016458 1_555
O4 Tb2 2.256090 1_555
O4 Sr5 2.546929 1_555
O4 Sr0 2.984420 1_555
O4 Sr3 3.004182 1_555
O5 W3 2.016458 1_555
O5 Tb1 2.256090 1_555
O5 Sr5 2.546929 1_555
O5 Sr0 2.984420 1_555
O5 Sr3 3.004182 1_655
O6 W1 2.016458 1_555
O6 Tb3 2.256090 1_555
O6 Sr5 2.546929 1_556
O6 Sr0 2.984420 1_555
O6 Sr3 3.004182 1_556
O7 W2 2.016458 1_555
O7 Tb0 2.256090 1_555
O7 Sr5 2.546929 1_556
O7 Sr0 2.984420 1_555
O7 Sr3 3.004182 1_656
O8 W0 2.016458 1_555
O8 Tb1 2.256090 1_555
O8 Sr6 2.546929 1_555
O8 Sr0 2.984420 1_555
O8 Sr4 3.004182 1_555
O9 W2 2.016458 1_555
O9 Tb3 2.256090 1_555
O9 Sr6 2.546929 1_555
O9 Sr0 2.984420 1_555
O9 Sr4 3.004182 1_556
O10 W3 2.016458 1_555
O10 Tb2 2.256090 1_555
O10 Sr6 2.546929 1_565
O10 Sr0 2.984420 1_555
O10 Sr4 3.004182 1_565
O11 W1 2.016458 1_555
O11 Tb0 2.256090 1_555
O11 Sr6 2.546929 1_565
O11 Sr0 2.984420 1_555
O11 Sr4 3.004182 1_566
O12 W0 2.016458 1_555
O12 Tb3 2.256090 1_554
O12 Sr4 2.546929 1_555
O12 Sr1 2.984420 1_555
O12 Sr5 3.004182 1_555
O13 W1 2.016458 1_555
O13 Tb2 2.256090 1_556
O13 Sr4 2.546929 1_566
O13 Sr1 2.984420 1_566
O13 Sr5 3.004182 1_556
O14 W2 2.016458 1_555
O14 Tb1 2.256090 1_556
O14 Sr4 2.546929 1_556
O14 Sr1 2.984420 1_656
O14 Sr5 3.004182 1_556
O15 W3 2.016458 1_555
O15 Tb0 2.256090 1_554
O15 Sr4 2.546929 1_565
O15 Sr1 2.984420 1_665
O15 Sr5 3.004182 1_555
O16 W0 2.016458 1_555
O16 Tb2 2.256090 1_545
O16 Sr2 2.546929 1_555
O16 Sr1 2.984420 1_555
O16 Sr6 3.004182 1_555
O17 W3 2.016458 1_555
O17 Tb1 2.256090 1_565
O17 Sr2 2.546929 1_665
O17 Sr1 2.984420 1_665
O17 Sr6 3.004182 1_565
O18 W1 2.016458 1_555
O18 Tb3 2.256090 1_565
O18 Sr2 2.546929 1_565
O18 Sr1 2.984420 1_566
O18 Sr6 3.004182 1_565
O19 W2 2.016458 1_555
O19 Tb0 2.256090 1_545
O19 Sr2 2.546929 1_655
O19 Sr1 2.984420 1_656
O19 Sr6 3.004182 1_555
O20 W0 2.016458 1_555
O20 Tb1 2.256090 1_455
O20 Sr3 2.546929 1_555
O20 Sr1 2.984420 1_555
O20 Sr7 3.004182 1_555
O21 W2 2.016458 1_555
O21 Tb3 2.256090 1_655
O21 Sr3 2.546929 1_656
O21 Sr1 2.984420 1_656
O21 Sr7 3.004182 1_655
O22 W3 2.016458 1_555
O22 Tb2 2.256090 1_655
O22 Sr3 2.546929 1_655
O22 Sr1 2.984420 1_665
O22 Sr7 3.004182 1_655
O23 W1 2.016458 1_555
O23 Tb0 2.256090 1_455
O23 Sr3 2.546929 1_556
O23 Sr1 2.984420 1_566
O23 Sr7 3.004182 1_555
