# generated using pymatgen
data_ErWC2
_symmetry_space_group_name_H-M   'P 1'
_cell_length_a   3.34074050
_cell_length_b   5.68157204
_cell_length_c   10.72322539
_cell_angle_alpha   90.00000000
_cell_angle_beta   90.00000000
_cell_angle_gamma   90.00000000
_symmetry_Int_Tables_number   1
_chemical_formula_structural   ErWC2
_chemical_formula_sum   'Er4 W4 C8'
_cell_volume   203.53387183
_cell_formula_units_Z   4
loop_
 _symmetry_equiv_pos_site_id
 _symmetry_equiv_pos_as_xyz
  1  'x, y, z'
loop_
 _atom_site_type_symbol
 _atom_site_label
 _atom_site_symmetry_multiplicity
 _atom_site_fract_x
 _atom_site_fract_y
 _atom_site_fract_z
 _atom_site_occupancy
  Er  Er0  1  0.25000000  0.08581413  0.86257668  1
  Er  Er1  1  0.25000000  0.58581413  0.63742332  1
  Er  Er2  1  0.75000000  0.91418587  0.13742332  1
  Er  Er3  1  0.75000000  0.41418587  0.36257668  1
  W  W0  1  0.25000000  0.40156134  0.11071311  1
  W  W1  1  0.25000000  0.90156234  0.38928689  1
  W  W2  1  0.75000000  0.59843766  0.88928689  1
  W  W3  1  0.75000000  0.09843866  0.61071311  1
  C  C0  1  0.25000000  0.15904420  0.24688489  1
  C  C1  1  0.25000000  0.65904420  0.25311511  1
  C  C2  1  0.75000000  0.84095580  0.75311511  1
  C  C3  1  0.75000000  0.34095580  0.74688489  1
  C  C4  1  0.25000000  0.72664379  0.98483764  1
  C  C5  1  0.25000000  0.22664379  0.51516236  1
  C  C6  1  0.75000000  0.27335621  0.01516236  1
  C  C7  1  0.75000000  0.77335621  0.48483764  1
loop_
_geom_bond_atom_site_label_1
_geom_bond_atom_site_label_2
_geom_bond_distance
_geom_bond_site_symmetry_2
C0 W0 2.007669 1_555
C0 W1 2.114672 1_545
C0 Er2 2.470482 1_545
C0 Er2 2.470482 1_445
C0 Er3 2.535854 1_555
C0 Er3 2.535854 1_455
C1 W1 2.007673 1_555
C1 W0 2.114676 1_555
C1 Er3 2.470482 1_555
C1 Er3 2.470482 1_455
C1 Er2 2.535854 1_555
C1 Er2 2.535854 1_455
C2 W2 2.007673 1_555
C2 W3 2.114676 1_565
C2 Er0 2.470482 1_665
C2 Er0 2.470482 1_565
C2 Er1 2.535854 1_555
C2 Er1 2.535854 1_655
C3 W3 2.007669 1_555
C3 W2 2.114672 1_555
C3 Er1 2.470482 1_655
C3 Er1 2.470482 1_555
C3 Er0 2.535854 1_655
C3 Er0 2.535854 1_555
C4 W2 2.090586 1_555
C4 W2 2.090586 1_455
C4 W0 2.287634 1_556
C4 Er0 2.425503 1_565
C4 Er2 2.569569 1_556
C4 Er2 2.569569 1_456
C5 W3 2.090584 1_455
C5 W3 2.090584 1_555
C5 W1 2.287629 1_545
C5 Er1 2.425503 1_555
C5 Er3 2.569569 1_455
C5 Er3 2.569569 1_555
C6 W0 2.090584 1_555
C6 W0 2.090584 1_655
C6 W2 2.287629 1_554
C6 Er2 2.425503 1_545
C6 Er0 2.569569 1_654
C6 Er0 2.569569 1_554
C7 W1 2.090586 1_655
C7 W1 2.090586 1_555
C7 W3 2.287634 1_565
C7 Er3 2.425503 1_555
C7 Er1 2.569569 1_655
C7 Er1 2.569569 1_555
