# generated using pymatgen
data_HfCrCuS4
_symmetry_space_group_name_H-M   'P 1'
_cell_length_a   6.99310500
_cell_length_b   7.60706100
_cell_length_c   10.26221200
_cell_angle_alpha   90.00000000
_cell_angle_beta   90.00000000
_cell_angle_gamma   90.00000000
_symmetry_Int_Tables_number   1
_chemical_formula_structural   HfCrCuS4
_chemical_formula_sum   'Hf4 Cr4 Cu4 S16'
_cell_volume   545.91864870
_cell_formula_units_Z   4
loop_
 _symmetry_equiv_pos_site_id
 _symmetry_equiv_pos_as_xyz
  1  'x, y, z'
loop_
 _atom_site_type_symbol
 _atom_site_label
 _atom_site_symmetry_multiplicity
 _atom_site_fract_x
 _atom_site_fract_y
 _atom_site_fract_z
 _atom_site_occupancy
  Hf  Hf0  1  0.25000000  0.08836300  0.00946100  1
  Hf  Hf1  1  0.75000000  0.91163700  0.99053900  1
  Hf  Hf2  1  0.75000000  0.41163700  0.50946100  1
  Hf  Hf3  1  0.25000000  0.58836300  0.49053900  1
  Cr  Cr0  1  0.75000000  0.98941600  0.29083700  1
  Cr  Cr1  1  0.25000000  0.01058400  0.70916300  1
  Cr  Cr2  1  0.25000000  0.51058400  0.79083700  1
  Cr  Cr3  1  0.75000000  0.48941600  0.20916300  1
  Cu  Cu0  1  0.25000000  0.18212400  0.39612800  1
  Cu  Cu1  1  0.75000000  0.81787600  0.60387200  1
  Cu  Cu2  1  0.75000000  0.31787600  0.89612800  1
  Cu  Cu3  1  0.25000000  0.68212400  0.10387200  1
  S  S0  1  0.52545400  0.09940700  0.84289000  1
  S  S1  1  0.47454600  0.90059300  0.15711000  1
  S  S2  1  0.47454600  0.40059300  0.34289000  1
  S  S3  1  0.52545400  0.59940700  0.65711000  1
  S  S4  1  0.97454600  0.59940700  0.65711000  1
  S  S5  1  0.02545400  0.40059300  0.34289000  1
  S  S6  1  0.02545400  0.90059300  0.15711000  1
  S  S7  1  0.97454600  0.09940700  0.84289000  1
  S  S8  1  0.25000000  0.90951400  0.48598900  1
  S  S9  1  0.75000000  0.09048600  0.51401100  1
  S  S10  1  0.75000000  0.59048600  0.98598900  1
  S  S11  1  0.25000000  0.40951400  0.01401100  1
  S  S12  1  0.75000000  0.20930000  0.13322700  1
  S  S13  1  0.25000000  0.79070000  0.86677300  1
  S  S14  1  0.25000000  0.29070000  0.63322700  1
  S  S15  1  0.75000000  0.70930000  0.36677300  1
loop_
_geom_bond_atom_site_label_1
_geom_bond_atom_site_label_2
_geom_bond_distance
_geom_bond_site_symmetry_2
Hf0 S11 2.443461 1_555
Hf0 S7 2.576744 1_454
Hf0 S0 2.576744 1_554
Hf0 S6 2.608040 1_545
Hf0 S1 2.608040 1_545
Hf0 S13 2.696553 1_544
Hf1 S10 2.443461 1_555
Hf1 S1 2.576744 1_556
Hf1 S6 2.576744 1_656
Hf1 S0 2.608040 1_565
Hf1 S7 2.608040 1_565
Hf1 S12 2.696553 1_566
Hf2 S9 2.443461 1_555
Hf2 S2 2.576744 1_555
Hf2 S5 2.576744 1_655
Hf2 S3 2.608040 1_555
Hf2 S4 2.608040 1_555
Hf2 S15 2.696553 1_555
Hf3 S8 2.443461 1_555
Hf3 S3 2.576744 1_555
Hf3 S4 2.576744 1_455
Hf3 S5 2.608040 1_555
Hf3 S2 2.608040 1_555
Hf3 S14 2.696553 1_555
Cr0 S15 2.268882 1_555
Cr0 S12 2.326779 1_565
Cr0 S9 2.415866 1_565
Cr0 S1 2.459756 1_555
Cr0 S6 2.459756 1_655
Cr1 S14 2.268882 1_555
Cr1 S13 2.326779 1_545
Cr1 S8 2.415866 1_545
Cr1 S0 2.459756 1_555
Cr1 S7 2.459756 1_455
Cr2 S13 2.268882 1_555
Cr2 S14 2.326779 1_555
Cr2 S11 2.415866 1_556
Cr2 S3 2.459756 1_555
Cr2 S4 2.459756 1_455
Cr3 S12 2.268882 1_555
Cr3 S15 2.326779 1_555
Cr3 S10 2.415866 1_554
Cr3 S5 2.459756 1_655
Cr3 S2 2.459756 1_555
Cu0 S8 2.269556 1_545
Cu0 S2 2.350783 1_555
Cu0 S5 2.350783 1_555
Cu0 S14 2.569524 1_555
Cu1 S9 2.269556 1_565
Cu1 S4 2.350783 1_555
Cu1 S3 2.350783 1_555
Cu1 S15 2.569524 1_555
Cu2 S10 2.269556 1_555
Cu2 S7 2.350783 1_555
Cu2 S0 2.350783 1_555
Cu2 S12 2.569524 1_556
Cu3 S11 2.269556 1_555
Cu3 S6 2.350783 1_555
Cu3 S1 2.350783 1_555
Cu3 S13 2.569524 1_554
