# generated using pymatgen
data_TeMoWS3
_symmetry_space_group_name_H-M   'P 1'
_cell_length_a   3.27198154
_cell_length_b   3.27198154
_cell_length_c   37.17972500
_cell_angle_alpha   90.00000000
_cell_angle_beta   90.00000000
_cell_angle_gamma   119.99999067
_symmetry_Int_Tables_number   1
_chemical_formula_structural   TeMoWS3
_chemical_formula_sum   'Te2 Mo2 W2 S6'
_cell_volume   344.71369281
_cell_formula_units_Z   2
loop_
 _symmetry_equiv_pos_site_id
 _symmetry_equiv_pos_as_xyz
  1  'x, y, z'
loop_
 _atom_site_type_symbol
 _atom_site_label
 _atom_site_symmetry_multiplicity
 _atom_site_fract_x
 _atom_site_fract_y
 _atom_site_fract_z
 _atom_site_occupancy
  Te  Te0  1  0.33333300  0.66666700  0.04198500  1
  Te  Te1  1  0.33333300  0.66666700  0.14570400  1
  Mo  Mo0  1  0.00000000  0.00000000  0.09384600  1
  Mo  Mo1  1  0.00000000  0.00000000  0.46965400  1
  W  W0  1  0.33333300  0.66666700  0.28185100  1
  W  W1  1  0.33333300  0.66666700  0.65756400  1
  S  S0  1  0.00000000  0.00000000  0.32339600  1
  S  S1  1  0.00000000  0.00000000  0.69912900  1
  S  S2  1  0.33333300  0.66666700  0.42828800  1
  S  S3  1  0.33333300  0.66666700  0.51105000  1
  S  S4  1  0.00000000  0.00000000  0.24030100  1
  S  S5  1  0.00000000  0.00000000  0.61597800  1
loop_
_geom_bond_atom_site_label_1
_geom_bond_atom_site_label_2
_geom_bond_distance
_geom_bond_site_symmetry_2
Mo0 Te1 2.699269 1_545
Mo0 Te1 2.699271 1_445
Mo0 Te1 2.699271 1_555
Mo0 Te0 2.699349 1_545
Mo0 Te0 2.699351 1_555
Mo0 Te0 2.699351 1_445
Mo1 S2 2.435977 1_545
Mo1 S2 2.435980 1_445
Mo1 S2 2.435980 1_555
Mo1 S3 2.436682 1_545
Mo1 S3 2.436684 1_445
Mo1 S3 2.436684 1_555
S0 W0 2.440185 1_545
S0 W0 2.440187 1_555
S0 W0 2.440187 1_445
S1 W1 2.440655 1_545
S1 W1 2.440658 1_555
S1 W1 2.440658 1_445
S4 W0 2.440302 1_545
S4 W0 2.440305 1_445
S4 W0 2.440305 1_555
S5 W1 2.441150 1_545
S5 W1 2.441152 1_555
S5 W1 2.441152 1_445
