# generated using pymatgen
data_Mg3Zn
_symmetry_space_group_name_H-M   'P 1'
_cell_length_a   6.20269246
_cell_length_b   6.20269246
_cell_length_c   19.38720822
_cell_angle_alpha   90.00000000
_cell_angle_beta   90.00000000
_cell_angle_gamma   120.00578636
_symmetry_Int_Tables_number   1
_chemical_formula_structural   Mg3Zn
_chemical_formula_sum   'Mg24 Zn8'
_cell_volume   645.92348951
_cell_formula_units_Z   8
loop_
 _symmetry_equiv_pos_site_id
 _symmetry_equiv_pos_as_xyz
  1  'x, y, z'
loop_
 _atom_site_type_symbol
 _atom_site_label
 _atom_site_symmetry_multiplicity
 _atom_site_fract_x
 _atom_site_fract_y
 _atom_site_fract_z
 _atom_site_occupancy
  Mg  Mg0_0  1  0.00000123  0.99999877  0.00000000  1
  Mg  Mg0_1  1  0.00000123  0.99999877  0.50000000  1
  Mg  Mg0_2  1  0.00000123  0.49999877  0.00000000  1
  Mg  Mg0_3  1  0.00000123  0.49999877  0.50000000  1
  Mg  Mg0_4  1  0.50000123  0.99999877  0.00000000  1
  Mg  Mg0_5  1  0.50000123  0.99999877  0.50000000  1
  Mg  Mg0_6  1  0.50000123  0.49999877  0.00000000  1
  Mg  Mg0_7  1  0.50000123  0.49999877  0.50000000  1
  Mg  Mg1_0  1  0.33333278  0.16666722  0.36545670  1
  Mg  Mg1_1  1  0.33333278  0.16666722  0.86545670  1
  Mg  Mg1_2  1  0.33333278  0.66666722  0.36545670  1
  Mg  Mg1_3  1  0.33333278  0.66666722  0.86545670  1
  Mg  Mg1_4  1  0.83333278  0.16666722  0.36545670  1
  Mg  Mg1_5  1  0.83333278  0.16666722  0.86545670  1
  Mg  Mg1_6  1  0.83333278  0.66666722  0.36545670  1
  Mg  Mg1_7  1  0.83333278  0.66666722  0.86545670  1
  Mg  Mg2_0  1  0.33333278  0.16666722  0.13454330  1
  Mg  Mg2_1  1  0.33333278  0.16666722  0.63454330  1
  Mg  Mg2_2  1  0.33333278  0.66666722  0.13454330  1
  Mg  Mg2_3  1  0.33333278  0.66666722  0.63454330  1
  Mg  Mg2_4  1  0.83333278  0.16666722  0.13454330  1
  Mg  Mg2_5  1  0.83333278  0.16666722  0.63454330  1
  Mg  Mg2_6  1  0.83333278  0.66666722  0.13454330  1
  Mg  Mg2_7  1  0.83333278  0.66666722  0.63454330  1
  Zn  Zn0_0  1  0.00000022  0.99999978  0.25000000  1
  Zn  Zn0_1  1  0.00000022  0.99999978  0.75000000  1
  Zn  Zn0_2  1  0.00000023  0.49999977  0.25000000  1
  Zn  Zn0_3  1  0.00000023  0.49999977  0.75000000  1
  Zn  Zn0_4  1  0.50000022  0.99999977  0.25000000  1
  Zn  Zn0_5  1  0.50000022  0.99999977  0.75000000  1
  Zn  Zn0_6  1  0.50000022  0.49999977  0.25000000  1
  Zn  Zn0_7  1  0.50000022  0.49999977  0.75000000  1
loop_
_geom_bond_atom_site_label_1
_geom_bond_atom_site_label_2
_geom_bond_distance
_geom_bond_site_symmetry_2
Mg0_0 Mg0_6 3.101075 1_565
Mg0_0 Mg0_6 3.101075 1_455
Mg0_0 Mg0_2 3.101346 1_565
Mg0_0 Mg0_4 3.101346 1_455
Mg0_0 Mg0_4 3.101346 1_555
Mg0_0 Mg0_2 3.101346 1_555
Mg0_0 Mg2_0 3.163788 1_565
Mg0_0 Mg2_6 3.163788 1_455
Mg0_0 Mg1_1 3.163788 1_564
Mg0_0 Mg1_7 3.163788 1_454
Mg0_0 Mg2_4 3.163893 1_465
Mg0_0 Mg1_5 3.163893 1_464
Mg0_1 Mg0_7 3.101075 1_565
Mg0_1 Mg0_7 3.101075 1_455
Mg0_1 Mg0_3 3.101346 1_565
Mg0_1 Mg0_5 3.101346 1_455
Mg0_1 Mg0_5 3.101346 1_555
Mg0_1 Mg0_3 3.101346 1_555
Mg0_1 Mg2_1 3.163788 1_565
Mg0_1 Mg2_7 3.163788 1_455
Mg0_1 Mg1_0 3.163788 1_565
Mg0_1 Mg1_6 3.163788 1_455
Mg0_1 Mg2_5 3.163893 1_465
Mg0_1 Mg1_4 3.163893 1_465
Mg0_2 Mg0_4 3.101075 1_555
Mg0_2 Mg0_4 3.101075 1_445
Mg0_2 Mg0_6 3.101346 1_555
Mg0_2 Mg0_6 3.101346 1_455
Mg0_2 Mg2_4 3.163788 1_455
Mg0_2 Mg2_2 3.163788 1_555
Mg0_2 Mg1_5 3.163788 1_454
Mg0_2 Mg1_3 3.163788 1_554
Mg0_2 Mg2_6 3.163893 1_455
Mg0_2 Mg1_7 3.163893 1_454
Mg0_3 Mg0_5 3.101075 1_555
Mg0_3 Mg0_5 3.101075 1_445
Mg0_3 Mg0_7 3.101346 1_555
Mg0_3 Mg0_7 3.101346 1_455
Mg0_3 Mg2_5 3.163788 1_455
Mg0_3 Mg2_3 3.163788 1_555
Mg0_3 Mg1_4 3.163788 1_455
Mg0_3 Mg1_2 3.163788 1_555
Mg0_3 Mg2_7 3.163893 1_455
Mg0_3 Mg1_6 3.163893 1_455
Mg0_4 Mg0_6 3.101346 1_565
Mg0_4 Mg0_6 3.101346 1_555
Mg0_4 Mg2_2 3.163788 1_555
Mg0_4 Mg2_4 3.163788 1_565
Mg0_4 Mg1_5 3.163788 1_564
Mg0_4 Mg1_3 3.163788 1_554
Mg0_4 Mg2_0 3.163893 1_565
Mg0_4 Mg1_1 3.163893 1_564
Mg0_5 Mg0_7 3.101346 1_555
Mg0_5 Mg0_7 3.101346 1_565
Mg0_5 Mg2_5 3.163788 1_565
Mg0_5 Mg2_3 3.163788 1_555
Mg0_5 Mg1_4 3.163788 1_565
Mg0_5 Mg1_2 3.163788 1_555
Mg0_5 Mg2_1 3.163893 1_565
Mg0_5 Mg1_0 3.163893 1_565
Mg0_6 Mg2_0 3.163788 1_555
Mg0_6 Mg2_6 3.163788 1_555
Mg0_6 Mg1_1 3.163788 1_554
Mg0_6 Mg1_7 3.163788 1_554
Mg0_6 Mg2_2 3.163893 1_555
Mg0_6 Mg1_3 3.163893 1_554
Mg0_7 Mg2_1 3.163788 1_555
Mg0_7 Mg2_7 3.163788 1_555
Mg0_7 Mg1_0 3.163788 1_555
Mg0_7 Mg1_6 3.163788 1_555
Mg0_7 Mg2_3 3.163893 1_555
Mg0_7 Mg1_2 3.163893 1_555
Mg1_0 Zn0_6 2.866372 1_555
Mg1_0 Zn0_0 2.866372 1_545
Mg1_0 Zn0_4 2.866477 1_545
Mg1_1 Zn0_7 2.866372 1_555
Mg1_1 Zn0_1 2.866372 1_545
Mg1_1 Zn0_5 2.866477 1_545
Mg1_2 Zn0_2 2.866372 1_555
Mg1_2 Zn0_4 2.866372 1_555
Mg1_2 Zn0_6 2.866477 1_555
Mg1_3 Zn0_5 2.866372 1_555
Mg1_3 Zn0_3 2.866372 1_555
Mg1_3 Zn0_7 2.866477 1_555
Mg1_4 Zn0_2 2.866372 1_655
Mg1_4 Zn0_4 2.866372 1_545
Mg1_4 Zn0_0 2.866477 1_645
Mg1_5 Zn0_3 2.866372 1_655
Mg1_5 Zn0_5 2.866372 1_545
Mg1_5 Zn0_1 2.866477 1_645
Mg1_6 Zn0_6 2.866372 1_555
Mg1_6 Zn0_0 2.866372 1_655
Mg1_6 Zn0_2 2.866477 1_655
Mg1_7 Zn0_1 2.866372 1_655
Mg1_7 Zn0_7 2.866372 1_555
Mg1_7 Zn0_3 2.866477 1_655
Mg2_0 Zn0_6 2.866372 1_555
Mg2_0 Zn0_0 2.866372 1_545
Mg2_0 Zn0_4 2.866477 1_545
Mg2_1 Zn0_7 2.866372 1_555
Mg2_1 Zn0_1 2.866372 1_545
Mg2_1 Zn0_5 2.866477 1_545
Mg2_2 Zn0_4 2.866372 1_555
Mg2_2 Zn0_2 2.866372 1_555
Mg2_2 Zn0_6 2.866477 1_555
Mg2_3 Zn0_3 2.866372 1_555
Mg2_3 Zn0_5 2.866372 1_555
Mg2_3 Zn0_7 2.866477 1_555
Mg2_4 Zn0_2 2.866372 1_655
Mg2_4 Zn0_4 2.866372 1_545
Mg2_4 Zn0_0 2.866477 1_645
Mg2_5 Zn0_3 2.866372 1_655
Mg2_5 Zn0_5 2.866372 1_545
Mg2_5 Zn0_1 2.866477 1_645
Mg2_6 Zn0_6 2.866372 1_555
Mg2_6 Zn0_0 2.866372 1_655
Mg2_6 Zn0_2 2.866477 1_655
Mg2_7 Zn0_7 2.866372 1_555
Mg2_7 Zn0_1 2.866372 1_655
Mg2_7 Zn0_3 2.866477 1_655
