# generated using pymatgen
data_RbYb(WO4)2
_symmetry_space_group_name_H-M   'P 1'
_cell_length_a   7.70161030
_cell_length_b   7.70161030
_cell_length_c   7.49286457
_cell_angle_alpha   62.71955298
_cell_angle_beta   62.71955298
_cell_angle_gamma   88.76578131
_symmetry_Int_Tables_number   1
_chemical_formula_structural   RbYb(WO4)2
_chemical_formula_sum   'Rb2 Yb2 W4 O16'
_cell_volume   340.92274701
_cell_formula_units_Z   2
loop_
 _symmetry_equiv_pos_site_id
 _symmetry_equiv_pos_as_xyz
  1  'x, y, z'
loop_
 _atom_site_type_symbol
 _atom_site_label
 _atom_site_symmetry_multiplicity
 _atom_site_fract_x
 _atom_site_fract_y
 _atom_site_fract_z
 _atom_site_occupancy
  Rb  Rb0  1  0.19919300  0.80080700  0.75000000  1
  Rb  Rb1  1  0.80080700  0.19919300  0.25000000  1
  Yb  Yb0  1  0.77543100  0.22456900  0.75000000  1
  Yb  Yb1  1  0.22456900  0.77543100  0.25000000  1
  W  W0  1  0.69885600  0.68697700  0.78564800  1
  W  W1  1  0.30114400  0.31302300  0.21435200  1
  W  W2  1  0.31302300  0.30114400  0.71435200  1
  W  W3  1  0.68697700  0.69885600  0.28564800  1
  O  O0  1  0.61943700  0.75053300  0.56087900  1
  O  O1  1  0.38056300  0.24946700  0.43912100  1
  O  O2  1  0.24946700  0.38056300  0.93912100  1
  O  O3  1  0.75053300  0.61943700  0.06087900  1
  O  O4  1  0.37376200  0.06504500  0.86929400  1
  O  O5  1  0.62623800  0.93495500  0.13070600  1
  O  O6  1  0.93495500  0.62623800  0.63070600  1
  O  O7  1  0.06504500  0.37376200  0.36929400  1
  O  O8  1  0.58955900  0.37118900  0.96868400  1
  O  O9  1  0.41044100  0.62881100  0.03131600  1
  O  O10  1  0.62881100  0.41044100  0.53131600  1
  O  O11  1  0.37118900  0.58955900  0.46868400  1
  O  O12  1  0.78067000  0.94912600  0.69391700  1
  O  O13  1  0.21933000  0.05087300  0.30608300  1
  O  O14  1  0.05087400  0.21933000  0.80608300  1
  O  O15  1  0.94912600  0.78067000  0.19391700  1
loop_
_geom_bond_atom_site_label_1
_geom_bond_atom_site_label_2
_geom_bond_distance
_geom_bond_site_symmetry_2
O0 W0 1.904164 1_555
O0 W3 2.107617 1_555
O0 Rb0 2.979586 1_555
O0 Rb1 3.027177 1_565
O1 W1 1.904164 1_555
O1 W2 2.107617 1_555
O1 Rb1 2.979586 1_555
O1 Rb0 3.027177 1_545
O2 W2 1.904164 1_555
O2 W1 2.107617 1_556
O2 Rb0 2.979586 1_555
O2 Rb1 3.027177 1_456
O3 W3 1.904164 1_555
O3 W0 2.107617 1_554
O3 Rb1 2.979586 1_555
O3 Rb0 3.027177 1_654
O4 W2 1.843654 1_555
O4 Yb1 2.388670 1_546
O4 Rb0 3.104034 1_545
O5 W3 1.843654 1_555
O5 Yb0 2.388670 1_564
O5 Rb1 3.104034 1_565
O6 W0 1.843654 1_555
O6 Yb1 2.388670 1_655
O6 Rb0 3.104034 1_655
O7 W1 1.843654 1_555
O7 Yb0 2.388670 1_455
O7 Rb1 3.104034 1_455
O8 W1 2.015402 1_556
O8 W0 2.115835 1_555
O8 Yb0 2.342123 1_555
O8 Rb1 3.055491 1_556
O9 W0 2.015402 1_554
O9 W1 2.115835 1_555
O9 Yb1 2.342123 1_555
O9 Rb0 3.055491 1_554
O10 W3 2.015402 1_555
O10 W2 2.115835 1_555
O10 Yb0 2.342123 1_555
O10 Rb1 3.055491 1_555
O11 W2 2.015402 1_555
O11 W3 2.115835 1_555
O11 Yb1 2.342123 1_555
O11 Rb0 3.055491 1_555
O12 W0 1.825210 1_555
O12 Yb0 2.340151 1_565
O12 Rb1 2.909387 1_565
O13 W1 1.825217 1_555
O13 Yb1 2.340143 1_545
O13 Rb0 2.909386 1_545
O14 W2 1.825210 1_555
O14 Yb0 2.340151 1_455
O14 Rb1 2.909387 1_456
O15 W3 1.825210 1_555
O15 Yb1 2.340151 1_655
O15 Rb0 2.909387 1_654
