# generated using pymatgen
data_Ce2Mg5Au
_symmetry_space_group_name_H-M   'P 1'
_cell_length_a   8.89464171
_cell_length_b   8.89464171
_cell_length_c   8.89464207
_cell_angle_alpha   33.42043396
_cell_angle_beta   33.42043396
_cell_angle_gamma   33.42043371
_symmetry_Int_Tables_number   1
_chemical_formula_structural   Ce2Mg5Au
_chemical_formula_sum   'Ce2 Mg5 Au1'
_cell_volume   190.10109592
_cell_formula_units_Z   1
loop_
 _symmetry_equiv_pos_site_id
 _symmetry_equiv_pos_as_xyz
  1  'x, y, z'
loop_
 _atom_site_type_symbol
 _atom_site_label
 _atom_site_symmetry_multiplicity
 _atom_site_fract_x
 _atom_site_fract_y
 _atom_site_fract_z
 _atom_site_occupancy
  Ce  Ce0  1  0.25221400  0.25221400  0.25221400  1
  Ce  Ce1  1  0.74778600  0.74778600  0.74778600  1
  Mg  Mg0  1  0.87147700  0.87147700  0.87147700  1
  Mg  Mg1  1  0.37868500  0.37868500  0.37868500  1
  Mg  Mg2  1  0.12852300  0.12852300  0.12852300  1
  Mg  Mg3  1  0.62131500  0.62131500  0.62131500  1
  Mg  Mg4  1  0.00000000  0.00000000  0.00000000  1
  Au  Au0  1  0.50000000  0.50000000  0.50000000  1
loop_
_geom_bond_atom_site_label_1
_geom_bond_atom_site_label_2
_geom_bond_distance
_geom_bond_site_symmetry_2
Ce0 Mg3 3.087313 1_554
Ce0 Mg3 3.087313 1_545
Ce0 Mg3 3.087313 1_455
Ce0 Mg2 3.113337 1_555
Ce0 Mg1 3.183310 1_555
Ce0 Mg0 3.185064 1_445
Ce0 Mg0 3.185064 1_454
Ce0 Mg0 3.185064 1_544
Ce0 Mg4 3.590254 1_565
Ce0 Mg4 3.590254 1_655
Ce0 Mg4 3.590254 1_556
Ce1 Mg1 3.087313 1_556
Ce1 Mg1 3.087313 1_565
Ce1 Mg1 3.087313 1_655
Ce1 Mg0 3.113337 1_555
Ce1 Mg3 3.183310 1_555
Ce1 Mg2 3.185064 1_665
Ce1 Mg2 3.185064 1_566
Ce1 Mg2 3.185064 1_656
Ce1 Mg4 3.590254 1_566
Ce1 Mg4 3.590254 1_656
Ce1 Mg4 3.590254 1_665
Mg0 Mg4 3.234960 1_666
Mg1 Mg4 3.166078 1_556
Mg1 Mg4 3.166078 1_565
Mg1 Mg4 3.166078 1_655
Mg2 Mg4 3.234960 1_555
Mg3 Mg4 3.166078 1_665
Mg3 Mg4 3.166078 1_656
Mg3 Mg4 3.166078 1_566
Au0 Mg3 3.053532 1_555
Au0 Mg1 3.053532 1_555
Au0 Mg0 3.105279 1_554
Au0 Mg2 3.105279 1_556
Au0 Mg0 3.105279 1_545
Au0 Mg0 3.105279 1_455
Au0 Mg2 3.105279 1_565
Au0 Mg2 3.105279 1_655
Au0 Ce0 3.654789 1_565
Au0 Ce0 3.654789 1_655
Au0 Ce1 3.654789 1_545
Au0 Ce1 3.654789 1_455
Au0 Ce0 3.654789 1_556
Au0 Ce1 3.654789 1_554
