# generated using pymatgen
data_Sr3Ni3N5
_symmetry_space_group_name_H-M   'P 1'
_cell_length_a   6.07093241
_cell_length_b   7.37507569
_cell_length_c   8.73803347
_cell_angle_alpha   105.60754390
_cell_angle_beta   112.80101132
_cell_angle_gamma   98.74956171
_symmetry_Int_Tables_number   1
_chemical_formula_structural   Sr3Ni3N5
_chemical_formula_sum   'Sr6 Ni6 N10'
_cell_volume   332.56499633
_cell_formula_units_Z   2
loop_
 _symmetry_equiv_pos_site_id
 _symmetry_equiv_pos_as_xyz
  1  'x, y, z'
loop_
 _atom_site_type_symbol
 _atom_site_label
 _atom_site_symmetry_multiplicity
 _atom_site_fract_x
 _atom_site_fract_y
 _atom_site_fract_z
 _atom_site_occupancy
  Sr  Sr0  1  0.74454300  0.41111100  0.61463600  1
  Sr  Sr1  1  0.25545700  0.58888900  0.38536400  1
  Sr  Sr2  1  0.66371000  0.87325100  0.86210500  1
  Sr  Sr3  1  0.33629000  0.12674900  0.13789500  1
  Sr  Sr4  1  0.70662800  0.69390500  0.22137200  1
  Sr  Sr5  1  0.29337200  0.30609500  0.77862800  1
  Ni  Ni0  1  0.88018100  0.33552100  0.97422300  1
  Ni  Ni1  1  0.11981900  0.66447900  0.02577700  1
  Ni  Ni2  1  0.73368400  0.98672800  0.56501400  1
  Ni  Ni3  1  0.26631600  0.01327200  0.43498600  1
  Ni  Ni4  1  0.07728200  0.80850800  0.68104500  1
  Ni  Ni5  1  0.92271800  0.19149200  0.31895500  1
  N  N0  1  0.88073600  0.15056000  0.79060300  1
  N  N1  1  0.11926400  0.84944000  0.20939700  1
  N  N2  1  0.73296200  0.73277400  0.55424700  1
  N  N3  1  0.26703800  0.26722600  0.44575300  1
  N  N4  1  0.74426600  0.53077000  0.91206400  1
  N  N5  1  0.25573400  0.46923000  0.08793600  1
  N  N6  1  0.26764900  0.92474700  0.60460100  1
  N  N7  1  0.73235100  0.07525300  0.39539900  1
  N  N8  1  0.20750100  0.73981800  0.86954200  1
  N  N9  1  0.79249900  0.26018200  0.13045800  1
loop_
_geom_bond_atom_site_label_1
_geom_bond_atom_site_label_2
_geom_bond_distance
_geom_bond_site_symmetry_2
N0 Ni2 1.780125 1_545
N0 Ni0 1.806381 1_555
N0 Sr2 2.610526 1_545
N0 Sr5 2.644944 1_655
N0 Sr0 2.797896 1_555
N1 Ni3 1.780125 1_565
N1 Ni1 1.806381 1_555
N1 Sr3 2.610526 1_565
N1 Sr4 2.644944 1_455
N1 Sr1 2.797896 1_555
N2 Ni2 1.849082 1_555
N2 Ni4 1.850898 1_655
N2 Sr0 2.570355 1_555
N2 Sr1 2.571618 1_555
N2 Sr4 2.783000 1_555
N2 Sr2 2.827726 1_555
N3 Ni3 1.849082 1_555
N3 Ni5 1.850898 1_455
N3 Sr1 2.570355 1_555
N3 Sr0 2.571618 1_555
N3 Sr5 2.783000 1_555
N3 Sr3 2.827726 1_555
N4 Ni0 1.866643 1_555
N4 Ni1 2.047151 1_656
N4 Sr0 2.510570 1_555
N4 Sr5 2.589386 1_555
N4 Sr2 2.759198 1_555
N4 Sr4 2.759911 1_556
N5 Ni1 1.866643 1_555
N5 Ni0 2.047151 1_454
N5 Sr1 2.510570 1_555
N5 Sr4 2.589386 1_555
N5 Sr3 2.759198 1_555
N5 Sr5 2.759911 1_554
N6 Ni4 1.766860 1_555
N6 Ni3 1.770855 1_565
N6 Sr1 2.663043 1_555
N6 Sr2 2.744612 1_555
N6 Sr5 2.761843 1_565
N7 Ni5 1.766860 1_555
N7 Ni2 1.770855 1_545
N7 Sr0 2.663043 1_555
N7 Sr3 2.744612 1_555
N7 Sr4 2.761843 1_545
N8 Ni4 1.776551 1_555
N8 Ni1 1.826812 1_556
N8 Sr2 2.826325 1_555
N8 Sr3 2.924492 1_566
N8 Sr0 2.984464 1_455
N9 Ni5 1.776551 1_555
N9 Ni0 1.826812 1_554
N9 Sr3 2.826325 1_555
N9 Sr2 2.924492 1_544
N9 Sr1 2.984464 1_655
