# generated using pymatgen
data_Ca2As4(Xe3F14)3
_symmetry_space_group_name_H-M   'P 1'
_cell_length_a   14.53452504
_cell_length_b   14.53452504
_cell_length_c   23.05222385
_cell_angle_alpha   90.00000000
_cell_angle_beta   90.00000000
_cell_angle_gamma   90.00000000
_symmetry_Int_Tables_number   1
_chemical_formula_structural   Ca2As4(Xe3F14)3
_chemical_formula_sum   'Ca8 As16 Xe36 F168'
_cell_volume   4869.83803178
_cell_formula_units_Z   4
loop_
 _symmetry_equiv_pos_site_id
 _symmetry_equiv_pos_as_xyz
  1  'x, y, z'
loop_
 _atom_site_type_symbol
 _atom_site_label
 _atom_site_symmetry_multiplicity
 _atom_site_fract_x
 _atom_site_fract_y
 _atom_site_fract_z
 _atom_site_occupancy
  Ca  Ca0  1  0.75000000  0.75000000  0.92211100  1
  Ca  Ca1  1  0.75000000  0.75000000  0.42211100  1
  Ca  Ca2  1  0.25000000  0.25000000  0.07788900  1
  Ca  Ca3  1  0.25000000  0.25000000  0.57788900  1
  Ca  Ca4  1  0.75000000  0.25000000  0.75000000  1
  Ca  Ca5  1  0.75000000  0.25000000  0.25000000  1
  Ca  Ca6  1  0.25000000  0.75000000  0.25000000  1
  Ca  Ca7  1  0.25000000  0.75000000  0.75000000  1
  As  As0  1  0.65632531  0.03893249  0.64636179  1
  As  As1  1  0.84367469  0.03893249  0.14636179  1
  As  As2  1  0.65632531  0.46106751  0.14636179  1
  As  As3  1  0.84367469  0.46106751  0.64636179  1
  As  As4  1  0.03893249  0.65632531  0.14636179  1
  As  As5  1  0.46106751  0.65632531  0.64636179  1
  As  As6  1  0.03893249  0.84367469  0.64636179  1
  As  As7  1  0.46106751  0.84367469  0.14636179  1
  As  As8  1  0.34367469  0.96106751  0.35363821  1
  As  As9  1  0.15632531  0.96106751  0.85363821  1
  As  As10  1  0.34367469  0.53893249  0.85363821  1
  As  As11  1  0.15632531  0.53893249  0.35363821  1
  As  As12  1  0.96106751  0.34367469  0.85363821  1
  As  As13  1  0.53893249  0.34367469  0.35363821  1
  As  As14  1  0.96106751  0.15632531  0.35363821  1
  As  As15  1  0.53893249  0.15632531  0.85363821  1
  Xe  Xe0  1  0.82776871  0.98477287  0.82606216  1
  Xe  Xe1  1  0.67223129  0.98477287  0.32606216  1
  Xe  Xe2  1  0.82776871  0.51522713  0.32606216  1
  Xe  Xe3  1  0.67223129  0.51522713  0.82606216  1
  Xe  Xe4  1  0.98477287  0.82776871  0.32606216  1
  Xe  Xe5  1  0.51522713  0.82776871  0.82606216  1
  Xe  Xe6  1  0.98477287  0.67223129  0.82606216  1
  Xe  Xe7  1  0.51522713  0.67223129  0.32606216  1
  Xe  Xe8  1  0.17223129  0.01522713  0.17393784  1
  Xe  Xe9  1  0.32776871  0.01522713  0.67393784  1
  Xe  Xe10  1  0.17223129  0.48477287  0.67393784  1
  Xe  Xe11  1  0.32776871  0.48477287  0.17393784  1
  Xe  Xe12  1  0.01522713  0.17223129  0.67393784  1
  Xe  Xe13  1  0.48477287  0.17223129  0.17393784  1
  Xe  Xe14  1  0.01522713  0.32776871  0.17393784  1
  Xe  Xe15  1  0.48477287  0.32776871  0.67393784  1
  Xe  Xe16  1  0.66145070  0.99626200  0.00040095  1
  Xe  Xe17  1  0.83854930  0.99626200  0.50040095  1
  Xe  Xe18  1  0.66145070  0.50373800  0.50040095  1
  Xe  Xe19  1  0.83854930  0.50373800  0.00040095  1
  Xe  Xe20  1  0.99626200  0.66145070  0.50040095  1
  Xe  Xe21  1  0.50373800  0.66145070  0.00040095  1
  Xe  Xe22  1  0.99626200  0.83854930  0.00040095  1
  Xe  Xe23  1  0.50373800  0.83854930  0.50040095  1
  Xe  Xe24  1  0.33854930  0.00373800  0.99959905  1
  Xe  Xe25  1  0.16145070  0.00373800  0.49959905  1
  Xe  Xe26  1  0.33854930  0.49626200  0.49959905  1
  Xe  Xe27  1  0.16145070  0.49626200  0.99959905  1
  Xe  Xe28  1  0.00373800  0.33854930  0.49959905  1
  Xe  Xe29  1  0.49626200  0.33854930  0.99959905  1
  Xe  Xe30  1  0.00373800  0.16145070  0.99959905  1
  Xe  Xe31  1  0.49626200  0.16145070  0.49959905  1
  Xe  Xe32  1  0.75000000  0.75000000  0.13336460  1
  Xe  Xe33  1  0.75000000  0.75000000  0.63336460  1
  Xe  Xe34  1  0.25000000  0.25000000  0.86663540  1
  Xe  Xe35  1  0.25000000  0.25000000  0.36663540  1
  F  F0  1  0.84280028  0.84802762  0.85093456  1
  F  F1  1  0.65719972  0.84802762  0.35093456  1
  F  F2  1  0.84280028  0.65197238  0.35093456  1
  F  F3  1  0.65719972  0.65197238  0.85093456  1
  F  F4  1  0.84802762  0.84280028  0.35093456  1
  F  F5  1  0.65197238  0.84280028  0.85093456  1
  F  F6  1  0.84802762  0.65719972  0.85093456  1
  F  F7  1  0.65197238  0.65719972  0.35093456  1
  F  F8  1  0.15719972  0.15197238  0.14906544  1
  F  F9  1  0.34280028  0.15197238  0.64906544  1
  F  F10  1  0.15719972  0.34802762  0.64906544  1
  F  F11  1  0.34280028  0.34802762  0.14906544  1
  F  F12  1  0.15197238  0.15719972  0.64906544  1
  F  F13  1  0.34802762  0.15719972  0.14906544  1
  F  F14  1  0.15197238  0.34280028  0.14906544  1
  F  F15  1  0.34802762  0.34280028  0.64906544  1
  F  F16  1  0.75225453  0.90443836  0.95587249  1
  F  F17  1  0.74774547  0.90443836  0.45587249  1
  F  F18  1  0.75225453  0.59556164  0.45587249  1
  F  F19  1  0.74774547  0.59556164  0.95587249  1
  F  F20  1  0.90443836  0.75225453  0.45587249  1
  F  F21  1  0.59556164  0.75225453  0.95587249  1
  F  F22  1  0.90443836  0.74774547  0.95587249  1
  F  F23  1  0.59556164  0.74774547  0.45587249  1
  F  F24  1  0.24774547  0.09556164  0.04412751  1
  F  F25  1  0.25225453  0.09556164  0.54412751  1
  F  F26  1  0.24774547  0.40443836  0.54412751  1
  F  F27  1  0.25225453  0.40443836  0.04412751  1
  F  F28  1  0.09556164  0.24774547  0.54412751  1
  F  F29  1  0.40443836  0.24774547  0.04412751  1
  F  F30  1  0.09556164  0.25225453  0.04412751  1
  F  F31  1  0.40443836  0.25225453  0.54412751  1
  F  F32  1  0.75000000  0.75000000  0.04106225  1
  F  F33  1  0.75000000  0.75000000  0.54106225  1
  F  F34  1  0.25000000  0.25000000  0.95893775  1
  F  F35  1  0.25000000  0.25000000  0.45893775  1
  F  F36  1  0.81371319  0.12246774  0.80449993  1
  F  F37  1  0.68628681  0.12246774  0.30449993  1
  F  F38  1  0.81371319  0.37753226  0.30449993  1
  F  F39  1  0.68628681  0.37753226  0.80449993  1
  F  F40  1  0.12246774  0.81371319  0.30449993  1
  F  F41  1  0.37753226  0.81371319  0.80449993  1
  F  F42  1  0.12246774  0.68628681  0.80449993  1
  F  F43  1  0.37753226  0.68628681  0.30449993  1
  F  F44  1  0.18628681  0.87753226  0.19550007  1
  F  F45  1  0.31371319  0.87753226  0.69550007  1
  F  F46  1  0.18628681  0.62246774  0.69550007  1
  F  F47  1  0.31371319  0.62246774  0.19550007  1
  F  F48  1  0.87753226  0.18628681  0.69550007  1
  F  F49  1  0.62246774  0.18628681  0.19550007  1
  F  F50  1  0.87753226  0.31371319  0.19550007  1
  F  F51  1  0.62246774  0.31371319  0.69550007  1
  F  F52  1  0.57344254  0.08405213  0.04110874  1
  F  F53  1  0.92655746  0.08405213  0.54110874  1
  F  F54  1  0.57344254  0.41594787  0.54110874  1
  F  F55  1  0.92655746  0.41594787  0.04110874  1
  F  F56  1  0.08405213  0.57344254  0.54110874  1
  F  F57  1  0.41594787  0.57344254  0.04110874  1
  F  F58  1  0.08405213  0.92655746  0.04110874  1
  F  F59  1  0.41594787  0.92655746  0.54110874  1
  F  F60  1  0.42655746  0.91594787  0.95889126  1
  F  F61  1  0.07344254  0.91594787  0.45889126  1
  F  F62  1  0.42655746  0.58405213  0.45889126  1
  F  F63  1  0.07344254  0.58405213  0.95889126  1
  F  F64  1  0.91594787  0.42655746  0.45889126  1
  F  F65  1  0.58405213  0.42655746  0.95889126  1
  F  F66  1  0.91594787  0.07344254  0.95889126  1
  F  F67  1  0.58405213  0.07344254  0.45889126  1
  F  F68  1  0.75000000  0.75000000  0.22200422  1
  F  F69  1  0.75000000  0.75000000  0.72200422  1
  F  F70  1  0.25000000  0.25000000  0.77799578  1
  F  F71  1  0.25000000  0.25000000  0.27799578  1
  F  F72  1  0.69331767  0.12124285  0.70070652  1
  F  F73  1  0.80668233  0.12124285  0.20070652  1
  F  F74  1  0.69331767  0.37875715  0.20070652  1
  F  F75  1  0.80668233  0.37875715  0.70070652  1
  F  F76  1  0.12124285  0.69331767  0.20070652  1
  F  F77  1  0.37875715  0.69331767  0.70070652  1
  F  F78  1  0.12124285  0.80668233  0.70070652  1
  F  F79  1  0.37875715  0.80668233  0.20070652  1
  F  F80  1  0.30668233  0.87875715  0.29929348  1
  F  F81  1  0.19331767  0.87875715  0.79929348  1
  F  F82  1  0.30668233  0.62124285  0.79929348  1
  F  F83  1  0.19331767  0.62124285  0.29929348  1
  F  F84  1  0.87875715  0.30668233  0.79929348  1
  F  F85  1  0.62124285  0.30668233  0.29929348  1
  F  F86  1  0.87875715  0.19331767  0.29929348  1
  F  F87  1  0.62124285  0.19331767  0.79929348  1
  F  F88  1  0.54575555  0.09096886  0.64676407  1
  F  F89  1  0.95424445  0.09096886  0.14676407  1
  F  F90  1  0.54575555  0.40903114  0.14676407  1
  F  F91  1  0.95424445  0.40903114  0.64676407  1
  F  F92  1  0.09096886  0.54575555  0.14676407  1
  F  F93  1  0.40903114  0.54575555  0.64676407  1
  F  F94  1  0.09096886  0.95424445  0.64676407  1
  F  F95  1  0.40903114  0.95424445  0.14676407  1
  F  F96  1  0.45424445  0.90903114  0.35323593  1
  F  F97  1  0.04575555  0.90903114  0.85323593  1
  F  F98  1  0.45424445  0.59096886  0.85323593  1
  F  F99  1  0.04575555  0.59096886  0.35323593  1
  F  F100  1  0.90903114  0.45424445  0.85323593  1
  F  F101  1  0.59096886  0.45424445  0.35323593  1
  F  F102  1  0.90903114  0.04575555  0.35323593  1
  F  F103  1  0.59096886  0.04575555  0.85323593  1
  F  F104  1  0.62193630  0.96412422  0.70250733  1
  F  F105  1  0.87806370  0.96412422  0.20250733  1
  F  F106  1  0.62193630  0.53587578  0.20250733  1
  F  F107  1  0.87806370  0.53587578  0.70250733  1
  F  F108  1  0.96412422  0.62193630  0.20250733  1
  F  F109  1  0.53587578  0.62193630  0.70250733  1
  F  F110  1  0.96412422  0.87806370  0.70250733  1
  F  F111  1  0.53587578  0.87806370  0.20250733  1
  F  F112  1  0.37806370  0.03587578  0.29749267  1
  F  F113  1  0.12193630  0.03587578  0.79749267  1
  F  F114  1  0.37806370  0.46412422  0.79749267  1
  F  F115  1  0.12193630  0.46412422  0.29749267  1
  F  F116  1  0.03587578  0.37806370  0.79749267  1
  F  F117  1  0.46412422  0.37806370  0.29749267  1
  F  F118  1  0.03587578  0.12193630  0.29749267  1
  F  F119  1  0.46412422  0.12193630  0.79749267  1
  F  F120  1  0.76826639  0.99183911  0.64754133  1
  F  F121  1  0.73173361  0.99183911  0.14754133  1
  F  F122  1  0.76826639  0.50816089  0.14754133  1
  F  F123  1  0.73173361  0.50816089  0.64754133  1
  F  F124  1  0.99183911  0.76826639  0.14754133  1
  F  F125  1  0.50816089  0.76826639  0.64754133  1
  F  F126  1  0.99183911  0.73173361  0.64754133  1
  F  F127  1  0.50816089  0.73173361  0.14754133  1
  F  F128  1  0.23173361  0.00816089  0.35245867  1
  F  F129  1  0.26826639  0.00816089  0.85245867  1
  F  F130  1  0.23173361  0.49183911  0.85245867  1
  F  F131  1  0.26826639  0.49183911  0.35245867  1
  F  F132  1  0.00816089  0.23173361  0.85245867  1
  F  F133  1  0.49183911  0.23173361  0.35245867  1
  F  F134  1  0.00816089  0.26826639  0.35245867  1
  F  F135  1  0.49183911  0.26826639  0.85245867  1
  F  F136  1  0.69049894  0.11794774  0.59181562  1
  F  F137  1  0.80950106  0.11794774  0.09181562  1
  F  F138  1  0.69049894  0.38205226  0.09181562  1
  F  F139  1  0.80950106  0.38205226  0.59181562  1
  F  F140  1  0.11794774  0.69049894  0.09181562  1
  F  F141  1  0.38205226  0.69049894  0.59181562  1
  F  F142  1  0.11794774  0.80950106  0.59181562  1
  F  F143  1  0.38205226  0.80950106  0.09181562  1
  F  F144  1  0.30950106  0.88205226  0.40818438  1
  F  F145  1  0.19049894  0.88205226  0.90818438  1
  F  F146  1  0.30950106  0.61794774  0.90818438  1
  F  F147  1  0.19049894  0.61794774  0.40818438  1
  F  F148  1  0.88205226  0.30950106  0.90818438  1
  F  F149  1  0.61794774  0.30950106  0.40818438  1
  F  F150  1  0.88205226  0.19049894  0.40818438  1
  F  F151  1  0.61794774  0.19049894  0.90818438  1
  F  F152  1  0.62173801  0.95903028  0.59281849  1
  F  F153  1  0.87826199  0.95903028  0.09281849  1
  F  F154  1  0.62173801  0.54096972  0.09281849  1
  F  F155  1  0.87826199  0.54096972  0.59281849  1
  F  F156  1  0.95903028  0.62173801  0.09281849  1
  F  F157  1  0.54096972  0.62173801  0.59281849  1
  F  F158  1  0.95903028  0.87826199  0.59281849  1
  F  F159  1  0.54096972  0.87826199  0.09281849  1
  F  F160  1  0.37826199  0.04096972  0.40718151  1
  F  F161  1  0.12173801  0.04096972  0.90718151  1
  F  F162  1  0.37826199  0.45903028  0.90718151  1
  F  F163  1  0.12173801  0.45903028  0.40718151  1
  F  F164  1  0.04096972  0.37826199  0.90718151  1
  F  F165  1  0.45903028  0.37826199  0.40718151  1
  F  F166  1  0.04096972  0.12173801  0.40718151  1
  F  F167  1  0.45903028  0.12173801  0.90718151  1
loop_
_geom_bond_atom_site_label_1
_geom_bond_atom_site_label_2
_geom_bond_distance
_geom_bond_site_symmetry_2
Ca0 F22 2.376008 1_555
Ca0 F21 2.376008 1_555
Ca0 F16 2.376008 1_555
Ca0 F19 2.376008 1_555
Ca0 F0 2.557624 1_555
Ca0 F6 2.557624 1_555
Ca0 F3 2.557624 1_555
Ca0 F5 2.557624 1_555
Ca0 F32 2.742091 1_556
Ca1 F23 2.376008 1_555
Ca1 F17 2.376008 1_555
Ca1 F18 2.376008 1_555
Ca1 F20 2.376008 1_555
Ca1 F2 2.557624 1_555
Ca1 F4 2.557624 1_555
Ca1 F1 2.557624 1_555
Ca1 F7 2.557624 1_555
Ca1 F33 2.742091 1_555
Ca2 F27 2.376008 1_555
Ca2 F24 2.376008 1_555
Ca2 F30 2.376008 1_555
Ca2 F29 2.376008 1_555
Ca2 F13 2.557624 1_555
Ca2 F14 2.557624 1_555
Ca2 F11 2.557624 1_555
Ca2 F8 2.557624 1_555
Ca2 F34 2.742091 1_554
Ca3 F31 2.376008 1_555
Ca3 F28 2.376008 1_555
Ca3 F25 2.376008 1_555
Ca3 F26 2.376008 1_555
Ca3 F12 2.557624 1_555
Ca3 F9 2.557624 1_555
Ca3 F15 2.557624 1_555
Ca3 F10 2.557624 1_555
Ca3 F35 2.742091 1_555
Ca4 F87 2.339271 1_555
Ca4 F72 2.339271 1_555
Ca4 F75 2.339271 1_555
Ca4 F84 2.339271 1_555
Ca4 F51 2.423193 1_555
Ca4 F48 2.423193 1_555
Ca4 F39 2.423193 1_555
Ca4 F36 2.423193 1_555
Ca5 F73 2.339271 1_555
Ca5 F74 2.339271 1_555
Ca5 F85 2.339271 1_555
Ca5 F86 2.339271 1_555
Ca5 F49 2.423193 1_555
Ca5 F50 2.423193 1_555
Ca5 F38 2.423193 1_555
Ca5 F37 2.423193 1_555
Ca6 F76 2.339271 1_555
Ca6 F79 2.339271 1_555
Ca6 F80 2.339271 1_555
Ca6 F83 2.339271 1_555
Ca6 F43 2.423193 1_555
Ca6 F40 2.423193 1_555
Ca6 F47 2.423193 1_555
Ca6 F44 2.423193 1_555
Ca7 F77 2.339271 1_555
Ca7 F81 2.339271 1_555
Ca7 F78 2.339271 1_555
Ca7 F82 2.339271 1_555
Ca7 F45 2.423193 1_555
Ca7 F46 2.423193 1_555
Ca7 F41 2.423193 1_555
Ca7 F42 2.423193 1_555
As0 F104 1.762729 1_545
As0 F120 1.765337 1_545
As0 F152 1.767741 1_545
As0 F136 1.773901 1_555
As0 F88 1.776180 1_555
As0 F72 1.813765 1_555
As1 F105 1.762729 1_545
As1 F121 1.765337 1_545
As1 F153 1.767741 1_545
As1 F137 1.773901 1_555
As1 F89 1.776180 1_555
As1 F73 1.813765 1_555
As2 F106 1.762729 1_555
As2 F122 1.765337 1_555
As2 F154 1.767741 1_555
As2 F138 1.773901 1_555
As2 F90 1.776180 1_555
As2 F74 1.813765 1_555
As3 F107 1.762729 1_555
As3 F123 1.765337 1_555
As3 F155 1.767741 1_555
As3 F139 1.773901 1_555
As3 F91 1.776180 1_555
As3 F75 1.813765 1_555
As4 F108 1.762729 1_455
As4 F124 1.765337 1_455
As4 F156 1.767741 1_455
As4 F140 1.773901 1_555
As4 F92 1.776180 1_555
As4 F76 1.813765 1_555
As5 F109 1.762729 1_555
As5 F125 1.765337 1_555
As5 F157 1.767741 1_555
As5 F141 1.773901 1_555
As5 F93 1.776180 1_555
As5 F77 1.813765 1_555
As6 F110 1.762729 1_455
As6 F126 1.765337 1_455
As6 F158 1.767741 1_455
As6 F142 1.773901 1_555
As6 F94 1.776180 1_555
As6 F78 1.813765 1_555
As7 F111 1.762729 1_555
As7 F127 1.765337 1_555
As7 F159 1.767741 1_555
As7 F143 1.773901 1_555
As7 F95 1.776180 1_555
As7 F79 1.813765 1_555
As8 F112 1.762729 1_565
As8 F128 1.765337 1_565
As8 F160 1.767741 1_565
As8 F144 1.773901 1_555
As8 F96 1.776180 1_555
As8 F80 1.813765 1_555
As9 F113 1.762729 1_565
As9 F129 1.765337 1_565
As9 F161 1.767741 1_565
As9 F145 1.773901 1_555
As9 F97 1.776180 1_555
As9 F81 1.813765 1_555
As10 F114 1.762729 1_555
As10 F130 1.765337 1_555
As10 F162 1.767741 1_555
As10 F146 1.773901 1_555
As10 F98 1.776180 1_555
As10 F82 1.813765 1_555
As11 F115 1.762729 1_555
As11 F131 1.765337 1_555
As11 F163 1.767741 1_555
As11 F147 1.773901 1_555
As11 F99 1.776180 1_555
As11 F83 1.813765 1_555
As12 F116 1.762729 1_655
As12 F132 1.765337 1_655
As12 F164 1.767741 1_655
As12 F148 1.773901 1_555
As12 F100 1.776180 1_555
As12 F84 1.813765 1_555
As13 F117 1.762729 1_555
As13 F133 1.765337 1_555
As13 F165 1.767741 1_555
As13 F149 1.773901 1_555
As13 F101 1.776180 1_555
As13 F85 1.813765 1_555
As14 F118 1.762729 1_655
As14 F134 1.765337 1_655
As14 F166 1.767741 1_655
As14 F150 1.773901 1_555
As14 F102 1.776180 1_555
As14 F86 1.813765 1_555
As15 F119 1.762729 1_555
As15 F135 1.765337 1_555
As15 F167 1.767741 1_555
As15 F151 1.773901 1_555
As15 F103 1.776180 1_555
As15 F87 1.813765 1_555
F0 Xe0 2.080082 1_555
F1 Xe1 2.080082 1_555
F2 Xe2 2.080082 1_555
F3 Xe3 2.080082 1_555
F4 Xe4 2.080082 1_555
F5 Xe5 2.080082 1_555
F6 Xe6 2.080082 1_555
F7 Xe7 2.080082 1_555
F8 Xe8 2.080082 1_555
F9 Xe9 2.080082 1_555
F10 Xe10 2.080082 1_555
F11 Xe11 2.080082 1_555
F12 Xe12 2.080082 1_555
F13 Xe13 2.080082 1_555
F14 Xe14 2.080082 1_555
F15 Xe15 2.080082 1_555
F16 Xe16 2.139322 1_556
F17 Xe17 2.139322 1_555
F18 Xe18 2.139322 1_555
F19 Xe19 2.139322 1_556
F20 Xe20 2.139322 1_555
F21 Xe21 2.139322 1_556
F22 Xe22 2.139322 1_556
F23 Xe23 2.139322 1_555
F24 Xe24 2.139322 1_554
F25 Xe25 2.139322 1_555
F26 Xe26 2.139322 1_555
F27 Xe27 2.139322 1_554
F28 Xe28 2.139322 1_555
F29 Xe29 2.139322 1_554
F30 Xe30 2.139322 1_554
F31 Xe31 2.139322 1_555
F32 Xe32 2.127774 1_555
F33 Xe33 2.127774 1_555
F34 Xe34 2.127774 1_555
F35 Xe35 2.127774 1_555
F36 Xe0 2.072226 1_545
F37 Xe1 2.072226 1_545
F38 Xe2 2.072226 1_555
F39 Xe3 2.072226 1_555
F40 Xe4 2.072226 1_455
F41 Xe5 2.072226 1_555
F42 Xe6 2.072226 1_455
F43 Xe7 2.072226 1_555
F44 Xe8 2.072226 1_565
F45 Xe9 2.072226 1_565
F46 Xe10 2.072226 1_555
F47 Xe11 2.072226 1_555
F48 Xe12 2.072226 1_655
F49 Xe13 2.072226 1_555
F50 Xe14 2.072226 1_655
F51 Xe15 2.072226 1_555
F52 Xe16 2.035925 1_545
F53 Xe17 2.035925 1_545
F54 Xe18 2.035925 1_555
F55 Xe19 2.035925 1_555
F56 Xe20 2.035925 1_455
F57 Xe21 2.035925 1_555
F58 Xe22 2.035925 1_455
F59 Xe23 2.035925 1_555
F60 Xe24 2.035925 1_565
F61 Xe25 2.035925 1_565
F62 Xe26 2.035925 1_555
F63 Xe27 2.035925 1_555
F64 Xe28 2.035925 1_655
F65 Xe29 2.035925 1_555
F66 Xe30 2.035925 1_655
F67 Xe31 2.035925 1_555
F68 Xe32 2.043340 1_555
F69 Xe33 2.043340 1_555
F70 Xe34 2.043340 1_555
F71 Xe35 2.043340 1_555
