# generated using pymatgen
data_La2Mn17C2
_symmetry_space_group_name_H-M   'P 1'
_cell_length_a   6.53140799
_cell_length_b   6.48650039
_cell_length_c   6.53140799
_cell_angle_alpha   83.69612345
_cell_angle_beta   84.61099963
_cell_angle_gamma   83.69612345
_symmetry_Int_Tables_number   1
_chemical_formula_structural   La2Mn17C2
_chemical_formula_sum   'La2 Mn17 C2'
_cell_volume   272.43331547
_cell_formula_units_Z   1
loop_
 _symmetry_equiv_pos_site_id
 _symmetry_equiv_pos_as_xyz
  1  'x, y, z'
loop_
 _atom_site_type_symbol
 _atom_site_label
 _atom_site_symmetry_multiplicity
 _atom_site_fract_x
 _atom_site_fract_y
 _atom_site_fract_z
 _atom_site_occupancy
  La  La0  1  0.63861500  0.66072900  0.63861500  1
  La  La1  1  0.36138500  0.33927100  0.36138500  1
  Mn  Mn0  1  0.90651300  0.90567800  0.90651300  1
  Mn  Mn1  1  0.09348700  0.09432200  0.09348700  1
  Mn  Mn2  1  0.73583900  0.00000000  0.26416100  1
  Mn  Mn3  1  0.99215000  0.28131000  0.71828500  1
  Mn  Mn4  1  0.28171500  0.71869000  0.00785000  1
  Mn  Mn5  1  0.00785000  0.71869000  0.28171500  1
  Mn  Mn6  1  0.71828500  0.28131000  0.99215000  1
  Mn  Mn7  1  0.26416100  0.00000000  0.73583900  1
  Mn  Mn8  1  0.33409100  0.33643700  0.87213800  1
  Mn  Mn9  1  0.34132000  0.87086600  0.34132000  1
  Mn  Mn10  1  0.87213800  0.33643700  0.33409100  1
  Mn  Mn11  1  0.66590900  0.66356300  0.12786200  1
  Mn  Mn12  1  0.65868000  0.12913400  0.65868000  1
  Mn  Mn13  1  0.12786200  0.66356300  0.66590900  1
  Mn  Mn14  1  0.00000000  0.50000000  0.00000000  1
  Mn  Mn15  1  0.50000000  0.00000000  0.00000000  1
  Mn  Mn16  1  0.00000000  0.00000000  0.50000000  1
  C  C0  1  0.00000000  0.50000000  0.50000000  1
  C  C1  1  0.50000000  0.50000000  0.00000000  1
loop_
_geom_bond_atom_site_label_1
_geom_bond_atom_site_label_2
_geom_bond_distance
_geom_bond_site_symmetry_2
La0 Mn9 2.990735 1_555
La0 Mn12 3.073074 1_565
La0 Mn2 3.171901 1_565
La0 Mn7 3.171901 1_565
La0 Mn0 3.231696 1_555
La0 Mn16 3.396425 1_665
La0 Mn15 3.396425 1_566
La0 Mn12 3.424781 1_555
La1 Mn12 2.990735 1_555
La1 Mn9 3.073074 1_545
La1 Mn7 3.171901 1_555
La1 Mn2 3.171901 1_555
La1 Mn1 3.231696 1_555
La1 Mn16 3.396425 1_555
La1 Mn15 3.396425 1_555
La1 Mn9 3.424781 1_555
Mn0 Mn1 2.327317 1_666
Mn0 Mn13 2.577343 1_655
Mn0 Mn11 2.577343 1_556
Mn0 Mn7 2.597802 1_665
Mn0 Mn2 2.597802 1_566
Mn0 Mn12 2.608247 1_565
Mn0 Mn14 2.652250 1_656
Mn0 Mn15 2.686543 1_566
Mn0 Mn16 2.686543 1_665
Mn0 Mn6 2.696902 1_565
Mn0 Mn3 2.696902 1_565
Mn0 Mn4 2.718504 1_656
Mn0 Mn5 2.718504 1_656
Mn1 Mn10 2.577343 1_455
Mn1 Mn8 2.577343 1_554
Mn1 Mn2 2.597802 1_455
Mn1 Mn7 2.597802 1_554
Mn1 Mn9 2.608247 1_545
Mn1 Mn14 2.652250 1_555
Mn1 Mn16 2.686543 1_555
Mn1 Mn15 2.686543 1_555
Mn1 Mn4 2.696902 1_545
Mn1 Mn5 2.696902 1_545
Mn1 Mn3 2.718504 1_454
Mn1 Mn6 2.718504 1_454
Mn2 Mn6 2.404060 1_554
Mn2 Mn5 2.404060 1_645
Mn2 Mn9 2.780769 1_545
Mn3 Mn7 2.404060 1_655
Mn4 Mn7 2.404060 1_564
Mn4 Mn9 2.566222 1_555
Mn5 Mn9 2.566222 1_555
Mn7 Mn8 2.546651 1_555
Mn7 Mn9 2.780769 1_545
Mn10 Mn16 2.425805 1_655
Mn10 Mn14 2.434834 1_655
Mn10 Mn2 2.546651 1_555
Mn10 Mn12 2.734385 1_555
Mn11 Mn15 2.425805 1_565
Mn11 Mn14 2.434834 1_655
Mn11 Mn2 2.546651 1_565
Mn11 Mn9 2.734385 1_555
Mn12 Mn16 2.468222 1_655
Mn12 Mn15 2.468222 1_556
Mn12 Mn6 2.566222 1_555
Mn12 Mn3 2.566222 1_555
Mn12 Mn8 2.734385 1_555
Mn12 Mn7 2.780769 1_555
Mn12 Mn2 2.780769 1_555
Mn13 Mn16 2.425805 1_565
Mn13 Mn14 2.434834 1_556
Mn13 Mn7 2.546651 1_565
Mn13 Mn9 2.734385 1_555
Mn14 Mn8 2.434834 1_554
Mn14 Mn4 2.450984 1_555
Mn14 Mn5 2.450984 1_555
Mn14 Mn6 2.450984 1_454
Mn14 Mn3 2.450984 1_454
Mn15 Mn2 2.418412 1_555
Mn15 Mn7 2.418412 1_554
Mn15 Mn8 2.425805 1_554
Mn15 Mn4 2.429381 1_545
Mn15 Mn6 2.429381 1_554
Mn15 Mn9 2.468222 1_545
Mn16 Mn7 2.418412 1_555
Mn16 Mn2 2.418412 1_455
Mn16 Mn5 2.429381 1_545
Mn16 Mn3 2.429381 1_455
Mn16 Mn9 2.468222 1_545
C0 Mn3 1.898847 1_455
C0 Mn5 1.898847 1_555
C0 Mn13 1.901130 1_555
C0 Mn10 1.901130 1_455
C0 La1 2.596798 1_555
C0 La0 2.596798 1_455
C1 Mn6 1.898847 1_554
C1 Mn4 1.898847 1_555
C1 Mn11 1.901130 1_555
C1 Mn8 1.901130 1_554
C1 La1 2.596798 1_555
C1 La0 2.596798 1_554
