# generated using pymatgen
data_HfO2
_symmetry_space_group_name_H-M   'P 1'
_cell_length_a   10.59779028
_cell_length_b   11.80364839
_cell_length_c   10.69610259
_cell_angle_alpha   90.13845041
_cell_angle_beta   95.49375445
_cell_angle_gamma   87.03197049
_symmetry_Int_Tables_number   1
_chemical_formula_structural   HfO2
_chemical_formula_sum   'Hf34 O68'
_cell_volume   1330.06632595
_cell_formula_units_Z   34
loop_
 _symmetry_equiv_pos_site_id
 _symmetry_equiv_pos_as_xyz
  1  'x, y, z'
loop_
 _atom_site_type_symbol
 _atom_site_label
 _atom_site_symmetry_multiplicity
 _atom_site_fract_x
 _atom_site_fract_y
 _atom_site_fract_z
 _atom_site_occupancy
  Hf  Hf0  1  0.84821802  0.62115626  0.71670225  1
  Hf  Hf1  1  0.33206707  0.57978183  0.33076922  1
  Hf  Hf2  1  0.64542025  0.55066920  0.47016100  1
  Hf  Hf3  1  0.76086522  0.57465231  0.19567082  1
  Hf  Hf4  1  0.50922135  0.99612621  0.92400053  1
  Hf  Hf5  1  0.38507164  0.74757490  0.59165196  1
  Hf  Hf6  1  0.42031642  0.14870322  0.67171448  1
  Hf  Hf7  1  0.43356484  0.32207709  0.88734654  1
  Hf  Hf8  1  0.23808187  0.36392137  0.11363956  1
  Hf  Hf9  1  0.16241451  0.07985407  0.50574372  1
  Hf  Hf10  1  0.80251333  0.05657249  0.03956302  1
  Hf  Hf11  1  0.03919923  0.65251764  0.41940779  1
  Hf  Hf12  1  0.72640951  0.78651775  0.01390861  1
  Hf  Hf13  1  0.68673128  0.40052286  0.71637361  1
  Hf  Hf14  1  0.95016744  0.35057034  0.52138881  1
  Hf  Hf15  1  0.46071489  0.28872571  0.44657394  1
  Hf  Hf16  1  0.33598042  0.89951129  0.30604762  1
  Hf  Hf17  1  0.04612399  0.44385460  0.87266165  1
  Hf  Hf18  1  0.06021355  0.65981615  0.10947539  1
  Hf  Hf19  1  0.26224475  0.47605746  0.60814760  1
  Hf  Hf20  1  0.35565863  0.78805020  0.04381395  1
  Hf  Hf21  1  0.65308270  0.33227274  0.18978001  1
  Hf  Hf22  1  0.57255335  0.05708223  0.26342404  1
  Hf  Hf23  1  0.15324389  0.69088657  0.80299858  1
  Hf  Hf24  1  0.94235254  0.87019836  0.60852646  1
  Hf  Hf25  1  0.65747891  0.85831552  0.71310313  1
  Hf  Hf26  1  0.68892355  0.83413559  0.41545544  1
  Hf  Hf27  1  0.52534183  0.61782498  0.84467097  1
  Hf  Hf28  1  0.96987931  0.93079637  0.29443242  1
  Hf  Hf29  1  0.71821657  0.13475445  0.68869563  1
  Hf  Hf30  1  0.93959576  0.28206768  0.17326484  1
  Hf  Hf31  1  0.19606549  0.09596453  0.14137395  1
  Hf  Hf32  1  0.18223207  0.96172781  0.79738497  1
  Hf  Hf33  1  0.00844416  0.18256141  0.83311633  1
  O  O0  1  0.00883339  0.69187182  0.62000492  1
  O  O1  1  0.82266052  0.50093480  0.56126642  1
  O  O2  1  0.26121083  0.38050187  0.92837782  1
  O  O3  1  0.53141331  0.89242139  0.30109024  1
  O  O4  1  0.55684653  0.01845777  0.73868978  1
  O  O5  1  0.64999090  0.57880757  0.68242550  1
  O  O6  1  0.55237868  0.44860217  0.83943757  1
  O  O7  1  0.77781347  0.76480558  0.60151704  1
  O  O8  1  0.31104690  0.20744968  0.09009298  1
  O  O9  1  0.87078979  0.68044171  0.09641053  1
  O  O10  1  0.13373796  0.07657686  0.94009416  1
  O  O11  1  0.68589556  0.68116437  0.33892092  1
  O  O12  1  0.60290692  0.06143639  0.08207608  1
  O  O13  1  0.53982477  0.84206736  0.03579855  1
  O  O14  1  0.38280000  0.06392013  0.27405827  1
  O  O15  1  0.29273781  0.86152648  0.47242741  1
  O  O16  1  0.36446141  0.65727964  0.92348639  1
  O  O17  1  0.83807430  0.12029532  0.86653664  1
  O  O18  1  0.28434630  0.03598473  0.66658799  1
  O  O19  1  0.32552948  0.18135520  0.49361701  1
  O  O20  1  0.38565695  0.59033179  0.69090036  1
  O  O21  1  0.36080226  0.45760541  0.20725059  1
  O  O22  1  0.61013705  0.24882424  0.77842350  1
  O  O23  1  0.05819357  0.21476376  0.49804705  1
  O  O24  1  0.75159199  0.73324211  0.83640819  1
  O  O25  1  0.08166514  0.46732502  0.51306701  1
  O  O26  1  0.09285221  0.49367497  0.05933318  1
  O  O27  1  0.63810011  0.63346597  0.03028479  1
  O  O28  1  0.25759837  0.92556953  0.12541134  1
  O  O29  1  0.98874258  0.62329456  0.86452684  1
  O  O30  1  0.34337906  0.92389087  0.91130298  1
  O  O31  1  0.74173180  0.98990287  0.34871115  1
  O  O32  1  0.34334811  0.42854198  0.44571536  1
  O  O33  1  0.83402037  0.90445266  0.12943555  1
  O  O34  1  0.81301878  0.26521692  0.64041743  1
  O  O35  1  0.56368040  0.23085601  0.30683653  1
  O  O36  1  0.03334729  0.85494155  0.78484478  1
  O  O37  1  0.56567604  0.16228540  0.55371234  1
  O  O38  1  0.63922070  0.47455221  0.29667998  1
  O  O39  1  0.24533867  0.80468020  0.70919012  1
  O  O40  1  0.15353105  0.01789641  0.31806506  1
  O  O41  1  0.89717819  0.80524479  0.41415763  1
  O  O42  1  0.55458263  0.84428487  0.54384695  1
  O  O43  1  0.23526291  0.63521881  0.49591839  1
  O  O44  1  0.76960711  0.20246646  0.13315276  1
  O  O45  1  0.36405351  0.32459589  0.68718663  1
  O  O46  1  0.05100363  0.06804265  0.69702234  1
  O  O47  1  0.87844588  0.31773228  0.34335478  1
  O  O48  1  0.35583556  0.73014046  0.22478258  1
  O  O49  1  0.16197662  0.74290856  0.99328581  1
  O  O50  1  0.12722907  0.26507422  0.21777526  1
  O  O51  1  0.50484151  0.77755256  0.75998252  1
  O  O52  1  0.04690371  0.31958006  0.73608776  1
  O  O53  1  0.00483680  0.29676728  0.98193043  1
  O  O54  1  0.59065305  0.39584480  0.53535287  1
  O  O55  1  0.84916503  0.46068213  0.80650997  1
  O  O56  1  0.91136148  0.57179929  0.31970010  1
  O  O57  1  0.70441424  0.93769719  0.90844197  1
  O  O58  1  0.78650319  0.97334568  0.64250743  1
  O  O59  1  0.16374615  0.52443555  0.75893505  1
  O  O60  1  0.02020553  0.96516748  0.48407560  1
  O  O61  1  0.80386835  0.41977474  0.12553204  1
  O  O62  1  0.41792442  0.15070254  0.86863113  1
  O  O63  1  0.52733713  0.33844187  0.05307477  1
  O  O64  1  0.97553890  0.08674058  0.14601869  1
  O  O65  1  0.47568535  0.63546345  0.46079468  1
  O  O66  1  0.14730435  0.59121774  0.27253962  1
  O  O67  1  0.06107206  0.78837261  0.25634404  1
loop_
_geom_bond_atom_site_label_1
_geom_bond_atom_site_label_2
_geom_bond_distance
_geom_bond_site_symmetry_2
Hf0 O29 2.066726 1_555
Hf0 O55 2.125026 1_555
Hf0 O24 2.130954 1_555
Hf0 O7 2.157011 1_555
Hf0 O5 2.181262 1_555
Hf0 O1 2.189371 1_555
Hf0 O0 2.269857 1_655
Hf1 O21 1.985020 1_555
Hf1 O66 1.994925 1_555
Hf1 O65 2.092047 1_555
Hf1 O48 2.146891 1_555
Hf1 O32 2.161745 1_555
Hf1 O43 2.207469 1_555
Hf2 O65 2.006756 1_555
Hf2 O38 2.056550 1_555
Hf2 O54 2.087182 1_555
Hf2 O1 2.088190 1_555
Hf2 O11 2.172851 1_555
Hf2 O5 2.290055 1_555
Hf3 O56 1.973422 1_555
Hf3 O61 2.021162 1_555
Hf3 O9 2.106527 1_555
Hf3 O38 2.157745 1_555
Hf3 O11 2.163311 1_555
Hf3 O27 2.185330 1_555
Hf4 O30 1.985797 1_555
Hf4 O12 2.047038 1_566
Hf4 O62 2.080532 1_565
Hf4 O4 2.112064 1_565
Hf4 O57 2.167977 1_555
Hf4 O13 2.171887 1_556
Hf5 O15 2.006480 1_555
Hf5 O39 2.115858 1_555
Hf5 O20 2.139844 1_555
Hf5 O51 2.141004 1_555
Hf5 O65 2.179275 1_555
Hf5 O42 2.276581 1_555
Hf5 O43 2.286519 1_555
Hf6 O18 2.008158 1_555
Hf6 O19 2.093683 1_555
Hf6 O37 2.095404 1_555
Hf6 O62 2.108879 1_555
Hf6 O4 2.132315 1_555
Hf6 O45 2.140667 1_555
Hf6 O22 2.558565 1_555
Hf7 O63 1.961658 1_556
Hf7 O2 2.006525 1_555
Hf7 O62 2.045938 1_555
Hf7 O6 2.097735 1_555
Hf7 O45 2.196179 1_555
Hf7 O22 2.419019 1_555
Hf8 O21 1.952199 1_555
Hf8 O8 1.989898 1_555
Hf8 O2 2.030981 1_554
Hf8 O50 2.093059 1_555
Hf8 O26 2.154293 1_555
Hf9 O23 1.887757 1_555
Hf9 O60 2.073766 1_545
Hf9 O18 2.099304 1_555
Hf9 O40 2.130100 1_555
Hf9 O19 2.167636 1_555
Hf10 O44 2.021285 1_555
Hf10 O33 2.035786 1_545
Hf10 O17 2.074253 1_554
Hf10 O64 2.109890 1_555
Hf10 O12 2.203727 1_555
Hf10 O57 2.208854 1_544
Hf11 O56 1.932031 1_455
Hf11 O66 2.134752 1_555
Hf11 O43 2.158732 1_555
Hf11 O0 2.243855 1_555
Hf11 O41 2.285102 1_455
Hf11 O67 2.407631 1_555
Hf11 O25 2.409745 1_555
Hf12 O24 2.035947 1_554
Hf12 O9 2.058173 1_555
Hf12 O13 2.085292 1_555
Hf12 O27 2.092429 1_555
Hf12 O57 2.104171 1_554
Hf12 O33 2.156761 1_555
Hf13 O55 2.050023 1_555
Hf13 O6 2.086534 1_555
Hf13 O54 2.101562 1_555
Hf13 O22 2.136597 1_555
Hf13 O5 2.145639 1_555
Hf13 O34 2.232172 1_555
Hf14 O23 1.950740 1_655
Hf14 O25 2.018038 1_655
Hf14 O47 2.025839 1_555
Hf14 O1 2.239720 1_555
Hf14 O34 2.293612 1_555
Hf14 O52 2.443953 1_655
Hf15 O32 2.013984 1_555
Hf15 O35 2.030136 1_555
Hf15 O19 2.059387 1_555
Hf15 O54 2.078661 1_555
Hf15 O37 2.090518 1_555
Hf16 O15 1.938908 1_555
Hf16 O28 2.046158 1_555
Hf16 O14 2.065122 1_565
Hf16 O3 2.074262 1_555
Hf16 O48 2.186242 1_555
Hf16 O40 2.339820 1_565
Hf17 O52 2.067971 1_555
Hf17 O59 2.087331 1_555
Hf17 O26 2.100680 1_556
Hf17 O55 2.138223 1_455
Hf17 O29 2.172757 1_455
Hf17 O53 2.181307 1_555
Hf17 O2 2.382383 1_555
Hf18 O9 2.001146 1_455
Hf18 O49 2.010371 1_554
Hf18 O66 2.042246 1_555
Hf18 O26 2.052629 1_555
Hf18 O67 2.181206 1_555
Hf19 O20 2.066088 1_555
Hf19 O59 2.067166 1_555
Hf19 O32 2.074406 1_555
Hf19 O25 2.086762 1_555
Hf19 O45 2.169785 1_555
Hf19 O43 2.223007 1_555
Hf20 O16 2.011529 1_554
Hf20 O48 2.054162 1_555
Hf20 O13 2.093896 1_555
Hf20 O28 2.113935 1_555
Hf20 O30 2.133265 1_554
Hf20 O49 2.165326 1_554
Hf21 O63 1.880591 1_555
Hf21 O38 2.036357 1_555
Hf21 O44 2.045051 1_555
Hf21 O35 2.061596 1_555
Hf21 O61 2.115943 1_555
Hf22 O12 1.997570 1_555
Hf22 O14 2.022469 1_555
Hf22 O31 2.053928 1_545
Hf22 O3 2.062802 1_545
Hf22 O35 2.101313 1_555
Hf23 O59 2.019308 1_555
Hf23 O39 2.023184 1_555
Hf23 O29 2.115462 1_455
Hf23 O49 2.119428 1_555
Hf23 O36 2.258722 1_555
Hf23 O0 2.366041 1_555
Hf23 O16 2.487368 1_555
Hf24 O60 2.005631 1_655
Hf24 O36 2.038261 1_655
Hf24 O58 2.060822 1_555
Hf24 O0 2.184764 1_655
Hf24 O7 2.189299 1_555
Hf24 O41 2.231353 1_555
Hf25 O51 2.023415 1_555
Hf25 O42 2.033049 1_555
Hf25 O7 2.099633 1_555
Hf25 O24 2.125752 1_555
Hf25 O4 2.151742 1_565
Hf25 O58 2.162950 1_555
Hf25 O57 2.308815 1_555
Hf26 O11 1.981226 1_555
Hf26 O3 2.061621 1_555
Hf26 O42 2.069578 1_555
Hf26 O31 2.095901 1_555
Hf26 O41 2.217072 1_555
Hf26 O7 2.255399 1_555
Hf27 O6 2.004567 1_555
Hf27 O16 2.006389 1_555
Hf27 O51 2.085787 1_555
Hf27 O20 2.140773 1_555
Hf27 O27 2.229458 1_556
Hf27 O5 2.311024 1_555
Hf28 O67 1.957032 1_655
Hf28 O60 2.091630 1_655
Hf28 O41 2.178556 1_555
Hf28 O33 2.200342 1_555
Hf28 O40 2.240700 1_665
Hf28 O64 2.440408 1_565
Hf28 O31 2.600382 1_555
Hf29 O34 1.977590 1_555
Hf29 O22 2.022494 1_555
Hf29 O37 2.074723 1_555
Hf29 O58 2.078161 1_545
Hf29 O17 2.185741 1_555
Hf29 O4 2.348777 1_555
Hf30 O50 1.999727 1_655
Hf30 O47 2.025053 1_555
Hf30 O44 2.082705 1_555
Hf30 O61 2.143137 1_555
Hf30 O53 2.231933 1_654
Hf30 O64 2.339392 1_555
Hf31 O8 1.953182 1_555
Hf31 O28 2.093680 1_545
Hf31 O40 2.199689 1_555
Hf31 O10 2.205601 1_554
Hf31 O50 2.267141 1_555
Hf31 O14 2.336847 1_555
Hf31 O64 2.350519 1_455
Hf32 O30 2.031242 1_555
Hf32 O46 2.049686 1_565
Hf32 O36 2.064218 1_555
Hf32 O18 2.071395 1_565
Hf32 O10 2.121304 1_565
Hf32 O39 2.181162 1_555
Hf33 O52 2.004073 1_555
Hf33 O10 2.044856 1_555
Hf33 O17 2.047003 1_455
Hf33 O46 2.050047 1_555
Hf33 O53 2.085244 1_555
