# generated using pymatgen
data_In
_symmetry_space_group_name_H-M   'P 1'
_cell_length_a   10.03315782
_cell_length_b   10.03315782
_cell_length_c   10.03315782
_cell_angle_alpha   109.47122063
_cell_angle_beta   109.47122063
_cell_angle_gamma   109.47122063
_symmetry_Int_Tables_number   1
_chemical_formula_structural   In
_chemical_formula_sum   In29
_cell_volume   777.48324873
_cell_formula_units_Z   29
loop_
 _symmetry_equiv_pos_site_id
 _symmetry_equiv_pos_as_xyz
  1  'x, y, z'
loop_
 _atom_site_type_symbol
 _atom_site_label
 _atom_site_symmetry_multiplicity
 _atom_site_fract_x
 _atom_site_fract_y
 _atom_site_fract_z
 _atom_site_occupancy
  In  In0  1  0.00000000  0.00000000  -0.00000000  1
  In  In1  1  0.66478175  0.00000000  0.00000000  1
  In  In2  1  0.38370849  0.19335422  0.00000000  1
  In  In3  1  0.19335422  0.38370849  -0.00000000  1
  In  In4  1  0.69232343  0.41350280  0.00000000  1
  In  In5  1  0.00000000  0.66478175  -0.00000000  1
  In  In6  1  0.41350280  0.69232343  0.00000000  1
  In  In7  1  0.80664578  0.80664578  0.19035427  1
  In  In8  1  0.38370849  -0.00000000  0.19335422  1
  In  In9  1  0.00000000  0.38370849  0.19335422  1
  In  In10  1  0.58649720  0.58649720  0.27881963  1
  In  In11  1  0.72117937  0.30767657  0.30767657  1
  In  In12  1  0.30767657  0.72117937  0.30767657  1
  In  In13  1  0.33521825  0.33521825  0.33521825  1
  In  In14  1  0.19335422  -0.00000000  0.38370849  1
  In  In15  1  -0.00000000  0.19335422  0.38370849  1
  In  In16  1  0.69232343  -0.00000000  0.41350280  1
  In  In17  1  0.00000000  0.69232343  0.41350280  1
  In  In18  1  0.58649720  0.27881963  0.58649720  1
  In  In19  1  0.27881963  0.58649720  0.58649720  1
  In  In20  1  0.80964573  0.61629151  0.61629151  1
  In  In21  1  0.61629151  0.80964573  0.61629151  1
  In  In22  1  -0.00000000  -0.00000000  0.66478175  1
  In  In23  1  0.41350280  0.00000000  0.69232343  1
  In  In24  1  -0.00000000  0.41350280  0.69232343  1
  In  In25  1  0.30767657  0.30767657  0.72117937  1
  In  In26  1  0.80664578  0.19035427  0.80664578  1
  In  In27  1  0.19035427  0.80664578  0.80664578  1
  In  In28  1  0.61629151  0.61629151  0.80964573  1
loop_
_geom_bond_atom_site_label_1
_geom_bond_atom_site_label_2
_geom_bond_distance
_geom_bond_site_symmetry_2
In0 In13 3.363298 1_555
In0 In22 3.363298 1_554
In0 In5 3.363298 1_545
In0 In1 3.363298 1_455
In1 In11 3.270628 1_555
In1 In23 3.270628 1_554
In1 In6 3.270628 1_545
In1 In28 3.454772 1_544
In1 In15 3.454772 1_655
In1 In9 3.454772 1_655
In1 In7 3.454772 1_545
In1 In21 3.454772 1_544
In1 In26 3.454772 1_554
In2 In3 3.118779 1_555
In2 In4 3.147510 1_555
In2 In8 3.167931 1_555
In2 In27 3.167931 1_544
In2 In23 3.223595 1_554
In2 In25 3.320105 1_554
In2 In22 3.454772 1_554
In3 In6 3.147510 1_555
In3 In9 3.167931 1_555
In4 In9 3.223595 1_655
In4 In5 3.270628 1_655
In4 In7 3.320105 1_555
In5 In8 3.454772 1_565
In5 In7 3.454772 1_455
In6 In8 3.223595 1_565
In6 In7 3.320105 1_555
In10 In7 3.147503 1_555
In10 In21 3.223603 1_555
In10 In20 3.223603 1_555
In10 In13 3.270635 1_555
In10 In3 3.320103 1_555
In10 In2 3.320103 1_555
In10 In4 3.455055 1_555
In10 In6 3.455055 1_555
In10 In17 3.540446 1_655
In10 In16 3.540446 1_565
In10 In11 3.540449 1_555
In10 In12 3.540449 1_555
In11 In20 3.147510 1_555
In11 In8 3.223595 1_555
In11 In2 3.223595 1_555
In11 In9 3.320105 1_655
In11 In15 3.320105 1_655
In11 In17 3.455062 1_655
In11 In24 3.455062 1_655
In11 In16 3.540447 1_555
In11 In4 3.540447 1_555
In11 In18 3.540449 1_555
In12 In21 3.147510 1_555
In12 In3 3.223595 1_555
In12 In9 3.223595 1_555
In12 In5 3.270628 1_555
In12 In8 3.320105 1_565
In12 In14 3.320105 1_565
In12 In23 3.455062 1_565
In12 In16 3.455062 1_565
In12 In17 3.540447 1_555
In12 In6 3.540447 1_555
In12 In19 3.540449 1_555
In13 In18 3.270635 1_555
In13 In19 3.270635 1_555
In13 In2 3.454772 1_555
In13 In3 3.454772 1_555
In13 In15 3.454772 1_555
In13 In9 3.454772 1_555
In13 In14 3.454772 1_555
In13 In8 3.454772 1_555
In14 In8 3.118779 1_555
In14 In23 3.147510 1_555
In14 In15 3.167931 1_555
In14 In7 3.167931 1_445
In14 In17 3.223595 1_545
In14 In25 3.223595 1_555
In14 In18 3.320103 1_555
In14 In5 3.454772 1_545
In15 In9 3.118779 1_555
In15 In24 3.147510 1_555
In15 In7 3.167931 1_445
In15 In25 3.223595 1_555
In15 In16 3.223595 1_455
In15 In19 3.320103 1_555
In16 In8 3.147510 1_555
In16 In7 3.223595 1_545
In16 In22 3.270628 1_655
In16 In26 3.320105 1_555
In16 In21 3.320105 1_545
In16 In18 3.455055 1_555
In16 In6 3.540447 1_545
In16 In24 3.540447 1_655
In17 In9 3.147510 1_555
In17 In7 3.223595 1_455
In17 In22 3.270628 1_565
In17 In27 3.320105 1_555
In17 In20 3.320105 1_455
In17 In19 3.455055 1_555
In17 In4 3.540447 1_455
In17 In23 3.540447 1_565
In18 In26 3.147503 1_555
In18 In20 3.223603 1_555
In18 In28 3.223603 1_555
In18 In8 3.320103 1_555
In18 In23 3.455055 1_555
In18 In24 3.540446 1_655
In18 In4 3.540446 1_556
In18 In25 3.540449 1_555
In19 In27 3.147503 1_555
In19 In21 3.223603 1_555
In19 In28 3.223603 1_555
In19 In9 3.320103 1_555
In19 In24 3.455055 1_555
In19 In6 3.540446 1_556
In19 In23 3.540446 1_565
In19 In25 3.540449 1_555
In20 In27 3.118779 1_655
In20 In21 3.167931 1_555
In20 In28 3.167931 1_555
In20 In24 3.320105 1_655
In20 In22 3.454772 1_665
In20 In5 3.454772 1_656
In21 In26 3.118779 1_565
In21 In28 3.167931 1_555
In21 In23 3.320105 1_565
In21 In22 3.454772 1_665
In22 In25 3.270628 1_555
In22 In27 3.454772 1_545
In22 In3 3.454772 1_556
In22 In26 3.454772 1_455
In23 In27 3.223595 1_545
In23 In26 3.320105 1_555
In23 In4 3.540447 1_556
In23 In25 3.540447 1_555
In24 In26 3.223595 1_455
In24 In3 3.223595 1_556
In24 In5 3.270628 1_556
In24 In27 3.320105 1_555
In24 In6 3.540447 1_556
In24 In25 3.540447 1_555
In25 In28 3.147510 1_555
In25 In3 3.320105 1_556
In25 In6 3.455062 1_556
In25 In4 3.455062 1_556
In26 In9 3.167931 1_656
In26 In3 3.167931 1_656
In26 In4 3.223595 1_556
In27 In8 3.167931 1_566
In27 In6 3.223595 1_556
In27 In5 3.454772 1_556
In28 In7 3.118779 1_556
In28 In4 3.320105 1_556
In28 In6 3.320105 1_556
In28 In5 3.454772 1_656
