# generated using pymatgen
data_Mn3Ag(PO4)3
_symmetry_space_group_name_H-M   'P 1'
_cell_length_a   6.81662826
_cell_length_b   8.65749314
_cell_length_c   8.65749314
_cell_angle_alpha   92.07472916
_cell_angle_beta   108.09391166
_cell_angle_gamma   108.09391166
_symmetry_Int_Tables_number   1
_chemical_formula_structural   Mn3Ag(PO4)3
_chemical_formula_sum   'Mn6 Ag2 P6 O24'
_cell_volume   456.63640298
_cell_formula_units_Z   2
loop_
 _symmetry_equiv_pos_site_id
 _symmetry_equiv_pos_as_xyz
  1  'x, y, z'
loop_
 _atom_site_type_symbol
 _atom_site_label
 _atom_site_symmetry_multiplicity
 _atom_site_fract_x
 _atom_site_fract_y
 _atom_site_fract_z
 _atom_site_occupancy
  Mn  Mn0  1  0.25000000  0.28249600  0.71750400  1
  Mn  Mn1  1  0.75000000  0.71750400  0.28249600  1
  Mn  Mn2  1  0.12799600  0.37821800  0.05955600  1
  Mn  Mn3  1  0.37200400  0.94044400  0.62178200  1
  Mn  Mn4  1  0.87200400  0.62178200  0.94044400  1
  Mn  Mn5  1  0.62799600  0.05955600  0.37821800  1
  Ag  Ag0  1  0.75000000  0.01452200  0.98547800  1
  Ag  Ag1  1  0.25000000  0.98547800  0.01452200  1
  P  P0  1  0.38623100  0.65556300  0.88803600  1
  P  P1  1  0.11376900  0.11196400  0.34443700  1
  P  P2  1  0.61376900  0.34443700  0.11196400  1
  P  P3  1  0.88623100  0.88803600  0.65556300  1
  P  P4  1  0.25000000  0.69556300  0.30443700  1
  P  P5  1  0.75000000  0.30443700  0.69556300  1
  O  O0  1  0.24227000  0.51719400  0.27324600  1
  O  O1  1  0.25773000  0.72675400  0.48280600  1
  O  O2  1  0.75773000  0.48280600  0.72675400  1
  O  O3  1  0.74227000  0.27324600  0.51719400  1
  O  O4  1  0.15212200  0.25576500  0.47054800  1
  O  O5  1  0.34787800  0.52945200  0.74423500  1
  O  O6  1  0.84787800  0.74423500  0.52945200  1
  O  O7  1  0.65212200  0.47054800  0.25576500  1
  O  O8  1  0.96070300  0.27451300  0.81199600  1
  O  O9  1  0.53929700  0.18800400  0.72548700  1
  O  O10  1  0.03929700  0.72548700  0.18800400  1
  O  O11  1  0.46070300  0.81199600  0.27451300  1
  O  O12  1  0.38320100  0.31656700  0.97793800  1
  O  O13  1  0.11679900  0.02206200  0.68343300  1
  O  O14  1  0.61679900  0.68343300  0.02206200  1
  O  O15  1  0.88320100  0.97793800  0.31656700  1
  O  O16  1  0.10550400  0.16534100  0.17156600  1
  O  O17  1  0.39449600  0.82843400  0.83465900  1
  O  O18  1  0.89449600  0.83465900  0.82843400  1
  O  O19  1  0.60550400  0.17156600  0.16534100  1
  O  O20  1  0.20110300  0.60118200  0.96514500  1
  O  O21  1  0.29889700  0.03485500  0.39881800  1
  O  O22  1  0.79889700  0.39881800  0.03485500  1
  O  O23  1  0.70110300  0.96514500  0.60118200  1
loop_
_geom_bond_atom_site_label_1
_geom_bond_atom_site_label_2
_geom_bond_distance
_geom_bond_site_symmetry_2
Mn0 O4 2.012969 1_555
Mn0 O5 2.012969 1_555
Mn0 O13 2.123436 1_555
Mn0 O12 2.123436 1_555
Mn0 O9 2.341882 1_555
Mn0 O8 2.341882 1_455
Mn1 O7 2.012969 1_555
Mn1 O6 2.012969 1_555
Mn1 O14 2.123436 1_555
Mn1 O15 2.123436 1_555
Mn1 O10 2.341882 1_655
Mn1 O11 2.341882 1_555
Mn2 O0 1.959218 1_555
Mn2 O8 2.099191 1_454
Mn2 O16 2.099213 1_555
Mn2 O20 2.100536 1_554
Mn2 O22 2.250206 1_455
Mn2 O12 2.263515 1_554
Mn3 O1 1.959218 1_555
Mn3 O9 2.099191 1_565
Mn3 O17 2.099213 1_555
Mn3 O21 2.100536 1_565
Mn3 O23 2.250206 1_555
Mn3 O13 2.263515 1_565
Mn4 O2 1.959218 1_555
Mn4 O10 2.099191 1_656
Mn4 O18 2.099213 1_555
Mn4 O22 2.100536 1_556
Mn4 O20 2.250206 1_655
Mn4 O14 2.263515 1_556
Mn5 O3 1.959218 1_555
Mn5 O11 2.099191 1_545
Mn5 O19 2.099213 1_555
Mn5 O23 2.100536 1_545
Mn5 O21 2.250206 1_555
Mn5 O15 2.263515 1_545
Ag0 O16 2.372795 1_656
Ag0 O17 2.372795 1_545
Ag0 O19 2.621966 1_556
Ag0 O18 2.621966 1_545
Ag1 O19 2.372795 1_565
Ag1 O18 2.372795 1_454
Ag1 O16 2.621966 1_565
Ag1 O17 2.621966 1_554
O0 P4 1.539728 1_555
O1 P4 1.539728 1_555
O2 P5 1.539728 1_555
O3 P5 1.539728 1_555
O4 P1 1.527224 1_555
O5 P0 1.527224 1_555
O6 P3 1.527224 1_555
O7 P2 1.527224 1_555
O8 P5 1.580146 1_555
O9 P5 1.580146 1_555
O10 P4 1.580146 1_555
O11 P4 1.580146 1_555
O12 P2 1.576769 1_556
O13 P3 1.576769 1_445
O14 P0 1.576769 1_554
O15 P1 1.576769 1_665
O16 P1 1.571780 1_555
O17 P0 1.571780 1_555
O18 P3 1.571780 1_555
O19 P2 1.571780 1_555
O20 P0 1.561030 1_555
O21 P1 1.561030 1_555
O22 P2 1.561030 1_555
O23 P3 1.561030 1_555
