# generated using pymatgen
data_Hf(TlSe)4
_symmetry_space_group_name_H-M   'P 1'
_cell_length_a   9.54903600
_cell_length_b   9.54927471
_cell_length_c   16.42359119
_cell_angle_alpha   104.26444849
_cell_angle_beta   104.71119274
_cell_angle_gamma   90.11934036
_symmetry_Int_Tables_number   1
_chemical_formula_structural   Hf(TlSe)4
_chemical_formula_sum   'Hf5 Tl20 Se20'
_cell_volume   1400.51069828
_cell_formula_units_Z   5
loop_
 _symmetry_equiv_pos_site_id
 _symmetry_equiv_pos_as_xyz
  1  'x, y, z'
loop_
 _atom_site_type_symbol
 _atom_site_label
 _atom_site_symmetry_multiplicity
 _atom_site_fract_x
 _atom_site_fract_y
 _atom_site_fract_z
 _atom_site_occupancy
  Hf  Hf0  1  0.98333300  0.31553500  0.40031800  1
  Hf  Hf1  1  0.01666700  0.68446500  0.59968200  1
  Hf  Hf2  1  0.82554900  0.69160400  0.80099400  1
  Hf  Hf3  1  0.17445100  0.30839600  0.19900600  1
  Hf  Hf4  1  0.00000000  0.50000000  0.00000000  1
  Tl  Tl0  1  0.95187000  0.91983000  0.19951500  1
  Tl  Tl1  1  0.04813000  0.08017000  0.80048500  1
  Tl  Tl2  1  0.78451700  0.28118200  0.59960200  1
  Tl  Tl3  1  0.21548300  0.71881800  0.40039800  1
  Tl  Tl4  1  0.77947400  0.91416400  0.40598500  1
  Tl  Tl5  1  0.22052600  0.08583600  0.59401500  1
  Tl  Tl6  1  0.77781100  0.54689900  0.20426600  1
  Tl  Tl7  1  0.22218900  0.45310100  0.79573400  1
  Tl  Tl8  1  0.62437800  0.90442300  0.61257700  1
  Tl  Tl9  1  0.37562200  0.09557700  0.38742300  1
  Tl  Tl10  1  0.61170400  0.29949000  0.80937600  1
  Tl  Tl11  1  0.38829600  0.70051000  0.19062400  1
  Tl  Tl12  1  0.58847900  0.53361400  0.40168500  1
  Tl  Tl13  1  0.41152100  0.46638600  0.59831500  1
  Tl  Tl14  1  0.42075000  0.90001800  0.79912600  1
  Tl  Tl15  1  0.57925000  0.09998200  0.20087400  1
  Tl  Tl16  1  0.39215200  0.28194500  0.00299800  1
  Tl  Tl17  1  0.60784800  0.71805500  0.99700200  1
  Tl  Tl18  1  0.22545700  0.89717700  0.99188300  1
  Tl  Tl19  1  0.77454300  0.10282300  0.00811700  1
  Se  Se0  1  0.93845700  0.95149100  0.59858900  1
  Se  Se1  1  0.06154300  0.04850900  0.40141100  1
  Se  Se2  1  0.92989700  0.60300300  0.42242200  1
  Se  Se3  1  0.07010300  0.39699700  0.57757800  1
  Se  Se4  1  0.92643600  0.76716000  0.97954800  1
  Se  Se5  1  0.07356400  0.23284000  0.02045200  1
  Se  Se6  1  0.91098800  0.42007600  0.82158500  1
  Se  Se7  1  0.08901200  0.57992400  0.17841500  1
  Se  Se8  1  0.75905800  0.96269200  0.80784200  1
  Se  Se9  1  0.24094200  0.03730800  0.19215800  1
  Se  Se10  1  0.74936900  0.61472400  0.62291900  1
  Se  Se11  1  0.25063100  0.38527600  0.37708100  1
  Se  Se12  1  0.55646800  0.61729600  0.80090700  1
  Se  Se13  1  0.44353200  0.38270400  0.19909300  1
  Se  Se14  1  0.28685500  0.75878700  0.60323200  1
  Se  Se15  1  0.71314500  0.24121300  0.39676800  1
  Se  Se16  1  0.27138100  0.57134900  0.99564800  1
  Se  Se17  1  0.72861900  0.42865100  0.00435200  1
  Se  Se18  1  0.09422900  0.73953100  0.77641900  1
  Se  Se19  1  0.90577100  0.26046900  0.22358100  1
loop_
_geom_bond_atom_site_label_1
_geom_bond_atom_site_label_2
_geom_bond_distance
_geom_bond_site_symmetry_2
Hf0 Se15 2.656928 1_555
Hf0 Se1 2.661536 1_655
Hf0 Se19 2.721175 1_555
Hf0 Se3 2.724552 1_655
Hf0 Se2 2.745289 1_555
Hf0 Se11 2.777952 1_655
Hf1 Se14 2.656928 1_555
Hf1 Se0 2.661536 1_455
Hf1 Se18 2.721175 1_555
Hf1 Se2 2.724552 1_455
Hf1 Se3 2.745289 1_555
Hf1 Se10 2.777952 1_455
Hf2 Se8 2.648916 1_555
Hf2 Se12 2.663776 1_555
Hf2 Se10 2.735097 1_555
Hf2 Se18 2.750802 1_655
Hf2 Se4 2.750963 1_555
Hf2 Se6 2.793545 1_555
Hf3 Se9 2.648916 1_555
Hf3 Se13 2.663776 1_555
Hf3 Se11 2.735097 1_555
Hf3 Se19 2.750802 1_455
Hf3 Se5 2.750963 1_555
Hf3 Se7 2.793545 1_555
Hf4 Se17 2.701024 1_455
Hf4 Se16 2.701024 1_554
Hf4 Se4 2.724838 1_454
Hf4 Se5 2.724838 1_555
Hf4 Se6 2.742511 1_454
Hf4 Se7 2.742511 1_555
Se0 Tl5 3.007026 1_665
Se0 Tl4 3.072623 1_555
Se0 Tl8 3.105627 1_555
Se0 Tl1 3.134429 1_665
Se1 Tl4 3.007026 1_445
Se1 Tl5 3.072623 1_555
Se1 Tl9 3.105627 1_555
Se1 Tl0 3.134429 1_445
Se2 Tl3 3.078383 1_655
Se2 Tl12 3.240353 1_555
Se2 Tl4 3.343833 1_555
Se2 Tl6 3.411949 1_555
Se3 Tl2 3.078383 1_455
Se3 Tl13 3.240353 1_555
Se3 Tl5 3.343833 1_555
Se3 Tl7 3.411949 1_555
Se4 Tl18 3.050101 1_655
Se4 Tl17 3.171798 1_555
Se5 Tl19 3.050101 1_455
Se5 Tl16 3.171798 1_555
Se6 Tl10 3.019119 1_555
Se6 Tl7 3.132635 1_655
Se7 Tl11 3.019119 1_555
Se7 Tl6 3.132635 1_455
Se8 Tl1 3.019268 1_665
Se8 Tl8 3.044839 1_555
Se8 Tl19 3.196043 1_566
Se8 Tl14 3.244960 1_555
Se9 Tl0 3.019268 1_445
Se9 Tl9 3.044839 1_555
Se9 Tl18 3.196043 1_544
Se9 Tl15 3.244960 1_555
Se10 Tl8 3.041184 1_555
Se10 Tl2 3.142088 1_555
Se11 Tl9 3.041184 1_555
Se11 Tl3 3.142088 1_555
Se12 Tl14 3.000586 1_555
Se12 Tl17 3.034321 1_555
Se12 Tl10 3.112087 1_555
Se12 Tl13 3.217621 1_555
Se13 Tl15 3.000586 1_555
Se13 Tl16 3.034321 1_555
Se13 Tl11 3.112087 1_555
Se13 Tl12 3.217621 1_555
Se14 Tl13 3.028482 1_555
Se14 Tl14 3.093519 1_555
Se14 Tl3 3.150669 1_555
Se14 Tl5 3.220285 1_565
Se15 Tl12 3.028482 1_555
Se15 Tl15 3.093519 1_555
Se15 Tl2 3.150669 1_555
Se15 Tl4 3.220285 1_545
Se16 Tl16 3.014796 1_556
Se16 Tl11 3.042036 1_556
Se16 Tl7 3.108578 1_555
Se16 Tl18 3.156548 1_555
Se17 Tl17 3.014796 1_554
Se17 Tl10 3.042036 1_554
Se17 Tl6 3.108578 1_555
Se17 Tl19 3.156548 1_555
Se18 Tl7 3.052803 1_555
Se18 Tl1 3.223634 1_565
Se18 Tl14 3.364119 1_555
Se18 Tl18 3.387273 1_555
Se19 Tl6 3.052803 1_555
Se19 Tl0 3.223634 1_545
Se19 Tl15 3.364119 1_555
Se19 Tl19 3.387273 1_555
