# generated using pymatgen
data_Te4Mo3W(SeS)2
_symmetry_space_group_name_H-M   'P 1'
_cell_length_a   3.40020037
_cell_length_b   3.40020037
_cell_length_c   38.76650800
_cell_angle_alpha   90.00000000
_cell_angle_beta   90.00000000
_cell_angle_gamma   120.00000711
_symmetry_Int_Tables_number   1
_chemical_formula_structural   Te4Mo3W(SeS)2
_chemical_formula_sum   'Te4 Mo3 W1 Se2 S2'
_cell_volume   388.14706136
_cell_formula_units_Z   1
loop_
 _symmetry_equiv_pos_site_id
 _symmetry_equiv_pos_as_xyz
  1  'x, y, z'
loop_
 _atom_site_type_symbol
 _atom_site_label
 _atom_site_symmetry_multiplicity
 _atom_site_fract_x
 _atom_site_fract_y
 _atom_site_fract_z
 _atom_site_occupancy
  Te  Te0  1  0.00000000  0.00000000  0.70585300  1
  Te  Te1  1  0.33333300  0.66666700  0.42100900  1
  Te  Te2  1  0.33333300  0.66666700  0.51817200  1
  Te  Te3  1  0.00000000  0.00000000  0.60930900  1
  Mo  Mo0  1  0.00000000  0.00000000  0.09395400  1
  Mo  Mo1  1  0.33333300  0.66666700  0.28180100  1
  Mo  Mo2  1  0.33333300  0.66666700  0.65761500  1
  W  W0  1  0.00000000  0.00000000  0.46960700  1
  Se  Se0  1  0.00000000  0.00000000  0.32431000  1
  Se  Se1  1  0.00000000  0.00000000  0.23924300  1
  S  S0  1  0.33333300  0.66666700  0.05513600  1
  S  S1  1  0.33333300  0.66666700  0.13274000  1
loop_
_geom_bond_atom_site_label_1
_geom_bond_atom_site_label_2
_geom_bond_distance
_geom_bond_site_symmetry_2
Te1 W0 2.720871 1_565
Te1 W0 2.720873 1_665
Te1 W0 2.720873 1_555
Te2 W0 2.719986 1_565
Te2 W0 2.719988 1_665
Te2 W0 2.719988 1_555
Mo0 S1 2.472769 1_545
Mo0 S1 2.472771 1_555
Mo0 S1 2.472771 1_445
Mo0 S0 2.473523 1_545
Mo0 S0 2.473526 1_555
Mo0 S0 2.473526 1_445
Mo1 Se0 2.563092 1_565
Mo1 Se0 2.563094 1_665
Mo1 Se0 2.563094 1_555
Mo1 Se1 2.564313 1_565
Mo1 Se1 2.564315 1_555
Mo1 Se1 2.564315 1_665
Mo2 Te0 2.711227 1_565
Mo2 Te0 2.711229 1_665
Mo2 Te0 2.711229 1_555
Mo2 Te3 2.713046 1_565
Mo2 Te3 2.713048 1_665
Mo2 Te3 2.713048 1_555
