# generated using pymatgen
data_K2CuP4H8O15
_symmetry_space_group_name_H-M   'P 1'
_cell_length_a   7.00229723
_cell_length_b   7.91143888
_cell_length_c   7.91143888
_cell_angle_alpha   103.23151141
_cell_angle_beta   98.58185648
_cell_angle_gamma   98.58185648
_symmetry_Int_Tables_number   1
_chemical_formula_structural   K2CuP4H8O15
_chemical_formula_sum   'K2 Cu1 P4 H8 O15'
_cell_volume   414.14156047
_cell_formula_units_Z   1
loop_
 _symmetry_equiv_pos_site_id
 _symmetry_equiv_pos_as_xyz
  1  'x, y, z'
loop_
 _atom_site_type_symbol
 _atom_site_label
 _atom_site_symmetry_multiplicity
 _atom_site_fract_x
 _atom_site_fract_y
 _atom_site_fract_z
 _atom_site_occupancy
  K  K0  1  0.90790900  0.28873700  0.28873700  1
  K  K1  1  0.09209100  0.71126300  0.71126300  1
  Cu  Cu0  1  0.50000000  0.50000000  0.50000000  1
  P  P0  1  0.33675500  0.25785000  0.72676500  1
  P  P1  1  0.33675500  0.72676500  0.25785000  1
  P  P2  1  0.66324500  0.74215000  0.27323500  1
  P  P3  1  0.66324500  0.27323500  0.74215000  1
  H  H0  1  0.24521600  0.00633300  0.51381300  1
  H  H1  1  0.24521600  0.51381300  0.00633300  1
  H  H2  1  0.75478400  0.99366700  0.48618700  1
  H  H3  1  0.75478400  0.48618700  0.99366700  1
  H  H4  1  0.60161000  0.74385000  0.87105900  1
  H  H5  1  0.60161000  0.87105900  0.74385000  1
  H  H6  1  0.39839000  0.25615000  0.12894100  1
  H  H7  1  0.39839000  0.12894100  0.25615000  1
  O  O0  1  0.28424200  0.31339500  0.90807200  1
  O  O1  1  0.28424200  0.90807200  0.31339500  1
  O  O2  1  0.71575800  0.68660500  0.09192800  1
  O  O3  1  0.71575800  0.09192800  0.68660500  1
  O  O4  1  0.28617900  0.37102100  0.59691400  1
  O  O5  1  0.28617900  0.59691400  0.37102100  1
  O  O6  1  0.71382100  0.62897900  0.40308600  1
  O  O7  1  0.71382100  0.40308600  0.62897900  1
  O  O8  1  0.22889000  0.05666000  0.63956200  1
  O  O9  1  0.22889000  0.63956200  0.05666000  1
  O  O10  1  0.77111000  0.94334000  0.36043800  1
  O  O11  1  0.77111000  0.36043800  0.94334000  1
  O  O12  1  0.53396000  0.75869400  0.75869400  1
  O  O13  1  0.46604000  0.24130600  0.24130600  1
  O  O14  1  0.00000000  0.00000000  0.00000000  1
loop_
_geom_bond_atom_site_label_1
_geom_bond_atom_site_label_2
_geom_bond_distance
_geom_bond_site_symmetry_2
K0 O11 2.965967 1_554
K0 O10 2.965967 1_545
K0 O13 3.016220 1_555
K0 O14 3.056572 1_655
K0 O5 3.196188 1_655
K0 O4 3.196188 1_655
K0 O7 3.202384 1_555
K0 O6 3.202384 1_555
K1 O8 2.965967 1_565
K1 O9 2.965967 1_556
K1 O12 3.016220 1_555
K1 O14 3.056572 1_566
K1 O6 3.196188 1_455
K1 O7 3.196188 1_455
K1 O5 3.202384 1_555
K1 O4 3.202384 1_555
Cu0 O6 2.028701 1_555
Cu0 O7 2.028701 1_555
Cu0 O4 2.028701 1_555
Cu0 O5 2.028701 1_555
Cu0 O13 2.495204 1_555
Cu0 O12 2.495204 1_555
H0 O8 1.013674 1_555
H0 O1 1.679754 1_545
H1 O9 1.013674 1_555
H1 O0 1.679754 1_554
H2 O10 1.013674 1_555
H2 O3 1.679754 1_565
H3 O11 1.013674 1_555
H3 O2 1.679754 1_556
H4 O12 0.983448 1_555
H5 O12 0.983448 1_555
H6 O13 0.983448 1_555
H7 O13 0.983448 1_555
O0 P0 1.517534 1_555
O1 P1 1.517534 1_555
O2 P2 1.517534 1_555
O3 P3 1.517534 1_555
O4 P0 1.545813 1_555
O5 P1 1.545813 1_555
O6 P2 1.545813 1_555
O7 P3 1.545813 1_555
O8 P0 1.600926 1_555
O9 P1 1.600926 1_555
O10 P2 1.600926 1_555
O11 P3 1.600926 1_555
