# generated using pymatgen
data_LiMnF3
_symmetry_space_group_name_H-M   'P 1'
_cell_length_a   5.38293200
_cell_length_b   5.46560700
_cell_length_c   7.96218400
_cell_angle_alpha   90.00000000
_cell_angle_beta   90.00000000
_cell_angle_gamma   90.00000000
_symmetry_Int_Tables_number   1
_chemical_formula_structural   LiMnF3
_chemical_formula_sum   'Li4 Mn4 F12'
_cell_volume   234.25534237
_cell_formula_units_Z   4
loop_
 _symmetry_equiv_pos_site_id
 _symmetry_equiv_pos_as_xyz
  1  'x, y, z'
loop_
 _atom_site_type_symbol
 _atom_site_label
 _atom_site_symmetry_multiplicity
 _atom_site_fract_x
 _atom_site_fract_y
 _atom_site_fract_z
 _atom_site_occupancy
  Li  Li0  1  0.01449100  0.02081700  0.25000000  1
  Li  Li1  1  0.51449100  0.47918300  0.75000000  1
  Li  Li2  1  0.48550900  0.52081700  0.25000000  1
  Li  Li3  1  0.98550900  0.97918300  0.75000000  1
  Mn  Mn0  1  0.50000000  0.00000000  0.00000000  1
  Mn  Mn1  1  0.50000000  0.00000000  0.50000000  1
  Mn  Mn2  1  0.00000000  0.50000000  0.50000000  1
  Mn  Mn3  1  0.00000000  0.50000000  0.00000000  1
  F  F0  1  0.64161900  0.10693800  0.75000000  1
  F  F1  1  0.15901600  0.16372600  0.92317800  1
  F  F2  1  0.15901600  0.16372600  0.57682200  1
  F  F3  1  0.65901600  0.33627400  0.07682200  1
  F  F4  1  0.65901600  0.33627400  0.42317800  1
  F  F5  1  0.14161900  0.39306200  0.25000000  1
  F  F6  1  0.85838100  0.60693800  0.75000000  1
  F  F7  1  0.34098400  0.66372600  0.92317800  1
  F  F8  1  0.34098400  0.66372600  0.57682200  1
  F  F9  1  0.84098400  0.83627400  0.07682200  1
  F  F10  1  0.84098400  0.83627400  0.42317800  1
  F  F11  1  0.35838100  0.89306200  0.25000000  1
loop_
_geom_bond_atom_site_label_1
_geom_bond_atom_site_label_2
_geom_bond_distance
_geom_bond_site_symmetry_2
F0 Li3 1.978452 1_545
F0 Li1 2.146548 1_555
F0 Mn1 2.210211 1_555
F0 Mn0 2.210211 1_556
F1 Li3 1.947039 1_445
F1 Mn3 2.117749 1_556
F1 Mn0 2.131656 1_556
F2 Li3 1.947039 1_445
F2 Mn2 2.117749 1_555
F2 Mn1 2.131656 1_555
F3 Li2 1.947039 1_555
F3 Mn0 2.117749 1_555
F3 Mn3 2.131656 1_655
F4 Li2 1.947039 1_555
F4 Mn1 2.117749 1_555
F4 Mn2 2.131656 1_655
F5 Li2 1.978452 1_555
F5 Li0 2.146548 1_555
F5 Mn2 2.210211 1_555
F5 Mn3 2.210211 1_555
F6 Li1 1.978452 1_555
F6 Li3 2.146548 1_555
F6 Mn2 2.210211 1_655
F6 Mn3 2.210211 1_656
F7 Li1 1.947039 1_555
F7 Mn0 2.117749 1_566
F7 Mn3 2.131656 1_556
F8 Li1 1.947039 1_555
F8 Mn1 2.117749 1_565
F8 Mn2 2.131656 1_555
F9 Li0 1.947039 1_665
F9 Mn3 2.117749 1_655
F9 Mn0 2.131656 1_565
F10 Li0 1.947039 1_665
F10 Mn2 2.117749 1_655
F10 Mn1 2.131656 1_565
F11 Li0 1.978452 1_565
F11 Li2 2.146548 1_555
F11 Mn0 2.210211 1_565
F11 Mn1 2.210211 1_565
