# generated using pymatgen
data_Er6MgTa2O14
_symmetry_space_group_name_H-M   'P 1'
_cell_length_a   6.43364619
_cell_length_b   6.43364592
_cell_length_c   7.73084395
_cell_angle_alpha   89.17845594
_cell_angle_beta   89.17845242
_cell_angle_gamma   109.65436154
_symmetry_Int_Tables_number   1
_chemical_formula_structural   Er6MgTa2O14
_chemical_formula_sum   'Er6 Mg1 Ta2 O14'
_cell_volume   301.25697057
_cell_formula_units_Z   1
loop_
 _symmetry_equiv_pos_site_id
 _symmetry_equiv_pos_as_xyz
  1  'x, y, z'
loop_
 _atom_site_type_symbol
 _atom_site_label
 _atom_site_symmetry_multiplicity
 _atom_site_fract_x
 _atom_site_fract_y
 _atom_site_fract_z
 _atom_site_occupancy
  Er  Er0  1  0.03206200  0.50975400  0.21286700  1
  Er  Er1  1  0.99330400  0.00669600  0.00000000  1
  Er  Er2  1  0.96116000  0.03884000  0.50000000  1
  Er  Er3  1  0.49024600  0.96793800  0.78713300  1
  Er  Er4  1  0.51180200  0.06244300  0.23095100  1
  Er  Er5  1  0.93755700  0.48819800  0.76904900  1
  Mg  Mg0  1  0.23532200  0.76467800  0.50000000  1
  Ta  Ta0  1  0.48069400  0.51930600  0.00000000  1
  Ta  Ta1  1  0.52229600  0.47770400  0.50000000  1
  O  O0  1  0.12230900  0.84545300  0.72029400  1
  O  O1  1  0.15454700  0.87769100  0.27970600  1
  O  O2  1  0.18351400  0.44054900  0.52222200  1
  O  O3  1  0.14045800  0.38077500  0.97182300  1
  O  O4  1  0.61922500  0.85954200  0.02817700  1
  O  O5  1  0.55945100  0.81648600  0.47777800  1
  O  O6  1  0.46581700  0.42527600  0.25012800  1
  O  O7  1  0.57472400  0.53418300  0.74987200  1
  O  O8  1  0.41052600  0.16460000  0.97943800  1
  O  O9  1  0.43402400  0.15862500  0.52675100  1
  O  O10  1  0.83540000  0.58947400  0.02056200  1
  O  O11  1  0.84137500  0.56597600  0.47324900  1
  O  O12  1  0.84513500  0.12177800  0.74695000  1
  O  O13  1  0.87822200  0.15486500  0.25305000  1
loop_
_geom_bond_atom_site_label_1
_geom_bond_atom_site_label_2
_geom_bond_distance
_geom_bond_site_symmetry_2
Er0 O10 2.131373 1_455
Er0 O13 2.177138 1_455
Er0 O3 2.245842 1_554
Er0 O1 2.298571 1_555
Er0 O11 2.436501 1_455
Er0 O2 2.682430 1_555
Er0 O6 3.033942 1_555
Er1 O3 2.276456 1_654
Er1 O4 2.276456 1_545
Er1 O13 2.402228 1_555
Er1 O12 2.402228 1_554
Er1 O10 2.532057 1_545
Er1 O8 2.532057 1_654
Er1 O0 2.651957 1_644
Er1 O1 2.651957 1_645
Er2 O12 2.177843 1_555
Er2 O13 2.177843 1_555
Er2 O2 2.507608 1_655
Er2 O5 2.507608 1_545
Er2 O1 2.526045 1_645
Er2 O0 2.526045 1_645
Er2 O11 2.887452 1_545
Er2 O9 2.887452 1_655
Er3 O8 2.131373 1_565
Er3 O12 2.177138 1_565
Er3 O4 2.245842 1_556
Er3 O0 2.298571 1_555
Er3 O9 2.436501 1_565
Er3 O5 2.682430 1_555
Er3 O7 3.033942 1_555
Er4 O8 2.219233 1_554
Er4 O1 2.227623 1_545
Er4 O13 2.238679 1_555
Er4 O4 2.296436 1_545
Er4 O6 2.455989 1_555
Er4 O9 2.465512 1_555
Er4 O5 2.548652 1_545
Er5 O10 2.219233 1_556
Er5 O0 2.227623 1_655
Er5 O12 2.238679 1_555
Er5 O3 2.296436 1_655
Er5 O7 2.455990 1_555
Er5 O11 2.465512 1_555
Er5 O2 2.548652 1_655
Mg0 O0 1.985743 1_555
Mg0 O1 1.985743 1_555
Mg0 O2 2.002432 1_555
Mg0 O5 2.002432 1_555
Mg0 O9 2.437999 1_565
Mg0 O11 2.437999 1_455
O2 Ta1 2.115402 1_555
O3 Ta0 2.083315 1_556
O4 Ta0 2.083315 1_555
O5 Ta1 2.115402 1_555
O6 Ta1 1.983361 1_555
O6 Ta0 2.009111 1_555
O7 Ta1 1.983361 1_555
O7 Ta0 2.009111 1_556
O8 Ta0 2.180890 1_556
O9 Ta1 1.944136 1_555
O10 Ta0 2.180890 1_555
O11 Ta1 1.944136 1_555
