# generated using pymatgen
data_Sr3(CoN2)2
_symmetry_space_group_name_H-M   'P 1'
_cell_length_a   7.06809409
_cell_length_b   8.63697807
_cell_length_c   5.55873820
_cell_angle_alpha   89.99999805
_cell_angle_beta   93.41871609
_cell_angle_gamma   127.66064499
_symmetry_Int_Tables_number   1
_chemical_formula_structural   Sr3(CoN2)2
_chemical_formula_sum   'Sr6 Co4 N8'
_cell_volume   267.87630514
_cell_formula_units_Z   2
loop_
 _symmetry_equiv_pos_site_id
 _symmetry_equiv_pos_as_xyz
  1  'x, y, z'
loop_
 _atom_site_type_symbol
 _atom_site_label
 _atom_site_symmetry_multiplicity
 _atom_site_fract_x
 _atom_site_fract_y
 _atom_site_fract_z
 _atom_site_occupancy
  Sr  Sr0  1  0.25036159  0.98959271  0.05392381  1
  Sr  Sr1  1  0.74963841  0.73923211  0.44607619  1
  Sr  Sr2  1  0.74963841  0.01040729  0.94607619  1
  Sr  Sr3  1  0.25036159  0.26076789  0.55392381  1
  Sr  Sr4  1  -0.00000000  0.59324270  0.75000000  1
  Sr  Sr5  1  0.00000000  0.40675730  0.25000000  1
  Co  Co0  1  0.57977416  0.16267928  0.57279645  1
  Co  Co1  1  0.42022584  0.58290511  0.92720355  1
  Co  Co2  1  0.42022584  0.83732072  0.42720355  1
  Co  Co3  1  0.57977416  0.41709489  0.07279645  1
  N  N0  1  0.25135610  0.93785231  0.52992519  1
  N  N1  1  0.74864390  0.68649720  0.97007481  1
  N  N2  1  0.74864390  0.06214769  0.47007481  1
  N  N3  1  0.25135610  0.31350280  0.02992519  1
  N  N4  1  0.64962056  0.26632315  0.89533596  1
  N  N5  1  0.35037944  0.61670159  0.60466404  1
  N  N6  1  0.35037944  0.73367685  0.10466404  1
  N  N7  1  0.64962056  0.38329841  0.39533596  1
loop_
_geom_bond_atom_site_label_1
_geom_bond_atom_site_label_2
_geom_bond_distance
_geom_bond_site_symmetry_2
Co0 N4 1.901052 1_555
Co0 N0 1.908356 1_545
Co0 N7 1.938107 1_555
Co0 N2 1.962734 1_555
Co1 N5 1.901050 1_555
Co1 N1 1.908354 1_555
Co1 N6 1.938100 1_556
Co1 N3 1.962741 1_556
Co2 N6 1.901052 1_555
Co2 N2 1.908356 1_565
Co2 N5 1.938107 1_555
Co2 N0 1.962734 1_555
Co3 N7 1.901050 1_555
Co3 N3 1.908354 1_555
Co3 N4 1.938100 1_554
Co3 N1 1.962741 1_554
N0 Sr0 2.683750 1_555
N0 Sr4 2.703585 1_555
N0 Sr3 2.796519 1_565
N0 Sr1 2.846877 1_455
N0 Sr0 2.947926 1_556
N1 Sr1 2.683750 1_556
N1 Sr4 2.703591 1_655
N1 Sr2 2.796519 1_565
N1 Sr0 2.846874 1_656
N1 Sr1 2.947926 1_555
N2 Sr2 2.683750 1_555
N2 Sr5 2.703585 1_655
N2 Sr1 2.796519 1_545
N2 Sr3 2.846877 1_655
N2 Sr2 2.947926 1_554
N3 Sr3 2.683750 1_554
N3 Sr5 2.703591 1_555
N3 Sr0 2.796519 1_545
N3 Sr2 2.846874 1_454
N3 Sr3 2.947926 1_555
N4 Sr4 2.540137 1_655
N4 Sr0 2.551100 1_546
N4 Sr5 2.690388 1_656
N4 Sr2 2.711188 1_555
N5 Sr4 2.540142 1_555
N5 Sr1 2.551095 1_555
N5 Sr5 2.690387 1_555
N5 Sr3 2.711188 1_555
N6 Sr5 2.540137 1_555
N6 Sr2 2.551100 1_564
N6 Sr4 2.690388 1_554
N6 Sr0 2.711188 1_555
N7 Sr5 2.540142 1_655
N7 Sr3 2.551095 1_555
N7 Sr4 2.690387 1_655
N7 Sr1 2.711188 1_555
