# generated using pymatgen
data_K3CoPCO7
_symmetry_space_group_name_H-M   'P 1'
_cell_length_a   6.98443869
_cell_length_b   11.29467755
_cell_length_c   9.59126752
_cell_angle_alpha   90.02074654
_cell_angle_beta   89.95143763
_cell_angle_gamma   90.02622654
_symmetry_Int_Tables_number   1
_chemical_formula_structural   K3CoPCO7
_chemical_formula_sum   'K12 Co4 P4 C4 O28'
_cell_volume   756.62575603
_cell_formula_units_Z   4
loop_
 _symmetry_equiv_pos_site_id
 _symmetry_equiv_pos_as_xyz
  1  'x, y, z'
loop_
 _atom_site_type_symbol
 _atom_site_label
 _atom_site_symmetry_multiplicity
 _atom_site_fract_x
 _atom_site_fract_y
 _atom_site_fract_z
 _atom_site_occupancy
  K  K0  1  0.24973900  0.37831500  0.07188200  1
  K  K1  1  0.24879000  0.87836500  0.07107900  1
  K  K2  1  0.75153000  0.12223000  0.92949800  1
  K  K3  1  0.74978900  0.62175900  0.92836200  1
  K  K4  1  0.00988300  0.12974600  0.28937700  1
  K  K5  1  0.01086500  0.62645900  0.28757800  1
  K  K6  1  0.48934900  0.12685600  0.28883100  1
  K  K7  1  0.48841900  0.62794900  0.28769200  1
  K  K8  1  0.51053200  0.37153900  0.71379500  1
  K  K9  1  0.51150600  0.87220900  0.71123500  1
  K  K10  1  0.98935200  0.37207700  0.71147600  1
  K  K11  1  0.98968000  0.87271300  0.71082400  1
  Co  Co0  1  0.75164800  0.87978200  0.35041800  1
  Co  Co1  1  0.25074100  0.61956700  0.64874600  1
  Co  Co2  1  0.74195700  0.38132700  0.35472100  1
  Co  Co3  1  0.25019600  0.11981500  0.64840000  1
  P  P0  1  0.25011600  0.36685300  0.42047000  1
  P  P1  1  0.25071300  0.86654600  0.41982400  1
  P  P2  1  0.74993300  0.13256000  0.58001000  1
  P  P3  1  0.75064100  0.63330300  0.57929600  1
  C  C0  1  0.74913500  0.37264300  0.08440900  1
  C  C1  1  0.75037400  0.87205600  0.08349700  1
  C  C2  1  0.25011300  0.12801500  0.91612700  1
  C  C3  1  0.24980000  0.62807900  0.91580000  1
  O  O0  1  0.25099600  0.13015500  0.05044900  1
  O  O1  1  0.24904700  0.63057900  0.05007400  1
  O  O2  1  0.75087700  0.36977400  0.94994100  1
  O  O3  1  0.74949900  0.86992500  0.94919100  1
  O  O4  1  0.74415300  0.47273800  0.15295700  1
  O  O5  1  0.75016600  0.97178400  0.15325300  1
  O  O6  1  0.24689200  0.02830500  0.84640900  1
  O  O7  1  0.25009600  0.52815500  0.84649000  1
  O  O8  1  0.75263800  0.27542000  0.15903700  1
  O  O9  1  0.75164600  0.77466100  0.15785100  1
  O  O10  1  0.25229100  0.22541700  0.84181300  1
  O  O11  1  0.25028400  0.72527800  0.84105500  1
  O  O12  1  0.24919900  0.24055100  0.48732000  1
  O  O13  1  0.25025800  0.74053100  0.48692600  1
  O  O14  1  0.75003000  0.25778600  0.51053700  1
  O  O15  1  0.75055800  0.75931700  0.51259000  1
  O  O16  1  0.74975100  0.03554200  0.46560700  1
  O  O17  1  0.74968500  0.53745500  0.46307400  1
  O  O18  1  0.25217000  0.46220600  0.53706700  1
  O  O19  1  0.25117800  0.96282000  0.53540800  1
  O  O20  1  0.06969800  0.38097200  0.32653800  1
  O  O21  1  0.06911300  0.87968400  0.32577800  1
  O  O22  1  0.43168100  0.37950900  0.32590400  1
  O  O23  1  0.43190300  0.87907700  0.32506000  1
  O  O24  1  0.56875100  0.12101200  0.67482900  1
  O  O25  1  0.56940100  0.61993700  0.67372500  1
  O  O26  1  0.93128900  0.12080300  0.67437500  1
  O  O27  1  0.93194600  0.61984400  0.67339400  1
loop_
_geom_bond_atom_site_label_1
_geom_bond_atom_site_label_2
_geom_bond_distance
_geom_bond_site_symmetry_2
K0 O7 2.745942 1_554
K0 O20 2.746384 1_555
K0 O22 2.748861 1_555
K0 O10 2.801631 1_554
K0 O0 2.810358 1_555
K0 O1 2.856990 1_555
K1 O6 2.741236 1_564
K1 O21 2.745467 1_555
K1 O23 2.752291 1_555
K1 O11 2.802573 1_554
K1 O1 2.805833 1_555
K1 O0 2.850867 1_565
K2 O5 2.737849 1_546
K2 O26 2.749353 1_555
K2 O24 2.757073 1_555
K2 O8 2.799630 1_556
K2 O2 2.802731 1_555
K2 O3 2.856053 1_545
K3 O4 2.734467 1_556
K3 O25 2.749134 1_555
K3 O27 2.755747 1_555
K3 O9 2.797266 1_556
K3 O3 2.809995 1_555
K3 O2 2.853694 1_555
K4 O16 2.698977 1_455
K4 O8 2.739733 1_455
K4 O12 2.822460 1_555
K4 O0 2.842710 1_555
K4 O5 2.859649 1_445
K4 O21 2.876130 1_545
K4 O20 2.889897 1_555
K4 O14 3.143014 1_455
K5 O17 2.676913 1_455
K5 O9 2.763345 1_455
K5 O1 2.819987 1_555
K5 O20 2.828142 1_555
K5 O13 2.848345 1_555
K5 O4 2.855047 1_455
K5 O21 2.911755 1_555
K6 O16 2.693428 1_555
K6 O8 2.782414 1_555
K6 O0 2.829655 1_555
K6 O5 2.841542 1_545
K6 O12 2.842800 1_555
K6 O23 2.848375 1_545
K6 O22 2.903785 1_555
K6 O14 3.166299 1_555
K7 O17 2.685574 1_555
K7 O9 2.769768 1_555
K7 O4 2.816181 1_555
K7 O1 2.827847 1_555
K7 O13 2.833766 1_555
K7 O22 2.857404 1_555
K7 O23 2.886094 1_555
K8 O18 2.680722 1_555
K8 O10 2.734896 1_555
K8 O2 2.820427 1_555
K8 O7 2.838142 1_555
K8 O25 2.861376 1_555
K8 O14 2.871241 1_555
K8 O24 2.883021 1_555
K9 O19 2.684309 1_555
K9 O11 2.761896 1_555
K9 O3 2.824737 1_555
K9 O15 2.835197 1_555
K9 O24 2.859750 1_565
K9 O6 2.863963 1_565
K9 O25 2.900292 1_555
K10 O18 2.682989 1_655
K10 O10 2.772634 1_655
K10 O2 2.828373 1_555
K10 O7 2.846146 1_655
K10 O27 2.850877 1_555
K10 O14 2.859440 1_555
K10 O26 2.888620 1_555
K11 O19 2.682644 1_655
K11 O11 2.766651 1_655
K11 O6 2.829524 1_665
K11 O3 2.834696 1_555
K11 O15 2.836614 1_555
K11 O26 2.853468 1_565
K11 O27 2.906388 1_555
Co0 O15 2.066932 1_555
Co0 O16 2.077103 1_565
Co0 O5 2.158121 1_555
Co0 O9 2.195308 1_555
Co0 O21 2.229675 1_655
Co0 O23 2.246659 1_555
Co1 O13 2.068111 1_555
Co1 O18 2.074852 1_555
Co1 O7 2.159760 1_555
Co1 O11 2.196841 1_555
Co1 O25 2.238723 1_555
Co1 O27 2.238923 1_455
Co2 O14 2.045818 1_555
Co2 O17 2.047255 1_555
Co2 O22 2.184977 1_555
Co2 O4 2.193736 1_555
Co2 O8 2.226486 1_555
Co2 O20 2.304769 1_655
Co3 O12 2.061095 1_555
Co3 O19 2.077837 1_545
Co3 O6 2.162622 1_555
Co3 O10 2.205125 1_555
Co3 O24 2.239569 1_555
Co3 O26 2.241098 1_455
C0 O2 1.290161 1_554
C0 O4 1.308071 1_555
C0 O8 1.311254 1_555
C1 O3 1.288401 1_554
C1 O5 1.309904 1_555
C1 O9 1.311239 1_555
C2 O0 1.288556 1_556
C2 O6 1.309737 1_555
C2 O10 1.311134 1_555
C3 O1 1.288163 1_556
C3 O7 1.309634 1_555
C3 O11 1.311393 1_555
O12 P0 1.564229 1_555
O13 P1 1.562260 1_555
O14 P2 1.563705 1_555
O15 P3 1.560688 1_555
O16 P2 1.550446 1_555
O17 P3 1.553619 1_555
O18 P0 1.552372 1_555
O19 P1 1.552589 1_555
O20 P0 1.557951 1_555
O21 P1 1.564174 1_555
O22 P0 1.565001 1_555
O23 P1 1.563854 1_555
O24 P2 1.563151 1_555
O25 P3 1.563155 1_555
O26 P2 1.563151 1_555
O27 P3 1.563142 1_555
