# generated using pymatgen
data_TeMoS
_symmetry_space_group_name_H-M   'P 1'
_cell_length_a   3.35923985
_cell_length_b   3.35923985
_cell_length_c   38.27030800
_cell_angle_alpha   90.00000000
_cell_angle_beta   90.00000000
_cell_angle_gamma   119.99999697
_symmetry_Int_Tables_number   1
_chemical_formula_structural   TeMoS
_chemical_formula_sum   'Te4 Mo4 S4'
_cell_volume   374.00260630
_cell_formula_units_Z   4
loop_
 _symmetry_equiv_pos_site_id
 _symmetry_equiv_pos_as_xyz
  1  'x, y, z'
loop_
 _atom_site_type_symbol
 _atom_site_label
 _atom_site_symmetry_multiplicity
 _atom_site_fract_x
 _atom_site_fract_y
 _atom_site_fract_z
 _atom_site_occupancy
  Te  Te0  1  0.33333300  0.66666700  0.33128000  1
  Te  Te1  1  0.66666700  0.33333300  0.66872000  1
  Te  Te2  1  0.66666700  0.33333300  0.76766400  1
  Te  Te3  1  0.33333300  0.66666700  0.23233600  1
  Mo  Mo0  1  0.33333300  0.66666700  0.71816500  1
  Mo  Mo1  1  0.33333300  0.66666700  0.09393000  1
  Mo  Mo2  1  0.66666700  0.33333300  0.90607000  1
  Mo  Mo3  1  0.66666700  0.33333300  0.28183500  1
  S  S0  1  0.33333300  0.66666700  0.94564500  1
  S  S1  1  0.66666700  0.33333300  0.05435500  1
  S  S2  1  0.66666700  0.33333300  0.13350200  1
  S  S3  1  0.33333300  0.66666700  0.86649800  1
loop_
_geom_bond_atom_site_label_1
_geom_bond_atom_site_label_2
_geom_bond_distance
_geom_bond_site_symmetry_2
Mo0 Te1 2.709649 1_455
Mo0 Te1 2.709649 1_565
Mo0 Te1 2.709653 1_555
Mo0 Te2 2.711092 1_455
Mo0 Te2 2.711092 1_565
Mo0 Te2 2.711096 1_555
Mo1 S2 2.460690 1_565
Mo1 S2 2.460690 1_455
Mo1 S2 2.460695 1_555
Mo1 S1 2.460761 1_455
Mo1 S1 2.460761 1_565
Mo1 S1 2.460765 1_555
Mo2 S3 2.460690 1_545
Mo2 S3 2.460690 1_655
Mo2 S3 2.460695 1_555
Mo2 S0 2.460761 1_655
Mo2 S0 2.460761 1_545
Mo2 S0 2.460765 1_555
Mo3 Te0 2.709649 1_545
Mo3 Te0 2.709649 1_655
Mo3 Te0 2.709653 1_555
Mo3 Te3 2.711092 1_545
Mo3 Te3 2.711092 1_655
Mo3 Te3 2.711096 1_555
