# generated using pymatgen
data_Rb6V6P6O31
_symmetry_space_group_name_H-M   'P 1'
_cell_length_a   7.19146000
_cell_length_b   13.66096900
_cell_length_c   14.71064500
_cell_angle_alpha   90.00000000
_cell_angle_beta   90.00000000
_cell_angle_gamma   90.00000000
_symmetry_Int_Tables_number   1
_chemical_formula_structural   Rb6V6P6O31
_chemical_formula_sum   'Rb12 V12 P12 O62'
_cell_volume   1445.20777765
_cell_formula_units_Z   2
loop_
 _symmetry_equiv_pos_site_id
 _symmetry_equiv_pos_as_xyz
  1  'x, y, z'
loop_
 _atom_site_type_symbol
 _atom_site_label
 _atom_site_symmetry_multiplicity
 _atom_site_fract_x
 _atom_site_fract_y
 _atom_site_fract_z
 _atom_site_occupancy
  Rb  Rb0  1  0.35608900  0.50000000  0.33368300  1
  Rb  Rb1  1  0.64391100  0.00000000  0.83368300  1
  Rb  Rb2  1  0.15107500  0.76200600  0.18143800  1
  Rb  Rb3  1  0.84892500  0.73799400  0.68143800  1
  Rb  Rb4  1  0.84892500  0.26200600  0.68143800  1
  Rb  Rb5  1  0.15107500  0.23799400  0.18143800  1
  Rb  Rb6  1  0.33926400  0.74615900  0.50607600  1
  Rb  Rb7  1  0.66073600  0.75384100  0.00607600  1
  Rb  Rb8  1  0.66073600  0.24615900  0.00607600  1
  Rb  Rb9  1  0.33926400  0.25384100  0.50607600  1
  Rb  Rb10  1  0.86532200  0.50000000  0.84723000  1
  Rb  Rb11  1  0.13467800  0.00000000  0.34723000  1
  V  V0  1  0.48574900  0.50000000  0.08618600  1
  V  V1  1  0.51425100  0.00000000  0.58618600  1
  V  V2  1  0.40475000  0.62562600  0.76896600  1
  V  V3  1  0.59525000  0.87437400  0.26896600  1
  V  V4  1  0.59525000  0.12562600  0.26896600  1
  V  V5  1  0.40475000  0.37437400  0.76896600  1
  V  V6  1  0.09839300  0.87518100  0.92093200  1
  V  V7  1  0.90160700  0.62481900  0.42093200  1
  V  V8  1  0.90160700  0.37518100  0.42093200  1
  V  V9  1  0.09839300  0.12481900  0.92093200  1
  V  V10  1  0.98489700  0.50000000  0.10175400  1
  V  V11  1  0.01510300  0.00000000  0.60175400  1
  P  P0  1  0.21052300  0.65014300  0.96352000  1
  P  P1  1  0.78947700  0.84985700  0.46352000  1
  P  P2  1  0.78947700  0.15014300  0.46352000  1
  P  P3  1  0.21052300  0.34985700  0.96352000  1
  P  P4  1  0.51256300  0.50000000  0.58548000  1
  P  P5  1  0.48743700  0.00000000  0.08548000  1
  P  P6  1  0.29022800  0.85036000  0.72535600  1
  P  P7  1  0.70977200  0.64964000  0.22535600  1
  P  P8  1  0.70977200  0.35036000  0.22535600  1
  P  P9  1  0.29022800  0.14964000  0.72535600  1
  P  P10  1  0.10248300  0.50000000  0.58191900  1
  P  P11  1  0.89751700  0.00000000  0.08191900  1
  O  O0  1  0.46830400  0.89324700  0.68112700  1
  O  O1  1  0.53169600  0.60675300  0.18112700  1
  O  O2  1  0.53169600  0.39324700  0.18112700  1
  O  O3  1  0.46830400  0.10675300  0.68112700  1
  O  O4  1  0.58058700  0.68259900  0.81676300  1
  O  O5  1  0.41941300  0.81740100  0.31676300  1
  O  O6  1  0.41941300  0.18259900  0.31676300  1
  O  O7  1  0.58058700  0.31740100  0.81676300  1
  O  O8  1  0.30899500  0.50000000  0.53336800  1
  O  O9  1  0.69100500  0.00000000  0.03336800  1
  O  O10  1  0.38693100  0.60421900  0.00494100  1
  O  O11  1  0.61306900  0.89578100  0.50494100  1
  O  O12  1  0.61306900  0.10421900  0.50494100  1
  O  O13  1  0.38693100  0.39578100  0.00494100  1
  O  O14  1  0.64904700  0.50000000  0.50783900  1
  O  O15  1  0.35095300  0.00000000  0.00783900  1
  O  O16  1  0.22199300  0.76214100  0.98407100  1
  O  O17  1  0.77800700  0.73785900  0.48407100  1
  O  O18  1  0.77800700  0.26214100  0.48407100  1
  O  O19  1  0.22199300  0.23785900  0.98407100  1
  O  O20  1  0.45605200  0.50000000  0.79902100  1
  O  O21  1  0.54394800  0.00000000  0.29902100  1
  O  O22  1  0.12811200  0.50000000  0.68392500  1
  O  O23  1  0.87188800  0.00000000  0.18392500  1
  O  O24  1  0.28032800  0.73800400  0.70553800  1
  O  O25  1  0.71967200  0.76199600  0.20553800  1
  O  O26  1  0.71967200  0.23800400  0.20553800  1
  O  O27  1  0.28032800  0.26199600  0.70553800  1
  O  O28  1  0.51417400  0.59474600  0.64350500  1
  O  O29  1  0.48582600  0.90525400  0.14350500  1
  O  O30  1  0.48582600  0.09474600  0.14350500  1
  O  O31  1  0.51417400  0.40525400  0.64350500  1
  O  O32  1  0.20938100  0.50000000  0.13964700  1
  O  O33  1  0.79061900  0.00000000  0.63964700  1
  O  O34  1  0.03132600  0.60689600  0.00634100  1
  O  O35  1  0.96867400  0.89310400  0.50634100  1
  O  O36  1  0.96867400  0.10689600  0.50634100  1
  O  O37  1  0.03132600  0.39310400  0.00634100  1
  O  O38  1  0.01088600  0.59522500  0.54605500  1
  O  O39  1  0.98911400  0.90477500  0.04605500  1
  O  O40  1  0.98911400  0.09522500  0.04605500  1
  O  O41  1  0.01088600  0.40477500  0.54605500  1
  O  O42  1  0.11319900  0.89514100  0.68319700  1
  O  O43  1  0.88680100  0.60485900  0.18319700  1
  O  O44  1  0.88680100  0.39514100  0.18319700  1
  O  O45  1  0.11319900  0.10485900  0.68319700  1
  O  O46  1  0.71009300  0.50000000  0.04757600  1
  O  O47  1  0.28990700  0.00000000  0.54757600  1
  O  O48  1  0.95737000  0.50000000  0.38969600  1
  O  O49  1  0.04263000  0.00000000  0.88969600  1
  O  O50  1  0.30031000  0.86849500  0.82952400  1
  O  O51  1  0.69969000  0.63150500  0.32952400  1
  O  O52  1  0.69969000  0.36849500  0.32952400  1
  O  O53  1  0.30031000  0.13150500  0.82952400  1
  O  O54  1  0.20190500  0.63293100  0.85906300  1
  O  O55  1  0.79809500  0.86706900  0.35906300  1
  O  O56  1  0.79809500  0.13293100  0.35906300  1
  O  O57  1  0.20190500  0.36706900  0.85906300  1
  O  O58  1  0.07467400  0.68327700  0.37232200  1
  O  O59  1  0.92532600  0.81672300  0.87232200  1
  O  O60  1  0.92532600  0.18327700  0.87232200  1
  O  O61  1  0.07467400  0.31672300  0.37232200  1
loop_
_geom_bond_atom_site_label_1
_geom_bond_atom_site_label_2
_geom_bond_distance
_geom_bond_site_symmetry_2
O0 P6 1.551317 1_555
O0 V1 2.046113 1_565
O0 Rb1 2.959400 1_565
O0 Rb3 3.462751 1_555
O1 P7 1.551317 1_555
O1 V0 2.046113 1_555
O1 Rb0 2.959400 1_555
O1 Rb2 3.462751 1_555
O2 P8 1.551317 1_555
O2 V0 2.046113 1_555
O2 Rb0 2.959400 1_555
O2 Rb5 3.462751 1_555
O3 P9 1.551317 1_555
O3 V1 2.046113 1_555
O3 Rb1 2.959400 1_555
O3 Rb4 3.462751 1_555
O4 V2 1.642914 1_555
O4 Rb3 2.873940 1_555
O4 Rb7 3.005856 1_556
O4 Rb10 3.258253 1_555
O5 V3 1.642914 1_555
O5 Rb2 2.873940 1_555
O5 Rb6 3.005856 1_555
O5 Rb11 3.258253 1_565
O6 V4 1.642914 1_555
O6 Rb5 2.873940 1_555
O6 Rb9 3.005856 1_555
O6 Rb11 3.258253 1_555
O7 V5 1.642914 1_555
O7 Rb4 2.873940 1_555
O7 Rb8 3.005856 1_556
O7 Rb10 3.258253 1_555
O8 P10 1.647937 1_555
O8 P4 1.652522 1_555
O8 Rb0 2.956954 1_555
O9 P11 1.647937 1_555
O9 P5 1.652522 1_555
O9 Rb1 2.956954 1_554
O10 P0 1.540875 1_554
O10 V0 1.990089 1_555
O10 Rb7 2.838191 1_555
O11 P1 1.540875 1_555
O11 V1 1.990089 1_565
O11 Rb6 2.838191 1_555
O12 P2 1.540875 1_555
O12 V1 1.990089 1_555
O12 Rb9 2.838191 1_555
O13 P3 1.540875 1_554
O13 V0 1.990089 1_555
O13 Rb8 2.838191 1_555
O14 P4 1.505950 1_555
O14 Rb0 3.316951 1_555
O15 P5 1.505950 1_555
O15 Rb1 3.316951 1_554
O16 P0 1.561763 1_555
O16 V6 2.009339 1_555
O16 Rb2 2.947849 1_556
O16 Rb7 3.173791 1_556
O17 P1 1.561763 1_555
O17 V7 2.009339 1_555
O17 Rb3 2.947849 1_555
O17 Rb6 3.173791 1_555
O18 P2 1.561763 1_555
O18 V8 2.009339 1_555
O18 Rb4 2.947849 1_555
O18 Rb9 3.173791 1_555
O19 P3 1.561763 1_555
O19 V9 2.009339 1_555
O19 Rb5 2.947849 1_556
O19 Rb8 3.173791 1_556
O20 V5 1.810205 1_555
O20 V2 1.810205 1_555
O20 Rb10 3.027484 1_555
O21 V4 1.810205 1_555
O21 V3 1.810205 1_545
O21 Rb11 3.027484 1_555
O22 P10 1.511851 1_555
O22 Rb10 3.056577 1_455
O23 P11 1.511851 1_555
O23 Rb11 3.056577 1_655
O24 P6 1.563955 1_555
O24 V2 2.007001 1_555
O24 Rb6 2.966760 1_555
O24 Rb3 3.122608 1_455
O25 P7 1.563955 1_555
O25 V3 2.007001 1_555
O25 Rb7 2.966760 1_555
O25 Rb2 3.122608 1_655
O26 P8 1.563955 1_555
O26 V4 2.007001 1_555
O26 Rb8 2.966760 1_555
O26 Rb5 3.122608 1_655
O27 P9 1.563955 1_555
O27 V5 2.007001 1_555
O27 Rb9 2.966760 1_555
O27 Rb4 3.122608 1_455
O28 P4 1.550488 1_555
O28 V2 2.050240 1_555
O28 Rb3 3.152173 1_555
O28 Rb6 3.154018 1_555
O29 P5 1.550488 1_565
O29 V3 2.050240 1_555
O29 Rb2 3.152173 1_555
O29 Rb7 3.154018 1_555
O30 P5 1.550488 1_555
O30 V4 2.050240 1_555
O30 Rb5 3.152173 1_555
O30 Rb8 3.154018 1_555
O31 P4 1.550488 1_555
O31 V5 2.050240 1_555
O31 Rb4 3.152173 1_555
O31 Rb9 3.154018 1_555
O32 V10 1.707897 1_455
O32 V0 2.137431 1_555
O32 Rb0 3.043138 1_555
O33 V11 1.707897 1_655
O33 V1 2.137431 1_555
O33 Rb1 3.043138 1_555
O34 P0 1.551310 1_554
O34 V10 2.052809 1_455
O34 Rb10 3.006027 1_454
O34 Rb7 3.336523 1_455
O35 P1 1.551310 1_555
O35 V11 2.052809 1_665
O35 Rb11 3.006027 1_665
O35 Rb6 3.336523 1_655
O36 P2 1.551310 1_555
O36 V11 2.052809 1_655
O36 Rb11 3.006027 1_655
O36 Rb9 3.336523 1_655
O37 P3 1.551310 1_554
O37 V10 2.052809 1_455
O37 Rb10 3.006027 1_454
O37 Rb8 3.336523 1_455
O38 P10 1.550646 1_555
O38 V7 2.041813 1_455
O38 Rb3 3.021073 1_455
O38 Rb6 3.189686 1_555
O39 P11 1.550646 1_565
O39 V6 2.041813 1_654
O39 Rb2 3.021073 1_655
O39 Rb7 3.189686 1_555
O40 P11 1.550646 1_555
O40 V9 2.041813 1_654
O40 Rb5 3.021073 1_655
O40 Rb8 3.189686 1_555
O41 P10 1.550646 1_555
O41 V8 2.041813 1_455
O41 Rb4 3.021073 1_455
O41 Rb9 3.189686 1_555
O42 P6 1.542610 1_555
O42 V11 1.996258 1_565
O42 Rb3 2.867280 1_455
O43 P7 1.542610 1_555
O43 V10 1.996258 1_555
O43 Rb2 2.867280 1_655
O44 P8 1.542610 1_555
O44 V10 1.996258 1_555
O44 Rb5 2.867280 1_655
O45 P9 1.542610 1_555
O45 V11 1.996258 1_555
O45 Rb4 2.867280 1_455
O46 V0 1.710419 1_555
O46 V10 2.130899 1_555
O46 Rb10 3.151551 1_554
O47 V1 1.710419 1_555
O47 V11 2.130899 1_555
O47 Rb11 3.151551 1_555
O48 V8 1.810936 1_555
O48 V7 1.810936 1_555
O48 Rb0 2.983417 1_655
O49 V9 1.810936 1_555
O49 V6 1.810936 1_545
O49 Rb1 2.983417 1_455
O50 P6 1.553968 1_555
O50 V6 1.981164 1_555
O50 Rb1 3.055636 1_565
O51 P7 1.553968 1_555
O51 V7 1.981164 1_555
O51 Rb0 3.055636 1_555
O52 P8 1.553968 1_555
O52 V8 1.981164 1_555
O52 Rb0 3.055636 1_555
O53 P9 1.553968 1_555
O53 V9 1.981164 1_555
O53 Rb1 3.055636 1_555
O54 P0 1.555751 1_555
O54 V2 1.973464 1_555
O54 Rb10 3.031001 1_455
O55 P1 1.555751 1_555
O55 V3 1.973464 1_555
O55 Rb11 3.031001 1_665
O56 P2 1.555751 1_555
O56 V4 1.973464 1_555
O56 Rb11 3.031001 1_655
O57 P3 1.555751 1_555
O57 V5 1.973464 1_555
O57 Rb10 3.031001 1_455
O58 V7 1.642601 1_455
O58 Rb6 2.868800 1_555
O58 Rb2 3.056734 1_555
O58 Rb0 3.269176 1_555
O59 V6 1.642601 1_655
O59 Rb7 2.868800 1_556
O59 Rb3 3.056734 1_555
O59 Rb1 3.269176 1_565
O60 V9 1.642601 1_655
O60 Rb8 2.868800 1_556
O60 Rb4 3.056734 1_555
O60 Rb1 3.269176 1_555
O61 V8 1.642601 1_455
O61 Rb9 2.868800 1_555
O61 Rb5 3.056734 1_555
O61 Rb0 3.269176 1_555
