# generated using pymatgen
data_RbAl(H2N)4
_symmetry_space_group_name_H-M   'P 1'
_cell_length_a   7.68695100
_cell_length_b   7.68695100
_cell_length_c   5.12663300
_cell_angle_alpha   90.00000000
_cell_angle_beta   90.00000000
_cell_angle_gamma   90.00000000
_symmetry_Int_Tables_number   1
_chemical_formula_structural   RbAl(H2N)4
_chemical_formula_sum   'Rb2 Al2 H16 N8'
_cell_volume   302.92872303
_cell_formula_units_Z   2
loop_
 _symmetry_equiv_pos_site_id
 _symmetry_equiv_pos_as_xyz
  1  'x, y, z'
loop_
 _atom_site_type_symbol
 _atom_site_label
 _atom_site_symmetry_multiplicity
 _atom_site_fract_x
 _atom_site_fract_y
 _atom_site_fract_z
 _atom_site_occupancy
  Rb  Rb0  1  0.25000000  0.25000000  0.57661300  1
  Rb  Rb1  1  0.75000000  0.75000000  0.42338700  1
  Al  Al0  1  0.25000000  0.75000000  0.00000000  1
  Al  Al1  1  0.75000000  0.25000000  0.00000000  1
  H  H0  1  0.41634900  0.48413000  0.17155400  1
  H  H1  1  0.12866200  0.61382700  0.59372300  1
  H  H2  1  0.01587000  0.41634900  0.17155400  1
  H  H3  1  0.11382700  0.87133800  0.40627600  1
  H  H4  1  0.38617300  0.62866200  0.40627600  1
  H  H5  1  0.48413000  0.08365100  0.17155400  1
  H  H6  1  0.37133800  0.88617300  0.59372300  1
  H  H7  1  0.08365100  0.01587000  0.17155400  1
  H  H8  1  0.91634900  0.98413000  0.82844600  1
  H  H9  1  0.62866200  0.11382700  0.40627600  1
  H  H10  1  0.51587000  0.91634900  0.82844600  1
  H  H11  1  0.61382700  0.37133800  0.59372300  1
  H  H12  1  0.88617300  0.12866200  0.59372300  1
  H  H13  1  0.98413000  0.58365100  0.82844600  1
  H  H14  1  0.87133800  0.38617300  0.40627600  1
  H  H15  1  0.58365100  0.51587000  0.82844600  1
  N  N0  1  0.41641400  0.83800400  0.76706300  1
  N  N1  1  0.33800400  0.58358600  0.23293700  1
  N  N2  1  0.16199600  0.91641400  0.23293700  1
  N  N3  1  0.08358600  0.66199600  0.76706300  1
  N  N4  1  0.91641400  0.33800400  0.23293700  1
  N  N5  1  0.83800400  0.08358600  0.76706300  1
  N  N6  1  0.66199600  0.41641400  0.76706300  1
  N  N7  1  0.58358600  0.16199600  0.23293700  1
loop_
_geom_bond_atom_site_label_1
_geom_bond_atom_site_label_2
_geom_bond_distance
_geom_bond_site_symmetry_2
Al0 N2 1.876192 1_555
Al0 N1 1.876192 1_555
Al0 N0 1.876192 1_554
Al0 N3 1.876192 1_554
Al1 N4 1.876192 1_555
Al1 N7 1.876192 1_555
Al1 N5 1.876192 1_554
Al1 N6 1.876192 1_554
H0 N1 1.022837 1_555
H0 Rb0 3.030911 1_555
H1 N3 1.023163 1_555
H1 Rb0 2.949458 1_555
H2 N4 1.022837 1_455
H2 Rb0 3.030911 1_555
H3 N2 1.023158 1_555
H3 Rb1 2.949458 1_455
H4 N1 1.023158 1_555
H4 Rb1 2.949458 1_555
H5 N7 1.022837 1_555
H5 Rb0 3.030911 1_555
H6 N0 1.023163 1_555
H6 Rb0 2.949458 1_565
H7 N2 1.022837 1_545
H7 Rb0 3.030911 1_555
H8 N5 1.022837 1_565
H8 Rb1 3.030911 1_555
H9 N7 1.023158 1_555
H9 Rb1 2.949458 1_545
H10 N0 1.022837 1_555
H10 Rb1 3.030911 1_555
H11 N6 1.023163 1_555
H11 Rb0 2.949458 1_555
H12 N5 1.023163 1_555
H12 Rb0 2.949458 1_655
H13 N3 1.022837 1_655
H13 Rb1 3.030911 1_555
H14 N4 1.023158 1_555
H14 Rb1 2.949458 1_555
H15 N6 1.022837 1_555
H15 Rb1 3.030911 1_555
