# generated using pymatgen
data_Tm(BC)2
_symmetry_space_group_name_H-M   'P 1'
_cell_length_a   3.78551500
_cell_length_b   3.78551500
_cell_length_c   6.99480700
_cell_angle_alpha   90.00000000
_cell_angle_beta   90.00000000
_cell_angle_gamma   90.00000000
_symmetry_Int_Tables_number   1
_chemical_formula_structural   Tm(BC)2
_chemical_formula_sum   'Tm2 B4 C4'
_cell_volume   100.23645037
_cell_formula_units_Z   2
loop_
 _symmetry_equiv_pos_site_id
 _symmetry_equiv_pos_as_xyz
  1  'x, y, z'
loop_
 _atom_site_type_symbol
 _atom_site_label
 _atom_site_symmetry_multiplicity
 _atom_site_fract_x
 _atom_site_fract_y
 _atom_site_fract_z
 _atom_site_occupancy
  Tm  Tm0  1  0.00000000  0.00000000  0.75000000  1
  Tm  Tm1  1  0.00000000  0.00000000  0.25000000  1
  B  B0  1  0.21516100  0.50000000  0.00000000  1
  B  B1  1  0.78483900  0.50000000  0.00000000  1
  B  B2  1  0.50000000  0.21516100  0.50000000  1
  B  B3  1  0.50000000  0.78483900  0.50000000  1
  C  C0  1  0.50000000  0.18800600  0.00000000  1
  C  C1  1  0.50000000  0.81199400  0.00000000  1
  C  C2  1  0.81199400  0.50000000  0.50000000  1
  C  C3  1  0.18800600  0.50000000  0.50000000  1
loop_
_geom_bond_atom_site_label_1
_geom_bond_atom_site_label_2
_geom_bond_distance
_geom_bond_site_symmetry_2
B0 C1 1.599233 1_555
B0 C0 1.599233 1_555
B0 Tm0 2.702571 1_554
B0 Tm0 2.702571 1_564
B0 Tm1 2.702571 1_565
B0 Tm1 2.702571 1_555
B1 C1 1.599233 1_555
B1 C0 1.599233 1_555
B1 Tm0 2.702571 1_654
B1 Tm1 2.702571 1_655
B1 Tm0 2.702571 1_664
B1 Tm1 2.702571 1_665
B2 C2 1.599233 1_555
B2 C3 1.599233 1_555
B2 Tm1 2.702571 1_655
B2 Tm1 2.702571 1_555
B2 Tm0 2.702571 1_555
B2 Tm0 2.702571 1_655
B3 C2 1.599233 1_555
B3 C3 1.599233 1_555
B3 Tm1 2.702571 1_565
B3 Tm0 2.702571 1_665
B3 Tm1 2.702571 1_665
B3 Tm0 2.702571 1_565
C0 C1 1.423399 1_545
C0 Tm1 2.673388 1_655
C0 Tm1 2.673388 1_555
C0 Tm0 2.673388 1_654
C0 Tm0 2.673388 1_554
C1 Tm0 2.673388 1_564
C1 Tm1 2.673388 1_565
C1 Tm1 2.673388 1_665
C1 Tm0 2.673388 1_664
C2 C3 1.423399 1_655
C2 Tm0 2.673388 1_665
C2 Tm1 2.673388 1_655
C2 Tm1 2.673388 1_665
C2 Tm0 2.673388 1_655
C3 Tm0 2.673388 1_565
C3 Tm1 2.673388 1_565
C3 Tm1 2.673388 1_555
C3 Tm0 2.673388 1_555
