# generated using pymatgen
data_Dy4Zn5Ge6
_symmetry_space_group_name_H-M   'P 1'
_cell_length_a   9.50215911
_cell_length_b   9.50215911
_cell_length_c   15.19275400
_cell_angle_alpha   90.00000000
_cell_angle_beta   90.00000000
_cell_angle_gamma   153.68136586
_symmetry_Int_Tables_number   1
_chemical_formula_structural   Dy4Zn5Ge6
_chemical_formula_sum   'Dy8 Zn10 Ge12'
_cell_volume   608.19141323
_cell_formula_units_Z   2
loop_
 _symmetry_equiv_pos_site_id
 _symmetry_equiv_pos_as_xyz
  1  'x, y, z'
loop_
 _atom_site_type_symbol
 _atom_site_label
 _atom_site_symmetry_multiplicity
 _atom_site_fract_x
 _atom_site_fract_y
 _atom_site_fract_z
 _atom_site_occupancy
  Dy  Dy0  1  0.01941200  0.98058800  0.76299300  1
  Dy  Dy1  1  0.98058800  0.01941200  0.26299300  1
  Dy  Dy2  1  0.17559000  0.82441000  0.31874300  1
  Dy  Dy3  1  0.82441000  0.17559000  0.81874300  1
  Dy  Dy4  1  0.16747500  0.83252500  0.95945400  1
  Dy  Dy5  1  0.83252500  0.16747500  0.45945400  1
  Dy  Dy6  1  0.03273300  0.96726700  0.50047600  1
  Dy  Dy7  1  0.96726700  0.03273300  0.00047600  1
  Zn  Zn0  1  0.34610100  0.65389900  0.98930300  1
  Zn  Zn1  1  0.65389900  0.34610100  0.48930300  1
  Zn  Zn2  1  0.30020000  0.69980000  0.63876800  1
  Zn  Zn3  1  0.69980000  0.30020000  0.13876800  1
  Zn  Zn4  1  0.64861700  0.35138300  0.78273400  1
  Zn  Zn5  1  0.35138300  0.64861700  0.28273400  1
  Zn  Zn6  1  0.15075600  0.84924400  0.63602300  1
  Zn  Zn7  1  0.84924400  0.15075600  0.13602300  1
  Zn  Zn8  1  0.43477400  0.56522600  0.57735900  1
  Zn  Zn9  1  0.56522600  0.43477400  0.07735900  1
  Ge  Ge0  1  0.22945300  0.77054700  0.49723900  1
  Ge  Ge1  1  0.77054700  0.22945300  0.99723900  1
  Ge  Ge2  1  0.43075500  0.56924500  0.85609000  1
  Ge  Ge3  1  0.56924500  0.43075500  0.35609000  1
  Ge  Ge4  1  0.22445400  0.77554600  0.77807300  1
  Ge  Ge5  1  0.77554600  0.22445400  0.27807300  1
  Ge  Ge6  1  0.55944000  0.44056000  0.90886700  1
  Ge  Ge7  1  0.44056000  0.55944000  0.40886700  1
  Ge  Ge8  1  0.56701700  0.43298300  0.63419600  1
  Ge  Ge9  1  0.43298300  0.56701700  0.13419600  1
  Ge  Ge10  1  0.11104900  0.88895100  0.14585600  1
  Ge  Ge11  1  0.88895100  0.11104900  0.64585600  1
loop_
_geom_bond_atom_site_label_1
_geom_bond_atom_site_label_2
_geom_bond_distance
_geom_bond_site_symmetry_2
Dy0 Ge11 2.999257 1_465
Dy0 Ge8 3.047086 1_455
Dy0 Ge8 3.047086 1_565
Dy0 Ge2 3.061348 1_455
Dy0 Ge2 3.061348 1_565
Dy0 Zn6 3.103022 1_555
Dy0 Ge6 3.184341 1_455
Dy0 Ge6 3.184341 1_565
Dy0 Zn4 3.238270 1_455
Dy0 Zn4 3.238270 1_565
Dy1 Ge10 2.999257 1_645
Dy1 Ge9 3.047086 1_545
Dy1 Ge9 3.047086 1_655
Dy1 Ge3 3.061348 1_545
Dy1 Ge3 3.061348 1_655
Dy1 Zn7 3.103022 1_555
Dy1 Ge7 3.184341 1_545
Dy1 Ge7 3.184341 1_655
Dy1 Zn5 3.238270 1_545
Dy1 Zn5 3.238270 1_655
Dy2 Ge10 2.885421 1_555
Dy2 Ge0 2.889224 1_555
Dy2 Ge5 2.912543 1_565
Dy2 Ge5 2.912543 1_455
Dy2 Ge3 2.978998 1_565
Dy2 Ge3 2.978998 1_455
Dy3 Ge11 2.885421 1_555
Dy3 Ge1 2.889224 1_555
Dy3 Ge4 2.912543 1_655
Dy3 Ge4 2.912543 1_545
Dy3 Ge2 2.978998 1_655
Dy3 Ge2 2.978998 1_545
Dy4 Ge1 2.940630 1_455
Dy4 Ge1 2.940630 1_565
Dy4 Ge4 2.950515 1_555
Dy4 Ge10 3.018328 1_556
Dy4 Ge6 3.044213 1_455
Dy4 Ge6 3.044213 1_565
Dy5 Ge0 2.940630 1_545
Dy5 Ge0 2.940630 1_655
Dy5 Ge5 2.950515 1_555
Dy5 Ge11 3.018328 1_555
Dy5 Ge7 3.044213 1_545
Dy5 Ge7 3.044213 1_655
Dy6 Zn6 3.001819 1_555
Dy6 Ge8 3.034713 1_455
Dy6 Ge8 3.034713 1_565
Dy6 Zn8 3.054529 1_455
Dy6 Zn8 3.054529 1_565
Dy6 Ge7 3.086444 1_455
Dy6 Ge7 3.086444 1_565
Dy6 Zn1 3.120257 1_455
Dy6 Zn1 3.120257 1_565
Dy6 Ge3 3.154073 1_565
Dy6 Ge3 3.154073 1_455
Dy6 Ge11 3.458022 1_465
Dy7 Zn7 3.001819 1_555
Dy7 Ge9 3.034713 1_655
Dy7 Ge9 3.034713 1_545
Dy7 Zn9 3.054529 1_655
Dy7 Zn9 3.054529 1_545
Dy7 Ge6 3.086444 1_654
Dy7 Ge6 3.086444 1_544
Dy7 Zn0 3.120257 1_544
Dy7 Zn0 3.120257 1_654
Dy7 Ge2 3.154073 1_544
Dy7 Ge2 3.154073 1_654
Dy7 Ge10 3.458022 1_645
Ge0 Zn2 2.517422 1_555
Ge0 Zn6 2.562549 1_555
Ge0 Zn1 2.578572 1_455
Ge0 Zn1 2.578572 1_565
Ge1 Zn3 2.517422 1_556
Ge1 Zn7 2.562549 1_556
Ge1 Zn0 2.578572 1_655
Ge1 Zn0 2.578572 1_545
Ge2 Ge6 2.512721 1_555
Ge2 Zn0 2.559321 1_555
Ge3 Ge7 2.512721 1_555
Ge3 Zn1 2.559321 1_555
Ge4 Zn2 2.538509 1_555
Ge4 Zn6 2.552936 1_555
Ge4 Zn4 2.579571 1_455
Ge4 Zn4 2.579571 1_565
Ge5 Zn3 2.538509 1_555
Ge5 Zn7 2.552936 1_555
Ge5 Zn5 2.579571 1_545
Ge5 Zn5 2.579571 1_655
Ge6 Zn4 2.528941 1_555
Ge6 Zn9 2.562096 1_556
Ge7 Zn5 2.528941 1_555
Ge7 Zn8 2.562096 1_555
Ge8 Zn8 2.595074 1_555
Ge8 Zn6 2.661156 1_545
Ge8 Zn6 2.661156 1_655
Ge8 Zn4 2.715307 1_555
Ge8 Zn1 2.725944 1_555
Ge9 Zn9 2.595074 1_555
Ge9 Zn7 2.661156 1_565
Ge9 Zn7 2.661156 1_455
Ge9 Zn5 2.715307 1_555
Ge9 Zn0 2.725944 1_554
Ge10 Zn9 2.545918 1_455
Ge10 Zn9 2.545918 1_565
Ge10 Zn3 2.718204 1_455
Ge10 Zn3 2.718204 1_565
Ge11 Zn8 2.545918 1_545
Ge11 Zn8 2.545918 1_655
Ge11 Zn2 2.718204 1_545
Ge11 Zn2 2.718204 1_655
