# generated using pymatgen
data_KLa5V2O13
_symmetry_space_group_name_H-M   'P 1'
_cell_length_a   5.97096400
_cell_length_b   10.61767579
_cell_length_c   12.36016212
_cell_angle_alpha   66.54636106
_cell_angle_beta   76.02250944
_cell_angle_gamma   73.66933453
_symmetry_Int_Tables_number   1
_chemical_formula_structural   KLa5V2O13
_chemical_formula_sum   'K2 La10 V4 O26'
_cell_volume   682.34483874
_cell_formula_units_Z   2
loop_
 _symmetry_equiv_pos_site_id
 _symmetry_equiv_pos_as_xyz
  1  'x, y, z'
loop_
 _atom_site_type_symbol
 _atom_site_label
 _atom_site_symmetry_multiplicity
 _atom_site_fract_x
 _atom_site_fract_y
 _atom_site_fract_z
 _atom_site_occupancy
  K  K0  1  0.24885900  0.50000000  0.50000000  1
  K  K1  1  0.75114100  0.50000000  0.50000000  1
  La  La0  1  0.23625900  0.76854500  0.75893700  1
  La  La1  1  0.76374100  0.23145500  0.24106300  1
  La  La2  1  0.19213500  0.52955600  0.08617500  1
  La  La3  1  0.80786500  0.47044400  0.91382500  1
  La  La4  1  0.66402900  0.05630500  0.61563600  1
  La  La5  1  0.33597100  0.94369500  0.38436400  1
  La  La6  1  0.60854200  0.84125300  0.94166200  1
  La  La7  1  0.39145800  0.15874700  0.05833800  1
  La  La8  1  0.03078600  0.10305800  0.83536900  1
  La  La9  1  0.96921400  0.89694200  0.16463100  1
  V  V0  1  0.15760800  0.24299800  0.44178700  1
  V  V1  1  0.84239200  0.75700200  0.55821300  1
  V  V2  1  0.43944800  0.35925500  0.76185000  1
  V  V3  1  0.56055200  0.64074500  0.23815000  1
  O  O0  1  0.38747200  0.95680400  0.77066400  1
  O  O1  1  0.88505900  0.95680400  0.77066400  1
  O  O2  1  0.61252800  0.04319600  0.22933600  1
  O  O3  1  0.11494100  0.04319600  0.22933600  1
  O  O4  1  0.97662300  0.14494700  0.42805400  1
  O  O5  1  0.45037600  0.14494700  0.42805400  1
  O  O6  1  0.02337700  0.85505300  0.57194600  1
  O  O7  1  0.54962400  0.85505300  0.57194600  1
  O  O8  1  0.13131800  0.40544000  0.33192500  1
  O  O9  1  0.86868200  0.59456000  0.66807500  1
  O  O10  1  0.34025400  0.69879100  0.14655200  1
  O  O11  1  0.81440300  0.69879100  0.14655200  1
  O  O12  1  0.65974600  0.30120900  0.85344800  1
  O  O13  1  0.18559700  0.30120900  0.85344800  1
  O  O14  1  0.46258900  0.64937100  0.91751500  1
  O  O15  1  0.97052400  0.64937100  0.91751500  1
  O  O16  1  0.53741100  0.35062900  0.08248500  1
  O  O17  1  0.02947600  0.35062900  0.08248500  1
  O  O18  1  0.53237400  0.28260200  0.65265100  1
  O  O19  1  0.46762600  0.71739800  0.34734900  1
  O  O20  1  0.08141300  0.25564900  0.58152600  1
  O  O21  1  0.91858700  0.74435100  0.41847400  1
  O  O22  1  0.38261100  0.53865300  0.69612500  1
  O  O23  1  0.61738900  0.46134700  0.30387500  1
  O  O24  1  0.24275800  0.00000000  0.00000000  1
  O  O25  1  0.75724200  0.00000000  0.00000000  1
loop_
_geom_bond_atom_site_label_1
_geom_bond_atom_site_label_2
_geom_bond_distance
_geom_bond_site_symmetry_2
K0 O19 2.762704 1_555
K0 O18 2.762707 1_555
K0 O20 2.763537 1_555
K0 O21 2.763540 1_455
K0 O8 2.928691 1_555
K0 O9 2.928694 1_455
K0 O23 2.931582 1_555
K0 O22 2.931582 1_555
K1 O18 2.762704 1_555
K1 O19 2.762707 1_555
K1 O21 2.763537 1_555
K1 O20 2.763540 1_655
K1 O9 2.928691 1_555
K1 O8 2.928694 1_655
K1 O23 2.931582 1_555
K1 O22 2.931582 1_555
La0 O14 2.369164 1_555
La0 O15 2.369168 1_455
La0 O0 2.478000 1_555
La0 O1 2.478004 1_455
La0 O7 2.621831 1_555
La0 O6 2.621831 1_555
La0 O22 2.702902 1_555
La1 O16 2.369164 1_555
La1 O17 2.369168 1_655
La1 O2 2.478000 1_555
La1 O3 2.478004 1_655
La1 O5 2.621831 1_555
La1 O4 2.621831 1_555
La1 O23 2.702902 1_555
La2 O16 2.383814 1_555
La2 O17 2.383814 1_555
La2 O14 2.447447 1_554
La2 O15 2.447454 1_454
La2 O10 2.616839 1_555
La2 O11 2.616843 1_455
La2 O8 2.764940 1_555
La3 O15 2.383814 1_555
La3 O14 2.383814 1_555
La3 O16 2.447447 1_556
La3 O17 2.447454 1_656
La3 O12 2.616839 1_555
La3 O13 2.616843 1_655
La3 O9 2.764940 1_555
La4 O0 2.314249 1_545
La4 O1 2.314249 1_545
La4 O18 2.497917 1_555
La4 O5 2.627837 1_555
La4 O4 2.627841 1_555
La4 O7 2.691078 1_545
La4 O6 2.691081 1_645
La5 O2 2.314249 1_565
La5 O3 2.314249 1_565
La5 O19 2.497917 1_555
La5 O7 2.627837 1_555
La5 O6 2.627841 1_555
La5 O5 2.691078 1_565
La5 O4 2.691081 1_465
La6 O1 2.467320 1_555
La6 O0 2.467320 1_555
La6 O24 2.503514 1_566
La6 O25 2.503517 1_566
La6 O14 2.570499 1_555
La6 O15 2.570499 1_555
La6 O10 2.760660 1_556
La6 O11 2.760663 1_556
La7 O2 2.467320 1_555
La7 O3 2.467320 1_555
La7 O25 2.503514 1_555
La7 O24 2.503517 1_555
La7 O17 2.570499 1_555
La7 O16 2.570499 1_555
La7 O12 2.760660 1_554
La7 O13 2.760663 1_554
La8 O25 2.373364 1_456
La8 O24 2.373368 1_556
La8 O1 2.427513 1_445
La8 O0 2.427513 1_545
La8 O12 2.626495 1_455
La8 O13 2.626499 1_555
La8 O20 2.886401 1_555
La9 O24 2.373364 1_665
La9 O25 2.373368 1_565
La9 O3 2.427513 1_665
La9 O2 2.427513 1_565
La9 O10 2.626495 1_655
La9 O11 2.626499 1_555
La9 O21 2.886401 1_555
O4 V0 1.772687 1_655
O5 V0 1.772683 1_555
O6 V1 1.772687 1_455
O7 V1 1.772683 1_555
O8 V0 1.711651 1_555
O9 V1 1.711651 1_555
O10 V3 1.760678 1_555
O11 V3 1.760682 1_555
O12 V2 1.760678 1_555
O13 V2 1.760682 1_555
O18 V2 1.746622 1_555
O19 V3 1.746622 1_555
O20 V0 1.725962 1_555
O21 V1 1.725962 1_555
O22 V2 1.715008 1_555
O23 V3 1.715008 1_555
