# generated using pymatgen
data_Li6Er(BO3)3
_symmetry_space_group_name_H-M   'P 1'
_cell_length_a   16.27198811
_cell_length_b   6.56769472
_cell_length_c   7.10587773
_cell_angle_alpha   74.93679751
_cell_angle_beta   90.00000000
_cell_angle_gamma   90.00000000
_symmetry_Int_Tables_number   1
_chemical_formula_structural   Li6Er(BO3)3
_chemical_formula_sum   'Li24 Er4 B12 O36'
_cell_volume   733.30802111
_cell_formula_units_Z   4
loop_
 _symmetry_equiv_pos_site_id
 _symmetry_equiv_pos_as_xyz
  1  'x, y, z'
loop_
 _atom_site_type_symbol
 _atom_site_label
 _atom_site_symmetry_multiplicity
 _atom_site_fract_x
 _atom_site_fract_y
 _atom_site_fract_z
 _atom_site_occupancy
  Li  Li0  1  0.96514823  0.94450666  0.19645551  1
  Li  Li1  1  0.03485177  0.05549334  0.80354449  1
  Li  Li2  1  0.46514823  0.55549334  0.80354449  1
  Li  Li3  1  0.53485177  0.44450666  0.19645551  1
  Li  Li4  1  0.55412623  0.91313353  0.63364135  1
  Li  Li5  1  0.44587377  0.08686647  0.36635865  1
  Li  Li6  1  0.05412623  0.58686647  0.36635865  1
  Li  Li7  1  0.94587377  0.41313353  0.63364135  1
  Li  Li8  1  0.47048236  0.82911934  0.04449171  1
  Li  Li9  1  0.52951764  0.17088066  0.95550829  1
  Li  Li10  1  0.97048236  0.67088066  0.95550829  1
  Li  Li11  1  0.02951764  0.32911934  0.04449171  1
  Li  Li12  1  0.70552110  0.86671604  0.78612795  1
  Li  Li13  1  0.29447890  0.13328396  0.21387205  1
  Li  Li14  1  0.20552110  0.63328396  0.21387205  1
  Li  Li15  1  0.79447890  0.36671604  0.78612795  1
  Li  Li16  1  0.79486156  0.95539378  0.06366571  1
  Li  Li17  1  0.20513844  0.04460622  0.93633429  1
  Li  Li18  1  0.29486156  0.54460622  0.93633429  1
  Li  Li19  1  0.70513844  0.45539378  0.06366571  1
  Li  Li20  1  0.99570485  0.82313250  0.57149668  1
  Li  Li21  1  0.00429515  0.17686750  0.42850332  1
  Li  Li22  1  0.49570485  0.67686750  0.42850332  1
  Li  Li23  1  0.50429515  0.32313250  0.57149668  1
  Er  Er0  1  0.69031004  0.65343569  0.42114114  1
  Er  Er1  1  0.30968996  0.34656431  0.57885886  1
  Er  Er2  1  0.19031004  0.84656431  0.57885886  1
  Er  Er3  1  0.80968996  0.15343569  0.42114114  1
  B  B0  1  0.87870564  0.00061726  0.78714745  1
  B  B1  1  0.12129436  0.99938274  0.21285255  1
  B  B2  1  0.37870564  0.49938274  0.21285255  1
  B  B3  1  0.62129436  0.50061726  0.78714745  1
  B  B4  1  0.61566648  0.81144897  0.06086961  1
  B  B5  1  0.38433352  0.18855103  0.93913039  1
  B  B6  1  0.11566648  0.68855103  0.93913039  1
  B  B7  1  0.88433352  0.31144897  0.06086961  1
  B  B8  1  0.86458333  0.66204059  0.41517031  1
  B  B9  1  0.13541667  0.33795941  0.58482969  1
  B  B10  1  0.36458333  0.83795941  0.58482969  1
  B  B11  1  0.63541667  0.16204059  0.41517031  1
  O  O0  1  0.94749025  0.67541497  0.40993291  1
  O  O1  1  0.05250975  0.32458503  0.59006709  1
  O  O2  1  0.44749025  0.82458503  0.59006709  1
  O  O3  1  0.55250975  0.17541497  0.40993291  1
  O  O4  1  0.69909473  0.77077983  0.08110814  1
  O  O5  1  0.30090527  0.22922017  0.91889186  1
  O  O6  1  0.19909473  0.72922017  0.91889186  1
  O  O7  1  0.80090527  0.27077983  0.08110814  1
  O  O8  1  0.81437894  0.83648251  0.35457793  1
  O  O9  1  0.18562106  0.16351749  0.64542207  1
  O  O10  1  0.31437894  0.66351749  0.64542207  1
  O  O11  1  0.68562106  0.33648251  0.35457793  1
  O  O12  1  0.56825969  0.72987275  0.22480602  1
  O  O13  1  0.43174031  0.27012725  0.77519398  1
  O  O14  1  0.06825969  0.77012725  0.77519398  1
  O  O15  1  0.93174031  0.22987275  0.22480602  1
  O  O16  1  0.41136149  0.58677054  0.03378394  1
  O  O17  1  0.58863851  0.41322946  0.96621606  1
  O  O18  1  0.91136149  0.91322946  0.96621606  1
  O  O19  1  0.08863851  0.08677054  0.03378394  1
  O  O20  1  0.57941841  0.92455438  0.89170020  1
  O  O21  1  0.42058159  0.07544562  0.10829980  1
  O  O22  1  0.07941841  0.57544562  0.10829980  1
  O  O23  1  0.92058159  0.42455438  0.89170020  1
  O  O24  1  0.42583126  0.45724472  0.38094039  1
  O  O25  1  0.57416874  0.54275528  0.61905961  1
  O  O26  1  0.92583126  0.04275528  0.61905961  1
  O  O27  1  0.07416874  0.95724472  0.38094039  1
  O  O28  1  0.67422054  0.97036075  0.49246130  1
  O  O29  1  0.32577946  0.02963925  0.50753870  1
  O  O30  1  0.17422054  0.52963925  0.50753870  1
  O  O31  1  0.82577946  0.47036075  0.49246130  1
  O  O32  1  0.20341647  0.94136035  0.23965128  1
  O  O33  1  0.79658353  0.05863965  0.76034872  1
  O  O34  1  0.70341647  0.55863965  0.76034872  1
  O  O35  1  0.29658353  0.44136035  0.23965128  1
loop_
_geom_bond_atom_site_label_1
_geom_bond_atom_site_label_2
_geom_bond_distance
_geom_bond_site_symmetry_2
Li0 O18 1.912996 1_554
Li0 O15 2.011209 1_565
Li0 O0 2.028205 1_555
Li0 O27 2.220257 1_655
Li0 O19 2.384453 1_665
Li1 O19 1.912996 1_556
Li1 O14 2.011209 1_545
Li1 O1 2.028205 1_555
Li1 O26 2.220257 1_455
Li1 O18 2.384453 1_445
Li2 O16 1.912996 1_556
Li2 O13 2.011209 1_555
Li2 O2 2.028205 1_555
Li2 O25 2.220257 1_555
Li2 O17 2.384453 1_555
Li3 O17 1.912996 1_554
Li3 O12 2.011209 1_555
Li3 O3 2.028205 1_555
Li3 O24 2.220257 1_555
Li3 O16 2.384453 1_555
Li4 O2 1.881097 1_555
Li4 O20 1.899757 1_555
Li4 O3 2.017840 1_565
Li4 O28 2.184148 1_555
Li4 O25 2.483005 1_555
Li5 O3 1.881097 1_555
Li5 O21 1.899757 1_555
Li5 O2 2.017840 1_545
Li5 O29 2.184148 1_555
Li5 O24 2.483005 1_555
Li6 O0 1.881097 1_455
Li6 O22 1.899757 1_555
Li6 O1 2.017840 1_555
Li6 O30 2.184148 1_555
Li6 O27 2.483005 1_555
Li7 O1 1.881097 1_655
Li7 O23 1.899757 1_555
Li7 O0 2.017840 1_555
Li7 O31 2.184148 1_555
Li7 O26 2.483005 1_555
Li8 O16 1.878199 1_555
Li8 O21 1.965561 1_565
Li8 O12 2.040555 1_555
Li8 O20 2.088078 1_554
Li9 O17 1.878199 1_555
Li9 O20 1.965561 1_545
Li9 O13 2.040555 1_555
Li9 O21 2.088078 1_556
Li10 O18 1.878199 1_555
Li10 O23 1.965561 1_555
Li10 O14 2.040555 1_655
Li10 O22 2.088078 1_656
Li11 O19 1.878199 1_555
Li11 O22 1.965561 1_555
Li11 O15 2.040555 1_455
Li11 O23 2.088078 1_454
Li12 O33 1.923024 1_565
Li12 O4 2.028566 1_556
Li12 O34 2.078781 1_555
Li12 O28 2.083031 1_555
Li12 O20 2.250701 1_555
Li13 O32 1.923024 1_545
Li13 O5 2.028566 1_554
Li13 O35 2.078781 1_555
Li13 O29 2.083031 1_555
Li13 O21 2.250701 1_555
Li14 O35 1.923024 1_555
Li14 O6 2.028566 1_554
Li14 O32 2.078781 1_555
Li14 O30 2.083031 1_555
Li14 O22 2.250701 1_555
Li15 O34 1.923024 1_555
Li15 O7 2.028566 1_556
Li15 O33 2.078781 1_555
Li15 O31 2.083031 1_555
Li15 O23 2.250701 1_555
Li16 O4 1.958502 1_555
Li16 O8 2.035907 1_555
Li16 O18 2.061429 1_554
Li16 O33 2.084803 1_564
Li16 O7 2.109266 1_565
Li17 O5 1.958502 1_555
Li17 O9 2.035907 1_555
Li17 O19 2.061429 1_556
Li17 O32 2.084803 1_546
Li17 O6 2.109266 1_545
Li18 O6 1.958502 1_555
Li18 O10 2.035907 1_555
Li18 O16 2.061429 1_556
Li18 O35 2.084803 1_556
Li18 O5 2.109266 1_555
Li19 O7 1.958502 1_555
Li19 O11 2.035907 1_555
Li19 O17 2.061429 1_554
Li19 O34 2.084803 1_554
Li19 O4 2.109266 1_555
Li20 O14 1.829818 1_655
Li20 O0 1.858406 1_555
Li20 O27 1.902508 1_655
Li20 O26 1.934142 1_565
Li21 O15 1.829818 1_455
Li21 O1 1.858406 1_555
Li21 O26 1.902508 1_455
Li21 O27 1.934142 1_545
Li22 O12 1.829818 1_555
Li22 O2 1.858406 1_555
Li22 O25 1.902508 1_555
Li22 O24 1.934142 1_555
Li23 O13 1.829818 1_555
Li23 O3 1.858406 1_555
Li23 O24 1.902508 1_555
Li23 O25 1.934142 1_555
Er0 O11 2.252683 1_555
Er0 O28 2.281705 1_555
Er0 O8 2.334349 1_555
Er0 O34 2.337300 1_555
Er0 O4 2.341939 1_555
Er0 O25 2.355097 1_555
Er0 O12 2.403869 1_555
Er0 O31 2.499004 1_555
Er1 O10 2.252683 1_555
Er1 O29 2.281705 1_555
Er1 O9 2.334349 1_555
Er1 O35 2.337300 1_555
Er1 O5 2.341939 1_555
Er1 O24 2.355097 1_555
Er1 O13 2.403869 1_555
Er1 O30 2.499004 1_555
Er2 O9 2.252683 1_565
Er2 O30 2.281705 1_555
Er2 O10 2.334349 1_555
Er2 O32 2.337300 1_555
Er2 O6 2.341939 1_555
Er2 O27 2.355097 1_555
Er2 O14 2.403869 1_555
Er2 O29 2.499004 1_565
Er3 O8 2.252683 1_545
Er3 O31 2.281705 1_555
Er3 O11 2.334349 1_555
Er3 O33 2.337300 1_555
Er3 O7 2.341939 1_555
Er3 O26 2.355097 1_555
Er3 O15 2.403869 1_555
Er3 O28 2.499004 1_545
B0 O18 1.360617 1_545
B0 O26 1.385432 1_555
B0 O33 1.389040 1_555
B1 O19 1.360617 1_565
B1 O27 1.385432 1_555
B1 O32 1.389040 1_555
B2 O16 1.360617 1_555
B2 O24 1.385432 1_555
B2 O35 1.389040 1_555
B3 O17 1.360617 1_555
B3 O25 1.385432 1_555
B3 O34 1.389040 1_555
B4 O20 1.371354 1_554
B4 O12 1.383738 1_555
B4 O4 1.383830 1_555
B5 O21 1.371354 1_556
B5 O13 1.383738 1_555
B5 O5 1.383830 1_555
B6 O22 1.371354 1_556
B6 O14 1.383738 1_555
B6 O6 1.383830 1_555
B7 O23 1.371354 1_554
B7 O15 1.383738 1_555
B7 O7 1.383830 1_555
B8 O0 1.351801 1_555
B8 O8 1.381644 1_555
B8 O31 1.387722 1_555
B9 O1 1.351801 1_555
B9 O9 1.381644 1_555
B9 O30 1.387722 1_555
B10 O2 1.351801 1_555
B10 O10 1.381644 1_555
B10 O29 1.387722 1_565
B11 O3 1.351801 1_555
B11 O11 1.381644 1_555
B11 O28 1.387722 1_545
