# generated using pymatgen
data_P5N6(Cl4O)2
_symmetry_space_group_name_H-M   'P 1'
_cell_length_a   8.27110500
_cell_length_b   11.42621234
_cell_length_c   12.33184965
_cell_angle_alpha   100.44002999
_cell_angle_beta   99.77667140
_cell_angle_gamma   101.60729962
_symmetry_Int_Tables_number   1
_chemical_formula_structural   P5N6(Cl4O)2
_chemical_formula_sum   'P10 N12 Cl16 O4'
_cell_volume   1096.67940088
_cell_formula_units_Z   2
loop_
 _symmetry_equiv_pos_site_id
 _symmetry_equiv_pos_as_xyz
  1  'x, y, z'
loop_
 _atom_site_type_symbol
 _atom_site_label
 _atom_site_symmetry_multiplicity
 _atom_site_fract_x
 _atom_site_fract_y
 _atom_site_fract_z
 _atom_site_occupancy
  P  P0  1  0.18332200  0.32405600  0.63468600  1
  P  P1  1  0.81667800  0.67594400  0.36531400  1
  P  P2  1  0.50854100  0.24756100  0.31675600  1
  P  P3  1  0.49145900  0.75243900  0.68324400  1
  P  P4  1  0.42374800  0.21549800  0.08906800  1
  P  P5  1  0.57625200  0.78450200  0.91093200  1
  P  P6  1  0.10998300  0.84102500  0.31243800  1
  P  P7  1  0.89001700  0.15897500  0.68756200  1
  P  P8  1  0.25475500  0.34603500  0.23037100  1
  P  P9  1  0.74524500  0.65396500  0.76962900  1
  N  N0  1  0.30103400  0.30310500  0.11162700  1
  N  N1  1  0.69896600  0.69689500  0.88837300  1
  N  N2  1  0.00203900  0.75535200  0.37477700  1
  N  N3  1  0.99796100  0.24464800  0.62522300  1
  N  N4  1  0.36383700  0.31232700  0.33874900  1
  N  N5  1  0.63616300  0.68767300  0.66125100  1
  N  N6  1  0.67932000  0.27581400  0.43277000  1
  N  N7  1  0.32068000  0.72418600  0.56723000  1
  N  N8  1  0.58100900  0.17590200  0.42472100  1
  N  N9  1  0.41899100  0.82409800  0.57527900  1
  N  N10  1  0.55086900  0.19817700  0.19958000  1
  N  N11  1  0.44913100  0.80182300  0.80042000  1
  Cl  Cl0  1  0.74777600  0.54740900  0.21283100  1
  Cl  Cl1  1  0.25222400  0.45259100  0.78716900  1
  Cl  Cl2  1  0.03367000  0.78019500  0.13965200  1
  Cl  Cl3  1  0.96633000  0.21980500  0.86034800  1
  Cl  Cl4  1  0.35067800  0.21689400  0.66125200  1
  Cl  Cl5  1  0.64932200  0.78310600  0.33874800  1
  Cl  Cl6  1  0.43207400  0.72796700  0.01312300  1
  Cl  Cl7  1  0.56792600  0.27203300  0.98687700  1
  Cl  Cl8  1  0.01164000  0.27488900  0.22316700  1
  Cl  Cl9  1  0.98836000  0.72511100  0.77683300  1
  Cl  Cl10  1  0.27781300  0.52516400  0.26393600  1
  Cl  Cl11  1  0.72218700  0.47483600  0.73606400  1
  Cl  Cl12  1  0.04488800  0.00660200  0.33448400  1
  Cl  Cl13  1  0.95511200  0.99339800  0.66551600  1
  Cl  Cl14  1  0.29169600  0.04746000  0.00514300  1
  Cl  Cl15  1  0.70830400  0.95254000  0.99485700  1
  O  O0  1  0.70346200  0.13946600  0.65684600  1
  O  O1  1  0.29653800  0.86053400  0.34315400  1
  O  O2  1  0.21493300  0.38789300  0.54356000  1
  O  O3  1  0.78506700  0.61210700  0.45644000  1
loop_
_geom_bond_atom_site_label_1
_geom_bond_atom_site_label_2
_geom_bond_distance
_geom_bond_site_symmetry_2
N0 P4 1.585380 1_555
N0 P8 1.592798 1_555
N1 P5 1.585380 1_555
N1 P9 1.592798 1_555
N2 P6 1.581302 1_555
N2 P1 1.590120 1_455
N3 P7 1.581302 1_555
N3 P0 1.590120 1_655
N4 P2 1.564481 1_555
N4 P8 1.632626 1_555
N5 P3 1.564481 1_555
N5 P9 1.632626 1_555
N6 N8 1.237864 1_555
N6 P2 1.763256 1_555
N7 N9 1.237864 1_555
N7 P3 1.763256 1_555
N8 P2 1.767451 1_555
N9 P3 1.767451 1_555
N10 P2 1.576323 1_555
N10 P4 1.642193 1_555
N11 P3 1.576323 1_555
N11 P5 1.642193 1_555
Cl0 P1 2.077509 1_555
Cl1 P0 2.077509 1_555
Cl2 P6 2.061955 1_555
Cl3 P7 2.061955 1_555
Cl4 P0 2.048437 1_555
Cl5 P1 2.048437 1_555
Cl6 P5 1.980633 1_554
Cl7 P4 1.980633 1_556
Cl8 P8 1.991869 1_555
Cl9 P9 1.991869 1_555
Cl10 P8 1.976368 1_555
Cl11 P9 1.976368 1_555
Cl12 P6 2.053376 1_545
Cl13 P7 2.053376 1_565
Cl14 P4 2.000664 1_555
Cl15 P5 2.000664 1_555
O0 P7 1.485449 1_555
O1 P6 1.485449 1_555
O2 P0 1.477609 1_555
O3 P1 1.477609 1_555
