# generated using pymatgen
data_Mg2CuIrO6
_symmetry_space_group_name_H-M   'P 1'
_cell_length_a   5.30347800
_cell_length_b   5.07294800
_cell_length_c   9.16550183
_cell_angle_alpha   57.35212348
_cell_angle_beta   90.00000000
_cell_angle_gamma   90.00000000
_symmetry_Int_Tables_number   1
_chemical_formula_structural   Mg2CuIrO6
_chemical_formula_sum   'Mg4 Cu2 Ir2 O12'
_cell_volume   207.63019161
_cell_formula_units_Z   2
loop_
 _symmetry_equiv_pos_site_id
 _symmetry_equiv_pos_as_xyz
  1  'x, y, z'
loop_
 _atom_site_type_symbol
 _atom_site_label
 _atom_site_symmetry_multiplicity
 _atom_site_fract_x
 _atom_site_fract_y
 _atom_site_fract_z
 _atom_site_occupancy
  Mg  Mg0  1  0.93075100  0.23154000  0.75291900  1
  Mg  Mg1  1  0.43075100  0.76846000  0.74708100  1
  Mg  Mg2  1  0.56924900  0.23154000  0.25291900  1
  Mg  Mg3  1  0.06924900  0.76846000  0.24708100  1
  Cu  Cu0  1  0.50000000  0.00000000  0.00000000  1
  Cu  Cu1  1  0.00000000  0.00000000  0.50000000  1
  Ir  Ir0  1  0.50000000  0.50000000  0.50000000  1
  Ir  Ir1  1  0.00000000  0.50000000  0.00000000  1
  O  O0  1  0.42656600  0.59149800  0.26496300  1
  O  O1  1  0.18247200  0.88770600  0.92798300  1
  O  O2  1  0.18925600  0.24969300  0.57902900  1
  O  O3  1  0.68925600  0.75030700  0.92097100  1
  O  O4  1  0.68247200  0.11229400  0.57201700  1
  O  O5  1  0.92656600  0.40850200  0.23503700  1
  O  O6  1  0.07343400  0.59149800  0.76496300  1
  O  O7  1  0.31752800  0.88770600  0.42798300  1
  O  O8  1  0.31074400  0.24969300  0.07902900  1
  O  O9  1  0.81752800  0.11229400  0.07201700  1
  O  O10  1  0.81074400  0.75030700  0.42097100  1
  O  O11  1  0.57343400  0.40850200  0.73503700  1
loop_
_geom_bond_atom_site_label_1
_geom_bond_atom_site_label_2
_geom_bond_distance
_geom_bond_site_symmetry_2
Mg0 O6 2.033900 1_655
Mg0 O11 2.065218 1_555
Mg0 O2 2.066364 1_655
Mg0 O1 2.092729 1_645
Mg0 O3 2.432182 1_545
Mg0 O4 2.435384 1_555
Mg0 O9 2.715038 1_556
Mg1 O11 2.033900 1_555
Mg1 O6 2.065218 1_555
Mg1 O3 2.066364 1_555
Mg1 O4 2.092729 1_565
Mg1 O2 2.432182 1_565
Mg1 O1 2.435384 1_555
Mg1 O7 2.715038 1_555
Mg2 O0 2.033900 1_555
Mg2 O5 2.065218 1_555
Mg2 O8 2.066364 1_555
Mg2 O7 2.092729 1_545
Mg2 O10 2.432182 1_545
Mg2 O9 2.435384 1_555
Mg2 O4 2.715038 1_555
Mg3 O5 2.033900 1_455
Mg3 O0 2.065218 1_555
Mg3 O10 2.066364 1_455
Mg3 O9 2.092729 1_465
Mg3 O8 2.432182 1_565
Mg3 O7 2.435384 1_555
Mg3 O1 2.715038 1_554
Cu0 O9 2.000445 1_555
Cu0 O1 2.000445 1_544
Cu0 O3 2.031387 1_544
Cu0 O8 2.031387 1_555
Cu0 O0 2.216727 1_545
Cu0 O11 2.216727 1_554
Cu1 O4 2.000445 1_455
Cu1 O7 2.000445 1_545
Cu1 O2 2.031387 1_555
Cu1 O10 2.031387 1_445
Cu1 O5 2.216727 1_455
Cu1 O6 2.216727 1_545
Ir0 O7 1.959548 1_555
Ir0 O4 1.959548 1_555
Ir0 O10 1.964854 1_555
Ir0 O2 1.964854 1_555
Ir0 O11 1.982165 1_555
Ir0 O0 1.982165 1_555
Ir1 O1 1.959548 1_554
Ir1 O9 1.959548 1_455
Ir1 O8 1.964854 1_555
Ir1 O3 1.964854 1_454
Ir1 O5 1.982165 1_455
Ir1 O6 1.982165 1_554
