# generated using pymatgen
data_Li3Ag2
_symmetry_space_group_name_H-M   'P 1'
_cell_length_a   3.24734973
_cell_length_b   3.24734973
_cell_length_c   15.28386135
_cell_angle_alpha   90.00000000
_cell_angle_beta   90.00000000
_cell_angle_gamma   90.00000000
_symmetry_Int_Tables_number   1
_chemical_formula_structural   Li3Ag2
_chemical_formula_sum   'Li6 Ag4'
_cell_volume   161.17260153
_cell_formula_units_Z   2
loop_
 _symmetry_equiv_pos_site_id
 _symmetry_equiv_pos_as_xyz
  1  'x, y, z'
loop_
 _atom_site_type_symbol
 _atom_site_label
 _atom_site_symmetry_multiplicity
 _atom_site_fract_x
 _atom_site_fract_y
 _atom_site_fract_z
 _atom_site_occupancy
  Li  Li0  1  0.50000000  0.50000000  0.11467653  1
  Li  Li1  1  0.50000000  0.50000000  0.30384445  1
  Li  Li2  1  0.50000000  0.50000000  0.50000000  1
  Li  Li3  1  0.50000000  0.50000000  0.69615555  1
  Li  Li4  1  0.50000000  0.50000000  0.88532347  1
  Li  Li5  1  -0.00000000  0.00000000  -0.00000000  1
  Ag  Ag0  1  0.00000000  0.00000000  0.20718661  1
  Ag  Ag1  1  0.00000000  -0.00000000  0.40207805  1
  Ag  Ag2  1  -0.00000000  -0.00000000  0.59792195  1
  Ag  Ag3  1  -0.00000000  0.00000000  0.79281339  1
loop_
_geom_bond_atom_site_label_1
_geom_bond_atom_site_label_2
_geom_bond_distance
_geom_bond_site_symmetry_2
Li0 Li5 2.888702 1_665
Li0 Li5 2.888702 1_565
Li0 Li5 2.888702 1_555
Li0 Li5 2.888702 1_655
Li0 Li1 2.891216 1_555
Li1 Li2 2.998014 1_555
Li2 Li3 2.998014 1_555
Li3 Li4 2.891216 1_555
Li4 Li5 2.888702 1_666
Li4 Li5 2.888702 1_556
Li4 Li5 2.888702 1_566
Li4 Li5 2.888702 1_656
Ag0 Li0 2.696625 1_445
Ag0 Li0 2.696625 1_545
Ag0 Li0 2.696625 1_455
Ag0 Li0 2.696625 1_555
Ag0 Li1 2.730397 1_455
Ag0 Li1 2.730397 1_545
Ag0 Li1 2.730397 1_445
Ag0 Li1 2.730397 1_555
Ag1 Li2 2.740899 1_555
Ag1 Li2 2.740899 1_445
Ag1 Li2 2.740899 1_545
Ag1 Li2 2.740899 1_455
Ag1 Li1 2.743503 1_545
Ag1 Li1 2.743503 1_445
Ag1 Li1 2.743503 1_455
Ag1 Li1 2.743503 1_555
Ag2 Li2 2.740899 1_555
Ag2 Li2 2.740899 1_445
Ag2 Li2 2.740899 1_545
Ag2 Li2 2.740899 1_455
Ag2 Li3 2.743503 1_445
Ag2 Li3 2.743503 1_455
Ag2 Li3 2.743503 1_545
Ag2 Li3 2.743503 1_555
Ag3 Li4 2.696625 1_445
Ag3 Li4 2.696625 1_545
Ag3 Li4 2.696625 1_455
Ag3 Li4 2.696625 1_555
Ag3 Li3 2.730397 1_445
Ag3 Li3 2.730397 1_455
Ag3 Li3 2.730397 1_545
Ag3 Li3 2.730397 1_555
