# generated using pymatgen
data_Si3N4
_symmetry_space_group_name_H-M   'P 1'
_cell_length_a   10.51802003
_cell_length_b   10.83717979
_cell_length_c   10.55776912
_cell_angle_alpha   89.04331139
_cell_angle_beta   87.75024158
_cell_angle_gamma   91.09395334
_symmetry_Int_Tables_number   1
_chemical_formula_structural   Si3N4
_chemical_formula_sum   'Si45 N60'
_cell_volume   1202.10431664
_cell_formula_units_Z   15
loop_
 _symmetry_equiv_pos_site_id
 _symmetry_equiv_pos_as_xyz
  1  'x, y, z'
loop_
 _atom_site_type_symbol
 _atom_site_label
 _atom_site_symmetry_multiplicity
 _atom_site_fract_x
 _atom_site_fract_y
 _atom_site_fract_z
 _atom_site_occupancy
  Si  Si0  1  0.03442000  0.63165800  0.56686000  1
  Si  Si1  1  0.77770200  0.61372700  0.45152400  1
  Si  Si2  1  0.67207300  0.78203100  0.72598900  1
  Si  Si3  1  0.19651100  0.59833000  0.28730700  1
  Si  Si4  1  0.22726300  0.31141500  0.29737600  1
  Si  Si5  1  0.61936500  0.55703400  0.86802200  1
  Si  Si6  1  0.64954300  0.79444200  0.01561800  1
  Si  Si7  1  0.03911200  0.90810100  0.68763300  1
  Si  Si8  1  0.30174700  0.57623500  0.83872200  1
  Si  Si9  1  0.14572500  0.34708700  0.99106800  1
  Si  Si10  1  0.31907400  0.67733200  0.53539100  1
  Si  Si11  1  0.45218900  0.75378100  0.18271500  1
  Si  Si12  1  0.74897700  0.15211100  0.04283900  1
  Si  Si13  1  0.58094000  0.31677800  0.18800700  1
  Si  Si14  1  0.65402300  0.39349900  0.62260200  1
  Si  Si15  1  0.47842500  0.00944000  0.01237900  1
  Si  Si16  1  0.97363200  0.48507400  0.14089300  1
  Si  Si17  1  0.43013500  0.92190000  0.76571600  1
  Si  Si18  1  0.33498100  0.88478500  0.35515800  1
  Si  Si19  1  0.95054900  0.95345900  0.99856600  1
  Si  Si20  1  0.75249000  0.99288400  0.56725100  1
  Si  Si21  1  0.07325600  0.12974900  0.80801000  1
  Si  Si22  1  0.20290300  0.13274800  0.05270700  1
  Si  Si23  1  0.22046100  0.12076000  0.41869800  1
  Si  Si24  1  0.41858000  0.75449300  0.90633500  1
  Si  Si25  1  0.53097500  0.58943400  0.60470800  1
  Si  Si26  1  0.91369900  0.86974100  0.46836600  1
  Si  Si27  1  0.94711200  0.18185700  0.48751800  1
  Si  Si28  1  0.47043100  0.24030000  0.44452100  1
  Si  Si29  1  0.95683500  0.38028200  0.66863500  1
  Si  Si30  1  0.88207400  0.02259300  0.24743300  1
  Si  Si31  1  0.09450700  0.69592700  0.98419100  1
  Si  Si32  1  0.87247000  0.30572400  0.24295400  1
  Si  Si33  1  0.44260100  0.97439000  0.55545000  1
  Si  Si34  1  0.97635400  0.42792400  0.39392400  1
  Si  Si35  1  0.69309000  0.56356200  0.15267900  1
  Si  Si36  1  0.22413700  0.94251300  0.16524700  1
  Si  Si37  1  0.64900200  0.87181500  0.38367400  1
  Si  Si38  1  0.82169800  0.20935400  0.73984500  1
  Si  Si39  1  0.96355800  0.55009100  0.87332600  1
  Si  Si40  1  0.45294700  0.49782400  0.33401700  1
  Si  Si41  1  0.39363100  0.46925500  0.04025300  1
  Si  Si42  1  0.69946100  0.99417000  0.85812200  1
  Si  Si43  1  0.58905100  0.05402000  0.24668300  1
  Si  Si44  1  0.95228500  0.74011600  0.19088800  1
  N  N0  1  0.96886300  0.77177700  0.61329700  1
  N  N1  1  0.57886100  0.73880500  0.61775500  1
  N  N2  1  0.93346500  0.57142400  0.45415200  1
  N  N3  1  0.50155400  0.88811600  0.29436900  1
  N  N4  1  0.74159300  0.27629600  0.14491300  1
  N  N5  1  0.76082900  0.90165800  0.97456400  1
  N  N6  1  0.47923600  0.84092400  0.03666900  1
  N  N7  1  0.56697400  0.28904700  0.55212300  1
  N  N8  1  0.98282800  0.98936800  0.83365200  1
  N  N9  1  0.60321500  0.46546700  0.25881200  1
  N  N10  1  0.00836000  0.43341300  0.98582800  1
  N  N11  1  0.47716300  0.34870000  0.07439000  1
  N  N12  1  0.17633900  0.64505300  0.46127700  1
  N  N13  1  0.53351300  0.00577300  0.85731800  1
  N  N14  1  0.23477000  0.99946800  0.31672400  1
  N  N15  1  0.57048300  0.48778800  0.73274400  1
  N  N16  1  0.70602800  0.50756900  0.99469800  1
  N  N17  1  0.24608200  0.71524000  0.91668300  1
  N  N18  1  0.62363000  0.72424800  0.86991800  1
  N  N19  1  0.10574600  0.99937700  0.07638900  1
  N  N20  1  0.44870700  0.59033000  0.93264200  1
  N  N21  1  0.60234900  0.97452900  0.50345200  1
  N  N22  1  0.01666500  0.52641200  0.70628500  1
  N  N23  1  0.75902100  0.76045100  0.41448100  1
  N  N24  1  0.75279900  0.14473200  0.87528200  1
  N  N25  1  0.79278000  0.35697100  0.69371300  1
  N  N26  1  0.88255500  0.07301500  0.08938700  1
  N  N27  1  0.44297400  0.59516000  0.46189400  1
  N  N28  1  0.28790600  0.79911700  0.22214400  1
  N  N29  1  0.26447100  0.44932200  0.94054100  1
  N  N30  1  0.45443600  0.24869400  0.81501700  1
  N  N31  1  0.59945700  0.08103400  0.08551200  1
  N  N32  1  0.99860200  0.33080800  0.51869500  1
  N  N33  1  0.73987100  0.92369900  0.71742900  1
  N  N34  1  0.18276800  0.00776900  0.73766100  1
  N  N35  1  0.15781000  0.20395300  0.91707800  1
  N  N36  1  0.04156400  0.96702700  0.53605500  1
  N  N37  1  0.54226400  0.19293500  0.30064700  1
  N  N38  1  0.37126000  0.25915200  0.75437600  1
  N  N39  1  0.98256600  0.80147300  0.03997800  1
  N  N40  1  0.72606900  0.97957500  0.28309400  1
  N  N41  1  0.36307900  0.57854000  0.21533500  1
  N  N42  1  0.95541800  0.87285400  0.29440500  1
  N  N43  1  0.91455800  0.16579200  0.32528600  1
  N  N44  1  0.85263700  0.59776800  0.18579900  1
  N  N45  1  0.34597800  0.84185700  0.50979600  1
  N  N46  1  0.07953200  0.09277000  0.51053700  1
  N  N47  1  0.37271400  0.35652400  0.36519400  1
  N  N48  1  0.19311900  0.27311100  0.13612300  1
  N  N49  1  0.34215300  0.61659200  0.68570000  1
  N  N50  1  0.33493200  0.04202700  0.07434000  1
  N  N51  1  0.98314300  0.24482500  0.75522700  1
  N  N52  1  0.29100100  0.00517300  0.77718200  1
  N  N53  1  0.36942600  0.10901200  0.49445600  1
  N  N54  1  0.08502400  0.63213000  0.16398700  1
  N  N55  1  0.80019000  0.55471900  0.88711500  1
  N  N56  1  0.67355400  0.52432000  0.52521600  1
  N  N57  1  0.12786900  0.44446400  0.31156000  1
  N  N58  1  0.61549000  0.70318400  0.15152000  1
  N  N59  1  0.82320400  0.13149300  0.59455500  1
loop_
_geom_bond_atom_site_label_1
_geom_bond_atom_site_label_2
_geom_bond_distance
_geom_bond_site_symmetry_2
N0 Si0 1.749269 1_655
N0 Si7 1.840400 1_655
N0 Si26 1.960635 1_555
N1 Si2 1.604593 1_555
N1 Si25 1.695524 1_555
N2 Si1 1.710805 1_555
N2 Si34 1.750305 1_555
N2 Si0 1.751647 1_655
N3 Si18 1.841549 1_555
N3 Si37 1.856089 1_555
N3 Si11 1.963438 1_555
N3 Si43 2.050168 1_565
N4 Si12 1.739104 1_555
N4 Si32 1.781627 1_555
N4 Si13 1.797037 1_555
N5 Si6 1.673151 1_556
N5 Si42 1.725970 1_555
N5 Si19 2.088773 1_555
N6 Si11 1.804712 1_555
N6 Si24 1.807481 1_554
N6 Si15 1.840139 1_565
N6 Si6 1.875849 1_555
N7 Si28 1.640398 1_555
N7 Si14 1.647837 1_555
N8 Si21 1.789738 1_665
N8 Si19 1.795589 1_555
N8 Si7 1.869848 1_655
N9 Si35 1.765786 1_555
N9 Si40 1.784202 1_555
N9 Si13 1.802715 1_555
N10 Si9 1.738363 1_555
N10 Si16 1.765944 1_456
N10 Si39 1.802292 1_455
N11 Si41 1.631461 1_555
N11 Si13 1.689193 1_555
N12 Si10 1.752093 1_555
N12 Si0 1.829626 1_555
N12 Si3 1.918218 1_555
N13 Si15 1.716384 1_556
N13 Si17 1.737227 1_545
N13 Si42 1.752703 1_545
N14 Si18 1.699125 1_555
N14 Si23 1.718040 1_565
N14 Si36 1.730746 1_555
N15 Si5 1.716406 1_555
N15 Si14 1.778250 1_555
N15 Si25 1.795899 1_555
N16 N55 1.550833 1_555
N16 Si5 1.731285 1_555
N16 Si35 1.785453 1_556
N17 Si31 1.728165 1_555
N17 Si8 1.823961 1_555
N17 Si24 1.854219 1_555
N18 Si2 1.689997 1_555
N18 Si6 1.755932 1_556
N18 Si5 1.812291 1_555
N18 Si24 2.207442 1_555
N19 Si36 1.706518 1_555
N19 Si22 1.762767 1_565
N19 Si19 1.917099 1_454
N20 Si41 1.793749 1_556
N20 Si24 1.831545 1_555
N20 Si8 1.874094 1_555
N20 Si5 1.937636 1_555
N21 Si33 1.747004 1_555
N21 Si20 1.750169 1_555
N21 Si37 1.760162 1_555
N22 Si29 1.750580 1_455
N22 Si0 1.848466 1_555
N22 Si39 1.852383 1_455
N23 Si1 1.648361 1_555
N23 Si37 1.723707 1_555
N23 Si26 2.096392 1_555
N24 Si38 1.710581 1_555
N24 Si42 1.729969 1_545
N24 Si12 1.771083 1_556
N25 Si38 1.700920 1_555
N25 Si14 1.717125 1_555
N25 Si29 1.748325 1_555
N26 Si12 1.742514 1_555
N26 Si30 1.746902 1_555
N26 Si19 1.769921 1_544
N27 Si40 1.728331 1_555
N27 Si10 1.755396 1_555
N27 Si25 1.800742 1_555
N28 Si18 1.777585 1_555
N28 Si36 1.807185 1_555
N28 Si11 1.839348 1_555
N29 Si9 1.716726 1_555
N29 Si8 1.760091 1_555
N29 Si41 1.763273 1_556
N30 N38 1.110603 1_555
N31 Si15 1.696523 1_555
N31 Si43 1.720659 1_555
N31 Si12 1.776534 1_555
N32 Si34 1.698539 1_555
N32 Si29 1.723132 1_555
N32 Si27 1.733688 1_555
N33 Si2 1.679962 1_555
N33 Si42 1.723669 1_555
N33 Si20 1.741753 1_555
N34 N52 1.228399 1_555
N34 Si21 1.910401 1_555
N34 Si7 1.935996 1_545
N35 Si21 1.687485 1_555
N35 Si22 1.703309 1_556
N35 Si9 1.752913 1_555
N36 N46 1.430918 1_565
N36 Si7 1.712165 1_555
N36 Si26 1.864799 1_455
N37 Si43 1.693535 1_555
N37 Si28 1.758519 1_555
N37 Si13 1.808003 1_555
N39 Si44 1.731703 1_555
N39 Si19 1.739595 1_554
N39 Si31 1.749563 1_654
N40 Si43 1.718468 1_565
N40 Si30 1.722774 1_565
N40 Si37 1.733017 1_555
N41 Si40 1.821163 1_555
N41 Si3 1.899485 1_555
N41 Si11 2.118624 1_555
N41 Si41 2.227957 1_555
N42 Si44 1.821634 1_555
N42 Si26 1.871102 1_555
N42 Si30 1.877584 1_565
N43 Si27 1.770590 1_555
N43 Si30 1.801403 1_555
N43 Si32 1.806392 1_555
N44 Si35 1.761367 1_555
N44 Si16 1.834995 1_555
N44 Si44 1.851114 1_555
N45 Si18 1.699062 1_555
N45 Si10 1.814051 1_555
N45 Si33 1.825900 1_555
N46 Si27 1.732376 1_455
N46 Si23 1.757706 1_555
N47 Si40 1.754245 1_555
N47 Si4 1.777987 1_555
N47 Si28 1.850949 1_555
N48 Si22 1.773037 1_555
N48 Si4 1.807099 1_555
N48 Si9 1.808525 1_554
N49 Si8 1.702166 1_555
N49 Si10 1.735518 1_555
N49 Si25 2.158595 1_555
N50 Si15 1.667656 1_555
N50 Si22 1.736878 1_555
N50 Si36 1.808836 1_545
N51 Si21 1.681531 1_655
N51 Si38 1.748266 1_555
N51 Si29 1.748674 1_555
N52 Si17 1.735168 1_545
N53 Si33 1.784916 1_545
N53 Si23 1.792615 1_555
N53 Si28 1.817739 1_555
N54 Si3 1.823382 1_555
N54 Si44 1.855202 1_455
N54 Si16 1.983948 1_455
N54 Si31 2.007477 1_554
N55 Si39 1.720519 1_555
N55 Si5 1.921021 1_555
N56 Si1 1.616008 1_555
N56 Si14 1.741532 1_555
N56 Si25 1.847327 1_555
N57 Si34 1.789712 1_455
N57 Si4 1.801896 1_555
N57 Si3 1.814537 1_555
N58 Si35 1.732960 1_555
N58 Si6 1.750378 1_555
N58 Si11 1.832178 1_555
N59 Si20 1.697446 1_545
N59 Si38 1.762677 1_555
N59 Si27 1.763542 1_555
