# generated using pymatgen
data_Sm2Fe17B3
_symmetry_space_group_name_H-M   'P 1'
_cell_length_a   6.56729185
_cell_length_b   6.56729185
_cell_length_c   6.56729201
_cell_angle_alpha   84.00218713
_cell_angle_beta   84.00218713
_cell_angle_gamma   84.00218414
_symmetry_Int_Tables_number   1
_chemical_formula_structural   Sm2Fe17B3
_chemical_formula_sum   'Sm2 Fe17 B3'
_cell_volume   278.89382220
_cell_formula_units_Z   1
loop_
 _symmetry_equiv_pos_site_id
 _symmetry_equiv_pos_as_xyz
  1  'x, y, z'
loop_
 _atom_site_type_symbol
 _atom_site_label
 _atom_site_symmetry_multiplicity
 _atom_site_fract_x
 _atom_site_fract_y
 _atom_site_fract_z
 _atom_site_occupancy
  Sm  Sm0  1  0.65724400  0.65724400  0.65724400  1
  Sm  Sm1  1  0.34275600  0.34275600  0.34275600  1
  Fe  Fe0  1  0.00000000  0.00000000  0.50000000  1
  Fe  Fe1  1  0.00000000  0.50000000  0.00000000  1
  Fe  Fe2  1  0.50000000  0.00000000  0.00000000  1
  Fe  Fe3  1  0.27954600  0.72045400  0.00000000  1
  Fe  Fe4  1  0.72045400  0.00000000  0.27954600  1
  Fe  Fe5  1  0.00000000  0.27954600  0.72045400  1
  Fe  Fe6  1  0.27954600  0.00000000  0.72045400  1
  Fe  Fe7  1  0.00000000  0.72045400  0.27954600  1
  Fe  Fe8  1  0.72045400  0.27954600  0.00000000  1
  Fe  Fe9  1  0.33830400  0.33830400  0.85045200  1
  Fe  Fe10  1  0.33830400  0.85045200  0.33830400  1
  Fe  Fe11  1  0.85045200  0.33830400  0.33830400  1
  Fe  Fe12  1  0.66169600  0.66169600  0.14954800  1
  Fe  Fe13  1  0.66169600  0.14954800  0.66169600  1
  Fe  Fe14  1  0.14954800  0.66169600  0.66169600  1
  Fe  Fe15  1  0.90501500  0.90501500  0.90501500  1
  Fe  Fe16  1  0.09498500  0.09498500  0.09498500  1
  B  B0  1  0.50000000  0.50000000  0.00000000  1
  B  B1  1  0.50000000  0.00000000  0.50000000  1
  B  B2  1  0.00000000  0.50000000  0.50000000  1
loop_
_geom_bond_atom_site_label_1
_geom_bond_atom_site_label_2
_geom_bond_distance
_geom_bond_site_symmetry_2
Fe0 Fe5 2.453961 1_555
Fe0 Fe6 2.453961 1_555
Fe0 Fe4 2.453961 1_455
Fe0 Fe7 2.453961 1_545
Fe0 Fe14 2.509432 1_545
Fe0 Fe13 2.509432 1_455
Fe0 Fe10 2.509432 1_545
Fe0 Fe11 2.509432 1_455
Fe0 Fe15 2.690889 1_445
Fe0 Fe16 2.690889 1_555
Fe0 Sm1 3.359694 1_555
Fe0 Sm0 3.359694 1_445
Fe1 Fe7 2.453961 1_555
Fe1 Fe5 2.453961 1_554
Fe1 Fe3 2.453961 1_555
Fe1 Fe8 2.453961 1_455
Fe1 Fe12 2.509432 1_455
Fe1 Fe9 2.509432 1_554
Fe1 Fe14 2.509432 1_554
Fe1 Fe11 2.509432 1_455
Fe1 Fe15 2.690889 1_454
Fe1 Fe16 2.690889 1_555
Fe1 Sm1 3.359694 1_555
Fe1 Sm0 3.359694 1_454
Fe2 Fe4 2.453961 1_555
Fe2 Fe6 2.453961 1_554
Fe2 Fe8 2.453961 1_555
Fe2 Fe3 2.453961 1_545
Fe2 Fe9 2.509432 1_554
Fe2 Sm1 3.359694 1_555
Fe2 Sm0 3.359694 1_544
Fe10 Fe2 2.509432 1_565
Fe10 Fe16 2.673369 1_565
Fe11 Fe16 2.673369 1_655
Fe12 Fe2 2.509432 1_565
Fe12 Fe15 2.673369 1_554
Fe13 Fe2 2.509432 1_556
Fe13 Fe15 2.673369 1_545
Fe14 Fe15 2.673369 1_455
Fe15 Fe16 2.375974 1_666
Fe15 Fe2 2.690889 1_566
Fe15 Fe3 2.729053 1_656
Fe15 Fe8 2.729053 1_566
Fe15 Fe6 2.729053 1_665
Fe15 Fe7 2.729053 1_656
Fe15 Fe4 2.729053 1_566
Fe15 Fe5 2.729053 1_665
Fe15 Sm0 3.098897 1_555
Fe16 Fe9 2.673369 1_554
Fe16 Fe2 2.690889 1_555
Fe16 Fe3 2.729053 1_545
Fe16 Fe8 2.729053 1_455
Fe16 Fe7 2.729053 1_545
Fe16 Fe4 2.729053 1_455
Fe16 Fe6 2.729053 1_554
Fe16 Fe5 2.729053 1_554
Fe16 Sm1 3.098897 1_555
B0 Fe8 1.937557 1_555
B0 Fe3 1.937557 1_555
B0 Fe12 1.972666 1_555
B0 Fe9 1.972666 1_554
B0 Sm1 2.539884 1_555
B0 Sm0 2.539884 1_554
B1 Fe6 1.937557 1_555
B1 Fe4 1.937557 1_555
B1 Fe13 1.972666 1_555
B1 Fe10 1.972666 1_545
B1 Sm1 2.539883 1_555
B1 Sm0 2.539883 1_545
B2 Fe7 1.937557 1_555
B2 Fe5 1.937557 1_555
B2 Fe14 1.972666 1_555
B2 Fe11 1.972666 1_455
B2 Sm1 2.539883 1_555
B2 Sm0 2.539883 1_455
