# generated using pymatgen
data_KLa(FeO3)4
_symmetry_space_group_name_H-M   'P 1'
_cell_length_a   5.46078417
_cell_length_b   5.46078417
_cell_length_c   7.69680507
_cell_angle_alpha   90.00000000
_cell_angle_beta   90.00000000
_cell_angle_gamma   90.20891285
_symmetry_Int_Tables_number   1
_chemical_formula_structural   KLa(FeO3)4
_chemical_formula_sum   'K1 La1 Fe4 O12'
_cell_volume   229.51846181
_cell_formula_units_Z   1
loop_
 _symmetry_equiv_pos_site_id
 _symmetry_equiv_pos_as_xyz
  1  'x, y, z'
loop_
 _atom_site_type_symbol
 _atom_site_label
 _atom_site_symmetry_multiplicity
 _atom_site_fract_x
 _atom_site_fract_y
 _atom_site_fract_z
 _atom_site_occupancy
  K  K0  1  0.99969721  0.99969721  0.00000000  1
  La  La0  1  0.50096528  0.50096528  0.50000000  1
  Fe  Fe0  1  0.49994419  0.00024874  0.75500210  1
  Fe  Fe1  1  0.49994419  0.00024874  0.24499790  1
  Fe  Fe2  1  0.00024874  0.49994419  0.24499790  1
  Fe  Fe3  1  0.00024874  0.49994419  0.75500210  1
  O  O0  1  0.73969282  0.25999413  0.73865890  1
  O  O1  1  0.25999413  0.73969282  0.73865890  1
  O  O2  1  0.25999413  0.73969282  0.26134110  1
  O  O3  1  0.73969282  0.25999413  0.26134110  1
  O  O4  1  0.74199662  0.74199662  0.74058164  1
  O  O5  1  0.25705114  0.25705114  0.73329674  1
  O  O6  1  0.25705114  0.25705114  0.26670326  1
  O  O7  1  0.74199662  0.74199662  0.25941836  1
  O  O8  1  0.49845158  0.00418792  -0.00000000  1
  O  O9  1  0.50358853  0.99475420  0.50000000  1
  O  O10  1  0.00418792  0.49845158  0.00000000  1
  O  O11  1  0.99475420  0.50358853  0.50000000  1
loop_
_geom_bond_atom_site_label_1
_geom_bond_atom_site_label_2
_geom_bond_distance
_geom_bond_site_symmetry_2
K0 O8 2.723611 1_665
K0 O10 2.723611 1_665
K0 O8 2.737393 1_565
K0 O10 2.737393 1_655
K0 O4 2.816563 1_554
K0 O7 2.816563 1_555
K0 O2 2.845554 1_655
K0 O1 2.845554 1_654
K0 O0 2.845554 1_564
K0 O3 2.845554 1_565
K0 O5 2.854728 1_664
K0 O6 2.854728 1_665
La0 O6 2.599929 1_555
La0 O5 2.599929 1_555
La0 O2 2.611091 1_555
La0 O3 2.611091 1_555
La0 O1 2.611091 1_555
La0 O0 2.611091 1_555
La0 O7 2.623179 1_555
La0 O4 2.623179 1_555
La0 O11 2.696461 1_555
La0 O9 2.696461 1_555
La0 O11 2.764399 1_455
La0 O9 2.764399 1_545
Fe0 O8 1.885842 1_556
Fe0 O0 1.930861 1_555
Fe0 O1 1.934845 1_545
Fe0 O4 1.939559 1_545
Fe0 O5 1.940964 1_555
Fe0 O9 1.963033 1_545
Fe1 O8 1.885842 1_555
Fe1 O3 1.930861 1_555
Fe1 O2 1.934845 1_545
Fe1 O7 1.939559 1_545
Fe1 O6 1.940964 1_555
Fe1 O9 1.963033 1_545
Fe2 O10 1.885842 1_555
Fe2 O2 1.930861 1_555
Fe2 O3 1.934845 1_455
Fe2 O7 1.939559 1_455
Fe2 O6 1.940964 1_555
Fe2 O11 1.963033 1_455
Fe3 O10 1.885842 1_556
Fe3 O1 1.930861 1_555
Fe3 O0 1.934845 1_455
Fe3 O4 1.939559 1_455
Fe3 O5 1.940964 1_555
Fe3 O11 1.963033 1_455
