# generated using pymatgen
data_La2Rh7
_symmetry_space_group_name_H-M   'P 1'
_cell_length_a   13.66911965
_cell_length_b   13.66911965
_cell_length_c   13.66912014
_cell_angle_alpha   22.52119030
_cell_angle_beta   22.52119030
_cell_angle_gamma   22.52118998
_symmetry_Int_Tables_number   1
_chemical_formula_structural   La2Rh7
_chemical_formula_sum   'La4 Rh14'
_cell_volume   328.67011740
_cell_formula_units_Z   2
loop_
 _symmetry_equiv_pos_site_id
 _symmetry_equiv_pos_as_xyz
  1  'x, y, z'
loop_
 _atom_site_type_symbol
 _atom_site_label
 _atom_site_symmetry_multiplicity
 _atom_site_fract_x
 _atom_site_fract_y
 _atom_site_fract_z
 _atom_site_occupancy
  La  La0  1  0.94974300  0.94974300  0.94974300  1
  La  La1  1  0.05025700  0.05025700  0.05025700  1
  La  La2  1  0.85334000  0.85334000  0.85334000  1
  La  La3  1  0.14666000  0.14666000  0.14666000  1
  Rh  Rh0  1  0.50000000  0.50000000  0.50000000  1
  Rh  Rh1  1  0.72229700  0.72229700  0.72229700  1
  Rh  Rh2  1  0.27770300  0.27770300  0.27770300  1
  Rh  Rh3  1  0.61151400  0.61151400  0.61151400  1
  Rh  Rh4  1  0.38848600  0.38848600  0.38848600  1
  Rh  Rh5  1  0.50000000  0.50000000  0.00000000  1
  Rh  Rh6  1  0.00000000  0.50000000  0.50000000  1
  Rh  Rh7  1  0.50000000  0.00000000  0.50000000  1
  Rh  Rh8  1  0.39024400  0.89055400  0.39024400  1
  Rh  Rh9  1  0.39024400  0.39024400  0.89055400  1
  Rh  Rh10  1  0.89055400  0.39024400  0.39024400  1
  Rh  Rh11  1  0.60975600  0.10944600  0.60975600  1
  Rh  Rh12  1  0.60975600  0.60975600  0.10944600  1
  Rh  Rh13  1  0.10944600  0.60975600  0.60975600  1
loop_
_geom_bond_atom_site_label_1
_geom_bond_atom_site_label_2
_geom_bond_distance
_geom_bond_site_symmetry_2
La0 Rh3 3.088317 1_655
La0 Rh3 3.088317 1_565
La0 Rh3 3.088317 1_556
La0 Rh2 3.089584 1_656
La0 Rh2 3.089584 1_566
La0 Rh2 3.089585 1_665
La0 La2 3.851428 1_555
La1 Rh4 3.088317 1_545
La1 Rh4 3.088317 1_455
La1 Rh4 3.088317 1_554
La1 Rh1 3.089584 1_544
La1 Rh1 3.089584 1_454
La1 Rh1 3.089585 1_445
La1 La3 3.851428 1_555
La2 Rh10 3.051315 1_565
La2 Rh8 3.051315 1_655
La2 Rh9 3.051315 1_565
La2 Rh9 3.051315 1_655
La2 Rh8 3.051316 1_556
La2 Rh10 3.051316 1_556
La2 Rh0 3.184072 1_556
La2 Rh0 3.184072 1_655
La2 Rh0 3.184072 1_565
La2 Rh12 3.440977 1_556
La2 Rh13 3.440978 1_655
La2 Rh11 3.440978 1_565
La2 La3 3.472020 1_566
La2 La3 3.472020 1_656
La2 La3 3.472020 1_665
La3 Rh11 3.051315 1_455
La3 Rh13 3.051315 1_545
La3 Rh12 3.051315 1_455
La3 Rh12 3.051315 1_545
La3 Rh13 3.051316 1_554
La3 Rh11 3.051316 1_554
La3 Rh0 3.184072 1_554
La3 Rh0 3.184072 1_545
La3 Rh0 3.184072 1_455
La3 Rh9 3.440977 1_554
La3 Rh10 3.440978 1_455
La3 Rh8 3.440978 1_545
Rh0 Rh8 2.750657 1_555
Rh0 Rh10 2.750657 1_555
Rh0 Rh13 2.750657 1_555
Rh0 Rh11 2.750657 1_555
Rh0 Rh9 2.750657 1_555
Rh0 Rh12 2.750657 1_555
Rh1 Rh13 2.651419 1_655
Rh1 Rh11 2.651419 1_565
Rh1 Rh12 2.651419 1_556
Rh1 Rh5 2.704513 1_556
Rh1 Rh6 2.704514 1_655
Rh1 Rh7 2.704514 1_565
Rh1 Rh4 3.082177 1_655
Rh1 Rh4 3.082177 1_565
Rh1 Rh4 3.082177 1_556
Rh2 Rh8 2.651419 1_545
Rh2 Rh9 2.651419 1_554
Rh2 Rh5 2.704513 1_555
Rh2 Rh7 2.704514 1_555
Rh2 Rh6 2.704514 1_555
Rh2 Rh3 3.082177 1_545
Rh2 Rh3 3.082177 1_455
Rh2 Rh3 3.082177 1_554
Rh3 Rh9 2.668080 1_555
Rh3 Rh8 2.668080 1_555
Rh3 Rh6 2.688853 1_655
Rh3 Rh7 2.688853 1_565
Rh3 Rh5 2.688853 1_556
Rh4 Rh7 2.688853 1_555
Rh4 Rh6 2.688853 1_555
Rh4 Rh5 2.688853 1_555
Rh5 Rh7 2.669192 1_555
Rh5 Rh7 2.669192 1_564
Rh5 Rh6 2.669192 1_555
Rh5 Rh6 2.669192 1_654
Rh6 Rh7 2.669192 1_555
Rh6 Rh7 2.669192 1_465
Rh8 Rh9 2.667537 1_564
Rh8 Rh9 2.670847 1_555
Rh10 Rh2 2.651419 1_655
Rh10 Rh8 2.667537 1_645
Rh10 Rh9 2.667537 1_654
Rh10 Rh3 2.668080 1_555
Rh10 Rh8 2.670847 1_555
Rh10 Rh9 2.670847 1_555
Rh11 Rh13 2.667537 1_645
Rh11 Rh12 2.667537 1_546
Rh11 Rh4 2.668080 1_555
Rh11 Rh13 2.670847 1_555
Rh11 Rh12 2.670847 1_555
Rh12 Rh13 2.667537 1_654
Rh12 Rh4 2.668080 1_555
Rh12 Rh13 2.670847 1_555
Rh13 Rh4 2.668080 1_555
