# generated using pymatgen
data_NaMgAlH18(C2O7)3
_symmetry_space_group_name_H-M   'P 1'
_cell_length_a   12.54193566
_cell_length_b   16.87257619
_cell_length_c   16.87254419
_cell_angle_alpha   120.00006420
_cell_angle_beta   90.00001297
_cell_angle_gamma   89.99999998
_symmetry_Int_Tables_number   1
_chemical_formula_structural   NaMgAlH18(C2O7)3
_chemical_formula_sum   'Na6 Mg6 Al6 H108 C36 O126'
_cell_volume   3092.12392844
_cell_formula_units_Z   6
loop_
 _symmetry_equiv_pos_site_id
 _symmetry_equiv_pos_as_xyz
  1  'x, y, z'
loop_
 _atom_site_type_symbol
 _atom_site_label
 _atom_site_symmetry_multiplicity
 _atom_site_fract_x
 _atom_site_fract_y
 _atom_site_fract_z
 _atom_site_occupancy
  Na  Na0  1  0.74746015  0.67063033  0.66299950  1
  Na  Na1  1  0.74746049  0.99236901  0.32936921  1
  Na  Na2  1  0.74746025  0.33700047  0.00763130  1
  Na  Na3  1  0.24746015  0.99236917  0.66299950  1
  Na  Na4  1  0.24746049  0.33700020  0.32936921  1
  Na  Na5  1  0.24746025  0.67063083  0.00763130  1
  Mg  Mg0  1  0.24095633  0.99999868  -0.00000016  1
  Mg  Mg1  1  0.74095633  0.00000116  -0.00000016  1
  Mg  Mg2  1  0.25142772  0.33333411  0.66666490  1
  Mg  Mg3  1  0.75142772  0.33333079  0.66666490  1
  Mg  Mg4  1  0.25715281  0.66666361  0.33333485  1
  Mg  Mg5  1  0.75715281  0.66667124  0.33333485  1
  Al  Al0  1  0.24728233  0.66251393  0.66993783  1
  Al  Al1  1  0.24728248  0.00742427  0.33748617  1
  Al  Al2  1  0.24728208  0.33006226  0.99257596  1
  Al  Al3  1  0.74728233  0.00742391  0.66993783  1
  Al  Al4  1  0.74728248  0.33006190  0.33748617  1
  Al  Al5  1  0.74728208  0.66251370  0.99257596  1
  H  H0  1  0.34130323  0.00531814  0.85676293  1
  H  H1  1  0.34130314  0.85144511  0.99468216  1
  H  H2  1  0.34130287  0.14323688  0.14855502  1
  H  H3  1  0.84130323  0.85144479  0.85676293  1
  H  H4  1  0.84130314  0.14323706  0.99468216  1
  H  H5  1  0.84130287  0.00531813  0.14855502  1
  H  H6  1  0.39872947  0.92636939  0.86693652  1
  H  H7  1  0.39872988  0.94056736  0.07363084  1
  H  H8  1  0.39872974  0.13306311  0.05943266  1
  H  H9  1  0.89872947  0.94056713  0.86693652  1
  H  H10  1  0.89872988  0.13306349  0.07363084  1
  H  H11  1  0.89872974  0.92636955  0.05943266  1
  H  H12  1  0.14433977  0.84598729  0.85178026  1
  H  H13  1  0.14433964  0.00579300  0.15401324  1
  H  H14  1  0.14433955  0.14822038  0.99420713  1
  H  H15  1  0.64433977  0.00579297  0.85178026  1
  H  H16  1  0.64433964  0.14822024  0.15401324  1
  H  H17  1  0.64433955  0.84598674  0.99420713  1
  H  H18  1  0.08440400  0.86592663  0.94369283  1
  H  H19  1  0.08440465  0.07776604  0.13407371  1
  H  H20  1  0.08440451  0.05630758  0.92223397  1
  H  H21  1  0.58440400  0.07776620  0.94369283  1
  H  H22  1  0.58440465  0.05630766  0.13407371  1
  H  H23  1  0.58440451  0.86592639  0.92223397  1
  H  H24  1  0.34907032  0.48481949  0.66965616  1
  H  H25  1  0.34906995  0.18483646  0.51518074  1
  H  H26  1  0.34907006  0.33034377  0.81516312  1
  H  H27  1  0.84907032  0.18483666  0.66965616  1
  H  H28  1  0.84906995  0.33034429  0.51518074  1
  H  H29  1  0.84907006  0.48481935  0.81516312  1
  H  H30  1  0.40865478  0.46658610  0.74314660  1
  H  H31  1  0.40865441  0.27656024  0.53341391  1
  H  H32  1  0.40865427  0.25685378  0.72343981  1
  H  H33  1  0.90865478  0.27656051  0.74314660  1
  H  H34  1  0.90865441  0.25685367  0.53341391  1
  H  H35  1  0.90865427  0.46658603  0.72343981  1
  H  H36  1  0.15198631  0.32788810  0.51677560  1
  H  H37  1  0.15198685  0.18888840  0.67211162  1
  H  H38  1  0.15198656  0.48322375  0.81111221  1
  H  H39  1  0.65198631  0.18888750  0.51677560  1
  H  H40  1  0.65198685  0.48322322  0.67211162  1
  H  H41  1  0.65198656  0.32788846  0.81111221  1
  H  H42  1  0.09348050  0.40568263  0.60610543  1
  H  H43  1  0.09348070  0.20042269  0.59431770  1
  H  H44  1  0.09348084  0.39389473  0.79957692  1
  H  H45  1  0.59348050  0.20042280  0.60610543  1
  H  H46  1  0.59348070  0.39389501  0.59431770  1
  H  H47  1  0.59348084  0.40568218  0.79957692  1
  H  H48  1  0.35381312  0.66097657  0.48239419  1
  H  H49  1  0.35381287  0.82141698  0.33902382  1
  H  H50  1  0.35381334  0.51760640  0.17858260  1
  H  H51  1  0.85381312  0.82141762  0.48239419  1
  H  H52  1  0.85381287  0.51760684  0.33902382  1
  H  H53  1  0.85381334  0.66097620  0.17858260  1
  H  H54  1  0.41378125  0.58943122  0.39034664  1
  H  H55  1  0.41378121  0.80091530  0.41056818  1
  H  H56  1  0.41378068  0.60965319  0.19908496  1
  H  H57  1  0.91378125  0.80091542  0.39034664  1
  H  H58  1  0.91378121  0.60965289  0.41056818  1
  H  H59  1  0.91378068  0.58943177  0.19908496  1
  H  H60  1  0.15595914  0.81497780  0.47428833  1
  H  H61  1  0.15595904  0.65931110  0.18502272  1
  H  H62  1  0.15595868  0.52571106  0.34068929  1
  H  H63  1  0.65595914  0.65931053  0.47428833  1
  H  H64  1  0.65595904  0.52571162  0.18502272  1
  H  H65  1  0.65595868  0.81497824  0.34068929  1
  H  H66  1  0.09910366  0.72648814  0.46609252  1
  H  H67  1  0.09910405  0.73960422  0.27351189  1
  H  H68  1  0.09910314  0.53390749  0.26039530  1
  H  H69  1  0.59910366  0.73960437  0.46609252  1
  H  H70  1  0.59910405  0.53390767  0.27351189  1
  H  H71  1  0.59910314  0.72648781  0.26039530  1
  H  H72  1  0.44499949  0.78826568  0.81137667  1
  H  H73  1  0.44499940  0.02311111  0.21173449  1
  H  H74  1  0.44499949  0.18862341  0.97688898  1
  H  H75  1  0.94499949  0.02311099  0.81137667  1
  H  H76  1  0.94499940  0.18862338  0.21173449  1
  H  H77  1  0.94499949  0.78826557  0.97688898  1
  H  H78  1  0.54565357  0.82909599  0.78584470  1
  H  H79  1  0.54565362  0.95674865  0.17090386  1
  H  H80  1  0.54565361  0.21415530  0.04325148  1
  H  H81  1  0.04565357  0.95674871  0.78584470  1
  H  H82  1  0.04565362  0.21415522  0.17090386  1
  H  H83  1  0.04565361  0.82909619  0.04325148  1
  H  H84  1  0.05094471  0.54189476  0.69061951  1
  H  H85  1  0.05094455  0.14872491  0.45810545  1
  H  H86  1  0.05094465  0.30938056  0.85127508  1
  H  H87  1  0.55094471  0.14872476  0.69061951  1
  H  H88  1  0.55094455  0.30938053  0.45810545  1
  H  H89  1  0.55094465  0.54189453  0.85127508  1
  H  H90  1  0.94856995  0.50638273  0.62592367  1
  H  H91  1  0.94856977  0.11954092  0.49361718  1
  H  H92  1  0.94856982  0.37407629  0.88045906  1
  H  H93  1  0.44856995  0.11954094  0.62592367  1
  H  H94  1  0.44856977  0.37407626  0.49361718  1
  H  H95  1  0.44856982  0.50638277  0.88045906  1
  H  H96  1  0.05135991  0.64602201  0.52379858  1
  H  H97  1  0.05136007  0.87777696  0.35397774  1
  H  H98  1  0.05135969  0.47620124  0.12222333  1
  H  H99  1  0.55135991  0.87777656  0.52379858  1
  H  H100  1  0.55136007  0.47620078  0.35397774  1
  H  H101  1  0.55135969  0.64602210  0.12222333  1
  H  H102  1  0.95098407  0.71171385  0.54649103  1
  H  H103  1  0.95098367  0.83477752  0.28828601  1
  H  H104  1  0.95098369  0.45350865  0.16522270  1
  H  H105  1  0.45098407  0.83477717  0.54649103  1
  H  H106  1  0.45098367  0.45350850  0.28828601  1
  H  H107  1  0.45098369  0.71171405  0.16522270  1
  C  C0  1  0.29977742  0.49598076  0.52411685  1
  C  C1  1  0.29977732  0.02813594  0.50401879  1
  C  C2  1  0.29977703  0.47588270  0.97186389  1
  C  C3  1  0.79977742  0.02813609  0.52411685  1
  C  C4  1  0.79977732  0.47588285  0.50401879  1
  C  C5  1  0.79977703  0.49598118  0.97186389  1
  C  C6  1  0.19622308  0.52663943  0.49669194  1
  C  C7  1  0.19622248  0.97005232  0.47335987  1
  C  C8  1  0.19622311  0.50330738  0.02994783  1
  C  C9  1  0.69622308  0.97005250  0.49669194  1
  C  C10  1  0.69622248  0.50330755  0.47335987  1
  C  C11  1  0.69622311  0.52664046  0.02994783  1
  C  C12  1  0.30011597  0.80195661  0.63897923  1
  C  C13  1  0.30011553  0.83702255  0.19804320  1
  C  C14  1  0.30011552  0.36102033  0.16297761  1
  C  C15  1  0.80011597  0.83702262  0.63897923  1
  C  C16  1  0.80011553  0.36102065  0.19804320  1
  C  C17  1  0.80011552  0.80195728  0.16297761  1
  C  C18  1  0.19590323  0.83144735  0.69591937  1
  C  C19  1  0.19590312  0.86447306  0.16855330  1
  C  C20  1  0.19590281  0.30408020  0.13552704  1
  C  C21  1  0.69590323  0.86447202  0.69591937  1
  C  C22  1  0.69590312  0.30408025  0.16855330  1
  C  C23  1  0.69590281  0.83144684  0.13552704  1
  C  C24  1  0.29920865  0.69590328  0.84198946  1
  C  C25  1  0.29920821  0.14608650  0.30409709  1
  C  C26  1  0.29920820  0.15801106  0.85391382  1
  C  C27  1  0.79920865  0.14608619  0.84198946  1
  C  C28  1  0.79920821  0.15801059  0.30409709  1
  C  C29  1  0.79920820  0.69590276  0.85391382  1
  C  C30  1  0.19811665  0.63464661  0.81271287  1
  C  C31  1  0.19811649  0.17806633  0.36535388  1
  C  C32  1  0.19811680  0.18728747  0.82193345  1
  C  C33  1  0.69811665  0.17806626  0.81271287  1
  C  C34  1  0.69811649  0.18728755  0.36535388  1
  C  C35  1  0.69811680  0.63464598  0.82193345  1
  O  O0  1  0.32972738  0.55183412  0.60745361  1
  O  O1  1  0.32972685  0.05562022  0.44816603  1
  O  O2  1  0.32972713  0.39254585  0.94438013  1
  O  O3  1  0.82972738  0.05561950  0.60745361  1
  O  O4  1  0.82972685  0.39254581  0.44816603  1
  O  O5  1  0.82972713  0.55183429  0.94438013  1
  O  O6  1  0.15867504  0.60321465  0.56263670  1
  O  O7  1  0.15867484  0.95942217  0.39678489  1
  O  O8  1  0.15867517  0.43736287  0.04057807  1
  O  O9  1  0.65867504  0.95942204  0.56263670  1
  O  O10  1  0.65867484  0.43736272  0.39678489  1
  O  O11  1  0.65867517  0.60321520  0.04057807  1
  O  O12  1  0.34520534  0.42422981  0.46800356  1
  O  O13  1  0.34520511  0.04377358  0.57576966  1
  O  O14  1  0.34520508  0.53199540  0.95622624  1
  O  O15  1  0.84520534  0.04377375  0.46800356  1
  O  O16  1  0.84520511  0.53199609  0.57576966  1
  O  O17  1  0.84520508  0.42423085  0.95622624  1
  O  O18  1  0.15743930  0.48061563  0.41920031  1
  O  O19  1  0.15743816  0.93858432  0.51938326  1
  O  O20  1  0.15743935  0.58079962  0.06141566  1
  O  O21  1  0.65743930  0.93858468  0.41920031  1
  O  O22  1  0.65743816  0.58079894  0.51938326  1
  O  O23  1  0.65743935  0.48061605  0.06141566  1
  O  O24  1  0.33144490  0.72032094  0.61742244  1
  O  O25  1  0.33144440  0.89710191  0.27967938  1
  O  O26  1  0.33144432  0.38257715  0.10289805  1
  O  O27  1  0.83144490  0.89710150  0.61742244  1
  O  O28  1  0.83144440  0.38257747  0.27967938  1
  O  O29  1  0.83144432  0.72032090  0.10289805  1
  O  O30  1  0.16434021  0.77349041  0.72026570  1
  O  O31  1  0.16434040  0.94677634  0.22651029  1
  O  O32  1  0.16433966  0.27973396  0.05322399  1
  O  O33  1  0.66434021  0.94677529  0.72026570  1
  O  O34  1  0.66434040  0.27973395  0.22651029  1
  O  O35  1  0.66433966  0.77349003  0.05322399  1
  O  O36  1  0.34471499  0.85486006  0.61843938  1
  O  O37  1  0.34471493  0.76357950  0.14513953  1
  O  O38  1  0.34471392  0.38156018  0.23642095  1
  O  O39  1  0.84471499  0.76357932  0.61843938  1
  O  O40  1  0.84471493  0.38156003  0.14513953  1
  O  O41  1  0.84471392  0.85486077  0.23642095  1
  O  O42  1  0.15149322  0.90423352  0.71380776  1
  O  O43  1  0.15149272  0.80957528  0.09576683  1
  O  O44  1  0.15149244  0.28619153  0.19042495  1
  O  O45  1  0.65149322  0.80957424  0.71380776  1
  O  O46  1  0.65149272  0.28619155  0.09576683  1
  O  O47  1  0.65149244  0.90423342  0.19042495  1
  O  O48  1  0.33459766  0.71009638  0.77765833  1
  O  O49  1  0.33459712  0.06756276  0.28990428  1
  O  O50  1  0.33459729  0.22234221  0.93243820  1
  O  O51  1  0.83459766  0.06756194  0.77765833  1
  O  O52  1  0.83459712  0.22234153  0.28990428  1
  O  O53  1  0.83459729  0.71009599  0.93243820  1
  O  O54  1  0.16278812  0.61642432  0.73290772  1
  O  O55  1  0.16278798  0.11648295  0.38357597  1
  O  O56  1  0.16278811  0.26709262  0.88351681  1
  O  O57  1  0.66278812  0.11648340  0.73290772  1
  O  O58  1  0.66278798  0.26709303  0.38357597  1
  O  O59  1  0.66278811  0.61642419  0.88351681  1
  O  O60  1  0.33807375  0.72629290  0.91931016  1
  O  O61  1  0.33807416  0.19301749  0.27370696  1
  O  O62  1  0.33807447  0.08068972  0.80698290  1
  O  O63  1  0.83807375  0.19301726  0.91931016  1
  O  O64  1  0.83807416  0.08068947  0.27370696  1
  O  O65  1  0.83807447  0.72629318  0.80698290  1
  O  O66  1  0.15898795  0.60796761  0.86268552  1
  O  O67  1  0.15898741  0.25471732  0.39203317  1
  O  O68  1  0.15898742  0.13731545  0.74528270  1
  O  O69  1  0.65898795  0.25471791  0.86268552  1
  O  O70  1  0.65898741  0.13731585  0.39203317  1
  O  O71  1  0.65898742  0.60796725  0.74528270  1
  O  O72  1  0.33365321  0.96538533  0.88341491  1
  O  O73  1  0.33365281  0.91802947  0.03461539  1
  O  O74  1  0.33365316  0.11658504  0.08197006  1
  O  O75  1  0.83365321  0.91802959  0.88341491  1
  O  O76  1  0.83365281  0.11658593  0.03461539  1
  O  O77  1  0.83365316  0.96538503  0.08197006  1
  O  O78  1  0.14588411  0.88396637  0.91863814  1
  O  O79  1  0.14588535  0.03467237  0.11603483  1
  O  O80  1  0.14588638  0.08136240  0.96532646  1
  O  O81  1  0.64588411  0.03467177  0.91863814  1
  O  O82  1  0.64588535  0.08136246  0.11603483  1
  O  O83  1  0.64588638  0.88396406  0.96532646  1
  O  O84  1  0.34615101  0.44927959  0.70116051  1
  O  O85  1  0.34615102  0.25188121  0.55072065  1
  O  O86  1  0.34615063  0.29883980  0.74811857  1
  O  O87  1  0.84615101  0.25188092  0.70116051  1
  O  O88  1  0.84615102  0.29883944  0.55072065  1
  O  O89  1  0.84615063  0.44927877  0.74811857  1
  O  O90  1  0.15873581  0.36688965  0.58359855  1
  O  O91  1  0.15873604  0.21670963  0.63310991  1
  O  O92  1  0.15873592  0.41640075  0.78328975  1
  O  O93  1  0.65873581  0.21670890  0.58359855  1
  O  O94  1  0.65873604  0.41640028  0.63310991  1
  O  O95  1  0.65873592  0.36688900  0.78328975  1
  O  O96  1  0.35284367  0.63311488  0.41568801  1
  O  O97  1  0.35284376  0.78257132  0.36688440  1
  O  O98  1  0.35284355  0.58431219  0.21742843  1
  O  O99  1  0.85284367  0.78257313  0.41568801  1
  O  O100  1  0.85284376  0.58431308  0.36688440  1
  O  O101  1  0.85284355  0.63311624  0.21742843  1
  O  O102  1  0.16452602  0.74876536  0.44970301  1
  O  O103  1  0.16452622  0.70093744  0.25123568  1
  O  O104  1  0.16452541  0.55029681  0.29906270  1
  O  O105  1  0.66452602  0.70093765  0.44970301  1
  O  O106  1  0.66452622  0.55029824  0.25123568  1
  O  O107  1  0.66452541  0.74876589  0.29906270  1
  O  O108  1  0.49385406  0.84142059  0.83551569  1
  O  O109  1  0.49385381  0.99409532  0.15857945  1
  O  O110  1  0.49385438  0.16448416  0.00590462  1
  O  O111  1  0.99385406  0.99409510  0.83551569  1
  O  O112  1  0.99385381  0.16448413  0.15857945  1
  O  O113  1  0.99385438  0.84142045  0.00590462  1
  O  O114  1  0.99939874  0.49067975  0.66141746  1
  O  O115  1  0.99939850  0.17073768  0.50932055  1
  O  O116  1  0.99939870  0.33858255  0.82926206  1
  O  O117  1  0.49939874  0.17073771  0.66141746  1
  O  O118  1  0.49939850  0.33858288  0.50932055  1
  O  O119  1  0.49939870  0.49067951  0.82926206  1
  O  O120  1  0.00362858  0.67398247  0.49779138  1
  O  O121  1  0.00362801  0.82380971  0.32601802  1
  O  O122  1  0.00362863  0.50220820  0.17619059  1
  O  O123  1  0.50362858  0.82380892  0.49779138  1
  O  O124  1  0.50362801  0.50220831  0.32601802  1
  O  O125  1  0.50362863  0.67398239  0.17619059  1
loop_
_geom_bond_atom_site_label_1
_geom_bond_atom_site_label_2
_geom_bond_distance
_geom_bond_site_symmetry_2
Na0 O45 2.381133 1_555
Na0 O39 2.385735 1_555
Na0 O16 2.387006 1_555
Na0 O71 2.396754 1_555
Na0 O22 2.402299 1_555
Na0 O65 2.407041 1_555
Na1 O47 2.381140 1_555
Na1 O41 2.385713 1_555
Na1 O15 2.387003 1_565
Na1 O70 2.396763 1_565
Na1 O21 2.402288 1_555
Na1 O64 2.407034 1_565
Na2 O46 2.381142 1_555
Na2 O40 2.385719 1_555
Na2 O17 2.387021 1_554
Na2 O69 2.396741 1_554
Na2 O23 2.402289 1_555
Na2 O63 2.407039 1_554
Na3 O42 2.381133 1_555
Na3 O36 2.385735 1_555
Na3 O13 2.387006 1_565
Na3 O68 2.396754 1_565
Na3 O19 2.402299 1_555
Na3 O62 2.407041 1_565
Na4 O44 2.381140 1_555
Na4 O38 2.385713 1_555
Na4 O12 2.387003 1_555
Na4 O67 2.396763 1_555
Na4 O18 2.402288 1_555
Na4 O61 2.407034 1_555
Na5 O43 2.381142 1_555
Na5 O37 2.385719 1_555
Na5 O14 2.387020 1_554
Na5 O66 2.396741 1_554
Na5 O20 2.402289 1_555
Na5 O60 2.407039 1_554
Mg0 O73 2.100781 1_555
Mg0 O72 2.100790 1_554
Mg0 O74 2.100802 1_565
Mg0 O78 2.109875 1_554
Mg0 O79 2.109891 1_565
Mg0 O80 2.109915 1_564
Mg1 O76 2.100781 1_555
Mg1 O75 2.100790 1_544
Mg1 O77 2.100802 1_545
Mg1 O81 2.109875 1_554
Mg1 O82 2.109891 1_555
Mg1 O83 2.109915 1_544
Mg2 O90 2.104724 1_555
Mg2 O92 2.104753 1_555
Mg2 O91 2.104760 1_555
Mg2 O85 2.106796 1_555
Mg2 O84 2.106802 1_555
Mg2 O86 2.106835 1_555
Mg3 O93 2.104724 1_555
Mg3 O95 2.104753 1_555
Mg3 O94 2.104760 1_555
Mg3 O88 2.106796 1_555
Mg3 O87 2.106802 1_555
Mg3 O89 2.106835 1_555
Mg4 O104 2.098476 1_555
Mg4 O102 2.098506 1_555
Mg4 O103 2.098547 1_555
Mg4 O96 2.116138 1_555
Mg4 O98 2.116176 1_555
Mg4 O97 2.116215 1_555
Mg5 O107 2.098476 1_555
Mg5 O105 2.098506 1_555
Mg5 O106 2.098547 1_555
Mg5 O99 2.116138 1_555
Mg5 O101 2.116176 1_555
Mg5 O100 2.116215 1_555
Al0 O54 1.919063 1_555
Al0 O48 1.920416 1_555
Al0 O0 1.923347 1_555
Al0 O6 1.924152 1_555
Al0 O24 1.927400 1_555
Al0 O30 1.928545 1_555
Al1 O55 1.919054 1_555
Al1 O49 1.920413 1_555
Al1 O1 1.923340 1_555
Al1 O7 1.924153 1_545
Al1 O25 1.927395 1_545
Al1 O31 1.928534 1_545
Al2 O56 1.919054 1_555
Al2 O50 1.920412 1_555
Al2 O2 1.923342 1_555
Al2 O8 1.924146 1_556
Al2 O26 1.927392 1_556
Al2 O32 1.928545 1_556
Al3 O57 1.919062 1_555
Al3 O51 1.920416 1_555
Al3 O3 1.923347 1_555
Al3 O9 1.924152 1_545
Al3 O27 1.927401 1_545
Al3 O33 1.928545 1_545
Al4 O58 1.919054 1_555
Al4 O52 1.920413 1_555
Al4 O4 1.923340 1_555
Al4 O10 1.924153 1_555
Al4 O28 1.927395 1_555
Al4 O34 1.928534 1_555
Al5 O59 1.919054 1_555
Al5 O53 1.920412 1_555
Al5 O5 1.923342 1_555
Al5 O11 1.924146 1_556
Al5 O29 1.927392 1_556
Al5 O35 1.928544 1_556
H0 O72 0.984060 1_545
H1 O73 0.984055 1_556
H2 O74 0.984061 1_555
H3 O75 0.984060 1_555
H4 O76 0.984055 1_556
H5 O77 0.984061 1_545
H6 O72 0.996888 1_555
H7 O73 0.996891 1_555
H8 O74 0.996887 1_555
H9 O75 0.996887 1_555
H10 O76 0.996891 1_555
H11 O77 0.996887 1_555
H12 O78 0.980134 1_555
H13 O79 0.980133 1_555
H14 O80 0.980135 1_555
H15 O81 0.980134 1_555
H16 O82 0.980133 1_555
H17 O83 0.980135 1_555
H18 O78 0.997290 1_555
H19 O79 0.997289 1_555
H20 O80 0.997289 1_555
H21 O81 0.997290 1_555
H22 O82 0.997289 1_555
H23 O83 0.997289 1_555
H24 O84 0.980930 1_555
H25 O85 0.980937 1_555
H26 O86 0.980933 1_555
H27 O87 0.980930 1_555
H28 O88 0.980937 1_555
H29 O89 0.980933 1_555
H30 O84 0.997388 1_555
H31 O85 0.997382 1_555
H32 O86 0.997386 1_555
H33 O87 0.997388 1_555
H34 O88 0.997382 1_555
H35 O89 0.997386 1_555
H36 O90 0.984610 1_555
H37 O91 0.984612 1_555
H38 O92 0.984611 1_555
H39 O93 0.984610 1_555
H40 O94 0.984612 1_555
H41 O95 0.984611 1_555
H42 O90 0.996942 1_555
H43 O91 0.996934 1_555
H44 O92 0.996940 1_555
H45 O93 0.996942 1_555
H46 O94 0.996934 1_555
H47 O95 0.996940 1_555
H48 O96 0.979183 1_555
H49 O97 0.979188 1_555
H50 O98 0.979181 1_555
H51 O99 0.979183 1_555
H52 O100 0.979188 1_555
H53 O101 0.979181 1_555
H54 O96 0.997517 1_555
H55 O97 0.997515 1_555
H56 O98 0.997520 1_555
H57 O99 0.997517 1_555
H58 O100 0.997515 1_555
H59 O101 0.997520 1_555
H60 O102 0.984008 1_555
H61 O103 0.984012 1_555
H62 O104 0.984005 1_555
H63 O105 0.984008 1_555
H64 O106 0.984012 1_555
H65 O107 0.984005 1_555
H66 O102 0.997473 1_555
H67 O103 0.997470 1_555
H68 O104 0.997477 1_555
H69 O105 0.997472 1_555
H70 O106 0.997470 1_555
H71 O107 0.997477 1_555
H72 O108 0.990151 1_555
H73 O109 0.990151 1_545
H74 O110 0.990153 1_556
H75 O111 0.990151 1_545
H76 O112 0.990151 1_555
H77 O113 0.990153 1_556
H78 O108 0.996696 1_555
H78 O45 1.716839 1_555
H79 O109 0.996702 1_555
H79 O47 1.716828 1_555
H80 O110 0.996697 1_555
H80 O46 1.716830 1_555
H81 O111 0.996696 1_455
H81 O42 1.716839 1_555
H82 O112 0.996702 1_455
H82 O44 1.716828 1_555
H83 O113 0.996697 1_455
H83 O43 1.716830 1_555
H84 O114 0.990788 1_455
H85 O115 0.990789 1_455
H86 O116 0.990788 1_455
H87 O117 0.990788 1_555
H88 O118 0.990789 1_555
H89 O119 0.990788 1_555
H90 O114 0.996951 1_555
H90 O16 1.717327 1_555
H91 O115 0.996949 1_555
H91 O15 1.717321 1_555
H92 O116 0.996953 1_555
H92 O17 1.717325 1_555
H93 O117 0.996950 1_555
H93 O13 1.717327 1_555
H94 O118 0.996949 1_555
H94 O12 1.717321 1_555
H95 O119 0.996953 1_555
H95 O14 1.717325 1_555
H96 O120 0.990203 1_555
H97 O121 0.990204 1_555
H98 O122 0.990196 1_555
H99 O123 0.990203 1_555
H100 O124 0.990204 1_555
H101 O125 0.990196 1_555
H102 O120 0.996646 1_655
H102 O39 1.718592 1_555
H103 O121 0.996648 1_655
H103 O41 1.718598 1_555
H104 O122 0.996651 1_655
H104 O40 1.718592 1_555
H105 O123 0.996646 1_555
H105 O36 1.718592 1_555
H106 O124 0.996648 1_555
H106 O38 1.718598 1_555
H107 O125 0.996651 1_555
H107 O37 1.718592 1_555
C0 O12 1.241137 1_555
C0 O0 1.296620 1_555
C1 O13 1.241134 1_555
C1 O1 1.296622 1_555
C2 O14 1.241130 1_555
C2 O2 1.296623 1_555
C3 O15 1.241137 1_555
C3 O3 1.296620 1_555
C4 O16 1.241134 1_555
C4 O4 1.296622 1_555
C5 O17 1.241130 1_555
C5 O5 1.296624 1_555
C6 O18 1.238473 1_555
C6 O6 1.300583 1_555
C7 O19 1.238474 1_555
C7 O7 1.300578 1_555
C8 O20 1.238484 1_555
C8 O8 1.300578 1_555
C9 O21 1.238473 1_555
C9 O9 1.300583 1_555
C10 O22 1.238474 1_555
C10 O10 1.300578 1_555
C11 O23 1.238484 1_555
C11 O11 1.300578 1_555
C12 O36 1.240603 1_555
C12 O24 1.297280 1_555
C13 O37 1.240603 1_555
C13 O25 1.297285 1_555
C14 O38 1.240598 1_555
C14 O26 1.297289 1_555
C15 O39 1.240603 1_555
C15 O27 1.297280 1_555
C16 O40 1.240603 1_555
C16 O28 1.297285 1_555
C17 O41 1.240598 1_555
C17 O29 1.297289 1_555
C18 O42 1.240513 1_555
C18 O30 1.297461 1_555
C19 O43 1.240516 1_555
C19 O31 1.297459 1_555
C20 O44 1.240518 1_555
C20 O32 1.297456 1_555
C21 O45 1.240513 1_555
C21 O33 1.297461 1_555
C22 O46 1.240516 1_555
C22 O34 1.297459 1_555
C23 O47 1.240518 1_555
C23 O35 1.297456 1_555
C24 O60 1.238367 1_555
C24 O48 1.300938 1_555
C25 O61 1.238379 1_555
C25 O49 1.300933 1_555
C26 O62 1.238382 1_555
C26 O50 1.300939 1_555
C27 O63 1.238367 1_555
C27 O51 1.300938 1_555
C28 O64 1.238379 1_555
C28 O52 1.300933 1_555
C29 O65 1.238382 1_555
C29 O53 1.300939 1_555
C30 O66 1.238523 1_555
C30 O54 1.299987 1_555
C31 O67 1.238515 1_555
C31 O55 1.299995 1_555
C32 O68 1.238512 1_555
C32 O56 1.299991 1_555
C33 O69 1.238523 1_555
C33 O57 1.299987 1_555
C34 O70 1.238515 1_555
C34 O58 1.299995 1_555
C35 O71 1.238512 1_555
C35 O59 1.299991 1_555
