# generated using pymatgen
data_Sr10Nb5N5O14
_symmetry_space_group_name_H-M   'P 1'
_cell_length_a   9.04586581
_cell_length_b   9.04586581
_cell_length_c   9.10108915
_cell_angle_alpha   60.09987985
_cell_angle_beta   60.09987985
_cell_angle_gamma   89.54439277
_symmetry_Int_Tables_number   1
_chemical_formula_structural   Sr10Nb5N5O14
_chemical_formula_sum   'Sr10 Nb5 N5 O14'
_cell_volume   530.22101005
_cell_formula_units_Z   1
loop_
 _symmetry_equiv_pos_site_id
 _symmetry_equiv_pos_as_xyz
  1  'x, y, z'
loop_
 _atom_site_type_symbol
 _atom_site_label
 _atom_site_symmetry_multiplicity
 _atom_site_fract_x
 _atom_site_fract_y
 _atom_site_fract_z
 _atom_site_occupancy
  Sr  Sr0  1  0.85652900  0.14347100  0.00000000  1
  Sr  Sr1  1  0.64996600  0.94198100  0.80472100  1
  Sr  Sr2  1  0.45421800  0.74270400  0.60042800  1
  Sr  Sr3  1  0.25729600  0.54578200  0.39957200  1
  Sr  Sr4  1  0.05801900  0.35003400  0.19527900  1
  Sr  Sr5  1  0.54578200  0.25729600  0.39957200  1
  Sr  Sr6  1  0.35003400  0.05801900  0.19527900  1
  Sr  Sr7  1  0.14347100  0.85652900  0.00000000  1
  Sr  Sr8  1  0.94198100  0.64996600  0.80472100  1
  Sr  Sr9  1  0.74270400  0.45421800  0.60042800  1
  Nb  Nb0  1  0.89878500  0.89878500  0.39690800  1
  Nb  Nb1  1  0.69777200  0.69777200  0.19974900  1
  Nb  Nb2  1  0.50000000  0.50000000  0.00000000  1
  Nb  Nb3  1  0.30222800  0.30222800  0.80025100  1
  Nb  Nb4  1  0.10121500  0.10121500  0.60309200  1
  N  N0  1  0.10319000  0.10319000  0.10944500  1
  N  N1  1  0.50000000  0.50000000  0.50000000  1
  N  N2  1  0.89681000  0.89681000  0.89055500  1
  N  N3  1  0.29336000  0.29336000  0.29774900  1
  N  N4  1  0.70664000  0.70664000  0.70225100  1
  O  O0  1  0.66360600  0.33639400  0.00000000  1
  O  O1  1  0.45958600  0.13693700  0.80017100  1
  O  O2  1  0.25646900  0.93430900  0.59311000  1
  O  O3  1  0.06569100  0.74353100  0.40689000  1
  O  O4  1  0.86306300  0.54041400  0.19982900  1
  O  O5  1  0.74353100  0.06569100  0.40689000  1
  O  O6  1  0.54041400  0.86306300  0.19982900  1
  O  O7  1  0.33639400  0.66360600  0.00000000  1
  O  O8  1  0.13693700  0.45958600  0.80017100  1
  O  O9  1  0.93430900  0.25646900  0.59311000  1
  O  O10  1  0.40854600  0.40854600  0.88910300  1
  O  O11  1  0.80523400  0.80523400  0.29382900  1
  O  O12  1  0.19476600  0.19476600  0.70617100  1
  O  O13  1  0.59145400  0.59145400  0.11089700  1
loop_
_geom_bond_atom_site_label_1
_geom_bond_atom_site_label_2
_geom_bond_distance
_geom_bond_site_symmetry_2
Nb0 O11 1.976549 1_555
Nb0 O5 2.058145 1_565
Nb0 O3 2.058145 1_655
Nb1 O13 2.017232 1_555
Nb1 O6 2.056212 1_555
Nb1 O4 2.056212 1_555
Nb1 O11 2.073089 1_555
Nb2 O10 2.015738 1_554
Nb2 O13 2.015738 1_555
Nb2 O0 2.084639 1_555
Nb2 O7 2.084639 1_555
Nb3 O10 2.017232 1_555
Nb3 O1 2.056212 1_555
Nb3 O8 2.056212 1_555
Nb3 O12 2.073089 1_555
Nb4 O12 1.976549 1_555
Nb4 O9 2.058145 1_455
Nb4 O2 2.058145 1_545
N0 Nb0 2.022642 1_445
N0 Nb3 2.085931 1_554
N0 Sr6 2.677580 1_555
N0 Sr4 2.677580 1_555
N0 Sr0 2.818591 1_455
N0 Sr7 2.818591 1_545
N1 Nb1 2.042399 1_555
N1 Nb3 2.042399 1_555
N1 Sr3 2.726859 1_555
N1 Sr9 2.726859 1_555
N1 Sr5 2.726859 1_555
N1 Sr2 2.726859 1_555
N2 Nb4 2.022642 1_665
N2 Nb1 2.085931 1_556
N2 Sr1 2.677580 1_555
N2 Sr8 2.677580 1_555
N2 Sr0 2.818591 1_566
N2 Sr7 2.818591 1_656
N3 Nb4 2.044901 1_555
N3 Nb2 2.070467 1_555
N3 Sr6 2.673938 1_555
N3 Sr4 2.673938 1_555
N3 Sr3 2.824069 1_555
N3 Sr5 2.824069 1_555
N4 Nb0 2.044901 1_555
N4 Nb2 2.070467 1_556
N4 Sr8 2.673938 1_555
N4 Sr1 2.673938 1_555
N4 Sr2 2.824069 1_555
N4 Sr9 2.824069 1_555
O0 Sr0 2.458191 1_555
O0 Sr6 2.858551 1_555
O0 Sr8 2.858551 1_554
O0 Sr5 2.902787 1_555
O0 Sr9 2.902787 1_554
O1 Sr1 2.455118 1_545
O1 Sr7 2.872254 1_546
O1 Sr5 2.882306 1_555
O1 Sr6 2.884697 1_556
O1 Sr9 2.893891 1_555
O2 Sr2 2.482491 1_555
O2 Sr6 2.828143 1_565
O2 Sr8 2.851898 1_455
O2 Sr5 2.980442 1_565
O2 Sr7 2.982139 1_556
O3 Sr3 2.482491 1_555
O3 Sr8 2.828143 1_455
O3 Sr6 2.851898 1_565
O3 Sr9 2.980442 1_455
O3 Sr7 2.982139 1_555
O4 Sr4 2.455118 1_655
O4 Sr7 2.872254 1_655
O4 Sr9 2.882306 1_555
O4 Sr8 2.884697 1_554
O4 Sr5 2.893891 1_555
O5 Sr5 2.482491 1_555
O5 Sr1 2.828143 1_545
O5 Sr4 2.851898 1_655
O5 Sr2 2.980442 1_545
O5 Sr0 2.982139 1_555
O6 Sr6 2.455118 1_565
O6 Sr0 2.872254 1_565
O6 Sr2 2.882306 1_555
O6 Sr1 2.884697 1_554
O6 Sr3 2.893891 1_555
O7 Sr7 2.458191 1_555
O7 Sr1 2.858551 1_554
O7 Sr4 2.858551 1_555
O7 Sr3 2.902787 1_555
O7 Sr2 2.902787 1_554
O8 Sr8 2.455118 1_455
O8 Sr0 2.872254 1_456
O8 Sr3 2.882306 1_555
O8 Sr4 2.884697 1_556
O8 Sr2 2.893891 1_555
O9 Sr9 2.482491 1_555
O9 Sr4 2.828143 1_655
O9 Sr1 2.851898 1_545
O9 Sr3 2.980442 1_655
O9 Sr0 2.982139 1_556
O10 Sr9 2.688928 1_555
O10 Sr2 2.688928 1_555
O10 Sr4 2.801138 1_556
O10 Sr6 2.801138 1_556
O11 Sr0 2.712214 1_565
O11 Sr7 2.712214 1_655
O11 Sr2 2.794631 1_555
O11 Sr9 2.794631 1_555
O12 Sr0 2.712214 1_456
O12 Sr7 2.712214 1_546
O12 Sr3 2.794631 1_555
O12 Sr5 2.794631 1_555
O13 Sr3 2.688928 1_555
O13 Sr5 2.688928 1_555
O13 Sr8 2.801138 1_554
O13 Sr1 2.801138 1_554
