# generated using pymatgen
data_Mg14AlB
_symmetry_space_group_name_H-M   'P 1'
_cell_length_a   6.18293924
_cell_length_b   6.21198000
_cell_length_c   10.11354633
_cell_angle_alpha   90.00000000
_cell_angle_beta   90.00000000
_cell_angle_gamma   120.15549990
_symmetry_Int_Tables_number   1
_chemical_formula_structural   Mg14AlB
_chemical_formula_sum   'Mg14 Al1 B1'
_cell_volume   335.87407853
_cell_formula_units_Z   1
loop_
 _symmetry_equiv_pos_site_id
 _symmetry_equiv_pos_as_xyz
  1  'x, y, z'
loop_
 _atom_site_type_symbol
 _atom_site_label
 _atom_site_symmetry_multiplicity
 _atom_site_fract_x
 _atom_site_fract_y
 _atom_site_fract_z
 _atom_site_occupancy
  Mg  Mg0  1  0.17097695  0.33548798  0.62500000  1
  Mg  Mg1  1  0.17045048  0.83522474  0.62500000  1
  Mg  Mg2  1  0.67512169  0.33499127  0.12500000  1
  Mg  Mg3  1  0.66505630  0.33363069  0.62500000  1
  Mg  Mg4  1  0.67512169  0.84012942  0.12500000  1
  Mg  Mg5  1  0.66505630  0.83142461  0.62500000  1
  Mg  Mg6  1  0.32524887  0.15742444  0.35842871  1
  Mg  Mg7  1  0.32524887  0.15742444  0.89157129  1
  Mg  Mg8  1  0.32524887  0.66782543  0.35842871  1
  Mg  Mg9  1  0.32524887  0.66782543  0.89157129  1
  Mg  Mg10  1  0.83544244  0.16772172  0.37597518  1
  Mg  Mg11  1  0.83544244  0.16772172  0.87402482  1
  Mg  Mg12  1  0.84111445  0.67055773  0.36636988  1
  Mg  Mg13  1  0.84111445  0.67055773  0.88363012  1
  Al  Al0  1  0.15958131  0.32979015  0.12500000  1
  B  B0  1  0.16452601  0.83226250  0.12500000  1
loop_
_geom_bond_atom_site_label_1
_geom_bond_atom_site_label_2
_geom_bond_distance
_geom_bond_site_symmetry_2
Mg0 Mg5 3.060674 1_555
Mg0 Mg3 3.060675 1_555
Mg0 Mg10 3.092050 1_455
Mg0 Mg11 3.092050 1_455
Mg0 Mg1 3.105991 1_555
Mg0 Mg1 3.105991 1_545
Mg0 Mg5 3.122297 1_445
Mg0 Mg3 3.122297 1_455
Mg0 Mg7 3.234456 1_555
Mg0 Mg6 3.234456 1_555
Mg0 Mg9 3.234462 1_555
Mg0 Mg8 3.234462 1_555
Mg1 Mg3 3.070044 1_565
Mg1 Mg5 3.070044 1_555
Mg1 Mg3 3.113030 1_455
Mg1 Mg5 3.113030 1_455
Mg1 Mg13 3.153052 1_455
Mg1 Mg12 3.153052 1_455
Mg1 Mg9 3.204010 1_555
Mg1 Mg8 3.204010 1_555
Mg1 Mg6 3.204016 1_565
Mg1 Mg7 3.204016 1_565
Mg2 Mg6 3.012026 1_555
Mg2 Mg7 3.012026 1_554
Mg2 Mg4 3.074072 1_545
Mg2 Mg4 3.137908 1_555
Mg3 Mg5 3.092286 1_555
Mg3 Mg5 3.119694 1_545
Mg3 Mg7 3.251174 1_555
Mg3 Mg6 3.251174 1_555
Mg4 Mg8 3.012027 1_555
Mg4 Mg9 3.012027 1_554
Mg5 Mg8 3.251174 1_555
Mg5 Mg9 3.251174 1_555
Mg6 Mg8 3.041379 1_545
Mg6 Mg8 3.170601 1_555
Mg7 Mg9 3.041379 1_545
Mg7 Mg9 3.170601 1_555
Mg10 Mg8 3.066216 1_655
Mg10 Mg6 3.066216 1_655
Mg10 Mg2 3.088656 1_555
Mg10 Mg4 3.088662 1_545
Mg10 Mg3 3.099327 1_555
Mg10 Mg5 3.099334 1_545
Mg10 Mg12 3.107657 1_545
Mg10 Mg12 3.107657 1_555
Mg10 Mg8 3.127890 1_545
Mg10 Mg6 3.127890 1_555
Mg11 Mg9 3.066216 1_655
Mg11 Mg7 3.066216 1_655
Mg11 Mg2 3.088656 1_556
Mg11 Mg4 3.088662 1_546
Mg11 Mg3 3.099327 1_555
Mg11 Mg5 3.099334 1_545
Mg11 Mg13 3.107657 1_545
Mg11 Mg13 3.107657 1_555
Mg11 Mg9 3.127890 1_545
Mg11 Mg7 3.127890 1_555
Mg12 Mg6 3.003010 1_665
Mg12 Mg8 3.003010 1_655
Mg12 Mg4 3.034488 1_555
Mg12 Mg2 3.034494 1_555
Mg12 Mg5 3.180909 1_555
Mg12 Mg3 3.180915 1_555
Mg12 Mg6 3.182087 1_555
Mg12 Mg8 3.182087 1_555
Mg13 Mg7 3.003010 1_665
Mg13 Mg9 3.003010 1_655
Mg13 Mg4 3.034488 1_556
Mg13 Mg2 3.034494 1_556
Mg13 Mg5 3.180909 1_555
Mg13 Mg3 3.180915 1_555
Mg13 Mg7 3.182087 1_555
Mg13 Mg9 3.182087 1_555
Al0 Mg6 2.978412 1_555
Al0 Mg7 2.978412 1_554
Al0 Mg9 2.978419 1_554
Al0 Mg8 2.978419 1_555
Al0 Mg4 3.011744 1_445
Al0 Mg2 3.011744 1_455
Al0 Mg11 3.073379 1_454
Al0 Mg10 3.073379 1_455
Al0 Mg4 3.171447 1_555
Al0 Mg2 3.171447 1_555
B0 Mg8 2.936687 1_555
B0 Mg9 2.936687 1_554
B0 Mg7 2.936694 1_564
B0 Mg6 2.936694 1_565
B0 Mg12 2.991402 1_455
B0 Mg13 2.991402 1_454
B0 Mg2 3.050799 1_455
B0 Mg4 3.050799 1_455
