# generated using pymatgen
data_YMg14Ti
_symmetry_space_group_name_H-M   'P 1'
_cell_length_a   6.49428215
_cell_length_b   6.38501387
_cell_length_c   10.33024763
_cell_angle_alpha   90.00000000
_cell_angle_beta   90.00000000
_cell_angle_gamma   119.44497233
_symmetry_Int_Tables_number   1
_chemical_formula_structural   YMg14Ti
_chemical_formula_sum   'Y1 Mg14 Ti1'
_cell_volume   373.02352974
_cell_formula_units_Z   1
loop_
 _symmetry_equiv_pos_site_id
 _symmetry_equiv_pos_as_xyz
  1  'x, y, z'
loop_
 _atom_site_type_symbol
 _atom_site_label
 _atom_site_symmetry_multiplicity
 _atom_site_fract_x
 _atom_site_fract_y
 _atom_site_fract_z
 _atom_site_occupancy
  Y  Y0  1  0.16516533  0.33258216  0.12500000  1
  Mg  Mg0  1  0.16632986  0.33316443  0.62500000  1
  Mg  Mg1  1  0.16490677  0.83245289  0.62500000  1
  Mg  Mg2  1  0.66110797  0.32681862  0.12500000  1
  Mg  Mg3  1  0.66648630  0.33427988  0.62500000  1
  Mg  Mg4  1  0.66110797  0.83428835  0.12500000  1
  Mg  Mg5  1  0.66648630  0.83220542  0.62500000  1
  Mg  Mg6  1  0.33418712  0.16145227  0.37682457  1
  Mg  Mg7  1  0.33418712  0.16145227  0.87317543  1
  Mg  Mg8  1  0.33418712  0.67273585  0.37682457  1
  Mg  Mg9  1  0.33418712  0.67273585  0.87317543  1
  Mg  Mg10  1  0.83140294  0.16570197  0.37930809  1
  Mg  Mg11  1  0.83140294  0.16570197  0.87069191  1
  Mg  Mg12  1  0.83919853  0.66959976  0.36884226  1
  Mg  Mg13  1  0.83919853  0.66959976  0.88115774  1
  Ti  Ti0  1  0.17045810  0.83522855  0.12500000  1
loop_
_geom_bond_atom_site_label_1
_geom_bond_atom_site_label_2
_geom_bond_distance
_geom_bond_site_symmetry_2
Mg0 Mg10 3.166944 1_455
Mg0 Mg11 3.166944 1_455
Mg0 Mg6 3.184039 1_555
Mg0 Mg7 3.184039 1_555
Mg0 Mg9 3.184046 1_555
Mg0 Mg8 3.184046 1_555
Mg0 Mg1 3.192517 1_545
Mg0 Mg1 3.192517 1_555
Mg0 Mg5 3.244662 1_555
Mg0 Mg3 3.244662 1_555
Mg0 Mg5 3.249632 1_445
Mg0 Mg3 3.249632 1_455
Mg1 Mg8 3.150150 1_555
Mg1 Mg9 3.150150 1_555
Mg1 Mg6 3.150156 1_565
Mg1 Mg7 3.150156 1_565
Mg1 Mg12 3.224165 1_455
Mg1 Mg13 3.224165 1_455
Mg1 Mg3 3.236106 1_455
Mg1 Mg5 3.236107 1_455
Mg1 Mg3 3.258176 1_565
Mg1 Mg5 3.258176 1_555
Mg2 Mg4 3.144813 1_545
Mg2 Ti0 3.189374 1_545
Mg2 Mg7 3.191520 1_554
Mg2 Mg6 3.191520 1_555
Mg2 Y0 3.239041 1_555
Mg2 Mg4 3.240201 1_555
Mg2 Y0 3.255558 1_655
Mg2 Ti0 3.304916 1_655
Mg3 Mg6 3.179019 1_555
Mg3 Mg7 3.179019 1_555
Mg3 Mg5 3.179261 1_555
Mg3 Mg5 3.205752 1_545
Mg4 Ti0 3.189374 1_555
Mg4 Mg8 3.191520 1_555
Mg4 Mg9 3.191520 1_554
Mg4 Y0 3.239040 1_555
Mg4 Y0 3.255558 1_665
Mg4 Ti0 3.304916 1_655
Mg5 Mg8 3.179019 1_555
Mg5 Mg9 3.179019 1_555
Mg6 Mg8 3.120461 1_545
Mg6 Ti0 3.171603 1_545
Mg6 Y0 3.216420 1_555
Mg6 Mg8 3.264553 1_555
Mg7 Mg9 3.120461 1_545
Mg7 Ti0 3.171603 1_546
Mg7 Y0 3.216420 1_556
Mg7 Mg9 3.264553 1_555
Mg8 Ti0 3.171597 1_555
Mg8 Y0 3.216427 1_555
Mg9 Ti0 3.171597 1_556
Mg9 Y0 3.216427 1_556
Mg10 Mg3 3.143375 1_555
Mg10 Mg5 3.143381 1_545
Mg10 Mg12 3.194641 1_555
Mg10 Mg12 3.194641 1_545
Mg10 Mg2 3.209587 1_555
Mg10 Mg4 3.209594 1_545
Mg10 Mg8 3.215910 1_545
Mg10 Mg6 3.215910 1_555
Mg10 Y0 3.234866 1_655
Mg10 Mg8 3.278747 1_655
Mg10 Mg6 3.278747 1_655
Mg11 Mg3 3.143375 1_555
Mg11 Mg5 3.143381 1_545
Mg11 Mg13 3.194641 1_555
Mg11 Mg13 3.194641 1_545
Mg11 Mg2 3.209587 1_556
Mg11 Mg4 3.209594 1_546
Mg11 Mg9 3.215910 1_545
Mg11 Mg7 3.215910 1_555
Mg11 Y0 3.234866 1_656
Mg11 Mg9 3.278747 1_655
Mg11 Mg7 3.278747 1_655
Mg12 Ti0 3.139230 1_655
Mg12 Mg4 3.159782 1_555
Mg12 Mg2 3.159788 1_555
Mg12 Mg6 3.205860 1_665
Mg12 Mg8 3.205860 1_655
Mg12 Mg5 3.237776 1_555
Mg12 Mg3 3.237782 1_555
Mg12 Mg6 3.290609 1_555
Mg12 Mg8 3.290610 1_555
Mg13 Ti0 3.139230 1_656
Mg13 Mg4 3.159782 1_556
Mg13 Mg2 3.159788 1_556
Mg13 Mg7 3.205860 1_665
Mg13 Mg9 3.205860 1_655
Mg13 Mg5 3.237776 1_555
Mg13 Mg3 3.237782 1_555
Mg13 Mg7 3.290609 1_555
Mg13 Mg9 3.290610 1_555
Ti0 Y0 3.192647 1_565
Ti0 Y0 3.192647 1_555
