# generated using pymatgen
data_TlPdPb
_symmetry_space_group_name_H-M   'P 1'
_cell_length_a   6.83979315
_cell_length_b   5.76698898
_cell_length_c   5.59025213
_cell_angle_alpha   74.04269662
_cell_angle_beta   54.16077895
_cell_angle_gamma   51.79652443
_symmetry_Int_Tables_number   1
_chemical_formula_structural   TlPdPb
_chemical_formula_sum   'Tl2 Pd2 Pb2'
_cell_volume   139.14897145
_cell_formula_units_Z   2
loop_
 _symmetry_equiv_pos_site_id
 _symmetry_equiv_pos_as_xyz
  1  'x, y, z'
loop_
 _atom_site_type_symbol
 _atom_site_label
 _atom_site_symmetry_multiplicity
 _atom_site_fract_x
 _atom_site_fract_y
 _atom_site_fract_z
 _atom_site_occupancy
  Tl  Tl0  1  0.33254969  0.66745031  0.33254969  1
  Tl  Tl1  1  0.66745031  0.33254969  0.66745031  1
  Pd  Pd0  1  0.75000000  0.75000000  0.75000000  1
  Pd  Pd1  1  0.25000000  0.25000000  0.25000000  1
  Pb  Pb0  1  0.16263759  0.16263759  0.83736241  1
  Pb  Pb1  1  0.83736241  0.83736241  0.16263759  1
loop_
_geom_bond_atom_site_label_1
_geom_bond_atom_site_label_2
_geom_bond_distance
_geom_bond_site_symmetry_2
Pd0 Pd1 2.977105 1_655
Pd0 Pd1 2.977105 1_566
Pd0 Tl0 2.987437 1_655
Pd0 Tl1 2.987437 1_555
Pd0 Tl1 2.987437 1_565
Pd0 Tl0 2.987437 1_556
Pd1 Tl1 2.987437 1_554
Pd1 Tl0 2.987437 1_555
Pd1 Tl0 2.987437 1_545
Pd1 Tl1 2.987437 1_455
Pb0 Pd1 2.925317 1_556
Pb0 Pd0 2.925317 1_455
Pb0 Pd1 2.925317 1_555
Pb0 Pd0 2.925317 1_545
Pb1 Pd1 2.925317 1_655
Pb1 Pd0 2.925317 1_555
Pb1 Pd1 2.925317 1_565
Pb1 Pd0 2.925317 1_554
