# generated using pymatgen
data_Cu4Se3
_symmetry_space_group_name_H-M   'P 1'
_cell_length_a   3.77578858
_cell_length_b   3.77578858
_cell_length_c   9.87159068
_cell_angle_alpha   101.02545905
_cell_angle_beta   101.02545905
_cell_angle_gamma   59.99998979
_symmetry_Int_Tables_number   1
_chemical_formula_structural   Cu4Se3
_chemical_formula_sum   'Cu4 Se3'
_cell_volume   118.87121007
_cell_formula_units_Z   1
loop_
 _symmetry_equiv_pos_site_id
 _symmetry_equiv_pos_as_xyz
  1  'x, y, z'
loop_
 _atom_site_type_symbol
 _atom_site_label
 _atom_site_symmetry_multiplicity
 _atom_site_fract_x
 _atom_site_fract_y
 _atom_site_fract_z
 _atom_site_occupancy
  Cu  Cu0  1  0.36877000  0.36877000  0.10630900  1
  Cu  Cu1  1  0.89365200  0.89365200  0.68095500  1
  Cu  Cu2  1  0.13123000  0.13123000  0.39369100  1
  Cu  Cu3  1  0.60634800  0.60634800  0.81904500  1
  Se  Se0  1  0.98167100  0.98167100  0.94501400  1
  Se  Se1  1  0.51832900  0.51832900  0.55498600  1
  Se  Se2  1  0.75000000  0.75000000  0.25000000  1
loop_
_geom_bond_atom_site_label_1
_geom_bond_atom_site_label_2
_geom_bond_distance
_geom_bond_site_symmetry_2
Cu0 Se2 2.581877 1_555
Cu0 Se2 2.581880 1_455
Cu0 Se2 2.581880 1_545
Cu0 Se0 2.676522 1_454
Cu0 Se0 2.676522 1_544
Cu0 Se0 2.676528 1_444
Cu1 Se1 2.494616 1_655
Cu1 Se1 2.494616 1_565
Cu1 Se1 2.494617 1_555
Cu1 Se0 2.542329 1_555
Cu1 Cu3 2.553388 1_565
Cu1 Cu3 2.553388 1_655
Cu1 Cu3 2.553394 1_555
Cu2 Se2 2.581877 1_445
Cu2 Se2 2.581880 1_455
Cu2 Se2 2.581880 1_545
Cu2 Se1 2.676522 1_455
Cu2 Se1 2.676522 1_545
Cu2 Se1 2.676528 1_555
Cu3 Se0 2.494616 1_455
Cu3 Se0 2.494616 1_545
Cu3 Se0 2.494617 1_555
Cu3 Se1 2.542329 1_555
