# generated using pymatgen
data_Rb2PrBr5
_symmetry_space_group_name_H-M   'P 1'
_cell_length_a   8.68664953
_cell_length_b   9.38185434
_cell_length_c   13.85452643
_cell_angle_alpha   90.00000000
_cell_angle_beta   90.00000000
_cell_angle_gamma   90.00000000
_symmetry_Int_Tables_number   1
_chemical_formula_structural   Rb2PrBr5
_chemical_formula_sum   'Rb8 Pr4 Br20'
_cell_volume   1129.10068614
_cell_formula_units_Z   4
loop_
 _symmetry_equiv_pos_site_id
 _symmetry_equiv_pos_as_xyz
  1  'x, y, z'
loop_
 _atom_site_type_symbol
 _atom_site_label
 _atom_site_symmetry_multiplicity
 _atom_site_fract_x
 _atom_site_fract_y
 _atom_site_fract_z
 _atom_site_occupancy
  Rb  Rb0  1  0.94584486  0.00434041  0.82760970  1
  Rb  Rb1  1  0.05415514  0.99565959  0.17239030  1
  Rb  Rb2  1  0.44584486  0.99565959  0.67239030  1
  Rb  Rb3  1  0.05415514  0.50434041  0.17239030  1
  Rb  Rb4  1  0.55415514  0.00434041  0.32760970  1
  Rb  Rb5  1  0.94584486  0.49565959  0.82760970  1
  Rb  Rb6  1  0.55415514  0.49565959  0.32760970  1
  Rb  Rb7  1  0.44584486  0.50434041  0.67239030  1
  Pr  Pr0  1  0.92407655  0.75000000  0.50518275  1
  Pr  Pr1  1  0.07592345  0.25000000  0.49481725  1
  Pr  Pr2  1  0.42407655  0.25000000  0.99481725  1
  Pr  Pr3  1  0.57592345  0.75000000  0.00518275  1
  Br  Br0  1  0.12466389  0.75000000  0.67701473  1
  Br  Br1  1  0.87533611  0.25000000  0.32298527  1
  Br  Br2  1  0.62466389  0.25000000  0.82298527  1
  Br  Br3  1  0.37533611  0.75000000  0.17701473  1
  Br  Br4  1  0.83525103  0.04400198  0.57546900  1
  Br  Br5  1  0.16474897  0.95599802  0.42453100  1
  Br  Br6  1  0.33525103  0.95599802  0.92453100  1
  Br  Br7  1  0.16474897  0.54400198  0.42453100  1
  Br  Br8  1  0.66474897  0.04400198  0.07546900  1
  Br  Br9  1  0.83525103  0.45599802  0.57546900  1
  Br  Br10  1  0.66474897  0.45599802  0.07546900  1
  Br  Br11  1  0.33525103  0.54400198  0.92453100  1
  Br  Br12  1  0.58172427  0.75000000  0.50978546  1
  Br  Br13  1  0.41827573  0.25000000  0.49021454  1
  Br  Br14  1  0.08172427  0.25000000  0.99021454  1
  Br  Br15  1  0.91827573  0.75000000  0.00978546  1
  Br  Br16  1  0.66069162  0.75000000  0.79799095  1
  Br  Br17  1  0.33930838  0.25000000  0.20200905  1
  Br  Br18  1  0.16069162  0.25000000  0.70200905  1
  Br  Br19  1  0.83930838  0.75000000  0.29799095  1
loop_
_geom_bond_atom_site_label_1
_geom_bond_atom_site_label_2
_geom_bond_distance
_geom_bond_site_symmetry_2
Br0 Pr0 2.950181 1_455
Br0 Rb0 3.529857 1_465
Br0 Rb5 3.529857 1_455
Br0 Rb2 3.619388 1_555
Br0 Rb7 3.619388 1_555
Br1 Pr1 2.950181 1_655
Br1 Rb1 3.529857 1_645
Br1 Rb3 3.529857 1_655
Br1 Rb6 3.619388 1_555
Br1 Rb4 3.619388 1_555
Br2 Pr2 2.950181 1_555
Br2 Rb2 3.529857 1_545
Br2 Rb7 3.529857 1_555
Br2 Rb5 3.619388 1_555
Br2 Rb0 3.619388 1_555
Br3 Pr3 2.950181 1_555
Br3 Rb4 3.529857 1_565
Br3 Rb6 3.529857 1_555
Br3 Rb3 3.619388 1_555
Br3 Rb1 3.619388 1_555
Br4 Pr0 3.025185 1_545
Br4 Pr1 3.058503 1_655
Br4 Rb0 3.642040 1_555
Br4 Rb2 3.667564 1_545
Br5 Pr1 3.025185 1_565
Br5 Pr0 3.058503 1_455
Br5 Rb1 3.642040 1_555
Br5 Rb4 3.667564 1_565
Br6 Pr2 3.025185 1_565
Br6 Pr3 3.058503 1_556
Br6 Rb2 3.642040 1_555
Br6 Rb0 3.667564 1_465
Br7 Pr1 3.025185 1_555
Br7 Pr0 3.058503 1_455
Br7 Rb3 3.642040 1_555
Br7 Rb6 3.667564 1_555
Br8 Pr3 3.025185 1_545
Br8 Pr2 3.058503 1_554
Br8 Rb4 3.642040 1_555
Br8 Rb1 3.667564 1_645
Br9 Pr0 3.025185 1_555
Br9 Pr1 3.058503 1_655
Br9 Rb5 3.642040 1_555
Br9 Rb7 3.667564 1_555
Br10 Pr3 3.025185 1_555
Br10 Pr2 3.058503 1_554
Br10 Rb6 3.642040 1_555
Br10 Rb3 3.667564 1_655
Br11 Pr2 3.025185 1_555
Br11 Pr3 3.058503 1_556
Br11 Rb7 3.642040 1_555
Br11 Rb5 3.667564 1_455
Br12 Pr0 2.974578 1_555
Br12 Rb7 3.432230 1_555
Br12 Rb2 3.432230 1_555
Br12 Rb6 3.481609 1_555
Br12 Rb4 3.481609 1_565
Br13 Pr1 2.974578 1_555
Br13 Rb4 3.432230 1_555
Br13 Rb6 3.432230 1_555
Br13 Rb7 3.481609 1_555
Br13 Rb2 3.481609 1_545
Br14 Pr2 2.974578 1_555
Br14 Rb0 3.432230 1_455
Br14 Rb5 3.432230 1_455
Br14 Rb1 3.481609 1_546
Br14 Rb3 3.481609 1_556
Br15 Pr3 2.974578 1_555
Br15 Rb1 3.432230 1_655
Br15 Rb3 3.432230 1_655
Br15 Rb0 3.481609 1_564
Br15 Rb5 3.481609 1_554
Br16 Pr3 2.963484 1_556
Br16 Rb2 3.438457 1_555
Br16 Rb7 3.438457 1_555
Br16 Rb0 3.463802 1_565
Br16 Rb5 3.463802 1_555
Br17 Pr2 2.963484 1_554
Br17 Rb4 3.438457 1_555
Br17 Rb6 3.438457 1_555
Br17 Rb3 3.463802 1_555
Br17 Rb1 3.463802 1_545
Br18 Pr1 2.963484 1_555
Br18 Rb5 3.438457 1_455
Br18 Rb0 3.438457 1_455
Br18 Rb7 3.463802 1_555
Br18 Rb2 3.463802 1_545
Br19 Pr0 2.963484 1_555
Br19 Rb3 3.438457 1_655
Br19 Rb1 3.438457 1_655
Br19 Rb4 3.463802 1_565
Br19 Rb6 3.463802 1_555
