# generated using pymatgen
data_CoP2O7
_symmetry_space_group_name_H-M   'P 1'
_cell_length_a   12.87783100
_cell_length_b   8.99891000
_cell_length_c   9.52326148
_cell_angle_alpha   70.14200970
_cell_angle_beta   90.00000000
_cell_angle_gamma   90.00000000
_symmetry_Int_Tables_number   1
_chemical_formula_structural   CoP2O7
_chemical_formula_sum   'Co8 P16 O56'
_cell_volume   1037.99300828
_cell_formula_units_Z   8
loop_
 _symmetry_equiv_pos_site_id
 _symmetry_equiv_pos_as_xyz
  1  'x, y, z'
loop_
 _atom_site_type_symbol
 _atom_site_label
 _atom_site_symmetry_multiplicity
 _atom_site_fract_x
 _atom_site_fract_y
 _atom_site_fract_z
 _atom_site_occupancy
  Co  Co0  1  0.25346100  0.24625500  0.75400500  1
  Co  Co1  1  0.75346100  0.75374500  0.74599500  1
  Co  Co2  1  0.74653900  0.75374500  0.24599500  1
  Co  Co3  1  0.24653900  0.24625500  0.25400500  1
  Co  Co4  1  0.08767100  0.25095200  0.99768200  1
  Co  Co5  1  0.58767100  0.74904800  0.50231800  1
  Co  Co6  1  0.91232900  0.74904800  0.00231800  1
  Co  Co7  1  0.41232900  0.25095200  0.49768200  1
  P  P0  1  0.28795900  0.48289600  0.93312400  1
  P  P1  1  0.78795900  0.51710400  0.56687600  1
  P  P2  1  0.71204100  0.51710400  0.06687600  1
  P  P3  1  0.21204100  0.48289600  0.43312400  1
  P  P4  1  0.03669700  0.44142300  0.23745300  1
  P  P5  1  0.53669700  0.55857700  0.26254700  1
  P  P6  1  0.96330300  0.55857700  0.76254700  1
  P  P7  1  0.46330300  0.44142300  0.73745300  1
  P  P8  1  0.27773900  0.00786500  0.07347900  1
  P  P9  1  0.77773900  0.99213500  0.42652100  1
  P  P10  1  0.72226100  0.99213500  0.92652100  1
  P  P11  1  0.22226100  0.00786500  0.57347900  1
  P  P12  1  0.45172400  0.04340100  0.26926000  1
  P  P13  1  0.95172400  0.95659900  0.23074000  1
  P  P14  1  0.54827600  0.95659900  0.73074000  1
  P  P15  1  0.04827600  0.04340100  0.76926000  1
  O  O0  1  0.21779500  0.37459300  0.87203600  1
  O  O1  1  0.71779500  0.62540700  0.62796400  1
  O  O2  1  0.78220500  0.62540700  0.12796400  1
  O  O3  1  0.28220500  0.37459300  0.37203600  1
  O  O4  1  0.31977400  0.39047800  0.09679000  1
  O  O5  1  0.81977400  0.60952200  0.40321000  1
  O  O6  1  0.68022600  0.60952200  0.90321000  1
  O  O7  1  0.18022600  0.39047800  0.59679000  1
  O  O8  1  0.23639200  0.63722600  0.91481600  1
  O  O9  1  0.73639200  0.36277400  0.58518400  1
  O  O10  1  0.76360800  0.36277400  0.08518400  1
  O  O11  1  0.26360800  0.63722600  0.41481600  1
  O  O12  1  0.39477500  0.50601900  0.84501400  1
  O  O13  1  0.89477500  0.49398100  0.65498600  1
  O  O14  1  0.60522500  0.49398100  0.15498600  1
  O  O15  1  0.10522500  0.50601900  0.34501400  1
  O  O16  1  0.99531100  0.41076400  0.89210300  1
  O  O17  1  0.49531100  0.58923600  0.60789700  1
  O  O18  1  0.00468900  0.58923600  0.10789700  1
  O  O19  1  0.50468900  0.41076400  0.39210300  1
  O  O20  1  0.94540700  0.34813000  0.31919400  1
  O  O21  1  0.44540700  0.65187000  0.18080600  1
  O  O22  1  0.05459300  0.65187000  0.68080600  1
  O  O23  1  0.55459300  0.34813000  0.81919400  1
  O  O24  1  0.11494400  0.34431800  0.17422000  1
  O  O25  1  0.61494400  0.65568200  0.32578000  1
  O  O26  1  0.88505600  0.65568200  0.82578000  1
  O  O27  1  0.38505600  0.34431800  0.67422000  1
  O  O28  1  0.20988000  0.12237400  0.13102600  1
  O  O29  1  0.70988000  0.87762600  0.36897400  1
  O  O30  1  0.79012000  0.87762600  0.86897400  1
  O  O31  1  0.29012000  0.12237400  0.63102600  1
  O  O32  1  0.17688400  0.10232800  0.41677100  1
  O  O33  1  0.67688400  0.89767200  0.08322900  1
  O  O34  1  0.82311600  0.89767200  0.58322900  1
  O  O35  1  0.32311600  0.10232800  0.91677100  1
  O  O36  1  0.21783300  0.86482000  0.07779400  1
  O  O37  1  0.71783300  0.13518000  0.42220600  1
  O  O38  1  0.78216700  0.13518000  0.92220600  1
  O  O39  1  0.28216700  0.86482000  0.57779400  1
  O  O40  1  0.37483900  0.96413200  0.18208300  1
  O  O41  1  0.87483900  0.03586800  0.31791700  1
  O  O42  1  0.62516100  0.03586800  0.81791700  1
  O  O43  1  0.12516100  0.96413200  0.68208300  1
  O  O44  1  0.48972600  0.90454200  0.40229700  1
  O  O45  1  0.98972600  0.09545800  0.09770300  1
  O  O46  1  0.51027400  0.09545800  0.59770300  1
  O  O47  1  0.01027400  0.90454200  0.90229700  1
  O  O48  1  0.53733600  0.13456600  0.17064600  1
  O  O49  1  0.03733600  0.86543400  0.32935400  1
  O  O50  1  0.46266400  0.86543400  0.82935400  1
  O  O51  1  0.96266400  0.13456600  0.67064600  1
  O  O52  1  0.12120700  0.14953900  0.83103300  1
  O  O53  1  0.62120700  0.85046100  0.66896700  1
  O  O54  1  0.87879300  0.85046100  0.16896700  1
  O  O55  1  0.37879300  0.14953900  0.33103300  1
loop_
_geom_bond_atom_site_label_1
_geom_bond_atom_site_label_2
_geom_bond_distance
_geom_bond_site_symmetry_2
Co0 O7 1.869584 1_555
Co0 O35 1.876402 1_555
Co0 O0 1.920980 1_555
Co0 O31 1.929832 1_555
Co0 O52 1.939730 1_555
Co0 O27 1.942264 1_555
Co1 O6 1.869584 1_555
Co1 O34 1.876402 1_555
Co1 O1 1.920980 1_555
Co1 O30 1.929832 1_555
Co1 O53 1.939730 1_555
Co1 O26 1.942264 1_555
Co2 O5 1.869584 1_555
Co2 O33 1.876402 1_555
Co2 O2 1.920980 1_555
Co2 O29 1.929832 1_555
Co2 O54 1.939730 1_555
Co2 O25 1.942264 1_555
Co3 O4 1.869584 1_555
Co3 O32 1.876402 1_555
Co3 O3 1.920980 1_555
Co3 O28 1.929832 1_555
Co3 O55 1.939730 1_555
Co3 O24 1.942264 1_555
Co4 O16 1.873890 1_455
Co4 O45 1.884329 1_456
Co4 O28 2.104743 1_556
Co4 O52 2.126509 1_555
Co4 O0 2.138516 1_555
Co4 O24 2.148354 1_556
Co5 O17 1.873890 1_555
Co5 O44 1.884329 1_555
Co5 O29 2.104743 1_555
Co5 O53 2.126509 1_555
Co5 O1 2.138516 1_555
Co5 O25 2.148354 1_555
Co6 O18 1.873890 1_655
Co6 O47 1.884329 1_654
Co6 O30 2.104743 1_554
Co6 O54 2.126509 1_555
Co6 O2 2.138516 1_555
Co6 O26 2.148354 1_554
Co7 O19 1.873890 1_555
Co7 O46 1.884329 1_555
Co7 O31 2.104743 1_555
Co7 O55 2.126509 1_555
Co7 O3 2.138516 1_555
Co7 O27 2.148354 1_555
O0 P0 1.577949 1_555
O1 P1 1.577949 1_555
O2 P2 1.577949 1_555
O3 P3 1.577949 1_555
O4 P0 1.551841 1_554
O5 P1 1.551841 1_555
O6 P2 1.551841 1_556
O7 P3 1.551841 1_555
O8 P0 1.495210 1_555
O9 P1 1.495210 1_555
O10 P2 1.495210 1_555
O11 P3 1.495210 1_555
O12 P0 1.587740 1_555
O12 P7 1.603271 1_555
O13 P1 1.587740 1_555
O13 P6 1.603271 1_555
O14 P2 1.587740 1_555
O14 P5 1.603271 1_555
O15 P3 1.587740 1_555
O15 P4 1.603271 1_555
O16 P6 1.531833 1_555
O17 P7 1.531833 1_555
O18 P4 1.531833 1_555
O19 P5 1.531833 1_555
O20 P4 1.499624 1_655
O21 P5 1.499624 1_555
O22 P6 1.499624 1_455
O23 P7 1.499624 1_555
O24 P4 1.580848 1_555
O25 P5 1.580848 1_555
O26 P6 1.580848 1_555
O27 P7 1.580848 1_555
O28 P8 1.584142 1_555
O29 P9 1.584142 1_555
O30 P10 1.584142 1_555
O31 P11 1.584142 1_555
O32 P11 1.558649 1_555
O33 P10 1.558649 1_554
O34 P9 1.558649 1_555
O35 P8 1.558649 1_556
O36 P8 1.489265 1_565
O37 P9 1.489265 1_545
O38 P10 1.489265 1_545
O39 P11 1.489265 1_565
O40 P8 1.584818 1_565
O40 P12 1.606473 1_565
O41 P9 1.584818 1_545
O41 P13 1.606473 1_545
O42 P10 1.584818 1_545
O42 P14 1.606473 1_545
O43 P11 1.584818 1_565
O43 P15 1.606473 1_565
O44 P12 1.526610 1_565
O45 P13 1.526610 1_545
O46 P14 1.526610 1_545
O47 P15 1.526610 1_565
O48 P12 1.499022 1_555
O49 P13 1.499022 1_455
O50 P14 1.499022 1_555
O51 P15 1.499022 1_655
O52 P15 1.588129 1_555
O53 P14 1.588129 1_555
O54 P13 1.588129 1_555
O55 P12 1.588129 1_555
