# generated using pymatgen
data_PrB12
_symmetry_space_group_name_H-M   'P 1'
_cell_length_a   5.37068389
_cell_length_b   5.37068389
_cell_length_c   5.37068389
_cell_angle_alpha   60.00000000
_cell_angle_beta   60.00000000
_cell_angle_gamma   60.00000000
_symmetry_Int_Tables_number   1
_chemical_formula_structural   PrB12
_chemical_formula_sum   'Pr1 B12'
_cell_volume   109.54026229
_cell_formula_units_Z   1
loop_
 _symmetry_equiv_pos_site_id
 _symmetry_equiv_pos_as_xyz
  1  'x, y, z'
loop_
 _atom_site_type_symbol
 _atom_site_label
 _atom_site_symmetry_multiplicity
 _atom_site_fract_x
 _atom_site_fract_y
 _atom_site_fract_z
 _atom_site_occupancy
  Pr  Pr0  1  0.00000000  0.00000000  0.00000000  1
  B  B0  1  0.50000000  0.16344100  0.50000000  1
  B  B1  1  0.50000000  0.83655900  0.50000000  1
  B  B2  1  0.83655900  0.50000000  0.50000000  1
  B  B3  1  0.50000000  0.83655900  0.16344100  1
  B  B4  1  0.16344100  0.50000000  0.83655900  1
  B  B5  1  0.83655900  0.50000000  0.16344100  1
  B  B6  1  0.50000000  0.50000000  0.83655900  1
  B  B7  1  0.16344100  0.83655900  0.50000000  1
  B  B8  1  0.50000000  0.16344100  0.83655900  1
  B  B9  1  0.50000000  0.50000000  0.16344100  1
  B  B10  1  0.83655900  0.16344100  0.50000000  1
  B  B11  1  0.16344100  0.50000000  0.50000000  1
loop_
_geom_bond_atom_site_label_1
_geom_bond_atom_site_label_2
_geom_bond_distance
_geom_bond_site_symmetry_2
B0 B1 1.755580 1_545
B0 B9 1.807552 1_555
B0 B11 1.807552 1_555
B0 B10 1.807552 1_555
B0 B8 1.807552 1_555
B0 Pr0 2.825168 1_556
B0 Pr0 2.825168 1_655
B1 B3 1.807552 1_555
B1 B7 1.807552 1_555
B1 B2 1.807552 1_555
B1 B6 1.807552 1_555
B1 Pr0 2.825168 1_665
B1 Pr0 2.825168 1_566
B2 B5 1.807552 1_555
B2 B6 1.807552 1_555
B2 Pr0 2.825168 1_656
B2 Pr0 2.825168 1_665
B3 B8 1.755580 1_564
B3 B7 1.807552 1_555
B3 B5 1.807552 1_555
B3 B9 1.807552 1_555
B3 Pr0 2.825168 1_665
B3 Pr0 2.825168 1_565
B4 B5 1.755580 1_456
B4 B6 1.807552 1_555
B4 B8 1.807552 1_555
B4 B7 1.807552 1_555
B4 Pr0 2.825168 1_566
B4 Pr0 2.825168 1_556
B5 B9 1.807552 1_555
B5 Pr0 2.825168 1_665
B5 Pr0 2.825168 1_655
B6 B9 1.755580 1_556
B6 B8 1.807552 1_555
B6 Pr0 2.825168 1_656
B6 Pr0 2.825168 1_566
B7 Pr0 2.825168 1_566
B7 Pr0 2.825168 1_565
B8 Pr0 2.825168 1_656
B8 Pr0 2.825168 1_556
B9 Pr0 2.825168 1_565
B9 Pr0 2.825168 1_655
B10 B7 1.755580 1_645
B10 B5 1.807552 1_555
B10 B2 1.807552 1_555
B10 B8 1.807552 1_555
B10 Pr0 2.825168 1_656
B10 Pr0 2.825168 1_655
B11 B2 1.755580 1_455
B11 B9 1.807552 1_555
B11 B4 1.807552 1_555
B11 B7 1.807552 1_555
B11 Pr0 2.825168 1_565
B11 Pr0 2.825168 1_556
