# generated using pymatgen
data_BiXeF7
_symmetry_space_group_name_H-M   'P 1'
_cell_length_a   9.90101454
_cell_length_b   5.14254015
_cell_length_c   12.53042048
_cell_angle_alpha   88.82255505
_cell_angle_beta   90.00000000
_cell_angle_gamma   90.00000000
_symmetry_Int_Tables_number   1
_chemical_formula_structural   BiXeF7
_chemical_formula_sum   'Bi4 Xe4 F28'
_cell_volume   637.86874542
_cell_formula_units_Z   4
loop_
 _symmetry_equiv_pos_site_id
 _symmetry_equiv_pos_as_xyz
  1  'x, y, z'
loop_
 _atom_site_type_symbol
 _atom_site_label
 _atom_site_symmetry_multiplicity
 _atom_site_fract_x
 _atom_site_fract_y
 _atom_site_fract_z
 _atom_site_occupancy
  Bi  Bi0  1  0.01655070  0.61121979  0.71994363  1
  Bi  Bi1  1  0.51655070  0.38878021  0.78005637  1
  Bi  Bi2  1  0.98344930  0.38878021  0.28005637  1
  Bi  Bi3  1  0.48344930  0.61121979  0.21994363  1
  Xe  Xe0  1  0.73385363  0.00924897  0.52240340  1
  Xe  Xe1  1  0.23385363  -0.00924897  0.97759660  1
  Xe  Xe2  1  0.26614637  -0.00924897  0.47759660  1
  Xe  Xe3  1  0.76614637  0.00924897  0.02240340  1
  F  F0  1  0.90835095  0.79129738  0.58785535  1
  F  F1  1  0.40835095  0.20870262  0.91214465  1
  F  F2  1  0.09164905  0.20870262  0.41214465  1
  F  F3  1  0.59164905  0.79129738  0.08785535  1
  F  F4  1  0.12363212  0.94323727  0.72081679  1
  F  F5  1  0.62363212  0.05676273  0.77918321  1
  F  F6  1  0.87636788  0.05676273  0.27918321  1
  F  F7  1  0.37636788  0.94323727  0.22081679  1
  F  F8  1  0.58355686  0.21315742  0.45799993  1
  F  F9  1  0.08355686  0.78684258  0.04200007  1
  F  F10  1  0.41644314  0.78684258  0.54200007  1
  F  F11  1  0.91644314  0.21315742  0.95799993  1
  F  F12  1  0.13640373  0.48776374  0.60180547  1
  F  F13  1  0.63640373  0.51223626  0.89819453  1
  F  F14  1  0.86359627  0.51223626  0.39819453  1
  F  F15  1  0.36359627  0.48776374  0.10180547  1
  F  F16  1  0.12750059  0.46063766  0.84048196  1
  F  F17  1  0.62750059  0.53936234  0.65951804  1
  F  F18  1  0.87249941  0.53936234  0.15951804  1
  F  F19  1  0.37249941  0.46063766  0.34048196  1
  F  F20  1  0.87968734  0.76683289  0.81733239  1
  F  F21  1  0.37968734  0.23316711  0.68266761  1
  F  F22  1  0.12031266  0.23316711  0.18266761  1
  F  F23  1  0.62031266  0.76683289  0.31733239  1
  F  F24  1  0.89668414  0.30185651  0.70076557  1
  F  F25  1  0.39668414  0.69814349  0.79923443  1
  F  F26  1  0.10331586  0.69814349  0.29923443  1
  F  F27  1  0.60331586  0.30185651  0.20076557  1
loop_
_geom_bond_atom_site_label_1
_geom_bond_atom_site_label_2
_geom_bond_distance
_geom_bond_site_symmetry_2
Bi0 F20 2.001493 1_455
Bi0 F24 2.003238 1_455
Bi0 F16 2.009881 1_555
Bi0 F4 2.010026 1_555
Bi0 F12 2.010279 1_555
Bi0 F0 2.163717 1_455
Bi1 F21 2.001493 1_555
Bi1 F25 2.003238 1_555
Bi1 F17 2.009881 1_555
Bi1 F5 2.010026 1_555
Bi1 F13 2.010279 1_555
Bi1 F1 2.163717 1_555
Bi2 F22 2.001493 1_655
Bi2 F26 2.003238 1_655
Bi2 F18 2.009881 1_555
Bi2 F6 2.010026 1_555
Bi2 F14 2.010279 1_555
Bi2 F2 2.163717 1_655
Bi3 F23 2.001493 1_555
Bi3 F27 2.003238 1_555
Bi3 F19 2.009881 1_555
Bi3 F7 2.010026 1_555
Bi3 F15 2.010279 1_555
Bi3 F3 2.163717 1_555
F0 Xe0 2.208178 1_565
F1 Xe1 2.208178 1_555
F2 Xe2 2.208178 1_555
F3 Xe3 2.208178 1_565
F8 Xe0 1.982540 1_555
F9 Xe1 1.982540 1_564
F10 Xe2 1.982540 1_565
F11 Xe3 1.982540 1_556
