# generated using pymatgen
data_Nb4C3
_symmetry_space_group_name_H-M   'P 1'
_cell_length_a   4.47076600
_cell_length_b   4.47076600
_cell_length_c   4.47076600
_cell_angle_alpha   90.00000000
_cell_angle_beta   90.00000000
_cell_angle_gamma   90.00000000
_symmetry_Int_Tables_number   1
_chemical_formula_structural   Nb4C3
_chemical_formula_sum   'Nb4 C3'
_cell_volume   89.36054698
_cell_formula_units_Z   1
loop_
 _symmetry_equiv_pos_site_id
 _symmetry_equiv_pos_as_xyz
  1  'x, y, z'
loop_
 _atom_site_type_symbol
 _atom_site_label
 _atom_site_symmetry_multiplicity
 _atom_site_fract_x
 _atom_site_fract_y
 _atom_site_fract_z
 _atom_site_occupancy
  Nb  Nb0  1  0.00000000  0.50000000  0.00000000  1
  Nb  Nb1  1  0.00000000  0.00000000  0.50000000  1
  Nb  Nb2  1  0.50000000  0.00000000  0.00000000  1
  Nb  Nb3  1  0.50000000  0.50000000  0.50000000  1
  C  C0  1  0.50000000  0.00000000  0.50000000  1
  C  C1  1  0.50000000  0.50000000  0.00000000  1
  C  C2  1  0.00000000  0.50000000  0.50000000  1
loop_
_geom_bond_atom_site_label_1
_geom_bond_atom_site_label_2
_geom_bond_distance
_geom_bond_site_symmetry_2
C0 Nb1 2.235383 1_555
C0 Nb2 2.235383 1_555
C0 Nb2 2.235383 1_556
C0 Nb1 2.235383 1_655
C0 Nb3 2.235383 1_555
C0 Nb3 2.235383 1_545
C1 Nb2 2.235383 1_555
C1 Nb3 2.235383 1_554
C1 Nb0 2.235383 1_655
C1 Nb3 2.235383 1_555
C1 Nb0 2.235383 1_555
C1 Nb2 2.235383 1_565
C2 Nb1 2.235383 1_555
C2 Nb1 2.235383 1_565
C2 Nb3 2.235383 1_455
C2 Nb3 2.235383 1_555
C2 Nb0 2.235383 1_556
C2 Nb0 2.235383 1_555
