# generated using pymatgen
data_Mg16TaAl12
_symmetry_space_group_name_H-M   'P 1'
_cell_length_a   9.03759984
_cell_length_b   9.03759984
_cell_length_c   9.03759992
_cell_angle_alpha   109.33044062
_cell_angle_beta   109.33044062
_cell_angle_gamma   109.33043044
_symmetry_Int_Tables_number   1
_chemical_formula_structural   Mg16TaAl12
_chemical_formula_sum   'Mg16 Ta1 Al12'
_cell_volume   571.19008743
_cell_formula_units_Z   1
loop_
 _symmetry_equiv_pos_site_id
 _symmetry_equiv_pos_as_xyz
  1  'x, y, z'
loop_
 _atom_site_type_symbol
 _atom_site_label
 _atom_site_symmetry_multiplicity
 _atom_site_fract_x
 _atom_site_fract_y
 _atom_site_fract_z
 _atom_site_occupancy
  Mg  Mg0  1  0.00087900  0.00087900  0.00087900  1
  Mg  Mg1  1  0.00028300  0.00028300  0.65489600  1
  Mg  Mg2  1  0.59668400  0.59668400  0.28417900  1
  Mg  Mg3  1  0.31810900  0.31810900  0.71672400  1
  Mg  Mg4  1  0.68560800  0.39765800  0.00046400  1
  Mg  Mg5  1  0.59668400  0.28417900  0.59668400  1
  Mg  Mg6  1  0.00046400  0.68560800  0.39765800  1
  Mg  Mg7  1  0.00028300  0.65489600  0.00028300  1
  Mg  Mg8  1  0.39765800  0.00046400  0.68560800  1
  Mg  Mg9  1  0.71672400  0.31810900  0.31810900  1
  Mg  Mg10  1  0.31810900  0.71672400  0.31810900  1
  Mg  Mg11  1  0.00046400  0.39765800  0.68560800  1
  Mg  Mg12  1  0.65489600  0.00028300  0.00028300  1
  Mg  Mg13  1  0.68560800  0.00046400  0.39765800  1
  Mg  Mg14  1  0.28417900  0.59668400  0.59668400  1
  Mg  Mg15  1  0.39765800  0.68560800  0.00046400  1
  Ta  Ta0  1  0.33227200  0.33227200  0.33227200  1
  Al  Al0  1  0.81378100  0.81378100  0.18142300  1
  Al  Al1  1  0.62983400  0.62983400  0.81467100  1
  Al  Al2  1  0.36764400  0.18923300  0.00817900  1
  Al  Al3  1  0.18923300  0.00817900  0.36764400  1
  Al  Al4  1  0.81467100  0.62983400  0.62983400  1
  Al  Al5  1  0.36764400  0.00817900  0.18923300  1
  Al  Al6  1  0.18142300  0.81378100  0.81378100  1
  Al  Al7  1  0.81378100  0.18142300  0.81378100  1
  Al  Al8  1  0.00817900  0.36764400  0.18923300  1
  Al  Al9  1  0.62983400  0.81467100  0.62983400  1
  Al  Al10  1  0.00817900  0.18923300  0.36764400  1
  Al  Al11  1  0.18923300  0.36764400  0.00817900  1
loop_
_geom_bond_atom_site_label_1
_geom_bond_atom_site_label_2
_geom_bond_distance
_geom_bond_site_symmetry_2
Mg0 Ta0 3.015749 1_555
Mg0 Mg12 3.123294 1_455
Mg0 Mg7 3.123294 1_545
Mg0 Mg1 3.123294 1_554
Mg1 Mg13 3.020117 1_455
Mg1 Mg6 3.020117 1_545
Mg1 Mg3 3.037452 1_555
Mg2 Ta0 3.033896 1_555
Mg2 Mg9 3.115868 1_555
Mg2 Mg4 3.118293 1_555
Mg2 Mg6 3.170090 1_655
Mg3 Mg4 3.111906 1_556
Mg3 Mg5 3.115868 1_555
Mg3 Mg8 3.130955 1_555
Mg3 Ta0 3.561333 1_555
Mg4 Mg7 3.020118 1_655
Mg4 Mg9 3.130955 1_555
Mg4 Mg6 3.147371 1_655
Mg4 Mg8 3.147371 1_554
Mg4 Mg5 3.170090 1_554
Mg5 Ta0 3.033896 1_555
Mg5 Mg9 3.115868 1_555
Mg5 Mg8 3.118293 1_555
Mg6 Mg9 3.111907 1_455
Mg6 Mg8 3.147371 1_565
Mg9 Ta0 3.561333 1_555
Mg10 Mg7 3.037452 1_555
Mg10 Mg8 3.111906 1_565
Mg10 Mg13 3.111907 1_565
Mg10 Mg2 3.115868 1_555
Mg10 Mg14 3.115868 1_555
Mg10 Mg15 3.130955 1_555
Mg10 Mg6 3.130955 1_555
Mg10 Ta0 3.561333 1_555
Mg11 Mg7 3.020117 1_556
Mg11 Mg9 3.111906 1_455
Mg11 Mg14 3.118293 1_555
Mg11 Mg3 3.130955 1_555
Mg11 Mg15 3.147371 1_556
Mg11 Mg13 3.147371 1_455
Mg11 Mg5 3.170090 1_455
Mg12 Mg8 3.020117 1_554
Mg12 Mg15 3.020118 1_545
Mg12 Mg9 3.037452 1_555
Mg13 Mg5 3.118293 1_555
Mg13 Mg9 3.130955 1_555
Mg13 Mg15 3.147371 1_545
Mg13 Mg2 3.170090 1_545
Mg14 Ta0 3.033896 1_555
Mg14 Mg3 3.115868 1_555
Mg14 Mg6 3.118293 1_555
Mg14 Mg15 3.170090 1_556
Mg14 Mg8 3.170090 1_565
Mg15 Mg3 3.111906 1_554
Mg15 Mg2 3.118293 1_555
Al0 Al1 2.718110 1_554
Al0 Al3 2.783519 1_665
Al0 Al10 2.783519 1_665
Al0 Mg2 2.902688 1_555
Al0 Mg6 2.935501 1_655
Al0 Mg13 2.935501 1_565
Al0 Mg12 3.075023 1_565
Al0 Mg7 3.075023 1_655
Al0 Mg15 3.154316 1_555
Al0 Mg4 3.154316 1_555
Al0 Mg0 3.184503 1_665
Al1 Al9 2.725515 1_555
Al1 Al4 2.725515 1_555
Al1 Mg3 2.846203 1_555
Al1 Mg5 2.940233 1_555
Al1 Mg14 2.940233 1_555
Al1 Mg12 3.098792 1_566
Al1 Mg7 3.098792 1_656
Al1 Mg15 3.154187 1_556
Al1 Mg4 3.154187 1_556
Al1 Mg0 3.225751 1_666
Al2 Al5 2.669733 1_555
Al2 Al6 2.783519 1_544
Al2 Mg4 2.906348 1_555
Al2 Mg9 2.951719 1_555
Al2 Ta0 2.956224 1_555
Al2 Mg8 3.003354 1_554
Al2 Mg2 3.085637 1_555
Al2 Mg1 3.122868 1_554
Al2 Mg0 3.151908 1_555
Al2 Mg3 3.176612 1_554
Al3 Al5 2.630761 1_555
Al3 Mg8 2.906347 1_555
Al3 Mg3 2.951719 1_555
Al3 Ta0 2.956224 1_555
Al3 Mg6 3.003354 1_545
Al3 Mg5 3.085637 1_555
Al3 Mg7 3.122868 1_545
Al3 Mg0 3.151908 1_555
Al3 Mg10 3.176612 1_545
Al4 Al6 2.718110 1_655
Al4 Al9 2.725515 1_555
Al4 Mg9 2.846203 1_555
Al4 Mg2 2.940233 1_555
Al4 Mg5 2.940233 1_555
Al4 Mg7 3.098792 1_656
Al4 Mg1 3.098792 1_665
Al4 Mg11 3.154186 1_655
Al4 Mg6 3.154187 1_655
Al4 Mg0 3.225751 1_666
Al5 Al6 2.783519 1_544
Al5 Mg13 2.906347 1_555
Al5 Mg9 2.951719 1_555
Al5 Ta0 2.956224 1_555
Al5 Mg15 3.003354 1_545
Al5 Mg5 3.085637 1_555
Al5 Mg7 3.122868 1_545
Al5 Mg0 3.151908 1_555
Al5 Mg10 3.176612 1_545
Al6 Mg14 2.902687 1_555
Al6 Mg15 2.935500 1_556
Al6 Mg8 2.935501 1_565
Al6 Mg1 3.075023 1_565
Al6 Mg7 3.075023 1_556
Al6 Mg6 3.154316 1_555
Al6 Mg11 3.154316 1_555
Al6 Mg0 3.184503 1_566
Al7 Al9 2.718110 1_545
Al7 Al8 2.783519 1_656
Al7 Mg5 2.902687 1_555
Al7 Mg4 2.935500 1_556
Al7 Mg11 2.935501 1_655
Al7 Mg1 3.075023 1_655
Al7 Mg12 3.075023 1_556
Al7 Mg13 3.154316 1_555
Al7 Mg8 3.154316 1_555
Al7 Mg0 3.184503 1_656
Al8 Mg6 2.906347 1_555
Al8 Mg10 2.951719 1_555
Al8 Ta0 2.956224 1_555
Al8 Mg4 3.003354 1_455
Al8 Mg14 3.085637 1_555
Al8 Mg12 3.122868 1_455
Al8 Mg0 3.151908 1_555
Al8 Mg9 3.176612 1_455
Al9 Mg10 2.846203 1_555
Al9 Mg2 2.940233 1_555
Al9 Mg14 2.940233 1_555
Al9 Mg12 3.098792 1_566
Al9 Mg1 3.098792 1_665
Al9 Mg8 3.154186 1_565
Al9 Mg13 3.154187 1_565
Al9 Mg0 3.225751 1_666
Al10 Al8 2.630761 1_555
Al10 Al3 2.669733 1_555
Al10 Mg11 2.906347 1_555
Al10 Mg3 2.951719 1_555
Al10 Ta0 2.956224 1_555
Al10 Mg13 3.003354 1_455
Al10 Mg14 3.085637 1_555
Al10 Mg12 3.122868 1_455
Al10 Mg0 3.151908 1_555
Al10 Mg9 3.176612 1_455
Al11 Al2 2.630760 1_555
Al11 Al8 2.669733 1_555
Al11 Al7 2.783519 1_454
Al11 Mg15 2.906348 1_555
Al11 Mg10 2.951719 1_555
Al11 Ta0 2.956224 1_555
Al11 Mg11 3.003354 1_554
Al11 Mg2 3.085637 1_555
Al11 Mg1 3.122868 1_554
Al11 Mg0 3.151908 1_555
Al11 Mg3 3.176612 1_554
