# generated using pymatgen
data_MgSiO3
_symmetry_space_group_name_H-M   'P 1'
_cell_length_a   5.33113100
_cell_length_b   8.92094000
_cell_length_c   18.70779200
_cell_angle_alpha   90.00000000
_cell_angle_beta   90.00000000
_cell_angle_gamma   90.00000000
_symmetry_Int_Tables_number   1
_chemical_formula_structural   MgSiO3
_chemical_formula_sum   'Mg16 Si16 O48'
_cell_volume   889.71826333
_cell_formula_units_Z   16
loop_
 _symmetry_equiv_pos_site_id
 _symmetry_equiv_pos_as_xyz
  1  'x, y, z'
loop_
 _atom_site_type_symbol
 _atom_site_label
 _atom_site_symmetry_multiplicity
 _atom_site_fract_x
 _atom_site_fract_y
 _atom_site_fract_z
 _atom_site_occupancy
  Mg  Mg0  1  0.09720500  0.10135000  0.68657200  1
  Mg  Mg1  1  0.90279500  0.89865000  0.18657200  1
  Mg  Mg2  1  0.40279500  0.10135000  0.18657200  1
  Mg  Mg3  1  0.59720500  0.89865000  0.68657200  1
  Mg  Mg4  1  0.09509200  0.74341300  0.68869700  1
  Mg  Mg5  1  0.90490800  0.25658700  0.18869700  1
  Mg  Mg6  1  0.40490800  0.74341300  0.18869700  1
  Mg  Mg7  1  0.59509200  0.25658700  0.68869700  1
  Mg  Mg8  1  0.96483700  0.40013400  0.93814500  1
  Mg  Mg9  1  0.03516300  0.59986600  0.43814500  1
  Mg  Mg10  1  0.53516300  0.40013400  0.43814500  1
  Mg  Mg11  1  0.46483700  0.59986600  0.93814500  1
  Mg  Mg12  1  0.46558000  0.24104100  0.93676400  1
  Mg  Mg13  1  0.53442000  0.75895900  0.43676400  1
  Mg  Mg14  1  0.03442000  0.24104100  0.43676400  1
  Mg  Mg15  1  0.96558000  0.75895900  0.93676400  1
  Si  Si0  1  0.56953300  0.91142400  0.03937900  1
  Si  Si1  1  0.43046700  0.08857600  0.53937900  1
  Si  Si2  1  0.93046700  0.91142400  0.53937900  1
  Si  Si3  1  0.06953300  0.08857600  0.03937900  1
  Si  Si4  1  0.62353900  0.41197300  0.08386800  1
  Si  Si5  1  0.37646100  0.58802700  0.58386800  1
  Si  Si6  1  0.87646100  0.41197300  0.58386800  1
  Si  Si7  1  0.12353900  0.58802700  0.08386800  1
  Si  Si8  1  0.76839400  0.08918200  0.83502200  1
  Si  Si9  1  0.23160600  0.91081800  0.33502200  1
  Si  Si10  1  0.73160600  0.08918200  0.33502200  1
  Si  Si11  1  0.26839400  0.91081800  0.83502200  1
  Si  Si12  1  0.29976200  0.41093500  0.79149200  1
  Si  Si13  1  0.70023800  0.58906500  0.29149200  1
  Si  Si14  1  0.20023800  0.41093500  0.29149200  1
  Si  Si15  1  0.79976200  0.58906500  0.79149200  1
  O  O0  1  0.57347400  0.90781900  0.12711700  1
  O  O1  1  0.42652600  0.09218100  0.62711700  1
  O  O2  1  0.92652600  0.90781900  0.62711700  1
  O  O3  1  0.07347400  0.09218100  0.12711700  1
  O  O4  1  0.65187700  0.76152200  0.99698900  1
  O  O5  1  0.34812300  0.23847800  0.49698900  1
  O  O6  1  0.84812300  0.76152200  0.49698900  1
  O  O7  1  0.15187700  0.23847800  0.99698900  1
  O  O8  1  0.78020900  0.04028600  0.01311400  1
  O  O9  1  0.21979100  0.95971400  0.51311400  1
  O  O10  1  0.71979100  0.04028600  0.51311400  1
  O  O11  1  0.28020900  0.95971400  0.01311400  1
  O  O12  1  0.62724800  0.40881800  0.99656800  1
  O  O13  1  0.37275200  0.59118200  0.49656800  1
  O  O14  1  0.87275200  0.40881800  0.49656800  1
  O  O15  1  0.12724800  0.59118200  0.99656800  1
  O  O16  1  0.41365500  0.53866100  0.11050100  1
  O  O17  1  0.58634500  0.46133900  0.61050100  1
  O  O18  1  0.08634500  0.53866100  0.61050100  1
  O  O19  1  0.91365500  0.46133900  0.11050100  1
  O  O20  1  0.08911000  0.74013000  0.12845700  1
  O  O21  1  0.91089000  0.25987000  0.62845700  1
  O  O22  1  0.41089000  0.74013000  0.62845700  1
  O  O23  1  0.58911000  0.25987000  0.12845700  1
  O  O24  1  0.77173000  0.08927900  0.74778100  1
  O  O25  1  0.22827000  0.91072100  0.24778100  1
  O  O26  1  0.72827000  0.08927900  0.24778100  1
  O  O27  1  0.27173000  0.91072100  0.74778100  1
  O  O28  1  0.28529200  0.75296800  0.87592300  1
  O  O29  1  0.71470800  0.24703200  0.37592300  1
  O  O30  1  0.21470800  0.75296800  0.37592300  1
  O  O31  1  0.78529200  0.24703200  0.87592300  1
  O  O32  1  0.48664800  0.03008800  0.86488700  1
  O  O33  1  0.51335200  0.96991200  0.36488700  1
  O  O34  1  0.01335200  0.03008800  0.36488700  1
  O  O35  1  0.98664800  0.96991200  0.86488700  1
  O  O36  1  0.29324700  0.40827700  0.87860200  1
  O  O37  1  0.70675300  0.59172300  0.37860200  1
  O  O38  1  0.20675300  0.40827700  0.37860200  1
  O  O39  1  0.79324700  0.59172300  0.87860200  1
  O  O40  1  0.27872400  0.25511100  0.74881000  1
  O  O41  1  0.72127600  0.74488900  0.24881000  1
  O  O42  1  0.22127600  0.25511100  0.24881000  1
  O  O43  1  0.77872400  0.74488900  0.74881000  1
  O  O44  1  0.58319100  0.46820000  0.76331200  1
  O  O45  1  0.41680900  0.53180000  0.26331200  1
  O  O46  1  0.91680900  0.46820000  0.26331200  1
  O  O47  1  0.08319100  0.53180000  0.76331200  1
loop_
_geom_bond_atom_site_label_1
_geom_bond_atom_site_label_2
_geom_bond_distance
_geom_bond_site_symmetry_2
Mg0 O21 2.041668 1_455
Mg0 O40 2.042955 1_555
Mg0 O1 2.079942 1_555
Mg0 O24 2.081721 1_455
Mg0 O2 2.246289 1_445
Mg0 O27 2.251422 1_545
Mg1 O20 2.041668 1_655
Mg1 O41 2.042955 1_555
Mg1 O0 2.079942 1_555
Mg1 O25 2.081721 1_655
Mg1 O3 2.246289 1_665
Mg1 O26 2.251422 1_565
Mg2 O23 2.041668 1_555
Mg2 O42 2.042955 1_555
Mg2 O3 2.079942 1_555
Mg2 O26 2.081721 1_555
Mg2 O0 2.246289 1_545
Mg2 O25 2.251422 1_545
Mg3 O22 2.041668 1_555
Mg3 O43 2.042955 1_555
Mg3 O2 2.079942 1_555
Mg3 O27 2.081721 1_555
Mg3 O1 2.246289 1_565
Mg3 O24 2.251422 1_565
Mg4 O22 2.026146 1_555
Mg4 O43 2.027184 1_455
Mg4 O2 2.070220 1_455
Mg4 O27 2.082356 1_555
Mg4 O18 2.340635 1_555
Mg4 O47 2.348670 1_555
Mg5 O23 2.026146 1_555
Mg5 O42 2.027184 1_655
Mg5 O3 2.070220 1_655
Mg5 O26 2.082356 1_555
Mg5 O19 2.340635 1_555
Mg5 O46 2.348670 1_555
Mg6 O20 2.026146 1_555
Mg6 O41 2.027184 1_555
Mg6 O0 2.070220 1_555
Mg6 O25 2.082356 1_555
Mg6 O16 2.340635 1_555
Mg6 O45 2.348670 1_555
Mg7 O21 2.026146 1_555
Mg7 O40 2.027184 1_555
Mg7 O1 2.070220 1_555
Mg7 O24 2.082356 1_555
Mg7 O17 2.340635 1_555
Mg7 O44 2.348670 1_555
Mg8 O31 2.033868 1_555
Mg8 O7 2.070229 1_655
Mg8 O36 2.076386 1_655
Mg8 O12 2.107038 1_555
Mg8 O15 2.202039 1_655
Mg8 O39 2.235805 1_555
Mg9 O30 2.033868 1_555
Mg9 O6 2.070229 1_455
Mg9 O37 2.076386 1_455
Mg9 O13 2.107038 1_555
Mg9 O14 2.202039 1_455
Mg9 O38 2.235805 1_555
Mg10 O29 2.033868 1_555
Mg10 O5 2.070229 1_555
Mg10 O38 2.076386 1_555
Mg10 O14 2.107038 1_555
Mg10 O13 2.202039 1_555
Mg10 O37 2.235805 1_555
Mg11 O28 2.033868 1_555
Mg11 O4 2.070229 1_555
Mg11 O39 2.076386 1_555
Mg11 O15 2.107038 1_555
Mg11 O12 2.202039 1_555
Mg11 O36 2.235805 1_555
Mg12 O7 2.016635 1_555
Mg12 O31 2.050226 1_555
Mg12 O12 2.057848 1_555
Mg12 O36 2.062465 1_555
Mg12 O32 2.315657 1_555
Mg13 O6 2.016635 1_555
Mg13 O30 2.050226 1_555
Mg13 O13 2.057848 1_555
Mg13 O37 2.062465 1_555
Mg13 O33 2.315657 1_555
Mg14 O5 2.016635 1_555
Mg14 O29 2.050226 1_455
Mg14 O14 2.057848 1_455
Mg14 O38 2.062465 1_555
Mg14 O34 2.315657 1_555
Mg15 O4 2.016635 1_555
Mg15 O28 2.050226 1_655
Mg15 O15 2.057848 1_655
Mg15 O39 2.062465 1_555
Mg15 O35 2.315657 1_555
O0 Si0 1.641834 1_555
O1 Si1 1.641834 1_555
O2 Si2 1.641834 1_555
O3 Si3 1.641834 1_555
O4 Si0 1.615512 1_556
O5 Si1 1.615512 1_555
O6 Si2 1.615512 1_555
O7 Si3 1.615512 1_556
O8 Si3 1.675138 1_655
O8 Si0 1.680593 1_545
O9 Si2 1.675138 1_455
O9 Si1 1.680593 1_565
O10 Si1 1.675138 1_555
O10 Si2 1.680593 1_545
O11 Si0 1.675138 1_555
O11 Si3 1.680593 1_565
O12 Si4 1.633552 1_556
O13 Si5 1.633552 1_555
O14 Si6 1.633552 1_555
O15 Si7 1.633552 1_556
O16 Si4 1.666591 1_555
O16 Si7 1.683540 1_555
O17 Si5 1.666591 1_555
O17 Si6 1.683540 1_555
O18 Si6 1.666591 1_455
O18 Si5 1.683540 1_555
O19 Si7 1.666591 1_655
O19 Si4 1.683540 1_555
O20 Si7 1.603339 1_555
O21 Si6 1.603339 1_555
O22 Si5 1.603339 1_555
O23 Si4 1.603339 1_555
O24 Si8 1.632184 1_555
O25 Si9 1.632184 1_555
O26 Si10 1.632184 1_555
O27 Si11 1.632184 1_555
O28 Si11 1.605161 1_555
O29 Si10 1.605161 1_555
O30 Si9 1.605161 1_555
O31 Si8 1.605161 1_555
O32 Si11 1.672746 1_545
O32 Si8 1.687052 1_555
O33 Si10 1.672746 1_565
O33 Si9 1.687052 1_555
O34 Si9 1.672746 1_545
O34 Si10 1.687052 1_455
O35 Si8 1.672746 1_565
O35 Si11 1.687052 1_655
O36 Si12 1.630178 1_555
O37 Si13 1.630178 1_555
O38 Si14 1.630178 1_555
O39 Si15 1.630178 1_555
O40 Si12 1.607024 1_555
O41 Si13 1.607024 1_555
O42 Si14 1.607024 1_555
O43 Si15 1.607024 1_555
O44 Si15 1.665392 1_555
O44 Si12 1.679885 1_555
O45 Si14 1.665392 1_555
O45 Si13 1.679885 1_555
O46 Si13 1.665392 1_555
O46 Si14 1.679885 1_655
O47 Si12 1.665392 1_555
O47 Si15 1.679885 1_455
