# generated using pymatgen
data_Al(HO)3
_symmetry_space_group_name_H-M   'P 1'
_cell_length_a   5.01923700
_cell_length_b   5.03390200
_cell_length_c   7.04835500
_cell_angle_alpha   90.00000000
_cell_angle_beta   90.00000000
_cell_angle_gamma   90.00000000
_symmetry_Int_Tables_number   1
_chemical_formula_structural   Al(HO)3
_chemical_formula_sum   'Al4 H12 O12'
_cell_volume   178.08618443
_cell_formula_units_Z   4
loop_
 _symmetry_equiv_pos_site_id
 _symmetry_equiv_pos_as_xyz
  1  'x, y, z'
loop_
 _atom_site_type_symbol
 _atom_site_label
 _atom_site_symmetry_multiplicity
 _atom_site_fract_x
 _atom_site_fract_y
 _atom_site_fract_z
 _atom_site_occupancy
  Al  Al0  1  0.00000000  0.00000000  0.50000000  1
  Al  Al1  1  0.50000000  0.50000000  0.00000000  1
  Al  Al2  1  0.00000000  0.00000000  0.00000000  1
  Al  Al3  1  0.50000000  0.50000000  0.50000000  1
  H  H0  1  0.26343800  0.29378700  0.75000000  1
  H  H1  1  0.76343800  0.20621300  0.75000000  1
  H  H2  1  0.73656200  0.70621300  0.25000000  1
  H  H3  1  0.23656200  0.79378700  0.25000000  1
  H  H4  1  0.00000000  0.50000000  0.00000000  1
  H  H5  1  0.50000000  0.00000000  0.50000000  1
  H  H6  1  0.00000000  0.50000000  0.50000000  1
  H  H7  1  0.50000000  0.00000000  0.00000000  1
  H  H8  1  0.34862800  0.85274300  0.75000000  1
  H  H9  1  0.84862800  0.64725700  0.75000000  1
  H  H10  1  0.65137200  0.14725700  0.25000000  1
  H  H11  1  0.15137200  0.35274300  0.25000000  1
  O  O0  1  0.44261500  0.37616700  0.75000000  1
  O  O1  1  0.94261500  0.12383300  0.75000000  1
  O  O2  1  0.55738500  0.62383300  0.25000000  1
  O  O3  1  0.05738500  0.87616700  0.25000000  1
  O  O4  1  0.33830900  0.84864600  0.92656000  1
  O  O5  1  0.83830900  0.65135400  0.57344000  1
  O  O6  1  0.66169100  0.15135400  0.42656000  1
  O  O7  1  0.16169100  0.34864600  0.07344000  1
  O  O8  1  0.66169100  0.15135400  0.07344000  1
  O  O9  1  0.16169100  0.34864600  0.42656000  1
  O  O10  1  0.33830900  0.84864600  0.57344000  1
  O  O11  1  0.83830900  0.65135400  0.92656000  1
loop_
_geom_bond_atom_site_label_1
_geom_bond_atom_site_label_2
_geom_bond_distance
_geom_bond_site_symmetry_2
Al0 O1 1.891163 1_455
Al0 O3 1.891163 1_545
Al0 O10 1.931792 1_545
Al0 O6 1.931792 1_455
Al0 O9 2.001694 1_555
Al0 O5 2.001694 1_445
Al1 O2 1.891163 1_555
Al1 O0 1.891163 1_554
Al1 O7 1.931792 1_555
Al1 O11 1.931792 1_554
Al1 O8 2.001694 1_555
Al1 O4 2.001694 1_554
Al2 O1 1.891163 1_454
Al2 O3 1.891163 1_545
Al2 O4 1.931792 1_544
Al2 O8 1.931792 1_455
Al2 O11 2.001694 1_444
Al2 O7 2.001694 1_555
Al3 O2 1.891163 1_555
Al3 O0 1.891163 1_555
Al3 O9 1.931792 1_555
Al3 O5 1.931792 1_555
Al3 O6 2.001694 1_555
Al3 O10 2.001694 1_555
H0 O0 0.990337 1_555
H1 O1 0.990337 1_555
H2 O2 0.990337 1_555
H3 O3 0.990337 1_555
H4 O7 1.227629 1_555
H4 O11 1.227629 1_454
H5 O6 1.227629 1_555
H5 O10 1.227629 1_545
H6 O9 1.227629 1_555
H6 O5 1.227629 1_455
H7 O8 1.227629 1_555
H7 O4 1.227629 1_544
H8 O10 1.245706 1_555
H8 O4 1.245706 1_555
H9 O5 1.245706 1_555
H9 O11 1.245706 1_555
H10 O8 1.245706 1_555
H10 O6 1.245706 1_555
H11 O7 1.245706 1_555
H11 O9 1.245706 1_555
