# generated using pymatgen
data_SbSO6
_symmetry_space_group_name_H-M   'P 1'
_cell_length_a   13.53091500
_cell_length_b   5.82772200
_cell_length_c   7.02683404
_cell_angle_alpha   56.10287163
_cell_angle_beta   90.00000000
_cell_angle_gamma   90.00000000
_symmetry_Int_Tables_number   1
_chemical_formula_structural   SbSO6
_chemical_formula_sum   'Sb4 S4 O24'
_cell_volume   459.92268930
_cell_formula_units_Z   4
loop_
 _symmetry_equiv_pos_site_id
 _symmetry_equiv_pos_as_xyz
  1  'x, y, z'
loop_
 _atom_site_type_symbol
 _atom_site_label
 _atom_site_symmetry_multiplicity
 _atom_site_fract_x
 _atom_site_fract_y
 _atom_site_fract_z
 _atom_site_occupancy
  Sb  Sb0  1  0.58142700  0.42643100  0.40056400  1
  Sb  Sb1  1  0.41857300  0.57356900  0.59943600  1
  Sb  Sb2  1  0.08142700  0.57356900  0.09943600  1
  Sb  Sb3  1  0.91857300  0.42643100  0.90056400  1
  S  S0  1  0.82060800  0.93051500  0.40298600  1
  S  S1  1  0.17939200  0.06948500  0.59701400  1
  S  S2  1  0.32060800  0.06948500  0.09701400  1
  S  S3  1  0.67939200  0.93051500  0.90298600  1
  O  O0  1  0.76121700  0.71783500  0.41841900  1
  O  O1  1  0.23878300  0.28216500  0.58158100  1
  O  O2  1  0.26121700  0.28216500  0.08158100  1
  O  O3  1  0.73878300  0.71783500  0.91841900  1
  O  O4  1  0.60539100  0.81869200  0.10512700  1
  O  O5  1  0.39460900  0.18130800  0.89487300  1
  O  O6  1  0.10539100  0.18130800  0.39487300  1
  O  O7  1  0.89460900  0.81869200  0.60512700  1
  O  O8  1  0.61034300  0.25648400  0.23940800  1
  O  O9  1  0.38965700  0.74351600  0.76059200  1
  O  O10  1  0.11034300  0.74351600  0.26059200  1
  O  O11  1  0.88965700  0.25648400  0.73940800  1
  O  O12  1  0.89267300  0.04558200  0.19994300  1
  O  O13  1  0.10732700  0.95441800  0.80005700  1
  O  O14  1  0.39267300  0.95441800  0.30005700  1
  O  O15  1  0.60732700  0.04558200  0.69994300  1
  O  O16  1  0.26900500  0.83718900  0.11193100  1
  O  O17  1  0.73099500  0.16281100  0.88806900  1
  O  O18  1  0.76900500  0.16281100  0.38806900  1
  O  O19  1  0.23099500  0.83718900  0.61193100  1
  O  O20  1  0.93540200  0.58380600  0.08690900  1
  O  O21  1  0.06459800  0.41619400  0.91309100  1
  O  O22  1  0.43540200  0.41619400  0.41309100  1
  O  O23  1  0.56459800  0.58380600  0.58690900  1
loop_
_geom_bond_atom_site_label_1
_geom_bond_atom_site_label_2
_geom_bond_distance
_geom_bond_site_symmetry_2
O0 S0 1.429631 1_555
O1 S1 1.429631 1_555
O2 S2 1.429631 1_555
O3 S3 1.429631 1_555
O4 S3 1.553184 1_554
O4 Sb0 2.085003 1_555
O5 S2 1.553184 1_556
O5 Sb1 2.085003 1_555
O6 S1 1.553184 1_555
O6 Sb2 2.085003 1_555
O7 S0 1.553184 1_555
O7 Sb3 2.085003 1_555
O8 Sb0 1.915029 1_555
O9 Sb1 1.915029 1_555
O10 Sb2 1.915029 1_555
O11 Sb3 1.915029 1_555
O12 S0 1.539142 1_545
O12 Sb3 2.065544 1_554
O13 S1 1.539142 1_565
O13 Sb2 2.065544 1_556
O14 S2 1.539142 1_565
O14 Sb1 2.065544 1_555
O15 S3 1.539142 1_545
O15 Sb0 2.065544 1_555
O16 S2 1.474076 1_565
O17 S3 1.474076 1_545
O18 S0 1.474076 1_545
O19 S1 1.474076 1_565
O20 Sb2 1.977231 1_655
O20 Sb3 1.986724 1_554
O21 Sb3 1.977231 1_455
O21 Sb2 1.986724 1_556
O22 Sb0 1.977231 1_555
O22 Sb1 1.986724 1_555
O23 Sb1 1.977231 1_555
O23 Sb0 1.986724 1_555
