# generated using pymatgen
data_PrSe2
_symmetry_space_group_name_H-M   'P 1'
_cell_length_a   4.18118177
_cell_length_b   4.18118177
_cell_length_c   8.66208910
_cell_angle_alpha   90.00000000
_cell_angle_beta   90.00000000
_cell_angle_gamma   90.00000000
_symmetry_Int_Tables_number   1
_chemical_formula_structural   PrSe2
_chemical_formula_sum   'Pr2 Se4'
_cell_volume   151.43307564
_cell_formula_units_Z   2
loop_
 _symmetry_equiv_pos_site_id
 _symmetry_equiv_pos_as_xyz
  1  'x, y, z'
loop_
 _atom_site_type_symbol
 _atom_site_label
 _atom_site_symmetry_multiplicity
 _atom_site_fract_x
 _atom_site_fract_y
 _atom_site_fract_z
 _atom_site_occupancy
  Pr  Pr0  1  0.75000000  0.75000000  0.72617367  1
  Pr  Pr1  1  0.25000000  0.25000000  0.27382633  1
  Se  Se0  1  0.75000000  0.75000000  0.36783871  1
  Se  Se1  1  0.25000000  0.25000000  0.63216129  1
  Se  Se2  1  0.75000000  0.25000000  0.00000000  1
  Se  Se3  1  0.25000000  0.75000000  0.00000000  1
loop_
_geom_bond_atom_site_label_1
_geom_bond_atom_site_label_2
_geom_bond_distance
_geom_bond_site_symmetry_2
Pr0 Se1 3.066642 1_565
Pr0 Se1 3.066642 1_555
Pr0 Se1 3.066642 1_655
Pr0 Se1 3.066642 1_665
Pr0 Se0 3.103929 1_555
Pr0 Se2 3.161727 1_556
Pr0 Se2 3.161727 1_566
Pr0 Se3 3.161727 1_656
Pr0 Se3 3.161727 1_556
Pr1 Se0 3.066642 1_445
Pr1 Se0 3.066642 1_455
Pr1 Se0 3.066642 1_545
Pr1 Se0 3.066642 1_555
Pr1 Se1 3.103929 1_555
Pr1 Se2 3.161727 1_555
Pr1 Se3 3.161727 1_555
Pr1 Se3 3.161727 1_545
Pr1 Se2 3.161727 1_455
Se2 Se3 2.956542 1_645
Se2 Se3 2.956542 1_555
Se2 Se3 2.956542 1_655
Se2 Se3 2.956542 1_545
