# generated using pymatgen
data_Yb(GaSe2)2
_symmetry_space_group_name_H-M   'P 1'
_cell_length_a   6.16622286
_cell_length_b   6.16622286
_cell_length_c   10.66495700
_cell_angle_alpha   90.00000000
_cell_angle_beta   90.00000000
_cell_angle_gamma   118.19596747
_symmetry_Int_Tables_number   1
_chemical_formula_structural   Yb(GaSe2)2
_chemical_formula_sum   'Yb2 Ga4 Se8'
_cell_volume   357.38753583
_cell_formula_units_Z   2
loop_
 _symmetry_equiv_pos_site_id
 _symmetry_equiv_pos_as_xyz
  1  'x, y, z'
loop_
 _atom_site_type_symbol
 _atom_site_label
 _atom_site_symmetry_multiplicity
 _atom_site_fract_x
 _atom_site_fract_y
 _atom_site_fract_z
 _atom_site_occupancy
  Yb  Yb0  1  0.50000000  0.50000000  0.75000000  1
  Yb  Yb1  1  0.50000000  0.50000000  0.25000000  1
  Ga  Ga0  1  0.76616000  0.23781100  0.50000000  1
  Ga  Ga1  1  0.23384000  0.76218900  0.50000000  1
  Ga  Ga2  1  0.76218900  0.23384000  0.00000000  1
  Ga  Ga3  1  0.23781100  0.76616000  0.00000000  1
  Se  Se0  1  0.34705100  0.19746400  0.50000000  1
  Se  Se1  1  0.65294900  0.80253600  0.50000000  1
  Se  Se2  1  0.80253600  0.65294900  0.00000000  1
  Se  Se3  1  0.19746400  0.34705100  0.00000000  1
  Se  Se4  1  0.50000000  0.00000000  0.82349900  1
  Se  Se5  1  0.00000000  0.50000000  0.67650100  1
  Se  Se6  1  0.50000000  0.00000000  0.17650100  1
  Se  Se7  1  0.00000000  0.50000000  0.32349900  1
loop_
_geom_bond_atom_site_label_1
_geom_bond_atom_site_label_2
_geom_bond_distance
_geom_bond_site_symmetry_2
Ga0 Se1 2.433234 1_545
Ga0 Se5 2.456282 1_655
Ga0 Se7 2.456282 1_655
Ga0 Se0 2.476496 1_555
Ga1 Se0 2.433234 1_565
Ga1 Se5 2.456282 1_555
Ga1 Se7 2.456282 1_555
Ga1 Se1 2.476496 1_555
Ga2 Se3 2.433234 1_655
Ga2 Se6 2.456282 1_555
Ga2 Se4 2.456282 1_554
Ga2 Se2 2.476496 1_555
Ga3 Se2 2.433234 1_455
Ga3 Se6 2.456282 1_565
Ga3 Se4 2.456282 1_564
Ga3 Se3 2.476496 1_555
Se0 Yb0 3.133022 1_555
Se0 Yb1 3.133022 1_555
Se1 Yb0 3.133022 1_555
Se1 Yb1 3.133022 1_555
Se2 Yb1 3.133022 1_555
Se2 Yb0 3.133022 1_554
Se3 Yb1 3.133022 1_555
Se3 Yb0 3.133022 1_554
Se4 Yb0 3.181198 1_555
Se4 Yb0 3.181198 1_545
Se5 Yb0 3.181198 1_455
Se5 Yb0 3.181198 1_555
Se6 Yb1 3.181198 1_545
Se6 Yb1 3.181198 1_555
Se7 Yb1 3.181198 1_455
Se7 Yb1 3.181198 1_555
