# generated using pymatgen
data_Pr2(WO4)3
_symmetry_space_group_name_H-M   'P 1'
_cell_length_a   7.12985114
_cell_length_b   7.12985114
_cell_length_c   11.77985107
_cell_angle_alpha   79.17900538
_cell_angle_beta   79.17900538
_cell_angle_gamma   111.88969723
_symmetry_Int_Tables_number   1
_chemical_formula_structural   Pr2(WO4)3
_chemical_formula_sum   'Pr4 W6 O24'
_cell_volume   523.49511592
_cell_formula_units_Z   2
loop_
 _symmetry_equiv_pos_site_id
 _symmetry_equiv_pos_as_xyz
  1  'x, y, z'
loop_
 _atom_site_type_symbol
 _atom_site_label
 _atom_site_symmetry_multiplicity
 _atom_site_fract_x
 _atom_site_fract_y
 _atom_site_fract_z
 _atom_site_occupancy
  Pr  Pr0  1  0.19364600  0.44665900  0.59449800  1
  Pr  Pr1  1  0.80635400  0.55334100  0.40550200  1
  Pr  Pr2  1  0.55334100  0.80635400  0.90550200  1
  Pr  Pr3  1  0.44665900  0.19364600  0.09449800  1
  W  W0  1  0.00914500  0.30019200  0.95156600  1
  W  W1  1  0.99085500  0.69980800  0.04843400  1
  W  W2  1  0.69980800  0.99085500  0.54843400  1
  W  W3  1  0.30019200  0.00914500  0.45156600  1
  W  W4  1  0.61793600  0.38206400  0.75000000  1
  W  W5  1  0.38206400  0.61793600  0.25000000  1
  O  O0  1  0.55099900  0.46846000  0.61118000  1
  O  O1  1  0.44900100  0.53154000  0.38882000  1
  O  O2  1  0.53154000  0.44900100  0.88882000  1
  O  O3  1  0.46846000  0.55099900  0.11118000  1
  O  O4  1  0.51405400  0.10011300  0.78135100  1
  O  O5  1  0.48594600  0.89988700  0.21864900  1
  O  O6  1  0.89988700  0.48594600  0.71864900  1
  O  O7  1  0.10011300  0.51405400  0.28135100  1
  O  O8  1  0.72906100  0.12783600  0.96099600  1
  O  O9  1  0.27093900  0.87216400  0.03900400  1
  O  O10  1  0.87216400  0.27093900  0.53900400  1
  O  O11  1  0.12783600  0.72906100  0.46099600  1
  O  O12  1  0.40105700  0.82893300  0.57457000  1
  O  O13  1  0.59894300  0.17106700  0.42543000  1
  O  O14  1  0.17106700  0.59894300  0.92543000  1
  O  O15  1  0.82893300  0.40105700  0.07457000  1
  O  O16  1  0.14849600  0.29654200  0.80544300  1
  O  O17  1  0.85150400  0.70345800  0.19455700  1
  O  O18  1  0.70345800  0.85150400  0.69455700  1
  O  O19  1  0.29654200  0.14849600  0.30544300  1
  O  O20  1  0.89416000  0.82415800  0.94258900  1
  O  O21  1  0.10584000  0.17584200  0.05741100  1
  O  O22  1  0.17584200  0.10584000  0.55741100  1
  O  O23  1  0.82415800  0.89416000  0.44258900  1
loop_
_geom_bond_atom_site_label_1
_geom_bond_atom_site_label_2
_geom_bond_distance
_geom_bond_site_symmetry_2
O0 W4 1.848071 1_555
O0 Pr0 2.541379 1_555
O0 Pr1 2.553973 1_555
O1 W5 1.848071 1_555
O1 Pr1 2.541379 1_555
O1 Pr0 2.553973 1_555
O2 W4 1.848071 1_555
O2 Pr2 2.541379 1_555
O2 Pr3 2.553973 1_556
O3 W5 1.848071 1_555
O3 Pr3 2.541379 1_555
O3 Pr2 2.553973 1_554
O4 W4 1.798464 1_555
O4 Pr2 2.458698 1_545
O5 W5 1.798464 1_555
O5 Pr3 2.458698 1_565
O6 W4 1.798464 1_555
O6 Pr0 2.458698 1_655
O7 W5 1.798464 1_555
O7 Pr1 2.458698 1_455
O8 W0 1.883068 1_655
O8 Pr2 2.445338 1_545
O8 Pr3 2.557347 1_556
O9 W1 1.883068 1_455
O9 Pr3 2.445338 1_565
O9 Pr2 2.557347 1_554
O10 W2 1.883068 1_545
O10 Pr0 2.445338 1_655
O10 Pr1 2.557347 1_555
O11 W3 1.883068 1_565
O11 Pr1 2.445338 1_455
O11 Pr0 2.557347 1_555
O12 W2 1.936858 1_555
O12 W3 2.156112 1_565
O12 Pr0 2.508921 1_555
O13 W3 1.936858 1_555
O13 W2 2.156112 1_545
O13 Pr1 2.508921 1_555
O14 W0 1.936858 1_555
O14 W1 2.156112 1_456
O14 Pr2 2.508921 1_555
O15 W1 1.936858 1_555
O15 W0 2.156112 1_654
O15 Pr3 2.508921 1_555
O16 W0 1.828843 1_555
O16 Pr0 2.422400 1_555
O17 W1 1.828843 1_555
O17 Pr1 2.422400 1_555
O18 W2 1.828843 1_555
O18 Pr2 2.422400 1_555
O19 W3 1.828843 1_555
O19 Pr3 2.422400 1_555
O20 W1 1.783091 1_556
O20 Pr2 2.510231 1_555
O21 W0 1.783091 1_554
O21 Pr3 2.510231 1_555
O22 W3 1.783091 1_555
O22 Pr0 2.510231 1_555
O23 W2 1.783091 1_555
O23 Pr1 2.510231 1_555
