# generated using pymatgen
data_Co6O5F7
_symmetry_space_group_name_H-M   'P 1'
_cell_length_a   5.58384185
_cell_length_b   5.58384185
_cell_length_c   7.67052345
_cell_angle_alpha   68.19649214
_cell_angle_beta   68.19649214
_cell_angle_gamma   68.05784176
_symmetry_Int_Tables_number   1
_chemical_formula_structural   Co6O5F7
_chemical_formula_sum   'Co6 O5 F7'
_cell_volume   198.31061398
_cell_formula_units_Z   1
loop_
 _symmetry_equiv_pos_site_id
 _symmetry_equiv_pos_as_xyz
  1  'x, y, z'
loop_
 _atom_site_type_symbol
 _atom_site_label
 _atom_site_symmetry_multiplicity
 _atom_site_fract_x
 _atom_site_fract_y
 _atom_site_fract_z
 _atom_site_occupancy
  Co  Co0  1  0.33787700  0.66212300  0.00000000  1
  Co  Co1  1  0.30420800  0.69579200  0.50000000  1
  Co  Co2  1  0.00177300  0.32546500  0.83584300  1
  Co  Co3  1  0.01495500  0.34003400  0.32175500  1
  Co  Co4  1  0.65996600  0.98504500  0.67824500  1
  Co  Co5  1  0.67453500  0.99822700  0.16415700  1
  O  O0  1  0.30196000  0.01608700  0.84045600  1
  O  O1  1  0.01967800  0.98032200  0.50000000  1
  O  O2  1  0.69121800  0.62799000  0.84048300  1
  O  O3  1  0.37201000  0.30878200  0.15951700  1
  O  O4  1  0.98391300  0.69804000  0.15954400  1
  F  F0  1  0.62742400  0.37257600  0.50000000  1
  F  F1  1  0.23483500  0.56013000  0.78983900  1
  F  F2  1  0.56344600  0.89520200  0.46413200  1
  F  F3  1  0.89897800  0.23144000  0.13340500  1
  F  F4  1  0.10479800  0.43655400  0.53586800  1
  F  F5  1  0.43987000  0.76516500  0.21016100  1
  F  F6  1  0.76856000  0.10102200  0.86659500  1
loop_
_geom_bond_atom_site_label_1
_geom_bond_atom_site_label_2
_geom_bond_distance
_geom_bond_site_symmetry_2
Co0 O3 1.877519 1_555
Co0 O2 1.877519 1_554
Co0 O4 1.879795 1_455
Co0 O0 1.879795 1_564
Co0 F5 2.206803 1_555
Co0 F1 2.206803 1_554
Co1 O1 1.778188 1_555
Co1 F1 1.998770 1_555
Co1 F5 1.998770 1_555
Co1 F0 2.019958 1_555
Co1 F4 2.022883 1_555
Co1 F2 2.022883 1_555
Co2 O0 1.905206 1_555
Co2 O2 1.916122 1_455
Co2 F6 2.023354 1_455
Co2 F1 2.030977 1_555
Co2 F3 2.043658 1_456
Co2 F4 2.057493 1_555
Co3 O3 1.900610 1_555
Co3 O4 1.904717 1_455
Co3 O1 1.962546 1_545
Co3 F0 2.068280 1_455
Co3 F3 2.124527 1_455
Co3 F4 2.170514 1_555
Co4 O2 1.900610 1_555
Co4 O0 1.904717 1_565
Co4 O1 1.962546 1_655
Co4 F0 2.068280 1_565
Co4 F6 2.124527 1_565
Co4 F2 2.170514 1_555
Co5 O4 1.905206 1_555
Co5 O3 1.916122 1_565
Co5 F3 2.023354 1_565
Co5 F5 2.030977 1_555
Co5 F6 2.043658 1_564
Co5 F2 2.057493 1_555
