# generated using pymatgen
data_Li2Ti2V3O10
_symmetry_space_group_name_H-M   'P 1'
_cell_length_a   5.21916823
_cell_length_b   5.16613093
_cell_length_c   7.73764829
_cell_angle_alpha   77.87958927
_cell_angle_beta   104.24011264
_cell_angle_gamma   103.40146685
_symmetry_Int_Tables_number   1
_chemical_formula_structural   Li2Ti2V3O10
_chemical_formula_sum   'Li2 Ti2 V3 O10'
_cell_volume   194.10703785
_cell_formula_units_Z   1
loop_
 _symmetry_equiv_pos_site_id
 _symmetry_equiv_pos_as_xyz
  1  'x, y, z'
loop_
 _atom_site_type_symbol
 _atom_site_label
 _atom_site_symmetry_multiplicity
 _atom_site_fract_x
 _atom_site_fract_y
 _atom_site_fract_z
 _atom_site_occupancy
  Li  Li0  1  0.21144900  0.55172900  0.39404300  1
  Li  Li1  1  0.78320200  0.44709200  0.60897900  1
  Ti  Ti0  1  0.12604600  0.00737800  0.68741500  1
  Ti  Ti1  1  0.86860400  0.98925200  0.31667900  1
  V  V0  1  0.99781300  0.50314900  0.99497400  1
  V  V1  1  0.69294000  0.95966000  0.89469000  1
  V  V2  1  0.31279300  0.04477500  0.10809800  1
  O  O0  1  0.06138700  0.21571900  0.86319100  1
  O  O1  1  0.05157200  0.77210300  0.50700700  1
  O  O2  1  0.31372800  0.79137400  0.94575500  1
  O  O3  1  0.20636300  0.27583800  0.21298900  1
  O  O4  1  0.47941600  0.15375300  0.68499700  1
  O  O5  1  0.51048200  0.83757800  0.31182200  1
  O  O6  1  0.80617100  0.71387300  0.78025600  1
  O  O7  1  0.68064000  0.21426700  0.06694900  1
  O  O8  1  0.94432900  0.22848700  0.48657500  1
  O  O9  1  0.95306600  0.79397200  0.13558200  1
loop_
_geom_bond_atom_site_label_1
_geom_bond_atom_site_label_2
_geom_bond_distance
_geom_bond_site_symmetry_2
Li0 O1 1.993357 1_555
Li0 O5 2.011689 1_555
Li0 O8 2.038304 1_455
Li0 O3 2.190303 1_555
Li0 O9 2.405979 1_455
Li1 O4 2.031518 1_555
Li1 O8 2.039828 1_555
Li1 O6 2.069426 1_555
Li1 O1 2.073849 1_655
Li1 O0 2.412045 1_655
O0 Ti0 2.032513 1_555
O0 V0 2.094151 1_455
O0 V1 2.103140 1_445
O0 V2 2.168806 1_556
O1 Ti1 1.857457 1_455
O1 Ti0 1.950289 1_565
O2 V2 1.997054 1_566
O2 V0 2.003375 1_455
O2 V1 2.066868 1_555
O2 Ti0 2.192531 1_565
O3 V2 1.824332 1_555
O3 V0 2.065614 1_454
O3 Ti1 2.220456 1_445
O4 Ti0 1.827064 1_555
O4 V1 1.955804 1_545
O5 Ti1 1.846033 1_555
O5 V2 1.923125 1_565
O6 V1 1.955249 1_555
O6 V0 1.968121 1_555
O6 Ti0 2.135774 1_665
O7 V2 1.989557 1_555
O7 V0 2.058408 1_554
O7 V1 2.080444 1_544
O7 Ti1 2.168022 1_545
O8 Ti1 1.900554 1_545
O8 Ti0 1.910742 1_655
O9 V2 2.049884 1_665
O9 Ti1 2.068650 1_555
O9 V0 2.114144 1_554
O9 V1 2.161911 1_554
