# generated using pymatgen
data_MgMn8(OF)8
_symmetry_space_group_name_H-M   'P 1'
_cell_length_a   4.94023328
_cell_length_b   4.79487262
_cell_length_c   12.52742313
_cell_angle_alpha   90.95007340
_cell_angle_beta   91.74427030
_cell_angle_gamma   88.73166970
_symmetry_Int_Tables_number   1
_chemical_formula_structural   MgMn8(OF)8
_chemical_formula_sum   'Mg1 Mn8 O8 F8'
_cell_volume   296.49921440
_cell_formula_units_Z   1
loop_
 _symmetry_equiv_pos_site_id
 _symmetry_equiv_pos_as_xyz
  1  'x, y, z'
loop_
 _atom_site_type_symbol
 _atom_site_label
 _atom_site_symmetry_multiplicity
 _atom_site_fract_x
 _atom_site_fract_y
 _atom_site_fract_z
 _atom_site_occupancy
  Mg  Mg0  1  0.96896400  0.50106200  0.62480900  1
  Mn  Mn0  1  0.98012700  0.95317000  0.00325000  1
  Mn  Mn1  1  0.06588600  0.02134700  0.24259300  1
  Mn  Mn2  1  0.98477000  0.95437900  0.48142800  1
  Mn  Mn3  1  0.04971300  0.01972300  0.76105700  1
  Mn  Mn4  1  0.46354800  0.54656200  0.62362200  1
  Mn  Mn5  1  0.55062000  0.46136800  0.12222400  1
  Mn  Mn6  1  0.49915900  0.52433100  0.36631100  1
  Mn  Mn7  1  0.46448700  0.51501500  0.87895300  1
  O  O0  1  0.23474200  0.83326000  0.36415300  1
  O  O1  1  0.18520200  0.83824000  0.61929100  1
  O  O2  1  0.18870100  0.80439100  0.88629900  1
  O  O3  1  0.34467700  0.32411100  0.24290300  1
  O  O4  1  0.26848300  0.37867800  0.73918500  1
  O  O5  1  0.69293500  0.65321600  0.99964500  1
  O  O6  1  0.68526200  0.65713500  0.50741700  1
  O  O7  1  0.83299000  0.16159800  0.12388400  1
  F  F0  1  0.25142000  0.77447000  0.12159300  1
  F  F1  1  0.27459700  0.27000900  0.99940300  1
  F  F2  1  0.20453100  0.34127500  0.50811100  1
  F  F3  1  0.76522300  0.70608500  0.24959500  1
  F  F4  1  0.74236600  0.68194000  0.74056700  1
  F  F5  1  0.78308000  0.20667700  0.37120200  1
  F  F6  1  0.73587900  0.19193900  0.62839600  1
  F  F7  1  0.75485700  0.19391100  0.86702700  1
loop_
_geom_bond_atom_site_label_1
_geom_bond_atom_site_label_2
_geom_bond_distance
_geom_bond_site_symmetry_2
Mg0 O1 1.960722 1_655
Mg0 O4 2.108848 1_655
Mg0 O6 2.133469 1_555
Mn0 O2 1.934384 1_654
Mn0 O7 1.948229 1_565
Mn0 O5 2.041528 1_554
Mn1 O0 1.939881 1_545
Mn1 O7 1.970354 1_455
Mn1 O3 2.022975 1_555
Mn2 O0 2.017700 1_655
Mn2 O1 2.043699 1_655
Mn2 O6 2.112992 1_555
Mn3 O2 1.988941 1_545
Mn3 O4 2.078822 1_555
Mn3 O1 2.086775 1_545
Mn4 O6 1.936078 1_555
Mn4 O1 1.939751 1_555
Mn4 O4 1.957146 1_555
Mn5 O5 1.959531 1_554
Mn5 O3 1.977386 1_555
Mn5 O7 1.980618 1_555
Mn6 O3 1.950783 1_555
Mn6 O0 1.953151 1_555
Mn6 O6 2.065227 1_555
Mn7 O2 1.926047 1_555
Mn7 O5 1.973536 1_555
Mn7 O4 2.077879 1_555
F0 Mn5 2.083313 1_555
F0 Mn1 2.125116 1_565
F0 Mn0 2.144454 1_455
F1 Mn0 2.128646 1_446
F1 Mn7 2.175025 1_555
F1 Mn5 2.224762 1_556
F2 Mg0 2.026205 1_455
F2 Mn4 2.143841 1_555
F2 Mn2 2.185951 1_445
F2 Mn6 2.512012 1_555
F3 Mn1 2.147261 1_665
F3 Mn6 2.198872 1_555
F3 Mn5 2.221907 1_555
F4 Mg0 2.030374 1_555
F4 Mn4 2.085699 1_555
F4 Mn3 2.250748 1_665
F4 Mn7 2.402110 1_555
F5 Mn6 2.047998 1_555
F5 Mn2 2.069126 1_545
F5 Mn1 2.317757 1_655
F6 Mg0 1.898896 1_555
F6 Mn4 2.145248 1_555
F6 Mn3 2.383178 1_655
F6 Mn2 2.491058 1_545
F7 Mn7 2.087648 1_555
F7 Mn3 2.146825 1_655
F7 Mn0 2.318628 1_546
