# generated using pymatgen
data_FeNiAg2F7
_symmetry_space_group_name_H-M   'P 1'
_cell_length_a   7.54119053
_cell_length_b   7.54119053
_cell_length_c   7.54119053
_cell_angle_alpha   120.01081277
_cell_angle_beta   118.79989942
_cell_angle_gamma   91.03621846
_symmetry_Int_Tables_number   1
_chemical_formula_structural   FeNiAg2F7
_chemical_formula_sum   'Fe2 Ni2 Ag4 F14'
_cell_volume   305.88246786
_cell_formula_units_Z   2
loop_
 _symmetry_equiv_pos_site_id
 _symmetry_equiv_pos_as_xyz
  1  'x, y, z'
loop_
 _atom_site_type_symbol
 _atom_site_label
 _atom_site_symmetry_multiplicity
 _atom_site_fract_x
 _atom_site_fract_y
 _atom_site_fract_z
 _atom_site_occupancy
  Fe  Fe0  1  0.00000000  0.00000000  0.50000000  1
  Fe  Fe1  1  0.00000000  0.50000000  0.00000000  1
  Ni  Ni0  1  0.50000000  0.00000000  0.50000000  1
  Ni  Ni1  1  0.00000000  0.50000000  0.50000000  1
  Ag  Ag0  1  0.00000000  0.00000000  0.00000000  1
  Ag  Ag1  1  0.50000000  0.50000000  0.00000000  1
  Ag  Ag2  1  0.50000000  0.00000000  0.00000000  1
  Ag  Ag3  1  0.50000000  0.50000000  0.50000000  1
  F  F0  1  0.36551600  0.09456800  0.27094800  1
  F  F1  1  0.67637900  0.40543200  0.27094800  1
  F  F2  1  0.69904400  0.31757100  0.77410900  1
  F  F3  1  0.95653800  0.18242900  0.38147300  1
  F  F4  1  0.95653800  0.57506600  0.77410900  1
  F  F5  1  0.69904400  0.92493400  0.38147300  1
  F  F6  1  0.30095600  0.07506600  0.61852700  1
  F  F7  1  0.04346200  0.42493400  0.22589100  1
  F  F8  1  0.04346200  0.81757100  0.61852700  1
  F  F9  1  0.30095600  0.68242900  0.22589100  1
  F  F10  1  0.91149600  0.75000000  0.16149600  1
  F  F11  1  0.63448400  0.90543200  0.72905200  1
  F  F12  1  0.32362100  0.59456800  0.72905200  1
  F  F13  1  0.08850400  0.25000000  0.83850400  1
loop_
_geom_bond_atom_site_label_1
_geom_bond_atom_site_label_2
_geom_bond_distance
_geom_bond_site_symmetry_2
Ag0 F11 2.307836 1_444
Ag0 F0 2.307836 1_555
Ag0 F7 2.691023 1_555
Ag0 F4 2.691023 1_444
Ag0 F8 2.691029 1_544
Ag0 F3 2.691029 1_455
Ag1 F12 2.307835 1_554
Ag1 F1 2.307835 1_555
Ag1 F6 2.691025 1_554
Ag1 F5 2.691025 1_555
Ag1 F9 2.691029 1_555
Ag1 F2 2.691029 1_554
Ag2 F12 2.505432 1_544
Ag2 F1 2.505432 1_555
Ag2 F11 2.505433 1_544
Ag2 F0 2.505433 1_555
Ag3 F1 2.505426 1_555
Ag3 F12 2.505426 1_555
Ag3 F11 2.505433 1_555
Ag3 F0 2.505433 1_555
F0 Ni0 2.022703 1_555
F1 Ni1 2.022709 1_655
F2 Fe1 1.939877 1_656
F2 Ni0 2.046892 1_555
F3 Fe0 1.939877 1_655
F3 Ni1 2.046892 1_655
F4 Fe1 1.939882 1_656
F4 Ni1 2.046890 1_655
F5 Fe0 1.939877 1_665
F5 Ni0 2.046892 1_565
F6 Fe0 1.939877 1_555
F6 Ni0 2.046892 1_555
F7 Fe1 1.939882 1_555
F7 Ni1 2.046890 1_555
F8 Fe0 1.939877 1_565
F8 Ni1 2.046892 1_555
F9 Fe1 1.939877 1_555
F9 Ni0 2.046892 1_565
F10 Fe0 2.003721 1_665
F10 Fe1 2.003721 1_655
F11 Ni0 2.022703 1_565
F12 Ni1 2.022709 1_555
F13 Fe1 2.003721 1_556
F13 Fe0 2.003721 1_555
