# generated using pymatgen
data_CeAgPb
_symmetry_space_group_name_H-M   'P 1'
_cell_length_a   5.54164805
_cell_length_b   5.54164805
_cell_length_c   8.76592700
_cell_angle_alpha   90.00000000
_cell_angle_beta   90.00000000
_cell_angle_gamma   120.00000055
_symmetry_Int_Tables_number   1
_chemical_formula_structural   CeAgPb
_chemical_formula_sum   'Ce2 Ag2 Pb2'
_cell_volume   233.13439925
_cell_formula_units_Z   2
loop_
 _symmetry_equiv_pos_site_id
 _symmetry_equiv_pos_as_xyz
  1  'x, y, z'
loop_
 _atom_site_type_symbol
 _atom_site_label
 _atom_site_symmetry_multiplicity
 _atom_site_fract_x
 _atom_site_fract_y
 _atom_site_fract_z
 _atom_site_occupancy
  Ce  Ce0  1  0.00000000  0.00000000  0.25095700  1
  Ce  Ce1  1  0.00000000  0.00000000  0.74904300  1
  Ag  Ag0  1  0.33333300  0.66666700  0.45526500  1
  Ag  Ag1  1  0.66666700  0.33333300  0.54473500  1
  Pb  Pb0  1  0.66666700  0.33333300  0.95472200  1
  Pb  Pb1  1  0.33333300  0.66666700  0.04527800  1
loop_
_geom_bond_atom_site_label_1
_geom_bond_atom_site_label_2
_geom_bond_distance
_geom_bond_site_symmetry_2
Ce0 Pb1 3.672505 1_545
Ce0 Pb1 3.672509 1_555
Ce0 Pb1 3.672509 1_445
Ce0 Pb0 4.120660 1_454
Ce0 Pb0 4.120664 1_554
Ce0 Pb0 4.120664 1_444
Ce1 Pb0 3.672505 1_455
Ce1 Pb0 3.672509 1_445
Ce1 Pb0 3.672509 1_555
Ce1 Pb1 4.120660 1_546
Ce1 Pb1 4.120664 1_556
Ce1 Pb1 4.120664 1_446
Ag0 Ag1 3.294193 1_455
Ag0 Ag1 3.294193 1_565
Ag0 Ag1 3.294202 1_555
Ag0 Pb1 3.593916 1_555
Ag0 Ce0 3.666620 1_565
Ag0 Ce0 3.666624 1_665
Ag0 Ce0 3.666624 1_555
Ag0 Ce1 4.107121 1_565
Ag0 Ce1 4.107125 1_555
Ag0 Ce1 4.107125 1_665
Ag1 Pb0 3.593916 1_555
Ag1 Ce1 3.666620 1_655
Ag1 Ce1 3.666624 1_555
Ag1 Ce1 3.666624 1_665
Ag1 Ce0 4.107121 1_655
Ag1 Ce0 4.107125 1_665
Ag1 Ce0 4.107125 1_555
Pb0 Pb1 3.296472 1_546
Pb0 Pb1 3.296472 1_656
Pb0 Pb1 3.296482 1_556
