# generated using pymatgen
data_Pr4Mg7Ge6
_symmetry_space_group_name_H-M   'P 1'
_cell_length_a   8.66444323
_cell_length_b   8.66444323
_cell_length_c   12.57446325
_cell_angle_alpha   58.75108545
_cell_angle_beta   58.75108545
_cell_angle_gamma   29.62187164
_symmetry_Int_Tables_number   1
_chemical_formula_structural   Pr4Mg7Ge6
_chemical_formula_sum   'Pr4 Mg7 Ge6'
_cell_volume   393.73276231
_cell_formula_units_Z   1
loop_
 _symmetry_equiv_pos_site_id
 _symmetry_equiv_pos_as_xyz
  1  'x, y, z'
loop_
 _atom_site_type_symbol
 _atom_site_label
 _atom_site_symmetry_multiplicity
 _atom_site_fract_x
 _atom_site_fract_y
 _atom_site_fract_z
 _atom_site_occupancy
  Pr  Pr0  1  0.26700398  0.26700398  0.61318382  1
  Pr  Pr1  1  0.73299602  0.73299602  0.38681618  1
  Pr  Pr2  1  0.37035461  0.37035461  0.84054438  1
  Pr  Pr3  1  0.62964539  0.62964539  0.15945562  1
  Mg  Mg0  1  0.03986617  0.03986617  0.86135529  1
  Mg  Mg1  1  0.96013383  0.96013383  0.13864471  1
  Mg  Mg2  1  0.06204713  0.06204713  0.60398264  1
  Mg  Mg3  1  0.93795287  0.93795287  0.39601736  1
  Mg  Mg4  1  0.68959104  0.68959104  0.84535599  1
  Mg  Mg5  1  0.31040896  0.31040896  0.15464401  1
  Mg  Mg6  1  0.50000000  0.50000000  0.50000000  1
  Ge  Ge0  1  0.11944529  0.11944529  0.34945060  1
  Ge  Ge1  1  0.88055471  0.88055471  0.65054940  1
  Ge  Ge2  1  0.14818727  0.14818727  0.97383085  1
  Ge  Ge3  1  0.85181273  0.85181273  0.02616915  1
  Ge  Ge4  1  0.60759785  0.60759785  0.68960336  1
  Ge  Ge5  1  0.39240215  0.39240215  0.31039664  1
loop_
_geom_bond_atom_site_label_1
_geom_bond_atom_site_label_2
_geom_bond_distance
_geom_bond_site_symmetry_2
Ge0 Mg3 2.770781 1_445
Ge0 Mg5 2.797386 1_555
Ge0 Mg2 2.804575 1_555
Ge0 Mg6 2.903178 1_455
Ge0 Mg6 2.903178 1_545
Ge0 Pr1 3.115219 1_545
Ge0 Pr1 3.115219 1_455
Ge0 Pr3 3.194457 1_545
Ge0 Pr3 3.194457 1_455
Ge1 Mg2 2.770781 1_665
Ge1 Mg4 2.797386 1_555
Ge1 Mg3 2.804575 1_555
Ge1 Mg6 2.903178 1_565
Ge1 Mg6 2.903178 1_655
Ge1 Pr0 3.115219 1_565
Ge1 Pr0 3.115219 1_655
Ge1 Pr2 3.194457 1_565
Ge1 Pr2 3.194457 1_655
Ge2 Mg4 2.606563 1_545
Ge2 Mg4 2.606563 1_455
Ge2 Mg1 2.685819 1_446
Ge2 Mg0 2.836880 1_555
Ge2 Pr3 3.110033 1_456
Ge2 Pr3 3.110033 1_546
Ge2 Pr2 3.157171 1_555
Ge3 Mg5 2.606563 1_655
Ge3 Mg5 2.606563 1_565
Ge3 Mg0 2.685819 1_664
Ge3 Mg1 2.836880 1_555
Ge3 Pr2 3.110033 1_564
Ge3 Pr2 3.110033 1_654
Ge3 Pr3 3.157171 1_555
Ge4 Mg2 2.743895 1_565
Ge4 Mg2 2.743895 1_655
Ge4 Mg0 2.868387 1_565
Ge4 Mg0 2.868387 1_655
Ge4 Mg4 2.934242 1_555
Ge4 Pr0 3.194839 1_565
Ge4 Pr0 3.194839 1_655
Ge4 Pr1 3.213368 1_555
Ge4 Pr2 3.362123 1_555
Ge5 Mg3 2.743895 1_455
Ge5 Mg3 2.743895 1_545
Ge5 Mg1 2.868387 1_455
Ge5 Mg1 2.868387 1_545
Ge5 Mg5 2.934242 1_555
Ge5 Pr1 3.194839 1_455
Ge5 Pr1 3.194839 1_545
Ge5 Pr0 3.213368 1_555
Ge5 Pr3 3.362123 1_555
