# generated using pymatgen
data_NaV6O15
_symmetry_space_group_name_H-M   'P 1'
_cell_length_a   8.14830143
_cell_length_b   8.14830143
_cell_length_c   9.62702587
_cell_angle_alpha   84.80976854
_cell_angle_beta   84.80976854
_cell_angle_gamma   25.93465096
_symmetry_Int_Tables_number   1
_chemical_formula_structural   NaV6O15
_chemical_formula_sum   'Na1 V6 O15'
_cell_volume   278.33758088
_cell_formula_units_Z   1
loop_
 _symmetry_equiv_pos_site_id
 _symmetry_equiv_pos_as_xyz
  1  'x, y, z'
loop_
 _atom_site_type_symbol
 _atom_site_label
 _atom_site_symmetry_multiplicity
 _atom_site_fract_x
 _atom_site_fract_y
 _atom_site_fract_z
 _atom_site_occupancy
  Na  Na0  1  0.07293900  0.07293900  0.41822500  1
  V  V0  1  0.31359500  0.31359500  0.91215400  1
  V  V1  1  0.68306800  0.68306800  0.11406700  1
  V  V2  1  0.11289600  0.11289600  0.87176700  1
  V  V3  1  0.91777700  0.91777700  0.10724500  1
  V  V4  1  0.39130900  0.39130900  0.58909000  1
  V  V5  1  0.77990100  0.77990100  0.42110500  1
  O  O0  1  0.01239100  0.01239100  0.00007400  1
  O  O1  1  0.81820400  0.81820400  0.95981300  1
  O  O2  1  0.20410200  0.20410200  0.06949900  1
  O  O3  1  0.62914800  0.62914800  0.92771300  1
  O  O4  1  0.38510800  0.38510800  0.07892700  1
  O  O5  1  0.40010400  0.40010400  0.77317900  1
  O  O6  1  0.60196900  0.60196900  0.23153100  1
  O  O7  1  0.23161100  0.23161100  0.80157000  1
  O  O8  1  0.77239200  0.77239200  0.23818600  1
  O  O9  1  0.07497700  0.07497700  0.72246800  1
  O  O10  1  0.94306800  0.94306800  0.26888200  1
  O  O11  1  0.31292900  0.31292900  0.43948200  1
  O  O12  1  0.85553100  0.85553100  0.57997000  1
  O  O13  1  0.48789800  0.48789800  0.51423600  1
  O  O14  1  0.68128200  0.68128200  0.48591500  1
loop_
_geom_bond_atom_site_label_1
_geom_bond_atom_site_label_2
_geom_bond_distance
_geom_bond_site_symmetry_2
Na0 O13 2.406183 1_455
Na0 O13 2.406183 1_545
Na0 O6 2.575309 1_545
Na0 O6 2.575309 1_455
Na0 O10 2.621342 1_445
Na0 O14 2.633718 1_455
Na0 O14 2.633718 1_545
Na0 O9 2.932137 1_555
O0 V3 1.741943 1_445
O0 V2 1.925440 1_554
O1 V0 1.888200 1_565
O1 V0 1.888200 1_655
O1 V3 2.220760 1_556
O1 V1 2.493849 1_556
O2 V1 1.900595 1_545
O2 V1 1.900595 1_455
O2 V0 2.197526 1_554
O2 V2 2.496693 1_554
O3 V2 1.930208 1_655
O3 V2 1.930208 1_565
O3 V1 2.058406 1_556
O4 V3 1.926901 1_455
O4 V3 1.926901 1_545
O4 V0 2.050869 1_554
O5 V4 1.790604 1_555
O5 V0 1.826533 1_555
O6 V1 1.633140 1_555
O7 V0 1.756667 1_555
O7 V2 1.942821 1_555
O8 V5 1.776009 1_555
O8 V1 1.937725 1_555
O8 V3 2.525771 1_555
O9 V2 1.609092 1_555
O10 V3 1.642788 1_555
O11 V5 1.914900 1_545
O11 V5 1.914900 1_455
O11 V4 1.989138 1_555
O12 V4 1.919116 1_655
O12 V4 1.919116 1_565
O12 V5 2.030442 1_555
O13 V4 1.633099 1_555
O14 V5 1.631180 1_555
