# generated using pymatgen
data_BaAl3(PO7)2
_symmetry_space_group_name_H-M   'P 1'
_cell_length_a   7.34881961
_cell_length_b   7.34881961
_cell_length_c   7.34881894
_cell_angle_alpha   57.37554857
_cell_angle_beta   57.37554857
_cell_angle_gamma   57.37554257
_symmetry_Int_Tables_number   1
_chemical_formula_structural   BaAl3(PO7)2
_chemical_formula_sum   'Ba1 Al3 P2 O14'
_cell_volume   263.68224554
_cell_formula_units_Z   1
loop_
 _symmetry_equiv_pos_site_id
 _symmetry_equiv_pos_as_xyz
  1  'x, y, z'
loop_
 _atom_site_type_symbol
 _atom_site_label
 _atom_site_symmetry_multiplicity
 _atom_site_fract_x
 _atom_site_fract_y
 _atom_site_fract_z
 _atom_site_occupancy
  Ba  Ba0  1  0.00000000  0.00000000  0.00000000  1
  Al  Al0  1  0.00000000  0.50000000  0.00000000  1
  Al  Al1  1  0.00000000  0.00000000  0.50000000  1
  Al  Al2  1  0.50000000  0.00000000  0.00000000  1
  P  P0  1  0.30029700  0.30029700  0.30029700  1
  P  P1  1  0.69970300  0.69970300  0.69970300  1
  O  O0  1  0.61651700  0.61651700  0.61651700  1
  O  O1  1  0.15086900  0.50958300  0.15086900  1
  O  O2  1  0.74791200  0.08076700  0.74791200  1
  O  O3  1  0.38348300  0.38348300  0.38348300  1
  O  O4  1  0.84913100  0.49041700  0.84913100  1
  O  O5  1  0.91923300  0.25208800  0.25208800  1
  O  O6  1  0.25208800  0.25208800  0.91923300  1
  O  O7  1  0.74791200  0.74791200  0.08076700  1
  O  O8  1  0.08076700  0.74791200  0.74791200  1
  O  O9  1  0.25208800  0.91923300  0.25208800  1
  O  O10  1  0.15086900  0.15086900  0.50958300  1
  O  O11  1  0.50958300  0.15086900  0.15086900  1
  O  O12  1  0.84913100  0.84913100  0.49041700  1
  O  O13  1  0.49041700  0.84913100  0.84913100  1
loop_
_geom_bond_atom_site_label_1
_geom_bond_atom_site_label_2
_geom_bond_distance
_geom_bond_site_symmetry_2
Ba0 O10 2.855811 1_554
Ba0 O12 2.855811 1_445
Ba0 O13 2.855811 1_544
Ba0 O1 2.855811 1_545
Ba0 O11 2.855811 1_455
Ba0 O4 2.855811 1_454
Ba0 O9 2.923261 1_545
Ba0 O5 2.923261 1_455
Ba0 O2 2.923261 1_454
Ba0 O8 2.923261 1_544
Ba0 O6 2.923261 1_554
Ba0 O7 2.923261 1_445
Al0 O7 1.855948 1_455
Al0 O6 1.855948 1_554
Al0 O5 1.855948 1_455
Al0 O8 1.855948 1_554
Al0 O1 1.989283 1_555
Al0 O4 1.989283 1_454
Al1 O8 1.855948 1_545
Al1 O5 1.855948 1_455
Al1 O9 1.855948 1_545
Al1 O2 1.855948 1_455
Al1 O10 1.989283 1_555
Al1 O12 1.989283 1_445
Al2 O7 1.855948 1_545
Al2 O6 1.855948 1_554
Al2 O2 1.855948 1_554
Al2 O9 1.855948 1_545
Al2 O11 1.989283 1_555
Al2 O13 1.989283 1_544
O0 P1 1.526435 1_555
O1 P0 1.560530 1_555
O3 P0 1.526435 1_555
O4 P1 1.560530 1_555
O10 P0 1.560530 1_555
O11 P0 1.560530 1_555
O12 P1 1.560530 1_555
O13 P1 1.560530 1_555
