# generated using pymatgen
data_MgV6(HO3)6
_symmetry_space_group_name_H-M   'P 1'
_cell_length_a   5.19132773
_cell_length_b   9.19010004
_cell_length_c   8.28345216
_cell_angle_alpha   88.31710382
_cell_angle_beta   110.60784363
_cell_angle_gamma   90.88805501
_symmetry_Int_Tables_number   1
_chemical_formula_structural   MgV6(HO3)6
_chemical_formula_sum   'Mg1 V6 H6 O18'
_cell_volume   369.74064958
_cell_formula_units_Z   1
loop_
 _symmetry_equiv_pos_site_id
 _symmetry_equiv_pos_as_xyz
  1  'x, y, z'
loop_
 _atom_site_type_symbol
 _atom_site_label
 _atom_site_symmetry_multiplicity
 _atom_site_fract_x
 _atom_site_fract_y
 _atom_site_fract_z
 _atom_site_occupancy
  Mg  Mg0  1  0.23153300  0.57629800  0.36198900  1
  V  V0  1  0.47166800  0.42215100  0.14738400  1
  V  V1  1  0.51653300  0.95379800  0.83289100  1
  V  V2  1  0.49938600  0.54714400  0.81107500  1
  V  V3  1  0.50285500  0.05558200  0.17940800  1
  V  V4  1  0.95924700  0.24794100  0.08077600  1
  V  V5  1  0.08560000  0.74675100  0.94575500  1
  H  H0  1  0.10993200  0.16262100  0.59311700  1
  H  H1  1  0.84774300  0.24501900  0.42359800  1
  H  H2  1  0.09273000  0.34157000  0.57904000  1
  H  H3  1  0.82902800  0.65409000  0.41622300  1
  H  H4  1  0.18124100  0.75520000  0.63345700  1
  H  H5  1  0.91332500  0.81719000  0.38994800  1
  O  O0  1  0.65044800  0.39369200  0.97248900  1
  O  O1  1  0.36766300  0.90774000  0.00922300  1
  O  O2  1  0.33155600  0.57532900  0.97307100  1
  O  O3  1  0.67048000  0.10160200  0.99850900  1
  O  O4  1  0.14974000  0.38716000  0.22754600  1
  O  O5  1  0.82286300  0.89654000  0.81941100  1
  O  O6  1  0.79469100  0.61798600  0.79482300  1
  O  O7  1  0.18910300  0.09572400  0.21039800  1
  O  O8  1  0.67341900  0.24095600  0.24617300  1
  O  O9  1  0.31511400  0.75749800  0.75664800  1
  O  O10  1  0.12351800  0.27561800  0.94330700  1
  O  O11  1  0.07097900  0.70878200  0.14151700  1
  O  O12  1  0.59914600  0.53548900  0.32196800  1
  O  O13  1  0.33200000  0.04686000  0.65743100  1
  O  O14  1  0.30425500  0.48445600  0.61077600  1
  O  O15  1  0.69276300  0.95582600  0.34419800  1
  O  O16  1  0.97696400  0.24980000  0.55619300  1
  O  O17  1  0.99447700  0.72139800  0.44353500  1
loop_
_geom_bond_atom_site_label_1
_geom_bond_atom_site_label_2
_geom_bond_distance
_geom_bond_site_symmetry_2
Mg0 O4 2.049340 1_555
Mg0 O11 2.083676 1_555
Mg0 O12 2.089829 1_555
Mg0 O17 2.106622 1_455
Mg0 O14 2.112327 1_555
H0 O16 1.032502 1_455
H0 O13 1.522173 1_555
H1 O16 1.068438 1_555
H1 O8 1.430482 1_555
H2 O16 1.010878 1_455
H2 O14 1.664819 1_555
H3 O17 1.013155 1_555
H3 O12 1.604848 1_555
H4 O9 1.013083 1_555
H4 O17 1.567534 1_455
H5 O17 1.003203 1_555
H5 O15 1.670134 1_555
O0 V2 1.891276 1_555
O0 V0 2.001224 1_556
O0 V4 2.037739 1_556
O1 V1 1.912608 1_554
O1 V3 1.926750 1_565
O1 V5 2.011486 1_554
O2 V2 1.864740 1_555
O2 V0 1.941305 1_556
O2 V5 2.000348 1_555
O3 V1 1.915687 1_545
O3 V4 1.947442 1_556
O3 V3 2.012659 1_556
O4 V4 1.816258 1_455
O4 V0 2.022210 1_555
O5 V1 1.724145 1_555
O5 V5 1.954318 1_655
O6 V2 1.703333 1_555
O6 V5 1.986591 1_655
O7 V3 1.781422 1_555
O7 V4 1.896113 1_455
O8 V3 1.912073 1_555
O8 V0 1.977419 1_555
O8 V4 2.346458 1_555
O9 V1 2.071296 1_555
O9 V2 2.134964 1_555
O9 V5 2.276902 1_555
O10 V4 1.657849 1_456
O10 V0 2.417690 1_556
O11 V5 1.676199 1_554
O12 V0 1.734255 1_555
O13 V1 1.653434 1_545
O14 V2 1.722154 1_555
O15 V3 1.637958 1_565
