# generated using pymatgen
data_Eu2FeH6
_symmetry_space_group_name_H-M   'P 1'
_cell_length_a   5.14044433
_cell_length_b   5.14044507
_cell_length_c   5.14044433
_cell_angle_alpha   59.99999522
_cell_angle_beta   60.00000956
_cell_angle_gamma   59.99999522
_symmetry_Int_Tables_number   1
_chemical_formula_structural   Eu2FeH6
_chemical_formula_sum   'Eu2 Fe1 H6'
_cell_volume   96.04771687
_cell_formula_units_Z   1
loop_
 _symmetry_equiv_pos_site_id
 _symmetry_equiv_pos_as_xyz
  1  'x, y, z'
loop_
 _atom_site_type_symbol
 _atom_site_label
 _atom_site_symmetry_multiplicity
 _atom_site_fract_x
 _atom_site_fract_y
 _atom_site_fract_z
 _atom_site_occupancy
  Eu  Eu0  1  0.75000000  0.75000000  0.75000000  1
  Eu  Eu1  1  0.25000000  0.25000000  0.25000000  1
  Fe  Fe0  1  -0.00000000  -0.00000000  0.00000000  1
  H  H0  1  0.77769603  0.77769603  0.22230397  1
  H  H1  1  0.22230397  0.77769603  0.22230397  1
  H  H2  1  0.77769603  0.22230397  0.22230397  1
  H  H3  1  0.22230397  0.22230397  0.77769603  1
  H  H4  1  0.77769603  0.22230397  0.77769603  1
  H  H5  1  0.22230397  0.77769603  0.77769603  1
loop_
_geom_bond_atom_site_label_1
_geom_bond_atom_site_label_2
_geom_bond_distance
_geom_bond_site_symmetry_2
Eu0 H0 2.578096 1_556
Eu0 H3 2.578096 1_655
Eu0 H2 2.578096 1_565
Eu0 H5 2.578096 1_655
Eu0 H3 2.578096 1_565
Eu0 H5 2.578096 1_555
Eu0 H2 2.578096 1_556
Eu0 H0 2.578096 1_555
Eu0 H4 2.578097 1_555
Eu0 H1 2.578097 1_655
Eu0 H1 2.578097 1_556
Eu0 H4 2.578097 1_565
Eu1 H2 2.578096 1_455
Eu1 H5 2.578096 1_554
Eu1 H0 2.578096 1_455
Eu1 H3 2.578096 1_555
Eu1 H3 2.578096 1_554
Eu1 H5 2.578096 1_545
Eu1 H2 2.578096 1_555
Eu1 H0 2.578096 1_545
Eu1 H1 2.578097 1_555
Eu1 H1 2.578097 1_545
Eu1 H4 2.578097 1_554
Eu1 H4 2.578097 1_455
Fe0 H1 1.616080 1_545
Fe0 H4 1.616080 1_454
Fe0 H5 1.616080 1_544
Fe0 H3 1.616080 1_554
Fe0 H0 1.616080 1_445
Fe0 H2 1.616080 1_455
