# generated using pymatgen
data_TiCrAgS4
_symmetry_space_group_name_H-M   'P 1'
_cell_length_a   5.94002800
_cell_length_b   6.93786800
_cell_length_c   13.35321400
_cell_angle_alpha   90.00000000
_cell_angle_beta   90.00000000
_cell_angle_gamma   90.00000000
_symmetry_Int_Tables_number   1
_chemical_formula_structural   TiCrAgS4
_chemical_formula_sum   'Ti4 Cr4 Ag4 S16'
_cell_volume   550.30104048
_cell_formula_units_Z   4
loop_
 _symmetry_equiv_pos_site_id
 _symmetry_equiv_pos_as_xyz
  1  'x, y, z'
loop_
 _atom_site_type_symbol
 _atom_site_label
 _atom_site_symmetry_multiplicity
 _atom_site_fract_x
 _atom_site_fract_y
 _atom_site_fract_z
 _atom_site_occupancy
  Ti  Ti0  1  0.50000000  0.25000000  0.25000000  1
  Ti  Ti1  1  0.50000000  0.75000000  0.75000000  1
  Ti  Ti2  1  0.50000000  0.75000000  0.25000000  1
  Ti  Ti3  1  0.50000000  0.25000000  0.75000000  1
  Cr  Cr0  1  0.00026800  0.00000000  0.24841200  1
  Cr  Cr1  1  0.00026800  0.00000000  0.75158800  1
  Cr  Cr2  1  0.99973200  0.50000000  0.25158800  1
  Cr  Cr3  1  0.99973200  0.50000000  0.74841200  1
  Ag  Ag0  1  0.33897500  0.00000000  0.00000000  1
  Ag  Ag1  1  0.66102500  0.50000000  0.50000000  1
  Ag  Ag2  1  0.02226500  0.00000000  0.50000000  1
  Ag  Ag3  1  0.97773500  0.50000000  0.00000000  1
  S  S0  1  0.83782200  0.25187000  0.35429000  1
  S  S1  1  0.83782200  0.74813000  0.64571000  1
  S  S2  1  0.16217800  0.75187000  0.14571000  1
  S  S3  1  0.16217800  0.24813000  0.85429000  1
  S  S4  1  0.16217800  0.24813000  0.14571000  1
  S  S5  1  0.16217800  0.75187000  0.85429000  1
  S  S6  1  0.83782200  0.74813000  0.35429000  1
  S  S7  1  0.83782200  0.25187000  0.64571000  1
  S  S8  1  0.66749000  0.00000000  0.14585400  1
  S  S9  1  0.66749000  0.00000000  0.85414600  1
  S  S10  1  0.33251000  0.50000000  0.35414600  1
  S  S11  1  0.33251000  0.50000000  0.64585400  1
  S  S12  1  0.33141200  0.00000000  0.35384900  1
  S  S13  1  0.33141200  0.00000000  0.64615100  1
  S  S14  1  0.66858800  0.50000000  0.14615100  1
  S  S15  1  0.66858800  0.50000000  0.85384900  1
loop_
_geom_bond_atom_site_label_1
_geom_bond_atom_site_label_2
_geom_bond_distance
_geom_bond_site_symmetry_2
Cr0 S2 2.401925 1_545
Cr0 S4 2.401925 1_555
Cr0 S8 2.404757 1_455
Cr0 S12 2.418957 1_555
Cr0 S0 2.446121 1_455
Cr0 S6 2.446121 1_445
Cr1 S5 2.401925 1_545
Cr1 S3 2.401925 1_555
Cr1 S9 2.404757 1_455
Cr1 S13 2.418957 1_555
Cr1 S7 2.446121 1_455
Cr1 S1 2.446121 1_445
Cr2 S6 2.401925 1_555
Cr2 S0 2.401925 1_555
Cr2 S10 2.404757 1_655
Cr2 S14 2.418957 1_555
Cr2 S4 2.446121 1_655
Cr2 S2 2.446121 1_655
Cr3 S1 2.401925 1_555
Cr3 S7 2.401925 1_555
Cr3 S11 2.404757 1_655
Cr3 S15 2.418957 1_555
Cr3 S5 2.446121 1_655
Cr3 S3 2.446121 1_655
Ag0 S8 2.757016 1_555
Ag0 S9 2.757016 1_554
Ag0 S2 2.802169 1_545
Ag0 S5 2.802169 1_544
Ag0 S4 2.802169 1_555
Ag0 S3 2.802169 1_554
Ag1 S10 2.757016 1_555
Ag1 S11 2.757016 1_555
Ag1 S6 2.802169 1_555
Ag1 S1 2.802169 1_555
Ag1 S7 2.802169 1_555
Ag1 S0 2.802169 1_555
Ag2 S12 2.679708 1_555
Ag2 S13 2.679708 1_555
Ag2 S0 2.835422 1_455
Ag2 S7 2.835422 1_455
Ag2 S6 2.835422 1_445
Ag2 S1 2.835422 1_445
Ag3 S14 2.679708 1_555
Ag3 S15 2.679708 1_554
Ag3 S4 2.835422 1_655
Ag3 S3 2.835422 1_654
Ag3 S2 2.835422 1_655
Ag3 S5 2.835422 1_654
S0 Ti0 2.442592 1_555
S1 Ti1 2.442592 1_555
S2 Ti2 2.442592 1_555
S3 Ti3 2.442592 1_555
S4 Ti0 2.442592 1_555
S5 Ti1 2.442592 1_555
S6 Ti2 2.442592 1_555
S7 Ti3 2.442592 1_555
S8 Ti0 2.435610 1_555
S8 Ti2 2.435610 1_545
S9 Ti3 2.435610 1_555
S9 Ti1 2.435610 1_545
S10 Ti2 2.435610 1_555
S10 Ti0 2.435610 1_555
S11 Ti1 2.435610 1_555
S11 Ti3 2.435610 1_555
S12 Ti0 2.436021 1_555
S12 Ti2 2.436021 1_545
S13 Ti1 2.436021 1_545
S13 Ti3 2.436021 1_555
S14 Ti2 2.436021 1_555
S14 Ti0 2.436021 1_555
S15 Ti3 2.436021 1_555
S15 Ti1 2.436021 1_555
