# generated using pymatgen
data_CaLa(GeIr)4
_symmetry_space_group_name_H-M   'P 1'
_cell_length_a   4.21731300
_cell_length_b   4.21731300
_cell_length_c   10.55044900
_cell_angle_alpha   90.00000000
_cell_angle_beta   90.00000000
_cell_angle_gamma   90.00000000
_symmetry_Int_Tables_number   1
_chemical_formula_structural   CaLa(GeIr)4
_chemical_formula_sum   'Ca1 La1 Ge4 Ir4'
_cell_volume   187.64742611
_cell_formula_units_Z   1
loop_
 _symmetry_equiv_pos_site_id
 _symmetry_equiv_pos_as_xyz
  1  'x, y, z'
loop_
 _atom_site_type_symbol
 _atom_site_label
 _atom_site_symmetry_multiplicity
 _atom_site_fract_x
 _atom_site_fract_y
 _atom_site_fract_z
 _atom_site_occupancy
  Ca  Ca0  1  0.00000000  0.00000000  0.00000000  1
  La  La0  1  0.50000000  0.50000000  0.50000000  1
  Ge  Ge0  1  0.50000000  0.50000000  0.12326900  1
  Ge  Ge1  1  0.00000000  0.00000000  0.62707100  1
  Ge  Ge2  1  0.00000000  0.00000000  0.37292900  1
  Ge  Ge3  1  0.50000000  0.50000000  0.87673100  1
  Ir  Ir0  1  0.00000000  0.50000000  0.24984800  1
  Ir  Ir1  1  0.50000000  0.00000000  0.75015200  1
  Ir  Ir2  1  0.50000000  0.00000000  0.24984800  1
  Ir  Ir3  1  0.00000000  0.50000000  0.75015200  1
loop_
_geom_bond_atom_site_label_1
_geom_bond_atom_site_label_2
_geom_bond_distance
_geom_bond_site_symmetry_2
Ca0 Ge0 3.253349 1_545
Ca0 Ge3 3.253349 1_454
Ca0 Ge0 3.253349 1_455
Ca0 Ge3 3.253349 1_554
Ca0 Ge0 3.253349 1_555
Ca0 Ge0 3.253349 1_445
Ca0 Ge3 3.253349 1_444
Ca0 Ge3 3.253349 1_544
Ca0 Ir1 3.375644 1_554
Ca0 Ir1 3.375644 1_454
Ca0 Ir3 3.375644 1_544
Ca0 Ir2 3.375644 1_555
Ca0 Ir2 3.375644 1_455
Ca0 Ir0 3.375644 1_545
Ca0 Ir0 3.375644 1_555
Ca0 Ir3 3.375644 1_554
Ge0 Ir2 2.495977 1_565
Ge0 Ir2 2.495977 1_555
Ge0 Ir0 2.495977 1_655
Ge0 Ir0 2.495977 1_555
Ge0 Ge3 2.601087 1_554
Ge1 Ir3 2.476427 1_555
Ge1 Ir3 2.476427 1_545
Ge1 Ir1 2.476427 1_555
Ge1 Ir1 2.476427 1_455
Ge1 Ge2 2.681312 1_555
Ge1 La0 3.269591 1_555
Ge1 La0 3.269591 1_545
Ge1 La0 3.269591 1_445
Ge1 La0 3.269591 1_455
Ge2 Ir2 2.476427 1_555
Ge2 Ir0 2.476427 1_545
Ge2 Ir0 2.476427 1_555
Ge2 Ir2 2.476427 1_455
Ge2 La0 3.269591 1_445
Ge2 La0 3.269591 1_455
Ge2 La0 3.269591 1_555
Ge2 La0 3.269591 1_545
Ge3 Ir1 2.495977 1_555
Ge3 Ir3 2.495977 1_655
Ge3 Ir1 2.495977 1_565
Ge3 Ir3 2.495977 1_555
Ir0 La0 3.378149 1_455
Ir0 La0 3.378149 1_555
Ir1 La0 3.378149 1_555
Ir1 La0 3.378149 1_545
Ir2 La0 3.378149 1_555
Ir2 La0 3.378149 1_545
Ir3 La0 3.378149 1_455
Ir3 La0 3.378149 1_555
