# generated using pymatgen
data_Zr5GaPb3
_symmetry_space_group_name_H-M   'P 1'
_cell_length_a   8.79646998
_cell_length_b   8.79646998
_cell_length_c   5.95586200
_cell_angle_alpha   90.00002695
_cell_angle_beta   89.99998966
_cell_angle_gamma   120.00000061
_symmetry_Int_Tables_number   1
_chemical_formula_structural   Zr5GaPb3
_chemical_formula_sum   'Zr10 Ga2 Pb6'
_cell_volume   399.10953665
_cell_formula_units_Z   2
loop_
 _symmetry_equiv_pos_site_id
 _symmetry_equiv_pos_as_xyz
  1  'x, y, z'
loop_
 _atom_site_type_symbol
 _atom_site_label
 _atom_site_symmetry_multiplicity
 _atom_site_fract_x
 _atom_site_fract_y
 _atom_site_fract_z
 _atom_site_occupancy
  Zr  Zr0  1  0.66666700  0.33333300  -0.00000000  1
  Zr  Zr1  1  0.33333300  0.66666700  -0.00000000  1
  Zr  Zr2  1  0.33333300  0.66666700  0.50000000  1
  Zr  Zr3  1  0.66666700  0.33333300  0.50000000  1
  Zr  Zr4  1  0.73778278  0.73778278  0.75000000  1
  Zr  Zr5  1  0.26221722  0.00000000  0.75000000  1
  Zr  Zr6  1  0.00000000  0.26221722  0.75000000  1
  Zr  Zr7  1  0.26221722  0.26221722  0.25000000  1
  Zr  Zr8  1  0.73778278  1.00000000  0.25000000  1
  Zr  Zr9  1  1.00000000  0.73778278  0.25000000  1
  Ga  Ga0  1  0.00000000  0.00000000  -0.00000000  1
  Ga  Ga1  1  0.00000000  0.00000000  0.50000000  1
  Pb  Pb0  1  0.38859302  0.38859302  0.75000000  1
  Pb  Pb1  1  0.61140698  0.00000000  0.75000000  1
  Pb  Pb2  1  0.00000000  0.61140698  0.75000000  1
  Pb  Pb3  1  0.61140698  0.61140698  0.25000000  1
  Pb  Pb4  1  0.38859302  1.00000000  0.25000000  1
  Pb  Pb5  1  1.00000000  0.38859302  0.25000000  1
loop_
_geom_bond_atom_site_label_1
_geom_bond_atom_site_label_2
_geom_bond_distance
_geom_bond_site_symmetry_2
Ga0 Zr7 2.745424 1_555
Ga0 Zr4 2.745424 1_444
Ga0 Zr5 2.745424 1_554
Ga0 Zr8 2.745424 1_445
Ga0 Zr6 2.745425 1_554
Ga0 Zr9 2.745425 1_445
Ga1 Zr6 2.745424 1_555
Ga1 Zr9 2.745424 1_445
Ga1 Zr5 2.745425 1_555
Ga1 Zr8 2.745425 1_445
Ga1 Zr7 2.745425 1_555
Ga1 Zr4 2.745425 1_445
Pb0 Zr6 3.019978 1_555
Pb0 Zr5 3.019978 1_555
Pb0 Zr4 3.071637 1_555
Pb0 Zr1 3.102511 1_556
Pb0 Zr3 3.102511 1_555
Pb0 Zr0 3.102512 1_556
Pb0 Zr2 3.102512 1_555
Pb0 Zr7 3.178657 1_555
Pb0 Zr7 3.178658 1_556
Pb1 Zr6 3.019978 1_655
Pb1 Zr4 3.019978 1_545
Pb1 Zr5 3.071637 1_555
Pb1 Zr0 3.102503 1_556
Pb1 Zr3 3.102505 1_555
Pb1 Zr2 3.102506 1_545
Pb1 Zr1 3.102507 1_546
Pb1 Zr8 3.178657 1_545
Pb1 Zr8 3.178658 1_546
Pb2 Zr5 3.019978 1_565
Pb2 Zr4 3.019978 1_455
Pb2 Zr6 3.071637 1_555
Pb2 Zr2 3.102504 1_555
Pb2 Zr1 3.102504 1_556
Pb2 Zr3 3.102506 1_455
Pb2 Zr0 3.102507 1_456
Pb2 Zr9 3.178657 1_456
Pb2 Zr9 3.178658 1_455
Pb3 Zr9 3.019978 1_555
Pb3 Zr8 3.019978 1_555
Pb3 Zr7 3.071637 1_555
Pb3 Zr0 3.102511 1_555
Pb3 Zr2 3.102511 1_555
Pb3 Zr1 3.102512 1_555
Pb3 Zr3 3.102512 1_555
Pb3 Zr4 3.178657 1_555
Pb3 Zr4 3.178658 1_554
Pb4 Zr9 3.019978 1_455
Pb4 Zr7 3.019978 1_565
Pb4 Zr8 3.071637 1_555
Pb4 Zr1 3.102503 1_555
Pb4 Zr2 3.102505 1_555
Pb4 Zr3 3.102506 1_565
Pb4 Zr0 3.102507 1_565
Pb4 Zr5 3.178657 1_565
Pb4 Zr5 3.178658 1_564
Pb5 Zr8 3.019978 1_545
Pb5 Zr7 3.019978 1_655
Pb5 Zr9 3.071637 1_555
Pb5 Zr3 3.102504 1_555
Pb5 Zr0 3.102504 1_555
Pb5 Zr2 3.102506 1_655
Pb5 Zr1 3.102507 1_655
Pb5 Zr6 3.178657 1_654
Pb5 Zr6 3.178658 1_655
