# generated using pymatgen
data_HfMnGa2
_symmetry_space_group_name_H-M   'P 1'
_cell_length_a   8.43815000
_cell_length_b   9.00788700
_cell_length_c   10.05634400
_cell_angle_alpha   90.00000000
_cell_angle_beta   90.00000000
_cell_angle_gamma   90.00000000
_symmetry_Int_Tables_number   1
_chemical_formula_structural   HfMnGa2
_chemical_formula_sum   'Hf12 Mn12 Ga24'
_cell_volume   764.38171879
_cell_formula_units_Z   12
loop_
 _symmetry_equiv_pos_site_id
 _symmetry_equiv_pos_as_xyz
  1  'x, y, z'
loop_
 _atom_site_type_symbol
 _atom_site_label
 _atom_site_symmetry_multiplicity
 _atom_site_fract_x
 _atom_site_fract_y
 _atom_site_fract_z
 _atom_site_occupancy
  Hf  Hf0  1  0.47364800  0.16885400  0.95048600  1
  Hf  Hf1  1  0.02635200  0.33114600  0.45048600  1
  Hf  Hf2  1  0.97364800  0.83114600  0.04951400  1
  Hf  Hf3  1  0.52635200  0.66885400  0.54951400  1
  Hf  Hf4  1  0.52635200  0.83114600  0.04951400  1
  Hf  Hf5  1  0.97364800  0.66885400  0.54951400  1
  Hf  Hf6  1  0.02635200  0.16885400  0.95048600  1
  Hf  Hf7  1  0.47364800  0.33114600  0.45048600  1
  Hf  Hf8  1  0.25000000  0.16331300  0.67966900  1
  Hf  Hf9  1  0.25000000  0.33668700  0.17966900  1
  Hf  Hf10  1  0.75000000  0.83668700  0.32033100  1
  Hf  Hf11  1  0.75000000  0.66331300  0.82033100  1
  Mn  Mn0  1  0.49993300  0.42186600  0.74996300  1
  Mn  Mn1  1  0.00006700  0.07813400  0.24996300  1
  Mn  Mn2  1  0.99993300  0.57813400  0.25003700  1
  Mn  Mn3  1  0.50006700  0.92186600  0.75003700  1
  Mn  Mn4  1  0.50006700  0.57813400  0.25003700  1
  Mn  Mn5  1  0.99993300  0.92186600  0.75003700  1
  Mn  Mn6  1  0.00006700  0.42186600  0.74996300  1
  Mn  Mn7  1  0.49993300  0.07813400  0.24996300  1
  Mn  Mn8  1  0.00000000  0.00000000  0.50000000  1
  Mn  Mn9  1  0.50000000  0.50000000  0.00000000  1
  Mn  Mn10  1  0.50000000  0.00000000  0.50000000  1
  Mn  Mn11  1  0.00000000  0.50000000  0.00000000  1
  Ga  Ga0  1  0.92058900  0.17321000  0.68034800  1
  Ga  Ga1  1  0.57941100  0.32679000  0.18034800  1
  Ga  Ga2  1  0.42058900  0.82679000  0.31965200  1
  Ga  Ga3  1  0.07941100  0.67321000  0.81965200  1
  Ga  Ga4  1  0.07941100  0.82679000  0.31965200  1
  Ga  Ga5  1  0.42058900  0.67321000  0.81965200  1
  Ga  Ga6  1  0.57941100  0.17321000  0.68034800  1
  Ga  Ga7  1  0.92058900  0.32679000  0.18034800  1
  Ga  Ga8  1  0.25000000  0.56582600  0.38109500  1
  Ga  Ga9  1  0.25000000  0.93417400  0.88109500  1
  Ga  Ga10  1  0.75000000  0.43417400  0.61890500  1
  Ga  Ga11  1  0.75000000  0.06582600  0.11890500  1
  Ga  Ga12  1  0.25000000  0.48695500  0.62760400  1
  Ga  Ga13  1  0.25000000  0.01304500  0.12760400  1
  Ga  Ga14  1  0.75000000  0.51304500  0.37239600  1
  Ga  Ga15  1  0.75000000  0.98695500  0.87239600  1
  Ga  Ga16  1  0.25000000  0.64297400  0.09547200  1
  Ga  Ga17  1  0.25000000  0.85702600  0.59547200  1
  Ga  Ga18  1  0.75000000  0.35702600  0.90452800  1
  Ga  Ga19  1  0.75000000  0.14297400  0.40452800  1
  Ga  Ga20  1  0.25000000  0.38876300  0.89520400  1
  Ga  Ga21  1  0.25000000  0.11123700  0.39520400  1
  Ga  Ga22  1  0.75000000  0.61123700  0.10479600  1
  Ga  Ga23  1  0.75000000  0.88876300  0.60479600  1
loop_
_geom_bond_atom_site_label_1
_geom_bond_atom_site_label_2
_geom_bond_distance
_geom_bond_site_symmetry_2
Hf0 Mn3 3.010481 1_545
Hf0 Mn9 3.032363 1_556
Hf0 Mn0 3.051212 1_555
Hf0 Mn7 3.128418 1_556
Hf1 Mn2 3.010481 1_455
Hf1 Mn8 3.032363 1_555
Hf1 Mn1 3.051212 1_555
Hf1 Mn6 3.128418 1_555
Hf2 Mn1 3.010481 1_665
Hf2 Mn11 3.032363 1_655
Hf2 Mn2 3.051212 1_555
Hf2 Mn5 3.128418 1_554
Hf3 Mn0 3.010481 1_555
Hf3 Mn10 3.032363 1_565
Hf3 Mn3 3.051212 1_555
Hf3 Mn4 3.128418 1_555
Hf4 Mn7 3.010481 1_565
Hf4 Mn9 3.032363 1_555
Hf4 Mn4 3.051212 1_555
Hf4 Mn3 3.128418 1_554
Hf5 Mn6 3.010481 1_655
Hf5 Mn8 3.032363 1_665
Hf5 Mn5 3.051212 1_555
Hf5 Mn2 3.128418 1_555
Hf6 Mn5 3.010481 1_445
Hf6 Mn11 3.032363 1_556
Hf6 Mn6 3.051212 1_555
Hf6 Mn1 3.128418 1_556
Hf7 Mn4 3.010481 1_555
Hf7 Mn10 3.032363 1_555
Hf7 Mn7 3.051212 1_555
Hf7 Mn0 3.128418 1_555
Ga0 Mn6 2.440669 1_655
Ga0 Mn5 2.462813 1_545
Ga0 Mn8 2.484493 1_655
Ga0 Hf8 2.781057 1_655
Ga0 Ga10 2.824849 1_555
Ga0 Hf1 2.857238 1_655
Ga0 Hf6 2.859705 1_655
Ga0 Ga15 2.935447 1_545
Ga1 Mn7 2.440669 1_555
Ga1 Mn4 2.462813 1_555
Ga1 Mn9 2.484493 1_555
Ga1 Hf9 2.781057 1_555
Ga1 Ga11 2.824849 1_555
Ga1 Hf0 2.857238 1_554
Ga1 Hf7 2.859705 1_555
Ga1 Ga14 2.935447 1_555
Ga2 Mn4 2.440669 1_555
Ga2 Mn7 2.462813 1_565
Ga2 Mn10 2.484493 1_565
Ga2 Hf10 2.781057 1_555
Ga2 Ga8 2.824849 1_555
Ga2 Hf3 2.857238 1_555
Ga2 Hf4 2.859705 1_555
Ga3 Mn5 2.440669 1_455
Ga3 Mn6 2.462813 1_555
Ga3 Mn11 2.484493 1_556
Ga3 Hf11 2.781057 1_455
Ga3 Ga9 2.824849 1_555
Ga3 Hf2 2.857238 1_456
Ga3 Hf5 2.859705 1_455
Ga4 Mn2 2.440669 1_455
Ga4 Mn1 2.462813 1_565
Ga4 Mn8 2.484493 1_565
Ga4 Hf10 2.781057 1_455
Ga4 Ga8 2.824849 1_555
Ga4 Hf5 2.857238 1_455
Ga4 Hf2 2.859705 1_455
Ga5 Mn3 2.440669 1_555
Ga5 Mn0 2.462813 1_555
Ga5 Mn9 2.484493 1_556
Ga5 Hf11 2.781057 1_555
Ga5 Ga9 2.824849 1_555
Ga5 Hf4 2.857238 1_556
Ga5 Hf3 2.859705 1_555
Ga6 Mn0 2.440669 1_555
Ga6 Mn3 2.462813 1_545
Ga6 Mn10 2.484493 1_555
Ga6 Hf8 2.781057 1_555
Ga6 Hf7 2.857238 1_555
Ga6 Hf0 2.859705 1_555
Ga7 Mn1 2.440669 1_655
Ga7 Mn2 2.462813 1_555
Ga7 Mn11 2.484493 1_655
Ga7 Hf9 2.781057 1_655
Ga7 Hf6 2.857238 1_654
Ga7 Hf1 2.859705 1_655
Ga8 Mn4 2.490353 1_555
Ga8 Mn2 2.490353 1_455
Ga8 Hf9 2.891959 1_555
Ga8 Hf7 2.918434 1_555
Ga8 Hf1 2.918434 1_555
Ga8 Hf3 3.027806 1_555
Ga8 Hf5 3.027806 1_455
Ga9 Mn3 2.490353 1_555
Ga9 Mn5 2.490353 1_455
Ga9 Hf8 2.891959 1_565
Ga9 Hf0 2.918434 1_565
Ga9 Hf6 2.918434 1_565
Ga9 Hf4 3.027806 1_556
Ga9 Hf2 3.027806 1_456
Ga10 Mn6 2.490353 1_655
Ga10 Mn0 2.490353 1_555
Ga10 Ga14 2.578777 1_555
Ga10 Ga6 2.824849 1_555
Ga10 Hf11 2.891959 1_555
Ga10 Hf5 2.918434 1_555
Ga10 Hf3 2.918434 1_555
Ga10 Ga18 2.955196 1_555
Ga10 Hf1 3.027806 1_655
Ga10 Hf7 3.027806 1_555
Ga11 Mn1 2.490353 1_655
Ga11 Mn7 2.490353 1_555
Ga11 Ga15 2.578777 1_544
Ga11 Ga7 2.824849 1_555
Ga11 Hf10 2.891959 1_545
Ga11 Hf2 2.918434 1_545
Ga11 Hf4 2.918434 1_545
Ga11 Ga19 2.955196 1_555
Ga11 Hf6 3.027806 1_654
Ga11 Hf0 3.027806 1_554
Ga12 Mn0 2.511099 1_555
Ga12 Mn6 2.511099 1_555
Ga12 Ga8 2.578777 1_555
Ga12 Ga20 2.832710 1_555
Ga12 Ga5 2.935447 1_555
Ga12 Ga3 2.935447 1_555
Ga12 Hf7 2.950220 1_555
Ga12 Hf1 2.950220 1_555
Ga12 Hf3 2.956217 1_555
Ga12 Hf5 2.956217 1_455
Ga12 Hf8 2.961974 1_555
Ga13 Mn7 2.511099 1_555
Ga13 Mn1 2.511099 1_555
Ga13 Ga9 2.578777 1_544
Ga13 Ga21 2.832710 1_555
Ga13 Ga4 2.935447 1_545
Ga13 Ga2 2.935447 1_545
Ga13 Hf0 2.950220 1_554
Ga13 Hf6 2.950220 1_554
Ga13 Hf4 2.956217 1_545
Ga13 Hf2 2.956217 1_445
Ga13 Hf9 2.961974 1_555
Ga14 Mn2 2.511099 1_555
Ga14 Mn4 2.511099 1_555
Ga14 Ga22 2.832710 1_555
Ga14 Ga7 2.935447 1_555
Ga14 Hf5 2.950220 1_555
Ga14 Hf3 2.950220 1_555
Ga14 Hf1 2.956217 1_655
Ga14 Hf7 2.956217 1_555
Ga14 Hf10 2.961974 1_555
Ga15 Mn5 2.511099 1_555
Ga15 Mn3 2.511099 1_555
Ga15 Ga23 2.832710 1_555
Ga15 Ga6 2.935447 1_565
Ga15 Hf2 2.950220 1_556
Ga15 Hf4 2.950220 1_556
Ga15 Hf6 2.956217 1_665
Ga15 Hf0 2.956217 1_565
Ga15 Hf11 2.961974 1_555
Ga16 Mn11 2.651530 1_555
Ga16 Mn9 2.651530 1_555
Ga16 Mn4 2.685089 1_555
Ga16 Mn2 2.685089 1_455
Ga16 Hf9 2.886000 1_555
Ga16 Hf4 2.919673 1_555
Ga16 Hf2 2.919673 1_455
Ga16 Ga8 2.955196 1_555
Ga17 Mn8 2.651530 1_565
Ga17 Mn10 2.651530 1_565
Ga17 Mn3 2.685089 1_555
Ga17 Mn5 2.685089 1_455
Ga17 Hf8 2.886000 1_565
Ga17 Hf3 2.919673 1_555
Ga17 Hf5 2.919673 1_455
Ga17 Ga9 2.955196 1_555
Ga18 Mn11 2.651530 1_656
Ga18 Mn9 2.651530 1_556
Ga18 Mn6 2.685089 1_655
Ga18 Mn0 2.685089 1_555
Ga18 Hf11 2.886000 1_555
Ga18 Hf6 2.919673 1_655
Ga18 Hf0 2.919673 1_555
Ga19 Mn8 2.651530 1_655
Ga19 Mn10 2.651530 1_555
Ga19 Mn1 2.685089 1_655
Ga19 Mn7 2.685089 1_555
Ga19 Hf10 2.886000 1_545
Ga19 Hf1 2.919673 1_655
Ga19 Hf7 2.919673 1_555
Ga20 Mn11 2.562187 1_556
Ga20 Mn9 2.562187 1_556
Ga20 Mn0 2.582637 1_555
Ga20 Mn6 2.582637 1_555
Ga20 Hf0 2.791867 1_555
Ga20 Hf6 2.791867 1_555
Ga20 Hf9 2.898884 1_556
Ga20 Hf8 2.970235 1_555
Ga21 Mn10 2.562187 1_555
Ga21 Mn8 2.562187 1_555
Ga21 Mn7 2.582637 1_555
Ga21 Mn1 2.582637 1_555
Ga21 Hf7 2.791867 1_555
Ga21 Hf1 2.791867 1_555
Ga21 Hf8 2.898884 1_555
Ga21 Hf9 2.970235 1_555
Ga22 Mn9 2.562187 1_555
Ga22 Mn11 2.562187 1_655
Ga22 Mn2 2.582637 1_555
Ga22 Mn4 2.582637 1_555
Ga22 Hf2 2.791867 1_555
Ga22 Hf4 2.791867 1_555
Ga22 Hf11 2.898884 1_554
Ga22 Hf10 2.970235 1_555
Ga23 Mn10 2.562187 1_565
Ga23 Mn8 2.562187 1_665
Ga23 Mn5 2.582637 1_555
Ga23 Mn3 2.582637 1_555
Ga23 Hf5 2.791867 1_555
Ga23 Hf3 2.791867 1_555
Ga23 Hf10 2.898884 1_555
Ga23 Hf11 2.970235 1_555
