# generated using pymatgen
data_Sn3P
_symmetry_space_group_name_H-M   'P 1'
_cell_length_a   6.41692383
_cell_length_b   6.41692383
_cell_length_c   5.55276900
_cell_angle_alpha   90.00000000
_cell_angle_beta   90.00000000
_cell_angle_gamma   119.99999823
_symmetry_Int_Tables_number   1
_chemical_formula_structural   Sn3P
_chemical_formula_sum   'Sn6 P2'
_cell_volume   198.01314170
_cell_formula_units_Z   2
loop_
 _symmetry_equiv_pos_site_id
 _symmetry_equiv_pos_as_xyz
  1  'x, y, z'
loop_
 _atom_site_type_symbol
 _atom_site_label
 _atom_site_symmetry_multiplicity
 _atom_site_fract_x
 _atom_site_fract_y
 _atom_site_fract_z
 _atom_site_occupancy
  Sn  Sn0  1  0.83022100  0.16977900  0.75000000  1
  Sn  Sn1  1  0.33955900  0.16977900  0.75000000  1
  Sn  Sn2  1  0.83022100  0.66044100  0.75000000  1
  Sn  Sn3  1  0.16977900  0.83022100  0.25000000  1
  Sn  Sn4  1  0.66044100  0.83022100  0.25000000  1
  Sn  Sn5  1  0.16977900  0.33955900  0.25000000  1
  P  P0  1  0.66666700  0.33333300  0.25000000  1
  P  P1  1  0.33333300  0.66666700  0.75000000  1
loop_
_geom_bond_atom_site_label_1
_geom_bond_atom_site_label_2
_geom_bond_distance
_geom_bond_site_symmetry_2
Sn0 Sn1 3.148541 1_555
Sn0 Sn2 3.148541 1_555
Sn0 Sn2 3.268383 1_545
Sn0 Sn1 3.268383 1_655
Sn0 Sn4 3.356944 1_546
Sn0 Sn5 3.356944 1_656
Sn0 Sn4 3.356944 1_545
Sn0 Sn5 3.356944 1_655
Sn1 Sn2 3.148541 1_555
Sn1 Sn2 3.268383 1_445
Sn1 Sn3 3.356944 1_546
Sn1 Sn3 3.356944 1_545
Sn1 Sn5 3.356950 1_555
Sn1 Sn5 3.356950 1_556
Sn2 Sn3 3.356944 1_656
Sn2 Sn3 3.356944 1_655
Sn2 Sn4 3.356950 1_555
Sn2 Sn4 3.356950 1_556
Sn3 Sn5 3.148541 1_555
Sn3 Sn4 3.148541 1_555
Sn3 Sn4 3.268383 1_455
Sn3 Sn5 3.268383 1_565
Sn4 Sn5 3.148541 1_555
Sn4 Sn5 3.268383 1_665
P0 Sn5 3.208642 1_655
P0 Sn4 3.208642 1_545
P0 Sn3 3.208648 1_655
P0 Sn3 3.208648 1_545
P0 Sn4 3.208655 1_555
P0 Sn5 3.208655 1_555
P1 Sn1 3.208642 1_565
P1 Sn2 3.208642 1_455
P1 Sn0 3.208648 1_565
P1 Sn0 3.208648 1_455
P1 Sn2 3.208655 1_555
P1 Sn1 3.208655 1_555
