# generated using pymatgen
data_Li9Mn7O16
_symmetry_space_group_name_H-M   'P 1'
_cell_length_a   2.86906816
_cell_length_b   39.35592565
_cell_length_c   3.08310535
_cell_angle_alpha   89.37877338
_cell_angle_beta   117.72891472
_cell_angle_gamma   87.91109206
_symmetry_Int_Tables_number   1
_chemical_formula_structural   Li9Mn7O16
_chemical_formula_sum   'Li9 Mn7 O16'
_cell_volume   307.79198274
_cell_formula_units_Z   1
loop_
 _symmetry_equiv_pos_site_id
 _symmetry_equiv_pos_as_xyz
  1  'x, y, z'
loop_
 _atom_site_type_symbol
 _atom_site_label
 _atom_site_symmetry_multiplicity
 _atom_site_fract_x
 _atom_site_fract_y
 _atom_site_fract_z
 _atom_site_occupancy
  Li  Li0  1  0.23956952  0.06597167  0.54511071  1
  Li  Li1  1  0.76043048  0.18402833  0.70488929  1
  Li  Li2  1  0.25042157  0.31222659  0.81306973  1
  Li  Li3  1  0.75018870  0.43747947  0.93785688  1
  Li  Li4  1  0.25004494  0.56250473  0.06259460  1
  Li  Li5  1  0.74995506  0.68749527  0.18740540  1
  Li  Li6  1  0.24981130  0.81252053  0.31214312  1
  Li  Li7  1  0.74957843  0.93777341  0.43693027  1
  Li  Li8  1  0.50000000  0.12500000  0.12500000  1
  Mn  Mn0  1  0.99659140  0.00007286  0.99325565  1
  Mn  Mn1  1  0.00340860  0.24992714  0.25674435  1
  Mn  Mn2  1  0.50017681  0.37503125  0.37538488  1
  Mn  Mn3  1  0.00002124  0.49996119  0.50000367  1
  Mn  Mn4  1  0.50000000  0.62500000  0.62500000  1
  Mn  Mn5  1  -0.00002124  0.75003881  0.74999633  1
  Mn  Mn6  1  0.49982319  0.87496875  0.87461512  1
  O  O0  1  0.61936005  0.02719846  0.26591856  1
  O  O1  1  0.12063176  0.15645914  0.39772265  1
  O  O2  1  0.61267822  0.27915290  0.50450934  1
  O  O3  1  0.10951171  0.40415759  0.62318100  1
  O  O4  1  0.60980143  0.52900697  0.74860984  1
  O  O5  1  0.10964258  0.65400432  0.87328949  1
  O  O6  1  0.60974757  0.77885405  0.99834920  1
  O  O7  1  0.11052335  0.90373826  0.12478496  1
  O  O8  1  0.87936824  0.09354086  0.85227735  1
  O  O9  1  0.38063995  0.22280154  0.98408144  1
  O  O10  1  0.88947665  0.34626174  0.12521504  1
  O  O11  1  0.39025243  0.47114595  0.25165080  1
  O  O12  1  0.89035742  0.59599568  0.37671051  1
  O  O13  1  0.39019857  0.72099303  0.50139016  1
  O  O14  1  0.89048829  0.84584241  0.62681900  1
  O  O15  1  0.38732178  0.97084710  0.74549066  1
loop_
_geom_bond_atom_site_label_1
_geom_bond_atom_site_label_2
_geom_bond_distance
_geom_bond_site_symmetry_2
Li0 O8 1.998350 1_555
Li0 O8 1.998350 1_455
Li0 O8 2.149842 1_454
Li0 O0 2.244304 1_455
Li0 O0 2.244305 1_555
Li0 O0 2.450799 1_556
Li1 O1 1.998350 1_555
Li1 O1 1.998350 1_655
Li1 O1 2.149842 1_656
Li1 O9 2.244304 1_655
Li1 O9 2.244305 1_555
Li1 O9 2.450799 1_554
Li2 O2 2.127877 1_455
Li2 O2 2.127877 1_555
Li2 O10 2.155704 1_556
Li2 O10 2.155705 1_456
Li2 O2 2.257958 1_556
Li2 O10 2.271055 1_455
Li3 O3 2.140941 1_555
Li3 O3 2.140941 1_655
Li3 O11 2.148427 1_656
Li3 O11 2.148427 1_556
Li3 O3 2.249750 1_656
Li3 O11 2.259270 1_555
Li4 O12 2.144460 1_555
Li4 O12 2.144460 1_455
Li4 O4 2.144478 1_454
Li4 O4 2.144478 1_554
Li4 O12 2.254697 1_454
Li4 O4 2.255137 1_555
Li5 O5 2.144460 1_554
Li5 O5 2.144460 1_654
Li5 O13 2.144478 1_655
Li5 O13 2.144478 1_555
Li5 O5 2.254697 1_655
Li5 O13 2.255137 1_554
Li6 O14 2.140941 1_555
Li6 O14 2.140941 1_455
Li6 O6 2.148427 1_454
Li6 O6 2.148427 1_554
Li6 O14 2.249750 1_454
Li6 O6 2.259270 1_555
Li7 O15 2.127877 1_655
Li7 O15 2.127877 1_555
Li7 O7 2.155704 1_555
Li7 O7 2.155705 1_655
Li7 O15 2.257958 1_554
Li7 O7 2.271055 1_656
Li8 O1 2.049531 1_655
Li8 O8 2.049531 1_454
Li8 O1 2.049531 1_555
Li8 O8 2.049531 1_554
Li8 O1 2.305602 1_554
Li8 O8 2.305602 1_555
Mn0 O0 1.949267 1_656
Mn0 O0 1.949267 1_556
Mn0 O15 1.971079 1_545
Mn0 O15 1.971079 1_645
Mn0 O0 2.223734 1_555
Mn0 O15 2.321034 1_646
Mn1 O9 1.949267 1_454
Mn1 O9 1.949267 1_554
Mn1 O2 1.971079 1_555
Mn1 O2 1.971079 1_455
Mn1 O9 2.223734 1_555
Mn1 O2 2.321034 1_454
Mn2 O10 1.962867 1_455
Mn2 O10 1.962867 1_555
Mn2 O3 1.968790 1_655
Mn2 O3 1.968790 1_555
Mn2 O10 2.306978 1_556
Mn2 O3 2.319135 1_554
Mn3 O11 1.962116 1_455
Mn3 O11 1.962116 1_555
Mn3 O4 1.967716 1_555
Mn3 O4 1.967716 1_455
Mn3 O11 2.312132 1_556
Mn3 O4 2.315736 1_454
Mn4 O12 1.966438 1_455
Mn4 O5 1.966438 1_655
Mn4 O12 1.966438 1_555
Mn4 O5 1.966438 1_555
Mn4 O5 2.315730 1_554
Mn4 O12 2.315730 1_556
Mn5 O6 1.962116 1_555
Mn5 O6 1.962116 1_455
Mn5 O13 1.967716 1_455
Mn5 O13 1.967716 1_555
Mn5 O6 2.312132 1_454
Mn5 O13 2.315736 1_556
Mn6 O7 1.962867 1_656
Mn6 O7 1.962867 1_556
Mn6 O14 1.968790 1_455
Mn6 O14 1.968790 1_555
Mn6 O7 2.306978 1_555
Mn6 O14 2.319135 1_556
