# generated using pymatgen
data_MgB4O7
_symmetry_space_group_name_H-M   'P 1'
_cell_length_a   7.95240189
_cell_length_b   8.59992548
_cell_length_c   13.75487827
_cell_angle_alpha   90.00000000
_cell_angle_beta   90.00000000
_cell_angle_gamma   90.00000000
_symmetry_Int_Tables_number   1
_chemical_formula_structural   MgB4O7
_chemical_formula_sum   'Mg8 B32 O56'
_cell_volume   940.69700026
_cell_formula_units_Z   8
loop_
 _symmetry_equiv_pos_site_id
 _symmetry_equiv_pos_as_xyz
  1  'x, y, z'
loop_
 _atom_site_type_symbol
 _atom_site_label
 _atom_site_symmetry_multiplicity
 _atom_site_fract_x
 _atom_site_fract_y
 _atom_site_fract_z
 _atom_site_occupancy
  Mg  Mg0  1  0.61638812  0.09992921  0.38847950  1
  Mg  Mg1  1  0.11638812  0.40007079  0.61152050  1
  Mg  Mg2  1  0.38361188  0.59992921  0.11152050  1
  Mg  Mg3  1  0.88361188  0.90007079  0.88847950  1
  Mg  Mg4  1  0.38361188  0.90007079  0.61152050  1
  Mg  Mg5  1  0.88361188  0.59992921  0.38847950  1
  Mg  Mg6  1  0.61638812  0.40007079  0.88847950  1
  Mg  Mg7  1  0.11638812  0.09992921  0.11152050  1
  B  B0  1  0.17891733  0.13031909  0.46537581  1
  B  B1  1  0.67891733  0.36968091  0.53462419  1
  B  B2  1  0.82108267  0.63031909  0.03462419  1
  B  B3  1  0.32108267  0.86968091  0.96537581  1
  B  B4  1  0.82108267  0.86968091  0.53462419  1
  B  B5  1  0.32108267  0.63031909  0.46537581  1
  B  B6  1  0.17891733  0.36968091  0.96537581  1
  B  B7  1  0.67891733  0.13031909  0.03462419  1
  B  B8  1  0.97987368  0.07283631  0.33414391  1
  B  B9  1  0.47987368  0.42716369  0.66585609  1
  B  B10  1  0.02012632  0.57283631  0.16585609  1
  B  B11  1  0.52012632  0.92716369  0.83414391  1
  B  B12  1  0.02012632  0.92716369  0.66585609  1
  B  B13  1  0.52012632  0.57283631  0.33414391  1
  B  B14  1  0.97987368  0.42716369  0.83414391  1
  B  B15  1  0.47987368  0.07283631  0.16585609  1
  B  B16  1  0.04267399  0.33430317  0.26445798  1
  B  B17  1  0.54267399  0.16569683  0.73554202  1
  B  B18  1  0.95732601  0.83430317  0.23554202  1
  B  B19  1  0.45732601  0.66569683  0.76445798  1
  B  B20  1  0.95732601  0.66569683  0.73554202  1
  B  B21  1  0.45732601  0.83430317  0.26445798  1
  B  B22  1  0.04267399  0.16569683  0.76445798  1
  B  B23  1  0.54267399  0.33430317  0.23554202  1
  B  B24  1  0.93413625  0.29616504  0.43319197  1
  B  B25  1  0.43413625  0.20383496  0.56680803  1
  B  B26  1  0.06586375  0.79616504  0.06680803  1
  B  B27  1  0.56586375  0.70383496  0.93319197  1
  B  B28  1  0.06586375  0.70383496  0.56680803  1
  B  B29  1  0.56586375  0.79616504  0.43319197  1
  B  B30  1  0.93413625  0.20383496  0.93319197  1
  B  B31  1  0.43413625  0.29616504  0.06680803  1
  O  O0  1  0.13302396  0.04314771  0.38887899  1
  O  O1  1  0.63302396  0.45685229  0.61112101  1
  O  O2  1  0.86697604  0.54314771  0.11112101  1
  O  O3  1  0.36697604  0.95685229  0.88887899  1
  O  O4  1  0.86697604  0.95685229  0.61112101  1
  O  O5  1  0.36697604  0.54314771  0.38887899  1
  O  O6  1  0.13302396  0.45685229  0.88887899  1
  O  O7  1  0.63302396  0.04314771  0.11112101  1
  O  O8  1  0.07902818  0.25290466  0.49705652  1
  O  O9  1  0.57902818  0.24709534  0.50294348  1
  O  O10  1  0.92097182  0.75290466  0.00294348  1
  O  O11  1  0.42097182  0.74709534  0.99705652  1
  O  O12  1  0.92097182  0.74709534  0.50294348  1
  O  O13  1  0.42097182  0.75290466  0.49705652  1
  O  O14  1  0.07902818  0.24709534  0.99705652  1
  O  O15  1  0.57902818  0.25290466  0.00294348  1
  O  O16  1  0.03195429  0.17634113  0.24691409  1
  O  O17  1  0.53195429  0.32365887  0.75308591  1
  O  O18  1  0.96804571  0.67634113  0.25308591  1
  O  O19  1  0.46804571  0.82365887  0.74691409  1
  O  O20  1  0.96804571  0.82365887  0.75308591  1
  O  O21  1  0.46804571  0.67634113  0.24691409  1
  O  O22  1  0.03195429  0.32365887  0.74691409  1
  O  O23  1  0.53195429  0.17634113  0.25308591  1
  O  O24  1  0.99601674  0.39579107  0.35264885  1
  O  O25  1  0.49601674  0.10420893  0.64735115  1
  O  O26  1  0.00398326  0.89579107  0.14735115  1
  O  O27  1  0.50398326  0.60420893  0.85264885  1
  O  O28  1  0.00398326  0.60420893  0.64735115  1
  O  O29  1  0.50398326  0.89579107  0.35264885  1
  O  O30  1  0.99601674  0.10420893  0.85264885  1
  O  O31  1  0.49601674  0.39579107  0.14735115  1
  O  O32  1  0.82948553  0.40117699  0.48903209  1
  O  O33  1  0.32948553  0.09882301  0.51096791  1
  O  O34  1  0.17051447  0.90117699  0.01096791  1
  O  O35  1  0.67051447  0.59882301  0.98903209  1
  O  O36  1  0.17051447  0.59882301  0.51096791  1
  O  O37  1  0.67051447  0.90117699  0.48903209  1
  O  O38  1  0.82948553  0.09882301  0.98903209  1
  O  O39  1  0.32948553  0.40117699  0.01096791  1
  O  O40  1  0.85732805  0.16009632  0.39230052  1
  O  O41  1  0.35732805  0.33990368  0.60769948  1
  O  O42  1  0.14267195  0.66009632  0.10769948  1
  O  O43  1  0.64267195  0.83990368  0.89230052  1
  O  O44  1  0.14267195  0.83990368  0.60769948  1
  O  O45  1  0.64267195  0.66009632  0.39230052  1
  O  O46  1  0.85732805  0.33990368  0.89230052  1
  O  O47  1  0.35732805  0.16009632  0.10769948  1
  O  O48  1  0.59893167  0.43005808  0.30617857  1
  O  O49  1  0.09893167  0.06994192  0.69382143  1
  O  O50  1  0.40106833  0.93005808  0.19382143  1
  O  O51  1  0.90106833  0.56994192  0.80617857  1
  O  O52  1  0.40106833  0.56994192  0.69382143  1
  O  O53  1  0.90106833  0.93005808  0.30617857  1
  O  O54  1  0.59893167  0.06994192  0.80617857  1
  O  O55  1  0.09893167  0.43005808  0.19382143  1
loop_
_geom_bond_atom_site_label_1
_geom_bond_atom_site_label_2
_geom_bond_distance
_geom_bond_site_symmetry_2
Mg0 O40 1.985384 1_555
Mg0 O29 2.030756 1_545
Mg0 O9 2.041792 1_555
Mg0 O23 2.085886 1_555
Mg0 O37 2.240482 1_545
Mg1 O41 1.985384 1_555
Mg1 O28 2.030756 1_555
Mg1 O8 2.041792 1_555
Mg1 O22 2.085886 1_555
Mg1 O36 2.240482 1_555
Mg2 O42 1.985384 1_555
Mg2 O31 2.030756 1_555
Mg2 O11 2.041792 1_554
Mg2 O21 2.085886 1_555
Mg2 O39 2.240482 1_555
Mg3 O43 1.985384 1_555
Mg3 O30 2.030756 1_565
Mg3 O10 2.041792 1_556
Mg3 O20 2.085886 1_555
Mg3 O38 2.240482 1_565
Mg4 O44 1.985384 1_555
Mg4 O25 2.030756 1_565
Mg4 O13 2.041792 1_555
Mg4 O19 2.085886 1_555
Mg4 O33 2.240482 1_565
Mg5 O45 1.985384 1_555
Mg5 O24 2.030756 1_555
Mg5 O12 2.041792 1_555
Mg5 O18 2.085886 1_555
Mg5 O32 2.240482 1_555
Mg6 O46 1.985384 1_555
Mg6 O27 2.030756 1_555
Mg6 O15 2.041792 1_556
Mg6 O17 2.085886 1_555
Mg6 O35 2.240482 1_555
Mg7 O47 1.985384 1_555
Mg7 O26 2.030756 1_545
Mg7 O14 2.041792 1_554
Mg7 O16 2.085886 1_555
Mg7 O34 2.240482 1_545
B0 O0 1.342510 1_555
B0 O33 1.378534 1_555
B0 O8 1.390068 1_555
B1 O1 1.342510 1_555
B1 O32 1.378534 1_555
B1 O9 1.390068 1_555
B2 O2 1.342510 1_555
B2 O35 1.378534 1_554
B2 O10 1.390068 1_555
B3 O3 1.342510 1_555
B3 O34 1.378534 1_556
B3 O11 1.390068 1_555
B4 O4 1.342510 1_555
B4 O37 1.378534 1_555
B4 O12 1.390068 1_555
B5 O5 1.342510 1_555
B5 O36 1.378534 1_555
B5 O13 1.390068 1_555
B6 O6 1.342510 1_555
B6 O39 1.378534 1_556
B6 O14 1.390068 1_555
B7 O7 1.342510 1_555
B7 O38 1.378534 1_554
B7 O15 1.390068 1_555
B8 O53 1.431223 1_545
B8 O0 1.454414 1_655
B8 O40 1.467228 1_555
B8 O16 1.550315 1_655
B9 O52 1.431223 1_555
B9 O1 1.454414 1_555
B9 O41 1.467228 1_555
B9 O17 1.550315 1_555
B10 O55 1.431223 1_555
B10 O2 1.454414 1_455
B10 O42 1.467228 1_555
B10 O18 1.550315 1_455
B11 O54 1.431223 1_565
B11 O3 1.454414 1_555
B11 O43 1.467228 1_555
B11 O19 1.550315 1_555
B12 O49 1.431223 1_565
B12 O4 1.454414 1_455
B12 O44 1.467228 1_555
B12 O20 1.550315 1_455
B13 O48 1.431223 1_555
B13 O5 1.454414 1_555
B13 O45 1.467228 1_555
B13 O21 1.550315 1_555
B14 O51 1.431223 1_555
B14 O6 1.454414 1_655
B14 O46 1.467228 1_555
B14 O22 1.550315 1_655
B15 O50 1.431223 1_545
B15 O7 1.454414 1_555
B15 O47 1.467228 1_555
B15 O23 1.550315 1_555
B16 O55 1.349919 1_555
B16 O24 1.374333 1_455
B16 O16 1.382360 1_555
B17 O54 1.349919 1_555
B17 O25 1.374333 1_555
B17 O17 1.382360 1_555
B18 O53 1.349919 1_555
B18 O26 1.374333 1_655
B18 O18 1.382360 1_555
B19 O52 1.349919 1_555
B19 O27 1.374333 1_555
B19 O19 1.382360 1_555
B20 O51 1.349919 1_555
B20 O28 1.374333 1_655
B20 O20 1.382360 1_555
B21 O50 1.349919 1_555
B21 O29 1.374333 1_555
B21 O21 1.382360 1_555
B22 O49 1.349919 1_555
B22 O30 1.374333 1_455
B22 O22 1.382360 1_555
B23 O48 1.349919 1_555
B23 O31 1.374333 1_555
B23 O23 1.382360 1_555
B24 O40 1.434841 1_555
B24 O32 1.448487 1_555
B24 O24 1.484447 1_555
B24 O8 1.495907 1_655
B25 O41 1.434841 1_555
B25 O33 1.448487 1_555
B25 O25 1.484447 1_555
B25 O9 1.495907 1_555
B26 O42 1.434841 1_555
B26 O34 1.448487 1_555
B26 O26 1.484447 1_555
B26 O10 1.495907 1_455
B27 O43 1.434841 1_555
B27 O35 1.448487 1_555
B27 O27 1.484447 1_555
B27 O11 1.495907 1_555
B28 O44 1.434841 1_555
B28 O36 1.448487 1_555
B28 O28 1.484447 1_555
B28 O12 1.495907 1_455
B29 O45 1.434841 1_555
B29 O37 1.448487 1_555
B29 O29 1.484447 1_555
B29 O13 1.495907 1_555
B30 O46 1.434841 1_555
B30 O38 1.448487 1_555
B30 O30 1.484447 1_555
B30 O14 1.495907 1_655
B31 O47 1.434841 1_555
B31 O39 1.448487 1_555
B31 O31 1.484447 1_555
B31 O15 1.495907 1_555
