# generated using pymatgen
data_U7V5Ag3O35
_symmetry_space_group_name_H-M   'P 1'
_cell_length_a   7.33567100
_cell_length_b   7.36735100
_cell_length_c   15.05037804
_cell_angle_alpha   89.99604079
_cell_angle_beta   90.00000000
_cell_angle_gamma   90.00000000
_symmetry_Int_Tables_number   1
_chemical_formula_structural   U7V5Ag3O35
_chemical_formula_sum   'U7 V5 Ag3 O35'
_cell_volume   813.38959812
_cell_formula_units_Z   1
loop_
 _symmetry_equiv_pos_site_id
 _symmetry_equiv_pos_as_xyz
  1  'x, y, z'
loop_
 _atom_site_type_symbol
 _atom_site_label
 _atom_site_symmetry_multiplicity
 _atom_site_fract_x
 _atom_site_fract_y
 _atom_site_fract_z
 _atom_site_occupancy
  U  U0  1  0.50000000  0.00005900  0.27611700  1
  U  U1  1  0.00000000  0.49922700  0.72477800  1
  U  U2  1  0.00000000  0.00017100  0.85602700  1
  U  U3  1  0.00000000  0.00000900  0.14211000  1
  U  U4  1  0.50000000  0.49923300  0.99876500  1
  U  U5  1  0.50000000  0.00024900  0.56249000  1
  U  U6  1  0.00000000  0.49998500  0.43771600  1
  V  V0  1  0.50000000  0.99994400  0.05627400  1
  V  V1  1  0.00000000  0.49986900  0.94345500  1
  V  V2  1  0.00000000  0.00009500  0.63291400  1
  V  V3  1  0.00000000  0.99999200  0.36744000  1
  V  V4  1  0.50000000  0.50002900  0.50000900  1
  Ag  Ag0  1  0.23346300  0.49997800  0.20775100  1
  Ag  Ag1  1  0.50000000  0.76970200  0.79166400  1
  Ag  Ag2  1  0.76653700  0.49997800  0.20775100  1
  O  O0  1  0.32243100  0.99989800  0.13399400  1
  O  O1  1  0.00000000  0.67731800  0.86687900  1
  O  O2  1  0.67756900  0.99989800  0.13399400  1
  O  O3  1  0.00000000  0.32249300  0.86695300  1
  O  O4  1  0.75241700  0.99551300  0.85001200  1
  O  O5  1  0.00000000  0.25059000  0.15121700  1
  O  O6  1  0.24758300  0.99551300  0.85001200  1
  O  O7  1  0.00000000  0.74942500  0.15124800  1
  O  O8  1  0.50000000  0.99247500  0.68505500  1
  O  O9  1  0.00000000  0.50002100  0.31158300  1
  O  O10  1  0.00000000  0.81953800  0.70735300  1
  O  O11  1  0.81841000  0.00001000  0.29282400  1
  O  O12  1  0.00000000  0.18067600  0.70729100  1
  O  O13  1  0.18159000  0.00001000  0.29282400  1
  O  O14  1  0.50000000  0.75312600  0.27444600  1
  O  O15  1  0.75446500  0.50335300  0.72506200  1
  O  O16  1  0.50000000  0.24683400  0.27441300  1
  O  O17  1  0.24553500  0.50335300  0.72506200  1
  O  O18  1  0.70074800  0.50009100  0.43628300  1
  O  O19  1  0.50000000  0.30279700  0.56292900  1
  O  O20  1  0.29925200  0.50009100  0.43628300  1
  O  O21  1  0.50000000  0.69694200  0.56329200  1
  O  O22  1  0.80133300  0.99993600  0.56948800  1
  O  O23  1  0.00000000  0.19888600  0.42978100  1
  O  O24  1  0.19866700  0.99993600  0.56948800  1
  O  O25  1  0.00000000  0.80109600  0.42979100  1
  O  O26  1  0.50000000  0.49938600  0.12544400  1
  O  O27  1  0.50000000  0.50829500  0.87645500  1
  O  O28  1  0.50000000  0.80247900  0.99452500  1
  O  O29  1  0.80225400  0.50011000  0.00627900  1
  O  O30  1  0.50000000  0.19786200  0.99526700  1
  O  O31  1  0.19774600  0.50011000  0.00627900  1
  O  O32  1  0.00000000  0.00004600  0.00220600  1
  O  O33  1  0.50000000  0.00052700  0.43304100  1
  O  O34  1  0.00000000  0.49994800  0.56588500  1
loop_
_geom_bond_atom_site_label_1
_geom_bond_atom_site_label_2
_geom_bond_distance
_geom_bond_site_symmetry_2
Ag0 O26 2.314615 1_555
Ag0 O9 2.318424 1_555
Ag0 O5 2.651976 1_555
Ag0 O7 2.652046 1_555
Ag1 O8 2.295161 1_555
Ag1 O27 2.310235 1_555
Ag1 O4 2.639626 1_555
Ag1 O6 2.639626 1_555
Ag2 O26 2.314615 1_555
Ag2 O9 2.318424 1_655
Ag2 O5 2.651976 1_655
Ag2 O7 2.652046 1_655
O0 V0 1.750705 1_555
O0 U3 2.368400 1_565
O0 U0 2.504412 1_565
O1 V1 1.742743 1_555
O1 U2 2.384161 1_565
O1 U1 2.509146 1_555
O2 V0 1.750705 1_555
O2 U3 2.368400 1_665
O2 U0 2.504412 1_565
O3 V1 1.741722 1_555
O3 U2 2.380357 1_555
O3 U1 2.504729 1_555
O4 U2 1.818766 1_665
O5 U3 1.851209 1_555
O6 U2 1.818766 1_565
O7 U3 1.851246 1_565
O8 U5 1.845535 1_565
O9 U6 1.898349 1_555
O10 V2 1.739094 1_565
O10 U1 2.374353 1_555
O10 U2 2.603509 1_565
O11 V3 1.742290 1_645
O11 U0 2.349246 1_555
O11 U3 2.630522 1_655
O12 V2 1.738747 1_555
O12 U1 2.361606 1_555
O12 U2 2.603671 1_555
O13 V3 1.742290 1_545
O13 U0 2.349246 1_555
O13 U3 2.630522 1_555
O14 U0 1.819418 1_565
O15 U1 1.801426 1_655
O16 U0 1.818257 1_555
O17 U1 1.801426 1_555
O18 V4 1.757409 1_555
O18 U6 2.195320 1_655
O19 V4 1.734357 1_555
O19 U5 2.228988 1_555
O20 V4 1.757409 1_555
O20 U6 2.195320 1_555
O21 V4 1.735491 1_555
O21 U5 2.234601 1_565
O22 V2 1.742160 1_665
O22 U5 2.212989 1_565
O23 V3 1.740024 1_545
O23 U6 2.221523 1_555
O24 V2 1.742160 1_565
O24 U5 2.212989 1_565
O25 V3 1.740008 1_555
O25 U6 2.221586 1_555
O26 U4 1.906567 1_554
O27 U4 1.842017 1_555
O28 V0 1.726353 1_556
O28 U4 2.235026 1_555
O29 V1 1.731548 1_654
O29 U4 2.220127 1_554
O30 V0 1.723083 1_546
O30 U4 2.220934 1_555
O31 V1 1.731548 1_554
O31 U4 2.220127 1_554
O32 U3 2.105608 1_555
O32 U2 2.200049 1_554
O33 U5 1.948257 1_555
O33 U0 2.361768 1_555
O34 U6 1.928992 1_555
O34 U1 2.391405 1_555
