# generated using pymatgen
data_Gd2C(NO)2
_symmetry_space_group_name_H-M   'P 1'
_cell_length_a   3.80511813
_cell_length_b   3.80511813
_cell_length_c   8.25626400
_cell_angle_alpha   90.00000000
_cell_angle_beta   90.00000000
_cell_angle_gamma   120.00000222
_symmetry_Int_Tables_number   1
_chemical_formula_structural   Gd2C(NO)2
_chemical_formula_sum   'Gd2 C1 N2 O2'
_cell_volume   103.52624949
_cell_formula_units_Z   1
loop_
 _symmetry_equiv_pos_site_id
 _symmetry_equiv_pos_as_xyz
  1  'x, y, z'
loop_
 _atom_site_type_symbol
 _atom_site_label
 _atom_site_symmetry_multiplicity
 _atom_site_fract_x
 _atom_site_fract_y
 _atom_site_fract_z
 _atom_site_occupancy
  Gd  Gd0  1  0.33333300  0.66666700  0.32110300  1
  Gd  Gd1  1  0.66666700  0.33333300  0.67889700  1
  C  C0  1  0.00000000  0.00000000  0.00000000  1
  N  N0  1  0.00000000  0.00000000  0.14975900  1
  N  N1  1  0.00000000  0.00000000  0.85024100  1
  O  O0  1  0.33333300  0.66666700  0.60296500  1
  O  O1  1  0.66666700  0.33333300  0.39703500  1
loop_
_geom_bond_atom_site_label_1
_geom_bond_atom_site_label_2
_geom_bond_distance
_geom_bond_site_symmetry_2
Gd0 O1 2.284583 1_455
Gd0 O1 2.284583 1_565
Gd0 O1 2.284590 1_555
Gd0 O0 2.327127 1_555
Gd0 N0 2.612961 1_565
Gd0 N0 2.612964 1_665
Gd0 N0 2.612964 1_555
Gd1 O0 2.284583 1_655
Gd1 O0 2.284583 1_545
Gd1 O0 2.284590 1_555
Gd1 O1 2.327127 1_555
Gd1 N1 2.612961 1_655
Gd1 N1 2.612964 1_665
Gd1 N1 2.612964 1_555
C0 N0 1.236450 1_555
C0 N1 1.236450 1_554
