# generated using pymatgen
data_Mg16MnAl12
_symmetry_space_group_name_H-M   'P 1'
_cell_length_a   9.06097612
_cell_length_b   9.06097612
_cell_length_c   9.06097612
_cell_angle_alpha   109.47122063
_cell_angle_beta   109.47122063
_cell_angle_gamma   109.47122063
_symmetry_Int_Tables_number   1
_chemical_formula_structural   Mg16MnAl12
_chemical_formula_sum   'Mg16 Mn1 Al12'
_cell_volume   572.66819820
_cell_formula_units_Z   1
loop_
 _symmetry_equiv_pos_site_id
 _symmetry_equiv_pos_as_xyz
  1  'x, y, z'
loop_
 _atom_site_type_symbol
 _atom_site_label
 _atom_site_symmetry_multiplicity
 _atom_site_fract_x
 _atom_site_fract_y
 _atom_site_fract_z
 _atom_site_occupancy
  Mg  Mg0  1  0.28609900  0.60017100  0.60017100  1
  Mg  Mg1  1  0.33101500  0.33101500  0.33101500  1
  Mg  Mg2  1  0.71390100  0.31407300  0.31407300  1
  Mg  Mg3  1  0.66898500  0.00000000  0.00000000  1
  Mg  Mg4  1  0.00000000  0.68592700  0.39982900  1
  Mg  Mg5  1  0.39982900  0.00000000  0.68592700  1
  Mg  Mg6  1  0.60017100  0.60017100  0.28609900  1
  Mg  Mg7  1  0.00000000  0.00000000  0.66898500  1
  Mg  Mg8  1  0.68592700  0.39982900  0.00000000  1
  Mg  Mg9  1  0.31407300  0.71390100  0.31407300  1
  Mg  Mg10  1  0.31407300  0.31407300  0.71390100  1
  Mg  Mg11  1  0.68592700  0.00000000  0.39982900  1
  Mg  Mg12  1  0.00000000  0.66898500  0.00000000  1
  Mg  Mg13  1  0.60017100  0.28609900  0.60017100  1
  Mg  Mg14  1  0.39982900  0.68592700  0.00000000  1
  Mg  Mg15  1  0.00000000  0.39982900  0.68592700  1
  Mn  Mn0  1  0.00000000  0.00000000  0.00000000  1
  Al  Al0  1  0.17828600  0.81634200  0.81634200  1
  Al  Al1  1  0.82171400  0.63805600  0.63805600  1
  Al  Al2  1  0.00000000  0.36194400  0.18365800  1
  Al  Al3  1  0.36194400  0.18365800  0.00000000  1
  Al  Al4  1  0.63805600  0.82171400  0.63805600  1
  Al  Al5  1  0.81634200  0.17828600  0.81634200  1
  Al  Al6  1  0.18365800  0.36194400  0.00000000  1
  Al  Al7  1  0.81634200  0.81634200  0.17828600  1
  Al  Al8  1  0.18365800  0.00000000  0.36194400  1
  Al  Al9  1  0.36194400  0.00000000  0.18365800  1
  Al  Al10  1  0.63805600  0.63805600  0.82171400  1
  Al  Al11  1  0.00000000  0.18365800  0.36194400  1
loop_
_geom_bond_atom_site_label_1
_geom_bond_atom_site_label_2
_geom_bond_distance
_geom_bond_site_symmetry_2
Mg0 Mg1 3.069116 1_555
Mg0 Mg15 3.124947 1_555
Mg0 Mg4 3.124947 1_555
Mg0 Mg10 3.145028 1_555
Mg0 Mg9 3.145028 1_555
Mg0 Mg14 3.145037 1_556
Mg0 Mg5 3.145037 1_565
Mg1 Mn0 2.999319 1_555
Mg1 Mg6 3.069116 1_555
Mg1 Mg13 3.069116 1_555
Mg2 Mg3 3.069127 1_555
Mg2 Mg4 3.124944 1_655
Mg2 Mg6 3.145028 1_555
Mg2 Mg8 3.145037 1_555
Mg3 Mn0 2.999319 1_655
Mg3 Mg5 3.069122 1_554
Mg4 Mg7 3.069122 1_565
Mg4 Mg8 3.145036 1_455
Mg4 Mg5 3.145036 1_565
Mg4 Mg9 3.145037 1_555
Mg4 Mg6 3.145037 1_455
Mg5 Mg9 3.124944 1_545
Mg5 Mg8 3.145036 1_556
Mg6 Mg8 3.124947 1_555
Mg6 Mg9 3.145028 1_555
Mg7 Mn0 2.999319 1_556
Mg10 Mg7 3.069127 1_555
Mg10 Mg8 3.124944 1_556
Mg10 Mg14 3.124944 1_556
Mg10 Mg13 3.145028 1_555
Mg10 Mg15 3.145037 1_555
Mg10 Mg5 3.145037 1_555
Mg11 Mg7 3.069122 1_655
Mg11 Mg9 3.124944 1_545
Mg11 Mg13 3.124947 1_555
Mg11 Mg14 3.145036 1_545
Mg11 Mg15 3.145036 1_655
Mg11 Mg2 3.145037 1_555
Mg11 Mg6 3.145037 1_545
Mg12 Mn0 2.999319 1_565
Mg12 Mg15 3.069122 1_554
Mg12 Mg8 3.069122 1_455
Mg12 Mg9 3.069127 1_555
Mg13 Mg5 3.124947 1_555
Mg13 Mg2 3.145028 1_555
Mg13 Mg8 3.145037 1_556
Mg13 Mg15 3.145037 1_655
Mg14 Mg3 3.069122 1_565
Mg14 Mg6 3.124947 1_555
Mg14 Mg15 3.145036 1_554
Mg14 Mg9 3.145037 1_555
Mg15 Mg2 3.124944 1_455
Al0 Al1 2.638011 1_455
Al0 Al9 2.717498 1_566
Al0 Al3 2.717498 1_566
Al0 Mg0 2.936160 1_555
Al0 Mg5 2.976689 1_565
Al0 Mg14 2.976689 1_556
Al0 Mg7 2.999540 1_565
Al0 Mg12 2.999540 1_556
Al0 Mn0 3.144273 1_566
Al0 Mg4 3.152616 1_555
Al0 Mg15 3.152616 1_555
Al1 Al4 2.717498 1_555
Al1 Al10 2.717498 1_555
Al1 Mg2 2.936150 1_555
Al1 Mg13 2.976682 1_555
Al1 Mg6 2.976682 1_555
Al1 Mg12 2.999540 1_656
Al1 Mg7 2.999540 1_665
Al1 Mn0 3.144273 1_666
Al1 Mg15 3.152616 1_655
Al1 Mg4 3.152616 1_655
Al2 Al6 2.717498 1_555
Al2 Al5 2.717498 1_454
Al2 Mg4 2.936153 1_555
Al2 Mg9 2.976683 1_555
Al2 Mg8 2.976689 1_455
Al2 Mg3 2.999540 1_455
Al2 Mg1 2.999540 1_555
Al2 Mn0 3.144273 1_555
Al2 Mg0 3.152618 1_555
Al2 Mg2 3.152624 1_455
Al3 Al6 2.638011 1_555
Al3 Al9 2.717498 1_555
Al3 Mg8 2.936153 1_555
Al3 Mg2 2.976683 1_555
Al3 Mg5 2.976689 1_554
Al3 Mg7 2.999540 1_554
Al3 Mg1 2.999540 1_555
Al3 Mn0 3.144273 1_555
Al3 Mg6 3.152618 1_555
Al3 Mg10 3.152624 1_554
Al4 Al5 2.638011 1_565
Al4 Mg9 2.936150 1_555
Al4 Mg0 2.976682 1_555
Al4 Mg6 2.976682 1_555
Al4 Mg3 2.999540 1_566
Al4 Mg7 2.999540 1_665
Al4 Mn0 3.144273 1_666
Al4 Mg11 3.152616 1_565
Al4 Mg5 3.152616 1_565
Al5 Al6 2.717498 1_656
Al5 Mg13 2.936160 1_555
Al5 Mg8 2.976689 1_556
Al5 Mg15 2.976689 1_655
Al5 Mg7 2.999540 1_655
Al5 Mg3 2.999540 1_556
Al5 Mn0 3.144273 1_656
Al5 Mg11 3.152616 1_555
Al5 Mg5 3.152616 1_555
Al6 Mg14 2.936153 1_555
Al6 Mg9 2.976683 1_555
Al6 Mg15 2.976689 1_554
Al6 Mg7 2.999540 1_554
Al6 Mg1 2.999540 1_555
Al6 Mn0 3.144273 1_555
Al6 Mg6 3.152618 1_555
Al6 Mg10 3.152624 1_554
Al7 Al8 2.717498 1_665
Al7 Mg6 2.936160 1_555
Al7 Mg11 2.976689 1_565
Al7 Mg4 2.976689 1_655
Al7 Mg12 2.999540 1_655
Al7 Mg3 2.999540 1_565
Al7 Mn0 3.144273 1_665
Al7 Mg14 3.152616 1_555
Al7 Mg8 3.152616 1_555
Al8 Al9 2.638011 1_555
Al8 Mg5 2.936153 1_555
Al8 Mg10 2.976683 1_555
Al8 Mg4 2.976689 1_545
Al8 Mg12 2.999540 1_545
Al8 Mg1 2.999540 1_555
Al8 Mn0 3.144273 1_555
Al8 Mg13 3.152618 1_555
Al8 Mg9 3.152624 1_545
Al9 Mg11 2.936153 1_555
Al9 Mg2 2.976683 1_555
Al9 Mg14 2.976689 1_545
Al9 Mg12 2.999540 1_545
Al9 Mg1 2.999540 1_555
Al9 Mn0 3.144273 1_555
Al9 Mg13 3.152618 1_555
Al9 Mg9 3.152624 1_545
Al10 Al7 2.638011 1_556
Al10 Al4 2.717498 1_555
Al10 Mg10 2.936150 1_555
Al10 Mg0 2.976682 1_555
Al10 Mg13 2.976682 1_555
Al10 Mg3 2.999540 1_566
Al10 Mg12 2.999540 1_656
Al10 Mn0 3.144273 1_666
Al10 Mg8 3.152616 1_556
Al10 Mg14 3.152616 1_556
Al11 Al2 2.638011 1_555
Al11 Al7 2.717498 1_445
Al11 Al8 2.717498 1_555
Al11 Mg15 2.936153 1_555
Al11 Mg10 2.976683 1_555
Al11 Mg11 2.976689 1_455
Al11 Mg3 2.999540 1_455
Al11 Mg1 2.999540 1_555
Al11 Mn0 3.144273 1_555
Al11 Mg0 3.152618 1_555
Al11 Mg2 3.152624 1_455
