# generated using pymatgen
data_InGa2(AgSe2)3
_symmetry_space_group_name_H-M   'P 1'
_cell_length_a   6.10740900
_cell_length_b   6.10740900
_cell_length_c   17.84545038
_cell_angle_alpha   80.14708626
_cell_angle_beta   80.14708626
_cell_angle_gamma   90.00000000
_symmetry_Int_Tables_number   1
_chemical_formula_structural   InGa2(AgSe2)3
_chemical_formula_sum   'In2 Ga4 Ag6 Se12'
_cell_volume   645.85790857
_cell_formula_units_Z   2
loop_
 _symmetry_equiv_pos_site_id
 _symmetry_equiv_pos_as_xyz
  1  'x, y, z'
loop_
 _atom_site_type_symbol
 _atom_site_label
 _atom_site_symmetry_multiplicity
 _atom_site_fract_x
 _atom_site_fract_y
 _atom_site_fract_z
 _atom_site_occupancy
  In  In0  1  0.83367700  0.83367700  0.33264500  1
  In  In1  1  0.16632300  0.16632300  0.66735500  1
  Ga  Ga0  1  0.41894700  0.91894700  0.16210700  1
  Ga  Ga1  1  0.75000000  0.25000000  0.50000000  1
  Ga  Ga2  1  0.08105300  0.58105300  0.83789300  1
  Ga  Ga3  1  0.50000000  0.50000000  0.00000000  1
  Ag  Ag0  1  0.91799400  0.41799400  0.16401300  1
  Ag  Ag1  1  0.25000000  0.75000000  0.50000000  1
  Ag  Ag2  1  0.58200600  0.08200600  0.83598700  1
  Ag  Ag3  1  0.00000000  0.00000000  0.00000000  1
  Ag  Ag4  1  0.33376600  0.33376600  0.33246700  1
  Ag  Ag5  1  0.66623400  0.66623400  0.66753300  1
  Se  Se0  1  0.14162900  0.10900400  0.24368700  1
  Se  Se1  1  0.47441800  0.44400000  0.57960500  1
  Se  Se2  1  0.79076400  0.76167700  0.91873600  1
  Se  Se3  1  0.61468400  0.64731000  0.24368700  1
  Se  Se4  1  0.94597600  0.97639400  0.57960500  1
  Se  Se5  1  0.29050100  0.31958800  0.91873600  1
  Se  Se6  1  0.23832300  0.70949900  0.08126400  1
  Se  Se7  1  0.55600000  0.05402400  0.42039500  1
  Se  Se8  1  0.89099600  0.38531600  0.75631300  1
  Se  Se9  1  0.68041200  0.20923600  0.08126400  1
  Se  Se10  1  0.02360600  0.52558200  0.42039500  1
  Se  Se11  1  0.35269000  0.85837100  0.75631300  1
loop_
_geom_bond_atom_site_label_1
_geom_bond_atom_site_label_2
_geom_bond_distance
_geom_bond_site_symmetry_2
In0 Se3 2.636208 1_555
In0 Se0 2.636218 1_665
In0 Se10 2.636586 1_655
In0 Se7 2.636587 1_565
In1 Se11 2.636212 1_545
In1 Se8 2.636215 1_455
In1 Se1 2.636579 1_555
In1 Se4 2.636593 1_445
Ga0 Se3 2.463707 1_555
Ga0 Se0 2.463710 1_565
Ga0 Se9 2.471993 1_565
Ga0 Se6 2.472007 1_555
Ga1 Se7 2.452029 1_555
Ga1 Se4 2.452033 1_545
Ga1 Se1 2.452033 1_555
Ga1 Se10 2.452036 1_655
Ga2 Se8 2.463707 1_455
Ga2 Se11 2.463710 1_555
Ga2 Se2 2.472000 1_455
Ga2 Se5 2.472001 1_555
Ga3 Se5 2.477122 1_554
Ga3 Se6 2.477125 1_555
Ga3 Se9 2.477126 1_555
Ga3 Se2 2.477129 1_554
Ag0 Se0 2.682284 1_655
Ag0 Se3 2.682288 1_555
Ag0 Se6 2.699849 1_655
Ag0 Se9 2.699864 1_555
Ag1 Se10 2.673397 1_555
Ag1 Se4 2.673400 1_455
Ag1 Se1 2.673400 1_555
Ag1 Se7 2.673404 1_565
Ag2 Se11 2.682284 1_545
Ag2 Se8 2.682288 1_555
Ag2 Se2 2.699856 1_545
Ag2 Se5 2.699857 1_555
Ag3 Se2 2.685383 1_444
Ag3 Se6 2.685386 1_545
Ag3 Se9 2.685386 1_455
Ag3 Se5 2.685390 1_554
Ag4 Se10 2.652294 1_555
Ag4 Se7 2.652295 1_555
Ag4 Se0 2.674321 1_555
Ag4 Se3 2.674331 1_555
Ag5 Se4 2.652288 1_555
Ag5 Se1 2.652302 1_555
Ag5 Se8 2.674324 1_555
Ag5 Se11 2.674328 1_555
