# generated using pymatgen
data_NiPNO5
_symmetry_space_group_name_H-M   'P 1'
_cell_length_a   5.61172900
_cell_length_b   5.82728600
_cell_length_c   6.84846900
_cell_angle_alpha   90.00000000
_cell_angle_beta   90.00000000
_cell_angle_gamma   90.00000000
_symmetry_Int_Tables_number   1
_chemical_formula_structural   NiPNO5
_chemical_formula_sum   'Ni2 P2 N2 O10'
_cell_volume   223.95281093
_cell_formula_units_Z   2
loop_
 _symmetry_equiv_pos_site_id
 _symmetry_equiv_pos_as_xyz
  1  'x, y, z'
loop_
 _atom_site_type_symbol
 _atom_site_label
 _atom_site_symmetry_multiplicity
 _atom_site_fract_x
 _atom_site_fract_y
 _atom_site_fract_z
 _atom_site_occupancy
  Ni  Ni0  1  0.47512800  0.00000000  0.58115600  1
  Ni  Ni1  1  0.97512800  0.50000000  0.41884400  1
  P  P0  1  0.00252400  0.00000000  0.37724200  1
  P  P1  1  0.50252400  0.50000000  0.62275800  1
  N  N0  1  0.73473500  0.00000000  0.94913600  1
  N  N1  1  0.23473500  0.50000000  0.05086400  1
  O  O0  1  0.93312000  0.00000000  0.93954900  1
  O  O1  1  0.43312000  0.50000000  0.06045100  1
  O  O2  1  0.07980200  0.22221400  0.26385200  1
  O  O3  1  0.57980200  0.27778600  0.73614800  1
  O  O4  1  0.57980200  0.72221400  0.73614800  1
  O  O5  1  0.07980200  0.77778600  0.26385200  1
  O  O6  1  0.12199400  0.00000000  0.58150200  1
  O  O7  1  0.62199400  0.50000000  0.41849800  1
  O  O8  1  0.72906400  0.00000000  0.38967100  1
  O  O9  1  0.22906400  0.50000000  0.61032900  1
loop_
_geom_bond_atom_site_label_1
_geom_bond_atom_site_label_2
_geom_bond_distance
_geom_bond_site_symmetry_2
Ni0 O8 1.936594 1_555
Ni0 O6 1.981694 1_555
Ni0 O4 2.022881 1_545
Ni0 O3 2.022881 1_555
Ni1 O9 1.936594 1_655
Ni1 O7 1.981694 1_555
Ni1 O5 2.022881 1_655
Ni1 O2 2.022881 1_655
N0 O0 1.115217 1_555
N1 O1 1.115217 1_555
O2 P0 1.570945 1_555
O3 P1 1.570945 1_555
O4 P1 1.570945 1_555
O5 P0 1.570945 1_565
O6 P0 1.551230 1_555
O7 P1 1.551230 1_555
O8 P0 1.536942 1_655
O9 P1 1.536942 1_555
