# generated using pymatgen
data_Ba4P15Au8
_symmetry_space_group_name_H-M   'P 1'
_cell_length_a   10.62464955
_cell_length_b   14.85855984
_cell_length_c   29.45150534
_cell_angle_alpha   90.00000000
_cell_angle_beta   90.00000000
_cell_angle_gamma   90.00000000
_symmetry_Int_Tables_number   1
_chemical_formula_structural   Ba4P15Au8
_chemical_formula_sum   'Ba32 P120 Au64'
_cell_volume   4649.42053191
_cell_formula_units_Z   8
loop_
 _symmetry_equiv_pos_site_id
 _symmetry_equiv_pos_as_xyz
  1  'x, y, z'
loop_
 _atom_site_type_symbol
 _atom_site_label
 _atom_site_symmetry_multiplicity
 _atom_site_fract_x
 _atom_site_fract_y
 _atom_site_fract_z
 _atom_site_occupancy
  Ba  Ba0  1  0.50000000  0.00000000  0.50000000  1
  Ba  Ba1  1  0.00000000  0.50000000  -0.00000000  1
  Ba  Ba2  1  0.00000000  0.50000000  0.50000000  1
  Ba  Ba3  1  0.50000000  0.00000000  -0.00000000  1
  Ba  Ba4  1  0.00479546  0.00000000  0.25000000  1
  Ba  Ba5  1  0.49520454  0.50000000  0.75000000  1
  Ba  Ba6  1  0.99520454  -0.00000000  0.75000000  1
  Ba  Ba7  1  0.50479546  0.50000000  0.25000000  1
  Ba  Ba8  1  0.99091923  0.62419634  0.31289866  1
  Ba  Ba9  1  0.50908077  0.87580366  0.81289866  1
  Ba  Ba10  1  0.50908077  0.12419634  0.68710134  1
  Ba  Ba11  1  0.99091923  0.37580366  0.18710134  1
  Ba  Ba12  1  0.00908077  0.37580366  0.68710134  1
  Ba  Ba13  1  0.49091923  0.12419634  0.18710134  1
  Ba  Ba14  1  0.49091923  0.87580366  0.31289866  1
  Ba  Ba15  1  0.00908077  0.62419634  0.81289866  1
  Ba  Ba16  1  0.00783687  0.87550729  0.43992371  1
  Ba  Ba17  1  0.49216313  0.62449271  0.93992371  1
  Ba  Ba18  1  0.49216313  0.37550729  0.56007629  1
  Ba  Ba19  1  0.00783687  0.12449271  0.06007629  1
  Ba  Ba20  1  0.99216313  0.12449271  0.56007629  1
  Ba  Ba21  1  0.50783687  0.37550729  0.06007629  1
  Ba  Ba22  1  0.50783687  0.62449271  0.43992371  1
  Ba  Ba23  1  0.99216313  0.87550729  0.93992371  1
  Ba  Ba24  1  0.25569583  0.75036625  0.12398359  1
  Ba  Ba25  1  0.24430417  0.74963375  0.62398359  1
  Ba  Ba26  1  0.24430417  0.25036625  0.87601641  1
  Ba  Ba27  1  0.25569583  0.24963375  0.37601641  1
  Ba  Ba28  1  0.74430417  0.24963375  0.87601641  1
  Ba  Ba29  1  0.75569583  0.25036625  0.37601641  1
  Ba  Ba30  1  0.75569583  0.74963375  0.12398359  1
  Ba  Ba31  1  0.74430417  0.75036625  0.62398359  1
  P  P0  1  0.18808839  0.99287637  0.33901730  1
  P  P1  1  0.31191161  0.50712363  0.83901730  1
  P  P2  1  0.31191161  0.49287637  0.66098270  1
  P  P3  1  0.18808839  0.00712363  0.16098270  1
  P  P4  1  0.81191161  0.00712363  0.66098270  1
  P  P5  1  0.68808839  0.49287637  0.16098270  1
  P  P6  1  0.68808839  0.50712363  0.33901730  1
  P  P7  1  0.81191161  0.99287637  0.83901730  1
  P  P8  1  0.30867509  0.50899055  0.15753081  1
  P  P9  1  0.19132491  0.99100945  0.65753081  1
  P  P10  1  0.19132491  0.00899055  0.84246919  1
  P  P11  1  0.30867509  0.49100945  0.34246919  1
  P  P12  1  0.69132491  0.49100945  0.84246919  1
  P  P13  1  0.80867509  0.00899055  0.34246919  1
  P  P14  1  0.80867509  0.99100945  0.15753081  1
  P  P15  1  0.69132491  0.50899055  0.65753081  1
  P  P16  1  0.19833557  0.31242864  0.50335220  1
  P  P17  1  0.30166443  0.18757136  0.00335220  1
  P  P18  1  0.30166443  0.81242864  0.49664780  1
  P  P19  1  0.19833557  0.68757136  0.99664780  1
  P  P20  1  0.80166443  0.68757136  0.49664780  1
  P  P21  1  0.69833557  0.81242864  0.99664780  1
  P  P22  1  0.69833557  0.18757136  0.50335220  1
  P  P23  1  0.80166443  0.31242864  0.00335220  1
  P  P24  1  0.69030087  0.81176167  0.50037752  1
  P  P25  1  0.80969913  0.68823833  0.00037752  1
  P  P26  1  0.80969913  0.31176167  0.49962248  1
  P  P27  1  0.69030087  0.18823833  0.99962248  1
  P  P28  1  0.30969913  0.18823833  0.49962248  1
  P  P29  1  0.19030087  0.31176167  0.99962248  1
  P  P30  1  0.19030087  0.68823833  0.50037752  1
  P  P31  1  0.30969913  0.81176167  0.00037752  1
  P  P32  1  0.17797275  0.49729190  0.40312760  1
  P  P33  1  0.32202725  0.00270810  0.90312760  1
  P  P34  1  0.32202725  0.99729190  0.59687240  1
  P  P35  1  0.17797275  0.50270810  0.09687240  1
  P  P36  1  0.82202725  0.50270810  0.59687240  1
  P  P37  1  0.67797275  0.99729190  0.09687240  1
  P  P38  1  0.67797275  0.00270810  0.40312760  1
  P  P39  1  0.82202725  0.49729190  0.90312760  1
  P  P40  1  0.25707644  0.75726608  0.37536928  1
  P  P41  1  0.24292356  0.74273392  0.87536928  1
  P  P42  1  0.24292356  0.25726608  0.62463072  1
  P  P43  1  0.25707644  0.24273392  0.12463072  1
  P  P44  1  0.74292356  0.24273392  0.62463072  1
  P  P45  1  0.75707644  0.25726608  0.12463072  1
  P  P46  1  0.75707644  0.74273392  0.37536928  1
  P  P47  1  0.74292356  0.75726608  0.87536928  1
  P  P48  1  0.69638910  0.43160023  0.47066969  1
  P  P49  1  0.80361090  0.06839977  0.97066969  1
  P  P50  1  0.80361090  0.93160023  0.52933031  1
  P  P51  1  0.69638910  0.56839977  0.02933031  1
  P  P52  1  0.30361090  0.56839977  0.52933031  1
  P  P53  1  0.19638910  0.93160023  0.02933031  1
  P  P54  1  0.19638910  0.06839977  0.47066969  1
  P  P55  1  0.30361090  0.43160023  0.97066969  1
  P  P56  1  0.01133418  0.40620342  0.39409554  1
  P  P57  1  0.48866582  0.09379658  0.89409554  1
  P  P58  1  0.48866582  0.90620342  0.60590446  1
  P  P59  1  0.01133418  0.59379658  0.10590446  1
  P  P60  1  0.98866582  0.59379658  0.60590446  1
  P  P61  1  0.51133418  0.90620342  0.10590446  1
  P  P62  1  0.51133418  0.09379658  0.39409554  1
  P  P63  1  0.98866582  0.40620342  0.89409554  1
  P  P64  1  0.99804501  0.78830768  0.20356749  1
  P  P65  1  0.50195499  0.71169232  0.70356749  1
  P  P66  1  0.50195499  0.28830768  0.79643251  1
  P  P67  1  0.99804501  0.21169232  0.29643251  1
  P  P68  1  0.00195499  0.21169232  0.79643251  1
  P  P69  1  0.49804501  0.28830768  0.29643251  1
  P  P70  1  0.49804501  0.71169232  0.20356749  1
  P  P71  1  0.00195499  0.78830768  0.70356749  1
  P  P72  1  0.82616686  0.81747064  0.24448576  1
  P  P73  1  0.67383314  0.68252936  0.74448576  1
  P  P74  1  0.67383314  0.31747064  0.75551424  1
  P  P75  1  0.82616686  0.18252936  0.25551424  1
  P  P76  1  0.17383314  0.18252936  0.75551424  1
  P  P77  1  0.32616686  0.31747064  0.25551424  1
  P  P78  1  0.32616686  0.68252936  0.24448576  1
  P  P79  1  0.17383314  0.81747064  0.74448576  1
  P  P80  1  0.01768605  0.87906908  0.05939775  1
  P  P81  1  0.48231395  0.62093092  0.55939775  1
  P  P82  1  0.48231395  0.37906908  0.94060225  1
  P  P83  1  0.01768605  0.12093092  0.44060225  1
  P  P84  1  0.98231395  0.12093092  0.94060225  1
  P  P85  1  0.51768605  0.37906908  0.44060225  1
  P  P86  1  0.51768605  0.62093092  0.05939775  1
  P  P87  1  0.98231395  0.87906908  0.55939775  1
  P  P88  1  0.13057842  0.85178773  0.33004306  1
  P  P89  1  0.36942158  0.64821227  0.83004306  1
  P  P90  1  0.36942158  0.35178773  0.66995694  1
  P  P91  1  0.13057842  0.14821227  0.16995694  1
  P  P92  1  0.86942158  0.14821227  0.66995694  1
  P  P93  1  0.63057842  0.35178773  0.16995694  1
  P  P94  1  0.63057842  0.64821227  0.33004306  1
  P  P95  1  0.86942158  0.85178773  0.83004306  1
  P  P96  1  0.80703480  0.45101747  0.27826922  1
  P  P97  1  0.69296520  0.04898253  0.77826922  1
  P  P98  1  0.69296520  0.95101747  0.72173078  1
  P  P99  1  0.80703480  0.54898253  0.22173078  1
  P  P100  1  0.19296520  0.54898253  0.72173078  1
  P  P101  1  0.30703480  0.95101747  0.22173078  1
  P  P102  1  0.30703480  0.04898253  0.27826922  1
  P  P103  1  0.19296520  0.45101747  0.77826922  1
  P  P104  1  0.37222371  0.83815820  0.42381213  1
  P  P105  1  0.12777629  0.66184180  0.92381213  1
  P  P106  1  0.12777629  0.33815820  0.57618787  1
  P  P107  1  0.37222371  0.16184180  0.07618787  1
  P  P108  1  0.62777629  0.16184180  0.57618787  1
  P  P109  1  0.87222371  0.33815820  0.07618787  1
  P  P110  1  0.87222371  0.66184180  0.42381213  1
  P  P111  1  0.62777629  0.83815820  0.92381213  1
  P  P112  1  0.71011685  0.93325473  0.21609600  1
  P  P113  1  0.78988315  0.56674527  0.71609600  1
  P  P114  1  0.78988315  0.43325473  0.78390400  1
  P  P115  1  0.71011685  0.06674527  0.28390400  1
  P  P116  1  0.28988315  0.06674527  0.78390400  1
  P  P117  1  0.21011685  0.43325473  0.28390400  1
  P  P118  1  0.21011685  0.56674527  0.21609600  1
  P  P119  1  0.28988315  0.93325473  0.71609600  1
  Au  Au0  1  0.18931972  0.81425882  0.25089636  1
  Au  Au1  1  0.31068028  0.68574118  0.75089636  1
  Au  Au2  1  0.31068028  0.31425882  0.74910364  1
  Au  Au3  1  0.18931972  0.18574118  0.24910364  1
  Au  Au4  1  0.81068028  0.18574118  0.74910364  1
  Au  Au5  1  0.68931972  0.31425882  0.24910364  1
  Au  Au6  1  0.68931972  0.68574118  0.25089636  1
  Au  Au7  1  0.81068028  0.81425882  0.75089636  1
  Au  Au8  1  0.31842628  0.99872686  0.40644789  1
  Au  Au9  1  0.18157372  0.50127314  0.90644789  1
  Au  Au10  1  0.18157372  0.49872686  0.59355211  1
  Au  Au11  1  0.31842628  0.00127314  0.09355211  1
  Au  Au12  1  0.68157372  0.00127314  0.59355211  1
  Au  Au13  1  0.81842628  0.49872686  0.09355211  1
  Au  Au14  1  0.81842628  0.50127314  0.40644789  1
  Au  Au15  1  0.68157372  0.99872686  0.90644789  1
  Au  Au16  1  0.00119857  0.62109964  0.18905235  1
  Au  Au17  1  0.49880143  0.87890036  0.68905235  1
  Au  Au18  1  0.49880143  0.12109964  0.81094765  1
  Au  Au19  1  0.00119857  0.37890036  0.31094765  1
  Au  Au20  1  0.99880143  0.37890036  0.81094765  1
  Au  Au21  1  0.50119857  0.12109964  0.31094765  1
  Au  Au22  1  0.50119857  0.87890036  0.18905235  1
  Au  Au23  1  0.99880143  0.62109964  0.68905235  1
  Au  Au24  1  0.31647345  0.44771281  0.46841400  1
  Au  Au25  1  0.18352655  0.05228719  0.96841400  1
  Au  Au26  1  0.18352655  0.94771281  0.53158600  1
  Au  Au27  1  0.31647345  0.55228719  0.03158600  1
  Au  Au28  1  0.68352655  0.55228719  0.53158600  1
  Au  Au29  1  0.81647345  0.94771281  0.03158600  1
  Au  Au30  1  0.81647345  0.05228719  0.46841400  1
  Au  Au31  1  0.68352655  0.44771281  0.96841400  1
  Au  Au32  1  0.00635172  0.09960873  0.35793917  1
  Au  Au33  1  0.49364828  0.40039127  0.85793917  1
  Au  Au34  1  0.49364828  0.59960873  0.64206083  1
  Au  Au35  1  0.00635172  0.90039127  0.14206083  1
  Au  Au36  1  0.99364828  0.90039127  0.64206083  1
  Au  Au37  1  0.50635172  0.59960873  0.14206083  1
  Au  Au38  1  0.50635172  0.40039127  0.35793917  1
  Au  Au39  1  0.99364828  0.09960873  0.85793917  1
  Au  Au40  1  0.01043388  0.28386882  0.45326891  1
  Au  Au41  1  0.48956612  0.21613118  0.95326891  1
  Au  Au42  1  0.48956612  0.78386882  0.54673109  1
  Au  Au43  1  0.01043388  0.71613118  0.04673109  1
  Au  Au44  1  0.98956612  0.71613118  0.54673109  1
  Au  Au45  1  0.51043388  0.78386882  0.04673109  1
  Au  Au46  1  0.51043388  0.21613118  0.45326891  1
  Au  Au47  1  0.98956612  0.28386882  0.95326891  1
  Au  Au48  1  0.38019780  0.34835971  0.17271916  1
  Au  Au49  1  0.11980220  0.15164029  0.67271916  1
  Au  Au50  1  0.11980220  0.84835971  0.82728084  1
  Au  Au51  1  0.38019780  0.65164029  0.32728084  1
  Au  Au52  1  0.61980220  0.65164029  0.82728084  1
  Au  Au53  1  0.88019780  0.84835971  0.32728084  1
  Au  Au54  1  0.88019780  0.15164029  0.17271916  1
  Au  Au55  1  0.61980220  0.34835971  0.67271916  1
  Au  Au56  1  0.61535445  0.84039016  0.42042973  1
  Au  Au57  1  0.88464555  0.65960984  0.92042973  1
  Au  Au58  1  0.88464555  0.34039016  0.57957027  1
  Au  Au59  1  0.61535445  0.15960984  0.07957027  1
  Au  Au60  1  0.38464555  0.15960984  0.57957027  1
  Au  Au61  1  0.11535445  0.34039016  0.07957027  1
  Au  Au62  1  0.11535445  0.65960984  0.42042973  1
  Au  Au63  1  0.38464555  0.84039016  0.92042973  1
loop_
_geom_bond_atom_site_label_1
_geom_bond_atom_site_label_2
_geom_bond_distance
_geom_bond_site_symmetry_2
Ba0 P62 3.418376 1_555
Ba0 P58 3.418376 1_545
Ba0 P34 3.423002 1_545
Ba0 P38 3.423002 1_555
Ba0 P24 3.451240 1_545
Ba0 P28 3.451240 1_555
Ba0 P50 3.490648 1_545
Ba0 P54 3.490648 1_555
Ba0 P18 3.495401 1_545
Ba0 P22 3.495401 1_555
Ba0 P104 3.558177 1_545
Ba0 P108 3.558177 1_555
Ba1 P63 3.418376 1_454
Ba1 P59 3.418376 1_555
Ba1 P39 3.423002 1_454
Ba1 P35 3.423002 1_555
Ba1 P29 3.451240 1_554
Ba1 P25 3.451240 1_455
Ba1 P51 3.490648 1_455
Ba1 P55 3.490648 1_554
Ba1 P19 3.495401 1_554
Ba1 P23 3.495401 1_455
Ba1 P109 3.558177 1_455
Ba1 P105 3.558177 1_554
Ba2 P60 3.418376 1_455
Ba2 P56 3.418376 1_555
Ba2 P36 3.423002 1_455
Ba2 P32 3.423002 1_555
Ba2 P26 3.451240 1_455
Ba2 P30 3.451240 1_555
Ba2 P52 3.490648 1_555
Ba2 P48 3.490648 1_455
Ba2 P20 3.495401 1_455
Ba2 P16 3.495401 1_555
Ba2 P110 3.558177 1_455
Ba2 P106 3.558177 1_555
Ba3 P57 3.418376 1_554
Ba3 P61 3.418376 1_545
Ba3 P33 3.423002 1_554
Ba3 P37 3.423002 1_545
Ba3 P31 3.451240 1_545
Ba3 P27 3.451240 1_554
Ba3 P49 3.490648 1_554
Ba3 P53 3.490648 1_545
Ba3 P21 3.495401 1_544
Ba3 P17 3.495401 1_555
Ba3 P107 3.558177 1_555
Ba3 P111 3.558177 1_544
Ba4 P3 3.267558 1_555
Ba4 P0 3.267558 1_545
Ba4 P72 3.314194 1_445
Ba4 P75 3.314194 1_455
Ba4 P102 3.396263 1_555
Ba4 P101 3.396263 1_545
Ba4 P67 3.430602 1_455
Ba4 P64 3.430602 1_445
Ba4 P13 3.431671 1_455
Ba4 P14 3.431671 1_445
Ba4 P115 3.432617 1_455
Ba4 P112 3.432617 1_445
Ba4 P91 3.491851 1_555
Ba4 P88 3.491851 1_545
Ba5 P2 3.267558 1_555
Ba5 P1 3.267558 1_555
Ba5 P74 3.314194 1_555
Ba5 P73 3.314194 1_555
Ba5 P103 3.396263 1_555
Ba5 P100 3.396263 1_555
Ba5 P66 3.430602 1_555
Ba5 P65 3.430602 1_555
Ba5 P12 3.431671 1_555
Ba5 P15 3.431671 1_555
Ba5 P113 3.432617 1_555
Ba5 P114 3.432617 1_555
Ba5 P90 3.491851 1_555
Ba5 P89 3.491851 1_555
Ba6 P7 3.267558 1_545
Ba6 P4 3.267558 1_555
Ba6 P79 3.314194 1_645
Ba6 P76 3.314194 1_655
Ba6 P98 3.396263 1_545
Ba6 P97 3.396263 1_555
Ba6 P68 3.430602 1_655
Ba6 P71 3.430602 1_645
Ba6 P9 3.431671 1_645
Ba6 P10 3.431671 1_655
Ba6 P119 3.432617 1_645
Ba6 P116 3.432617 1_655
Ba6 P92 3.491851 1_555
Ba6 P95 3.491851 1_545
Ba7 P5 3.267558 1_555
Ba7 P6 3.267558 1_555
Ba7 P77 3.314194 1_555
Ba7 P78 3.314194 1_555
Ba7 P96 3.396263 1_555
Ba7 P99 3.396263 1_555
Ba7 P69 3.430602 1_555
Ba7 P70 3.430602 1_555
Ba7 P11 3.431671 1_555
Ba7 P8 3.431671 1_555
Ba7 P118 3.432617 1_555
Ba7 P117 3.432617 1_555
Ba7 P93 3.491851 1_555
Ba7 P94 3.491851 1_555
Ba8 P96 3.387986 1_555
Ba8 P99 3.503616 1_555
Ba8 P110 3.545944 1_555
Ba8 P46 3.558084 1_555
Ba8 P88 3.727260 1_655
Ba8 P6 3.737621 1_555
Ba8 P117 3.768582 1_655
Ba8 P118 3.778965 1_655
Ba8 P32 3.816659 1_655
Ba9 P97 3.387986 1_565
Ba9 P98 3.503616 1_555
Ba9 P111 3.545944 1_555
Ba9 P47 3.558084 1_555
Ba9 P89 3.727260 1_555
Ba9 P7 3.737621 1_555
Ba9 P116 3.768582 1_565
Ba9 P119 3.778965 1_555
Ba9 P33 3.816659 1_565
Ba10 P98 3.387986 1_545
Ba10 P97 3.503616 1_555
Ba10 P108 3.545944 1_555
Ba10 P44 3.558084 1_555
Ba10 P90 3.727260 1_555
Ba10 P4 3.737621 1_555
Ba10 P119 3.768582 1_545
Ba10 P116 3.778965 1_555
Ba10 P34 3.816659 1_545
Ba11 P99 3.387986 1_555
Ba11 P96 3.503616 1_555
Ba11 P109 3.545944 1_555
Ba11 P45 3.558084 1_555
Ba11 P91 3.727260 1_655
Ba11 P5 3.737621 1_555
Ba11 P118 3.768582 1_655
Ba11 P117 3.778965 1_655
Ba11 P35 3.816659 1_655
Ba12 P100 3.387986 1_555
Ba12 P103 3.503616 1_555
Ba12 P106 3.545944 1_555
Ba12 P42 3.558084 1_555
Ba12 P92 3.727260 1_455
Ba12 P2 3.737621 1_555
Ba12 P113 3.768582 1_455
Ba12 P114 3.778965 1_455
Ba12 P36 3.816659 1_455
Ba13 P101 3.387986 1_545
Ba13 P102 3.503616 1_555
Ba13 P107 3.545944 1_555
Ba13 P43 3.558084 1_555
Ba13 P93 3.727260 1_555
Ba13 P3 3.737621 1_555
Ba13 P112 3.768582 1_545
Ba13 P115 3.778965 1_555
Ba13 P37 3.816659 1_545
Ba14 P102 3.387986 1_565
Ba14 P101 3.503616 1_555
Ba14 P104 3.545944 1_555
Ba14 P40 3.558084 1_555
Ba14 P94 3.727260 1_555
Ba14 P0 3.737621 1_555
Ba14 P115 3.768582 1_565
Ba14 P112 3.778965 1_555
Ba14 P38 3.816659 1_565
Ba15 P103 3.387986 1_555
Ba15 P100 3.503616 1_555
Ba15 P105 3.545944 1_555
Ba15 P41 3.558084 1_555
Ba15 P95 3.727260 1_455
Ba15 P1 3.737621 1_555
Ba15 P114 3.768582 1_455
Ba15 P113 3.778965 1_455
Ba15 P39 3.816659 1_455
Ba16 P88 3.506782 1_555
Ba16 P50 3.512313 1_455
Ba16 P110 3.518565 1_455
Ba16 P87 3.529521 1_455
Ba16 P54 3.612164 1_565
Ba16 P83 3.648198 1_565
Ba16 P18 3.662665 1_555
Ba17 P89 3.506782 1_555
Ba17 P51 3.512313 1_556
Ba17 P111 3.518565 1_555
Ba17 P86 3.529521 1_556
Ba17 P55 3.612164 1_555
Ba17 P82 3.648198 1_555
Ba17 P19 3.662665 1_555
Ba18 P90 3.506782 1_555
Ba18 P48 3.512313 1_555
Ba18 P108 3.518565 1_555
Ba18 P85 3.529521 1_555
Ba18 P52 3.612164 1_555
Ba18 P81 3.648198 1_555
Ba18 P16 3.662665 1_555
Ba19 P91 3.506782 1_555
Ba19 P49 3.512313 1_454
Ba19 P109 3.518565 1_455
Ba19 P84 3.529521 1_454
Ba19 P53 3.612164 1_545
Ba19 P80 3.648198 1_545
Ba19 P17 3.662665 1_555
Ba20 P92 3.506782 1_555
Ba20 P54 3.512313 1_655
Ba20 P106 3.518565 1_655
Ba20 P83 3.529521 1_655
Ba20 P50 3.612164 1_545
Ba20 P87 3.648198 1_545
Ba20 P22 3.662665 1_555
Ba21 P93 3.506782 1_555
Ba21 P55 3.512313 1_554
Ba21 P107 3.518565 1_555
Ba21 P82 3.529521 1_554
Ba21 P51 3.612164 1_555
Ba21 P86 3.648198 1_555
Ba21 P23 3.662665 1_555
Ba22 P94 3.506782 1_555
Ba22 P52 3.512313 1_555
Ba22 P104 3.518565 1_555
Ba22 P81 3.529521 1_555
Ba22 P48 3.612164 1_555
Ba22 P85 3.648198 1_555
Ba22 P20 3.662665 1_555
Ba23 P95 3.506782 1_555
Ba23 P53 3.512313 1_656
Ba23 P105 3.518565 1_655
Ba23 P80 3.529521 1_656
Ba23 P49 3.612164 1_565
Ba23 P84 3.648198 1_565
Ba23 P21 3.662665 1_555
Ba24 P59 3.526499 1_555
Ba24 P70 3.529008 1_555
Ba24 P61 3.608622 1_555
Ba24 P64 3.647623 1_455
Ba24 P80 3.697282 1_555
Ba24 P8 3.762441 1_555
Ba24 P78 3.764541 1_555
Ba24 P31 3.796552 1_555
Ba24 P35 3.854959 1_555
Ba24 P118 3.877875 1_555
Ba24 P86 3.881383 1_555
Ba24 P19 3.912315 1_554
Ba24 P53 3.926804 1_555
Ba25 P58 3.526499 1_555
Ba25 P71 3.529008 1_555
Ba25 P60 3.608622 1_455
Ba25 P65 3.647623 1_555
Ba25 P81 3.697282 1_555
Ba25 P9 3.762441 1_555
Ba25 P79 3.764541 1_555
Ba25 P30 3.796552 1_555
Ba25 P34 3.854959 1_555
Ba25 P119 3.877875 1_555
Ba25 P87 3.881383 1_455
Ba25 P18 3.912315 1_555
Ba25 P52 3.926804 1_555
Ba26 P57 3.526499 1_555
Ba26 P68 3.529008 1_555
Ba26 P63 3.608622 1_455
Ba26 P66 3.647623 1_555
Ba26 P82 3.697282 1_555
Ba26 P10 3.762441 1_555
Ba26 P76 3.764541 1_555
Ba26 P29 3.796552 1_555
Ba26 P33 3.854959 1_555
Ba26 P116 3.877875 1_555
Ba26 P84 3.881383 1_455
Ba26 P17 3.912315 1_556
Ba26 P55 3.926804 1_555
Ba27 P56 3.526499 1_555
Ba27 P69 3.529008 1_555
Ba27 P62 3.608622 1_555
Ba27 P67 3.647623 1_455
Ba27 P83 3.697282 1_555
Ba27 P11 3.762441 1_555
Ba27 P77 3.764541 1_555
Ba27 P28 3.796552 1_555
Ba27 P32 3.854959 1_555
Ba27 P117 3.877875 1_555
Ba27 P85 3.881383 1_555
Ba27 P16 3.912315 1_555
Ba27 P54 3.926804 1_555
Ba28 P63 3.526499 1_555
Ba28 P66 3.529008 1_555
Ba28 P57 3.608622 1_555
Ba28 P68 3.647623 1_655
Ba28 P84 3.697282 1_555
Ba28 P12 3.762441 1_555
Ba28 P74 3.764541 1_555
Ba28 P27 3.796552 1_555
Ba28 P39 3.854959 1_555
Ba28 P114 3.877875 1_555
Ba28 P82 3.881383 1_555
Ba28 P23 3.912315 1_556
Ba28 P49 3.926804 1_555
Ba29 P62 3.526499 1_555
Ba29 P67 3.529008 1_555
Ba29 P56 3.608622 1_655
Ba29 P69 3.647623 1_555
Ba29 P85 3.697282 1_555
Ba29 P13 3.762441 1_555
Ba29 P75 3.764541 1_555
Ba29 P26 3.796552 1_555
Ba29 P38 3.854959 1_555
Ba29 P115 3.877875 1_555
Ba29 P83 3.881383 1_655
Ba29 P22 3.912315 1_555
Ba29 P48 3.926804 1_555
Ba30 P61 3.526499 1_555
Ba30 P64 3.529008 1_555
Ba30 P59 3.608622 1_655
Ba30 P70 3.647623 1_555
Ba30 P86 3.697282 1_555
Ba30 P14 3.762441 1_555
Ba30 P72 3.764541 1_555
Ba30 P25 3.796552 1_555
Ba30 P37 3.854959 1_555
Ba30 P112 3.877875 1_555
Ba30 P80 3.881383 1_655
Ba30 P21 3.912315 1_554
Ba30 P51 3.926804 1_555
Ba31 P60 3.526499 1_555
Ba31 P65 3.529008 1_555
Ba31 P58 3.608622 1_555
Ba31 P71 3.647623 1_655
Ba31 P87 3.697282 1_555
Ba31 P15 3.762441 1_555
Ba31 P73 3.764541 1_555
Ba31 P24 3.796552 1_555
Ba31 P36 3.854959 1_555
Ba31 P113 3.877875 1_555
Ba31 P81 3.881383 1_555
Ba31 P20 3.912315 1_555
Ba31 P50 3.926804 1_555
P0 P88 2.199543 1_555
P0 P102 2.343724 1_565
P1 P89 2.199543 1_555
P1 P103 2.343724 1_555
P2 P90 2.199543 1_555
P3 P91 2.199543 1_555
P4 P92 2.199543 1_555
P4 P98 2.343724 1_545
P5 P93 2.199543 1_555
P5 P99 2.343724 1_555
P6 P94 2.199543 1_555
P6 P96 2.343724 1_555
P7 P95 2.199543 1_555
P7 P97 2.343724 1_565
P10 P116 2.192713 1_555
P10 P33 2.264647 1_555
P11 P117 2.192713 1_555
P11 P32 2.264647 1_555
P12 P39 2.264647 1_555
P13 P38 2.264647 1_555
P14 P37 2.264647 1_555
P15 P36 2.264647 1_555
P16 P28 2.194793 1_555
P17 P29 2.194793 1_554
P18 P30 2.194793 1_555
P19 P31 2.194793 1_556
P20 P24 2.194793 1_555
P21 P25 2.194793 1_556
P22 P26 2.194793 1_555
P23 P27 2.194793 1_554
P24 P50 2.312372 1_555
P25 P51 2.312372 1_555
P26 P48 2.312372 1_555
P27 P49 2.312372 1_555
P28 P54 2.312372 1_555
P29 P55 2.312372 1_555
P30 P52 2.312372 1_555
P31 P53 2.312372 1_555
P32 P56 2.244361 1_555
P33 P57 2.244361 1_555
P34 P58 2.244361 1_555
P34 P9 2.264647 1_555
P35 P59 2.244361 1_555
P35 P8 2.264647 1_555
P36 P60 2.244361 1_555
P37 P61 2.244361 1_555
P38 P62 2.244361 1_555
P39 P63 2.244361 1_555
P40 P88 2.358145 1_555
P41 P89 2.358145 1_555
P42 P90 2.358145 1_555
P43 P91 2.358145 1_555
P44 P92 2.358145 1_555
P45 P93 2.358145 1_555
P46 P94 2.358145 1_555
P47 P95 2.358145 1_555
P48 P85 2.235689 1_555
P49 P84 2.235689 1_555
P50 P87 2.235689 1_555
P51 P86 2.235689 1_555
P52 P81 2.235689 1_555
P53 P80 2.235689 1_555
P54 P83 2.235689 1_555
P55 P82 2.235689 1_555
P64 P72 2.230437 1_555
P65 P73 2.230437 1_555
P66 P74 2.230437 1_555
P67 P75 2.230437 1_555
P68 P76 2.230437 1_555
P69 P77 2.230437 1_555
P70 P78 2.230437 1_555
P71 P79 2.230437 1_555
P96 P99 2.211680 1_555
P97 P98 2.211680 1_545
P100 P103 2.211680 1_555
P100 P2 2.343724 1_555
P101 P102 2.211680 1_565
P101 P3 2.343724 1_565
P104 P40 2.230893 1_555
P104 P18 2.304278 1_555
P105 P41 2.230893 1_555
P105 P19 2.304278 1_555
P106 P42 2.230893 1_555
P106 P16 2.304278 1_555
P107 P43 2.230893 1_555
P107 P17 2.304278 1_555
P108 P44 2.230893 1_555
P108 P22 2.304278 1_555
P109 P45 2.230893 1_555
P109 P23 2.304278 1_555
P110 P46 2.230893 1_555
P110 P20 2.304278 1_555
P111 P47 2.230893 1_555
P111 P21 2.304278 1_555
P112 P14 2.192713 1_555
P112 P72 2.275761 1_555
P113 P15 2.192713 1_555
P113 P73 2.275761 1_555
P114 P12 2.192713 1_555
P114 P74 2.275761 1_555
P115 P13 2.192713 1_555
P115 P75 2.275761 1_555
P116 P76 2.275761 1_555
P117 P77 2.275761 1_555
P118 P8 2.192713 1_555
P118 P78 2.275761 1_555
P119 P9 2.192713 1_555
P119 P79 2.275761 1_555
Au0 P78 2.445544 1_555
Au0 P88 2.476684 1_555
Au0 P64 2.494315 1_455
Au0 P101 2.535982 1_555
Au0 Ba4 3.385415 1_565
Au0 Ba14 3.799850 1_555
Au0 Ba24 3.920402 1_555
Au0 Ba8 3.969027 1_455
Au1 P79 2.445544 1_555
Au1 P89 2.476684 1_555
Au1 P65 2.494315 1_555
Au1 P100 2.535982 1_555
Au1 Ba5 3.385415 1_555
Au1 Ba15 3.799850 1_555
Au1 Ba25 3.920402 1_555
Au1 Ba9 3.969027 1_555
Au2 P76 2.445544 1_555
Au2 P90 2.476684 1_555
Au2 P66 2.494315 1_555
Au2 P103 2.535982 1_555
Au2 Ba5 3.385415 1_555
Au2 Ba12 3.799850 1_555
Au2 Ba26 3.920402 1_555
Au2 Ba10 3.969027 1_555
Au3 P77 2.445544 1_555
Au3 P91 2.476684 1_555
Au3 P67 2.494315 1_455
Au3 P102 2.535982 1_555
Au3 Ba4 3.385415 1_555
Au3 Ba13 3.799850 1_555
Au3 Ba27 3.920402 1_555
Au3 Ba11 3.969027 1_455
Au4 P74 2.445544 1_555
Au4 P92 2.476684 1_555
Au4 P68 2.494315 1_655
Au4 P97 2.535982 1_555
Au4 Ba6 3.385415 1_555
Au4 Ba10 3.799850 1_555
Au4 Ba28 3.920402 1_555
Au4 Ba12 3.969027 1_655
Au5 P75 2.445544 1_555
Au5 P93 2.476684 1_555
Au5 P69 2.494315 1_555
Au5 P96 2.535982 1_555
Au5 Ba7 3.385415 1_555
Au5 Ba11 3.799850 1_555
Au5 Ba29 3.920402 1_555
Au5 Ba13 3.969027 1_555
Au6 P72 2.445544 1_555
Au6 P94 2.476684 1_555
Au6 P70 2.494315 1_555
Au6 P99 2.535982 1_555
Au6 Ba7 3.385415 1_555
Au6 Ba8 3.799850 1_555
Au6 Ba30 3.920402 1_555
Au6 Ba14 3.969027 1_555
Au7 P73 2.445544 1_555
Au7 P95 2.476684 1_555
Au7 P71 2.494315 1_655
Au7 P98 2.535982 1_555
Au7 Ba6 3.385415 1_565
Au7 Ba9 3.799850 1_555
Au7 Ba31 3.920402 1_555
Au7 Ba15 3.969027 1_655
Au8 P0 2.422631 1_555
Au8 P104 2.506066 1_555
Au8 P62 2.515662 1_565
Au8 P54 2.516029 1_565
Au8 Ba0 3.363541 1_565
Au8 Ba14 3.779630 1_555
Au8 Ba27 3.891827 1_565
Au9 P1 2.422631 1_555
Au9 P105 2.506066 1_555
Au9 P63 2.515662 1_455
Au9 P55 2.516029 1_555
Au9 Ba1 3.363541 1_556
Au9 Ba15 3.779630 1_555
Au9 Ba26 3.891827 1_555
Au10 P2 2.422631 1_555
Au10 P106 2.506066 1_555
Au10 P60 2.515662 1_455
Au10 P52 2.516029 1_555
Au10 Ba2 3.363541 1_555
Au10 Ba12 3.779630 1_555
Au10 Ba25 3.891827 1_555
Au11 P3 2.422631 1_555
Au11 P107 2.506066 1_555
Au11 P61 2.515662 1_545
Au11 P53 2.516029 1_545
Au11 Ba3 3.363541 1_555
Au11 Ba13 3.779630 1_555
Au11 Ba24 3.891827 1_545
Au12 P4 2.422631 1_555
Au12 P108 2.506066 1_555
Au12 P58 2.515662 1_545
Au12 P50 2.516029 1_545
Au12 Ba0 3.363541 1_555
Au12 Ba10 3.779630 1_555
Au12 Ba31 3.891827 1_545
Au13 P5 2.422631 1_555
Au13 P109 2.506066 1_555
Au13 P59 2.515662 1_655
Au13 P51 2.516029 1_555
Au13 Ba1 3.363541 1_655
Au13 Ba11 3.779630 1_555
Au13 Ba30 3.891827 1_555
Au14 P6 2.422631 1_555
Au14 P110 2.506066 1_555
Au14 P56 2.515662 1_655
Au14 P48 2.516029 1_555
Au14 Ba2 3.363541 1_655
Au14 Ba8 3.779630 1_555
Au14 Ba29 3.891827 1_555
Au15 P7 2.422631 1_555
Au15 P111 2.506066 1_555
Au15 P57 2.515662 1_565
Au15 P49 2.516029 1_565
Au15 Ba3 3.363541 1_566
Au15 Ba9 3.779630 1_555
Au15 Ba28 3.891827 1_565
Au16 P59 2.484542 1_555
Au16 P118 2.492716 1_555
Au16 P99 2.515979 1_455
Au16 P64 2.521204 1_455
Au16 Ba11 3.646834 1_455
Au16 Ba8 3.649385 1_455
Au16 Ba30 3.758137 1_455
Au16 Ba24 3.830528 1_555
Au17 P58 2.484542 1_555
Au17 P119 2.492716 1_555
Au17 P98 2.515979 1_555
Au17 P65 2.521204 1_555
Au17 Ba10 3.646834 1_565
Au17 Ba9 3.649385 1_555
Au17 Ba31 3.758137 1_555
Au17 Ba25 3.830528 1_555
Au18 P57 2.484542 1_555
Au18 P116 2.492716 1_555
Au18 P97 2.515979 1_555
Au18 P66 2.521204 1_555
Au18 Ba9 3.646834 1_545
Au18 Ba10 3.649385 1_555
Au18 Ba28 3.758137 1_555
Au18 Ba26 3.830528 1_555
Au19 P56 2.484542 1_555
Au19 P117 2.492716 1_555
Au19 P96 2.515979 1_455
Au19 P67 2.521204 1_455
Au19 Ba8 3.646834 1_455
Au19 Ba11 3.649385 1_455
Au19 Ba29 3.758137 1_455
Au19 Ba27 3.830528 1_555
Au20 P63 2.484542 1_555
Au20 P114 2.492716 1_555
Au20 P103 2.515979 1_655
Au20 P68 2.521204 1_655
Au20 Ba15 3.646834 1_655
Au20 Ba12 3.649385 1_655
Au20 Ba26 3.758137 1_655
Au20 Ba28 3.830528 1_555
Au21 P62 2.484542 1_555
Au21 P115 2.492716 1_555
Au21 P102 2.515979 1_555
Au21 P69 2.521204 1_555
Au21 Ba14 3.646834 1_545
Au21 Ba13 3.649385 1_555
Au21 Ba27 3.758137 1_555
Au21 Ba29 3.830528 1_555
Au22 P61 2.484542 1_555
Au22 P112 2.492716 1_555
Au22 P101 2.515979 1_555
Au22 P70 2.521204 1_555
Au22 Ba13 3.646834 1_565
Au22 Ba14 3.649385 1_555
Au22 Ba24 3.758137 1_555
Au22 Ba30 3.830528 1_555
Au23 P60 2.484542 1_555
Au23 P113 2.492716 1_555
Au23 P100 2.515979 1_655
Au23 P71 2.521204 1_655
Au23 Ba12 3.646834 1_655
Au23 Ba15 3.649385 1_655
Au23 Ba25 3.758137 1_655
Au23 Ba31 3.830528 1_555
Au24 P85 2.506284 1_555
Au24 P32 2.530841 1_555
Au24 P52 2.540291 1_555
Au24 P16 2.583579 1_555
Au24 Ba22 3.425983 1_555
Au24 Ba18 3.452999 1_555
Au24 Ba2 3.574190 1_555
Au24 Ba27 4.060101 1_555
Au25 P84 2.506284 1_455
Au25 P33 2.530841 1_555
Au25 P53 2.540291 1_546
Au25 P17 2.583579 1_556
Au25 Ba23 3.425983 1_445
Au25 Ba19 3.452999 1_556
Au25 Ba3 3.574190 1_556
Au25 Ba26 4.060101 1_555
Au26 P87 2.506284 1_455
Au26 P34 2.530841 1_555
Au26 P54 2.540291 1_565
Au26 P18 2.583579 1_555
Au26 Ba20 3.425983 1_465
Au26 Ba16 3.452999 1_555
Au26 Ba0 3.574190 1_565
Au26 Ba25 4.060101 1_555
Au27 P86 2.506284 1_555
Au27 P35 2.530841 1_555
Au27 P55 2.540291 1_554
Au27 P19 2.583579 1_554
Au27 Ba21 3.425983 1_555
Au27 Ba17 3.452999 1_554
Au27 Ba1 3.574190 1_555
Au27 Ba24 4.060101 1_555
Au28 P81 2.506284 1_555
Au28 P36 2.530841 1_555
Au28 P48 2.540291 1_555
Au28 P20 2.583579 1_555
Au28 Ba18 3.425983 1_555
Au28 Ba22 3.452999 1_555
Au28 Ba2 3.574190 1_655
Au28 Ba31 4.060101 1_555
Au29 P80 2.506284 1_655
Au29 P37 2.530841 1_555
Au29 P49 2.540291 1_564
Au29 P21 2.583579 1_554
Au29 Ba19 3.425983 1_665
Au29 Ba23 3.452999 1_554
Au29 Ba3 3.574190 1_565
Au29 Ba30 4.060101 1_555
Au30 P83 2.506284 1_655
Au30 P38 2.530841 1_555
Au30 P50 2.540291 1_545
Au30 P22 2.583579 1_555
Au30 Ba16 3.425983 1_645
Au30 Ba20 3.452999 1_555
Au30 Ba0 3.574190 1_555
Au30 Ba29 4.060101 1_555
Au31 P82 2.506284 1_555
Au31 P39 2.530841 1_555
Au31 P51 2.540291 1_556
Au31 P23 2.583579 1_556
Au31 Ba17 3.425983 1_555
Au31 Ba21 3.452999 1_556
Au31 Ba1 3.574190 1_656
Au31 Ba28 4.060101 1_555
Au32 P83 2.458032 1_555
Au32 P67 2.462265 1_455
Au32 P13 2.536051 1_455
Au32 P0 2.560065 1_545
Au32 Ba27 3.502972 1_555
Au32 Ba4 3.506659 1_555
Au32 Ba29 3.520440 1_455
Au33 P82 2.458032 1_555
Au33 P66 2.462265 1_555
Au33 P12 2.536051 1_555
Au33 P1 2.560065 1_555
Au33 Ba26 3.502972 1_555
Au33 Ba5 3.506659 1_555
Au33 Ba28 3.520440 1_555
Au34 P81 2.458032 1_555
Au34 P65 2.462265 1_555
Au34 P15 2.536051 1_555
Au34 P2 2.560065 1_555
Au34 Ba25 3.502972 1_555
Au34 Ba5 3.506659 1_555
Au34 Ba31 3.520440 1_555
Au35 P80 2.458032 1_555
Au35 P64 2.462265 1_455
Au35 P14 2.536051 1_455
Au35 P3 2.560065 1_565
Au35 Ba24 3.502972 1_555
Au35 Ba4 3.506659 1_565
Au35 Ba30 3.520440 1_455
Au36 P87 2.458032 1_555
Au36 P71 2.462265 1_655
Au36 P9 2.536051 1_655
Au36 P4 2.560065 1_565
Au36 Ba31 3.502972 1_555
Au36 Ba6 3.506659 1_565
Au36 Ba25 3.520440 1_655
Au37 P86 2.458032 1_555
Au37 P70 2.462265 1_555
Au37 P8 2.536051 1_555
Au37 P5 2.560065 1_555
Au37 Ba30 3.502972 1_555
Au37 Ba7 3.506659 1_555
Au37 Ba24 3.520440 1_555
Au38 P85 2.458032 1_555
Au38 P69 2.462265 1_555
Au38 P11 2.536051 1_555
Au38 P6 2.560065 1_555
Au38 Ba29 3.502972 1_555
Au38 Ba7 3.506659 1_555
Au38 Ba27 3.520440 1_555
Au39 P84 2.458032 1_555
Au39 P68 2.462265 1_655
Au39 P10 2.536051 1_655
Au39 P7 2.560065 1_545
Au39 Ba28 3.502972 1_555
Au39 Ba6 3.506659 1_555
Au39 Ba26 3.520440 1_655
Au40 P83 2.450807 1_555
Au40 P56 2.518202 1_555
Au40 P16 2.518206 1_555
Au40 P26 2.565941 1_455
Au40 Ba2 3.495650 1_555
Au40 Ba27 3.496515 1_555
Au40 Ba29 3.570645 1_455
Au41 P82 2.450807 1_555
Au41 P57 2.518202 1_555
Au41 P17 2.518206 1_556
Au41 P27 2.565941 1_555
Au41 Ba3 3.495650 1_556
Au41 Ba26 3.496515 1_555
Au41 Ba28 3.570645 1_555
Au42 P81 2.450807 1_555
Au42 P58 2.518202 1_555
Au42 P18 2.518206 1_555
Au42 P24 2.565941 1_555
Au42 Ba0 3.495650 1_565
Au42 Ba25 3.496515 1_555
Au42 Ba31 3.570645 1_555
Au43 P80 2.450807 1_555
Au43 P59 2.518202 1_555
Au43 P19 2.518206 1_554
Au43 P25 2.565941 1_455
Au43 Ba1 3.495650 1_555
Au43 Ba24 3.496515 1_555
Au43 Ba30 3.570645 1_455
Au44 P87 2.450807 1_555
Au44 P60 2.518202 1_555
Au44 P20 2.518206 1_555
Au44 P30 2.565941 1_655
Au44 Ba2 3.495650 1_655
Au44 Ba31 3.496515 1_555
Au44 Ba25 3.570645 1_655
Au45 P86 2.450807 1_555
Au45 P61 2.518202 1_555
Au45 P21 2.518206 1_554
Au45 P31 2.565941 1_555
Au45 Ba3 3.495650 1_565
Au45 Ba30 3.496515 1_555
Au45 Ba24 3.570645 1_555
Au46 P85 2.450807 1_555
Au46 P62 2.518202 1_555
Au46 P22 2.518206 1_555
Au46 P28 2.565941 1_555
Au46 Ba0 3.495650 1_555
Au46 Ba29 3.496515 1_555
Au46 Ba27 3.570645 1_555
Au47 P84 2.450807 1_555
Au47 P63 2.518202 1_555
Au47 P23 2.518206 1_556
Au47 P29 2.565941 1_655
Au47 Ba1 3.495650 1_656
Au47 Ba28 3.496515 1_555
Au47 Ba26 3.570645 1_655
Au48 P43 2.485998 1_555
Au48 P8 2.544423 1_555
Au48 P77 2.546799 1_555
Au48 P93 2.661937 1_555
Au48 Ba7 3.465476 1_555
Au48 Ba13 3.557687 1_555
Au48 Ba21 3.606604 1_555
Au49 P42 2.485998 1_555
Au49 P9 2.544423 1_545
Au49 P76 2.546799 1_555
Au49 P92 2.661937 1_455
Au49 Ba6 3.465476 1_455
Au49 Ba12 3.557687 1_555
Au49 Ba20 3.606604 1_455
Au50 P41 2.485998 1_555
Au50 P10 2.544423 1_565
Au50 P79 2.546799 1_555
Au50 P95 2.661937 1_455
Au50 Ba6 3.465476 1_465
Au50 Ba15 3.557687 1_555
Au50 Ba23 3.606604 1_455
Au51 P40 2.485998 1_555
Au51 P11 2.544423 1_555
Au51 P78 2.546799 1_555
Au51 P94 2.661937 1_555
Au51 Ba7 3.465476 1_555
Au51 Ba14 3.557687 1_555
Au51 Ba22 3.606604 1_555
Au52 P47 2.485998 1_555
Au52 P12 2.544423 1_555
Au52 P73 2.546799 1_555
Au52 P89 2.661937 1_555
Au52 Ba5 3.465476 1_555
Au52 Ba9 3.557687 1_555
Au52 Ba17 3.606604 1_555
Au53 P46 2.485998 1_555
Au53 P13 2.544423 1_565
Au53 P72 2.546799 1_555
Au53 P88 2.661937 1_655
Au53 Ba4 3.465476 1_665
Au53 Ba8 3.557687 1_555
Au53 Ba16 3.606604 1_655
Au54 P45 2.485998 1_555
Au54 P14 2.544423 1_545
Au54 P75 2.546799 1_555
Au54 P91 2.661937 1_655
Au54 Ba4 3.465476 1_655
Au54 Ba11 3.557687 1_555
Au54 Ba19 3.606604 1_655
Au55 P44 2.485998 1_555
Au55 P15 2.544423 1_555
Au55 P74 2.546799 1_555
Au55 P90 2.661937 1_555
Au55 Ba5 3.465476 1_555
Au55 Ba10 3.557687 1_555
Au55 Ba18 3.606604 1_555
Au56 P46 2.476682 1_555
Au56 P24 2.521719 1_555
Au56 P38 2.553256 1_565
Au56 P104 2.585312 1_555
Au56 Ba22 3.453308 1_555
Au56 Ba14 3.471939 1_555
Au56 Ba0 3.552221 1_565
Au57 P47 2.476682 1_555
Au57 P25 2.521719 1_556
Au57 P39 2.553256 1_555
Au57 P105 2.585312 1_655
Au57 Ba23 3.453308 1_555
Au57 Ba15 3.471939 1_655
Au57 Ba1 3.552221 1_656
Au58 P44 2.476682 1_555
Au58 P26 2.521719 1_555
Au58 P36 2.553256 1_555
Au58 P106 2.585312 1_655
Au58 Ba20 3.453308 1_555
Au58 Ba12 3.471939 1_655
Au58 Ba2 3.552221 1_655
Au59 P45 2.476682 1_555
Au59 P27 2.521719 1_554
Au59 P37 2.553256 1_545
Au59 P107 2.585312 1_555
Au59 Ba21 3.453308 1_555
Au59 Ba13 3.471939 1_555
Au59 Ba3 3.552221 1_555
Au60 P42 2.476682 1_555
Au60 P28 2.521719 1_555
Au60 P34 2.553256 1_545
Au60 P108 2.585312 1_555
Au60 Ba18 3.453308 1_555
Au60 Ba10 3.471939 1_555
Au60 Ba0 3.552221 1_555
Au61 P43 2.476682 1_555
Au61 P29 2.521719 1_554
Au61 P35 2.553256 1_555
Au61 P109 2.585312 1_455
Au61 Ba19 3.453308 1_555
Au61 Ba11 3.471939 1_455
Au61 Ba1 3.552221 1_555
Au62 P40 2.476682 1_555
Au62 P30 2.521719 1_555
Au62 P32 2.553256 1_555
Au62 P110 2.585312 1_455
Au62 Ba16 3.453308 1_555
Au62 Ba8 3.471939 1_455
Au62 Ba2 3.552221 1_555
Au63 P41 2.476682 1_555
Au63 P31 2.521719 1_556
Au63 P33 2.553256 1_565
Au63 P111 2.585312 1_555
Au63 Ba17 3.453308 1_555
Au63 Ba9 3.471939 1_555
Au63 Ba3 3.552221 1_566
