# generated using pymatgen
data_Mg3Si4
_symmetry_space_group_name_H-M   'P 1'
_cell_length_a   5.94014400
_cell_length_b   6.58480423
_cell_length_c   7.38309448
_cell_angle_alpha   105.69807945
_cell_angle_beta   99.55337438
_cell_angle_gamma   105.34654983
_symmetry_Int_Tables_number   1
_chemical_formula_structural   Mg3Si4
_chemical_formula_sum   'Mg6 Si8'
_cell_volume   259.17540488
_cell_formula_units_Z   2
loop_
 _symmetry_equiv_pos_site_id
 _symmetry_equiv_pos_as_xyz
  1  'x, y, z'
loop_
 _atom_site_type_symbol
 _atom_site_label
 _atom_site_symmetry_multiplicity
 _atom_site_fract_x
 _atom_site_fract_y
 _atom_site_fract_z
 _atom_site_occupancy
  Mg  Mg0  1  0.88070800  0.50814400  0.40247800  1
  Mg  Mg1  1  0.41010400  0.84781100  0.56049400  1
  Mg  Mg2  1  0.56897800  0.21576500  0.96899000  1
  Mg  Mg3  1  0.63388900  0.68732900  0.88812600  1
  Mg  Mg4  1  0.89053100  0.98068500  0.34708900  1
  Mg  Mg5  1  0.09053100  0.21125700  0.07005900  1
  Si  Si0  1  0.11145600  0.32558000  0.71392900  1
  Si  Si1  1  0.17836700  0.75497500  0.84848100  1
  Si  Si2  1  0.12464300  0.70218900  0.15328300  1
  Si  Si3  1  0.48408300  0.59261000  0.20662000  1
  Si  Si4  1  0.92092200  0.92261200  0.70346500  1
  Si  Si5  1  0.67328100  0.28485300  0.63239200  1
  Si  Si6  1  0.33307600  0.39093300  0.46483800  1
  Si  Si7  1  0.44607100  0.07544700  0.28640400  1
loop_
_geom_bond_atom_site_label_1
_geom_bond_atom_site_label_2
_geom_bond_distance
_geom_bond_site_symmetry_2
Mg0 Si5 2.765390 1_555
Mg0 Si3 2.819421 1_555
Mg0 Si2 2.879978 1_655
Mg0 Si4 2.939488 1_555
Mg0 Si6 2.984585 1_655
Mg0 Si7 3.093345 1_555
Mg0 Si0 3.151720 1_655
Mg0 Si1 3.203305 1_655
Mg1 Si5 2.743025 1_565
Mg1 Si6 2.788062 1_555
Mg1 Si7 2.828954 1_565
Mg1 Si1 2.831772 1_555
Mg1 Si3 2.870414 1_555
Mg1 Si4 2.903171 1_555
Mg1 Si2 2.953104 1_555
Mg2 Si5 2.782159 1_555
Mg2 Si3 2.844318 1_556
Mg2 Si7 2.874249 1_556
Mg2 Si1 3.083695 1_545
Mg3 Si4 2.771745 1_555
Mg3 Si3 2.811535 1_556
Mg3 Si1 2.837505 1_555
Mg3 Si5 2.900086 1_555
Mg3 Si6 3.125478 1_555
Mg3 Si0 3.172288 1_555
Mg3 Si2 3.192369 1_656
Mg3 Si1 3.219762 1_655
Mg4 Si4 2.743201 1_555
Mg4 Si3 2.811376 1_555
Mg4 Si2 2.816874 1_655
Mg4 Si0 2.851241 1_665
Mg4 Si7 2.862024 1_565
Mg4 Si6 3.029118 1_665
Mg4 Si5 3.178263 1_565
Mg5 Si4 2.692720 1_444
Mg5 Si3 2.743669 1_555
Mg5 Si6 2.794411 1_555
Mg5 Si7 2.909364 1_555
Mg5 Si0 2.936944 1_554
Mg5 Si2 3.066916 1_555
Mg5 Si1 3.229395 1_544
Si0 Si5 2.496411 1_455
Si0 Si6 2.496480 1_555
Si0 Si4 2.568703 1_445
Si0 Si1 2.625569 1_555
Si1 Si4 2.386013 1_455
Si1 Si2 2.426895 1_556
Si2 Si3 2.434053 1_555
Si2 Si7 2.497676 1_565
Si3 Si6 2.740418 1_555
Si5 Si7 2.492526 1_555
Si5 Si6 2.546985 1_555
Si6 Si7 2.460142 1_555
