# generated using pymatgen
data_LiNi2Ge
_symmetry_space_group_name_H-M   'P 1'
_cell_length_a   3.96851871
_cell_length_b   3.96851874
_cell_length_c   3.96851891
_cell_angle_alpha   60.00000696
_cell_angle_beta   60.00000674
_cell_angle_gamma   60.00000472
_symmetry_Int_Tables_number   1
_chemical_formula_structural   LiNi2Ge
_chemical_formula_sum   'Li1 Ni2 Ge1'
_cell_volume   44.19471968
_cell_formula_units_Z   1
loop_
 _symmetry_equiv_pos_site_id
 _symmetry_equiv_pos_as_xyz
  1  'x, y, z'
loop_
 _atom_site_type_symbol
 _atom_site_label
 _atom_site_symmetry_multiplicity
 _atom_site_fract_x
 _atom_site_fract_y
 _atom_site_fract_z
 _atom_site_occupancy
  Li  Li0  1  0.50000000  0.50000000  0.50000000  1
  Ni  Ni0  1  0.25000000  0.25000000  0.25000000  1
  Ni  Ni1  1  0.75000000  0.75000000  0.75000000  1
  Ge  Ge0  1  0.00000000  -0.00000000  0.00000000  1
loop_
_geom_bond_atom_site_label_1
_geom_bond_atom_site_label_2
_geom_bond_distance
_geom_bond_site_symmetry_2
Li0 Ni1 2.430211 1_555
Li0 Ni0 2.430211 1_555
Li0 Ni1 2.430212 1_455
Li0 Ni0 2.430212 1_655
Li0 Ni1 2.430212 1_545
Li0 Ni0 2.430212 1_565
Li0 Ni0 2.430212 1_556
Li0 Ni1 2.430212 1_554
Ge0 Ni1 2.430211 1_444
Ge0 Ni0 2.430211 1_555
Ge0 Ni1 2.430212 1_544
Ge0 Ni0 2.430212 1_455
Ge0 Ni1 2.430212 1_454
Ge0 Ni0 2.430212 1_545
Ge0 Ni1 2.430212 1_445
Ge0 Ni0 2.430212 1_554
Ge0 Li0 2.806167 1_544
Ge0 Li0 2.806167 1_545
Ge0 Li0 2.806167 1_454
Ge0 Li0 2.806167 1_455
Ge0 Li0 2.806167 1_445
Ge0 Li0 2.806167 1_554
