# generated using pymatgen
data_Ga4O5
_symmetry_space_group_name_H-M   'P 1'
_cell_length_a   6.60351633
_cell_length_b   6.60351633
_cell_length_c   6.67350517
_cell_angle_alpha   116.71539437
_cell_angle_beta   116.71539437
_cell_angle_gamma   95.24141822
_symmetry_Int_Tables_number   1
_chemical_formula_structural   Ga4O5
_chemical_formula_sum   'Ga8 O10'
_cell_volume   215.91965829
_cell_formula_units_Z   2
loop_
 _symmetry_equiv_pos_site_id
 _symmetry_equiv_pos_as_xyz
  1  'x, y, z'
loop_
 _atom_site_type_symbol
 _atom_site_label
 _atom_site_symmetry_multiplicity
 _atom_site_fract_x
 _atom_site_fract_y
 _atom_site_fract_z
 _atom_site_occupancy
  Ga  Ga0  1  0.27792200  0.11044600  0.65014000  1
  Ga  Ga1  1  0.37221800  0.53969400  0.65014000  1
  Ga  Ga2  1  0.88955400  0.72207800  0.34986000  1
  Ga  Ga3  1  0.97207800  0.63955400  0.84986000  1
  Ga  Ga4  1  0.46030600  0.62778200  0.34986000  1
  Ga  Ga5  1  0.87778200  0.21030600  0.84986000  1
  Ga  Ga6  1  0.36044600  0.02792200  0.15014000  1
  Ga  Ga7  1  0.78969400  0.12221800  0.15014000  1
  O  O0  1  0.18001200  0.44938500  0.98081000  1
  O  O1  1  0.80079800  0.53142500  0.98081000  1
  O  O2  1  0.55061500  0.81998800  0.01919000  1
  O  O3  1  0.06998800  0.30061500  0.51919000  1
  O  O4  1  0.46857500  0.19920200  0.01919000  1
  O  O5  1  0.44920200  0.21857500  0.51919000  1
  O  O6  1  0.69938500  0.93001200  0.48081000  1
  O  O7  1  0.78142500  0.55079800  0.48081000  1
  O  O8  1  0.00000000  0.00000000  0.00000000  1
  O  O9  1  0.25000000  0.75000000  0.50000000  1
loop_
_geom_bond_atom_site_label_1
_geom_bond_atom_site_label_2
_geom_bond_distance
_geom_bond_site_symmetry_2
Ga0 O4 1.942588 1_556
Ga0 O5 1.963416 1_555
Ga0 O9 2.076716 1_545
Ga0 O3 2.109252 1_555
Ga1 O2 1.942588 1_556
Ga1 O3 1.963416 1_555
Ga1 O9 2.076716 1_555
Ga1 O5 2.109252 1_555
Ga2 O1 1.942588 1_554
Ga2 O7 1.963416 1_555
Ga2 O9 2.076716 1_655
Ga2 O6 2.109252 1_555
Ga3 O7 1.942588 1_555
Ga3 O1 1.963416 1_555
Ga3 O8 2.076716 1_666
Ga3 O0 2.109252 1_655
Ga4 O0 1.942588 1_554
Ga4 O6 1.963416 1_555
Ga4 O9 2.076716 1_555
Ga4 O7 2.109252 1_555
Ga5 O6 1.942588 1_545
Ga5 O0 1.963416 1_655
Ga5 O8 2.076716 1_656
Ga5 O1 2.109252 1_555
Ga6 O5 1.942588 1_555
Ga6 O4 1.963416 1_555
Ga6 O8 2.076716 1_555
Ga6 O2 2.109252 1_545
Ga7 O3 1.942588 1_655
Ga7 O2 1.963416 1_545
Ga7 O8 2.076716 1_655
Ga7 O4 2.109252 1_555
