# generated using pymatgen
data_Rb2FeF4
_symmetry_space_group_name_H-M   'P 1'
_cell_length_a   7.36480517
_cell_length_b   7.36480517
_cell_length_c   7.36480517
_cell_angle_alpha   146.63271570
_cell_angle_beta   146.63271570
_cell_angle_gamma   47.90791610
_symmetry_Int_Tables_number   1
_chemical_formula_structural   Rb2FeF4
_chemical_formula_sum   'Rb2 Fe1 F4'
_cell_volume   120.35284577
_cell_formula_units_Z   1
loop_
 _symmetry_equiv_pos_site_id
 _symmetry_equiv_pos_as_xyz
  1  'x, y, z'
loop_
 _atom_site_type_symbol
 _atom_site_label
 _atom_site_symmetry_multiplicity
 _atom_site_fract_x
 _atom_site_fract_y
 _atom_site_fract_z
 _atom_site_occupancy
  Rb  Rb0  1  0.35637456  0.35637456  -0.00000000  1
  Rb  Rb1  1  0.64362544  0.64362544  0.00000000  1
  Fe  Fe0  1  0.00000000  0.00000000  -0.00000000  1
  F  F0  1  0.14871872  0.14871872  -0.00000000  1
  F  F1  1  0.85128128  0.85128128  0.00000000  1
  F  F2  1  0.50000000  0.00000000  0.50000000  1
  F  F3  1  0.00000000  0.50000000  0.50000000  1
loop_
_geom_bond_atom_site_label_1
_geom_bond_atom_site_label_2
_geom_bond_distance
_geom_bond_site_symmetry_2
F0 Fe0 2.001900 1_555
F0 Rb0 2.795251 1_555
F0 Rb1 2.990914 1_455
F0 Rb1 2.990914 1_556
F0 Rb1 2.990914 1_545
F0 Rb1 2.990914 1_444
F1 Fe0 2.001900 1_665
F1 Rb1 2.795251 1_555
F1 Rb0 2.990914 1_565
F1 Rb0 2.990914 1_666
F1 Rb0 2.990914 1_655
F1 Rb0 2.990914 1_554
F2 Fe0 2.114340 1_555
F2 Fe0 2.114340 1_656
F2 Rb1 2.865002 1_556
F2 Rb0 2.865002 1_545
F2 Rb1 2.865002 1_545
F2 Rb0 2.865002 1_556
F3 Fe0 2.114340 1_555
F3 Fe0 2.114340 1_566
F3 Rb1 2.865002 1_556
F3 Rb1 2.865002 1_455
F3 Rb0 2.865002 1_455
F3 Rb0 2.865002 1_556
