# generated using pymatgen
data_Ca2Mn2O5
_symmetry_space_group_name_H-M   'P 1'
_cell_length_a   5.45644241
_cell_length_b   5.58643044
_cell_length_c   8.50810954
_cell_angle_alpha   109.19131085
_cell_angle_beta   108.72080474
_cell_angle_gamma   89.95566917
_symmetry_Int_Tables_number   1
_chemical_formula_structural   Ca2Mn2O5
_chemical_formula_sum   'Ca4 Mn4 O10'
_cell_volume   230.37766883
_cell_formula_units_Z   2
loop_
 _symmetry_equiv_pos_site_id
 _symmetry_equiv_pos_as_xyz
  1  'x, y, z'
loop_
 _atom_site_type_symbol
 _atom_site_label
 _atom_site_symmetry_multiplicity
 _atom_site_fract_x
 _atom_site_fract_y
 _atom_site_fract_z
 _atom_site_occupancy
  Ca  Ca0  1  0.61261800  0.12814700  0.21468800  1
  Ca  Ca1  1  0.39793300  0.87185600  0.78536000  1
  Ca  Ca2  1  0.11254500  0.58653600  0.21462600  1
  Ca  Ca3  1  0.89792600  0.41346700  0.78532800  1
  Mn  Mn0  1  0.01318400  0.99994700  0.99998200  1
  Mn  Mn1  1  0.51318600  0.49995600  0.00004900  1
  Mn  Mn2  1  0.21967300  0.19046700  0.49999700  1
  Mn  Mn3  1  0.71957700  0.80962900  0.50003100  1
  O  O0  1  0.24743200  0.23953000  0.97309700  1
  O  O1  1  0.27427000  0.76049500  0.02693200  1
  O  O2  1  0.74710500  0.23404300  0.97305300  1
  O  O3  1  0.77393500  0.76585600  0.02684400  1
  O  O4  1  0.15765000  0.18915700  0.26236700  1
  O  O5  1  0.89549400  0.81076600  0.73781700  1
  O  O6  1  0.65775300  0.57291900  0.26234900  1
  O  O7  1  0.39532300  0.42695200  0.73753200  1
  O  O8  1  0.84618500  0.14756100  0.49997300  1
  O  O9  1  0.34621100  0.85271600  0.49997600  1
loop_
_geom_bond_atom_site_label_1
_geom_bond_atom_site_label_2
_geom_bond_distance
_geom_bond_site_symmetry_2
Ca0 O8 2.317090 1_555
Ca0 O6 2.381846 1_555
Ca0 O1 2.476746 1_545
Ca0 O3 2.489763 1_545
Ca0 O0 2.606244 1_554
Ca0 O2 2.623677 1_554
Ca0 O4 2.645334 1_555
Ca0 O4 2.874244 1_655
Ca1 O9 2.318649 1_555
Ca1 O7 2.382128 1_555
Ca1 O0 2.475274 1_565
Ca1 O2 2.490504 1_565
Ca1 O1 2.607334 1_556
Ca1 O3 2.621699 1_556
Ca1 O5 2.644790 1_455
Ca1 O5 2.874646 1_555
Ca2 O9 2.318060 1_555
Ca2 O4 2.383580 1_555
Ca2 O3 2.474720 1_455
Ca2 O1 2.489875 1_555
Ca2 O2 2.606242 1_454
Ca2 O0 2.621466 1_554
Ca2 O6 2.645015 1_455
Ca2 O6 2.874933 1_555
Ca3 O8 2.317388 1_555
Ca3 O5 2.382444 1_555
Ca3 O2 2.475975 1_555
Ca3 O0 2.489030 1_655
Ca3 O3 2.605059 1_556
Ca3 O1 2.622450 1_656
Ca3 O7 2.644973 1_555
Ca3 O7 2.875039 1_655
Mn0 O2 1.962425 1_465
Mn0 O3 1.963988 1_456
Mn0 O1 1.964810 1_556
Mn0 O0 1.966969 1_565
Mn0 O5 2.009063 1_455
Mn0 O4 2.010618 1_566
Mn1 O1 1.959540 1_555
Mn1 O0 1.960196 1_554
Mn1 O2 1.962019 1_554
Mn1 O3 1.963455 1_555
Mn1 O6 2.010273 1_555
Mn1 O7 2.011973 1_554
Mn2 O7 1.936881 1_555
Mn2 O4 1.937331 1_555
Mn2 O9 2.008646 1_545
Mn2 O8 2.052074 1_455
Mn3 O6 1.938179 1_555
Mn3 O5 1.938913 1_555
Mn3 O8 2.010973 1_565
Mn3 O9 2.051104 1_555
