# generated using pymatgen
data_Dy4NiSn8
_symmetry_space_group_name_H-M   'P 1'
_cell_length_a   4.39710300
_cell_length_b   4.41176000
_cell_length_c   16.88898500
_cell_angle_alpha   90.00000000
_cell_angle_beta   90.00000000
_cell_angle_gamma   90.00000000
_symmetry_Int_Tables_number   1
_chemical_formula_structural   Dy4NiSn8
_chemical_formula_sum   'Dy4 Ni1 Sn8'
_cell_volume   327.62879734
_cell_formula_units_Z   1
loop_
 _symmetry_equiv_pos_site_id
 _symmetry_equiv_pos_as_xyz
  1  'x, y, z'
loop_
 _atom_site_type_symbol
 _atom_site_label
 _atom_site_symmetry_multiplicity
 _atom_site_fract_x
 _atom_site_fract_y
 _atom_site_fract_z
 _atom_site_occupancy
  Dy  Dy0  1  0.25000000  0.00000000  0.09217500  1
  Dy  Dy1  1  0.25000000  0.50000000  0.60178200  1
  Dy  Dy2  1  0.75000000  0.50000000  0.39484300  1
  Dy  Dy3  1  0.75000000  0.00000000  0.89817300  1
  Ni  Ni0  1  0.25000000  0.00000000  0.30775700  1
  Sn  Sn0  1  0.25000000  0.00000000  0.45465600  1
  Sn  Sn1  1  0.25000000  0.50000000  0.93234900  1
  Sn  Sn2  1  0.75000000  0.50000000  0.05511200  1
  Sn  Sn3  1  0.75000000  0.00000000  0.57448600  1
  Sn  Sn4  1  0.25000000  0.50000000  0.23260700  1
  Sn  Sn5  1  0.25000000  0.00000000  0.74612000  1
  Sn  Sn6  1  0.75000000  0.00000000  0.23238500  1
  Sn  Sn7  1  0.75000000  0.50000000  0.75355700  1
loop_
_geom_bond_atom_site_label_1
_geom_bond_atom_site_label_2
_geom_bond_distance
_geom_bond_site_symmetry_2
Dy0 Sn2 3.176690 1_545
Dy0 Sn2 3.176690 1_455
Dy0 Sn2 3.176690 1_445
Dy0 Sn2 3.176690 1_555
Dy0 Sn6 3.231265 1_455
Dy0 Sn6 3.231265 1_555
Dy0 Sn4 3.239000 1_555
Dy0 Sn4 3.239000 1_545
Dy0 Sn1 3.485989 1_554
Dy0 Sn1 3.485989 1_544
Dy1 Sn3 3.148342 1_555
Dy1 Sn3 3.148342 1_565
Dy1 Sn3 3.148342 1_465
Dy1 Sn3 3.148342 1_455
Dy1 Sn5 3.287613 1_565
Dy1 Sn5 3.287613 1_555
Dy1 Sn0 3.322677 1_555
Dy1 Sn0 3.322677 1_565
Dy1 Sn7 3.377020 1_555
Dy1 Sn7 3.377020 1_455
Dy2 Sn0 3.274141 1_655
Dy2 Sn0 3.274141 1_665
Dy2 Sn0 3.274141 1_555
Dy2 Sn0 3.274141 1_565
Dy2 Ni0 3.444237 1_565
Dy2 Ni0 3.444237 1_665
Dy2 Ni0 3.444237 1_655
Dy2 Ni0 3.444237 1_555
Dy2 Sn4 3.513010 1_655
Dy2 Sn4 3.513010 1_555
Dy2 Sn6 3.520522 1_565
Dy2 Sn6 3.520522 1_555
Dy2 Sn3 3.751132 1_565
Dy2 Sn3 3.751132 1_555
Dy3 Sn1 3.167443 1_645
Dy3 Sn1 3.167443 1_555
Dy3 Sn1 3.167443 1_545
Dy3 Sn1 3.167443 1_655
Dy3 Sn7 3.291096 1_555
Dy3 Sn7 3.291096 1_545
Dy3 Sn5 3.380586 1_555
Dy3 Sn5 3.380586 1_655
Dy3 Sn2 3.448372 1_546
Dy3 Sn2 3.448372 1_556
Ni0 Sn0 2.480975 1_555
Ni0 Sn6 2.540482 1_455
Ni0 Sn6 2.540482 1_555
Ni0 Sn4 2.544955 1_555
Ni0 Sn4 2.544955 1_545
Sn0 Sn3 2.988214 1_455
Sn0 Sn3 2.988214 1_555
Sn1 Sn2 3.021982 1_556
Sn1 Sn2 3.021982 1_456
Sn4 Sn6 3.114410 1_565
Sn4 Sn6 3.114410 1_555
Sn4 Sn6 3.114410 1_455
Sn4 Sn6 3.114410 1_465
Sn5 Sn7 3.116939 1_445
Sn5 Sn7 3.116939 1_545
Sn5 Sn7 3.116939 1_455
Sn5 Sn7 3.116939 1_555
