# generated using pymatgen
data_Ba2Cu2Te2P2O13
_symmetry_space_group_name_H-M   'P 1'
_cell_length_a   9.67486824
_cell_length_b   9.67486824
_cell_length_c   9.29134084
_cell_angle_alpha   80.80710844
_cell_angle_beta   80.80710844
_cell_angle_gamma   45.33683909
_symmetry_Int_Tables_number   1
_chemical_formula_structural   Ba2Cu2Te2P2O13
_chemical_formula_sum   'Ba4 Cu4 Te4 P4 O26'
_cell_volume   609.23269484
_cell_formula_units_Z   2
loop_
 _symmetry_equiv_pos_site_id
 _symmetry_equiv_pos_as_xyz
  1  'x, y, z'
loop_
 _atom_site_type_symbol
 _atom_site_label
 _atom_site_symmetry_multiplicity
 _atom_site_fract_x
 _atom_site_fract_y
 _atom_site_fract_z
 _atom_site_occupancy
  Ba  Ba0  1  0.48731000  0.22391900  0.10737900  1
  Ba  Ba1  1  0.77608100  0.51269000  0.39262100  1
  Ba  Ba2  1  0.51269000  0.77608100  0.89262100  1
  Ba  Ba3  1  0.22391900  0.48731000  0.60737900  1
  Cu  Cu0  1  0.69453300  0.30546700  0.75000000  1
  Cu  Cu1  1  0.30546700  0.69453300  0.25000000  1
  Cu  Cu2  1  0.50000000  0.00000000  0.50000000  1
  Cu  Cu3  1  0.00000000  0.50000000  0.00000000  1
  Te  Te0  1  0.78512200  0.09657700  0.42954100  1
  Te  Te1  1  0.90342300  0.21487800  0.07045900  1
  Te  Te2  1  0.21487800  0.90342300  0.57045900  1
  Te  Te3  1  0.09657700  0.78512200  0.92954100  1
  P  P0  1  0.67486200  0.99866400  0.76763700  1
  P  P1  1  0.00133600  0.32513800  0.73236300  1
  P  P2  1  0.32513800  0.00133600  0.23236300  1
  P  P3  1  0.99866400  0.67486200  0.26763700  1
  O  O0  1  0.86163700  0.90911200  0.66503600  1
  O  O1  1  0.09088800  0.13836300  0.83496400  1
  O  O2  1  0.13836300  0.09088800  0.33496400  1
  O  O3  1  0.90911200  0.86163700  0.16503600  1
  O  O4  1  0.53325600  0.00477800  0.69857800  1
  O  O5  1  0.99522200  0.46674400  0.80142200  1
  O  O6  1  0.46674400  0.99522200  0.30142200  1
  O  O7  1  0.00477800  0.53325600  0.19857800  1
  O  O8  1  0.71978600  0.88649100  0.91768200  1
  O  O9  1  0.11350900  0.28021400  0.58231800  1
  O  O10  1  0.28021400  0.11350900  0.08231800  1
  O  O11  1  0.88649100  0.71978600  0.41768200  1
  O  O12  1  0.54231800  0.17480300  0.43007200  1
  O  O13  1  0.82519700  0.45768200  0.06992800  1
  O  O14  1  0.45768200  0.82519700  0.56992800  1
  O  O15  1  0.17480300  0.54231800  0.93007200  1
  O  O16  1  0.56114300  0.21598900  0.78883100  1
  O  O17  1  0.78401100  0.43885700  0.71116900  1
  O  O18  1  0.43885700  0.78401100  0.21116900  1
  O  O19  1  0.21598900  0.56114300  0.28883100  1
  O  O20  1  0.71644400  0.28355600  0.25000000  1
  O  O21  1  0.28355600  0.71644400  0.75000000  1
  O  O22  1  0.70718900  0.29370300  0.53980600  1
  O  O23  1  0.70629700  0.29281100  0.96019400  1
  O  O24  1  0.29281100  0.70629700  0.46019400  1
  O  O25  1  0.29370300  0.70718900  0.03980600  1
loop_
_geom_bond_atom_site_label_1
_geom_bond_atom_site_label_2
_geom_bond_distance
_geom_bond_site_symmetry_2
Ba0 O6 2.723137 1_545
Ba0 O23 2.751633 1_554
Ba0 O15 2.867181 1_554
Ba0 O10 2.906424 1_555
Ba0 O16 2.931923 1_554
Ba0 O19 2.946292 1_555
Ba0 O8 3.011947 1_544
Ba0 O12 3.032757 1_555
Ba0 O3 3.035668 1_545
Ba0 O20 3.159814 1_555
Ba0 O7 3.372392 1_555
Ba1 O7 2.723137 1_655
Ba1 O22 2.751633 1_555
Ba1 O14 2.867181 1_555
Ba1 O11 2.906424 1_555
Ba1 O17 2.931923 1_555
Ba1 O18 2.946292 1_555
Ba1 O9 3.011947 1_655
Ba1 O13 3.032757 1_555
Ba1 O2 3.035668 1_655
Ba1 O20 3.159814 1_555
Ba1 O6 3.372392 1_555
Ba2 O4 2.723137 1_565
Ba2 O25 2.751633 1_556
Ba2 O13 2.867181 1_556
Ba2 O8 2.906424 1_555
Ba2 O18 2.931923 1_556
Ba2 O17 2.946292 1_555
Ba2 O10 3.011947 1_566
Ba2 O14 3.032757 1_555
Ba2 O1 3.035668 1_565
Ba2 O21 3.159814 1_555
Ba2 O5 3.372392 1_555
Ba3 O5 2.723137 1_455
Ba3 O24 2.751633 1_555
Ba3 O12 2.867181 1_555
Ba3 O9 2.906424 1_555
Ba3 O19 2.931923 1_555
Ba3 O16 2.946292 1_555
Ba3 O11 3.011947 1_455
Ba3 O15 3.032757 1_555
Ba3 O0 3.035668 1_455
Ba3 O21 3.159814 1_555
Ba3 O4 3.372392 1_555
Cu0 O22 1.953744 1_555
Cu0 O23 1.953744 1_555
Cu0 O16 1.966501 1_555
Cu0 O17 1.966501 1_555
Cu1 O24 1.953744 1_555
Cu1 O25 1.953744 1_555
Cu1 O19 1.966501 1_555
Cu1 O18 1.966501 1_555
Cu2 O4 1.935906 1_555
Cu2 O6 1.935906 1_545
Cu2 O14 1.996815 1_545
Cu2 O12 1.996815 1_555
Cu3 O7 1.935906 1_555
Cu3 O5 1.935906 1_454
Cu3 O13 1.996815 1_455
Cu3 O15 1.996815 1_554
O0 P0 1.561156 1_555
O0 Te0 2.446856 1_565
O1 P1 1.561156 1_555
O1 Te1 2.446856 1_456
O2 P2 1.561156 1_555
O2 Te2 2.446856 1_545
O3 P3 1.561156 1_555
O3 Te3 2.446856 1_654
O4 P0 1.564285 1_545
O5 P1 1.564285 1_655
O6 P2 1.564285 1_565
O7 P3 1.564285 1_455
O8 P0 1.535352 1_555
O9 P1 1.535352 1_555
O10 P2 1.535352 1_555
O11 P3 1.535352 1_555
O12 Te0 1.894494 1_555
O13 Te1 1.894494 1_555
O14 Te2 1.894494 1_555
O15 Te3 1.894494 1_555
O16 P0 1.575117 1_545
O17 P1 1.575117 1_655
O18 P2 1.575117 1_565
O19 P3 1.575117 1_455
O20 Te1 2.048628 1_555
O20 Te0 2.048628 1_555
O21 Te3 2.048628 1_555
O21 Te2 2.048628 1_555
O22 Te0 1.900335 1_555
O23 Te1 1.900335 1_556
O24 Te2 1.900335 1_555
O25 Te3 1.900335 1_554
