# generated using pymatgen
data_LiSm4Tm4O12
_symmetry_space_group_name_H-M   'P 1'
_cell_length_a   6.12399933
_cell_length_b   8.37600965
_cell_length_c   5.71863890
_cell_angle_alpha   90.75472896
_cell_angle_beta   91.50540130
_cell_angle_gamma   89.12334754
_symmetry_Int_Tables_number   1
_chemical_formula_structural   LiSm4Tm4O12
_chemical_formula_sum   'Li1 Sm4 Tm4 O12'
_cell_volume   293.17624043
_cell_formula_units_Z   1
loop_
 _symmetry_equiv_pos_site_id
 _symmetry_equiv_pos_as_xyz
  1  'x, y, z'
loop_
 _atom_site_type_symbol
 _atom_site_label
 _atom_site_symmetry_multiplicity
 _atom_site_fract_x
 _atom_site_fract_y
 _atom_site_fract_z
 _atom_site_occupancy
  Li  Li0  1  0.25360600  0.85218300  0.87249600  1
  Sm  Sm0  1  0.06583100  0.26534200  0.98464300  1
  Sm  Sm1  1  0.44753000  0.76027200  0.45861700  1
  Sm  Sm2  1  0.56669000  0.26163600  0.53430300  1
  Sm  Sm3  1  0.89802400  0.71273900  0.01443600  1
  Tm  Tm0  1  0.01227900  0.00308100  0.48379900  1
  Tm  Tm1  1  0.99844300  0.50274200  0.50311700  1
  Tm  Tm2  1  0.54641500  0.02933500  0.01224800  1
  Tm  Tm3  1  0.48245300  0.50043500  0.00157200  1
  O  O0  1  0.07987100  0.75330000  0.64893100  1
  O  O1  1  0.16666700  0.54706900  0.17437900  1
  O  O2  1  0.22239900  0.92212300  0.18842500  1
  O  O3  1  0.28965800  0.41301800  0.69692000  1
  O  O4  1  0.32070600  0.05929500  0.70023400  1
  O  O5  1  0.43435800  0.25520000  0.15160900  1
  O  O6  1  0.53931600  0.75633700  0.86032300  1
  O  O7  1  0.72130700  0.90846800  0.29377500  1
  O  O8  1  0.67734700  0.56367900  0.32349000  1
  O  O9  1  0.81231000  0.09139500  0.78949100  1
  O  O10  1  0.80197200  0.44781100  0.82070600  1
  O  O11  1  0.92323500  0.24610400  0.35107000  1
loop_
_geom_bond_atom_site_label_1
_geom_bond_atom_site_label_2
_geom_bond_distance
_geom_bond_site_symmetry_2
Li0 O0 1.838509 1_555
Li0 O2 1.905426 1_556
Li0 O6 1.916428 1_555
Li0 O4 2.058354 1_565
O0 Tm1 2.304886 1_455
O0 Tm0 2.333512 1_565
O0 Sm3 2.424270 1_456
O0 Sm1 2.528198 1_555
O1 Tm1 2.205714 1_455
O1 Tm3 2.221745 1_555
O1 Sm3 2.313715 1_455
O1 Sm0 2.658753 1_554
O1 Sm1 2.942820 1_555
O2 Tm0 2.241903 1_565
O2 Tm2 2.437663 1_565
O2 Sm1 2.451966 1_555
O3 Tm3 2.202302 1_556
O3 Tm1 2.202430 1_455
O3 Sm2 2.310159 1_555
O3 Sm0 2.517968 1_555
O4 Tm2 2.242514 1_556
O4 Tm0 2.282598 1_555
O4 Sm2 2.497528 1_555
O4 Sm0 2.834982 1_555
O4 Sm1 2.948080 1_545
O5 Tm2 2.152774 1_555
O5 Tm3 2.262838 1_555
O5 Sm2 2.313910 1_555
O5 Sm0 2.428035 1_554
O6 Tm3 2.334798 1_556
O6 Sm1 2.351128 1_555
O6 Sm3 2.370210 1_556
O6 Tm2 2.436006 1_566
O7 Tm2 2.164058 1_565
O7 Tm0 2.214247 1_665
O7 Sm1 2.327661 1_555
O7 Sm3 2.525525 1_555
O8 Tm3 2.229882 1_555
O8 Tm1 2.249304 1_555
O8 Sm1 2.289566 1_555
O8 Sm3 2.596926 1_555
O8 Sm2 2.913557 1_555
O9 Tm2 2.167204 1_556
O9 Tm0 2.270143 1_655
O9 Sm0 2.390409 1_655
O9 Sm2 2.509849 1_555
O10 Tm1 2.260890 1_555
O10 Tm3 2.271744 1_556
O10 Sm0 2.389229 1_655
O10 Sm3 2.537412 1_556
O10 Sm2 2.658537 1_555
O11 Tm0 2.236513 1_655
O11 Sm0 2.299752 1_654
O11 Tm1 2.355624 1_555
O11 Sm2 2.447534 1_555
