# generated using pymatgen
data_CsLiCl2
_symmetry_space_group_name_H-M   'P 1'
_cell_length_a   7.25124240
_cell_length_b   7.72774437
_cell_length_c   9.76284636
_cell_angle_alpha   86.58212571
_cell_angle_beta   82.69962735
_cell_angle_gamma   62.01960647
_symmetry_Int_Tables_number   1
_chemical_formula_structural   CsLiCl2
_chemical_formula_sum   'Cs4 Li4 Cl8'
_cell_volume   479.20422040
_cell_formula_units_Z   4
loop_
 _symmetry_equiv_pos_site_id
 _symmetry_equiv_pos_as_xyz
  1  'x, y, z'
loop_
 _atom_site_type_symbol
 _atom_site_label
 _atom_site_symmetry_multiplicity
 _atom_site_fract_x
 _atom_site_fract_y
 _atom_site_fract_z
 _atom_site_occupancy
  Cs  Cs0  1  0.82000692  0.80787503  0.06382597  1
  Cs  Cs1  1  0.37211905  0.80787503  0.43617403  1
  Cs  Cs2  1  0.17999308  0.19212497  0.93617403  1
  Cs  Cs3  1  0.62788095  0.19212497  0.56382597  1
  Li  Li0  1  0.06081932  0.39570831  0.36539686  1
  Li  Li1  1  0.54347336  0.39570831  0.13460314  1
  Li  Li2  1  0.93918068  0.60429169  0.63460314  1
  Li  Li3  1  0.45652664  0.60429169  0.86539686  1
  Cl  Cl0  1  0.60493874  0.79012352  0.75000000  1
  Cl  Cl1  1  0.39506126  0.20987648  0.25000000  1
  Cl  Cl2  1  0.93215995  0.73187595  0.40974689  1
  Cl  Cl3  1  0.33596310  0.73187595  0.09025311  1
  Cl  Cl4  1  0.06784005  0.26812405  0.59025311  1
  Cl  Cl5  1  0.66403690  0.26812405  0.90974689  1
  Cl  Cl6  1  0.81350432  0.37299235  0.25000000  1
  Cl  Cl7  1  0.18649568  0.62700765  0.75000000  1
loop_
_geom_bond_atom_site_label_1
_geom_bond_atom_site_label_2
_geom_bond_distance
_geom_bond_site_symmetry_2
Cl0 Li2 2.332107 1_555
Cl0 Li3 2.332117 1_555
Cl0 Cs3 3.566074 1_565
Cl0 Cs2 3.566079 1_565
Cl0 Cs0 3.647348 1_556
Cl0 Cs1 3.647348 1_555
Cl1 Li0 2.332107 1_555
Cl1 Li1 2.332117 1_555
Cl1 Cs1 3.566074 1_545
Cl1 Cs0 3.566079 1_545
Cl1 Cs2 3.647348 1_554
Cl1 Cs3 3.647348 1_555
Cl2 Li2 2.348822 1_555
Cl2 Li0 2.358771 1_655
Cl2 Cs3 3.494544 1_565
Cl2 Cs0 3.524901 1_555
Cl2 Cs1 3.546060 1_655
Cl2 Cs1 3.796969 1_555
Cl3 Li3 2.348822 1_554
Cl3 Li1 2.358773 1_555
Cl3 Cs2 3.494544 1_564
Cl3 Cs1 3.524904 1_555
Cl3 Cs0 3.546046 1_455
Cl3 Cs0 3.796983 1_555
Cl4 Li0 2.348822 1_555
Cl4 Li2 2.358771 1_455
Cl4 Cs1 3.494544 1_545
Cl4 Cs2 3.524901 1_555
Cl4 Cs3 3.546060 1_455
Cl4 Cs3 3.796969 1_555
Cl5 Li1 2.348822 1_556
Cl5 Li3 2.358773 1_555
Cl5 Cs0 3.494544 1_546
Cl5 Cs3 3.524904 1_555
Cl5 Cs2 3.546046 1_655
Cl5 Cs2 3.796983 1_555
Cl6 Li0 2.312696 1_655
Cl6 Li1 2.312696 1_555
Cl6 Cs2 3.654988 1_654
Cl6 Cs3 3.654995 1_555
Cl6 Cs1 3.741455 1_555
Cl6 Cs0 3.741455 1_555
Cl7 Li2 2.312696 1_455
Cl7 Li3 2.312696 1_555
Cl7 Cs0 3.654988 1_456
Cl7 Cs1 3.654995 1_555
Cl7 Cs3 3.741455 1_555
Cl7 Cs2 3.741455 1_555
