# generated using pymatgen
data_Sr2Ca2Co3CuO12
_symmetry_space_group_name_H-M   'P 1'
_cell_length_a   7.71952900
_cell_length_b   7.67687100
_cell_length_c   7.68443577
_cell_angle_alpha   89.75584242
_cell_angle_beta   90.00000000
_cell_angle_gamma   90.00000000
_symmetry_Int_Tables_number   1
_chemical_formula_structural   Sr2Ca2Co3CuO12
_chemical_formula_sum   'Sr4 Ca4 Co6 Cu2 O24'
_cell_volume   455.38957859
_cell_formula_units_Z   2
loop_
 _symmetry_equiv_pos_site_id
 _symmetry_equiv_pos_as_xyz
  1  'x, y, z'
loop_
 _atom_site_type_symbol
 _atom_site_label
 _atom_site_symmetry_multiplicity
 _atom_site_fract_x
 _atom_site_fract_y
 _atom_site_fract_z
 _atom_site_occupancy
  Sr  Sr0  1  0.00000000  0.24953900  0.75080100  1
  Sr  Sr1  1  0.50000000  0.24946300  0.75052200  1
  Sr  Sr2  1  0.50000000  0.24962500  0.24962100  1
  Sr  Sr3  1  0.00000000  0.75079700  0.24899900  1
  Ca  Ca0  1  0.00000000  0.75145600  0.75146900  1
  Ca  Ca1  1  0.50000000  0.75128300  0.75218400  1
  Ca  Ca2  1  0.00000000  0.24894700  0.24850700  1
  Ca  Ca3  1  0.50000000  0.75142800  0.24766800  1
  Co  Co0  1  0.24994000  0.50228600  0.00005500  1
  Co  Co1  1  0.75006000  0.50228600  0.00005500  1
  Co  Co2  1  0.25000100  0.99844300  0.49987500  1
  Co  Co3  1  0.74999900  0.99844300  0.49987500  1
  Co  Co4  1  0.24986700  0.50150800  0.49992000  1
  Co  Co5  1  0.75013300  0.50150800  0.49992000  1
  Cu  Cu0  1  0.25000100  0.00009900  0.00004800  1
  Cu  Cu1  1  0.74999900  0.00009900  0.00004800  1
  O  O0  1  0.24989200  0.99219500  0.74414600  1
  O  O1  1  0.75010800  0.99219500  0.74414600  1
  O  O2  1  0.25017200  0.50695800  0.74730800  1
  O  O3  1  0.74982800  0.50695800  0.74730800  1
  O  O4  1  0.25024500  0.99847600  0.25588700  1
  O  O5  1  0.74975500  0.99847600  0.25588700  1
  O  O6  1  0.25028300  0.50260100  0.25283000  1
  O  O7  1  0.74971700  0.50260100  0.25283000  1
  O  O8  1  0.24686500  0.25677900  0.00342300  1
  O  O9  1  0.75313500  0.25677900  0.00342300  1
  O  O10  1  0.25257600  0.74489800  0.99705400  1
  O  O11  1  0.74742400  0.74489800  0.99705400  1
  O  O12  1  0.24755400  0.25274000  0.49749700  1
  O  O13  1  0.75244600  0.25274000  0.49749700  1
  O  O14  1  0.25203400  0.74713300  0.50207000  1
  O  O15  1  0.74796600  0.74713300  0.50207000  1
  O  O16  1  0.00000000  0.99731300  0.99963000  1
  O  O17  1  0.50000000  0.98686000  0.00033000  1
  O  O18  1  0.00000000  0.50298700  0.99957200  1
  O  O19  1  0.50000000  0.50634100  0.99999500  1
  O  O20  1  0.00000000  0.99777100  0.50024500  1
  O  O21  1  0.50000000  0.99045800  0.50001500  1
  O  O22  1  0.00000000  0.50293200  0.50042400  1
  O  O23  1  0.50000000  0.50456800  0.49979200  1
loop_
_geom_bond_atom_site_label_1
_geom_bond_atom_site_label_2
_geom_bond_distance
_geom_bond_site_symmetry_2
Ca0 O0 2.671903 1_555
Ca0 O1 2.671903 1_455
Ca0 O16 2.688785 1_555
Ca0 O18 2.691150 1_555
Ca0 O3 2.693354 1_455
Ca0 O2 2.693354 1_555
Ca0 O20 2.696551 1_555
Ca0 O10 2.713812 1_555
Ca0 O11 2.713812 1_455
Ca0 O22 2.719003 1_555
Ca0 O14 2.731277 1_555
Ca0 O15 2.731277 1_455
Ca1 O17 2.633660 1_556
Ca1 O21 2.663827 1_555
Ca1 O19 2.670516 1_555
Ca1 O1 2.674130 1_555
Ca1 O0 2.674130 1_555
Ca1 O10 2.681502 1_555
Ca1 O11 2.681502 1_555
Ca1 O2 2.690612 1_555
Ca1 O3 2.690612 1_555
Ca1 O14 2.712868 1_555
Ca1 O15 2.712868 1_555
Ca1 O23 2.716645 1_555
Ca2 O8 2.679778 1_555
Ca2 O9 2.679778 1_455
Ca2 O12 2.704467 1_555
Ca2 O13 2.704467 1_455
Ca2 O16 2.724109 1_544
Ca2 O20 2.725526 1_545
Ca2 O18 2.725966 1_554
Ca2 O4 2.726046 1_545
Ca2 O5 2.726046 1_445
Ca2 O6 2.743427 1_555
Ca2 O7 2.743427 1_455
Ca2 O22 2.753435 1_555
Ca3 O17 2.617218 1_555
Ca3 O21 2.675414 1_555
Ca3 O19 2.681947 1_554
Ca3 O23 2.704403 1_555
Ca3 O5 2.705380 1_555
Ca3 O4 2.705380 1_555
Ca3 O11 2.712975 1_554
Ca3 O10 2.712975 1_554
Ca3 O7 2.714012 1_555
Ca3 O6 2.714012 1_555
Ca3 O15 2.736129 1_555
Ca3 O14 2.736129 1_555
Co0 O10 1.862657 1_554
Co0 O8 1.884942 1_555
Co0 O18 1.929430 1_554
Co0 O19 1.930596 1_554
Co0 O2 1.942397 1_554
Co0 O6 1.942447 1_555
Co1 O11 1.862657 1_554
Co1 O9 1.884942 1_555
Co1 O18 1.929430 1_654
Co1 O19 1.930596 1_554
Co1 O3 1.942397 1_554
Co1 O7 1.942447 1_555
Co2 O4 1.874910 1_555
Co2 O0 1.877493 1_555
Co2 O14 1.929340 1_555
Co2 O20 1.929899 1_555
Co2 O21 1.930848 1_555
Co2 O12 1.952304 1_565
Co3 O5 1.874910 1_555
Co3 O1 1.877493 1_555
Co3 O15 1.929340 1_555
Co3 O20 1.929899 1_655
Co3 O21 1.930848 1_555
Co3 O13 1.952304 1_565
Co4 O14 1.885848 1_555
Co4 O6 1.898733 1_555
Co4 O2 1.901677 1_555
Co4 O12 1.910013 1_555
Co4 O22 1.928891 1_555
Co4 O23 1.931052 1_555
Co5 O15 1.885848 1_555
Co5 O7 1.898733 1_555
Co5 O3 1.901677 1_555
Co5 O13 1.910013 1_555
Co5 O22 1.928891 1_655
Co5 O23 1.931052 1_555
Cu0 O16 1.930011 1_544
Cu0 O17 1.932550 1_545
Cu0 O10 1.959479 1_544
Cu0 O4 1.965966 1_545
Cu0 O0 1.967657 1_544
Cu0 O8 1.970929 1_555
Cu1 O16 1.930011 1_644
Cu1 O17 1.932550 1_545
Cu1 O11 1.959479 1_544
Cu1 O5 1.965966 1_545
Cu1 O1 1.967657 1_544
Cu1 O9 1.970929 1_555
O0 Sr0 2.761827 1_565
O0 Sr1 2.762529 1_565
O1 Sr0 2.761827 1_665
O1 Sr1 2.762529 1_565
O2 Sr1 2.761717 1_555
O2 Sr0 2.763168 1_555
O3 Sr1 2.761717 1_555
O3 Sr0 2.763168 1_655
O4 Sr3 2.711223 1_555
O4 Sr2 2.726905 1_565
O5 Sr3 2.711223 1_655
O5 Sr2 2.726905 1_565
O6 Sr3 2.713614 1_555
O6 Sr2 2.736539 1_555
O7 Sr3 2.713614 1_655
O7 Sr2 2.736539 1_555
O8 Sr2 2.720263 1_555
O8 Sr0 2.721050 1_554
O8 Sr1 2.756689 1_554
O9 Sr2 2.720263 1_555
O9 Sr0 2.721050 1_654
O9 Sr1 2.756689 1_554
O10 Sr3 2.748218 1_556
O11 Sr3 2.748218 1_656
O12 Sr2 2.725226 1_555
O12 Sr0 2.727815 1_555
O12 Sr1 2.752892 1_555
O13 Sr2 2.725226 1_555
O13 Sr0 2.727815 1_655
O13 Sr1 2.752892 1_555
O14 Sr3 2.750911 1_555
O15 Sr3 2.750911 1_655
O16 Sr3 2.687488 1_556
O16 Sr0 2.715492 1_565
O17 Sr1 2.777795 1_564
O17 Sr2 2.787802 1_565
O18 Sr3 2.706286 1_556
O18 Sr0 2.733471 1_555
O19 Sr2 2.744333 1_556
O19 Sr1 2.756120 1_555
O20 Sr3 2.711735 1_555
O20 Sr0 2.733951 1_565
O21 Sr2 2.761911 1_565
O21 Sr1 2.773408 1_565
O22 Sr3 2.705970 1_555
O22 Sr0 2.730194 1_555
O23 Sr1 2.741432 1_555
O23 Sr2 2.749231 1_555
