# generated using pymatgen
data_BaTb2DyO6
_symmetry_space_group_name_H-M   'P 1'
_cell_length_a   8.58641804
_cell_length_b   8.58641804
_cell_length_c   8.83852239
_cell_angle_alpha   90.00000000
_cell_angle_beta   90.00000000
_cell_angle_gamma   90.00000000
_symmetry_Int_Tables_number   1
_chemical_formula_structural   BaTb2DyO6
_chemical_formula_sum   'Ba4 Tb8 Dy4 O24'
_cell_volume   651.63398173
_cell_formula_units_Z   4
loop_
 _symmetry_equiv_pos_site_id
 _symmetry_equiv_pos_as_xyz
  1  'x, y, z'
loop_
 _atom_site_type_symbol
 _atom_site_label
 _atom_site_symmetry_multiplicity
 _atom_site_fract_x
 _atom_site_fract_y
 _atom_site_fract_z
 _atom_site_occupancy
  Ba  Ba0  1  0.50000000  0.00000000  0.50000000  1
  Ba  Ba1  1  -0.00000000  0.50000000  0.00000000  1
  Ba  Ba2  1  0.50000000  0.50000000  0.00000000  1
  Ba  Ba3  1  0.50000000  0.50000000  0.50000000  1
  Tb  Tb0  1  0.75622317  0.75622317  0.75000000  1
  Tb  Tb1  1  0.24377683  0.75622317  0.75000000  1
  Tb  Tb2  1  0.75622317  0.75622317  0.25000000  1
  Tb  Tb3  1  0.24377683  0.75622317  0.25000000  1
  Tb  Tb4  1  0.75622317  0.24377683  0.75000000  1
  Tb  Tb5  1  0.24377683  0.24377683  0.75000000  1
  Tb  Tb6  1  0.75622317  0.24377683  0.25000000  1
  Tb  Tb7  1  0.24377683  0.24377683  0.25000000  1
  Dy  Dy0  1  -0.00000000  0.00000000  0.00000000  1
  Dy  Dy1  1  0.50000000  0.00000000  0.00000000  1
  Dy  Dy2  1  -0.00000000  0.00000000  0.50000000  1
  Dy  Dy3  1  -0.00000000  0.50000000  0.50000000  1
  O  O0  1  -0.00000000  0.79381985  0.83820997  1
  O  O1  1  0.50000000  0.76427006  0.71002298  1
  O  O2  1  -0.00000000  0.79381985  0.16179003  1
  O  O3  1  0.50000000  0.76427006  0.28997702  1
  O  O4  1  -0.00000000  0.20618015  0.83820997  1
  O  O5  1  0.50000000  0.23572994  0.71002298  1
  O  O6  1  -0.00000000  0.20618015  0.16179003  1
  O  O7  1  0.50000000  0.23572994  0.28997702  1
  O  O8  1  0.79381985  0.00000000  0.66179003  1
  O  O9  1  0.20618015  0.00000000  0.66179003  1
  O  O10  1  0.79381985  0.00000000  0.33820997  1
  O  O11  1  0.20618015  0.00000000  0.33820997  1
  O  O12  1  0.76427006  0.50000000  0.78997702  1
  O  O13  1  0.23572994  0.50000000  0.78997702  1
  O  O14  1  0.76427006  0.50000000  0.21002298  1
  O  O15  1  0.23572994  0.50000000  0.21002298  1
  O  O16  1  0.69552253  0.82549037  0.00000000  1
  O  O17  1  0.30447747  0.82549037  0.00000000  1
  O  O18  1  0.82549037  0.69552253  0.50000000  1
  O  O19  1  0.17450963  0.69552253  0.50000000  1
  O  O20  1  0.69552253  0.17450963  0.00000000  1
  O  O21  1  0.30447747  0.17450963  0.00000000  1
  O  O22  1  0.82549037  0.30447747  0.50000000  1
  O  O23  1  0.17450963  0.30447747  0.50000000  1
loop_
_geom_bond_atom_site_label_1
_geom_bond_atom_site_label_2
_geom_bond_distance
_geom_bond_site_symmetry_2
Ba0 O5 2.746399 1_555
Ba0 O7 2.746399 1_555
Ba0 O3 2.746399 1_545
Ba0 O1 2.746399 1_545
Ba0 O11 2.899945 1_555
Ba0 O10 2.899945 1_555
Ba0 O9 2.899945 1_555
Ba0 O8 2.899945 1_555
Ba1 O15 2.746399 1_555
Ba1 O13 2.746399 1_554
Ba1 O14 2.746399 1_455
Ba1 O12 2.746399 1_454
Ba1 O0 2.899945 1_554
Ba1 O2 2.899945 1_555
Ba1 O4 2.899945 1_554
Ba1 O6 2.899945 1_555
Ba2 O12 2.931687 1_554
Ba2 O13 2.931687 1_554
Ba2 O14 2.931687 1_555
Ba2 O15 2.931687 1_555
Ba2 O16 3.260274 1_555
Ba2 O20 3.260274 1_555
Ba2 O17 3.260274 1_555
Ba2 O21 3.260274 1_555
Ba2 O7 3.423123 1_555
Ba2 O1 3.423123 1_554
Ba2 O3 3.423123 1_555
Ba2 O5 3.423123 1_554
Ba3 O1 2.931687 1_555
Ba3 O5 2.931687 1_555
Ba3 O7 2.931687 1_555
Ba3 O3 2.931687 1_555
Ba3 O22 3.260274 1_555
Ba3 O19 3.260274 1_555
Ba3 O23 3.260274 1_555
Ba3 O18 3.260274 1_555
Ba3 O13 3.423123 1_555
Ba3 O12 3.423123 1_555
Ba3 O14 3.423123 1_555
Ba3 O15 3.423123 1_555
Dy0 O2 2.275740 1_545
Dy0 O6 2.275740 1_555
Dy0 O0 2.275740 1_544
Dy0 O4 2.275740 1_554
Dy1 O16 2.250275 1_545
Dy1 O17 2.250275 1_545
Dy1 O20 2.250275 1_555
Dy1 O21 2.250275 1_555
Dy2 O10 2.275740 1_455
Dy2 O11 2.275740 1_555
Dy2 O9 2.275740 1_555
Dy2 O8 2.275740 1_455
Dy3 O22 2.250275 1_455
Dy3 O19 2.250275 1_555
Dy3 O18 2.250275 1_455
Dy3 O23 2.250275 1_555
O0 Tb0 2.256861 1_455
O0 Tb1 2.256861 1_555
O1 Tb1 2.229304 1_555
O1 Tb0 2.229304 1_555
O2 Tb2 2.256861 1_455
O2 Tb3 2.256861 1_555
O3 Tb3 2.229304 1_555
O3 Tb2 2.229304 1_555
O4 Tb4 2.256861 1_455
O4 Tb5 2.256861 1_555
O5 Tb5 2.229304 1_555
O5 Tb4 2.229304 1_555
O6 Tb6 2.256861 1_455
O6 Tb7 2.256861 1_555
O7 Tb7 2.229304 1_555
O7 Tb6 2.229304 1_555
O8 Tb0 2.256861 1_545
O8 Tb4 2.256861 1_555
O9 Tb1 2.256861 1_545
O9 Tb5 2.256861 1_555
O10 Tb2 2.256861 1_545
O10 Tb6 2.256861 1_555
O11 Tb3 2.256861 1_545
O11 Tb7 2.256861 1_555
O12 Tb4 2.229304 1_555
O12 Tb0 2.229304 1_555
O13 Tb5 2.229304 1_555
O13 Tb1 2.229304 1_555
O14 Tb6 2.229304 1_555
O14 Tb2 2.229304 1_555
O15 Tb7 2.229304 1_555
O15 Tb3 2.229304 1_555
O16 Tb2 2.346882 1_555
O16 Tb0 2.346882 1_554
O17 Tb1 2.346882 1_554
O17 Tb3 2.346882 1_555
O18 Tb2 2.346882 1_555
O18 Tb0 2.346882 1_555
O19 Tb3 2.346882 1_555
O19 Tb1 2.346882 1_555
O20 Tb6 2.346882 1_555
O20 Tb4 2.346882 1_554
O21 Tb7 2.346882 1_555
O21 Tb5 2.346882 1_554
O22 Tb4 2.346882 1_555
O22 Tb6 2.346882 1_555
O23 Tb5 2.346882 1_555
O23 Tb7 2.346882 1_555
