# generated using pymatgen
data_DyMgS3
_symmetry_space_group_name_H-M   'P 1'
_cell_length_a   6.67677000
_cell_length_b   6.67677049
_cell_length_c   18.13022700
_cell_angle_alpha   90.00000000
_cell_angle_beta   90.00000000
_cell_angle_gamma   119.99999758
_symmetry_Int_Tables_number   1
_chemical_formula_structural   DyMgS3
_chemical_formula_sum   'Dy6 Mg6 S18'
_cell_volume   699.94956481
_cell_formula_units_Z   6
loop_
 _symmetry_equiv_pos_site_id
 _symmetry_equiv_pos_as_xyz
  1  'x, y, z'
loop_
 _atom_site_type_symbol
 _atom_site_label
 _atom_site_symmetry_multiplicity
 _atom_site_fract_x
 _atom_site_fract_y
 _atom_site_fract_z
 _atom_site_occupancy
  Dy  Dy0  1  0.00000000  0.00000000  0.34615700  1
  Dy  Dy1  1  0.00000000  0.00000000  0.65384300  1
  Dy  Dy2  1  0.66666700  0.33333300  0.67949000  1
  Dy  Dy3  1  0.66666700  0.33333300  0.98717600  1
  Dy  Dy4  1  0.33333300  0.66666700  0.01282400  1
  Dy  Dy5  1  0.33333300  0.66666700  0.32051000  1
  Mg  Mg0  1  0.00000000  0.00000000  0.15422800  1
  Mg  Mg1  1  0.00000000  0.00000000  0.84577200  1
  Mg  Mg2  1  0.66666700  0.33333300  0.48756100  1
  Mg  Mg3  1  0.66666700  0.33333300  0.17910500  1
  Mg  Mg4  1  0.33333300  0.66666700  0.82089500  1
  Mg  Mg5  1  0.33333300  0.66666700  0.51243900  1
  S  S0  1  0.98155400  0.34314500  0.58026800  1
  S  S1  1  0.01844600  0.65685500  0.41973200  1
  S  S2  1  0.65685500  0.63840800  0.58026800  1
  S  S3  1  0.34314500  0.36159200  0.41973200  1
  S  S4  1  0.36159200  0.01844600  0.58026800  1
  S  S5  1  0.63840800  0.98155400  0.41973200  1
  S  S6  1  0.64822100  0.67647800  0.91360100  1
  S  S7  1  0.68511300  0.99018800  0.75306500  1
  S  S8  1  0.32352200  0.97174100  0.91360100  1
  S  S9  1  0.00981200  0.69492500  0.75306500  1
  S  S10  1  0.02825900  0.35177900  0.91360100  1
  S  S11  1  0.30507500  0.31488700  0.75306500  1
  S  S12  1  0.31488700  0.00981200  0.24693500  1
  S  S13  1  0.35177900  0.32352200  0.08639900  1
  S  S14  1  0.99018800  0.30507500  0.24693500  1
  S  S15  1  0.67647800  0.02825900  0.08639900  1
  S  S16  1  0.69492500  0.68511300  0.24693500  1
  S  S17  1  0.97174100  0.64822100  0.08639900  1
loop_
_geom_bond_atom_site_label_1
_geom_bond_atom_site_label_2
_geom_bond_distance
_geom_bond_site_symmetry_2
Dy0 S1 2.706631 1_545
Dy0 S3 2.706635 1_555
Dy0 S5 2.706637 1_445
Dy0 S12 2.742784 1_555
Dy0 S14 2.742784 1_455
Dy0 S16 2.742784 1_445
Dy1 S0 2.706631 1_455
Dy1 S2 2.706635 1_445
Dy1 S4 2.706637 1_555
Dy1 S7 2.742784 1_445
Dy1 S9 2.742784 1_545
Dy1 S11 2.742784 1_555
Dy2 S7 2.706631 1_545
Dy2 S9 2.706635 1_655
Dy2 S11 2.706637 1_555
Dy2 S0 2.742784 1_555
Dy2 S2 2.742784 1_555
Dy2 S4 2.742784 1_555
Dy3 S6 2.706631 1_555
Dy3 S8 2.706635 1_545
Dy3 S10 2.706637 1_655
Dy3 S15 2.742788 1_556
Dy3 S17 2.742796 1_556
Dy3 S13 2.742803 1_556
Dy4 S13 2.706631 1_555
Dy4 S15 2.706635 1_565
Dy4 S17 2.706637 1_455
Dy4 S8 2.742788 1_554
Dy4 S10 2.742796 1_554
Dy4 S6 2.742803 1_554
Dy5 S12 2.706631 1_565
Dy5 S14 2.706635 1_455
Dy5 S16 2.706637 1_555
Dy5 S1 2.742784 1_555
Dy5 S3 2.742784 1_555
Dy5 S5 2.742784 1_555
Mg0 S17 2.573199 1_445
Mg0 S13 2.573204 1_555
Mg0 S15 2.573211 1_455
Mg0 S12 2.666804 1_555
Mg0 S14 2.666804 1_455
Mg0 S16 2.666804 1_445
Mg1 S10 2.573199 1_555
Mg1 S6 2.573204 1_445
Mg1 S8 2.573211 1_545
Mg1 S7 2.666804 1_445
Mg1 S9 2.666804 1_545
Mg1 S11 2.666804 1_555
Mg2 S5 2.573199 1_545
Mg2 S1 2.573204 1_655
Mg2 S3 2.573211 1_555
Mg2 S0 2.666804 1_555
Mg2 S2 2.666804 1_555
Mg2 S4 2.666804 1_555
Mg3 S14 2.573210 1_555
Mg3 S12 2.573214 1_555
Mg3 S16 2.573216 1_555
Mg3 S15 2.666785 1_555
Mg3 S17 2.666793 1_555
Mg3 S13 2.666801 1_555
Mg4 S9 2.573210 1_555
Mg4 S7 2.573214 1_555
Mg4 S11 2.573216 1_555
Mg4 S8 2.666785 1_555
Mg4 S10 2.666793 1_555
Mg4 S6 2.666801 1_555
Mg5 S4 2.573199 1_565
Mg5 S0 2.573204 1_455
Mg5 S2 2.573211 1_555
Mg5 S1 2.666804 1_555
Mg5 S3 2.666804 1_555
Mg5 S5 2.666804 1_555
