# generated using pymatgen
data_Hg3S2O11
_symmetry_space_group_name_H-M   'P 1'
_cell_length_a   5.91961709
_cell_length_b   5.91961709
_cell_length_c   14.49001235
_cell_angle_alpha   80.12476354
_cell_angle_beta   80.12476354
_cell_angle_gamma   97.28825546
_symmetry_Int_Tables_number   1
_chemical_formula_structural   Hg3S2O11
_chemical_formula_sum   'Hg6 S4 O22'
_cell_volume   486.39221701
_cell_formula_units_Z   2
loop_
 _symmetry_equiv_pos_site_id
 _symmetry_equiv_pos_as_xyz
  1  'x, y, z'
loop_
 _atom_site_type_symbol
 _atom_site_label
 _atom_site_symmetry_multiplicity
 _atom_site_fract_x
 _atom_site_fract_y
 _atom_site_fract_z
 _atom_site_occupancy
  Hg  Hg0  1  0.00000000  0.00000000  0.50000000  1
  Hg  Hg1  1  0.00000000  0.00000000  0.00000000  1
  Hg  Hg2  1  0.42648100  0.81477200  0.34884200  1
  Hg  Hg3  1  0.18522800  0.57351900  0.15115800  1
  Hg  Hg4  1  0.57351900  0.18522800  0.65115800  1
  Hg  Hg5  1  0.81477200  0.42648100  0.84884200  1
  S  S0  1  0.80184100  0.48682300  0.39655800  1
  S  S1  1  0.51317700  0.19815900  0.10344200  1
  S  S2  1  0.19815900  0.51317700  0.60344200  1
  S  S3  1  0.48682300  0.80184100  0.89655800  1
  O  O0  1  0.43215200  0.35610700  0.17212100  1
  O  O1  1  0.64389300  0.56784800  0.32787900  1
  O  O2  1  0.56784800  0.64389300  0.82787900  1
  O  O3  1  0.35610700  0.43215200  0.67212100  1
  O  O4  1  0.47787400  0.95983400  0.16015500  1
  O  O5  1  0.04016600  0.52212600  0.33984500  1
  O  O6  1  0.52212600  0.04016600  0.83984500  1
  O  O7  1  0.95983400  0.47787400  0.66015500  1
  O  O8  1  0.71609100  0.23144300  0.43288000  1
  O  O9  1  0.76855700  0.28390900  0.06712000  1
  O  O10  1  0.28390900  0.76855700  0.56712000  1
  O  O11  1  0.23144300  0.71609100  0.93288000  1
  O  O12  1  0.77909800  0.61196900  0.47614500  1
  O  O13  1  0.38803100  0.22090200  0.02385500  1
  O  O14  1  0.22090200  0.38803100  0.52385500  1
  O  O15  1  0.61196900  0.77909800  0.97614500  1
  O  O16  1  0.19471400  0.04352800  0.35987800  1
  O  O17  1  0.95647200  0.80528600  0.14012200  1
  O  O18  1  0.80528600  0.95647200  0.64012200  1
  O  O19  1  0.04352800  0.19471400  0.85987800  1
  O  O20  1  0.97624300  0.02375700  0.25000000  1
  O  O21  1  0.02375700  0.97624300  0.75000000  1
loop_
_geom_bond_atom_site_label_1
_geom_bond_atom_site_label_2
_geom_bond_distance
_geom_bond_site_symmetry_2
Hg0 O18 2.111829 1_445
Hg0 O16 2.111829 1_555
Hg0 O10 2.516999 1_545
Hg0 O8 2.516999 1_455
Hg0 O14 2.602097 1_555
Hg0 O12 2.602097 1_445
Hg1 O19 2.111829 1_554
Hg1 O17 2.111829 1_445
Hg1 O11 2.516999 1_544
Hg1 O9 2.516999 1_455
Hg1 O13 2.602097 1_555
Hg1 O15 2.602097 1_444
Hg2 O16 2.052315 1_565
Hg2 O1 2.093008 1_555
Hg3 O17 2.052315 1_455
Hg3 O0 2.093008 1_555
Hg4 O18 2.052315 1_545
Hg4 O3 2.093008 1_555
Hg5 O19 2.052315 1_655
Hg5 O2 2.093008 1_555
O0 S1 1.537472 1_555
O1 S0 1.537472 1_555
O2 S3 1.537472 1_555
O3 S2 1.537472 1_555
O4 S1 1.475786 1_565
O5 S0 1.475786 1_455
O6 S3 1.475786 1_545
O7 S2 1.475786 1_655
O8 S0 1.503598 1_555
O9 S1 1.503598 1_555
O10 S2 1.503598 1_555
O11 S3 1.503598 1_555
O12 S0 1.470351 1_555
O13 S1 1.470351 1_555
O14 S2 1.470351 1_555
O15 S3 1.470351 1_555
