# generated using pymatgen
data_YbMg149
_symmetry_space_group_name_H-M   'P 1'
_cell_length_a   15.99893565
_cell_length_b   15.99894031
_cell_length_c   15.66408639
_cell_angle_alpha   90.00000000
_cell_angle_beta   90.00000000
_cell_angle_gamma   120.00000965
_symmetry_Int_Tables_number   1
_chemical_formula_structural   YbMg149
_chemical_formula_sum   'Yb1 Mg149'
_cell_volume   3472.30582500
_cell_formula_units_Z   1
loop_
 _symmetry_equiv_pos_site_id
 _symmetry_equiv_pos_as_xyz
  1  'x, y, z'
loop_
 _atom_site_type_symbol
 _atom_site_label
 _atom_site_symmetry_multiplicity
 _atom_site_fract_x
 _atom_site_fract_y
 _atom_site_fract_z
 _atom_site_occupancy
  Yb  Yb0  1  -0.00000000  -0.00000000  0.00000000  1
  Mg  Mg0  1  0.60018060  0.20036220  0.00000000  1
  Mg  Mg1  1  0.40102348  0.20051124  0.00000000  1
  Mg  Mg2  1  0.79948876  0.20051224  0.00000000  1
  Mg  Mg3  1  0.00251697  0.20637614  0.00000000  1
  Mg  Mg4  1  0.20385916  0.20637614  0.00000000  1
  Mg  Mg5  1  0.60018060  0.39981840  0.00000000  1
  Mg  Mg6  1  0.79963780  0.39981840  0.00000000  1
  Mg  Mg7  1  0.00030704  0.40123786  0.00000000  1
  Mg  Mg8  1  0.40093082  0.40123786  0.00000000  1
  Mg  Mg9  1  0.20162160  0.40324219  0.00000000  1
  Mg  Mg10  1  0.79948876  0.59897652  0.00000000  1
  Mg  Mg11  1  0.00030704  0.59906818  0.00000000  1
  Mg  Mg12  1  0.59876114  0.59906818  0.00000000  1
  Mg  Mg13  1  0.39965764  0.60034136  0.00000000  1
  Mg  Mg14  1  0.20068371  0.60034136  0.00000000  1
  Mg  Mg15  1  0.00251697  0.79614084  0.00000000  1
  Mg  Mg16  1  0.79362386  0.79614084  0.00000000  1
  Mg  Mg17  1  0.59675881  0.79837940  0.00000000  1
  Mg  Mg18  1  0.20162160  0.79837940  0.00000000  1
  Mg  Mg19  1  0.39965764  0.79931629  0.00000000  1
  Mg  Mg20  1  0.20385916  0.99748403  0.00000000  1
  Mg  Mg21  1  0.79362386  0.99748403  0.00000000  1
  Mg  Mg22  1  0.40093082  0.99969296  0.00000000  1
  Mg  Mg23  1  0.59876114  0.99969296  0.00000000  1
  Mg  Mg24  1  0.26393083  0.13196541  0.16503597  1
  Mg  Mg25  1  0.86803459  0.13196541  0.16503597  1
  Mg  Mg26  1  0.86803459  0.73606917  0.16503597  1
  Mg  Mg27  1  0.66666700  0.33333300  0.16620097  1
  Mg  Mg28  1  0.46577835  0.13303283  0.16654286  1
  Mg  Mg29  1  0.66725449  0.13303283  0.16654286  1
  Mg  Mg30  1  0.86696717  0.33274551  0.16654286  1
  Mg  Mg31  1  0.46577835  0.33274551  0.16654286  1
  Mg  Mg32  1  0.66725449  0.53422165  0.16654286  1
  Mg  Mg33  1  0.86696717  0.53422165  0.16654286  1
  Mg  Mg34  1  0.46662511  0.53337389  0.16738977  1
  Mg  Mg35  1  0.06674978  0.53337489  0.16738977  1
  Mg  Mg36  1  0.46662511  0.93325022  0.16738977  1
  Mg  Mg37  1  0.26703926  0.53407953  0.16731508  1
  Mg  Mg38  1  0.26703926  0.73295974  0.16731508  1
  Mg  Mg39  1  0.46592047  0.73295974  0.16731508  1
  Mg  Mg40  1  0.26767001  0.33545475  0.16771699  1
  Mg  Mg41  1  0.06778574  0.33545575  0.16771699  1
  Mg  Mg42  1  0.06778574  0.73232999  0.16771699  1
  Mg  Mg43  1  0.66454525  0.73232999  0.16771699  1
  Mg  Mg44  1  0.26767001  0.93221426  0.16771699  1
  Mg  Mg45  1  0.66454525  0.93221426  0.16771699  1
  Mg  Mg46  1  0.06837507  0.13675114  0.17079600  1
  Mg  Mg47  1  0.86324986  0.93162493  0.17079600  1
  Mg  Mg48  1  0.06837507  0.93162493  0.17079600  1
  Mg  Mg49  1  0.80007367  0.19992633  0.33280045  1
  Mg  Mg50  1  0.39985166  0.19992633  0.33280045  1
  Mg  Mg51  1  0.80007367  0.60014734  0.33280045  1
  Mg  Mg52  1  0.60005677  0.20011355  0.33297031  1
  Mg  Mg53  1  0.79988545  0.39994323  0.33297031  1
  Mg  Mg54  1  0.60005677  0.39994323  0.33297031  1
  Mg  Mg55  1  0.59965695  0.00022757  0.33382189  1
  Mg  Mg56  1  0.40057062  0.00022757  0.33382189  1
  Mg  Mg57  1  0.40057062  0.40034305  0.33382189  1
  Mg  Mg58  1  0.99977343  0.40034305  0.33382189  1
  Mg  Mg59  1  0.59965695  0.59942938  0.33382189  1
  Mg  Mg60  1  0.99977343  0.59943038  0.33382189  1
  Mg  Mg61  1  0.40008169  0.59991831  0.33376692  1
  Mg  Mg62  1  0.19983762  0.59991831  0.33376692  1
  Mg  Mg63  1  0.40008169  0.80016238  0.33376692  1
  Mg  Mg64  1  0.20018700  0.40037500  0.33397919  1
  Mg  Mg65  1  0.59962600  0.79981300  0.33397919  1
  Mg  Mg66  1  0.20018700  0.79981300  0.33397919  1
  Mg  Mg67  1  0.79926602  0.00016971  0.33407160  1
  Mg  Mg68  1  0.20090369  0.00016971  0.33407160  1
  Mg  Mg69  1  0.20090369  0.20073398  0.33407160  1
  Mg  Mg70  1  0.99983029  0.20073398  0.33407160  1
  Mg  Mg71  1  0.79926602  0.79909631  0.33407160  1
  Mg  Mg72  1  0.99983029  0.79909631  0.33407160  1
  Mg  Mg73  1  -0.00000000  -0.00000000  0.33414221  1
  Mg  Mg74  1  0.06676134  0.13352268  0.50000000  1
  Mg  Mg75  1  0.26722341  0.13361121  0.50000000  1
  Mg  Mg76  1  0.86638779  0.13361221  0.50000000  1
  Mg  Mg77  1  0.66702299  0.13397549  0.50000000  1
  Mg  Mg78  1  0.46695251  0.13397549  0.50000000  1
  Mg  Mg79  1  0.46695251  0.33297701  0.50000000  1
  Mg  Mg80  1  0.86602451  0.33297701  0.50000000  1
  Mg  Mg81  1  0.66666700  0.33333300  0.50000000  1
  Mg  Mg82  1  0.06696066  0.33376464  0.50000000  1
  Mg  Mg83  1  0.26680498  0.33376564  0.50000000  1
  Mg  Mg84  1  0.86602451  0.53304749  0.50000000  1
  Mg  Mg85  1  0.66702299  0.53304749  0.50000000  1
  Mg  Mg86  1  0.46675659  0.53324341  0.50000000  1
  Mg  Mg87  1  0.06648682  0.53324341  0.50000000  1
  Mg  Mg88  1  0.26681848  0.53363797  0.50000000  1
  Mg  Mg89  1  0.86638779  0.73277659  0.50000000  1
  Mg  Mg90  1  0.06696066  0.73319502  0.50000000  1
  Mg  Mg91  1  0.66623536  0.73319602  0.50000000  1
  Mg  Mg92  1  0.46636203  0.73318052  0.50000000  1
  Mg  Mg93  1  0.26681848  0.73318152  0.50000000  1
  Mg  Mg94  1  0.26680498  0.93303934  0.50000000  1
  Mg  Mg95  1  0.66623536  0.93304034  0.50000000  1
  Mg  Mg96  1  0.06676134  0.93323866  0.50000000  1
  Mg  Mg97  1  0.86647732  0.93323866  0.50000000  1
  Mg  Mg98  1  0.46675659  0.93351318  0.50000000  1
  Mg  Mg99  1  -0.00000000  -0.00000000  0.66585779  1
  Mg  Mg100  1  0.79926602  0.00016971  0.66592840  1
  Mg  Mg101  1  0.20090369  0.00016971  0.66592840  1
  Mg  Mg102  1  0.20090369  0.20073398  0.66592840  1
  Mg  Mg103  1  0.99983029  0.20073398  0.66592840  1
  Mg  Mg104  1  0.79926602  0.79909631  0.66592840  1
  Mg  Mg105  1  0.99983029  0.79909631  0.66592840  1
  Mg  Mg106  1  0.20018700  0.40037500  0.66602081  1
  Mg  Mg107  1  0.59962600  0.79981300  0.66602081  1
  Mg  Mg108  1  0.20018700  0.79981300  0.66602081  1
  Mg  Mg109  1  0.40008169  0.59991831  0.66623308  1
  Mg  Mg110  1  0.19983762  0.59991831  0.66623308  1
  Mg  Mg111  1  0.40008169  0.80016238  0.66623308  1
  Mg  Mg112  1  0.59965695  0.00022757  0.66617811  1
  Mg  Mg113  1  0.40057062  0.00022757  0.66617811  1
  Mg  Mg114  1  0.40057062  0.40034305  0.66617811  1
  Mg  Mg115  1  0.99977343  0.40034305  0.66617811  1
  Mg  Mg116  1  0.59965695  0.59942938  0.66617811  1
  Mg  Mg117  1  0.99977343  0.59943038  0.66617811  1
  Mg  Mg118  1  0.60005677  0.20011355  0.66702969  1
  Mg  Mg119  1  0.79988545  0.39994323  0.66702969  1
  Mg  Mg120  1  0.60005677  0.39994323  0.66702969  1
  Mg  Mg121  1  0.80007367  0.19992633  0.66719955  1
  Mg  Mg122  1  0.39985166  0.19992633  0.66719955  1
  Mg  Mg123  1  0.80007367  0.60014734  0.66719955  1
  Mg  Mg124  1  0.06837507  0.13675114  0.82920500  1
  Mg  Mg125  1  0.86324986  0.93162493  0.82920500  1
  Mg  Mg126  1  0.06837507  0.93162493  0.82920500  1
  Mg  Mg127  1  0.26767001  0.33545475  0.83228201  1
  Mg  Mg128  1  0.06778574  0.33545575  0.83228201  1
  Mg  Mg129  1  0.06778574  0.73232999  0.83228201  1
  Mg  Mg130  1  0.66454525  0.73232999  0.83228201  1
  Mg  Mg131  1  0.26767001  0.93221426  0.83228201  1
  Mg  Mg132  1  0.66454525  0.93221426  0.83228201  1
  Mg  Mg133  1  0.26703926  0.53407953  0.83268492  1
  Mg  Mg134  1  0.26703926  0.73295974  0.83268492  1
  Mg  Mg135  1  0.46592047  0.73295974  0.83268492  1
  Mg  Mg136  1  0.46662511  0.53337389  0.83260923  1
  Mg  Mg137  1  0.06674978  0.53337489  0.83260923  1
  Mg  Mg138  1  0.46662511  0.93325022  0.83260923  1
  Mg  Mg139  1  0.46577835  0.13303283  0.83345714  1
  Mg  Mg140  1  0.66725449  0.13303283  0.83345714  1
  Mg  Mg141  1  0.86696717  0.33274551  0.83345714  1
  Mg  Mg142  1  0.46577835  0.33274551  0.83345714  1
  Mg  Mg143  1  0.66725449  0.53422165  0.83345714  1
  Mg  Mg144  1  0.86696717  0.53422165  0.83345714  1
  Mg  Mg145  1  0.66666700  0.33333300  0.83379903  1
  Mg  Mg146  1  0.26393083  0.13196541  0.83496403  1
  Mg  Mg147  1  0.86803459  0.13196541  0.83496403  1
  Mg  Mg148  1  0.86803459  0.73606917  0.83496403  1
loop_
_geom_bond_atom_site_label_1
_geom_bond_atom_site_label_2
_geom_bond_distance
_geom_bond_site_symmetry_2
Mg0 Mg1 3.187495 1_555
Mg0 Mg2 3.187519 1_555
Mg0 Mg27 3.189352 1_555
Mg0 Mg145 3.189352 1_554
Mg0 Mg5 3.191088 1_555
Mg0 Mg6 3.191095 1_555
Mg0 Mg22 3.199200 1_545
Mg0 Mg23 3.199201 1_545
Mg0 Mg139 3.205208 1_554
Mg0 Mg28 3.205208 1_555
Mg0 Mg140 3.205216 1_554
Mg0 Mg29 3.205216 1_555
Mg1 Mg5 3.187503 1_555
Mg1 Mg28 3.187916 1_555
Mg1 Mg139 3.187916 1_554
Mg1 Mg142 3.187924 1_554
Mg1 Mg31 3.187924 1_555
Mg1 Mg20 3.202350 1_545
Mg1 Mg4 3.202367 1_555
Mg1 Mg24 3.207956 1_555
Mg1 Mg146 3.207956 1_554
Mg1 Mg22 3.212139 1_545
Mg1 Mg8 3.212155 1_555
Mg2 Mg6 3.187496 1_555
Mg2 Mg30 3.187916 1_555
Mg2 Mg29 3.187923 1_555
Mg2 Mg21 3.202351 1_545
Mg2 Mg3 3.202358 1_655
Mg2 Mg25 3.207956 1_555
Mg2 Mg7 3.212138 1_655
Mg2 Mg23 3.212162 1_545
Mg3 Mg7 3.135409 1_555
Mg3 Mg9 3.167707 1_555
Mg3 Mg41 3.178138 1_555
Mg3 Mg4 3.221261 1_555
Mg3 Mg46 3.268379 1_555
Mg3 Yb0 3.281850 1_555
Mg4 Mg8 3.135408 1_555
Mg4 Mg9 3.167699 1_555
Mg4 Mg40 3.178130 1_555
Mg4 Mg46 3.268386 1_555
Mg4 Yb0 3.281849 1_555
Mg5 Mg6 3.191103 1_555
Mg5 Mg8 3.199200 1_555
Mg6 Mg7 3.199200 1_655
Mg7 Mg9 3.204905 1_555
Mg8 Mg9 3.204889 1_555
Mg10 Mg6 3.187512 1_555
Mg10 Mg5 3.187519 1_555
Mg10 Mg144 3.187916 1_554
Mg10 Mg33 3.187916 1_555
Mg10 Mg143 3.187923 1_554
Mg10 Mg32 3.187923 1_555
Mg10 Mg15 3.202358 1_655
Mg10 Mg16 3.202367 1_555
Mg10 Mg26 3.207956 1_555
Mg10 Mg148 3.207956 1_554
Mg10 Mg11 3.212146 1_655
Mg10 Mg12 3.212162 1_555
Mg11 Mg15 3.135425 1_555
Mg11 Mg7 3.165075 1_555
Mg11 Mg14 3.195677 1_555
Mg11 Mg144 3.196811 1_454
Mg11 Mg33 3.196811 1_455
Mg11 Mg35 3.197940 1_555
Mg11 Mg137 3.197953 1_554
Mg11 Mg6 3.199200 1_455
Mg11 Mg18 3.204913 1_555
Mg11 Mg42 3.211111 1_555
Mg11 Mg129 3.211124 1_554
Mg12 Mg16 3.135424 1_555
Mg12 Mg8 3.165075 1_555
Mg12 Mg13 3.195678 1_555
Mg12 Mg143 3.196811 1_554
Mg12 Mg32 3.196811 1_555
Mg12 Mg34 3.197940 1_555
Mg12 Mg136 3.197953 1_554
Mg12 Mg5 3.199201 1_555
Mg12 Mg17 3.204906 1_555
Mg12 Mg43 3.211111 1_555
Mg12 Mg130 3.211124 1_554
Mg13 Mg9 3.160898 1_555
Mg13 Mg17 3.160930 1_555
Mg13 Mg14 3.183371 1_555
Mg13 Mg19 3.183388 1_555
Mg13 Mg8 3.195678 1_555
Mg13 Mg133 3.200807 1_554
Mg13 Mg37 3.200807 1_555
Mg13 Mg135 3.200808 1_554
Mg13 Mg39 3.200808 1_555
Mg13 Mg34 3.212269 1_555
Mg13 Mg136 3.212282 1_554
Mg14 Mg9 3.160907 1_555
Mg14 Mg18 3.160923 1_555
Mg14 Mg19 3.183379 1_555
Mg14 Mg7 3.195677 1_555
Mg14 Mg37 3.200800 1_555
Mg14 Mg38 3.200808 1_555
Mg14 Mg35 3.212261 1_555
Mg15 Mg18 3.167707 1_555
Mg15 Mg42 3.178138 1_555
Mg15 Mg26 3.188738 1_455
Mg15 Mg20 3.221269 1_555
Mg15 Mg48 3.268386 1_555
Mg15 Yb0 3.281850 1_565
Mg15 Mg16 3.342067 1_455
Mg16 Mg17 3.167690 1_555
Mg16 Mg43 3.178129 1_555
Mg16 Mg26 3.188738 1_555
Mg16 Mg21 3.221278 1_555
Mg16 Mg47 3.268386 1_555
Mg16 Yb0 3.281849 1_665
Mg17 Mg19 3.160930 1_555
Mg17 Mg21 3.167699 1_555
Mg17 Mg39 3.186713 1_555
Mg17 Mg23 3.204906 1_555
Mg17 Mg45 3.215685 1_555
Mg17 Mg43 3.215692 1_555
Mg18 Mg19 3.160898 1_555
Mg18 Mg20 3.167716 1_555
Mg18 Mg38 3.186705 1_555
Mg18 Mg22 3.204889 1_555
Mg18 Mg44 3.215685 1_555
Mg18 Mg42 3.215692 1_555
Mg19 Mg23 3.195677 1_555
Mg19 Mg22 3.195678 1_555
Mg19 Mg38 3.200807 1_555
Mg19 Mg39 3.200816 1_555
Mg19 Mg36 3.212261 1_555
Mg20 Mg22 3.135416 1_555
Mg20 Mg44 3.178145 1_555
Mg20 Mg24 3.188730 1_565
Mg20 Mg48 3.268386 1_555
Mg20 Yb0 3.281841 1_565
Mg20 Mg4 3.342052 1_565
Mg21 Mg23 3.135416 1_555
Mg21 Mg45 3.178130 1_555
Mg21 Mg25 3.188730 1_565
Mg21 Mg47 3.268394 1_555
Mg21 Yb0 3.281857 1_665
Mg21 Mg3 3.342059 1_665
Mg22 Mg23 3.165075 1_555
Mg22 Mg28 3.196811 1_565
Mg22 Mg36 3.197948 1_555
Mg22 Mg44 3.211103 1_555
Mg23 Mg29 3.196811 1_565
Mg23 Mg36 3.197940 1_555
Mg23 Mg45 3.211119 1_555
Mg24 Mg48 3.168938 1_545
Mg24 Mg46 3.168946 1_555
Mg24 Mg4 3.188738 1_555
Mg24 Mg68 3.216755 1_555
Mg24 Mg69 3.216755 1_555
Mg24 Mg31 3.220927 1_555
Mg24 Mg28 3.220927 1_555
Mg24 Mg40 3.226392 1_555
Mg24 Mg44 3.226408 1_545
Mg24 Mg50 3.233012 1_555
Mg25 Mg46 3.168930 1_655
Mg25 Mg47 3.168939 1_545
Mg25 Mg3 3.188738 1_655
Mg25 Mg70 3.216755 1_555
Mg25 Mg67 3.216755 1_555
Mg25 Mg29 3.220927 1_555
Mg25 Mg30 3.220928 1_555
Mg25 Mg45 3.226398 1_545
Mg25 Mg41 3.226407 1_655
Mg25 Mg49 3.233020 1_555
Mg26 Mg48 3.168938 1_655
Mg26 Mg47 3.168939 1_555
Mg26 Mg72 3.216755 1_555
Mg26 Mg71 3.216755 1_555
Mg26 Mg32 3.220927 1_555
Mg26 Mg33 3.220928 1_555
Mg26 Mg43 3.226391 1_555
Mg26 Mg42 3.226407 1_655
Mg26 Mg51 3.233020 1_555
Mg27 Mg6 3.189352 1_555
Mg27 Mg5 3.189360 1_555
Mg27 Mg53 3.198602 1_555
Mg27 Mg52 3.198610 1_555
Mg27 Mg54 3.198618 1_555
Mg27 Mg30 3.209304 1_555
Mg27 Mg29 3.209305 1_555
Mg27 Mg28 3.209312 1_555
Mg27 Mg33 3.209312 1_555
Mg27 Mg31 3.209320 1_555
Mg27 Mg32 3.209321 1_555
Mg28 Mg50 3.188881 1_555
Mg28 Mg44 3.191477 1_545
Mg28 Mg31 3.195191 1_555
Mg28 Mg56 3.201890 1_555
Mg28 Mg52 3.202739 1_555
Mg28 Mg36 3.203133 1_545
Mg28 Mg29 3.223404 1_555
Mg29 Mg49 3.188872 1_555
Mg29 Mg45 3.191486 1_545
Mg29 Mg30 3.195190 1_555
Mg29 Mg55 3.201890 1_555
Mg29 Mg52 3.202740 1_555
Mg29 Mg36 3.203132 1_545
Mg30 Mg49 3.188873 1_555
Mg30 Mg41 3.191477 1_655
Mg30 Mg7 3.196810 1_655
Mg30 Mg58 3.201897 1_555
Mg30 Mg53 3.202748 1_555
Mg30 Mg35 3.203132 1_655
Mg30 Mg6 3.205208 1_555
Mg30 Mg33 3.223405 1_555
Mg31 Mg50 3.188873 1_555
Mg31 Mg40 3.191469 1_555
Mg31 Mg8 3.196811 1_555
Mg31 Mg57 3.201890 1_555
Mg31 Mg54 3.202739 1_555
Mg31 Mg34 3.203117 1_555
Mg31 Mg5 3.205208 1_555
Mg31 Mg32 3.223404 1_555
Mg32 Mg51 3.188872 1_555
Mg32 Mg43 3.191470 1_555
Mg32 Mg33 3.195190 1_555
Mg32 Mg59 3.201890 1_555
Mg32 Mg54 3.202739 1_555
Mg32 Mg34 3.203124 1_555
Mg32 Mg5 3.205216 1_555
Mg33 Mg51 3.188873 1_555
Mg33 Mg42 3.191477 1_655
Mg33 Mg60 3.201897 1_555
Mg33 Mg53 3.202739 1_555
Mg33 Mg35 3.203132 1_655
Mg33 Mg6 3.205216 1_555
Mg34 Mg40 3.174819 1_555
Mg34 Mg43 3.174835 1_555
Mg34 Mg61 3.192542 1_555
Mg34 Mg57 3.192797 1_555
Mg34 Mg59 3.192805 1_555
Mg34 Mg8 3.197940 1_555
Mg34 Mg39 3.198814 1_555
Mg34 Mg37 3.198821 1_555
Mg35 Mg42 3.174820 1_555
Mg35 Mg41 3.174820 1_555
Mg35 Mg62 3.192541 1_555
Mg35 Mg58 3.192805 1_455
Mg35 Mg60 3.192805 1_455
Mg35 Mg7 3.197948 1_555
Mg35 Mg37 3.198797 1_555
Mg35 Mg38 3.198797 1_555
Mg36 Mg44 3.174819 1_555
Mg36 Mg45 3.174835 1_555
Mg36 Mg63 3.192542 1_555
Mg36 Mg55 3.192805 1_565
Mg36 Mg56 3.192805 1_565
Mg36 Mg38 3.198813 1_555
Mg36 Mg39 3.198814 1_555
Mg37 Mg38 3.181873 1_555
Mg37 Mg39 3.181880 1_555
Mg37 Mg41 3.182825 1_555
Mg37 Mg40 3.182850 1_555
Mg37 Mg9 3.186705 1_555
Mg37 Mg62 3.193136 1_555
Mg37 Mg61 3.193152 1_555
Mg37 Mg64 3.201149 1_555
Mg38 Mg39 3.181888 1_555
Mg38 Mg42 3.182825 1_555
Mg38 Mg44 3.182834 1_555
Mg38 Mg62 3.193144 1_555
Mg38 Mg63 3.193152 1_555
Mg38 Mg66 3.201157 1_555
Mg39 Mg45 3.182841 1_555
Mg39 Mg43 3.182841 1_555
Mg39 Mg63 3.193144 1_555
Mg39 Mg61 3.193144 1_555
Mg39 Mg65 3.201157 1_555
Mg40 Mg46 3.184152 1_555
Mg40 Mg64 3.185666 1_555
Mg40 Mg57 3.187660 1_555
Mg40 Mg41 3.197944 1_555
Mg40 Mg69 3.205390 1_555
Mg40 Mg8 3.211103 1_555
Mg40 Mg9 3.215692 1_555
Mg41 Mg46 3.184153 1_555
Mg41 Mg64 3.185650 1_555
Mg41 Mg58 3.187652 1_455
Mg41 Mg70 3.205398 1_455
Mg41 Mg7 3.211103 1_555
Mg41 Mg9 3.215692 1_555
Mg42 Mg48 3.184169 1_555
Mg42 Mg66 3.185650 1_555
Mg42 Mg60 3.187652 1_455
Mg42 Mg44 3.197936 1_555
Mg42 Mg72 3.205398 1_455
Mg43 Mg47 3.184160 1_555
Mg43 Mg65 3.185658 1_555
Mg43 Mg59 3.187660 1_555
Mg43 Mg45 3.197937 1_555
Mg43 Mg71 3.205390 1_555
Mg44 Mg48 3.184168 1_555
Mg44 Mg66 3.185650 1_555
Mg44 Mg56 3.187660 1_565
Mg44 Mg68 3.205398 1_565
Mg45 Mg47 3.184152 1_555
Mg45 Mg65 3.185650 1_555
Mg45 Mg55 3.187668 1_565
Mg45 Mg67 3.205390 1_565
Mg46 Mg70 3.148685 1_455
Mg46 Mg69 3.148693 1_555
Mg46 Mg73 3.183847 1_555
Mg46 Yb0 3.278362 1_555
Mg46 Mg47 3.281793 1_445
Mg46 Mg48 3.281802 1_545
Mg47 Mg71 3.148693 1_555
Mg47 Mg67 3.148693 1_565
Mg47 Mg73 3.183838 1_665
Mg47 Yb0 3.278354 1_665
Mg47 Mg48 3.281785 1_655
Mg48 Mg68 3.148693 1_565
Mg48 Mg72 3.148693 1_455
Mg48 Mg73 3.183838 1_565
Mg48 Yb0 3.278354 1_565
Mg49 Mg70 3.189514 1_555
Mg49 Mg67 3.189515 1_555
Mg49 Mg76 3.199404 1_555
Mg49 Mg55 3.200766 1_555
Mg49 Mg58 3.200774 1_555
Mg49 Mg52 3.201557 1_555
Mg49 Mg53 3.201566 1_555
Mg49 Mg77 3.202783 1_555
Mg49 Mg80 3.202783 1_555
Mg50 Mg69 3.189498 1_555
Mg50 Mg68 3.189506 1_555
Mg50 Mg75 3.199404 1_555
Mg50 Mg57 3.200759 1_555
Mg50 Mg56 3.200775 1_555
Mg50 Mg54 3.201565 1_555
Mg50 Mg52 3.201573 1_555
Mg50 Mg79 3.202783 1_555
Mg50 Mg78 3.202791 1_555
Mg51 Mg72 3.189514 1_555
Mg51 Mg71 3.189515 1_555
Mg51 Mg89 3.199412 1_555
Mg51 Mg59 3.200766 1_555
Mg51 Mg60 3.200774 1_555
Mg51 Mg53 3.201550 1_555
Mg51 Mg54 3.201557 1_555
Mg51 Mg85 3.202783 1_555
Mg51 Mg84 3.202783 1_555
Mg52 Mg56 3.194797 1_555
Mg52 Mg55 3.194798 1_555
Mg52 Mg53 3.197054 1_555
Mg52 Mg54 3.197063 1_555
Mg52 Mg78 3.201029 1_555
Mg52 Mg77 3.201029 1_555
Mg52 Mg81 3.201942 1_555
Mg53 Mg60 3.194821 1_555
Mg53 Mg58 3.194829 1_555
Mg53 Mg54 3.197046 1_555
Mg53 Mg84 3.201029 1_555
Mg53 Mg80 3.201037 1_555
Mg53 Mg81 3.201934 1_555
Mg54 Mg57 3.194797 1_555
Mg54 Mg59 3.194798 1_555
Mg54 Mg79 3.201029 1_555
Mg54 Mg85 3.201029 1_555
Mg54 Mg81 3.201950 1_555
Mg55 Mg56 3.185169 1_555
Mg55 Mg98 3.188499 1_545
Mg55 Mg67 3.193998 1_555
Mg55 Mg77 3.195302 1_555
Mg55 Mg95 3.195439 1_545
Mg55 Mg63 3.196918 1_545
Mg55 Mg65 3.206174 1_545
Mg56 Mg98 3.188499 1_545
Mg56 Mg68 3.193998 1_555
Mg56 Mg78 3.195302 1_555
Mg56 Mg94 3.195438 1_545
Mg56 Mg63 3.196927 1_545
Mg56 Mg66 3.206173 1_545
Mg57 Mg59 3.185169 1_555
Mg57 Mg86 3.188499 1_555
Mg57 Mg69 3.193998 1_555
Mg57 Mg79 3.195302 1_555
Mg57 Mg83 3.195438 1_555
Mg57 Mg61 3.196911 1_555
Mg57 Mg64 3.206181 1_555
Mg58 Mg60 3.185186 1_555
Mg58 Mg87 3.188499 1_655
Mg58 Mg70 3.193991 1_555
Mg58 Mg80 3.195310 1_555
Mg58 Mg82 3.195439 1_655
Mg58 Mg62 3.196910 1_655
Mg58 Mg64 3.206149 1_655
Mg59 Mg86 3.188499 1_555
Mg59 Mg71 3.193998 1_555
Mg59 Mg85 3.195302 1_555
Mg59 Mg91 3.195447 1_555
Mg59 Mg61 3.196910 1_555
Mg59 Mg65 3.206174 1_555
Mg60 Mg87 3.188499 1_655
Mg60 Mg72 3.193991 1_555
Mg60 Mg84 3.195310 1_555
Mg60 Mg90 3.195431 1_655
Mg60 Mg62 3.196918 1_655
Mg60 Mg66 3.206157 1_655
Mg61 Mg92 3.192101 1_555
Mg61 Mg88 3.192109 1_555
Mg61 Mg86 3.192799 1_555
Mg61 Mg64 3.195297 1_555
Mg61 Mg65 3.195305 1_555
Mg61 Mg62 3.203692 1_555
Mg61 Mg63 3.203693 1_555
Mg62 Mg88 3.192093 1_555
Mg62 Mg93 3.192109 1_555
Mg62 Mg87 3.192806 1_555
Mg62 Mg64 3.195282 1_555
Mg62 Mg66 3.195314 1_555
Mg62 Mg63 3.203692 1_555
Mg63 Mg92 3.192101 1_555
Mg63 Mg93 3.192109 1_555
Mg63 Mg98 3.192807 1_555
Mg63 Mg65 3.195297 1_555
Mg63 Mg66 3.195313 1_555
Mg64 Mg82 3.189097 1_555
Mg64 Mg83 3.189105 1_555
Mg64 Mg88 3.189391 1_555
Mg64 Mg70 3.199785 1_455
Mg64 Mg69 3.199794 1_555
Mg65 Mg91 3.189097 1_555
Mg65 Mg95 3.189105 1_555
Mg65 Mg92 3.189399 1_555
Mg65 Mg67 3.199777 1_565
Mg65 Mg71 3.199777 1_555
Mg66 Mg90 3.189097 1_555
Mg66 Mg94 3.189097 1_555
Mg66 Mg93 3.189391 1_555
Mg66 Mg72 3.199777 1_455
Mg66 Mg68 3.199778 1_565
Mg67 Mg95 3.186362 1_545
Mg67 Mg76 3.189658 1_555
Mg67 Mg97 3.195283 1_545
Mg67 Mg70 3.208815 1_555
Mg67 Mg73 3.212889 1_655
Mg67 Mg71 3.216961 1_545
Mg68 Mg94 3.186371 1_545
Mg68 Mg75 3.189650 1_555
Mg68 Mg96 3.195283 1_545
Mg68 Mg69 3.208816 1_555
Mg68 Mg73 3.212889 1_555
Mg68 Mg72 3.216960 1_445
Mg69 Mg83 3.186371 1_555
Mg69 Mg75 3.189658 1_555
Mg69 Mg74 3.195283 1_555
Mg69 Mg73 3.212889 1_555
Mg69 Mg70 3.216960 1_455
Mg70 Mg82 3.186363 1_655
Mg70 Mg76 3.189658 1_555
Mg70 Mg74 3.195283 1_655
Mg70 Mg73 3.212890 1_655
Mg71 Mg91 3.186363 1_555
Mg71 Mg89 3.189650 1_555
Mg71 Mg97 3.195283 1_555
Mg71 Mg72 3.208815 1_555
Mg71 Mg73 3.212889 1_665
Mg72 Mg90 3.186371 1_655
Mg72 Mg89 3.189658 1_555
Mg72 Mg96 3.195283 1_655
Mg72 Mg73 3.212890 1_665
Mg73 Mg97 3.189395 1_445
Mg73 Mg74 3.189395 1_555
Mg73 Mg96 3.189395 1_545
Mg74 Mg99 3.189395 1_555
Mg74 Mg82 3.202066 1_555
Mg74 Mg83 3.202081 1_555
Mg74 Mg97 3.204331 1_445
Mg74 Mg96 3.204332 1_545
Mg74 Mg75 3.206472 1_555
Mg74 Mg76 3.206480 1_455
Mg75 Mg78 3.192543 1_555
Mg75 Mg79 3.192551 1_555
Mg75 Mg94 3.205595 1_545
Mg75 Mg83 3.205611 1_555
Mg75 Mg96 3.206464 1_545
Mg76 Mg77 3.192535 1_555
Mg76 Mg80 3.192536 1_555
Mg76 Mg95 3.205586 1_545
Mg76 Mg82 3.205594 1_655
Mg76 Mg97 3.206481 1_545
Mg77 Mg80 3.183813 1_555
Mg77 Mg81 3.192360 1_555
Mg77 Mg78 3.200915 1_555
Mg77 Mg98 3.205618 1_545
Mg77 Mg95 3.208467 1_545
Mg78 Mg79 3.183813 1_555
Mg78 Mg81 3.192367 1_555
Mg78 Mg98 3.205618 1_545
Mg78 Mg94 3.208475 1_545
Mg79 Mg81 3.192375 1_555
Mg79 Mg85 3.200915 1_555
Mg79 Mg86 3.205619 1_555
Mg79 Mg83 3.208475 1_555
Mg80 Mg81 3.192360 1_555
Mg80 Mg84 3.200916 1_555
Mg80 Mg87 3.205618 1_655
Mg80 Mg82 3.208482 1_655
Mg81 Mg84 3.192367 1_555
Mg81 Mg85 3.192376 1_555
Mg82 Mg87 3.195246 1_555
Mg82 Mg83 3.197288 1_555
Mg82 Mg88 3.197636 1_555
Mg83 Mg86 3.195229 1_555
Mg83 Mg88 3.197637 1_555
Mg84 Mg85 3.183813 1_555
Mg84 Mg89 3.192552 1_555
Mg84 Mg87 3.205617 1_655
Mg84 Mg90 3.208475 1_655
Mg85 Mg89 3.192543 1_555
Mg85 Mg86 3.205618 1_555
Mg85 Mg91 3.208484 1_555
Mg86 Mg91 3.195245 1_555
Mg86 Mg92 3.201943 1_555
Mg86 Mg88 3.201958 1_555
Mg87 Mg90 3.195230 1_555
Mg87 Mg88 3.201942 1_555
Mg87 Mg93 3.201950 1_555
Mg88 Mg92 3.192476 1_555
Mg88 Mg93 3.192485 1_555
Mg89 Mg91 3.205586 1_555
Mg89 Mg90 3.205610 1_655
Mg89 Mg97 3.206465 1_555
Mg89 Mg96 3.206472 1_655
Mg90 Mg94 3.197296 1_555
Mg90 Mg93 3.197620 1_555
Mg90 Mg96 3.202082 1_555
Mg91 Mg95 3.197297 1_555
Mg91 Mg92 3.197637 1_555
Mg91 Mg97 3.202065 1_555
Mg92 Mg93 3.192492 1_555
Mg92 Mg95 3.197652 1_555
Mg92 Mg98 3.201959 1_555
Mg93 Mg94 3.197621 1_555
Mg93 Mg98 3.201950 1_555
Mg94 Mg98 3.195229 1_555
Mg94 Mg96 3.202081 1_555
Mg95 Mg98 3.195237 1_555
Mg95 Mg97 3.202073 1_555
Mg96 Mg99 3.189395 1_565
Mg96 Mg97 3.204331 1_455
Mg97 Mg99 3.189395 1_665
Mg100 Mg125 3.148706 1_545
Mg100 Mg95 3.186362 1_545
Mg100 Mg121 3.189515 1_555
Mg100 Mg76 3.189658 1_555
Mg100 Mg112 3.193998 1_555
Mg100 Mg97 3.195283 1_545
Mg100 Mg107 3.199777 1_545
Mg100 Mg132 3.205377 1_545
Mg100 Mg103 3.208815 1_555
Mg100 Mg99 3.212889 1_655
Mg100 Mg147 3.216755 1_555
Mg100 Mg104 3.216961 1_545
Mg101 Mg126 3.148706 1_545
Mg101 Mg94 3.186371 1_545
Mg101 Mg122 3.189506 1_555
Mg101 Mg75 3.189650 1_555
Mg101 Mg113 3.193998 1_555
Mg101 Mg96 3.195283 1_545
Mg101 Mg108 3.199778 1_545
Mg101 Mg131 3.205385 1_545
Mg101 Mg102 3.208816 1_555
Mg101 Mg99 3.212889 1_555
Mg101 Mg146 3.216755 1_555
Mg101 Mg105 3.216960 1_445
Mg102 Mg124 3.148706 1_555
Mg102 Mg83 3.186371 1_555
Mg102 Mg122 3.189498 1_555
Mg102 Mg75 3.189658 1_555
Mg102 Mg114 3.193998 1_555
Mg102 Mg74 3.195283 1_555
Mg102 Mg106 3.199794 1_555
Mg102 Mg127 3.205377 1_555
Mg102 Mg99 3.212889 1_555
Mg102 Mg146 3.216755 1_555
Mg102 Mg103 3.216960 1_455
Mg103 Mg124 3.148698 1_655
Mg103 Mg82 3.186363 1_655
Mg103 Mg121 3.189514 1_555
Mg103 Mg76 3.189658 1_555
Mg103 Mg115 3.193991 1_555
Mg103 Mg74 3.195283 1_655
Mg103 Mg106 3.199785 1_655
Mg103 Mg128 3.205385 1_655
Mg103 Mg99 3.212890 1_655
Mg103 Mg147 3.216755 1_555
Mg104 Mg125 3.148706 1_555
Mg104 Mg91 3.186363 1_555
Mg104 Mg123 3.189515 1_555
Mg104 Mg89 3.189650 1_555
Mg104 Mg116 3.193998 1_555
Mg104 Mg97 3.195283 1_555
Mg104 Mg107 3.199777 1_555
Mg104 Mg130 3.205377 1_555
Mg104 Mg105 3.208815 1_555
Mg104 Mg99 3.212889 1_665
Mg104 Mg148 3.216755 1_555
Mg105 Mg126 3.148706 1_655
Mg105 Mg90 3.186371 1_655
Mg105 Mg123 3.189514 1_555
Mg105 Mg89 3.189658 1_555
Mg105 Mg117 3.193991 1_555
Mg105 Mg96 3.195283 1_655
Mg105 Mg108 3.199777 1_655
Mg105 Mg129 3.205385 1_655
Mg105 Mg99 3.212890 1_665
Mg105 Mg148 3.216755 1_555
Mg106 Mg128 3.185637 1_555
Mg106 Mg127 3.185653 1_555
Mg106 Mg82 3.189097 1_555
Mg106 Mg83 3.189105 1_555
Mg106 Mg88 3.189391 1_555
Mg106 Mg110 3.195282 1_555
Mg106 Mg109 3.195297 1_555
Mg106 Mg133 3.201149 1_555
Mg106 Mg115 3.206149 1_455
Mg106 Mg114 3.206181 1_555
Mg107 Mg132 3.185637 1_555
Mg107 Mg130 3.185645 1_555
Mg107 Mg91 3.189097 1_555
Mg107 Mg95 3.189105 1_555
Mg107 Mg92 3.189399 1_555
Mg107 Mg111 3.195297 1_555
Mg107 Mg109 3.195305 1_555
Mg107 Mg135 3.201157 1_555
Mg107 Mg112 3.206174 1_565
Mg107 Mg116 3.206174 1_555
Mg108 Mg129 3.185637 1_555
Mg108 Mg131 3.185637 1_555
Mg108 Mg90 3.189097 1_555
Mg108 Mg94 3.189097 1_555
Mg108 Mg93 3.189391 1_555
Mg108 Mg111 3.195313 1_555
Mg108 Mg110 3.195314 1_555
Mg108 Mg134 3.201157 1_555
Mg108 Mg117 3.206157 1_455
Mg108 Mg113 3.206173 1_565
Mg109 Mg92 3.192101 1_555
Mg109 Mg88 3.192109 1_555
Mg109 Mg136 3.192529 1_555
Mg109 Mg86 3.192799 1_555
Mg109 Mg135 3.193144 1_555
Mg109 Mg133 3.193152 1_555
Mg109 Mg116 3.196910 1_555
Mg109 Mg114 3.196911 1_555
Mg109 Mg110 3.203692 1_555
Mg109 Mg111 3.203693 1_555
Mg110 Mg88 3.192093 1_555
Mg110 Mg93 3.192109 1_555
Mg110 Mg137 3.192528 1_555
Mg110 Mg87 3.192806 1_555
Mg110 Mg133 3.193136 1_555
Mg110 Mg134 3.193144 1_555
Mg110 Mg115 3.196910 1_455
Mg110 Mg117 3.196918 1_455
Mg110 Mg111 3.203692 1_555
Mg111 Mg92 3.192101 1_555
Mg111 Mg93 3.192109 1_555
Mg111 Mg138 3.192529 1_555
Mg111 Mg98 3.192807 1_555
Mg111 Mg135 3.193144 1_555
Mg111 Mg134 3.193152 1_555
Mg111 Mg112 3.196918 1_565
Mg111 Mg113 3.196927 1_565
Mg112 Mg113 3.185169 1_555
Mg112 Mg132 3.187655 1_545
Mg112 Mg98 3.188499 1_545
Mg112 Mg138 3.192792 1_545
Mg112 Mg118 3.194798 1_555
Mg112 Mg77 3.195302 1_555
Mg112 Mg95 3.195439 1_545
Mg112 Mg121 3.200766 1_555
Mg112 Mg140 3.201890 1_555
Mg113 Mg131 3.187647 1_545
Mg113 Mg98 3.188499 1_545
Mg113 Mg138 3.192792 1_545
Mg113 Mg118 3.194797 1_555
Mg113 Mg78 3.195302 1_555
Mg113 Mg94 3.195438 1_545
Mg113 Mg122 3.200775 1_555
Mg113 Mg139 3.201890 1_555
Mg114 Mg116 3.185169 1_555
Mg114 Mg127 3.187647 1_555
Mg114 Mg86 3.188499 1_555
Mg114 Mg136 3.192784 1_555
Mg114 Mg120 3.194797 1_555
Mg114 Mg79 3.195302 1_555
Mg114 Mg83 3.195438 1_555
Mg114 Mg122 3.200759 1_555
Mg114 Mg142 3.201890 1_555
Mg115 Mg117 3.185186 1_555
Mg115 Mg128 3.187639 1_655
Mg115 Mg87 3.188499 1_655
Mg115 Mg137 3.192792 1_655
Mg115 Mg119 3.194829 1_555
Mg115 Mg80 3.195310 1_555
Mg115 Mg82 3.195439 1_655
Mg115 Mg121 3.200774 1_555
Mg115 Mg141 3.201897 1_555
Mg116 Mg130 3.187647 1_555
Mg116 Mg86 3.188499 1_555
Mg116 Mg136 3.192792 1_555
Mg116 Mg120 3.194798 1_555
Mg116 Mg85 3.195302 1_555
Mg116 Mg91 3.195447 1_555
Mg116 Mg123 3.200766 1_555
Mg116 Mg143 3.201890 1_555
Mg117 Mg129 3.187639 1_655
Mg117 Mg87 3.188499 1_655
Mg117 Mg137 3.192792 1_655
Mg117 Mg119 3.194821 1_555
Mg117 Mg84 3.195310 1_555
Mg117 Mg90 3.195431 1_655
Mg117 Mg123 3.200774 1_555
Mg117 Mg144 3.201897 1_555
Mg118 Mg119 3.197054 1_555
Mg118 Mg120 3.197063 1_555
Mg118 Mg145 3.198610 1_555
Mg118 Mg78 3.201029 1_555
Mg118 Mg77 3.201029 1_555
Mg118 Mg121 3.201557 1_555
Mg118 Mg122 3.201573 1_555
Mg118 Mg81 3.201942 1_555
Mg118 Mg139 3.202739 1_555
Mg118 Mg140 3.202740 1_555
Mg119 Mg120 3.197046 1_555
Mg119 Mg145 3.198602 1_555
Mg119 Mg84 3.201029 1_555
Mg119 Mg80 3.201037 1_555
Mg119 Mg123 3.201550 1_555
Mg119 Mg121 3.201566 1_555
Mg119 Mg81 3.201934 1_555
Mg119 Mg144 3.202739 1_555
Mg119 Mg141 3.202748 1_555
Mg120 Mg145 3.198618 1_555
Mg120 Mg79 3.201029 1_555
Mg120 Mg85 3.201029 1_555
Mg120 Mg123 3.201557 1_555
Mg120 Mg122 3.201565 1_555
Mg120 Mg81 3.201950 1_555
Mg120 Mg142 3.202739 1_555
Mg120 Mg143 3.202739 1_555
Mg121 Mg140 3.188872 1_555
Mg121 Mg141 3.188873 1_555
Mg121 Mg76 3.199404 1_555
Mg121 Mg77 3.202783 1_555
Mg121 Mg80 3.202783 1_555
Mg121 Mg147 3.233020 1_555
Mg122 Mg142 3.188873 1_555
Mg122 Mg139 3.188881 1_555
Mg122 Mg75 3.199404 1_555
Mg122 Mg79 3.202783 1_555
Mg122 Mg78 3.202791 1_555
Mg122 Mg146 3.233012 1_555
Mg123 Mg143 3.188872 1_555
Mg123 Mg144 3.188873 1_555
Mg123 Mg89 3.199412 1_555
Mg123 Mg85 3.202783 1_555
Mg123 Mg84 3.202783 1_555
Mg123 Mg148 3.233020 1_555
Mg124 Mg147 3.168929 1_455
Mg124 Mg146 3.168946 1_555
Mg124 Mg99 3.183859 1_555
Mg124 Mg127 3.184152 1_555
Mg124 Mg128 3.184153 1_555
Mg124 Mg3 3.268366 1_556
Mg124 Mg4 3.268373 1_556
Mg124 Yb0 3.278350 1_556
Mg124 Mg125 3.281793 1_445
Mg124 Mg126 3.281802 1_545
Mg125 Mg147 3.168938 1_565
Mg125 Mg148 3.168938 1_555
Mg125 Mg99 3.183851 1_665
Mg125 Mg132 3.184152 1_555
Mg125 Mg130 3.184160 1_555
Mg125 Mg16 3.268374 1_556
Mg125 Mg21 3.268382 1_556
Mg125 Yb0 3.278341 1_666
Mg125 Mg126 3.281785 1_655
Mg126 Mg148 3.168937 1_455
Mg126 Mg146 3.168937 1_565
Mg126 Mg99 3.183851 1_565
Mg126 Mg131 3.184168 1_555
Mg126 Mg129 3.184169 1_555
Mg126 Mg20 3.268373 1_556
Mg126 Mg15 3.268374 1_556
Mg126 Yb0 3.278342 1_566
Mg127 Mg136 3.174819 1_555
Mg127 Mg4 3.178143 1_556
Mg127 Mg133 3.182850 1_555
Mg127 Mg142 3.191469 1_555
Mg127 Mg128 3.197944 1_555
Mg127 Mg8 3.211116 1_556
Mg127 Mg9 3.215705 1_556
Mg127 Mg146 3.226392 1_555
Mg128 Mg137 3.174820 1_555
Mg128 Mg3 3.178151 1_556
Mg128 Mg133 3.182825 1_555
Mg128 Mg141 3.191477 1_455
Mg128 Mg7 3.211116 1_556
Mg128 Mg9 3.215705 1_556
Mg128 Mg147 3.226407 1_455
Mg129 Mg137 3.174820 1_555
Mg129 Mg15 3.178151 1_556
Mg129 Mg134 3.182825 1_555
Mg129 Mg144 3.191477 1_455
Mg129 Mg131 3.197936 1_555
Mg129 Mg18 3.215705 1_556
Mg129 Mg148 3.226407 1_455
Mg130 Mg136 3.174835 1_555
Mg130 Mg16 3.178142 1_556
Mg130 Mg135 3.182841 1_555
Mg130 Mg143 3.191470 1_555
Mg130 Mg132 3.197937 1_555
Mg130 Mg17 3.215705 1_556
Mg130 Mg148 3.226391 1_555
Mg131 Mg138 3.174819 1_555
Mg131 Mg20 3.178158 1_556
Mg131 Mg134 3.182834 1_555
Mg131 Mg139 3.191477 1_565
Mg131 Mg22 3.211116 1_556
Mg131 Mg18 3.215697 1_556
Mg131 Mg146 3.226408 1_565
Mg132 Mg138 3.174835 1_555
Mg132 Mg21 3.178143 1_556
Mg132 Mg135 3.182841 1_555
Mg132 Mg140 3.191486 1_565
Mg132 Mg23 3.211132 1_556
Mg132 Mg17 3.215697 1_556
Mg132 Mg147 3.226399 1_565
Mg133 Mg134 3.181873 1_555
Mg133 Mg135 3.181880 1_555
Mg133 Mg9 3.186705 1_556
Mg133 Mg137 3.198797 1_555
Mg133 Mg136 3.198821 1_555
Mg133 Mg14 3.200800 1_556
Mg134 Mg135 3.181888 1_555
Mg134 Mg18 3.186705 1_556
Mg134 Mg137 3.198797 1_555
Mg134 Mg138 3.198813 1_555
Mg134 Mg19 3.200807 1_556
Mg134 Mg14 3.200808 1_556
Mg135 Mg17 3.186713 1_556
Mg135 Mg138 3.198814 1_555
Mg135 Mg136 3.198814 1_555
Mg135 Mg19 3.200816 1_556
Mg136 Mg8 3.197953 1_556
Mg136 Mg142 3.203117 1_555
Mg136 Mg143 3.203124 1_555
Mg137 Mg7 3.197961 1_556
Mg137 Mg144 3.203132 1_455
Mg137 Mg141 3.203132 1_455
Mg137 Mg14 3.212274 1_556
Mg138 Mg23 3.197953 1_556
Mg138 Mg22 3.197961 1_556
Mg138 Mg140 3.203132 1_565
Mg138 Mg139 3.203133 1_565
Mg138 Mg19 3.212274 1_556
Mg139 Mg142 3.195191 1_555
Mg139 Mg22 3.196811 1_546
Mg139 Mg145 3.209312 1_555
Mg139 Mg146 3.220927 1_555
Mg139 Mg140 3.223404 1_555
Mg140 Mg2 3.187923 1_556
Mg140 Mg141 3.195190 1_555
Mg140 Mg23 3.196811 1_546
Mg140 Mg145 3.209305 1_555
Mg140 Mg147 3.220927 1_555
Mg141 Mg2 3.187916 1_556
Mg141 Mg7 3.196810 1_656
Mg141 Mg6 3.205208 1_556
Mg141 Mg145 3.209304 1_555
Mg141 Mg147 3.220928 1_555
Mg141 Mg144 3.223405 1_555
Mg142 Mg8 3.196811 1_556
Mg142 Mg5 3.205208 1_556
Mg142 Mg145 3.209320 1_555
Mg142 Mg146 3.220927 1_555
Mg142 Mg143 3.223404 1_555
Mg143 Mg144 3.195190 1_555
Mg143 Mg5 3.205216 1_556
Mg143 Mg145 3.209321 1_555
Mg143 Mg148 3.220927 1_555
Mg144 Mg6 3.205216 1_556
Mg144 Mg145 3.209312 1_555
Mg144 Mg148 3.220928 1_555
Mg145 Mg6 3.189352 1_556
Mg145 Mg5 3.189360 1_556
Mg146 Mg20 3.188730 1_546
Mg146 Mg4 3.188738 1_556
Mg147 Mg21 3.188730 1_546
Mg147 Mg3 3.188738 1_656
Mg147 Mg2 3.207956 1_556
Mg148 Mg15 3.188738 1_656
Mg148 Mg16 3.188738 1_556
