# generated using pymatgen
data_BaSi2O9
_symmetry_space_group_name_H-M   'P 1'
_cell_length_a   5.47523678
_cell_length_b   8.28476378
_cell_length_c   17.21250103
_cell_angle_alpha   90.01443723
_cell_angle_beta   89.87534889
_cell_angle_gamma   90.04686422
_symmetry_Int_Tables_number   1
_chemical_formula_structural   BaSi2O9
_chemical_formula_sum   'Ba4 Si8 O36'
_cell_volume   780.77487169
_cell_formula_units_Z   4
loop_
 _symmetry_equiv_pos_site_id
 _symmetry_equiv_pos_as_xyz
  1  'x, y, z'
loop_
 _atom_site_type_symbol
 _atom_site_label
 _atom_site_symmetry_multiplicity
 _atom_site_fract_x
 _atom_site_fract_y
 _atom_site_fract_z
 _atom_site_occupancy
  Ba  Ba0  1  0.63411400  0.25054200  0.99941100  1
  Ba  Ba1  1  0.13541000  0.25017200  0.50094500  1
  Ba  Ba2  1  0.36617600  0.74941800  0.00066500  1
  Ba  Ba3  1  0.86436900  0.74982300  0.49927700  1
  Si  Si0  1  0.71219100  0.05485800  0.29378400  1
  Si  Si1  1  0.21326800  0.44440700  0.20638800  1
  Si  Si2  1  0.28757600  0.55554500  0.70630400  1
  Si  Si3  1  0.78704500  0.94502700  0.79360600  1
  Si  Si4  1  0.28788900  0.94500500  0.70624000  1
  Si  Si5  1  0.78674800  0.55549100  0.79365800  1
  Si  Si6  1  0.71248800  0.44432800  0.29374600  1
  Si  Si7  1  0.21298600  0.05486200  0.20641500  1
  O  O0  1  0.94794500  0.99908100  0.24178100  1
  O  O1  1  0.44833600  0.50036600  0.25834200  1
  O  O2  1  0.05151700  0.49993300  0.75817900  1
  O  O3  1  0.55235100  0.00117000  0.74155000  1
  O  O4  1  0.05212100  0.00068300  0.75824400  1
  O  O5  1  0.55170400  0.49944400  0.74170900  1
  O  O6  1  0.94855000  0.50000800  0.24188500  1
  O  O7  1  0.44767500  0.99872400  0.25848100  1
  O  O8  1  0.71659900  0.96699000  0.38102500  1
  O  O9  1  0.21753800  0.53234600  0.11917300  1
  O  O10  1  0.28330800  0.46726400  0.61918100  1
  O  O11  1  0.78221300  0.03262800  0.88093900  1
  O  O12  1  0.28346500  0.03282000  0.61900600  1
  O  O13  1  0.78260300  0.46765300  0.88089800  1
  O  O14  1  0.71676000  0.53280000  0.38082800  1
  O  O15  1  0.21784900  0.96733400  0.11905600  1
  O  O16  1  0.71316100  0.24960200  0.30444500  1
  O  O17  1  0.21509600  0.24961500  0.19561100  1
  O  O18  1  0.28709200  0.75026300  0.69560500  1
  O  O19  1  0.78475800  0.75027600  0.80441700  1
  O  O20  1  0.63209000  0.25077300  0.50145200  1
  O  O21  1  0.13068500  0.25004500  0.99690800  1
  O  O22  1  0.36778100  0.74966300  0.49781600  1
  O  O23  1  0.86954000  0.75074500  0.00324500  1
  O  O24  1  0.46159400  0.01240800  0.08896500  1
  O  O25  1  0.95706400  0.48464100  0.41205400  1
  O  O26  1  0.53844600  0.51180400  0.91106400  1
  O  O27  1  0.04257200  0.98471500  0.58806800  1
  O  O28  1  0.53846900  0.98776300  0.91108500  1
  O  O29  1  0.04281300  0.51540300  0.58803400  1
  O  O30  1  0.46158800  0.48803400  0.08899700  1
  O  O31  1  0.95733100  0.01521900  0.41199500  1
  O  O32  1  0.67305900  0.24997700  0.57453400  1
  O  O33  1  0.17467000  0.25040700  0.92391800  1
  O  O34  1  0.32553600  0.75022800  0.42482000  1
  O  O35  1  0.82586200  0.74969800  0.07625200  1
loop_
_geom_bond_atom_site_label_1
_geom_bond_atom_site_label_2
_geom_bond_distance
_geom_bond_site_symmetry_2
Ba0 O30 2.671433 1_556
Ba0 O24 2.674459 1_556
Ba0 O26 2.697931 1_555
Ba0 O28 2.706495 1_545
Ba0 O21 2.719098 1_655
Ba0 O21 2.756823 1_555
Ba0 O33 2.833864 1_555
Ba0 O13 2.837219 1_555
Ba0 O11 2.840519 1_555
Ba1 O25 2.660644 1_455
Ba1 O31 2.661891 1_455
Ba1 O29 2.707290 1_555
Ba1 O27 2.709318 1_545
Ba1 O20 2.719474 1_555
Ba1 O20 2.755800 1_455
Ba1 O32 2.828223 1_455
Ba1 O10 2.834655 1_555
Ba1 O12 2.835599 1_555
Ba2 O26 2.671832 1_554
Ba2 O28 2.675570 1_554
Ba2 O30 2.698322 1_555
Ba2 O24 2.707409 1_565
Ba2 O23 2.719497 1_455
Ba2 O23 2.756504 1_555
Ba2 O35 2.835786 1_555
Ba2 O9 2.837185 1_555
Ba2 O15 2.839885 1_555
Ba3 O29 2.659217 1_655
Ba3 O27 2.660196 1_655
Ba3 O25 2.708337 1_555
Ba3 O31 2.710549 1_565
Ba3 O22 2.719107 1_555
Ba3 O22 2.756361 1_655
Ba3 O34 2.829136 1_655
Ba3 O14 2.836475 1_555
Ba3 O8 2.836537 1_555
O0 Si0 1.636053 1_565
O0 Si7 1.638658 1_665
O1 Si1 1.635530 1_555
O1 Si6 1.638213 1_555
O2 Si2 1.635315 1_555
O2 Si5 1.638122 1_455
O3 Si3 1.636039 1_545
O3 Si4 1.638649 1_545
O4 Si4 1.635891 1_545
O4 Si3 1.638511 1_445
O5 Si5 1.635585 1_555
O5 Si2 1.638251 1_555
O6 Si6 1.635355 1_555
O6 Si1 1.638091 1_655
O7 Si7 1.636100 1_565
O7 Si0 1.638793 1_565
O8 Si0 1.669181 1_565
O9 Si1 1.668914 1_555
O10 O29 1.477970 1_555
O10 Si2 1.668490 1_555
O11 O28 1.478078 1_545
O11 Si3 1.669250 1_545
O12 O27 1.477877 1_545
O12 Si4 1.668882 1_545
O13 O26 1.479244 1_555
O13 Si5 1.668928 1_555
O14 O25 1.477579 1_555
O14 Si6 1.668550 1_555
O15 O24 1.478188 1_565
O15 Si7 1.669393 1_565
O16 Si0 1.623770 1_555
O16 Si6 1.623790 1_555
O17 Si7 1.624239 1_555
O17 Si1 1.624422 1_555
O18 Si4 1.623700 1_555
O18 Si2 1.623721 1_555
O19 Si3 1.624243 1_555
O19 Si5 1.624335 1_555
O20 O32 1.278268 1_555
O21 O33 1.278704 1_555
O22 O34 1.278062 1_555
O23 O35 1.278706 1_555
O30 O9 1.479106 1_555
O31 O8 1.477566 1_545
