# generated using pymatgen
data_Zr3Cd
_symmetry_space_group_name_H-M   'P 1'
_cell_length_a   5.55837997
_cell_length_b   5.55837997
_cell_length_c   5.55837997
_cell_angle_alpha   133.56403771
_cell_angle_beta   133.56403771
_cell_angle_gamma   67.76973829
_symmetry_Int_Tables_number   1
_chemical_formula_structural   Zr3Cd
_chemical_formula_sum   'Zr3 Cd1'
_cell_volume   88.62706115
_cell_formula_units_Z   1
loop_
 _symmetry_equiv_pos_site_id
 _symmetry_equiv_pos_as_xyz
  1  'x, y, z'
loop_
 _atom_site_type_symbol
 _atom_site_label
 _atom_site_symmetry_multiplicity
 _atom_site_fract_x
 _atom_site_fract_y
 _atom_site_fract_z
 _atom_site_occupancy
  Zr  Zr0  1  0.75000000  0.25000000  0.50000000  1
  Zr  Zr1  1  0.25000000  0.75000000  0.50000000  1
  Zr  Zr2  1  0.50000000  0.50000000  0.00000000  1
  Cd  Cd0  1  -0.00000000  0.00000000  0.00000000  1
loop_
_geom_bond_atom_site_label_1
_geom_bond_atom_site_label_2
_geom_bond_distance
_geom_bond_site_symmetry_2
Zr0 Zr1 3.098941 1_544
Zr0 Zr1 3.098941 1_555
Zr0 Zr1 3.098941 1_645
Zr0 Zr1 3.098941 1_656
Zr0 Zr2 3.181942 1_556
Zr0 Zr2 3.181942 1_555
Zr0 Zr2 3.181942 1_545
Zr0 Zr2 3.181942 1_656
Zr1 Zr2 3.181942 1_455
Zr1 Zr2 3.181942 1_566
Zr1 Zr2 3.181942 1_556
Zr1 Zr2 3.181942 1_555
Cd0 Zr2 3.098941 1_556
Cd0 Zr2 3.098941 1_545
Cd0 Zr2 3.098941 1_444
Cd0 Zr2 3.098941 1_455
Cd0 Zr1 3.181942 1_444
Cd0 Zr0 3.181942 1_455
Cd0 Zr1 3.181942 1_544
Cd0 Zr0 3.181942 1_555
Cd0 Zr1 3.181942 1_555
Cd0 Zr0 3.181942 1_444
Cd0 Zr1 3.181942 1_545
Cd0 Zr0 3.181942 1_454
