# generated using pymatgen
data_Y5SbPt2
_symmetry_space_group_name_H-M   'P 1'
_cell_length_a   8.77016540
_cell_length_b   8.77016540
_cell_length_c   8.77016540
_cell_angle_alpha   127.52452181
_cell_angle_beta   127.52452181
_cell_angle_gamma   77.39655995
_symmetry_Int_Tables_number   1
_chemical_formula_structural   Y5SbPt2
_chemical_formula_sum   'Y10 Sb2 Pt4'
_cell_volume   411.58792583
_cell_formula_units_Z   2
loop_
 _symmetry_equiv_pos_site_id
 _symmetry_equiv_pos_as_xyz
  1  'x, y, z'
loop_
 _atom_site_type_symbol
 _atom_site_label
 _atom_site_symmetry_multiplicity
 _atom_site_fract_x
 _atom_site_fract_y
 _atom_site_fract_z
 _atom_site_occupancy
  Y  Y0  1  0.00000000  0.00000000  -0.00000000  1
  Y  Y1  1  0.50000000  0.50000000  -0.00000000  1
  Y  Y2  1  0.79551403  0.29551403  0.81368469  1
  Y  Y3  1  0.20448597  0.70448597  0.18631531  1
  Y  Y4  1  0.48182834  0.98182834  0.18631531  1
  Y  Y5  1  0.29551403  0.48182834  0.50000000  1
  Y  Y6  1  0.01817166  0.20448597  0.50000000  1
  Y  Y7  1  0.51817166  0.01817166  0.81368469  1
  Y  Y8  1  0.70448597  0.51817166  0.50000000  1
  Y  Y9  1  0.98182834  0.79551403  0.50000000  1
  Sb  Sb0  1  0.25000000  0.25000000  -0.00000000  1
  Sb  Sb1  1  0.75000000  0.75000000  -0.00000000  1
  Pt  Pt0  1  0.13861955  0.63861955  0.77723909  1
  Pt  Pt1  1  0.86138045  0.36138045  0.22276091  1
  Pt  Pt2  1  0.63861955  0.86138045  0.50000000  1
  Pt  Pt3  1  0.36138045  0.13861955  0.50000000  1
loop_
_geom_bond_atom_site_label_1
_geom_bond_atom_site_label_2
_geom_bond_distance
_geom_bond_site_symmetry_2
Sb0 Y3 3.298923 1_555
Sb0 Y2 3.298923 1_454
Sb0 Y5 3.298924 1_555
Sb0 Y6 3.298924 1_554
Sb0 Y8 3.298924 1_555
Sb0 Y9 3.298924 1_444
Sb0 Y4 3.298929 1_545
Sb0 Y7 3.298929 1_554
Sb0 Y0 3.422334 1_555
Sb0 Y1 3.422334 1_555
Sb1 Y3 3.298923 1_655
Sb1 Y2 3.298923 1_554
Sb1 Y6 3.298924 1_665
Sb1 Y9 3.298924 1_555
Sb1 Y5 3.298924 1_554
Sb1 Y8 3.298924 1_554
Sb1 Y7 3.298929 1_564
Sb1 Y4 3.298929 1_555
Sb1 Y0 3.422334 1_665
Sb1 Y1 3.422334 1_555
Pt0 Y4 2.938533 1_556
Pt0 Y3 2.938542 1_556
Pt0 Y5 2.978764 1_555
Pt0 Y9 2.978764 1_455
Pt0 Y8 2.978764 1_455
Pt0 Y6 2.978764 1_555
Pt0 Y0 3.001423 1_566
Pt0 Y1 3.001423 1_556
Pt1 Y7 2.938533 1_554
Pt1 Y2 2.938542 1_554
Pt1 Y8 2.978764 1_555
Pt1 Y6 2.978764 1_655
Pt1 Y9 2.978764 1_555
Pt1 Y5 2.978764 1_655
Pt1 Y1 3.001423 1_555
Pt1 Y0 3.001423 1_655
Pt2 Y9 2.938533 1_555
Pt2 Y8 2.938533 1_555
Pt2 Y7 2.978757 1_565
Pt2 Y4 2.978757 1_555
Pt2 Y3 2.978765 1_555
Pt2 Y2 2.978765 1_565
Pt2 Y0 3.001423 1_666
Pt2 Y1 3.001423 1_555
Pt3 Y6 2.938533 1_555
Pt3 Y5 2.938533 1_555
Pt3 Y7 2.978757 1_555
Pt3 Y4 2.978757 1_545
Pt3 Y2 2.978765 1_555
Pt3 Y3 2.978765 1_545
Pt3 Y1 3.001423 1_556
Pt3 Y0 3.001423 1_555
