# generated using pymatgen
data_Ho5IrBr9
_symmetry_space_group_name_H-M   'P 1'
_cell_length_a   12.76463158
_cell_length_b   12.76463158
_cell_length_c   24.41619096
_cell_angle_alpha   105.15296437
_cell_angle_beta   105.15296439
_cell_angle_gamma   90.00000000
_symmetry_Int_Tables_number   1
_chemical_formula_structural   Ho5IrBr9
_chemical_formula_sum   'Ho40 Ir8 Br72'
_cell_volume   3696.46206207
_cell_formula_units_Z   8
loop_
 _symmetry_equiv_pos_site_id
 _symmetry_equiv_pos_as_xyz
  1  'x, y, z'
loop_
 _atom_site_type_symbol
 _atom_site_label
 _atom_site_symmetry_multiplicity
 _atom_site_fract_x
 _atom_site_fract_y
 _atom_site_fract_z
 _atom_site_occupancy
  Ho  Ho0  1  0.10717146  0.24463374  0.31847559  1
  Ho  Ho1  1  0.21130413  0.57384184  0.31847559  1
  Ho  Ho2  1  0.74463374  0.71130413  0.81847559  1
  Ho  Ho3  1  0.07384184  0.60717146  0.81847559  1
  Ho  Ho4  1  0.89282854  0.75536626  0.68152441  1
  Ho  Ho5  1  0.78869587  0.42615816  0.68152441  1
  Ho  Ho6  1  0.25536626  0.28869587  0.18152441  1
  Ho  Ho7  1  0.92615816  0.39282854  0.18152441  1
  Ho  Ho8  1  0.83431733  0.35933393  0.31052558  1
  Ho  Ho9  1  0.47620825  0.45119165  0.31052558  1
  Ho  Ho10  1  0.85933393  0.97620825  0.81052558  1
  Ho  Ho11  1  0.95119165  0.33431733  0.81052558  1
  Ho  Ho12  1  0.16568267  0.64066607  0.68947442  1
  Ho  Ho13  1  0.52379175  0.54880835  0.68947442  1
  Ho  Ho14  1  0.14066607  0.02379175  0.18947442  1
  Ho  Ho15  1  0.04880835  0.66568267  0.18947442  1
  Ho  Ho16  1  0.91788944  0.62869882  0.30771613  1
  Ho  Ho17  1  0.38982669  0.17901731  0.30771613  1
  Ho  Ho18  1  0.12869882  0.88982669  0.80771613  1
  Ho  Ho19  1  0.67901731  0.41788944  0.80771613  1
  Ho  Ho20  1  0.08211056  0.37130118  0.69228387  1
  Ho  Ho21  1  0.61017331  0.82098269  0.69228387  1
  Ho  Ho22  1  0.87130118  0.11017331  0.19228387  1
  Ho  Ho23  1  0.32098269  0.58211056  0.19228387  1
  Ho  Ho24  1  0.86804348  0.91690798  0.43317676  1
  Ho  Ho25  1  0.56513328  0.01626879  0.43317676  1
  Ho  Ho26  1  0.41690798  0.06513328  0.93317676  1
  Ho  Ho27  1  0.51626879  0.36804348  0.93317676  1
  Ho  Ho28  1  0.13195652  0.08309202  0.56682324  1
  Ho  Ho29  1  0.43486672  0.98373121  0.56682324  1
  Ho  Ho30  1  0.58309202  0.93486672  0.06682324  1
  Ho  Ho31  1  0.48373121  0.63195652  0.06682324  1
  Ho  Ho32  1  0.06964319  0.50626560  0.42186472  1
  Ho  Ho33  1  0.35222153  0.41559912  0.42186472  1
  Ho  Ho34  1  0.00626560  0.85222153  0.92186472  1
  Ho  Ho35  1  0.91559912  0.56964319  0.92186472  1
  Ho  Ho36  1  0.93035681  0.49373440  0.57813528  1
  Ho  Ho37  1  0.64777847  0.58440088  0.57813528  1
  Ho  Ho38  1  0.99373440  0.14777847  0.07813528  1
  Ho  Ho39  1  0.08440088  0.43035681  0.07813528  1
  Ir  Ir0  1  0.02335220  0.44240144  0.30358028  1
  Ir  Ir1  1  0.28022809  0.36117883  0.30358028  1
  Ir  Ir2  1  0.94240144  0.78022809  0.80358028  1
  Ir  Ir3  1  0.86117883  0.52335220  0.80358028  1
  Ir  Ir4  1  0.97664780  0.55759856  0.69641972  1
  Ir  Ir5  1  0.71977191  0.63882117  0.69641972  1
  Ir  Ir6  1  0.05759856  0.21977191  0.19641972  1
  Ir  Ir7  1  0.13882117  0.47664780  0.19641972  1
  Br  Br0  1  0.97161113  0.71670999  0.43486545  1
  Br  Br1  1  0.46325432  0.21815547  0.43486545  1
  Br  Br2  1  0.21670999  0.96325432  0.93486545  1
  Br  Br3  1  0.71815547  0.47161113  0.93486545  1
  Br  Br4  1  0.02838887  0.28329001  0.56513455  1
  Br  Br5  1  0.53674568  0.78184453  0.56513455  1
  Br  Br6  1  0.78329001  0.03674568  0.06513455  1
  Br  Br7  1  0.28184453  0.52838887  0.06513455  1
  Br  Br8  1  0.81020267  0.83750456  0.31499995  1
  Br  Br9  1  0.50479729  0.97749539  0.31499995  1
  Br  Br10  1  0.33750456  0.00479729  0.81499995  1
  Br  Br11  1  0.47749539  0.31020267  0.81499995  1
  Br  Br12  1  0.18979733  0.16249544  0.68500005  1
  Br  Br13  1  0.49520271  0.02250461  0.68500005  1
  Br  Br14  1  0.66249544  0.99520271  0.18500005  1
  Br  Br15  1  0.52250461  0.68979733  0.18500005  1
  Br  Br16  1  0.17810314  0.32365481  0.45210325  1
  Br  Br17  1  0.27400011  0.62844844  0.45210325  1
  Br  Br18  1  0.82365481  0.77400011  0.95210325  1
  Br  Br19  1  0.12844844  0.67810314  0.95210325  1
  Br  Br20  1  0.82189686  0.67634519  0.54789675  1
  Br  Br21  1  0.72599989  0.37155156  0.54789675  1
  Br  Br22  1  0.17634519  0.22599989  0.04789675  1
  Br  Br23  1  0.87155156  0.32189686  0.04789675  1
  Br  Br24  1  0.89078069  0.14348203  0.31541669  1
  Br  Br25  1  0.42463599  0.67193467  0.31541669  1
  Br  Br26  1  0.64348203  0.92463599  0.81541669  1
  Br  Br27  1  0.17193467  0.39078069  0.81541669  1
  Br  Br28  1  0.10921931  0.85651797  0.68458331  1
  Br  Br29  1  0.57536401  0.32806533  0.68458331  1
  Br  Br30  1  0.35651797  0.07536401  0.18458331  1
  Br  Br31  1  0.82806533  0.60921931  0.18458331  1
  Br  Br32  1  0.71234850  0.54578503  0.31481202  1
  Br  Br33  1  0.60246352  0.26902698  0.31481202  1
  Br  Br34  1  0.04578503  0.10246352  0.81481202  1
  Br  Br35  1  0.76902698  0.21234850  0.81481202  1
  Br  Br36  1  0.28765150  0.45421497  0.68518798  1
  Br  Br37  1  0.39753648  0.73097302  0.68518798  1
  Br  Br38  1  0.95421497  0.89753648  0.18518798  1
  Br  Br39  1  0.23097302  0.78765150  0.18518798  1
  Br  Br40  1  0.88120860  0.41504122  0.43810929  1
  Br  Br41  1  0.55690069  0.52306808  0.43810929  1
  Br  Br42  1  0.91504122  0.05690069  0.93810929  1
  Br  Br43  1  0.02306808  0.38120860  0.93810929  1
  Br  Br44  1  0.11879140  0.58495878  0.56189071  1
  Br  Br45  1  0.44309931  0.47693192  0.56189071  1
  Br  Br46  1  0.08495878  0.94309931  0.06189071  1
  Br  Br47  1  0.97693192  0.61879140  0.06189071  1
  Br  Br48  1  0.21746460  0.03854388  0.31334598  1
  Br  Br49  1  0.09588138  0.77480210  0.31334598  1
  Br  Br50  1  0.53854388  0.59588138  0.81334598  1
  Br  Br51  1  0.27480210  0.71746460  0.81334598  1
  Br  Br52  1  0.78253540  0.96145612  0.68665402  1
  Br  Br53  1  0.90411862  0.22519790  0.68665402  1
  Br  Br54  1  0.46145612  0.40411862  0.18665402  1
  Br  Br55  1  0.72519790  0.28253540  0.18665402  1
  Br  Br56  1  0.76618599  0.10908282  0.43873065  1
  Br  Br57  1  0.67254466  0.82964783  0.43873065  1
  Br  Br58  1  0.60908282  0.17254466  0.93873065  1
  Br  Br59  1  0.32964783  0.26618599  0.93873065  1
  Br  Br60  1  0.23381401  0.89091718  0.56126935  1
  Br  Br61  1  0.32745534  0.17035217  0.56126935  1
  Br  Br62  1  0.39091718  0.82745534  0.06126935  1
  Br  Br63  1  0.67035217  0.73381401  0.06126935  1
  Br  Br64  1  0.06127809  0.02797445  0.44234471  1
  Br  Br65  1  0.38106662  0.91437026  0.44234471  1
  Br  Br66  1  0.52797445  0.88106662  0.94234471  1
  Br  Br67  1  0.41437026  0.56127809  0.94234471  1
  Br  Br68  1  0.93872191  0.97202555  0.55765529  1
  Br  Br69  1  0.61893338  0.08562974  0.55765529  1
  Br  Br70  1  0.47202555  0.11893338  0.05765529  1
  Br  Br71  1  0.58562974  0.43872191  0.05765529  1
loop_
_geom_bond_atom_site_label_1
_geom_bond_atom_site_label_2
_geom_bond_distance
_geom_bond_site_symmetry_2
Ho0 Ir6 2.811058 1_555
Ho0 Ir0 2.815370 1_555
Ho0 Ir1 2.815660 1_555
Ho1 Ir7 2.811058 1_555
Ho1 Ir1 2.815370 1_555
Ho1 Ir0 2.815660 1_555
Ho2 Ir5 2.811058 1_555
Ho2 Ir2 2.815370 1_555
Ho2 Ir3 2.815660 1_555
Ho3 Ir4 2.811058 1_455
Ho3 Ir3 2.815370 1_455
Ho3 Ir2 2.815660 1_455
Ho4 Ir2 2.811058 1_555
Ho4 Ir4 2.815370 1_555
Ho4 Ir5 2.815660 1_555
Ho5 Ir3 2.811058 1_555
Ho5 Ir5 2.815370 1_555
Ho5 Ir4 2.815660 1_555
Ho6 Ir1 2.811058 1_555
Ho6 Ir6 2.815370 1_555
Ho6 Ir7 2.815660 1_555
Ho7 Ir0 2.811058 1_655
Ho7 Ir7 2.815370 1_655
Ho7 Ir6 2.815660 1_655
Ho8 Ir0 2.698768 1_655
Ho9 Ir1 2.698768 1_555
Ho10 Ir2 2.698768 1_555
Ho11 Ir3 2.698768 1_555
Ho12 Ir4 2.698768 1_455
Ho13 Ir5 2.698768 1_555
Ho14 Ir6 2.698768 1_555
Ho15 Ir7 2.698768 1_555
Ho16 Ir0 2.724505 1_655
Ho17 Ir1 2.724505 1_555
Ho18 Ir2 2.724505 1_455
Ho19 Ir3 2.724505 1_555
Ho20 Ir4 2.724505 1_455
Ho21 Ir5 2.724505 1_555
Ho22 Ir6 2.724505 1_655
Ho23 Ir7 2.724505 1_555
Ho32 Ir0 2.689158 1_555
Ho33 Ir1 2.689158 1_555
Ho34 Ir2 2.689158 1_455
Ho35 Ir3 2.689158 1_555
Ho36 Ir4 2.689158 1_555
Ho37 Ir5 2.689158 1_555
Ho38 Ir6 2.689158 1_655
Ho39 Ir7 2.689158 1_555
Br0 Ho24 2.882069 1_555
Br0 Ho16 2.904128 1_555
Br0 Ho32 2.940138 1_655
Br1 Ho25 2.882069 1_555
Br1 Ho17 2.904128 1_555
Br1 Ho33 2.940138 1_555
Br2 Ho26 2.882069 1_565
Br2 Ho18 2.904128 1_555
Br2 Ho34 2.940138 1_555
Br3 Ho27 2.882069 1_555
Br3 Ho19 2.904128 1_555
Br3 Ho35 2.940138 1_555
Br4 Ho28 2.882069 1_555
Br4 Ho20 2.904128 1_555
Br4 Ho36 2.940138 1_455
Br5 Ho29 2.882069 1_555
Br5 Ho21 2.904128 1_555
Br5 Ho37 2.940138 1_555
Br6 Ho30 2.882069 1_545
Br6 Ho22 2.904128 1_555
Br6 Ho38 2.940138 1_555
Br7 Ho31 2.882069 1_555
Br7 Ho23 2.904128 1_555
Br7 Ho39 2.940138 1_555
Br8 Ho24 2.693590 1_555
Br8 Ho16 2.984137 1_555
Br9 Ho25 2.693590 1_565
Br9 Ho17 2.984137 1_565
Br10 Ho26 2.693590 1_555
Br10 Ho18 2.984137 1_545
Br11 Ho27 2.693590 1_555
Br11 Ho19 2.984137 1_555
Br12 Ho28 2.693590 1_555
Br12 Ho20 2.984137 1_555
Br13 Ho29 2.693590 1_545
Br13 Ho21 2.984137 1_545
Br14 Ho30 2.693590 1_555
Br14 Ho22 2.984137 1_565
Br15 Ho31 2.693590 1_555
Br15 Ho23 2.984137 1_555
Br16 Ho33 2.858873 1_555
Br16 Ho32 2.874111 1_555
Br16 Ho0 3.036016 1_555
Br17 Ho32 2.858873 1_555
Br17 Ho33 2.874111 1_555
Br17 Ho1 3.036016 1_555
Br18 Ho35 2.858873 1_555
Br18 Ho34 2.874111 1_655
Br18 Ho2 3.036016 1_555
Br19 Ho34 2.858873 1_555
Br19 Ho35 2.874111 1_455
Br19 Ho3 3.036016 1_555
Br20 Ho37 2.858873 1_555
Br20 Ho36 2.874111 1_555
Br20 Ho4 3.036016 1_555
Br21 Ho36 2.858873 1_555
Br21 Ho37 2.874111 1_555
Br21 Ho5 3.036016 1_555
Br22 Ho39 2.858873 1_555
Br22 Ho38 2.874111 1_455
Br22 Ho6 3.036016 1_555
Br23 Ho38 2.858873 1_555
Br23 Ho39 2.874111 1_655
Br23 Ho7 3.036016 1_555
Br24 Ho22 2.867433 1_555
Br24 Ho8 2.872674 1_555
Br24 Ho0 3.023885 1_655
Br25 Ho23 2.867433 1_555
Br25 Ho9 2.872674 1_555
Br25 Ho1 3.023885 1_555
Br26 Ho21 2.867433 1_555
Br26 Ho10 2.872674 1_555
Br26 Ho2 3.023885 1_555
Br27 Ho20 2.867433 1_555
Br27 Ho11 2.872674 1_455
Br27 Ho3 3.023886 1_555
Br28 Ho18 2.867433 1_555
Br28 Ho12 2.872674 1_555
Br28 Ho4 3.023885 1_455
Br29 Ho19 2.867433 1_555
Br29 Ho13 2.872674 1_555
Br29 Ho5 3.023885 1_555
Br30 Ho17 2.867433 1_555
Br30 Ho14 2.872674 1_555
Br30 Ho6 3.023885 1_555
Br31 Ho16 2.867433 1_555
Br31 Ho15 2.872674 1_655
Br31 Ho7 3.023886 1_555
Br32 Ho8 2.837978 1_555
Br32 Ho16 2.892614 1_555
Br32 Ho9 3.213030 1_555
Br33 Ho9 2.837978 1_555
Br33 Ho17 2.892614 1_555
Br33 Ho8 3.213030 1_555
Br34 Ho10 2.837978 1_445
Br34 Ho18 2.892614 1_545
Br34 Ho11 3.213030 1_455
Br35 Ho11 2.837978 1_555
Br35 Ho19 2.892614 1_555
Br35 Ho10 3.213030 1_545
Br36 Ho12 2.837978 1_555
Br36 Ho20 2.892614 1_555
Br36 Ho13 3.213030 1_555
Br37 Ho13 2.837978 1_555
Br37 Ho21 2.892614 1_555
Br37 Ho12 3.213030 1_555
Br38 Ho14 2.837978 1_665
Br38 Ho22 2.892614 1_565
Br38 Ho15 3.213030 1_655
Br39 Ho15 2.837978 1_555
Br39 Ho23 2.892614 1_555
Br39 Ho14 3.213030 1_565
Br40 Ho32 2.835298 1_655
Br40 Ho8 2.904305 1_555
Br40 Ho36 3.189785 1_555
Br41 Ho33 2.835298 1_555
Br41 Ho9 2.904305 1_555
Br41 Ho37 3.189785 1_555
Br42 Ho34 2.835298 1_645
Br42 Ho10 2.904305 1_545
Br42 Ho38 3.189785 1_556
Br43 Ho35 2.835298 1_455
Br43 Ho11 2.904305 1_455
Br43 Ho39 3.189785 1_556
Br44 Ho36 2.835298 1_455
Br44 Ho12 2.904305 1_555
Br44 Ho32 3.189785 1_555
Br45 Ho37 2.835298 1_555
Br45 Ho13 2.904305 1_555
Br45 Ho33 3.189785 1_555
Br46 Ho38 2.835298 1_465
Br46 Ho14 2.904305 1_565
Br46 Ho34 3.189785 1_554
Br47 Ho39 2.835298 1_655
Br47 Ho15 2.904305 1_655
Br47 Ho35 3.189785 1_554
Br48 Ho14 2.880297 1_555
Br48 Ho17 2.891651 1_555
Br48 Ho0 2.972885 1_555
Br49 Ho15 2.880297 1_555
Br49 Ho16 2.891651 1_455
Br49 Ho1 2.972885 1_555
Br50 Ho13 2.880297 1_555
Br50 Ho19 2.891651 1_555
Br50 Ho2 2.972885 1_555
Br51 Ho12 2.880296 1_555
Br51 Ho18 2.891651 1_555
Br51 Ho3 2.972885 1_555
Br52 Ho10 2.880297 1_555
Br52 Ho21 2.891651 1_555
Br52 Ho4 2.972885 1_555
Br53 Ho11 2.880297 1_555
Br53 Ho20 2.891651 1_655
Br53 Ho5 2.972885 1_555
Br54 Ho9 2.880297 1_555
Br54 Ho23 2.891651 1_555
Br54 Ho6 2.972885 1_555
Br55 Ho8 2.880296 1_555
Br55 Ho22 2.891651 1_555
Br55 Ho7 2.972885 1_555
Br56 Ho24 2.764872 1_545
Br56 Ho25 2.782496 1_555
Br57 Ho25 2.764872 1_565
Br57 Ho24 2.782496 1_555
Br58 Ho26 2.764872 1_555
Br58 Ho27 2.782496 1_555
Br59 Ho27 2.764872 1_555
Br59 Ho26 2.782496 1_555
Br60 Ho28 2.764872 1_565
Br60 Ho29 2.782496 1_555
Br61 Ho29 2.764872 1_545
Br61 Ho28 2.782496 1_555
Br62 Ho30 2.764872 1_555
Br62 Ho31 2.782496 1_555
Br63 Ho31 2.764872 1_555
Br63 Ho30 2.782496 1_555
Br64 Ho24 2.772985 1_445
Br64 Ho28 2.827512 1_555
Br65 Ho25 2.772985 1_565
Br65 Ho29 2.827512 1_555
Br66 Ho26 2.772985 1_565
Br66 Ho30 2.827512 1_556
Br67 Ho27 2.772985 1_555
Br67 Ho31 2.827512 1_556
Br68 Ho28 2.772985 1_665
Br68 Ho24 2.827512 1_555
Br69 Ho29 2.772985 1_545
Br69 Ho25 2.827512 1_555
Br70 Ho30 2.772985 1_545
Br70 Ho26 2.827512 1_554
Br71 Ho31 2.772985 1_555
Br71 Ho27 2.827512 1_554
