# generated using pymatgen
data_AlB3(H5N)6
_symmetry_space_group_name_H-M   'P 1'
_cell_length_a   13.49779484
_cell_length_b   13.63056267
_cell_length_c   15.40722166
_cell_angle_alpha   90.00000000
_cell_angle_beta   90.00000000
_cell_angle_gamma   90.00000000
_symmetry_Int_Tables_number   1
_chemical_formula_structural   AlB3(H5N)6
_chemical_formula_sum   'Al8 B24 H240 N48'
_cell_volume   2834.65975183
_cell_formula_units_Z   8
loop_
 _symmetry_equiv_pos_site_id
 _symmetry_equiv_pos_as_xyz
  1  'x, y, z'
loop_
 _atom_site_type_symbol
 _atom_site_label
 _atom_site_symmetry_multiplicity
 _atom_site_fract_x
 _atom_site_fract_y
 _atom_site_fract_z
 _atom_site_occupancy
  Al  Al0  1  0.93532062  0.28585385  0.86628409  1
  Al  Al1  1  0.43532062  0.21414615  0.63371591  1
  Al  Al2  1  0.06467938  0.78585385  0.63371591  1
  Al  Al3  1  0.56467938  0.71414615  0.86628409  1
  Al  Al4  1  0.06467938  0.71414615  0.13371591  1
  Al  Al5  1  0.56467938  0.78585385  0.36628409  1
  Al  Al6  1  0.93532062  0.21414615  0.36628409  1
  Al  Al7  1  0.43532062  0.28585385  0.13371591  1
  B  B0  1  0.08325588  0.47510868  0.67172957  1
  B  B1  1  0.58325588  0.02489132  0.82827043  1
  B  B2  1  0.91674412  0.97510868  0.82827043  1
  B  B3  1  0.41674412  0.52489132  0.67172957  1
  B  B4  1  0.91674412  0.52489132  0.32827043  1
  B  B5  1  0.41674412  0.97510868  0.17172957  1
  B  B6  1  0.08325588  0.02489132  0.17172957  1
  B  B7  1  0.58325588  0.47510868  0.32827043  1
  B  B8  1  0.88207727  0.89376028  0.41287130  1
  B  B9  1  0.38207727  0.60623972  0.08712870  1
  B  B10  1  0.11792273  0.39376028  0.08712870  1
  B  B11  1  0.61792273  0.10623972  0.41287130  1
  B  B12  1  0.11792273  0.10623972  0.58712870  1
  B  B13  1  0.61792273  0.39376028  0.91287130  1
  B  B14  1  0.88207727  0.60623972  0.91287130  1
  B  B15  1  0.38207727  0.89376028  0.58712870  1
  B  B16  1  0.72118409  0.77942035  0.12435277  1
  B  B17  1  0.22118409  0.72057965  0.37564723  1
  B  B18  1  0.27881591  0.27942035  0.37564723  1
  B  B19  1  0.77881591  0.22057965  0.12435277  1
  B  B20  1  0.27881591  0.22057965  0.87564723  1
  B  B21  1  0.77881591  0.27942035  0.62435277  1
  B  B22  1  0.72118409  0.72057965  0.62435277  1
  B  B23  1  0.22118409  0.77942035  0.87564723  1
  H  H0  1  0.97842018  0.39436335  0.41941318  1
  H  H1  1  0.47842018  0.10563665  0.08058682  1
  H  H2  1  0.02157982  0.89436335  0.08058682  1
  H  H3  1  0.52157982  0.60563665  0.41941318  1
  H  H4  1  0.02157982  0.60563665  0.58058682  1
  H  H5  1  0.52157982  0.89436335  0.91941318  1
  H  H6  1  0.97842018  0.10563665  0.91941318  1
  H  H7  1  0.47842018  0.39436335  0.58058682  1
  H  H8  1  0.94529773  0.81791758  0.03155566  1
  H  H9  1  0.44529773  0.68208242  0.46844434  1
  H  H10  1  0.05470227  0.31791758  0.46844434  1
  H  H11  1  0.55470227  0.18208242  0.03155566  1
  H  H12  1  0.05470227  0.18208242  0.96844434  1
  H  H13  1  0.55470227  0.31791758  0.53155566  1
  H  H14  1  0.94529773  0.68208242  0.53155566  1
  H  H15  1  0.44529773  0.81791758  0.96844434  1
  H  H16  1  0.94127221  0.33050899  0.50374720  1
  H  H17  1  0.44127221  0.16949101  0.99625280  1
  H  H18  1  0.05872779  0.83050899  0.99625280  1
  H  H19  1  0.55872779  0.66949101  0.50374720  1
  H  H20  1  0.05872779  0.66949101  0.49625280  1
  H  H21  1  0.55872779  0.83050899  0.00374720  1
  H  H22  1  0.94127221  0.16949101  0.00374720  1
  H  H23  1  0.44127221  0.33050899  0.49625280  1
  H  H24  1  0.96567061  0.36825638  0.26649266  1
  H  H25  1  0.46567061  0.13174362  0.23350734  1
  H  H26  1  0.03432939  0.86825638  0.23350734  1
  H  H27  1  0.53432939  0.63174362  0.26649266  1
  H  H28  1  0.03432939  0.63174362  0.73350734  1
  H  H29  1  0.53432939  0.86825638  0.76649266  1
  H  H30  1  0.96567061  0.13174362  0.76649266  1
  H  H31  1  0.46567061  0.36825638  0.73350734  1
  H  H32  1  0.94998710  0.78770650  0.26102801  1
  H  H33  1  0.44998710  0.71229350  0.23897199  1
  H  H34  1  0.05001290  0.28770650  0.23897199  1
  H  H35  1  0.55001290  0.21229350  0.26102801  1
  H  H36  1  0.05001290  0.21229350  0.73897199  1
  H  H37  1  0.55001290  0.28770650  0.76102801  1
  H  H38  1  0.94998710  0.71229350  0.76102801  1
  H  H39  1  0.44998710  0.78770650  0.73897199  1
  H  H40  1  0.93594855  0.27451388  0.20578098  1
  H  H41  1  0.43594855  0.22548612  0.29421902  1
  H  H42  1  0.06405145  0.77451388  0.29421902  1
  H  H43  1  0.56405145  0.72548612  0.20578098  1
  H  H44  1  0.06405145  0.72548612  0.79421902  1
  H  H45  1  0.56405145  0.77451388  0.70578098  1
  H  H46  1  0.93594855  0.22548612  0.70578098  1
  H  H47  1  0.43594855  0.27451388  0.79421902  1
  H  H48  1  0.91324439  0.88832140  0.57159773  1
  H  H49  1  0.41324439  0.61167860  0.92840227  1
  H  H50  1  0.08675561  0.38832140  0.92840227  1
  H  H51  1  0.58675561  0.11167860  0.57159773  1
  H  H52  1  0.08675561  0.11167860  0.42840227  1
  H  H53  1  0.58675561  0.38832140  0.07159773  1
  H  H54  1  0.91324439  0.61167860  0.07159773  1
  H  H55  1  0.41324439  0.88832140  0.42840227  1
  H  H56  1  0.91580515  0.89984056  0.67833141  1
  H  H57  1  0.41580515  0.60015944  0.82166859  1
  H  H58  1  0.08419485  0.39984056  0.82166859  1
  H  H59  1  0.58419485  0.10015944  0.67833141  1
  H  H60  1  0.08419485  0.10015944  0.32166859  1
  H  H61  1  0.58419485  0.39984056  0.17833141  1
  H  H62  1  0.91580515  0.60015944  0.17833141  1
  H  H63  1  0.41580515  0.89984056  0.32166859  1
  H  H64  1  0.86909443  0.80225028  0.63201470  1
  H  H65  1  0.36909443  0.69774972  0.86798530  1
  H  H66  1  0.13090557  0.30225028  0.86798530  1
  H  H67  1  0.63090557  0.19774972  0.63201470  1
  H  H68  1  0.13090557  0.19774972  0.36798530  1
  H  H69  1  0.63090557  0.30225028  0.13201470  1
  H  H70  1  0.86909443  0.69774972  0.13201470  1
  H  H71  1  0.36909443  0.80225028  0.36798530  1
  H  H72  1  0.82597557  0.38037646  0.75108380  1
  H  H73  1  0.32597557  0.11962354  0.74891620  1
  H  H74  1  0.17402443  0.88037646  0.74891620  1
  H  H75  1  0.67402443  0.61962354  0.75108380  1
  H  H76  1  0.17402443  0.61962354  0.24891620  1
  H  H77  1  0.67402443  0.88037646  0.25108380  1
  H  H78  1  0.82597557  0.11962354  0.25108380  1
  H  H79  1  0.32597557  0.38037646  0.24891620  1
  H  H80  1  0.87194112  0.46202924  0.81924078  1
  H  H81  1  0.37194112  0.03797076  0.68075922  1
  H  H82  1  0.12805888  0.96202924  0.68075922  1
  H  H83  1  0.62805888  0.53797076  0.81924078  1
  H  H84  1  0.12805888  0.53797076  0.18075922  1
  H  H85  1  0.62805888  0.96202924  0.31924078  1
  H  H86  1  0.87194112  0.03797076  0.31924078  1
  H  H87  1  0.37194112  0.46202924  0.18075922  1
  H  H88  1  0.94007233  0.41699686  0.74152496  1
  H  H89  1  0.44007233  0.08300314  0.75847504  1
  H  H90  1  0.05992767  0.91699686  0.75847504  1
  H  H91  1  0.55992767  0.58300314  0.74152496  1
  H  H92  1  0.05992767  0.58300314  0.25847504  1
  H  H93  1  0.55992767  0.91699686  0.24152496  1
  H  H94  1  0.94007233  0.08300314  0.24152496  1
  H  H95  1  0.44007233  0.41699686  0.25847504  1
  H  H96  1  0.94676280  0.37032547  0.01847216  1
  H  H97  1  0.44676280  0.12967453  0.48152784  1
  H  H98  1  0.05323720  0.87032547  0.48152784  1
  H  H99  1  0.55323720  0.62967453  0.01847216  1
  H  H100  1  0.05323720  0.62967453  0.98152784  1
  H  H101  1  0.55323720  0.87032547  0.51847216  1
  H  H102  1  0.94676280  0.12967453  0.51847216  1
  H  H103  1  0.44676280  0.37032547  0.98152784  1
  H  H104  1  0.86118429  0.42818007  0.96409470  1
  H  H105  1  0.36118429  0.07181993  0.53590530  1
  H  H106  1  0.13881571  0.92818007  0.53590530  1
  H  H107  1  0.63881571  0.57181993  0.96409470  1
  H  H108  1  0.13881571  0.57181993  0.03590530  1
  H  H109  1  0.63881571  0.92818007  0.46409470  1
  H  H110  1  0.86118429  0.07181993  0.46409470  1
  H  H111  1  0.36118429  0.42818007  0.03590530  1
  H  H112  1  0.83592351  0.32214441  0.01021918  1
  H  H113  1  0.33592351  0.17785559  0.48978082  1
  H  H114  1  0.16407649  0.82214441  0.48978082  1
  H  H115  1  0.66407649  0.67785559  0.01021918  1
  H  H116  1  0.16407649  0.67785559  0.98978082  1
  H  H117  1  0.66407649  0.82214441  0.51021918  1
  H  H118  1  0.83592351  0.17785559  0.51021918  1
  H  H119  1  0.33592351  0.32214441  0.98978082  1
  H  H120  1  0.74160178  0.25142580  0.38551237  1
  H  H121  1  0.24160178  0.24857420  0.11448763  1
  H  H122  1  0.25839822  0.75142580  0.11448763  1
  H  H123  1  0.75839822  0.74857420  0.38551237  1
  H  H124  1  0.25839822  0.74857420  0.61448763  1
  H  H125  1  0.75839822  0.75142580  0.88551237  1
  H  H126  1  0.74160178  0.24857420  0.88551237  1
  H  H127  1  0.24160178  0.25142580  0.61448763  1
  H  H128  1  0.72169479  0.78340534  0.78858672  1
  H  H129  1  0.22169479  0.71659466  0.71141328  1
  H  H130  1  0.27830521  0.28340534  0.71141328  1
  H  H131  1  0.77830521  0.21659466  0.78858672  1
  H  H132  1  0.27830521  0.21659466  0.21141328  1
  H  H133  1  0.77830521  0.28340534  0.28858672  1
  H  H134  1  0.72169479  0.71659466  0.28858672  1
  H  H135  1  0.22169479  0.78340534  0.21141328  1
  H  H136  1  0.79989517  0.35647176  0.36997949  1
  H  H137  1  0.29989517  0.14352824  0.13002051  1
  H  H138  1  0.20010483  0.85647176  0.13002051  1
  H  H139  1  0.70010483  0.64352824  0.36997949  1
  H  H140  1  0.20010483  0.64352824  0.63002051  1
  H  H141  1  0.70010483  0.85647176  0.86997949  1
  H  H142  1  0.79989517  0.14352824  0.86997949  1
  H  H143  1  0.29989517  0.35647176  0.63002051  1
  H  H144  1  0.08519753  0.38522229  0.67594193  1
  H  H145  1  0.58519753  0.11477771  0.82405807  1
  H  H146  1  0.91480247  0.88522229  0.82405807  1
  H  H147  1  0.41480247  0.61477771  0.67594193  1
  H  H148  1  0.91480247  0.61477771  0.32405807  1
  H  H149  1  0.41480247  0.88522229  0.17594193  1
  H  H150  1  0.08519753  0.11477771  0.17594193  1
  H  H151  1  0.58519753  0.38522229  0.32405807  1
  H  H152  1  0.85883442  0.00245907  0.88463182  1
  H  H153  1  0.35883442  0.49754093  0.61536818  1
  H  H154  1  0.14116558  0.50245907  0.61536818  1
  H  H155  1  0.64116558  0.99754093  0.88463182  1
  H  H156  1  0.14116558  0.99754093  0.11536818  1
  H  H157  1  0.64116558  0.50245907  0.38463182  1
  H  H158  1  0.85883442  0.49754093  0.38463182  1
  H  H159  1  0.35883442  0.00245907  0.11536818  1
  H  H160  1  0.89263062  0.01075854  0.75775529  1
  H  H161  1  0.39263062  0.48924146  0.74224471  1
  H  H162  1  0.10736938  0.51075854  0.74224471  1
  H  H163  1  0.60736938  0.98924146  0.75775529  1
  H  H164  1  0.10736938  0.98924146  0.24224471  1
  H  H165  1  0.60736938  0.51075854  0.25775529  1
  H  H166  1  0.89263062  0.48924146  0.25775529  1
  H  H167  1  0.39263062  0.01075854  0.24224471  1
  H  H168  1  0.99801715  0.50094148  0.65343203  1
  H  H169  1  0.49801715  0.99905852  0.84656797  1
  H  H170  1  0.00198285  0.00094148  0.84656797  1
  H  H171  1  0.50198285  0.49905852  0.65343203  1
  H  H172  1  0.00198285  0.49905852  0.34656797  1
  H  H173  1  0.50198285  0.00094148  0.15343203  1
  H  H174  1  0.99801715  0.99905852  0.15343203  1
  H  H175  1  0.49801715  0.50094148  0.34656797  1
  H  H176  1  0.89252042  0.80608669  0.42904959  1
  H  H177  1  0.39252042  0.69391331  0.07095041  1
  H  H178  1  0.10747958  0.30608669  0.07095041  1
  H  H179  1  0.60747958  0.19391331  0.42904959  1
  H  H180  1  0.10747958  0.19391331  0.57095041  1
  H  H181  1  0.60747958  0.30608669  0.92904959  1
  H  H182  1  0.89252042  0.69391331  0.92904959  1
  H  H183  1  0.39252042  0.80608669  0.57095041  1
  H  H184  1  0.96372283  0.93297219  0.40523042  1
  H  H185  1  0.46372283  0.56702781  0.09476958  1
  H  H186  1  0.03627717  0.43297219  0.09476958  1
  H  H187  1  0.53627717  0.06702781  0.40523042  1
  H  H188  1  0.03627717  0.06702781  0.59476958  1
  H  H189  1  0.53627717  0.43297219  0.90523042  1
  H  H190  1  0.96372283  0.56702781  0.90523042  1
  H  H191  1  0.46372283  0.93297219  0.59476958  1
  H  H192  1  0.83621923  0.90291312  0.34444622  1
  H  H193  1  0.33621923  0.59708688  0.15555378  1
  H  H194  1  0.16378077  0.40291312  0.15555378  1
  H  H195  1  0.66378077  0.09708688  0.34444622  1
  H  H196  1  0.16378077  0.09708688  0.65555378  1
  H  H197  1  0.66378077  0.40291312  0.84444622  1
  H  H198  1  0.83621923  0.59708688  0.84444622  1
  H  H199  1  0.33621923  0.90291312  0.65555378  1
  H  H200  1  0.83481074  0.93297664  0.47176810  1
  H  H201  1  0.33481074  0.56702336  0.02823190  1
  H  H202  1  0.16518926  0.43297664  0.02823190  1
  H  H203  1  0.66518926  0.06702336  0.47176810  1
  H  H204  1  0.16518926  0.06702336  0.52823190  1
  H  H205  1  0.66518926  0.43297664  0.97176810  1
  H  H206  1  0.83481074  0.56702336  0.97176810  1
  H  H207  1  0.33481074  0.93297664  0.52823190  1
  H  H208  1  0.85868952  0.32094934  0.61357269  1
  H  H209  1  0.35868952  0.17905066  0.88642731  1
  H  H210  1  0.14131048  0.82094934  0.88642731  1
  H  H211  1  0.64131048  0.67905066  0.61357269  1
  H  H212  1  0.14131048  0.67905066  0.38642731  1
  H  H213  1  0.64131048  0.82094934  0.11357269  1
  H  H214  1  0.85868952  0.17905066  0.11357269  1
  H  H215  1  0.35868952  0.32094934  0.38642731  1
  H  H216  1  0.76351006  0.77079988  0.05414481  1
  H  H217  1  0.26351006  0.72920012  0.44585519  1
  H  H218  1  0.23648994  0.27079988  0.44585519  1
  H  H219  1  0.73648994  0.22920012  0.05414481  1
  H  H220  1  0.23648994  0.22920012  0.94585519  1
  H  H221  1  0.73648994  0.27079988  0.55414481  1
  H  H222  1  0.76351006  0.72920012  0.55414481  1
  H  H223  1  0.26351006  0.77079988  0.94585519  1
  H  H224  1  0.77394284  0.82877058  0.17282764  1
  H  H225  1  0.27394284  0.67122942  0.32717236  1
  H  H226  1  0.22605716  0.32877058  0.32717236  1
  H  H227  1  0.72605716  0.17122942  0.17282764  1
  H  H228  1  0.22605716  0.17122942  0.82717236  1
  H  H229  1  0.72605716  0.32877058  0.67282764  1
  H  H230  1  0.77394284  0.67122942  0.67282764  1
  H  H231  1  0.27394284  0.82877058  0.82717236  1
  H  H232  1  0.70772810  0.80267070  0.65571438  1
  H  H233  1  0.20772810  0.69732930  0.84428562  1
  H  H234  1  0.29227190  0.30267070  0.84428562  1
  H  H235  1  0.79227190  0.19732930  0.65571438  1
  H  H236  1  0.29227190  0.19732930  0.34428562  1
  H  H237  1  0.79227190  0.30267070  0.15571438  1
  H  H238  1  0.70772810  0.69732930  0.15571438  1
  H  H239  1  0.20772810  0.80267070  0.34428562  1
  N  N0  1  0.98259987  0.32575026  0.44769400  1
  N  N1  1  0.48259987  0.17424974  0.05230600  1
  N  N2  1  0.01740013  0.82575026  0.05230600  1
  N  N3  1  0.51740013  0.67424974  0.44769400  1
  N  N4  1  0.01740013  0.67424974  0.55230600  1
  N  N5  1  0.51740013  0.82575026  0.94769400  1
  N  N6  1  0.98259987  0.17424974  0.94769400  1
  N  N7  1  0.48259987  0.32575026  0.55230600  1
  N  N8  1  0.97764510  0.29389046  0.25913914  1
  N  N9  1  0.47764510  0.20610954  0.24086086  1
  N  N10  1  0.02235490  0.79389046  0.24086086  1
  N  N11  1  0.52235490  0.70610954  0.25913914  1
  N  N12  1  0.02235490  0.70610954  0.74086086  1
  N  N13  1  0.52235490  0.79389046  0.75913914  1
  N  N14  1  0.97764510  0.20610954  0.75913914  1
  N  N15  1  0.47764510  0.29389046  0.74086086  1
  N  N16  1  0.92776695  0.85083073  0.62834982  1
  N  N17  1  0.42776695  0.64916927  0.87165018  1
  N  N18  1  0.07223305  0.35083073  0.87165018  1
  N  N19  1  0.57223305  0.14916927  0.62834982  1
  N  N20  1  0.07223305  0.14916927  0.37165018  1
  N  N21  1  0.57223305  0.35083073  0.12834982  1
  N  N22  1  0.92776695  0.64916927  0.12834982  1
  N  N23  1  0.42776695  0.85083073  0.37165018  1
  N  N24  1  0.88781172  0.39733633  0.78749253  1
  N  N25  1  0.38781172  0.10266367  0.71250747  1
  N  N26  1  0.11218828  0.89733633  0.71250747  1
  N  N27  1  0.61218828  0.60266367  0.78749253  1
  N  N28  1  0.11218828  0.60266367  0.21250747  1
  N  N29  1  0.61218828  0.89733633  0.28749253  1
  N  N30  1  0.88781172  0.10266367  0.28749253  1
  N  N31  1  0.38781172  0.39733633  0.21250747  1
  N  N32  1  0.88943922  0.35905589  0.97512633  1
  N  N33  1  0.38943922  0.14094411  0.52487367  1
  N  N34  1  0.11056078  0.85905589  0.52487367  1
  N  N35  1  0.61056078  0.64094411  0.97512633  1
  N  N36  1  0.11056078  0.64094411  0.02487367  1
  N  N37  1  0.61056078  0.85905589  0.47512633  1
  N  N38  1  0.88943922  0.14094411  0.47512633  1
  N  N39  1  0.38943922  0.35905589  0.02487367  1
  N  N40  1  0.79978864  0.28344377  0.35281678  1
  N  N41  1  0.29978864  0.21655623  0.14718322  1
  N  N42  1  0.20021136  0.78344377  0.14718322  1
  N  N43  1  0.70021136  0.71655623  0.35281678  1
  N  N44  1  0.20021136  0.71655623  0.64718322  1
  N  N45  1  0.70021136  0.78344377  0.85281678  1
  N  N46  1  0.79978864  0.21655623  0.85281678  1
  N  N47  1  0.29978864  0.28344377  0.64718322  1
loop_
_geom_bond_atom_site_label_1
_geom_bond_atom_site_label_2
_geom_bond_distance
_geom_bond_site_symmetry_2
Al0 N32 2.047263 1_555
Al0 N24 2.047928 1_555
Al0 N18 2.050954 1_655
Al0 N14 2.057428 1_555
Al0 N46 2.069275 1_555
Al0 N6 2.072355 1_555
Al1 N33 2.047263 1_555
Al1 N25 2.047928 1_555
Al1 N19 2.050954 1_555
Al1 N15 2.057428 1_555
Al1 N47 2.069275 1_555
Al1 N7 2.072355 1_555
Al2 N34 2.047263 1_555
Al2 N26 2.047928 1_555
Al2 N16 2.050954 1_455
Al2 N12 2.057428 1_555
Al2 N44 2.069275 1_555
Al2 N4 2.072355 1_555
Al3 N35 2.047263 1_555
Al3 N27 2.047928 1_555
Al3 N17 2.050954 1_555
Al3 N13 2.057428 1_555
Al3 N45 2.069275 1_555
Al3 N5 2.072355 1_555
Al4 N36 2.047263 1_555
Al4 N28 2.047928 1_555
Al4 N22 2.050954 1_455
Al4 N10 2.057428 1_555
Al4 N42 2.069275 1_555
Al4 N2 2.072355 1_555
Al5 N37 2.047263 1_555
Al5 N29 2.047928 1_555
Al5 N23 2.050954 1_555
Al5 N11 2.057428 1_555
Al5 N43 2.069275 1_555
Al5 N3 2.072355 1_555
Al6 N38 2.047263 1_555
Al6 N30 2.047928 1_555
Al6 N20 2.050954 1_655
Al6 N8 2.057428 1_555
Al6 N40 2.069275 1_555
Al6 N0 2.072355 1_555
Al7 N39 2.047263 1_555
Al7 N31 2.047928 1_555
Al7 N21 2.050954 1_555
Al7 N9 2.057428 1_555
Al7 N41 2.069275 1_555
Al7 N1 2.072355 1_555
B0 H154 1.226390 1_555
B0 H144 1.227200 1_555
B0 H162 1.233864 1_555
B0 H168 1.235796 1_455
B1 H155 1.226390 1_545
B1 H145 1.227200 1_555
B1 H163 1.233864 1_545
B1 H169 1.235796 1_545
B2 H152 1.226390 1_565
B2 H146 1.227200 1_555
B2 H160 1.233864 1_565
B2 H170 1.235796 1_665
B3 H153 1.226390 1_555
B3 H147 1.227200 1_555
B3 H161 1.233864 1_555
B3 H171 1.235796 1_555
B4 H158 1.226390 1_555
B4 H148 1.227200 1_555
B4 H166 1.233864 1_555
B4 H172 1.235796 1_655
B5 H159 1.226390 1_565
B5 H149 1.227200 1_555
B5 H167 1.233864 1_565
B5 H173 1.235796 1_565
B6 H156 1.226390 1_545
B6 H150 1.227200 1_555
B6 H164 1.233864 1_545
B6 H174 1.235796 1_445
B7 H157 1.226390 1_555
B7 H151 1.227200 1_555
B7 H165 1.233864 1_555
B7 H175 1.235796 1_555
B8 H176 1.228871 1_555
B8 H192 1.228872 1_555
B8 H184 1.230451 1_555
B8 H200 1.231345 1_555
B9 H177 1.228871 1_555
B9 H193 1.228872 1_555
B9 H185 1.230451 1_555
B9 H201 1.231345 1_555
B10 H178 1.228871 1_555
B10 H194 1.228872 1_555
B10 H186 1.230451 1_555
B10 H202 1.231345 1_555
B11 H179 1.228871 1_555
B11 H195 1.228872 1_555
B11 H187 1.230451 1_555
B11 H203 1.231345 1_555
B12 H180 1.228871 1_555
B12 H196 1.228872 1_555
B12 H188 1.230451 1_555
B12 H204 1.231345 1_555
B13 H181 1.228871 1_555
B13 H197 1.228872 1_555
B13 H189 1.230451 1_555
B13 H205 1.231345 1_555
B14 H182 1.228871 1_555
B14 H198 1.228872 1_555
B14 H190 1.230451 1_555
B14 H206 1.231345 1_555
B15 H183 1.228871 1_555
B15 H199 1.228872 1_555
B15 H191 1.230451 1_555
B15 H207 1.231345 1_555
B16 H216 1.228940 1_555
B16 H213 1.228964 1_555
B16 H224 1.231834 1_555
B16 H238 1.232278 1_555
B17 H217 1.228940 1_555
B17 H212 1.228964 1_555
B17 H225 1.231834 1_555
B17 H239 1.232278 1_555
B18 H218 1.228940 1_555
B18 H215 1.228964 1_555
B18 H226 1.231834 1_555
B18 H236 1.232278 1_555
B19 H219 1.228940 1_555
B19 H214 1.228964 1_555
B19 H227 1.231834 1_555
B19 H237 1.232278 1_555
B20 H220 1.228940 1_555
B20 H209 1.228964 1_555
B20 H228 1.231834 1_555
B20 H234 1.232278 1_555
B21 H221 1.228940 1_555
B21 H208 1.228964 1_555
B21 H229 1.231834 1_555
B21 H235 1.232278 1_555
B22 H222 1.228940 1_555
B22 H211 1.228964 1_555
B22 H230 1.231834 1_555
B22 H232 1.232278 1_555
B23 H223 1.228940 1_555
B23 H210 1.228964 1_555
B23 H231 1.231834 1_555
B23 H233 1.232278 1_555
H0 N0 1.033299 1_555
H1 N1 1.033299 1_555
H2 N2 1.033299 1_555
H3 N3 1.033299 1_555
H4 N4 1.033299 1_555
H5 N5 1.033299 1_555
H6 N6 1.033299 1_555
H7 N7 1.033299 1_555
H8 N2 1.029939 1_655
H9 N3 1.029939 1_555
H10 N0 1.029939 1_455
H11 N1 1.029939 1_555
H12 N6 1.029939 1_455
H13 N7 1.029939 1_555
H14 N4 1.029939 1_655
H15 N5 1.029939 1_555
H16 N0 1.030161 1_555
H17 N1 1.030161 1_556
H18 N2 1.030161 1_556
H19 N3 1.030161 1_555
H20 N4 1.030161 1_555
H21 N5 1.030161 1_554
H22 N6 1.030161 1_554
H23 N7 1.030161 1_555
H24 N8 1.032688 1_555
H25 N9 1.032688 1_555
H26 N10 1.032688 1_555
H27 N11 1.032688 1_555
H28 N12 1.032688 1_555
H29 N13 1.032688 1_555
H30 N14 1.032688 1_555
H31 N15 1.032688 1_555
H32 N10 1.028495 1_655
H33 N11 1.028495 1_555
H34 N8 1.028495 1_455
H35 N9 1.028495 1_555
H36 N14 1.028495 1_455
H37 N15 1.028495 1_555
H38 N12 1.028495 1_655
H39 N13 1.028495 1_555
H40 N8 1.030710 1_555
H41 N9 1.030710 1_555
H42 N10 1.030710 1_555
H43 N11 1.030710 1_555
H44 N12 1.030710 1_555
H45 N13 1.030710 1_555
H46 N14 1.030710 1_555
H47 N15 1.030710 1_555
H48 N16 1.031565 1_555
H49 N17 1.031565 1_555
H50 N18 1.031565 1_555
H51 N19 1.031565 1_555
H52 N20 1.031565 1_555
H53 N21 1.031565 1_555
H54 N22 1.031565 1_555
H55 N23 1.031565 1_555
H56 N16 1.032160 1_555
H57 N17 1.032160 1_555
H58 N18 1.032160 1_555
H59 N19 1.032160 1_555
H60 N20 1.032160 1_555
H61 N21 1.032160 1_555
H62 N22 1.032160 1_555
H63 N23 1.032160 1_555
H64 N16 1.033854 1_555
H65 N17 1.033854 1_555
H66 N18 1.033854 1_555
H67 N19 1.033854 1_555
H68 N20 1.033854 1_555
H69 N21 1.033854 1_555
H70 N22 1.033854 1_555
H71 N23 1.033854 1_555
H72 N24 1.031871 1_555
H73 N25 1.031871 1_555
H74 N26 1.031871 1_555
H75 N27 1.031871 1_555
H76 N28 1.031871 1_555
H77 N29 1.031871 1_555
H78 N30 1.031871 1_555
H79 N31 1.031871 1_555
H80 N24 1.030889 1_555
H81 N25 1.030889 1_555
H82 N26 1.030889 1_555
H83 N27 1.030889 1_555
H84 N28 1.030889 1_555
H85 N29 1.030889 1_555
H86 N30 1.030889 1_555
H87 N31 1.030889 1_555
H88 N24 1.034892 1_555
H89 N25 1.034892 1_555
H90 N26 1.034892 1_555
H91 N27 1.034892 1_555
H92 N28 1.034892 1_555
H93 N29 1.034892 1_555
H94 N30 1.034892 1_555
H95 N31 1.034892 1_555
H96 N32 1.033577 1_554
H97 N33 1.033577 1_555
H98 N34 1.033577 1_555
H99 N35 1.033577 1_554
H100 N36 1.033577 1_556
H101 N37 1.033577 1_555
H102 N38 1.033577 1_555
H103 N39 1.033577 1_556
H104 N32 1.030574 1_555
H105 N33 1.030574 1_555
H106 N34 1.030574 1_555
H107 N35 1.030574 1_555
H108 N36 1.030574 1_555
H109 N37 1.030574 1_555
H110 N38 1.030574 1_555
H111 N39 1.030574 1_555
H112 N32 1.033080 1_554
H113 N33 1.033080 1_555
H114 N34 1.033080 1_555
H115 N35 1.033080 1_554
H116 N36 1.033080 1_556
H117 N37 1.033080 1_555
H118 N38 1.033080 1_555
H119 N39 1.033080 1_556
H120 N40 1.030083 1_555
H121 N41 1.030083 1_555
H122 N42 1.030083 1_555
H123 N43 1.030083 1_555
H124 N44 1.030083 1_555
H125 N45 1.030083 1_555
H126 N46 1.030083 1_555
H127 N47 1.030083 1_555
H128 N45 1.031218 1_555
H129 N44 1.031218 1_555
H130 N47 1.031218 1_555
H131 N46 1.031218 1_555
H132 N41 1.031218 1_555
H133 N40 1.031218 1_555
H134 N43 1.031218 1_555
H135 N42 1.031218 1_555
H136 N40 1.029938 1_555
H137 N41 1.029938 1_555
H138 N42 1.029938 1_555
H139 N43 1.029938 1_555
H140 N44 1.029938 1_555
H141 N45 1.029938 1_555
H142 N46 1.029938 1_555
H143 N47 1.029938 1_555
