# generated using pymatgen
data_Na4ZnCd(SiO3)4
_symmetry_space_group_name_H-M   'P 1'
_cell_length_a   5.23291658
_cell_length_b   5.23291658
_cell_length_c   11.57744408
_cell_angle_alpha   77.54666082
_cell_angle_beta   77.54666082
_cell_angle_gamma   92.54813337
_symmetry_Int_Tables_number   1
_chemical_formula_structural   Na4ZnCd(SiO3)4
_chemical_formula_sum   'Na4 Zn1 Cd1 Si4 O12'
_cell_volume   300.90861818
_cell_formula_units_Z   1
loop_
 _symmetry_equiv_pos_site_id
 _symmetry_equiv_pos_as_xyz
  1  'x, y, z'
loop_
 _atom_site_type_symbol
 _atom_site_label
 _atom_site_symmetry_multiplicity
 _atom_site_fract_x
 _atom_site_fract_y
 _atom_site_fract_z
 _atom_site_occupancy
  Na  Na0  1  0.35648600  0.32374100  0.35504700  1
  Na  Na1  1  0.67625900  0.64351400  0.64495300  1
  Na  Na2  1  0.44926200  0.92607400  0.15902900  1
  Na  Na3  1  0.07392600  0.55073800  0.84097100  1
  Zn  Zn0  1  0.23776100  0.76223900  0.50000000  1
  Cd  Cd0  1  0.48843500  0.51156500  0.00000000  1
  Si  Si0  1  0.83111300  0.90479800  0.33468400  1
  Si  Si1  1  0.09520200  0.16888700  0.66531600  1
  Si  Si2  1  0.92122600  0.48509000  0.17511200  1
  Si  Si3  1  0.51491000  0.07877400  0.82488800  1
  O  O0  1  0.61616700  0.86718000  0.46204000  1
  O  O1  1  0.13282000  0.38383300  0.53796000  1
  O  O2  1  0.87282400  0.57524900  0.03952300  1
  O  O3  1  0.42475100  0.12717600  0.96047700  1
  O  O4  1  0.75958900  0.66442400  0.26715300  1
  O  O5  1  0.33557600  0.24041100  0.73284700  1
  O  O6  1  0.77605500  0.17833300  0.23889600  1
  O  O7  1  0.82166700  0.22394500  0.76110400  1
  O  O8  1  0.13464300  0.91861400  0.34646700  1
  O  O9  1  0.08138600  0.86535700  0.65353300  1
  O  O10  1  0.23099800  0.50505700  0.17742300  1
  O  O11  1  0.49494300  0.76900200  0.82257700  1
loop_
_geom_bond_atom_site_label_1
_geom_bond_atom_site_label_2
_geom_bond_distance
_geom_bond_site_symmetry_2
Na0 O1 2.281278 1_555
Na0 O10 2.314446 1_555
Na0 O8 2.402838 1_545
Na0 O6 2.554271 1_555
Na0 O4 2.573086 1_555
Na1 O0 2.281278 1_555
Na1 O11 2.314446 1_555
Na1 O9 2.402838 1_655
Na1 O7 2.554271 1_555
Na1 O5 2.573086 1_555
Na2 O3 2.346034 1_564
Na2 O10 2.381750 1_555
Na2 O8 2.416212 1_555
Na2 O4 2.532591 1_555
Na2 O6 2.555303 1_565
Na3 O2 2.346034 1_456
Na3 O11 2.381750 1_555
Na3 O9 2.416212 1_555
Na3 O5 2.532591 1_555
Na3 O7 2.555303 1_455
Cd0 O2 2.183939 1_555
Cd0 O3 2.183939 1_554
Cd0 O10 2.192625 1_555
Cd0 O11 2.192625 1_554
O0 Si0 1.617959 1_555
O0 Zn0 1.959506 1_555
O1 Si1 1.617959 1_555
O1 Zn0 1.959506 1_555
O2 Si2 1.616670 1_555
O3 Si3 1.616670 1_555
O4 Si0 1.685838 1_555
O4 Si2 1.686637 1_555
O5 Si1 1.685838 1_555
O5 Si3 1.686637 1_555
O6 Si2 1.684507 1_555
O6 Si0 1.688658 1_545
O7 Si3 1.684507 1_555
O7 Si1 1.688658 1_655
O8 Si0 1.623015 1_455
O8 Zn0 1.986448 1_555
O9 Si1 1.623015 1_565
O9 Zn0 1.986448 1_555
O10 Si2 1.626088 1_455
O11 Si3 1.626088 1_565
