# generated using pymatgen
data_As2Se3
_symmetry_space_group_name_H-M   'P 1'
_cell_length_a   3.73717398
_cell_length_b   7.30042581
_cell_length_c   9.68260008
_cell_angle_alpha   93.43549277
_cell_angle_beta   90.00000000
_cell_angle_gamma   104.83023354
_symmetry_Int_Tables_number   1
_chemical_formula_structural   As2Se3
_chemical_formula_sum   'As4 Se6'
_cell_volume   254.87896411
_cell_formula_units_Z   2
loop_
 _symmetry_equiv_pos_site_id
 _symmetry_equiv_pos_as_xyz
  1  'x, y, z'
loop_
 _atom_site_type_symbol
 _atom_site_label
 _atom_site_symmetry_multiplicity
 _atom_site_fract_x
 _atom_site_fract_y
 _atom_site_fract_z
 _atom_site_occupancy
  As  As0  1  0.61878435  0.23756769  0.42989563  1
  As  As1  1  0.38121565  0.76243331  0.57010437  1
  As  As2  1  0.20673297  0.41346394  0.13737840  1
  As  As3  1  0.79326703  0.58653606  0.86262160  1
  Se  Se0  1  0.03877072  0.07754143  0.29310585  1
  Se  Se1  1  0.96122928  0.92245857  0.70689415  1
  Se  Se2  1  0.77084781  0.54169462  0.33013695  1
  Se  Se3  1  0.22915219  0.45830538  0.66986305  1
  Se  Se4  1  0.36468548  0.72937095  0.03019553  1
  Se  Se5  1  0.63531452  0.27062905  0.96980447  1
loop_
_geom_bond_atom_site_label_1
_geom_bond_atom_site_label_2
_geom_bond_distance
_geom_bond_site_symmetry_2
As0 Se2 2.407618 1_555
As0 Se0 2.517107 1_655
As0 Se0 2.517110 1_555
As1 Se3 2.407624 1_555
As1 Se1 2.517103 1_455
As1 Se1 2.517108 1_555
As2 Se4 2.516796 1_555
As2 Se5 2.633933 1_554
As2 Se5 2.633938 1_454
As2 Se2 2.754018 1_555
As2 Se2 2.754020 1_455
As2 Se0 2.887374 1_555
As3 Se5 2.516796 1_555
As3 Se4 2.633933 1_556
As3 Se4 2.633938 1_656
As3 Se3 2.754018 1_555
As3 Se3 2.754020 1_655
As3 Se1 2.887374 1_555
