# generated using pymatgen
data_K3Te(PO7)2
_symmetry_space_group_name_H-M   'P 1'
_cell_length_a   6.44294600
_cell_length_b   7.35326154
_cell_length_c   16.25161316
_cell_angle_alpha   77.15542637
_cell_angle_beta   82.15878729
_cell_angle_gamma   71.21875698
_symmetry_Int_Tables_number   1
_chemical_formula_structural   K3Te(PO7)2
_chemical_formula_sum   'K6 Te2 P4 O28'
_cell_volume   708.95403193
_cell_formula_units_Z   2
loop_
 _symmetry_equiv_pos_site_id
 _symmetry_equiv_pos_as_xyz
  1  'x, y, z'
loop_
 _atom_site_type_symbol
 _atom_site_label
 _atom_site_symmetry_multiplicity
 _atom_site_fract_x
 _atom_site_fract_y
 _atom_site_fract_z
 _atom_site_occupancy
  K  K0  1  0.20027400  0.17136900  0.42493400  1
  K  K1  1  0.79972600  0.82863100  0.57506600  1
  K  K2  1  0.81691700  0.83474100  0.06880900  1
  K  K3  1  0.18308300  0.16525900  0.93119100  1
  K  K4  1  0.39670200  0.50971400  0.74357000  1
  K  K5  1  0.60329800  0.49028600  0.25643000  1
  Te  Te0  1  0.50000000  0.50000000  0.00000000  1
  Te  Te1  1  0.50000000  0.50000000  0.50000000  1
  P  P0  1  0.85305200  0.96527300  0.81743900  1
  P  P1  1  0.14694800  0.03472700  0.18256100  1
  P  P2  1  0.19384300  0.05819900  0.68722500  1
  P  P3  1  0.80615700  0.94180100  0.31277500  1
  O  O0  1  0.66372600  0.48178800  0.59391100  1
  O  O1  1  0.33627400  0.51821200  0.40608900  1
  O  O2  1  0.44812300  0.77945600  0.47896900  1
  O  O3  1  0.55187700  0.22054400  0.52103100  1
  O  O4  1  0.24675800  0.58831700  0.57607700  1
  O  O5  1  0.75324200  0.41168300  0.42392300  1
  O  O6  1  0.30764300  0.51009400  0.91721200  1
  O  O7  1  0.69235700  0.48990600  0.08278800  1
  O  O8  1  0.75429900  0.42188000  0.92278000  1
  O  O9  1  0.24570100  0.57812000  0.07722000  1
  O  O10  1  0.46077600  0.77551000  0.99152800  1
  O  O11  1  0.53922400  0.22449000  0.00847200  1
  O  O12  1  0.73856000  0.80088600  0.82831600  1
  O  O13  1  0.26144000  0.19911400  0.17168400  1
  O  O14  1  0.97232300  0.93091600  0.89635000  1
  O  O15  1  0.02767700  0.06908400  0.10365000  1
  O  O16  1  0.68412700  0.16249900  0.79681700  1
  O  O17  1  0.31587300  0.83750100  0.20318300  1
  O  O18  1  0.02935100  0.92685700  0.73671000  1
  O  O19  1  0.97064900  0.07314300  0.26329000  1
  O  O20  1  0.41596500  0.90367700  0.67947900  1
  O  O21  1  0.58403500  0.09632300  0.32052100  1
  O  O22  1  0.19542200  0.20021700  0.74209900  1
  O  O23  1  0.80457800  0.79978300  0.25790100  1
  O  O24  1  0.10650900  0.14938800  0.60024300  1
  O  O25  1  0.89349100  0.85061200  0.39975700  1
  O  O26  1  0.88759400  0.59015200  0.76248600  1
  O  O27  1  0.11240600  0.40984800  0.23751400  1
loop_
_geom_bond_atom_site_label_1
_geom_bond_atom_site_label_2
_geom_bond_distance
_geom_bond_site_symmetry_2
K0 O21 2.773155 1_555
K0 O24 2.810106 1_555
K0 O2 2.814315 1_545
K0 O5 2.853281 1_455
K0 O1 2.895646 1_555
K0 O3 3.073350 1_555
K0 O27 3.182677 1_555
K1 O20 2.773155 1_555
K1 O25 2.810106 1_555
K1 O3 2.814315 1_565
K1 O4 2.853281 1_655
K1 O0 2.895646 1_555
K1 O2 3.073350 1_555
K1 O26 3.182677 1_555
K2 O15 2.698931 1_665
K2 O9 2.800568 1_655
K2 O7 2.851265 1_555
K2 O14 2.857793 1_554
K2 O11 2.881606 1_565
K2 O10 2.950479 1_554
K2 O23 3.018495 1_555
K3 O14 2.698931 1_445
K3 O8 2.800568 1_455
K3 O6 2.851265 1_555
K3 O15 2.857793 1_556
K3 O10 2.881606 1_545
K3 O11 2.950479 1_556
K3 O22 3.018495 1_555
K4 O16 2.665956 1_555
K4 O0 2.787552 1_555
K4 O6 2.802388 1_555
K4 O4 2.887093 1_555
K4 O20 2.889130 1_555
K4 O22 2.965592 1_555
K4 O26 3.124131 1_455
K4 O18 3.204404 1_555
K5 O17 2.665956 1_555
K5 O1 2.787552 1_555
K5 O7 2.802388 1_555
K5 O5 2.887093 1_555
K5 O21 2.889130 1_555
K5 O23 2.965592 1_555
K5 O27 3.124131 1_655
K5 O19 3.204404 1_555
O0 Te1 1.928070 1_555
O1 Te1 1.928070 1_555
O2 Te1 1.930762 1_555
O3 Te1 1.930762 1_555
O4 Te1 1.933088 1_555
O5 Te1 1.933088 1_555
O6 Te0 1.924328 1_556
O7 Te0 1.924328 1_555
O8 Te0 1.934630 1_556
O9 Te0 1.934630 1_555
O10 Te0 1.934655 1_556
O11 Te0 1.934655 1_555
O12 P0 1.574842 1_555
O12 O26 1.991601 1_555
O13 P1 1.574842 1_555
O13 O27 1.991601 1_555
O14 P0 1.516186 1_555
O15 P1 1.516186 1_555
O16 P0 1.505716 1_545
O17 P1 1.505716 1_565
O18 P0 1.625686 1_455
O18 P2 1.668503 1_565
O19 P1 1.625686 1_655
O19 P3 1.668503 1_545
O20 P2 1.523933 1_565
O21 P3 1.523933 1_545
O22 P2 1.519648 1_555
O23 P3 1.519648 1_555
O24 P2 1.522217 1_555
O25 P3 1.522217 1_555
