# generated using pymatgen
data_MgTi(SiO3)2
_symmetry_space_group_name_H-M   'P 1'
_cell_length_a   6.76961054
_cell_length_b   6.76961054
_cell_length_c   5.22079464
_cell_angle_alpha   77.80909173
_cell_angle_beta   77.80909173
_cell_angle_gamma   85.54563503
_symmetry_Int_Tables_number   1
_chemical_formula_structural   MgTi(SiO3)2
_chemical_formula_sum   'Mg2 Ti2 Si4 O12'
_cell_volume   228.45054755
_cell_formula_units_Z   2
loop_
 _symmetry_equiv_pos_site_id
 _symmetry_equiv_pos_as_xyz
  1  'x, y, z'
loop_
 _atom_site_type_symbol
 _atom_site_label
 _atom_site_symmetry_multiplicity
 _atom_site_fract_x
 _atom_site_fract_y
 _atom_site_fract_z
 _atom_site_occupancy
  Mg  Mg0  1  0.74249600  0.25750400  0.75000000  1
  Mg  Mg1  1  0.25750400  0.74249600  0.25000000  1
  Ti  Ti0  1  0.91777800  0.08222200  0.25000000  1
  Ti  Ti1  1  0.08222200  0.91777800  0.75000000  1
  Si  Si0  1  0.39241000  0.20826300  0.24600700  1
  Si  Si1  1  0.79173700  0.60759000  0.25399300  1
  Si  Si2  1  0.20826300  0.39241000  0.74600700  1
  Si  Si3  1  0.60759000  0.79173700  0.75399300  1
  O  O0  1  0.38264600  0.31764400  0.50487700  1
  O  O1  1  0.68235600  0.61735400  0.99512300  1
  O  O2  1  0.61735400  0.68235600  0.49512300  1
  O  O3  1  0.31764400  0.38264600  0.00487700  1
  O  O4  1  0.62268400  0.14355500  0.12986900  1
  O  O5  1  0.85644500  0.37731600  0.37013100  1
  O  O6  1  0.37731600  0.85644500  0.87013100  1
  O  O7  1  0.14355500  0.62268400  0.62986900  1
  O  O8  1  0.02453600  0.23045000  0.84113500  1
  O  O9  1  0.76955000  0.97546400  0.65886500  1
  O  O10  1  0.23045000  0.02453600  0.34113500  1
  O  O11  1  0.97546400  0.76955000  0.15886500  1
loop_
_geom_bond_atom_site_label_1
_geom_bond_atom_site_label_2
_geom_bond_distance
_geom_bond_site_symmetry_2
Mg0 O4 1.989414 1_556
Mg0 O5 1.989414 1_555
Mg0 O9 2.048879 1_545
Mg0 O8 2.048879 1_655
Mg1 O7 1.989414 1_555
Mg1 O6 1.989414 1_554
Mg1 O11 2.048879 1_455
Mg1 O10 2.048879 1_565
O0 Si0 1.660288 1_555
O0 Si2 1.668297 1_555
O1 Si1 1.660288 1_556
O1 Si3 1.668297 1_555
O2 Si3 1.660288 1_555
O2 Si1 1.668297 1_555
O3 Si2 1.660288 1_554
O3 Si0 1.668297 1_555
O4 Si0 1.611366 1_555
O4 Ti0 2.201538 1_555
O5 Si1 1.611366 1_555
O5 Ti0 2.201538 1_555
O6 Si3 1.611366 1_555
O6 Ti1 2.201538 1_555
O7 Si2 1.611366 1_555
O7 Ti1 2.201538 1_555
O8 Si2 1.648231 1_555
O8 Ti0 2.154577 1_456
O8 Ti1 2.253362 1_545
O9 Si3 1.648231 1_555
O9 Ti0 2.154577 1_565
O9 Ti1 2.253362 1_655
O10 Si0 1.648231 1_555
O10 Ti1 2.154577 1_545
O10 Ti0 2.253362 1_455
O11 Si1 1.648231 1_555
O11 Ti1 2.154577 1_654
O11 Ti0 2.253362 1_565
