# generated using pymatgen
data_Na3Rh
_symmetry_space_group_name_H-M   'P 1'
_cell_length_a   5.37325793
_cell_length_b   5.37325793
_cell_length_c   5.37325793
_cell_angle_alpha   129.46391808
_cell_angle_beta   129.46391808
_cell_angle_gamma   74.26524647
_symmetry_Int_Tables_number   1
_chemical_formula_structural   Na3Rh
_chemical_formula_sum   'Na3 Rh1'
_cell_volume   90.14051502
_cell_formula_units_Z   1
loop_
 _symmetry_equiv_pos_site_id
 _symmetry_equiv_pos_as_xyz
  1  'x, y, z'
loop_
 _atom_site_type_symbol
 _atom_site_label
 _atom_site_symmetry_multiplicity
 _atom_site_fract_x
 _atom_site_fract_y
 _atom_site_fract_z
 _atom_site_occupancy
  Na  Na0  1  0.75000000  0.25000000  0.50000000  1
  Na  Na1  1  0.25000000  0.75000000  0.50000000  1
  Na  Na2  1  0.50000000  0.50000000  0.00000000  1
  Rh  Rh0  1  0.00000000  0.00000000  0.00000000  1
loop_
_geom_bond_atom_site_label_1
_geom_bond_atom_site_label_2
_geom_bond_distance
_geom_bond_site_symmetry_2
Na0 Rh0 3.138194 1_555
Na0 Na2 3.138194 1_656
Na0 Rh0 3.138194 1_666
Na0 Na2 3.138194 1_556
Na0 Na2 3.138194 1_555
Na0 Rh0 3.138194 1_656
Na0 Rh0 3.138194 1_655
Na0 Na2 3.138194 1_545
Na1 Rh0 3.138194 1_666
Na1 Na2 3.138194 1_455
Na1 Rh0 3.138194 1_566
Na1 Rh0 3.138194 1_555
Na1 Na2 3.138194 1_556
Na1 Na2 3.138194 1_555
Na1 Na2 3.138194 1_566
Na1 Rh0 3.138194 1_565
Na2 Rh0 3.243632 1_655
Na2 Rh0 3.243632 1_565
Na2 Rh0 3.243632 1_666
Na2 Rh0 3.243632 1_554
