# generated using pymatgen
data_AlWN3
_symmetry_space_group_name_H-M   'P 1'
_cell_length_a   6.04127735
_cell_length_b   5.53636347
_cell_length_c   11.22075316
_cell_angle_alpha   96.04980210
_cell_angle_beta   114.79215552
_cell_angle_gamma   92.22125818
_symmetry_Int_Tables_number   1
_chemical_formula_structural   AlWN3
_chemical_formula_sum   'Al4 W4 N12'
_cell_volume   337.37709367
_cell_formula_units_Z   4
loop_
 _symmetry_equiv_pos_site_id
 _symmetry_equiv_pos_as_xyz
  1  'x, y, z'
loop_
 _atom_site_type_symbol
 _atom_site_label
 _atom_site_symmetry_multiplicity
 _atom_site_fract_x
 _atom_site_fract_y
 _atom_site_fract_z
 _atom_site_occupancy
  Al  Al0  1  0.17481700  0.15503400  0.41644500  1
  Al  Al1  1  0.82518300  0.84496600  0.58355500  1
  Al  Al2  1  0.89994600  0.63918300  0.31944800  1
  Al  Al3  1  0.10005400  0.36081700  0.68055200  1
  W  W0  1  0.04504400  0.99536100  0.13082100  1
  W  W1  1  0.95495600  0.00463900  0.86917900  1
  W  W2  1  0.66042200  0.29791100  0.38711400  1
  W  W3  1  0.33957800  0.70208900  0.61288600  1
  N  N0  1  0.32749300  0.16009100  0.29721700  1
  N  N1  1  0.67250700  0.83990900  0.70278300  1
  N  N2  1  0.15169200  0.83670200  0.01219200  1
  N  N3  1  0.84830800  0.16329800  0.98780800  1
  N  N4  1  0.87661900  0.78144600  0.17836700  1
  N  N5  1  0.12338100  0.21855400  0.82163300  1
  N  N6  1  0.17200600  0.83244900  0.45669800  1
  N  N7  1  0.82799400  0.16755100  0.54330200  1
  N  N8  1  0.87964200  0.28871000  0.30698800  1
  N  N9  1  0.12035800  0.71129000  0.69301200  1
  N  N10  1  0.68893600  0.63689400  0.42078300  1
  N  N11  1  0.31106400  0.36310600  0.57921700  1
loop_
_geom_bond_atom_site_label_1
_geom_bond_atom_site_label_2
_geom_bond_distance
_geom_bond_site_symmetry_2
Al0 N11 1.887478 1_555
Al0 N6 1.888919 1_545
Al0 N0 1.918872 1_555
Al0 N8 1.921772 1_455
Al1 N10 1.887478 1_555
Al1 N7 1.888919 1_565
Al1 N1 1.918872 1_555
Al1 N9 1.921772 1_655
Al2 N4 1.797367 1_555
Al2 N6 1.900406 1_655
Al2 N8 1.926012 1_555
Al2 N10 2.033592 1_555
Al3 N5 1.797367 1_555
Al3 N7 1.900406 1_455
Al3 N9 1.926012 1_555
Al3 N11 2.033592 1_555
N0 W2 1.913740 1_555
N0 W0 2.019399 1_545
N1 W3 1.913740 1_555
N1 W1 2.019399 1_565
N2 W0 1.864186 1_555
N2 W1 1.911229 1_464
N3 W1 1.864186 1_555
N3 W0 1.911229 1_646
N4 W0 1.793754 1_655
N5 W1 1.793754 1_455
N6 W3 1.858081 1_555
N7 W2 1.858081 1_555
N8 W2 1.886544 1_555
N9 W3 1.886544 1_555
N10 W2 1.861569 1_555
N11 W3 1.861569 1_555
