# generated using pymatgen
data_Tm2Fe17C3
_symmetry_space_group_name_H-M   'P 1'
_cell_length_a   8.32795800
_cell_length_b   8.59920303
_cell_length_c   8.59920303
_cell_angle_alpha   119.99999256
_cell_angle_beta   90.00000000
_cell_angle_gamma   90.00000000
_symmetry_Int_Tables_number   1
_chemical_formula_structural   Tm2Fe17C3
_chemical_formula_sum   'Tm4 Fe34 C6'
_cell_volume   533.31720774
_cell_formula_units_Z   2
loop_
 _symmetry_equiv_pos_site_id
 _symmetry_equiv_pos_as_xyz
  1  'x, y, z'
loop_
 _atom_site_type_symbol
 _atom_site_label
 _atom_site_symmetry_multiplicity
 _atom_site_fract_x
 _atom_site_fract_y
 _atom_site_fract_z
 _atom_site_occupancy
  Tm  Tm0  1  0.75000000  0.66666700  0.33333300  1
  Tm  Tm1  1  0.25000000  0.33333300  0.66666700  1
  Tm  Tm2  1  0.75000000  0.00000000  0.00000000  1
  Tm  Tm3  1  0.25000000  0.00000000  0.00000000  1
  Fe  Fe0  1  0.75000000  0.62203700  0.67418200  1
  Fe  Fe1  1  0.25000000  0.37796300  0.32581800  1
  Fe  Fe2  1  0.75000000  0.05214500  0.37796300  1
  Fe  Fe3  1  0.25000000  0.94785500  0.32581800  1
  Fe  Fe4  1  0.25000000  0.94785500  0.62203700  1
  Fe  Fe5  1  0.75000000  0.05214500  0.67418200  1
  Fe  Fe6  1  0.75000000  0.32581800  0.94785500  1
  Fe  Fe7  1  0.25000000  0.67418200  0.62203700  1
  Fe  Fe8  1  0.25000000  0.67418200  0.05214500  1
  Fe  Fe9  1  0.75000000  0.32581800  0.37796300  1
  Fe  Fe10  1  0.25000000  0.37796300  0.05214500  1
  Fe  Fe11  1  0.75000000  0.62203700  0.94785500  1
  Fe  Fe12  1  0.39321300  0.66666700  0.33333300  1
  Fe  Fe13  1  0.60678700  0.33333300  0.66666700  1
  Fe  Fe14  1  0.89321300  0.33333300  0.66666700  1
  Fe  Fe15  1  0.10678700  0.66666700  0.33333300  1
  Fe  Fe16  1  0.97999500  0.83205400  0.16794600  1
  Fe  Fe17  1  0.02000500  0.16794600  0.83205400  1
  Fe  Fe18  1  0.97999500  0.33589200  0.16794600  1
  Fe  Fe19  1  0.47999500  0.16794600  0.83205400  1
  Fe  Fe20  1  0.02000500  0.66410800  0.83205400  1
  Fe  Fe21  1  0.52000500  0.83205400  0.16794600  1
  Fe  Fe22  1  0.97999500  0.83205400  0.66410800  1
  Fe  Fe23  1  0.47999500  0.66410800  0.83205400  1
  Fe  Fe24  1  0.02000500  0.16794600  0.33589200  1
  Fe  Fe25  1  0.52000500  0.33589200  0.16794600  1
  Fe  Fe26  1  0.47999500  0.16794600  0.33589200  1
  Fe  Fe27  1  0.52000500  0.83205400  0.66410800  1
  Fe  Fe28  1  0.00000000  0.50000000  0.50000000  1
  Fe  Fe29  1  0.00000000  0.00000000  0.50000000  1
  Fe  Fe30  1  0.50000000  0.50000000  0.50000000  1
  Fe  Fe31  1  0.00000000  0.50000000  0.00000000  1
  Fe  Fe32  1  0.50000000  0.00000000  0.50000000  1
  Fe  Fe33  1  0.50000000  0.50000000  0.00000000  1
  C  C0  1  0.75000000  0.83454900  0.16545100  1
  C  C1  1  0.25000000  0.16545100  0.83454900  1
  C  C2  1  0.75000000  0.33090300  0.16545100  1
  C  C3  1  0.25000000  0.66909700  0.83454900  1
  C  C4  1  0.75000000  0.83454900  0.66909700  1
  C  C5  1  0.25000000  0.16545100  0.33090300  1
loop_
_geom_bond_atom_site_label_1
_geom_bond_atom_site_label_2
_geom_bond_distance
_geom_bond_site_symmetry_2
Fe0 Fe28 2.471356 1_655
Fe0 Fe30 2.471356 1_555
Fe0 Fe14 2.725735 1_555
Fe0 Fe13 2.725735 1_555
Fe1 Fe28 2.471356 1_555
Fe1 Fe30 2.471356 1_555
Fe1 Fe12 2.725735 1_555
Fe1 Fe15 2.725735 1_555
Fe2 Fe29 2.471355 1_655
Fe2 Fe32 2.471355 1_555
Fe3 Fe32 2.471356 1_565
Fe10 Fe33 2.471355 1_555
Fe10 Fe31 2.471355 1_555
Fe10 Fe12 2.725731 1_555
Fe10 Fe15 2.725731 1_555
Fe11 Fe31 2.471355 1_656
Fe11 Fe33 2.471355 1_556
Fe11 Fe14 2.725731 1_555
Fe11 Fe13 2.725731 1_555
Fe12 Fe15 2.385344 1_555
Fe12 Fe32 2.636867 1_565
Fe12 Fe33 2.636867 1_555
Fe12 Fe30 2.636873 1_555
Fe12 Fe21 2.680092 1_555
Fe12 Fe27 2.680099 1_555
Fe12 Fe25 2.680099 1_555
Fe12 Fe8 2.725727 1_555
Fe12 Fe3 2.725727 1_555
Fe12 Fe4 2.725731 1_555
Fe12 Fe7 2.725735 1_555
Fe12 Tm0 2.971307 1_555
Fe13 Fe14 2.385344 1_555
Fe13 Fe33 2.636867 1_556
Fe13 Fe32 2.636867 1_555
Fe13 Fe30 2.636873 1_555
Fe13 Fe19 2.680092 1_555
Fe13 Fe23 2.680099 1_555
Fe13 Fe26 2.680099 1_555
Fe13 Fe5 2.725727 1_555
Fe13 Fe6 2.725727 1_555
Fe13 Fe2 2.725731 1_555
Fe13 Fe9 2.725735 1_555
Fe13 Tm1 2.971307 1_555
Fe14 Fe31 2.636867 1_656
Fe14 Fe29 2.636867 1_655
Fe14 Fe28 2.636873 1_655
Fe14 Fe17 2.680092 1_655
Fe14 Fe20 2.680099 1_655
Fe14 Fe24 2.680099 1_655
Fe14 Fe6 2.725727 1_555
Fe14 Fe5 2.725727 1_555
Fe14 Fe2 2.725731 1_555
Fe14 Fe9 2.725735 1_555
Fe14 Tm1 2.971307 1_655
Fe15 Fe29 2.636867 1_565
Fe15 Fe31 2.636867 1_555
Fe15 Fe28 2.636873 1_555
Fe15 Fe16 2.680092 1_455
Fe15 Fe22 2.680099 1_455
Fe15 Fe18 2.680099 1_455
Fe15 Fe8 2.725727 1_555
Fe15 Fe3 2.725727 1_555
Fe15 Fe4 2.725731 1_555
Fe15 Fe7 2.725735 1_555
Fe15 Tm0 2.971307 1_455
Fe16 Fe31 2.478510 1_655
Fe16 Fe29 2.478510 1_665
Fe17 Fe29 2.478510 1_555
Fe17 Fe31 2.478510 1_556
Fe18 Fe31 2.478509 1_655
Fe18 Fe28 2.478510 1_655
Fe19 Fe32 2.478510 1_555
Fe19 Fe33 2.478510 1_556
Fe20 Fe31 2.478509 1_556
Fe20 Fe28 2.478510 1_555
Fe21 Fe33 2.478510 1_555
Fe21 Fe32 2.478510 1_565
Fe22 Fe29 2.478509 1_665
Fe22 Fe28 2.478510 1_655
Fe23 Fe33 2.478509 1_556
Fe23 Fe30 2.478510 1_555
Fe24 Fe29 2.478509 1_555
Fe24 Fe28 2.478510 1_555
Fe25 Fe33 2.478509 1_555
Fe25 Fe30 2.478510 1_555
Fe26 Fe32 2.478509 1_555
Fe26 Fe30 2.478510 1_555
Fe27 Fe32 2.478509 1_565
Fe27 Fe30 2.478510 1_555
Fe28 Fe7 2.471356 1_555
Fe28 Fe9 2.471356 1_455
Fe28 Tm1 3.239891 1_555
Fe28 Tm0 3.239891 1_455
Fe29 Fe4 2.471355 1_545
Fe29 Fe3 2.471356 1_545
Fe29 Fe5 2.471356 1_455
Fe29 Tm0 3.239886 1_445
Fe29 Tm1 3.239886 1_555
Fe30 Fe7 2.471356 1_555
Fe30 Fe9 2.471356 1_555
Fe30 Tm1 3.239891 1_555
Fe30 Tm0 3.239891 1_555
Fe31 Fe8 2.471356 1_555
Fe31 Fe6 2.471356 1_454
Fe31 Tm1 3.239886 1_554
Fe31 Tm0 3.239886 1_455
Fe32 Fe4 2.471355 1_545
Fe32 Fe5 2.471356 1_555
Fe32 Tm0 3.239886 1_545
Fe32 Tm1 3.239886 1_555
Fe33 Fe8 2.471356 1_555
Fe33 Fe6 2.471356 1_554
Fe33 Tm1 3.239886 1_554
Fe33 Tm0 3.239886 1_555
C0 Fe2 1.849681 1_565
C0 Fe11 1.849681 1_554
C0 Fe16 1.915749 1_555
C0 Fe21 1.915749 1_555
C0 Tm2 2.464270 1_565
C0 Tm0 2.500477 1_555
C1 Fe10 1.849681 1_556
C1 Fe4 1.849681 1_545
C1 Fe19 1.915749 1_555
C1 Fe17 1.915749 1_555
C1 Tm3 2.464270 1_556
C1 Tm1 2.500477 1_555
C2 Fe6 1.849676 1_554
C2 Fe9 1.849685 1_555
C2 Fe18 1.915749 1_555
C2 Fe25 1.915749 1_555
C2 Tm2 2.464277 1_555
C2 Tm0 2.500478 1_555
C3 Fe8 1.849676 1_556
C3 Fe7 1.849685 1_555
C3 Fe23 1.915749 1_555
C3 Fe20 1.915749 1_555
C3 Tm3 2.464277 1_566
C3 Tm1 2.500478 1_555
C4 Fe5 1.849676 1_565
C4 Fe0 1.849685 1_555
C4 Fe22 1.915749 1_555
C4 Fe27 1.915749 1_555
C4 Tm2 2.464277 1_566
C4 Tm0 2.500478 1_555
C5 Fe3 1.849676 1_545
C5 Fe1 1.849685 1_555
C5 Fe26 1.915749 1_555
C5 Fe24 1.915749 1_555
C5 Tm3 2.464277 1_555
C5 Tm1 2.500478 1_555
