# generated using pymatgen
data_Te2MoW3(Se2S)2
_symmetry_space_group_name_H-M   'P 1'
_cell_length_a   3.34308875
_cell_length_b   3.34308875
_cell_length_c   38.75318300
_cell_angle_alpha   90.00000000
_cell_angle_beta   90.00000000
_cell_angle_gamma   120.00001482
_symmetry_Int_Tables_number   1
_chemical_formula_structural   Te2MoW3(Se2S)2
_chemical_formula_sum   'Te2 Mo1 W3 Se4 S2'
_cell_volume   375.08850760
_cell_formula_units_Z   1
loop_
 _symmetry_equiv_pos_site_id
 _symmetry_equiv_pos_as_xyz
  1  'x, y, z'
loop_
 _atom_site_type_symbol
 _atom_site_label
 _atom_site_symmetry_multiplicity
 _atom_site_fract_x
 _atom_site_fract_y
 _atom_site_fract_z
 _atom_site_occupancy
  Te  Te0  1  0.33333300  0.66666700  0.42040900  1
  Te  Te1  1  0.33333300  0.66666700  0.51887300  1
  Mo  Mo0  1  0.00000000  0.00000000  0.09393700  1
  W  W0  1  0.00000000  0.00000000  0.46961600  1
  W  W1  1  0.33333300  0.66666700  0.28178800  1
  W  W2  1  0.33333300  0.66666700  0.65756600  1
  Se  Se0  1  0.00000000  0.00000000  0.70080900  1
  Se  Se1  1  0.33333300  0.66666700  0.05088500  1
  Se  Se2  1  0.33333300  0.66666700  0.13699400  1
  Se  Se3  1  0.00000000  0.00000000  0.61427400  1
  S  S0  1  0.00000000  0.00000000  0.32108600  1
  S  S1  1  0.00000000  0.00000000  0.24251000  1
loop_
_geom_bond_atom_site_label_1
_geom_bond_atom_site_label_2
_geom_bond_distance
_geom_bond_site_symmetry_2
Te0 W0 2.713260 1_565
Te0 W0 2.713262 1_665
Te0 W0 2.713262 1_555
Te1 W0 2.714622 1_565
Te1 W0 2.714624 1_555
Te1 W0 2.714624 1_665
Mo0 Se1 2.551269 1_545
Mo0 Se1 2.551271 1_445
Mo0 Se1 2.551271 1_555
Mo0 Se2 2.551396 1_545
Mo0 Se2 2.551397 1_445
Mo0 Se2 2.551397 1_555
Se0 W2 2.556115 1_545
Se0 W2 2.556117 1_555
Se0 W2 2.556117 1_445
Se3 W2 2.557361 1_545
Se3 W2 2.557363 1_555
Se3 W2 2.557363 1_445
S0 W1 2.458597 1_545
S0 W1 2.458599 1_555
S0 W1 2.458599 1_445
S1 W1 2.458117 1_545
S1 W1 2.458119 1_555
S1 W1 2.458119 1_445
