# generated using pymatgen
data_PrIClO13
_symmetry_space_group_name_H-M   'P 1'
_cell_length_a   6.58323700
_cell_length_b   12.95352400
_cell_length_c   14.56712789
_cell_angle_alpha   72.16852167
_cell_angle_beta   90.00000000
_cell_angle_gamma   90.00000000
_symmetry_Int_Tables_number   1
_chemical_formula_structural   PrIClO13
_chemical_formula_sum   'Pr4 I4 Cl4 O52'
_cell_volume   1182.55309936
_cell_formula_units_Z   4
loop_
 _symmetry_equiv_pos_site_id
 _symmetry_equiv_pos_as_xyz
  1  'x, y, z'
loop_
 _atom_site_type_symbol
 _atom_site_label
 _atom_site_symmetry_multiplicity
 _atom_site_fract_x
 _atom_site_fract_y
 _atom_site_fract_z
 _atom_site_occupancy
  Pr  Pr0  1  0.04707000  0.16091700  0.98312500  1
  Pr  Pr1  1  0.54707000  0.33908300  0.01687500  1
  Pr  Pr2  1  0.95293000  0.83908300  0.01687500  1
  Pr  Pr3  1  0.45293000  0.66091700  0.98312500  1
  I  I0  1  0.58373700  0.04260700  0.08492200  1
  I  I1  1  0.08373700  0.45739300  0.91507800  1
  I  I2  1  0.41626300  0.95739300  0.91507800  1
  I  I3  1  0.91626300  0.54260700  0.08492200  1
  Cl  Cl0  1  0.62823200  0.32047400  0.52741700  1
  Cl  Cl1  1  0.12823200  0.17952600  0.47258300  1
  Cl  Cl2  1  0.37176800  0.67952600  0.47258300  1
  Cl  Cl3  1  0.87176800  0.82047400  0.52741700  1
  O  O0  1  0.84455000  0.98561800  0.06489000  1
  O  O1  1  0.34455000  0.51438200  0.93511000  1
  O  O2  1  0.15545000  0.01438200  0.93511000  1
  O  O3  1  0.65545000  0.48561800  0.06489000  1
  O  O4  1  0.73825800  0.17453900  0.06186600  1
  O  O5  1  0.23825800  0.32546100  0.93813400  1
  O  O6  1  0.26174200  0.82546100  0.93813400  1
  O  O7  1  0.76174200  0.67453900  0.06186600  1
  O  O8  1  0.00820500  0.22760500  0.78226900  1
  O  O9  1  0.50820500  0.27239500  0.21773100  1
  O  O10  1  0.99179500  0.77239500  0.21773100  1
  O  O11  1  0.49179500  0.72760500  0.78226900  1
  O  O12  1  0.15714900  0.26263400  0.73082700  1
  O  O13  1  0.65714900  0.23736600  0.26917300  1
  O  O14  1  0.84285100  0.73736600  0.26917300  1
  O  O15  1  0.34285100  0.76263400  0.73082700  1
  O  O16  1  0.11739100  0.04936700  0.26611300  1
  O  O17  1  0.61739100  0.45063300  0.73388700  1
  O  O18  1  0.88260900  0.95063300  0.73388700  1
  O  O19  1  0.38260900  0.54936700  0.26611300  1
  O  O20  1  0.35234100  0.13569000  0.07258900  1
  O  O21  1  0.85234100  0.36431000  0.92741100  1
  O  O22  1  0.64765900  0.86431000  0.92741100  1
  O  O23  1  0.14765900  0.63569000  0.07258900  1
  O  O24  1  0.58714600  0.98979200  0.21300200  1
  O  O25  1  0.08714600  0.51020800  0.78699800  1
  O  O26  1  0.41285400  0.01020800  0.78699800  1
  O  O27  1  0.91285400  0.48979200  0.21300200  1
  O  O28  1  0.56513600  0.08257800  0.93550500  1
  O  O29  1  0.06513600  0.41742200  0.06449500  1
  O  O30  1  0.43486400  0.91742200  0.06449500  1
  O  O31  1  0.93486400  0.58257800  0.93550500  1
  O  O32  1  0.81075400  0.38803200  0.51565100  1
  O  O33  1  0.31075400  0.11196800  0.48434900  1
  O  O34  1  0.18924600  0.61196800  0.48434900  1
  O  O35  1  0.68924600  0.88803200  0.51565100  1
  O  O36  1  0.60266700  0.25582800  0.62688000  1
  O  O37  1  0.10266700  0.24417200  0.37312000  1
  O  O38  1  0.39733300  0.74417200  0.37312000  1
  O  O39  1  0.89733300  0.75582800  0.62688000  1
  O  O40  1  0.64277500  0.25195600  0.46464200  1
  O  O41  1  0.14277500  0.24804400  0.53535800  1
  O  O42  1  0.35722500  0.74804400  0.53535800  1
  O  O43  1  0.85722500  0.75195600  0.46464200  1
  O  O44  1  0.45665000  0.39516200  0.49537300  1
  O  O45  1  0.95665000  0.10483800  0.50462700  1
  O  O46  1  0.54335000  0.60483800  0.50462700  1
  O  O47  1  0.04335000  0.89516200  0.49537300  1
  O  O48  1  0.73512900  0.98513400  0.68380000  1
  O  O49  1  0.23512900  0.51486600  0.31620000  1
  O  O50  1  0.26487100  0.01486600  0.31620000  1
  O  O51  1  0.76487100  0.48513400  0.68380000  1
loop_
_geom_bond_atom_site_label_1
_geom_bond_atom_site_label_2
_geom_bond_distance
_geom_bond_site_symmetry_2
I0 O24 1.779850 1_545
I0 O20 1.916768 1_555
I0 O0 1.926162 1_545
I0 O4 1.927874 1_555
I0 O30 1.993523 1_545
I0 O28 2.080955 1_554
I1 O25 1.779850 1_555
I1 O21 1.916768 1_455
I1 O1 1.926162 1_555
I1 O5 1.927874 1_555
I1 O31 1.993523 1_455
I1 O29 2.080955 1_556
I2 O26 1.779850 1_565
I2 O22 1.916768 1_555
I2 O2 1.926162 1_565
I2 O6 1.927874 1_555
I2 O28 1.993523 1_565
I2 O30 2.080955 1_556
I3 O27 1.779850 1_555
I3 O23 1.916768 1_655
I3 O3 1.926162 1_555
I3 O7 1.927874 1_555
I3 O29 1.993523 1_655
I3 O31 2.080955 1_554
Cl0 O36 1.444220 1_555
Cl0 O40 1.459520 1_555
Cl0 O32 1.465315 1_555
Cl0 O44 1.467390 1_555
Cl1 O37 1.444220 1_555
Cl1 O41 1.459520 1_555
Cl1 O33 1.465315 1_555
Cl1 O45 1.467390 1_455
Cl2 O38 1.444220 1_555
Cl2 O42 1.459520 1_555
Cl2 O34 1.465315 1_555
Cl2 O46 1.467390 1_555
Cl3 O39 1.444220 1_555
Cl3 O43 1.459520 1_555
Cl3 O35 1.465315 1_555
Cl3 O47 1.467390 1_655
O0 Pr2 2.326872 1_555
O0 Pr0 2.587670 1_664
O1 Pr3 2.326872 1_555
O1 Pr1 2.587670 1_556
O2 Pr0 2.326872 1_555
O2 Pr2 2.587670 1_446
O3 Pr1 2.326872 1_555
O3 Pr3 2.587670 1_554
O4 Pr0 2.367232 1_654
O4 Pr1 2.387708 1_555
O5 Pr1 2.367232 1_556
O5 Pr0 2.387708 1_555
O6 Pr2 2.367232 1_456
O6 Pr3 2.387708 1_555
O7 Pr3 2.367232 1_554
O7 Pr2 2.387708 1_555
O8 Pr0 2.797250 1_555
O9 Pr1 2.797250 1_555
O10 O14 1.233141 1_555
O10 Pr2 2.797250 1_555
O11 O15 1.233141 1_555
O11 Pr3 2.797250 1_555
O12 O8 1.233141 1_555
O13 O9 1.233141 1_555
O16 O50 1.214503 1_555
O17 O51 1.214503 1_555
O18 O48 1.214503 1_555
O19 O49 1.214503 1_555
O20 Pr0 2.362872 1_554
O20 Pr1 2.816723 1_555
O21 Pr1 2.362872 1_556
O21 Pr0 2.816723 1_655
O22 Pr2 2.362872 1_556
O22 Pr3 2.816723 1_555
O23 Pr3 2.362872 1_554
O23 Pr2 2.816723 1_455
