# generated using pymatgen
data_LaV2O2
_symmetry_space_group_name_H-M   'P 1'
_cell_length_a   8.39783130
_cell_length_b   8.39783130
_cell_length_c   8.39783130
_cell_angle_alpha   118.47724724
_cell_angle_beta   118.47724724
_cell_angle_gamma   92.65836228
_symmetry_Int_Tables_number   1
_chemical_formula_structural   LaV2O2
_chemical_formula_sum   'La4 V8 O8'
_cell_volume   427.92104467
_cell_formula_units_Z   4
loop_
 _symmetry_equiv_pos_site_id
 _symmetry_equiv_pos_as_xyz
  1  'x, y, z'
loop_
 _atom_site_type_symbol
 _atom_site_label
 _atom_site_symmetry_multiplicity
 _atom_site_fract_x
 _atom_site_fract_y
 _atom_site_fract_z
 _atom_site_occupancy
  La  La0  1  0.87500000  0.12500000  0.25000000  1
  La  La1  1  0.87500000  0.62500000  0.75000000  1
  La  La2  1  0.37500000  0.12500000  0.25000000  1
  La  La3  1  0.87500000  0.12500000  0.75000000  1
  V  V0  1  0.56646100  0.39256800  0.82610800  1
  V  V1  1  0.56646100  0.74035300  0.17389200  1
  V  V2  1  0.49035300  0.81646100  0.67389200  1
  V  V3  1  0.18353900  0.50964700  0.32610800  1
  V  V4  1  0.18353900  0.85743200  0.67389200  1
  V  V5  1  0.14256800  0.81646100  0.32610800  1
  V  V6  1  0.25964700  0.43353900  0.82610800  1
  V  V7  1  0.60743200  0.43353900  0.17389200  1
  O  O0  1  0.66641100  0.32679300  0.66038200  1
  O  O1  1  0.66641100  0.00602800  0.33961800  1
  O  O2  1  0.75602800  0.91641100  0.83961800  1
  O  O3  1  0.08358900  0.24397200  0.16038200  1
  O  O4  1  0.08358900  0.92320700  0.83961800  1
  O  O5  1  0.07679300  0.91641100  0.16038200  1
  O  O6  1  0.99397200  0.33358900  0.66038200  1
  O  O7  1  0.67320700  0.33358900  0.33961800  1
loop_
_geom_bond_atom_site_label_1
_geom_bond_atom_site_label_2
_geom_bond_distance
_geom_bond_site_symmetry_2
La0 O3 2.538688 1_655
La0 O1 2.538688 1_555
La0 O2 2.596338 1_544
La0 O6 2.596338 1_555
La0 O7 2.596341 1_555
La0 O5 2.596341 1_645
La1 O4 2.538683 1_655
La1 O0 2.538683 1_555
La1 O5 2.596341 1_656
La1 O7 2.596341 1_555
La1 O2 2.596346 1_555
La1 O6 2.596346 1_555
La2 O7 2.538683 1_555
La2 O5 2.538683 1_545
La2 O4 2.596341 1_544
La2 O0 2.596341 1_555
La2 O3 2.596346 1_555
La2 O1 2.596346 1_555
La3 O6 2.538688 1_555
La3 O2 2.538688 1_545
La3 O1 2.596338 1_555
La3 O3 2.596338 1_656
La3 O4 2.596341 1_645
La3 O0 2.596341 1_555
O0 V0 1.835888 1_555
O1 V1 1.835880 1_545
O2 V2 1.835880 1_555
O3 V3 1.835880 1_555
O4 V4 1.835888 1_555
O5 V5 1.835888 1_555
O6 V6 1.835880 1_655
O7 V7 1.835888 1_555
