# generated using pymatgen
data_Sr2TbTaO6
_symmetry_space_group_name_H-M   'P 1'
_cell_length_a   5.84887354
_cell_length_b   5.96145300
_cell_length_c   8.33296327
_cell_angle_alpha   90.00000000
_cell_angle_beta   90.23028424
_cell_angle_gamma   90.00000000
_symmetry_Int_Tables_number   1
_chemical_formula_structural   Sr2TbTaO6
_chemical_formula_sum   'Sr4 Tb2 Ta2 O12'
_cell_volume   290.54962234
_cell_formula_units_Z   2
loop_
 _symmetry_equiv_pos_site_id
 _symmetry_equiv_pos_as_xyz
  1  'x, y, z'
loop_
 _atom_site_type_symbol
 _atom_site_label
 _atom_site_symmetry_multiplicity
 _atom_site_fract_x
 _atom_site_fract_y
 _atom_site_fract_z
 _atom_site_occupancy
  Sr  Sr0  1  0.00961000  0.45977700  0.25191900  1
  Sr  Sr1  1  0.99039000  0.54022300  0.74808100  1
  Sr  Sr2  1  0.49039000  0.95977700  0.24808100  1
  Sr  Sr3  1  0.50961000  0.04022300  0.75191900  1
  Tb  Tb0  1  0.00000000  0.00000000  0.50000000  1
  Tb  Tb1  1  0.50000000  0.50000000  0.00000000  1
  Ta  Ta0  1  0.00000000  0.00000000  0.00000000  1
  Ta  Ta1  1  0.50000000  0.50000000  0.50000000  1
  O  O0  1  0.91615900  0.02814500  0.23358600  1
  O  O1  1  0.08384100  0.97185500  0.76641400  1
  O  O2  1  0.58384100  0.52814500  0.26641400  1
  O  O3  1  0.41615900  0.47185500  0.73358600  1
  O  O4  1  0.19228300  0.72589300  0.04843900  1
  O  O5  1  0.80771700  0.27410700  0.95156100  1
  O  O6  1  0.30771700  0.22589300  0.45156100  1
  O  O7  1  0.69228300  0.77410700  0.54843900  1
  O  O8  1  0.27530700  0.19452600  0.04127200  1
  O  O9  1  0.72469300  0.80547400  0.95872800  1
  O  O10  1  0.22469300  0.69452600  0.45872800  1
  O  O11  1  0.77530700  0.30547400  0.54127200  1
loop_
_geom_bond_atom_site_label_1
_geom_bond_atom_site_label_2
_geom_bond_distance
_geom_bond_site_symmetry_2
O0 Ta0 2.016188 1_655
O0 Tb0 2.277795 1_655
O0 Sr2 2.526769 1_545
O0 Sr0 2.634870 1_655
O1 Ta0 2.016188 1_566
O1 Tb0 2.277795 1_565
O1 Sr3 2.526769 1_565
O1 Sr1 2.634870 1_455
O2 Ta1 2.016188 1_555
O2 Tb1 2.277795 1_555
O2 Sr0 2.526769 1_655
O2 Sr2 2.634870 1_555
O3 Ta1 2.016188 1_555
O3 Tb1 2.277795 1_556
O3 Sr1 2.526769 1_455
O3 Sr3 2.634870 1_555
O4 Ta0 2.023436 1_565
O4 Tb1 2.285061 1_555
O4 Sr0 2.558891 1_555
O4 Sr2 2.780005 1_555
O4 Sr1 2.976601 1_454
O5 Ta0 2.023436 1_656
O5 Tb1 2.285061 1_556
O5 Sr1 2.558891 1_555
O5 Sr3 2.780005 1_555
O5 Sr0 2.976601 1_656
O6 Ta1 2.023436 1_555
O6 Tb0 2.285061 1_555
O6 Sr2 2.558891 1_545
O6 Sr0 2.780005 1_555
O6 Sr3 2.976601 1_555
O7 Ta1 2.023436 1_555
O7 Tb0 2.285061 1_665
O7 Sr3 2.558891 1_565
O7 Sr1 2.780005 1_555
O7 Sr2 2.976601 1_555
O8 Ta0 2.012832 1_555
O8 Tb1 2.272736 1_555
O8 Sr2 2.548223 1_545
O8 Sr0 2.831697 1_555
O8 Sr3 2.926512 1_554
O9 Ta0 2.012832 1_666
O9 Tb1 2.272736 1_556
O9 Sr3 2.548223 1_565
O9 Sr1 2.831697 1_555
O9 Sr2 2.926512 1_556
O10 Ta1 2.012832 1_555
O10 Tb0 2.272736 1_565
O10 Sr0 2.548223 1_555
O10 Sr2 2.831697 1_555
O10 Sr1 2.926512 1_455
O11 Ta1 2.012832 1_555
O11 Tb0 2.272736 1_655
O11 Sr1 2.548223 1_555
O11 Sr3 2.831697 1_555
O11 Sr0 2.926512 1_655
