# generated using pymatgen
data_Yb(P2Rh3)2
_symmetry_space_group_name_H-M   'P 1'
_cell_length_a   6.95820706
_cell_length_b   6.95820706
_cell_length_c   3.73831985
_cell_angle_alpha   90.00000000
_cell_angle_beta   90.00000000
_cell_angle_gamma   119.99999967
_symmetry_Int_Tables_number   1
_chemical_formula_structural   Yb(P2Rh3)2
_chemical_formula_sum   'Yb1 P4 Rh6'
_cell_volume   156.74792025
_cell_formula_units_Z   1
loop_
 _symmetry_equiv_pos_site_id
 _symmetry_equiv_pos_as_xyz
  1  'x, y, z'
loop_
 _atom_site_type_symbol
 _atom_site_label
 _atom_site_symmetry_multiplicity
 _atom_site_fract_x
 _atom_site_fract_y
 _atom_site_fract_z
 _atom_site_occupancy
  Yb  Yb0  1  0.00000000  0.00000000  0.50000000  1
  P  P0  1  0.66666700  0.33333300  0.50000000  1
  P  P1  1  0.19740286  0.36645447  0.00000000  1
  P  P2  1  0.16905261  0.80259714  0.00000000  1
  P  P3  1  0.63354553  0.83094739  0.00000000  1
  Rh  Rh0  1  0.50860972  0.93447785  0.50000000  1
  Rh  Rh1  1  0.42586813  0.49139028  0.50000000  1
  Rh  Rh2  1  0.06552215  0.57413187  0.50000000  1
  Rh  Rh3  1  0.78068104  0.60739758  0.00000000  1
  Rh  Rh4  1  0.82671654  0.21931896  0.00000000  1
  Rh  Rh5  1  0.39260242  0.17328346  0.00000000  1
loop_
_geom_bond_atom_site_label_1
_geom_bond_atom_site_label_2
_geom_bond_distance
_geom_bond_site_symmetry_2
P0 Rh0 2.420672 1_545
P0 Rh2 2.420673 1_655
P0 Rh1 2.420678 1_555
P0 Rh4 2.499374 1_556
P0 Rh4 2.499374 1_555
P0 Rh5 2.499378 1_555
P0 Rh5 2.499378 1_556
P0 Rh3 2.499379 1_556
P0 Rh3 2.499379 1_555
P1 Rh4 2.249515 1_455
P1 Rh1 2.322646 1_554
P1 Rh1 2.322646 1_555
P1 Rh5 2.340325 1_555
P1 Rh2 2.783903 1_555
P1 Rh2 2.783903 1_554
P1 Yb0 2.894797 1_555
P1 Yb0 2.894797 1_554
P2 Rh5 2.249514 1_565
P2 Rh2 2.322646 1_555
P2 Rh2 2.322646 1_554
P2 Rh3 2.340332 1_455
P2 Rh0 2.783899 1_555
P2 Rh0 2.783899 1_554
P2 Yb0 2.894802 1_564
P2 Yb0 2.894802 1_565
P3 Rh3 2.249509 1_555
P3 Rh0 2.322650 1_555
P3 Rh0 2.322650 1_554
P3 Rh4 2.340332 1_565
P3 Rh1 2.783899 1_554
P3 Rh1 2.783899 1_555
P3 Yb0 2.894797 1_664
P3 Yb0 2.894797 1_665
Rh0 Yb0 3.215570 1_665
Rh1 Yb0 3.215570 1_555
Rh2 Yb0 3.215570 1_565
Rh3 Yb0 3.019354 1_664
Rh3 Yb0 3.019354 1_665
Rh4 Yb0 3.019354 1_655
Rh4 Yb0 3.019354 1_654
Rh5 Yb0 3.019354 1_555
Rh5 Yb0 3.019354 1_554
