# generated using pymatgen
data_Pr3CuSnSe7
_symmetry_space_group_name_H-M   'P 1'
_cell_length_a   10.70830151
_cell_length_b   10.70830151
_cell_length_c   6.36492700
_cell_angle_alpha   90.00000000
_cell_angle_beta   90.00000000
_cell_angle_gamma   119.99999699
_symmetry_Int_Tables_number   1
_chemical_formula_structural   Pr3CuSnSe7
_chemical_formula_sum   'Pr6 Cu2 Sn2 Se14'
_cell_volume   632.07011089
_cell_formula_units_Z   2
loop_
 _symmetry_equiv_pos_site_id
 _symmetry_equiv_pos_as_xyz
  1  'x, y, z'
loop_
 _atom_site_type_symbol
 _atom_site_label
 _atom_site_symmetry_multiplicity
 _atom_site_fract_x
 _atom_site_fract_y
 _atom_site_fract_z
 _atom_site_occupancy
  Pr  Pr0  1  0.64483400  0.86437200  0.96398600  1
  Pr  Pr1  1  0.78046100  0.64483400  0.46398600  1
  Pr  Pr2  1  0.86437200  0.21953900  0.46398600  1
  Pr  Pr3  1  0.13562800  0.78046100  0.96398600  1
  Pr  Pr4  1  0.21953900  0.35516600  0.96398600  1
  Pr  Pr5  1  0.35516600  0.13562800  0.46398600  1
  Cu  Cu0  1  0.00000000  0.00000000  0.50874600  1
  Cu  Cu1  1  0.00000000  0.00000000  0.00874600  1
  Sn  Sn0  1  0.66666700  0.33333300  0.88643900  1
  Sn  Sn1  1  0.33333300  0.66666700  0.38643900  1
  Se  Se0  1  0.48695200  0.57229600  0.21297400  1
  Se  Se1  1  0.91465600  0.48695200  0.71297400  1
  Se  Se2  1  0.57229600  0.08534400  0.71297400  1
  Se  Se3  1  0.42770400  0.91465600  0.21297400  1
  Se  Se4  1  0.33333300  0.66666700  0.78291000  1
  Se  Se5  1  0.66666700  0.33333300  0.28291000  1
  Se  Se6  1  0.08534400  0.51304800  0.21297400  1
  Se  Se7  1  0.51304800  0.42770400  0.71297400  1
  Se  Se8  1  0.25622800  0.09982500  0.99600800  1
  Se  Se9  1  0.15640300  0.25622800  0.49600800  1
  Se  Se10  1  0.09982500  0.84359700  0.49600800  1
  Se  Se11  1  0.90017500  0.15640300  0.99600800  1
  Se  Se12  1  0.84359700  0.74377200  0.99600800  1
  Se  Se13  1  0.74377200  0.90017500  0.49600800  1
loop_
_geom_bond_atom_site_label_1
_geom_bond_atom_site_label_2
_geom_bond_distance
_geom_bond_site_symmetry_2
Pr0 Se11 2.957429 1_565
Pr0 Se12 2.998022 1_555
Pr0 Se3 3.075633 1_556
Pr0 Se13 3.120190 1_555
Pr0 Se0 3.140738 1_556
Pr0 Se4 3.142464 1_555
Pr0 Se2 3.254685 1_565
Pr0 Se13 3.511432 1_556
Pr1 Se13 2.957423 1_555
Pr1 Se10 2.998031 1_655
Pr1 Se7 3.075627 1_555
Pr1 Se12 3.120190 1_554
Pr1 Se1 3.140746 1_555
Pr1 Se5 3.142467 1_555
Pr1 Se0 3.254676 1_555
Pr1 Se12 3.511432 1_555
Pr2 Se9 2.957433 1_655
Pr2 Se13 2.998032 1_545
Pr2 Se1 3.075624 1_555
Pr2 Se11 3.120193 1_554
Pr2 Se2 3.140738 1_555
Pr2 Se5 3.142448 1_555
Pr2 Se6 3.254679 1_655
Pr2 Se11 3.511435 1_555
Pr3 Se12 2.957433 1_455
Pr3 Se8 2.998032 1_565
Pr3 Se6 3.075624 1_556
Pr3 Se10 3.120193 1_555
Pr3 Se3 3.140738 1_556
Pr3 Se4 3.142448 1_555
Pr3 Se1 3.254679 1_455
Pr3 Se10 3.511435 1_556
Pr4 Se8 2.957423 1_555
Pr4 Se11 2.998031 1_455
Pr4 Se0 3.075627 1_556
Pr4 Se9 3.120190 1_555
Pr4 Se6 3.140746 1_556
Pr4 Se4 3.142467 1_555
Pr4 Se7 3.254676 1_555
Pr4 Se9 3.511432 1_556
Pr5 Se10 2.957429 1_545
Pr5 Se9 2.998022 1_555
Pr5 Se2 3.075633 1_555
Pr5 Se8 3.120190 1_554
Pr5 Se7 3.140738 1_555
Pr5 Se5 3.142464 1_555
Pr5 Se3 3.254685 1_545
Pr5 Se8 3.511432 1_555
Cu0 Se10 2.396775 1_545
Cu0 Se13 2.396775 1_445
Cu0 Se9 2.396775 1_555
Cu0 Pr5 3.336374 1_555
Cu0 Pr1 3.336376 1_445
Cu0 Pr2 3.336384 1_455
Cu1 Se11 2.396775 1_454
Cu1 Se8 2.396775 1_554
Cu1 Se12 2.396775 1_444
Cu1 Pr0 3.336374 1_444
Cu1 Pr4 3.336376 1_554
Cu1 Pr3 3.336384 1_544
Se0 Sn1 2.570723 1_555
Se1 Sn0 2.570715 1_555
Se2 Sn0 2.570714 1_555
Se3 Sn1 2.570714 1_555
Se4 Sn1 2.523509 1_555
Se5 Sn0 2.523509 1_554
Se6 Sn1 2.570715 1_555
Se7 Sn0 2.570723 1_555
