# generated using pymatgen
data_Sm2MgS4
_symmetry_space_group_name_H-M   'P 1'
_cell_length_a   7.72778100
_cell_length_b   12.91993600
_cell_length_c   12.94951400
_cell_angle_alpha   90.00000000
_cell_angle_beta   90.00000000
_cell_angle_gamma   90.00000000
_symmetry_Int_Tables_number   1
_chemical_formula_structural   Sm2MgS4
_chemical_formula_sum   'Sm16 Mg8 S32'
_cell_volume   1292.91102203
_cell_formula_units_Z   8
loop_
 _symmetry_equiv_pos_site_id
 _symmetry_equiv_pos_as_xyz
  1  'x, y, z'
loop_
 _atom_site_type_symbol
 _atom_site_label
 _atom_site_symmetry_multiplicity
 _atom_site_fract_x
 _atom_site_fract_y
 _atom_site_fract_z
 _atom_site_occupancy
  Sm  Sm0  1  0.88481500  0.10944000  0.68466800  1
  Sm  Sm1  1  0.11518500  0.89056000  0.18466800  1
  Sm  Sm2  1  0.88481500  0.39056000  0.18466800  1
  Sm  Sm3  1  0.11518500  0.60944000  0.68466800  1
  Sm  Sm4  1  0.38320800  0.12707500  0.32611400  1
  Sm  Sm5  1  0.61679200  0.87292500  0.82611400  1
  Sm  Sm6  1  0.38320800  0.37292500  0.82611400  1
  Sm  Sm7  1  0.61679200  0.62707500  0.32611400  1
  Sm  Sm8  1  0.63013300  0.13424300  0.99359100  1
  Sm  Sm9  1  0.36986700  0.86575700  0.49359100  1
  Sm  Sm10  1  0.63013300  0.36575700  0.49359100  1
  Sm  Sm11  1  0.36986700  0.63424300  0.99359100  1
  Sm  Sm12  1  0.13001800  0.13491900  0.99266100  1
  Sm  Sm13  1  0.86998200  0.86508100  0.49266100  1
  Sm  Sm14  1  0.13001800  0.36508100  0.49266100  1
  Sm  Sm15  1  0.86998200  0.63491900  0.99266100  1
  Mg  Mg0  1  0.38436900  0.11108000  0.69245200  1
  Mg  Mg1  1  0.61563100  0.88892000  0.19245200  1
  Mg  Mg2  1  0.38436900  0.38892000  0.19245200  1
  Mg  Mg3  1  0.61563100  0.61108000  0.69245200  1
  Mg  Mg4  1  0.87965300  0.12580200  0.32057300  1
  Mg  Mg5  1  0.12034700  0.87419800  0.82057300  1
  Mg  Mg6  1  0.87965300  0.37419800  0.82057300  1
  Mg  Mg7  1  0.12034700  0.62580200  0.32057300  1
  S  S0  1  0.87998400  0.01192500  0.87873900  1
  S  S1  1  0.12001600  0.98807500  0.37873900  1
  S  S2  1  0.87998400  0.48807500  0.37873900  1
  S  S3  1  0.12001600  0.51192500  0.87873900  1
  S  S4  1  0.38019800  0.03005900  0.12943300  1
  S  S5  1  0.61980200  0.96994100  0.62943300  1
  S  S6  1  0.38019800  0.46994100  0.62943300  1
  S  S7  1  0.61980200  0.53005900  0.12943300  1
  S  S8  1  0.37238100  0.02375500  0.86819900  1
  S  S9  1  0.62761900  0.97624500  0.36819900  1
  S  S10  1  0.37238100  0.47624500  0.36819900  1
  S  S11  1  0.62761900  0.52375500  0.86819900  1
  S  S12  1  0.87361100  0.04477900  0.13871400  1
  S  S13  1  0.12638900  0.95522100  0.63871400  1
  S  S14  1  0.87361100  0.45522100  0.63871400  1
  S  S15  1  0.12638900  0.54477900  0.13871400  1
  S  S16  1  0.88044500  0.21082800  0.49791300  1
  S  S17  1  0.11955500  0.78917200  0.99791300  1
  S  S18  1  0.88044500  0.28917200  0.99791300  1
  S  S19  1  0.11955500  0.71082800  0.49791300  1
  S  S20  1  0.38093900  0.21135100  0.52233300  1
  S  S21  1  0.61906100  0.78864900  0.02233300  1
  S  S22  1  0.38093900  0.28864900  0.02233300  1
  S  S23  1  0.61906100  0.71135100  0.52233300  1
  S  S24  1  0.13066100  0.23293200  0.77477500  1
  S  S25  1  0.86933900  0.76706800  0.27477500  1
  S  S26  1  0.13066100  0.26706800  0.27477500  1
  S  S27  1  0.86933900  0.73293200  0.77477500  1
  S  S28  1  0.63313600  0.23146600  0.77683400  1
  S  S29  1  0.36686400  0.76853400  0.27683400  1
  S  S30  1  0.63313600  0.26853400  0.27683400  1
  S  S31  1  0.36686400  0.73146600  0.77683400  1
loop_
_geom_bond_atom_site_label_1
_geom_bond_atom_site_label_2
_geom_bond_distance
_geom_bond_site_symmetry_2
Mg0 S8 2.541836 1_555
Mg0 S20 2.555785 1_555
Mg0 S5 2.702085 1_545
Mg0 S28 2.703497 1_555
Mg0 S24 2.731096 1_555
Mg0 S13 2.917822 1_545
Mg1 S9 2.541836 1_555
Mg1 S21 2.555785 1_555
Mg1 S4 2.702085 1_565
Mg1 S29 2.703497 1_555
Mg1 S25 2.731096 1_555
Mg1 S12 2.917822 1_565
Mg2 S10 2.541836 1_555
Mg2 S22 2.555785 1_555
Mg2 S7 2.702085 1_555
Mg2 S30 2.703497 1_555
Mg2 S26 2.731096 1_555
Mg2 S15 2.917822 1_555
Mg3 S11 2.541836 1_555
Mg3 S23 2.555785 1_555
Mg3 S6 2.702085 1_555
Mg3 S31 2.703497 1_555
Mg3 S27 2.731096 1_555
Mg3 S14 2.917822 1_555
Mg4 S16 2.545696 1_555
Mg4 S12 2.577587 1_555
Mg4 S1 2.680279 1_645
Mg4 S30 2.711200 1_555
Mg4 S26 2.728637 1_655
Mg4 S9 2.812012 1_545
Mg5 S17 2.545696 1_555
Mg5 S13 2.577587 1_555
Mg5 S0 2.680279 1_465
Mg5 S31 2.711200 1_555
Mg5 S27 2.728637 1_455
Mg5 S8 2.812012 1_565
Mg6 S18 2.545696 1_555
Mg6 S14 2.577587 1_555
Mg6 S3 2.680279 1_655
Mg6 S28 2.711200 1_555
Mg6 S24 2.728637 1_655
Mg6 S11 2.812012 1_555
Mg7 S19 2.545696 1_555
Mg7 S15 2.577587 1_555
Mg7 S2 2.680279 1_455
Mg7 S29 2.711200 1_555
Mg7 S25 2.728637 1_455
Mg7 S10 2.812012 1_555
S0 Sm5 2.797546 1_545
S0 Sm0 2.811496 1_555
S0 Sm12 2.904290 1_655
S0 Sm8 2.904727 1_555
S1 Sm4 2.797546 1_565
S1 Sm1 2.811496 1_555
S1 Sm13 2.904290 1_455
S1 Sm9 2.904727 1_555
S2 Sm7 2.797546 1_555
S2 Sm2 2.811496 1_555
S2 Sm14 2.904290 1_655
S2 Sm10 2.904727 1_555
S3 Sm6 2.797546 1_555
S3 Sm3 2.811496 1_555
S3 Sm15 2.904290 1_455
S3 Sm11 2.904727 1_555
S4 Sm1 2.820303 1_545
S4 Sm4 2.838745 1_555
S4 Sm8 2.938829 1_554
S4 Sm12 2.951294 1_554
S5 Sm0 2.820303 1_565
S5 Sm5 2.838745 1_555
S5 Sm9 2.938829 1_555
S5 Sm13 2.951294 1_555
S6 Sm3 2.820303 1_555
S6 Sm6 2.838745 1_555
S6 Sm10 2.938829 1_555
S6 Sm14 2.951294 1_555
S7 Sm2 2.820303 1_555
S7 Sm7 2.838745 1_555
S7 Sm11 2.938829 1_554
S7 Sm15 2.951294 1_554
S8 Sm5 2.768011 1_545
S8 Sm12 2.858019 1_555
S8 Sm8 2.939700 1_555
S9 Sm4 2.768011 1_565
S9 Sm13 2.858019 1_555
S9 Sm9 2.939700 1_555
S10 Sm7 2.768011 1_555
S10 Sm14 2.858019 1_555
S10 Sm10 2.939700 1_555
S11 Sm6 2.768011 1_555
S11 Sm15 2.858019 1_555
S11 Sm11 2.939700 1_555
S12 Sm1 2.794501 1_645
S12 Sm8 2.899639 1_554
S12 Sm12 2.976499 1_654
S13 Sm0 2.794501 1_465
S13 Sm9 2.899639 1_555
S13 Sm13 2.976499 1_455
S14 Sm3 2.794501 1_655
S14 Sm10 2.899639 1_555
S14 Sm14 2.976499 1_655
S15 Sm2 2.794501 1_455
S15 Sm11 2.899639 1_554
S15 Sm15 2.976499 1_454
S16 Sm0 2.750571 1_555
S16 Sm14 2.774185 1_655
S16 Sm10 2.784162 1_555
S17 Sm1 2.750571 1_556
S17 Sm15 2.774185 1_455
S17 Sm11 2.784162 1_555
S18 Sm2 2.750571 1_556
S18 Sm12 2.774185 1_655
S18 Sm8 2.784162 1_555
S19 Sm3 2.750571 1_555
S19 Sm13 2.774185 1_455
S19 Sm9 2.784162 1_555
S20 Sm4 2.764464 1_555
S20 Sm10 2.797606 1_555
S20 Sm14 2.802235 1_555
S21 Sm5 2.764464 1_554
S21 Sm11 2.797606 1_554
S21 Sm15 2.802235 1_554
S22 Sm6 2.764464 1_554
S22 Sm8 2.797606 1_554
S22 Sm12 2.802235 1_554
S23 Sm7 2.764464 1_555
S23 Sm9 2.797606 1_555
S23 Sm13 2.802235 1_555
S24 Sm0 2.741637 1_455
S24 Sm6 2.742668 1_555
S24 Sm12 3.092662 1_555
S25 Sm1 2.741637 1_655
S25 Sm7 2.742668 1_555
S25 Sm13 3.092662 1_555
S26 Sm2 2.741637 1_455
S26 Sm4 2.742668 1_555
S26 Sm14 3.092662 1_555
S27 Sm3 2.741637 1_655
S27 Sm5 2.742668 1_555
S27 Sm15 3.092662 1_555
S28 Sm6 2.734552 1_555
S28 Sm0 2.773578 1_555
S28 Sm8 3.075230 1_555
S29 Sm7 2.734552 1_555
S29 Sm1 2.773578 1_555
S29 Sm9 3.075230 1_555
S30 Sm4 2.734552 1_555
S30 Sm2 2.773578 1_555
S30 Sm10 3.075230 1_555
S31 Sm5 2.734552 1_555
S31 Sm3 2.773578 1_555
S31 Sm11 3.075230 1_555
