# generated using pymatgen
data_VPd2
_symmetry_space_group_name_H-M   'P 1'
_cell_length_a   5.43667331
_cell_length_b   7.56736591
_cell_length_c   9.48977759
_cell_angle_alpha   113.49764822
_cell_angle_beta   106.64549398
_cell_angle_gamma   90.00001054
_symmetry_Int_Tables_number   1
_chemical_formula_structural   VPd2
_chemical_formula_sum   'V8 Pd16'
_cell_volume   340.13242056
_cell_formula_units_Z   8
loop_
 _symmetry_equiv_pos_site_id
 _symmetry_equiv_pos_as_xyz
  1  'x, y, z'
loop_
 _atom_site_type_symbol
 _atom_site_label
 _atom_site_symmetry_multiplicity
 _atom_site_fract_x
 _atom_site_fract_y
 _atom_site_fract_z
 _atom_site_occupancy
  V  V0_0  1  0.00000000  0.00000000  0.00000000  1
  V  V0_1  1  0.00000000  0.00000000  0.50000000  1
  V  V0_2  1  0.00000000  0.50000000  0.00000000  1
  V  V0_3  1  0.00000000  0.50000000  0.50000000  1
  V  V0_4  1  0.50000000  0.00000000  0.00000000  1
  V  V0_5  1  0.50000000  0.00000000  0.50000000  1
  V  V0_6  1  0.50000000  0.50000000  0.00000000  1
  V  V0_7  1  0.50000000  0.50000000  0.50000000  1
  Pd  Pd0_0  1  0.33112608  0.33112608  0.16225216  1
  Pd  Pd0_1  1  0.33112608  0.33112608  0.66225216  1
  Pd  Pd0_2  1  0.33112608  0.83112608  0.16225216  1
  Pd  Pd0_3  1  0.33112608  0.83112608  0.66225216  1
  Pd  Pd0_4  1  0.83112608  0.33112608  0.16225216  1
  Pd  Pd0_5  1  0.83112608  0.33112608  0.66225216  1
  Pd  Pd0_6  1  0.83112608  0.83112608  0.16225216  1
  Pd  Pd0_7  1  0.83112608  0.83112608  0.66225216  1
  Pd  Pd1_0  1  0.16887392  0.16887392  0.33774784  1
  Pd  Pd1_1  1  0.16887392  0.16887392  0.83774784  1
  Pd  Pd1_2  1  0.16887392  0.66887392  0.33774784  1
  Pd  Pd1_3  1  0.16887392  0.66887392  0.83774784  1
  Pd  Pd1_4  1  0.66887392  0.16887392  0.33774784  1
  Pd  Pd1_5  1  0.66887392  0.16887392  0.83774784  1
  Pd  Pd1_6  1  0.66887392  0.66887392  0.33774784  1
  Pd  Pd1_7  1  0.66887392  0.66887392  0.83774784  1
loop_
_geom_bond_atom_site_label_1
_geom_bond_atom_site_label_2
_geom_bond_distance
_geom_bond_site_symmetry_2
V0_0 V0_4 2.718337 1_555
V0_0 V0_4 2.718337 1_455
V0_1 V0_5 2.718337 1_555
V0_1 V0_5 2.718337 1_455
V0_2 V0_6 2.718337 1_555
V0_2 V0_6 2.718337 1_455
V0_3 V0_7 2.718337 1_555
V0_3 V0_7 2.718337 1_455
Pd0_0 Pd1_1 2.682814 1_554
Pd0_0 V0_0 2.688080 1_555
Pd0_0 V0_2 2.688080 1_555
Pd0_0 V0_6 2.688080 1_555
Pd0_0 V0_4 2.688081 1_555
Pd0_0 Pd0_4 2.718337 1_555
Pd0_0 Pd0_4 2.718337 1_455
Pd0_0 Pd1_6 2.744358 1_555
Pd0_0 Pd1_4 2.744358 1_555
Pd0_0 Pd1_0 2.744359 1_555
Pd0_0 Pd1_2 2.744359 1_555
Pd0_0 V0_7 2.792304 1_555
Pd0_1 Pd1_0 2.682814 1_555
Pd0_1 V0_1 2.688080 1_555
Pd0_1 V0_3 2.688080 1_555
Pd0_1 V0_7 2.688080 1_555
Pd0_1 V0_5 2.688081 1_555
Pd0_1 Pd0_5 2.718337 1_555
Pd0_1 Pd0_5 2.718337 1_455
Pd0_1 Pd1_7 2.744358 1_555
Pd0_1 Pd1_5 2.744358 1_555
Pd0_1 Pd1_1 2.744359 1_555
Pd0_1 Pd1_3 2.744359 1_555
Pd0_1 V0_6 2.792304 1_556
Pd0_2 Pd1_3 2.682814 1_554
Pd0_2 V0_2 2.688080 1_555
Pd0_2 V0_0 2.688080 1_565
Pd0_2 V0_4 2.688080 1_565
Pd0_2 V0_6 2.688081 1_555
Pd0_2 Pd0_6 2.718337 1_455
Pd0_2 Pd0_6 2.718337 1_555
Pd0_2 Pd1_4 2.744358 1_565
Pd0_2 Pd1_6 2.744358 1_555
Pd0_2 Pd1_2 2.744359 1_555
Pd0_2 Pd1_0 2.744359 1_565
Pd0_2 V0_5 2.792304 1_565
Pd0_3 Pd1_2 2.682814 1_555
Pd0_3 V0_3 2.688080 1_555
Pd0_3 V0_1 2.688080 1_565
Pd0_3 V0_5 2.688080 1_565
Pd0_3 V0_7 2.688081 1_555
Pd0_3 Pd0_7 2.718337 1_455
Pd0_3 Pd0_7 2.718337 1_555
Pd0_3 Pd1_5 2.744358 1_565
Pd0_3 Pd1_7 2.744358 1_555
Pd0_3 Pd1_3 2.744359 1_555
Pd0_3 Pd1_1 2.744359 1_565
Pd0_3 V0_4 2.792304 1_566
Pd0_4 Pd1_5 2.682814 1_554
Pd0_4 V0_4 2.688080 1_555
Pd0_4 V0_6 2.688080 1_555
Pd0_4 V0_2 2.688080 1_655
Pd0_4 V0_0 2.688081 1_655
Pd0_4 Pd1_2 2.744358 1_655
Pd0_4 Pd1_0 2.744358 1_655
Pd0_4 Pd1_4 2.744359 1_555
Pd0_4 Pd1_6 2.744359 1_555
Pd0_4 V0_3 2.792304 1_655
Pd0_5 Pd1_4 2.682814 1_555
Pd0_5 V0_5 2.688080 1_555
Pd0_5 V0_7 2.688080 1_555
Pd0_5 V0_3 2.688080 1_655
Pd0_5 V0_1 2.688081 1_655
Pd0_5 Pd1_3 2.744358 1_655
Pd0_5 Pd1_1 2.744358 1_655
Pd0_5 Pd1_5 2.744359 1_555
Pd0_5 Pd1_7 2.744359 1_555
Pd0_5 V0_2 2.792304 1_656
Pd0_6 Pd1_7 2.682814 1_554
Pd0_6 V0_6 2.688080 1_555
Pd0_6 V0_4 2.688080 1_565
Pd0_6 V0_0 2.688080 1_665
Pd0_6 V0_2 2.688081 1_655
Pd0_6 Pd1_0 2.744358 1_665
Pd0_6 Pd1_2 2.744358 1_655
Pd0_6 Pd1_6 2.744359 1_555
Pd0_6 Pd1_4 2.744359 1_565
Pd0_6 V0_1 2.792304 1_665
Pd0_7 Pd1_6 2.682814 1_555
Pd0_7 V0_7 2.688080 1_555
Pd0_7 V0_5 2.688080 1_565
Pd0_7 V0_1 2.688080 1_665
Pd0_7 V0_3 2.688081 1_655
Pd0_7 Pd1_1 2.744358 1_665
Pd0_7 Pd1_3 2.744358 1_655
Pd0_7 Pd1_7 2.744359 1_555
Pd0_7 Pd1_5 2.744359 1_565
Pd0_7 V0_0 2.792304 1_666
Pd1_0 V0_7 2.688080 1_555
Pd1_0 V0_5 2.688080 1_555
Pd1_0 V0_1 2.688080 1_555
Pd1_0 V0_3 2.688081 1_555
Pd1_0 Pd1_4 2.718337 1_555
Pd1_0 Pd1_4 2.718337 1_455
Pd1_0 V0_0 2.792304 1_555
Pd1_1 V0_6 2.688080 1_556
Pd1_1 V0_4 2.688080 1_556
Pd1_1 V0_0 2.688080 1_556
Pd1_1 V0_2 2.688081 1_556
Pd1_1 Pd1_5 2.718337 1_555
Pd1_1 Pd1_5 2.718337 1_455
Pd1_1 V0_1 2.792304 1_555
Pd1_2 V0_5 2.688080 1_565
Pd1_2 V0_7 2.688080 1_555
Pd1_2 V0_3 2.688080 1_555
Pd1_2 V0_1 2.688081 1_565
Pd1_2 Pd1_6 2.718337 1_555
Pd1_2 Pd1_6 2.718337 1_455
Pd1_2 V0_2 2.792304 1_555
Pd1_3 V0_4 2.688080 1_566
Pd1_3 V0_6 2.688080 1_556
Pd1_3 V0_2 2.688080 1_556
Pd1_3 V0_0 2.688081 1_566
Pd1_3 Pd1_7 2.718337 1_555
Pd1_3 Pd1_7 2.718337 1_455
Pd1_3 V0_3 2.792304 1_555
Pd1_4 V0_3 2.688080 1_655
Pd1_4 V0_1 2.688080 1_655
Pd1_4 V0_5 2.688080 1_555
Pd1_4 V0_7 2.688081 1_555
Pd1_4 V0_4 2.792304 1_555
Pd1_5 V0_2 2.688080 1_656
Pd1_5 V0_0 2.688080 1_656
Pd1_5 V0_4 2.688080 1_556
Pd1_5 V0_6 2.688081 1_556
Pd1_5 V0_5 2.792304 1_555
Pd1_6 V0_1 2.688080 1_665
Pd1_6 V0_3 2.688080 1_655
Pd1_6 V0_7 2.688080 1_555
Pd1_6 V0_5 2.688081 1_565
Pd1_6 V0_6 2.792304 1_555
Pd1_7 V0_0 2.688080 1_666
Pd1_7 V0_2 2.688080 1_656
Pd1_7 V0_6 2.688080 1_556
Pd1_7 V0_4 2.688081 1_566
Pd1_7 V0_7 2.792304 1_555
