# generated using pymatgen
data_Ca4TiMn3O12
_symmetry_space_group_name_H-M   'P 1'
_cell_length_a   3.83283500
_cell_length_b   7.63909200
_cell_length_c   7.63909200
_cell_angle_alpha   90.00000000
_cell_angle_beta   90.00000000
_cell_angle_gamma   90.00000000
_symmetry_Int_Tables_number   1
_chemical_formula_structural   Ca4TiMn3O12
_chemical_formula_sum   'Ca4 Ti1 Mn3 O12'
_cell_volume   223.66787130
_cell_formula_units_Z   1
loop_
 _symmetry_equiv_pos_site_id
 _symmetry_equiv_pos_as_xyz
  1  'x, y, z'
loop_
 _atom_site_type_symbol
 _atom_site_label
 _atom_site_symmetry_multiplicity
 _atom_site_fract_x
 _atom_site_fract_y
 _atom_site_fract_z
 _atom_site_occupancy
  Ca  Ca0  1  0.50000000  0.25221700  0.25221700  1
  Ca  Ca1  1  0.50000000  0.25221700  0.74778300  1
  Ca  Ca2  1  0.50000000  0.74778300  0.25221700  1
  Ca  Ca3  1  0.50000000  0.74778300  0.74778300  1
  Ti  Ti0  1  0.00000000  0.00000000  0.00000000  1
  Mn  Mn0  1  0.00000000  0.00000000  0.50000000  1
  Mn  Mn1  1  0.00000000  0.50000000  0.00000000  1
  Mn  Mn2  1  0.00000000  0.50000000  0.50000000  1
  O  O0  1  0.00000000  0.00000000  0.25382300  1
  O  O1  1  0.00000000  0.00000000  0.74617700  1
  O  O2  1  0.00000000  0.50000000  0.24993000  1
  O  O3  1  0.00000000  0.50000000  0.75007000  1
  O  O4  1  0.50000000  0.00000000  0.00000000  1
  O  O5  1  0.50000000  0.00000000  0.50000000  1
  O  O6  1  0.50000000  0.50000000  0.00000000  1
  O  O7  1  0.50000000  0.50000000  0.50000000  1
  O  O8  1  0.00000000  0.25382300  0.00000000  1
  O  O9  1  0.00000000  0.24993000  0.50000000  1
  O  O10  1  0.00000000  0.74617700  0.00000000  1
  O  O11  1  0.00000000  0.75007000  0.50000000  1
loop_
_geom_bond_atom_site_label_1
_geom_bond_atom_site_label_2
_geom_bond_distance
_geom_bond_site_symmetry_2
Ca0 O7 2.676876 1_555
Ca0 O9 2.693658 1_655
Ca0 O2 2.693658 1_655
Ca0 O2 2.693658 1_555
Ca0 O9 2.693658 1_555
Ca0 O5 2.700933 1_555
Ca0 O6 2.700933 1_555
Ca0 O8 2.717538 1_555
Ca0 O8 2.717538 1_655
Ca0 O0 2.717538 1_555
Ca0 O0 2.717538 1_655
Ca0 O4 2.724778 1_555
Ca1 O7 2.676876 1_555
Ca1 O3 2.693658 1_655
Ca1 O9 2.693658 1_655
Ca1 O3 2.693658 1_555
Ca1 O9 2.693658 1_555
Ca1 O5 2.700933 1_555
Ca1 O6 2.700933 1_556
Ca1 O8 2.717538 1_556
Ca1 O8 2.717538 1_656
Ca1 O1 2.717538 1_555
Ca1 O1 2.717538 1_655
Ca1 O4 2.724778 1_556
Ca2 O7 2.676876 1_555
Ca2 O2 2.693658 1_655
Ca2 O11 2.693658 1_655
Ca2 O11 2.693658 1_555
Ca2 O2 2.693658 1_555
Ca2 O5 2.700933 1_565
Ca2 O6 2.700933 1_555
Ca2 O10 2.717538 1_555
Ca2 O0 2.717538 1_665
Ca2 O0 2.717538 1_565
Ca2 O10 2.717538 1_655
Ca2 O4 2.724778 1_565
Ca3 O7 2.676876 1_555
Ca3 O3 2.693658 1_655
Ca3 O11 2.693658 1_655
Ca3 O11 2.693658 1_555
Ca3 O3 2.693658 1_555
Ca3 O5 2.700933 1_565
Ca3 O6 2.700933 1_556
Ca3 O10 2.717538 1_656
Ca3 O1 2.717538 1_565
Ca3 O1 2.717538 1_665
Ca3 O10 2.717538 1_556
Ca3 O4 2.724778 1_566
Mn0 O1 1.880569 1_555
Mn0 O0 1.880569 1_555
Mn0 O11 1.909238 1_545
Mn0 O9 1.909238 1_555
Mn0 O5 1.916418 1_555
Mn0 O5 1.916418 1_455
Mn1 O10 1.880569 1_555
Mn1 O8 1.880569 1_555
Mn1 O3 1.909238 1_554
Mn1 O2 1.909238 1_555
Mn1 O6 1.916418 1_455
Mn1 O6 1.916418 1_555
Mn2 O2 1.910308 1_555
Mn2 O3 1.910308 1_555
Mn2 O9 1.910308 1_555
Mn2 O11 1.910308 1_555
Mn2 O7 1.916418 1_555
Mn2 O7 1.916418 1_455
O0 Ti0 1.938977 1_555
O1 Ti0 1.938977 1_556
O4 Ti0 1.916418 1_655
O4 Ti0 1.916418 1_555
O8 Ti0 1.938977 1_555
O10 Ti0 1.938977 1_565
