# generated using pymatgen
data_Li4Ni3BiO8
_symmetry_space_group_name_H-M   'P 1'
_cell_length_a   6.05868509
_cell_length_b   6.09120388
_cell_length_c   8.54489920
_cell_angle_alpha   90.00214494
_cell_angle_beta   90.38290192
_cell_angle_gamma   89.98954974
_symmetry_Int_Tables_number   1
_chemical_formula_structural   Li4Ni3BiO8
_chemical_formula_sum   'Li8 Ni6 Bi2 O16'
_cell_volume   315.33977618
_cell_formula_units_Z   2
loop_
 _symmetry_equiv_pos_site_id
 _symmetry_equiv_pos_as_xyz
  1  'x, y, z'
loop_
 _atom_site_type_symbol
 _atom_site_label
 _atom_site_symmetry_multiplicity
 _atom_site_fract_x
 _atom_site_fract_y
 _atom_site_fract_z
 _atom_site_occupancy
  Li  Li0  1  0.99995600  0.00186600  0.49999800  1
  Li  Li1  1  0.49988300  0.49809500  0.99998900  1
  Li  Li2  1  0.25262300  0.24766300  0.24979000  1
  Li  Li3  1  0.74991700  0.75036300  0.74927600  1
  Li  Li4  1  0.25013200  0.75045700  0.25071300  1
  Li  Li5  1  0.74785400  0.24827100  0.75021600  1
  Li  Li6  1  0.99995300  0.50262800  0.50010300  1
  Li  Li7  1  0.49996100  0.99883200  0.00000900  1
  Ni  Ni0  1  0.50010800  0.99852800  0.50005500  1
  Ni  Ni1  1  0.24965700  0.74988800  0.75007900  1
  Ni  Ni2  1  0.75026800  0.74995500  0.24992400  1
  Ni  Ni3  1  0.99994600  0.50173000  0.99989400  1
  Ni  Ni4  1  0.75096600  0.25037600  0.25035500  1
  Ni  Ni5  1  0.24958100  0.24956800  0.74964000  1
  Bi  Bi0  1  0.99994900  0.00320900  0.00000100  1
  Bi  Bi1  1  0.49994100  0.49745900  0.49997800  1
  O  O0  1  0.02959300  0.51800200  0.75566000  1
  O  O1  1  0.52993000  0.98221600  0.25649200  1
  O  O2  1  0.97031500  0.51802400  0.24434000  1
  O  O3  1  0.46996200  0.98210300  0.74352800  1
  O  O4  1  0.25497600  0.75022300  0.51251000  1
  O  O5  1  0.75547000  0.25259700  0.00049700  1
  O  O6  1  0.25614000  0.24711400  0.49991900  1
  O  O7  1  0.75437000  0.75081600  0.01297500  1
  O  O8  1  0.00117700  0.00102000  0.75142900  1
  O  O9  1  0.50209600  0.49873200  0.25135300  1
  O  O10  1  0.99871100  0.00091700  0.24855900  1
  O  O11  1  0.49786400  0.49871500  0.74863300  1
  O  O12  1  0.74498200  0.75014300  0.48749600  1
  O  O13  1  0.24433600  0.25259500  0.99947600  1
  O  O14  1  0.74389500  0.24712300  0.50010100  1
  O  O15  1  0.24548700  0.75077100  0.98701000  1
loop_
_geom_bond_atom_site_label_1
_geom_bond_atom_site_label_2
_geom_bond_distance
_geom_bond_site_symmetry_2
Li0 O8 2.148422 1_655
Li0 O10 2.148491 1_555
Li0 O14 2.153546 1_555
Li0 O6 2.154437 1_655
Li0 O4 2.178340 1_645
Li0 O12 2.178872 1_545
Li1 O11 2.147768 1_555
Li1 O9 2.147836 1_556
Li1 O5 2.152477 1_556
Li1 O13 2.152704 1_555
Li1 O15 2.180279 1_555
Li1 O7 2.181256 1_556
Li2 O6 2.137294 1_555
Li2 O13 2.139374 1_554
Li2 O9 2.150375 1_555
Li2 O10 2.150878 1_455
Li2 O1 2.331982 1_545
Li2 O2 2.374370 1_455
Li3 O8 2.156235 1_665
Li3 O11 2.163893 1_555
Li3 O3 2.206792 1_555
Li3 O0 2.208016 1_655
Li3 O12 2.236884 1_555
Li3 O7 2.253264 1_556
Li4 O10 2.155682 1_465
Li4 O9 2.163450 1_555
Li4 O1 2.206533 1_555
Li4 O2 2.209344 1_455
Li4 O4 2.237026 1_555
Li4 O15 2.253304 1_554
Li5 O14 2.137193 1_555
Li5 O5 2.138977 1_556
Li5 O11 2.149484 1_555
Li5 O8 2.150089 1_655
Li5 O3 2.337999 1_545
Li5 O0 2.369655 1_655
Li6 O12 2.160548 1_555
Li6 O4 2.161425 1_655
Li6 O0 2.191883 1_655
Li6 O2 2.193645 1_555
Li6 O14 2.197684 1_555
Li6 O6 2.197882 1_655
Li7 O7 2.160390 1_555
Li7 O15 2.161263 1_554
Li7 O5 2.187819 1_565
Li7 O13 2.187908 1_564
Li7 O1 2.200252 1_555
Li7 O3 2.200276 1_554
Ni0 O3 2.092069 1_555
Ni0 O1 2.092607 1_555
Ni0 O14 2.115503 1_565
Ni0 O6 2.115841 1_565
Ni0 O12 2.122024 1_555
Ni0 O4 2.123113 1_555
Ni1 O0 1.943337 1_555
Ni1 O3 1.946055 1_555
Ni1 O15 2.024885 1_555
Ni1 O4 2.030475 1_555
Ni1 O11 2.145165 1_555
Ni1 O8 2.146138 1_565
Ni2 O2 1.943110 1_555
Ni2 O1 1.946044 1_555
Ni2 O7 2.025031 1_555
Ni2 O12 2.030496 1_555
Ni2 O9 2.145624 1_555
Ni2 O10 2.145637 1_565
Ni3 O0 2.098214 1_655
Ni3 O2 2.100004 1_556
Ni3 O13 2.120044 1_655
Ni3 O5 2.120797 1_556
Ni3 O15 2.128246 1_655
Ni3 O7 2.128292 1_556
Ni4 O2 2.104371 1_555
Ni4 O1 2.113284 1_545
Ni4 O14 2.134863 1_555
Ni4 O5 2.135412 1_555
Ni4 O9 2.135760 1_555
Ni4 O10 2.135798 1_555
Ni5 O3 2.107109 1_545
Ni5 O0 2.110148 1_555
Ni5 O6 2.134528 1_555
Ni5 O8 2.135057 1_555
Ni5 O13 2.135351 1_555
Ni5 O11 2.137061 1_555
Bi0 O13 2.121519 1_654
Bi0 O5 2.121528 1_555
Bi0 O10 2.124013 1_555
Bi0 O8 2.124127 1_654
Bi0 O15 2.142690 1_644
Bi0 O7 2.143053 1_545
Bi1 O6 2.123206 1_555
Bi1 O14 2.123422 1_555
Bi1 O9 2.124617 1_555
Bi1 O11 2.124867 1_555
Bi1 O4 2.141489 1_555
Bi1 O12 2.141830 1_555
