# generated using pymatgen
data_LaNb2AgO7
_symmetry_space_group_name_H-M   'P 1'
_cell_length_a   22.46849054
_cell_length_b   22.46849054
_cell_length_c   22.46849054
_cell_angle_alpha   159.74204772
_cell_angle_beta   159.74204772
_cell_angle_gamma   28.80239090
_symmetry_Int_Tables_number   1
_chemical_formula_structural   LaNb2AgO7
_chemical_formula_sum   'La8 Nb16 Ag8 O56'
_cell_volume   1359.16788708
_cell_formula_units_Z   8
loop_
 _symmetry_equiv_pos_site_id
 _symmetry_equiv_pos_as_xyz
  1  'x, y, z'
loop_
 _atom_site_type_symbol
 _atom_site_label
 _atom_site_symmetry_multiplicity
 _atom_site_fract_x
 _atom_site_fract_y
 _atom_site_fract_z
 _atom_site_occupancy
  La  La0  1  0.87500000  0.12500000  0.75000000  1
  La  La1  1  0.37500000  0.12500000  0.25000000  1
  La  La2  1  0.87500000  0.62500000  0.75000000  1
  La  La3  1  0.37500000  0.62500000  0.25000000  1
  La  La4  1  0.87500000  0.62500000  0.25000000  1
  La  La5  1  0.37500000  0.62500000  0.75000000  1
  La  La6  1  0.37500000  0.12500000  0.75000000  1
  La  La7  1  0.87500000  0.12500000  0.25000000  1
  Nb  Nb0  1  0.17332600  0.42673700  0.24601000  1
  Nb  Nb1  1  0.67332600  0.42731500  0.74658800  1
  Nb  Nb2  1  0.07268500  0.82667400  0.25341200  1
  Nb  Nb3  1  0.17731500  0.93072700  0.25399000  1
  Nb  Nb4  1  0.57326300  0.81927300  0.74658800  1
  Nb  Nb5  1  0.67673700  0.92332600  0.74601000  1
  Nb  Nb6  1  0.56927300  0.32268500  0.74601000  1
  Nb  Nb7  1  0.68072700  0.92673700  0.25341200  1
  Nb  Nb8  1  0.06927300  0.32326300  0.24658800  1
  Nb  Nb9  1  0.18072700  0.92731500  0.75399000  1
  Nb  Nb10  1  0.17673700  0.43072700  0.75341200  1
  Nb  Nb11  1  0.07326300  0.32667400  0.75399000  1
  Nb  Nb12  1  0.57268500  0.31927300  0.24601000  1
  Nb  Nb13  1  0.67731500  0.42332600  0.24658800  1
  Nb  Nb14  1  0.07667400  0.82268500  0.75341200  1
  Nb  Nb15  1  0.57667400  0.82326300  0.25399000  1
  Ag  Ag0  1  0.00118200  0.49881800  0.00000000  1
  Ag  Ag1  1  0.50118200  0.50118200  0.50236300  1
  Ag  Ag2  1  0.99881800  0.99881800  0.49763700  1
  Ag  Ag3  1  0.25118200  0.24881800  0.50000000  1
  Ag  Ag4  1  0.49881800  0.00118200  0.00000000  1
  Ag  Ag5  1  0.75118200  0.25118200  0.00236300  1
  Ag  Ag6  1  0.24881800  0.74881800  0.99763700  1
  Ag  Ag7  1  0.74881800  0.75118200  0.50000000  1
  O  O0  1  0.41451900  0.41766000  0.49674500  1
  O  O1  1  0.08222600  0.58548100  0.00314200  1
  O  O2  1  0.21662000  0.46586100  0.24471600  1
  O  O3  1  0.11732900  0.37500000  0.24232900  1
  O  O4  1  0.61732900  0.37500000  0.74232900  1
  O  O5  1  0.71662000  0.47190500  0.75075900  1
  O  O6  1  0.58222600  0.57908500  0.49674500  1
  O  O7  1  0.91451900  0.41777400  0.99685800  1
  O  O8  1  0.62500000  0.86732900  0.74232900  1
  O  O9  1  0.53413900  0.77885400  0.75075900  1
  O  O10  1  0.71586100  0.96662000  0.74471600  1
  O  O11  1  0.16721900  0.66721900  0.50000000  1
  O  O12  1  0.58335400  0.08335400  0.50000000  1
  O  O13  1  0.91721900  0.91721900  0.00000000  1
  O  O14  1  0.33278100  0.83278100  0.50000000  1
  O  O15  1  0.41664600  0.91664600  0.50000000  1
  O  O16  1  0.08278100  0.08278100  0.00000000  1
  O  O17  1  0.83335400  0.83335400  0.00000000  1
  O  O18  1  0.66664600  0.66664600  0.00000000  1
  O  O19  1  0.02809500  0.78338000  0.24924100  1
  O  O20  1  0.22190500  0.97114600  0.25528400  1
  O  O21  1  0.12500000  0.88267100  0.25767100  1
  O  O22  1  0.42091500  0.91766000  0.00314200  1
  O  O23  1  0.82908500  0.33222600  0.99674500  1
  O  O24  1  0.08234000  0.08548100  0.50325500  1
  O  O25  1  0.16766000  0.17091500  0.50314200  1
  O  O26  1  0.52885400  0.27809500  0.74471600  1
  O  O27  1  0.72114600  0.96586100  0.24924100  1
  O  O28  1  0.13267100  0.87500000  0.75767100  1
  O  O29  1  0.63267100  0.87500000  0.25767100  1
  O  O30  1  0.02885400  0.28413900  0.25075900  1
  O  O31  1  0.22114600  0.97190500  0.75528400  1
  O  O32  1  0.66766000  0.16451900  0.99674500  1
  O  O33  1  0.58234000  0.07908500  0.99685800  1
  O  O34  1  0.92091500  0.91777400  0.50325500  1
  O  O35  1  0.32908500  0.33234000  0.49685800  1
  O  O36  1  0.62500000  0.36732900  0.24232900  1
  O  O37  1  0.52809500  0.27885400  0.24471600  1
  O  O38  1  0.72190500  0.46662000  0.25075900  1
  O  O39  1  0.91664600  0.41664600  0.50000000  1
  O  O40  1  0.08335400  0.58335400  0.50000000  1
  O  O41  1  0.16664600  0.16664600  0.00000000  1
  O  O42  1  0.66721900  0.16721900  0.50000000  1
  O  O43  1  0.33335400  0.33335400  0.00000000  1
  O  O44  1  0.83278100  0.33278100  0.50000000  1
  O  O45  1  0.41721900  0.41721900  0.00000000  1
  O  O46  1  0.58278100  0.58278100  0.00000000  1
  O  O47  1  0.21586100  0.47114600  0.74924100  1
  O  O48  1  0.03413900  0.28338000  0.75528400  1
  O  O49  1  0.12500000  0.38267100  0.75767100  1
  O  O50  1  0.83548100  0.83222600  0.50314200  1
  O  O51  1  0.16777400  0.67091500  0.00325500  1
  O  O52  1  0.03338000  0.77809500  0.74924100  1
  O  O53  1  0.53338000  0.78413900  0.25528400  1
  O  O54  1  0.66777400  0.66451900  0.49685800  1
  O  O55  1  0.33548100  0.83234000  0.00325500  1
loop_
_geom_bond_atom_site_label_1
_geom_bond_atom_site_label_2
_geom_bond_distance
_geom_bond_site_symmetry_2
La0 O41 2.681246 1_656
La0 O12 2.681246 1_555
La0 O42 2.698169 1_555
La0 O16 2.698169 1_656
La0 O34 2.712767 1_545
La0 O23 2.712767 1_555
La0 O7 2.713435 1_555
La0 O50 2.713435 1_545
La0 O3 2.751538 1_656
La0 O29 2.751538 1_545
La0 O28 2.837261 1_645
La0 O4 2.837261 1_555
La1 O41 2.681246 1_555
La1 O12 2.681246 1_555
La1 O42 2.698169 1_555
La1 O16 2.698169 1_555
La1 O55 2.712767 1_545
La1 O0 2.712767 1_555
La1 O22 2.713406 1_545
La1 O35 2.713406 1_555
La1 O4 2.751538 1_555
La1 O28 2.751538 1_544
La1 O29 2.837261 1_545
La1 O3 2.837261 1_555
La2 O39 2.681246 1_555
La2 O17 2.681246 1_556
La2 O44 2.698169 1_555
La2 O13 2.698169 1_556
La2 O54 2.712785 1_555
La2 O1 2.712785 1_656
La2 O51 2.713423 1_656
La2 O6 2.713423 1_555
La2 O8 2.751538 1_555
La2 O49 2.751538 1_655
La2 O21 2.837261 1_656
La2 O36 2.837261 1_555
La3 O15 2.681246 1_555
La3 O43 2.681246 1_555
La3 O45 2.698169 1_555
La3 O14 2.698169 1_555
La3 O51 2.712767 1_555
La3 O6 2.712767 1_555
La3 O1 2.713435 1_555
La3 O54 2.713435 1_555
La3 O49 2.751538 1_554
La3 O8 2.751538 1_555
La3 O21 2.837261 1_555
La3 O36 2.837261 1_555
La4 O18 2.681246 1_555
La4 O40 2.681246 1_655
La4 O11 2.698169 1_655
La4 O46 2.698169 1_555
La4 O7 2.712785 1_554
La4 O50 2.712785 1_555
La4 O34 2.713423 1_555
La4 O23 2.713423 1_554
La4 O3 2.751538 1_655
La4 O29 2.751538 1_555
La4 O28 2.837261 1_655
La4 O4 2.837261 1_554
La5 O18 2.681246 1_556
La5 O40 2.681246 1_555
La5 O11 2.698169 1_555
La5 O46 2.698169 1_556
La5 O35 2.712755 1_555
La5 O22 2.712755 1_556
La5 O55 2.713423 1_556
La5 O0 2.713423 1_555
La5 O4 2.751538 1_555
La5 O28 2.751538 1_555
La5 O29 2.837261 1_556
La5 O3 2.837261 1_555
La6 O15 2.681246 1_545
La6 O43 2.681246 1_556
La6 O45 2.698169 1_556
La6 O14 2.698169 1_545
La6 O24 2.712767 1_555
La6 O32 2.712767 1_555
La6 O33 2.713406 1_555
La6 O25 2.713406 1_555
La6 O21 2.751538 1_545
La6 O36 2.751538 1_556
La6 O49 2.837261 1_555
La6 O8 2.837261 1_545
La7 O39 2.681246 1_555
La7 O17 2.681246 1_545
La7 O44 2.698169 1_555
La7 O13 2.698169 1_545
La7 O25 2.712755 1_655
La7 O33 2.712755 1_554
La7 O24 2.713423 1_655
La7 O32 2.713423 1_554
La7 O36 2.751538 1_555
La7 O21 2.751538 1_645
La7 O49 2.837261 1_655
La7 O8 2.837261 1_544
Nb0 O2 1.821945 1_555
Nb0 O7 2.012940 1_454
Nb0 O0 2.020720 1_555
Nb0 O11 2.023743 1_555
Nb0 O41 2.024689 1_555
Nb0 O3 2.264670 1_555
Nb1 O5 1.821966 1_555
Nb1 O0 2.012940 1_555
Nb1 O7 2.020712 1_555
Nb1 O42 2.023735 1_555
Nb1 O18 2.024697 1_556
Nb1 O4 2.264670 1_555
Nb2 O19 1.821966 1_555
Nb2 O24 2.012940 1_565
Nb2 O1 2.020712 1_555
Nb2 O14 2.023735 1_555
Nb2 O17 2.024697 1_455
Nb2 O21 2.264670 1_555
Nb3 O20 1.822010 1_555
Nb3 O25 2.012940 1_565
Nb3 O51 2.020719 1_555
Nb3 O13 2.023734 1_455
Nb3 O15 2.024689 1_555
Nb3 O21 2.264649 1_555
Nb4 O9 1.821988 1_555
Nb4 O6 2.012932 1_555
Nb4 O33 2.020720 1_565
Nb4 O14 2.023734 1_555
Nb4 O17 2.024689 1_556
Nb4 O8 2.264649 1_555
Nb5 O10 1.821945 1_555
Nb5 O54 2.012940 1_555
Nb5 O32 2.020720 1_565
Nb5 O13 2.023743 1_556
Nb5 O15 2.024689 1_555
Nb5 O8 2.264670 1_555
Nb6 O26 1.822010 1_555
Nb6 O35 2.012940 1_555
Nb6 O23 2.020719 1_555
Nb6 O46 2.023734 1_556
Nb6 O12 2.024689 1_555
Nb6 O4 2.264649 1_555
Nb7 O27 1.821988 1_555
Nb7 O34 2.012932 1_555
Nb7 O22 2.020720 1_555
Nb7 O42 2.023734 1_565
Nb7 O18 2.024689 1_555
Nb7 O29 2.264649 1_555
Nb8 O30 1.821988 1_555
Nb8 O23 2.012932 1_454
Nb8 O35 2.020720 1_555
Nb8 O16 2.023734 1_555
Nb8 O40 2.024689 1_555
Nb8 O3 2.264649 1_555
Nb9 O31 1.822010 1_555
Nb9 O22 2.012940 1_556
Nb9 O34 2.020719 1_455
Nb9 O11 2.023734 1_555
Nb9 O41 2.024689 1_566
Nb9 O28 2.264649 1_555
Nb10 O47 1.821988 1_555
Nb10 O51 2.012932 1_556
Nb10 O25 2.020720 1_555
Nb10 O45 2.023734 1_556
Nb10 O39 2.024689 1_455
Nb10 O49 2.264649 1_555
Nb11 O48 1.821945 1_555
Nb11 O1 2.012940 1_556
Nb11 O24 2.020720 1_555
Nb11 O44 2.023743 1_455
Nb11 O43 2.024689 1_556
Nb11 O49 2.264670 1_555
Nb12 O37 1.822010 1_555
Nb12 O33 2.012940 1_554
Nb12 O6 2.020719 1_555
Nb12 O44 2.023734 1_555
Nb12 O43 2.024689 1_555
Nb12 O36 2.264649 1_555
Nb13 O38 1.821966 1_555
Nb13 O32 2.012940 1_554
Nb13 O54 2.020712 1_555
Nb13 O45 2.023735 1_555
Nb13 O39 2.024697 1_555
Nb13 O36 2.264670 1_555
Nb14 O52 1.821966 1_555
Nb14 O55 2.012940 1_556
Nb14 O50 2.020712 1_455
Nb14 O16 2.023735 1_566
Nb14 O40 2.024697 1_555
Nb14 O28 2.264670 1_555
Nb15 O53 1.821945 1_555
Nb15 O50 2.012940 1_555
Nb15 O55 2.020720 1_555
Nb15 O46 2.023743 1_555
Nb15 O12 2.024689 1_565
Nb15 O29 2.264670 1_555
Ag0 O48 2.373009 1_554
Ag0 O2 2.373009 1_555
Ag0 O5 2.418087 1_454
Ag0 O19 2.418087 1_555
Ag1 O9 2.372984 1_555
Ag1 O5 2.373009 1_555
Ag1 O37 2.418056 1_555
Ag1 O2 2.418105 1_555
Ag2 O27 2.372984 1_555
Ag2 O19 2.373009 1_655
Ag2 O31 2.418056 1_655
Ag2 O48 2.418105 1_665
Ag3 O20 2.372984 1_545
Ag3 O26 2.372984 1_555
Ag3 O47 2.418087 1_555
Ag3 O30 2.418087 1_555
Ag4 O31 2.372984 1_544
Ag4 O37 2.372984 1_555
Ag4 O27 2.418087 1_545
Ag4 O9 2.418087 1_544
Ag5 O30 2.372984 1_655
Ag5 O38 2.373009 1_555
Ag5 O26 2.418056 1_554
Ag5 O10 2.418105 1_544
Ag6 O47 2.372984 1_555
Ag6 O52 2.373009 1_555
Ag6 O20 2.418056 1_556
Ag6 O53 2.418105 1_556
Ag7 O10 2.373009 1_555
Ag7 O53 2.373009 1_555
Ag7 O38 2.418087 1_555
Ag7 O52 2.418087 1_655
