# generated using pymatgen
data_Sr3(InN2)2
_symmetry_space_group_name_H-M   'P 1'
_cell_length_a   6.26154534
_cell_length_b   11.12978269
_cell_length_c   9.75998860
_cell_angle_alpha   90.00000000
_cell_angle_beta   90.00000000
_cell_angle_gamma   90.00000000
_symmetry_Int_Tables_number   1
_chemical_formula_structural   Sr3(InN2)2
_chemical_formula_sum   'Sr12 In8 N16'
_cell_volume   680.17008157
_cell_formula_units_Z   4
loop_
 _symmetry_equiv_pos_site_id
 _symmetry_equiv_pos_as_xyz
  1  'x, y, z'
loop_
 _atom_site_type_symbol
 _atom_site_label
 _atom_site_symmetry_multiplicity
 _atom_site_fract_x
 _atom_site_fract_y
 _atom_site_fract_z
 _atom_site_occupancy
  Sr  Sr0  1  0.60920212  0.15553303  0.41133334  1
  Sr  Sr1  1  0.89079788  0.84446697  0.41133334  1
  Sr  Sr2  1  0.60920212  0.34446697  0.08866666  1
  Sr  Sr3  1  0.89079788  0.65553303  0.08866666  1
  Sr  Sr4  1  0.39079788  0.84446697  0.58866666  1
  Sr  Sr5  1  0.10920212  0.15553303  0.58866666  1
  Sr  Sr6  1  0.39079788  0.65553303  0.91133334  1
  Sr  Sr7  1  0.10920212  0.34446697  0.91133334  1
  Sr  Sr8  1  0.75000000  0.50000000  0.40260791  1
  Sr  Sr9  1  0.75000000  0.00000000  0.09739209  1
  Sr  Sr10  1  0.25000000  0.50000000  0.59739209  1
  Sr  Sr11  1  0.25000000  0.00000000  0.90260791  1
  In  In0  1  0.75000000  0.50000000  0.73548045  1
  In  In1  1  0.75000000  0.00000000  0.76451955  1
  In  In2  1  0.25000000  0.50000000  0.26451955  1
  In  In3  1  0.25000000  0.00000000  0.23548045  1
  In  In4  1  0.64781782  0.25000000  0.75000000  1
  In  In5  1  0.85218218  0.75000000  0.75000000  1
  In  In6  1  0.35218218  0.75000000  0.25000000  1
  In  In7  1  0.14781782  0.25000000  0.25000000  1
  N  N0  1  0.89823308  0.35310802  0.61899505  1
  N  N1  1  0.60176692  0.64689198  0.61899505  1
  N  N2  1  0.89823308  0.14689198  0.88100495  1
  N  N3  1  0.60176692  0.85310802  0.88100495  1
  N  N4  1  0.10176692  0.64689198  0.38100495  1
  N  N5  1  0.39823308  0.35310802  0.38100495  1
  N  N6  1  0.10176692  0.85310802  0.11899505  1
  N  N7  1  0.39823308  0.14689198  0.11899505  1
  N  N8  1  0.48406613  0.40642346  0.84216490  1
  N  N9  1  0.01593387  0.59357654  0.84216490  1
  N  N10  1  0.48406613  0.09357654  0.65783510  1
  N  N11  1  0.01593387  0.90642346  0.65783510  1
  N  N12  1  0.51593387  0.59357654  0.15783510  1
  N  N13  1  0.98406613  0.40642346  0.15783510  1
  N  N14  1  0.51593387  0.90642346  0.34216490  1
  N  N15  1  0.98406613  0.09357654  0.34216490  1
loop_
_geom_bond_atom_site_label_1
_geom_bond_atom_site_label_2
_geom_bond_distance
_geom_bond_site_symmetry_2
In0 N0 2.197009 1_555
In0 N1 2.197009 1_555
In0 N8 2.222976 1_555
In0 N9 2.222976 1_655
In1 N3 2.197009 1_545
In1 N2 2.197009 1_555
In1 N10 2.222976 1_555
In1 N11 2.222976 1_645
In2 N5 2.197009 1_555
In2 N4 2.197009 1_555
In2 N13 2.222976 1_455
In2 N12 2.222976 1_555
In3 N7 2.197009 1_555
In3 N6 2.197009 1_545
In3 N15 2.222976 1_455
In3 N14 2.222976 1_545
In4 N10 2.211653 1_555
In4 N8 2.211653 1_555
In4 N2 2.326012 1_555
In4 N0 2.326012 1_555
In5 N9 2.211653 1_655
In5 N11 2.211653 1_655
In5 N3 2.326012 1_555
In5 N1 2.326012 1_555
In6 N12 2.211653 1_555
In6 N14 2.211653 1_555
In6 N6 2.326012 1_555
In6 N4 2.326012 1_555
In7 N13 2.211653 1_455
In7 N15 2.211653 1_455
In7 N7 2.326012 1_555
In7 N5 2.326012 1_555
N0 Sr5 2.582265 1_655
N0 Sr10 2.751135 1_655
N0 Sr8 2.827470 1_555
N0 Sr7 3.145652 1_655
N1 Sr4 2.582265 1_555
N1 Sr10 2.751135 1_555
N1 Sr8 2.827470 1_555
N1 Sr6 3.145652 1_555
N2 Sr7 2.582265 1_655
N2 Sr11 2.751135 1_655
N2 Sr9 2.827470 1_556
N2 Sr5 3.145652 1_655
N3 Sr6 2.582265 1_555
N3 Sr11 2.751135 1_565
N3 Sr9 2.827470 1_566
N3 Sr4 3.145652 1_555
N4 Sr1 2.582265 1_455
N4 Sr8 2.751135 1_455
N4 Sr10 2.827470 1_555
N4 Sr3 3.145652 1_455
N5 Sr0 2.582265 1_555
N5 Sr8 2.751135 1_555
N5 Sr10 2.827470 1_555
N5 Sr2 3.145652 1_555
N6 Sr3 2.582265 1_455
N6 Sr9 2.751135 1_465
N6 Sr11 2.827470 1_564
N6 Sr1 3.145652 1_455
N7 Sr2 2.582265 1_555
N7 Sr9 2.751135 1_555
N7 Sr11 2.827470 1_554
N7 Sr0 3.145652 1_555
N8 Sr7 2.537856 1_555
N8 Sr2 2.622513 1_556
N8 Sr6 2.912688 1_555
N8 Sr10 2.989975 1_555
N9 Sr6 2.537856 1_555
N9 Sr3 2.622513 1_456
N9 Sr7 2.912688 1_555
N9 Sr10 2.989975 1_555
N10 Sr5 2.537856 1_555
N10 Sr0 2.622513 1_555
N10 Sr4 2.912688 1_545
N10 Sr11 2.989975 1_555
N11 Sr4 2.537856 1_555
N11 Sr1 2.622513 1_455
N11 Sr5 2.912688 1_565
N11 Sr11 2.989975 1_565
N12 Sr3 2.537856 1_555
N12 Sr6 2.622513 1_554
N12 Sr2 2.912688 1_555
N12 Sr8 2.989975 1_555
N13 Sr2 2.537856 1_555
N13 Sr7 2.622513 1_654
N13 Sr3 2.912688 1_555
N13 Sr8 2.989975 1_555
N14 Sr1 2.537856 1_555
N14 Sr4 2.622513 1_555
N14 Sr0 2.912688 1_565
N14 Sr9 2.989975 1_565
N15 Sr0 2.537856 1_555
N15 Sr5 2.622513 1_655
N15 Sr1 2.912688 1_545
N15 Sr9 2.989975 1_555
