# generated using pymatgen
data_Tb3B7Mo
_symmetry_space_group_name_H-M   'P 1'
_cell_length_a   8.21471474
_cell_length_b   8.21471474
_cell_length_c   9.49539070
_cell_angle_alpha   90.00000000
_cell_angle_beta   90.00000000
_cell_angle_gamma   155.49866563
_symmetry_Int_Tables_number   1
_chemical_formula_structural   Tb3B7Mo
_chemical_formula_sum   'Tb6 B14 Mo2'
_cell_volume   265.73390221
_cell_formula_units_Z   2
loop_
 _symmetry_equiv_pos_site_id
 _symmetry_equiv_pos_as_xyz
  1  'x, y, z'
loop_
 _atom_site_type_symbol
 _atom_site_label
 _atom_site_symmetry_multiplicity
 _atom_site_fract_x
 _atom_site_fract_y
 _atom_site_fract_z
 _atom_site_occupancy
  Tb  Tb0  1  0.25685688  0.74314312  0.25000000  1
  Tb  Tb1  1  0.74314312  0.25685688  0.75000000  1
  Tb  Tb2  1  0.60634477  0.39365523  0.06056010  1
  Tb  Tb3  1  0.39365523  0.60634477  0.93943990  1
  Tb  Tb4  1  0.39365523  0.60634477  0.56056010  1
  Tb  Tb5  1  0.60634477  0.39365523  0.43943990  1
  B  B0  1  0.97985037  0.02014963  0.09270796  1
  B  B1  1  0.02014963  0.97985037  0.90729204  1
  B  B2  1  0.02014963  0.97985037  0.59270796  1
  B  B3  1  0.97985037  0.02014963  0.40729204  1
  B  B4  1  0.77277976  0.22722024  0.03305213  1
  B  B5  1  0.22722024  0.77277976  0.96694787  1
  B  B6  1  0.22722024  0.77277976  0.53305213  1
  B  B7  1  0.77277976  0.22722024  0.46694787  1
  B  B8  1  0.86553946  0.13446054  0.14748964  1
  B  B9  1  0.13446054  0.86553946  0.85251036  1
  B  B10  1  0.13446054  0.86553946  0.64748964  1
  B  B11  1  0.86553946  0.13446054  0.35251036  1
  B  B12  1  0.04242300  0.95757700  0.25000000  1
  B  B13  1  0.95757700  0.04242300  0.75000000  1
  Mo  Mo0  1  0.44605705  0.55394295  0.25000000  1
  Mo  Mo1  1  0.55394295  0.44605705  0.75000000  1
loop_
_geom_bond_atom_site_label_1
_geom_bond_atom_site_label_2
_geom_bond_distance
_geom_bond_site_symmetry_2
B0 B12 1.799988 1_645
B0 B1 1.875722 1_644
B0 B8 1.907589 1_555
B0 Mo0 2.358679 1_655
B0 Mo0 2.358679 1_545
B0 Tb3 2.659223 1_544
B0 Tb3 2.659223 1_654
B0 Tb2 2.693708 1_655
B0 Tb2 2.693708 1_545
B1 B13 1.799988 1_465
B1 B9 1.907589 1_555
B1 Mo1 2.358679 1_565
B1 Mo1 2.358679 1_455
B1 Tb2 2.659223 1_566
B1 Tb2 2.659223 1_456
B1 Tb3 2.693708 1_455
B1 Tb3 2.693708 1_565
B2 B3 1.875722 1_465
B2 Mo1 2.358679 1_565
B2 Mo1 2.358679 1_455
B2 Tb5 2.659223 1_565
B2 Tb5 2.659223 1_455
B2 Tb4 2.693708 1_455
B2 Tb4 2.693708 1_565
B3 Mo0 2.358679 1_545
B3 Mo0 2.358679 1_655
B3 Tb4 2.659223 1_545
B3 Tb4 2.659223 1_655
B3 Tb5 2.693708 1_655
B3 Tb5 2.693708 1_545
B4 B8 1.843566 1_555
B4 B5 1.991819 1_654
B4 B5 1.991819 1_544
B4 Tb2 2.684901 1_555
B4 Tb0 2.710586 1_545
B4 Tb0 2.710586 1_655
B4 Tb1 2.729485 1_554
B4 Tb3 2.755850 1_544
B4 Tb3 2.755850 1_654
B5 B9 1.843566 1_555
B5 Tb3 2.684901 1_555
B5 Tb1 2.710586 1_455
B5 Tb1 2.710586 1_565
B5 Tb0 2.729485 1_556
B5 Tb2 2.755850 1_566
B5 Tb2 2.755850 1_456
B6 B7 1.991819 1_565
B6 B7 1.991819 1_455
B6 Tb4 2.684901 1_555
B6 Tb1 2.710586 1_455
B6 Tb1 2.710586 1_565
B6 Tb0 2.729485 1_555
B6 Tb5 2.755850 1_565
B6 Tb5 2.755850 1_455
B7 Tb5 2.684901 1_555
B7 Tb0 2.710586 1_545
B7 Tb0 2.710586 1_655
B7 Tb1 2.729485 1_555
B7 Tb4 2.755850 1_545
B7 Tb4 2.755850 1_655
B8 Mo0 2.378429 1_655
B8 Mo0 2.378429 1_545
B8 Tb0 2.651519 1_545
B8 Tb0 2.651519 1_655
B8 Tb3 2.672962 1_544
B8 Tb3 2.672962 1_654
B9 Mo1 2.378429 1_455
B9 Mo1 2.378429 1_565
B9 Tb1 2.651519 1_455
B9 Tb1 2.651519 1_565
B9 Tb2 2.672962 1_566
B9 Tb2 2.672962 1_456
B10 B6 1.843566 1_555
B10 B2 1.907589 1_555
B10 B9 1.946752 1_555
B10 Mo1 2.378429 1_455
B10 Mo1 2.378429 1_565
B10 Tb1 2.651519 1_455
B10 Tb1 2.651519 1_565
B10 Tb5 2.672962 1_455
B10 Tb5 2.672962 1_565
B11 B7 1.843566 1_555
B11 B3 1.907589 1_555
B11 B8 1.946752 1_555
B11 Mo0 2.378429 1_545
B11 Mo0 2.378429 1_655
B11 Tb0 2.651519 1_545
B11 Tb0 2.651519 1_655
B11 Tb4 2.672962 1_545
B11 Tb4 2.672962 1_655
B12 B3 1.799988 1_465
B12 Mo0 2.330683 1_455
B12 Mo0 2.330683 1_565
B12 Tb5 2.706892 1_565
B12 Tb2 2.706892 1_565
B12 Tb5 2.706892 1_455
B12 Tb2 2.706892 1_455
B13 B2 1.799988 1_645
B13 Mo1 2.330683 1_545
B13 Mo1 2.330683 1_655
B13 Tb3 2.706892 1_545
B13 Tb3 2.706892 1_655
B13 Tb4 2.706892 1_545
B13 Tb4 2.706892 1_655
