# generated using pymatgen
data_V2ZnCoO7
_symmetry_space_group_name_H-M   'P 1'
_cell_length_a   14.24786400
_cell_length_b   6.56920600
_cell_length_c   11.89791676
_cell_angle_alpha   78.26446843
_cell_angle_beta   90.00000000
_cell_angle_gamma   90.00000000
_symmetry_Int_Tables_number   1
_chemical_formula_structural   V2ZnCoO7
_chemical_formula_sum   'V16 Zn8 Co8 O56'
_cell_volume   1090.33317937
_cell_formula_units_Z   8
loop_
 _symmetry_equiv_pos_site_id
 _symmetry_equiv_pos_as_xyz
  1  'x, y, z'
loop_
 _atom_site_type_symbol
 _atom_site_label
 _atom_site_symmetry_multiplicity
 _atom_site_fract_x
 _atom_site_fract_y
 _atom_site_fract_z
 _atom_site_occupancy
  V  V0  1  0.90041800  0.17941900  0.98792700  1
  V  V1  1  0.01573500  0.56652400  0.68163400  1
  V  V2  1  0.48426500  0.56652400  0.18163400  1
  V  V3  1  0.98426500  0.43347600  0.31836600  1
  V  V4  1  0.71050500  0.49731700  0.78565500  1
  V  V5  1  0.21050500  0.50268300  0.71434500  1
  V  V6  1  0.28949500  0.50268300  0.21434500  1
  V  V7  1  0.78949500  0.49731700  0.28565500  1
  V  V8  1  0.51573500  0.43347600  0.81836600  1
  V  V9  1  0.14250100  0.13347500  0.49279300  1
  V  V10  1  0.64250100  0.86652500  0.00720700  1
  V  V11  1  0.85749900  0.86652500  0.50720700  1
  V  V12  1  0.40041800  0.82058100  0.51207300  1
  V  V13  1  0.59958200  0.17941900  0.48792700  1
  V  V14  1  0.09958200  0.82058100  0.01207300  1
  V  V15  1  0.35749900  0.13347500  0.99279300  1
  Zn  Zn0  1  0.50100800  0.96636300  0.73063300  1
  Zn  Zn1  1  0.86609900  0.69785800  0.93494500  1
  Zn  Zn2  1  0.36609900  0.30214200  0.56505500  1
  Zn  Zn3  1  0.13390100  0.30214200  0.06505500  1
  Zn  Zn4  1  0.63390100  0.69785800  0.43494500  1
  Zn  Zn5  1  0.99899200  0.96636300  0.23063300  1
  Zn  Zn6  1  0.49899200  0.03363700  0.26936700  1
  Zn  Zn7  1  0.00100800  0.03363700  0.76936700  1
  Co  Co0  1  0.69430700  0.36308100  0.05870200  1
  Co  Co1  1  0.19430700  0.63691900  0.44129800  1
  Co  Co2  1  0.30569300  0.63691900  0.94129800  1
  Co  Co3  1  0.80569300  0.36308100  0.55870200  1
  Co  Co4  1  0.76468800  0.00852100  0.23009700  1
  Co  Co5  1  0.26468800  0.99147900  0.26990300  1
  Co  Co6  1  0.23531200  0.99147900  0.76990300  1
  Co  Co7  1  0.73531200  0.00852100  0.73009700  1
  O  O0  1  0.00875300  0.28193100  0.98189800  1
  O  O1  1  0.50875300  0.71806900  0.51810200  1
  O  O2  1  0.99124700  0.71806900  0.01810200  1
  O  O3  1  0.49124700  0.28193100  0.48189800  1
  O  O4  1  0.88658000  0.01856200  0.88429700  1
  O  O5  1  0.38658000  0.98143800  0.61570300  1
  O  O6  1  0.11342000  0.98143800  0.11570300  1
  O  O7  1  0.61342000  0.01856200  0.38429700  1
  O  O8  1  0.88370800  0.03318200  0.12850200  1
  O  O9  1  0.38370800  0.96681800  0.37149800  1
  O  O10  1  0.11629200  0.96681800  0.87149800  1
  O  O11  1  0.61629200  0.03318200  0.62850200  1
  O  O12  1  0.26841100  0.31540000  0.96939200  1
  O  O13  1  0.76841100  0.68460000  0.53060800  1
  O  O14  1  0.73158900  0.68460000  0.03060800  1
  O  O15  1  0.23158900  0.31540000  0.46939200  1
  O  O16  1  0.36566000  0.02682700  0.13742500  1
  O  O17  1  0.86566000  0.97317300  0.36257500  1
  O  O18  1  0.63434000  0.97317300  0.86257500  1
  O  O19  1  0.13434000  0.02682700  0.63742500  1
  O  O20  1  0.32782000  0.94768700  0.90941100  1
  O  O21  1  0.46196000  0.66930900  0.80753200  1
  O  O22  1  0.82782000  0.05231300  0.59058900  1
  O  O23  1  0.17218000  0.94768700  0.40941100  1
  O  O24  1  0.47376900  0.27848100  0.72921500  1
  O  O25  1  0.97376900  0.72151900  0.77078500  1
  O  O26  1  0.52623100  0.72151900  0.27078500  1
  O  O27  1  0.02623100  0.27848100  0.22921500  1
  O  O28  1  0.46305700  0.27098100  0.95117900  1
  O  O29  1  0.96305700  0.72901900  0.54882100  1
  O  O30  1  0.53694300  0.72901900  0.04882100  1
  O  O31  1  0.03694300  0.27098100  0.45117900  1
  O  O32  1  0.88732200  0.56264300  0.20300100  1
  O  O33  1  0.38732200  0.43735700  0.29699900  1
  O  O34  1  0.11267800  0.43735700  0.79699900  1
  O  O35  1  0.61267800  0.56264300  0.70300100  1
  O  O36  1  0.73554300  0.30965100  0.22275300  1
  O  O37  1  0.23554300  0.69034900  0.27724700  1
  O  O38  1  0.26445700  0.69034900  0.77724700  1
  O  O39  1  0.76445700  0.30965100  0.72275300  1
  O  O40  1  0.68045500  0.38914300  0.45691700  1
  O  O41  1  0.18045500  0.61085700  0.04308300  1
  O  O42  1  0.31954500  0.61085700  0.54308300  1
  O  O43  1  0.81954500  0.38914300  0.95691700  1
  O  O44  1  0.72315000  0.71851600  0.28699100  1
  O  O45  1  0.22315000  0.28148400  0.21300900  1
  O  O46  1  0.27685000  0.28148400  0.71300900  1
  O  O47  1  0.77685000  0.71851600  0.78699100  1
  O  O48  1  0.86766200  0.40313500  0.40533200  1
  O  O49  1  0.36766200  0.59686500  0.09466800  1
  O  O50  1  0.13233800  0.59686500  0.59466800  1
  O  O51  1  0.63233800  0.40313500  0.90533200  1
  O  O52  1  0.03804000  0.66930900  0.30753200  1
  O  O53  1  0.53804000  0.33069100  0.19246800  1
  O  O54  1  0.96196000  0.33069100  0.69246800  1
  O  O55  1  0.67218000  0.05231300  0.09058900  1
loop_
_geom_bond_atom_site_label_1
_geom_bond_atom_site_label_2
_geom_bond_distance
_geom_bond_site_symmetry_2
Co0 O51 1.995823 1_554
Co0 O36 1.999868 1_555
Co0 O55 2.023852 1_555
Co0 O14 2.137234 1_555
Co0 O43 2.143724 1_554
Co1 O50 1.995823 1_555
Co1 O37 1.999868 1_555
Co1 O23 2.023852 1_555
Co1 O15 2.137234 1_555
Co1 O42 2.143724 1_555
Co2 O49 1.995823 1_556
Co2 O38 1.999868 1_555
Co2 O20 2.023852 1_555
Co2 O12 2.137234 1_555
Co2 O41 2.143724 1_556
Co3 O48 1.995823 1_555
Co3 O39 1.999868 1_555
Co3 O22 2.023852 1_555
Co3 O13 2.137234 1_555
Co3 O40 2.143724 1_555
Co4 O44 1.978206 1_545
Co4 O36 2.005735 1_555
Co4 O8 2.069633 1_555
Co4 O55 2.093052 1_555
Co4 O17 2.111670 1_545
Co5 O45 1.978206 1_565
Co5 O37 2.005735 1_555
Co5 O9 2.069633 1_555
Co5 O23 2.093052 1_555
Co5 O16 2.111670 1_565
Co6 O46 1.978206 1_565
Co6 O38 2.005735 1_555
Co6 O10 2.069633 1_555
Co6 O20 2.093052 1_555
Co6 O19 2.111670 1_565
Co7 O47 1.978206 1_545
Co7 O39 2.005735 1_555
Co7 O11 2.069633 1_555
Co7 O22 2.093052 1_555
Co7 O18 2.111670 1_545
O0 V0 1.679737 1_455
O0 Zn3 2.056546 1_556
O1 V12 1.679737 1_555
O1 Zn4 2.056546 1_555
O2 V14 1.679737 1_655
O2 Zn1 2.056546 1_554
O3 V13 1.679737 1_555
O3 Zn2 2.056546 1_555
O4 V0 1.790458 1_555
O4 Zn1 2.090533 1_545
O4 Zn7 2.117223 1_655
O5 V12 1.790458 1_555
O5 Zn2 2.090533 1_565
O5 Zn0 2.117223 1_555
O6 V14 1.790458 1_555
O6 Zn3 2.090533 1_565
O6 Zn5 2.117223 1_455
O7 V13 1.790458 1_555
O7 Zn4 2.090533 1_545
O7 Zn6 2.117223 1_555
O8 V0 1.767305 1_554
O8 Zn5 2.037217 1_545
O9 V12 1.767305 1_555
O9 Zn6 2.037217 1_565
O10 V14 1.767305 1_556
O10 Zn7 2.037217 1_565
O11 V13 1.767305 1_555
O11 Zn0 2.037217 1_545
O12 V15 1.726728 1_555
O12 Zn3 2.221629 1_556
O13 V11 1.726728 1_555
O13 Zn4 2.221629 1_555
O14 V10 1.726728 1_555
O14 Zn1 2.221629 1_554
O15 V9 1.726728 1_555
O15 Zn2 2.221629 1_555
O16 V15 1.724862 1_554
O16 Zn6 2.470586 1_555
O17 V11 1.724862 1_555
O17 Zn5 2.470586 1_555
O18 V10 1.724862 1_556
O18 Zn0 2.470586 1_555
O19 V9 1.724862 1_555
O19 Zn7 2.470586 1_555
O20 V15 1.773452 1_565
O21 V8 1.709544 1_555
O21 Zn0 2.056294 1_555
O22 V11 1.773452 1_545
O23 V9 1.773452 1_565
O24 V8 1.720081 1_555
O24 Zn0 2.083468 1_545
O24 Zn2 2.463507 1_555
O25 V1 1.720081 1_655
O25 Zn7 2.083468 1_665
O25 Zn1 2.463507 1_555
O26 V2 1.720081 1_555
O26 Zn6 2.083468 1_565
O26 Zn4 2.463507 1_555
O27 V3 1.720081 1_455
O27 Zn5 2.083468 1_445
O27 Zn3 2.463507 1_555
O28 V15 1.772319 1_555
O28 V8 1.874474 1_555
O29 V11 1.772319 1_555
O29 V1 1.874474 1_655
O30 V10 1.772319 1_555
O30 V2 1.874474 1_555
O31 V9 1.772319 1_555
O31 V3 1.874474 1_455
O32 V7 1.709484 1_555
O32 V3 2.009490 1_555
O33 V6 1.709484 1_555
O33 V2 2.009490 1_555
O34 V5 1.709484 1_555
O34 V1 2.009490 1_555
O35 V4 1.709484 1_555
O35 V8 2.009490 1_555
O36 V7 1.745327 1_555
O37 V6 1.745327 1_555
O38 V5 1.745327 1_555
O39 V4 1.745327 1_555
O40 V13 1.776284 1_555
O40 Zn4 2.098921 1_555
O40 V7 2.545907 1_555
O41 V14 1.776284 1_555
O41 Zn3 2.098921 1_555
O41 V6 2.545907 1_555
O42 V12 1.776284 1_555
O42 Zn2 2.098921 1_555
O42 V5 2.545907 1_555
O43 V0 1.776284 1_555
O43 Zn1 2.098921 1_555
O43 V4 2.545907 1_555
O44 V7 1.736288 1_555
O44 Zn4 2.153378 1_555
O45 V6 1.736288 1_555
O45 Zn3 2.153378 1_555
O46 V5 1.736288 1_555
O46 Zn2 2.153378 1_555
O47 V4 1.736288 1_555
O47 Zn1 2.153378 1_555
O48 V7 1.814466 1_555
O48 V3 1.945901 1_555
O49 V6 1.814466 1_555
O49 V2 1.945901 1_555
O50 V5 1.814466 1_555
O50 V1 1.945901 1_555
O51 V4 1.814466 1_555
O51 V8 1.945901 1_555
O52 V3 1.709544 1_455
O52 Zn5 2.056294 1_455
O53 V2 1.709544 1_555
O53 Zn6 2.056294 1_555
O54 V1 1.709544 1_655
O54 Zn7 2.056294 1_655
O55 V10 1.773452 1_545
