# generated using pymatgen
data_Ba12V4O19
_symmetry_space_group_name_H-M   'P 1'
_cell_length_a   7.98237696
_cell_length_b   7.98237696
_cell_length_c   10.43099451
_cell_angle_alpha   89.94698735
_cell_angle_beta   89.94698735
_cell_angle_gamma   98.66478639
_symmetry_Int_Tables_number   1
_chemical_formula_structural   Ba12V4O19
_chemical_formula_sum   'Ba12 V4 O19'
_cell_volume   657.05918901
_cell_formula_units_Z   1
loop_
 _symmetry_equiv_pos_site_id
 _symmetry_equiv_pos_as_xyz
  1  'x, y, z'
loop_
 _atom_site_type_symbol
 _atom_site_label
 _atom_site_symmetry_multiplicity
 _atom_site_fract_x
 _atom_site_fract_y
 _atom_site_fract_z
 _atom_site_occupancy
  Ba  Ba0  1  0.73692300  0.26307700  0.50000000  1
  Ba  Ba1  1  0.25405400  0.74594600  0.00000000  1
  Ba  Ba2  1  0.74594600  0.25405400  0.00000000  1
  Ba  Ba3  1  0.26307700  0.73692300  0.50000000  1
  Ba  Ba4  1  0.57400700  0.57400700  0.24559100  1
  Ba  Ba5  1  0.07100800  0.07100800  0.76205200  1
  Ba  Ba6  1  0.42599300  0.42599300  0.75440900  1
  Ba  Ba7  1  0.92899200  0.92899200  0.23794800  1
  Ba  Ba8  1  0.74720900  0.74720900  0.92725200  1
  Ba  Ba9  1  0.25824800  0.25824800  0.42697500  1
  Ba  Ba10  1  0.25279100  0.25279100  0.07274800  1
  Ba  Ba11  1  0.74175200  0.74175200  0.57302500  1
  V  V0  1  0.50080000  0.00080400  0.25346900  1
  V  V1  1  0.99919600  0.49920000  0.74653100  1
  V  V2  1  0.00080400  0.50080000  0.25346900  1
  V  V3  1  0.49920000  0.99919600  0.74653100  1
  O  O0  1  0.26640700  0.95997200  0.26206400  1
  O  O1  1  0.76472800  0.45956400  0.74790100  1
  O  O2  1  0.54043600  0.23527200  0.25209900  1
  O  O3  1  0.04002800  0.73359300  0.73793600  1
  O  O4  1  0.90747200  0.60586200  0.38839100  1
  O  O5  1  0.40543500  0.09439000  0.88665800  1
  O  O6  1  0.90561000  0.59456500  0.11334200  1
  O  O7  1  0.39413800  0.09252800  0.61160900  1
  O  O8  1  0.23527200  0.54043600  0.25209900  1
  O  O9  1  0.73359300  0.04002800  0.73793600  1
  O  O10  1  0.95997200  0.26640700  0.26206400  1
  O  O11  1  0.45956400  0.76472800  0.74790100  1
  O  O12  1  0.59456500  0.90561000  0.11334200  1
  O  O13  1  0.09252800  0.39413800  0.61160900  1
  O  O14  1  0.60586200  0.90747200  0.38839100  1
  O  O15  1  0.09439000  0.40543500  0.88665800  1
  O  O16  1  0.50000000  0.50000000  0.00000000  1
  O  O17  1  0.00000000  0.00000000  0.00000000  1
  O  O18  1  0.50000000  0.50000000  0.50000000  1
loop_
_geom_bond_atom_site_label_1
_geom_bond_atom_site_label_2
_geom_bond_distance
_geom_bond_site_symmetry_2
Ba0 O18 2.868975 1_555
Ba0 O2 3.016548 1_555
Ba0 O1 3.016548 1_555
Ba0 O9 3.050912 1_555
Ba0 O10 3.050912 1_555
Ba0 O4 3.092653 1_555
Ba0 O7 3.092653 1_555
Ba0 O13 3.101762 1_655
Ba0 O14 3.101762 1_545
Ba1 O16 2.978237 1_555
Ba1 O12 3.061871 1_555
Ba1 O15 3.061871 1_554
Ba1 O17 3.076419 1_565
Ba1 O11 3.089626 1_554
Ba1 O8 3.089626 1_555
Ba1 O6 3.093990 1_455
Ba1 O5 3.093990 1_564
Ba1 O3 3.218597 1_554
Ba1 O0 3.218597 1_555
Ba2 O16 2.978237 1_555
Ba2 O6 3.061871 1_555
Ba2 O5 3.061871 1_554
Ba2 O17 3.076419 1_655
Ba2 O1 3.089626 1_554
Ba2 O2 3.089626 1_555
Ba2 O12 3.093990 1_545
Ba2 O15 3.093990 1_654
Ba2 O9 3.218597 1_554
Ba2 O10 3.218597 1_555
Ba3 O18 2.868975 1_555
Ba3 O8 3.016548 1_555
Ba3 O11 3.016548 1_555
Ba3 O0 3.050912 1_555
Ba3 O3 3.050912 1_555
Ba3 O14 3.092653 1_555
Ba3 O13 3.092653 1_555
Ba3 O7 3.101762 1_565
Ba3 O4 3.101762 1_455
Ba4 O16 2.676010 1_555
Ba4 O2 2.677472 1_555
Ba4 O8 2.677472 1_555
Ba4 O18 2.762128 1_555
Ba4 O6 2.966204 1_555
Ba4 O12 2.966204 1_555
Ba4 O14 3.028682 1_555
Ba4 O4 3.028682 1_555
Ba5 O17 2.588636 1_556
Ba5 O9 2.679436 1_455
Ba5 O3 2.679436 1_545
Ba5 O15 2.950816 1_555
Ba5 O5 2.950816 1_555
Ba5 O7 3.000608 1_555
Ba5 O13 3.000608 1_555
Ba6 O16 2.676010 1_556
Ba6 O11 2.677472 1_555
Ba6 O1 2.677472 1_555
Ba6 O18 2.762128 1_555
Ba6 O5 2.966204 1_555
Ba6 O15 2.966204 1_555
Ba6 O13 3.028682 1_555
Ba6 O7 3.028682 1_555
Ba7 O17 2.588636 1_665
Ba7 O0 2.679436 1_655
Ba7 O10 2.679436 1_565
Ba7 O6 2.950816 1_555
Ba7 O12 2.950816 1_555
Ba7 O14 3.000608 1_555
Ba7 O4 3.000608 1_555
Ba8 O16 2.680477 1_556
Ba8 O12 2.704746 1_556
Ba8 O6 2.704746 1_556
Ba8 O17 2.738294 1_666
Ba8 O11 2.982571 1_555
Ba8 O1 2.982571 1_555
Ba8 O3 3.072990 1_655
Ba8 O9 3.072990 1_565
Ba9 O18 2.628978 1_555
Ba9 O7 2.658418 1_555
Ba9 O13 2.658418 1_555
Ba9 O8 2.924462 1_555
Ba9 O2 2.924462 1_555
Ba9 O0 2.947254 1_545
Ba9 O10 2.947254 1_455
Ba10 O16 2.680477 1_555
Ba10 O15 2.704746 1_554
Ba10 O5 2.704746 1_554
Ba10 O17 2.738294 1_555
Ba10 O2 2.982571 1_555
Ba10 O8 2.982571 1_555
Ba10 O10 3.072990 1_455
Ba10 O0 3.072990 1_545
Ba11 O18 2.628978 1_555
Ba11 O14 2.658418 1_555
Ba11 O4 2.658418 1_555
Ba11 O11 2.924462 1_555
Ba11 O1 2.924462 1_555
Ba11 O3 2.947254 1_655
Ba11 O9 2.947254 1_565
O0 V0 1.852256 1_565
O1 V1 1.850610 1_555
O2 V0 1.850610 1_555
O3 V1 1.852256 1_455
O4 V2 1.851367 1_655
O5 V3 1.856198 1_545
O6 V2 1.856198 1_655
O7 V3 1.851367 1_545
O8 V2 1.850610 1_555
O9 V3 1.852256 1_545
O10 V2 1.852256 1_655
O11 V3 1.850610 1_555
O12 V0 1.856198 1_565
O13 V1 1.851367 1_455
O14 V0 1.851367 1_565
O15 V1 1.856198 1_455
