# generated using pymatgen
data_Na(FeO2)2
_symmetry_space_group_name_H-M   'P 1'
_cell_length_a   3.03797500
_cell_length_b   5.12655403
_cell_length_c   5.86140604
_cell_angle_alpha   106.16027362
_cell_angle_beta   90.85384673
_cell_angle_gamma   91.48078663
_symmetry_Int_Tables_number   1
_chemical_formula_structural   Na(FeO2)2
_chemical_formula_sum   'Na1 Fe2 O4'
_cell_volume   87.62800361
_cell_formula_units_Z   1
loop_
 _symmetry_equiv_pos_site_id
 _symmetry_equiv_pos_as_xyz
  1  'x, y, z'
loop_
 _atom_site_type_symbol
 _atom_site_label
 _atom_site_symmetry_multiplicity
 _atom_site_fract_x
 _atom_site_fract_y
 _atom_site_fract_z
 _atom_site_occupancy
  Na  Na0  1  0.00000000  0.50000000  0.50000000  1
  Fe  Fe0  1  0.50000000  0.50000000  0.00000000  1
  Fe  Fe1  1  0.00000000  0.00000000  0.00000000  1
  O  O0  1  0.03282100  0.28123700  0.81543300  1
  O  O1  1  0.49081800  0.75782700  0.81524100  1
  O  O2  1  0.96717900  0.71876300  0.18456700  1
  O  O3  1  0.50918200  0.24217300  0.18475900  1
loop_
_geom_bond_atom_site_label_1
_geom_bond_atom_site_label_2
_geom_bond_distance
_geom_bond_site_symmetry_2
Na0 O0 2.416729 1_555
Na0 O2 2.416729 1_455
Na0 O3 2.416844 1_455
Na0 O1 2.416844 1_555
Na0 O1 2.526947 1_455
Na0 O3 2.526947 1_555
Fe0 O2 1.907633 1_555
Fe0 O0 1.907633 1_554
Fe0 O3 1.928318 1_555
Fe0 O1 1.928318 1_554
Fe0 O2 2.125778 1_455
Fe0 O0 2.125778 1_654
Fe1 O2 2.030522 1_445
Fe1 O0 2.030522 1_554
Fe1 O1 2.051677 1_444
Fe1 O3 2.051677 1_555
Fe1 O3 2.081557 1_455
Fe1 O1 2.081557 1_544
