# generated using pymatgen
data_Na2MgP4(H2O3)6
_symmetry_space_group_name_H-M   'P 1'
_cell_length_a   11.56598900
_cell_length_b   8.23156500
_cell_length_c   9.14655995
_cell_angle_alpha   66.13644458
_cell_angle_beta   90.00000000
_cell_angle_gamma   90.00000000
_symmetry_Int_Tables_number   1
_chemical_formula_structural   Na2MgP4(H2O3)6
_chemical_formula_sum   'Na4 Mg2 P8 H24 O36'
_cell_volume   796.36493592
_cell_formula_units_Z   2
loop_
 _symmetry_equiv_pos_site_id
 _symmetry_equiv_pos_as_xyz
  1  'x, y, z'
loop_
 _atom_site_type_symbol
 _atom_site_label
 _atom_site_symmetry_multiplicity
 _atom_site_fract_x
 _atom_site_fract_y
 _atom_site_fract_z
 _atom_site_occupancy
  Na  Na0  1  0.75000000  0.75668700  0.91531200  1
  Na  Na1  1  0.25000000  0.24331300  0.08468800  1
  Na  Na2  1  0.75000000  0.01028100  0.44447900  1
  Na  Na3  1  0.25000000  0.98971900  0.55552100  1
  Mg  Mg0  1  0.25000000  0.52813700  0.73616100  1
  Mg  Mg1  1  0.75000000  0.47186300  0.26383900  1
  P  P0  1  0.51033600  0.70272300  0.64630700  1
  P  P1  1  0.01033600  0.29727700  0.35369300  1
  P  P2  1  0.48966400  0.29727700  0.35369300  1
  P  P3  1  0.98966400  0.70272300  0.64630700  1
  P  P4  1  0.50010300  0.31148700  0.83310100  1
  P  P5  1  0.00010300  0.68851300  0.16689900  1
  P  P6  1  0.49989700  0.68851300  0.16689900  1
  P  P7  1  0.99989700  0.31148700  0.83310100  1
  H  H0  1  0.50801600  0.74815300  0.86976200  1
  H  H1  1  0.00801600  0.25184700  0.13023800  1
  H  H2  1  0.49198400  0.25184700  0.13023800  1
  H  H3  1  0.99198400  0.74815300  0.86976200  1
  H  H4  1  0.48568000  0.17888300  0.66397400  1
  H  H5  1  0.98568000  0.82111700  0.33602600  1
  H  H6  1  0.51432000  0.82111700  0.33602600  1
  H  H7  1  0.01432000  0.17888300  0.66397400  1
  H  H8  1  0.68167300  0.38359700  0.01831700  1
  H  H9  1  0.18167300  0.61640300  0.98168300  1
  H  H10  1  0.31832700  0.61640300  0.98168300  1
  H  H11  1  0.81832700  0.38359700  0.01831700  1
  H  H12  1  0.68176500  0.10051300  0.71375200  1
  H  H13  1  0.18176500  0.89948700  0.28624800  1
  H  H14  1  0.31823500  0.89948700  0.28624800  1
  H  H15  1  0.81823500  0.10051300  0.71375200  1
  H  H16  1  0.68289300  0.06107200  0.12202800  1
  H  H17  1  0.18289300  0.93892800  0.87797200  1
  H  H18  1  0.31710700  0.93892800  0.87797200  1
  H  H19  1  0.81710700  0.06107200  0.12202800  1
  H  H20  1  0.31702300  0.42395800  0.50599200  1
  H  H21  1  0.81702300  0.57604200  0.49400800  1
  H  H22  1  0.68297700  0.57604200  0.49400800  1
  H  H23  1  0.18297700  0.42395800  0.50599200  1
  O  O0  1  0.56458800  0.75415700  0.78055700  1
  O  O1  1  0.06458800  0.24584300  0.21944300  1
  O  O2  1  0.43541200  0.24584300  0.21944300  1
  O  O3  1  0.93541200  0.75415700  0.78055700  1
  O  O4  1  0.54890800  0.49544900  0.69506000  1
  O  O5  1  0.04890800  0.50455100  0.30494000  1
  O  O6  1  0.45109200  0.50455100  0.30494000  1
  O  O7  1  0.95109200  0.49544900  0.69506000  1
  O  O8  1  0.38025100  0.71661500  0.64511800  1
  O  O9  1  0.88025100  0.28338500  0.35488200  1
  O  O10  1  0.61974900  0.28338500  0.35488200  1
  O  O11  1  0.11974900  0.71661500  0.64511800  1
  O  O12  1  0.57599500  0.80008600  0.49151100  1
  O  O13  1  0.07599500  0.19991400  0.50848900  1
  O  O14  1  0.42400500  0.19991400  0.50848900  1
  O  O15  1  0.92400500  0.80008600  0.49151100  1
  O  O16  1  0.53210900  0.16959300  0.76414600  1
  O  O17  1  0.03210900  0.83040700  0.23585400  1
  O  O18  1  0.46789100  0.83040700  0.23585400  1
  O  O19  1  0.96789100  0.16959300  0.76414600  1
  O  O20  1  0.56931300  0.26835400  0.98578200  1
  O  O21  1  0.06931300  0.73164600  0.01421800  1
  O  O22  1  0.43068700  0.73164600  0.01421800  1
  O  O23  1  0.93068700  0.26835400  0.98578200  1
  O  O24  1  0.37181700  0.33126200  0.84885100  1
  O  O25  1  0.87181700  0.66873800  0.15114900  1
  O  O26  1  0.62818300  0.66873800  0.15114900  1
  O  O27  1  0.12818300  0.33126200  0.84885100  1
  O  O28  1  0.75000000  0.44314300  0.04115400  1
  O  O29  1  0.25000000  0.55685700  0.95884600  1
  O  O30  1  0.75000000  0.03425700  0.70435000  1
  O  O31  1  0.25000000  0.96574300  0.29565000  1
  O  O32  1  0.75000000  0.00963600  0.19017000  1
  O  O33  1  0.25000000  0.99036400  0.80983000  1
  O  O34  1  0.25000000  0.48504800  0.52560700  1
  O  O35  1  0.75000000  0.51495200  0.47439300  1
loop_
_geom_bond_atom_site_label_1
_geom_bond_atom_site_label_2
_geom_bond_distance
_geom_bond_site_symmetry_2
Na0 O30 2.318732 1_565
Na0 O28 2.362734 1_556
Na0 O26 2.428728 1_556
Na0 O25 2.428728 1_556
Na0 O3 2.477728 1_555
Na0 O0 2.477728 1_555
Na1 O31 2.318732 1_545
Na1 O29 2.362734 1_554
Na1 O24 2.428728 1_554
Na1 O27 2.428728 1_554
Na1 O1 2.477728 1_555
Na1 O2 2.477728 1_555
Na2 O32 2.328206 1_555
Na2 O30 2.463391 1_555
Na2 O9 2.550345 1_555
Na2 O10 2.550345 1_555
Na2 O15 2.574265 1_545
Na2 O12 2.574265 1_545
Na3 O33 2.328206 1_555
Na3 O31 2.463391 1_555
Na3 O8 2.550345 1_555
Na3 O11 2.550345 1_555
Na3 O13 2.574265 1_565
Na3 O14 2.574265 1_565
Mg0 O24 2.079005 1_555
Mg0 O27 2.079005 1_555
Mg0 O8 2.079576 1_555
Mg0 O11 2.079576 1_555
Mg0 O34 2.094606 1_555
Mg0 O29 2.143376 1_555
Mg1 O25 2.079005 1_555
Mg1 O26 2.079005 1_555
Mg1 O9 2.079576 1_555
Mg1 O10 2.079576 1_555
Mg1 O35 2.094606 1_555
Mg1 O28 2.143376 1_555
H0 O0 1.031340 1_555
H0 O22 1.555280 1_556
H1 O1 1.031340 1_555
H1 O23 1.555280 1_454
H2 O2 1.031340 1_555
H2 O20 1.555280 1_554
H3 O3 1.031340 1_555
H3 O21 1.555280 1_656
H4 O16 1.037786 1_555
H4 O14 1.536921 1_555
H5 O17 1.037786 1_655
H5 O15 1.536921 1_555
H6 O18 1.037786 1_555
H6 O12 1.536921 1_555
H7 O19 1.037786 1_455
H7 O13 1.536921 1_555
H8 O28 0.995616 1_555
H8 O20 1.704614 1_554
H9 O29 0.995616 1_555
H9 O21 1.704614 1_556
H10 O29 0.995616 1_555
H10 O22 1.704614 1_556
H11 O28 0.995616 1_555
H11 O23 1.704614 1_554
H12 O30 0.982670 1_555
H13 O31 0.982670 1_555
H14 O31 0.982670 1_555
H15 O30 0.982670 1_555
H16 O32 0.978075 1_555
H17 O33 0.978075 1_555
H18 O33 0.978075 1_555
H19 O32 0.978075 1_555
H20 O34 0.979273 1_555
H21 O35 0.979273 1_555
H22 O35 0.979273 1_555
H23 O34 0.979273 1_555
O0 P0 1.581591 1_555
O1 P1 1.581591 1_555
O2 P2 1.581591 1_555
O3 P3 1.581591 1_555
O4 P4 1.630610 1_555
O4 P0 1.641144 1_555
O5 P5 1.630610 1_555
O5 P1 1.641144 1_555
O6 P6 1.630610 1_555
O6 P2 1.641144 1_555
O7 P7 1.630610 1_555
O7 P3 1.641144 1_555
O8 P0 1.508607 1_555
O9 P1 1.508607 1_655
O10 P2 1.508607 1_555
O11 P3 1.508607 1_455
O12 P0 1.518396 1_555
O13 P1 1.518396 1_555
O14 P2 1.518396 1_555
O15 P3 1.518396 1_555
O16 P4 1.579593 1_555
O17 P5 1.579593 1_555
O18 P6 1.579593 1_555
O19 P7 1.579593 1_555
O20 P4 1.521800 1_555
O21 P5 1.521800 1_555
O22 P6 1.521800 1_555
O23 P7 1.521800 1_555
O24 P4 1.505905 1_555
O25 P5 1.505905 1_655
O26 P6 1.505905 1_555
O27 P7 1.505905 1_455
