# generated using pymatgen
data_Ce3(Al3Pt2)2
_symmetry_space_group_name_H-M   'P 1'
_cell_length_a   4.30041700
_cell_length_b   13.93753100
_cell_length_c   17.47739700
_cell_angle_alpha   90.00000000
_cell_angle_beta   90.00000000
_cell_angle_gamma   90.00000000
_symmetry_Int_Tables_number   1
_chemical_formula_structural   Ce3(Al3Pt2)2
_chemical_formula_sum   'Ce12 Al24 Pt16'
_cell_volume   1047.54615646
_cell_formula_units_Z   4
loop_
 _symmetry_equiv_pos_site_id
 _symmetry_equiv_pos_as_xyz
  1  'x, y, z'
loop_
 _atom_site_type_symbol
 _atom_site_label
 _atom_site_symmetry_multiplicity
 _atom_site_fract_x
 _atom_site_fract_y
 _atom_site_fract_z
 _atom_site_occupancy
  Ce  Ce0  1  0.25000000  0.07360900  0.15205100  1
  Ce  Ce1  1  0.25000000  0.57360900  0.34794900  1
  Ce  Ce2  1  0.75000000  0.92639100  0.84794900  1
  Ce  Ce3  1  0.75000000  0.42639100  0.65205100  1
  Ce  Ce4  1  0.25000000  0.30270600  0.96958500  1
  Ce  Ce5  1  0.25000000  0.80270600  0.53041500  1
  Ce  Ce6  1  0.75000000  0.69729400  0.03041500  1
  Ce  Ce7  1  0.75000000  0.19729400  0.46958500  1
  Ce  Ce8  1  0.25000000  0.36799100  0.19375700  1
  Ce  Ce9  1  0.25000000  0.86799100  0.30624300  1
  Ce  Ce10  1  0.75000000  0.63200900  0.80624300  1
  Ce  Ce11  1  0.75000000  0.13200900  0.69375700  1
  Al  Al0  1  0.25000000  0.02701600  0.43298100  1
  Al  Al1  1  0.25000000  0.52701600  0.06701900  1
  Al  Al2  1  0.75000000  0.97298400  0.56701900  1
  Al  Al3  1  0.75000000  0.47298400  0.93298100  1
  Al  Al4  1  0.25000000  0.05549500  0.95534000  1
  Al  Al5  1  0.25000000  0.55549500  0.54466000  1
  Al  Al6  1  0.75000000  0.94450500  0.04466000  1
  Al  Al7  1  0.75000000  0.44450500  0.45534000  1
  Al  Al8  1  0.25000000  0.25192000  0.60635000  1
  Al  Al9  1  0.25000000  0.75192000  0.89365000  1
  Al  Al10  1  0.75000000  0.74808000  0.39365000  1
  Al  Al11  1  0.75000000  0.24808000  0.10635000  1
  Al  Al12  1  0.25000000  0.27093000  0.77090200  1
  Al  Al13  1  0.25000000  0.77093000  0.72909800  1
  Al  Al14  1  0.75000000  0.72907000  0.22909800  1
  Al  Al15  1  0.75000000  0.22907000  0.27090200  1
  Al  Al16  1  0.25000000  0.32717800  0.36867100  1
  Al  Al17  1  0.25000000  0.82717800  0.13132900  1
  Al  Al18  1  0.75000000  0.67282200  0.63132900  1
  Al  Al19  1  0.75000000  0.17282200  0.86867100  1
  Al  Al20  1  0.25000000  0.45965800  0.80792600  1
  Al  Al21  1  0.25000000  0.95965800  0.69207400  1
  Al  Al22  1  0.75000000  0.54034200  0.19207400  1
  Al  Al23  1  0.75000000  0.04034200  0.30792600  1
  Pt  Pt0  1  0.25000000  0.07433800  0.57292900  1
  Pt  Pt1  1  0.25000000  0.57433800  0.92707100  1
  Pt  Pt2  1  0.75000000  0.92566200  0.42707100  1
  Pt  Pt3  1  0.75000000  0.42566200  0.07292900  1
  Pt  Pt4  1  0.25000000  0.08713900  0.81031800  1
  Pt  Pt5  1  0.25000000  0.58713900  0.68968200  1
  Pt  Pt6  1  0.75000000  0.91286100  0.18968200  1
  Pt  Pt7  1  0.75000000  0.41286100  0.31031800  1
  Pt  Pt8  1  0.25000000  0.14841200  0.32205300  1
  Pt  Pt9  1  0.25000000  0.64841200  0.17794700  1
  Pt  Pt10  1  0.75000000  0.85158800  0.67794700  1
  Pt  Pt11  1  0.75000000  0.35158800  0.82205300  1
  Pt  Pt12  1  0.25000000  0.37613600  0.50772600  1
  Pt  Pt13  1  0.25000000  0.87613600  0.99227400  1
  Pt  Pt14  1  0.75000000  0.62386400  0.49227400  1
  Pt  Pt15  1  0.75000000  0.12386400  0.00772600  1
loop_
_geom_bond_atom_site_label_1
_geom_bond_atom_site_label_2
_geom_bond_distance
_geom_bond_site_symmetry_2
Ce0 Pt8 3.148799 1_555
Ce0 Pt6 3.174190 1_545
Ce0 Pt6 3.174190 1_445
Ce0 Pt15 3.387717 1_455
Ce0 Pt15 3.387717 1_555
Ce1 Pt9 3.148799 1_555
Ce1 Pt7 3.174190 1_555
Ce1 Pt7 3.174190 1_455
Ce1 Pt14 3.387717 1_555
Ce1 Pt14 3.387717 1_455
Ce2 Pt10 3.148799 1_555
Ce2 Pt4 3.174190 1_665
Ce2 Pt4 3.174190 1_565
Ce2 Pt13 3.387717 1_555
Ce2 Pt13 3.387717 1_655
Ce3 Pt11 3.148799 1_555
Ce3 Pt5 3.174190 1_555
Ce3 Pt5 3.174190 1_655
Ce3 Pt12 3.387717 1_555
Ce3 Pt12 3.387717 1_655
Ce4 Pt3 3.289753 1_456
Ce4 Pt3 3.289753 1_556
Ce4 Pt15 3.358704 1_556
Ce4 Pt15 3.358704 1_456
Ce4 Pt11 3.425798 1_455
Ce4 Pt11 3.425798 1_555
Ce5 Pt2 3.289753 1_555
Ce5 Pt2 3.289753 1_455
Ce5 Pt14 3.358704 1_455
Ce5 Pt14 3.358704 1_555
Ce5 Pt10 3.425798 1_455
Ce5 Pt10 3.425798 1_555
Ce6 Pt1 3.289753 1_554
Ce6 Pt1 3.289753 1_654
Ce6 Pt13 3.358704 1_654
Ce6 Pt13 3.358704 1_554
Ce6 Pt9 3.425798 1_555
Ce6 Pt9 3.425798 1_655
Ce7 Pt0 3.289753 1_655
Ce7 Pt0 3.289753 1_555
Ce7 Pt12 3.358704 1_655
Ce7 Pt12 3.358704 1_555
Ce7 Pt8 3.425798 1_555
Ce7 Pt8 3.425798 1_655
Ce8 Pt7 3.027310 1_455
Ce8 Pt7 3.027310 1_555
Ce8 Pt3 3.119135 1_555
Ce8 Pt3 3.119135 1_455
Ce9 Pt6 3.027310 1_555
Ce9 Pt6 3.027310 1_455
Ce9 Pt2 3.119135 1_455
Ce9 Pt2 3.119135 1_555
Ce10 Pt5 3.027310 1_555
Ce10 Pt5 3.027310 1_655
Ce10 Pt1 3.119135 1_655
Ce10 Pt1 3.119135 1_555
Ce11 Pt4 3.027310 1_555
Ce11 Pt4 3.027310 1_655
Ce11 Pt0 3.119135 1_555
Ce11 Pt0 3.119135 1_655
Al0 Pt0 2.533292 1_555
Al0 Pt8 2.573211 1_555
Al0 Pt2 2.574796 1_445
Al0 Pt2 2.574796 1_545
Al0 Ce9 3.133520 1_545
Al0 Ce7 3.265732 1_555
Al0 Ce7 3.265732 1_455
Al0 Ce5 3.560024 1_545
Al1 Pt1 2.533292 1_554
Al1 Pt9 2.573211 1_555
Al1 Pt3 2.574796 1_455
Al1 Pt3 2.574796 1_555
Al1 Ce8 3.133520 1_555
Al1 Ce6 3.265732 1_455
Al1 Ce6 3.265732 1_555
Al1 Ce4 3.560024 1_554
Al2 Pt2 2.533292 1_555
Al2 Pt10 2.573211 1_555
Al2 Pt0 2.574796 1_665
Al2 Pt0 2.574796 1_565
Al2 Ce11 3.133520 1_565
Al2 Ce5 3.265732 1_555
Al2 Ce5 3.265732 1_655
Al2 Ce7 3.560024 1_565
Al3 Pt3 2.533292 1_556
Al3 Pt11 2.573211 1_555
Al3 Pt1 2.574796 1_655
Al3 Pt1 2.574796 1_555
Al3 Ce10 3.133520 1_555
Al3 Ce4 3.265732 1_555
Al3 Ce4 3.265732 1_655
Al3 Ce6 3.560024 1_556
Al4 Pt15 2.523822 1_456
Al4 Pt15 2.523822 1_556
Al4 Pt4 2.572693 1_555
Al4 Pt13 2.581819 1_545
Al4 Ce2 3.374021 1_545
Al4 Ce2 3.374021 1_445
Al4 Ce0 3.447253 1_556
Al4 Ce4 3.454494 1_555
Al5 Pt14 2.523822 1_455
Al5 Pt14 2.523822 1_555
Al5 Pt5 2.572693 1_555
Al5 Pt12 2.581819 1_555
Al5 Ce3 3.374021 1_555
Al5 Ce3 3.374021 1_455
Al5 Ce1 3.447253 1_555
Al5 Ce5 3.454494 1_555
Al6 Pt13 2.523822 1_554
Al6 Pt13 2.523822 1_654
Al6 Pt6 2.572693 1_555
Al6 Pt15 2.581819 1_565
Al6 Ce0 3.374021 1_565
Al6 Ce0 3.374021 1_665
Al6 Ce2 3.447253 1_554
Al6 Ce6 3.454494 1_555
Al7 Pt12 2.523822 1_655
Al7 Pt12 2.523822 1_555
Al7 Pt7 2.572693 1_555
Al7 Pt14 2.581819 1_555
Al7 Ce1 3.374021 1_655
Al7 Ce1 3.374021 1_555
Al7 Ce3 3.447253 1_555
Al7 Ce7 3.454494 1_555
Al8 Pt12 2.443028 1_555
Al8 Pt0 2.543046 1_555
Al8 Ce11 3.122535 1_455
Al8 Ce11 3.122535 1_555
Al8 Ce7 3.304023 1_455
Al8 Ce7 3.304023 1_555
Al8 Ce3 3.342830 1_455
Al8 Ce3 3.342830 1_555
Al9 Pt13 2.443028 1_555
Al9 Pt1 2.543046 1_555
Al9 Ce10 3.122535 1_455
Al9 Ce10 3.122535 1_555
Al9 Ce6 3.304023 1_456
Al9 Ce6 3.304023 1_556
Al9 Ce2 3.342830 1_555
Al9 Ce2 3.342830 1_455
Al10 Pt14 2.443028 1_555
Al10 Pt2 2.543046 1_555
Al10 Ce9 3.122535 1_655
Al10 Ce9 3.122535 1_555
Al10 Ce5 3.304023 1_655
Al10 Ce5 3.304023 1_555
Al10 Ce1 3.342830 1_655
Al10 Ce1 3.342830 1_555
Al11 Pt15 2.443028 1_555
Al11 Pt3 2.543046 1_555
Al11 Ce8 3.122535 1_655
Al11 Ce8 3.122535 1_555
Al11 Ce4 3.304023 1_654
Al11 Ce4 3.304023 1_554
Al11 Ce0 3.342830 1_555
Al11 Ce0 3.342830 1_655
Al12 Pt11 2.585802 1_555
Al12 Pt11 2.585802 1_455
Al12 Pt4 2.652607 1_555
Al12 Ce11 3.192213 1_455
Al12 Ce11 3.192213 1_555
Al12 Ce4 3.500590 1_555
Al12 Ce3 3.692283 1_555
Al12 Ce3 3.692283 1_455
Al13 Pt10 2.585802 1_555
Al13 Pt10 2.585802 1_455
Al13 Pt5 2.652607 1_555
Al13 Ce10 3.192213 1_455
Al13 Ce10 3.192213 1_555
Al13 Ce5 3.500590 1_555
Al13 Ce2 3.692283 1_555
Al13 Ce2 3.692283 1_455
Al14 Pt9 2.585802 1_555
Al14 Pt9 2.585802 1_655
Al14 Pt6 2.652607 1_555
Al14 Ce9 3.192213 1_555
Al14 Ce9 3.192213 1_655
Al14 Ce6 3.500590 1_555
Al14 Ce1 3.692283 1_655
Al14 Ce1 3.692283 1_555
Al15 Pt8 2.585802 1_655
Al15 Pt8 2.585802 1_555
Al15 Pt7 2.652607 1_555
Al15 Ce8 3.192213 1_555
Al15 Ce8 3.192213 1_655
Al15 Ce7 3.500590 1_555
Al15 Ce0 3.692283 1_555
Al15 Ce0 3.692283 1_655
Al16 Pt12 2.524294 1_555
Al16 Pt8 2.621391 1_555
Al16 Pt7 2.662639 1_455
Al16 Pt7 2.662639 1_555
Al16 Ce8 3.109513 1_555
Al16 Ce7 3.318303 1_455
Al16 Ce7 3.318303 1_555
Al16 Ce1 3.453681 1_555
Al17 Pt13 2.524294 1_554
Al17 Pt9 2.621391 1_555
Al17 Pt6 2.662639 1_455
Al17 Pt6 2.662639 1_555
Al17 Ce9 3.109513 1_555
Al17 Ce6 3.318303 1_555
Al17 Ce6 3.318303 1_455
Al17 Ce0 3.453681 1_565
Al18 Pt14 2.524294 1_555
Al18 Pt10 2.621391 1_555
Al18 Pt5 2.662639 1_655
Al18 Pt5 2.662639 1_555
Al18 Ce10 3.109513 1_555
Al18 Ce5 3.318303 1_555
Al18 Ce5 3.318303 1_655
Al18 Ce3 3.453681 1_555
Al19 Pt15 2.524294 1_556
Al19 Pt11 2.621391 1_555
Al19 Pt4 2.662639 1_655
Al19 Pt4 2.662639 1_555
Al19 Ce11 3.109513 1_555
Al19 Ce4 3.318303 1_655
Al19 Ce4 3.318303 1_555
Al19 Ce2 3.453681 1_545
Al20 Pt1 2.625052 1_555
Al20 Pt11 2.636870 1_455
Al20 Pt11 2.636870 1_555
Al20 Pt5 2.725388 1_555
Al20 Ce10 3.224062 1_555
Al20 Ce10 3.224062 1_455
Al20 Ce3 3.501447 1_455
Al20 Ce3 3.501447 1_555
Al20 Ce4 3.573237 1_555
Al21 Pt0 2.625052 1_565
Al21 Pt10 2.636870 1_455
Al21 Pt10 2.636870 1_555
Al21 Pt4 2.725388 1_565
Al21 Ce11 3.224062 1_465
Al21 Ce11 3.224062 1_565
Al21 Ce2 3.501447 1_555
Al21 Ce2 3.501447 1_455
Al21 Ce5 3.573237 1_555
Al22 Pt3 2.625052 1_555
Al22 Pt9 2.636870 1_655
Al22 Pt9 2.636870 1_555
Al22 Pt7 2.725388 1_555
Al22 Ce8 3.224062 1_655
Al22 Ce8 3.224062 1_555
Al22 Ce1 3.501447 1_555
Al22 Ce1 3.501447 1_655
Al22 Ce6 3.573237 1_555
Al23 Pt2 2.625052 1_545
Al23 Pt8 2.636870 1_655
Al23 Pt8 2.636870 1_555
Al23 Pt6 2.725388 1_545
Al23 Ce9 3.224062 1_645
Al23 Ce9 3.224062 1_545
Al23 Ce0 3.501447 1_555
Al23 Ce0 3.501447 1_655
Al23 Ce7 3.573237 1_555
