# generated using pymatgen
data_MgNb3
_symmetry_space_group_name_H-M   'P 1'
_cell_length_a   4.72946391
_cell_length_b   4.72946391
_cell_length_c   4.72946391
_cell_angle_alpha   60.00000000
_cell_angle_beta   60.00000000
_cell_angle_gamma   60.00000000
_symmetry_Int_Tables_number   1
_chemical_formula_structural   MgNb3
_chemical_formula_sum   'Mg1 Nb3'
_cell_volume   74.80329847
_cell_formula_units_Z   1
loop_
 _symmetry_equiv_pos_site_id
 _symmetry_equiv_pos_as_xyz
  1  'x, y, z'
loop_
 _atom_site_type_symbol
 _atom_site_label
 _atom_site_symmetry_multiplicity
 _atom_site_fract_x
 _atom_site_fract_y
 _atom_site_fract_z
 _atom_site_occupancy
  Mg  Mg0  1  0.00000000  0.00000000  0.00000000  1
  Nb  Nb0  1  0.25000000  0.25000000  0.25000000  1
  Nb  Nb1  1  0.50000000  0.50000000  0.50000000  1
  Nb  Nb2  1  0.75000000  0.75000000  0.75000000  1
loop_
_geom_bond_atom_site_label_1
_geom_bond_atom_site_label_2
_geom_bond_distance
_geom_bond_site_symmetry_2
Mg0 Nb2 2.896193 1_454
Mg0 Nb0 2.896193 1_455
Mg0 Nb0 2.896193 1_545
Mg0 Nb2 2.896193 1_445
Mg0 Nb0 2.896193 1_555
Mg0 Nb0 2.896193 1_554
Mg0 Nb2 2.896193 1_544
Mg0 Nb2 2.896193 1_444
Mg0 Nb1 3.344236 1_455
Mg0 Nb1 3.344236 1_544
Mg0 Nb1 3.344236 1_545
Mg0 Nb1 3.344236 1_554
Mg0 Nb1 3.344236 1_445
Mg0 Nb1 3.344236 1_454
Nb0 Nb1 2.896193 1_555
Nb0 Nb1 2.896193 1_554
Nb0 Nb1 2.896193 1_455
Nb0 Nb1 2.896193 1_545
Nb1 Nb2 2.896193 1_555
Nb1 Nb2 2.896193 1_545
Nb1 Nb2 2.896193 1_554
Nb1 Nb2 2.896193 1_455
