# generated using pymatgen
data_NaBeSi3O8
_symmetry_space_group_name_H-M   'P 1'
_cell_length_a   7.36659716
_cell_length_b   7.36659716
_cell_length_c   14.20783693
_cell_angle_alpha   78.08984180
_cell_angle_beta   78.08984180
_cell_angle_gamma   60.55019439
_symmetry_Int_Tables_number   1
_chemical_formula_structural   NaBeSi3O8
_chemical_formula_sum   'Na4 Be4 Si12 O32'
_cell_volume   651.93597802
_cell_formula_units_Z   4
loop_
 _symmetry_equiv_pos_site_id
 _symmetry_equiv_pos_as_xyz
  1  'x, y, z'
loop_
 _atom_site_type_symbol
 _atom_site_label
 _atom_site_symmetry_multiplicity
 _atom_site_fract_x
 _atom_site_fract_y
 _atom_site_fract_z
 _atom_site_occupancy
  Na  Na0  1  0.31305200  0.62995000  0.42996100  1
  Na  Na1  1  0.37005000  0.68694800  0.07003900  1
  Na  Na2  1  0.68694800  0.37005000  0.57003900  1
  Na  Na3  1  0.62995000  0.31305200  0.92996100  1
  Be  Be0  1  0.15356200  0.50843900  0.99704800  1
  Be  Be1  1  0.49156100  0.84643800  0.50295200  1
  Be  Be2  1  0.84643800  0.49156100  0.00295200  1
  Be  Be3  1  0.50843900  0.15356200  0.49704800  1
  Si  Si0  1  0.81581300  0.77502200  0.14173100  1
  Si  Si1  1  0.22497800  0.18418700  0.35826900  1
  Si  Si2  1  0.18418700  0.22497800  0.85826900  1
  Si  Si3  1  0.77502200  0.81581300  0.64173100  1
  Si  Si4  1  0.84946700  0.64628300  0.36625100  1
  Si  Si5  1  0.35371700  0.15053300  0.13374900  1
  Si  Si6  1  0.15053300  0.35371700  0.63374900  1
  Si  Si7  1  0.64628300  0.84946700  0.86625100  1
  Si  Si8  1  0.06566900  0.87512000  0.86142300  1
  Si  Si9  1  0.12488000  0.93433100  0.63857700  1
  Si  Si10  1  0.93433100  0.12488000  0.13857700  1
  Si  Si11  1  0.87512000  0.06566900  0.36142300  1
  O  O0  1  0.96090800  0.89372000  0.12647700  1
  O  O1  1  0.10628000  0.03909200  0.37352300  1
  O  O2  1  0.03909200  0.10628000  0.87352300  1
  O  O3  1  0.89372000  0.96090800  0.62647700  1
  O  O4  1  0.93993300  0.57933600  0.61547400  1
  O  O5  1  0.42066400  0.06006700  0.88452600  1
  O  O6  1  0.06006700  0.42066400  0.38452600  1
  O  O7  1  0.57933600  0.93993300  0.11547400  1
  O  O8  1  0.92428100  0.59520200  0.07021000  1
  O  O9  1  0.40479800  0.07571900  0.42979000  1
  O  O10  1  0.07571900  0.40479800  0.92979000  1
  O  O11  1  0.59520200  0.92428100  0.57021000  1
  O  O12  1  0.20213400  0.32334400  0.74470100  1
  O  O13  1  0.67665600  0.79786600  0.75529900  1
  O  O14  1  0.79786600  0.67665600  0.25529900  1
  O  O15  1  0.32334400  0.20213400  0.24470100  1
  O  O16  1  0.34477700  0.34533800  0.55534500  1
  O  O17  1  0.65466200  0.65522300  0.94465500  1
  O  O18  1  0.65522300  0.65466200  0.44465500  1
  O  O19  1  0.34533800  0.34477700  0.05534500  1
  O  O20  1  0.92673400  0.81750600  0.37470800  1
  O  O21  1  0.18249400  0.07326600  0.12529200  1
  O  O22  1  0.07326600  0.18249400  0.62529200  1
  O  O23  1  0.81750600  0.92673400  0.87470800  1
  O  O24  1  0.17368800  0.82631200  0.75000000  1
  O  O25  1  0.82631200  0.17368800  0.25000000  1
  O  O26  1  0.20267800  0.69050800  0.93825400  1
  O  O27  1  0.30949200  0.79732200  0.56174600  1
  O  O28  1  0.79732200  0.30949200  0.06174600  1
  O  O29  1  0.69050800  0.20267800  0.43825400  1
  O  O30  1  0.43099800  0.56900200  0.25000000  1
  O  O31  1  0.56900200  0.43099800  0.75000000  1
loop_
_geom_bond_atom_site_label_1
_geom_bond_atom_site_label_2
_geom_bond_distance
_geom_bond_site_symmetry_2
Na0 O16 2.402569 1_555
Na0 O27 2.434646 1_555
Na0 O30 2.582111 1_555
Na0 O1 2.653202 1_565
Na0 O18 2.667290 1_555
Na0 O20 2.689261 1_455
Na1 O17 2.402569 1_554
Na1 O26 2.434646 1_554
Na1 O30 2.582111 1_555
Na1 O0 2.653202 1_455
Na1 O19 2.667290 1_555
Na1 O21 2.689261 1_565
Na2 O18 2.402569 1_555
Na2 O29 2.434646 1_555
Na2 O31 2.582111 1_555
Na2 O3 2.653202 1_545
Na2 O16 2.667290 1_555
Na2 O22 2.689261 1_655
Na3 O19 2.402569 1_556
Na3 O28 2.434646 1_556
Na3 O31 2.582111 1_555
Na3 O2 2.653202 1_655
Na3 O17 2.667290 1_555
Na3 O23 2.689261 1_545
Be0 O26 1.586691 1_555
Be0 O19 1.591032 1_556
Be0 O10 1.668146 1_555
Be0 O8 1.682210 1_456
Be1 O27 1.586691 1_555
Be1 O18 1.591032 1_555
Be1 O11 1.668146 1_555
Be1 O9 1.682210 1_565
Be2 O28 1.586691 1_555
Be2 O17 1.591032 1_554
Be2 O8 1.668146 1_555
Be2 O10 1.682210 1_654
Be3 O29 1.586691 1_555
Be3 O16 1.591032 1_555
Be3 O9 1.668146 1_555
Be3 O11 1.682210 1_545
O0 Si0 1.642920 1_555
O0 Si10 1.657328 1_565
O1 Si1 1.642920 1_555
O1 Si11 1.657328 1_455
O2 Si2 1.642920 1_555
O2 Si8 1.657328 1_545
O3 Si3 1.642920 1_555
O3 Si9 1.657328 1_655
O4 Si3 1.627838 1_555
O4 Si6 1.639912 1_655
O5 Si2 1.627838 1_555
O5 Si7 1.639912 1_545
O6 Si1 1.627838 1_555
O6 Si4 1.639912 1_455
O7 Si0 1.627838 1_555
O7 Si5 1.639912 1_565
O8 Si0 1.614133 1_555
O9 Si1 1.614133 1_555
O10 Si2 1.614133 1_555
O11 Si3 1.614133 1_555
O12 Si2 1.633912 1_555
O12 Si6 1.642459 1_555
O13 Si3 1.633912 1_555
O13 Si7 1.642459 1_555
O14 Si0 1.633912 1_555
O14 Si4 1.642459 1_555
O15 Si1 1.633912 1_555
O15 Si5 1.642459 1_555
O16 Si6 1.604940 1_555
O17 Si7 1.604940 1_555
O18 Si4 1.604940 1_555
O19 Si5 1.604940 1_555
O20 Si11 1.651033 1_565
O20 Si4 1.651099 1_555
O21 Si10 1.651033 1_455
O21 Si5 1.651099 1_555
O22 Si9 1.651033 1_545
O22 Si6 1.651099 1_555
O23 Si8 1.651033 1_655
O23 Si7 1.651099 1_555
O24 Si9 1.643856 1_555
O24 Si8 1.643856 1_555
O25 Si10 1.643856 1_555
O25 Si11 1.643856 1_555
O26 Si8 1.597515 1_555
O27 Si9 1.597515 1_555
O28 Si10 1.597515 1_555
O29 Si11 1.597515 1_555
