# generated using pymatgen
data_Cs3Sm2N9
_symmetry_space_group_name_H-M   'P 1'
_cell_length_a   8.96134546
_cell_length_b   8.96134546
_cell_length_c   8.96134584
_cell_angle_alpha   90.78620166
_cell_angle_beta   90.78620166
_cell_angle_gamma   90.78620790
_symmetry_Int_Tables_number   1
_chemical_formula_structural   Cs3Sm2N9
_chemical_formula_sum   'Cs6 Sm4 N18'
_cell_volume   719.44213384
_cell_formula_units_Z   2
loop_
 _symmetry_equiv_pos_site_id
 _symmetry_equiv_pos_as_xyz
  1  'x, y, z'
loop_
 _atom_site_type_symbol
 _atom_site_label
 _atom_site_symmetry_multiplicity
 _atom_site_fract_x
 _atom_site_fract_y
 _atom_site_fract_z
 _atom_site_occupancy
  Cs  Cs0  1  0.91852200  0.58147800  0.25000000  1
  Cs  Cs1  1  0.25000000  0.91852200  0.58147800  1
  Cs  Cs2  1  0.58147800  0.25000000  0.91852200  1
  Cs  Cs3  1  0.75000000  0.08147800  0.41852200  1
  Cs  Cs4  1  0.41852200  0.75000000  0.08147800  1
  Cs  Cs5  1  0.08147800  0.41852200  0.75000000  1
  Sm  Sm0  1  0.36058000  0.36058000  0.36058000  1
  Sm  Sm1  1  0.86058000  0.86058000  0.86058000  1
  Sm  Sm2  1  0.63942000  0.63942000  0.63942000  1
  Sm  Sm3  1  0.13942000  0.13942000  0.13942000  1
  N  N0  1  0.38056600  0.11943400  0.25000000  1
  N  N1  1  0.25000000  0.38056600  0.11943400  1
  N  N2  1  0.11943400  0.25000000  0.38056600  1
  N  N3  1  0.75000000  0.61943400  0.88056600  1
  N  N4  1  0.88056600  0.75000000  0.61943400  1
  N  N5  1  0.61943400  0.88056600  0.75000000  1
  N  N6  1  0.74224800  0.92450300  0.09158000  1
  N  N7  1  0.09158000  0.74224800  0.92450300  1
  N  N8  1  0.92450200  0.09158000  0.74224800  1
  N  N9  1  0.59158000  0.42450200  0.24224800  1
  N  N10  1  0.24224800  0.59158000  0.42450200  1
  N  N11  1  0.42450200  0.24224800  0.59158000  1
  N  N12  1  0.25775200  0.07549800  0.90842000  1
  N  N13  1  0.90842000  0.25775200  0.07549800  1
  N  N14  1  0.07549800  0.90842000  0.25775200  1
  N  N15  1  0.40842000  0.57549800  0.75775200  1
  N  N16  1  0.75775200  0.40842000  0.57549800  1
  N  N17  1  0.57549700  0.75775200  0.40842000  1
loop_
_geom_bond_atom_site_label_1
_geom_bond_atom_site_label_2
_geom_bond_distance
_geom_bond_site_symmetry_2
Cs0 N9 3.232069 1_555
Cs0 N14 3.232069 1_655
Cs0 N13 3.276265 1_555
Cs0 N10 3.276265 1_655
Cs0 N7 3.628656 1_654
Cs0 N16 3.628664 1_555
Cs0 N4 3.642031 1_555
Cs0 N3 3.642031 1_554
Cs0 N2 3.690358 1_655
Cs0 N1 3.690358 1_655
Cs0 N6 3.761843 1_555
Cs0 N17 3.761843 1_555
Cs1 N10 3.232069 1_555
Cs1 N12 3.232069 1_565
Cs1 N11 3.276265 1_565
Cs1 N14 3.276265 1_555
Cs1 N17 3.628656 1_555
Cs1 N8 3.628664 1_465
Cs1 N4 3.642030 1_455
Cs1 N5 3.642030 1_555
Cs1 N0 3.690358 1_565
Cs1 N2 3.690358 1_565
Cs1 N15 3.761836 1_555
Cs1 N7 3.761843 1_555
Cs2 N13 3.232069 1_556
Cs2 N11 3.232069 1_555
Cs2 N12 3.276265 1_555
Cs2 N9 3.276265 1_556
Cs2 N6 3.628656 1_546
Cs2 N15 3.628664 1_555
Cs2 N3 3.642030 1_555
Cs2 N5 3.642030 1_545
Cs2 N0 3.690358 1_556
Cs2 N1 3.690358 1_556
Cs2 N16 3.761836 1_555
Cs2 N8 3.761836 1_555
Cs3 N6 3.232065 1_545
Cs3 N16 3.232069 1_555
Cs3 N8 3.276265 1_555
Cs3 N17 3.276269 1_545
Cs3 N11 3.628664 1_555
Cs3 N14 3.628664 1_645
Cs3 N2 3.642030 1_655
Cs3 N0 3.642030 1_555
Cs3 N5 3.690358 1_545
Cs3 N4 3.690358 1_545
Cs3 N13 3.761836 1_555
Cs3 N9 3.761836 1_555
Cs4 N7 3.232065 1_554
Cs4 N17 3.232065 1_555
Cs4 N15 3.276265 1_554
Cs4 N6 3.276269 1_555
Cs4 N12 3.628664 1_564
Cs4 N9 3.628664 1_555
Cs4 N1 3.642030 1_555
Cs4 N0 3.642030 1_565
Cs4 N5 3.690358 1_554
Cs4 N3 3.690358 1_554
Cs4 N10 3.761836 1_555
Cs4 N14 3.761836 1_555
Cs5 N15 3.232069 1_555
Cs5 N8 3.232069 1_455
Cs5 N16 3.276265 1_455
Cs5 N7 3.276269 1_555
Cs5 N10 3.628664 1_555
Cs5 N13 3.628664 1_456
Cs5 N1 3.642031 1_556
Cs5 N2 3.642031 1_555
Cs5 N3 3.690358 1_455
Cs5 N4 3.690358 1_455
Cs5 N11 3.761836 1_555
Cs5 N12 3.761836 1_555
N0 Sm3 2.375008 1_555
N0 Sm0 2.375008 1_555
N1 Sm3 2.375008 1_555
N1 Sm0 2.375008 1_555
N2 Sm0 2.375008 1_555
N2 Sm3 2.375008 1_555
N3 Sm1 2.375008 1_555
N3 Sm2 2.375008 1_555
N4 Sm2 2.375008 1_555
N4 Sm1 2.375008 1_555
N5 Sm2 2.375008 1_555
N5 Sm1 2.375008 1_555
N6 Sm1 2.404617 1_554
N7 Sm1 2.404617 1_455
N8 Sm1 2.404614 1_545
N9 Sm0 2.404614 1_555
N10 Sm0 2.404615 1_555
N11 Sm0 2.404615 1_555
N12 Sm3 2.404615 1_556
N13 Sm3 2.404615 1_655
N14 Sm3 2.404614 1_565
N15 Sm2 2.404614 1_555
N16 Sm2 2.404615 1_555
N17 Sm2 2.404617 1_555
