# generated using pymatgen
data_Sr4SiAs4
_symmetry_space_group_name_H-M   'P 1'
_cell_length_a   12.77859436
_cell_length_b   12.77859436
_cell_length_c   12.77859436
_cell_angle_alpha   90.00000000
_cell_angle_beta   90.00000000
_cell_angle_gamma   90.00000000
_symmetry_Int_Tables_number   1
_chemical_formula_structural   Sr4SiAs4
_chemical_formula_sum   'Sr32 Si8 As32'
_cell_volume   2086.64828495
_cell_formula_units_Z   8
loop_
 _symmetry_equiv_pos_site_id
 _symmetry_equiv_pos_as_xyz
  1  'x, y, z'
loop_
 _atom_site_type_symbol
 _atom_site_label
 _atom_site_symmetry_multiplicity
 _atom_site_fract_x
 _atom_site_fract_y
 _atom_site_fract_z
 _atom_site_occupancy
  Sr  Sr0  1  0.13226380  0.64428726  0.09608913  1
  Sr  Sr1  1  0.35571274  0.90391087  0.13226380  1
  Sr  Sr2  1  0.09608913  0.86773620  0.35571274  1
  Sr  Sr3  1  0.86773620  0.35571274  0.09608913  1
  Sr  Sr4  1  0.64428726  0.09608913  0.13226380  1
  Sr  Sr5  1  0.90391087  0.13226380  0.35571274  1
  Sr  Sr6  1  0.13226380  0.35571274  0.90391087  1
  Sr  Sr7  1  0.35571274  0.09608913  0.86773620  1
  Sr  Sr8  1  0.09608913  0.13226380  0.64428726  1
  Sr  Sr9  1  0.86773620  0.64428726  0.90391087  1
  Sr  Sr10  1  0.64428726  0.90391087  0.86773620  1
  Sr  Sr11  1  0.90391087  0.86773620  0.64428726  1
  Sr  Sr12  1  0.63226380  0.59608913  0.14428726  1
  Sr  Sr13  1  0.85571274  0.63226380  0.40391087  1
  Sr  Sr14  1  0.59608913  0.85571274  0.36773620  1
  Sr  Sr15  1  0.36773620  0.59608913  0.85571274  1
  Sr  Sr16  1  0.14428726  0.63226380  0.59608913  1
  Sr  Sr17  1  0.40391087  0.85571274  0.63226380  1
  Sr  Sr18  1  0.63226380  0.40391087  0.85571274  1
  Sr  Sr19  1  0.85571274  0.36773620  0.59608913  1
  Sr  Sr20  1  0.59608913  0.14428726  0.63226380  1
  Sr  Sr21  1  0.36773620  0.40391087  0.14428726  1
  Sr  Sr22  1  0.14428726  0.36773620  0.40391087  1
  Sr  Sr23  1  0.40391087  0.14428726  0.36773620  1
  Sr  Sr24  1  0.85546380  0.14453620  0.85546380  1
  Sr  Sr25  1  0.14453620  0.85546380  0.85546380  1
  Sr  Sr26  1  0.85546380  0.85546380  0.14453620  1
  Sr  Sr27  1  0.14453620  0.14453620  0.14453620  1
  Sr  Sr28  1  0.35546380  0.35546380  0.64453620  1
  Sr  Sr29  1  0.64453620  0.35546380  0.35546380  1
  Sr  Sr30  1  0.35546380  0.64453620  0.35546380  1
  Sr  Sr31  1  0.64453620  0.64453620  0.64453620  1
  Si  Si0  1  -0.00000000  0.50000000  0.25000000  1
  Si  Si1  1  0.50000000  0.75000000  0.00000000  1
  Si  Si2  1  0.25000000  -0.00000000  0.50000000  1
  Si  Si3  1  0.50000000  0.25000000  0.00000000  1
  Si  Si4  1  0.75000000  -0.00000000  0.50000000  1
  Si  Si5  1  -0.00000000  0.50000000  0.75000000  1
  Si  Si6  1  0.50000000  0.50000000  0.50000000  1
  Si  Si7  1  -0.00000000  -0.00000000  0.00000000  1
  As  As0  1  0.10605929  0.61603984  0.35136208  1
  As  As1  1  0.38396016  0.64863792  0.10605929  1
  As  As2  1  0.35136208  0.89394071  0.38396016  1
  As  As3  1  0.89394071  0.38396016  0.35136208  1
  As  As4  1  0.61603984  0.35136208  0.10605929  1
  As  As5  1  0.64863792  0.10605929  0.38396016  1
  As  As6  1  0.10605929  0.38396016  0.64863792  1
  As  As7  1  0.38396016  0.35136208  0.89394071  1
  As  As8  1  0.35136208  0.10605929  0.61603984  1
  As  As9  1  0.89394071  0.61603984  0.64863792  1
  As  As10  1  0.61603984  0.64863792  0.89394071  1
  As  As11  1  0.64863792  0.89394071  0.61603984  1
  As  As12  1  0.60605929  0.85136208  0.11603984  1
  As  As13  1  0.88396016  0.60605929  0.14863792  1
  As  As14  1  0.85136208  0.88396016  0.39394071  1
  As  As15  1  0.39394071  0.85136208  0.88396016  1
  As  As16  1  0.11603984  0.60605929  0.85136208  1
  As  As17  1  0.14863792  0.88396016  0.60605929  1
  As  As18  1  0.60605929  0.14863792  0.88396016  1
  As  As19  1  0.88396016  0.39394071  0.85136208  1
  As  As20  1  0.85136208  0.11603984  0.60605929  1
  As  As21  1  0.39394071  0.14863792  0.11603984  1
  As  As22  1  0.11603984  0.39394071  0.14863792  1
  As  As23  1  0.14863792  0.11603984  0.39394071  1
  As  As24  1  0.10750383  0.89249617  0.10750383  1
  As  As25  1  0.89249617  0.10750383  0.10750383  1
  As  As26  1  0.10750383  0.10750383  0.89249617  1
  As  As27  1  0.89249617  0.89249617  0.89249617  1
  As  As28  1  0.60750383  0.60750383  0.39249617  1
  As  As29  1  0.39249617  0.60750383  0.60750383  1
  As  As30  1  0.60750383  0.39249617  0.60750383  1
  As  As31  1  0.39249617  0.39249617  0.39249617  1
loop_
_geom_bond_atom_site_label_1
_geom_bond_atom_site_label_2
_geom_bond_distance
_geom_bond_site_symmetry_2
Si0 Sr22 3.181872 1_555
Si0 Sr13 3.181872 1_455
Si0 Sr0 3.181872 1_555
Si0 Sr3 3.181872 1_455
Si1 Sr1 3.181872 1_555
Si1 Sr12 3.181872 1_555
Si1 Sr15 3.181872 1_554
Si1 Sr10 3.181872 1_554
Si2 Sr23 3.181872 1_555
Si2 Sr17 3.181872 1_545
Si2 Sr8 3.181872 1_555
Si2 Sr2 3.181872 1_545
Si3 Sr21 3.181872 1_555
Si3 Sr7 3.181872 1_554
Si3 Sr4 3.181872 1_555
Si3 Sr18 3.181872 1_554
Si4 Sr20 3.181872 1_555
Si4 Sr5 3.181872 1_555
Si4 Sr14 3.181872 1_545
Si4 Sr11 3.181872 1_545
Si5 Sr6 3.181872 1_555
Si5 Sr16 3.181872 1_555
Si5 Sr19 3.181872 1_455
Si5 Sr9 3.181872 1_455
Si6 Sr29 3.199045 1_555
Si6 Sr30 3.199045 1_555
Si6 Sr28 3.199045 1_555
Si6 Sr31 3.199045 1_555
Si7 Sr25 3.199045 1_544
Si7 Sr24 3.199045 1_454
Si7 Sr26 3.199045 1_445
Si7 Sr27 3.199045 1_555
As0 Si0 2.390249 1_555
As0 Sr16 3.171974 1_555
As0 Sr30 3.208203 1_555
As0 Sr2 3.219328 1_555
As0 Sr13 3.275361 1_455
As0 Sr22 3.279831 1_555
As0 Sr0 3.298979 1_555
As1 Si1 2.390249 1_555
As1 Sr21 3.171974 1_555
As1 Sr30 3.208203 1_555
As1 Sr0 3.219328 1_555
As1 Sr15 3.275361 1_554
As1 Sr12 3.279831 1_555
As1 Sr1 3.298979 1_555
As2 Si2 2.390249 1_565
As2 Sr14 3.171974 1_555
As2 Sr30 3.208203 1_555
As2 Sr1 3.219328 1_555
As2 Sr23 3.275361 1_565
As2 Sr17 3.279831 1_555
As2 Sr2 3.298979 1_555
As3 Si0 2.390249 1_655
As3 Sr19 3.171974 1_555
As3 Sr29 3.208203 1_555
As3 Sr5 3.219328 1_555
As3 Sr22 3.275361 1_655
As3 Sr13 3.279831 1_555
As3 Sr3 3.298979 1_555
As4 Si3 2.390249 1_555
As4 Sr12 3.171974 1_555
As4 Sr29 3.208203 1_555
As4 Sr3 3.219328 1_555
As4 Sr18 3.275361 1_554
As4 Sr21 3.279831 1_555
As4 Sr4 3.298979 1_555
As5 Si4 2.390249 1_555
As5 Sr23 3.171974 1_555
As5 Sr29 3.208203 1_555
As5 Sr4 3.219328 1_555
As5 Sr14 3.275361 1_545
As5 Sr20 3.279831 1_555
As5 Sr5 3.298979 1_555
As6 Si5 2.390249 1_555
As6 Sr22 3.171974 1_555
As6 Sr28 3.208203 1_555
As6 Sr8 3.219328 1_555
As6 Sr19 3.275361 1_455
As6 Sr16 3.279831 1_555
As6 Sr6 3.298979 1_555
As7 Si3 2.390249 1_556
As7 Sr15 3.171974 1_555
As7 Sr28 3.208203 1_555
As7 Sr6 3.219328 1_555
As7 Sr21 3.275361 1_556
As7 Sr18 3.279831 1_555
As7 Sr7 3.298979 1_555
As8 Si2 2.390249 1_555
As8 Sr20 3.171974 1_555
As8 Sr28 3.208203 1_555
As8 Sr7 3.219328 1_555
As8 Sr17 3.275361 1_545
As8 Sr23 3.279831 1_555
As8 Sr8 3.298979 1_555
As9 Si5 2.390249 1_655
As9 Sr13 3.171974 1_555
As9 Sr31 3.208203 1_555
As9 Sr11 3.219328 1_555
As9 Sr16 3.275361 1_655
As9 Sr19 3.279831 1_555
As9 Sr9 3.298979 1_555
As10 Si1 2.390249 1_556
As10 Sr18 3.171974 1_555
As10 Sr31 3.208203 1_555
As10 Sr9 3.219328 1_555
As10 Sr12 3.275361 1_556
As10 Sr15 3.279831 1_555
As10 Sr10 3.298979 1_555
As11 Si4 2.390249 1_565
As11 Sr17 3.171974 1_555
As11 Sr31 3.208203 1_555
As11 Sr10 3.219328 1_555
As11 Sr20 3.275361 1_565
As11 Sr14 3.279831 1_555
As11 Sr11 3.298979 1_555
As12 Si1 2.390249 1_555
As12 Sr4 3.171974 1_565
As12 Sr26 3.208203 1_555
As12 Sr14 3.219328 1_555
As12 Sr1 3.275361 1_555
As12 Sr10 3.279831 1_554
As12 Sr12 3.298979 1_555
As13 Si0 2.390249 1_655
As13 Sr9 3.171974 1_554
As13 Sr26 3.208203 1_555
As13 Sr12 3.219328 1_555
As13 Sr3 3.275361 1_555
As13 Sr0 3.279831 1_655
As13 Sr13 3.298979 1_555
As14 Si4 2.390249 1_565
As14 Sr2 3.171974 1_655
As14 Sr26 3.208203 1_555
As14 Sr13 3.219328 1_555
As14 Sr11 3.275361 1_555
As14 Sr5 3.279831 1_565
As14 Sr14 3.298979 1_555
As15 Si1 2.390249 1_556
As15 Sr7 3.171974 1_565
As15 Sr25 3.208203 1_555
As15 Sr17 3.219328 1_555
As15 Sr10 3.275361 1_555
As15 Sr1 3.279831 1_556
As15 Sr15 3.298979 1_555
As16 Si5 2.390249 1_555
As16 Sr0 3.171974 1_556
As16 Sr25 3.208203 1_555
As16 Sr15 3.219328 1_555
As16 Sr6 3.275361 1_555
As16 Sr9 3.279831 1_455
As16 Sr16 3.298979 1_555
As17 Si2 2.390249 1_565
As17 Sr11 3.171974 1_455
As17 Sr25 3.208203 1_555
As17 Sr16 3.219328 1_555
As17 Sr2 3.275361 1_555
As17 Sr8 3.279831 1_565
As17 Sr17 3.298979 1_555
As18 Si3 2.390249 1_556
As18 Sr10 3.171974 1_545
As18 Sr24 3.208203 1_555
As18 Sr20 3.219328 1_555
As18 Sr7 3.275361 1_555
As18 Sr4 3.279831 1_556
As18 Sr18 3.298979 1_555
As19 Si5 2.390249 1_655
As19 Sr3 3.171974 1_556
As19 Sr24 3.208203 1_555
As19 Sr18 3.219328 1_555
As19 Sr9 3.275361 1_555
As19 Sr6 3.279831 1_655
As19 Sr19 3.298979 1_555
As20 Si4 2.390249 1_555
As20 Sr8 3.171974 1_655
As20 Sr24 3.208203 1_555
As20 Sr19 3.219328 1_555
As20 Sr5 3.275361 1_555
As20 Sr11 3.279831 1_545
As20 Sr20 3.298979 1_555
As21 Si3 2.390249 1_555
As21 Sr1 3.171974 1_545
As21 Sr27 3.208203 1_555
As21 Sr23 3.219328 1_555
As21 Sr4 3.275361 1_555
As21 Sr7 3.279831 1_554
As21 Sr21 3.298979 1_555
As22 Si0 2.390249 1_555
As22 Sr6 3.171974 1_554
As22 Sr27 3.208203 1_555
As22 Sr21 3.219328 1_555
As22 Sr0 3.275361 1_555
As22 Sr3 3.279831 1_455
As22 Sr22 3.298979 1_555
As23 Si2 2.390249 1_555
As23 Sr5 3.171974 1_455
As23 Sr27 3.208203 1_555
As23 Sr22 3.219328 1_555
As23 Sr8 3.275361 1_555
As23 Sr2 3.279831 1_545
As23 Sr23 3.298979 1_555
As24 Si7 2.379401 1_565
As24 Sr0 3.190839 1_555
As24 Sr1 3.190839 1_555
As24 Sr2 3.190839 1_555
As24 Sr25 3.289513 1_554
As24 Sr26 3.289513 1_455
As24 Sr27 3.289513 1_565
As25 Si7 2.379401 1_655
As25 Sr4 3.190839 1_555
As25 Sr3 3.190839 1_555
As25 Sr5 3.190839 1_555
As25 Sr24 3.289513 1_554
As25 Sr26 3.289513 1_545
As25 Sr27 3.289513 1_655
As26 Si7 2.379401 1_556
As26 Sr8 3.190839 1_555
As26 Sr6 3.190839 1_555
As26 Sr7 3.190839 1_555
As26 Sr25 3.289513 1_545
As26 Sr24 3.289513 1_455
As26 Sr27 3.289513 1_556
As27 Si7 2.379401 1_666
As27 Sr11 3.190839 1_555
As27 Sr9 3.190839 1_555
As27 Sr10 3.190839 1_555
As27 Sr26 3.289513 1_556
As27 Sr24 3.289513 1_565
As27 Sr25 3.289513 1_655
As28 Si6 2.379401 1_555
As28 Sr12 3.190839 1_555
As28 Sr14 3.190839 1_555
As28 Sr13 3.190839 1_555
As28 Sr29 3.289513 1_555
As28 Sr30 3.289513 1_555
As28 Sr31 3.289513 1_555
As29 Si6 2.379401 1_555
As29 Sr16 3.190839 1_555
As29 Sr15 3.190839 1_555
As29 Sr17 3.190839 1_555
As29 Sr28 3.289513 1_555
As29 Sr30 3.289513 1_555
As29 Sr31 3.289513 1_555
As30 Si6 2.379401 1_555
As30 Sr19 3.190839 1_555
As30 Sr20 3.190839 1_555
As30 Sr18 3.190839 1_555
As30 Sr28 3.289513 1_555
As30 Sr29 3.289513 1_555
As30 Sr31 3.289513 1_555
As31 Si6 2.379401 1_555
As31 Sr21 3.190839 1_555
As31 Sr22 3.190839 1_555
As31 Sr23 3.190839 1_555
As31 Sr28 3.289513 1_555
As31 Sr29 3.289513 1_555
As31 Sr30 3.289513 1_555
