# generated using pymatgen
data_TiGePd
_symmetry_space_group_name_H-M   'P 1'
_cell_length_a   6.54094064
_cell_length_b   6.54094097
_cell_length_c   3.70898257
_cell_angle_alpha   90.00000000
_cell_angle_beta   90.00000000
_cell_angle_gamma   119.99999833
_symmetry_Int_Tables_number   1
_chemical_formula_structural   TiGePd
_chemical_formula_sum   'Ti3 Ge3 Pd3'
_cell_volume   137.42503905
_cell_formula_units_Z   3
loop_
 _symmetry_equiv_pos_site_id
 _symmetry_equiv_pos_as_xyz
  1  'x, y, z'
loop_
 _atom_site_type_symbol
 _atom_site_label
 _atom_site_symmetry_multiplicity
 _atom_site_fract_x
 _atom_site_fract_y
 _atom_site_fract_z
 _atom_site_occupancy
  Ti  Ti0  1  0.41281884  0.41281884  -0.00000000  1
  Ti  Ti1  1  0.58718116  0.00000000  -0.00000000  1
  Ti  Ti2  1  1.00000000  0.58718116  0.00000000  1
  Ge  Ge0  1  0.66666700  0.33333300  0.50000000  1
  Ge  Ge1  1  0.00000000  -0.00000000  -0.00000000  1
  Ge  Ge2  1  0.33333300  0.66666700  0.50000000  1
  Pd  Pd0  1  1.00000000  0.26051532  0.50000000  1
  Pd  Pd1  1  0.73948468  0.73948468  0.50000000  1
  Pd  Pd2  1  0.26051532  0.00000000  0.50000000  1
loop_
_geom_bond_atom_site_label_1
_geom_bond_atom_site_label_2
_geom_bond_distance
_geom_bond_site_symmetry_2
Ge0 Pd0 2.453383 1_555
Ge0 Pd2 2.453388 1_555
Ge0 Pd1 2.453390 1_555
Ge0 Ti1 2.707330 1_556
Ge0 Ti1 2.707330 1_555
Ge0 Ti2 2.707331 1_555
Ge0 Ti2 2.707331 1_556
Ge0 Ti0 2.707334 1_556
Ge0 Ti0 2.707334 1_555
Ge1 Pd2 2.518493 1_554
Ge1 Pd2 2.518493 1_555
Ge1 Pd1 2.518493 1_444
Ge1 Pd0 2.518493 1_455
Ge1 Pd0 2.518493 1_454
Ge1 Pd1 2.518493 1_445
Ge1 Ti1 2.700224 1_455
Ge1 Ti2 2.700224 1_445
Ge1 Ti0 2.700224 1_555
Ge2 Pd2 2.453383 1_565
Ge2 Pd0 2.453388 1_455
Ge2 Pd1 2.453390 1_555
Ge2 Ti2 2.707330 1_455
Ge2 Ti2 2.707330 1_456
Ge2 Ti1 2.707331 1_566
Ge2 Ti1 2.707331 1_565
Ge2 Ti0 2.707334 1_555
Ge2 Ti0 2.707334 1_556
Pd0 Ti2 2.829246 1_555
Pd0 Ti2 2.829246 1_556
Pd0 Ti0 3.005460 1_656
Pd0 Ti0 3.005460 1_655
Pd0 Ti1 3.005460 1_555
Pd0 Ti1 3.005460 1_556
Pd1 Ti0 2.829246 1_556
Pd1 Ti0 2.829246 1_555
Pd1 Ti2 3.005460 1_555
Pd1 Ti2 3.005460 1_556
Pd1 Ti1 3.005460 1_565
Pd1 Ti1 3.005460 1_566
Pd2 Ti1 2.829246 1_555
Pd2 Ti1 2.829246 1_556
Pd2 Ti0 3.005460 1_556
Pd2 Ti0 3.005460 1_555
Pd2 Ti2 3.005460 1_446
Pd2 Ti2 3.005460 1_445
