# generated using pymatgen
data_K2LiP3O10
_symmetry_space_group_name_H-M   'P 1'
_cell_length_a   14.56871900
_cell_length_b   7.88099800
_cell_length_c   8.70030708
_cell_angle_alpha   82.53551471
_cell_angle_beta   90.00000000
_cell_angle_gamma   90.00000000
_symmetry_Int_Tables_number   1
_chemical_formula_structural   K2LiP3O10
_chemical_formula_sum   'K8 Li4 P12 O40'
_cell_volume   990.46945563
_cell_formula_units_Z   4
loop_
 _symmetry_equiv_pos_site_id
 _symmetry_equiv_pos_as_xyz
  1  'x, y, z'
loop_
 _atom_site_type_symbol
 _atom_site_label
 _atom_site_symmetry_multiplicity
 _atom_site_fract_x
 _atom_site_fract_y
 _atom_site_fract_z
 _atom_site_occupancy
  K  K0  1  0.71537800  0.55078800  0.82115200  1
  K  K1  1  0.21537800  0.94921200  0.17884800  1
  K  K2  1  0.28462200  0.44921200  0.17884800  1
  K  K3  1  0.78462200  0.05078800  0.82115200  1
  K  K4  1  0.59346400  0.83148300  0.46398100  1
  K  K5  1  0.09346400  0.66851700  0.53601900  1
  K  K6  1  0.40653600  0.16851700  0.53601900  1
  K  K7  1  0.90653600  0.33148300  0.46398100  1
  Li  Li0  1  0.61534800  0.84785400  0.08059300  1
  Li  Li1  1  0.11534800  0.65214600  0.91940700  1
  Li  Li2  1  0.38465200  0.15214600  0.91940700  1
  Li  Li3  1  0.88465200  0.34785400  0.08059300  1
  P  P0  1  0.65649300  0.28755300  0.48663000  1
  P  P1  1  0.15649300  0.21244700  0.51337000  1
  P  P2  1  0.34350700  0.71244700  0.51337000  1
  P  P3  1  0.84350700  0.78755300  0.48663000  1
  P  P4  1  0.67939300  0.22477000  0.16466300  1
  P  P5  1  0.17939300  0.27523000  0.83533700  1
  P  P6  1  0.32060700  0.77523000  0.83533700  1
  P  P7  1  0.82060700  0.72477000  0.16466300  1
  P  P8  1  0.54451600  0.48025600  0.24286300  1
  P  P9  1  0.04451600  0.01974400  0.75713700  1
  P  P10  1  0.45548400  0.51974400  0.75713700  1
  P  P11  1  0.95548400  0.98025600  0.24286300  1
  O  O0  1  0.61289300  0.39103400  0.12921300  1
  O  O1  1  0.11289300  0.10896600  0.87078700  1
  O  O2  1  0.38710700  0.60896600  0.87078700  1
  O  O3  1  0.88710700  0.89103400  0.12921300  1
  O  O4  1  0.60247800  0.45949200  0.40547600  1
  O  O5  1  0.10247800  0.04050800  0.59452400  1
  O  O6  1  0.39752200  0.54050800  0.59452400  1
  O  O7  1  0.89752200  0.95949200  0.40547600  1
  O  O8  1  0.71811300  0.24456800  0.33632800  1
  O  O9  1  0.21811300  0.25543200  0.66367200  1
  O  O10  1  0.28188700  0.75543200  0.66367200  1
  O  O11  1  0.78188700  0.74456800  0.33632800  1
  O  O12  1  0.58956500  0.14782200  0.53228700  1
  O  O13  1  0.08956500  0.35217800  0.46771300  1
  O  O14  1  0.41043500  0.85217800  0.46771300  1
  O  O15  1  0.91043500  0.64782200  0.53228700  1
  O  O16  1  0.72457400  0.34015700  0.60003100  1
  O  O17  1  0.22457400  0.15984300  0.39996900  1
  O  O18  1  0.27542600  0.65984300  0.39996900  1
  O  O19  1  0.77542600  0.84015700  0.60003100  1
  O  O20  1  0.62548100  0.06203300  0.16815400  1
  O  O21  1  0.12548100  0.43796700  0.83184600  1
  O  O22  1  0.37451900  0.93796700  0.83184600  1
  O  O23  1  0.87451900  0.56203300  0.16815400  1
  O  O24  1  0.74218600  0.75779000  0.05237000  1
  O  O25  1  0.24218600  0.74221000  0.94763000  1
  O  O26  1  0.25781400  0.24221000  0.94763000  1
  O  O27  1  0.75781400  0.25779000  0.05237000  1
  O  O28  1  0.54368300  0.61964100  0.73796400  1
  O  O29  1  0.04368300  0.88035900  0.26203600  1
  O  O30  1  0.45631700  0.38035900  0.26203600  1
  O  O31  1  0.95631700  0.11964100  0.73796400  1
  O  O32  1  0.54152100  0.66824300  0.18851000  1
  O  O33  1  0.04152100  0.83175700  0.81149000  1
  O  O34  1  0.45847900  0.33175700  0.81149000  1
  O  O35  1  0.95847900  0.16824300  0.18851000  1
  O  O36  1  0.58129200  0.90012700  0.84527700  1
  O  O37  1  0.08129200  0.59987300  0.15472300  1
  O  O38  1  0.41870800  0.09987300  0.15472300  1
  O  O39  1  0.91870800  0.40012700  0.84527700  1
loop_
_geom_bond_atom_site_label_1
_geom_bond_atom_site_label_2
_geom_bond_distance
_geom_bond_site_symmetry_2
K0 O28 2.640666 1_555
K0 O16 2.702651 1_555
K0 O24 2.777308 1_556
K0 O19 2.920142 1_555
K0 O27 2.924743 1_556
K0 O0 3.181391 1_556
K0 O39 3.188118 1_555
K1 O29 2.640666 1_555
K1 O17 2.702651 1_565
K1 O25 2.777308 1_554
K1 O18 2.920142 1_555
K1 O26 2.924743 1_564
K1 O1 3.181391 1_564
K1 O38 3.188118 1_565
K2 O30 2.640666 1_555
K2 O18 2.702651 1_555
K2 O26 2.777308 1_554
K2 O17 2.920142 1_555
K2 O25 2.924743 1_554
K2 O2 3.181391 1_554
K2 O37 3.188118 1_555
K3 O31 2.640666 1_555
K3 O19 2.702651 1_545
K3 O27 2.777308 1_556
K3 O16 2.920142 1_555
K3 O24 2.924743 1_546
K3 O3 3.181391 1_546
K3 O36 3.188118 1_545
K4 O12 2.637562 1_565
K4 O14 2.671936 1_555
K4 O28 2.821609 1_555
K4 O19 2.907635 1_555
K4 O32 2.961913 1_555
K4 O20 2.988017 1_565
K4 O4 3.042810 1_555
K4 O11 3.071776 1_555
K5 O13 2.637562 1_555
K5 O15 2.671936 1_455
K5 O29 2.821609 1_555
K5 O18 2.907635 1_555
K5 O33 2.961913 1_555
K5 O21 2.988017 1_555
K5 O5 3.042810 1_565
K5 O10 3.071776 1_555
K6 O14 2.637562 1_545
K6 O12 2.671936 1_555
K6 O30 2.821609 1_555
K6 O17 2.907635 1_555
K6 O34 2.961913 1_555
K6 O22 2.988017 1_545
K6 O6 3.042810 1_555
K6 O9 3.071776 1_555
K7 O15 2.637562 1_555
K7 O13 2.671936 1_655
K7 O31 2.821609 1_555
K7 O16 2.907635 1_555
K7 O35 2.961913 1_555
K7 O23 2.988017 1_555
K7 O7 3.042810 1_545
K7 O8 3.071776 1_555
Li0 O32 1.922695 1_555
Li0 O20 1.945611 1_565
Li0 O24 2.005991 1_555
Li0 O36 2.094819 1_554
Li1 O33 1.922695 1_555
Li1 O21 1.945611 1_555
Li1 O25 2.005991 1_555
Li1 O37 2.094819 1_556
Li2 O34 1.922695 1_555
Li2 O22 1.945611 1_545
Li2 O26 2.005991 1_555
Li2 O38 2.094819 1_556
Li3 O35 1.922695 1_555
Li3 O23 1.945611 1_555
Li3 O27 2.005991 1_555
Li3 O39 2.094819 1_554
O0 P8 1.626386 1_555
O0 P4 1.626557 1_555
O1 P9 1.626386 1_555
O1 P5 1.626557 1_555
O2 P10 1.626386 1_555
O2 P6 1.626557 1_555
O3 P11 1.626386 1_555
O3 P7 1.626557 1_555
O4 P8 1.637468 1_555
O4 P0 1.644798 1_555
O5 P9 1.637468 1_555
O5 P1 1.644798 1_555
O6 P10 1.637468 1_555
O6 P2 1.644798 1_555
O7 P11 1.637468 1_555
O7 P3 1.644798 1_555
O8 P4 1.622886 1_555
O8 P0 1.657040 1_555
O9 P5 1.622886 1_555
O9 P1 1.657040 1_555
O10 P6 1.622886 1_555
O10 P2 1.657040 1_555
O11 P7 1.622886 1_555
O11 P3 1.657040 1_555
O12 P0 1.485784 1_555
O13 P1 1.485784 1_555
O14 P2 1.485784 1_555
O15 P3 1.485784 1_555
O16 P0 1.495106 1_555
O17 P1 1.495106 1_555
O18 P2 1.495106 1_555
O19 P3 1.495106 1_555
O20 P4 1.500861 1_555
O21 P5 1.500861 1_555
O22 P6 1.500861 1_555
O23 P7 1.500861 1_555
O24 P7 1.503812 1_555
O25 P6 1.503812 1_555
O26 P5 1.503812 1_555
O27 P4 1.503812 1_555
O28 P10 1.504863 1_555
O29 P11 1.504863 1_455
O30 P8 1.504863 1_555
O31 P9 1.504863 1_655
O32 P8 1.496133 1_555
O33 P9 1.496133 1_565
O34 P10 1.496133 1_555
O35 P11 1.496133 1_545
