# generated using pymatgen
data_Ho2FeC4
_symmetry_space_group_name_H-M   'P 1'
_cell_length_a   4.98335217
_cell_length_b   6.53713645
_cell_length_c   6.53713645
_cell_angle_alpha   69.09780129
_cell_angle_beta   67.59462443
_cell_angle_gamma   67.59462443
_symmetry_Int_Tables_number   1
_chemical_formula_structural   Ho2FeC4
_chemical_formula_sum   'Ho4 Fe2 C8'
_cell_volume   176.36011793
_cell_formula_units_Z   2
loop_
 _symmetry_equiv_pos_site_id
 _symmetry_equiv_pos_as_xyz
  1  'x, y, z'
loop_
 _atom_site_type_symbol
 _atom_site_label
 _atom_site_symmetry_multiplicity
 _atom_site_fract_x
 _atom_site_fract_y
 _atom_site_fract_z
 _atom_site_occupancy
  Ho  Ho0  1  0.14425482  0.51235348  0.19913689  1
  Ho  Ho1  1  0.85574518  0.48764652  0.80086311  1
  Ho  Ho2  1  0.64425482  0.19913689  0.51235348  1
  Ho  Ho3  1  0.35574518  0.80086311  0.48764652  1
  Fe  Fe0  1  0.25000000  -0.00000000  -0.00000000  1
  Fe  Fe1  1  0.75000000  -0.00000000  -0.00000000  1
  C  C0  1  0.37080267  0.46647364  0.79192102  1
  C  C1  1  0.62919733  0.53352636  0.20807898  1
  C  C2  1  0.87080267  0.79192102  0.46647364  1
  C  C3  1  0.12919733  0.20807898  0.53352636  1
  C  C4  1  0.42201101  0.24214683  0.91383116  1
  C  C5  1  0.57798899  0.75785317  0.08616884  1
  C  C6  1  0.92201101  0.91383116  0.24214683  1
  C  C7  1  0.07798899  0.08616884  0.75785317  1
loop_
_geom_bond_atom_site_label_1
_geom_bond_atom_site_label_2
_geom_bond_distance
_geom_bond_site_symmetry_2
C0 C4 1.373527 1_555
C0 Ho3 2.372060 1_555
C0 Ho1 2.496230 1_555
C0 Ho1 2.496231 1_455
C0 Ho0 2.543907 1_556
C0 Ho2 2.610786 1_555
C1 C5 1.373527 1_555
C1 Ho2 2.372060 1_555
C1 Ho0 2.496230 1_555
C1 Ho0 2.496231 1_655
C1 Ho1 2.543907 1_554
C1 Ho3 2.610786 1_555
C2 C6 1.373527 1_555
C2 Ho1 2.372060 1_555
C2 Ho3 2.496230 1_655
C2 Ho3 2.496231 1_555
C2 Ho2 2.543907 1_565
C2 Ho0 2.610786 1_655
C3 C7 1.373527 1_555
C3 Ho0 2.372060 1_555
C3 Ho2 2.496230 1_455
C3 Ho2 2.496231 1_555
C3 Ho3 2.543907 1_545
C3 Ho1 2.610786 1_455
C4 Fe1 1.894160 1_556
C4 Fe0 1.894160 1_556
C4 Ho2 2.503411 1_555
C4 Ho0 2.652070 1_556
C5 Fe0 1.894160 1_565
C5 Fe1 1.894160 1_565
C5 Ho3 2.503411 1_555
C5 Ho1 2.652070 1_554
C6 Fe0 1.894160 1_665
C6 Fe1 1.894160 1_565
C6 Ho0 2.503411 1_655
C6 Ho2 2.652070 1_565
C7 Fe1 1.894160 1_456
C7 Fe0 1.894160 1_556
C7 Ho1 2.503411 1_455
C7 Ho3 2.652070 1_545
