# generated using pymatgen
data_Mg14FeSb
_symmetry_space_group_name_H-M   'P 1'
_cell_length_a   6.24966081
_cell_length_b   6.28813901
_cell_length_c   10.08909000
_cell_angle_alpha   90.00000000
_cell_angle_beta   90.00000000
_cell_angle_gamma   120.20388192
_symmetry_Int_Tables_number   1
_chemical_formula_structural   Mg14FeSb
_chemical_formula_sum   'Mg14 Fe1 Sb1'
_cell_volume   342.66149202
_cell_formula_units_Z   1
loop_
 _symmetry_equiv_pos_site_id
 _symmetry_equiv_pos_as_xyz
  1  'x, y, z'
loop_
 _atom_site_type_symbol
 _atom_site_label
 _atom_site_symmetry_multiplicity
 _atom_site_fract_x
 _atom_site_fract_y
 _atom_site_fract_z
 _atom_site_occupancy
  Mg  Mg0  1  0.16739273  0.33369587  0.62500000  1
  Mg  Mg1  1  0.17059532  0.83529716  0.62500000  1
  Mg  Mg2  1  0.67193631  0.33682498  0.12500000  1
  Mg  Mg3  1  0.66625654  0.33017832  0.62500000  1
  Mg  Mg4  1  0.67193631  0.83511033  0.12500000  1
  Mg  Mg5  1  0.66625654  0.83607722  0.62500000  1
  Mg  Mg6  1  0.32795913  0.17338674  0.36276287  1
  Mg  Mg7  1  0.32795913  0.17338674  0.88723713  1
  Mg  Mg8  1  0.32795913  0.65457339  0.36276287  1
  Mg  Mg9  1  0.32795913  0.65457339  0.88723713  1
  Mg  Mg10  1  0.84428061  0.17214081  0.36522514  1
  Mg  Mg11  1  0.84428061  0.17214081  0.88477486  1
  Mg  Mg12  1  0.83096190  0.66548145  0.38024411  1
  Mg  Mg13  1  0.83096190  0.66548145  0.86975589  1
  Fe  Fe0  1  0.16800353  0.33400126  0.12500000  1
  Sb  Sb0  1  0.15530119  0.82765010  0.12500000  1
loop_
_geom_bond_atom_site_label_1
_geom_bond_atom_site_label_2
_geom_bond_distance
_geom_bond_site_symmetry_2
Mg0 Mg5 3.120862 1_445
Mg0 Mg3 3.120862 1_455
Mg0 Mg5 3.128915 1_555
Mg0 Mg3 3.128916 1_555
Mg0 Mg1 3.144117 1_555
Mg0 Mg1 3.144117 1_545
Mg0 Mg10 3.148775 1_455
Mg0 Mg11 3.148775 1_455
Mg0 Mg6 3.168728 1_555
Mg0 Mg7 3.168728 1_555
Mg0 Mg8 3.168734 1_555
Mg0 Mg9 3.168734 1_555
Mg1 Mg12 3.076183 1_455
Mg1 Mg13 3.076183 1_455
Mg1 Mg3 3.095249 1_565
Mg1 Mg5 3.095250 1_555
Mg1 Mg3 3.154417 1_455
Mg1 Mg5 3.154417 1_455
Mg1 Mg8 3.222278 1_555
Mg1 Mg9 3.222278 1_555
Mg1 Mg6 3.222285 1_565
Mg1 Mg7 3.222285 1_565
Mg2 Mg7 3.034626 1_554
Mg2 Mg6 3.034626 1_555
Mg2 Sb0 3.044736 1_655
Mg2 Mg4 3.133288 1_555
Mg2 Mg4 3.154851 1_545
Mg2 Sb0 3.205450 1_545
Mg3 Mg5 3.106976 1_545
Mg3 Mg5 3.181163 1_555
Mg3 Mg6 3.216312 1_555
Mg3 Mg7 3.216312 1_555
Mg4 Mg9 3.034625 1_554
Mg4 Mg8 3.034625 1_555
Mg4 Sb0 3.044736 1_655
Mg4 Sb0 3.205451 1_555
Mg5 Mg8 3.216312 1_555
Mg5 Mg9 3.216312 1_555
Mg6 Sb0 3.047089 1_545
Mg7 Sb0 3.047089 1_546
Mg8 Sb0 3.047082 1_555
Mg9 Sb0 3.047082 1_556
Mg10 Mg2 3.037904 1_555
Mg10 Mg4 3.037911 1_545
Mg10 Mg12 3.148541 1_555
Mg10 Mg12 3.148541 1_545
Mg10 Mg3 3.194832 1_555
Mg10 Mg5 3.194838 1_545
Mg11 Mg2 3.037904 1_556
Mg11 Mg4 3.037911 1_546
Mg11 Mg13 3.148541 1_555
Mg11 Mg13 3.148541 1_545
Mg11 Mg3 3.194832 1_555
Mg11 Mg5 3.194838 1_545
Mg12 Mg5 3.069054 1_555
Mg12 Mg3 3.069060 1_555
Mg12 Sb0 3.114554 1_655
Mg12 Mg6 3.114652 1_555
Mg12 Mg8 3.114652 1_555
Mg12 Mg4 3.134274 1_555
Mg12 Mg2 3.134280 1_555
Mg12 Mg6 3.146078 1_665
Mg12 Mg8 3.146078 1_655
Mg13 Mg5 3.069054 1_555
Mg13 Mg3 3.069060 1_555
Mg13 Sb0 3.114554 1_656
Mg13 Mg7 3.114652 1_555
Mg13 Mg9 3.114652 1_555
Mg13 Mg4 3.134274 1_556
Mg13 Mg2 3.134280 1_556
Mg13 Mg7 3.146078 1_665
Mg13 Mg9 3.146078 1_655
Fe0 Mg7 2.964711 1_554
Fe0 Mg6 2.964711 1_555
Fe0 Mg9 2.964717 1_554
Fe0 Mg8 2.964717 1_555
Fe0 Mg11 2.988533 1_454
Fe0 Mg10 2.988533 1_455
Fe0 Mg4 3.109222 1_445
Fe0 Mg2 3.109222 1_455
Fe0 Mg4 3.140514 1_555
Fe0 Mg2 3.140514 1_555
Fe0 Sb0 3.144818 1_545
Fe0 Sb0 3.144818 1_555
