# generated using pymatgen
data_YbAlB4
_symmetry_space_group_name_H-M   'P 1'
_cell_length_a   3.47593400
_cell_length_b   6.00323900
_cell_length_c   11.61712100
_cell_angle_alpha   90.00000000
_cell_angle_beta   90.00000000
_cell_angle_gamma   90.00000000
_symmetry_Int_Tables_number   1
_chemical_formula_structural   YbAlB4
_chemical_formula_sum   'Yb4 Al4 B16'
_cell_volume   242.41286714
_cell_formula_units_Z   4
loop_
 _symmetry_equiv_pos_site_id
 _symmetry_equiv_pos_as_xyz
  1  'x, y, z'
loop_
 _atom_site_type_symbol
 _atom_site_label
 _atom_site_symmetry_multiplicity
 _atom_site_fract_x
 _atom_site_fract_y
 _atom_site_fract_z
 _atom_site_occupancy
  Yb  Yb0  1  0.00000000  0.62830200  0.34957800  1
  Yb  Yb1  1  0.00000000  0.37169800  0.65042200  1
  Yb  Yb2  1  0.00000000  0.12830200  0.15042200  1
  Yb  Yb3  1  0.00000000  0.87169800  0.84957800  1
  Al  Al0  1  0.00000000  0.63978900  0.09131100  1
  Al  Al1  1  0.00000000  0.36021100  0.90868900  1
  Al  Al2  1  0.00000000  0.13978900  0.40868900  1
  Al  Al3  1  0.00000000  0.86021100  0.59131100  1
  B  B0  1  0.50000000  0.78963700  0.18722500  1
  B  B1  1  0.50000000  0.21036300  0.81277500  1
  B  B2  1  0.50000000  0.28963700  0.31277500  1
  B  B3  1  0.50000000  0.71036300  0.68722500  1
  B  B4  1  0.50000000  0.86558200  0.03089500  1
  B  B5  1  0.50000000  0.13441800  0.96910500  1
  B  B6  1  0.50000000  0.36558200  0.46910500  1
  B  B7  1  0.50000000  0.63441800  0.53089500  1
  B  B8  1  0.50000000  0.88634100  0.45305000  1
  B  B9  1  0.50000000  0.11365900  0.54695000  1
  B  B10  1  0.50000000  0.38634100  0.04695000  1
  B  B11  1  0.50000000  0.61365900  0.95305000  1
  B  B12  1  0.50000000  0.97437500  0.30751500  1
  B  B13  1  0.50000000  0.02562500  0.69248500  1
  B  B14  1  0.50000000  0.47437500  0.19248500  1
  B  B15  1  0.50000000  0.52562500  0.80751500  1
loop_
_geom_bond_atom_site_label_1
_geom_bond_atom_site_label_2
_geom_bond_distance
_geom_bond_site_symmetry_2
Al0 B0 2.251955 1_455
Al0 B0 2.251955 1_555
Al0 B4 2.313112 1_555
Al0 B4 2.313112 1_455
Al0 B14 2.321221 1_455
Al0 B14 2.321221 1_555
Al0 B10 2.366665 1_455
Al0 B10 2.366665 1_555
Al0 B11 2.371708 1_554
Al0 B11 2.371708 1_454
Al1 B1 2.251955 1_555
Al1 B1 2.251955 1_455
Al1 B5 2.313112 1_455
Al1 B5 2.313112 1_555
Al1 B15 2.321221 1_455
Al1 B15 2.321221 1_555
Al1 B11 2.366665 1_455
Al1 B11 2.366665 1_555
Al1 B10 2.371708 1_556
Al1 B10 2.371708 1_456
Al2 B2 2.251955 1_555
Al2 B2 2.251955 1_455
Al2 B6 2.313112 1_555
Al2 B6 2.313112 1_455
Al2 B12 2.321221 1_545
Al2 B12 2.321221 1_445
Al2 B8 2.366665 1_445
Al2 B8 2.366665 1_545
Al2 B9 2.371708 1_555
Al2 B9 2.371708 1_455
Al3 B3 2.251955 1_455
Al3 B3 2.251955 1_555
Al3 B7 2.313112 1_555
Al3 B7 2.313112 1_455
Al3 B13 2.321221 1_565
Al3 B13 2.321221 1_465
Al3 B9 2.366665 1_565
Al3 B9 2.366665 1_465
Al3 B8 2.371708 1_555
Al3 B8 2.371708 1_455
B0 B12 1.784021 1_555
B0 B4 1.872457 1_555
B0 B14 1.893579 1_555
B0 Yb2 2.708647 1_565
B0 Yb2 2.708647 1_665
B0 Yb0 2.741507 1_655
B0 Yb0 2.741507 1_555
B1 B13 1.784021 1_555
B1 B5 1.872457 1_555
B1 B15 1.893579 1_555
B1 Yb3 2.708647 1_645
B1 Yb3 2.708647 1_545
B1 Yb1 2.741507 1_555
B1 Yb1 2.741507 1_655
B2 B6 1.872457 1_555
B2 Yb0 2.708647 1_555
B2 Yb0 2.708647 1_655
B2 Yb2 2.741507 1_555
B2 Yb2 2.741507 1_655
B3 B7 1.872457 1_555
B3 Yb1 2.708647 1_655
B3 Yb1 2.708647 1_555
B3 Yb3 2.741507 1_555
B3 Yb3 2.741507 1_655
B4 B5 1.766324 1_564
B4 Yb2 2.726920 1_565
B4 Yb2 2.726920 1_665
B4 Yb3 2.731066 1_554
B4 Yb3 2.731066 1_654
B5 Yb3 2.726920 1_545
B5 Yb3 2.726920 1_645
B5 Yb2 2.731066 1_556
B5 Yb2 2.731066 1_656
B6 B9 1.762111 1_555
B6 B7 1.766324 1_555
B6 Yb0 2.726920 1_555
B6 Yb0 2.726920 1_655
B6 Yb1 2.731066 1_555
B6 Yb1 2.731066 1_655
B7 B8 1.762111 1_555
B7 Yb1 2.726920 1_655
B7 Yb1 2.726920 1_555
B7 Yb0 2.731066 1_655
B7 Yb0 2.731066 1_555
B8 B9 1.747055 1_565
B8 Yb0 2.620127 1_555
B8 Yb0 2.620127 1_655
B9 Yb1 2.620127 1_655
B9 Yb1 2.620127 1_555
B10 B11 1.747055 1_554
B10 B5 1.762111 1_554
B10 B14 1.771372 1_555
B10 Yb2 2.620127 1_655
B10 Yb2 2.620127 1_555
B11 B4 1.762111 1_556
B11 B15 1.771372 1_555
B11 Yb3 2.620127 1_555
B11 Yb3 2.620127 1_655
B12 B8 1.771372 1_555
B12 B2 1.893579 1_565
B12 Yb2 2.684199 1_665
B12 Yb2 2.684199 1_565
B12 Yb0 2.752374 1_555
B12 Yb0 2.752374 1_655
B13 B9 1.771372 1_555
B13 B3 1.893579 1_545
B13 Yb3 2.684199 1_645
B13 Yb3 2.684199 1_545
B13 Yb1 2.752374 1_555
B13 Yb1 2.752374 1_655
B14 B2 1.784021 1_555
B14 Yb0 2.684199 1_555
B14 Yb0 2.684199 1_655
B14 Yb2 2.752374 1_655
B14 Yb2 2.752374 1_555
B15 B3 1.784021 1_555
B15 Yb1 2.684199 1_655
B15 Yb1 2.684199 1_555
B15 Yb3 2.752374 1_555
B15 Yb3 2.752374 1_655
