# generated using pymatgen
data_EuSnHg
_symmetry_space_group_name_H-M   'P 1'
_cell_length_a   4.92824982
_cell_length_b   4.92708416
_cell_length_c   7.93096789
_cell_angle_alpha   90.00042269
_cell_angle_beta   90.00000000
_cell_angle_gamma   120.00782638
_symmetry_Int_Tables_number   1
_chemical_formula_structural   EuSnHg
_chemical_formula_sum   'Eu2 Sn2 Hg2'
_cell_volume   166.76513644
_cell_formula_units_Z   2
loop_
 _symmetry_equiv_pos_site_id
 _symmetry_equiv_pos_as_xyz
  1  'x, y, z'
loop_
 _atom_site_type_symbol
 _atom_site_label
 _atom_site_symmetry_multiplicity
 _atom_site_fract_x
 _atom_site_fract_y
 _atom_site_fract_z
 _atom_site_occupancy
  Eu  Eu0  1  0.00002238  0.00004576  0.74985682  1
  Eu  Eu1  1  -0.00002036  -0.00003972  0.24985161  1
  Sn  Sn0  1  0.66672814  0.33345729  0.96469022  1
  Sn  Sn1  1  0.33326665  0.66653230  0.46470717  1
  Hg  Hg0  1  0.66662535  0.33324970  0.55545941  1
  Hg  Hg1  1  0.33337784  0.66675568  0.05543577  1
loop_
_geom_bond_atom_site_label_1
_geom_bond_atom_site_label_2
_geom_bond_distance
_geom_bond_site_symmetry_2
Eu0 Hg0 3.235749 1_455
Eu0 Hg0 3.235756 1_555
Eu0 Hg0 3.235872 1_445
Eu0 Sn0 3.315422 1_445
Eu0 Sn0 3.316410 1_555
Eu0 Sn0 3.316410 1_455
Eu0 Sn1 3.633312 1_555
Eu0 Sn1 3.634715 1_445
Eu0 Sn1 3.634722 1_545
Eu0 Hg1 3.737009 1_556
Eu0 Hg1 3.737333 1_446
Eu0 Hg1 3.737336 1_546
Eu0 Eu1 3.965443 1_556
Eu0 Eu1 3.965525 1_555
Eu1 Hg1 3.235810 1_445
Eu1 Hg1 3.235814 1_545
Eu1 Hg1 3.235962 1_555
Eu1 Sn1 3.315427 1_555
Eu1 Sn1 3.316539 1_445
Eu1 Sn1 3.316546 1_545
Eu1 Sn0 3.633394 1_444
Eu1 Sn0 3.634764 1_554
Eu1 Sn0 3.634764 1_454
Eu1 Hg0 3.737191 1_445
Eu1 Hg0 3.737463 1_455
Eu1 Hg0 3.737469 1_555
Hg0 Sn1 2.934283 1_545
Hg0 Sn1 2.934630 1_555
Hg0 Sn1 2.934630 1_655
Hg0 Sn0 3.245597 1_555
Hg1 Sn0 2.934217 1_564
Hg1 Sn0 2.934641 1_554
Hg1 Sn0 2.934646 1_454
Hg1 Sn1 3.245918 1_555
