# generated using pymatgen
data_LaAl
_symmetry_space_group_name_H-M   'P 1'
_cell_length_a   5.74227809
_cell_length_b   6.13319346
_cell_length_c   6.13319390
_cell_angle_alpha   101.09396702
_cell_angle_beta   90.00000000
_cell_angle_gamma   90.00000000
_symmetry_Int_Tables_number   1
_chemical_formula_structural   LaAl
_chemical_formula_sum   'La4 Al4'
_cell_volume   211.96546164
_cell_formula_units_Z   4
loop_
 _symmetry_equiv_pos_site_id
 _symmetry_equiv_pos_as_xyz
  1  'x, y, z'
loop_
 _atom_site_type_symbol
 _atom_site_label
 _atom_site_symmetry_multiplicity
 _atom_site_fract_x
 _atom_site_fract_y
 _atom_site_fract_z
 _atom_site_occupancy
  La  La0  1  0.75000000  0.15832602  0.51310091  1
  La  La1  1  0.25000000  0.84167398  0.48689909  1
  La  La2  1  0.75000000  0.51310091  0.15832602  1
  La  La3  1  0.25000000  0.48689909  0.84167398  1
  Al  Al0  1  0.75000000  0.69831525  0.69831525  1
  Al  Al1  1  0.25000000  0.30168475  0.30168475  1
  Al  Al2  1  0.50000000  -0.00000000  -0.00000000  1
  Al  Al3  1  -0.00000000  -0.00000000  -0.00000000  1
loop_
_geom_bond_atom_site_label_1
_geom_bond_atom_site_label_2
_geom_bond_distance
_geom_bond_site_symmetry_2
Al0 Al3 2.755085 1_666
Al0 Al2 2.755085 1_566
Al0 La0 3.237854 1_565
Al0 La2 3.237854 1_556
Al0 La0 3.288008 1_555
Al0 La2 3.288008 1_555
Al0 La3 3.337151 1_555
Al0 La3 3.337151 1_655
Al0 La1 3.337151 1_555
Al0 La1 3.337151 1_655
Al1 Al2 2.755085 1_555
Al1 Al3 2.755085 1_555
Al1 La1 3.237854 1_545
Al1 La3 3.237854 1_554
Al1 La1 3.288008 1_555
Al1 La3 3.288008 1_555
Al1 La2 3.337151 1_455
Al1 La2 3.337151 1_555
Al1 La0 3.337151 1_455
Al1 La0 3.337151 1_555
Al2 Al3 2.871139 1_555
Al2 Al3 2.871139 1_655
Al2 La3 3.425065 1_544
Al2 La2 3.425065 1_555
Al2 La1 3.425065 1_544
Al2 La0 3.425065 1_555
Al2 La2 3.610733 1_545
Al2 La3 3.610733 1_554
Al2 La0 3.610734 1_554
Al2 La1 3.610734 1_545
Al3 La3 3.425065 1_544
Al3 La2 3.425065 1_455
Al3 La1 3.425065 1_544
Al3 La0 3.425065 1_455
Al3 La2 3.610733 1_445
Al3 La3 3.610733 1_554
Al3 La0 3.610734 1_454
Al3 La1 3.610734 1_545
