# generated using pymatgen
data_Ir2Os(NCl)10
_symmetry_space_group_name_H-M   'P 1'
_cell_length_a   7.28425426
_cell_length_b   7.28425426
_cell_length_c   11.91348738
_cell_angle_alpha   75.89990176
_cell_angle_beta   75.89990176
_cell_angle_gamma   69.45533131
_symmetry_Int_Tables_number   1
_chemical_formula_structural   Ir2Os(NCl)10
_chemical_formula_sum   'Ir2 Os1 N10 Cl10'
_cell_volume   565.32721438
_cell_formula_units_Z   1
loop_
 _symmetry_equiv_pos_site_id
 _symmetry_equiv_pos_as_xyz
  1  'x, y, z'
loop_
 _atom_site_type_symbol
 _atom_site_label
 _atom_site_symmetry_multiplicity
 _atom_site_fract_x
 _atom_site_fract_y
 _atom_site_fract_z
 _atom_site_occupancy
  Ir  Ir0  1  0.33181500  0.33181500  0.29071700  1
  Ir  Ir1  1  0.66818500  0.66818500  0.70928300  1
  Os  Os0  1  0.00000000  0.00000000  0.00000000  1
  N  N0  1  0.48910000  0.48910000  0.23830700  1
  N  N1  1  0.51090000  0.51090000  0.76169300  1
  N  N2  1  0.46649100  0.11492300  0.22975500  1
  N  N3  1  0.11492300  0.46649100  0.22975500  1
  N  N4  1  0.53350900  0.88507700  0.77024500  1
  N  N5  1  0.88507700  0.53350900  0.77024500  1
  N  N6  1  0.50085600  0.19149100  0.45314800  1
  N  N7  1  0.19149100  0.50085600  0.45314800  1
  N  N8  1  0.49914400  0.80850900  0.54685200  1
  N  N9  1  0.80850900  0.49914400  0.54685200  1
  Cl  Cl0  1  0.95729700  0.95729700  0.20073500  1
  Cl  Cl1  1  0.04270300  0.04270300  0.79926500  1
  Cl  Cl2  1  0.12085900  0.12085900  0.40279600  1
  Cl  Cl3  1  0.87914100  0.87914100  0.59720400  1
  Cl  Cl4  1  0.80429900  0.80429900  0.01664600  1
  Cl  Cl5  1  0.19570100  0.19570100  0.98335400  1
  Cl  Cl6  1  0.72026400  0.27973600  0.00000000  1
  Cl  Cl7  1  0.27973600  0.72026400  0.00000000  1
  Cl  Cl8  1  0.65243000  0.65243000  0.47664700  1
  Cl  Cl9  1  0.34757000  0.34757000  0.52335300  1
loop_
_geom_bond_atom_site_label_1
_geom_bond_atom_site_label_2
_geom_bond_distance
_geom_bond_site_symmetry_2
Ir0 N3 1.763524 1_555
Ir0 N2 1.763524 1_555
Ir0 N0 1.799818 1_555
Ir0 N7 2.370552 1_555
Ir0 N6 2.370552 1_555
Ir1 N4 1.763524 1_555
Ir1 N5 1.763524 1_555
Ir1 N1 1.799818 1_555
Ir1 N9 2.370552 1_555
Ir1 N8 2.370552 1_555
Cl0 Os0 2.292507 1_665
Cl1 Os0 2.292507 1_556
Cl2 Ir0 2.482628 1_555
Cl3 Ir1 2.482628 1_555
Cl4 Os0 2.292262 1_665
Cl5 Os0 2.292262 1_556
Cl6 Os0 2.321623 1_655
Cl7 Os0 2.321623 1_565
Cl8 N8 1.534978 1_555
Cl8 N9 1.534978 1_555
Cl9 N6 1.534978 1_555
Cl9 N7 1.534978 1_555
