# generated using pymatgen
data_CaCo3O7
_symmetry_space_group_name_H-M   'P 1'
_cell_length_a   5.27412800
_cell_length_b   10.27847300
_cell_length_c   10.78586100
_cell_angle_alpha   90.00000000
_cell_angle_beta   90.00000000
_cell_angle_gamma   90.00000000
_symmetry_Int_Tables_number   1
_chemical_formula_structural   CaCo3O7
_chemical_formula_sum   'Ca4 Co12 O28'
_cell_volume   584.70133332
_cell_formula_units_Z   4
loop_
 _symmetry_equiv_pos_site_id
 _symmetry_equiv_pos_as_xyz
  1  'x, y, z'
loop_
 _atom_site_type_symbol
 _atom_site_label
 _atom_site_symmetry_multiplicity
 _atom_site_fract_x
 _atom_site_fract_y
 _atom_site_fract_z
 _atom_site_occupancy
  Ca  Ca0  1  0.67794600  0.75000000  0.92919400  1
  Ca  Ca1  1  0.17794600  0.25000000  0.57080600  1
  Ca  Ca2  1  0.32205400  0.25000000  0.07080600  1
  Ca  Ca3  1  0.82205400  0.75000000  0.42919400  1
  Co  Co0  1  0.30360500  0.02214300  0.30274600  1
  Co  Co1  1  0.80360500  0.97785700  0.19725400  1
  Co  Co2  1  0.69639500  0.52214300  0.69725400  1
  Co  Co3  1  0.19639500  0.47785700  0.80274600  1
  Co  Co4  1  0.30900600  0.75000000  0.21939800  1
  Co  Co5  1  0.80900600  0.25000000  0.28060200  1
  Co  Co6  1  0.69099400  0.25000000  0.78060200  1
  Co  Co7  1  0.19099400  0.75000000  0.71939800  1
  Co  Co8  1  0.80360500  0.52214300  0.19725400  1
  Co  Co9  1  0.30360500  0.47785700  0.30274600  1
  Co  Co10  1  0.19639500  0.02214300  0.80274600  1
  Co  Co11  1  0.69639500  0.97785700  0.69725400  1
  O  O0  1  0.93375000  0.11733100  0.72185700  1
  O  O1  1  0.43375000  0.88266900  0.77814300  1
  O  O2  1  0.06625000  0.61733100  0.27814300  1
  O  O3  1  0.56625000  0.38266900  0.22185700  1
  O  O4  1  0.06625000  0.88266900  0.27814300  1
  O  O5  1  0.56625000  0.11733100  0.22185700  1
  O  O6  1  0.93375000  0.38266900  0.72185700  1
  O  O7  1  0.43375000  0.61733100  0.77814300  1
  O  O8  1  0.45529600  0.11662300  0.71681100  1
  O  O9  1  0.95529600  0.88337700  0.78318900  1
  O  O10  1  0.54470400  0.61662300  0.28318900  1
  O  O11  1  0.04470400  0.38337700  0.21681100  1
  O  O12  1  0.54470400  0.88337700  0.28318900  1
  O  O13  1  0.04470400  0.11662300  0.21681100  1
  O  O14  1  0.45529600  0.38337700  0.71681100  1
  O  O15  1  0.95529600  0.61662300  0.78318900  1
  O  O16  1  0.17431200  0.75000000  0.56454200  1
  O  O17  1  0.67431200  0.25000000  0.93545800  1
  O  O18  1  0.82568800  0.25000000  0.43545700  1
  O  O19  1  0.32568800  0.75000000  0.06454300  1
  O  O20  1  0.21284900  0.42644200  0.94843800  1
  O  O21  1  0.71284900  0.57355800  0.55156200  1
  O  O22  1  0.78715100  0.92644200  0.05156200  1
  O  O23  1  0.28715100  0.07355800  0.44843800  1
  O  O24  1  0.78715100  0.57355800  0.05156200  1
  O  O25  1  0.28715100  0.42644200  0.44843800  1
  O  O26  1  0.21284900  0.07355800  0.94843800  1
  O  O27  1  0.71284900  0.92644200  0.55156200  1
loop_
_geom_bond_atom_site_label_1
_geom_bond_atom_site_label_2
_geom_bond_distance
_geom_bond_site_symmetry_2
Ca0 O22 2.315750 1_556
Ca0 O24 2.315750 1_556
Ca0 O19 2.362795 1_556
Ca0 O1 2.484468 1_555
Ca0 O7 2.484468 1_555
Ca0 O9 2.549330 1_555
Ca0 O15 2.549330 1_555
Ca1 O23 2.315750 1_555
Ca1 O25 2.315750 1_555
Ca1 O18 2.362795 1_455
Ca1 O6 2.484468 1_455
Ca1 O0 2.484468 1_455
Ca1 O14 2.549330 1_555
Ca1 O8 2.549330 1_555
Ca2 O20 2.315750 1_554
Ca2 O26 2.315750 1_554
Ca2 O17 2.362788 1_554
Ca2 O3 2.484468 1_555
Ca2 O5 2.484468 1_555
Ca2 O11 2.549330 1_555
Ca2 O13 2.549330 1_555
Ca3 O27 2.315750 1_555
Ca3 O21 2.315750 1_555
Ca3 O16 2.362788 1_655
Ca3 O4 2.484468 1_655
Ca3 O2 2.484468 1_655
Ca3 O12 2.549330 1_555
Ca3 O10 2.549330 1_555
Co0 O23 1.660166 1_555
Co0 O5 1.907162 1_555
Co0 O13 1.914861 1_555
Co0 O4 1.921633 1_545
Co0 O12 1.922438 1_545
Co1 O22 1.660166 1_555
Co1 O4 1.907162 1_655
Co1 O12 1.914861 1_555
Co1 O5 1.921633 1_565
Co1 O13 1.922438 1_665
Co2 O21 1.660166 1_555
Co2 O7 1.907162 1_555
Co2 O15 1.914861 1_555
Co2 O6 1.921633 1_555
Co2 O14 1.922438 1_555
Co3 O20 1.660166 1_555
Co3 O6 1.907162 1_455
Co3 O14 1.914861 1_555
Co3 O7 1.921633 1_555
Co3 O15 1.922438 1_455
Co4 O19 1.672560 1_555
Co4 O12 1.974361 1_555
Co4 O10 1.974361 1_555
Co4 O4 1.974893 1_555
Co4 O2 1.974893 1_555
Co5 O18 1.672560 1_555
Co5 O11 1.974361 1_655
Co5 O13 1.974361 1_655
Co5 O3 1.974893 1_555
Co5 O5 1.974893 1_555
Co6 O17 1.672571 1_555
Co6 O14 1.974361 1_555
Co6 O8 1.974361 1_555
Co6 O6 1.974893 1_555
Co6 O0 1.974893 1_555
Co7 O16 1.672571 1_555
Co7 O9 1.974361 1_455
Co7 O15 1.974361 1_455
Co7 O1 1.974893 1_555
Co7 O7 1.974893 1_555
Co8 O24 1.660166 1_555
Co8 O2 1.907162 1_655
Co8 O10 1.914861 1_555
Co8 O3 1.921633 1_555
Co8 O11 1.922438 1_655
Co9 O25 1.660166 1_555
Co9 O3 1.907162 1_555
Co9 O11 1.914861 1_555
Co9 O2 1.921633 1_555
Co9 O10 1.922438 1_555
Co10 O26 1.660166 1_555
Co10 O0 1.907162 1_455
Co10 O8 1.914861 1_555
Co10 O1 1.921633 1_545
Co10 O9 1.922438 1_445
Co11 O27 1.660166 1_555
Co11 O1 1.907162 1_555
Co11 O9 1.914861 1_555
Co11 O0 1.921633 1_565
Co11 O8 1.922438 1_565
