# generated using pymatgen
data_Sm2Sn3(PbS4)3
_symmetry_space_group_name_H-M   'P 1'
_cell_length_a   3.96854800
_cell_length_b   11.71954200
_cell_length_c   20.60556700
_cell_angle_alpha   90.00000000
_cell_angle_beta   90.00000000
_cell_angle_gamma   90.00000000
_symmetry_Int_Tables_number   1
_chemical_formula_structural   Sm2Sn3(PbS4)3
_chemical_formula_sum   'Sm4 Sn6 Pb6 S24'
_cell_volume   958.35595703
_cell_formula_units_Z   2
loop_
 _symmetry_equiv_pos_site_id
 _symmetry_equiv_pos_as_xyz
  1  'x, y, z'
loop_
 _atom_site_type_symbol
 _atom_site_label
 _atom_site_symmetry_multiplicity
 _atom_site_fract_x
 _atom_site_fract_y
 _atom_site_fract_z
 _atom_site_occupancy
  Sm  Sm0  1  0.50000000  0.64964300  0.41231600  1
  Sm  Sm1  1  0.50000000  0.14964300  0.58768400  1
  Sm  Sm2  1  0.50000000  0.82497800  0.89439600  1
  Sm  Sm3  1  0.50000000  0.32497800  0.10560400  1
  Sn  Sn0  1  0.00000000  0.00168600  0.74991700  1
  Sn  Sn1  1  0.00000000  0.50168600  0.25008300  1
  Sn  Sn2  1  0.00000000  0.51860100  0.91182800  1
  Sn  Sn3  1  0.00000000  0.01860100  0.08817200  1
  Sn  Sn4  1  0.00000000  0.99417800  0.42473600  1
  Sn  Sn5  1  0.00000000  0.49417800  0.57526400  1
  Pb  Pb0  1  0.50000000  0.40321800  0.74253500  1
  Pb  Pb1  1  0.50000000  0.90321800  0.25746500  1
  Pb  Pb2  1  0.50000000  0.19863200  0.91363900  1
  Pb  Pb3  1  0.50000000  0.69863200  0.08636100  1
  Pb  Pb4  1  0.50000000  0.77099800  0.62292300  1
  Pb  Pb5  1  0.50000000  0.27099800  0.37707700  1
  S  S0  1  0.00000000  0.99474800  0.87481700  1
  S  S1  1  0.00000000  0.49474800  0.12518300  1
  S  S2  1  0.00000000  0.98214300  0.62670900  1
  S  S3  1  0.00000000  0.48214300  0.37329100  1
  S  S4  1  0.00000000  0.68314600  0.51167500  1
  S  S5  1  0.00000000  0.18314600  0.48832500  1
  S  S6  1  0.50000000  0.64580000  0.25793700  1
  S  S7  1  0.50000000  0.14580000  0.74206300  1
  S  S8  1  0.50000000  0.85137200  0.75613100  1
  S  S9  1  0.50000000  0.35137200  0.24386900  1
  S  S10  1  0.50000000  0.59921500  0.84120900  1
  S  S11  1  0.50000000  0.09921500  0.15879100  1
  S  S12  1  0.50000000  0.43794800  0.98177700  1
  S  S13  1  0.50000000  0.93794800  0.01822300  1
  S  S14  1  0.50000000  0.93480300  0.48986400  1
  S  S15  1  0.50000000  0.43480300  0.51013600  1
  S  S16  1  0.00000000  0.33789400  0.84275200  1
  S  S17  1  0.00000000  0.83789400  0.15724800  1
  S  S18  1  0.00000000  0.71108600  0.97051700  1
  S  S19  1  0.00000000  0.21108600  0.02948300  1
  S  S20  1  0.00000000  0.80702600  0.35918000  1
  S  S21  1  0.00000000  0.30702600  0.64082000  1
  S  S22  1  0.00000000  0.60218500  0.67708100  1
  S  S23  1  0.00000000  0.10218500  0.32291900  1
loop_
_geom_bond_atom_site_label_1
_geom_bond_atom_site_label_2
_geom_bond_distance
_geom_bond_site_symmetry_2
Pb0 S16 2.964419 1_555
Pb0 S16 2.964419 1_655
Pb0 S7 3.016837 1_555
Pb0 S10 3.067609 1_555
Pb0 S21 3.098546 1_555
Pb0 S21 3.098546 1_655
Pb1 S17 2.964419 1_555
Pb1 S17 2.964419 1_655
Pb1 S6 3.016837 1_555
Pb1 S11 3.067609 1_565
Pb1 S20 3.098546 1_655
Pb1 S20 3.098546 1_555
Pb2 S16 2.955435 1_555
Pb2 S16 2.955435 1_655
Pb2 S19 3.107501 1_556
Pb2 S19 3.107501 1_656
Pb2 S12 3.136475 1_555
Pb2 S0 3.207277 1_645
Pb2 S0 3.207277 1_545
Pb3 S17 2.955435 1_555
Pb3 S17 2.955435 1_655
Pb3 S18 3.107501 1_554
Pb3 S18 3.107501 1_654
Pb3 S13 3.136475 1_555
Pb3 S1 3.207277 1_655
Pb3 S1 3.207277 1_555
Pb4 S8 2.901954 1_555
Pb4 S22 3.016092 1_655
Pb4 S22 3.016092 1_555
Pb4 S2 3.172805 1_655
Pb4 S2 3.172805 1_555
Pb4 S4 3.201899 1_655
Pb4 S4 3.201899 1_555
Pb5 S9 2.901954 1_555
Pb5 S23 3.016092 1_655
Pb5 S23 3.016092 1_555
Pb5 S3 3.172805 1_555
Pb5 S3 3.172805 1_655
Pb5 S5 3.201899 1_555
Pb5 S5 3.201899 1_655
S0 Sn0 2.574919 1_565
S0 Sm2 2.838788 1_455
S0 Sm2 2.838788 1_555
S1 Sn1 2.574919 1_555
S1 Sm3 2.838788 1_455
S1 Sm3 2.838788 1_555
S2 Sn0 2.549081 1_565
S2 Sm1 2.904726 1_565
S2 Sm1 2.904726 1_465
S3 Sn1 2.549081 1_555
S3 Sm0 2.904726 1_555
S3 Sm0 2.904726 1_455
S4 Sn5 2.573206 1_555
S4 Sm0 2.878045 1_455
S4 Sm0 2.878045 1_555
S5 Sn4 2.573206 1_545
S5 Sm1 2.878045 1_555
S5 Sm1 2.878045 1_455
S6 Sn1 2.610764 1_655
S6 Sn1 2.610764 1_555
S6 Sm0 3.181386 1_555
S7 Sn0 2.610764 1_555
S7 Sn0 2.610764 1_655
S7 Sm1 3.181386 1_555
S8 Sn0 2.656504 1_565
S8 Sn0 2.656504 1_665
S8 Sm2 2.865772 1_555
S9 Sn1 2.656504 1_555
S9 Sn1 2.656504 1_655
S9 Sm3 2.865772 1_555
S10 Sn2 2.635784 1_555
S10 Sn2 2.635784 1_655
S10 Sm2 2.863838 1_555
S11 Sn3 2.635784 1_655
S11 Sn3 2.635784 1_555
S11 Sm3 2.863838 1_555
S12 Sn2 2.628352 1_655
S12 Sn2 2.628352 1_555
S12 Sm3 2.874568 1_556
S13 Sn3 2.628352 1_665
S13 Sn3 2.628352 1_565
S13 Sm2 2.874568 1_554
S14 Sn4 2.494496 1_555
S14 Sn4 2.494496 1_655
S14 Sm1 3.225250 1_565
S15 Sn5 2.494496 1_555
S15 Sn5 2.494496 1_655
S15 Sm0 3.225250 1_555
S16 Sn2 2.551669 1_555
S17 Sn3 2.551669 1_565
S18 Sn2 2.559541 1_555
S18 Sm2 2.859926 1_555
S18 Sm2 2.859926 1_455
S19 Sn3 2.559541 1_555
S19 Sm3 2.859926 1_455
S19 Sm3 2.859926 1_555
S20 Sn4 2.575933 1_555
S20 Sm0 2.922014 1_555
S20 Sm0 2.922014 1_455
S21 Sn5 2.575933 1_555
S21 Sm1 2.922014 1_555
S21 Sm1 2.922014 1_455
S22 Sn5 2.450270 1_555
S23 Sn4 2.450270 1_545
