# generated using pymatgen
data_Cs4PbO3
_symmetry_space_group_name_H-M   'P 1'
_cell_length_a   7.30914984
_cell_length_b   11.68470224
_cell_length_c   11.97181859
_cell_angle_alpha   69.10111696
_cell_angle_beta   90.00000000
_cell_angle_gamma   90.00000000
_symmetry_Int_Tables_number   1
_chemical_formula_structural   Cs4PbO3
_chemical_formula_sum   'Cs16 Pb4 O12'
_cell_volume   955.19011279
_cell_formula_units_Z   4
loop_
 _symmetry_equiv_pos_site_id
 _symmetry_equiv_pos_as_xyz
  1  'x, y, z'
loop_
 _atom_site_type_symbol
 _atom_site_label
 _atom_site_symmetry_multiplicity
 _atom_site_fract_x
 _atom_site_fract_y
 _atom_site_fract_z
 _atom_site_occupancy
  Cs  Cs0  1  0.61296774  0.66666119  0.65459673  1
  Cs  Cs1  1  0.11296774  0.33333881  0.34540327  1
  Cs  Cs2  1  0.36363348  0.81327168  0.32040747  1
  Cs  Cs3  1  0.86363348  0.18672832  0.67959253  1
  Cs  Cs4  1  0.31543574  0.46740225  0.90038379  1
  Cs  Cs5  1  0.81543574  0.53259775  0.09961621  1
  Cs  Cs6  1  0.21003406  0.95936123  0.93092315  1
  Cs  Cs7  1  0.71003406  0.04063877  0.06907685  1
  Cs  Cs8  1  0.47660949  0.01116586  0.58840652  1
  Cs  Cs9  1  0.97660949  0.98883414  0.41159348  1
  Cs  Cs10  1  0.61996409  0.44905456  0.42370301  1
  Cs  Cs11  1  0.11996409  0.55094544  0.57629699  1
  Cs  Cs12  1  0.82316618  0.36716779  0.88098522  1
  Cs  Cs13  1  0.32316618  0.63283221  0.11901478  1
  Cs  Cs14  1  0.18398438  0.15960015  0.10750840  1
  Cs  Cs15  1  0.68398438  0.84039985  0.89249160  1
  Pb  Pb0  1  0.62044724  0.21658033  0.27369431  1
  Pb  Pb1  1  0.12044724  0.78341967  0.72630569  1
  Pb  Pb2  1  0.36861907  0.25026425  0.71929134  1
  Pb  Pb3  1  0.86861907  0.74973575  0.28070866  1
  O  O0  1  0.87024748  0.25666573  0.16749231  1
  O  O1  1  0.37024748  0.74333427  0.83250769  1
  O  O2  1  0.74701132  0.20433906  0.44442386  1
  O  O3  1  0.24701132  0.79566094  0.55557614  1
  O  O4  1  0.49133020  0.39532061  0.21660346  1
  O  O5  1  0.99133020  0.60467939  0.78339654  1
  O  O6  1  0.15683591  0.24135028  0.85123820  1
  O  O7  1  0.65683591  0.75864972  0.14876180  1
  O  O8  1  0.54950103  0.09752149  0.82555416  1
  O  O9  1  0.04950103  0.90247851  0.17444584  1
  O  O10  1  0.51995157  0.41487989  0.70668861  1
  O  O11  1  0.01995157  0.58512011  0.29331139  1
loop_
_geom_bond_atom_site_label_1
_geom_bond_atom_site_label_2
_geom_bond_distance
_geom_bond_site_symmetry_2
Cs0 O10 2.863124 1_555
Cs0 O3 3.091477 1_555
Cs0 O5 3.123057 1_555
Cs0 O1 3.138141 1_555
Cs1 O11 2.863124 1_555
Cs1 O2 3.091477 1_455
Cs1 O4 3.123057 1_555
Cs1 O0 3.138141 1_455
Cs2 O9 2.848214 1_555
Cs2 O3 2.877860 1_555
Cs2 O7 3.187227 1_555
Cs3 O8 2.848214 1_555
Cs3 O2 2.877860 1_555
Cs3 O6 3.187227 1_655
Cs4 O5 2.922940 1_455
Cs4 O10 3.000617 1_555
Cs4 O1 3.057285 1_555
Cs4 O6 3.126571 1_555
Cs5 O4 2.922940 1_555
Cs5 O11 3.000617 1_655
Cs5 O0 3.057285 1_555
Cs5 O7 3.126571 1_555
Cs6 O8 2.983452 1_565
Cs6 O9 2.989262 1_556
Cs6 O6 3.110538 1_565
Cs6 O1 3.354539 1_555
Cs7 O9 2.983452 1_645
Cs7 O8 2.989262 1_554
Cs7 O7 3.110538 1_545
Cs7 O0 3.354539 1_555
Cs8 O2 3.032564 1_555
Cs8 O3 3.165077 1_545
Cs8 O8 3.377316 1_555
Cs8 O1 3.523294 1_545
Cs9 O3 3.032564 1_655
Cs9 O2 3.165077 1_565
Cs9 O9 3.377316 1_655
Cs9 O0 3.523294 1_565
Cs10 O4 2.921648 1_555
Cs10 O2 2.931572 1_555
Cs10 O10 3.347566 1_555
Cs10 O11 3.426534 1_655
Cs11 O5 2.921648 1_455
Cs11 O3 2.931572 1_555
Cs11 O11 3.347566 1_555
Cs11 O10 3.426534 1_555
Cs12 O5 2.874809 1_555
Cs12 O6 2.934214 1_655
Cs12 O10 2.957478 1_555
Cs12 O0 3.223490 1_556
Cs13 O4 2.874809 1_555
Cs13 O7 2.934214 1_555
Cs13 O11 2.957478 1_555
Cs13 O1 3.223490 1_554
Cs14 O0 2.764358 1_455
Cs14 O6 2.876410 1_554
Cs14 O9 2.986146 1_545
Cs15 O1 2.764358 1_555
Cs15 O7 2.876410 1_556
Cs15 O8 2.986146 1_565
O0 Pb0 2.178233 1_555
O1 Pb1 2.178233 1_555
O2 Pb0 2.201215 1_555
O3 Pb1 2.201215 1_555
O4 Pb0 2.168252 1_555
O5 Pb1 2.168252 1_655
O6 Pb2 2.187442 1_555
O7 Pb3 2.187442 1_555
O8 Pb2 2.220767 1_555
O9 Pb3 2.220767 1_455
O10 Pb2 2.176923 1_555
O11 Pb3 2.176923 1_455
