# generated using pymatgen
data_Na4Mn2C4SO16
_symmetry_space_group_name_H-M   'P 1'
_cell_length_a   9.85727100
_cell_length_b   9.86119643
_cell_length_c   9.93142959
_cell_angle_alpha   118.55349682
_cell_angle_beta   119.14531949
_cell_angle_gamma   91.09488170
_symmetry_Int_Tables_number   1
_chemical_formula_structural   Na4Mn2C4SO16
_chemical_formula_sum   'Na8 Mn4 C8 S2 O32'
_cell_volume   699.53711903
_cell_formula_units_Z   2
loop_
 _symmetry_equiv_pos_site_id
 _symmetry_equiv_pos_as_xyz
  1  'x, y, z'
loop_
 _atom_site_type_symbol
 _atom_site_label
 _atom_site_symmetry_multiplicity
 _atom_site_fract_x
 _atom_site_fract_y
 _atom_site_fract_z
 _atom_site_occupancy
  Na  Na0  1  0.33503600  0.08555200  0.74910200  1
  Na  Na1  1  0.08900700  0.34337900  0.66437800  1
  Na  Na2  1  0.91681200  0.09145600  0.76147900  1
  Na  Na3  1  0.32378000  0.08611100  0.16687800  1
  Na  Na4  1  0.65686200  0.91261600  0.83450900  1
  Na  Na5  1  0.91264000  0.66228900  0.75022900  1
  Na  Na6  1  0.92087800  0.65291000  0.33333000  1
  Na  Na7  1  0.65704200  0.90974600  0.23973000  1
  Mn  Mn0  1  0.00416000  0.50248000  0.00701400  1
  Mn  Mn1  1  0.50115600  0.49938400  0.99831300  1
  Mn  Mn2  1  0.49439000  0.49705700  0.49625100  1
  Mn  Mn3  1  0.49621800  0.99930800  0.49780200  1
  C  C0  1  0.71161000  0.28698500  0.92988100  1
  C  C1  1  0.35646600  0.28229800  0.56683400  1
  C  C2  1  0.72081500  0.64582700  0.93658000  1
  C  C3  1  0.71256700  0.28564600  0.56582700  1
  C  C4  1  0.28185800  0.35249200  0.06212600  1
  C  C5  1  0.28980100  0.71508600  0.43484600  1
  C  C6  1  0.28733900  0.71000200  0.06526600  1
  C  C7  1  0.64842300  0.72087800  0.43853500  1
  S  S0  1  0.12310300  0.87569700  0.75038300  1
  S  S1  1  0.87312000  0.12532600  0.24918300  1
  O  O0  1  0.13968100  0.35300000  0.94621600  1
  O  O1  1  0.60177900  0.14415700  0.80382300  1
  O  O2  1  0.34059100  0.29838300  0.69475700  1
  O  O3  1  0.31593100  0.58972700  0.95946300  1
  O  O4  1  0.36314300  0.14700800  0.45448800  1
  O  O5  1  0.05870100  0.69408800  0.63074800  1
  O  O6  1  0.05729300  0.93515100  0.87030100  1
  O  O7  1  0.36289900  0.40481000  0.55007800  1
  O  O8  1  0.85292800  0.30996500  0.95098000  1
  O  O9  1  0.60400700  0.65004300  0.96612700  1
  O  O10  1  0.68944300  0.13878000  0.53489500  1
  O  O11  1  0.06191900  0.94058400  0.62871500  1
  O  O12  1  0.30587900  0.94165300  0.87298900  1
  O  O13  1  0.30595300  0.34378900  0.19530100  1
  O  O14  1  0.14890400  0.60642900  0.30246500  1
  O  O15  1  0.59052800  0.31240200  0.45902300  1
  O  O16  1  0.41157700  0.68788700  0.54278300  1
  O  O17  1  0.70006500  0.65824000  0.80554200  1
  O  O18  1  0.85519500  0.39513000  0.69640700  1
  O  O19  1  0.68862300  0.05878300  0.12583000  1
  O  O20  1  0.93096700  0.06512500  0.37518700  1
  O  O21  1  0.31557600  0.86297100  0.47062500  1
  O  O22  1  0.39759100  0.35211700  0.03208800  1
  O  O23  1  0.14055600  0.68367900  0.03090200  1
  O  O24  1  0.64503900  0.60340800  0.46461600  1
  O  O25  1  0.93679600  0.06570200  0.12890500  1
  O  O26  1  0.93453000  0.30757200  0.36739500  1
  O  O27  1  0.64916900  0.86217300  0.55404400  1
  O  O28  1  0.68637100  0.40784400  0.03853300  1
  O  O29  1  0.65863000  0.69990600  0.30622400  1
  O  O30  1  0.39727700  0.85183200  0.19554200  1
  O  O31  1  0.85583000  0.63514000  0.04653400  1
loop_
_geom_bond_atom_site_label_1
_geom_bond_atom_site_label_2
_geom_bond_distance
_geom_bond_site_symmetry_2
Na0 O12 2.368105 1_545
Na0 O1 2.406798 1_555
Na0 O11 2.409295 1_545
Na0 O2 2.409645 1_555
Na0 O21 2.483444 1_545
Na0 O22 2.525150 1_556
Na1 O26 2.398310 1_455
Na1 O2 2.424706 1_555
Na1 O3 2.468757 1_555
Na1 O20 2.479843 1_455
Na1 O18 2.505464 1_455
Na1 O0 2.544734 1_555
Na2 O6 2.382781 1_645
Na2 O8 2.431272 1_555
Na2 O11 2.457850 1_645
Na2 O0 2.485607 1_655
Na2 O27 2.518270 1_545
Na2 O10 2.536940 1_555
Na3 O6 2.431966 1_544
Na3 O4 2.437592 1_555
Na3 O13 2.438648 1_555
Na3 O12 2.468496 1_544
Na3 O30 2.536740 1_545
Na3 O15 2.543019 1_555
Na4 O19 2.379131 1_566
Na4 O16 2.446466 1_555
Na4 O17 2.454945 1_555
Na4 O1 2.480406 1_565
Na4 O25 2.490891 1_566
Na4 O27 2.545591 1_555
Na5 O5 2.362600 1_655
Na5 O6 2.413518 1_655
Na5 O17 2.415180 1_555
Na5 O18 2.418461 1_555
Na5 O23 2.486317 1_656
Na5 O24 2.533784 1_555
Na6 O5 2.378859 1_655
Na6 O14 2.435663 1_655
Na6 O28 2.487167 1_555
Na6 O31 2.508837 1_555
Na6 O29 2.541049 1_555
Na6 O11 2.550961 1_655
Na7 O19 2.334793 1_565
Na7 O30 2.384378 1_555
Na7 O20 2.404476 1_565
Na7 O29 2.452699 1_555
Na7 O9 2.475529 1_554
Na7 O10 2.554907 1_565
Mn0 O31 2.035795 1_455
Mn0 O8 2.051792 1_454
Mn0 O23 2.061308 1_555
Mn0 O0 2.081356 1_554
Mn0 O14 2.164987 1_555
Mn0 O18 2.280215 1_454
Mn1 O3 1.995175 1_555
Mn1 O28 2.001243 1_556
Mn1 O22 2.001555 1_556
Mn1 O9 2.012302 1_555
Mn1 O2 2.245549 1_555
Mn1 O29 2.269239 1_556
Mn2 O7 1.971795 1_555
Mn2 O16 2.003986 1_555
Mn2 O24 2.028223 1_555
Mn2 O15 2.028334 1_555
Mn2 O13 2.198740 1_555
Mn2 O17 2.283775 1_555
Mn3 O21 2.035813 1_555
Mn3 O4 2.037024 1_565
Mn3 O10 2.094561 1_565
Mn3 O27 2.096084 1_555
Mn3 O30 2.235651 1_555
Mn3 O1 2.252272 1_565
C0 O1 1.288043 1_555
C0 O28 1.300047 1_556
C0 O8 1.301521 1_555
C1 O2 1.290607 1_555
C1 O4 1.296539 1_555
C1 O7 1.300306 1_555
C2 O17 1.282345 1_555
C2 O31 1.294053 1_556
C2 O9 1.316378 1_555
C3 O18 1.285156 1_555
C3 O15 1.295624 1_555
C3 O10 1.318215 1_555
C4 O13 1.271377 1_555
C4 O22 1.311893 1_555
C4 O0 1.312876 1_554
C5 O14 1.274124 1_555
C5 O16 1.302207 1_555
C5 O21 1.311507 1_555
C6 O30 1.284902 1_555
C6 O23 1.302801 1_555
C6 O3 1.303894 1_554
C7 O29 1.284280 1_555
C7 O24 1.305319 1_555
C7 O27 1.311806 1_555
O5 S0 1.486504 1_555
O6 S0 1.510798 1_555
O11 S0 1.509060 1_555
O12 S0 1.487606 1_555
O19 S1 1.501530 1_555
O20 S1 1.507195 1_555
O25 S1 1.496528 1_555
O26 S1 1.491227 1_555
