# generated using pymatgen
data_ZnInGaO4
_symmetry_space_group_name_H-M   'P 1'
_cell_length_a   8.92681921
_cell_length_b   8.92681921
_cell_length_c   8.92681884
_cell_angle_alpha   21.69942692
_cell_angle_beta   21.69942692
_cell_angle_gamma   21.69942992
_symmetry_Int_Tables_number   1
_chemical_formula_structural   ZnInGaO4
_chemical_formula_sum   'Zn1 In1 Ga1 O4'
_cell_volume   85.22481500
_cell_formula_units_Z   1
loop_
 _symmetry_equiv_pos_site_id
 _symmetry_equiv_pos_as_xyz
  1  'x, y, z'
loop_
 _atom_site_type_symbol
 _atom_site_label
 _atom_site_symmetry_multiplicity
 _atom_site_fract_x
 _atom_site_fract_y
 _atom_site_fract_z
 _atom_site_occupancy
  Zn  Zn0  1  0.21838200  0.21838200  0.21838200  1
  In  In0  1  0.00276800  0.00276800  0.00276800  1
  Ga  Ga0  1  0.78703400  0.78703400  0.78703400  1
  O  O0  1  0.29514300  0.29514300  0.29514300  1
  O  O1  1  0.71135800  0.71135800  0.71135800  1
  O  O2  1  0.12171700  0.12171700  0.12171700  1
  O  O3  1  0.86359900  0.86359900  0.86359900  1
loop_
_geom_bond_atom_site_label_1
_geom_bond_atom_site_label_2
_geom_bond_distance
_geom_bond_site_symmetry_2
In0 O0 2.216072 1_554
In0 O0 2.216072 1_545
In0 O0 2.216072 1_455
In0 O1 2.228369 1_445
In0 O1 2.228369 1_544
In0 O1 2.228369 1_454
Ga0 O2 1.940595 1_665
Ga0 O2 1.940595 1_566
Ga0 O2 1.940595 1_656
Ga0 O1 1.978187 1_555
Ga0 O3 2.001426 1_555
O0 Zn0 2.006549 1_555
O3 Zn0 2.019665 1_665
O3 Zn0 2.019665 1_566
O3 Zn0 2.019665 1_656
