# generated using pymatgen
data_Li2TiFe3O8
_symmetry_space_group_name_H-M   'P 1'
_cell_length_a   5.99266770
_cell_length_b   5.97160521
_cell_length_c   8.51043050
_cell_angle_alpha   90.05953086
_cell_angle_beta   89.79950844
_cell_angle_gamma   89.00677612
_symmetry_Int_Tables_number   1
_chemical_formula_structural   Li2TiFe3O8
_chemical_formula_sum   'Li4 Ti2 Fe6 O16'
_cell_volume   304.50514565
_cell_formula_units_Z   2
loop_
 _symmetry_equiv_pos_site_id
 _symmetry_equiv_pos_as_xyz
  1  'x, y, z'
loop_
 _atom_site_type_symbol
 _atom_site_label
 _atom_site_symmetry_multiplicity
 _atom_site_fract_x
 _atom_site_fract_y
 _atom_site_fract_z
 _atom_site_occupancy
  Li  Li0  1  0.00553400  0.24909700  0.12603000  1
  Li  Li1  1  0.50315100  0.75502200  0.62658900  1
  Li  Li2  1  0.99717800  0.74533100  0.87299800  1
  Li  Li3  1  0.49458900  0.25065400  0.37439200  1
  Ti  Ti0  1  0.00328500  0.99239700  0.51063200  1
  Ti  Ti1  1  0.49782100  0.50785900  0.98900000  1
  Fe  Fe0  1  0.75027200  0.24996000  0.74961300  1
  Fe  Fe1  1  0.74954800  0.75018200  0.25074200  1
  Fe  Fe2  1  0.25000900  0.24983200  0.74959800  1
  Fe  Fe3  1  0.00119600  0.49480700  0.49970600  1
  Fe  Fe4  1  0.49860300  0.00546800  0.00055300  1
  Fe  Fe5  1  0.24950800  0.74952600  0.24983200  1
  O  O0  1  0.00698000  0.52529400  0.26459300  1
  O  O1  1  0.50364600  0.02456000  0.76868100  1
  O  O2  1  0.99664900  0.47501100  0.73230400  1
  O  O3  1  0.49209700  0.97489000  0.23484600  1
  O  O4  1  0.22826600  0.75308700  0.48983400  1
  O  O5  1  0.72280600  0.26207400  0.99456800  1
  O  O6  1  0.77871300  0.75410400  0.48850800  1
  O  O7  1  0.27711300  0.25757300  0.99008600  1
  O  O8  1  0.01443600  0.96757300  0.26219600  1
  O  O9  1  0.49774900  0.48511800  0.76550700  1
  O  O10  1  0.00242400  0.01458900  0.73446800  1
  O  O11  1  0.48536000  0.53228900  0.23752600  1
  O  O12  1  0.22377200  0.24074800  0.51002600  1
  O  O13  1  0.72044200  0.74809200  0.01146600  1
  O  O14  1  0.77712700  0.23880100  0.50586400  1
  O  O15  1  0.27172600  0.74606400  0.00984100  1
loop_
_geom_bond_atom_site_label_1
_geom_bond_atom_site_label_2
_geom_bond_distance
_geom_bond_site_symmetry_2
Li0 O7 1.994888 1_554
Li0 O0 2.026698 1_555
Li0 O5 2.034022 1_454
Li0 O8 2.042884 1_545
Li1 O9 2.000510 1_555
Li1 O1 2.012264 1_565
Li1 O4 2.020469 1_555
Li1 O6 2.023366 1_555
Li2 O10 1.995418 1_665
Li2 O2 2.008897 1_555
Li2 O15 2.019127 1_656
Li2 O13 2.030895 1_556
Li3 O12 1.990008 1_555
Li3 O3 2.029611 1_545
Li3 O14 2.032967 1_555
Li3 O11 2.046847 1_555
Fe0 O2 2.018764 1_555
Fe0 O1 2.022405 1_555
Fe0 O10 2.049416 1_655
Fe0 O9 2.050563 1_555
Fe0 O14 2.080989 1_555
Fe0 O5 2.091664 1_555
Fe1 O0 2.031527 1_655
Fe1 O6 2.031780 1_555
Fe1 O3 2.032059 1_555
Fe1 O13 2.044450 1_555
Fe1 O11 2.069915 1_555
Fe1 O8 2.070461 1_655
Fe2 O2 2.016498 1_455
Fe2 O1 2.019310 1_555
Fe2 O12 2.046198 1_555
Fe2 O7 2.054194 1_555
Fe2 O10 2.065079 1_555
Fe2 O9 2.066371 1_555
Fe3 O2 1.983279 1_455
Fe3 O12 2.004858 1_555
Fe3 O0 2.009599 1_555
Fe3 O6 2.028277 1_455
Fe3 O14 2.052742 1_455
Fe3 O4 2.076000 1_555
Fe4 O1 1.976895 1_554
Fe4 O7 1.991978 1_554
Fe4 O3 2.002772 1_545
Fe4 O13 2.017048 1_545
Fe4 O5 2.055952 1_554
Fe4 O15 2.080109 1_545
Fe5 O8 1.904221 1_555
Fe5 O11 1.904364 1_555
Fe5 O0 1.996910 1_555
Fe5 O3 2.001922 1_555
Fe5 O4 2.046104 1_555
Fe5 O15 2.046357 1_555
O4 Ti0 1.955072 1_555
O5 Ti1 1.976429 1_555
O6 Ti0 1.984717 1_655
O7 Ti1 2.012900 1_555
O8 Ti0 2.120073 1_555
O9 Ti1 1.906725 1_555
O10 Ti0 1.909390 1_545
O11 Ti1 2.120903 1_554
O12 Ti0 2.003304 1_545
O13 Ti1 1.985431 1_554
O14 Ti0 1.983665 1_645
O15 Ti1 1.954900 1_554
