# generated using pymatgen
data_LiEr6Ta2O14
_symmetry_space_group_name_H-M   'P 1'
_cell_length_a   6.40660057
_cell_length_b   6.40660071
_cell_length_c   7.56335900
_cell_angle_alpha   89.53819507
_cell_angle_beta   89.53820201
_cell_angle_gamma   109.68766653
_symmetry_Int_Tables_number   1
_chemical_formula_structural   LiEr6Ta2O14
_chemical_formula_sum   'Li1 Er6 Ta2 O14'
_cell_volume   292.25884884
_cell_formula_units_Z   1
loop_
 _symmetry_equiv_pos_site_id
 _symmetry_equiv_pos_as_xyz
  1  'x, y, z'
loop_
 _atom_site_type_symbol
 _atom_site_label
 _atom_site_symmetry_multiplicity
 _atom_site_fract_x
 _atom_site_fract_y
 _atom_site_fract_z
 _atom_site_occupancy
  Li  Li0  1  0.23796900  0.76203100  0.50000000  1
  Er  Er0  1  0.04984600  0.50743800  0.23075500  1
  Er  Er1  1  0.00425300  0.99574700  0.00000000  1
  Er  Er2  1  0.98101400  0.01898600  0.50000000  1
  Er  Er3  1  0.49256200  0.95015400  0.76924500  1
  Er  Er4  1  0.51426700  0.06317900  0.24791600  1
  Er  Er5  1  0.93682100  0.48573300  0.75208400  1
  Ta  Ta0  1  0.49819400  0.50180600  0.00000000  1
  Ta  Ta1  1  0.50731000  0.49269000  0.50000000  1
  O  O0  1  0.12308400  0.83871800  0.72522000  1
  O  O1  1  0.16128200  0.87691600  0.27478000  1
  O  O2  1  0.16768700  0.44121400  0.52502700  1
  O  O3  1  0.17149000  0.43584900  0.96058500  1
  O  O4  1  0.56415100  0.82851000  0.03941500  1
  O  O5  1  0.55878600  0.83231300  0.47497300  1
  O  O6  1  0.42750500  0.41595000  0.25108700  1
  O  O7  1  0.58405000  0.57249500  0.74891300  1
  O  O8  1  0.40973000  0.16143600  0.97170000  1
  O  O9  1  0.43361200  0.17416700  0.54313700  1
  O  O10  1  0.83856400  0.59027000  0.02830000  1
  O  O11  1  0.82583300  0.56638800  0.45686300  1
  O  O12  1  0.85330300  0.11214600  0.75727200  1
  O  O13  1  0.88785400  0.14669700  0.24272800  1
loop_
_geom_bond_atom_site_label_1
_geom_bond_atom_site_label_2
_geom_bond_distance
_geom_bond_site_symmetry_2
Li0 O5 1.957502 1_555
Li0 O2 1.957502 1_555
Li0 O1 1.980322 1_555
Li0 O0 1.980322 1_555
Li0 O11 2.537663 1_455
Li0 O9 2.537663 1_565
Er0 O13 2.192163 1_455
Er0 O10 2.227744 1_455
Er0 O1 2.258673 1_555
Er0 O3 2.285481 1_554
Er0 O11 2.337293 1_455
Er0 O2 2.435431 1_555
Er0 O6 2.679793 1_555
Er1 O12 2.313894 1_464
Er1 O13 2.313894 1_465
Er1 O8 2.459718 1_564
Er1 O10 2.459718 1_455
Er1 O1 2.536743 1_555
Er1 O0 2.536744 1_554
Er1 O4 2.670685 1_455
Er1 O3 2.670685 1_564
Er2 O13 2.265842 1_555
Er2 O12 2.265842 1_555
Er2 O0 2.401131 1_645
Er2 O1 2.401131 1_645
Er2 O5 2.572068 1_545
Er2 O2 2.572068 1_655
Er2 O9 2.753314 1_655
Er2 O11 2.753314 1_545
Er3 O12 2.192163 1_565
Er3 O8 2.227744 1_565
Er3 O0 2.258673 1_555
Er3 O4 2.285481 1_556
Er3 O9 2.337293 1_565
Er3 O5 2.435431 1_555
Er3 O7 2.679793 1_555
Er4 O1 2.179397 1_545
Er4 O13 2.269709 1_555
Er4 O4 2.281030 1_545
Er4 O5 2.338662 1_545
Er4 O8 2.344064 1_554
Er4 O9 2.452108 1_555
Er4 O6 2.502905 1_555
Er5 O0 2.179397 1_655
Er5 O12 2.269709 1_555
Er5 O3 2.281030 1_655
Er5 O2 2.338662 1_655
Er5 O10 2.344064 1_556
Er5 O11 2.452108 1_555
Er5 O7 2.502905 1_555
O2 Ta1 2.094683 1_555
O3 Ta0 2.016060 1_556
O4 Ta0 2.016060 1_555
O5 Ta1 2.094683 1_555
O6 Ta1 1.976977 1_555
O6 Ta0 1.978771 1_555
O7 Ta1 1.976977 1_555
O7 Ta0 1.978771 1_556
O8 Ta0 2.073372 1_556
O9 Ta1 1.957350 1_555
O10 Ta0 2.073372 1_555
O11 Ta1 1.957350 1_555
