# generated using pymatgen
data_LiMnSiO4
_symmetry_space_group_name_H-M   'P 1'
_cell_length_a   18.89746440
_cell_length_b   8.12071800
_cell_length_c   5.55014612
_cell_angle_alpha   89.99967250
_cell_angle_beta   89.97634195
_cell_angle_gamma   89.99953671
_symmetry_Int_Tables_number   1
_chemical_formula_structural   LiMnSiO4
_chemical_formula_sum   'Li12 Mn12 Si12 O48'
_cell_volume   851.73078611
_cell_formula_units_Z   12
loop_
 _symmetry_equiv_pos_site_id
 _symmetry_equiv_pos_as_xyz
  1  'x, y, z'
loop_
 _atom_site_type_symbol
 _atom_site_label
 _atom_site_symmetry_multiplicity
 _atom_site_fract_x
 _atom_site_fract_y
 _atom_site_fract_z
 _atom_site_occupancy
  Li  Li0  1  0.08296600  0.57588700  0.00728400  1
  Li  Li1  1  0.08364100  0.07890000  0.50039800  1
  Li  Li2  1  0.24957900  0.92195500  0.01742700  1
  Li  Li3  1  0.25041500  0.42194900  0.51748700  1
  Li  Li4  1  0.41636700  0.57890500  0.00046300  1
  Li  Li5  1  0.41702700  0.07588700  0.50733800  1
  Li  Li6  1  0.58296200  0.92408200  0.00733900  1
  Li  Li7  1  0.58363700  0.42108700  0.50040800  1
  Li  Li8  1  0.74957600  0.57807100  0.01742600  1
  Li  Li9  1  0.75041200  0.07806800  0.51748100  1
  Li  Li10  1  0.91636500  0.92108300  0.00037700  1
  Li  Li11  1  0.91702900  0.42411600  0.50734400  1
  Mn  Mn0  1  0.99953500  0.24903500  0.99049400  1
  Mn  Mn1  1  0.00043000  0.75091700  0.49059200  1
  Mn  Mn2  1  0.16693500  0.75011300  0.51021300  1
  Mn  Mn3  1  0.16676500  0.24998400  0.01694900  1
  Mn  Mn4  1  0.33322200  0.74993000  0.51677300  1
  Mn  Mn5  1  0.33304800  0.25006500  0.01040800  1
  Mn  Mn6  1  0.49954200  0.25092100  0.99052100  1
  Mn  Mn7  1  0.50046000  0.74903600  0.49065800  1
  Mn  Mn8  1  0.66691000  0.74994000  0.51016400  1
  Mn  Mn9  1  0.66673400  0.25023600  0.01679000  1
  Mn  Mn10  1  0.83322300  0.75009400  0.51675500  1
  Mn  Mn11  1  0.83306200  0.24990100  0.01034200  1
  Si  Si0  1  0.08326000  0.90384500  0.99474700  1
  Si  Si1  1  0.08362200  0.40458200  0.50414100  1
  Si  Si2  1  0.24979000  0.59618500  0.01827300  1
  Si  Si3  1  0.25022500  0.09618900  0.51833000  1
  Si  Si4  1  0.41639000  0.90455600  0.00421400  1
  Si  Si5  1  0.41673200  0.40381800  0.49479800  1
  Si  Si6  1  0.58325200  0.59615100  0.99479400  1
  Si  Si7  1  0.58360000  0.09538500  0.50415400  1
  Si  Si8  1  0.74978600  0.90384000  0.01823900  1
  Si  Si9  1  0.75022600  0.40384100  0.51829200  1
  Si  Si10  1  0.91639000  0.59544000  0.00414900  1
  Si  Si11  1  0.91675600  0.09615500  0.49472600  1
  O  O0  1  0.98842400  0.98374700  0.49169200  1
  O  O1  1  0.01157900  0.01617700  0.99167300  1
  O  O2  1  0.01231500  0.51794700  0.49605800  1
  O  O3  1  0.08102900  0.27725000  0.73987700  1
  O  O4  1  0.08577000  0.27779700  0.26653700  1
  O  O5  1  0.08361400  0.77370000  0.22417300  1
  O  O6  1  0.08314500  0.78115700  0.74964300  1
  O  O7  1  0.15448800  0.01720700  0.00620800  1
  O  O8  1  0.15516100  0.51699500  0.51506900  1
  O  O9  1  0.17840300  0.48302900  0.01588300  1
  O  O10  1  0.17876000  0.98335100  0.50782400  1
  O  O11  1  0.25097200  0.22659900  0.28940700  1
  O  O12  1  0.24938500  0.21967500  0.76342000  1
  O  O13  1  0.24909700  0.72661900  0.78931000  1
  O  O14  1  0.25058400  0.71970300  0.26338900  1
  O  O15  1  0.32124200  0.48329600  0.00787000  1
  O  O16  1  0.32160200  0.98299200  0.51593200  1
  O  O17  1  0.34483500  0.01698000  0.01512000  1
  O  O18  1  0.34551500  0.51718900  0.50620900  1
  O  O19  1  0.41690900  0.28111900  0.24969500  1
  O  O20  1  0.41636300  0.27368100  0.72425300  1
  O  O21  1  0.41428600  0.77776700  0.76665200  1
  O  O22  1  0.41893800  0.77724000  0.24001400  1
  O  O23  1  0.48768600  0.01798300  0.99611600  1
  O  O24  1  0.48842500  0.51618600  0.49177900  1
  O  O25  1  0.51157700  0.48380300  0.99172700  1
  O  O26  1  0.51230300  0.98198300  0.49615800  1
  O  O27  1  0.58103000  0.22273700  0.73990600  1
  O  O28  1  0.58574400  0.22218500  0.26653000  1
  O  O29  1  0.58360100  0.72624900  0.22424600  1
  O  O30  1  0.58312500  0.71881800  0.74973300  1
  O  O31  1  0.65447800  0.48280600  0.00622600  1
  O  O32  1  0.65515700  0.98299500  0.51503900  1
  O  O33  1  0.67839700  0.01699500  0.01587600  1
  O  O34  1  0.67875300  0.51668100  0.50781000  1
  O  O35  1  0.74938500  0.28035800  0.76340500  1
  O  O36  1  0.75096500  0.27341800  0.28937800  1
  O  O37  1  0.75059900  0.78031900  0.26332300  1
  O  O38  1  0.74908100  0.77341800  0.78925700  1
  O  O39  1  0.82124000  0.01672500  0.00780600  1
  O  O40  1  0.82159200  0.51701900  0.51591500  1
  O  O41  1  0.84482900  0.48302400  0.01506500  1
  O  O42  1  0.84551400  0.98280300  0.50619400  1
  O  O43  1  0.91691500  0.21887600  0.24964100  1
  O  O44  1  0.91638100  0.22630500  0.72420000  1
  O  O45  1  0.91429700  0.72219800  0.76651900  1
  O  O46  1  0.91894800  0.72275200  0.23990000  1
  O  O47  1  0.98768800  0.48199800  0.99604900  1
loop_
_geom_bond_atom_site_label_1
_geom_bond_atom_site_label_2
_geom_bond_distance
_geom_bond_site_symmetry_2
Li0 O9 1.955410 1_555
Li0 O47 1.956316 1_454
Li0 O5 2.007412 1_555
Li0 O6 2.196227 1_554
Li1 O10 1.958273 1_545
Li1 O0 1.958879 1_445
Li1 O4 2.072459 1_555
Li1 O3 2.088905 1_555
Li2 O7 1.957397 1_565
Li2 O17 1.958569 1_565
Li2 O13 2.029613 1_554
Li2 O14 2.135768 1_555
Li3 O18 1.957490 1_555
Li3 O8 1.958604 1_555
Li3 O11 2.029575 1_555
Li3 O12 2.135797 1_555
Li4 O15 1.958548 1_555
Li4 O25 1.958550 1_554
Li4 O21 2.072067 1_554
Li4 O22 2.089074 1_555
Li5 O16 1.955291 1_545
Li5 O26 1.956261 1_545
Li5 O20 2.007371 1_555
Li5 O19 2.196000 1_555
Li6 O33 1.955550 1_565
Li6 O23 1.956306 1_564
Li6 O29 2.007590 1_555
Li6 O30 2.196075 1_554
Li7 O34 1.958375 1_555
Li7 O24 1.958597 1_555
Li7 O28 2.072553 1_555
Li7 O27 2.088959 1_555
Li8 O31 1.957569 1_555
Li8 O41 1.958578 1_555
Li8 O38 2.029853 1_554
Li8 O37 2.135527 1_555
Li9 O42 1.957595 1_545
Li9 O32 1.958720 1_545
Li9 O36 2.029644 1_555
Li9 O35 2.135876 1_555
Li10 O1 1.958601 1_664
Li10 O39 1.958646 1_565
Li10 O45 2.072383 1_554
Li10 O46 2.088943 1_555
Li11 O40 1.955511 1_555
Li11 O2 1.956233 1_655
Li11 O44 2.007272 1_555
Li11 O43 2.196278 1_555
Mn0 O1 1.904632 1_655
Mn0 O47 1.905274 1_555
Mn0 O3 2.087390 1_655
Mn0 O43 2.136476 1_556
Mn0 O44 2.165570 1_555
Mn0 O4 2.249347 1_656
Mn1 O0 1.904318 1_455
Mn1 O2 1.905410 1_555
Mn1 O46 2.088305 1_455
Mn1 O6 2.138375 1_555
Mn1 O5 2.165604 1_555
Mn1 O45 2.246557 1_455
Mn2 O8 1.906307 1_555
Mn2 O10 1.907244 1_555
Mn2 O6 2.082049 1_555
Mn2 O14 2.105856 1_555
Mn2 O13 2.201954 1_555
Mn2 O5 2.244622 1_555
Mn3 O9 1.905240 1_555
Mn3 O7 1.905438 1_555
Mn3 O4 2.076274 1_555
Mn3 O12 2.115761 1_554
Mn3 O11 2.203853 1_555
Mn3 O3 2.245194 1_554
Mn4 O18 1.905145 1_555
Mn4 O16 1.905331 1_555
Mn4 O21 2.079180 1_555
Mn4 O14 2.116260 1_555
Mn4 O13 2.202084 1_555
Mn4 O22 2.242853 1_555
Mn5 O17 1.906057 1_555
Mn5 O15 1.907149 1_555
Mn5 O19 2.083410 1_555
Mn5 O12 2.107480 1_554
Mn5 O11 2.199506 1_555
Mn5 O20 2.244097 1_554
Mn6 O25 1.904809 1_555
Mn6 O23 1.905099 1_555
Mn6 O27 2.087270 1_555
Mn6 O19 2.136792 1_556
Mn6 O20 2.165831 1_555
Mn6 O28 2.248740 1_556
Mn7 O24 1.904549 1_555
Mn7 O26 1.905138 1_555
Mn7 O22 2.088715 1_555
Mn7 O30 2.137749 1_555
Mn7 O29 2.164990 1_555
Mn7 O21 2.247381 1_555
Mn8 O32 1.905751 1_555
Mn8 O34 1.907448 1_555
Mn8 O30 2.082547 1_555
Mn8 O37 2.106456 1_555
Mn8 O38 2.202051 1_555
Mn8 O29 2.244060 1_555
Mn9 O31 1.903688 1_555
Mn9 O33 1.906869 1_555
Mn9 O28 2.076979 1_555
Mn9 O35 2.115487 1_554
Mn9 O36 2.204538 1_555
Mn9 O27 2.244235 1_554
Mn10 O42 1.904885 1_555
Mn10 O40 1.905463 1_555
Mn10 O45 2.078941 1_555
Mn10 O37 2.116235 1_555
Mn10 O38 2.202191 1_555
Mn10 O46 2.243366 1_555
Mn11 O41 1.906324 1_555
Mn11 O39 1.906744 1_555
Mn11 O43 2.083305 1_555
Mn11 O35 2.107553 1_554
Mn11 O36 2.199966 1_555
Mn11 O44 2.244084 1_554
O0 Si11 1.633327 1_565
O1 Si0 1.633200 1_545
O2 Si1 1.632596 1_555
O3 Si1 1.668345 1_555
O4 Si1 1.673539 1_555
O5 Si0 1.654819 1_554
O6 Si0 1.686195 1_555
O7 Si0 1.631993 1_544
O8 Si1 1.632408 1_555
O9 Si2 1.632328 1_555
O10 Si3 1.633098 1_565
O11 Si3 1.654089 1_555
O12 Si3 1.690037 1_555
O13 Si2 1.654385 1_556
O14 Si2 1.690309 1_555
O15 Si2 1.633055 1_555
O16 Si3 1.632338 1_565
O17 Si4 1.632650 1_545
O18 Si5 1.631796 1_555
O19 Si5 1.686243 1_555
O20 Si5 1.654899 1_555
O21 Si4 1.673381 1_556
O22 Si4 1.668550 1_555
O23 Si4 1.632693 1_546
O24 Si5 1.633548 1_555
O25 Si6 1.633190 1_555
O26 Si7 1.632609 1_565
O27 Si7 1.668512 1_555
O28 Si7 1.673690 1_555
O29 Si6 1.654696 1_554
O30 Si6 1.685893 1_555
O31 Si6 1.631865 1_554
O32 Si7 1.632564 1_565
O33 Si8 1.632341 1_545
O34 Si9 1.633214 1_555
O35 Si9 1.690116 1_555
O36 Si9 1.654126 1_555
O37 Si8 1.690175 1_555
O38 Si8 1.654415 1_556
O39 Si8 1.633086 1_545
O40 Si9 1.632091 1_555
O41 Si10 1.632721 1_555
O42 Si11 1.632123 1_565
O43 Si11 1.686259 1_555
O44 Si11 1.655057 1_555
O45 Si10 1.673509 1_556
O46 Si10 1.668331 1_555
O47 Si10 1.632781 1_556
