# generated using pymatgen
data_Sm4B18Cl3O38
_symmetry_space_group_name_H-M   'P 1'
_cell_length_a   6.53879277
_cell_length_b   10.68058269
_cell_length_c   22.90875286
_cell_angle_alpha   98.81253774
_cell_angle_beta   90.00000000
_cell_angle_gamma   90.00000000
_symmetry_Int_Tables_number   1
_chemical_formula_structural   Sm4B18Cl3O38
_chemical_formula_sum   'Sm8 B36 Cl6 O76'
_cell_volume   1581.01710037
_cell_formula_units_Z   2
loop_
 _symmetry_equiv_pos_site_id
 _symmetry_equiv_pos_as_xyz
  1  'x, y, z'
loop_
 _atom_site_type_symbol
 _atom_site_label
 _atom_site_symmetry_multiplicity
 _atom_site_fract_x
 _atom_site_fract_y
 _atom_site_fract_z
 _atom_site_occupancy
  Sm  Sm0  1  0.12086385  0.57596004  0.15129188  1
  Sm  Sm1  1  0.12086385  0.42403996  0.34870812  1
  Sm  Sm2  1  0.87913615  0.42403996  0.84870812  1
  Sm  Sm3  1  0.87913615  0.57596004  0.65129188  1
  Sm  Sm4  1  0.60409799  0.05982161  0.13954638  1
  Sm  Sm5  1  0.60409799  0.94017839  0.36045362  1
  Sm  Sm6  1  0.39590201  0.94017839  0.86045362  1
  Sm  Sm7  1  0.39590201  0.05982161  0.63954638  1
  B  B0  1  0.11282629  0.89320535  0.10221161  1
  B  B1  1  0.11282629  0.10679465  0.39778839  1
  B  B2  1  0.88717371  0.10679465  0.89778839  1
  B  B3  1  0.88717371  0.89320535  0.60221161  1
  B  B4  1  0.60995066  0.40429546  0.16644614  1
  B  B5  1  0.60995066  0.59570454  0.33355386  1
  B  B6  1  0.39004934  0.59570454  0.83355386  1
  B  B7  1  0.39004934  0.40429546  0.66644614  1
  B  B8  1  0.81279670  0.74358163  0.10439887  1
  B  B9  1  0.81279670  0.25641837  0.39560113  1
  B  B10  1  0.18720330  0.25641837  0.89560113  1
  B  B11  1  0.18720330  0.74358163  0.60439887  1
  B  B12  1  0.06280246  0.11209583  0.16283093  1
  B  B13  1  0.06280246  0.88790417  0.33716907  1
  B  B14  1  0.93719754  0.88790417  0.83716907  1
  B  B15  1  0.93719754  0.11209583  0.66283093  1
  B  B16  1  0.94597120  0.33175558  0.20029398  1
  B  B17  1  0.94597120  0.66824442  0.29970602  1
  B  B18  1  0.05402880  0.66824442  0.79970602  1
  B  B19  1  0.05402880  0.33175558  0.70029398  1
  B  B20  1  0.74565126  0.13842696  0.99799611  1
  B  B21  1  0.74565126  0.86157304  0.50200389  1
  B  B22  1  0.25434874  0.86157304  0.00200389  1
  B  B23  1  0.25434874  0.13842696  0.49799611  1
  B  B24  1  0.31152431  0.27990230  0.20118429  1
  B  B25  1  0.31152431  0.72009770  0.29881571  1
  B  B26  1  0.68847569  0.72009770  0.79881571  1
  B  B27  1  0.68847569  0.27990230  0.70118429  1
  B  B28  1  0.45009677  0.79322711  0.08639754  1
  B  B29  1  0.45009677  0.20677289  0.41360246  1
  B  B30  1  0.54990323  0.20677289  0.91360246  1
  B  B31  1  0.54990323  0.79322711  0.58639754  1
  B  B32  1  0.55687386  0.56805378  0.09836337  1
  B  B33  1  0.55687386  0.43194622  0.40163663  1
  B  B34  1  0.44312614  0.43194622  0.90163663  1
  B  B35  1  0.44312614  0.56805378  0.59836337  1
  Cl  Cl0  1  0.19819138  0.38100002  0.04968098  1
  Cl  Cl1  1  0.19819138  0.61899998  0.45031902  1
  Cl  Cl2  1  0.80180862  0.61899998  0.95031902  1
  Cl  Cl3  1  0.80180862  0.38100002  0.54968098  1
  Cl  Cl4  1  0.65497258  0.00000000  0.25000000  1
  Cl  Cl5  1  0.34502742  0.00000000  0.75000000  1
  O  O0  1  0.99713476  0.99716003  0.13612603  1
  O  O1  1  0.99713476  0.00283997  0.36387397  1
  O  O2  1  0.00286524  0.00283997  0.86387397  1
  O  O3  1  0.00286524  0.99716003  0.63612603  1
  O  O4  1  0.94082125  0.64788162  0.23608336  1
  O  O5  1  0.94082125  0.35211838  0.26391664  1
  O  O6  1  0.05917875  0.35211838  0.76391664  1
  O  O7  1  0.05917875  0.64788162  0.73608336  1
  O  O8  1  0.49611825  0.49682284  0.14632424  1
  O  O9  1  0.49611825  0.50317716  0.35367576  1
  O  O10  1  0.50388175  0.50317716  0.85367576  1
  O  O11  1  0.50388175  0.49682284  0.64632424  1
  O  O12  1  0.90596942  0.19801441  0.17555047  1
  O  O13  1  0.90596942  0.80198559  0.32444953  1
  O  O14  1  0.09403058  0.80198559  0.82444953  1
  O  O15  1  0.09403058  0.19801441  0.67555047  1
  O  O16  1  0.76877740  0.61649863  0.10403711  1
  O  O17  1  0.76877740  0.38350137  0.39596289  1
  O  O18  1  0.23122260  0.38350137  0.89596289  1
  O  O19  1  0.23122260  0.61649863  0.60403711  1
  O  O20  1  0.32938459  0.89505968  0.11943639  1
  O  O21  1  0.32938459  0.10494032  0.38056361  1
  O  O22  1  0.67061541  0.10494032  0.88056361  1
  O  O23  1  0.67061541  0.89505968  0.61943639  1
  O  O24  1  0.15887314  0.36692551  0.18266424  1
  O  O25  1  0.15887314  0.63307449  0.31733576  1
  O  O26  1  0.84112686  0.63307449  0.81733576  1
  O  O27  1  0.84112686  0.36692551  0.68266424  1
  O  O28  1  0.81754800  0.41681446  0.17190698  1
  O  O29  1  0.81754800  0.58318554  0.32809302  1
  O  O30  1  0.18245200  0.58318554  0.82809302  1
  O  O31  1  0.18245200  0.41681446  0.67190698  1
  O  O32  1  0.66534837  0.83225443  0.09900191  1
  O  O33  1  0.66534837  0.16774557  0.40099809  1
  O  O34  1  0.33465163  0.16774557  0.90099809  1
  O  O35  1  0.33465163  0.83225443  0.59900191  1
  O  O36  1  0.26386894  0.14557468  0.17636914  1
  O  O37  1  0.26386894  0.85442532  0.32363086  1
  O  O38  1  0.73613106  0.85442532  0.82363086  1
  O  O39  1  0.73613106  0.14557468  0.67636914  1
  O  O40  1  0.28875494  0.68752299  0.23500781  1
  O  O41  1  0.28875494  0.31247701  0.26499219  1
  O  O42  1  0.71124506  0.31247701  0.76499219  1
  O  O43  1  0.71124506  0.68752299  0.73500781  1
  O  O44  1  0.01550516  0.77167590  0.11431663  1
  O  O45  1  0.01550516  0.22832410  0.38568337  1
  O  O46  1  0.98449484  0.22832410  0.88568337  1
  O  O47  1  0.98449484  0.77167590  0.61431663  1
  O  O48  1  0.72052305  0.10819451  0.05356068  1
  O  O49  1  0.72052305  0.89180549  0.44643932  1
  O  O50  1  0.27947695  0.89180549  0.94643932  1
  O  O51  1  0.27947695  0.10819451  0.55356068  1
  O  O52  1  0.39265781  0.15763768  0.04780627  1
  O  O53  1  0.39265781  0.84236232  0.45219373  1
  O  O54  1  0.60734219  0.84236232  0.95219373  1
  O  O55  1  0.60734219  0.15763768  0.54780627  1
  O  O56  1  0.51894972  0.29616897  0.18126711  1
  O  O57  1  0.51894972  0.70383103  0.31873289  1
  O  O58  1  0.48105028  0.70383103  0.81873289  1
  O  O59  1  0.48105028  0.29616897  0.68126711  1
  O  O60  1  0.40493323  0.66845611  0.10174256  1
  O  O61  1  0.40493323  0.33154389  0.39825744  1
  O  O62  1  0.59506677  0.33154389  0.89825744  1
  O  O63  1  0.59506677  0.66845611  0.60174256  1
  O  O64  1  0.09458026  0.89860761  0.03830470  1
  O  O65  1  0.09458026  0.10139239  0.46169530  1
  O  O66  1  0.90541974  0.10139239  0.96169530  1
  O  O67  1  0.90541974  0.89860761  0.53830470  1
  O  O68  1  0.54748765  0.47165847  0.04351280  1
  O  O69  1  0.54748765  0.52834153  0.45648720  1
  O  O70  1  0.45251235  0.52834153  0.95648720  1
  O  O71  1  0.45251235  0.47165847  0.54351280  1
  O  O72  1  0.58932156  0.21107282  0.97850505  1
  O  O73  1  0.58932156  0.78892718  0.52149495  1
  O  O74  1  0.41067844  0.78892718  0.02149495  1
  O  O75  1  0.41067844  0.21107282  0.47850505  1
loop_
_geom_bond_atom_site_label_1
_geom_bond_atom_site_label_2
_geom_bond_distance
_geom_bond_site_symmetry_2
B0 O0 1.464357 1_455
B0 O20 1.469301 1_555
B0 O64 1.478791 1_555
B0 O44 1.508962 1_555
B1 O1 1.464357 1_455
B1 O21 1.469301 1_555
B1 O65 1.478791 1_555
B1 O45 1.508962 1_555
B2 O2 1.464357 1_655
B2 O22 1.469301 1_555
B2 O66 1.478791 1_555
B2 O46 1.508962 1_555
B3 O3 1.464357 1_655
B3 O23 1.469301 1_555
B3 O67 1.478791 1_555
B3 O47 1.508962 1_555
B4 O28 1.367858 1_555
B4 O8 1.372125 1_555
B4 O56 1.386788 1_555
B5 O29 1.367858 1_555
B5 O9 1.372125 1_555
B5 O57 1.386788 1_555
B6 O30 1.367858 1_555
B6 O10 1.372125 1_555
B6 O58 1.386788 1_555
B7 O31 1.367858 1_555
B7 O11 1.372125 1_555
B7 O59 1.386788 1_555
B8 O44 1.370269 1_655
B8 O32 1.370283 1_555
B8 O16 1.386286 1_555
B9 O45 1.370269 1_655
B9 O33 1.370283 1_555
B9 O17 1.386286 1_555
B10 O46 1.370269 1_455
B10 O34 1.370283 1_555
B10 O18 1.386286 1_555
B11 O47 1.370269 1_455
B11 O35 1.370283 1_555
B11 O19 1.386286 1_555
B12 O0 1.354802 1_445
B12 O12 1.377216 1_455
B12 O36 1.385131 1_555
B13 O1 1.354802 1_465
B13 O13 1.377216 1_455
B13 O37 1.385131 1_555
B14 O2 1.354802 1_665
B14 O14 1.377216 1_655
B14 O38 1.385131 1_555
B15 O3 1.354802 1_645
B15 O15 1.377216 1_655
B15 O39 1.385131 1_555
B16 O5 1.440715 1_555
B16 O28 1.460962 1_555
B16 O12 1.477178 1_555
B16 O24 1.512846 1_655
B17 O4 1.440715 1_555
B17 O29 1.460962 1_555
B17 O13 1.477178 1_555
B17 O25 1.512846 1_655
B18 O7 1.440715 1_555
B18 O30 1.460962 1_555
B18 O14 1.477178 1_555
B18 O26 1.512846 1_455
B19 O6 1.440715 1_555
B19 O31 1.460962 1_555
B19 O15 1.477178 1_555
B19 O27 1.512846 1_455
B20 O66 1.355959 1_555
B20 O48 1.370224 1_556
B20 O72 1.397304 1_555
B21 O67 1.355959 1_555
B21 O49 1.370224 1_555
B21 O73 1.397304 1_555
B22 O64 1.355959 1_555
B22 O50 1.370224 1_554
B22 O74 1.397304 1_555
B23 O65 1.355959 1_555
B23 O51 1.370224 1_555
B23 O75 1.397304 1_555
B24 O56 1.449912 1_555
B24 O41 1.457438 1_555
B24 O24 1.470048 1_555
B24 O36 1.492892 1_555
B25 O57 1.449912 1_555
B25 O40 1.457438 1_555
B25 O25 1.470048 1_555
B25 O37 1.492892 1_555
B26 O58 1.449912 1_555
B26 O43 1.457438 1_555
B26 O26 1.470048 1_555
B26 O38 1.492892 1_555
B27 O59 1.449912 1_555
B27 O42 1.457438 1_555
B27 O27 1.470048 1_555
B27 O39 1.492892 1_555
B28 O20 1.458282 1_555
B28 O60 1.459528 1_555
B28 O32 1.483666 1_555
B28 O74 1.502766 1_555
B29 O21 1.458282 1_555
B29 O61 1.459528 1_555
B29 O33 1.483666 1_555
B29 O75 1.502766 1_555
B30 O22 1.458282 1_555
B30 O62 1.459528 1_555
B30 O34 1.483666 1_555
B30 O72 1.502766 1_555
B31 O23 1.458282 1_555
B31 O63 1.459528 1_555
B31 O35 1.483666 1_555
B31 O73 1.502766 1_555
B32 O60 1.455184 1_555
B32 O16 1.477795 1_555
B32 O8 1.483218 1_555
B32 O68 1.498766 1_555
B33 O61 1.455184 1_555
B33 O17 1.477795 1_555
B33 O9 1.483218 1_555
B33 O69 1.498766 1_555
B34 O62 1.455184 1_555
B34 O18 1.477795 1_555
B34 O10 1.483218 1_555
B34 O70 1.498766 1_555
B35 O63 1.455184 1_555
B35 O19 1.477795 1_555
B35 O11 1.483218 1_555
B35 O71 1.498766 1_555
Cl0 Sm0 2.919753 1_555
Cl1 Sm1 2.919753 1_555
Cl2 Sm2 2.919753 1_555
Cl3 Sm3 2.919753 1_555
Cl4 Sm4 2.723409 1_555
Cl4 Sm5 2.723409 1_545
Cl5 Sm6 2.723409 1_545
Cl5 Sm7 2.723409 1_555
O0 Sm4 2.653830 1_565
O1 Sm5 2.653830 1_545
O2 Sm6 2.653830 1_545
O3 Sm7 2.653830 1_565
O4 Sm0 2.300435 1_655
O5 Sm1 2.300435 1_655
O6 Sm2 2.300435 1_455
O7 Sm3 2.300435 1_455
O8 Sm0 2.592024 1_555
O9 Sm1 2.592024 1_555
O10 Sm2 2.592024 1_555
O11 Sm3 2.592024 1_555
O12 Sm4 2.526260 1_555
O13 Sm5 2.526260 1_555
O14 Sm6 2.526260 1_555
O15 Sm7 2.526260 1_555
O16 Sm0 2.608297 1_655
O17 Sm1 2.608297 1_655
O18 Sm2 2.608297 1_455
O19 Sm3 2.608297 1_455
O20 Sm4 2.507437 1_565
O21 Sm5 2.507437 1_545
O22 Sm6 2.507437 1_545
O23 Sm7 2.507437 1_565
O24 Sm0 2.460590 1_555
O25 Sm1 2.460590 1_555
O26 Sm2 2.460590 1_555
O27 Sm3 2.460590 1_555
O28 Sm0 2.700327 1_655
O29 Sm1 2.700327 1_655
O30 Sm2 2.700327 1_455
O31 Sm3 2.700327 1_455
O32 Sm4 2.497792 1_565
O33 Sm5 2.497792 1_545
O34 Sm6 2.497792 1_545
O35 Sm7 2.497792 1_565
O36 Sm4 2.502591 1_555
O37 Sm5 2.502591 1_555
O38 Sm6 2.502591 1_555
O39 Sm7 2.502591 1_555
O40 Sm0 2.367034 1_555
O41 Sm1 2.367034 1_555
O42 Sm2 2.367034 1_555
O43 Sm3 2.367034 1_555
O44 Sm0 2.470679 1_555
O45 Sm1 2.470679 1_555
O46 Sm2 2.470679 1_555
O47 Sm3 2.470679 1_555
O48 Sm4 2.244664 1_555
O49 Sm5 2.244664 1_555
O50 Sm6 2.244664 1_555
O51 Sm7 2.244664 1_555
O52 Sm4 2.844758 1_555
O53 Sm5 2.844758 1_555
O54 Sm6 2.844758 1_555
O55 Sm7 2.844758 1_555
O56 Sm4 2.618484 1_555
O57 Sm5 2.618484 1_555
O58 Sm6 2.618484 1_555
O59 Sm7 2.618484 1_555
O60 Sm0 2.461351 1_555
O61 Sm1 2.461351 1_555
O62 Sm2 2.461351 1_555
O63 Sm3 2.461351 1_555
