# generated using pymatgen
data_LiYMg6
_symmetry_space_group_name_H-M   'P 1'
_cell_length_a   5.13395500
_cell_length_b   6.58284500
_cell_length_c   11.42755900
_cell_angle_alpha   90.00000000
_cell_angle_beta   90.00000000
_cell_angle_gamma   90.00000000
_symmetry_Int_Tables_number   1
_chemical_formula_structural   LiYMg6
_chemical_formula_sum   'Li2 Y2 Mg12'
_cell_volume   386.20612681
_cell_formula_units_Z   2
loop_
 _symmetry_equiv_pos_site_id
 _symmetry_equiv_pos_as_xyz
  1  'x, y, z'
loop_
 _atom_site_type_symbol
 _atom_site_label
 _atom_site_symmetry_multiplicity
 _atom_site_fract_x
 _atom_site_fract_y
 _atom_site_fract_z
 _atom_site_occupancy
  Li  Li0  1  0.50000000  0.50000000  0.16302300  1
  Li  Li1  1  0.50000000  0.00000000  0.66302300  1
  Y  Y0  1  0.50000000  0.00000000  0.16609000  1
  Y  Y1  1  0.50000000  0.50000000  0.66609000  1
  Mg  Mg0  1  0.50000000  0.24232200  0.41985200  1
  Mg  Mg1  1  0.50000000  0.75767800  0.41985200  1
  Mg  Mg2  1  0.00000000  0.74212500  0.08179300  1
  Mg  Mg3  1  0.00000000  0.25787500  0.08179300  1
  Mg  Mg4  1  0.00000000  0.00000000  0.33604700  1
  Mg  Mg5  1  0.00000000  0.50000000  0.33154600  1
  Mg  Mg6  1  0.50000000  0.74232200  0.91985200  1
  Mg  Mg7  1  0.50000000  0.25767800  0.91985200  1
  Mg  Mg8  1  0.00000000  0.24212500  0.58179300  1
  Mg  Mg9  1  0.00000000  0.75787500  0.58179300  1
  Mg  Mg10  1  0.00000000  0.50000000  0.83604700  1
  Mg  Mg11  1  0.00000000  0.00000000  0.83154600  1
loop_
_geom_bond_atom_site_label_1
_geom_bond_atom_site_label_2
_geom_bond_distance
_geom_bond_site_symmetry_2
Li0 Mg3 3.160928 1_655
Li0 Mg3 3.160928 1_555
Li0 Mg2 3.160928 1_655
Li0 Mg2 3.160928 1_555
Li0 Mg6 3.204150 1_554
Li0 Mg7 3.204150 1_554
Li0 Mg5 3.209066 1_655
Li0 Mg5 3.209066 1_555
Li0 Y0 3.291609 1_555
Li0 Y0 3.291609 1_565
Li0 Mg1 3.389850 1_555
Li0 Mg0 3.389850 1_555
Li1 Mg8 3.160928 1_555
Li1 Mg8 3.160928 1_655
Li1 Mg9 3.160928 1_645
Li1 Mg9 3.160928 1_545
Li1 Mg0 3.204150 1_555
Li1 Mg1 3.204150 1_545
Li1 Mg11 3.209066 1_555
Li1 Mg11 3.209066 1_655
Li1 Y1 3.291609 1_555
Li1 Y1 3.291609 1_545
Li1 Mg6 3.389850 1_545
Li1 Mg7 3.389850 1_555
Mg0 Mg8 3.164500 1_655
Mg0 Mg8 3.164500 1_555
Mg0 Mg4 3.170347 1_655
Mg0 Mg4 3.170347 1_555
Mg0 Mg1 3.190336 1_545
Mg0 Mg5 3.238052 1_555
Mg0 Mg5 3.238052 1_655
Mg0 Y1 3.285621 1_555
Mg0 Y0 3.309663 1_555
Mg0 Mg1 3.392509 1_555
Mg1 Mg9 3.164500 1_555
Mg1 Mg9 3.164500 1_655
Mg1 Mg4 3.170347 1_565
Mg1 Mg4 3.170347 1_665
Mg1 Mg5 3.238052 1_555
Mg1 Mg5 3.238052 1_655
Mg1 Y1 3.285621 1_555
Mg1 Y0 3.309663 1_565
Mg2 Mg6 3.164500 1_454
Mg2 Mg6 3.164500 1_554
Mg2 Mg3 3.187743 1_555
Mg2 Y0 3.224751 1_465
Mg2 Y0 3.224751 1_565
Mg2 Mg5 3.268964 1_555
Mg2 Mg4 3.365059 1_565
Mg2 Mg3 3.395102 1_565
Mg3 Mg7 3.164500 1_554
Mg3 Mg7 3.164500 1_454
Mg3 Y0 3.224751 1_455
Mg3 Y0 3.224751 1_555
Mg3 Mg5 3.268964 1_555
Mg3 Mg4 3.365059 1_555
Mg4 Y0 3.218927 1_555
Mg4 Y0 3.218927 1_455
Mg4 Mg8 3.229063 1_555
Mg4 Mg9 3.229063 1_545
Mg4 Mg5 3.291824 1_555
Mg4 Mg5 3.291824 1_545
Mg5 Mg8 3.325603 1_555
Mg5 Mg9 3.325603 1_555
Mg6 Mg7 3.190336 1_555
Mg6 Y0 3.285621 1_566
Mg6 Y1 3.309663 1_555
Mg6 Mg7 3.392509 1_565
Mg7 Y0 3.285621 1_556
Mg7 Y1 3.309663 1_555
Mg8 Mg9 3.187743 1_545
Mg8 Y1 3.224751 1_555
Mg8 Y1 3.224751 1_455
Mg8 Mg9 3.395102 1_555
Mg9 Y1 3.224751 1_555
Mg9 Y1 3.224751 1_455
Mg10 Mg6 3.170347 1_555
Mg10 Mg7 3.170347 1_455
Mg10 Mg7 3.170347 1_555
Mg10 Mg6 3.170347 1_455
Mg10 Y1 3.218927 1_455
Mg10 Y1 3.218927 1_555
Mg10 Mg3 3.229063 1_556
Mg10 Mg2 3.229063 1_556
Mg10 Mg11 3.291824 1_565
Mg10 Mg11 3.291824 1_555
Mg10 Mg8 3.365059 1_555
Mg10 Mg9 3.365059 1_555
Mg11 Mg6 3.238052 1_445
Mg11 Mg6 3.238052 1_545
Mg11 Mg7 3.238052 1_455
Mg11 Mg7 3.238052 1_555
Mg11 Mg9 3.268964 1_545
Mg11 Mg8 3.268964 1_555
Mg11 Mg3 3.325603 1_556
Mg11 Mg2 3.325603 1_546
