# generated using pymatgen
data_LaCeNi10
_symmetry_space_group_name_H-M   'P 1'
_cell_length_a   3.94576720
_cell_length_b   4.90008628
_cell_length_c   8.48591149
_cell_angle_alpha   90.00002570
_cell_angle_beta   90.00000000
_cell_angle_gamma   90.00000000
_symmetry_Int_Tables_number   1
_chemical_formula_structural   LaCeNi10
_chemical_formula_sum   'La1 Ce1 Ni10'
_cell_volume   164.07170193
_cell_formula_units_Z   1
loop_
 _symmetry_equiv_pos_site_id
 _symmetry_equiv_pos_as_xyz
  1  'x, y, z'
loop_
 _atom_site_type_symbol
 _atom_site_label
 _atom_site_symmetry_multiplicity
 _atom_site_fract_x
 _atom_site_fract_y
 _atom_site_fract_z
 _atom_site_occupancy
  La  La0  1  0.00000000  0.00000000  0.50000000  1
  Ce  Ce0  1  -0.00000000  0.50000000  0.00000000  1
  Ni  Ni0  1  -0.00000000  0.50000000  0.32576102  1
  Ni  Ni1  1  -0.00000000  0.00000000  0.83900689  1
  Ni  Ni2  1  -0.00000000  1.00000000  0.16099311  1
  Ni  Ni3  1  -0.00000000  0.50000000  0.67423898  1
  Ni  Ni4  1  0.50000000  0.50000000  0.50000000  1
  Ni  Ni5  1  0.50000000  0.00000000  0.00000000  1
  Ni  Ni6  1  0.50000000  0.74796043  0.24524861  1
  Ni  Ni7  1  0.50000000  0.25203957  0.75475139  1
  Ni  Ni8  1  0.50000000  0.25203957  0.24524861  1
  Ni  Ni9  1  0.50000000  0.74796043  0.75475139  1
loop_
_geom_bond_atom_site_label_1
_geom_bond_atom_site_label_2
_geom_bond_distance
_geom_bond_site_symmetry_2
La0 Ni3 2.861625 1_555
La0 Ni0 2.861625 1_545
La0 Ni0 2.861626 1_555
La0 Ni3 2.861626 1_545
La0 Ni2 2.876782 1_545
La0 Ni1 2.876782 1_555
La0 Ni4 3.145629 1_445
La0 Ni4 3.145629 1_455
La0 Ni4 3.145629 1_545
La0 Ni4 3.145629 1_555
La0 Ni7 3.176618 1_555
La0 Ni6 3.176618 1_445
La0 Ni7 3.176618 1_455
La0 Ni6 3.176618 1_545
La0 Ni8 3.176619 1_555
La0 Ni8 3.176619 1_455
La0 Ni9 3.176619 1_545
La0 Ni9 3.176619 1_445
Ce0 Ni3 2.764379 1_554
Ce0 Ni0 2.764379 1_555
Ce0 Ni2 2.805198 1_555
Ce0 Ni1 2.805198 1_554
Ce0 Ni1 2.805199 1_564
Ce0 Ni2 2.805199 1_545
Ce0 Ni7 3.114447 1_554
Ce0 Ni7 3.114447 1_454
Ce0 Ni6 3.114447 1_555
Ce0 Ni6 3.114447 1_455
Ce0 Ni9 3.114447 1_454
Ce0 Ni9 3.114447 1_554
Ce0 Ni8 3.114447 1_555
Ce0 Ni8 3.114447 1_455
Ce0 Ni5 3.145629 1_465
Ce0 Ni5 3.145629 1_555
Ce0 Ni5 3.145629 1_565
Ce0 Ni5 3.145629 1_455
Ni0 Ni8 2.415647 1_455
Ni0 Ni8 2.415647 1_555
Ni0 Ni6 2.415648 1_555
Ni0 Ni6 2.415648 1_455
Ni0 Ni4 2.465453 1_455
Ni0 Ni4 2.465453 1_555
Ni0 Ni2 2.820937 1_545
Ni0 Ni2 2.820939 1_555
Ni1 Ni5 2.399729 1_556
Ni1 Ni5 2.399729 1_456
Ni1 Ni9 2.434900 1_545
Ni1 Ni9 2.434900 1_445
Ni1 Ni7 2.434900 1_455
Ni1 Ni7 2.434900 1_555
Ni1 Ni2 2.732347 1_546
Ni1 Ni3 2.820937 1_545
Ni1 Ni3 2.820939 1_555
Ni2 Ni5 2.399729 1_565
Ni2 Ni5 2.399729 1_465
Ni2 Ni8 2.434900 1_565
Ni2 Ni8 2.434900 1_465
Ni2 Ni6 2.434900 1_455
Ni2 Ni6 2.434900 1_555
Ni3 Ni9 2.415647 1_455
Ni3 Ni9 2.415647 1_555
Ni3 Ni7 2.415648 1_455
Ni3 Ni7 2.415648 1_555
Ni3 Ni4 2.465453 1_455
Ni3 Ni4 2.465453 1_555
Ni4 Ni8 2.479851 1_555
Ni4 Ni9 2.479851 1_555
Ni4 Ni7 2.479852 1_555
Ni4 Ni6 2.479852 1_555
Ni5 Ni9 2.420017 1_544
Ni5 Ni8 2.420017 1_555
Ni5 Ni7 2.420017 1_554
Ni5 Ni6 2.420017 1_545
Ni6 Ni8 2.430055 1_555
Ni6 Ni8 2.470031 1_565
Ni7 Ni9 2.430055 1_555
Ni7 Ni9 2.470031 1_545
