# generated using pymatgen
data_K6Mo7H18O35
_symmetry_space_group_name_H-M   'P 1'
_cell_length_a   10.74587806
_cell_length_b   10.74587806
_cell_length_c   20.30156600
_cell_angle_alpha   90.00000000
_cell_angle_beta   90.00000000
_cell_angle_gamma   132.21762458
_symmetry_Int_Tables_number   1
_chemical_formula_structural   K6Mo7H18O35
_chemical_formula_sum   'K12 Mo14 H36 O70'
_cell_volume   1736.18441037
_cell_formula_units_Z   2
loop_
 _symmetry_equiv_pos_site_id
 _symmetry_equiv_pos_as_xyz
  1  'x, y, z'
loop_
 _atom_site_type_symbol
 _atom_site_label
 _atom_site_symmetry_multiplicity
 _atom_site_fract_x
 _atom_site_fract_y
 _atom_site_fract_z
 _atom_site_occupancy
  K  K0  1  0.57514300  0.57514300  0.00000000  1
  K  K1  1  0.57514300  0.57514300  0.50000000  1
  K  K2  1  0.90274800  0.47985000  0.04662700  1
  K  K3  1  0.47985000  0.90274800  0.95337300  1
  K  K4  1  0.90274800  0.47985000  0.45337300  1
  K  K5  1  0.47985000  0.90274800  0.54662700  1
  K  K6  1  0.09039900  0.24635900  0.40442900  1
  K  K7  1  0.24635900  0.09039900  0.59557100  1
  K  K8  1  0.09039900  0.24635900  0.09557100  1
  K  K9  1  0.24635900  0.09039900  0.90442900  1
  K  K10  1  0.77004700  0.03419400  0.25000000  1
  K  K11  1  0.03419400  0.77004700  0.75000000  1
  Mo  Mo0  1  0.38228300  0.09488500  0.25000000  1
  Mo  Mo1  1  0.09488500  0.38228300  0.75000000  1
  Mo  Mo2  1  0.33607300  0.04088000  0.08465200  1
  Mo  Mo3  1  0.04088000  0.33607300  0.91534800  1
  Mo  Mo4  1  0.33607300  0.04088000  0.41534800  1
  Mo  Mo5  1  0.04088000  0.33607300  0.58465200  1
  Mo  Mo6  1  0.33947100  0.78271500  0.16687900  1
  Mo  Mo7  1  0.78271500  0.33947100  0.83312100  1
  Mo  Mo8  1  0.33947100  0.78271500  0.33312100  1
  Mo  Mo9  1  0.78271500  0.33947100  0.66687900  1
  Mo  Mo10  1  0.99280500  0.86017000  0.16764600  1
  Mo  Mo11  1  0.86017000  0.99280500  0.83235400  1
  Mo  Mo12  1  0.99280500  0.86017000  0.33235400  1
  Mo  Mo13  1  0.86017000  0.99280500  0.66764600  1
  H  H0  1  0.86022600  0.50981200  0.25000000  1
  H  H1  1  0.50981200  0.86022600  0.75000000  1
  H  H2  1  0.16179600  0.21397800  0.25000000  1
  H  H3  1  0.21397800  0.16179600  0.75000000  1
  H  H4  1  0.69044500  0.15672600  0.36881400  1
  H  H5  1  0.15672600  0.69044500  0.63118600  1
  H  H6  1  0.69044500  0.15672600  0.13118600  1
  H  H7  1  0.15672600  0.69044500  0.86881400  1
  H  H8  1  0.59943500  0.46291400  0.85189600  1
  H  H9  1  0.46291400  0.59943500  0.14810400  1
  H  H10  1  0.59943500  0.46291400  0.64810400  1
  H  H11  1  0.46291400  0.59943500  0.35189600  1
  H  H12  1  0.00943100  0.51710200  0.25000000  1
  H  H13  1  0.51710200  0.00943100  0.75000000  1
  H  H14  1  0.46923400  0.48564000  0.84735300  1
  H  H15  1  0.48564000  0.46923400  0.15264700  1
  H  H16  1  0.46923400  0.48564000  0.65264700  1
  H  H17  1  0.48564000  0.46923400  0.34735300  1
  H  H18  1  0.22749000  0.39626600  0.25000000  1
  H  H19  1  0.39626600  0.22749000  0.75000000  1
  H  H20  1  0.82761600  0.31042800  0.32247200  1
  H  H21  1  0.31042800  0.82761600  0.67752800  1
  H  H22  1  0.82761600  0.31042800  0.17752800  1
  H  H23  1  0.31042800  0.82761600  0.82247200  1
  H  H24  1  0.85271400  0.63186000  0.90522600  1
  H  H25  1  0.63186000  0.85271400  0.09477400  1
  H  H26  1  0.85271400  0.63186000  0.59477400  1
  H  H27  1  0.63186000  0.85271400  0.40522600  1
  H  H28  1  0.00195500  0.72456400  0.95487000  1
  H  H29  1  0.72456400  0.00195500  0.04513000  1
  H  H30  1  0.00195500  0.72456400  0.54513000  1
  H  H31  1  0.72456400  0.00195500  0.45487000  1
  H  H32  1  0.85955200  0.93563300  0.00913100  1
  H  H33  1  0.93563300  0.85955200  0.99086900  1
  H  H34  1  0.85955200  0.93563300  0.49086900  1
  H  H35  1  0.93563300  0.85955200  0.50913100  1
  O  O0  1  0.22173200  0.89373300  0.02112300  1
  O  O1  1  0.89373300  0.22173200  0.97887700  1
  O  O2  1  0.22173200  0.89373300  0.47887700  1
  O  O3  1  0.89373300  0.22173200  0.52112300  1
  O  O4  1  0.81269700  0.24088700  0.35963600  1
  O  O5  1  0.24088700  0.81269700  0.64036400  1
  O  O6  1  0.81269700  0.24088700  0.14036400  1
  O  O7  1  0.24088700  0.81269700  0.85963600  1
  O  O8  1  0.43198200  0.24964500  0.03532500  1
  O  O9  1  0.24964500  0.43198200  0.96467500  1
  O  O10  1  0.43198200  0.24964500  0.46467500  1
  O  O11  1  0.24964500  0.43198200  0.53532500  1
  O  O12  1  0.22184100  0.88768300  0.16731700  1
  O  O13  1  0.88768300  0.22184100  0.83268300  1
  O  O14  1  0.22184100  0.88768300  0.33268300  1
  O  O15  1  0.88768300  0.22184100  0.66731700  1
  O  O16  1  0.96723300  0.96723300  0.00000000  1
  O  O17  1  0.96723300  0.96723300  0.50000000  1
  O  O18  1  0.92572100  0.73206700  0.25000000  1
  O  O19  1  0.73206700  0.92572100  0.75000000  1
  O  O20  1  0.49728900  0.43041900  0.87267600  1
  O  O21  1  0.43041900  0.49728900  0.12732400  1
  O  O22  1  0.49728900  0.43041900  0.62732400  1
  O  O23  1  0.43041900  0.49728900  0.37267600  1
  O  O24  1  0.88350800  0.43528500  0.25000000  1
  O  O25  1  0.43528500  0.88350800  0.75000000  1
  O  O26  1  0.50195100  0.77723300  0.32879200  1
  O  O27  1  0.77723300  0.50195100  0.67120800  1
  O  O28  1  0.50195100  0.77723300  0.17120800  1
  O  O29  1  0.77723300  0.50195100  0.82879200  1
  O  O30  1  0.47092000  0.97777900  0.10755700  1
  O  O31  1  0.97777900  0.47092000  0.89244300  1
  O  O32  1  0.47092000  0.97777900  0.39244300  1
  O  O33  1  0.97777900  0.47092000  0.60755700  1
  O  O34  1  0.12530100  0.27757200  0.25000000  1
  O  O35  1  0.27757200  0.12530100  0.75000000  1
  O  O36  1  0.88173400  0.69165300  0.11230200  1
  O  O37  1  0.69165300  0.88173400  0.88769800  1
  O  O38  1  0.88173400  0.69165300  0.38769800  1
  O  O39  1  0.69165300  0.88173400  0.61230200  1
  O  O40  1  0.54841100  0.22225500  0.03784900  1
  O  O41  1  0.22225500  0.54841100  0.96215100  1
  O  O42  1  0.54841100  0.22225500  0.46215100  1
  O  O43  1  0.22225500  0.54841100  0.53784900  1
  O  O44  1  0.46220000  0.97992700  0.25000000  1
  O  O45  1  0.97992700  0.46220000  0.75000000  1
  O  O46  1  0.17020900  0.05300600  0.11248200  1
  O  O47  1  0.05300600  0.17020900  0.88751800  1
  O  O48  1  0.17020900  0.05300600  0.38751800  1
  O  O49  1  0.05300600  0.17020900  0.61248200  1
  O  O50  1  0.21984200  0.66503200  0.25000000  1
  O  O51  1  0.66503200  0.21984200  0.75000000  1
  O  O52  1  0.19052400  0.61701700  0.11464100  1
  O  O53  1  0.61701700  0.19052400  0.88535900  1
  O  O54  1  0.19052400  0.61701700  0.38535900  1
  O  O55  1  0.61701700  0.19052400  0.61464100  1
  O  O56  1  0.17693800  0.04924200  0.25000000  1
  O  O57  1  0.04924200  0.17693800  0.75000000  1
  O  O58  1  0.88387000  0.66903600  0.95164700  1
  O  O59  1  0.66903600  0.88387000  0.04835300  1
  O  O60  1  0.88387000  0.66903600  0.54835300  1
  O  O61  1  0.66903600  0.88387000  0.45164700  1
  O  O62  1  0.48380500  0.22559800  0.17933500  1
  O  O63  1  0.22559800  0.48380500  0.82066500  1
  O  O64  1  0.48380500  0.22559800  0.32066500  1
  O  O65  1  0.22559800  0.48380500  0.67933500  1
  O  O66  1  0.87854500  0.92255400  0.17219800  1
  O  O67  1  0.92255400  0.87854500  0.82780200  1
  O  O68  1  0.87854500  0.92255400  0.32780200  1
  O  O69  1  0.92255400  0.87854500  0.67219800  1
loop_
_geom_bond_atom_site_label_1
_geom_bond_atom_site_label_2
_geom_bond_distance
_geom_bond_site_symmetry_2
K0 O8 2.807826 1_555
K0 O9 2.807826 1_554
K0 O20 2.837531 1_554
K0 O21 2.837531 1_555
K0 O59 2.913644 1_555
K0 O58 2.913644 1_554
K1 O11 2.807826 1_555
K1 O10 2.807826 1_555
K1 O22 2.837531 1_555
K1 O23 2.837531 1_555
K1 O60 2.913644 1_555
K1 O61 2.913644 1_555
K2 O52 2.741623 1_655
K2 O36 2.774818 1_555
K2 O6 2.795063 1_555
K2 O40 2.833330 1_555
K2 O58 2.906282 1_554
K2 O1 3.038672 1_554
K2 O31 3.249811 1_554
K3 O53 2.741623 1_565
K3 O37 2.774818 1_555
K3 O7 2.795063 1_555
K3 O41 2.833330 1_555
K3 O59 2.906282 1_556
K3 O0 3.038672 1_556
K3 O30 3.249811 1_556
K4 O54 2.741623 1_655
K4 O38 2.774818 1_555
K4 O4 2.795063 1_555
K4 O42 2.833330 1_555
K4 O60 2.906282 1_555
K4 O3 3.038672 1_555
K4 O33 3.249811 1_555
K5 O55 2.741623 1_565
K5 O39 2.774818 1_555
K5 O5 2.795063 1_555
K5 O43 2.833330 1_555
K5 O61 2.906282 1_555
K5 O2 3.038672 1_555
K5 O32 3.249811 1_555
K6 O48 2.750485 1_555
K6 O23 2.792176 1_555
K6 O68 3.010741 1_445
K6 O17 3.029505 1_445
K6 O11 3.062941 1_555
K6 O3 3.065480 1_455
K6 O4 3.082167 1_455
K6 O34 3.148536 1_555
K6 O54 3.378301 1_555
K7 O49 2.750485 1_555
K7 O22 2.792176 1_555
K7 O69 3.010741 1_445
K7 O17 3.029505 1_445
K7 O10 3.062941 1_555
K7 O2 3.065480 1_545
K7 O5 3.082167 1_545
K7 O35 3.148536 1_555
K7 O55 3.378301 1_555
K8 O46 2.750485 1_555
K8 O21 2.792176 1_555
K8 O66 3.010741 1_445
K8 O16 3.029505 1_445
K8 O9 3.062941 1_554
K8 O1 3.065480 1_454
K8 O6 3.082167 1_455
K8 O34 3.148536 1_555
K8 O52 3.378301 1_555
K9 O47 2.750485 1_555
K9 O20 2.792176 1_555
K9 O67 3.010741 1_445
K9 O16 3.029505 1_446
K9 O8 3.062941 1_556
K9 O0 3.065480 1_546
K9 O7 3.082167 1_545
K9 O35 3.148536 1_555
K9 O53 3.378301 1_555
K10 O68 2.678262 1_545
K10 O66 2.678262 1_545
K10 O26 2.791479 1_545
K10 O28 2.791479 1_545
K10 O34 2.827689 1_655
K10 O44 2.948048 1_545
K10 O6 2.954557 1_555
K10 O4 2.954557 1_555
K11 O67 2.678262 1_455
K11 O69 2.678262 1_455
K11 O29 2.791479 1_455
K11 O27 2.791479 1_455
K11 O35 2.827689 1_565
K11 O45 2.948048 1_455
K11 O7 2.954557 1_555
K11 O5 2.954557 1_555
Mo0 O64 1.778172 1_555
Mo0 O62 1.778172 1_555
Mo0 O56 1.911863 1_555
Mo0 O44 1.920736 1_545
Mo0 O12 2.364067 1_545
Mo0 O14 2.364067 1_545
Mo1 O63 1.778172 1_555
Mo1 O65 1.778172 1_555
Mo1 O57 1.911863 1_555
Mo1 O45 1.920736 1_455
Mo1 O13 2.364067 1_455
Mo1 O15 2.364067 1_455
Mo2 O0 1.749973 1_545
Mo2 O46 1.955787 1_555
Mo2 O40 1.982769 1_555
Mo2 O8 1.997628 1_555
Mo2 O30 2.023914 1_545
Mo2 O12 2.077889 1_545
Mo2 O62 2.433175 1_555
Mo3 O1 1.749973 1_455
Mo3 O47 1.955787 1_555
Mo3 O41 1.982769 1_555
Mo3 O9 1.997628 1_555
Mo3 O31 2.023914 1_455
Mo3 O13 2.077889 1_455
Mo3 O63 2.433175 1_555
Mo4 O2 1.749973 1_545
Mo4 O48 1.955787 1_555
Mo4 O42 1.982769 1_555
Mo4 O10 1.997628 1_555
Mo4 O32 2.023914 1_545
Mo4 O14 2.077889 1_545
Mo4 O64 2.433175 1_555
Mo5 O3 1.749973 1_455
Mo5 O49 1.955787 1_555
Mo5 O43 1.982769 1_555
Mo5 O11 1.997628 1_555
Mo5 O33 2.023914 1_455
Mo5 O15 2.077889 1_455
Mo5 O65 2.433175 1_555
Mo6 O52 1.739808 1_555
Mo6 O28 1.788268 1_555
Mo6 O30 1.964777 1_555
Mo6 O50 1.978550 1_555
Mo6 O12 2.187767 1_555
Mo6 O44 2.306938 1_555
Mo7 O53 1.739808 1_555
Mo7 O29 1.788268 1_555
Mo7 O31 1.964777 1_555
Mo7 O51 1.978550 1_555
Mo7 O13 2.187767 1_555
Mo7 O45 2.306938 1_555
Mo8 O54 1.739808 1_555
Mo8 O26 1.788268 1_555
Mo8 O32 1.964777 1_555
Mo8 O50 1.978550 1_555
Mo8 O14 2.187767 1_555
Mo8 O44 2.306938 1_555
Mo9 O55 1.739808 1_555
Mo9 O27 1.788268 1_555
Mo9 O33 1.964777 1_555
Mo9 O51 1.978550 1_555
Mo9 O15 2.187767 1_555
Mo9 O45 2.306938 1_555
Mo10 O36 1.749730 1_555
Mo10 O66 1.752612 1_555
Mo10 O46 1.968133 1_665
Mo10 O18 1.968839 1_555
Mo10 O12 2.273111 1_655
Mo10 O56 2.331470 1_665
Mo11 O37 1.749730 1_555
Mo11 O67 1.752612 1_555
Mo11 O47 1.968133 1_665
Mo11 O19 1.968839 1_555
Mo11 O13 2.273111 1_565
Mo11 O57 2.331470 1_665
Mo12 O38 1.749730 1_555
Mo12 O68 1.752612 1_555
Mo12 O48 1.968133 1_665
Mo12 O18 1.968839 1_555
Mo12 O14 2.273111 1_655
Mo12 O56 2.331470 1_665
Mo13 O39 1.749730 1_555
Mo13 O69 1.752612 1_555
Mo13 O49 1.968133 1_665
Mo13 O19 1.968839 1_555
Mo13 O15 2.273111 1_565
Mo13 O57 2.331470 1_665
H0 O24 0.986526 1_555
H1 O25 0.986526 1_555
H2 O34 0.990434 1_555
H3 O35 0.990434 1_555
H4 O4 0.990845 1_555
H5 O5 0.990845 1_555
H6 O6 0.990845 1_555
H7 O7 0.990845 1_555
H8 O20 0.994806 1_555
H9 O21 0.994806 1_555
H10 O22 0.994806 1_555
H11 O23 0.994806 1_555
H12 O24 1.002593 1_455
H12 O50 1.676006 1_555
H13 O25 1.002593 1_545
H13 O51 1.676006 1_555
H14 O20 0.973509 1_555
H15 O21 0.973509 1_555
H16 O22 0.973509 1_555
H17 O23 0.973509 1_555
H18 O34 0.974885 1_555
H19 O35 0.974885 1_555
H20 O4 0.996181 1_555
H20 K10 2.981751 1_555
H21 O5 0.996181 1_555
H21 K11 2.981751 1_555
H22 O6 0.996181 1_555
H22 K10 2.981751 1_555
H23 O7 0.996181 1_555
H23 K11 2.981751 1_555
H24 O58 0.989995 1_555
H25 O59 0.989995 1_555
H26 O60 0.989995 1_555
H27 O61 0.989995 1_555
H28 O58 0.976193 1_455
H28 K2 2.784642 1_456
H28 K9 3.086329 1_565
H29 O59 0.976193 1_545
H29 K3 2.784642 1_544
H29 K8 3.086329 1_655
H30 O60 0.976193 1_455
H30 K4 2.784642 1_455
H30 K7 3.086329 1_565
H31 O61 0.976193 1_545
H31 K5 2.784642 1_545
H31 K6 3.086329 1_655
H32 O16 0.980083 1_555
H32 K8 3.041519 1_665
H33 O16 0.980083 1_556
H33 K9 3.041519 1_665
H34 O17 0.980083 1_555
H34 K6 3.041519 1_665
H35 O17 0.980083 1_555
H35 K7 3.041519 1_665
O10 O42 1.466107 1_555
O11 O43 1.466107 1_555
O40 O8 1.466107 1_555
O41 O9 1.466107 1_555
