# generated using pymatgen
data_Mg6AlFe
_symmetry_space_group_name_H-M   'P 1'
_cell_length_a   4.91375200
_cell_length_b   6.01982100
_cell_length_c   10.66261700
_cell_angle_alpha   90.00000000
_cell_angle_beta   90.00000000
_cell_angle_gamma   90.00000000
_symmetry_Int_Tables_number   1
_chemical_formula_structural   Mg6AlFe
_chemical_formula_sum   'Mg12 Al2 Fe2'
_cell_volume   315.39922434
_cell_formula_units_Z   2
loop_
 _symmetry_equiv_pos_site_id
 _symmetry_equiv_pos_as_xyz
  1  'x, y, z'
loop_
 _atom_site_type_symbol
 _atom_site_label
 _atom_site_symmetry_multiplicity
 _atom_site_fract_x
 _atom_site_fract_y
 _atom_site_fract_z
 _atom_site_occupancy
  Mg  Mg0  1  0.50000000  0.25079100  0.41817500  1
  Mg  Mg1  1  0.50000000  0.74920900  0.41817500  1
  Mg  Mg2  1  0.00000000  0.74285200  0.08601200  1
  Mg  Mg3  1  0.00000000  0.25714800  0.08601200  1
  Mg  Mg4  1  0.00000000  0.00000000  0.32961000  1
  Mg  Mg5  1  0.00000000  0.50000000  0.32417500  1
  Mg  Mg6  1  0.50000000  0.75079100  0.91817500  1
  Mg  Mg7  1  0.50000000  0.24920900  0.91817500  1
  Mg  Mg8  1  0.00000000  0.24285200  0.58601200  1
  Mg  Mg9  1  0.00000000  0.75714800  0.58601200  1
  Mg  Mg10  1  0.00000000  0.50000000  0.82961000  1
  Mg  Mg11  1  0.00000000  0.00000000  0.82417500  1
  Al  Al0  1  0.50000000  0.00000000  0.16885900  1
  Al  Al1  1  0.50000000  0.50000000  0.66885900  1
  Fe  Fe0  1  0.50000000  0.50000000  0.16897900  1
  Fe  Fe1  1  0.50000000  0.00000000  0.66897900  1
loop_
_geom_bond_atom_site_label_1
_geom_bond_atom_site_label_2
_geom_bond_distance
_geom_bond_site_symmetry_2
Mg0 Mg1 3.000387 1_555
Mg0 Mg1 3.019434 1_545
Mg0 Mg4 3.034346 1_655
Mg0 Mg4 3.034346 1_555
Mg0 Mg8 3.039922 1_655
Mg0 Mg8 3.039922 1_555
Mg0 Mg5 3.048179 1_655
Mg0 Mg5 3.048179 1_555
Mg1 Mg4 3.034346 1_565
Mg1 Mg4 3.034346 1_665
Mg1 Mg9 3.039922 1_555
Mg1 Mg9 3.039922 1_655
Mg1 Mg5 3.048179 1_655
Mg1 Mg5 3.048179 1_555
Mg2 Mg3 2.923851 1_555
Mg2 Mg5 2.930185 1_555
Mg2 Mg4 3.023690 1_565
Mg2 Mg6 3.039922 1_554
Mg2 Mg6 3.039922 1_454
Mg2 Mg3 3.095970 1_565
Mg3 Mg5 2.930185 1_555
Mg3 Mg4 3.023690 1_555
Mg3 Mg7 3.039922 1_554
Mg3 Mg7 3.039922 1_454
Mg4 Mg5 3.010468 1_545
Mg4 Mg5 3.010468 1_555
Mg4 Mg8 3.100246 1_555
Mg4 Mg9 3.100246 1_545
Mg5 Mg8 3.192300 1_555
Mg5 Mg9 3.192300 1_555
Mg6 Mg7 3.000387 1_565
Mg6 Mg7 3.019434 1_555
Mg8 Mg9 2.923851 1_545
Mg8 Mg9 3.095970 1_555
Mg10 Mg11 3.010468 1_565
Mg10 Mg11 3.010468 1_555
Mg10 Mg8 3.023690 1_555
Mg10 Mg9 3.023690 1_555
Mg10 Mg6 3.034346 1_455
Mg10 Mg7 3.034346 1_455
Mg10 Mg6 3.034346 1_555
Mg10 Mg7 3.034346 1_555
Mg10 Mg3 3.100246 1_556
Mg10 Mg2 3.100246 1_556
Mg11 Mg8 2.930185 1_555
Mg11 Mg9 2.930185 1_545
Mg11 Mg6 3.048179 1_445
Mg11 Mg7 3.048179 1_555
Mg11 Mg7 3.048179 1_455
Mg11 Mg6 3.048179 1_545
Mg11 Mg3 3.192300 1_556
Mg11 Mg2 3.192300 1_546
Al0 Mg4 2.995685 1_655
Al0 Mg4 2.995685 1_555
Al0 Fe0 3.009911 1_555
Al0 Fe0 3.009911 1_545
Al0 Mg3 3.035265 1_655
Al0 Mg2 3.035265 1_645
Al0 Mg2 3.035265 1_545
Al0 Mg3 3.035265 1_555
Al0 Mg0 3.057144 1_555
Al0 Mg1 3.057144 1_545
Al0 Mg7 3.065164 1_554
Al0 Mg6 3.065164 1_544
Al1 Mg10 2.995685 1_655
Al1 Mg10 2.995685 1_555
Al1 Fe1 3.009911 1_555
Al1 Fe1 3.009911 1_565
Al1 Mg9 3.035265 1_555
Al1 Mg8 3.035265 1_655
Al1 Mg9 3.035265 1_655
Al1 Mg8 3.035265 1_555
Al1 Mg6 3.057144 1_555
Al1 Mg7 3.057144 1_555
Al1 Mg0 3.065164 1_555
Al1 Mg1 3.065164 1_555
Fe0 Mg5 2.962193 1_555
Fe0 Mg5 2.962193 1_655
Fe0 Mg2 2.992668 1_555
Fe0 Mg2 2.992668 1_655
Fe0 Mg3 2.992668 1_555
Fe0 Mg3 2.992668 1_655
Fe0 Mg0 3.051338 1_555
Fe0 Mg1 3.051338 1_555
Fe0 Mg6 3.070950 1_554
Fe0 Mg7 3.070950 1_554
Fe1 Mg11 2.962193 1_655
Fe1 Mg11 2.962193 1_555
Fe1 Mg9 2.992668 1_645
Fe1 Mg8 2.992668 1_655
Fe1 Mg9 2.992668 1_545
Fe1 Mg8 2.992668 1_555
Fe1 Mg6 3.051338 1_545
Fe1 Mg7 3.051338 1_555
Fe1 Mg1 3.070950 1_545
Fe1 Mg0 3.070950 1_555
