# generated using pymatgen
data_YbAlNi
_symmetry_space_group_name_H-M   'P 1'
_cell_length_a   5.40168784
_cell_length_b   5.28415139
_cell_length_c   8.52882300
_cell_angle_alpha   90.00000000
_cell_angle_beta   90.00000000
_cell_angle_gamma   120.64588179
_symmetry_Int_Tables_number   1
_chemical_formula_structural   YbAlNi
_chemical_formula_sum   'Yb4 Al4 Ni4'
_cell_volume   209.44065187
_cell_formula_units_Z   4
loop_
 _symmetry_equiv_pos_site_id
 _symmetry_equiv_pos_as_xyz
  1  'x, y, z'
loop_
 _atom_site_type_symbol
 _atom_site_label
 _atom_site_symmetry_multiplicity
 _atom_site_fract_x
 _atom_site_fract_y
 _atom_site_fract_z
 _atom_site_occupancy
  Yb  Yb0  1  0.66031300  0.32035500  0.54170600  1
  Yb  Yb1  1  0.32707000  0.65406000  0.42829000  1
  Yb  Yb2  1  0.32707000  0.65406000  0.07171000  1
  Yb  Yb3  1  0.66031300  0.32035500  0.95829400  1
  Al  Al0  1  0.16352500  0.32717400  0.75000000  1
  Al  Al1  1  0.16030400  0.83246100  0.75000000  1
  Al  Al2  1  0.67225200  0.83252600  0.75000000  1
  Al  Al3  1  0.85613800  0.71236100  0.25000000  1
  Ni  Ni0  1  0.83418000  0.17780800  0.25000000  1
  Ni  Ni1  1  0.34275900  0.17690400  0.25000000  1
  Ni  Ni2  1  0.99803700  0.99596800  0.50692900  1
  Ni  Ni3  1  0.99803700  0.99596800  0.99307100  1
loop_
_geom_bond_atom_site_label_1
_geom_bond_atom_site_label_2
_geom_bond_distance
_geom_bond_site_symmetry_2
Yb0 Yb1 3.179773 1_545
Yb0 Yb1 3.243651 1_555
Yb0 Yb1 3.246875 1_655
Yb1 Yb2 3.041208 1_555
Yb2 Yb3 3.179773 1_564
Yb2 Yb3 3.243651 1_554
Yb2 Yb3 3.246875 1_454
Al0 Ni2 2.562214 1_445
Al0 Ni3 2.562214 1_445
Al0 Al1 2.605313 1_545
Al0 Al2 2.608226 1_445
Al0 Al1 2.678924 1_555
Al0 Al2 2.683527 1_555
Al0 Yb2 3.120399 1_556
Al0 Yb1 3.120399 1_555
Al0 Yb3 3.232026 1_455
Al0 Yb0 3.232026 1_455
Al0 Yb0 3.233724 1_555
Al0 Yb3 3.233724 1_555
Al1 Ni3 2.566047 1_455
Al1 Ni2 2.566047 1_455
Al1 Al2 2.636480 1_455
Al1 Al2 2.765208 1_555
Al1 Yb3 3.162074 1_565
Al1 Yb0 3.162074 1_565
Al1 Yb2 3.177162 1_556
Al1 Yb1 3.177162 1_555
Al1 Yb3 3.212823 1_455
Al1 Yb0 3.212823 1_455
Al2 Ni2 2.567316 1_555
Al2 Ni3 2.567316 1_555
Al2 Yb0 3.158236 1_565
Al2 Yb3 3.158236 1_565
Al2 Yb2 3.178338 1_556
Al2 Yb1 3.178338 1_555
Al2 Yb3 3.210409 1_555
Al2 Yb0 3.210409 1_555
Al3 Ni1 2.521321 1_665
Al3 Ni0 2.522017 1_565
Al3 Ni3 2.542469 1_554
Al3 Ni2 2.542469 1_555
Al3 Ni0 2.766083 1_555
Al3 Ni1 2.774314 1_555
Al3 Yb3 3.060330 1_554
Al3 Yb0 3.060330 1_555
Al3 Yb1 3.110780 1_555
Al3 Yb2 3.110780 1_555
Al3 Yb2 3.110809 1_655
Al3 Yb1 3.110809 1_655
Ni0 Ni1 2.652071 1_555
Ni0 Ni2 2.715788 1_545
Ni0 Ni3 2.715788 1_544
Ni0 Ni1 2.749623 1_655
Ni0 Yb0 2.891419 1_555
Ni0 Yb3 2.891419 1_554
Ni0 Yb2 2.983852 1_655
Ni0 Yb1 2.983852 1_655
Ni0 Yb2 3.121947 1_545
Ni0 Yb1 3.121947 1_545
Ni1 Ni3 2.714460 1_444
Ni1 Ni2 2.714460 1_445
Ni1 Yb3 2.895009 1_554
Ni1 Yb0 2.895009 1_555
Ni1 Yb1 2.982371 1_555
Ni1 Yb2 2.982371 1_555
Ni1 Yb2 3.116683 1_545
Ni1 Yb1 3.116683 1_545
Ni2 Yb1 3.066036 1_665
Ni2 Yb0 3.085720 1_555
Ni2 Yb0 3.089015 1_565
Ni2 Yb0 3.093960 1_665
Ni2 Yb1 3.185354 1_655
Ni2 Yb1 3.189732 1_555
Ni3 Yb2 3.066036 1_666
Ni3 Yb3 3.085720 1_555
Ni3 Yb3 3.089015 1_565
Ni3 Yb3 3.093960 1_665
Ni3 Yb2 3.185354 1_656
Ni3 Yb2 3.189732 1_556
