# generated using pymatgen
data_Li3Mn(CoO3)2
_symmetry_space_group_name_H-M   'P 1'
_cell_length_a   2.97914595
_cell_length_b   9.84431766
_cell_length_c   7.67318120
_cell_angle_alpha   88.06056534
_cell_angle_beta   99.92457623
_cell_angle_gamma   82.02354337
_symmetry_Int_Tables_number   1
_chemical_formula_structural   Li3Mn(CoO3)2
_chemical_formula_sum   'Li6 Mn2 Co4 O12'
_cell_volume   219.13912974
_cell_formula_units_Z   2
loop_
 _symmetry_equiv_pos_site_id
 _symmetry_equiv_pos_as_xyz
  1  'x, y, z'
loop_
 _atom_site_type_symbol
 _atom_site_label
 _atom_site_symmetry_multiplicity
 _atom_site_fract_x
 _atom_site_fract_y
 _atom_site_fract_z
 _atom_site_occupancy
  Li  Li0  1  0.58477800  0.75304300  0.91733800  1
  Li  Li1  1  0.08139400  0.24683600  0.41594700  1
  Li  Li2  1  0.74225400  0.25248300  0.74570800  1
  Li  Li3  1  0.25031700  0.74874000  0.25947700  1
  Li  Li4  1  0.41620100  0.25125600  0.07375300  1
  Li  Li5  1  0.92433500  0.74761500  0.58754800  1
  Mn  Mn0  1  0.33265100  0.00002300  0.66696300  1
  Mn  Mn1  1  0.83422700  0.50003500  0.16642300  1
  Co  Co0  1  0.48037600  0.49960300  0.51251800  1
  Co  Co1  1  0.18661400  0.50038400  0.82054700  1
  Co  Co2  1  0.01150200  0.00049700  0.00315100  1
  Co  Co3  1  0.65475300  0.99955500  0.33050100  1
  O  O0  1  0.86756000  0.60859400  0.37073100  1
  O  O1  1  0.38833900  0.11434700  0.86759900  1
  O  O2  1  0.79986300  0.39136700  0.96233200  1
  O  O3  1  0.27784800  0.88575600  0.46599600  1
  O  O4  1  0.56032200  0.62313300  0.71333900  1
  O  O5  1  0.03866000  0.11690800  0.20005900  1
  O  O6  1  0.10634000  0.37689900  0.61990900  1
  O  O7  1  0.62750200  0.88311300  0.13326800  1
  O  O8  1  0.23470400  0.60868300  0.05944600  1
  O  O9  1  0.68114500  0.11342000  0.53121100  1
  O  O10  1  0.43339200  0.39120500  0.27385500  1
  O  O11  1  0.98492400  0.88650400  0.80237900  1
loop_
_geom_bond_atom_site_label_1
_geom_bond_atom_site_label_2
_geom_bond_distance
_geom_bond_site_symmetry_2
Li0 O4 2.052585 1_555
Li0 O11 2.103421 1_455
Li0 O7 2.125349 1_556
Li0 O11 2.155005 1_555
Li0 O8 2.234895 1_556
Li0 O8 2.315439 1_656
Li1 O6 2.053336 1_555
Li1 O9 2.103582 1_555
Li1 O5 2.124204 1_555
Li1 O9 2.156058 1_455
Li1 O10 2.238555 1_555
Li1 O10 2.311608 1_455
Li2 O6 2.063481 1_655
Li2 O1 2.118353 1_555
Li2 O6 2.160227 1_555
Li2 O9 2.175901 1_555
Li2 O2 2.186834 1_555
Li2 O1 2.235108 1_655
Li3 O8 2.096527 1_555
Li3 O3 2.113713 1_555
Li3 O0 2.150550 1_455
Li3 O7 2.156683 1_555
Li3 O0 2.165328 1_555
Li3 O7 2.177870 1_455
Li4 O10 2.096152 1_555
Li4 O1 2.110866 1_554
Li4 O2 2.152761 1_554
Li4 O5 2.157629 1_555
Li4 O2 2.163577 1_454
Li4 O5 2.177227 1_655
Li5 O4 2.063721 1_555
Li5 O3 2.116279 1_655
Li5 O4 2.160646 1_655
Li5 O11 2.176656 1_555
Li5 O0 2.188780 1_555
Li5 O3 2.235328 1_555
Mn0 O1 1.935280 1_555
Mn0 O3 1.936891 1_545
Mn0 O11 2.003846 1_445
Mn0 O9 2.006194 1_555
Mn0 O9 2.172893 1_455
Mn0 O11 2.174240 1_545
Mn1 O2 1.922456 1_554
Mn1 O0 1.923228 1_555
Mn1 O8 1.968126 1_655
Mn1 O10 1.971787 1_555
Mn1 O8 1.978089 1_555
Mn1 O10 1.978847 1_655
Co0 O4 1.997684 1_555
Co0 O6 2.000631 1_555
Co0 O0 2.088206 1_455
Co0 O0 2.088639 1_555
Co0 O6 2.096071 1_655
Co0 O10 2.144142 1_555
Co1 O6 1.996382 1_555
Co1 O4 1.999547 1_555
Co1 O2 2.087857 1_455
Co1 O2 2.089216 1_555
Co1 O4 2.096683 1_455
Co1 O8 2.145137 1_556
Co2 O5 1.924442 1_555
Co2 O11 1.933525 1_444
Co2 O1 2.066671 1_554
Co2 O7 2.079274 1_445
Co2 O7 2.098030 1_545
Co2 O1 2.112479 1_454
Co3 O7 1.926621 1_555
Co3 O9 1.932376 1_565
Co3 O3 2.066260 1_555
Co3 O5 2.080278 1_665
Co3 O5 2.098868 1_565
Co3 O3 2.111995 1_655
