# generated using pymatgen
data_K3Nb6SBr17
_symmetry_space_group_name_H-M   'P 1'
_cell_length_a   13.05562917
_cell_length_b   13.05562917
_cell_length_c   9.55820192
_cell_angle_alpha   89.29182999
_cell_angle_beta   89.29182999
_cell_angle_gamma   94.34480161
_symmetry_Int_Tables_number   1
_chemical_formula_structural   K3Nb6SBr17
_chemical_formula_sum   'K6 Nb12 S2 Br34'
_cell_volume   1624.23979877
_cell_formula_units_Z   2
loop_
 _symmetry_equiv_pos_site_id
 _symmetry_equiv_pos_as_xyz
  1  'x, y, z'
loop_
 _atom_site_type_symbol
 _atom_site_label
 _atom_site_symmetry_multiplicity
 _atom_site_fract_x
 _atom_site_fract_y
 _atom_site_fract_z
 _atom_site_occupancy
  K  K0  1  0.27762200  0.17640100  0.84310500  1
  K  K1  1  0.72237800  0.82359900  0.15689500  1
  K  K2  1  0.82359900  0.72237800  0.65689500  1
  K  K3  1  0.17640100  0.27762200  0.34310500  1
  K  K4  1  0.46068900  0.53931100  0.75000000  1
  K  K5  1  0.53931100  0.46068900  0.25000000  1
  Nb  Nb0  1  0.80353000  0.16418300  0.51876000  1
  Nb  Nb1  1  0.19647000  0.83581700  0.48124000  1
  Nb  Nb2  1  0.83581700  0.19647000  0.98124000  1
  Nb  Nb3  1  0.16418300  0.80353000  0.01876000  1
  Nb  Nb4  1  0.61574900  0.24163100  0.64288100  1
  Nb  Nb5  1  0.38425100  0.75836900  0.35711900  1
  Nb  Nb6  1  0.75836900  0.38425100  0.85711900  1
  Nb  Nb7  1  0.24163100  0.61574900  0.14288100  1
  Nb  Nb8  1  0.69779300  0.05214100  0.76171900  1
  Nb  Nb9  1  0.30220700  0.94785900  0.23828100  1
  Nb  Nb10  1  0.94785900  0.30220700  0.73828100  1
  Nb  Nb11  1  0.05214100  0.69779300  0.26171900  1
  S  S0  1  0.77724600  0.22275400  0.75000000  1
  S  S1  1  0.22275400  0.77724600  0.25000000  1
  Br  Br0  1  0.87342200  0.00845500  0.88961300  1
  Br  Br1  1  0.12657800  0.99154500  0.11038700  1
  Br  Br2  1  0.99154500  0.12657800  0.61038700  1
  Br  Br3  1  0.00845500  0.87342200  0.38961300  1
  Br  Br4  1  0.36096800  0.79761100  0.62065700  1
  Br  Br5  1  0.63903200  0.20238900  0.37934300  1
  Br  Br6  1  0.20238900  0.63903200  0.87934300  1
  Br  Br7  1  0.79761100  0.36096800  0.12065700  1
  Br  Br8  1  0.64910900  0.09915900  0.02655000  1
  Br  Br9  1  0.35089100  0.90084100  0.97345000  1
  Br  Br10  1  0.90084100  0.35089100  0.47345000  1
  Br  Br11  1  0.09915900  0.64910900  0.52655000  1
  Br  Br12  1  0.55884900  0.31304500  0.89581800  1
  Br  Br13  1  0.44115100  0.68695500  0.10418200  1
  Br  Br14  1  0.68695500  0.44115100  0.60418200  1
  Br  Br15  1  0.31304500  0.55884900  0.39581800  1
  Br  Br16  1  0.43248900  0.31418500  0.56058000  1
  Br  Br17  1  0.56751100  0.68581500  0.43942000  1
  Br  Br18  1  0.68581500  0.56751100  0.93942000  1
  Br  Br19  1  0.31418500  0.43248900  0.06058000  1
  Br  Br20  1  0.11793400  0.88206600  0.75000000  1
  Br  Br21  1  0.88206600  0.11793400  0.25000000  1
  Br  Br22  1  0.50781600  0.06567800  0.68337200  1
  Br  Br23  1  0.49218400  0.93432200  0.31662800  1
  Br  Br24  1  0.93432200  0.49218400  0.81662800  1
  Br  Br25  1  0.06567800  0.50781600  0.18337200  1
  Br  Br26  1  0.63775300  0.85328600  0.83456700  1
  Br  Br27  1  0.36224700  0.14671400  0.16543300  1
  Br  Br28  1  0.14671400  0.36224700  0.66543300  1
  Br  Br29  1  0.85328600  0.63775300  0.33456700  1
  Br  Br30  1  0.74451600  0.96724000  0.52215300  1
  Br  Br31  1  0.25548400  0.03276000  0.47784700  1
  Br  Br32  1  0.03276000  0.25548400  0.97784700  1
  Br  Br33  1  0.96724000  0.74451600  0.02215300  1
loop_
_geom_bond_atom_site_label_1
_geom_bond_atom_site_label_2
_geom_bond_distance
_geom_bond_site_symmetry_2
Nb0 S0 2.377065 1_555
Nb1 S1 2.377065 1_555
Nb2 S0 2.377065 1_555
Nb3 S1 2.377065 1_555
Nb4 S0 2.383366 1_555
Nb5 S1 2.383366 1_555
Nb6 S0 2.383366 1_555
Nb7 S1 2.383366 1_555
Nb8 S0 2.385583 1_555
Nb9 S1 2.385583 1_555
Nb10 S0 2.385583 1_555
Nb11 S1 2.385583 1_555
Br0 Nb2 2.694157 1_555
Br0 Nb8 2.706928 1_555
Br1 Nb3 2.694157 1_555
Br1 Nb9 2.706928 1_555
Br2 Nb0 2.694157 1_555
Br2 Nb10 2.706928 1_555
Br3 Nb1 2.694157 1_555
Br3 Nb11 2.706928 1_555
Br4 Nb5 2.595488 1_555
Br4 Nb1 2.617915 1_555
Br4 K4 3.898404 1_555
Br5 Nb4 2.595488 1_555
Br5 Nb0 2.617915 1_555
Br5 K5 3.898404 1_555
Br6 Nb7 2.595488 1_556
Br6 Nb3 2.617915 1_556
Br6 K4 3.898404 1_555
Br7 Nb6 2.595488 1_554
Br7 Nb2 2.617915 1_554
Br7 K5 3.898404 1_555
Br8 Nb2 2.689711 1_554
Br8 Nb8 2.691854 1_554
Br9 Nb3 2.689711 1_556
Br9 Nb9 2.691854 1_556
Br10 Nb0 2.689711 1_555
Br10 Nb10 2.691854 1_555
Br11 Nb1 2.689711 1_555
Br11 Nb11 2.691854 1_555
Br12 Nb4 2.717039 1_555
Br12 Nb6 2.717924 1_555
Br12 K4 3.581518 1_555
Br12 K5 3.931369 1_556
Br13 Nb5 2.717039 1_555
Br13 Nb7 2.717924 1_555
Br13 K5 3.581518 1_555
Br13 K4 3.931369 1_554
Br14 Nb6 2.717039 1_555
Br14 Nb4 2.717924 1_555
Br14 K4 3.581518 1_555
Br14 K5 3.931369 1_555
Br15 Nb7 2.717039 1_555
Br15 Nb5 2.717924 1_555
Br15 K5 3.581518 1_555
Br15 K4 3.931369 1_555
Br16 Nb4 2.758982 1_555
Br16 K4 3.469329 1_555
Br16 K5 3.710668 1_555
Br16 K0 3.716196 1_555
Br17 Nb5 2.758982 1_555
Br17 K5 3.469329 1_555
Br17 K4 3.710668 1_555
Br17 K1 3.716196 1_555
Br18 Nb6 2.758982 1_555
Br18 K4 3.469329 1_555
Br18 K5 3.710668 1_556
Br18 K2 3.716196 1_555
Br19 Nb7 2.758982 1_555
Br19 K5 3.469329 1_555
Br19 K4 3.710668 1_554
Br19 K3 3.716196 1_555
Br20 Nb3 2.842885 1_556
Br20 Nb1 2.842885 1_555
Br21 Nb0 2.842885 1_555
Br21 Nb2 2.842885 1_554
Br22 Nb8 2.617788 1_555
Br22 Nb4 2.624222 1_555
Br22 K0 3.748601 1_555
Br23 Nb9 2.617788 1_555
Br23 Nb5 2.624222 1_555
Br23 K1 3.748601 1_555
Br24 Nb10 2.617788 1_555
Br24 Nb6 2.624222 1_555
Br24 K2 3.748601 1_555
Br25 Nb11 2.617788 1_555
Br25 Nb7 2.624222 1_555
Br25 K3 3.748601 1_555
Br26 Nb8 2.733657 1_565
Br26 K1 3.313937 1_556
Br26 K2 3.505746 1_555
Br27 Nb9 2.733657 1_545
Br27 K0 3.313937 1_554
Br27 K3 3.505746 1_555
Br28 Nb10 2.733657 1_455
Br28 K3 3.313937 1_555
Br28 K0 3.505746 1_555
Br29 Nb11 2.733657 1_655
Br29 K2 3.313937 1_555
Br29 K1 3.505746 1_555
Br30 Nb0 2.627351 1_565
Br30 Nb8 2.640959 1_565
Br30 K2 3.657264 1_555
Br31 Nb1 2.627351 1_545
Br31 Nb9 2.640959 1_545
Br31 K3 3.657264 1_555
Br32 Nb2 2.627351 1_455
Br32 Nb10 2.640959 1_455
Br32 K0 3.657264 1_555
Br33 Nb3 2.627351 1_655
Br33 Nb11 2.640959 1_655
Br33 K1 3.657264 1_555
