# generated using pymatgen
data_Mg6CoMo
_symmetry_space_group_name_H-M   'P 1'
_cell_length_a   4.76810000
_cell_length_b   5.84275300
_cell_length_c   10.69895000
_cell_angle_alpha   90.00000000
_cell_angle_beta   90.00000000
_cell_angle_gamma   90.00000000
_symmetry_Int_Tables_number   1
_chemical_formula_structural   Mg6CoMo
_chemical_formula_sum   'Mg12 Co2 Mo2'
_cell_volume   298.06023543
_cell_formula_units_Z   2
loop_
 _symmetry_equiv_pos_site_id
 _symmetry_equiv_pos_as_xyz
  1  'x, y, z'
loop_
 _atom_site_type_symbol
 _atom_site_label
 _atom_site_symmetry_multiplicity
 _atom_site_fract_x
 _atom_site_fract_y
 _atom_site_fract_z
 _atom_site_occupancy
  Mg  Mg0  1  0.50000000  0.25106800  0.42371400  1
  Mg  Mg1  1  0.50000000  0.74893200  0.42371400  1
  Mg  Mg2  1  0.00000000  0.74661100  0.08660200  1
  Mg  Mg3  1  0.00000000  0.25338900  0.08660200  1
  Mg  Mg4  1  0.00000000  0.00000000  0.31253700  1
  Mg  Mg5  1  0.00000000  0.50000000  0.32191400  1
  Mg  Mg6  1  0.50000000  0.75106800  0.92371400  1
  Mg  Mg7  1  0.50000000  0.24893200  0.92371400  1
  Mg  Mg8  1  0.00000000  0.24661100  0.58660200  1
  Mg  Mg9  1  0.00000000  0.75338900  0.58660200  1
  Mg  Mg10  1  0.00000000  0.50000000  0.81253700  1
  Mg  Mg11  1  0.00000000  0.00000000  0.82191400  1
  Co  Co0  1  0.50000000  0.00000000  0.16910500  1
  Co  Co1  1  0.50000000  0.50000000  0.66910500  1
  Mo  Mo0  1  0.50000000  0.50000000  0.17580700  1
  Mo  Mo1  1  0.50000000  0.00000000  0.67580700  1
loop_
_geom_bond_atom_site_label_1
_geom_bond_atom_site_label_2
_geom_bond_distance
_geom_bond_site_symmetry_2
Mg0 Mg1 2.908896 1_555
Mg0 Mg1 2.933857 1_545
Mg0 Mg8 2.953216 1_655
Mg0 Mg8 2.953216 1_555
Mg0 Mg5 2.997560 1_555
Mg0 Mg5 2.997560 1_655
Mg0 Mo0 3.024955 1_555
Mg0 Mg4 3.041452 1_655
Mg0 Mg4 3.041452 1_555
Mg0 Mo1 3.070243 1_555
Mg1 Mg9 2.953216 1_555
Mg1 Mg9 2.953216 1_655
Mg1 Mg5 2.997560 1_655
Mg1 Mg5 2.997560 1_555
Mg1 Mo0 3.024955 1_555
Mg1 Mg4 3.041452 1_565
Mg1 Mg4 3.041452 1_665
Mg1 Mo1 3.070243 1_565
Mg2 Mo0 2.944610 1_455
Mg2 Mo0 2.944610 1_555
Mg2 Mg6 2.953216 1_554
Mg2 Mg6 2.953216 1_454
Mg3 Mo0 2.944610 1_455
Mg3 Mo0 2.944610 1_555
Mg3 Mg7 2.953216 1_554
Mg3 Mg7 2.953216 1_454
Mg5 Mo0 2.850835 1_555
Mg5 Mo0 2.850835 1_455
Mg6 Mg7 2.908896 1_565
Mg6 Mg7 2.933857 1_555
Mg6 Mo1 3.024955 1_565
Mg6 Mo0 3.070243 1_556
Mg7 Mo1 3.024955 1_555
Mg7 Mo0 3.070243 1_556
Mg8 Mo1 2.944610 1_555
Mg8 Mo1 2.944610 1_455
Mg9 Mo1 2.944610 1_565
Mg9 Mo1 2.944610 1_465
Mg10 Mg7 3.041452 1_555
Mg10 Mg6 3.041452 1_455
Mg10 Mg6 3.041452 1_555
Mg10 Mg7 3.041452 1_455
Mg11 Mo1 2.850835 1_555
Mg11 Mo1 2.850835 1_455
Mg11 Mg7 2.997560 1_455
Mg11 Mg7 2.997560 1_555
Mg11 Mg6 2.997560 1_445
Mg11 Mg6 2.997560 1_545
Co0 Mg4 2.835243 1_555
Co0 Mg4 2.835243 1_655
Co0 Mo0 2.922256 1_545
Co0 Mo0 2.922256 1_555
Co0 Mg2 2.941886 1_545
Co0 Mg3 2.941886 1_555
Co0 Mg3 2.941886 1_655
Co0 Mg2 2.941886 1_645
Co0 Mg7 3.001380 1_554
Co0 Mg6 3.001380 1_544
Co0 Mg0 3.093917 1_555
Co0 Mg1 3.093917 1_545
Co1 Mg10 2.835243 1_555
Co1 Mg10 2.835243 1_655
Co1 Mo1 2.922256 1_565
Co1 Mo1 2.922256 1_555
Co1 Mg9 2.941886 1_555
Co1 Mg8 2.941886 1_655
Co1 Mg9 2.941886 1_655
Co1 Mg8 2.941886 1_555
Co1 Mg1 3.001380 1_555
Co1 Mg0 3.001380 1_555
Co1 Mg6 3.093917 1_555
Co1 Mg7 3.093917 1_555
