# generated using pymatgen
data_SmDyFe17
_symmetry_space_group_name_H-M   'P 1'
_cell_length_a   6.41064159
_cell_length_b   6.41064159
_cell_length_c   6.41064097
_cell_angle_alpha   83.06085865
_cell_angle_beta   83.06085865
_cell_angle_gamma   83.06085951
_symmetry_Int_Tables_number   1
_chemical_formula_structural   SmDyFe17
_chemical_formula_sum   'Sm1 Dy1 Fe17'
_cell_volume   258.09572798
_cell_formula_units_Z   1
loop_
 _symmetry_equiv_pos_site_id
 _symmetry_equiv_pos_as_xyz
  1  'x, y, z'
loop_
 _atom_site_type_symbol
 _atom_site_label
 _atom_site_symmetry_multiplicity
 _atom_site_fract_x
 _atom_site_fract_y
 _atom_site_fract_z
 _atom_site_occupancy
  Sm  Sm0  1  0.65803900  0.65803900  0.65803900  1
  Dy  Dy0  1  0.34158900  0.34158900  0.34158900  1
  Fe  Fe0  1  0.65609700  0.65609700  0.15535600  1
  Fe  Fe1  1  0.65609700  0.15535600  0.65609700  1
  Fe  Fe2  1  0.15535600  0.65609700  0.65609700  1
  Fe  Fe3  1  0.34341100  0.34341100  0.84496500  1
  Fe  Fe4  1  0.34341100  0.84496500  0.34341100  1
  Fe  Fe5  1  0.84496500  0.34341100  0.34341100  1
  Fe  Fe6  1  0.00036100  0.00036100  0.49981500  1
  Fe  Fe7  1  0.00036100  0.49981500  0.00036100  1
  Fe  Fe8  1  0.49981500  0.00036100  0.00036100  1
  Fe  Fe9  1  0.70718700  0.29229900  0.00056500  1
  Fe  Fe10  1  0.29229900  0.00056500  0.70718700  1
  Fe  Fe11  1  0.00056500  0.70718700  0.29229900  1
  Fe  Fe12  1  0.70718700  0.00056500  0.29229900  1
  Fe  Fe13  1  0.00056500  0.29229900  0.70718700  1
  Fe  Fe14  1  0.29229900  0.70718700  0.00056500  1
  Fe  Fe15  1  0.09674700  0.09674700  0.09674700  1
  Fe  Fe16  1  0.90365000  0.90365000  0.90365000  1
loop_
_geom_bond_atom_site_label_1
_geom_bond_atom_site_label_2
_geom_bond_distance
_geom_bond_site_symmetry_2
Dy0 Fe10 3.020291 1_555
Dy0 Fe13 3.020291 1_555
Dy0 Fe9 3.020291 1_555
Dy0 Fe14 3.020291 1_555
Dy0 Fe12 3.020291 1_555
Dy0 Fe11 3.020291 1_555
Dy0 Fe15 3.029313 1_555
Dy0 Fe2 3.061770 1_555
Dy0 Fe1 3.061770 1_555
Dy0 Fe0 3.061770 1_555
Dy0 Fe3 3.180903 1_554
Dy0 Fe5 3.180903 1_455
Dy0 Fe4 3.180903 1_545
Dy0 Fe3 3.229831 1_555
Dy0 Fe5 3.229832 1_555
Dy0 Fe4 3.229832 1_555
Dy0 Fe7 3.268493 1_555
Dy0 Fe8 3.268493 1_555
Dy0 Fe6 3.268493 1_555
Fe0 Fe8 2.457248 1_565
Fe0 Fe7 2.457248 1_655
Fe0 Fe4 2.473812 1_555
Fe0 Fe5 2.473812 1_555
Fe0 Fe11 2.543038 1_655
Fe0 Fe12 2.543038 1_565
Fe0 Fe14 2.612872 1_555
Fe0 Fe9 2.612872 1_555
Fe0 Fe16 2.647962 1_554
Fe0 Sm0 3.185166 1_554
Fe0 Sm0 3.225581 1_555
Fe1 Fe8 2.457248 1_556
Fe1 Fe6 2.457248 1_655
Fe1 Fe5 2.473812 1_555
Fe1 Fe3 2.473812 1_555
Fe1 Fe9 2.543038 1_556
Fe1 Fe13 2.543038 1_655
Fe1 Fe12 2.612872 1_555
Fe1 Fe10 2.612872 1_555
Fe1 Fe16 2.647962 1_545
Fe1 Sm0 3.185166 1_545
Fe1 Sm0 3.225581 1_555
Fe2 Fe7 2.457248 1_556
Fe2 Fe6 2.457248 1_565
Fe2 Fe4 2.473812 1_555
Fe2 Fe3 2.473812 1_555
Fe2 Sm0 3.185166 1_455
Fe2 Sm0 3.225581 1_555
Fe3 Fe7 2.452191 1_556
Fe3 Fe8 2.452191 1_556
Fe3 Fe9 2.615192 1_556
Fe3 Sm0 3.063861 1_555
Fe4 Fe8 2.452191 1_565
Fe4 Fe6 2.452191 1_565
Fe4 Sm0 3.063860 1_555
Fe5 Fe7 2.452191 1_655
Fe5 Fe6 2.452191 1_655
Fe5 Fe9 2.535959 1_555
Fe5 Sm0 3.063860 1_555
Fe6 Sm0 3.278488 1_445
Fe7 Fe9 2.430044 1_455
Fe7 Sm0 3.278488 1_454
Fe8 Fe9 2.423221 1_555
Fe8 Sm0 3.278488 1_544
Fe9 Sm0 3.027013 1_554
Fe10 Fe6 2.423221 1_555
Fe10 Fe8 2.430044 1_556
Fe10 Fe13 2.479954 1_555
Fe10 Fe14 2.493929 1_546
Fe10 Fe3 2.535959 1_555
Fe10 Fe2 2.543038 1_545
Fe10 Fe4 2.615192 1_545
Fe10 Fe16 2.757985 1_445
Fe10 Fe15 2.759930 1_556
Fe10 Sm0 3.027013 1_545
Fe11 Fe7 2.423221 1_555
Fe11 Fe6 2.430044 1_565
Fe11 Fe14 2.479954 1_555
Fe11 Fe12 2.493930 1_465
Fe11 Fe4 2.535959 1_555
Fe11 Fe2 2.612872 1_555
Fe11 Fe5 2.615192 1_455
Fe11 Fe16 2.757985 1_454
Fe11 Fe15 2.759930 1_565
Fe11 Sm0 3.027013 1_455
Fe12 Fe8 2.423221 1_555
Fe12 Fe6 2.430044 1_655
Fe12 Fe9 2.479954 1_555
Fe12 Fe5 2.535959 1_555
Fe12 Fe4 2.615192 1_545
Fe12 Fe16 2.757985 1_544
Fe12 Fe15 2.759930 1_655
Fe12 Sm0 3.027013 1_545
Fe13 Fe6 2.423221 1_555
Fe13 Fe7 2.430044 1_556
Fe13 Fe9 2.493929 1_456
Fe13 Fe3 2.535959 1_555
Fe13 Fe2 2.612872 1_555
Fe13 Fe5 2.615192 1_455
Fe13 Fe16 2.757985 1_445
Fe13 Fe15 2.759930 1_556
Fe13 Sm0 3.027013 1_455
Fe14 Fe7 2.423221 1_555
Fe14 Fe8 2.430044 1_565
Fe14 Fe4 2.535959 1_555
Fe14 Fe2 2.543038 1_554
Fe14 Fe3 2.615192 1_554
Fe14 Fe16 2.757985 1_454
Fe14 Fe15 2.759930 1_565
Fe14 Sm0 3.027013 1_554
Fe15 Fe16 2.389097 1_444
Fe15 Fe6 2.600180 1_555
Fe15 Fe7 2.600181 1_555
Fe15 Fe8 2.600181 1_555
Fe15 Fe3 2.641377 1_554
Fe15 Fe4 2.641377 1_545
Fe15 Fe5 2.641377 1_455
Fe15 Fe9 2.759930 1_455
Fe16 Fe6 2.605394 1_665
Fe16 Fe7 2.605394 1_656
Fe16 Fe8 2.605394 1_566
Fe16 Fe2 2.647962 1_655
Fe16 Fe9 2.757985 1_566
Fe16 Sm0 3.038827 1_555
