# generated using pymatgen
data_YMg14Sb
_symmetry_space_group_name_H-M   'P 1'
_cell_length_a   6.48099136
_cell_length_b   6.48099081
_cell_length_c   10.46662407
_cell_angle_alpha   90.00000000
_cell_angle_beta   90.00000000
_cell_angle_gamma   120.00000278
_symmetry_Int_Tables_number   1
_chemical_formula_structural   YMg14Sb
_chemical_formula_sum   'Y1 Mg14 Sb1'
_cell_volume   380.73262562
_cell_formula_units_Z   1
loop_
 _symmetry_equiv_pos_site_id
 _symmetry_equiv_pos_as_xyz
  1  'x, y, z'
loop_
 _atom_site_type_symbol
 _atom_site_label
 _atom_site_symmetry_multiplicity
 _atom_site_fract_x
 _atom_site_fract_y
 _atom_site_fract_z
 _atom_site_occupancy
  Y  Y0  1  0.16666700  0.33333300  0.12500000  1
  Mg  Mg0  1  0.17359351  0.83679626  0.12500000  1
  Mg  Mg1  1  0.16293461  0.83146681  0.62500000  1
  Mg  Mg2  1  0.66320374  0.32640649  0.12500000  1
  Mg  Mg3  1  0.66853319  0.33706539  0.62500000  1
  Mg  Mg4  1  0.66320374  0.83679626  0.12500000  1
  Mg  Mg5  1  0.66853319  0.83146681  0.62500000  1
  Mg  Mg6  1  0.33383973  0.16616027  0.37656655  1
  Mg  Mg7  1  0.33383973  0.16616027  0.87343345  1
  Mg  Mg8  1  0.33383973  0.66768046  0.37656655  1
  Mg  Mg9  1  0.33383973  0.66768046  0.87343345  1
  Mg  Mg10  1  0.83231954  0.16616027  0.37656655  1
  Mg  Mg11  1  0.83231954  0.16616027  0.87343345  1
  Mg  Mg12  1  0.83333300  0.66666700  0.37020061  1
  Mg  Mg13  1  0.83333300  0.66666700  0.87979939  1
  Sb  Sb0  1  0.16666700  0.33333300  0.62500000  1
loop_
_geom_bond_atom_site_label_1
_geom_bond_atom_site_label_2
_geom_bond_distance
_geom_bond_site_symmetry_2
Mg0 Mg2 3.173159 1_565
Mg0 Mg4 3.173160 1_555
Mg0 Mg12 3.199029 1_455
Mg0 Mg13 3.199029 1_454
Mg0 Mg8 3.217321 1_555
Mg0 Mg9 3.217321 1_554
Mg0 Mg6 3.217327 1_565
Mg0 Mg7 3.217327 1_564
Mg0 Y0 3.240729 1_565
Mg0 Y0 3.240729 1_555
Mg0 Mg2 3.307831 1_455
Mg0 Mg4 3.307832 1_455
Mg1 Mg3 3.204211 1_455
Mg1 Mg5 3.204211 1_455
Mg1 Mg9 3.207917 1_555
Mg1 Mg8 3.207917 1_555
Mg1 Mg7 3.207924 1_565
Mg1 Mg6 3.207924 1_565
Mg1 Sb0 3.240563 1_565
Mg1 Sb0 3.240563 1_555
Mg1 Mg13 3.245710 1_455
Mg1 Mg12 3.245710 1_455
Mg1 Mg3 3.276780 1_565
Mg1 Mg5 3.276780 1_555
Mg2 Mg4 3.173159 1_545
Mg2 Mg6 3.217328 1_555
Mg2 Mg7 3.217328 1_554
Mg2 Y0 3.240729 1_555
Mg2 Y0 3.240729 1_655
Mg2 Mg4 3.307831 1_555
Mg3 Mg5 3.204211 1_555
Mg3 Mg7 3.207924 1_555
Mg3 Mg6 3.207924 1_555
Mg3 Sb0 3.240563 1_555
Mg3 Sb0 3.240563 1_655
Mg3 Mg5 3.276780 1_545
Mg4 Mg9 3.217327 1_554
Mg4 Mg8 3.217327 1_555
Mg4 Y0 3.240729 1_555
Mg4 Y0 3.240729 1_665
Mg5 Mg9 3.207924 1_555
Mg5 Mg8 3.207924 1_555
Mg5 Sb0 3.240563 1_665
Mg5 Sb0 3.240563 1_555
Mg6 Sb0 3.206697 1_555
Mg6 Mg8 3.230643 1_545
Mg6 Y0 3.233346 1_555
Mg6 Mg8 3.250348 1_555
Mg7 Sb0 3.206697 1_555
Mg7 Mg9 3.230643 1_545
Mg7 Y0 3.233346 1_556
Mg7 Mg9 3.250348 1_555
Mg8 Sb0 3.206704 1_555
Mg8 Y0 3.233352 1_555
Mg9 Sb0 3.206704 1_555
Mg9 Y0 3.233352 1_556
Mg10 Sb0 3.206704 1_655
Mg10 Mg3 3.207917 1_555
Mg10 Mg5 3.207924 1_545
Mg10 Mg2 3.217321 1_555
Mg10 Mg4 3.217327 1_545
Mg10 Mg8 3.230643 1_545
Mg10 Mg6 3.230643 1_555
Mg10 Y0 3.233352 1_655
Mg10 Mg12 3.241185 1_555
Mg10 Mg12 3.241185 1_545
Mg10 Mg8 3.250348 1_655
Mg10 Mg6 3.250348 1_655
Mg11 Sb0 3.206704 1_655
Mg11 Mg3 3.207917 1_555
Mg11 Mg5 3.207924 1_545
Mg11 Mg2 3.217321 1_556
Mg11 Mg4 3.217327 1_546
Mg11 Mg9 3.230643 1_545
Mg11 Mg7 3.230643 1_555
Mg11 Y0 3.233352 1_656
Mg11 Mg13 3.241185 1_555
Mg11 Mg13 3.241185 1_545
Mg11 Mg9 3.250348 1_655
Mg11 Mg7 3.250348 1_655
Mg12 Mg4 3.199023 1_555
Mg12 Mg2 3.199029 1_555
Mg12 Mg6 3.241185 1_555
Mg12 Mg6 3.241185 1_665
Mg12 Mg8 3.241186 1_555
Mg12 Mg8 3.241186 1_655
Mg12 Mg5 3.245704 1_555
Mg12 Mg3 3.245710 1_555
Mg13 Mg4 3.199023 1_556
Mg13 Mg2 3.199029 1_556
Mg13 Mg7 3.241185 1_555
Mg13 Mg7 3.241185 1_665
Mg13 Mg9 3.241186 1_555
Mg13 Mg9 3.241186 1_655
Mg13 Mg5 3.245704 1_555
Mg13 Mg3 3.245710 1_555
