# generated using pymatgen
data_Cr2H8N2O7
_symmetry_space_group_name_H-M   'P 1'
_cell_length_a   7.73382236
_cell_length_b   7.73382236
_cell_length_c   7.83192960
_cell_angle_alpha   87.19115861
_cell_angle_beta   87.19115861
_cell_angle_gamma   58.92576618
_symmetry_Int_Tables_number   1
_chemical_formula_structural   Cr2H8N2O7
_chemical_formula_sum   'Cr4 H16 N4 O14'
_cell_volume   400.58548281
_cell_formula_units_Z   2
loop_
 _symmetry_equiv_pos_site_id
 _symmetry_equiv_pos_as_xyz
  1  'x, y, z'
loop_
 _atom_site_type_symbol
 _atom_site_label
 _atom_site_symmetry_multiplicity
 _atom_site_fract_x
 _atom_site_fract_y
 _atom_site_fract_z
 _atom_site_occupancy
  Cr  Cr0  1  0.76926400  0.43225900  0.63961900  1
  Cr  Cr1  1  0.56774100  0.23073600  0.86038100  1
  Cr  Cr2  1  0.23073600  0.56774100  0.36038100  1
  Cr  Cr3  1  0.43225900  0.76926400  0.13961900  1
  H  H0  1  0.90458100  0.29876000  0.26654000  1
  H  H1  1  0.70124000  0.09541900  0.23346000  1
  H  H2  1  0.09541900  0.70124000  0.73346000  1
  H  H3  1  0.29876000  0.90458100  0.76654000  1
  H  H4  1  0.00137400  0.42587900  0.16023600  1
  H  H5  1  0.57412100  0.99862600  0.33976400  1
  H  H6  1  0.99862600  0.57412100  0.83976400  1
  H  H7  1  0.42587900  0.00137400  0.66023600  1
  H  H8  1  0.92053000  0.29840500  0.04796100  1
  H  H9  1  0.70159500  0.07947000  0.45203900  1
  H  H10  1  0.07947000  0.70159500  0.95203900  1
  H  H11  1  0.29840500  0.92053000  0.54796100  1
  H  H12  1  0.12978100  0.16898100  0.16573400  1
  H  H13  1  0.83101900  0.87021900  0.33426600  1
  H  H14  1  0.87021900  0.83101900  0.83426600  1
  H  H15  1  0.16898100  0.12978100  0.66573400  1
  N  N0  1  0.98839400  0.29854300  0.15800100  1
  N  N1  1  0.70145700  0.01160600  0.34199900  1
  N  N2  1  0.01160600  0.70145700  0.84199900  1
  N  N3  1  0.29854300  0.98839400  0.65800100  1
  O  O0  1  0.55243800  0.44756200  0.75000000  1
  O  O1  1  0.44756200  0.55243800  0.25000000  1
  O  O2  1  0.85737800  0.25488400  0.49772200  1
  O  O3  1  0.74511600  0.14262200  0.00227800  1
  O  O4  1  0.14262200  0.74511600  0.50227800  1
  O  O5  1  0.25488400  0.85737800  0.99772200  1
  O  O6  1  0.94790200  0.36947300  0.77883200  1
  O  O7  1  0.63052700  0.05209800  0.72116800  1
  O  O8  1  0.05209800  0.63052700  0.22116800  1
  O  O9  1  0.36947300  0.94790200  0.27883200  1
  O  O10  1  0.70565500  0.64824500  0.54886800  1
  O  O11  1  0.35175500  0.29434500  0.95113200  1
  O  O12  1  0.29434500  0.35175500  0.45113200  1
  O  O13  1  0.64824500  0.70565500  0.04886800  1
loop_
_geom_bond_atom_site_label_1
_geom_bond_atom_site_label_2
_geom_bond_distance
_geom_bond_site_symmetry_2
Cr0 O10 1.614633 1_555
Cr0 O2 1.640553 1_555
Cr0 O6 1.654229 1_555
Cr0 O0 1.799003 1_555
Cr1 O11 1.614633 1_555
Cr1 O3 1.640553 1_556
Cr1 O7 1.654229 1_555
Cr1 O0 1.799003 1_555
Cr2 O12 1.614633 1_555
Cr2 O4 1.640553 1_555
Cr2 O8 1.654229 1_555
Cr2 O1 1.799003 1_555
Cr3 O13 1.614633 1_555
Cr3 O5 1.640553 1_554
Cr3 O9 1.654229 1_555
Cr3 O1 1.799003 1_555
H0 N0 1.042972 1_555
H1 N1 1.042972 1_555
H2 N2 1.042972 1_555
H3 N3 1.042972 1_555
H4 N0 1.041209 1_455
H5 N1 1.041209 1_565
H6 N2 1.041209 1_655
H7 N3 1.041209 1_545
H8 N0 1.031121 1_555
H9 N1 1.031121 1_555
H10 N2 1.031121 1_555
H11 N3 1.031121 1_555
H12 N0 1.035784 1_455
H13 N1 1.035784 1_565
H14 N2 1.035784 1_655
H15 N3 1.035784 1_545
