# generated using pymatgen
data_ZnCdSe2
_symmetry_space_group_name_H-M   'P 1'
_cell_length_a   7.33435078
_cell_length_b   7.33435078
_cell_length_c   7.33434991
_cell_angle_alpha   33.47951045
_cell_angle_beta   33.47951045
_cell_angle_gamma   33.47951515
_symmetry_Int_Tables_number   1
_chemical_formula_structural   ZnCdSe2
_chemical_formula_sum   'Zn1 Cd1 Se2'
_cell_volume   106.92566627
_cell_formula_units_Z   1
loop_
 _symmetry_equiv_pos_site_id
 _symmetry_equiv_pos_as_xyz
  1  'x, y, z'
loop_
 _atom_site_type_symbol
 _atom_site_label
 _atom_site_symmetry_multiplicity
 _atom_site_fract_x
 _atom_site_fract_y
 _atom_site_fract_z
 _atom_site_occupancy
  Zn  Zn0  1  0.49980400  0.49980400  0.49980400  1
  Cd  Cd0  1  0.00082800  0.00082800  0.00082800  1
  Se  Se0  1  0.13034600  0.13034600  0.13034600  1
  Se  Se1  1  0.61902200  0.61902200  0.61902200  1
loop_
_geom_bond_atom_site_label_1
_geom_bond_atom_site_label_2
_geom_bond_distance
_geom_bond_site_symmetry_2
Cd0 Se1 2.638518 1_445
Cd0 Se1 2.638518 1_544
Cd0 Se1 2.638518 1_454
Cd0 Se0 2.687564 1_555
Se0 Zn0 2.551859 1_554
Se0 Zn0 2.551859 1_545
Se0 Zn0 2.551859 1_455
Se1 Zn0 2.473834 1_555
