# generated using pymatgen
data_Nb2ReRu
_symmetry_space_group_name_H-M   'P 1'
_cell_length_a   4.51026137
_cell_length_b   4.51026137
_cell_length_c   4.51026137
_cell_angle_alpha   60.00000000
_cell_angle_beta   60.00000000
_cell_angle_gamma   60.00000000
_symmetry_Int_Tables_number   1
_chemical_formula_structural   Nb2ReRu
_chemical_formula_sum   'Nb2 Re1 Ru1'
_cell_volume   64.87690634
_cell_formula_units_Z   1
loop_
 _symmetry_equiv_pos_site_id
 _symmetry_equiv_pos_as_xyz
  1  'x, y, z'
loop_
 _atom_site_type_symbol
 _atom_site_label
 _atom_site_symmetry_multiplicity
 _atom_site_fract_x
 _atom_site_fract_y
 _atom_site_fract_z
 _atom_site_occupancy
  Nb  Nb0  1  0.25000000  0.25000000  0.25000000  1
  Nb  Nb1  1  0.75000000  0.75000000  0.75000000  1
  Re  Re0  1  0.50000000  0.50000000  0.50000000  1
  Ru  Ru0  1  0.00000000  -0.00000000  -0.00000000  1
loop_
_geom_bond_atom_site_label_1
_geom_bond_atom_site_label_2
_geom_bond_distance
_geom_bond_site_symmetry_2
Nb0 Ru0 2.761960 1_556
Nb0 Ru0 2.761960 1_565
Nb0 Re0 2.761960 1_545
Nb0 Re0 2.761960 1_555
Nb0 Ru0 2.761960 1_555
Nb0 Re0 2.761960 1_554
Nb0 Ru0 2.761960 1_655
Nb0 Re0 2.761960 1_455
Nb1 Ru0 2.761960 1_656
Nb1 Ru0 2.761960 1_566
Nb1 Re0 2.761960 1_556
Nb1 Re0 2.761960 1_555
Nb1 Ru0 2.761960 1_665
Nb1 Re0 2.761960 1_565
Nb1 Re0 2.761960 1_655
Nb1 Ru0 2.761960 1_666
