# generated using pymatgen
data_Ba6Ga5N
_symmetry_space_group_name_H-M   'P 1'
_cell_length_a   14.75415672
_cell_length_b   14.75415672
_cell_length_c   14.75415817
_cell_angle_alpha   31.30669392
_cell_angle_beta   31.30669392
_cell_angle_gamma   31.30669479
_symmetry_Int_Tables_number   1
_chemical_formula_structural   Ba6Ga5N
_chemical_formula_sum   'Ba12 Ga10 N2'
_cell_volume   769.65900468
_cell_formula_units_Z   2
loop_
 _symmetry_equiv_pos_site_id
 _symmetry_equiv_pos_as_xyz
  1  'x, y, z'
loop_
 _atom_site_type_symbol
 _atom_site_label
 _atom_site_symmetry_multiplicity
 _atom_site_fract_x
 _atom_site_fract_y
 _atom_site_fract_z
 _atom_site_occupancy
  Ba  Ba0  1  0.78972876  0.23929278  0.36241607  1
  Ba  Ba1  1  0.23929278  0.36241607  0.78972876  1
  Ba  Ba2  1  0.36241607  0.78972876  0.23929278  1
  Ba  Ba3  1  0.71027124  0.13758393  0.26070722  1
  Ba  Ba4  1  0.13758393  0.26070722  0.71027124  1
  Ba  Ba5  1  0.26070722  0.71027124  0.13758393  1
  Ba  Ba6  1  0.21027124  0.76070722  0.63758393  1
  Ba  Ba7  1  0.76070722  0.63758393  0.21027124  1
  Ba  Ba8  1  0.63758393  0.21027124  0.76070722  1
  Ba  Ba9  1  0.28972876  0.86241607  0.73929278  1
  Ba  Ba10  1  0.86241607  0.73929278  0.28972876  1
  Ba  Ba11  1  0.73929278  0.28972876  0.86241607  1
  Ga  Ga0  1  0.25000000  0.44908858  0.05091142  1
  Ga  Ga1  1  0.19842473  0.19842473  0.19842473  1
  Ga  Ga2  1  0.69842473  0.69842473  0.69842473  1
  Ga  Ga3  1  0.30157527  0.30157527  0.30157527  1
  Ga  Ga4  1  0.80157527  0.80157527  0.80157527  1
  Ga  Ga5  1  0.44908858  0.05091142  0.25000000  1
  Ga  Ga6  1  0.05091142  0.25000000  0.44908858  1
  Ga  Ga7  1  0.75000000  0.55091142  0.94908858  1
  Ga  Ga8  1  0.55091142  0.94908858  0.75000000  1
  Ga  Ga9  1  0.94908858  0.75000000  0.55091142  1
  N  N0  1  0.50000000  0.50000000  0.50000000  1
  N  N1  1  0.00000000  -0.00000000  -0.00000000  1
loop_
_geom_bond_atom_site_label_1
_geom_bond_atom_site_label_2
_geom_bond_distance
_geom_bond_site_symmetry_2
Ba0 N0 2.758058 1_555
Ba0 Ga4 3.496113 1_545
Ba0 Ga7 3.501902 1_554
Ba0 Ga8 3.599862 1_545
Ba0 Ga9 3.638658 1_545
Ba0 Ga1 3.731921 1_655
Ba1 N0 2.758058 1_555
Ba1 Ga4 3.496113 1_455
Ba1 Ga8 3.501902 1_545
Ba1 Ga9 3.599863 1_455
Ba1 Ga7 3.638658 1_455
Ba1 Ga1 3.731921 1_556
Ba2 N0 2.758058 1_555
Ba2 Ga4 3.496113 1_554
Ba2 Ga9 3.501902 1_455
Ba2 Ga7 3.599863 1_554
Ba2 Ga8 3.638658 1_554
Ba2 Ga1 3.731921 1_565
Ba3 N1 2.758058 1_655
Ba3 Ga2 3.496113 1_545
Ba3 Ga7 3.501902 1_554
Ba3 Ga9 3.599863 1_545
Ba3 Ga8 3.638658 1_545
Ba3 Ga3 3.731921 1_555
Ba4 N1 2.758058 1_556
Ba4 Ga2 3.496113 1_455
Ba4 Ga8 3.501902 1_545
Ba4 Ga7 3.599863 1_455
Ba4 Ga9 3.638658 1_455
Ba4 Ga3 3.731921 1_555
Ba5 N1 2.758058 1_565
Ba5 Ga2 3.496113 1_554
Ba5 Ga9 3.501902 1_455
Ba5 Ga8 3.599862 1_554
Ba5 Ga7 3.638658 1_554
Ba5 Ga3 3.731921 1_555
Ba6 N0 2.758058 1_555
Ba6 Ga1 3.496113 1_565
Ba6 Ga0 3.501902 1_556
Ba6 Ga5 3.599862 1_565
Ba6 Ga6 3.638658 1_565
Ba6 Ga4 3.731921 1_455
Ba7 N0 2.758058 1_555
Ba7 Ga1 3.496113 1_655
Ba7 Ga5 3.501902 1_565
Ba7 Ga6 3.599863 1_655
Ba7 Ga0 3.638658 1_655
Ba7 Ga4 3.731921 1_554
Ba8 N0 2.758058 1_555
Ba8 Ga1 3.496113 1_556
Ba8 Ga6 3.501902 1_655
Ba8 Ga0 3.599863 1_556
Ba8 Ga5 3.638658 1_556
Ba8 Ga4 3.731921 1_545
Ba9 N1 2.758058 1_566
Ba9 Ga3 3.496113 1_565
Ba9 Ga0 3.501902 1_556
Ba9 Ga6 3.599863 1_565
Ba9 Ga5 3.638658 1_565
Ba9 Ga2 3.731921 1_555
Ba10 N1 2.758058 1_665
Ba10 Ga3 3.496113 1_655
Ba10 Ga5 3.501902 1_565
Ba10 Ga0 3.599863 1_655
Ba10 Ga6 3.638658 1_655
Ba10 Ga2 3.731921 1_555
Ba11 N1 2.758058 1_656
Ba11 Ga3 3.496113 1_556
Ba11 Ga6 3.501902 1_655
Ba11 Ga5 3.599862 1_556
Ba11 Ga0 3.638658 1_556
Ba11 Ga2 3.731921 1_555
Ga0 Ga1 2.686654 1_555
Ga0 Ga3 2.686655 1_555
Ga0 Ga5 2.745490 1_555
Ga0 Ga6 2.745490 1_555
Ga1 Ga5 2.686654 1_555
Ga1 Ga6 2.686655 1_555
Ga2 Ga9 2.686654 1_555
Ga2 Ga8 2.686654 1_555
Ga2 Ga7 2.686655 1_555
Ga3 Ga6 2.686654 1_555
Ga3 Ga5 2.686654 1_555
Ga4 Ga7 2.686654 1_555
Ga4 Ga8 2.686654 1_555
Ga4 Ga9 2.686655 1_555
Ga5 Ga6 2.745490 1_555
Ga7 Ga8 2.745490 1_555
Ga7 Ga9 2.745490 1_555
Ga8 Ga9 2.745490 1_555
