# generated using pymatgen
data_K2Ni3Se4
_symmetry_space_group_name_H-M   'P 1'
_cell_length_a   14.34483703
_cell_length_b   13.67595478
_cell_length_c   6.09980022
_cell_angle_alpha   83.64583980
_cell_angle_beta   71.35443462
_cell_angle_gamma   24.99972557
_symmetry_Int_Tables_number   1
_chemical_formula_structural   K2Ni3Se4
_chemical_formula_sum   'K4 Ni6 Se8'
_cell_volume   428.58778675
_cell_formula_units_Z   2
loop_
 _symmetry_equiv_pos_site_id
 _symmetry_equiv_pos_as_xyz
  1  'x, y, z'
loop_
 _atom_site_type_symbol
 _atom_site_label
 _atom_site_symmetry_multiplicity
 _atom_site_fract_x
 _atom_site_fract_y
 _atom_site_fract_z
 _atom_site_occupancy
  K  K0  1  0.92386800  0.92386800  0.07613200  1
  K  K1  1  0.07613200  0.07613200  0.92386800  1
  K  K2  1  0.32613200  0.32613200  0.17386800  1
  K  K3  1  0.17386800  0.17386800  0.32613200  1
  Ni  Ni0  1  0.50000000  0.50000000  0.50000000  1
  Ni  Ni1  1  0.75000000  0.75000000  0.75000000  1
  Ni  Ni2  1  0.25036200  0.25036200  0.74963800  1
  Ni  Ni3  1  0.74963800  0.74963800  0.25036200  1
  Ni  Ni4  1  0.99963800  0.99963800  0.50036200  1
  Ni  Ni5  1  0.50036200  0.50036200  0.99963800  1
  Se  Se0  1  0.38948100  0.72703600  0.27742000  1
  Se  Se1  1  0.27742000  0.60606200  0.38948100  1
  Se  Se2  1  0.72703600  0.38948100  0.60606200  1
  Se  Se3  1  0.60606200  0.27742000  0.72703600  1
  Se  Se4  1  0.86051900  0.52296400  0.97258000  1
  Se  Se5  1  0.97258000  0.64393800  0.86051900  1
  Se  Se6  1  0.52296400  0.86051900  0.64393800  1
  Se  Se7  1  0.64393800  0.97258000  0.52296400  1
loop_
_geom_bond_atom_site_label_1
_geom_bond_atom_site_label_2
_geom_bond_distance
_geom_bond_site_symmetry_2
K0 Se3 3.532920 1_654
K0 Se1 3.532920 1_565
K0 Se5 3.542864 1_554
K0 Se7 3.542867 1_555
K0 Se3 3.556133 1_565
K0 Se1 3.556138 1_654
K0 Se1 3.559422 1_655
K0 Se3 3.559427 1_564
K0 Ni0 3.654399 1_654
K0 Ni0 3.654399 1_565
K0 Ni4 3.658543 1_554
K0 Ni4 3.658543 1_555
K0 Ni5 3.669243 1_564
K0 Ni5 3.669243 1_654
K1 Se2 3.532919 1_456
K1 Se0 3.532924 1_545
K1 Se4 3.542877 1_455
K1 Se6 3.542877 1_545
K1 Se2 3.556137 1_545
K1 Se0 3.556137 1_456
K1 Se0 3.559424 1_546
K1 Se2 3.559429 1_455
K1 Ni0 3.654399 1_545
K1 Ni0 3.654399 1_456
K1 Ni5 3.658543 1_455
K1 Ni5 3.658543 1_545
K1 Ni4 3.669243 1_445
K1 Ni4 3.669243 1_446
K2 Se7 3.532920 1_455
K2 Se5 3.532920 1_544
K2 Se1 3.542864 1_555
K2 Se3 3.542867 1_554
K2 Se7 3.556133 1_544
K2 Se5 3.556138 1_455
K2 Se5 3.559422 1_454
K2 Se7 3.559427 1_545
K2 Ni1 3.654399 1_544
K2 Ni1 3.654399 1_455
K2 Ni2 3.658543 1_555
K2 Ni2 3.658543 1_554
K2 Ni3 3.669243 1_545
K2 Ni3 3.669243 1_455
K3 Se6 3.532919 1_544
K3 Se4 3.532924 1_455
K3 Se0 3.542877 1_545
K3 Se2 3.542877 1_455
K3 Se6 3.556137 1_455
K3 Se4 3.556137 1_544
K3 Se4 3.559424 1_454
K3 Se6 3.559429 1_545
K3 Ni1 3.654399 1_544
K3 Ni1 3.654399 1_455
K3 Ni3 3.658543 1_545
K3 Ni3 3.658543 1_455
K3 Ni2 3.669243 1_555
K3 Ni2 3.669243 1_554
Ni0 Se2 2.349038 1_555
Ni0 Se0 2.349042 1_555
Ni0 Se3 2.349047 1_555
Ni0 Se1 2.349051 1_555
Ni1 Se6 2.349038 1_555
Ni1 Se4 2.349042 1_555
Ni1 Se7 2.349047 1_555
Ni1 Se5 2.349051 1_555
Ni2 Se4 2.343153 1_455
Ni2 Se6 2.343153 1_545
Ni2 Se5 2.347914 1_455
Ni2 Se7 2.347914 1_545
Ni3 Se5 2.343160 1_554
Ni3 Se7 2.343164 1_555
Ni3 Se4 2.347903 1_554
Ni3 Se6 2.347907 1_555
Ni4 Se0 2.343153 1_655
Ni4 Se2 2.343153 1_565
Ni4 Se1 2.347914 1_655
Ni4 Se3 2.347914 1_565
Ni5 Se1 2.343160 1_556
Ni5 Se3 2.343164 1_555
Ni5 Se0 2.347903 1_556
Ni5 Se2 2.347907 1_555
