# generated using pymatgen
data_TmPu3
_symmetry_space_group_name_H-M   'P 1'
_cell_length_a   6.85488204
_cell_length_b   6.85488204
_cell_length_c   5.54452500
_cell_angle_alpha   90.00000000
_cell_angle_beta   90.00000000
_cell_angle_gamma   120.00000040
_symmetry_Int_Tables_number   1
_chemical_formula_structural   TmPu3
_chemical_formula_sum   'Tm2 Pu6'
_cell_volume   225.62901514
_cell_formula_units_Z   2
loop_
 _symmetry_equiv_pos_site_id
 _symmetry_equiv_pos_as_xyz
  1  'x, y, z'
loop_
 _atom_site_type_symbol
 _atom_site_label
 _atom_site_symmetry_multiplicity
 _atom_site_fract_x
 _atom_site_fract_y
 _atom_site_fract_z
 _atom_site_occupancy
  Tm  Tm0  1  0.33333300  0.66666700  0.75000000  1
  Tm  Tm1  1  0.66666700  0.33333300  0.25000000  1
  Pu  Pu0  1  0.16408700  0.32817300  0.25000000  1
  Pu  Pu1  1  0.67182700  0.83591300  0.25000000  1
  Pu  Pu2  1  0.16408700  0.83591300  0.25000000  1
  Pu  Pu3  1  0.83591300  0.67182700  0.75000000  1
  Pu  Pu4  1  0.32817300  0.16408700  0.75000000  1
  Pu  Pu5  1  0.83591300  0.16408700  0.75000000  1
loop_
_geom_bond_atom_site_label_1
_geom_bond_atom_site_label_2
_geom_bond_distance
_geom_bond_site_symmetry_2
Pu0 Pu1 3.374384 1_445
Pu0 Pu2 3.374384 1_545
Pu0 Pu4 3.388347 1_555
Pu0 Pu4 3.388347 1_554
Pu0 Pu5 3.388354 1_455
Pu0 Pu5 3.388354 1_454
Pu0 Tm0 3.423947 1_555
Pu0 Tm0 3.423947 1_554
Pu0 Tm1 3.427578 1_555
Pu0 Tm1 3.427578 1_455
Pu0 Pu1 3.480498 1_555
Pu0 Pu2 3.480498 1_555
Pu1 Pu2 3.374384 1_655
Pu1 Pu3 3.388347 1_555
Pu1 Pu3 3.388347 1_554
Pu1 Pu5 3.388354 1_565
Pu1 Pu5 3.388354 1_564
Pu1 Tm0 3.423947 1_555
Pu1 Tm0 3.423947 1_554
Pu1 Tm1 3.427578 1_555
Pu1 Tm1 3.427578 1_565
Pu1 Pu2 3.480498 1_555
Pu2 Pu3 3.388354 1_455
Pu2 Pu3 3.388354 1_454
Pu2 Pu4 3.388354 1_564
Pu2 Pu4 3.388354 1_565
Pu2 Tm0 3.423940 1_555
Pu2 Tm0 3.423940 1_554
Pu2 Tm1 3.427578 1_455
Pu2 Tm1 3.427578 1_565
Pu3 Pu4 3.374384 1_665
Pu3 Pu5 3.374384 1_565
Pu3 Tm1 3.423947 1_555
Pu3 Tm1 3.423947 1_556
Pu3 Tm0 3.427578 1_555
Pu3 Tm0 3.427578 1_655
Pu3 Pu4 3.480498 1_555
Pu3 Pu5 3.480498 1_555
Pu4 Pu5 3.374384 1_455
Pu4 Tm1 3.423947 1_555
Pu4 Tm1 3.423947 1_556
Pu4 Tm0 3.427578 1_555
Pu4 Tm0 3.427578 1_545
Pu4 Pu5 3.480498 1_555
Pu5 Tm1 3.423940 1_556
Pu5 Tm1 3.423940 1_555
Pu5 Tm0 3.427578 1_545
Pu5 Tm0 3.427578 1_655
