# generated using pymatgen
data_Ca3(OsN2)2
_symmetry_space_group_name_H-M   'P 1'
_cell_length_a   6.06093900
_cell_length_b   10.13874700
_cell_length_c   8.65415900
_cell_angle_alpha   90.00000000
_cell_angle_beta   90.00000000
_cell_angle_gamma   90.00000000
_symmetry_Int_Tables_number   1
_chemical_formula_structural   Ca3(OsN2)2
_chemical_formula_sum   'Ca12 Os8 N16'
_cell_volume   531.80090136
_cell_formula_units_Z   4
loop_
 _symmetry_equiv_pos_site_id
 _symmetry_equiv_pos_as_xyz
  1  'x, y, z'
loop_
 _atom_site_type_symbol
 _atom_site_label
 _atom_site_symmetry_multiplicity
 _atom_site_fract_x
 _atom_site_fract_y
 _atom_site_fract_z
 _atom_site_occupancy
  Ca  Ca0  1  0.62637600  0.15330900  0.42251900  1
  Ca  Ca1  1  0.87362400  0.84669100  0.42251900  1
  Ca  Ca2  1  0.62637600  0.34669100  0.07748100  1
  Ca  Ca3  1  0.87362400  0.65330900  0.07748100  1
  Ca  Ca4  1  0.37362400  0.84669100  0.57748100  1
  Ca  Ca5  1  0.12637600  0.15330900  0.57748100  1
  Ca  Ca6  1  0.37362400  0.65330900  0.92251900  1
  Ca  Ca7  1  0.12637600  0.34669100  0.92251900  1
  Ca  Ca8  1  0.75000000  0.50000000  0.40232200  1
  Ca  Ca9  1  0.75000000  0.00000000  0.09767800  1
  Ca  Ca10  1  0.25000000  0.50000000  0.59767800  1
  Ca  Ca11  1  0.25000000  0.00000000  0.90232200  1
  Os  Os0  1  0.75000000  0.50000000  0.74784500  1
  Os  Os1  1  0.75000000  0.00000000  0.75215500  1
  Os  Os2  1  0.25000000  0.50000000  0.25215500  1
  Os  Os3  1  0.25000000  0.00000000  0.24784500  1
  Os  Os4  1  0.69657500  0.25000000  0.75000000  1
  Os  Os5  1  0.80342500  0.75000000  0.75000000  1
  Os  Os6  1  0.30342500  0.75000000  0.25000000  1
  Os  Os7  1  0.19657500  0.25000000  0.25000000  1
  N  N0  1  0.93566300  0.35751000  0.65032500  1
  N  N1  1  0.56433700  0.64249000  0.65032500  1
  N  N2  1  0.93566300  0.14249000  0.84967500  1
  N  N3  1  0.56433700  0.85751000  0.84967500  1
  N  N4  1  0.06433700  0.64249000  0.34967500  1
  N  N5  1  0.43566300  0.35751000  0.34967500  1
  N  N6  1  0.06433700  0.85751000  0.15032500  1
  N  N7  1  0.43566300  0.14249000  0.15032500  1
  N  N8  1  0.47301300  0.39948400  0.81551500  1
  N  N9  1  0.02698700  0.60051600  0.81551500  1
  N  N10  1  0.47301300  0.10051600  0.68448500  1
  N  N11  1  0.02698700  0.89948400  0.68448500  1
  N  N12  1  0.52698700  0.60051600  0.18448500  1
  N  N13  1  0.97301300  0.39948400  0.18448500  1
  N  N14  1  0.52698700  0.89948400  0.31551500  1
  N  N15  1  0.97301300  0.10051600  0.31551500  1
loop_
_geom_bond_atom_site_label_1
_geom_bond_atom_site_label_2
_geom_bond_distance
_geom_bond_site_symmetry_2
Ca0 N15 2.357541 1_555
Ca0 N5 2.453534 1_555
Ca0 N10 2.508034 1_555
Ca0 N7 2.626221 1_555
Ca0 N14 2.800561 1_545
Ca1 N14 2.357541 1_555
Ca1 N4 2.453534 1_655
Ca1 N11 2.508034 1_655
Ca1 N6 2.626221 1_655
Ca1 N15 2.800561 1_565
Ca2 N13 2.357541 1_555
Ca2 N7 2.453534 1_555
Ca2 N8 2.508034 1_554
Ca2 N5 2.626221 1_555
Ca2 N12 2.800561 1_555
Ca3 N12 2.357541 1_555
Ca3 N6 2.453534 1_655
Ca3 N9 2.508034 1_654
Ca3 N4 2.626221 1_655
Ca3 N13 2.800561 1_555
Ca4 N11 2.357541 1_555
Ca4 N1 2.453534 1_555
Ca4 N14 2.508034 1_555
Ca4 N3 2.626221 1_555
Ca4 N10 2.800561 1_565
Ca5 N10 2.357541 1_555
Ca5 N0 2.453534 1_455
Ca5 N15 2.508034 1_455
Ca5 N2 2.626221 1_455
Ca5 N11 2.800561 1_545
Ca6 N9 2.357541 1_555
Ca6 N3 2.453534 1_555
Ca6 N12 2.508034 1_556
Ca6 N1 2.626221 1_555
Ca6 N8 2.800561 1_555
Ca7 N8 2.357541 1_555
Ca7 N2 2.453534 1_455
Ca7 N13 2.508034 1_456
Ca7 N0 2.626221 1_455
Ca7 N9 2.800561 1_555
Ca8 N5 2.434000 1_555
Ca8 N4 2.434000 1_655
Ca8 N12 2.533683 1_555
Ca8 N13 2.533683 1_555
Ca8 N0 2.821307 1_555
Ca8 N1 2.821307 1_555
Ca9 N7 2.434000 1_555
Ca9 N6 2.434000 1_645
Ca9 N14 2.533683 1_545
Ca9 N15 2.533683 1_555
Ca9 N2 2.821307 1_554
Ca9 N3 2.821307 1_544
Ca10 N0 2.434000 1_455
Ca10 N1 2.434000 1_555
Ca10 N8 2.533683 1_555
Ca10 N9 2.533683 1_555
Ca10 N5 2.821307 1_555
Ca10 N4 2.821307 1_555
Ca11 N3 2.434000 1_545
Ca11 N2 2.434000 1_455
Ca11 N11 2.533683 1_545
Ca11 N10 2.533683 1_555
Ca11 N7 2.821307 1_556
Ca11 N6 2.821307 1_546
N0 Os4 2.008010 1_555
N0 Os0 2.016336 1_555
N1 Os5 2.008010 1_555
N1 Os0 2.016336 1_555
N2 Os4 2.008010 1_555
N2 Os1 2.016336 1_555
N3 Os5 2.008010 1_555
N3 Os1 2.016336 1_565
N4 Os6 2.008010 1_555
N4 Os2 2.016336 1_555
N5 Os7 2.008010 1_555
N5 Os2 2.016336 1_555
N6 Os6 2.008010 1_555
N6 Os3 2.016336 1_565
N7 Os7 2.008010 1_555
N7 Os3 2.016336 1_555
N8 Os0 2.049368 1_555
N8 Os4 2.110559 1_555
N9 Os0 2.049368 1_455
N9 Os5 2.110559 1_455
N10 Os1 2.049368 1_555
N10 Os4 2.110559 1_555
N11 Os1 2.049368 1_465
N11 Os5 2.110559 1_455
N12 Os2 2.049368 1_555
N12 Os6 2.110559 1_555
N13 Os2 2.049368 1_655
N13 Os7 2.110559 1_655
N14 Os3 2.049368 1_565
N14 Os6 2.110559 1_555
N15 Os3 2.049368 1_655
N15 Os7 2.110559 1_655
