# generated using pymatgen
data_MgSnO2
_symmetry_space_group_name_H-M   'P 1'
_cell_length_a   3.33226800
_cell_length_b   8.43684969
_cell_length_c   9.73756584
_cell_angle_alpha   71.67965246
_cell_angle_beta   85.98318511
_cell_angle_gamma   87.71444205
_symmetry_Int_Tables_number   1
_chemical_formula_structural   MgSnO2
_chemical_formula_sum   'Mg4 Sn4 O8'
_cell_volume   259.20004950
_cell_formula_units_Z   4
loop_
 _symmetry_equiv_pos_site_id
 _symmetry_equiv_pos_as_xyz
  1  'x, y, z'
loop_
 _atom_site_type_symbol
 _atom_site_label
 _atom_site_symmetry_multiplicity
 _atom_site_fract_x
 _atom_site_fract_y
 _atom_site_fract_z
 _atom_site_occupancy
  Mg  Mg0  1  0.76856900  0.33606800  0.51655000  1
  Mg  Mg1  1  0.23143100  0.66393200  0.48345000  1
  Mg  Mg2  1  0.23727700  0.12590200  0.28453900  1
  Mg  Mg3  1  0.76272300  0.87409800  0.71546100  1
  Sn  Sn0  1  0.48836700  0.54754600  0.79628600  1
  Sn  Sn1  1  0.22267400  0.17494400  0.81575900  1
  Sn  Sn2  1  0.77732600  0.82505600  0.18424100  1
  Sn  Sn3  1  0.51163300  0.45245400  0.20371400  1
  O  O0  1  0.74871100  0.58667600  0.35963600  1
  O  O1  1  0.24426400  0.77535800  0.81474300  1
  O  O2  1  0.75573600  0.22464200  0.18525700  1
  O  O3  1  0.25128900  0.41332400  0.64036400  1
  O  O4  1  0.71521900  0.71786600  0.59473900  1
  O  O5  1  0.75637500  0.11587700  0.69349500  1
  O  O6  1  0.28478100  0.28213400  0.40526100  1
  O  O7  1  0.24362500  0.88412300  0.30650500  1
loop_
_geom_bond_atom_site_label_1
_geom_bond_atom_site_label_2
_geom_bond_distance
_geom_bond_site_symmetry_2
Mg0 O6 2.080090 1_655
Mg0 O5 2.098928 1_555
Mg0 O6 2.143267 1_555
Mg0 O0 2.186670 1_555
Mg0 O3 2.227752 1_555
Mg0 O3 2.305475 1_655
Mg1 O4 2.080090 1_455
Mg1 O7 2.098928 1_555
Mg1 O4 2.143267 1_555
Mg1 O3 2.186670 1_555
Mg1 O0 2.227752 1_555
Mg1 O0 2.305475 1_455
Mg2 O2 1.951370 1_455
Mg2 O7 1.982447 1_545
Mg2 O2 1.996964 1_555
Mg2 O6 2.039892 1_555
Mg3 O1 1.951370 1_655
Mg3 O5 1.982447 1_565
Mg3 O1 1.996964 1_555
Mg3 O4 2.039892 1_555
O0 Sn2 2.191802 1_555
O0 Sn3 2.352016 1_555
O1 Sn0 2.111889 1_555
O2 Sn3 2.111889 1_555
O3 Sn1 2.191802 1_555
O3 Sn0 2.352016 1_555
O4 Sn0 2.143335 1_555
O5 Sn1 2.184965 1_655
O5 Sn1 2.198693 1_555
O6 Sn3 2.143335 1_555
O7 Sn2 2.184965 1_455
O7 Sn2 2.198693 1_555
