# generated using pymatgen
data_ErSiAg
_symmetry_space_group_name_H-M   'P 1'
_cell_length_a   6.96475709
_cell_length_b   6.96475709
_cell_length_c   4.15635905
_cell_angle_alpha   90.00000000
_cell_angle_beta   90.00000000
_cell_angle_gamma   119.99999549
_symmetry_Int_Tables_number   1
_chemical_formula_structural   ErSiAg
_chemical_formula_sum   'Er3 Si3 Ag3'
_cell_volume   174.60459008
_cell_formula_units_Z   3
loop_
 _symmetry_equiv_pos_site_id
 _symmetry_equiv_pos_as_xyz
  1  'x, y, z'
loop_
 _atom_site_type_symbol
 _atom_site_label
 _atom_site_symmetry_multiplicity
 _atom_site_fract_x
 _atom_site_fract_y
 _atom_site_fract_z
 _atom_site_occupancy
  Er  Er0  1  0.41908219  1.00000000  0.50000000  1
  Er  Er1  1  1.00000000  0.41908219  0.50000000  1
  Er  Er2  1  0.58091781  0.58091781  0.50000000  1
  Si  Si0  1  0.33333300  0.66666700  -0.00000000  1
  Si  Si1  1  0.66666700  0.33333300  -0.00000000  1
  Si  Si2  1  0.00000000  -0.00000000  0.50000000  1
  Ag  Ag0  1  0.74971422  1.00000000  -0.00000000  1
  Ag  Ag1  1  1.00000000  0.74971422  0.00000000  1
  Ag  Ag2  1  0.25028578  0.25028578  0.00000000  1
loop_
_geom_bond_atom_site_label_1
_geom_bond_atom_site_label_2
_geom_bond_distance
_geom_bond_site_symmetry_2
Er0 Si2 2.918806 1_565
Er0 Si0 2.945972 1_555
Er0 Si0 2.945972 1_556
Er0 Si1 2.945974 1_565
Er0 Si1 2.945974 1_566
Er1 Si2 2.918806 1_655
Er1 Si1 2.945972 1_556
Er1 Si1 2.945972 1_555
Er1 Si0 2.945974 1_656
Er1 Si0 2.945974 1_655
Er2 Si2 2.918806 1_665
Er2 Si1 2.945977 1_555
Er2 Si0 2.945977 1_555
Er2 Si0 2.945977 1_556
Er2 Si1 2.945977 1_556
Ag0 Si1 2.658404 1_565
Ag0 Si0 2.658409 1_555
Ag0 Si2 2.712472 1_665
Ag0 Si2 2.712472 1_664
Ag0 Ag1 3.019276 1_555
Ag0 Ag2 3.019276 1_665
Ag0 Er0 3.101868 1_554
Ag0 Er0 3.101868 1_555
Ag0 Er2 3.284651 1_555
Ag0 Er2 3.284651 1_554
Ag0 Er1 3.284651 1_565
Ag0 Er1 3.284651 1_564
Ag1 Si0 2.658404 1_655
Ag1 Si1 2.658409 1_555
Ag1 Si2 2.712472 1_665
Ag1 Si2 2.712472 1_664
Ag1 Ag2 3.019276 1_665
Ag1 Er1 3.101868 1_554
Ag1 Er1 3.101868 1_555
Ag1 Er2 3.284651 1_555
Ag1 Er2 3.284651 1_554
Ag1 Er0 3.284651 1_655
Ag1 Er0 3.284651 1_654
Ag2 Si0 2.658411 1_555
Ag2 Si1 2.658411 1_555
Ag2 Si2 2.712472 1_554
Ag2 Si2 2.712472 1_555
Ag2 Er2 3.101869 1_555
Ag2 Er2 3.101869 1_554
Ag2 Er1 3.284651 1_455
Ag2 Er0 3.284651 1_544
Ag2 Er1 3.284651 1_454
Ag2 Er0 3.284651 1_545
