# generated using pymatgen
data_FeCoSn
_symmetry_space_group_name_H-M   'P 1'
_cell_length_a   5.92143600
_cell_length_b   8.10719701
_cell_length_c   8.10719701
_cell_angle_alpha   60.02460558
_cell_angle_beta   90.00000000
_cell_angle_gamma   90.00000000
_symmetry_Int_Tables_number   1
_chemical_formula_structural   FeCoSn
_chemical_formula_sum   'Fe8 Co8 Sn8'
_cell_volume   337.13725921
_cell_formula_units_Z   8
loop_
 _symmetry_equiv_pos_site_id
 _symmetry_equiv_pos_as_xyz
  1  'x, y, z'
loop_
 _atom_site_type_symbol
 _atom_site_label
 _atom_site_symmetry_multiplicity
 _atom_site_fract_x
 _atom_site_fract_y
 _atom_site_fract_z
 _atom_site_occupancy
  Fe  Fe0_0  1  0.25000000  0.33335550  0.33335550  1
  Fe  Fe0_1  1  0.25000000  0.33335550  0.83335550  1
  Fe  Fe0_2  1  0.25000000  0.83335550  0.33335550  1
  Fe  Fe0_3  1  0.25000000  0.83335550  0.83335550  1
  Fe  Fe0_4  1  0.75000000  0.33335550  0.33335550  1
  Fe  Fe0_5  1  0.75000000  0.33335550  0.83335550  1
  Fe  Fe0_6  1  0.75000000  0.83335550  0.33335550  1
  Fe  Fe0_7  1  0.75000000  0.83335550  0.83335550  1
  Co  Co0_0  1  0.25000000  0.16664700  0.16664700  1
  Co  Co0_1  1  0.25000000  0.16664700  0.66664700  1
  Co  Co0_2  1  0.25000000  0.66664700  0.16664700  1
  Co  Co0_3  1  0.25000000  0.66664700  0.66664700  1
  Co  Co0_4  1  0.75000000  0.16664700  0.16664700  1
  Co  Co0_5  1  0.75000000  0.16664700  0.66664700  1
  Co  Co0_6  1  0.75000000  0.66664700  0.16664700  1
  Co  Co0_7  1  0.75000000  0.66664700  0.66664700  1
  Sn  Sn0_0  1  0.00000000  0.49999750  0.49999750  1
  Sn  Sn0_1  1  0.00000000  0.49999750  0.99999750  1
  Sn  Sn0_2  1  0.00000000  0.99999750  0.49999750  1
  Sn  Sn0_3  1  0.00000000  0.99999750  0.99999750  1
  Sn  Sn0_4  1  0.50000000  0.49999750  0.49999750  1
  Sn  Sn0_5  1  0.50000000  0.49999750  0.99999750  1
  Sn  Sn0_6  1  0.50000000  0.99999750  0.49999750  1
  Sn  Sn0_7  1  0.50000000  0.99999750  0.99999750  1
loop_
_geom_bond_atom_site_label_1
_geom_bond_atom_site_label_2
_geom_bond_distance
_geom_bond_site_symmetry_2
Fe0_0 Sn0_0 2.768701 1_555
Fe0_0 Sn0_4 2.768701 1_555
Fe0_0 Sn0_1 2.769875 1_554
Fe0_0 Sn0_5 2.769875 1_554
Fe0_0 Sn0_2 2.769875 1_545
Fe0_0 Sn0_6 2.769875 1_545
Fe0_0 Fe0_4 2.960718 1_555
Fe0_0 Fe0_4 2.960718 1_455
Fe0_1 Sn0_1 2.768701 1_555
Fe0_1 Sn0_5 2.768701 1_555
Fe0_1 Sn0_3 2.769875 1_545
Fe0_1 Sn0_7 2.769875 1_545
Fe0_1 Sn0_4 2.769875 1_555
Fe0_1 Sn0_0 2.769875 1_555
Fe0_1 Fe0_5 2.960718 1_555
Fe0_1 Fe0_5 2.960718 1_455
Fe0_2 Sn0_6 2.768701 1_555
Fe0_2 Sn0_2 2.768701 1_555
Fe0_2 Sn0_4 2.769875 1_555
Fe0_2 Sn0_7 2.769875 1_554
Fe0_2 Sn0_0 2.769875 1_555
Fe0_2 Sn0_3 2.769875 1_554
Fe0_2 Fe0_6 2.960718 1_555
Fe0_2 Fe0_6 2.960718 1_455
Fe0_3 Sn0_3 2.768701 1_555
Fe0_3 Sn0_7 2.768701 1_555
Fe0_3 Sn0_1 2.769875 1_555
Fe0_3 Sn0_5 2.769875 1_555
Fe0_3 Sn0_2 2.769875 1_555
Fe0_3 Sn0_6 2.769875 1_555
Fe0_3 Fe0_7 2.960718 1_455
Fe0_3 Fe0_7 2.960718 1_555
Fe0_4 Sn0_0 2.768701 1_655
Fe0_4 Sn0_4 2.768701 1_555
Fe0_4 Sn0_5 2.769875 1_554
Fe0_4 Sn0_1 2.769875 1_654
Fe0_4 Sn0_2 2.769875 1_645
Fe0_4 Sn0_6 2.769875 1_545
Fe0_5 Sn0_5 2.768701 1_555
Fe0_5 Sn0_1 2.768701 1_655
Fe0_5 Sn0_7 2.769875 1_545
Fe0_5 Sn0_3 2.769875 1_645
Fe0_5 Sn0_4 2.769875 1_555
Fe0_5 Sn0_0 2.769875 1_655
Fe0_6 Sn0_6 2.768701 1_555
Fe0_6 Sn0_2 2.768701 1_655
Fe0_6 Sn0_4 2.769875 1_555
Fe0_6 Sn0_7 2.769875 1_554
Fe0_6 Sn0_3 2.769875 1_654
Fe0_6 Sn0_0 2.769875 1_655
Fe0_7 Sn0_7 2.768701 1_555
Fe0_7 Sn0_3 2.768701 1_655
Fe0_7 Sn0_5 2.769875 1_555
Fe0_7 Sn0_1 2.769875 1_655
Fe0_7 Sn0_6 2.769875 1_555
Fe0_7 Sn0_2 2.769875 1_655
Co0_0 Fe0_2 2.340633 1_545
Co0_0 Fe0_1 2.340633 1_554
Co0_0 Fe0_0 2.340643 1_555
Co0_0 Sn0_3 2.768790 1_544
Co0_0 Sn0_7 2.768790 1_544
Co0_0 Sn0_2 2.769831 1_545
Co0_0 Sn0_6 2.769831 1_545
Co0_0 Sn0_1 2.769831 1_554
Co0_0 Sn0_5 2.769831 1_554
Co0_0 Co0_4 2.960718 1_555
Co0_0 Co0_4 2.960718 1_455
Co0_1 Fe0_3 2.340633 1_545
Co0_1 Fe0_0 2.340633 1_555
Co0_1 Fe0_1 2.340643 1_555
Co0_1 Sn0_2 2.768790 1_545
Co0_1 Sn0_6 2.768790 1_545
Co0_1 Sn0_3 2.769831 1_545
Co0_1 Sn0_7 2.769831 1_545
Co0_1 Sn0_0 2.769831 1_555
Co0_1 Sn0_4 2.769831 1_555
Co0_1 Co0_5 2.960718 1_455
Co0_1 Co0_5 2.960718 1_555
Co0_2 Fe0_3 2.340633 1_554
Co0_2 Fe0_0 2.340633 1_555
Co0_2 Fe0_2 2.340643 1_555
Co0_2 Sn0_1 2.768790 1_554
Co0_2 Sn0_5 2.768790 1_554
Co0_2 Sn0_4 2.769831 1_555
Co0_2 Sn0_0 2.769831 1_555
Co0_2 Sn0_7 2.769831 1_554
Co0_2 Sn0_3 2.769831 1_554
Co0_2 Co0_6 2.960718 1_455
Co0_2 Co0_6 2.960718 1_555
Co0_3 Fe0_1 2.340633 1_555
Co0_3 Fe0_2 2.340633 1_555
Co0_3 Fe0_3 2.340643 1_555
Co0_3 Sn0_4 2.768790 1_555
Co0_3 Sn0_0 2.768790 1_555
Co0_3 Sn0_6 2.769831 1_555
Co0_3 Sn0_1 2.769831 1_555
Co0_3 Sn0_5 2.769831 1_555
Co0_3 Sn0_2 2.769831 1_555
Co0_3 Co0_7 2.960718 1_455
Co0_3 Co0_7 2.960718 1_555
Co0_4 Fe0_5 2.340633 1_554
Co0_4 Fe0_6 2.340633 1_545
Co0_4 Fe0_4 2.340643 1_555
Co0_4 Sn0_3 2.768790 1_644
Co0_4 Sn0_7 2.768790 1_544
Co0_4 Sn0_6 2.769831 1_545
Co0_4 Sn0_2 2.769831 1_645
Co0_4 Sn0_1 2.769831 1_654
Co0_4 Sn0_5 2.769831 1_554
Co0_5 Fe0_7 2.340633 1_545
Co0_5 Fe0_4 2.340633 1_555
Co0_5 Fe0_5 2.340643 1_555
Co0_5 Sn0_6 2.768790 1_545
Co0_5 Sn0_2 2.768790 1_645
Co0_5 Sn0_7 2.769831 1_545
Co0_5 Sn0_3 2.769831 1_645
Co0_5 Sn0_4 2.769831 1_555
Co0_5 Sn0_0 2.769831 1_655
Co0_6 Fe0_7 2.340633 1_554
Co0_6 Fe0_4 2.340633 1_555
Co0_6 Fe0_6 2.340643 1_555
Co0_6 Sn0_1 2.768790 1_654
Co0_6 Sn0_5 2.768790 1_554
Co0_6 Sn0_0 2.769831 1_655
Co0_6 Sn0_4 2.769831 1_555
Co0_6 Sn0_7 2.769831 1_554
Co0_6 Sn0_3 2.769831 1_654
Co0_7 Fe0_5 2.340633 1_555
Co0_7 Fe0_6 2.340633 1_555
Co0_7 Fe0_7 2.340643 1_555
Co0_7 Sn0_4 2.768790 1_555
Co0_7 Sn0_0 2.768790 1_655
Co0_7 Sn0_6 2.769831 1_555
Co0_7 Sn0_2 2.769831 1_655
Co0_7 Sn0_5 2.769831 1_555
Co0_7 Sn0_1 2.769831 1_655
Sn0_0 Sn0_4 2.960718 1_555
Sn0_0 Sn0_4 2.960718 1_455
Sn0_1 Sn0_5 2.960718 1_555
Sn0_1 Sn0_5 2.960718 1_455
Sn0_2 Sn0_6 2.960718 1_555
Sn0_2 Sn0_6 2.960718 1_455
Sn0_3 Sn0_7 2.960718 1_455
Sn0_3 Sn0_7 2.960718 1_555
