# generated using pymatgen
data_Tb2AlCo2
_symmetry_space_group_name_H-M   'P 1'
_cell_length_a   4.02036829
_cell_length_b   5.36946761
_cell_length_c   5.36946884
_cell_angle_alpha   60.89246191
_cell_angle_beta   68.01443396
_cell_angle_gamma   68.01444005
_symmetry_Int_Tables_number   1
_chemical_formula_structural   Tb2AlCo2
_chemical_formula_sum   'Tb2 Al1 Co2'
_cell_volume   91.22597177
_cell_formula_units_Z   1
loop_
 _symmetry_equiv_pos_site_id
 _symmetry_equiv_pos_as_xyz
  1  'x, y, z'
loop_
 _atom_site_type_symbol
 _atom_site_label
 _atom_site_symmetry_multiplicity
 _atom_site_fract_x
 _atom_site_fract_y
 _atom_site_fract_z
 _atom_site_occupancy
  Tb  Tb0  1  0.20441167  0.29558833  0.29558833  1
  Tb  Tb1  1  0.79558833  0.70441167  0.70441167  1
  Al  Al0  1  0.00000000  -0.00000000  0.00000000  1
  Co  Co0  1  0.50000000  0.27791992  0.72208008  1
  Co  Co1  1  0.50000000  0.72208008  0.27791992  1
loop_
_geom_bond_atom_site_label_1
_geom_bond_atom_site_label_2
_geom_bond_distance
_geom_bond_site_symmetry_2
Al0 Co1 2.515570 1_445
Al0 Co0 2.515570 1_554
Al0 Co0 2.515571 1_454
Al0 Co1 2.515571 1_545
Al0 Tb1 3.180802 1_444
Al0 Tb0 3.180802 1_555
Al0 Tb1 3.180802 1_544
Al0 Tb0 3.180802 1_455
Al0 Tb0 3.210788 1_545
Al0 Tb1 3.210788 1_454
Al0 Tb0 3.210789 1_554
Al0 Tb1 3.210789 1_445
Co0 Co1 2.417003 1_555
Co0 Tb1 2.892043 1_545
Co0 Tb0 2.892043 1_556
Co0 Tb1 2.899544 1_555
Co0 Tb0 2.899544 1_655
Co0 Tb1 2.899544 1_455
Co0 Tb0 2.899544 1_555
Co1 Tb0 2.892043 1_565
Co1 Tb1 2.892043 1_554
Co1 Tb0 2.899544 1_555
Co1 Tb1 2.899544 1_455
Co1 Tb0 2.899544 1_655
Co1 Tb1 2.899544 1_555
