# generated using pymatgen
data_Hg5N3O11
_symmetry_space_group_name_H-M   'P 1'
_cell_length_a   8.19614539
_cell_length_b   9.18047649
_cell_length_c   10.16421294
_cell_angle_alpha   109.69980843
_cell_angle_beta   99.66407326
_cell_angle_gamma   93.95325338
_symmetry_Int_Tables_number   1
_chemical_formula_structural   Hg5N3O11
_chemical_formula_sum   'Hg10 N6 O22'
_cell_volume   703.29809673
_cell_formula_units_Z   2
loop_
 _symmetry_equiv_pos_site_id
 _symmetry_equiv_pos_as_xyz
  1  'x, y, z'
loop_
 _atom_site_type_symbol
 _atom_site_label
 _atom_site_symmetry_multiplicity
 _atom_site_fract_x
 _atom_site_fract_y
 _atom_site_fract_z
 _atom_site_occupancy
  Hg  Hg0  1  0.65489900  0.76369700  0.25803100  1
  Hg  Hg1  1  0.34510100  0.23630300  0.74196900  1
  Hg  Hg2  1  0.71996200  0.05623200  0.28746900  1
  Hg  Hg3  1  0.28003800  0.94376800  0.71253100  1
  Hg  Hg4  1  0.60244400  0.43215900  0.41865600  1
  Hg  Hg5  1  0.39755600  0.56784100  0.58134400  1
  Hg  Hg6  1  0.73187900  0.36269400  0.09431500  1
  Hg  Hg7  1  0.26812100  0.63730600  0.90568500  1
  Hg  Hg8  1  0.83673700  0.15400500  0.89003600  1
  Hg  Hg9  1  0.16326300  0.84599500  0.10996400  1
  N  N0  1  0.27651800  0.20424800  0.06828300  1
  N  N1  1  0.72348200  0.79575200  0.93171700  1
  N  N2  1  0.90922800  0.36660200  0.68635100  1
  N  N3  1  0.09077200  0.63339800  0.31364900  1
  N  N4  1  0.20008600  0.12334200  0.39182400  1
  N  N5  1  0.79991400  0.87665900  0.60817600  1
  O  O0  1  0.76723200  0.29126100  0.30070900  1
  O  O1  1  0.23276800  0.70873900  0.69929100  1
  O  O2  1  0.58403000  0.52349800  0.21437700  1
  O  O3  1  0.41597000  0.47650200  0.78562300  1
  O  O4  1  0.15870700  0.09344100  0.99505800  1
  O  O5  1  0.84129300  0.90655900  0.00494200  1
  O  O6  1  0.40342500  0.17519400  0.13837000  1
  O  O7  1  0.59657500  0.82480600  0.86163000  1
  O  O8  1  0.26338300  0.33919100  0.06569300  1
  O  O9  1  0.73661700  0.66080900  0.93430700  1
  O  O10  1  0.92083600  0.47749600  0.64140200  1
  O  O11  1  0.07916400  0.52250400  0.35859800  1
  O  O12  1  0.02244400  0.36320100  0.78823000  1
  O  O13  1  0.97755600  0.63679900  0.21177000  1
  O  O14  1  0.78779100  0.25902200  0.63385300  1
  O  O15  1  0.21220900  0.74097800  0.36614700  1
  O  O16  1  0.08322300  0.04493400  0.27936600  1
  O  O17  1  0.91677700  0.95506600  0.72063400  1
  O  O18  1  0.34516900  0.08916800  0.39928100  1
  O  O19  1  0.65483100  0.91083200  0.60071900  1
  O  O20  1  0.15645900  0.23087500  0.48811400  1
  O  O21  1  0.84354100  0.76912500  0.51188600  1
loop_
_geom_bond_atom_site_label_1
_geom_bond_atom_site_label_2
_geom_bond_distance
_geom_bond_site_symmetry_2
Hg0 O2 2.115212 1_555
Hg1 O3 2.115212 1_555
Hg2 O0 2.120202 1_555
Hg3 O1 2.120202 1_555
Hg4 O0 2.161858 1_555
Hg4 O2 2.474497 1_555
Hg5 O1 2.161858 1_555
Hg5 O3 2.474497 1_555
Hg6 O2 2.159998 1_555
Hg6 O0 2.380028 1_555
Hg7 O3 2.159998 1_555
Hg7 O1 2.380028 1_555
Hg8 O17 2.270464 1_545
Hg9 O16 2.270464 1_565
N0 O6 1.256231 1_555
N0 O8 1.259538 1_555
N0 O4 1.278270 1_554
N1 O7 1.256231 1_555
N1 O9 1.259538 1_555
N1 O5 1.278270 1_556
N2 O10 1.252615 1_555
N2 O14 1.257638 1_555
N2 O12 1.279656 1_655
N3 O11 1.252615 1_555
N3 O15 1.257638 1_555
N3 O13 1.279656 1_455
N4 O18 1.247155 1_555
N4 O20 1.255025 1_555
N4 O16 1.313304 1_555
N5 O19 1.247152 1_555
N5 O21 1.255030 1_555
N5 O17 1.313302 1_555
