# generated using pymatgen
data_YCr3O9
_symmetry_space_group_name_H-M   'P 1'
_cell_length_a   3.68525400
_cell_length_b   3.68525400
_cell_length_c   11.52105900
_cell_angle_alpha   90.00000000
_cell_angle_beta   90.00000000
_cell_angle_gamma   90.00000000
_symmetry_Int_Tables_number   1
_chemical_formula_structural   YCr3O9
_chemical_formula_sum   'Y1 Cr3 O9'
_cell_volume   156.46862033
_cell_formula_units_Z   1
loop_
 _symmetry_equiv_pos_site_id
 _symmetry_equiv_pos_as_xyz
  1  'x, y, z'
loop_
 _atom_site_type_symbol
 _atom_site_label
 _atom_site_symmetry_multiplicity
 _atom_site_fract_x
 _atom_site_fract_y
 _atom_site_fract_z
 _atom_site_occupancy
  Y  Y0  1  0.00000000  0.00000000  0.00000000  1
  Cr  Cr0  1  0.50000000  0.50000000  0.18448800  1
  Cr  Cr1  1  0.50000000  0.50000000  0.50000000  1
  Cr  Cr2  1  0.50000000  0.50000000  0.81551200  1
  O  O0  1  0.50000000  0.50000000  0.00000000  1
  O  O1  1  0.50000000  0.50000000  0.32775400  1
  O  O2  1  0.50000000  0.50000000  0.67224600  1
  O  O3  1  0.50000000  0.00000000  0.14697700  1
  O  O4  1  0.50000000  0.00000000  0.50000000  1
  O  O5  1  0.50000000  0.00000000  0.85302300  1
  O  O6  1  0.00000000  0.50000000  0.14697700  1
  O  O7  1  0.00000000  0.50000000  0.50000000  1
  O  O8  1  0.00000000  0.50000000  0.85302300  1
loop_
_geom_bond_atom_site_label_1
_geom_bond_atom_site_label_2
_geom_bond_distance
_geom_bond_site_symmetry_2
Cr0 O1 1.650576 1_555
Cr0 O6 1.892628 1_555
Cr0 O3 1.892628 1_565
Cr0 O6 1.892628 1_655
Cr0 O3 1.892628 1_555
Cr0 O0 2.125497 1_555
Cr1 O4 1.842627 1_565
Cr1 O7 1.842627 1_555
Cr1 O4 1.842627 1_555
Cr1 O7 1.842627 1_655
Cr1 O2 1.984456 1_555
Cr1 O1 1.984456 1_555
Cr2 O2 1.650576 1_555
Cr2 O8 1.892628 1_555
Cr2 O5 1.892628 1_555
Cr2 O8 1.892628 1_655
Cr2 O5 1.892628 1_565
Cr2 O0 2.125497 1_556
O0 Y0 2.605868 1_655
O0 Y0 2.605868 1_555
O0 Y0 2.605868 1_565
O0 Y0 2.605868 1_665
O3 Y0 2.502527 1_555
O3 Y0 2.502527 1_655
O5 Y0 2.502527 1_556
O5 Y0 2.502527 1_656
O6 Y0 2.502527 1_565
O6 Y0 2.502527 1_555
O8 Y0 2.502527 1_556
O8 Y0 2.502527 1_566
