# generated using pymatgen
data_ZnSiO3
_symmetry_space_group_name_H-M   'P 1'
_cell_length_a   7.55239864
_cell_length_b   7.55239864
_cell_length_c   7.55239864
_cell_angle_alpha   137.09853607
_cell_angle_beta   102.27344978
_cell_angle_gamma   93.14694167
_symmetry_Int_Tables_number   1
_chemical_formula_structural   ZnSiO3
_chemical_formula_sum   'Zn4 Si4 O12'
_cell_volume   271.80308299
_cell_formula_units_Z   4
loop_
 _symmetry_equiv_pos_site_id
 _symmetry_equiv_pos_as_xyz
  1  'x, y, z'
loop_
 _atom_site_type_symbol
 _atom_site_label
 _atom_site_symmetry_multiplicity
 _atom_site_fract_x
 _atom_site_fract_y
 _atom_site_fract_z
 _atom_site_occupancy
  Zn  Zn0  1  0.29082800  0.54082800  0.25000000  1
  Zn  Zn1  1  0.70917200  0.95917200  0.25000000  1
  Zn  Zn2  1  0.70917200  0.45917200  0.75000000  1
  Zn  Zn3  1  0.29082800  0.04082800  0.75000000  1
  Si  Si0  1  0.13868400  0.41907100  0.71961400  1
  Si  Si1  1  0.86131600  0.58092900  0.28038600  1
  Si  Si2  1  0.69945700  0.91907100  0.78038600  1
  Si  Si3  1  0.30054300  0.08092900  0.21961400  1
  O  O0  1  0.18710100  0.25000000  0.43710100  1
  O  O1  1  0.81289900  0.25000000  0.06289900  1
  O  O2  1  0.81289900  0.75000000  0.56289900  1
  O  O3  1  0.18710100  0.75000000  0.93710100  1
  O  O4  1  0.31894200  0.20515600  0.11378600  1
  O  O5  1  0.68105800  0.79484400  0.88621400  1
  O  O6  1  0.09137000  0.70515600  0.38621400  1
  O  O7  1  0.90863000  0.29484400  0.61378600  1
  O  O8  1  0.50809000  0.12159900  0.38649100  1
  O  O9  1  0.49191000  0.87840100  0.61350900  1
  O  O10  1  0.73510800  0.62159900  0.11350900  1
  O  O11  1  0.26489200  0.37840100  0.88649100  1
loop_
_geom_bond_atom_site_label_1
_geom_bond_atom_site_label_2
_geom_bond_distance
_geom_bond_site_symmetry_2
O0 Si3 1.645643 1_555
O0 Si0 1.645647 1_555
O1 Si1 1.645642 1_555
O1 Si2 1.645643 1_544
O2 Si2 1.645643 1_555
O2 Si1 1.645647 1_555
O3 Si0 1.645642 1_555
O3 Si3 1.645643 1_566
O4 Si3 1.633971 1_555
O4 Zn3 1.965043 1_554
O4 Zn0 1.965043 1_555
O5 Si2 1.633971 1_555
O5 Zn1 1.965043 1_556
O5 Zn2 1.965043 1_555
O6 Si1 1.633964 1_455
O6 Zn3 1.965043 1_565
O6 Zn0 1.965043 1_555
O7 Si0 1.633964 1_655
O7 Zn1 1.965043 1_545
O7 Zn2 1.965043 1_555
O8 Si3 1.637019 1_555
O8 Zn1 1.972624 1_545
O8 Zn2 1.972624 1_555
O9 Si2 1.637019 1_555
O9 Zn3 1.972624 1_565
O9 Zn0 1.972624 1_555
O10 Si1 1.637022 1_555
O10 Zn2 1.972624 1_554
O10 Zn1 1.972624 1_555
O11 Si0 1.637022 1_555
O11 Zn0 1.972624 1_556
O11 Zn3 1.972624 1_555
