# generated using pymatgen
data_NaFeSnO4
_symmetry_space_group_name_H-M   'P 1'
_cell_length_a   3.12111900
_cell_length_b   9.45848900
_cell_length_c   11.15064700
_cell_angle_alpha   90.00000000
_cell_angle_beta   90.00000000
_cell_angle_gamma   90.00000000
_symmetry_Int_Tables_number   1
_chemical_formula_structural   NaFeSnO4
_chemical_formula_sum   'Na4 Fe4 Sn4 O16'
_cell_volume   329.17902761
_cell_formula_units_Z   4
loop_
 _symmetry_equiv_pos_site_id
 _symmetry_equiv_pos_as_xyz
  1  'x, y, z'
loop_
 _atom_site_type_symbol
 _atom_site_label
 _atom_site_symmetry_multiplicity
 _atom_site_fract_x
 _atom_site_fract_y
 _atom_site_fract_z
 _atom_site_occupancy
  Na  Na0  1  0.00000000  0.75708200  0.09908900  1
  Na  Na1  1  0.00000000  0.25708200  0.90091100  1
  Na  Na2  1  0.50000000  0.24091400  0.40391000  1
  Na  Na3  1  0.50000000  0.74091400  0.59609000  1
  Fe  Fe0  1  0.00000000  0.41920000  0.64451300  1
  Fe  Fe1  1  0.00000000  0.91920000  0.35548700  1
  Fe  Fe2  1  0.00000000  0.43479000  0.13599400  1
  Fe  Fe3  1  0.00000000  0.93479000  0.86400600  1
  Sn  Sn0  1  0.50000000  0.58365100  0.85299400  1
  Sn  Sn1  1  0.50000000  0.08365100  0.14700600  1
  Sn  Sn2  1  0.50000000  0.56264900  0.36244200  1
  Sn  Sn3  1  0.50000000  0.06264900  0.63755800  1
  O  O0  1  0.00000000  0.41896900  0.32250300  1
  O  O1  1  0.00000000  0.91896900  0.67749700  1
  O  O2  1  0.50000000  0.57395900  0.17499600  1
  O  O3  1  0.50000000  0.07395900  0.82500400  1
  O  O4  1  0.00000000  0.20670400  0.59540700  1
  O  O5  1  0.00000000  0.70670400  0.40459300  1
  O  O6  1  0.50000000  0.79699700  0.90460400  1
  O  O7  1  0.50000000  0.29699700  0.09539600  1
  O  O8  1  0.00000000  0.52251900  0.96705800  1
  O  O9  1  0.00000000  0.02251900  0.03294200  1
  O  O10  1  0.50000000  0.47860700  0.53609100  1
  O  O11  1  0.50000000  0.97860700  0.46390900  1
  O  O12  1  0.00000000  0.11888700  0.27094700  1
  O  O13  1  0.00000000  0.61888700  0.72905300  1
  O  O14  1  0.50000000  0.88507100  0.23527400  1
  O  O15  1  0.50000000  0.38507100  0.76472600  1
loop_
_geom_bond_atom_site_label_1
_geom_bond_atom_site_label_2
_geom_bond_distance
_geom_bond_site_symmetry_2
Na0 O2 2.480285 1_555
Na0 O2 2.480285 1_455
Na0 O14 2.491356 1_555
Na0 O14 2.491356 1_455
Na0 O9 2.616736 1_565
Na0 O8 2.662649 1_554
Na0 O6 2.698305 1_454
Na0 O6 2.698305 1_554
Na1 O3 2.480285 1_455
Na1 O3 2.480285 1_555
Na1 O15 2.491356 1_455
Na1 O15 2.491356 1_555
Na1 O8 2.616736 1_555
Na1 O9 2.662649 1_556
Na1 O7 2.698305 1_556
Na1 O7 2.698305 1_456
Na2 O12 2.442473 1_555
Na2 O12 2.442473 1_655
Na2 O0 2.468934 1_555
Na2 O0 2.468934 1_655
Na2 O11 2.569649 1_545
Na2 O4 2.664511 1_555
Na2 O4 2.664511 1_655
Na2 O10 2.688284 1_555
Na3 O13 2.442473 1_555
Na3 O13 2.442473 1_655
Na3 O1 2.468934 1_555
Na3 O1 2.468934 1_655
Na3 O10 2.569649 1_555
Na3 O5 2.664511 1_555
Na3 O5 2.664511 1_655
Na3 O11 2.688284 1_555
Fe0 O10 2.052486 1_555
Fe0 O10 2.052486 1_455
Fe0 O15 2.082394 1_555
Fe0 O15 2.082394 1_455
Fe0 O4 2.083144 1_555
Fe0 O13 2.110916 1_555
Fe1 O11 2.052486 1_555
Fe1 O11 2.052486 1_455
Fe1 O14 2.082394 1_555
Fe1 O14 2.082394 1_455
Fe1 O5 2.083144 1_555
Fe1 O12 2.110916 1_565
Fe2 O8 2.058407 1_554
Fe2 O7 2.083004 1_455
Fe2 O7 2.083004 1_555
Fe2 O0 2.085073 1_555
Fe2 O2 2.087391 1_555
Fe2 O2 2.087391 1_455
Fe3 O9 2.058407 1_566
Fe3 O6 2.083004 1_555
Fe3 O6 2.083004 1_455
Fe3 O1 2.085073 1_555
Fe3 O3 2.087391 1_465
Fe3 O3 2.087391 1_565
O0 Sn2 2.116731 1_555
O0 Sn2 2.116731 1_455
O1 Sn3 2.116731 1_565
O1 Sn3 2.116731 1_465
O2 Sn2 2.092880 1_555
O3 Sn3 2.092880 1_555
O4 Sn3 2.124330 1_455
O4 Sn3 2.124330 1_555
O5 Sn2 2.124330 1_555
O5 Sn2 2.124330 1_455
O6 Sn0 2.098387 1_555
O7 Sn1 2.098387 1_555
O8 Sn0 2.094607 1_555
O8 Sn0 2.094607 1_455
O9 Sn1 2.094607 1_555
O9 Sn1 2.094607 1_455
O10 Sn2 2.093116 1_555
O11 Sn3 2.093116 1_565
O12 Sn1 2.111020 1_555
O12 Sn1 2.111020 1_455
O13 Sn0 2.111020 1_455
O13 Sn0 2.111020 1_555
O14 Sn1 2.120525 1_565
O15 Sn0 2.120525 1_555
