# generated using pymatgen
data_Mg(InSe2)2
_symmetry_space_group_name_H-M   'P 1'
_cell_length_a   13.69922558
_cell_length_b   13.69922558
_cell_length_c   13.69922614
_cell_angle_alpha   17.17839071
_cell_angle_beta   17.17839071
_cell_angle_gamma   17.17839344
_symmetry_Int_Tables_number   1
_chemical_formula_structural   Mg(InSe2)2
_chemical_formula_sum   'Mg1 In2 Se4'
_cell_volume   195.67112412
_cell_formula_units_Z   1
loop_
 _symmetry_equiv_pos_site_id
 _symmetry_equiv_pos_as_xyz
  1  'x, y, z'
loop_
 _atom_site_type_symbol
 _atom_site_label
 _atom_site_symmetry_multiplicity
 _atom_site_fract_x
 _atom_site_fract_y
 _atom_site_fract_z
 _atom_site_occupancy
  Mg  Mg0  1  -0.00000000  -0.00000000  0.00000000  1
  In  In0  1  0.76199211  0.76199211  0.76199211  1
  In  In1  1  0.23800789  0.23800789  0.23800789  1
  Se  Se0  1  0.87481720  0.87481720  0.87481720  1
  Se  Se1  1  0.70011359  0.70011359  0.70011359  1
  Se  Se2  1  0.12518280  0.12518280  0.12518280  1
  Se  Se3  1  0.29988641  0.29988641  0.29988641  1
loop_
_geom_bond_atom_site_label_1
_geom_bond_atom_site_label_2
_geom_bond_distance
_geom_bond_site_symmetry_2
Mg0 Se1 2.722976 1_454
Mg0 Se3 2.722976 1_545
Mg0 Se1 2.722976 1_544
Mg0 Se3 2.722976 1_455
Mg0 Se1 2.722976 1_445
Mg0 Se3 2.722976 1_554
In0 Se1 2.504963 1_555
In0 Se2 2.653716 1_665
In0 Se2 2.653716 1_566
In0 Se2 2.653716 1_656
In1 Se3 2.504963 1_555
In1 Se0 2.653716 1_445
In1 Se0 2.653716 1_454
In1 Se0 2.653716 1_544
