# generated using pymatgen
data_Ce8Ag6Ge8O
_symmetry_space_group_name_H-M   'P 1'
_cell_length_a   4.39935589
_cell_length_b   11.09072332
_cell_length_c   20.69768106
_cell_angle_alpha   90.00000000
_cell_angle_beta   90.00000000
_cell_angle_gamma   90.00000000
_symmetry_Int_Tables_number   1
_chemical_formula_structural   Ce8Ag6Ge8O
_chemical_formula_sum   'Ce16 Ag12 Ge16 O2'
_cell_volume   1009.88206071
_cell_formula_units_Z   2
loop_
 _symmetry_equiv_pos_site_id
 _symmetry_equiv_pos_as_xyz
  1  'x, y, z'
loop_
 _atom_site_type_symbol
 _atom_site_label
 _atom_site_symmetry_multiplicity
 _atom_site_fract_x
 _atom_site_fract_y
 _atom_site_fract_z
 _atom_site_occupancy
  Ce  Ce0  1  0.25000000  0.70642236  0.34926123  1
  Ce  Ce1  1  0.25000000  0.79357764  0.84926123  1
  Ce  Ce2  1  0.75000000  0.28914170  0.65058418  1
  Ce  Ce3  1  0.75000000  0.21085830  0.15058418  1
  Ce  Ce4  1  0.25000000  0.13243120  0.89510243  1
  Ce  Ce5  1  0.25000000  0.36756880  0.39510243  1
  Ce  Ce6  1  0.75000000  0.86685622  0.10448995  1
  Ce  Ce7  1  0.75000000  0.63314378  0.60448995  1
  Ce  Ce8  1  0.25000000  0.13075829  0.53476016  1
  Ce  Ce9  1  0.25000000  0.36924171  0.03476016  1
  Ce  Ce10  1  0.75000000  0.87086440  0.46849981  1
  Ce  Ce11  1  0.75000000  0.62913560  0.96849981  1
  Ce  Ce12  1  0.25000000  0.04662390  0.71258741  1
  Ce  Ce13  1  0.25000000  0.45337610  0.21258741  1
  Ce  Ce14  1  0.75000000  0.95801698  0.28386805  1
  Ce  Ce15  1  0.75000000  0.54198302  0.78386805  1
  Ag  Ag0  1  0.25000000  0.65405134  0.09498624  1
  Ag  Ag1  1  0.25000000  0.84594866  0.59498624  1
  Ag  Ag2  1  0.75000000  0.34773363  0.90507366  1
  Ag  Ag3  1  0.75000000  0.15226637  0.40507366  1
  Ag  Ag4  1  0.25000000  0.33307373  0.78167870  1
  Ag  Ag5  1  0.25000000  0.16692627  0.28167870  1
  Ag  Ag6  1  0.75000000  0.67027500  0.22148260  1
  Ag  Ag7  1  0.75000000  0.82972500  0.72148260  1
  Ag  Ag8  1  0.25000000  0.05623111  0.04543792  1
  Ag  Ag9  1  0.25000000  0.44376889  0.54543792  1
  Ag  Ag10  1  0.75000000  0.93890973  0.95278097  1
  Ag  Ag11  1  0.75000000  0.56109027  0.45278097  1
  Ge  Ge0  1  0.25000000  0.01490655  0.17688083  1
  Ge  Ge1  1  0.25000000  0.48509345  0.67688083  1
  Ge  Ge2  1  0.75000000  0.97914801  0.82404141  1
  Ge  Ge3  1  0.75000000  0.52085199  0.32404141  1
  Ge  Ge4  1  0.25000000  0.49479160  0.89146591  1
  Ge  Ge5  1  0.25000000  0.00520840  0.39146591  1
  Ge  Ge6  1  0.75000000  0.52054506  0.10732454  1
  Ge  Ge7  1  0.75000000  0.97945494  0.60732454  1
  Ge  Ge8  1  0.25000000  0.79841023  0.21134759  1
  Ge  Ge9  1  0.25000000  0.70158977  0.71134759  1
  Ge  Ge10  1  0.75000000  0.20111750  0.78932971  1
  Ge  Ge11  1  0.75000000  0.29888250  0.28932971  1
  Ge  Ge12  1  0.25000000  0.81799047  0.99682608  1
  Ge  Ge13  1  0.25000000  0.68200953  0.49682608  1
  Ge  Ge14  1  0.75000000  0.18025552  0.00247293  1
  Ge  Ge15  1  0.75000000  0.31974448  0.50247293  1
  O  O0  1  0.25000000  0.19906306  0.63871768  1
  O  O1  1  0.25000000  0.30093694  0.13871768  1
loop_
_geom_bond_atom_site_label_1
_geom_bond_atom_site_label_2
_geom_bond_distance
_geom_bond_site_symmetry_2
Ce0 Ge8 3.031330 1_555
Ce0 Ge3 3.057266 1_455
Ce0 Ge3 3.057266 1_555
Ce0 Ge13 3.066228 1_555
Ce0 Ge5 3.426957 1_565
Ce1 Ge9 3.031330 1_555
Ce1 Ge2 3.057266 1_455
Ce1 Ge2 3.057266 1_555
Ce1 Ge12 3.066228 1_555
Ce1 Ge4 3.426957 1_555
Ce2 O0 2.428370 1_655
Ce2 O0 2.428370 1_555
Ce2 Ge10 3.033116 1_555
Ce2 Ge15 3.084291 1_555
Ce2 Ge1 3.139717 1_655
Ce2 Ge1 3.139717 1_555
Ce2 Ge7 3.549439 1_545
Ce3 O1 2.428370 1_555
Ce3 O1 2.428370 1_655
Ce3 Ge11 3.033116 1_555
Ce3 Ge14 3.084291 1_555
Ce3 Ge0 3.139717 1_555
Ce3 Ge0 3.139717 1_655
Ce3 Ge6 3.549439 1_555
Ce4 Ge2 3.145140 1_545
Ce4 Ge2 3.145140 1_445
Ce4 Ge14 3.171533 1_556
Ce4 Ge14 3.171533 1_456
Ce4 Ge10 3.195576 1_455
Ce4 Ge10 3.195576 1_555
Ce5 Ge3 3.145140 1_455
Ce5 Ge3 3.145140 1_555
Ce5 Ge15 3.171533 1_555
Ce5 Ge15 3.171533 1_455
Ce5 Ge11 3.195576 1_455
Ce5 Ge11 3.195576 1_555
Ce6 Ge0 3.127247 1_665
Ce6 Ge0 3.127247 1_565
Ce6 Ge12 3.177740 1_554
Ce6 Ge12 3.177740 1_654
Ce6 Ge8 3.210371 1_555
Ce6 Ge8 3.210371 1_655
Ce7 Ge1 3.127247 1_555
Ce7 Ge1 3.127247 1_655
Ce7 Ge13 3.177740 1_555
Ce7 Ge13 3.177740 1_655
Ce7 Ge9 3.210371 1_655
Ce7 Ge9 3.210371 1_555
Ce8 O0 2.281141 1_555
Ce8 Ge15 3.111006 1_455
Ce8 Ge15 3.111006 1_555
Ce8 Ge7 3.148051 1_545
Ce8 Ge7 3.148051 1_445
Ce8 Ge5 3.276462 1_555
Ce9 O1 2.281141 1_555
Ce9 Ge14 3.111006 1_555
Ce9 Ge14 3.111006 1_455
Ce9 Ge6 3.148051 1_455
Ce9 Ge6 3.148051 1_555
Ce9 Ge4 3.276462 1_554
Ce10 Ge13 3.093445 1_555
Ce10 Ge13 3.093445 1_655
Ce10 Ge5 3.098513 1_565
Ce10 Ge5 3.098513 1_665
Ce10 Ge7 3.115541 1_555
Ce11 Ge12 3.093445 1_555
Ce11 Ge12 3.093445 1_655
Ce11 Ge4 3.098513 1_555
Ce11 Ge4 3.098513 1_655
Ce11 Ge6 3.115541 1_556
Ce12 O0 2.279466 1_555
Ce12 Ge7 3.184377 1_445
Ce12 Ge7 3.184377 1_545
Ce12 Ge10 3.208965 1_555
Ce12 Ge10 3.208965 1_455
Ce12 Ge2 3.274161 1_445
Ce12 Ge2 3.274161 1_545
Ce13 O1 2.279466 1_555
Ce13 Ge6 3.184377 1_455
Ce13 Ge6 3.184377 1_555
Ce13 Ge11 3.208965 1_455
Ce13 Ge11 3.208965 1_555
Ce13 Ge3 3.274161 1_455
Ce13 Ge3 3.274161 1_555
Ce14 Ge5 3.173667 1_665
Ce14 Ge5 3.173667 1_565
Ce14 Ge0 3.184366 1_665
Ce14 Ge0 3.184366 1_565
Ce14 Ge8 3.197663 1_555
Ce14 Ge8 3.197663 1_655
Ce15 Ge4 3.173667 1_555
Ce15 Ge4 3.173667 1_655
Ce15 Ge1 3.184366 1_655
Ce15 Ge1 3.184366 1_555
Ce15 Ge9 3.197663 1_555
Ce15 Ge9 3.197663 1_655
Ag0 Ge6 2.663872 1_555
Ag0 Ge6 2.663872 1_455
Ag0 Ge12 2.726466 1_554
Ag0 Ge8 2.892021 1_555
Ag0 Ce6 3.232280 1_455
Ag0 Ce6 3.232280 1_555
Ag0 Ce13 3.298204 1_555
Ag0 Ce9 3.395811 1_555
Ag0 Ce11 3.430560 1_454
Ag0 Ce11 3.430560 1_554
Ag1 Ge7 2.663872 1_555
Ag1 Ge7 2.663872 1_455
Ag1 Ge13 2.726466 1_555
Ag1 Ge9 2.892021 1_555
Ag1 Ce7 3.232280 1_555
Ag1 Ce7 3.232280 1_455
Ag1 Ce12 3.298204 1_565
Ag1 Ce8 3.395811 1_565
Ag1 Ce10 3.430560 1_455
Ag1 Ce10 3.430560 1_555
Ag2 Ge14 2.741194 1_556
Ag2 Ge4 2.752817 1_555
Ag2 Ge4 2.752817 1_655
Ag2 Ge10 2.895373 1_555
Ag2 Ce4 3.253160 1_655
Ag2 Ce4 3.253160 1_555
Ag2 Ce15 3.306773 1_555
Ag2 Ce11 3.385811 1_555
Ag2 Ce9 3.478573 1_556
Ag2 Ce9 3.478573 1_656
Ag3 Ge15 2.741194 1_555
Ag3 Ge5 2.752817 1_555
Ag3 Ge5 2.752817 1_655
Ag3 Ge11 2.895373 1_555
Ag3 Ce5 3.253160 1_655
Ag3 Ce5 3.253160 1_555
Ag3 Ce14 3.306773 1_545
Ag3 Ce10 3.385811 1_545
Ag3 Ce8 3.478573 1_555
Ag3 Ce8 3.478573 1_655
Ag4 Ge10 2.646784 1_455
Ag4 Ge10 2.646784 1_555
Ag4 Ge1 2.747272 1_555
Ag4 Ge4 2.894895 1_555
Ag4 Ce15 3.195140 1_555
Ag4 Ce15 3.195140 1_455
Ag4 Ce4 3.234671 1_555
Ag5 Ge11 2.646784 1_555
Ag5 Ge11 2.646784 1_455
Ag5 Ge0 2.747272 1_555
Ag5 Ge5 2.894895 1_555
Ag5 Ce14 3.195140 1_545
Ag5 Ce14 3.195140 1_445
Ag5 Ce5 3.234671 1_555
Ag6 Ge8 2.627194 1_555
Ag6 Ge8 2.627194 1_655
Ag6 Ge3 2.693014 1_555
Ag6 Ge6 2.887991 1_555
Ag6 Ce6 3.258365 1_555
Ag6 Ce13 3.264847 1_555
Ag6 Ce13 3.264847 1_655
Ag6 Ce14 3.442596 1_555
Ag6 Ce0 3.463215 1_555
Ag6 Ce0 3.463215 1_655
Ag7 Ge9 2.627194 1_655
Ag7 Ge9 2.627194 1_555
Ag7 Ge2 2.693014 1_555
Ag7 Ge7 2.887991 1_555
Ag7 Ce7 3.258365 1_555
Ag7 Ce12 3.264847 1_565
Ag7 Ce12 3.264847 1_665
Ag7 Ce15 3.442596 1_555
Ag7 Ce1 3.463215 1_555
Ag7 Ce1 3.463215 1_655
Ag8 Ge14 2.742526 1_455
Ag8 Ge14 2.742526 1_555
Ag8 Ge0 2.758899 1_555
Ag8 Ge12 2.827346 1_544
Ag8 Ce4 3.224321 1_554
Ag8 Ce6 3.277763 1_445
Ag8 Ce6 3.277763 1_545
Ag9 Ge15 2.742526 1_555
Ag9 Ge15 2.742526 1_455
Ag9 Ge1 2.758899 1_555
Ag9 Ge13 2.827346 1_555
Ag9 Ce5 3.224321 1_555
Ag9 Ce7 3.277763 1_555
Ag9 Ce7 3.277763 1_455
Ag10 Ge2 2.701723 1_555
Ag10 Ge12 2.732793 1_555
Ag10 Ge12 2.732793 1_655
Ag10 Ge14 2.867499 1_566
Ag10 Ag8 3.195238 1_566
Ag10 Ag8 3.195238 1_666
Ag10 Ce6 3.240116 1_556
Ag10 Ce4 3.297021 1_665
Ag10 Ce4 3.297021 1_565
Ag10 Ce11 3.450989 1_555
Ag10 Ce1 3.468057 1_555
Ag10 Ce1 3.468057 1_655
Ag11 Ge3 2.701723 1_555
Ag11 Ge13 2.732793 1_655
Ag11 Ge13 2.732793 1_555
Ag11 Ge15 2.867499 1_555
Ag11 Ag9 3.195238 1_655
Ag11 Ag9 3.195238 1_555
Ag11 Ce7 3.240116 1_555
Ag11 Ce5 3.297021 1_555
Ag11 Ce5 3.297021 1_655
Ag11 Ce10 3.450989 1_555
Ag11 Ce0 3.468057 1_555
Ag11 Ce0 3.468057 1_655
Ge0 Ge8 2.504835 1_545
Ge1 Ge9 2.504835 1_555
Ge10 Ge2 2.564497 1_545
Ge11 Ge3 2.564497 1_555
