# generated using pymatgen
data_AlV2O4
_symmetry_space_group_name_H-M   'P 1'
_cell_length_a   10.38479046
_cell_length_b   10.38479046
_cell_length_c   10.38479062
_cell_angle_alpha   32.65918680
_cell_angle_beta   32.65918680
_cell_angle_gamma   32.65918975
_symmetry_Int_Tables_number   1
_chemical_formula_structural   AlV2O4
_chemical_formula_sum   'Al4 V8 O16'
_cell_volume   290.07619698
_cell_formula_units_Z   4
loop_
 _symmetry_equiv_pos_site_id
 _symmetry_equiv_pos_as_xyz
  1  'x, y, z'
loop_
 _atom_site_type_symbol
 _atom_site_label
 _atom_site_symmetry_multiplicity
 _atom_site_fract_x
 _atom_site_fract_y
 _atom_site_fract_z
 _atom_site_occupancy
  Al  Al0  1  0.18392500  0.18392500  0.18392500  1
  Al  Al1  1  0.81607500  0.81607500  0.81607500  1
  Al  Al2  1  0.30734600  0.30734600  0.30734600  1
  Al  Al3  1  0.69265400  0.69265400  0.69265400  1
  V  V0  1  0.00000000  0.00000000  0.00000000  1
  V  V1  1  0.50000000  0.50000000  0.50000000  1
  V  V2  1  0.71858100  0.26709500  0.26709500  1
  V  V3  1  0.28141900  0.73290500  0.73290500  1
  V  V4  1  0.26709500  0.26709500  0.71858100  1
  V  V5  1  0.73290500  0.73290500  0.28141900  1
  V  V6  1  0.26709500  0.71858100  0.26709500  1
  V  V7  1  0.73290500  0.28141900  0.73290500  1
  O  O0  1  0.12218300  0.12218300  0.12218300  1
  O  O1  1  0.87781700  0.87781700  0.87781700  1
  O  O2  1  0.36907500  0.36907500  0.36907500  1
  O  O3  1  0.63092500  0.63092500  0.63092500  1
  O  O4  1  0.88317900  0.36923100  0.36923100  1
  O  O5  1  0.11682100  0.63076900  0.63076900  1
  O  O6  1  0.36923100  0.36923100  0.88317900  1
  O  O7  1  0.63076900  0.63076900  0.11682100  1
  O  O8  1  0.36923100  0.88317900  0.36923100  1
  O  O9  1  0.63076900  0.11682100  0.63076900  1
  O  O10  1  0.62211600  0.12015500  0.12015500  1
  O  O11  1  0.37788400  0.87984500  0.87984500  1
  O  O12  1  0.12015500  0.12015500  0.62211600  1
  O  O13  1  0.87984500  0.87984500  0.37788400  1
  O  O14  1  0.12015500  0.62211600  0.12015500  1
  O  O15  1  0.87984500  0.37788400  0.87984500  1
loop_
_geom_bond_atom_site_label_1
_geom_bond_atom_site_label_2
_geom_bond_distance
_geom_bond_site_symmetry_2
Al0 O6 1.776615 1_554
Al0 O8 1.776615 1_545
Al0 O4 1.776615 1_455
Al0 O0 1.819338 1_555
Al1 O7 1.776615 1_556
Al1 O5 1.776615 1_655
Al1 O9 1.776615 1_565
Al1 O1 1.819338 1_555
Al2 O12 1.790794 1_555
Al2 O14 1.790794 1_555
Al2 O10 1.790794 1_555
Al2 O2 1.818955 1_555
Al3 O13 1.790794 1_555
Al3 O11 1.790794 1_555
Al3 O15 1.790794 1_555
Al3 O3 1.818955 1_555
O0 V4 2.160768 1_554
O0 V6 2.160768 1_545
O0 V2 2.160768 1_455
O1 V5 2.160768 1_556
O1 V3 2.160768 1_655
O1 V7 2.160768 1_565
O2 V4 2.088250 1_555
O2 V2 2.088250 1_555
O2 V6 2.088250 1_555
O3 V5 2.088250 1_555
O3 V3 2.088250 1_555
O3 V7 2.088250 1_555
O4 V7 2.050277 1_555
O4 V5 2.050277 1_555
O4 V1 2.104769 1_555
O5 V6 2.050277 1_555
O5 V4 2.050277 1_555
O5 V1 2.104769 1_555
O6 V7 2.050277 1_555
O6 V3 2.050277 1_555
O6 V1 2.104768 1_555
O7 V6 2.050277 1_555
O7 V2 2.050277 1_555
O7 V1 2.104768 1_555
O8 V3 2.050277 1_555
O8 V5 2.050277 1_555
O8 V1 2.104769 1_555
O9 V2 2.050277 1_555
O9 V4 2.050277 1_555
O9 V1 2.104769 1_555
O10 V7 2.101075 1_554
O10 V5 2.101075 1_545
O10 V0 2.155342 1_655
O11 V6 2.101075 1_556
O11 V4 2.101075 1_565
O11 V0 2.155342 1_566
O12 V3 2.101075 1_545
O12 V7 2.101075 1_455
O12 V0 2.155342 1_556
O13 V2 2.101075 1_565
O13 V6 2.101075 1_655
O13 V0 2.155342 1_665
O14 V3 2.101075 1_554
O14 V5 2.101075 1_455
O14 V0 2.155342 1_565
O15 V2 2.101075 1_556
O15 V4 2.101075 1_655
O15 V0 2.155342 1_656
