# generated using pymatgen
data_CoH16C6(N3O4)2
_symmetry_space_group_name_H-M   'P 1'
_cell_length_a   8.91274800
_cell_length_b   11.92817400
_cell_length_c   12.76971509
_cell_angle_alpha   90.00000000
_cell_angle_beta   107.28791615
_cell_angle_gamma   90.00000000
_symmetry_Int_Tables_number   1
_chemical_formula_structural   CoH16C6(N3O4)2
_chemical_formula_sum   'Co4 H64 C24 N24 O32'
_cell_volume   1296.25336862
_cell_formula_units_Z   4
loop_
 _symmetry_equiv_pos_site_id
 _symmetry_equiv_pos_as_xyz
  1  'x, y, z'
loop_
 _atom_site_type_symbol
 _atom_site_label
 _atom_site_symmetry_multiplicity
 _atom_site_fract_x
 _atom_site_fract_y
 _atom_site_fract_z
 _atom_site_occupancy
  Co  Co0  1  0.50000000  0.50000000  0.50000000  1
  Co  Co1  1  0.50000000  0.00000000  0.00000000  1
  Co  Co2  1  0.00000000  0.50000000  0.00000000  1
  Co  Co3  1  0.00000000  0.00000000  0.50000000  1
  H  H0  1  0.60578100  0.71032400  0.56914000  1
  H  H1  1  0.39421900  0.21032400  0.93086000  1
  H  H2  1  0.39421900  0.28967600  0.43086000  1
  H  H3  1  0.60578100  0.78967600  0.06914000  1
  H  H4  1  0.48182600  0.67726200  0.63502100  1
  H  H5  1  0.51817400  0.17726200  0.86497900  1
  H  H6  1  0.51817400  0.32273800  0.36497900  1
  H  H7  1  0.48182600  0.82273800  0.13502100  1
  H  H8  1  0.02666900  0.67495900  0.86103500  1
  H  H9  1  0.97333100  0.17495900  0.63896500  1
  H  H10  1  0.97333100  0.32504100  0.13896500  1
  H  H11  1  0.02666900  0.82504100  0.36103500  1
  H  H12  1  0.89438900  0.70299100  0.91911700  1
  H  H13  1  0.10561100  0.20299100  0.58088300  1
  H  H14  1  0.10561100  0.29700900  0.08088300  1
  H  H15  1  0.89438900  0.79700900  0.41911700  1
  H  H16  1  0.82458600  0.52096900  0.71986800  1
  H  H17  1  0.17541400  0.02096900  0.78013200  1
  H  H18  1  0.17541400  0.47903100  0.28013200  1
  H  H19  1  0.82458600  0.97903100  0.21986800  1
  H  H20  1  0.67210500  0.51817500  0.78480900  1
  H  H21  1  0.32789500  0.01817500  0.71519100  1
  H  H22  1  0.32789500  0.48182500  0.21519100  1
  H  H23  1  0.67210500  0.98182500  0.28480900  1
  H  H24  1  0.47939400  0.26984800  0.63839100  1
  H  H25  1  0.52060600  0.76984800  0.86160900  1
  H  H26  1  0.52060600  0.73015200  0.36160900  1
  H  H27  1  0.47939400  0.23015200  0.13839100  1
  H  H28  1  0.47294200  0.37481700  0.73693900  1
  H  H29  1  0.52705800  0.87481700  0.76306100  1
  H  H30  1  0.52705800  0.62518300  0.26306100  1
  H  H31  1  0.47294200  0.12518300  0.23693900  1
  H  H32  1  0.66839900  0.37232400  0.91525100  1
  H  H33  1  0.33160100  0.87232400  0.58474900  1
  H  H34  1  0.33160100  0.62767600  0.08474900  1
  H  H35  1  0.66839900  0.12767600  0.41525100  1
  H  H36  1  0.81900400  0.26666000  0.94461900  1
  H  H37  1  0.18099600  0.76666000  0.55538100  1
  H  H38  1  0.18099600  0.73334000  0.05538100  1
  H  H39  1  0.81900400  0.23334000  0.44461900  1
  H  H40  1  0.83487900  0.37877400  0.58900300  1
  H  H41  1  0.16512100  0.87877400  0.91099700  1
  H  H42  1  0.16512100  0.62122600  0.41099700  1
  H  H43  1  0.83487900  0.12122600  0.08900300  1
  H  H44  1  0.68489100  0.27235000  0.55460400  1
  H  H45  1  0.31510900  0.77235000  0.94539600  1
  H  H46  1  0.31510900  0.72765000  0.44539600  1
  H  H47  1  0.68489100  0.22765000  0.05460400  1
  H  H48  1  0.02300000  0.27006800  0.86153700  1
  H  H49  1  0.97700000  0.77006800  0.63846300  1
  H  H50  1  0.97700000  0.72993200  0.13846300  1
  H  H51  1  0.02300000  0.22993200  0.36153700  1
  H  H52  1  0.02600200  0.37741200  0.76304400  1
  H  H53  1  0.97399800  0.87741200  0.73695600  1
  H  H54  1  0.97399800  0.62258800  0.23695600  1
  H  H55  1  0.02600200  0.12258800  0.26304400  1
  H  H56  1  0.82321900  0.12720700  0.81538500  1
  H  H57  1  0.17678100  0.62720700  0.68461500  1
  H  H58  1  0.17678100  0.87279300  0.18461500  1
  H  H59  1  0.82321900  0.37279300  0.31538500  1
  H  H60  1  0.68066800  0.12703700  0.68278700  1
  H  H61  1  0.31933200  0.62703700  0.81721300  1
  H  H62  1  0.31933200  0.87296300  0.31721300  1
  H  H63  1  0.68066800  0.37296300  0.18278700  1
  C  C0  1  0.74963300  0.46677800  0.75198600  1
  C  C1  1  0.25036700  0.96677800  0.74801400  1
  C  C2  1  0.25036700  0.53322200  0.24801400  1
  C  C3  1  0.74963300  0.03322200  0.25198600  1
  C  C4  1  0.55057300  0.32280100  0.70494200  1
  C  C5  1  0.44942700  0.82280100  0.79505800  1
  C  C6  1  0.44942700  0.67719900  0.29505800  1
  C  C7  1  0.55057300  0.17719900  0.20494200  1
  C  C8  1  0.74447700  0.32092200  0.88117100  1
  C  C9  1  0.25552300  0.82092200  0.61882900  1
  C  C10  1  0.25552300  0.67907800  0.11882900  1
  C  C11  1  0.74447700  0.17907800  0.38117100  1
  C  C12  1  0.75797500  0.32495200  0.62023700  1
  C  C13  1  0.24202500  0.82495200  0.87976300  1
  C  C14  1  0.24202500  0.67504800  0.37976300  1
  C  C15  1  0.75797500  0.17504800  0.12023700  1
  C  C16  1  0.95092100  0.32371200  0.79607900  1
  C  C17  1  0.04907900  0.82371200  0.70392100  1
  C  C18  1  0.04907900  0.67628800  0.20392100  1
  C  C19  1  0.95092100  0.17628800  0.29607900  1
  C  C20  1  0.75106700  0.18029000  0.74941300  1
  C  C21  1  0.24893300  0.68029000  0.75058700  1
  C  C22  1  0.24893300  0.81971000  0.25058700  1
  C  C23  1  0.75106700  0.31971000  0.24941300  1
  N  N0  1  0.65129700  0.39719200  0.66038500  1
  N  N1  1  0.34870300  0.89719200  0.83961500  1
  N  N2  1  0.34870300  0.60280800  0.33961500  1
  N  N3  1  0.65129700  0.10280800  0.16038500  1
  N  N4  1  0.84974700  0.39608200  0.84222600  1
  N  N5  1  0.15025300  0.89608200  0.65777400  1
  N  N6  1  0.15025300  0.60391800  0.15777400  1
  N  N7  1  0.84974700  0.10391800  0.34222600  1
  N  N8  1  0.64597200  0.24980500  0.79315300  1
  N  N9  1  0.35402800  0.74980500  0.70684700  1
  N  N10  1  0.35402800  0.75019500  0.20684700  1
  N  N11  1  0.64597200  0.25019500  0.29315300  1
  N  N12  1  0.85581400  0.25175600  0.70674600  1
  N  N13  1  0.14418600  0.75175600  0.79325400  1
  N  N14  1  0.14418600  0.74824400  0.29325400  1
  N  N15  1  0.85581400  0.24824400  0.20674600  1
  N  N16  1  0.19361800  0.42145300  0.53976200  1
  N  N17  1  0.80638200  0.92145300  0.96023800  1
  N  N18  1  0.80638200  0.57854700  0.46023800  1
  N  N19  1  0.19361800  0.07854700  0.03976200  1
  N  N20  1  0.29994400  0.41112300  0.94483800  1
  N  N21  1  0.70005600  0.91112300  0.55516200  1
  N  N22  1  0.70005600  0.58887700  0.05516200  1
  N  N23  1  0.29994400  0.08887700  0.44483800  1
  O  O0  1  0.54804900  0.64715600  0.58991300  1
  O  O1  1  0.45195100  0.14715600  0.91008700  1
  O  O2  1  0.45195100  0.35284400  0.41008700  1
  O  O3  1  0.54804900  0.85284400  0.08991300  1
  O  O4  1  0.31749300  0.48504700  0.57188300  1
  O  O5  1  0.68250700  0.98504700  0.92811700  1
  O  O6  1  0.68250700  0.51495300  0.42811700  1
  O  O7  1  0.31749300  0.01495300  0.07188300  1
  O  O8  1  0.15220600  0.36915000  0.61207700  1
  O  O9  1  0.84779400  0.86915000  0.88792300  1
  O  O10  1  0.84779400  0.63085000  0.38792300  1
  O  O11  1  0.15220600  0.13085000  0.11207700  1
  O  O12  1  0.11952800  0.41479200  0.43988200  1
  O  O13  1  0.88047200  0.91479200  0.06011800  1
  O  O14  1  0.88047200  0.58520800  0.56011800  1
  O  O15  1  0.11952800  0.08520800  0.93988200  1
  O  O16  1  0.96014400  0.64197400  0.90547500  1
  O  O17  1  0.03985600  0.14197400  0.59452500  1
  O  O18  1  0.03985600  0.35802600  0.09452500  1
  O  O19  1  0.96014400  0.85802600  0.40547500  1
  O  O20  1  0.20308800  0.49064100  0.94740400  1
  O  O21  1  0.79691200  0.99064100  0.55259600  1
  O  O22  1  0.79691200  0.50935900  0.05259600  1
  O  O23  1  0.20308800  0.00935900  0.44740400  1
  O  O24  1  0.28716400  0.31672700  0.98772400  1
  O  O25  1  0.71283600  0.81672700  0.51227600  1
  O  O26  1  0.71283600  0.68327300  0.01227600  1
  O  O27  1  0.28716400  0.18327300  0.48772400  1
  O  O28  1  0.40378800  0.42881500  0.89959900  1
  O  O29  1  0.59621200  0.92881500  0.60040100  1
  O  O30  1  0.59621200  0.57118500  0.10040100  1
  O  O31  1  0.40378800  0.07118500  0.39959900  1
loop_
_geom_bond_atom_site_label_1
_geom_bond_atom_site_label_2
_geom_bond_distance
_geom_bond_site_symmetry_2
Co0 O0 2.071358 1_555
Co0 O2 2.071358 1_555
Co0 O4 2.099475 1_555
Co0 O6 2.099475 1_555
Co0 N2 2.423915 1_555
Co0 N0 2.423915 1_555
Co1 O3 2.071358 1_545
Co1 O1 2.071358 1_554
Co1 O7 2.099475 1_555
Co1 O5 2.099475 1_544
Co1 N1 2.423915 1_544
Co1 N3 2.423915 1_555
Co2 O18 2.048473 1_555
Co2 O16 2.048473 1_454
Co2 O20 2.112456 1_554
Co2 O22 2.112456 1_455
Co2 N6 2.405287 1_555
Co2 N4 2.405287 1_454
Co3 O17 2.048473 1_555
Co3 O19 2.048473 1_445
Co3 O23 2.112456 1_555
Co3 O21 2.112456 1_445
Co3 N5 2.405287 1_545
Co3 N7 2.405287 1_455
H0 O0 0.991959 1_555
H1 O1 0.991959 1_555
H2 O2 0.991959 1_555
H3 O3 0.991959 1_555
H4 O0 1.005580 1_555
H5 O1 1.005580 1_555
H6 O2 1.005580 1_555
H7 O3 1.005580 1_555
H8 O16 1.014091 1_455
H9 O17 1.014091 1_655
H10 O18 1.014091 1_655
H11 O19 1.014091 1_455
H12 O16 0.981944 1_555
H13 O17 0.981944 1_555
H14 O18 0.981944 1_555
H15 O19 0.981944 1_555
C0 H16 1.093235 1_555
C0 H20 1.095963 1_555
C0 N0 1.488634 1_555
C0 N4 1.491328 1_555
C1 H17 1.093235 1_565
C1 H21 1.095963 1_565
C1 N1 1.488634 1_555
C1 N5 1.491328 1_555
C2 H18 1.093235 1_555
C2 H22 1.095963 1_555
C2 N2 1.488634 1_555
C2 N6 1.491328 1_555
C3 H19 1.093235 1_545
C3 H23 1.095963 1_545
C3 N3 1.488634 1_555
C3 N7 1.491328 1_555
C4 H28 1.094839 1_555
C4 H24 1.096910 1_555
C4 N8 1.476715 1_555
C4 N0 1.490177 1_555
C5 H29 1.094839 1_555
C5 H25 1.096910 1_555
C5 N9 1.476715 1_555
C5 N1 1.490177 1_555
C6 H30 1.094839 1_555
C6 H26 1.096910 1_555
C6 N10 1.476715 1_555
C6 N2 1.490177 1_555
C7 H31 1.094839 1_555
C7 H27 1.096910 1_555
C7 N11 1.476715 1_555
C7 N3 1.490177 1_555
C8 H36 1.093949 1_555
C8 H32 1.095663 1_555
C8 N8 1.472144 1_555
C8 N4 1.486171 1_555
C9 H37 1.093949 1_555
C9 H33 1.095663 1_555
C9 N9 1.472144 1_555
C9 N5 1.486171 1_555
C10 H38 1.093949 1_555
C10 H34 1.095663 1_555
C10 N10 1.472144 1_555
C10 N6 1.486171 1_555
C11 H39 1.093949 1_555
C11 H35 1.095663 1_555
C11 N11 1.472144 1_555
C11 N7 1.486171 1_555
C12 H44 1.093594 1_555
C12 H40 1.097057 1_555
C12 N12 1.473267 1_555
C12 N0 1.482928 1_555
C13 H45 1.093594 1_555
C13 H41 1.097057 1_555
C13 N13 1.473267 1_555
C13 N1 1.482928 1_555
C14 H46 1.093594 1_555
C14 H42 1.097057 1_555
C14 N14 1.473267 1_555
C14 N2 1.482928 1_555
C15 H47 1.093594 1_555
C15 H43 1.097057 1_555
C15 N15 1.473267 1_555
C15 N3 1.482928 1_555
C16 H48 1.096214 1_655
C16 H52 1.097191 1_655
C16 N12 1.477100 1_555
C16 N4 1.490436 1_555
C17 H49 1.096214 1_455
C17 H53 1.097191 1_455
C17 N13 1.477100 1_555
C17 N5 1.490436 1_555
C18 H50 1.096214 1_455
C18 H54 1.097191 1_455
C18 N14 1.477100 1_555
C18 N6 1.490436 1_555
C19 H51 1.096214 1_655
C19 H55 1.097191 1_655
C19 N15 1.477100 1_555
C19 N7 1.490436 1_555
C20 H56 1.096442 1_555
C20 H60 1.097158 1_555
C20 N8 1.479141 1_555
C20 N12 1.482377 1_555
C21 H57 1.096442 1_555
C21 H61 1.097158 1_555
C21 N9 1.479141 1_555
C21 N13 1.482377 1_555
C22 H58 1.096442 1_555
C22 H62 1.097158 1_555
C22 N10 1.479141 1_555
C22 N14 1.482377 1_555
C23 H59 1.096442 1_555
C23 H63 1.097158 1_555
C23 N11 1.479141 1_555
C23 N15 1.482377 1_555
N16 O12 1.252412 1_555
N16 O8 1.257290 1_555
N16 O4 1.301332 1_555
N17 O13 1.252412 1_556
N17 O9 1.257290 1_555
N17 O5 1.301332 1_555
N18 O14 1.252412 1_555
N18 O10 1.257290 1_555
N18 O6 1.301332 1_555
N19 O15 1.252412 1_554
N19 O11 1.257290 1_555
N19 O7 1.301332 1_555
N20 O28 1.246056 1_555
N20 O24 1.271917 1_555
N20 O20 1.289478 1_555
N21 O29 1.246056 1_555
N21 O25 1.271917 1_555
N21 O21 1.289478 1_555
N22 O30 1.246056 1_555
N22 O26 1.271917 1_555
N22 O22 1.289478 1_555
N23 O31 1.246056 1_555
N23 O27 1.271917 1_555
N23 O23 1.289478 1_555
