# generated using pymatgen
data_CuN2(Cl2O)2
_symmetry_space_group_name_H-M   'P 1'
_cell_length_a   6.44577000
_cell_length_b   6.44577000
_cell_length_c   8.36734700
_cell_angle_alpha   90.00000000
_cell_angle_beta   90.00000000
_cell_angle_gamma   90.00000000
_symmetry_Int_Tables_number   1
_chemical_formula_structural   CuN2(Cl2O)2
_chemical_formula_sum   'Cu2 N4 Cl8 O4'
_cell_volume   347.64612226
_cell_formula_units_Z   2
loop_
 _symmetry_equiv_pos_site_id
 _symmetry_equiv_pos_as_xyz
  1  'x, y, z'
loop_
 _atom_site_type_symbol
 _atom_site_label
 _atom_site_symmetry_multiplicity
 _atom_site_fract_x
 _atom_site_fract_y
 _atom_site_fract_z
 _atom_site_occupancy
  Cu  Cu0  1  0.50000000  0.50000000  0.50000000  1
  Cu  Cu1  1  0.00000000  0.00000000  0.00000000  1
  N  N0  1  0.00000000  0.50000000  0.25000000  1
  N  N1  1  0.50000000  0.00000000  0.75000000  1
  N  N2  1  0.00000000  0.50000000  0.75000000  1
  N  N3  1  0.50000000  0.00000000  0.25000000  1
  Cl  Cl0  1  0.26801600  0.73198400  0.25380200  1
  Cl  Cl1  1  0.73198400  0.26801600  0.25380200  1
  Cl  Cl2  1  0.23198400  0.23198400  0.75380200  1
  Cl  Cl3  1  0.76801600  0.76801600  0.75380200  1
  Cl  Cl4  1  0.73198400  0.26801600  0.74619800  1
  Cl  Cl5  1  0.26801600  0.73198400  0.74619800  1
  Cl  Cl6  1  0.76801600  0.76801600  0.24619800  1
  Cl  Cl7  1  0.23198400  0.23198400  0.24619800  1
  O  O0  1  0.50000000  0.50000000  0.28207100  1
  O  O1  1  0.00000000  0.00000000  0.78207100  1
  O  O2  1  0.50000000  0.50000000  0.71792900  1
  O  O3  1  0.00000000  0.00000000  0.21792900  1
loop_
_geom_bond_atom_site_label_1
_geom_bond_atom_site_label_2
_geom_bond_distance
_geom_bond_site_symmetry_2
Cu0 O2 1.823488 1_555
Cu0 O0 1.823488 1_555
Cu1 O3 1.823488 1_555
Cu1 O1 1.823488 1_554
Cl0 O0 2.127883 1_555
Cl0 N0 2.285055 1_555
Cl0 N3 2.285055 1_565
Cl1 O0 2.127883 1_555
Cl1 N3 2.285055 1_555
Cl1 N0 2.285055 1_655
Cl2 O1 2.127883 1_555
Cl2 N1 2.285055 1_555
Cl2 N2 2.285055 1_555
Cl3 O1 2.127883 1_665
Cl3 N2 2.285055 1_655
Cl3 N1 2.285055 1_565
Cl4 O2 2.127883 1_555
Cl4 N1 2.285055 1_555
Cl4 N2 2.285055 1_655
Cl5 O2 2.127883 1_555
Cl5 N2 2.285055 1_555
Cl5 N1 2.285055 1_565
Cl6 O3 2.127883 1_665
Cl6 N3 2.285055 1_565
Cl6 N0 2.285055 1_655
Cl7 O3 2.127883 1_555
Cl7 N0 2.285055 1_555
Cl7 N3 2.285055 1_555
