# generated using pymatgen
data_Dy2Ge5Ru3
_symmetry_space_group_name_H-M   'P 1'
_cell_length_a   8.46953422
_cell_length_b   8.46953422
_cell_length_c   8.46953422
_cell_angle_alpha   139.90838994
_cell_angle_beta   108.59465615
_cell_angle_gamma   85.18799550
_symmetry_Int_Tables_number   1
_chemical_formula_structural   Dy2Ge5Ru3
_chemical_formula_sum   'Dy4 Ge10 Ru6'
_cell_volume   357.86533562
_cell_formula_units_Z   2
loop_
 _symmetry_equiv_pos_site_id
 _symmetry_equiv_pos_as_xyz
  1  'x, y, z'
loop_
 _atom_site_type_symbol
 _atom_site_label
 _atom_site_symmetry_multiplicity
 _atom_site_fract_x
 _atom_site_fract_y
 _atom_site_fract_z
 _atom_site_occupancy
  Dy  Dy0  1  0.86879000  0.63720200  0.23158800  1
  Dy  Dy1  1  0.13121000  0.36279800  0.76841200  1
  Dy  Dy2  1  0.40561400  0.13720200  0.26841200  1
  Dy  Dy3  1  0.59438600  0.86279800  0.73158800  1
  Ge  Ge0  1  0.50000000  0.75000000  0.25000000  1
  Ge  Ge1  1  0.50000000  0.25000000  0.75000000  1
  Ge  Ge2  1  0.20980900  0.95980900  0.75000000  1
  Ge  Ge3  1  0.79019100  0.54019100  0.75000000  1
  Ge  Ge4  1  0.79019100  0.04019100  0.25000000  1
  Ge  Ge5  1  0.20980900  0.45980900  0.25000000  1
  Ge  Ge6  1  0.08267300  0.90993500  0.17273800  1
  Ge  Ge7  1  0.91732700  0.09006500  0.82726200  1
  Ge  Ge8  1  0.73719700  0.40993500  0.32726200  1
  Ge  Ge9  1  0.26280300  0.59006500  0.67273800  1
  Ru  Ru0  1  0.00000000  0.75000000  0.75000000  1
  Ru  Ru1  1  0.00000000  0.25000000  0.25000000  1
  Ru  Ru2  1  0.25914700  0.85354100  0.40560600  1
  Ru  Ru3  1  0.74085300  0.14645900  0.59439400  1
  Ru  Ru4  1  0.44793500  0.35354100  0.09439400  1
  Ru  Ru5  1  0.55206500  0.64645900  0.90560600  1
loop_
_geom_bond_atom_site_label_1
_geom_bond_atom_site_label_2
_geom_bond_distance
_geom_bond_site_symmetry_2
Dy0 Ge8 2.987664 1_555
Dy0 Ge7 3.109348 1_554
Dy0 Ge7 3.109348 1_565
Dy0 Ge5 3.157046 1_655
Dy0 Ge2 3.157046 1_655
Dy0 Ru2 3.199530 1_655
Dy0 Ge0 3.205493 1_555
Dy0 Ge1 3.205493 1_554
Dy0 Ru3 3.206349 1_554
Dy0 Ru3 3.206349 1_565
Dy0 Ru5 3.224492 1_554
Dy0 Ge3 3.314750 1_554
Dy0 Ge4 3.314750 1_565
Dy0 Ge6 3.450377 1_655
Dy0 Ru0 3.474821 1_655
Dy0 Ru1 3.474821 1_655
Dy1 Ge9 2.987664 1_555
Dy1 Ge6 3.109348 1_556
Dy1 Ge6 3.109348 1_545
Dy1 Ge4 3.157046 1_455
Dy1 Ge3 3.157046 1_455
Dy1 Ru3 3.199530 1_455
Dy1 Ge1 3.205493 1_555
Dy1 Ge0 3.205493 1_556
Dy1 Ru2 3.206349 1_556
Dy1 Ru2 3.206349 1_545
Dy1 Ru4 3.224492 1_556
Dy1 Ge2 3.314750 1_545
Dy1 Ge5 3.314750 1_556
Dy1 Ge7 3.450377 1_455
Dy1 Ru1 3.474821 1_555
Dy1 Ru0 3.474821 1_555
Dy2 Ge6 2.987664 1_545
Dy2 Ge9 3.109348 1_555
Dy2 Ge9 3.109348 1_544
Dy2 Ge2 3.157046 1_544
Dy2 Ge5 3.157046 1_555
Dy2 Ru4 3.199530 1_555
Dy2 Ge0 3.205493 1_545
Dy2 Ge1 3.205493 1_555
Dy2 Ru5 3.206349 1_544
Dy2 Ru5 3.206349 1_555
Dy2 Ru3 3.224492 1_555
Dy2 Ge4 3.314750 1_555
Dy2 Ge3 3.314750 1_555
Dy2 Ge8 3.450377 1_555
Dy2 Ru0 3.474821 1_544
Dy2 Ru1 3.474821 1_555
Dy3 Ge7 2.987664 1_565
Dy3 Ge8 3.109348 1_566
Dy3 Ge8 3.109348 1_555
Dy3 Ge4 3.157046 1_566
Dy3 Ge3 3.157046 1_555
Dy3 Ru5 3.199530 1_555
Dy3 Ge0 3.205493 1_555
Dy3 Ge1 3.205493 1_565
Dy3 Ru4 3.206349 1_566
Dy3 Ru4 3.206349 1_555
Dy3 Ru2 3.224492 1_555
Dy3 Ge2 3.314750 1_555
Dy3 Ge5 3.314750 1_555
Dy3 Ge9 3.450377 1_555
Dy3 Ru1 3.474821 1_666
Dy3 Ru0 3.474821 1_655
Ge0 Ru4 2.512617 1_555
Ge0 Ru2 2.512617 1_555
Ge0 Ru3 2.512617 1_565
Ge0 Ru5 2.512617 1_554
Ge1 Ru2 2.512617 1_545
Ge1 Ru3 2.512617 1_555
Ge1 Ru5 2.512617 1_555
Ge1 Ru4 2.512617 1_556
Ge2 Ru4 2.488009 1_566
Ge2 Ru2 2.488009 1_555
Ge2 Ru0 2.616318 1_555
Ge2 Ge9 2.693040 1_555
Ge2 Ge7 2.693040 1_465
Ge2 Ge5 2.903113 1_566
Ge2 Ge5 2.903113 1_555
Ge3 Ru5 2.488009 1_555
Ge3 Ru3 2.488009 1_555
Ge3 Ru0 2.616318 1_655
Ge3 Ge8 2.693040 1_555
Ge3 Ge6 2.693040 1_656
Ge3 Ge4 2.903113 1_555
Ge3 Ge4 2.903113 1_566
Ge4 Ru5 2.488009 1_544
Ge4 Ru3 2.488009 1_555
Ge4 Ru1 2.616318 1_655
Ge4 Ge6 2.693040 1_645
Ge4 Ge8 2.693040 1_555
Ge5 Ru2 2.488009 1_555
Ge5 Ru4 2.488009 1_555
Ge5 Ru1 2.616318 1_555
Ge5 Ge7 2.693040 1_454
Ge5 Ge9 2.693040 1_555
Ge6 Ru2 2.406987 1_555
Ge6 Ru1 2.506825 1_565
Ge6 Ru0 2.506825 1_554
Ge7 Ru3 2.406987 1_555
Ge7 Ru0 2.506825 1_645
Ge7 Ru1 2.506825 1_656
Ge8 Ru4 2.406987 1_555
Ge8 Ru0 2.506825 1_655
Ge8 Ru1 2.506825 1_655
Ge9 Ru5 2.406987 1_555
Ge9 Ru1 2.506825 1_555
Ge9 Ru0 2.506825 1_555
