# generated using pymatgen
data_Al4Cu15
_symmetry_space_group_name_H-M   'P 1'
_cell_length_a   3.60877000
_cell_length_b   3.60877000
_cell_length_c   18.45622400
_cell_angle_alpha   90.00000000
_cell_angle_beta   90.00000000
_cell_angle_gamma   90.00000000
_symmetry_Int_Tables_number   1
_chemical_formula_structural   Al4Cu15
_chemical_formula_sum   'Al4 Cu15'
_cell_volume   240.35948237
_cell_formula_units_Z   1
loop_
 _symmetry_equiv_pos_site_id
 _symmetry_equiv_pos_as_xyz
  1  'x, y, z'
loop_
 _atom_site_type_symbol
 _atom_site_label
 _atom_site_symmetry_multiplicity
 _atom_site_fract_x
 _atom_site_fract_y
 _atom_site_fract_z
 _atom_site_occupancy
  Al  Al0  1  0.00000000  0.00000000  0.19104800  1
  Al  Al1  1  0.00000000  0.00000000  0.39665300  1
  Al  Al2  1  0.00000000  0.00000000  0.60334700  1
  Al  Al3  1  0.00000000  0.00000000  0.80895200  1
  Cu  Cu0  1  0.50000000  0.50000000  0.00000000  1
  Cu  Cu1  1  0.50000000  0.50000000  0.18961600  1
  Cu  Cu2  1  0.50000000  0.50000000  0.39659900  1
  Cu  Cu3  1  0.50000000  0.50000000  0.60340100  1
  Cu  Cu4  1  0.50000000  0.50000000  0.81038400  1
  Cu  Cu5  1  0.50000000  0.00000000  0.09000100  1
  Cu  Cu6  1  0.50000000  0.00000000  0.29270000  1
  Cu  Cu7  1  0.50000000  0.00000000  0.50000000  1
  Cu  Cu8  1  0.50000000  0.00000000  0.70730000  1
  Cu  Cu9  1  0.50000000  0.00000000  0.90999900  1
  Cu  Cu10  1  0.00000000  0.50000000  0.09000100  1
  Cu  Cu11  1  0.00000000  0.50000000  0.29270000  1
  Cu  Cu12  1  0.00000000  0.50000000  0.50000000  1
  Cu  Cu13  1  0.00000000  0.50000000  0.70730000  1
  Cu  Cu14  1  0.00000000  0.50000000  0.90999900  1
loop_
_geom_bond_atom_site_label_1
_geom_bond_atom_site_label_2
_geom_bond_distance
_geom_bond_site_symmetry_2
Al0 Cu1 2.551923 1_555
Al0 Cu1 2.551923 1_545
Al0 Cu1 2.551923 1_445
Al0 Cu1 2.551923 1_455
Al0 Cu10 2.594962 1_555
Al0 Cu5 2.594962 1_455
Al0 Cu10 2.594962 1_545
Al0 Cu5 2.594962 1_555
Al0 Cu11 2.602999 1_545
Al0 Cu11 2.602999 1_555
Al0 Cu6 2.602999 1_555
Al0 Cu6 2.602999 1_455
Al1 Cu2 2.551786 1_455
Al1 Cu2 2.551786 1_555
Al1 Cu2 2.551786 1_445
Al1 Cu2 2.551786 1_545
Al1 Cu12 2.625636 1_545
Al1 Cu7 2.625636 1_555
Al1 Cu12 2.625636 1_555
Al1 Cu7 2.625636 1_455
Al1 Cu11 2.633772 1_545
Al1 Cu11 2.633772 1_555
Al1 Cu6 2.633772 1_555
Al1 Cu6 2.633772 1_455
Al2 Cu3 2.551786 1_445
Al2 Cu3 2.551786 1_545
Al2 Cu3 2.551786 1_455
Al2 Cu3 2.551786 1_555
Al2 Cu7 2.625636 1_555
Al2 Cu12 2.625636 1_545
Al2 Cu12 2.625636 1_555
Al2 Cu7 2.625636 1_455
Al2 Cu8 2.633772 1_555
Al2 Cu13 2.633772 1_555
Al2 Cu8 2.633772 1_455
Al2 Cu13 2.633772 1_545
Al3 Cu4 2.551923 1_555
Al3 Cu4 2.551923 1_445
Al3 Cu4 2.551923 1_545
Al3 Cu4 2.551923 1_455
Al3 Cu9 2.594962 1_555
Al3 Cu14 2.594962 1_545
Al3 Cu14 2.594962 1_555
Al3 Cu9 2.594962 1_455
Al3 Cu8 2.602999 1_455
Al3 Cu13 2.602999 1_545
Al3 Cu8 2.602999 1_555
Al3 Cu13 2.602999 1_555
Cu0 Cu10 2.452547 1_655
Cu0 Cu9 2.452547 1_564
Cu0 Cu9 2.452547 1_554
Cu0 Cu5 2.452547 1_565
Cu0 Cu5 2.452547 1_555
Cu0 Cu14 2.452547 1_654
Cu0 Cu10 2.452547 1_555
Cu0 Cu14 2.452547 1_554
Cu1 Cu10 2.576034 1_655
Cu1 Cu10 2.576034 1_555
Cu1 Cu5 2.576034 1_565
Cu1 Cu5 2.576034 1_555
Cu1 Cu11 2.622112 1_655
Cu1 Cu11 2.622112 1_555
Cu1 Cu6 2.622112 1_565
Cu1 Cu6 2.622112 1_555
Cu2 Cu7 2.626360 1_555
Cu2 Cu7 2.626360 1_565
Cu2 Cu6 2.633046 1_565
Cu2 Cu6 2.633046 1_555
Cu3 Cu7 2.626360 1_565
Cu3 Cu7 2.626360 1_555
Cu3 Cu8 2.633046 1_565
Cu3 Cu8 2.633046 1_555
Cu4 Cu9 2.576034 1_565
Cu4 Cu9 2.576034 1_555
Cu4 Cu8 2.622112 1_555
Cu4 Cu8 2.622112 1_565
Cu10 Cu5 2.551786 1_555
Cu10 Cu5 2.551786 1_455
Cu10 Cu5 2.551786 1_565
Cu10 Cu5 2.551786 1_465
Cu11 Cu6 2.551786 1_465
Cu11 Cu6 2.551786 1_555
Cu11 Cu6 2.551786 1_455
Cu11 Cu6 2.551786 1_565
Cu11 Cu2 2.633046 1_455
Cu11 Cu2 2.633046 1_555
Cu12 Cu7 2.551786 1_455
Cu12 Cu7 2.551786 1_565
Cu12 Cu7 2.551786 1_555
Cu12 Cu7 2.551786 1_465
Cu12 Cu3 2.626360 1_455
Cu12 Cu3 2.626360 1_555
Cu12 Cu2 2.626360 1_555
Cu12 Cu2 2.626360 1_455
Cu13 Cu8 2.551786 1_455
Cu13 Cu8 2.551786 1_555
Cu13 Cu8 2.551786 1_565
Cu13 Cu8 2.551786 1_465
Cu13 Cu4 2.622112 1_555
Cu13 Cu4 2.622112 1_455
Cu13 Cu3 2.633046 1_555
Cu13 Cu3 2.633046 1_455
Cu14 Cu9 2.551786 1_455
Cu14 Cu9 2.551786 1_555
Cu14 Cu9 2.551786 1_465
Cu14 Cu9 2.551786 1_565
Cu14 Cu4 2.576034 1_555
Cu14 Cu4 2.576034 1_455
