# generated using pymatgen
data_U3Ti
_symmetry_space_group_name_H-M   'P 1'
_cell_length_a   5.88993309
_cell_length_b   5.88993309
_cell_length_c   5.33772000
_cell_angle_alpha   90.00000000
_cell_angle_beta   90.00000000
_cell_angle_gamma   120.00001227
_symmetry_Int_Tables_number   1
_chemical_formula_structural   U3Ti
_chemical_formula_sum   'U6 Ti2'
_cell_volume   160.36407705
_cell_formula_units_Z   2
loop_
 _symmetry_equiv_pos_site_id
 _symmetry_equiv_pos_as_xyz
  1  'x, y, z'
loop_
 _atom_site_type_symbol
 _atom_site_label
 _atom_site_symmetry_multiplicity
 _atom_site_fract_x
 _atom_site_fract_y
 _atom_site_fract_z
 _atom_site_occupancy
  U  U0  1  0.17791100  0.35582100  0.25000000  1
  U  U1  1  0.64417900  0.82208900  0.25000000  1
  U  U2  1  0.17791100  0.82208900  0.25000000  1
  U  U3  1  0.82208900  0.64417900  0.75000000  1
  U  U4  1  0.35582100  0.17791100  0.75000000  1
  U  U5  1  0.82208900  0.17791100  0.75000000  1
  Ti  Ti0  1  0.33333300  0.66666700  0.75000000  1
  Ti  Ti1  1  0.66666700  0.33333300  0.25000000  1
loop_
_geom_bond_atom_site_label_1
_geom_bond_atom_site_label_2
_geom_bond_distance
_geom_bond_site_symmetry_2
U0 U1 2.746287 1_555
U0 U2 2.746287 1_555
U0 U1 3.143645 1_445
U0 U2 3.143646 1_545
U0 U4 3.227531 1_555
U0 U4 3.227531 1_554
U0 U5 3.227537 1_455
U0 U5 3.227537 1_454
U1 U2 2.746287 1_555
U1 U2 3.143646 1_655
U1 U3 3.227531 1_555
U1 U3 3.227531 1_554
U1 U5 3.227537 1_564
U1 U5 3.227537 1_565
U2 U4 3.227537 1_565
U2 U4 3.227537 1_564
U2 U3 3.227537 1_455
U2 U3 3.227537 1_454
U3 U4 2.746287 1_555
U3 U5 2.746287 1_555
U3 U4 3.143645 1_665
U3 U5 3.143646 1_565
U4 U5 2.746287 1_555
U4 U5 3.143646 1_455
Ti0 U5 2.947199 1_565
Ti0 U5 2.947199 1_455
Ti0 U4 2.947200 1_565
Ti0 U3 2.947200 1_455
Ti0 U4 2.947200 1_555
Ti0 U3 2.947200 1_555
Ti0 U2 3.104323 1_555
Ti0 U2 3.104323 1_556
Ti0 U0 3.104328 1_556
Ti0 U0 3.104328 1_555
Ti0 U1 3.104328 1_556
Ti0 U1 3.104328 1_555
Ti1 U2 2.947199 1_655
Ti1 U2 2.947199 1_545
Ti1 U0 2.947200 1_655
Ti1 U1 2.947200 1_545
Ti1 U0 2.947200 1_555
Ti1 U1 2.947200 1_555
Ti1 U5 3.104323 1_554
Ti1 U5 3.104323 1_555
Ti1 U4 3.104328 1_555
Ti1 U3 3.104328 1_554
Ti1 U3 3.104328 1_555
Ti1 U4 3.104328 1_554
