# generated using pymatgen
data_Cs2CeAgF6
_symmetry_space_group_name_H-M   'P 1'
_cell_length_a   6.77548304
_cell_length_b   6.77548304
_cell_length_c   6.77548304
_cell_angle_alpha   60.00000000
_cell_angle_beta   60.00000000
_cell_angle_gamma   60.00000000
_symmetry_Int_Tables_number   1
_chemical_formula_structural   Cs2CeAgF6
_chemical_formula_sum   'Cs2 Ce1 Ag1 F6'
_cell_volume   219.94079412
_cell_formula_units_Z   1
loop_
 _symmetry_equiv_pos_site_id
 _symmetry_equiv_pos_as_xyz
  1  'x, y, z'
loop_
 _atom_site_type_symbol
 _atom_site_label
 _atom_site_symmetry_multiplicity
 _atom_site_fract_x
 _atom_site_fract_y
 _atom_site_fract_z
 _atom_site_occupancy
  Cs  Cs0  1  0.25000000  0.25000000  0.25000000  1
  Cs  Cs1  1  0.75000000  0.75000000  0.75000000  1
  Ce  Ce0  1  0.00000000  0.00000000  0.00000000  1
  Ag  Ag0  1  0.50000000  0.50000000  0.50000000  1
  F  F0  1  0.23955500  0.76044500  0.76044500  1
  F  F1  1  0.76044500  0.76044500  0.23955500  1
  F  F2  1  0.76044500  0.23955500  0.23955500  1
  F  F3  1  0.76044500  0.23955500  0.76044500  1
  F  F4  1  0.23955500  0.76044500  0.23955500  1
  F  F5  1  0.23955500  0.23955500  0.76044500  1
loop_
_geom_bond_atom_site_label_1
_geom_bond_atom_site_label_2
_geom_bond_distance
_geom_bond_site_symmetry_2
Cs0 F3 3.389220 1_455
Cs0 F1 3.389220 1_455
Cs0 F2 3.389220 1_455
Cs0 F4 3.389220 1_555
Cs0 F0 3.389220 1_545
Cs0 F5 3.389220 1_554
Cs0 F5 3.389220 1_555
Cs0 F2 3.389220 1_555
Cs0 F3 3.389220 1_554
Cs0 F1 3.389220 1_545
Cs0 F4 3.389220 1_545
Cs0 F0 3.389220 1_554
Cs1 F0 3.389220 1_555
Cs1 F3 3.389220 1_555
Cs1 F3 3.389220 1_565
Cs1 F2 3.389220 1_565
Cs1 F1 3.389220 1_555
Cs1 F4 3.389220 1_556
Cs1 F1 3.389220 1_556
Cs1 F0 3.389220 1_655
Cs1 F4 3.389220 1_655
Cs1 F2 3.389220 1_556
Cs1 F5 3.389220 1_565
Cs1 F5 3.389220 1_655
Ce0 F3 2.295411 1_454
Ce0 F0 2.295411 1_544
Ce0 F1 2.295411 1_445
Ce0 F2 2.295411 1_455
Ce0 F5 2.295411 1_554
Ce0 F4 2.295411 1_545
Ag0 F3 2.495579 1_555
Ag0 F0 2.495579 1_555
Ag0 F1 2.495579 1_555
Ag0 F4 2.495579 1_555
Ag0 F5 2.495579 1_555
Ag0 F2 2.495579 1_555
