# generated using pymatgen
data_MgMnFeS4
_symmetry_space_group_name_H-M   'P 1'
_cell_length_a   7.08034608
_cell_length_b   7.09099800
_cell_length_c   7.09449676
_cell_angle_alpha   59.75541687
_cell_angle_beta   60.08614412
_cell_angle_gamma   60.07752082
_symmetry_Int_Tables_number   1
_chemical_formula_structural   MgMnFeS4
_chemical_formula_sum   'Mg2 Mn2 Fe2 S8'
_cell_volume   251.70586915
_cell_formula_units_Z   2
loop_
 _symmetry_equiv_pos_site_id
 _symmetry_equiv_pos_as_xyz
  1  'x, y, z'
loop_
 _atom_site_type_symbol
 _atom_site_label
 _atom_site_symmetry_multiplicity
 _atom_site_fract_x
 _atom_site_fract_y
 _atom_site_fract_z
 _atom_site_occupancy
  Mg  Mg0  1  0.87312700  0.87703700  0.87686800  1
  Mg  Mg1  1  0.12687800  0.12296000  0.12313000  1
  Mn  Mn0  1  0.50000100  0.50000200  0.00000300  1
  Mn  Mn1  1  0.49999700  0.00000300  0.50000800  1
  Fe  Fe0  1  0.50000300  0.50000200  0.49999700  1
  Fe  Fe1  1  0.99999500  0.50000000  0.50000400  1
  S  S0  1  0.74908800  0.72935300  0.72938800  1
  S  S1  1  0.25735600  0.28380500  0.70143100  1
  S  S2  1  0.25737400  0.70143900  0.28377600  1
  S  S3  1  0.70785400  0.27086200  0.27080600  1
  S  S4  1  0.74262300  0.29855800  0.71621400  1
  S  S5  1  0.29214800  0.72914100  0.72918700  1
  S  S6  1  0.25090900  0.27063300  0.27062500  1
  S  S7  1  0.74265100  0.71620100  0.29856500  1
loop_
_geom_bond_atom_site_label_1
_geom_bond_atom_site_label_2
_geom_bond_distance
_geom_bond_site_symmetry_2
Mg0 S0 2.429113 1_555
Mg0 S5 2.429412 1_655
Mg0 S4 2.439283 1_565
Mg0 S7 2.441697 1_556
Mg1 S6 2.429092 1_555
Mg1 S3 2.429429 1_455
Mg1 S2 2.439281 1_545
Mg1 S1 2.441711 1_554
Mn0 S0 2.404207 1_554
Mn0 S6 2.404317 1_555
Mn0 S3 2.405548 1_555
Mn0 S5 2.405619 1_554
Mn0 S2 2.458430 1_555
Mn0 S4 2.458548 1_554
Mn1 S6 2.404455 1_555
Mn1 S0 2.404469 1_545
Mn1 S5 2.405374 1_545
Mn1 S3 2.405391 1_555
Mn1 S1 2.458166 1_555
Mn1 S7 2.458258 1_545
Fe0 S1 2.305634 1_555
Fe0 S7 2.305651 1_555
Fe0 S4 2.305905 1_555
Fe0 S2 2.305979 1_555
Fe0 S5 2.310599 1_555
Fe0 S3 2.310612 1_555
Fe1 S4 2.305579 1_555
Fe1 S2 2.305597 1_655
Fe1 S7 2.305619 1_555
Fe1 S1 2.305656 1_655
Fe1 S0 2.312909 1_555
Fe1 S6 2.312955 1_655
