# generated using pymatgen
data_Li3MnCoO5
_symmetry_space_group_name_H-M   'P 1'
_cell_length_a   2.97075500
_cell_length_b   5.97652807
_cell_length_c   10.30596265
_cell_angle_alpha   97.28577091
_cell_angle_beta   96.93784783
_cell_angle_gamma   93.62506846
_symmetry_Int_Tables_number   1
_chemical_formula_structural   Li3MnCoO5
_chemical_formula_sum   'Li6 Mn2 Co2 O10'
_cell_volume   179.59976570
_cell_formula_units_Z   2
loop_
 _symmetry_equiv_pos_site_id
 _symmetry_equiv_pos_as_xyz
  1  'x, y, z'
loop_
 _atom_site_type_symbol
 _atom_site_label
 _atom_site_symmetry_multiplicity
 _atom_site_fract_x
 _atom_site_fract_y
 _atom_site_fract_z
 _atom_site_occupancy
  Li  Li0  1  0.99646600  0.50108100  0.99763400  1
  Li  Li1  1  0.60633900  0.31018600  0.20998200  1
  Li  Li2  1  0.39739100  0.69671100  0.79561200  1
  Li  Li3  1  0.79540500  0.89145100  0.59261100  1
  Li  Li4  1  0.20738400  0.08970100  0.40606300  1
  Li  Li5  1  0.19336100  0.61209700  0.40605500  1
  Mn  Mn0  1  0.00539100  0.99997300  0.99641100  1
  Mn  Mn1  1  0.60974100  0.79401600  0.20799200  1
  Co  Co0  1  0.79022700  0.40639200  0.59091400  1
  Co  Co1  1  0.39731700  0.20158700  0.79645500  1
  O  O0  1  0.46670400  0.24319100  0.99122700  1
  O  O1  1  0.12287800  0.02108700  0.19442500  1
  O  O2  1  0.86243300  0.43165700  0.78403500  1
  O  O3  1  0.26865200  0.62849100  0.60141400  1
  O  O4  1  0.68881800  0.84889100  0.38686500  1
  O  O5  1  0.54077800  0.76119100  0.00793600  1
  O  O6  1  0.08303100  0.57933600  0.20118900  1
  O  O7  1  0.92808500  0.96589100  0.80399200  1
  O  O8  1  0.32971600  0.16720800  0.60975100  1
  O  O9  1  0.70988200  0.34986200  0.41943700  1
loop_
_geom_bond_atom_site_label_1
_geom_bond_atom_site_label_2
_geom_bond_distance
_geom_bond_site_symmetry_2
Li0 O6 2.071562 1_656
Li0 O0 2.121107 1_555
Li0 O5 2.125911 1_556
Li0 O0 2.144801 1_655
Li0 O5 2.154402 1_656
Li0 O2 2.170784 1_555
Li1 O6 2.093109 1_655
Li1 O9 2.123933 1_555
Li1 O1 2.152703 1_555
Li1 O0 2.222429 1_554
Li1 O6 2.309060 1_555
Li1 O1 2.385414 1_655
Li2 O3 1.976484 1_555
Li2 O2 2.153409 1_455
Li2 O5 2.158325 1_556
Li2 O7 2.166162 1_555
Li2 O2 2.168146 1_555
Li2 O7 2.194726 1_455
Li3 O4 2.086125 1_555
Li3 O7 2.150267 1_555
Li3 O3 2.164800 1_555
Li3 O3 2.177022 1_655
Li3 O8 2.189635 1_665
Li3 O8 2.221437 1_565
Li4 O4 2.014318 1_445
Li4 O9 2.065782 1_555
Li4 O8 2.073901 1_555
Li4 O4 2.100579 1_545
Li4 O1 2.148573 1_555
Li4 O9 2.215038 1_455
Li5 O3 1.987878 1_555
Li5 O4 2.021451 1_555
Li5 O6 2.079274 1_555
Li5 O9 2.087171 1_455
Li5 O4 2.134515 1_455
Li5 O9 2.266644 1_555
Mn0 O0 1.944071 1_565
Mn0 O5 1.946611 1_456
Mn0 O7 1.951507 1_455
Mn0 O1 2.014781 1_566
Mn0 O5 2.205621 1_556
Mn0 O0 2.229347 1_465
Mn1 O4 1.814766 1_555
Mn1 O6 1.948407 1_555
Mn1 O6 1.963962 1_655
Mn1 O1 2.005763 1_665
Mn1 O5 2.030181 1_555
Mn1 O1 2.049554 1_565
Co0 O9 1.740890 1_555
Co0 O3 1.865889 1_655
Co0 O8 1.959587 1_555
Co0 O2 1.961285 1_555
Co0 O3 2.106815 1_555
Co0 O8 2.221413 1_655
Co1 O8 1.893702 1_555
Co1 O2 1.914001 1_555
Co1 O7 1.933669 1_445
Co1 O0 1.974990 1_555
Co1 O2 2.168827 1_455
Co1 O7 2.180731 1_545
