# generated using pymatgen
data_VCu6AgMo5O24
_symmetry_space_group_name_H-M   'P 1'
_cell_length_a   6.84119691
_cell_length_b   8.60258425
_cell_length_c   9.93014281
_cell_angle_alpha   101.93497524
_cell_angle_beta   103.11217877
_cell_angle_gamma   101.18515007
_symmetry_Int_Tables_number   1
_chemical_formula_structural   VCu6AgMo5O24
_chemical_formula_sum   'V1 Cu6 Ag1 Mo5 O24'
_cell_volume   538.77872803
_cell_formula_units_Z   1
loop_
 _symmetry_equiv_pos_site_id
 _symmetry_equiv_pos_as_xyz
  1  'x, y, z'
loop_
 _atom_site_type_symbol
 _atom_site_label
 _atom_site_symmetry_multiplicity
 _atom_site_fract_x
 _atom_site_fract_y
 _atom_site_fract_z
 _atom_site_occupancy
  V  V0  1  0.10554600  0.09051100  0.33926300  1
  Cu  Cu0  1  0.04963700  0.20627400  0.01735000  1
  Cu  Cu1  1  0.25292700  0.26887600  0.76680300  1
  Cu  Cu2  1  0.36810400  0.94162800  0.59250400  1
  Cu  Cu3  1  0.61662000  0.04649700  0.39183700  1
  Cu  Cu4  1  0.75296300  0.73736900  0.23827800  1
  Cu  Cu5  1  0.95253500  0.80063400  0.99253400  1
  Ag  Ag0  1  0.99052500  0.48786500  0.48351000  1
  Mo  Mo0  1  0.23256000  0.67121000  0.25957600  1
  Mo  Mo1  1  0.40583300  0.72523000  0.88085800  1
  Mo  Mo2  1  0.59388200  0.27876700  0.11841900  1
  Mo  Mo3  1  0.76950400  0.33270800  0.74260300  1
  Mo  Mo4  1  0.89050100  0.90708000  0.65608400  1
  O  O0  1  0.00719500  0.75075900  0.17824700  1
  O  O1  1  0.23283400  0.78215100  0.98306000  1
  O  O2  1  0.14230100  0.02779900  0.65142900  1
  O  O3  1  0.22528200  0.67780500  0.43970000  1
  O  O4  1  0.14492900  0.28150700  0.43791200  1
  O  O5  1  0.31956500  0.50816000  0.79606200  1
  O  O6  1  0.08462500  0.09066000  0.16249600  1
  O  O7  1  0.18219300  0.46680400  0.16572100  1
  O  O8  1  0.33460900  0.22489600  0.99626500  1
  O  O9  1  0.40925800  0.83638000  0.74766200  1
  O  O10  1  0.32715100  0.01091200  0.41254900  1
  O  O11  1  0.49455300  0.76764400  0.26481300  1
  O  O12  1  0.50742000  0.23525200  0.73598600  1
  O  O13  1  0.66486400  0.98273900  0.57984100  1
  O  O14  1  0.58891600  0.16515500  0.24854100  1
  O  O15  1  0.66330900  0.77939600  0.00412200  1
  O  O16  1  0.82385800  0.53657200  0.83913500  1
  O  O17  1  0.90392500  0.89908900  0.83574100  1
  O  O18  1  0.68248700  0.49555800  0.20659000  1
  O  O19  1  0.85170200  0.70750700  0.55266400  1
  O  O20  1  0.77420300  0.32683500  0.56340900  1
  O  O21  1  0.86140100  0.97381700  0.35164400  1
  O  O22  1  0.76779200  0.22229500  0.01667800  1
  O  O23  1  0.98940400  0.24104000  0.81896200  1
loop_
_geom_bond_atom_site_label_1
_geom_bond_atom_site_label_2
_geom_bond_distance
_geom_bond_site_symmetry_2
Cu0 O6 1.911182 1_555
Cu0 O22 1.958180 1_455
Cu0 O8 1.986997 1_554
Cu0 O23 2.015791 1_454
Cu0 O7 2.292542 1_555
Cu1 O12 1.899743 1_555
Cu1 O5 1.964173 1_555
Cu1 O23 1.970589 1_455
Cu1 O2 2.049708 1_555
Cu1 O8 2.346966 1_555
Cu2 O9 1.936998 1_555
Cu2 O10 1.976152 1_565
Cu2 O2 1.988255 1_565
Cu2 O13 2.029345 1_555
Cu2 O3 2.334661 1_555
Cu2 O12 2.506008 1_565
Cu3 O14 1.912098 1_555
Cu3 O21 1.990157 1_545
Cu3 O10 2.008310 1_555
Cu3 O13 2.027138 1_545
Cu3 O11 2.352940 1_545
Cu3 O20 2.517832 1_555
Cu4 O11 1.903704 1_555
Cu4 O0 1.953127 1_655
Cu4 O18 1.982431 1_555
Cu4 O21 2.010879 1_555
Cu4 O15 2.387494 1_555
Cu5 O17 1.916218 1_555
Cu5 O0 1.949731 1_656
Cu5 O1 1.976158 1_655
Cu5 O15 1.983289 1_556
Cu5 O16 2.332409 1_555
Cu5 O6 2.565475 1_666
Ag0 O20 2.220489 1_555
Ag0 O3 2.243069 1_655
Ag0 O4 2.254824 1_655
Ag0 O19 2.323602 1_555
Mo0 O7 1.738040 1_555
Mo0 O3 1.790118 1_555
Mo0 O11 1.807325 1_555
Mo0 O0 1.889589 1_555
Mo1 O9 1.786810 1_555
Mo1 O1 1.798539 1_555
Mo1 O5 1.800277 1_555
Mo1 O15 1.812592 1_556
Mo2 O14 1.776329 1_555
Mo2 O22 1.799677 1_555
Mo2 O18 1.804819 1_555
Mo2 O8 1.817881 1_554
Mo3 O16 1.738611 1_555
Mo3 O20 1.777450 1_555
Mo3 O12 1.806243 1_555
Mo3 O23 1.910490 1_555
Mo4 O19 1.744409 1_555
Mo4 O17 1.781775 1_555
Mo4 O2 1.846607 1_665
Mo4 O13 1.855519 1_555
O4 V0 1.665726 1_555
O6 V0 1.728773 1_555
O10 V0 1.845309 1_555
O21 V0 1.818325 1_665
