# generated using pymatgen
data_CsCe(PO3)4
_symmetry_space_group_name_H-M   'P 1'
_cell_length_a   9.36012800
_cell_length_b   7.29682600
_cell_length_c   8.95508421
_cell_angle_alpha   80.40980584
_cell_angle_beta   90.00000000
_cell_angle_gamma   90.00000000
_symmetry_Int_Tables_number   1
_chemical_formula_structural   CsCe(PO3)4
_chemical_formula_sum   'Cs2 Ce2 P8 O24'
_cell_volume   603.07758383
_cell_formula_units_Z   2
loop_
 _symmetry_equiv_pos_site_id
 _symmetry_equiv_pos_as_xyz
  1  'x, y, z'
loop_
 _atom_site_type_symbol
 _atom_site_label
 _atom_site_symmetry_multiplicity
 _atom_site_fract_x
 _atom_site_fract_y
 _atom_site_fract_z
 _atom_site_occupancy
  Cs  Cs0  1  0.79996100  0.82694000  0.17484900  1
  Cs  Cs1  1  0.29996100  0.17306000  0.82515100  1
  Ce  Ce0  1  0.46572100  0.29732700  0.30303500  1
  Ce  Ce1  1  0.96572100  0.70267300  0.69696500  1
  P  P0  1  0.38992400  0.80649700  0.22715500  1
  P  P1  1  0.88992400  0.19350300  0.77284500  1
  P  P2  1  0.07440200  0.44007100  0.37607600  1
  P  P3  1  0.57440200  0.55992900  0.62392400  1
  P  P4  1  0.18939800  0.58217100  0.07309800  1
  P  P5  1  0.68939800  0.41782900  0.92690200  1
  P  P6  1  0.33961000  0.85465800  0.54230900  1
  P  P7  1  0.83961000  0.14534200  0.45769100  1
  O  O0  1  0.01957000  0.57727900  0.46966200  1
  O  O1  1  0.51957000  0.42272100  0.53033800  1
  O  O2  1  0.45209300  0.71199000  0.63373300  1
  O  O3  1  0.95209300  0.28801000  0.36626700  1
  O  O4  1  0.30577200  0.77756800  0.38759600  1
  O  O5  1  0.80577200  0.22243200  0.61240400  1
  O  O6  1  0.20520800  0.83658500  0.63436800  1
  O  O7  1  0.70520800  0.16341500  0.36563200  1
  O  O8  1  0.93307000  0.99313800  0.81786900  1
  O  O9  1  0.43307000  0.00686200  0.18213100  1
  O  O10  1  0.21778900  0.35115900  0.40672900  1
  O  O11  1  0.71778900  0.64884100  0.59327100  1
  O  O12  1  0.29552400  0.42578200  0.09203900  1
  O  O13  1  0.79552400  0.57421800  0.90796100  1
  O  O14  1  0.06468800  0.54197400  0.19982400  1
  O  O15  1  0.56468800  0.45802600  0.80017600  1
  O  O16  1  0.26085600  0.77196700  0.11521800  1
  O  O17  1  0.76085600  0.22803300  0.88478200  1
  O  O18  1  0.50014200  0.65584700  0.23316800  1
  O  O19  1  0.00014200  0.34415300  0.76683200  1
  O  O20  1  0.11592400  0.64098500  0.92535400  1
  O  O21  1  0.61592400  0.35901500  0.07464600  1
  O  O22  1  0.91128700  0.95915600  0.49198100  1
  O  O23  1  0.41128700  0.04084400  0.50801900  1
loop_
_geom_bond_atom_site_label_1
_geom_bond_atom_site_label_2
_geom_bond_distance
_geom_bond_site_symmetry_2
Cs0 O18 3.080529 1_555
Cs0 O14 3.218483 1_655
Cs0 O13 3.253146 1_554
Cs0 O22 3.315837 1_555
Cs0 O7 3.336338 1_565
Cs0 O8 3.456976 1_554
Cs0 O0 3.593263 1_655
Cs0 O17 3.593588 1_564
Cs0 O9 3.680997 1_565
Cs0 O11 3.833793 1_555
Cs1 O19 3.080529 1_555
Cs1 O15 3.218483 1_555
Cs1 O12 3.253146 1_556
Cs1 O23 3.315837 1_555
Cs1 O6 3.336338 1_545
Cs1 O9 3.456976 1_556
Cs1 O1 3.593263 1_555
Cs1 O16 3.593588 1_546
Cs1 O8 3.680997 1_445
Cs1 O10 3.833793 1_555
Ce0 O1 2.419739 1_555
Ce0 O23 2.446850 1_555
Ce0 O21 2.460791 1_555
Ce0 O7 2.472127 1_555
Ce0 O12 2.529123 1_555
Ce0 O9 2.553905 1_555
Ce0 O10 2.554142 1_555
Ce0 O18 2.606462 1_555
Ce1 O0 2.419739 1_655
Ce1 O22 2.446850 1_555
Ce1 O20 2.460791 1_655
Ce1 O6 2.472127 1_655
Ce1 O13 2.529123 1_555
Ce1 O8 2.553905 1_555
Ce1 O11 2.554142 1_555
Ce1 O19 2.606462 1_655
O0 P2 1.499238 1_555
O1 P3 1.499238 1_555
O2 P6 1.605782 1_555
O2 P3 1.606845 1_555
O3 P7 1.605782 1_555
O3 P2 1.606845 1_655
O4 P6 1.611191 1_555
O4 P0 1.621179 1_555
O5 P7 1.611191 1_555
O5 P1 1.621179 1_555
O6 P6 1.497802 1_555
O7 P7 1.497802 1_555
O8 P1 1.505581 1_565
O9 P0 1.505581 1_545
O10 P2 1.496064 1_555
O11 P3 1.496064 1_555
O12 P4 1.501078 1_555
O13 P5 1.501078 1_555
O14 P4 1.620364 1_555
O14 P2 1.631351 1_555
O15 P5 1.620364 1_555
O15 P3 1.631351 1_555
O16 P0 1.616151 1_555
O16 P4 1.637579 1_555
O17 P1 1.616151 1_555
O17 P5 1.637579 1_555
O18 P0 1.501957 1_555
O19 P1 1.501957 1_455
O20 P4 1.489442 1_556
O21 P5 1.489442 1_554
O22 P7 1.500369 1_565
O23 P6 1.500369 1_545
