# generated using pymatgen
data_Li3CoSiBO7
_symmetry_space_group_name_H-M   'P 1'
_cell_length_a   5.02569138
_cell_length_b   16.81822424
_cell_length_c   6.23178000
_cell_angle_alpha   90.00178014
_cell_angle_beta   90.00257066
_cell_angle_gamma   85.62988667
_symmetry_Int_Tables_number   1
_chemical_formula_structural   Li3CoSiBO7
_chemical_formula_sum   'Li12 Co4 Si4 B4 O28'
_cell_volume   525.19861857
_cell_formula_units_Z   4
loop_
 _symmetry_equiv_pos_site_id
 _symmetry_equiv_pos_as_xyz
  1  'x, y, z'
loop_
 _atom_site_type_symbol
 _atom_site_label
 _atom_site_symmetry_multiplicity
 _atom_site_fract_x
 _atom_site_fract_y
 _atom_site_fract_z
 _atom_site_occupancy
  Li  Li0  1  0.76846200  0.05223500  0.24999100  1
  Li  Li1  1  0.75697500  0.55349700  0.24998200  1
  Li  Li2  1  0.23117400  0.44909900  0.74999900  1
  Li  Li3  1  0.24359700  0.94533300  0.74999900  1
  Li  Li4  1  0.25291700  0.12356100  0.00434900  1
  Li  Li5  1  0.25240100  0.62615100  0.00261900  1
  Li  Li6  1  0.25300200  0.12361200  0.49552000  1
  Li  Li7  1  0.25252800  0.62621900  0.49718700  1
  Li  Li8  1  0.74750700  0.37664500  0.50588900  1
  Li  Li9  1  0.74723700  0.87475800  0.50100000  1
  Li  Li10  1  0.74741300  0.37657100  0.99395400  1
  Li  Li11  1  0.74716600  0.87473100  0.99893900  1
  Co  Co0  1  0.80004600  0.65864700  0.75001000  1
  Co  Co1  1  0.20025200  0.83872200  0.25000100  1
  Co  Co2  1  0.80842500  0.16273800  0.74997200  1
  Co  Co3  1  0.19146700  0.33746400  0.24998200  1
  Si  Si0  1  0.72287700  0.21361100  0.24997200  1
  Si  Si1  1  0.72208800  0.71298100  0.25001300  1
  Si  Si2  1  0.27754800  0.28680900  0.74998100  1
  Si  Si3  1  0.27978000  0.78452200  0.74999100  1
  B  B0  1  0.73431300  0.01926000  0.75002800  1
  B  B1  1  0.70750000  0.52281200  0.74999600  1
  B  B2  1  0.26698500  0.48039100  0.25000600  1
  B  B3  1  0.28470800  0.97936300  0.25001700  1
  O  O0  1  0.37061500  0.05337400  0.25001400  1
  O  O1  1  0.36279800  0.55312300  0.24992000  1
  O  O2  1  0.63301600  0.44782800  0.75000300  1
  O  O3  1  0.63856800  0.94633800  0.74999000  1
  O  O4  1  0.99421100  0.03834300  0.74998000  1
  O  O5  1  0.96529700  0.54790500  0.75013200  1
  O  O6  1  0.00700500  0.46122300  0.25005000  1
  O  O7  1  0.02563700  0.95784900  0.24999800  1
  O  O8  1  0.55068500  0.08872900  0.75017500  1
  O  O9  1  0.52357100  0.59027300  0.74981900  1
  O  O10  1  0.45055400  0.41095900  0.25007100  1
  O  O11  1  0.47192800  0.91197200  0.25003600  1
  O  O12  1  0.40033700  0.23162300  0.25012200  1
  O  O13  1  0.39690000  0.73154100  0.25010900  1
  O  O14  1  0.60027000  0.26889500  0.75022000  1
  O  O15  1  0.60577700  0.76320500  0.75001000  1
  O  O16  1  0.14735000  0.19996100  0.74993100  1
  O  O17  1  0.13617600  0.70124600  0.75005900  1
  O  O18  1  0.85345600  0.30037500  0.24997900  1
  O  O19  1  0.85714100  0.79809000  0.24996200  1
  O  O20  1  0.83480900  0.15295300  0.05648500  1
  O  O21  1  0.82133700  0.65150000  0.05209200  1
  O  O22  1  0.83483700  0.15298200  0.44352900  1
  O  O23  1  0.82153700  0.65150900  0.44789500  1
  O  O24  1  0.16587900  0.34761600  0.55670200  1
  O  O25  1  0.18402700  0.84663000  0.55395100  1
  O  O26  1  0.16579300  0.34759600  0.94330300  1
  O  O27  1  0.18412300  0.84662900  0.94606700  1
loop_
_geom_bond_atom_site_label_1
_geom_bond_atom_site_label_2
_geom_bond_distance
_geom_bond_site_symmetry_2
Li0 O7 1.969185 1_645
Li0 O0 1.998088 1_555
Li0 O20 2.126235 1_555
Li0 O22 2.126696 1_555
Li1 O6 1.920974 1_655
Li1 O1 1.981501 1_555
Li1 O21 2.103217 1_555
Li1 O23 2.103560 1_555
Li2 O2 2.018018 1_555
Li2 O5 2.051455 1_455
Li2 O24 2.134700 1_555
Li2 O26 2.135166 1_555
Li3 O4 1.928468 1_465
Li3 O3 1.986362 1_555
Li3 O25 2.100823 1_555
Li3 O27 2.100887 1_555
Li4 O0 1.995157 1_555
Li4 O16 2.083837 1_554
Li4 O20 2.146405 1_455
Li4 O8 2.226686 1_554
Li4 O12 2.530343 1_555
Li4 O4 2.557536 1_454
Li5 O1 2.021773 1_555
Li5 O17 2.073894 1_554
Li5 O9 2.139637 1_554
Li5 O21 2.197583 1_455
Li5 O13 2.498726 1_555
Li5 O5 2.564851 1_454
Li6 O0 1.994762 1_555
Li6 O16 2.083356 1_555
Li6 O22 2.146462 1_455
Li6 O8 2.228653 1_555
Li6 O12 2.528253 1_555
Li6 O4 2.558765 1_455
Li7 O1 2.022117 1_555
Li7 O17 2.074829 1_555
Li7 O9 2.138678 1_555
Li7 O23 2.196927 1_455
Li7 O13 2.496193 1_555
Li7 O5 2.567752 1_455
Li8 O2 1.993372 1_555
Li8 O18 2.089994 1_555
Li8 O24 2.145483 1_655
Li8 O10 2.229429 1_555
Li8 O14 2.520810 1_555
Li8 O6 2.559127 1_655
Li9 O3 2.013678 1_555
Li9 O19 2.075208 1_555
Li9 O11 2.149409 1_555
Li9 O25 2.234534 1_655
Li9 O15 2.576203 1_555
Li9 O7 2.579820 1_655
Li10 O2 1.993221 1_555
Li10 O18 2.089924 1_556
Li10 O26 2.145258 1_655
Li10 O10 2.230784 1_556
Li10 O14 2.517368 1_555
Li10 O6 2.560998 1_656
Li11 O3 2.013683 1_555
Li11 O19 2.074966 1_556
Li11 O11 2.149962 1_556
Li11 O27 2.235237 1_655
Li11 O15 2.575332 1_555
Li11 O7 2.580379 1_656
Co0 O9 1.869890 1_555
Co0 O17 1.884520 1_655
Co0 O21 1.888855 1_556
Co0 O23 1.889105 1_555
Co0 O15 1.945209 1_555
Co0 O5 1.980618 1_555
Co1 O27 1.900010 1_554
Co1 O25 1.900128 1_555
Co1 O19 1.902632 1_455
Co1 O11 1.907409 1_555
Co1 O13 1.988611 1_555
Co1 O7 2.125135 1_555
Co2 O16 1.858966 1_655
Co2 O8 1.863558 1_555
Co2 O22 1.920449 1_555
Co2 O20 1.920911 1_556
Co2 O14 1.999323 1_555
Co2 O4 2.225085 1_555
Co3 O18 1.853723 1_455
Co3 O10 1.862405 1_555
Co3 O26 1.922199 1_554
Co3 O24 1.922456 1_555
Co3 O12 1.996433 1_555
Co3 O6 2.213055 1_555
B0 O3 1.351139 1_545
B0 O4 1.368562 1_555
B0 O8 1.432613 1_555
B1 O2 1.342548 1_555
B1 O5 1.392849 1_555
B1 O9 1.407796 1_555
B2 O1 1.348298 1_555
B2 O6 1.369403 1_555
B2 O10 1.431963 1_555
B3 O0 1.348207 1_565
B3 O7 1.377660 1_555
B3 O11 1.416820 1_555
O12 Si0 1.626201 1_555
O13 Si1 1.640308 1_555
O14 Si2 1.626919 1_555
O15 Si3 1.650225 1_555
O16 Si2 1.645371 1_555
O17 Si3 1.623718 1_555
O18 Si0 1.644966 1_555
O19 Si1 1.630213 1_555
O20 Si0 1.650326 1_555
O21 Si1 1.661507 1_555
O22 Si0 1.650407 1_555
O23 Si1 1.661505 1_555
O24 Si2 1.650488 1_555
O25 Si3 1.654864 1_555
O26 Si2 1.650600 1_555
O27 Si3 1.654886 1_555
