# generated using pymatgen
data_KAl(SO10)2
_symmetry_space_group_name_H-M   'P 1'
_cell_length_a   11.36062900
_cell_length_b   11.36062900
_cell_length_c   11.36062900
_cell_angle_alpha   90.00000000
_cell_angle_beta   90.00000000
_cell_angle_gamma   90.00000000
_symmetry_Int_Tables_number   1
_chemical_formula_structural   KAl(SO10)2
_chemical_formula_sum   'K4 Al4 S8 O80'
_cell_volume   1466.24698608
_cell_formula_units_Z   4
loop_
 _symmetry_equiv_pos_site_id
 _symmetry_equiv_pos_as_xyz
  1  'x, y, z'
loop_
 _atom_site_type_symbol
 _atom_site_label
 _atom_site_symmetry_multiplicity
 _atom_site_fract_x
 _atom_site_fract_y
 _atom_site_fract_z
 _atom_site_occupancy
  K  K0  1  0.50000000  0.50000000  0.00000000  1
  K  K1  1  0.50000000  0.00000000  0.50000000  1
  K  K2  1  0.00000000  0.50000000  0.50000000  1
  K  K3  1  0.00000000  0.00000000  0.00000000  1
  Al  Al0  1  0.00000000  0.00000000  0.50000000  1
  Al  Al1  1  0.00000000  0.50000000  0.00000000  1
  Al  Al2  1  0.50000000  0.00000000  0.00000000  1
  Al  Al3  1  0.50000000  0.50000000  0.50000000  1
  S  S0  1  0.30055200  0.69944800  0.19944800  1
  S  S1  1  0.69944800  0.19944800  0.30055200  1
  S  S2  1  0.19944800  0.30055200  0.69944800  1
  S  S3  1  0.80055200  0.80055200  0.80055200  1
  S  S4  1  0.69944800  0.30055200  0.80055200  1
  S  S5  1  0.30055200  0.80055200  0.69944800  1
  S  S6  1  0.80055200  0.69944800  0.30055200  1
  S  S7  1  0.19944800  0.19944800  0.19944800  1
  O  O0  1  0.22196600  0.77803400  0.27803400  1
  O  O1  1  0.77803400  0.27803400  0.22196600  1
  O  O2  1  0.27803400  0.22196600  0.77803400  1
  O  O3  1  0.72196600  0.72196600  0.72196600  1
  O  O4  1  0.77803400  0.22196600  0.72196600  1
  O  O5  1  0.22196600  0.72196600  0.77803400  1
  O  O6  1  0.72196600  0.77803400  0.22196600  1
  O  O7  1  0.27803400  0.27803400  0.27803400  1
  O  O8  1  0.25288800  0.57764700  0.20048800  1
  O  O9  1  0.74711200  0.07764700  0.29951200  1
  O  O10  1  0.24711200  0.42235300  0.70048800  1
  O  O11  1  0.75288800  0.92235300  0.79951200  1
  O  O12  1  0.20048800  0.25288800  0.57764700  1
  O  O13  1  0.29951200  0.74711200  0.07764700  1
  O  O14  1  0.70048800  0.24711200  0.42235300  1
  O  O15  1  0.79951200  0.75288800  0.92235300  1
  O  O16  1  0.57764700  0.20048800  0.25288800  1
  O  O17  1  0.07764700  0.29951200  0.74711200  1
  O  O18  1  0.42235300  0.70048800  0.24711200  1
  O  O19  1  0.92235300  0.79951200  0.75288800  1
  O  O20  1  0.74711200  0.42235300  0.79951200  1
  O  O21  1  0.25288800  0.92235300  0.70048800  1
  O  O22  1  0.75288800  0.57764700  0.29951200  1
  O  O23  1  0.24711200  0.07764700  0.20048800  1
  O  O24  1  0.79951200  0.74711200  0.42235300  1
  O  O25  1  0.70048800  0.25288800  0.92235300  1
  O  O26  1  0.29951200  0.75288800  0.57764700  1
  O  O27  1  0.20048800  0.24711200  0.07764700  1
  O  O28  1  0.42235300  0.79951200  0.74711200  1
  O  O29  1  0.92235300  0.70048800  0.25288800  1
  O  O30  1  0.57764700  0.29951200  0.75288800  1
  O  O31  1  0.07764700  0.20048800  0.24711200  1
  O  O32  1  0.15182600  0.71592200  0.45161300  1
  O  O33  1  0.84817400  0.21592200  0.04838700  1
  O  O34  1  0.34817400  0.28407800  0.95161300  1
  O  O35  1  0.65182600  0.78407800  0.54838700  1
  O  O36  1  0.45161300  0.15182600  0.71592200  1
  O  O37  1  0.04838700  0.84817400  0.21592200  1
  O  O38  1  0.95161300  0.34817400  0.28407800  1
  O  O39  1  0.54838700  0.65182600  0.78407800  1
  O  O40  1  0.71592200  0.45161300  0.15182600  1
  O  O41  1  0.21592200  0.04838700  0.84817400  1
  O  O42  1  0.28407800  0.95161300  0.34817400  1
  O  O43  1  0.78407800  0.54838700  0.65182600  1
  O  O44  1  0.84817400  0.28407800  0.54838700  1
  O  O45  1  0.15182600  0.78407800  0.95161300  1
  O  O46  1  0.65182600  0.71592200  0.04838700  1
  O  O47  1  0.34817400  0.21592200  0.45161300  1
  O  O48  1  0.54838700  0.84817400  0.28407800  1
  O  O49  1  0.95161300  0.15182600  0.78407800  1
  O  O50  1  0.04838700  0.65182600  0.71592200  1
  O  O51  1  0.45161300  0.34817400  0.21592200  1
  O  O52  1  0.28407800  0.54838700  0.84817400  1
  O  O53  1  0.78407800  0.95161300  0.15182600  1
  O  O54  1  0.71592200  0.04838700  0.65182600  1
  O  O55  1  0.21592200  0.45161300  0.34817400  1
  O  O56  1  0.16252500  0.51370700  0.97885300  1
  O  O57  1  0.83747500  0.01370700  0.52114700  1
  O  O58  1  0.33747500  0.48629300  0.47885300  1
  O  O59  1  0.66252500  0.98629300  0.02114700  1
  O  O60  1  0.97885300  0.16252500  0.51370700  1
  O  O61  1  0.52114700  0.83747500  0.01370700  1
  O  O62  1  0.47885300  0.33747500  0.48629300  1
  O  O63  1  0.02114700  0.66252500  0.98629300  1
  O  O64  1  0.51370700  0.97885300  0.16252500  1
  O  O65  1  0.01370700  0.52114700  0.83747500  1
  O  O66  1  0.48629300  0.47885300  0.33747500  1
  O  O67  1  0.98629300  0.02114700  0.66252500  1
  O  O68  1  0.83747500  0.48629300  0.02114700  1
  O  O69  1  0.16252500  0.98629300  0.47885300  1
  O  O70  1  0.66252500  0.51370700  0.52114700  1
  O  O71  1  0.33747500  0.01370700  0.97885300  1
  O  O72  1  0.02114700  0.83747500  0.48629300  1
  O  O73  1  0.47885300  0.16252500  0.98629300  1
  O  O74  1  0.52114700  0.66252500  0.51370700  1
  O  O75  1  0.97885300  0.33747500  0.01370700  1
  O  O76  1  0.48629300  0.02114700  0.83747500  1
  O  O77  1  0.98629300  0.47885300  0.16252500  1
  O  O78  1  0.51370700  0.52114700  0.66252500  1
  O  O79  1  0.01370700  0.97885300  0.33747500  1
loop_
_geom_bond_atom_site_label_1
_geom_bond_atom_site_label_2
_geom_bond_distance
_geom_bond_site_symmetry_2
K0 O40 3.048689 1_555
K0 O46 3.048689 1_555
K0 O51 3.048689 1_555
K0 O52 3.048689 1_554
K0 O34 3.048689 1_554
K0 O39 3.048689 1_554
K1 O36 3.048689 1_555
K1 O54 3.048689 1_555
K1 O48 3.048689 1_545
K1 O47 3.048689 1_555
K1 O42 3.048689 1_545
K1 O35 3.048689 1_545
K2 O50 3.048689 1_555
K2 O32 3.048689 1_555
K2 O44 3.048689 1_455
K2 O55 3.048689 1_555
K2 O38 3.048689 1_455
K2 O43 3.048689 1_455
K3 O41 3.048689 1_554
K3 O37 3.048689 1_545
K3 O33 3.048689 1_455
K3 O45 3.048689 1_544
K3 O53 3.048689 1_445
K3 O49 3.048689 1_454
Al0 O67 1.868451 1_455
Al0 O57 1.868451 1_455
Al0 O69 1.868451 1_545
Al0 O60 1.868451 1_455
Al0 O72 1.868451 1_545
Al0 O79 1.868451 1_545
Al1 O63 1.868451 1_554
Al1 O65 1.868451 1_554
Al1 O56 1.868451 1_554
Al1 O77 1.868451 1_455
Al1 O68 1.868451 1_455
Al1 O75 1.868451 1_455
Al2 O59 1.868451 1_545
Al2 O61 1.868451 1_545
Al2 O73 1.868451 1_554
Al2 O64 1.868451 1_545
Al2 O76 1.868451 1_554
Al2 O71 1.868451 1_554
Al3 O70 1.868451 1_555
Al3 O74 1.868451 1_555
Al3 O78 1.868451 1_555
Al3 O66 1.868451 1_555
Al3 O58 1.868451 1_555
Al3 O62 1.868451 1_555
O0 S0 1.546351 1_555
O1 S1 1.546351 1_555
O2 S2 1.546351 1_555
O3 S3 1.546351 1_555
O4 S4 1.546351 1_555
O5 S5 1.546351 1_555
O6 S6 1.546351 1_555
O7 S7 1.546351 1_555
O8 S0 1.485961 1_555
O9 S1 1.485961 1_555
O10 S2 1.485961 1_555
O11 S3 1.485961 1_555
O12 S2 1.485961 1_555
O13 S0 1.485961 1_555
O14 S1 1.485961 1_555
O15 S3 1.485961 1_555
O16 S1 1.485961 1_555
O17 S2 1.485961 1_555
O18 S0 1.485961 1_555
O19 S3 1.485961 1_555
O20 S4 1.485961 1_555
O21 S5 1.485961 1_555
O22 S6 1.485961 1_555
O23 S7 1.485961 1_555
O24 S6 1.485961 1_555
O25 S4 1.485961 1_555
O26 S5 1.485961 1_555
O27 S7 1.485961 1_555
O28 S5 1.485961 1_555
O29 S6 1.485961 1_555
O30 S4 1.485961 1_555
O31 S7 1.485961 1_555
