# generated using pymatgen
data_SrCa7Mn8O21
_symmetry_space_group_name_H-M   'P 1'
_cell_length_a   11.01509611
_cell_length_b   15.50166508
_cell_length_c   10.96376247
_cell_angle_alpha   90.14765195
_cell_angle_beta   91.35528543
_cell_angle_gamma   90.45035155
_symmetry_Int_Tables_number   1
_chemical_formula_structural   SrCa7Mn8O21
_chemical_formula_sum   'Sr4 Ca28 Mn32 O84'
_cell_volume   1871.49932183
_cell_formula_units_Z   4
loop_
 _symmetry_equiv_pos_site_id
 _symmetry_equiv_pos_as_xyz
  1  'x, y, z'
loop_
 _atom_site_type_symbol
 _atom_site_label
 _atom_site_symmetry_multiplicity
 _atom_site_fract_x
 _atom_site_fract_y
 _atom_site_fract_z
 _atom_site_occupancy
  Sr  Sr0  1  0.00329046  0.11679522  0.50318153  1
  Sr  Sr1  1  0.50698319  0.38479299  0.98620071  1
  Sr  Sr2  1  0.23796555  0.38454242  0.24702628  1
  Sr  Sr3  1  0.23062320  0.12072051  0.24297587  1
  Ca  Ca0  1  0.99969945  0.10871120  0.00374331  1
  Ca  Ca1  1  0.00882292  0.62200509  0.50900464  1
  Ca  Ca2  1  0.01662672  0.61973809  0.99275128  1
  Ca  Ca3  1  0.54160948  0.12548535  0.47763634  1
  Ca  Ca4  1  0.54428045  0.12932512  0.98337344  1
  Ca  Ca5  1  0.53009892  0.62989077  0.51153317  1
  Ca  Ca6  1  0.53317515  0.62221715  0.97439993  1
  Ca  Ca7  1  0.50195665  0.37989007  0.51304275  1
  Ca  Ca8  1  0.51537812  0.85958693  0.98424624  1
  Ca  Ca9  1  0.49229587  0.86715441  0.50881952  1
  Ca  Ca10  1  0.96725166  0.38760280  0.00377604  1
  Ca  Ca11  1  0.95878269  0.38584028  0.49926232  1
  Ca  Ca12  1  0.95783987  0.88038695  0.00010437  1
  Ca  Ca13  1  0.96840230  0.87330012  0.51250242  1
  Ca  Ca14  1  0.23304332  0.39950073  0.76938696  1
  Ca  Ca15  1  0.22831048  0.88887578  0.27102833  1
  Ca  Ca16  1  0.21889191  0.87195269  0.73926151  1
  Ca  Ca17  1  0.76233292  0.38403486  0.25407083  1
  Ca  Ca18  1  0.74053113  0.38348769  0.75405030  1
  Ca  Ca19  1  0.76256537  0.86883307  0.25697201  1
  Ca  Ca20  1  0.73941187  0.86743787  0.74979394  1
  Ca  Ca21  1  0.22689076  0.11268754  0.74908863  1
  Ca  Ca22  1  0.23834992  0.62478321  0.25978994  1
  Ca  Ca23  1  0.26795234  0.62772879  0.74107153  1
  Ca  Ca24  1  0.77874837  0.11930270  0.24948569  1
  Ca  Ca25  1  0.78404127  0.12284819  0.75389423  1
  Ca  Ca26  1  0.78170060  0.62090866  0.25284964  1
  Ca  Ca27  1  0.77245446  0.62286150  0.75885297  1
  Mn  Mn0  1  0.99192101  0.99436523  0.25307750  1
  Mn  Mn1  1  0.99339907  0.99264579  0.75493145  1
  Mn  Mn2  1  0.00333899  0.50240816  0.25026156  1
  Mn  Mn3  1  0.99677655  0.49992472  0.75215149  1
  Mn  Mn4  1  0.50754512  0.98186836  0.22907450  1
  Mn  Mn5  1  0.50842285  0.99204530  0.73511312  1
  Mn  Mn6  1  0.50997824  0.49391880  0.24491289  1
  Mn  Mn7  1  0.49531835  0.50240764  0.74719890  1
  Mn  Mn8  1  0.24159791  0.99511725  0.01223483  1
  Mn  Mn9  1  0.24375891  0.99969850  0.51795237  1
  Mn  Mn10  1  0.25353028  0.50987907  0.00728860  1
  Mn  Mn11  1  0.23831837  0.49648227  0.51137927  1
  Mn  Mn12  1  0.74228173  0.99988651  0.99465443  1
  Mn  Mn13  1  0.74424473  0.99841751  0.49596547  1
  Mn  Mn14  1  0.75288162  0.50354864  0.00034876  1
  Mn  Mn15  1  0.74410222  0.50350451  0.50369435  1
  Mn  Mn16  1  0.26537968  0.24092699  0.95236429  1
  Mn  Mn17  1  0.26878467  0.24584573  0.47235358  1
  Mn  Mn18  1  0.25999204  0.75354222  0.97503854  1
  Mn  Mn19  1  0.24874743  0.75105112  0.49867215  1
  Mn  Mn20  1  0.75918186  0.24863814  0.00334158  1
  Mn  Mn21  1  0.75161970  0.24956212  0.50547829  1
  Mn  Mn22  1  0.75461082  0.74648458  0.00006286  1
  Mn  Mn23  1  0.75292072  0.74595513  0.50583879  1
  Mn  Mn24  1  0.98810517  0.25316031  0.25952851  1
  Mn  Mn25  1  0.99713633  0.25552512  0.76298200  1
  Mn  Mn26  1  0.99744084  0.75009895  0.26356019  1
  Mn  Mn27  1  0.99681380  0.74918210  0.74876276  1
  Mn  Mn28  1  0.52268045  0.25657009  0.25872049  1
  Mn  Mn29  1  0.51684454  0.24827564  0.74849158  1
  Mn  Mn30  1  0.52041521  0.74920574  0.26292795  1
  Mn  Mn31  1  0.50291790  0.74777253  0.74706166  1
  O  O0  1  0.09858479  0.77060321  0.60692813  1
  O  O1  1  0.58515413  0.25501797  0.10009657  1
  O  O2  1  0.58504896  0.25230987  0.59053286  1
  O  O3  1  0.59740977  0.75569536  0.10877552  1
  O  O4  1  0.60229678  0.76304333  0.60265739  1
  O  O5  1  0.40322261  0.20382958  0.35458376  1
  O  O6  1  0.40453720  0.19061339  0.85058691  1
  O  O7  1  0.40605902  0.69887797  0.36228190  1
  O  O8  1  0.41022745  0.73134570  0.89803522  1
  O  O9  1  0.89601549  0.24328108  0.41382930  1
  O  O10  1  0.91257437  0.23592120  0.92222341  1
  O  O11  1  0.89333504  0.72951652  0.40710937  1
  O  O12  1  0.89842352  0.73202605  0.90139449  1
  O  O13  1  0.14414369  0.24697445  0.33642056  1
  O  O14  1  0.17027391  0.25375248  0.79356939  1
  O  O15  1  0.16003625  0.74968774  0.33554487  1
  O  O16  1  0.14492637  0.73702278  0.84757077  1
  O  O17  1  0.65583357  0.21883985  0.35094941  1
  O  O18  1  0.65999702  0.22818746  0.85352211  1
  O  O19  1  0.65860571  0.72125047  0.35434502  1
  O  O20  1  0.64944278  0.72863967  0.85454326  1
  O  O21  1  0.35577911  0.76591968  0.64486344  1
  O  O22  1  0.84814887  0.27137047  0.15391556  1
  O  O23  1  0.85329460  0.27353427  0.65161735  1
  O  O24  1  0.86607877  0.77025083  0.14093963  1
  O  O25  1  0.85170099  0.77024628  0.64754640  1
  O  O26  1  0.36229937  0.51554316  0.16229421  1
  O  O27  1  0.34900412  0.49450990  0.64663650  1
  O  O28  1  0.35059540  0.00098958  0.16199565  1
  O  O29  1  0.34889180  0.99468923  0.66928831  1
  O  O30  1  0.86108896  0.48708288  0.14282330  1
  O  O31  1  0.85326650  0.47951540  0.64377586  1
  O  O32  1  0.84497877  0.97948833  0.13961528  1
  O  O33  1  0.84845596  0.97992227  0.64381495  1
  O  O34  1  0.14696536  0.01031489  0.37012407  1
  O  O35  1  0.14878166  0.00038098  0.86364360  1
  O  O36  1  0.14858609  0.50986820  0.35729936  1
  O  O37  1  0.14599824  0.52385099  0.85917769  1
  O  O38  1  0.62815006  0.02424011  0.33996247  1
  O  O39  1  0.63291746  0.03205703  0.84268883  1
  O  O40  1  0.62519969  0.52843833  0.36530714  1
  O  O41  1  0.64088318  0.51347302  0.85694911  1
  O  O42  1  0.39169708  0.51781244  0.89760698  1
  O  O43  1  0.88127011  0.01378315  0.38655639  1
  O  O44  1  0.88642392  0.01229818  0.89401829  1
  O  O45  1  0.88807365  0.51659351  0.38993309  1
  O  O46  1  0.89182390  0.51725451  0.89512266  1
  O  O47  1  0.10989551  0.48389991  0.10517584  1
  O  O48  1  0.09588332  0.47387478  0.61453652  1
  O  O49  1  0.09602165  0.97447083  0.11864131  1
  O  O50  1  0.09769884  0.97822507  0.62042200  1
  O  O51  1  0.61608338  0.49399151  0.10933954  1
  O  O52  1  0.59972382  0.48875349  0.60927946  1
  O  O53  1  0.58663233  0.99221777  0.07623751  1
  O  O54  1  0.58815774  0.99459938  0.57990524  1
  O  O55  1  0.99653634  0.37862789  0.27959129  1
  O  O56  1  0.00594647  0.37855242  0.79668410  1
  O  O57  1  0.99584795  0.87200053  0.29390759  1
  O  O58  1  0.99754304  0.87084675  0.79136362  1
  O  O59  1  0.47896717  0.37737502  0.29052811  1
  O  O60  1  0.48495991  0.37082450  0.75890767  1
  O  O61  1  0.47527946  0.87009395  0.29193197  1
  O  O62  1  0.51819357  0.87322246  0.77838044  1
  O  O63  1  0.48946055  0.62665341  0.71967580  1
  O  O64  1  0.99516989  0.12871577  0.21709922  1
  O  O65  1  0.00226947  0.12860917  0.73281308  1
  O  O66  1  0.00639564  0.62841261  0.21725534  1
  O  O67  1  0.98691004  0.62388254  0.71625586  1
  O  O68  1  0.22372881  0.12637913  0.01682409  1
  O  O69  1  0.24548829  0.12786117  0.53862747  1
  O  O70  1  0.22899737  0.65041529  0.05188294  1
  O  O71  1  0.23019721  0.62503713  0.52394339  1
  O  O72  1  0.75081514  0.12413082  0.03677975  1
  O  O73  1  0.75122310  0.12435594  0.53851855  1
  O  O74  1  0.74770785  0.62575019  0.03621963  1
  O  O75  1  0.74568913  0.62534311  0.54626848  1
  O  O76  1  0.28590767  0.37264808  0.48317528  1
  O  O77  1  0.27763246  0.36081242  0.99840678  1
  O  O78  1  0.28205470  0.88091490  0.47494177  1
  O  O79  1  0.29175677  0.87402909  0.99256461  1
  O  O80  1  0.73677056  0.37625995  0.46715813  1
  O  O81  1  0.75122668  0.37522088  0.97028177  1
  O  O82  1  0.74439918  0.87279519  0.46555409  1
  O  O83  1  0.74071752  0.87377962  0.96492108  1
loop_
_geom_bond_atom_site_label_1
_geom_bond_atom_site_label_2
_geom_bond_distance
_geom_bond_site_symmetry_2
Ca0 O44 2.264552 1_554
Ca0 O64 2.360606 1_555
Ca0 O10 2.367855 1_554
Ca0 O68 2.481447 1_655
Ca0 O49 2.651027 1_645
Ca0 O72 2.785838 1_555
Ca0 O35 2.832922 1_654
Ca0 O65 2.987954 1_654
Ca0 O32 3.036136 1_545
Ca1 O67 2.290842 1_455
Ca1 O11 2.370564 1_455
Ca1 O71 2.440161 1_555
Ca1 O45 2.452788 1_455
Ca1 O0 2.708813 1_555
Ca1 O48 2.743540 1_555
Ca1 O36 2.882104 1_555
Ca1 O75 2.937488 1_455
Ca2 O46 2.333818 1_455
Ca2 O12 2.389827 1_455
Ca2 O70 2.455173 1_556
Ca2 O66 2.470015 1_556
Ca2 O37 2.550612 1_555
Ca2 O47 2.645052 1_556
Ca2 O16 2.813763 1_555
Ca3 O5 2.357741 1_555
Ca3 O2 2.360255 1_555
Ca3 O54 2.374368 1_545
Ca3 O17 2.381368 1_555
Ca3 O73 2.388459 1_555
Ca3 O38 2.393671 1_555
Ca4 O6 2.305562 1_555
Ca4 O72 2.337748 1_556
Ca4 O1 2.362828 1_556
Ca4 O39 2.385006 1_555
Ca4 O53 2.403290 1_546
Ca4 O18 2.463029 1_555
Ca5 O63 2.336472 1_555
Ca5 O7 2.369461 1_555
Ca5 O75 2.397793 1_555
Ca5 O4 2.411849 1_555
Ca5 O40 2.496644 1_555
Ca5 O52 2.554011 1_555
Ca5 O19 2.660049 1_555
Ca6 O8 2.320882 1_555
Ca6 O42 2.376571 1_555
Ca6 O74 2.443077 1_556
Ca6 O41 2.449472 1_555
Ca6 O20 2.479146 1_555
Ca6 O3 2.620002 1_556
Ca6 O51 2.636958 1_556
Ca6 O63 2.823802 1_555
Ca7 O52 2.242631 1_555
Ca7 O2 2.339051 1_555
Ca7 O76 2.396253 1_555
Ca7 O59 2.446919 1_555
Ca7 O80 2.647623 1_555
Ca7 O60 2.710442 1_555
Ca7 O27 2.879447 1_555
Ca8 O62 2.268401 1_555
Ca8 O3 2.291304 1_556
Ca8 O53 2.405591 1_556
Ca8 O8 2.467634 1_555
Ca8 O79 2.478918 1_555
Ca8 O83 2.504161 1_555
Ca9 O4 2.260884 1_555
Ca9 O78 2.348190 1_555
Ca9 O54 2.354946 1_555
Ca9 O61 2.381437 1_555
Ca9 O21 2.651372 1_555
Ca9 O82 2.828917 1_555
Ca10 O56 2.324141 1_654
Ca10 O81 2.405204 1_554
Ca10 O47 2.409358 1_655
Ca10 O46 2.478006 1_554
Ca10 O30 2.483984 1_555
Ca10 O10 2.575328 1_554
Ca10 O22 2.785234 1_555
Ca11 O48 2.368270 1_655
Ca11 O55 2.456146 1_555
Ca11 O31 2.464077 1_555
Ca11 O80 2.465694 1_555
Ca11 O45 2.478889 1_555
Ca11 O9 2.484697 1_555
Ca11 O23 2.691872 1_555
Ca12 O58 2.344646 1_554
Ca12 O83 2.414841 1_554
Ca12 O49 2.448385 1_655
Ca12 O44 2.479371 1_564
Ca12 O32 2.520503 1_555
Ca12 O24 2.526057 1_555
Ca12 O12 2.611291 1_554
Ca13 O0 2.374148 1_655
Ca13 O57 2.422750 1_555
Ca13 O50 2.438821 1_655
Ca13 O82 2.508535 1_555
Ca13 O25 2.542944 1_555
Ca13 O33 2.581116 1_555
Ca13 O11 2.626670 1_555
Ca13 O43 2.748821 1_565
Ca14 O14 2.374903 1_555
Ca14 O37 2.380788 1_555
Ca14 O27 2.381983 1_555
Ca14 O48 2.531858 1_555
Ca14 O56 2.544727 1_555
Ca14 O77 2.619099 1_555
Ca14 O60 2.818688 1_555
Ca14 O42 2.866014 1_555
Ca15 O78 2.303003 1_555
Ca15 O34 2.364133 1_565
Ca15 O15 2.393506 1_555
Ca15 O28 2.512748 1_565
Ca15 O49 2.569424 1_555
Ca15 O57 2.590020 1_455
Ca15 O61 2.742463 1_555
Ca16 O21 2.480000 1_555
Ca16 O50 2.481331 1_555
Ca16 O0 2.488785 1_555
Ca16 O29 2.505132 1_555
Ca16 O58 2.517260 1_455
Ca16 O35 2.545497 1_565
Ca16 O16 2.545708 1_555
Ca16 O79 2.872544 1_555
Ca16 O78 2.999557 1_555
Ca17 O22 2.283571 1_555
Ca17 O30 2.295255 1_555
Ca17 O80 2.363018 1_555
Ca17 O55 2.590351 1_555
Ca17 O51 2.820398 1_555
Ca17 O45 2.863838 1_555
Ca18 O31 2.295848 1_555
Ca18 O81 2.374692 1_555
Ca18 O23 2.408038 1_555
Ca18 O41 2.572809 1_555
Ca18 O52 2.743058 1_555
Ca18 O18 2.792430 1_555
Ca18 O60 2.822207 1_555
Ca18 O56 2.951388 1_655
Ca19 O82 2.300997 1_555
Ca19 O24 2.310800 1_555
Ca19 O32 2.337552 1_555
Ca19 O57 2.591927 1_555
Ca19 O19 2.777442 1_555
Ca19 O43 2.937091 1_565
Ca19 O3 2.969963 1_555
Ca20 O25 2.267743 1_555
Ca20 O83 2.360097 1_555
Ca20 O33 2.424212 1_555
Ca20 O62 2.466453 1_555
Ca20 O20 2.638844 1_555
Ca20 O4 2.708350 1_555
Ca20 O58 2.869025 1_555
Ca20 O39 3.002592 1_565
Ca21 O35 2.321073 1_555
Ca21 O14 2.332150 1_555
Ca21 O69 2.333667 1_555
Ca21 O29 2.450161 1_545
Ca21 O65 2.490680 1_555
Ca21 O6 2.525766 1_555
Ca21 O50 2.864095 1_545
Ca22 O15 2.287969 1_555
Ca22 O36 2.307807 1_555
Ca22 O70 2.314855 1_555
Ca22 O7 2.419998 1_555
Ca22 O26 2.443428 1_555
Ca22 O66 2.587410 1_555
Ca23 O71 2.407084 1_555
Ca23 O63 2.456884 1_555
Ca23 O37 2.476552 1_555
Ca23 O16 2.484143 1_555
Ca23 O27 2.489065 1_555
Ca23 O21 2.581632 1_555
Ca23 O42 2.765409 1_555
Ca23 O8 2.795741 1_555
Ca24 O72 2.346505 1_555
Ca24 O17 2.355132 1_555
Ca24 O64 2.421820 1_555
Ca24 O38 2.440148 1_555
Ca24 O43 2.484102 1_555
Ca24 O32 2.594931 1_545
Ca24 O22 2.694710 1_555
Ca24 O9 2.905461 1_555
Ca25 O73 2.380574 1_555
Ca25 O39 2.397184 1_555
Ca25 O18 2.413090 1_555
Ca25 O65 2.421298 1_655
Ca25 O44 2.555543 1_555
Ca25 O33 2.630643 1_545
Ca25 O23 2.705850 1_555
Ca25 O10 2.881587 1_555
Ca26 O19 2.364700 1_555
Ca26 O74 2.397109 1_555
Ca26 O45 2.491114 1_555
Ca26 O66 2.516552 1_655
Ca26 O30 2.566910 1_555
Ca26 O40 2.572448 1_555
Ca26 O11 2.657325 1_555
Ca26 O24 2.786304 1_555
Ca27 O75 2.342823 1_555
Ca27 O20 2.391379 1_555
Ca27 O67 2.418723 1_555
Ca27 O41 2.485357 1_555
Ca27 O46 2.567987 1_555
Ca27 O12 2.660484 1_555
Ca27 O31 2.718771 1_555
Ca27 O25 2.739435 1_555
Mn0 O49 1.914577 1_655
Mn0 O57 1.950661 1_555
Mn0 O43 1.950809 1_565
Mn0 O32 2.029254 1_555
Mn0 O64 2.120865 1_565
Mn0 O34 2.124299 1_665
Mn1 O50 1.904519 1_655
Mn1 O58 1.931550 1_555
Mn1 O44 1.973553 1_565
Mn1 O33 1.993455 1_555
Mn1 O35 2.064932 1_665
Mn1 O65 2.123934 1_665
Mn2 O55 1.947530 1_455
Mn2 O30 1.950517 1_455
Mn2 O36 1.964142 1_555
Mn2 O66 1.987604 1_555
Mn2 O47 2.020272 1_555
Mn2 O45 2.024838 1_455
Mn3 O48 1.926896 1_655
Mn3 O56 1.947797 1_655
Mn3 O67 1.965761 1_555
Mn3 O31 1.977911 1_555
Mn3 O46 1.988503 1_555
Mn3 O37 2.028081 1_655
Mn4 O28 1.888536 1_565
Mn4 O38 1.892112 1_565
Mn4 O61 1.900401 1_555
Mn4 O53 1.913309 1_555
Mn5 O29 1.884605 1_555
Mn5 O39 1.887496 1_565
Mn5 O62 1.906464 1_555
Mn5 O54 1.933678 1_555
Mn6 O26 1.876017 1_555
Mn6 O40 1.883060 1_555
Mn6 O59 1.906232 1_555
Mn6 O51 1.912467 1_555
Mn7 O52 1.933473 1_555
Mn7 O27 1.933960 1_555
Mn7 O63 1.951611 1_555
Mn7 O41 1.987855 1_555
Mn7 O42 2.042164 1_555
Mn7 O60 2.046581 1_555
Mn8 O35 1.905034 1_564
Mn8 O79 1.973578 1_554
Mn8 O28 2.012462 1_565
Mn8 O49 2.029065 1_555
Mn8 O68 2.046419 1_565
Mn9 O34 1.926936 1_565
Mn9 O78 1.951410 1_555
Mn9 O69 1.998935 1_565
Mn9 O29 2.002817 1_555
Mn9 O50 2.010077 1_555
Mn10 O42 1.965152 1_554
Mn10 O47 1.972233 1_555
Mn10 O37 2.000413 1_554
Mn10 O26 2.057312 1_555
Mn10 O70 2.251254 1_555
Mn10 O77 2.330104 1_554
Mn11 O27 1.897838 1_555
Mn11 O36 1.949302 1_555
Mn11 O48 1.985159 1_555
Mn11 O71 2.000064 1_555
Mn11 O76 2.018870 1_555
Mn12 O53 1.955392 1_556
Mn12 O32 1.956715 1_556
Mn12 O44 1.963283 1_565
Mn12 O72 1.980432 1_566
Mn12 O83 1.980906 1_555
Mn12 O39 2.096335 1_565
Mn13 O43 1.963471 1_565
Mn13 O54 1.969775 1_555
Mn13 O82 1.974867 1_555
Mn13 O33 1.986709 1_555
Mn13 O73 2.006520 1_565
Mn13 O38 2.151525 1_565
Mn14 O74 1.935281 1_555
Mn14 O46 1.948870 1_554
Mn14 O51 1.950132 1_555
Mn14 O30 1.960765 1_555
Mn14 O41 1.982400 1_554
Mn14 O81 2.015454 1_554
Mn15 O75 1.944203 1_555
Mn15 O31 1.966099 1_555
Mn15 O52 2.001067 1_555
Mn15 O80 2.012372 1_555
Mn15 O40 2.020836 1_555
Mn15 O45 2.049772 1_555
Mn16 O77 1.927375 1_555
Mn16 O68 1.967737 1_556
Mn16 O14 2.021588 1_555
Mn16 O6 2.073225 1_555
Mn17 O76 1.976192 1_555
Mn17 O69 1.986753 1_555
Mn17 O13 2.002518 1_555
Mn17 O5 2.094182 1_555
Mn18 O70 1.842278 1_556
Mn18 O16 1.879993 1_555
Mn18 O79 1.905918 1_555
Mn18 O8 1.908727 1_555
Mn19 O21 1.979016 1_555
Mn19 O71 1.983327 1_555
Mn19 O15 2.017621 1_555
Mn19 O78 2.061671 1_555
Mn19 O0 2.082156 1_555
Mn19 O7 2.455841 1_555
Mn20 O22 1.930003 1_555
Mn20 O10 1.939098 1_554
Mn20 O72 1.967363 1_555
Mn20 O18 1.974637 1_554
Mn20 O81 1.998580 1_554
Mn20 O1 2.215476 1_555
Mn21 O9 1.904329 1_555
Mn21 O23 1.965975 1_555
Mn21 O73 1.975327 1_555
Mn21 O80 2.016611 1_555
Mn21 O17 2.028248 1_555
Mn21 O2 2.078420 1_555
Mn22 O74 1.915402 1_555
Mn22 O12 1.953273 1_554
Mn22 O20 1.967026 1_554
Mn22 O24 1.982208 1_555
Mn22 O83 2.017820 1_554
Mn22 O3 2.130736 1_555
Mn23 O25 1.910523 1_555
Mn23 O75 1.924099 1_555
Mn23 O11 1.926864 1_555
Mn23 O19 1.973201 1_555
Mn23 O4 2.009589 1_555
Mn23 O82 2.018754 1_555
Mn24 O13 1.899620 1_655
Mn24 O22 1.929033 1_555
Mn24 O55 1.958023 1_555
Mn24 O64 1.985779 1_555
Mn24 O9 1.998597 1_555
Mn25 O14 1.928981 1_655
Mn25 O56 1.942897 1_655
Mn25 O65 1.995640 1_655
Mn25 O23 1.999084 1_555
Mn25 O10 2.020716 1_555
Mn26 O57 1.918189 1_555
Mn26 O15 1.940090 1_655
Mn26 O66 1.956043 1_655
Mn26 O24 1.978866 1_555
Mn26 O11 1.993986 1_555
Mn27 O58 1.941719 1_555
Mn27 O16 1.947582 1_655
Mn27 O25 1.954285 1_555
Mn27 O0 1.965800 1_655
Mn27 O67 1.975579 1_555
Mn27 O12 2.032040 1_555
Mn28 O17 1.860681 1_555
Mn28 O1 1.885554 1_555
Mn28 O5 1.886116 1_555
Mn28 O59 1.969552 1_555
Mn29 O2 1.904968 1_555
Mn29 O6 1.906715 1_555
Mn29 O60 1.938185 1_555
Mn29 O18 1.957826 1_555
Mn30 O7 1.853580 1_555
Mn30 O19 1.857371 1_555
Mn30 O3 1.911320 1_555
Mn30 O61 1.969547 1_555
Mn31 O63 1.904711 1_555
Mn31 O4 1.959781 1_555
Mn31 O21 1.970867 1_555
Mn31 O62 1.979063 1_555
Mn31 O8 1.981190 1_555
Mn31 O20 2.000227 1_555
O1 Sr1 2.517362 1_554
O5 Sr3 2.571959 1_555
O9 Sr0 2.488381 1_655
O13 Sr3 2.419211 1_555
O13 Sr2 2.569117 1_555
O26 Sr2 2.624638 1_555
O28 Sr3 2.462734 1_555
O34 Sr3 2.402054 1_555
O34 Sr0 2.737727 1_555
O36 Sr2 2.505906 1_555
O41 Sr1 2.868755 1_555
O42 Sr1 2.607903 1_555
O43 Sr0 2.421953 1_655
O47 Sr2 2.593016 1_555
O50 Sr0 2.708133 1_565
O51 Sr1 2.451898 1_554
O55 Sr2 2.692463 1_655
O59 Sr2 2.689244 1_555
O60 Sr1 2.506697 1_555
O64 Sr3 2.606287 1_655
O65 Sr0 2.524104 1_555
O68 Sr3 2.480640 1_555
O69 Sr0 2.690948 1_555
O73 Sr0 2.815815 1_655
O76 Sr2 2.637334 1_555
O77 Sr1 2.557319 1_555
O77 Sr2 2.794627 1_556
O81 Sr1 2.705346 1_555
