# generated using pymatgen
data_Dy3(Al2Fe)2
_symmetry_space_group_name_H-M   'P 1'
_cell_length_a   5.38261418
_cell_length_b   5.39176977
_cell_length_c   13.37416587
_cell_angle_alpha   90.41701451
_cell_angle_beta   89.16769982
_cell_angle_gamma   119.07296419
_symmetry_Int_Tables_number   1
_chemical_formula_structural   Dy3(Al2Fe)2
_chemical_formula_sum   'Dy6 Al8 Fe4'
_cell_volume   339.20144274
_cell_formula_units_Z   2
loop_
 _symmetry_equiv_pos_site_id
 _symmetry_equiv_pos_as_xyz
  1  'x, y, z'
loop_
 _atom_site_type_symbol
 _atom_site_label
 _atom_site_symmetry_multiplicity
 _atom_site_fract_x
 _atom_site_fract_y
 _atom_site_fract_z
 _atom_site_occupancy
  Dy  Dy0  1  0.33887800  0.66931200  0.91901500  1
  Dy  Dy1  1  0.00926200  0.00052500  0.24612700  1
  Dy  Dy2  1  0.66823300  0.33059800  0.58307200  1
  Dy  Dy3  1  0.33176700  0.66940200  0.66692800  1
  Dy  Dy4  1  0.99073800  0.99947500  0.00387300  1
  Dy  Dy5  1  0.66112200  0.33068800  0.33098500  1
  Al  Al0  1  0.16807300  0.33497800  0.45693800  1
  Al  Al1  1  0.83192700  0.66502200  0.79306200  1
  Al  Al2  1  0.34172000  0.67862000  0.28666600  1
  Al  Al3  1  0.00000000  0.00000000  0.62500000  1
  Al  Al4  1  0.65828000  0.32138000  0.96333400  1
  Al  Al5  1  0.00000000  0.50000000  0.12500000  1
  Al  Al6  1  0.66628100  0.83243800  0.45746300  1
  Al  Al7  1  0.33371900  0.16756200  0.79253700  1
  Fe  Fe0  1  0.50000000  0.50000000  0.12500000  1
  Fe  Fe1  1  0.16579400  0.83296500  0.45832400  1
  Fe  Fe2  1  0.83420600  0.16703500  0.79167600  1
  Fe  Fe3  1  0.50000000  0.00000000  0.12500000  1
loop_
_geom_bond_atom_site_label_1
_geom_bond_atom_site_label_2
_geom_bond_distance
_geom_bond_site_symmetry_2
Dy0 Fe3 3.164756 1_566
Dy0 Fe0 3.170220 1_556
Dy0 Fe2 3.192440 1_565
Dy0 Fe2 3.245218 1_455
Dy0 Dy4 3.283914 1_556
Dy0 Dy4 3.334553 1_456
Dy0 Dy4 3.356165 1_446
Dy0 Dy3 3.372233 1_555
Dy1 Fe3 3.079688 1_555
Dy1 Fe0 3.143249 1_555
Dy1 Fe3 3.203074 1_455
Dy1 Fe0 3.208951 1_445
Dy1 Fe1 3.229035 1_545
Dy1 Dy4 3.242806 1_445
Dy1 Dy5 3.283914 1_555
Dy1 Dy5 3.334553 1_455
Dy1 Dy5 3.356165 1_445
Dy2 Fe1 3.190445 1_655
Dy2 Fe2 3.198955 1_555
Dy2 Fe1 3.211006 1_545
Dy2 Dy3 3.312335 1_545
Dy2 Dy3 3.316800 1_555
Dy2 Dy3 3.331163 1_655
Dy2 Dy5 3.372233 1_555
Dy3 Fe2 3.190445 1_455
Dy3 Fe1 3.198955 1_555
Dy3 Fe2 3.211006 1_565
Dy4 Fe3 3.079688 1_565
Dy4 Fe0 3.143249 1_555
Dy4 Fe3 3.203074 1_665
Dy4 Fe0 3.208951 1_665
Dy4 Fe2 3.229035 1_564
Dy5 Fe3 3.164756 1_555
Dy5 Fe0 3.170220 1_555
Dy5 Fe1 3.192440 1_545
Dy5 Fe1 3.245218 1_655
Al0 Fe1 2.690941 1_555
Al0 Fe1 2.700997 1_545
Al0 Al6 2.719476 1_555
Al0 Al6 2.743053 1_445
Al0 Al3 2.746761 1_555
Al0 Al2 2.794462 1_555
Al0 Dy5 3.132170 1_555
Al0 Dy2 3.145122 1_455
Al0 Dy2 3.207552 1_555
Al0 Dy5 3.218025 1_455
Al0 Dy3 3.220115 1_555
Al0 Dy1 3.229495 1_555
Al1 Fe2 2.690941 1_555
Al1 Fe2 2.700997 1_565
Al1 Al7 2.719476 1_555
Al1 Al7 2.743053 1_665
Al1 Al3 2.746761 1_665
Al1 Al4 2.794462 1_555
Al1 Dy0 3.132170 1_555
Al1 Dy3 3.145122 1_655
Al1 Dy3 3.207552 1_555
Al1 Dy0 3.218025 1_655
Al1 Dy2 3.220115 1_555
Al1 Dy4 3.229495 1_556
Al2 Fe3 2.640008 1_565
Al2 Fe0 2.653642 1_555
Al2 Al5 2.710953 1_555
Al2 Fe1 2.744949 1_555
Al2 Al6 2.763683 1_555
Al2 Dy1 3.093385 1_565
Al2 Dy5 3.129362 1_565
Al2 Dy5 3.163303 1_555
Al2 Dy1 3.180131 1_665
Al2 Dy1 3.241057 1_555
Al2 Dy5 3.250420 1_455
Al3 Fe1 2.696420 1_545
Al3 Fe2 2.696420 1_455
Al3 Al6 2.752043 1_445
Al3 Al7 2.752043 1_555
Al3 Dy3 3.133360 1_545
Al3 Dy2 3.133360 1_455
Al3 Dy2 3.186550 1_555
Al3 Dy3 3.186550 1_445
Al3 Dy3 3.204055 1_555
Al3 Dy2 3.204055 1_445
Al4 Fe3 2.640008 1_556
Al4 Fe0 2.653642 1_556
Al4 Al5 2.710953 1_656
Al4 Fe2 2.744949 1_555
Al4 Al7 2.763683 1_555
Al4 Dy4 3.093385 1_546
Al4 Dy0 3.129362 1_545
Al4 Dy0 3.163303 1_555
Al4 Dy4 3.180131 1_446
Al4 Dy4 3.241057 1_556
Al4 Dy0 3.250420 1_655
Al5 Fe0 2.691307 1_455
Al5 Fe0 2.691307 1_555
Al5 Fe3 2.731253 1_565
Al5 Fe3 2.731253 1_455
Al5 Dy4 3.117341 1_445
Al5 Dy1 3.117341 1_565
Al5 Dy5 3.165789 1_455
Al5 Dy0 3.165789 1_554
Al5 Dy4 3.174219 1_455
Al5 Dy1 3.174219 1_555
Al6 Fe1 2.687498 1_655
Al6 Fe1 2.695168 1_555
Al6 Dy2 3.153416 1_565
Al6 Dy5 3.169002 1_555
Al6 Dy3 3.195901 1_555
Al6 Dy5 3.196732 1_565
Al6 Dy2 3.199675 1_555
Al6 Dy1 3.236977 1_665
Al7 Fe2 2.687498 1_455
Al7 Fe2 2.695168 1_555
Al7 Dy3 3.153416 1_545
Al7 Dy0 3.169002 1_555
Al7 Dy2 3.195901 1_555
Al7 Dy0 3.196732 1_545
Al7 Dy3 3.199675 1_555
Al7 Dy4 3.236977 1_446
Fe0 Fe3 2.695885 1_565
Fe0 Fe3 2.695885 1_555
