# generated using pymatgen
data_Nb4AlN3
_symmetry_space_group_name_H-M   'P 1'
_cell_length_a   6.01253967
_cell_length_b   6.01253967
_cell_length_c   51.33405400
_cell_angle_alpha   90.00000000
_cell_angle_beta   90.00000000
_cell_angle_gamma   119.99999637
_symmetry_Int_Tables_number   1
_chemical_formula_structural   Nb4AlN3
_chemical_formula_sum   'Nb64 Al16 N48'
_cell_volume   1607.13411594
_cell_formula_units_Z   16
loop_
 _symmetry_equiv_pos_site_id
 _symmetry_equiv_pos_as_xyz
  1  'x, y, z'
loop_
 _atom_site_type_symbol
 _atom_site_label
 _atom_site_symmetry_multiplicity
 _atom_site_fract_x
 _atom_site_fract_y
 _atom_site_fract_z
 _atom_site_occupancy
  Nb  Nb0_0  1  0.16666650  0.33333350  0.22243150  1
  Nb  Nb0_1  1  0.16666650  0.33333350  0.72243150  1
  Nb  Nb0_2  1  0.16666650  0.83333350  0.22243150  1
  Nb  Nb0_3  1  0.16666650  0.83333350  0.72243150  1
  Nb  Nb0_4  1  0.66666650  0.33333350  0.22243150  1
  Nb  Nb0_5  1  0.66666650  0.33333350  0.72243150  1
  Nb  Nb0_6  1  0.66666650  0.83333350  0.22243150  1
  Nb  Nb0_7  1  0.66666650  0.83333350  0.72243150  1
  Nb  Nb1_0  1  0.33333350  0.16666650  0.27756850  1
  Nb  Nb1_1  1  0.33333350  0.16666650  0.77756850  1
  Nb  Nb1_2  1  0.33333350  0.66666650  0.27756850  1
  Nb  Nb1_3  1  0.33333350  0.66666650  0.77756850  1
  Nb  Nb1_4  1  0.83333350  0.16666650  0.27756850  1
  Nb  Nb1_5  1  0.83333350  0.16666650  0.77756850  1
  Nb  Nb1_6  1  0.83333350  0.66666650  0.27756850  1
  Nb  Nb1_7  1  0.83333350  0.66666650  0.77756850  1
  Nb  Nb2_0  1  0.33333350  0.16666650  0.47243150  1
  Nb  Nb2_1  1  0.33333350  0.16666650  0.97243150  1
  Nb  Nb2_2  1  0.33333350  0.66666650  0.47243150  1
  Nb  Nb2_3  1  0.33333350  0.66666650  0.97243150  1
  Nb  Nb2_4  1  0.83333350  0.16666650  0.47243150  1
  Nb  Nb2_5  1  0.83333350  0.16666650  0.97243150  1
  Nb  Nb2_6  1  0.83333350  0.66666650  0.47243150  1
  Nb  Nb2_7  1  0.83333350  0.66666650  0.97243150  1
  Nb  Nb3_0  1  0.16666650  0.33333350  0.02756850  1
  Nb  Nb3_1  1  0.16666650  0.33333350  0.52756850  1
  Nb  Nb3_2  1  0.16666650  0.83333350  0.02756850  1
  Nb  Nb3_3  1  0.16666650  0.83333350  0.52756850  1
  Nb  Nb3_4  1  0.66666650  0.33333350  0.02756850  1
  Nb  Nb3_5  1  0.66666650  0.33333350  0.52756850  1
  Nb  Nb3_6  1  0.66666650  0.83333350  0.02756850  1
  Nb  Nb3_7  1  0.66666650  0.83333350  0.52756850  1
  Nb  Nb4_0  1  0.16666650  0.33333350  0.41842850  1
  Nb  Nb4_1  1  0.16666650  0.33333350  0.91842850  1
  Nb  Nb4_2  1  0.16666650  0.83333350  0.41842850  1
  Nb  Nb4_3  1  0.16666650  0.83333350  0.91842850  1
  Nb  Nb4_4  1  0.66666650  0.33333350  0.41842850  1
  Nb  Nb4_5  1  0.66666650  0.33333350  0.91842850  1
  Nb  Nb4_6  1  0.66666650  0.83333350  0.41842850  1
  Nb  Nb4_7  1  0.66666650  0.83333350  0.91842850  1
  Nb  Nb5_0  1  0.33333350  0.16666650  0.08157150  1
  Nb  Nb5_1  1  0.33333350  0.16666650  0.58157150  1
  Nb  Nb5_2  1  0.33333350  0.66666650  0.08157150  1
  Nb  Nb5_3  1  0.33333350  0.66666650  0.58157150  1
  Nb  Nb5_4  1  0.83333350  0.16666650  0.08157150  1
  Nb  Nb5_5  1  0.83333350  0.16666650  0.58157150  1
  Nb  Nb5_6  1  0.83333350  0.66666650  0.08157150  1
  Nb  Nb5_7  1  0.83333350  0.66666650  0.58157150  1
  Nb  Nb6_0  1  0.33333350  0.16666650  0.16842850  1
  Nb  Nb6_1  1  0.33333350  0.16666650  0.66842850  1
  Nb  Nb6_2  1  0.33333350  0.66666650  0.16842850  1
  Nb  Nb6_3  1  0.33333350  0.66666650  0.66842850  1
  Nb  Nb6_4  1  0.83333350  0.16666650  0.16842850  1
  Nb  Nb6_5  1  0.83333350  0.16666650  0.66842850  1
  Nb  Nb6_6  1  0.83333350  0.66666650  0.16842850  1
  Nb  Nb6_7  1  0.83333350  0.66666650  0.66842850  1
  Nb  Nb7_0  1  0.16666650  0.33333350  0.33157150  1
  Nb  Nb7_1  1  0.16666650  0.33333350  0.83157150  1
  Nb  Nb7_2  1  0.16666650  0.83333350  0.33157150  1
  Nb  Nb7_3  1  0.16666650  0.83333350  0.83157150  1
  Nb  Nb7_4  1  0.66666650  0.33333350  0.33157150  1
  Nb  Nb7_5  1  0.66666650  0.33333350  0.83157150  1
  Nb  Nb7_6  1  0.66666650  0.83333350  0.33157150  1
  Nb  Nb7_7  1  0.66666650  0.83333350  0.83157150  1
  Al  Al0_0  1  0.16666650  0.33333350  0.12500000  1
  Al  Al0_1  1  0.16666650  0.33333350  0.62500000  1
  Al  Al0_2  1  0.16666650  0.83333350  0.12500000  1
  Al  Al0_3  1  0.16666650  0.83333350  0.62500000  1
  Al  Al0_4  1  0.66666650  0.33333350  0.12500000  1
  Al  Al0_5  1  0.66666650  0.33333350  0.62500000  1
  Al  Al0_6  1  0.66666650  0.83333350  0.12500000  1
  Al  Al0_7  1  0.66666650  0.83333350  0.62500000  1
  Al  Al1_0  1  0.33333350  0.16666650  0.37500000  1
  Al  Al1_1  1  0.33333350  0.16666650  0.87500000  1
  Al  Al1_2  1  0.33333350  0.66666650  0.37500000  1
  Al  Al1_3  1  0.33333350  0.66666650  0.87500000  1
  Al  Al1_4  1  0.83333350  0.16666650  0.37500000  1
  Al  Al1_5  1  0.83333350  0.16666650  0.87500000  1
  Al  Al1_6  1  0.83333350  0.66666650  0.37500000  1
  Al  Al1_7  1  0.83333350  0.66666650  0.87500000  1
  N  N0_0  1  0.00000000  0.00000000  0.25000000  1
  N  N0_1  1  0.00000000  0.00000000  0.75000000  1
  N  N0_2  1  0.00000000  0.50000000  0.25000000  1
  N  N0_3  1  0.00000000  0.50000000  0.75000000  1
  N  N0_4  1  0.50000000  0.00000000  0.25000000  1
  N  N0_5  1  0.50000000  0.00000000  0.75000000  1
  N  N0_6  1  0.50000000  0.50000000  0.25000000  1
  N  N0_7  1  0.50000000  0.50000000  0.75000000  1
  N  N1_0  1  0.00000000  0.00000000  0.00000000  1
  N  N1_1  1  0.00000000  0.00000000  0.50000000  1
  N  N1_2  1  0.00000000  0.50000000  0.00000000  1
  N  N1_3  1  0.00000000  0.50000000  0.50000000  1
  N  N1_4  1  0.50000000  0.00000000  0.00000000  1
  N  N1_5  1  0.50000000  0.00000000  0.50000000  1
  N  N1_6  1  0.50000000  0.50000000  0.00000000  1
  N  N1_7  1  0.50000000  0.50000000  0.50000000  1
  N  N2_0  1  0.00000000  0.00000000  0.19565550  1
  N  N2_1  1  0.00000000  0.00000000  0.69565550  1
  N  N2_2  1  0.00000000  0.50000000  0.19565550  1
  N  N2_3  1  0.00000000  0.50000000  0.69565550  1
  N  N2_4  1  0.50000000  0.00000000  0.19565550  1
  N  N2_5  1  0.50000000  0.00000000  0.69565550  1
  N  N2_6  1  0.50000000  0.50000000  0.19565550  1
  N  N2_7  1  0.50000000  0.50000000  0.69565550  1
  N  N3_0  1  0.00000000  0.00000000  0.30434450  1
  N  N3_1  1  0.00000000  0.00000000  0.80434450  1
  N  N3_2  1  0.00000000  0.50000000  0.30434450  1
  N  N3_3  1  0.00000000  0.50000000  0.80434450  1
  N  N3_4  1  0.50000000  0.00000000  0.30434450  1
  N  N3_5  1  0.50000000  0.00000000  0.80434450  1
  N  N3_6  1  0.50000000  0.50000000  0.30434450  1
  N  N3_7  1  0.50000000  0.50000000  0.80434450  1
  N  N4_0  1  0.00000000  0.00000000  0.44565550  1
  N  N4_1  1  0.00000000  0.00000000  0.94565550  1
  N  N4_2  1  0.00000000  0.50000000  0.44565550  1
  N  N4_3  1  0.00000000  0.50000000  0.94565550  1
  N  N4_4  1  0.50000000  0.00000000  0.44565550  1
  N  N4_5  1  0.50000000  0.00000000  0.94565550  1
  N  N4_6  1  0.50000000  0.50000000  0.44565550  1
  N  N4_7  1  0.50000000  0.50000000  0.94565550  1
  N  N5_0  1  0.00000000  0.00000000  0.05434450  1
  N  N5_1  1  0.00000000  0.00000000  0.55434450  1
  N  N5_2  1  0.00000000  0.50000000  0.05434450  1
  N  N5_3  1  0.00000000  0.50000000  0.55434450  1
  N  N5_4  1  0.50000000  0.00000000  0.05434450  1
  N  N5_5  1  0.50000000  0.00000000  0.55434450  1
  N  N5_6  1  0.50000000  0.50000000  0.05434450  1
  N  N5_7  1  0.50000000  0.50000000  0.55434450  1
loop_
_geom_bond_atom_site_label_1
_geom_bond_atom_site_label_2
_geom_bond_distance
_geom_bond_site_symmetry_2
Al0_0 Nb5_2 2.825349 1_555
Al0_0 Nb5_4 2.825349 1_455
Al0_0 Nb6_4 2.825349 1_455
Al0_0 Nb6_2 2.825349 1_555
Al0_0 Nb5_0 2.825352 1_555
Al0_0 Nb6_0 2.825352 1_555
Al0_0 Al0_2 3.006270 1_545
Al0_0 Al0_4 3.006270 1_555
Al0_0 Al0_4 3.006270 1_455
Al0_0 Al0_2 3.006270 1_555
Al0_0 Al0_6 3.006270 1_555
Al0_0 Al0_6 3.006270 1_445
Al0_1 Nb6_5 2.825349 1_455
Al0_1 Nb5_3 2.825349 1_555
Al0_1 Nb6_3 2.825349 1_555
Al0_1 Nb5_5 2.825349 1_455
Al0_1 Nb5_1 2.825352 1_555
Al0_1 Nb6_1 2.825352 1_555
Al0_1 Al0_5 3.006270 1_555
Al0_1 Al0_3 3.006270 1_545
Al0_1 Al0_3 3.006270 1_555
Al0_1 Al0_5 3.006270 1_455
Al0_1 Al0_7 3.006270 1_555
Al0_1 Al0_7 3.006270 1_445
Al0_2 Nb5_6 2.825349 1_455
Al0_2 Nb5_0 2.825349 1_565
Al0_2 Nb6_6 2.825349 1_455
Al0_2 Nb6_0 2.825349 1_565
Al0_2 Nb5_2 2.825352 1_555
Al0_2 Nb6_2 2.825352 1_555
Al0_2 Al0_6 3.006270 1_555
Al0_2 Al0_6 3.006270 1_455
Al0_2 Al0_4 3.006270 1_565
Al0_2 Al0_4 3.006270 1_455
Al0_3 Nb5_7 2.825349 1_455
Al0_3 Nb6_7 2.825349 1_455
Al0_3 Nb5_1 2.825349 1_565
Al0_3 Nb6_1 2.825349 1_565
Al0_3 Nb5_3 2.825352 1_555
Al0_3 Nb6_3 2.825352 1_555
Al0_3 Al0_7 3.006270 1_555
Al0_3 Al0_7 3.006270 1_455
Al0_3 Al0_5 3.006270 1_565
Al0_3 Al0_5 3.006270 1_455
Al0_4 Nb5_0 2.825349 1_555
Al0_4 Nb5_6 2.825349 1_555
Al0_4 Nb6_0 2.825349 1_555
Al0_4 Nb6_6 2.825349 1_555
Al0_4 Nb5_4 2.825352 1_555
Al0_4 Nb6_4 2.825352 1_555
Al0_4 Al0_6 3.006270 1_545
Al0_4 Al0_6 3.006270 1_555
Al0_5 Nb5_1 2.825349 1_555
Al0_5 Nb5_7 2.825349 1_555
Al0_5 Nb6_7 2.825349 1_555
Al0_5 Nb6_1 2.825349 1_555
Al0_5 Nb5_5 2.825352 1_555
Al0_5 Nb6_5 2.825352 1_555
Al0_5 Al0_7 3.006270 1_545
Al0_5 Al0_7 3.006270 1_555
Al0_6 Nb5_2 2.825349 1_555
Al0_6 Nb5_4 2.825349 1_565
Al0_6 Nb6_2 2.825349 1_555
Al0_6 Nb6_4 2.825349 1_565
Al0_6 Nb5_6 2.825352 1_555
Al0_6 Nb6_6 2.825352 1_555
Al0_7 Nb5_3 2.825349 1_555
Al0_7 Nb6_3 2.825349 1_555
Al0_7 Nb6_5 2.825349 1_565
Al0_7 Nb5_5 2.825349 1_565
Al0_7 Nb6_7 2.825352 1_555
Al0_7 Nb5_7 2.825352 1_555
Al1_0 Nb7_4 2.825349 1_555
Al1_0 Nb7_2 2.825349 1_545
Al1_0 Nb4_4 2.825349 1_555
Al1_0 Nb4_2 2.825349 1_545
Al1_0 Nb7_0 2.825352 1_555
Al1_0 Nb4_0 2.825352 1_555
Al1_0 Al1_2 3.006270 1_555
Al1_0 Al1_4 3.006270 1_455
Al1_0 Al1_4 3.006270 1_555
Al1_0 Al1_2 3.006270 1_545
Al1_0 Al1_6 3.006270 1_445
Al1_0 Al1_6 3.006270 1_555
Al1_1 Nb4_3 2.825349 1_545
Al1_1 Nb4_5 2.825349 1_555
Al1_1 Nb7_5 2.825349 1_555
Al1_1 Nb7_3 2.825349 1_545
Al1_1 Nb4_1 2.825352 1_555
Al1_1 Nb7_1 2.825352 1_555
Al1_1 Al1_5 3.006270 1_455
Al1_1 Al1_3 3.006270 1_555
Al1_1 Al1_5 3.006270 1_555
Al1_1 Al1_3 3.006270 1_545
Al1_1 Al1_7 3.006270 1_445
Al1_1 Al1_7 3.006270 1_555
Al1_2 Nb7_6 2.825349 1_555
Al1_2 Nb7_0 2.825349 1_555
Al1_2 Nb4_0 2.825349 1_555
Al1_2 Nb4_6 2.825349 1_555
Al1_2 Nb7_2 2.825352 1_555
Al1_2 Nb4_2 2.825352 1_555
Al1_2 Al1_6 3.006270 1_455
Al1_2 Al1_6 3.006270 1_555
Al1_2 Al1_4 3.006270 1_455
Al1_2 Al1_4 3.006270 1_565
Al1_3 Nb4_7 2.825349 1_555
Al1_3 Nb4_1 2.825349 1_555
Al1_3 Nb7_1 2.825349 1_555
Al1_3 Nb7_7 2.825349 1_555
Al1_3 Nb4_3 2.825352 1_555
Al1_3 Nb7_3 2.825352 1_555
Al1_3 Al1_7 3.006270 1_455
Al1_3 Al1_7 3.006270 1_555
Al1_3 Al1_5 3.006270 1_455
Al1_3 Al1_5 3.006270 1_565
Al1_4 Nb7_6 2.825349 1_545
Al1_4 Nb7_0 2.825349 1_655
Al1_4 Nb4_6 2.825349 1_545
Al1_4 Nb4_0 2.825349 1_655
Al1_4 Nb7_4 2.825352 1_555
Al1_4 Nb4_4 2.825352 1_555
Al1_4 Al1_6 3.006270 1_555
Al1_4 Al1_6 3.006270 1_545
Al1_5 Nb4_7 2.825349 1_545
Al1_5 Nb4_1 2.825349 1_655
Al1_5 Nb7_7 2.825349 1_545
Al1_5 Nb7_1 2.825349 1_655
Al1_5 Nb4_5 2.825352 1_555
Al1_5 Nb7_5 2.825352 1_555
Al1_5 Al1_7 3.006270 1_555
Al1_5 Al1_7 3.006270 1_545
Al1_6 Nb7_4 2.825349 1_555
Al1_6 Nb7_2 2.825349 1_655
Al1_6 Nb4_4 2.825349 1_555
Al1_6 Nb4_2 2.825349 1_655
Al1_6 Nb7_6 2.825352 1_555
Al1_6 Nb4_6 2.825352 1_555
Al1_7 Nb4_5 2.825349 1_555
Al1_7 Nb4_3 2.825349 1_655
Al1_7 Nb7_3 2.825349 1_655
Al1_7 Nb7_5 2.825349 1_555
Al1_7 Nb4_7 2.825352 1_555
Al1_7 Nb7_7 2.825352 1_555
N0_0 Nb0_2 2.239497 1_545
N0_0 Nb1_4 2.239497 1_455
N0_0 Nb0_0 2.239499 1_555
N0_0 Nb1_0 2.239499 1_555
N0_0 Nb1_6 2.239499 1_445
N0_0 Nb0_6 2.239499 1_445
N0_1 Nb0_3 2.239497 1_545
N0_1 Nb1_5 2.239497 1_455
N0_1 Nb0_1 2.239499 1_555
N0_1 Nb0_7 2.239499 1_445
N0_1 Nb1_1 2.239499 1_555
N0_1 Nb1_7 2.239499 1_445
N0_2 Nb1_6 2.239497 1_455
N0_2 Nb0_0 2.239497 1_555
N0_2 Nb1_4 2.239499 1_455
N0_2 Nb1_2 2.239499 1_555
N0_2 Nb0_2 2.239499 1_555
N0_2 Nb0_4 2.239499 1_455
N0_3 Nb0_1 2.239497 1_555
N0_3 Nb1_7 2.239497 1_455
N0_3 Nb0_5 2.239499 1_455
N0_3 Nb0_3 2.239499 1_555
N0_3 Nb1_5 2.239499 1_455
N0_3 Nb1_3 2.239499 1_555
N0_4 Nb0_6 2.239497 1_545
N0_4 Nb1_0 2.239497 1_555
N0_4 Nb0_4 2.239499 1_555
N0_4 Nb0_2 2.239499 1_545
N0_4 Nb1_2 2.239499 1_545
N0_4 Nb1_4 2.239499 1_555
N0_5 Nb0_7 2.239497 1_545
N0_5 Nb1_1 2.239497 1_555
N0_5 Nb0_5 2.239499 1_555
N0_5 Nb0_3 2.239499 1_545
N0_5 Nb1_5 2.239499 1_555
N0_5 Nb1_3 2.239499 1_545
N0_6 Nb1_2 2.239497 1_555
N0_6 Nb0_4 2.239497 1_555
N0_6 Nb0_0 2.239499 1_555
N0_6 Nb1_0 2.239499 1_555
N0_6 Nb1_6 2.239499 1_555
N0_6 Nb0_6 2.239499 1_555
N0_7 Nb0_5 2.239497 1_555
N0_7 Nb1_3 2.239497 1_555
N0_7 Nb0_7 2.239499 1_555
N0_7 Nb0_1 2.239499 1_555
N0_7 Nb1_1 2.239499 1_555
N0_7 Nb1_7 2.239499 1_555
N1_0 Nb2_5 2.239497 1_454
N1_0 Nb3_2 2.239497 1_545
N1_0 Nb2_1 2.239499 1_554
N1_0 Nb3_0 2.239499 1_555
N1_0 Nb2_7 2.239499 1_444
N1_0 Nb3_6 2.239499 1_445
N1_1 Nb2_4 2.239497 1_455
N1_1 Nb3_3 2.239497 1_545
N1_1 Nb2_0 2.239499 1_555
N1_1 Nb3_1 2.239499 1_555
N1_1 Nb2_6 2.239499 1_445
N1_1 Nb3_7 2.239499 1_445
N1_2 Nb2_7 2.239497 1_454
N1_2 Nb3_0 2.239497 1_555
N1_2 Nb2_3 2.239499 1_554
N1_2 Nb2_5 2.239499 1_454
N1_2 Nb3_4 2.239499 1_455
N1_2 Nb3_2 2.239499 1_555
N1_3 Nb2_6 2.239497 1_455
N1_3 Nb3_1 2.239497 1_555
N1_3 Nb2_4 2.239499 1_455
N1_3 Nb2_2 2.239499 1_555
N1_3 Nb3_3 2.239499 1_555
N1_3 Nb3_5 2.239499 1_455
N1_4 Nb3_6 2.239497 1_545
N1_4 Nb2_1 2.239497 1_554
N1_4 Nb2_5 2.239499 1_554
N1_4 Nb2_3 2.239499 1_544
N1_4 Nb3_4 2.239499 1_555
N1_4 Nb3_2 2.239499 1_545
N1_5 Nb3_7 2.239497 1_545
N1_5 Nb2_0 2.239497 1_555
N1_5 Nb3_5 2.239499 1_555
N1_5 Nb3_3 2.239499 1_545
N1_5 Nb2_2 2.239499 1_545
N1_5 Nb2_4 2.239499 1_555
N1_6 Nb2_3 2.239497 1_554
N1_6 Nb3_4 2.239497 1_555
N1_6 Nb2_1 2.239499 1_554
N1_6 Nb3_0 2.239499 1_555
N1_6 Nb3_6 2.239499 1_555
N1_6 Nb2_7 2.239499 1_554
N1_7 Nb3_5 2.239497 1_555
N1_7 Nb2_2 2.239497 1_555
N1_7 Nb2_0 2.239499 1_555
N1_7 Nb3_1 2.239499 1_555
N1_7 Nb3_7 2.239499 1_555
N1_7 Nb2_6 2.239499 1_555
N2_0 Nb0_2 2.214013 1_545
N2_0 Nb0_0 2.214015 1_555
N2_0 Nb0_6 2.214015 1_445
N2_0 Nb6_4 2.228460 1_455
N2_0 Nb6_0 2.228462 1_555
N2_0 Nb6_6 2.228462 1_445
N2_1 Nb0_3 2.214013 1_545
N2_1 Nb0_1 2.214015 1_555
N2_1 Nb0_7 2.214015 1_445
N2_1 Nb6_5 2.228460 1_455
N2_1 Nb6_1 2.228462 1_555
N2_1 Nb6_7 2.228462 1_445
N2_2 Nb0_0 2.214013 1_555
N2_2 Nb0_2 2.214015 1_555
N2_2 Nb0_4 2.214015 1_455
N2_2 Nb6_6 2.228460 1_455
N2_2 Nb6_4 2.228462 1_455
N2_2 Nb6_2 2.228462 1_555
N2_3 Nb0_1 2.214013 1_555
N2_3 Nb0_3 2.214015 1_555
N2_3 Nb0_5 2.214015 1_455
N2_3 Nb6_7 2.228460 1_455
N2_3 Nb6_5 2.228462 1_455
N2_3 Nb6_3 2.228462 1_555
N2_4 Nb0_6 2.214013 1_545
N2_4 Nb0_2 2.214015 1_545
N2_4 Nb0_4 2.214015 1_555
N2_4 Nb6_0 2.228460 1_555
N2_4 Nb6_4 2.228462 1_555
N2_4 Nb6_2 2.228462 1_545
N2_5 Nb0_7 2.214013 1_545
N2_5 Nb0_5 2.214015 1_555
N2_5 Nb0_3 2.214015 1_545
N2_5 Nb6_1 2.228460 1_555
N2_5 Nb6_3 2.228462 1_545
N2_5 Nb6_5 2.228462 1_555
N2_6 Nb0_4 2.214013 1_555
N2_6 Nb0_0 2.214015 1_555
N2_6 Nb0_6 2.214015 1_555
N2_6 Nb6_2 2.228460 1_555
N2_6 Nb6_0 2.228462 1_555
N2_6 Nb6_6 2.228462 1_555
N2_7 Nb0_5 2.214013 1_555
N2_7 Nb0_1 2.214015 1_555
N2_7 Nb0_7 2.214015 1_555
N2_7 Nb6_3 2.228460 1_555
N2_7 Nb6_1 2.228462 1_555
N2_7 Nb6_7 2.228462 1_555
N3_0 Nb1_4 2.214013 1_455
N3_0 Nb1_0 2.214015 1_555
N3_0 Nb1_6 2.214015 1_445
N3_0 Nb7_2 2.228460 1_545
N3_0 Nb7_0 2.228462 1_555
N3_0 Nb7_6 2.228462 1_445
N3_1 Nb1_5 2.214013 1_455
N3_1 Nb1_1 2.214015 1_555
N3_1 Nb1_7 2.214015 1_445
N3_1 Nb7_3 2.228460 1_545
N3_1 Nb7_7 2.228462 1_445
N3_1 Nb7_1 2.228462 1_555
N3_2 Nb1_6 2.214013 1_455
N3_2 Nb1_4 2.214015 1_455
N3_2 Nb1_2 2.214015 1_555
N3_2 Nb7_0 2.228460 1_555
N3_2 Nb7_2 2.228462 1_555
N3_2 Nb7_4 2.228462 1_455
N3_3 Nb1_7 2.214013 1_455
N3_3 Nb1_3 2.214015 1_555
N3_3 Nb1_5 2.214015 1_455
N3_3 Nb7_1 2.228460 1_555
N3_3 Nb7_5 2.228462 1_455
N3_3 Nb7_3 2.228462 1_555
N3_4 Nb1_0 2.214013 1_555
N3_4 Nb1_2 2.214015 1_545
N3_4 Nb1_4 2.214015 1_555
N3_4 Nb7_6 2.228460 1_545
N3_4 Nb7_2 2.228462 1_545
N3_4 Nb7_4 2.228462 1_555
N3_5 Nb1_1 2.214013 1_555
N3_5 Nb1_3 2.214015 1_545
N3_5 Nb1_5 2.214015 1_555
N3_5 Nb7_7 2.228460 1_545
N3_5 Nb7_5 2.228462 1_555
N3_5 Nb7_3 2.228462 1_545
N3_6 Nb1_2 2.214013 1_555
N3_6 Nb1_0 2.214015 1_555
N3_6 Nb1_6 2.214015 1_555
N3_6 Nb7_4 2.228460 1_555
N3_6 Nb7_0 2.228462 1_555
N3_6 Nb7_6 2.228462 1_555
N3_7 Nb1_3 2.214013 1_555
N3_7 Nb1_1 2.214015 1_555
N3_7 Nb1_7 2.214015 1_555
N3_7 Nb7_5 2.228460 1_555
N3_7 Nb7_1 2.228462 1_555
N3_7 Nb7_7 2.228462 1_555
N4_0 Nb2_4 2.214013 1_455
N4_0 Nb2_6 2.214015 1_445
N4_0 Nb2_0 2.214015 1_555
N4_0 Nb4_2 2.228460 1_545
N4_0 Nb4_0 2.228462 1_555
N4_0 Nb4_6 2.228462 1_445
N4_1 Nb2_5 2.214013 1_455
N4_1 Nb2_1 2.214015 1_555
N4_1 Nb2_7 2.214015 1_445
N4_1 Nb4_3 2.228460 1_545
N4_1 Nb4_1 2.228462 1_555
N4_1 Nb4_7 2.228462 1_445
N4_2 Nb2_6 2.214013 1_455
N4_2 Nb2_4 2.214015 1_455
N4_2 Nb2_2 2.214015 1_555
N4_2 Nb4_0 2.228460 1_555
N4_2 Nb4_2 2.228462 1_555
N4_2 Nb4_4 2.228462 1_455
N4_3 Nb2_7 2.214013 1_455
N4_3 Nb2_3 2.214015 1_555
N4_3 Nb2_5 2.214015 1_455
N4_3 Nb4_1 2.228460 1_555
N4_3 Nb4_3 2.228462 1_555
N4_3 Nb4_5 2.228462 1_455
N4_4 Nb2_0 2.214013 1_555
N4_4 Nb2_2 2.214015 1_545
N4_4 Nb2_4 2.214015 1_555
N4_4 Nb4_6 2.228460 1_545
N4_4 Nb4_4 2.228462 1_555
N4_4 Nb4_2 2.228462 1_545
N4_5 Nb2_1 2.214013 1_555
N4_5 Nb2_5 2.214015 1_555
N4_5 Nb2_3 2.214015 1_545
N4_5 Nb4_7 2.228460 1_545
N4_5 Nb4_3 2.228462 1_545
N4_5 Nb4_5 2.228462 1_555
N4_6 Nb2_2 2.214013 1_555
N4_6 Nb2_6 2.214015 1_555
N4_6 Nb2_0 2.214015 1_555
N4_6 Nb4_4 2.228460 1_555
N4_6 Nb4_0 2.228462 1_555
N4_6 Nb4_6 2.228462 1_555
N4_7 Nb2_3 2.214013 1_555
N4_7 Nb2_7 2.214015 1_555
N4_7 Nb2_1 2.214015 1_555
N4_7 Nb4_5 2.228460 1_555
N4_7 Nb4_7 2.228462 1_555
N4_7 Nb4_1 2.228462 1_555
N5_0 Nb3_2 2.214013 1_545
N5_0 Nb3_6 2.214015 1_445
N5_0 Nb3_0 2.214015 1_555
N5_0 Nb5_4 2.228460 1_455
N5_0 Nb5_0 2.228462 1_555
N5_0 Nb5_6 2.228462 1_445
N5_1 Nb3_3 2.214013 1_545
N5_1 Nb3_1 2.214015 1_555
N5_1 Nb3_7 2.214015 1_445
N5_1 Nb5_5 2.228460 1_455
N5_1 Nb5_1 2.228462 1_555
N5_1 Nb5_7 2.228462 1_445
N5_2 Nb3_0 2.214013 1_555
N5_2 Nb3_4 2.214015 1_455
N5_2 Nb3_2 2.214015 1_555
N5_2 Nb5_6 2.228460 1_455
N5_2 Nb5_2 2.228462 1_555
N5_2 Nb5_4 2.228462 1_455
N5_3 Nb3_1 2.214013 1_555
N5_3 Nb3_3 2.214015 1_555
N5_3 Nb3_5 2.214015 1_455
N5_3 Nb5_7 2.228460 1_455
N5_3 Nb5_5 2.228462 1_455
N5_3 Nb5_3 2.228462 1_555
N5_4 Nb3_6 2.214013 1_545
N5_4 Nb3_2 2.214015 1_545
N5_4 Nb3_4 2.214015 1_555
N5_4 Nb5_0 2.228460 1_555
N5_4 Nb5_2 2.228462 1_545
N5_4 Nb5_4 2.228462 1_555
N5_5 Nb3_7 2.214013 1_545
N5_5 Nb3_5 2.214015 1_555
N5_5 Nb3_3 2.214015 1_545
N5_5 Nb5_1 2.228460 1_555
N5_5 Nb5_5 2.228462 1_555
N5_5 Nb5_3 2.228462 1_545
N5_6 Nb3_4 2.214013 1_555
N5_6 Nb3_0 2.214015 1_555
N5_6 Nb3_6 2.214015 1_555
N5_6 Nb5_2 2.228460 1_555
N5_6 Nb5_0 2.228462 1_555
N5_6 Nb5_6 2.228462 1_555
N5_7 Nb3_5 2.214013 1_555
N5_7 Nb3_7 2.214015 1_555
N5_7 Nb3_1 2.214015 1_555
N5_7 Nb5_3 2.228460 1_555
N5_7 Nb5_1 2.228462 1_555
N5_7 Nb5_7 2.228462 1_555
