# generated using pymatgen
data_MgAl4(HO)12
_symmetry_space_group_name_H-M   'P 1'
_cell_length_a   6.96569162
_cell_length_b   7.71704178
_cell_length_c   7.19760949
_cell_angle_alpha   105.44762772
_cell_angle_beta   138.24853125
_cell_angle_gamma   90.21794077
_symmetry_Int_Tables_number   1
_chemical_formula_structural   MgAl4(HO)12
_chemical_formula_sum   'Mg1 Al4 H12 O12'
_cell_volume   235.64697781
_cell_formula_units_Z   1
loop_
 _symmetry_equiv_pos_site_id
 _symmetry_equiv_pos_as_xyz
  1  'x, y, z'
loop_
 _atom_site_type_symbol
 _atom_site_label
 _atom_site_symmetry_multiplicity
 _atom_site_fract_x
 _atom_site_fract_y
 _atom_site_fract_z
 _atom_site_occupancy
  Mg  Mg0  1  0.24416800  0.89143347  0.62652091  1
  Al  Al0  1  0.50038928  0.85716657  0.31770679  1
  Al  Al1  1  0.54338953  0.18202413  0.69688364  1
  Al  Al2  1  0.97590246  0.63239654  0.65058351  1
  Al  Al3  1  0.03580384  0.30086207  0.37670054  1
  H  H0  1  0.93453850  0.03008634  0.51995172  1
  H  H1  1  0.77114297  0.71896885  0.03329549  1
  H  H2  1  0.58192080  0.54191257  0.80312893  1
  H  H3  1  0.42710854  0.51706019  0.14042529  1
  H  H4  1  0.85423252  0.59017824  0.20437712  1
  H  H5  1  0.84307483  0.30099776  0.56993430  1
  H  H6  1  0.32051892  0.13946137  0.22000570  1
  H  H7  1  0.74321747  0.90061414  0.81397027  1
  H  H8  1  0.55304016  0.75259240  0.99879592  1
  H  H9  1  0.47638391  0.23914227  0.00520724  1
  H  H10  1  0.09370109  0.38790227  0.10858803  1
  H  H11  1  0.94408243  0.72589676  0.00226828  1
  O  O0  1  0.91458545  0.93527275  0.57828008  1
  O  O1  1  0.13515282  0.08678459  0.43744929  1
  O  O2  1  0.45354880  0.40497338  0.67626381  1
  O  O3  1  0.56492447  0.61095697  0.34820679  1
  O  O4  1  0.00702926  0.57844327  0.40338244  1
  O  O5  1  0.00635465  0.39143165  0.63982915  1
  O  O6  1  0.50914010  0.11974634  0.39338701  1
  O  O7  1  0.55075979  0.91483466  0.63609938  1
  O  O8  1  0.38968866  0.79141796  0.96197629  1
  O  O9  1  0.60758678  0.17814887  0.02163620  1
  O  O10  1  0.97148206  0.27491910  0.05298378  1
  O  O11  1  0.07081594  0.74504355  0.98148511  1
loop_
_geom_bond_atom_site_label_1
_geom_bond_atom_site_label_2
_geom_bond_distance
_geom_bond_site_symmetry_2
Mg0 O1 2.064203 1_565
Mg0 O7 2.090216 1_555
Mg0 O0 2.093961 1_455
Mg0 O8 2.190849 1_555
Mg0 O4 2.255364 1_555
Mg0 O9 2.292410 1_566
Al0 O0 1.875019 1_555
Al0 O11 1.902370 1_554
Al0 O8 1.940830 1_554
Al0 O6 1.941134 1_565
Al0 O7 1.956700 1_555
Al0 O3 1.985386 1_555
Al1 O2 1.838326 1_555
Al1 O1 1.855656 1_555
Al1 O10 1.891116 1_556
Al1 O6 1.929244 1_555
Al1 O7 1.999822 1_545
Al1 O9 2.035248 1_556
Al2 O11 1.846211 1_655
Al2 O5 1.860022 1_655
Al2 O3 1.862149 1_555
Al2 O4 1.888856 1_655
Al2 O8 1.925084 1_655
Al3 O1 1.827940 1_555
Al3 O2 1.860043 1_555
Al3 O9 1.907986 1_455
Al3 O10 1.965412 1_455
Al3 O5 1.998260 1_555
Al3 O4 2.123022 1_555
H0 O0 0.990381 1_545
H0 Mg0 2.090766 1_645
H1 H2 1.367880 1_554
H1 H11 1.382451 1_555
H1 H8 1.382572 1_554
H2 O2 1.005285 1_555
H3 O3 0.979028 1_555
H4 O4 0.993886 1_655
H5 O5 0.993430 1_655
H6 O6 0.981304 1_555
H7 O7 0.981524 1_555
H8 O8 1.024539 1_555
H9 O9 0.970799 1_555
H10 O10 0.972232 1_455
H11 O11 1.015549 1_654
