# generated using pymatgen
data_LiNiPO4
_symmetry_space_group_name_H-M   'P 1'
_cell_length_a   4.97656124
_cell_length_b   4.97614520
_cell_length_c   15.68950678
_cell_angle_alpha   90.03644765
_cell_angle_beta   89.96573639
_cell_angle_gamma   114.18872542
_symmetry_Int_Tables_number   1
_chemical_formula_structural   LiNiPO4
_chemical_formula_sum   'Li4 Ni4 P4 O16'
_cell_volume   354.42308538
_cell_formula_units_Z   4
loop_
 _symmetry_equiv_pos_site_id
 _symmetry_equiv_pos_as_xyz
  1  'x, y, z'
loop_
 _atom_site_type_symbol
 _atom_site_label
 _atom_site_symmetry_multiplicity
 _atom_site_fract_x
 _atom_site_fract_y
 _atom_site_fract_z
 _atom_site_occupancy
  Li  Li0  1  0.35899200  0.74651900  0.72678500  1
  Li  Li1  1  0.25378600  0.64128100  0.22687700  1
  Li  Li2  1  0.74654100  0.35892300  0.77323300  1
  Li  Li3  1  0.64116900  0.25392500  0.27309300  1
  Ni  Ni0  1  0.90671600  0.58033400  0.58690200  1
  Ni  Ni1  1  0.09292300  0.41942500  0.41313700  1
  Ni  Ni2  1  0.58053200  0.90657700  0.91311800  1
  Ni  Ni3  1  0.41944500  0.09304800  0.08688000  1
  P  P0  1  0.23347000  0.28120500  0.62558300  1
  P  P1  1  0.28141200  0.23351200  0.87441400  1
  P  P2  1  0.71872100  0.76644800  0.12559500  1
  P  P3  1  0.76633800  0.71882500  0.37441000  1
  O  O0  1  0.01793500  0.35401500  0.68468500  1
  O  O1  1  0.64596800  0.98206800  0.18467300  1
  O  O2  1  0.35420200  0.01794800  0.81532700  1
  O  O3  1  0.98183800  0.64590800  0.31530900  1
  O  O4  1  0.96296900  0.20503500  0.86883100  1
  O  O5  1  0.79484100  0.03718000  0.36877200  1
  O  O6  1  0.20500200  0.96277800  0.63118900  1
  O  O7  1  0.03719800  0.79495100  0.13118800  1
  O  O8  1  0.50411400  0.54547400  0.84586400  1
  O  O9  1  0.45435200  0.49596700  0.34590500  1
  O  O10  1  0.54544400  0.50407500  0.65410000  1
  O  O11  1  0.49602700  0.45444700  0.15412500  1
  O  O12  1  0.16054500  0.36233700  0.53515500  1
  O  O13  1  0.63765300  0.83926800  0.03516100  1
  O  O14  1  0.36256100  0.16076100  0.96484000  1
  O  O15  1  0.83930800  0.63776400  0.46484900  1
loop_
_geom_bond_atom_site_label_1
_geom_bond_atom_site_label_2
_geom_bond_distance
_geom_bond_site_symmetry_2
Li0 O2 1.943877 1_565
Li0 O0 2.101179 1_555
Li0 O10 2.128688 1_555
Li0 O6 2.161980 1_555
Li0 O8 2.368341 1_555
Li1 O3 1.944327 1_455
Li1 O1 2.100241 1_555
Li1 O11 2.129797 1_555
Li1 O7 2.163171 1_555
Li1 O9 2.366870 1_555
Li2 O0 1.944111 1_655
Li2 O2 2.100565 1_555
Li2 O8 2.128530 1_555
Li2 O4 2.162273 1_555
Li2 O10 2.369232 1_555
Li3 O1 1.944015 1_545
Li3 O3 2.099377 1_555
Li3 O9 2.129479 1_555
Li3 O5 2.163557 1_555
Li3 O11 2.365589 1_555
Ni0 O10 1.981695 1_555
Ni0 O15 1.985263 1_555
Ni0 O6 1.998153 1_655
Ni0 O0 2.107692 1_655
Ni0 O12 2.133582 1_655
Ni1 O9 1.982373 1_555
Ni1 O12 1.984613 1_555
Ni1 O5 1.997579 1_455
Ni1 O3 2.108409 1_455
Ni1 O15 2.133799 1_455
Ni2 O8 1.981149 1_555
Ni2 O13 1.984672 1_556
Ni2 O4 1.998537 1_565
Ni2 O2 2.108205 1_565
Ni2 O14 2.134730 1_565
Ni3 O11 1.982148 1_555
Ni3 O14 1.984834 1_554
Ni3 O7 1.997405 1_545
Ni3 O1 2.107908 1_545
Ni3 O13 2.133989 1_545
O0 P0 1.567960 1_555
O1 P2 1.567851 1_555
O2 P1 1.567812 1_555
O3 P3 1.568087 1_555
O4 P1 1.534702 1_655
O5 P3 1.534141 1_545
O6 P0 1.534526 1_565
O7 P2 1.534836 1_455
O8 P1 1.558584 1_555
O9 P3 1.558735 1_555
O10 P0 1.558765 1_555
O11 P2 1.558619 1_555
O12 P0 1.558533 1_555
O13 P2 1.558329 1_555
O14 P1 1.558241 1_555
O15 P3 1.558641 1_555
