# generated using pymatgen
data_Si3Bi5N9
_symmetry_space_group_name_H-M   'P 1'
_cell_length_a   8.09617923
_cell_length_b   11.90140996
_cell_length_c   15.86515000
_cell_angle_alpha   90.00000000
_cell_angle_beta   90.00000000
_cell_angle_gamma   137.30735820
_symmetry_Int_Tables_number   1
_chemical_formula_structural   Si3Bi5N9
_chemical_formula_sum   'Si12 Bi20 N36'
_cell_volume   1036.55946340
_cell_formula_units_Z   4
loop_
 _symmetry_equiv_pos_site_id
 _symmetry_equiv_pos_as_xyz
  1  'x, y, z'
loop_
 _atom_site_type_symbol
 _atom_site_label
 _atom_site_symmetry_multiplicity
 _atom_site_fract_x
 _atom_site_fract_y
 _atom_site_fract_z
 _atom_site_occupancy
  Si  Si0  1  0.00000000  0.77200400  0.02596300  1
  Si  Si1  1  0.00000000  0.22799600  0.97403700  1
  Si  Si2  1  0.00000000  0.72799600  0.52596300  1
  Si  Si3  1  0.00000000  0.27200400  0.47403700  1
  Si  Si4  1  0.00000000  0.20395600  0.76917200  1
  Si  Si5  1  0.00000000  0.79604400  0.23082800  1
  Si  Si6  1  0.00000000  0.29604400  0.26917200  1
  Si  Si7  1  0.00000000  0.70395600  0.73082800  1
  Si  Si8  1  0.50000000  0.77964300  0.75000000  1
  Si  Si9  1  0.50000000  0.72035700  0.25000000  1
  Si  Si10  1  0.50000000  0.22035700  0.25000000  1
  Si  Si11  1  0.50000000  0.27964300  0.75000000  1
  Bi  Bi0  1  0.00000000  0.51630500  0.86770600  1
  Bi  Bi1  1  0.00000000  0.48369500  0.13229400  1
  Bi  Bi2  1  0.00000000  0.98369500  0.36770600  1
  Bi  Bi3  1  0.00000000  0.01630500  0.63229400  1
  Bi  Bi4  1  0.38942300  0.96534700  0.87465100  1
  Bi  Bi5  1  0.38942300  0.42407700  0.12534900  1
  Bi  Bi6  1  0.38942300  0.92407700  0.37465100  1
  Bi  Bi7  1  0.38942300  0.46534700  0.62534900  1
  Bi  Bi8  1  0.61057700  0.03465300  0.12534900  1
  Bi  Bi9  1  0.61057700  0.57592300  0.87465100  1
  Bi  Bi10  1  0.61057700  0.07592300  0.62534900  1
  Bi  Bi11  1  0.61057700  0.53465300  0.37465100  1
  Bi  Bi12  1  0.00000000  0.48410400  0.63918800  1
  Bi  Bi13  1  0.00000000  0.51589600  0.36081200  1
  Bi  Bi14  1  0.00000000  0.01589600  0.13918800  1
  Bi  Bi15  1  0.00000000  0.98410400  0.86081200  1
  Bi  Bi16  1  0.50463400  0.25231600  0.00000000  1
  Bi  Bi17  1  0.50463400  0.75231600  0.50000000  1
  Bi  Bi18  1  0.49536600  0.74768400  0.00000000  1
  Bi  Bi19  1  0.49536600  0.24768400  0.50000000  1
  N  N0  1  0.00000000  0.30926700  0.69135600  1
  N  N1  1  0.00000000  0.69073300  0.30864400  1
  N  N2  1  0.00000000  0.19073300  0.19135600  1
  N  N3  1  0.00000000  0.80926700  0.80864400  1
  N  N4  1  0.00000000  0.24992900  0.86841000  1
  N  N5  1  0.00000000  0.75007100  0.13159000  1
  N  N6  1  0.00000000  0.25007100  0.36841000  1
  N  N7  1  0.00000000  0.74992900  0.63159000  1
  N  N8  1  0.00000000  0.65031100  0.96341200  1
  N  N9  1  0.00000000  0.34968900  0.03658800  1
  N  N10  1  0.00000000  0.84968900  0.46341200  1
  N  N11  1  0.00000000  0.15031100  0.53658800  1
  N  N12  1  0.76575400  0.49182500  0.76209900  1
  N  N13  1  0.76575400  0.27393100  0.23790100  1
  N  N14  1  0.76575400  0.77393100  0.26209900  1
  N  N15  1  0.76575400  0.99182500  0.73790100  1
  N  N16  1  0.23424600  0.50817500  0.23790100  1
  N  N17  1  0.23424600  0.72606900  0.76209900  1
  N  N18  1  0.23424600  0.22606900  0.73790100  1
  N  N19  1  0.23424600  0.00817500  0.26209900  1
  N  N20  1  0.45851200  0.18528700  0.84486700  1
  N  N21  1  0.45851200  0.27322500  0.15513300  1
  N  N22  1  0.45851200  0.77322500  0.34486700  1
  N  N23  1  0.45851200  0.68528700  0.65513300  1
  N  N24  1  0.54148800  0.81471300  0.15513300  1
  N  N25  1  0.54148800  0.72677500  0.84486700  1
  N  N26  1  0.54148800  0.22677500  0.65513300  1
  N  N27  1  0.54148800  0.31471300  0.34486700  1
  N  N28  1  0.25681500  0.97972200  0.99287500  1
  N  N29  1  0.25681500  0.27709300  0.00712500  1
  N  N30  1  0.25681500  0.77709300  0.49287500  1
  N  N31  1  0.25681500  0.47972200  0.50712500  1
  N  N32  1  0.74318500  0.02027800  0.00712500  1
  N  N33  1  0.74318500  0.72290700  0.99287500  1
  N  N34  1  0.74318500  0.22290700  0.50712500  1
  N  N35  1  0.74318500  0.52027800  0.49287500  1
loop_
_geom_bond_atom_site_label_1
_geom_bond_atom_site_label_2
_geom_bond_distance
_geom_bond_site_symmetry_2
Bi0 N8 2.202064 1_555
Bi0 N17 2.382541 1_555
Bi0 N12 2.382552 1_455
Bi1 N9 2.202064 1_555
Bi1 N13 2.382541 1_455
Bi1 N16 2.382552 1_555
Bi2 N10 2.202064 1_555
Bi2 N14 2.382541 1_455
Bi2 N19 2.382552 1_565
Bi3 N11 2.202064 1_555
Bi3 N18 2.382541 1_555
Bi3 N15 2.382552 1_445
Bi4 N28 2.229341 1_555
Bi4 N20 2.288151 1_565
Bi4 N3 2.424532 1_555
Bi4 N17 2.759949 1_555
Bi5 N29 2.229346 1_555
Bi5 N21 2.288163 1_555
Bi5 N2 2.424535 1_555
Bi5 N16 2.759925 1_555
Bi6 N30 2.229346 1_555
Bi6 N22 2.288163 1_555
Bi6 N1 2.424535 1_555
Bi6 N19 2.759925 1_565
Bi7 N31 2.229341 1_555
Bi7 N23 2.288151 1_555
Bi7 N0 2.424532 1_555
Bi7 N18 2.759949 1_555
Bi8 N32 2.229341 1_555
Bi8 N24 2.288151 1_545
Bi8 N2 2.424532 1_655
Bi8 N13 2.759949 1_555
Bi9 N33 2.229346 1_555
Bi9 N25 2.288163 1_555
Bi9 N3 2.424535 1_655
Bi9 N12 2.759925 1_555
Bi10 N34 2.229346 1_555
Bi10 N26 2.288163 1_555
Bi10 N0 2.424535 1_655
Bi10 N15 2.759925 1_545
Bi11 N35 2.229341 1_555
Bi11 N27 2.288151 1_555
Bi11 N1 2.424532 1_655
Bi11 N14 2.759949 1_555
Bi12 N0 2.239367 1_555
Bi12 N26 2.551758 1_455
Bi12 N23 2.551758 1_555
Bi12 N17 2.768350 1_555
Bi12 N12 2.768363 1_455
Bi13 N1 2.239367 1_555
Bi13 N22 2.551758 1_555
Bi13 N27 2.551758 1_455
Bi13 N13 2.768350 1_455
Bi13 N16 2.768363 1_555
Bi14 N2 2.239367 1_555
Bi14 N21 2.551758 1_555
Bi14 N24 2.551758 1_445
Bi14 N14 2.768350 1_445
Bi14 N19 2.768363 1_555
Bi15 N3 2.239367 1_555
Bi15 N25 2.551758 1_455
Bi15 N20 2.551758 1_565
Bi15 N18 2.768350 1_565
Bi15 N15 2.768363 1_455
Bi16 N28 2.234940 1_544
Bi16 N29 2.234959 1_555
Bi16 N20 2.528928 1_554
Bi16 N21 2.528933 1_555
Bi17 N31 2.234940 1_555
Bi17 N30 2.234959 1_555
Bi17 N23 2.528928 1_555
Bi17 N22 2.528933 1_555
Bi18 N32 2.234940 1_565
Bi18 N33 2.234959 1_554
Bi18 N24 2.528928 1_555
Bi18 N25 2.528933 1_554
Bi19 N35 2.234940 1_555
Bi19 N34 2.234959 1_555
Bi19 N27 2.528928 1_555
Bi19 N26 2.528933 1_555
N0 Si4 1.759270 1_555
N1 Si5 1.759270 1_555
N2 Si6 1.759270 1_555
N3 Si7 1.759270 1_555
N4 Si4 1.666788 1_555
N4 Si1 1.695997 1_555
N5 Si5 1.666788 1_555
N5 Si0 1.695997 1_555
N6 Si6 1.666788 1_555
N6 Si3 1.695997 1_555
N7 Si7 1.666788 1_555
N7 Si2 1.695997 1_555
N8 Si0 1.755690 1_556
N9 Si1 1.755690 1_554
N10 Si2 1.755690 1_555
N11 Si3 1.755690 1_555
N12 Si11 1.748179 1_555
N12 Si7 1.782792 1_655
N13 Si10 1.748166 1_555
N13 Si6 1.782807 1_655
N14 Si9 1.748166 1_555
N14 Si5 1.782807 1_655
N15 Si8 1.748179 1_555
N15 Si4 1.782792 1_665
N16 Si9 1.748179 1_555
N16 Si6 1.782792 1_555
N17 Si8 1.748166 1_555
N17 Si7 1.782807 1_555
N18 Si11 1.748166 1_555
N18 Si4 1.782807 1_555
N19 Si10 1.748179 1_555
N19 Si5 1.782792 1_545
N20 Si11 1.756321 1_555
N21 Si10 1.756321 1_555
N22 Si9 1.756321 1_555
N23 Si8 1.756321 1_555
N24 Si9 1.756321 1_555
N25 Si8 1.756321 1_555
N26 Si11 1.756321 1_555
N27 Si10 1.756321 1_555
N28 Si0 1.776006 1_556
N29 Si1 1.776006 1_554
N30 Si2 1.776006 1_555
N31 Si3 1.776006 1_555
N32 Si1 1.776006 1_654
N33 Si0 1.776006 1_656
N34 Si3 1.776006 1_655
N35 Si2 1.776006 1_655
