# generated using pymatgen
data_CaNb2Te4Cl10O
_symmetry_space_group_name_H-M   'P 1'
_cell_length_a   6.94266033
_cell_length_b   9.15370003
_cell_length_c   9.63017731
_cell_angle_alpha   83.34353097
_cell_angle_beta   93.54850900
_cell_angle_gamma   71.80225582
_symmetry_Int_Tables_number   1
_chemical_formula_structural   CaNb2Te4Cl10O
_chemical_formula_sum   'Ca1 Nb2 Te4 Cl10 O1'
_cell_volume   574.34949197
_cell_formula_units_Z   1
loop_
 _symmetry_equiv_pos_site_id
 _symmetry_equiv_pos_as_xyz
  1  'x, y, z'
loop_
 _atom_site_type_symbol
 _atom_site_label
 _atom_site_symmetry_multiplicity
 _atom_site_fract_x
 _atom_site_fract_y
 _atom_site_fract_z
 _atom_site_occupancy
  Ca  Ca0  1  0.14659500  0.04232600  0.65975300  1
  Nb  Nb0  1  0.53173800  0.62270300  0.63170000  1
  Nb  Nb1  1  0.49641200  0.36061800  0.35570700  1
  Te  Te0  1  0.19900300  0.91321300  0.16300700  1
  Te  Te1  1  0.07033300  0.19347600  0.98510500  1
  Te  Te2  1  0.93043100  0.80871500  0.01024100  1
  Te  Te3  1  0.75730700  0.10256500  0.85641000  1
  Cl  Cl0  1  0.46631400  0.17074000  0.20837900  1
  Cl  Cl1  1  0.41832600  0.49083500  0.81956300  1
  Cl  Cl2  1  0.84261500  0.18060400  0.44715800  1
  Cl  Cl3  1  0.15894600  0.52530600  0.27697500  1
  Cl  Cl4  1  0.63945900  0.49266000  0.19627100  1
  Cl  Cl5  1  0.36422400  0.21667700  0.54811400  1
  Cl  Cl6  1  0.87664400  0.49902700  0.73033500  1
  Cl  Cl7  1  0.61978800  0.79723700  0.46835500  1
  Cl  Cl8  1  0.16362300  0.77623500  0.56088900  1
  Cl  Cl9  1  0.50012600  0.84139600  0.79928000  1
  O  O0  1  0.52182200  0.48709800  0.50418900  1
loop_
_geom_bond_atom_site_label_1
_geom_bond_atom_site_label_2
_geom_bond_distance
_geom_bond_site_symmetry_2
Ca0 Cl8 2.687907 1_545
Ca0 Cl5 2.700971 1_555
Ca0 Cl9 2.722459 1_545
Ca0 Cl2 2.728278 1_455
Ca0 Te3 3.337681 1_455
Ca0 Te1 3.572724 1_555
Nb0 O0 1.857332 1_555
Nb1 O0 1.973906 1_555
Te0 Te2 2.767081 1_455
Te0 Te1 2.770352 1_564
Te1 Te3 2.826080 1_455
Te2 Te3 2.776842 1_564
Cl0 Nb1 2.416491 1_555
Cl1 Nb0 2.369334 1_555
Cl2 Nb1 2.489128 1_555
Cl3 Nb1 2.376081 1_555
Cl4 Nb1 2.304973 1_555
Cl5 Nb1 2.532064 1_555
Cl6 Nb0 2.386165 1_555
Cl7 Nb0 2.355204 1_555
Cl8 Nb0 2.508071 1_555
Cl9 Nb0 2.679253 1_555
