# generated using pymatgen
data_U2InPt2
_symmetry_space_group_name_H-M   'P 1'
_cell_length_a   3.76105306
_cell_length_b   7.75573613
_cell_length_c   7.75573613
_cell_angle_alpha   89.99880677
_cell_angle_beta   90.00000000
_cell_angle_gamma   90.00000000
_symmetry_Int_Tables_number   1
_chemical_formula_structural   U2InPt2
_chemical_formula_sum   'U4 In2 Pt4'
_cell_volume   226.23276843
_cell_formula_units_Z   2
loop_
 _symmetry_equiv_pos_site_id
 _symmetry_equiv_pos_as_xyz
  1  'x, y, z'
loop_
 _atom_site_type_symbol
 _atom_site_label
 _atom_site_symmetry_multiplicity
 _atom_site_fract_x
 _atom_site_fract_y
 _atom_site_fract_z
 _atom_site_occupancy
  U  U0  1  0.00000000  0.33198285  0.66801715  1
  U  U1  1  -0.00000000  0.66801715  0.33198285  1
  U  U2  1  -0.00000000  0.16804914  0.16804914  1
  U  U3  1  -0.00000000  0.83195086  0.83195086  1
  In  In0  1  0.50000000  0.00000000  0.50000000  1
  In  In1  1  0.50000000  0.50000000  0.00000000  1
  Pt  Pt0  1  0.50000000  0.13347487  0.86652513  1
  Pt  Pt1  1  0.50000000  0.86652513  0.13347487  1
  Pt  Pt2  1  0.50000000  0.36654904  0.36654904  1
  Pt  Pt3  1  0.50000000  0.63345096  0.63345096  1
loop_
_geom_bond_atom_site_label_1
_geom_bond_atom_site_label_2
_geom_bond_distance
_geom_bond_site_symmetry_2
In0 Pt0 3.025316 1_555
In0 Pt1 3.025316 1_545
In0 Pt2 3.025387 1_555
In0 Pt3 3.025387 1_545
In0 U3 3.444288 1_645
In0 U2 3.444288 1_555
In0 U2 3.444288 1_655
In0 U3 3.444288 1_545
In0 U1 3.444420 1_645
In0 U1 3.444420 1_545
In0 U0 3.444420 1_555
In0 U0 3.444420 1_655
In1 Pt0 3.025316 1_554
In1 Pt1 3.025316 1_555
In1 Pt2 3.025387 1_555
In1 Pt3 3.025387 1_554
In1 U3 3.444288 1_654
In1 U3 3.444288 1_554
In1 U2 3.444288 1_655
In1 U2 3.444288 1_555
In1 U0 3.444420 1_654
In1 U0 3.444420 1_554
In1 U1 3.444420 1_555
In1 U1 3.444420 1_655
Pt0 U0 2.876954 1_555
Pt0 U0 2.876954 1_655
Pt0 Pt1 2.927946 1_546
Pt0 U3 3.012820 1_645
Pt0 U2 3.012820 1_656
Pt0 U2 3.012820 1_556
Pt0 U3 3.012820 1_545
Pt1 U1 2.876954 1_555
Pt1 U1 2.876954 1_655
Pt1 U3 3.012820 1_654
Pt1 U3 3.012820 1_554
Pt1 U2 3.012820 1_665
Pt1 U2 3.012820 1_565
Pt2 U2 2.876922 1_555
Pt2 U2 2.876922 1_655
Pt2 Pt3 2.927482 1_555
Pt2 U0 3.012469 1_555
Pt2 U1 3.012469 1_555
Pt2 U1 3.012469 1_655
Pt2 U0 3.012469 1_655
Pt3 U3 2.876922 1_655
Pt3 U3 2.876922 1_555
Pt3 U0 3.012469 1_555
Pt3 U1 3.012469 1_555
Pt3 U1 3.012469 1_655
Pt3 U0 3.012469 1_655
