# generated using pymatgen
data_Gd2SiTeO4
_symmetry_space_group_name_H-M   'P 1'
_cell_length_a   6.23571300
_cell_length_b   7.10063200
_cell_length_c   11.20256300
_cell_angle_alpha   90.00000000
_cell_angle_beta   90.00000000
_cell_angle_gamma   90.00000000
_symmetry_Int_Tables_number   1
_chemical_formula_structural   Gd2SiTeO4
_chemical_formula_sum   'Gd8 Si4 Te4 O16'
_cell_volume   496.02151987
_cell_formula_units_Z   4
loop_
 _symmetry_equiv_pos_site_id
 _symmetry_equiv_pos_as_xyz
  1  'x, y, z'
loop_
 _atom_site_type_symbol
 _atom_site_label
 _atom_site_symmetry_multiplicity
 _atom_site_fract_x
 _atom_site_fract_y
 _atom_site_fract_z
 _atom_site_occupancy
  Gd  Gd0  1  0.38795400  0.75000000  0.50000000  1
  Gd  Gd1  1  0.38795400  0.75000000  0.00000000  1
  Gd  Gd2  1  0.61204600  0.25000000  0.50000000  1
  Gd  Gd3  1  0.61204600  0.25000000  0.00000000  1
  Gd  Gd4  1  0.88878000  0.96669600  0.75000000  1
  Gd  Gd5  1  0.88878000  0.53330400  0.25000000  1
  Gd  Gd6  1  0.11122000  0.46669600  0.75000000  1
  Gd  Gd7  1  0.11122000  0.03330400  0.25000000  1
  Si  Si0  1  0.11474700  0.25000000  0.00000000  1
  Si  Si1  1  0.88525300  0.75000000  0.00000000  1
  Si  Si2  1  0.88525300  0.75000000  0.50000000  1
  Si  Si3  1  0.11474700  0.25000000  0.50000000  1
  Te  Te0  1  0.59149200  0.59219200  0.75000000  1
  Te  Te1  1  0.59149200  0.90780800  0.25000000  1
  Te  Te2  1  0.40850800  0.09219200  0.75000000  1
  Te  Te3  1  0.40850800  0.40780800  0.25000000  1
  O  O0  1  0.27318000  0.07251600  0.46649100  1
  O  O1  1  0.27318000  0.42748400  0.53350900  1
  O  O2  1  0.72682000  0.57251600  0.03350900  1
  O  O3  1  0.72682000  0.92748400  0.96649100  1
  O  O4  1  0.72682000  0.92748400  0.53350900  1
  O  O5  1  0.72682000  0.57251600  0.46649100  1
  O  O6  1  0.27318000  0.42748400  0.96649100  1
  O  O7  1  0.27318000  0.07251600  0.03350900  1
  O  O8  1  0.05013500  0.76492600  0.38323000  1
  O  O9  1  0.05013500  0.76492600  0.11677000  1
  O  O10  1  0.94986500  0.26492600  0.11677000  1
  O  O11  1  0.94986500  0.23507400  0.88323000  1
  O  O12  1  0.94986500  0.23507400  0.61677000  1
  O  O13  1  0.94986500  0.26492600  0.38323000  1
  O  O14  1  0.05013500  0.73507400  0.88323000  1
  O  O15  1  0.05013500  0.73507400  0.61677000  1
loop_
_geom_bond_atom_site_label_1
_geom_bond_atom_site_label_2
_geom_bond_distance
_geom_bond_site_symmetry_2
Gd0 O0 2.428487 1_565
Gd0 O1 2.428487 1_555
Gd0 O8 2.481923 1_555
Gd0 O15 2.481923 1_555
Gd0 O5 2.488817 1_555
Gd0 O4 2.488817 1_555
Gd0 Te0 3.272624 1_555
Gd0 Te1 3.272624 1_555
Gd1 O7 2.428487 1_565
Gd1 O6 2.428487 1_554
Gd1 O9 2.481923 1_555
Gd1 O14 2.481923 1_554
Gd1 O3 2.488817 1_554
Gd1 O2 2.488817 1_555
Gd1 Te0 3.272624 1_554
Gd1 Te1 3.272624 1_555
Gd2 O5 2.428487 1_555
Gd2 O4 2.428487 1_545
Gd2 O13 2.481923 1_555
Gd2 O12 2.481923 1_555
Gd2 O0 2.488817 1_555
Gd2 O1 2.488817 1_555
Gd2 Te2 3.272624 1_555
Gd2 Te3 3.272624 1_555
Gd3 O2 2.428487 1_555
Gd3 O3 2.428487 1_544
Gd3 O10 2.481923 1_555
Gd3 O11 2.481923 1_554
Gd3 O7 2.488817 1_555
Gd3 O6 2.488817 1_554
Gd3 Te3 3.272624 1_555
Gd3 Te2 3.272624 1_554
Gd4 O14 2.438214 1_655
Gd4 O15 2.438214 1_655
Gd4 O11 2.450350 1_565
Gd4 O12 2.450350 1_565
Gd4 O3 2.641846 1_555
Gd4 O4 2.641846 1_555
Gd4 Te2 3.124599 1_565
Gd4 Te0 3.241606 1_555
Gd4 Te2 3.361150 1_665
Gd5 O9 2.438214 1_655
Gd5 O8 2.438214 1_655
Gd5 O13 2.450350 1_555
Gd5 O10 2.450350 1_555
Gd5 O2 2.641846 1_555
Gd5 O5 2.641846 1_555
Gd5 Te3 3.124599 1_555
Gd5 Te1 3.241606 1_555
Gd5 Te3 3.361150 1_655
Gd6 O12 2.438214 1_455
Gd6 O11 2.438214 1_455
Gd6 O15 2.450350 1_555
Gd6 O14 2.450350 1_555
Gd6 O1 2.641846 1_555
Gd6 O6 2.641846 1_555
Gd6 Te0 3.124599 1_555
Gd6 Te2 3.241606 1_555
Gd6 Te0 3.361150 1_455
Gd7 O13 2.438214 1_455
Gd7 O10 2.438214 1_455
Gd7 O9 2.450350 1_545
Gd7 O8 2.450350 1_545
Gd7 O0 2.641846 1_555
Gd7 O7 2.641846 1_555
Gd7 Te1 3.124599 1_545
Gd7 Te3 3.241606 1_555
Gd7 Te1 3.361150 1_445
O0 Si3 1.644741 1_555
O1 Si3 1.644741 1_555
O2 Si1 1.644741 1_555
O3 Si1 1.644741 1_556
O4 Si2 1.644741 1_555
O5 Si2 1.644741 1_555
O6 Si0 1.644741 1_556
O7 Si0 1.644741 1_555
O8 Si2 1.667191 1_455
O9 Si1 1.667191 1_455
O10 Si0 1.667191 1_655
O11 Si0 1.667191 1_656
O12 Si3 1.667191 1_655
O13 Si3 1.667191 1_655
O14 Si1 1.667191 1_456
O15 Si2 1.667191 1_455
