# generated using pymatgen
data_Ho6Ag(GeS7)2
_symmetry_space_group_name_H-M   'P 1'
_cell_length_a   9.80216397
_cell_length_b   9.80216397
_cell_length_c   5.83463600
_cell_angle_alpha   90.00000000
_cell_angle_beta   90.00000000
_cell_angle_gamma   119.99999979
_symmetry_Int_Tables_number   1
_chemical_formula_structural   Ho6Ag(GeS7)2
_chemical_formula_sum   'Ho6 Ag1 Ge2 S14'
_cell_volume   485.49898466
_cell_formula_units_Z   1
loop_
 _symmetry_equiv_pos_site_id
 _symmetry_equiv_pos_as_xyz
  1  'x, y, z'
loop_
 _atom_site_type_symbol
 _atom_site_label
 _atom_site_symmetry_multiplicity
 _atom_site_fract_x
 _atom_site_fract_y
 _atom_site_fract_z
 _atom_site_occupancy
  Ho  Ho0  1  0.69041300  0.88598400  0.74358700  1
  Ho  Ho1  1  0.19557100  0.30958700  0.74358700  1
  Ho  Ho2  1  0.11401600  0.80442900  0.74358700  1
  Ho  Ho3  1  0.97610400  0.44680700  0.24396900  1
  Ho  Ho4  1  0.47070400  0.02389600  0.24396900  1
  Ho  Ho5  1  0.55319300  0.52929600  0.24396900  1
  Ag  Ag0  1  0.33333300  0.66666700  0.46511400  1
  Ge  Ge0  1  0.66666700  0.33333300  0.82062600  1
  Ge  Ge1  1  0.00000000  0.00000000  0.32398000  1
  S  S0  1  0.59262000  0.82424100  0.19979900  1
  S  S1  1  0.23162100  0.40738000  0.19979900  1
  S  S2  1  0.17575900  0.76837900  0.19979900  1
  S  S3  1  0.07018500  0.50932200  0.69537400  1
  S  S4  1  0.43913700  0.92981500  0.69537400  1
  S  S5  1  0.49067800  0.56086300  0.69537400  1
  S  S6  1  0.85390100  0.76271300  0.48644300  1
  S  S7  1  0.90881200  0.14609900  0.48644300  1
  S  S8  1  0.23728700  0.09118800  0.48644300  1
  S  S9  1  0.81281600  0.57069000  0.98278600  1
  S  S10  1  0.75787500  0.18718400  0.98278600  1
  S  S11  1  0.42931000  0.24212500  0.98278600  1
  S  S12  1  0.66666700  0.33333300  0.44072900  1
  S  S13  1  0.00000000  0.00000000  0.94423200  1
loop_
_geom_bond_atom_site_label_1
_geom_bond_atom_site_label_2
_geom_bond_distance
_geom_bond_site_symmetry_2
Ho0 S4 2.718189 1_555
Ho0 S0 2.791122 1_556
Ho0 S5 2.798055 1_555
Ho0 S7 2.806521 1_565
Ho0 S6 2.866282 1_555
Ho0 S13 2.904649 1_665
Ho0 S10 3.024810 1_565
Ho0 S0 3.282028 1_555
Ho1 S5 2.718189 1_555
Ho1 S1 2.791122 1_556
Ho1 S3 2.798055 1_555
Ho1 S8 2.806521 1_555
Ho1 S7 2.866282 1_455
Ho1 S13 2.904649 1_555
Ho1 S11 3.024818 1_555
Ho1 S1 3.282028 1_555
Ho2 S3 2.718189 1_555
Ho2 S2 2.791122 1_556
Ho2 S4 2.798055 1_555
Ho2 S6 2.806521 1_455
Ho2 S8 2.866282 1_565
Ho2 S13 2.904649 1_565
Ho2 S9 3.024813 1_455
Ho2 S2 3.282028 1_555
Ho3 S1 2.730724 1_655
Ho3 S3 2.756386 1_655
Ho3 S2 2.768282 1_655
Ho3 S10 2.816149 1_554
Ho3 S9 2.881376 1_554
Ho3 S12 2.895067 1_555
Ho3 S7 3.029954 1_555
Ho3 S3 3.302469 1_654
Ho4 S2 2.730730 1_545
Ho4 S4 2.756385 1_545
Ho4 S0 2.768275 1_545
Ho4 S11 2.816149 1_554
Ho4 S10 2.881376 1_554
Ho4 S12 2.895067 1_555
Ho4 S8 3.029963 1_555
Ho4 S4 3.302468 1_544
Ho5 S0 2.730734 1_555
Ho5 S5 2.756388 1_555
Ho5 S1 2.768284 1_555
Ho5 S9 2.816149 1_554
Ho5 S11 2.881376 1_554
Ho5 S12 2.895067 1_555
Ho5 S6 3.029957 1_555
Ho5 S5 3.302470 1_554
Ag0 S4 2.618933 1_555
Ag0 S3 2.618934 1_555
Ag0 S5 2.618941 1_555
Ag0 S2 2.704806 1_555
Ag0 S0 2.704812 1_555
Ag0 S1 2.704813 1_555
Ge0 S12 2.216561 1_555
Ge0 S10 2.242218 1_555
Ge0 S11 2.242218 1_555
Ge0 S9 2.242218 1_555
Ge1 S13 2.215691 1_554
Ge1 S7 2.242413 1_455
Ge1 S8 2.242413 1_555
Ge1 S6 2.242413 1_445
