# generated using pymatgen
data_Li2LaNb6O18
_symmetry_space_group_name_H-M   'P 1'
_cell_length_a   3.96899900
_cell_length_b   8.01240500
_cell_length_c   11.95689400
_cell_angle_alpha   90.00000000
_cell_angle_beta   90.00000000
_cell_angle_gamma   90.00000000
_symmetry_Int_Tables_number   1
_chemical_formula_structural   Li2LaNb6O18
_chemical_formula_sum   'Li2 La1 Nb6 O18'
_cell_volume   380.24390548
_cell_formula_units_Z   1
loop_
 _symmetry_equiv_pos_site_id
 _symmetry_equiv_pos_as_xyz
  1  'x, y, z'
loop_
 _atom_site_type_symbol
 _atom_site_label
 _atom_site_symmetry_multiplicity
 _atom_site_fract_x
 _atom_site_fract_y
 _atom_site_fract_z
 _atom_site_occupancy
  Li  Li0  1  0.50000000  0.00000000  0.16347700  1
  Li  Li1  1  0.50000000  0.00000000  0.83652300  1
  La  La0  1  0.50000000  0.00000000  0.50000000  1
  Nb  Nb0  1  0.00000000  0.25808300  0.32870100  1
  Nb  Nb1  1  0.00000000  0.74191700  0.67129900  1
  Nb  Nb2  1  0.00000000  0.74191700  0.32870100  1
  Nb  Nb3  1  0.00000000  0.25808300  0.67129900  1
  Nb  Nb4  1  0.00000000  0.25507000  0.00000000  1
  Nb  Nb5  1  0.00000000  0.74493000  0.00000000  1
  O  O0  1  0.00000000  0.50000000  0.33604400  1
  O  O1  1  0.00000000  0.50000000  0.66395600  1
  O  O2  1  0.00000000  0.00000000  0.34135800  1
  O  O3  1  0.00000000  0.00000000  0.65864200  1
  O  O4  1  0.50000000  0.22732800  0.34043300  1
  O  O5  1  0.50000000  0.77267200  0.65956700  1
  O  O6  1  0.50000000  0.77267200  0.34043300  1
  O  O7  1  0.50000000  0.22732800  0.65956700  1
  O  O8  1  0.00000000  0.23118900  0.16782000  1
  O  O9  1  0.00000000  0.76881100  0.83218000  1
  O  O10  1  0.00000000  0.76881100  0.16782000  1
  O  O11  1  0.00000000  0.23118900  0.83218000  1
  O  O12  1  0.50000000  0.23142900  0.00000000  1
  O  O13  1  0.50000000  0.76857100  0.00000000  1
  O  O14  1  0.00000000  0.00000000  0.00000000  1
  O  O15  1  0.00000000  0.22220100  0.50000000  1
  O  O16  1  0.00000000  0.77779900  0.50000000  1
  O  O17  1  0.00000000  0.50000000  0.00000000  1
loop_
_geom_bond_atom_site_label_1
_geom_bond_atom_site_label_2
_geom_bond_distance
_geom_bond_site_symmetry_2
La0 O7 2.637772 1_555
La0 O5 2.637772 1_545
La0 O4 2.637772 1_555
La0 O6 2.637772 1_545
La0 O16 2.666071 1_545
La0 O16 2.666071 1_645
La0 O15 2.666071 1_555
La0 O15 2.666071 1_655
La0 O3 2.745239 1_555
La0 O3 2.745239 1_655
La0 O2 2.745239 1_555
La0 O2 2.745239 1_655
Nb0 O8 1.935669 1_555
Nb0 O0 1.940324 1_555
Nb0 O4 2.004655 1_455
Nb0 O4 2.004655 1_555
Nb0 O15 2.068283 1_555
Nb0 O2 2.073396 1_555
Nb1 O9 1.935669 1_555
Nb1 O1 1.940324 1_555
Nb1 O5 2.004655 1_455
Nb1 O5 2.004655 1_555
Nb1 O16 2.068283 1_555
Nb1 O3 2.073396 1_565
Nb2 O10 1.935669 1_555
Nb2 O0 1.940324 1_555
Nb2 O6 2.004655 1_455
Nb2 O6 2.004655 1_555
Nb2 O16 2.068283 1_555
Nb2 O2 2.073396 1_565
Nb3 O11 1.935669 1_555
Nb3 O1 1.940324 1_555
Nb3 O7 2.004655 1_455
Nb3 O7 2.004655 1_555
Nb3 O15 2.068283 1_555
Nb3 O3 2.073396 1_555
Nb4 O17 1.962478 1_555
Nb4 O12 1.993519 1_455
Nb4 O12 1.993519 1_555
Nb4 O11 2.015708 1_554
Nb4 O8 2.015708 1_555
Nb4 O14 2.043724 1_555
Nb5 O17 1.962478 1_555
Nb5 O13 1.993519 1_455
Nb5 O13 1.993519 1_555
Nb5 O9 2.015708 1_554
Nb5 O10 2.015708 1_555
Nb5 O14 2.043724 1_565
