# generated using pymatgen
data_YbAgBi
_symmetry_space_group_name_H-M   'P 1'
_cell_length_a   4.87814432
_cell_length_b   4.87814432
_cell_length_c   7.82133700
_cell_angle_alpha   90.00000000
_cell_angle_beta   90.00000000
_cell_angle_gamma   120.00000438
_symmetry_Int_Tables_number   1
_chemical_formula_structural   YbAgBi
_chemical_formula_sum   'Yb2 Ag2 Bi2'
_cell_volume   161.18361857
_cell_formula_units_Z   2
loop_
 _symmetry_equiv_pos_site_id
 _symmetry_equiv_pos_as_xyz
  1  'x, y, z'
loop_
 _atom_site_type_symbol
 _atom_site_label
 _atom_site_symmetry_multiplicity
 _atom_site_fract_x
 _atom_site_fract_y
 _atom_site_fract_z
 _atom_site_occupancy
  Yb  Yb0  1  0.00000000  0.00000000  0.74918700  1
  Yb  Yb1  1  0.00000000  0.00000000  0.24918700  1
  Ag  Ag0  1  0.33333300  0.66666700  0.56885400  1
  Ag  Ag1  1  0.66666700  0.33333300  0.06885400  1
  Bi  Bi0  1  0.33333300  0.66666700  0.96595900  1
  Bi  Bi1  1  0.66666700  0.33333300  0.46595900  1
loop_
_geom_bond_atom_site_label_1
_geom_bond_atom_site_label_2
_geom_bond_distance
_geom_bond_site_symmetry_2
Ag0 Bi1 2.929120 1_455
Ag0 Bi1 2.929120 1_565
Ag0 Bi1 2.929129 1_555
Ag0 Bi0 3.105892 1_555
Ag0 Yb0 3.149831 1_565
Ag0 Yb0 3.149835 1_665
Ag0 Yb0 3.149835 1_555
Ag0 Yb1 3.766059 1_565
Ag0 Yb1 3.766062 1_665
Ag0 Yb1 3.766062 1_555
Ag1 Bi0 2.929120 1_544
Ag1 Bi0 2.929120 1_654
Ag1 Bi0 2.929129 1_554
Ag1 Bi1 3.105892 1_555
Ag1 Yb1 3.149831 1_655
Ag1 Yb1 3.149835 1_555
Ag1 Yb1 3.149835 1_665
Ag1 Yb0 3.766059 1_654
Ag1 Yb0 3.766062 1_554
Ag1 Yb0 3.766062 1_664
Bi0 Yb0 3.287343 1_565
Bi0 Yb0 3.287346 1_665
Bi0 Yb0 3.287346 1_555
Bi0 Yb1 3.583195 1_566
Bi0 Yb1 3.583198 1_556
Bi0 Yb1 3.583198 1_666
Bi1 Yb1 3.287343 1_655
Bi1 Yb1 3.287346 1_555
Bi1 Yb1 3.287346 1_665
Bi1 Yb0 3.583195 1_655
Bi1 Yb0 3.583198 1_665
Bi1 Yb0 3.583198 1_555
