# generated using pymatgen
data_Sr2YCu2BiPbO8
_symmetry_space_group_name_H-M   'P 1'
_cell_length_a   15.79986095
_cell_length_b   15.79986095
_cell_length_c   15.79986095
_cell_angle_alpha   166.27559794
_cell_angle_beta   166.27559794
_cell_angle_gamma   19.45621184
_symmetry_Int_Tables_number   1
_chemical_formula_structural   Sr2YCu2BiPbO8
_chemical_formula_sum   'Sr2 Y1 Cu2 Bi1 Pb1 O8'
_cell_volume   221.99012467
_cell_formula_units_Z   1
loop_
 _symmetry_equiv_pos_site_id
 _symmetry_equiv_pos_as_xyz
  1  'x, y, z'
loop_
 _atom_site_type_symbol
 _atom_site_label
 _atom_site_symmetry_multiplicity
 _atom_site_fract_x
 _atom_site_fract_y
 _atom_site_fract_z
 _atom_site_occupancy
  Sr  Sr0  1  0.61652100  0.61652100  0.00000000  1
  Sr  Sr1  1  0.38869700  0.38869700  0.00000000  1
  Y  Y0  1  0.50126300  0.50126300  0.00000000  1
  Cu  Cu0  1  0.05480100  0.05480100  0.00000000  1
  Cu  Cu1  1  0.94887300  0.94887300  0.00000000  1
  Bi  Bi0  1  0.79872200  0.79872200  0.00000000  1
  Pb  Pb0  1  0.19978700  0.19978700  0.00000000  1
  O  O0  1  0.12784100  0.12784100  0.00000000  1
  O  O1  1  0.86654800  0.86654800  0.00000000  1
  O  O2  1  0.04617700  0.54617700  0.50000000  1
  O  O3  1  0.45122600  0.95122600  0.50000000  1
  O  O4  1  0.95122600  0.45122600  0.50000000  1
  O  O5  1  0.54617700  0.04617700  0.50000000  1
  O  O6  1  0.69756100  0.69756100  0.00000000  1
  O  O7  1  0.30458000  0.30458000  0.00000000  1
loop_
_geom_bond_atom_site_label_1
_geom_bond_atom_site_label_2
_geom_bond_distance
_geom_bond_site_symmetry_2
Cu0 O5 1.906809 1_555
Cu0 O2 1.906809 1_555
Cu0 O2 1.906809 1_544
Cu0 O5 1.906809 1_454
Cu0 O0 2.274856 1_555
Cu1 O4 1.889219 1_554
Cu1 O3 1.889219 1_554
Cu1 O3 1.889219 1_655
Cu1 O4 1.889219 1_565
Cu1 O1 2.564040 1_555
Bi0 O1 2.112464 1_555
Bi0 O7 2.675975 1_666
Bi0 O7 2.675975 1_554
Bi0 O7 2.675975 1_565
Bi0 O7 2.675975 1_655
O0 Pb0 2.240783 1_555
O0 Sr0 2.692927 1_455
O0 Sr0 2.692927 1_556
O0 Sr0 2.692927 1_444
O0 Sr0 2.692927 1_545
O1 Sr1 2.757432 1_655
O1 Sr1 2.757432 1_565
O1 Sr1 2.757432 1_554
O1 Sr1 2.757432 1_666
O2 Y0 2.349594 1_455
O2 Y0 2.349594 1_556
O2 Sr0 2.892018 1_455
O2 Sr0 2.892018 1_556
O3 Y0 2.447948 1_555
O3 Y0 2.447948 1_566
O3 Sr1 2.712284 1_566
O3 Sr1 2.712284 1_555
O4 Y0 2.447948 1_555
O4 Y0 2.447948 1_656
O4 Sr1 2.712284 1_656
O4 Sr1 2.712284 1_555
O5 Y0 2.349594 1_545
O5 Y0 2.349594 1_556
O5 Sr0 2.892018 1_545
O5 Sr0 2.892018 1_556
O6 Sr0 2.524018 1_555
O6 Pb0 2.670648 1_655
O6 Pb0 2.670648 1_554
O6 Pb0 2.670648 1_565
O6 Pb0 2.670648 1_666
O7 Sr1 2.619853 1_555
