# generated using pymatgen
data_TiCo2Si
_symmetry_space_group_name_H-M   'P 1'
_cell_length_a   4.85166306
_cell_length_b   4.85275403
_cell_length_c   5.53849942
_cell_angle_alpha   78.40532262
_cell_angle_beta   78.42520389
_cell_angle_gamma   55.34952983
_symmetry_Int_Tables_number   1
_chemical_formula_structural   TiCo2Si
_chemical_formula_sum   'Ti2 Co4 Si2'
_cell_volume   104.47580857
_cell_formula_units_Z   2
loop_
 _symmetry_equiv_pos_site_id
 _symmetry_equiv_pos_as_xyz
  1  'x, y, z'
loop_
 _atom_site_type_symbol
 _atom_site_label
 _atom_site_symmetry_multiplicity
 _atom_site_fract_x
 _atom_site_fract_y
 _atom_site_fract_z
 _atom_site_occupancy
  Ti  Ti0  1  0.39228300  0.39229000  0.79076100  1
  Ti  Ti1  1  0.66082400  0.66052200  0.40186400  1
  Co  Co0  1  0.70628400  0.70637100  0.88977700  1
  Co  Co1  1  0.18647000  0.67459200  0.17930000  1
  Co  Co2  1  0.67459000  0.18667500  0.17912300  1
  Co  Co3  1  0.18514800  0.18517900  0.18658500  1
  Si  Si0  1  0.94178100  0.94163000  0.53138800  1
  Si  Si1  1  0.08561900  0.08574100  0.84120100  1
loop_
_geom_bond_atom_site_label_1
_geom_bond_atom_site_label_2
_geom_bond_distance
_geom_bond_site_symmetry_2
Ti0 Ti1 2.776049 1_555
Co0 Si0 2.492197 1_555
Co0 Si1 2.520191 1_565
Co0 Si1 2.520757 1_655
Co0 Ti0 2.745192 1_655
Co0 Ti0 2.745240 1_565
Co0 Co3 2.770615 1_656
Co0 Co3 2.771438 1_566
Co0 Ti1 2.773672 1_556
Co0 Ti1 2.817316 1_555
Co0 Ti0 2.873369 1_555
Co1 Co2 2.199615 1_555
Co1 Si0 2.286633 1_455
Co1 Co2 2.307622 1_465
Co1 Si1 2.341466 1_564
Co1 Co3 2.370864 1_555
Co1 Co3 2.482527 1_565
Co1 Ti0 2.504354 1_554
Co1 Ti1 2.632605 1_455
Co1 Ti1 2.783255 1_555
Co2 Si0 2.287009 1_545
Co2 Si1 2.340835 1_654
Co2 Co3 2.370785 1_555
Co2 Co3 2.481547 1_655
Co2 Ti0 2.502714 1_554
Co2 Ti1 2.634452 1_545
Co2 Ti1 2.783249 1_555
Co3 Si1 2.265380 1_554
Co3 Ti0 2.490958 1_554
Co3 Si0 2.492518 1_445
Co3 Ti1 2.535646 1_455
Co3 Ti1 2.536204 1_545
Si0 Si1 2.332002 1_665
Si0 Ti0 2.653743 1_655
Si0 Ti0 2.655162 1_565
Si0 Ti1 2.670926 1_555
Si0 Ti1 2.919245 1_565
Si0 Ti1 2.919435 1_655
Si1 Ti0 2.586048 1_555
Si1 Ti0 2.850638 1_455
Si1 Ti0 2.851949 1_545
Si1 Ti1 3.270426 1_455
Si1 Ti1 3.272890 1_545
