# generated using pymatgen
data_Fe2O3
_symmetry_space_group_name_H-M   'P 1'
_cell_length_a   5.09189364
_cell_length_b   5.45203000
_cell_length_c   5.09191045
_cell_angle_alpha   62.16260544
_cell_angle_beta   119.98513391
_cell_angle_gamma   117.83716377
_symmetry_Int_Tables_number   1
_chemical_formula_structural   Fe2O3
_chemical_formula_sum   'Fe4 O6'
_cell_volume   103.11075302
_cell_formula_units_Z   2
loop_
 _symmetry_equiv_pos_site_id
 _symmetry_equiv_pos_as_xyz
  1  'x, y, z'
loop_
 _atom_site_type_symbol
 _atom_site_label
 _atom_site_symmetry_multiplicity
 _atom_site_fract_x
 _atom_site_fract_y
 _atom_site_fract_z
 _atom_site_occupancy
  Fe  Fe0  1  0.35471223  0.06434118  0.64519388  1
  Fe  Fe1  1  0.14519072  0.43565251  0.85471358  1
  Fe  Fe2  1  0.64528296  0.93565173  0.35480774  1
  Fe  Fe3  1  0.85480256  0.56433974  0.14528604  1
  O  O0  1  0.55535593  0.75000405  0.05535199  1
  O  O1  1  0.24997731  0.74996658  0.44458318  1
  O  O2  1  0.05541939  0.24997195  0.25001683  1
  O  O3  1  0.75002034  0.25003518  0.55541461  1
  O  O4  1  0.44465124  0.25000320  0.94464964  1
  O  O5  1  0.94458732  0.75003389  0.74998150  1
loop_
_geom_bond_atom_site_label_1
_geom_bond_atom_site_label_2
_geom_bond_distance
_geom_bond_site_symmetry_2
Fe0 O2 1.966996 1_555
Fe0 O3 1.967213 1_555
Fe0 O4 1.967214 1_555
Fe0 O5 2.121312 1_445
Fe0 O0 2.121865 1_546
Fe0 O1 2.121918 1_545
Fe1 O3 1.966976 1_455
Fe1 O2 1.967178 1_556
Fe1 O4 1.967180 1_555
Fe1 O1 2.121339 1_555
Fe1 O0 2.121921 1_556
Fe1 O5 2.121922 1_455
Fe2 O5 1.966991 1_555
Fe2 O0 1.967178 1_555
Fe2 O1 1.967196 1_555
Fe2 O2 2.121377 1_665
Fe2 O4 2.121887 1_564
Fe2 O3 2.121943 1_565
Fe3 O1 1.967001 1_655
Fe3 O0 1.967183 1_555
Fe3 O5 1.967213 1_554
Fe3 O3 2.121312 1_555
Fe3 O4 2.121844 1_554
Fe3 O2 2.121907 1_655
