# generated using pymatgen
data_Y3AlFeS7
_symmetry_space_group_name_H-M   'P 1'
_cell_length_a   9.51699214
_cell_length_b   9.51699214
_cell_length_c   6.19601600
_cell_angle_alpha   90.00000000
_cell_angle_beta   90.00000000
_cell_angle_gamma   120.00000097
_symmetry_Int_Tables_number   1
_chemical_formula_structural   Y3AlFeS7
_chemical_formula_sum   'Y6 Al2 Fe2 S14'
_cell_volume   486.00706123
_cell_formula_units_Z   2
loop_
 _symmetry_equiv_pos_site_id
 _symmetry_equiv_pos_as_xyz
  1  'x, y, z'
loop_
 _atom_site_type_symbol
 _atom_site_label
 _atom_site_symmetry_multiplicity
 _atom_site_fract_x
 _atom_site_fract_y
 _atom_site_fract_z
 _atom_site_occupancy
  Y  Y0  1  0.22160800  0.37450600  0.27721100  1
  Y  Y1  1  0.62549400  0.84710200  0.27721100  1
  Y  Y2  1  0.15289800  0.77839200  0.27721100  1
  Y  Y3  1  0.77839200  0.62549400  0.77721100  1
  Y  Y4  1  0.37450600  0.15289800  0.77721100  1
  Y  Y5  1  0.84710200  0.22160800  0.77721100  1
  Al  Al0  1  0.33333300  0.66666700  0.84977300  1
  Al  Al1  1  0.66666700  0.33333300  0.34977300  1
  Fe  Fe0  1  0.00000000  0.00000000  0.42906400  1
  Fe  Fe1  1  0.00000000  0.00000000  0.92906400  1
  S  S0  1  0.12345500  0.21515800  0.67454100  1
  S  S1  1  0.78484200  0.90829600  0.67454100  1
  S  S2  1  0.09170400  0.87654500  0.67454100  1
  S  S3  1  0.87654500  0.78484200  0.17454100  1
  S  S4  1  0.21515800  0.09170400  0.17454100  1
  S  S5  1  0.90829600  0.12345500  0.17454100  1
  S  S6  1  0.08892600  0.51891200  0.00398300  1
  S  S7  1  0.48108800  0.57001500  0.00398300  1
  S  S8  1  0.42998500  0.91107400  0.00398300  1
  S  S9  1  0.91107400  0.48108800  0.50398300  1
  S  S10  1  0.51891200  0.42998500  0.50398300  1
  S  S11  1  0.57001500  0.08892600  0.50398300  1
  S  S12  1  0.33333300  0.66666700  0.48876000  1
  S  S13  1  0.66666700  0.33333300  0.98876000  1
loop_
_geom_bond_atom_site_label_1
_geom_bond_atom_site_label_2
_geom_bond_distance
_geom_bond_site_symmetry_2
Al0 S12 2.236842 1_555
Al0 S6 2.242736 1_556
Al0 S8 2.242736 1_556
Al0 S7 2.242736 1_556
Al1 S13 2.236842 1_554
Al1 S9 2.242736 1_555
Al1 S11 2.242736 1_555
Al1 S10 2.242736 1_555
Fe0 S1 2.341128 1_445
Fe0 S0 2.341128 1_555
Fe0 S2 2.341134 1_545
Fe0 S4 2.377923 1_555
Fe0 S3 2.377924 1_445
Fe0 S5 2.377930 1_455
Fe1 S4 2.341128 1_556
Fe1 S3 2.341128 1_446
Fe1 S5 2.341134 1_456
Fe1 S1 2.377923 1_445
Fe1 S0 2.377924 1_555
Fe1 S2 2.377930 1_545
S0 Y5 2.736248 1_455
S0 Y0 2.795811 1_555
S0 Y4 2.807131 1_555
S1 Y3 2.736239 1_555
S1 Y1 2.795811 1_555
S1 Y5 2.807140 1_565
S2 Y4 2.736243 1_565
S2 Y2 2.795807 1_555
S2 Y3 2.807137 1_455
S3 Y2 2.736248 1_655
S3 Y3 2.795811 1_554
S3 Y1 2.807131 1_555
S4 Y0 2.736239 1_555
S4 Y4 2.795811 1_554
S4 Y2 2.807140 1_545
S5 Y1 2.736243 1_545
S5 Y5 2.795807 1_554
S5 Y0 2.807137 1_655
S6 Y2 2.798477 1_555
S6 Y0 2.843345 1_555
S6 Y5 2.960544 1_454
S7 Y0 2.798479 1_555
S7 Y1 2.843338 1_555
S7 Y3 2.960547 1_554
S8 Y1 2.798484 1_555
S8 Y2 2.843338 1_555
S8 Y4 2.960539 1_564
S9 Y5 2.798477 1_555
S9 Y3 2.843345 1_555
S9 Y2 2.960544 1_655
S10 Y3 2.798479 1_555
S10 Y4 2.843338 1_555
S10 Y0 2.960547 1_555
S11 Y4 2.798484 1_555
S11 Y5 2.843338 1_555
S11 Y1 2.960539 1_545
S12 Y2 2.761035 1_555
S12 Y1 2.761042 1_555
S12 Y0 2.761043 1_555
S13 Y5 2.761035 1_555
S13 Y4 2.761042 1_555
S13 Y3 2.761043 1_555
