# generated using pymatgen
data_SrCa7Mn7CrO23
_symmetry_space_group_name_H-M   'P 1'
_cell_length_a   7.64831548
_cell_length_b   7.64831548
_cell_length_c   7.70722789
_cell_angle_alpha   89.96115596
_cell_angle_beta   89.96115596
_cell_angle_gamma   89.98790252
_symmetry_Int_Tables_number   1
_chemical_formula_structural   SrCa7Mn7CrO23
_chemical_formula_sum   'Sr1 Ca7 Mn7 Cr1 O23'
_cell_volume   450.84740922
_cell_formula_units_Z   1
loop_
 _symmetry_equiv_pos_site_id
 _symmetry_equiv_pos_as_xyz
  1  'x, y, z'
loop_
 _atom_site_type_symbol
 _atom_site_label
 _atom_site_symmetry_multiplicity
 _atom_site_fract_x
 _atom_site_fract_y
 _atom_site_fract_z
 _atom_site_occupancy
  Sr  Sr0  1  0.25626900  0.25626900  0.25065200  1
  Ca  Ca0  1  0.26612500  0.26612500  0.74188000  1
  Ca  Ca1  1  0.26045400  0.74220100  0.25271900  1
  Ca  Ca2  1  0.26581300  0.73646800  0.74097900  1
  Ca  Ca3  1  0.74220100  0.26045400  0.25271900  1
  Ca  Ca4  1  0.73646800  0.26581300  0.74097900  1
  Ca  Ca5  1  0.74201400  0.74201400  0.25275800  1
  Ca  Ca6  1  0.73429300  0.73429300  0.74092400  1
  Mn  Mn0  1  0.99932600  0.99932600  0.50548700  1
  Mn  Mn1  1  0.99925700  0.50203600  0.00167200  1
  Mn  Mn2  1  0.99927500  0.50143100  0.49630000  1
  Mn  Mn3  1  0.50203600  0.99925700  0.00167200  1
  Mn  Mn4  1  0.50143100  0.99927500  0.49630000  1
  Mn  Mn5  1  0.50105000  0.50105000  0.99938900  1
  Mn  Mn6  1  0.50073900  0.50073900  0.49809200  1
  Cr  Cr0  1  0.99867400  0.99867400  0.98708800  1
  O  O0  1  0.99573100  0.99573100  0.75837500  1
  O  O1  1  0.99588700  0.49787700  0.24997200  1
  O  O2  1  0.99811900  0.50352100  0.75033900  1
  O  O3  1  0.49787700  0.99588700  0.24997200  1
  O  O4  1  0.50352100  0.99811900  0.75033900  1
  O  O5  1  0.50306900  0.50306900  0.24962800  1
  O  O6  1  0.50117300  0.50117300  0.74889700  1
  O  O7  1  0.23870400  0.99679200  0.02661300  1
  O  O8  1  0.24772000  0.99572400  0.48227100  1
  O  O9  1  0.24949100  0.50328800  0.99132200  1
  O  O10  1  0.25016500  0.50279800  0.50896300  1
  O  O11  1  0.76052800  0.99887000  0.03531500  1
  O  O12  1  0.75281100  0.99913300  0.47169000  1
  O  O13  1  0.75059600  0.50136900  0.99336000  1
  O  O14  1  0.74966800  0.50154000  0.50690000  1
  O  O15  1  0.99679200  0.23870400  0.02661300  1
  O  O16  1  0.99572400  0.24772000  0.48227100  1
  O  O17  1  0.99887000  0.76052800  0.03531500  1
  O  O18  1  0.99913300  0.75281100  0.47169000  1
  O  O19  1  0.50328800  0.24949100  0.99132200  1
  O  O20  1  0.50279800  0.25016500  0.50896300  1
  O  O21  1  0.50136900  0.75059600  0.99336000  1
  O  O22  1  0.50154000  0.74966800  0.50690000  1
loop_
_geom_bond_atom_site_label_1
_geom_bond_atom_site_label_2
_geom_bond_distance
_geom_bond_site_symmetry_2
Ca0 O6 2.543257 1_555
Ca0 O20 2.551447 1_555
Ca0 O10 2.551447 1_555
Ca0 O19 2.647025 1_555
Ca0 O9 2.647025 1_555
Ca0 O2 2.738797 1_455
Ca0 O4 2.738797 1_545
Ca0 O16 2.882097 1_455
Ca0 O8 2.882097 1_545
Ca0 O0 2.927625 1_445
Ca0 O7 3.016061 1_546
Ca0 O15 3.016061 1_456
Ca1 O5 2.605274 1_555
Ca1 O17 2.614200 1_455
Ca1 O18 2.616293 1_455
Ca1 O7 2.617578 1_555
Ca1 O8 2.627497 1_555
Ca1 O3 2.657804 1_555
Ca1 O22 2.691864 1_555
Ca1 O10 2.693355 1_555
Ca1 O21 2.718440 1_554
Ca1 O9 2.722145 1_554
Ca1 O1 2.754740 1_455
Ca2 O10 2.531939 1_555
Ca2 O6 2.545848 1_555
Ca2 O22 2.551645 1_555
Ca2 O9 2.629468 1_555
Ca2 O21 2.654472 1_555
Ca2 O4 2.705039 1_555
Ca2 O2 2.715241 1_455
Ca2 O8 2.814525 1_555
Ca2 O0 2.866222 1_455
Ca2 O18 2.913532 1_455
Ca2 O7 2.976365 1_556
Ca2 O17 3.056557 1_456
Ca3 O5 2.605274 1_555
Ca3 O11 2.614200 1_545
Ca3 O12 2.616293 1_545
Ca3 O15 2.617578 1_555
Ca3 O16 2.627497 1_555
Ca3 O1 2.657804 1_555
Ca3 O14 2.691864 1_555
Ca3 O20 2.693355 1_555
Ca3 O13 2.718440 1_554
Ca3 O19 2.722145 1_554
Ca3 O3 2.754740 1_545
Ca4 O20 2.531939 1_555
Ca4 O6 2.545848 1_555
Ca4 O14 2.551645 1_555
Ca4 O19 2.629468 1_555
Ca4 O13 2.654472 1_555
Ca4 O2 2.705039 1_555
Ca4 O4 2.715241 1_545
Ca4 O16 2.814525 1_555
Ca4 O0 2.866222 1_545
Ca4 O12 2.913532 1_545
Ca4 O15 2.976365 1_556
Ca4 O11 3.056557 1_546
Ca5 O5 2.584922 1_555
Ca5 O11 2.585205 1_555
Ca5 O17 2.585205 1_555
Ca5 O12 2.593450 1_555
Ca5 O18 2.593450 1_555
Ca5 O22 2.686636 1_555
Ca5 O14 2.686636 1_555
Ca5 O3 2.693641 1_555
Ca5 O1 2.693641 1_555
Ca5 O21 2.719113 1_554
Ca5 O13 2.719113 1_554
Ca6 O6 2.522464 1_555
Ca6 O22 2.537726 1_555
Ca6 O14 2.537726 1_555
Ca6 O21 2.640081 1_555
Ca6 O13 2.640081 1_555
Ca6 O2 2.681546 1_555
Ca6 O4 2.681546 1_555
Ca6 O0 2.831429 1_555
Ca6 O12 2.902220 1_555
Ca6 O18 2.902220 1_555
Ca6 O17 3.047981 1_556
Ca6 O11 3.047981 1_556
Mn0 O18 1.903509 1_555
Mn0 O12 1.903509 1_555
Mn0 O8 1.908277 1_655
Mn0 O16 1.908277 1_565
Mn0 O0 1.949416 1_555
Mn1 O13 1.902968 1_554
Mn1 O1 1.914104 1_555
Mn1 O9 1.915502 1_654
Mn1 O2 1.937132 1_554
Mn1 O17 1.994135 1_555
Mn1 O15 2.023160 1_555
Mn2 O1 1.898913 1_555
Mn2 O14 1.910765 1_555
Mn2 O10 1.921463 1_655
Mn2 O18 1.931839 1_555
Mn2 O16 1.943742 1_555
Mn2 O2 1.958027 1_555
Mn3 O21 1.902968 1_554
Mn3 O3 1.914104 1_555
Mn3 O19 1.915502 1_564
Mn3 O4 1.937132 1_554
Mn3 O11 1.994135 1_555
Mn3 O7 2.023160 1_555
Mn4 O3 1.898913 1_555
Mn4 O22 1.910765 1_555
Mn4 O20 1.921463 1_565
Mn4 O12 1.931839 1_555
Mn4 O8 1.943742 1_555
Mn4 O4 1.958027 1_555
Mn5 O21 1.909143 1_555
Mn5 O13 1.909143 1_555
Mn5 O9 1.925121 1_555
Mn5 O19 1.925121 1_555
Mn5 O5 1.928794 1_556
Mn5 O6 1.930598 1_555
Mn6 O14 1.905155 1_555
Mn6 O22 1.905155 1_555
Mn6 O5 1.915110 1_555
Mn6 O10 1.918305 1_555
Mn6 O20 1.918305 1_555
Mn6 O6 1.933021 1_555
Cr0 O0 1.763061 1_555
Cr0 O17 1.858709 1_556
Cr0 O11 1.858709 1_556
Cr0 O15 1.861183 1_566
Cr0 O7 1.861183 1_656
O1 Sr0 2.716467 1_655
O3 Sr0 2.716467 1_565
O5 Sr0 2.669761 1_555
O7 Sr0 2.634989 1_565
O8 Sr0 2.675266 1_565
O9 Sr0 2.749892 1_556
O10 Sr0 2.743331 1_555
O15 Sr0 2.634989 1_655
O16 Sr0 2.675266 1_655
O19 Sr0 2.749892 1_556
O20 Sr0 2.743331 1_555
