# generated using pymatgen
data_AlSBr3
_symmetry_space_group_name_H-M   'P 1'
_cell_length_a   7.93478219
_cell_length_b   7.93478219
_cell_length_c   6.96801400
_cell_angle_alpha   90.00000000
_cell_angle_beta   90.00000000
_cell_angle_gamma   120.00000155
_symmetry_Int_Tables_number   1
_chemical_formula_structural   AlSBr3
_chemical_formula_sum   'Al2 S2 Br6'
_cell_volume   379.93531118
_cell_formula_units_Z   2
loop_
 _symmetry_equiv_pos_site_id
 _symmetry_equiv_pos_as_xyz
  1  'x, y, z'
loop_
 _atom_site_type_symbol
 _atom_site_label
 _atom_site_symmetry_multiplicity
 _atom_site_fract_x
 _atom_site_fract_y
 _atom_site_fract_z
 _atom_site_occupancy
  Al  Al0  1  0.33333300  0.66666700  0.83061300  1
  Al  Al1  1  0.66666700  0.33333300  0.16938700  1
  S  S0  1  0.33333300  0.66666700  0.15961600  1
  S  S1  1  0.66666700  0.33333300  0.84038400  1
  Br  Br0  1  0.17134700  0.34269400  0.74786100  1
  Br  Br1  1  0.17134700  0.82865300  0.74786100  1
  Br  Br2  1  0.65730600  0.82865300  0.74786100  1
  Br  Br3  1  0.82865300  0.65730600  0.25213900  1
  Br  Br4  1  0.82865300  0.17134700  0.25213900  1
  Br  Br5  1  0.34269400  0.17134700  0.25213900  1
loop_
_geom_bond_atom_site_label_1
_geom_bond_atom_site_label_2
_geom_bond_distance
_geom_bond_site_symmetry_2
Al0 S0 2.292498 1_556
Al0 Br1 2.299708 1_555
Al0 Br2 2.299715 1_555
Al0 Br0 2.299715 1_555
Al1 S1 2.292498 1_554
Al1 Br4 2.299708 1_555
Al1 Br3 2.299715 1_555
Al1 Br5 2.299715 1_555
