# generated using pymatgen
data_Mg7Ir3
_symmetry_space_group_name_H-M   'P 1'
_cell_length_a   8.02732630
_cell_length_b   8.02732630
_cell_length_c   8.02732630
_cell_angle_alpha   109.47122063
_cell_angle_beta   109.47122063
_cell_angle_gamma   109.47122063
_symmetry_Int_Tables_number   1
_chemical_formula_structural   Mg7Ir3
_chemical_formula_sum   'Mg14 Ir6'
_cell_volume   398.19046811
_cell_formula_units_Z   2
loop_
 _symmetry_equiv_pos_site_id
 _symmetry_equiv_pos_as_xyz
  1  'x, y, z'
loop_
 _atom_site_type_symbol
 _atom_site_label
 _atom_site_symmetry_multiplicity
 _atom_site_fract_x
 _atom_site_fract_y
 _atom_site_fract_z
 _atom_site_occupancy
  Mg  Mg0  1  0.50000000  0.75000000  0.25000000  1
  Mg  Mg1  1  0.50000000  0.25000000  0.75000000  1
  Mg  Mg2  1  0.25000000  0.50000000  0.75000000  1
  Mg  Mg3  1  0.75000000  0.50000000  0.25000000  1
  Mg  Mg4  1  0.75000000  0.25000000  0.50000000  1
  Mg  Mg5  1  0.25000000  0.75000000  0.50000000  1
  Mg  Mg6  1  0.31071300  0.31071300  0.31071300  1
  Mg  Mg7  1  0.68928700  0.68928700  0.68928700  1
  Mg  Mg8  1  0.00000000  0.00000000  0.68928700  1
  Mg  Mg9  1  0.00000000  0.68928700  0.00000000  1
  Mg  Mg10  1  0.00000000  0.00000000  0.31071300  1
  Mg  Mg11  1  0.00000000  0.31071300  0.00000000  1
  Mg  Mg12  1  0.68928700  0.00000000  0.00000000  1
  Mg  Mg13  1  0.31071300  0.00000000  0.00000000  1
  Ir  Ir0  1  0.00000000  0.35217400  0.35217400  1
  Ir  Ir1  1  0.00000000  0.64782600  0.64782600  1
  Ir  Ir2  1  0.35217400  0.00000000  0.35217400  1
  Ir  Ir3  1  0.64782600  0.00000000  0.64782600  1
  Ir  Ir4  1  0.35217400  0.35217400  0.00000000  1
  Ir  Ir5  1  0.64782600  0.64782600  0.00000000  1
loop_
_geom_bond_atom_site_label_1
_geom_bond_atom_site_label_2
_geom_bond_distance
_geom_bond_site_symmetry_2
Ir0 Mg3 2.692088 1_455
Ir0 Mg2 2.692088 1_555
Ir0 Mg5 2.692088 1_555
Ir0 Mg4 2.692088 1_455
Ir0 Mg11 2.734141 1_555
Ir0 Mg6 2.734141 1_555
Ir0 Mg10 2.734141 1_555
Ir0 Mg12 2.734141 1_455
Ir1 Mg3 2.692088 1_455
Ir1 Mg2 2.692088 1_555
Ir1 Mg5 2.692088 1_555
Ir1 Mg4 2.692088 1_455
Ir1 Mg13 2.734141 1_566
Ir1 Mg9 2.734141 1_556
Ir1 Mg7 2.734141 1_455
Ir1 Mg8 2.734141 1_565
Ir2 Mg1 2.692088 1_555
Ir2 Mg5 2.692088 1_545
Ir2 Mg4 2.692088 1_555
Ir2 Mg0 2.692088 1_545
Ir2 Mg6 2.734141 1_555
Ir2 Mg13 2.734141 1_555
Ir2 Mg10 2.734141 1_555
Ir2 Mg9 2.734141 1_545
Ir3 Mg1 2.692088 1_555
Ir3 Mg5 2.692088 1_545
Ir3 Mg4 2.692088 1_555
Ir3 Mg0 2.692088 1_545
Ir3 Mg11 2.734141 1_656
Ir3 Mg8 2.734141 1_655
Ir3 Mg7 2.734141 1_545
Ir3 Mg12 2.734141 1_556
Ir4 Mg1 2.692088 1_554
Ir4 Mg0 2.692088 1_555
Ir4 Mg2 2.692088 1_554
Ir4 Mg3 2.692088 1_555
Ir4 Mg11 2.734141 1_555
Ir4 Mg6 2.734141 1_555
Ir4 Mg13 2.734141 1_555
Ir4 Mg8 2.734141 1_554
Ir5 Mg1 2.692088 1_554
Ir5 Mg0 2.692088 1_555
Ir5 Mg2 2.692088 1_554
Ir5 Mg3 2.692088 1_555
Ir5 Mg10 2.734141 1_665
Ir5 Mg7 2.734141 1_554
Ir5 Mg9 2.734141 1_655
Ir5 Mg12 2.734141 1_565
