# generated using pymatgen
data_Mg14CuB
_symmetry_space_group_name_H-M   'P 1'
_cell_length_a   6.14789983
_cell_length_b   6.14789937
_cell_length_c   10.02519597
_cell_angle_alpha   90.00000000
_cell_angle_beta   90.00000000
_cell_angle_gamma   120.00000252
_symmetry_Int_Tables_number   1
_chemical_formula_structural   Mg14CuB
_chemical_formula_sum   'Mg14 Cu1 B1'
_cell_volume   328.15348786
_cell_formula_units_Z   1
loop_
 _symmetry_equiv_pos_site_id
 _symmetry_equiv_pos_as_xyz
  1  'x, y, z'
loop_
 _atom_site_type_symbol
 _atom_site_label
 _atom_site_symmetry_multiplicity
 _atom_site_fract_x
 _atom_site_fract_y
 _atom_site_fract_z
 _atom_site_occupancy
  Mg  Mg0  1  0.16576092  0.83287996  0.12500000  1
  Mg  Mg1  1  0.16483799  0.83241849  0.62500000  1
  Mg  Mg2  1  0.66712004  0.33423908  0.12500000  1
  Mg  Mg3  1  0.66758151  0.33516201  0.62500000  1
  Mg  Mg4  1  0.66712004  0.83287996  0.12500000  1
  Mg  Mg5  1  0.66758151  0.83241849  0.62500000  1
  Mg  Mg6  1  0.32677553  0.17322447  0.37682149  1
  Mg  Mg7  1  0.32677553  0.17322447  0.87317851  1
  Mg  Mg8  1  0.32677553  0.65355206  0.37682149  1
  Mg  Mg9  1  0.32677553  0.65355206  0.87317851  1
  Mg  Mg10  1  0.84644794  0.17322447  0.37682149  1
  Mg  Mg11  1  0.84644794  0.17322447  0.87317851  1
  Mg  Mg12  1  0.83333300  0.66666700  0.37397818  1
  Mg  Mg13  1  0.83333300  0.66666700  0.87602182  1
  Cu  Cu0  1  0.16666700  0.33333300  0.12500000  1
  B  B0  1  0.16666700  0.33333300  0.62500000  1
loop_
_geom_bond_atom_site_label_1
_geom_bond_atom_site_label_2
_geom_bond_distance
_geom_bond_site_symmetry_2
Mg0 Mg12 3.059890 1_455
Mg0 Mg13 3.059890 1_454
Mg0 Mg2 3.065594 1_455
Mg0 Mg4 3.065594 1_455
Mg0 Mg2 3.082305 1_565
Mg0 Mg4 3.082306 1_555
Mg0 Mg9 3.108078 1_554
Mg0 Mg8 3.108078 1_555
Mg0 Mg7 3.108084 1_564
Mg0 Mg6 3.108084 1_565
Mg1 Mg13 3.073801 1_455
Mg1 Mg12 3.073801 1_455
Mg1 Mg8 3.079859 1_555
Mg1 Mg9 3.079859 1_555
Mg1 Mg6 3.079865 1_565
Mg1 Mg7 3.079865 1_565
Mg2 Mg4 3.065594 1_555
Mg2 Mg4 3.082305 1_545
Mg2 Mg7 3.108084 1_554
Mg2 Mg6 3.108084 1_555
Mg3 Mg6 3.079865 1_555
Mg3 Mg7 3.079865 1_555
Mg4 Mg9 3.108084 1_554
Mg4 Mg8 3.108084 1_555
Mg5 Mg8 3.079865 1_555
Mg5 Mg9 3.079865 1_555
Mg6 Mg8 2.953006 1_555
Mg6 Mg8 3.194894 1_545
Mg7 Mg9 2.953006 1_555
Mg7 Mg9 3.194894 1_545
Mg10 Mg8 2.953006 1_655
Mg10 Mg6 2.953006 1_655
Mg10 Mg12 3.074875 1_545
Mg10 Mg12 3.074875 1_555
Mg10 Mg3 3.079859 1_555
Mg10 Mg5 3.079865 1_545
Mg10 Mg2 3.108078 1_555
Mg10 Mg4 3.108084 1_545
Mg10 Mg8 3.194894 1_545
Mg10 Mg6 3.194894 1_555
Mg11 Mg9 2.953006 1_655
Mg11 Mg7 2.953006 1_655
Mg11 Mg13 3.074875 1_545
Mg11 Mg13 3.074875 1_555
Mg11 Mg3 3.079859 1_555
Mg11 Mg5 3.079865 1_545
Mg11 Mg2 3.108078 1_556
Mg11 Mg4 3.108084 1_546
Mg11 Mg9 3.194894 1_545
Mg11 Mg7 3.194894 1_555
Mg12 Mg4 3.059884 1_555
Mg12 Mg2 3.059890 1_555
Mg12 Mg5 3.073795 1_555
Mg12 Mg3 3.073801 1_555
Mg12 Mg6 3.074875 1_665
Mg12 Mg6 3.074875 1_555
Mg12 Mg8 3.074875 1_555
Mg12 Mg8 3.074875 1_655
Mg13 Mg4 3.059884 1_556
Mg13 Mg2 3.059890 1_556
Mg13 Mg5 3.073795 1_555
Mg13 Mg3 3.073801 1_555
Mg13 Mg7 3.074875 1_665
Mg13 Mg7 3.074875 1_555
Mg13 Mg9 3.074875 1_555
Mg13 Mg9 3.074875 1_655
Cu0 Mg7 3.046330 1_554
Cu0 Mg6 3.046330 1_555
Cu0 Mg8 3.046336 1_555
Cu0 Mg9 3.046336 1_554
Cu0 Mg10 3.046336 1_455
Cu0 Mg11 3.046336 1_454
Cu0 Mg4 3.073953 1_445
Cu0 Mg4 3.073953 1_555
Cu0 Mg0 3.073953 1_545
Cu0 Mg0 3.073953 1_555
Cu0 Mg2 3.073954 1_555
Cu0 Mg2 3.073954 1_455
B0 Mg6 3.016133 1_555
B0 Mg7 3.016133 1_555
B0 Mg9 3.016139 1_555
B0 Mg8 3.016139 1_555
B0 Mg10 3.016139 1_455
B0 Mg11 3.016139 1_455
