# generated using pymatgen
data_AlN
_symmetry_space_group_name_H-M   'P 1'
_cell_length_a   3.31211548
_cell_length_b   3.31211548
_cell_length_c   4.18756300
_cell_angle_alpha   90.00000000
_cell_angle_beta   90.00000000
_cell_angle_gamma   119.99998969
_symmetry_Int_Tables_number   1
_chemical_formula_structural   AlN
_chemical_formula_sum   'Al2 N2'
_cell_volume   39.78349858
_cell_formula_units_Z   2
loop_
 _symmetry_equiv_pos_site_id
 _symmetry_equiv_pos_as_xyz
  1  'x, y, z'
loop_
 _atom_site_type_symbol
 _atom_site_label
 _atom_site_symmetry_multiplicity
 _atom_site_fract_x
 _atom_site_fract_y
 _atom_site_fract_z
 _atom_site_occupancy
  Al  Al0  1  0.66666700  0.33333300  0.25000000  1
  Al  Al1  1  0.33333300  0.66666700  0.75000000  1
  N  N0  1  0.66666700  0.33333300  0.75000000  1
  N  N1  1  0.33333300  0.66666700  0.25000000  1
loop_
_geom_bond_atom_site_label_1
_geom_bond_atom_site_label_2
_geom_bond_distance
_geom_bond_site_symmetry_2
Al0 N1 1.912249 1_545
Al0 N1 1.912249 1_655
Al0 N1 1.912254 1_555
Al0 N0 2.093781 1_555
Al0 N0 2.093781 1_554
Al1 N0 1.912249 1_455
Al1 N0 1.912249 1_565
Al1 N0 1.912254 1_555
Al1 N1 2.093781 1_556
Al1 N1 2.093781 1_555
