# generated using pymatgen
data_Ba2LiSi3
_symmetry_space_group_name_H-M   'P 1'
_cell_length_a   12.41261617
_cell_length_b   10.74324619
_cell_length_c   8.76748602
_cell_angle_alpha   78.29641952
_cell_angle_beta   57.94255638
_cell_angle_gamma   43.76102410
_symmetry_Int_Tables_number   1
_chemical_formula_structural   Ba2LiSi3
_chemical_formula_sum   'Ba8 Li4 Si12'
_cell_volume   652.04973301
_cell_formula_units_Z   4
loop_
 _symmetry_equiv_pos_site_id
 _symmetry_equiv_pos_as_xyz
  1  'x, y, z'
loop_
 _atom_site_type_symbol
 _atom_site_label
 _atom_site_symmetry_multiplicity
 _atom_site_fract_x
 _atom_site_fract_y
 _atom_site_fract_z
 _atom_site_occupancy
  Ba  Ba0  1  0.87572652  0.87572652  0.12427348  1
  Ba  Ba1  1  0.12427348  0.12427348  0.87572652  1
  Ba  Ba2  1  0.37427348  0.37427348  0.12572652  1
  Ba  Ba3  1  0.12572652  0.12572652  0.37427348  1
  Ba  Ba4  1  0.62548356  0.62548356  0.37451644  1
  Ba  Ba5  1  0.37451644  0.37451644  0.62548356  1
  Ba  Ba6  1  0.62451644  0.62451644  0.87548356  1
  Ba  Ba7  1  0.87548356  0.87548356  0.62451644  1
  Li  Li0  1  0.16769835  0.83230165  0.16769835  1
  Li  Li1  1  0.83230165  0.16769835  0.83230165  1
  Li  Li2  1  0.08230165  0.41769835  0.08230165  1
  Li  Li3  1  0.41769835  0.08230165  0.41769835  1
  Si  Si0  1  0.65408656  0.33863272  0.18885329  1
  Si  Si1  1  0.81842743  0.18885329  0.33863272  1
  Si  Si2  1  0.18885329  0.81842743  0.65408656  1
  Si  Si3  1  0.33863272  0.65408656  0.81842743  1
  Si  Si4  1  0.59256773  0.90743227  0.59256773  1
  Si  Si5  1  0.90743227  0.59256773  0.90743227  1
  Si  Si6  1  0.65743227  0.34256773  0.65743227  1
  Si  Si7  1  0.34256773  0.65743227  0.34256773  1
  Si  Si8  1  0.91136728  0.59591344  0.43157257  1
  Si  Si9  1  0.06114671  0.43157257  0.59591344  1
  Si  Si10  1  0.43157257  0.06114671  0.91136728  1
  Si  Si11  1  0.59591344  0.91136728  0.06114671  1
loop_
_geom_bond_atom_site_label_1
_geom_bond_atom_site_label_2
_geom_bond_distance
_geom_bond_site_symmetry_2
Ba0 Si3 3.513873 1_654
Ba0 Si0 3.513873 1_565
Ba0 Li2 3.525800 1_655
Ba0 Li3 3.525800 1_565
Ba0 Li1 3.528085 1_564
Ba0 Li0 3.528085 1_655
Ba0 Si11 3.542567 1_555
Ba0 Si8 3.542567 1_555
Ba0 Si5 3.584138 1_554
Ba0 Si4 3.584138 1_555
Ba0 Si1 3.611709 1_565
Ba0 Si2 3.611709 1_654
Ba1 Si2 3.513873 1_545
Ba1 Si1 3.513873 1_456
Ba1 Li3 3.525800 1_555
Ba1 Li2 3.525800 1_556
Ba1 Li1 3.528085 1_455
Ba1 Li0 3.528085 1_546
Ba1 Si9 3.542567 1_555
Ba1 Si10 3.542567 1_555
Ba1 Si5 3.584138 1_455
Ba1 Si4 3.584138 1_545
Ba1 Si0 3.611709 1_456
Ba1 Si3 3.611709 1_545
Ba2 Si11 3.513873 1_545
Ba2 Si8 3.513873 1_455
Ba2 Li0 3.525800 1_555
Ba2 Li1 3.525800 1_554
Ba2 Li3 3.528085 1_555
Ba2 Li2 3.528085 1_555
Ba2 Si0 3.542567 1_555
Ba2 Si3 3.542567 1_554
Ba2 Si6 3.584138 1_554
Ba2 Si7 3.584138 1_555
Ba2 Si10 3.611709 1_554
Ba2 Si9 3.611709 1_555
Ba3 Si10 3.513873 1_554
Ba3 Si9 3.513873 1_555
Ba3 Li0 3.525800 1_545
Ba3 Li1 3.525800 1_455
Ba3 Li2 3.528085 1_555
Ba3 Li3 3.528085 1_555
Ba3 Si2 3.542567 1_545
Ba3 Si1 3.542567 1_455
Ba3 Si6 3.584138 1_455
Ba3 Si7 3.584138 1_545
Ba3 Si11 3.611709 1_545
Ba3 Si8 3.611709 1_455
Ba4 Si1 3.377871 1_555
Ba4 Si2 3.377871 1_555
Ba4 Si6 3.434038 1_555
Ba4 Si7 3.434038 1_555
Ba4 Si3 3.480508 1_555
Ba4 Si0 3.480508 1_555
Ba4 Li2 3.509217 1_655
Ba4 Li3 3.509217 1_565
Ba4 Si4 3.567827 1_555
Ba4 Si5 3.567827 1_554
Ba4 Si8 3.624227 1_555
Ba4 Si11 3.624227 1_555
Ba5 Si3 3.377871 1_555
Ba5 Si0 3.377871 1_555
Ba5 Si6 3.434038 1_555
Ba5 Si7 3.434038 1_555
Ba5 Si2 3.480508 1_555
Ba5 Si1 3.480508 1_555
Ba5 Li2 3.509217 1_556
Ba5 Li3 3.509217 1_555
Ba5 Si4 3.567827 1_545
Ba5 Si5 3.567827 1_455
Ba5 Si10 3.624227 1_555
Ba5 Si9 3.624227 1_555
Ba6 Si9 3.377871 1_655
Ba6 Si10 3.377871 1_565
Ba6 Si4 3.434038 1_555
Ba6 Si5 3.434038 1_555
Ba6 Si8 3.480508 1_555
Ba6 Si11 3.480508 1_556
Ba6 Li1 3.509217 1_555
Ba6 Li0 3.509217 1_556
Ba6 Si6 3.567827 1_555
Ba6 Si7 3.567827 1_556
Ba6 Si0 3.624227 1_556
Ba6 Si3 3.624227 1_555
Ba7 Si8 3.377871 1_555
Ba7 Si11 3.377871 1_556
Ba7 Si5 3.434038 1_555
Ba7 Si4 3.434038 1_555
Ba7 Si10 3.480508 1_565
Ba7 Si9 3.480508 1_655
Ba7 Li0 3.509217 1_655
Ba7 Li1 3.509217 1_565
Ba7 Si6 3.567827 1_565
Ba7 Si7 3.567827 1_655
Ba7 Si2 3.624227 1_655
Ba7 Si1 3.624227 1_565
Li0 Si7 2.658066 1_555
Li0 Si1 2.675520 1_465
Li0 Si3 2.675520 1_554
Li1 Si6 2.658066 1_555
Li1 Si0 2.675520 1_556
Li1 Si2 2.675520 1_645
Li2 Si5 2.658066 1_454
Li2 Si8 2.675520 1_455
Li2 Si10 2.675520 1_554
Li3 Si4 2.658066 1_545
Li3 Si9 2.675520 1_555
Li3 Si11 2.675520 1_545
