# generated using pymatgen
data_Sr4Sn9Au7
_symmetry_space_group_name_H-M   'P 1'
_cell_length_a   4.82180900
_cell_length_b   4.82180900
_cell_length_c   22.95276700
_cell_angle_alpha   90.00000000
_cell_angle_beta   90.00000000
_cell_angle_gamma   90.00000000
_symmetry_Int_Tables_number   1
_chemical_formula_structural   Sr4Sn9Au7
_chemical_formula_sum   'Sr4 Sn9 Au7'
_cell_volume   533.64820696
_cell_formula_units_Z   1
loop_
 _symmetry_equiv_pos_site_id
 _symmetry_equiv_pos_as_xyz
  1  'x, y, z'
loop_
 _atom_site_type_symbol
 _atom_site_label
 _atom_site_symmetry_multiplicity
 _atom_site_fract_x
 _atom_site_fract_y
 _atom_site_fract_z
 _atom_site_occupancy
  Sr  Sr0  1  0.50000000  0.00000000  0.87026100  1
  Sr  Sr1  1  0.50000000  0.00000000  0.38274700  1
  Sr  Sr2  1  0.00000000  0.50000000  0.12973900  1
  Sr  Sr3  1  0.00000000  0.50000000  0.61725300  1
  Sn  Sn0  1  0.50000000  0.00000000  0.07135000  1
  Sn  Sn1  1  0.50000000  0.00000000  0.56279600  1
  Sn  Sn2  1  0.00000000  0.50000000  0.92865000  1
  Sn  Sn3  1  0.00000000  0.50000000  0.43720400  1
  Sn  Sn4  1  0.50000000  0.50000000  0.74576000  1
  Sn  Sn5  1  0.50000000  0.50000000  0.25424000  1
  Sn  Sn6  1  0.00000000  0.00000000  0.74537700  1
  Sn  Sn7  1  0.00000000  0.00000000  0.25462300  1
  Sn  Sn8  1  0.50000000  0.50000000  0.00000000  1
  Au  Au0  1  0.50000000  0.00000000  0.18800200  1
  Au  Au1  1  0.50000000  0.00000000  0.68098000  1
  Au  Au2  1  0.00000000  0.50000000  0.81199800  1
  Au  Au3  1  0.00000000  0.50000000  0.31902000  1
  Au  Au4  1  0.50000000  0.50000000  0.50000000  1
  Au  Au5  1  0.00000000  0.00000000  0.00000000  1
  Au  Au6  1  0.00000000  0.00000000  0.50000000  1
loop_
_geom_bond_atom_site_label_1
_geom_bond_atom_site_label_2
_geom_bond_distance
_geom_bond_site_symmetry_2
Sn0 Sn8 2.914525 1_555
Sn0 Sn8 2.914525 1_545
Sn0 Sr2 3.663472 1_545
Sn0 Sr2 3.663472 1_645
Sn0 Sr2 3.663472 1_555
Sn0 Sr2 3.663472 1_655
Sn1 Sr3 3.631428 1_545
Sn1 Sr3 3.631428 1_645
Sn1 Sr3 3.631428 1_555
Sn1 Sr3 3.631428 1_655
Sn2 Sn8 2.914525 1_456
Sn2 Sn8 2.914525 1_556
Sn2 Sr0 3.663472 1_565
Sn2 Sr0 3.663472 1_455
Sn2 Sr0 3.663472 1_555
Sn2 Sr0 3.663472 1_465
Sn3 Sr1 3.631428 1_555
Sn3 Sr1 3.631428 1_465
Sn3 Sr1 3.631428 1_455
Sn3 Sr1 3.631428 1_565
Sn4 Sr0 3.738794 1_555
Sn4 Sr0 3.738794 1_565
Sn4 Sr3 3.809534 1_555
Sn4 Sr3 3.809534 1_655
Sn5 Sr2 3.738794 1_555
Sn5 Sr2 3.738794 1_655
Sn5 Sr1 3.809534 1_565
Sn5 Sr1 3.809534 1_555
Sn6 Sr0 3.745517 1_455
Sn6 Sr0 3.745517 1_555
Sn6 Sr3 3.802732 1_555
Sn6 Sr3 3.802732 1_545
Sn7 Sr2 3.745517 1_545
Sn7 Sr2 3.745517 1_555
Sn7 Sr1 3.802732 1_455
Sn7 Sr1 3.802732 1_555
Sn8 Sr2 3.831470 1_655
Sn8 Sr2 3.831470 1_555
Sn8 Sr0 3.831470 1_554
Sn8 Sr0 3.831470 1_564
Au0 Sn0 2.677486 1_555
Au0 Sn5 2.850247 1_545
Au0 Sn5 2.850247 1_555
Au0 Sn7 2.854946 1_555
Au0 Sn7 2.854946 1_655
Au0 Sr2 3.662415 1_655
Au0 Sr2 3.662415 1_645
Au0 Sr2 3.662415 1_555
Au0 Sr2 3.662415 1_545
Au1 Sn1 2.712650 1_555
Au1 Sn6 2.827934 1_555
Au1 Sn6 2.827934 1_655
Au1 Sn4 2.832538 1_555
Au1 Sn4 2.832538 1_545
Au1 Sr3 3.710046 1_555
Au1 Sr3 3.710046 1_655
Au1 Sr3 3.710046 1_545
Au1 Sr3 3.710046 1_645
Au2 Sn2 2.677486 1_555
Au2 Sn4 2.850247 1_555
Au2 Sn4 2.850247 1_455
Au2 Sn6 2.854946 1_555
Au2 Sn6 2.854946 1_565
Au2 Sr0 3.662415 1_565
Au2 Sr0 3.662415 1_455
Au2 Sr0 3.662415 1_465
Au2 Sr0 3.662415 1_555
Au3 Sn3 2.712650 1_555
Au3 Sn7 2.827934 1_555
Au3 Sn7 2.827934 1_565
Au3 Sn5 2.832538 1_455
Au3 Sn5 2.832538 1_555
Au3 Sr1 3.710046 1_555
Au3 Sr1 3.710046 1_565
Au3 Sr1 3.710046 1_465
Au3 Sr1 3.710046 1_455
Au4 Sn1 2.808901 1_555
Au4 Sn1 2.808901 1_565
Au4 Sn3 2.808901 1_555
Au4 Sn3 2.808901 1_655
Au4 Sr3 3.613233 1_655
Au4 Sr3 3.613233 1_555
Au4 Sr1 3.613233 1_555
Au4 Sr1 3.613233 1_565
Au5 Sn2 2.914525 1_544
Au5 Sn2 2.914525 1_554
Au5 Sn0 2.914525 1_455
Au5 Sn0 2.914525 1_555
Au5 Sn8 3.409534 1_555
Au5 Sn8 3.409534 1_455
Au5 Sn8 3.409534 1_445
Au5 Sn8 3.409534 1_545
Au5 Sr2 3.831470 1_555
Au5 Sr2 3.831470 1_545
Au5 Sr0 3.831470 1_454
Au5 Sr0 3.831470 1_554
Au6 Sn1 2.808901 1_555
Au6 Sn1 2.808901 1_455
Au6 Sn3 2.808901 1_555
Au6 Sn3 2.808901 1_545
Au6 Sr3 3.613233 1_545
Au6 Sr3 3.613233 1_555
Au6 Sr1 3.613233 1_555
Au6 Sr1 3.613233 1_455
