# generated using pymatgen
data_LiMgAs
_symmetry_space_group_name_H-M   'P 1'
_cell_length_a   4.35309725
_cell_length_b   4.35309750
_cell_length_c   4.35309675
_cell_angle_alpha   59.99999045
_cell_angle_beta   59.99998854
_cell_angle_gamma   59.99998980
_symmetry_Int_Tables_number   1
_chemical_formula_structural   LiMgAs
_chemical_formula_sum   'Li1 Mg1 As1'
_cell_volume   58.32838933
_cell_formula_units_Z   1
loop_
 _symmetry_equiv_pos_site_id
 _symmetry_equiv_pos_as_xyz
  1  'x, y, z'
loop_
 _atom_site_type_symbol
 _atom_site_label
 _atom_site_symmetry_multiplicity
 _atom_site_fract_x
 _atom_site_fract_y
 _atom_site_fract_z
 _atom_site_occupancy
  Li  Li0  1  -0.00000000  -0.00000000  -0.00000000  1
  Mg  Mg0  1  0.50000000  0.50000000  0.50000000  1
  As  As0  1  0.25000000  0.25000000  0.25000000  1
loop_
_geom_bond_atom_site_label_1
_geom_bond_atom_site_label_2
_geom_bond_distance
_geom_bond_site_symmetry_2
As0 Li0 2.665716 1_556
As0 Mg0 2.665716 1_554
As0 Mg0 2.665716 1_455
As0 Li0 2.665716 1_655
As0 Li0 2.665717 1_565
As0 Mg0 2.665717 1_545
As0 Li0 2.665717 1_555
As0 Mg0 2.665717 1_555
