# generated using pymatgen
data_MoO3
_symmetry_space_group_name_H-M   'P 1'
_cell_length_a   13.27400949
_cell_length_b   11.22708308
_cell_length_c   12.81349163
_cell_angle_alpha   89.42623653
_cell_angle_beta   85.07950911
_cell_angle_gamma   91.48316881
_symmetry_Int_Tables_number   1
_chemical_formula_structural   MoO3
_chemical_formula_sum   'Mo25 O75'
_cell_volume   1901.75597675
_cell_formula_units_Z   25
loop_
 _symmetry_equiv_pos_site_id
 _symmetry_equiv_pos_as_xyz
  1  'x, y, z'
loop_
 _atom_site_type_symbol
 _atom_site_label
 _atom_site_symmetry_multiplicity
 _atom_site_fract_x
 _atom_site_fract_y
 _atom_site_fract_z
 _atom_site_occupancy
  Mo  Mo0  1  0.17918714  0.57995623  0.06818823  1
  Mo  Mo1  1  0.85848284  0.24880476  0.97206388  1
  Mo  Mo2  1  0.09603871  0.30903880  0.91896177  1
  Mo  Mo3  1  0.86101719  0.25180336  0.48086691  1
  Mo  Mo4  1  0.34145518  0.68903385  0.45893830  1
  Mo  Mo5  1  0.98196773  0.78742587  0.05233071  1
  Mo  Mo6  1  0.48020508  0.78977519  0.90428009  1
  Mo  Mo7  1  0.80580252  0.85658593  0.36215864  1
  Mo  Mo8  1  0.43869946  0.10885467  0.80034357  1
  Mo  Mo9  1  0.29857075  0.88889115  0.11478298  1
  Mo  Mo10  1  0.46337135  0.27299042  0.06026135  1
  Mo  Mo11  1  0.02797815  0.98677299  0.49710324  1
  Mo  Mo12  1  0.63264740  0.08787373  0.39804461  1
  Mo  Mo13  1  0.94018151  0.51189658  0.62508553  1
  Mo  Mo14  1  0.80730799  0.52126535  0.33659350  1
  Mo  Mo15  1  0.43435258  0.57190903  0.69937906  1
  Mo  Mo16  1  0.96633713  0.21271018  0.18732105  1
  Mo  Mo17  1  0.96292123  0.92999422  0.78938560  1
  Mo  Mo18  1  0.06337510  0.41690911  0.30592893  1
  Mo  Mo19  1  0.55474961  0.38915415  0.30454644  1
  Mo  Mo20  1  0.76748125  0.75330692  0.88160109  1
  Mo  Mo21  1  0.24769666  0.98870866  0.39984795  1
  Mo  Mo22  1  0.23560126  0.28374729  0.68320247  1
  Mo  Mo23  1  0.15284551  0.69152796  0.72664156  1
  Mo  Mo24  1  0.66286692  0.48065605  0.94798769  1
  O  O0  1  0.22914539  0.98157078  0.04480744  1
  O  O1  1  0.88163442  0.71084964  0.11976576  1
  O  O2  1  0.70244678  0.92949638  0.43532003  1
  O  O3  1  0.87804963  0.67563746  0.89580805  1
  O  O4  1  0.80883546  0.11687514  0.93337684  1
  O  O5  1  0.08185444  0.67513767  0.00696301  1
  O  O6  1  0.99765275  0.21956757  0.02638293  1
  O  O7  1  0.79636710  0.23896005  0.60173840  1
  O  O8  1  0.03945650  0.86527621  0.14676302  1
  O  O9  1  0.76406175  0.36812614  0.93491626  1
  O  O10  1  0.23052211  0.61351318  0.44113277  1
  O  O11  1  0.94542384  0.53310350  0.33502725  1
  O  O12  1  0.20081718  0.63309067  0.83655822  1
  O  O13  1  0.42504293  0.70583599  0.79118385  1
  O  O14  1  0.14401717  0.18356399  0.65121526  1
  O  O15  1  0.18091031  0.19688537  0.92315722  1
  O  O16  1  0.42039829  0.87182494  0.03151900  1
  O  O17  1  0.33868443  0.29622864  0.09739029  1
  O  O18  1  0.31951454  0.85710918  0.45072258  1
  O  O19  1  0.14387746  0.39156051  0.39872888  1
  O  O20  1  0.14201409  0.53782094  0.20178964  1
  O  O21  1  0.91960827  0.92375424  0.41243597  1
  O  O22  1  0.53158299  0.37182330  0.16260559  1
  O  O23  1  0.34852313  0.45610580  0.73887334  1
  O  O24  1  0.50367276  0.66418762  0.97541941  1
  O  O25  1  0.55169434  0.51399125  0.70622832  1
  O  O26  1  0.44353335  0.19536681  0.91920761  1
  O  O27  1  0.54696128  0.08444768  0.50589612  1
  O  O28  1  0.42603960  0.61388059  0.55858675  1
  O  O29  1  0.12012458  0.43800007  0.00269954  1
  O  O30  1  0.96891814  0.13921585  0.49220077  1
  O  O31  1  0.29920272  0.94238650  0.25073591  1
  O  O32  1  0.12001738  0.01417780  0.35632692  1
  O  O33  1  0.97095431  0.93817941  0.62307652  1
  O  O34  1  0.67360047  0.53853927  0.06848715  1
  O  O35  1  0.94552442  0.29810396  0.32632988  1
  O  O36  1  0.54574254  0.39425571  0.95223128  1
  O  O37  1  0.68308651  0.60883594  0.85380132  1
  O  O38  1  0.49191921  0.13850479  0.11412294  1
  O  O39  1  0.61397300  0.25293348  0.34749778  1
  O  O40  1  0.60218724  0.83676721  0.85720812  1
  O  O41  1  0.31525842  0.11811476  0.40979774  1
  O  O42  1  0.55683513  0.11800316  0.73644207  1
  O  O43  1  0.99075474  0.07743984  0.79546012  1
  O  O44  1  0.95553240  0.38561938  0.53331433  1
  O  O45  1  0.06838039  0.79863335  0.47106483  1
  O  O46  1  0.97455041  0.06834101  0.22330386  1
  O  O47  1  0.25917195  0.72299270  0.63774565  1
  O  O48  1  0.26421312  0.36374556  0.56989223  1
  O  O49  1  0.79939900  0.46505783  0.21393818  1
  O  O50  1  0.09047286  0.30979192  0.18925629  1
  O  O51  1  0.16454362  0.98777096  0.53628189  1
  O  O52  1  0.14926932  0.37070260  0.78675699  1
  O  O53  1  0.63425791  0.51159185  0.33936421  1
  O  O54  1  0.95654428  0.89359036  0.94274598  1
  O  O55  1  0.08344724  0.82650374  0.76379853  1
  O  O56  1  0.30192596  0.55046515  0.02605882  1
  O  O57  1  0.78245267  0.69083515  0.36383998  1
  O  O58  1  0.87344199  0.62232472  0.56825976  1
  O  O59  1  0.43945095  0.39942297  0.37359064  1
  O  O60  1  0.34449930  0.18130579  0.71793345  1
  O  O61  1  0.83408089  0.24550607  0.11747970  1
  O  O62  1  0.78594163  0.39956792  0.43428882  1
  O  O63  1  0.41396033  0.95348684  0.83276452  1
  O  O64  1  0.73591711  0.81013257  0.00283241  1
  O  O65  1  0.23661859  0.74432605  0.11600544  1
  O  O66  1  0.81985188  0.87392300  0.78609496  1
  O  O67  1  0.06606676  0.58060201  0.66875250  1
  O  O68  1  0.80006320  0.90567361  0.23696826  1
  O  O69  1  0.02107927  0.72857330  0.41372791  1
  O  O70  1  0.78011500  0.15263229  0.40591153  1
  O  O71  1  0.86417144  0.46484532  0.73345212  1
  O  O72  1  0.96129044  0.30360557  0.86543802  1
  O  O73  1  0.41414926  0.67195219  0.34284933  1
  O  O74  1  0.57757246  0.01823873  0.29770780  1
loop_
_geom_bond_atom_site_label_1
_geom_bond_atom_site_label_2
_geom_bond_distance
_geom_bond_site_symmetry_2
Mo0 O56 1.713498 1_555
Mo0 O20 1.795732 1_555
Mo0 O5 1.911855 1_555
Mo0 O29 1.983385 1_555
Mo0 O65 2.095711 1_555
Mo1 O4 1.701225 1_555
Mo1 O61 1.863486 1_556
Mo1 O72 1.930635 1_555
Mo1 O9 1.941274 1_555
Mo1 O6 2.062098 1_556
Mo2 O15 1.714651 1_555
Mo2 O29 1.848184 1_556
Mo2 O52 1.895799 1_555
Mo2 O72 1.969511 1_455
Mo2 O6 2.050661 1_456
Mo3 O7 1.707950 1_555
Mo3 O70 1.857907 1_555
Mo3 O30 1.948335 1_555
Mo3 O62 2.066222 1_555
Mo3 O44 2.085671 1_555
Mo3 O35 2.240026 1_555
Mo4 O10 1.713522 1_555
Mo4 O73 1.717447 1_555
Mo4 O18 1.919996 1_555
Mo4 O28 1.968824 1_555
Mo4 O47 2.489465 1_555
Mo5 O8 1.719138 1_655
Mo5 O1 1.728570 1_555
Mo5 O54 1.890720 1_554
Mo5 O5 1.911597 1_655
Mo6 O24 1.720961 1_555
Mo6 O40 1.745220 1_555
Mo6 O13 1.923011 1_555
Mo6 O16 1.995704 1_556
Mo6 O63 2.275824 1_555
Mo7 O68 1.699465 1_555
Mo7 O2 1.812176 1_555
Mo7 O21 1.839429 1_555
Mo7 O57 1.878208 1_555
Mo8 O42 1.705797 1_555
Mo8 O63 1.804308 1_545
Mo8 O26 1.819447 1_555
Mo8 O60 1.897944 1_555
Mo9 O0 1.705460 1_555
Mo9 O65 1.799714 1_555
Mo9 O31 1.848962 1_555
Mo9 O16 1.874645 1_555
Mo10 O17 1.709827 1_555
Mo10 O38 1.718508 1_555
Mo10 O22 1.987866 1_555
Mo10 O26 2.048611 1_554
Mo10 O36 2.142606 1_554
Mo11 O33 1.796520 1_455
Mo11 O30 1.903547 1_465
Mo11 O51 1.921838 1_555
Mo11 O21 1.994303 1_455
Mo11 O32 2.105347 1_565
Mo11 O45 2.214190 1_555
Mo12 O27 1.712303 1_555
Mo12 O74 1.717667 1_555
Mo12 O39 1.985534 1_555
Mo12 O70 2.081384 1_555
Mo12 O2 2.095817 1_545
Mo13 O71 1.715375 1_555
Mo13 O58 1.732486 1_555
Mo13 O44 1.855119 1_555
Mo13 O67 1.950032 1_655
Mo14 O49 1.709983 1_555
Mo14 O11 1.833102 1_555
Mo14 O62 1.843655 1_555
Mo14 O57 1.970067 1_555
Mo14 O53 2.294035 1_555
Mo15 O25 1.712123 1_555
Mo15 O23 1.748052 1_555
Mo15 O28 1.873127 1_555
Mo15 O13 1.918331 1_555
Mo16 O46 1.689499 1_555
Mo16 O50 1.954059 1_655
Mo16 O35 2.032634 1_555
Mo16 O6 2.068675 1_555
Mo16 O61 2.077220 1_555
Mo17 O43 1.690772 1_565
Mo17 O66 1.989232 1_555
Mo17 O54 1.997334 1_555
Mo17 O55 2.007718 1_655
Mo17 O33 2.125457 1_555
Mo18 O19 1.692263 1_555
Mo18 O50 1.943397 1_555
Mo18 O35 2.027189 1_455
Mo18 O11 2.075453 1_455
Mo18 O20 2.089118 1_555
Mo19 O59 1.707992 1_555
Mo19 O53 1.794554 1_555
Mo19 O39 1.838326 1_555
Mo19 O22 1.881552 1_555
Mo20 O64 1.708113 1_556
Mo20 O3 1.748294 1_555
Mo20 O66 1.893878 1_555
Mo20 O37 1.999668 1_555
Mo20 O40 2.451130 1_555
Mo21 O41 1.699173 1_565
Mo21 O32 1.857195 1_565
Mo21 O18 1.917531 1_555
Mo21 O51 1.985605 1_555
Mo21 O31 2.050045 1_555
Mo22 O48 1.708963 1_555
Mo22 O14 1.713159 1_555
Mo22 O60 1.948460 1_555
Mo22 O52 1.962137 1_555
Mo23 O12 1.725263 1_555
Mo23 O47 1.761987 1_555
Mo23 O55 1.839332 1_555
Mo23 O67 1.875863 1_555
Mo24 O34 1.696954 1_556
Mo24 O36 1.807595 1_555
Mo24 O9 1.866021 1_555
Mo24 O37 1.867930 1_555
O45 O69 1.271937 1_555
