# generated using pymatgen
data_Mg(NiO2)2
_symmetry_space_group_name_H-M   'P 1'
_cell_length_a   5.90746657
_cell_length_b   5.90746657
_cell_length_c   14.45571369
_cell_angle_alpha   88.73264679
_cell_angle_beta   88.73264679
_cell_angle_gamma   59.30920945
_symmetry_Int_Tables_number   1
_chemical_formula_structural   Mg(NiO2)2
_chemical_formula_sum   'Mg6 Ni12 O24'
_cell_volume   433.67727087
_cell_formula_units_Z   6
loop_
 _symmetry_equiv_pos_site_id
 _symmetry_equiv_pos_as_xyz
  1  'x, y, z'
loop_
 _atom_site_type_symbol
 _atom_site_label
 _atom_site_symmetry_multiplicity
 _atom_site_fract_x
 _atom_site_fract_y
 _atom_site_fract_z
 _atom_site_occupancy
  Mg  Mg0  1  0.33321300  0.33321300  0.04969200  1
  Mg  Mg1  1  0.99824300  0.99824300  0.38230700  1
  Mg  Mg2  1  0.66514300  0.66514300  0.33354300  1
  Mg  Mg3  1  0.66965700  0.66965700  0.71218200  1
  Mg  Mg4  1  0.00082100  0.00082100  0.00016000  1
  Mg  Mg5  1  0.99928400  0.99928400  0.62326800  1
  Ni  Ni0  1  0.33041500  0.83389100  0.16598900  1
  Ni  Ni1  1  0.83389100  0.33041500  0.16598900  1
  Ni  Ni2  1  0.99776300  0.49696700  0.50028100  1
  Ni  Ni3  1  0.83479500  0.83479500  0.16623200  1
  Ni  Ni4  1  0.49696700  0.99776300  0.50028100  1
  Ni  Ni5  1  0.33480500  0.33480500  0.66498600  1
  Ni  Ni6  1  0.33218500  0.33218500  0.28307500  1
  Ni  Ni7  1  0.66331300  0.17062800  0.83332500  1
  Ni  Ni8  1  0.49936400  0.49936400  0.50117600  1
  Ni  Ni9  1  0.17062800  0.66331300  0.83332500  1
  Ni  Ni10  1  0.16973300  0.16973300  0.83320300  1
  Ni  Ni11  1  0.66632400  0.66632400  0.95406700  1
  O  O0  1  0.69943600  0.15347900  0.09516200  1
  O  O1  1  0.99905300  0.99905300  0.24574400  1
  O  O2  1  0.15347900  0.69943600  0.09516200  1
  O  O3  1  0.14960700  0.14960700  0.09399000  1
  O  O4  1  0.36059600  0.81191300  0.42779500  1
  O  O5  1  0.51418300  0.51418300  0.23826600  1
  O  O6  1  0.66473300  0.66473300  0.57522100  1
  O  O7  1  0.51168900  0.97005300  0.23664700  1
  O  O8  1  0.66775600  0.66775600  0.08309300  1
  O  O9  1  0.81191300  0.36059600  0.42779500  1
  O  O10  1  0.81647500  0.81647500  0.42924000  1
  O  O11  1  0.97005300  0.51168900  0.23664700  1
  O  O12  1  0.04196000  0.48243700  0.74874600  1
  O  O13  1  0.18201500  0.18201500  0.57271100  1
  O  O14  1  0.18616900  0.62736300  0.57859000  1
  O  O15  1  0.33167400  0.33167400  0.90899800  1
  O  O16  1  0.33343200  0.33343200  0.42412200  1
  O  O17  1  0.48243700  0.04196000  0.74874600  1
  O  O18  1  0.48577400  0.48577400  0.75551400  1
  O  O19  1  0.62736300  0.18616900  0.57859000  1
  O  O20  1  0.84219700  0.84219700  0.90960300  1
  O  O21  1  0.84056700  0.32228600  0.91142700  1
  O  O22  1  0.00303000  0.00303000  0.76138800  1
  O  O23  1  0.32228600  0.84056700  0.91142700  1
loop_
_geom_bond_atom_site_label_1
_geom_bond_atom_site_label_2
_geom_bond_distance
_geom_bond_site_symmetry_2
Mg0 O3 1.975466 1_555
Mg0 O2 1.981682 1_555
Mg0 O0 1.981682 1_555
Mg0 O15 2.034296 1_554
Mg1 O4 1.962426 1_655
Mg1 O9 1.962426 1_565
Mg1 O10 1.969492 1_555
Mg1 O1 1.973921 1_555
Mg2 O9 2.048499 1_555
Mg2 O4 2.048499 1_555
Mg2 O11 2.075077 1_555
Mg2 O7 2.075077 1_555
Mg2 O5 2.099532 1_555
Mg2 O10 2.106514 1_555
Mg3 O17 1.970348 1_565
Mg3 O12 1.970348 1_655
Mg3 O18 1.974020 1_555
Mg3 O6 1.981800 1_555
Mg4 O0 2.043719 1_455
Mg4 O2 2.043719 1_545
Mg4 O21 2.063650 1_454
Mg4 O23 2.063650 1_544
Mg4 O3 2.068566 1_555
Mg4 O20 2.115356 1_444
Mg5 O13 1.996093 1_665
Mg5 O22 1.997972 1_665
Mg5 O19 2.004590 1_565
Mg5 O14 2.004590 1_655
Ni0 O3 1.905883 1_565
Ni0 O2 1.924194 1_555
Ni0 O5 1.925384 1_555
Ni0 O7 1.949639 1_555
Ni0 O1 2.028125 1_455
Ni0 O8 2.078561 1_555
Ni1 O3 1.905883 1_655
Ni1 O0 1.924194 1_555
Ni1 O5 1.925384 1_555
Ni1 O11 1.949639 1_555
Ni1 O1 2.028125 1_545
Ni1 O8 2.078561 1_555
Ni2 O13 1.907792 1_655
Ni2 O10 1.914051 1_555
Ni2 O9 1.985817 1_555
Ni2 O6 1.997285 1_555
Ni2 O16 2.018016 1_655
Ni2 O14 2.020670 1_655
Ni3 O0 1.911333 1_565
Ni3 O2 1.911333 1_655
Ni3 O7 1.926397 1_555
Ni3 O11 1.926397 1_555
Ni3 O1 2.064975 1_555
Ni3 O8 2.119145 1_555
Ni4 O13 1.907792 1_565
Ni4 O10 1.914051 1_555
Ni4 O4 1.985817 1_555
Ni4 O6 1.997285 1_555
Ni4 O16 2.018016 1_565
Ni4 O19 2.020670 1_565
Ni5 O12 1.906141 1_555
Ni5 O17 1.906141 1_555
Ni5 O19 1.929155 1_555
Ni5 O14 1.929155 1_555
Ni5 O18 2.053904 1_555
Ni5 O13 2.084906 1_555
Ni6 O5 1.962101 1_555
Ni6 O11 1.966659 1_455
Ni6 O7 1.966659 1_545
Ni6 O16 2.039301 1_555
Ni7 O18 1.948724 1_555
Ni7 O20 1.990192 1_545
Ni7 O15 1.997140 1_555
Ni7 O22 2.003519 1_655
Ni7 O17 2.035275 1_555
Ni7 O21 2.056334 1_555
Ni8 O9 1.900813 1_555
Ni8 O4 1.900813 1_555
Ni8 O14 1.940361 1_555
Ni8 O19 1.940361 1_555
Ni8 O6 2.030059 1_555
Ni8 O16 2.059101 1_555
Ni9 O18 1.948724 1_555
Ni9 O20 1.990192 1_455
Ni9 O15 1.997140 1_555
Ni9 O22 2.003519 1_565
Ni9 O12 2.035275 1_555
Ni9 O23 2.056334 1_555
Ni10 O12 1.997600 1_555
Ni10 O17 1.997600 1_555
Ni10 O23 2.007732 1_545
Ni10 O21 2.007732 1_455
Ni10 O15 2.014417 1_555
Ni10 O22 2.024304 1_555
Ni11 O23 1.860616 1_555
Ni11 O21 1.860616 1_555
Ni11 O8 1.865595 1_556
Ni11 O20 1.901278 1_555
