# generated using pymatgen
data_ZnGe3
_symmetry_space_group_name_H-M   'P 1'
_cell_length_a   5.82892154
_cell_length_b   5.82892154
_cell_length_c   5.12276500
_cell_angle_alpha   90.00000000
_cell_angle_beta   90.00000000
_cell_angle_gamma   119.99999480
_symmetry_Int_Tables_number   1
_chemical_formula_structural   ZnGe3
_chemical_formula_sum   'Zn2 Ge6'
_cell_volume   150.73409837
_cell_formula_units_Z   2
loop_
 _symmetry_equiv_pos_site_id
 _symmetry_equiv_pos_as_xyz
  1  'x, y, z'
loop_
 _atom_site_type_symbol
 _atom_site_label
 _atom_site_symmetry_multiplicity
 _atom_site_fract_x
 _atom_site_fract_y
 _atom_site_fract_z
 _atom_site_occupancy
  Zn  Zn0  1  0.33333300  0.66666700  0.75000000  1
  Zn  Zn1  1  0.66666700  0.33333300  0.25000000  1
  Ge  Ge0  1  0.16842100  0.33684200  0.25000000  1
  Ge  Ge1  1  0.66315800  0.83157900  0.25000000  1
  Ge  Ge2  1  0.16842100  0.83157900  0.25000000  1
  Ge  Ge3  1  0.83157900  0.66315800  0.75000000  1
  Ge  Ge4  1  0.33684200  0.16842100  0.75000000  1
  Ge  Ge5  1  0.83157900  0.16842100  0.75000000  1
loop_
_geom_bond_atom_site_label_1
_geom_bond_atom_site_label_2
_geom_bond_distance
_geom_bond_site_symmetry_2
Ge0 Ge2 2.883783 1_555
Ge0 Ge1 2.883783 1_555
Ge0 Zn1 2.914512 1_455
Ge0 Zn1 2.914518 1_555
Ge0 Ge2 2.945138 1_545
Ge0 Ge1 2.945139 1_445
Ge0 Zn0 3.054956 1_554
Ge0 Zn0 3.054956 1_555
Ge0 Ge4 3.074404 1_555
Ge0 Ge4 3.074404 1_554
Ge0 Ge5 3.074404 1_454
Ge0 Ge5 3.074404 1_455
Ge1 Ge2 2.883783 1_555
Ge1 Zn1 2.914512 1_565
Ge1 Zn1 2.914518 1_555
Ge1 Ge2 2.945138 1_655
Ge1 Zn0 3.054956 1_554
Ge1 Zn0 3.054956 1_555
Ge1 Ge3 3.074404 1_555
Ge1 Ge3 3.074404 1_554
Ge1 Ge5 3.074404 1_565
Ge1 Ge5 3.074404 1_564
Ge2 Zn1 2.914515 1_455
Ge2 Zn1 2.914515 1_565
Ge2 Zn0 3.054953 1_555
Ge2 Zn0 3.054953 1_554
Ge2 Ge3 3.074404 1_455
Ge2 Ge4 3.074404 1_564
Ge2 Ge3 3.074404 1_454
Ge2 Ge4 3.074404 1_565
Ge3 Ge5 2.883783 1_555
Ge3 Ge4 2.883783 1_555
Ge3 Zn0 2.914512 1_655
Ge3 Zn0 2.914518 1_555
Ge3 Ge5 2.945138 1_565
Ge3 Ge4 2.945139 1_665
Ge3 Zn1 3.054956 1_555
Ge3 Zn1 3.054956 1_556
Ge4 Ge5 2.883783 1_555
Ge4 Zn0 2.914512 1_545
Ge4 Zn0 2.914518 1_555
Ge4 Ge5 2.945138 1_455
Ge4 Zn1 3.054956 1_555
Ge4 Zn1 3.054956 1_556
Ge5 Zn0 2.914515 1_545
Ge5 Zn0 2.914515 1_655
Ge5 Zn1 3.054953 1_555
Ge5 Zn1 3.054953 1_556
