# generated using pymatgen
data_Li5V3P8O29
_symmetry_space_group_name_H-M   'P 1'
_cell_length_a   9.81912775
_cell_length_b   9.83439709
_cell_length_c   14.08710148
_cell_angle_alpha   89.75528830
_cell_angle_beta   89.72786783
_cell_angle_gamma   59.70878525
_symmetry_Int_Tables_number   1
_chemical_formula_structural   Li5V3P8O29
_chemical_formula_sum   'Li10 V6 P16 O58'
_cell_volume   1174.58671110
_cell_formula_units_Z   2
loop_
 _symmetry_equiv_pos_site_id
 _symmetry_equiv_pos_as_xyz
  1  'x, y, z'
loop_
 _atom_site_type_symbol
 _atom_site_label
 _atom_site_symmetry_multiplicity
 _atom_site_fract_x
 _atom_site_fract_y
 _atom_site_fract_z
 _atom_site_occupancy
  Li  Li0  1  0.90257405  0.77206415  0.06030543  1
  Li  Li1  1  0.76364237  0.89813784  0.55813530  1
  Li  Li2  1  0.89826102  0.33084000  0.55756931  1
  Li  Li3  1  0.76935750  0.31847866  0.06280445  1
  Li  Li4  1  0.32358173  0.90500902  0.06156480  1
  Li  Li5  1  0.33155375  0.76226600  0.55737241  1
  Li  Li6  1  0.22329848  0.68398824  0.94187472  1
  Li  Li7  1  0.23616564  0.09932375  0.43710700  1
  Li  Li8  1  0.08916010  0.22969985  0.94020389  1
  Li  Li9  1  0.97617413  0.98035335  0.49191077  1
  V  V0  1  0.56739447  0.43050464  0.25352989  1
  V  V1  1  0.43549251  0.56450920  0.74920121  1
  V  V2  1  0.56965235  0.00148613  0.75283624  1
  V  V3  1  0.43582126  0.99925892  0.24733527  1
  V  V4  1  0.00504336  0.56594214  0.25449623  1
  V  V5  1  0.99695952  0.43585593  0.74593250  1
  P  P0  1  0.91236393  0.76624774  0.84272919  1
  P  P1  1  0.77238370  0.91328940  0.34306234  1
  P  P2  1  0.91323454  0.31531897  0.33987864  1
  P  P3  1  0.67155396  0.66194837  0.13031211  1
  P  P4  1  0.66323838  0.67278556  0.62828572  1
  P  P5  1  0.76886290  0.31902733  0.84374210  1
  P  P6  1  0.69363616  0.22214989  0.66052626  1
  P  P7  1  0.31912538  0.91253020  0.84105711  1
  P  P8  1  0.68567640  0.08639997  0.16059837  1
  P  P9  1  0.31344150  0.77540541  0.34264164  1
  P  P10  1  0.23130908  0.68185479  0.16080446  1
  P  P11  1  0.33330831  0.32929380  0.37173062  1
  P  P12  1  0.32943139  0.33304375  0.86926195  1
  P  P13  1  0.08535109  0.69046567  0.65983191  1
  P  P14  1  0.23121073  0.08680106  0.65791444  1
  P  P15  1  0.08811191  0.23299004  0.15723921  1
  O  O0  1  0.99351648  0.79536418  0.57918165  1
  O  O1  1  0.91654673  0.74294802  0.32900845  1
  O  O2  1  0.77159771  0.98957523  0.07732934  1
  O  O3  1  0.74515694  0.91427587  0.83406315  1
  O  O4  1  0.90007220  0.61946987  0.82305458  1
  O  O5  1  0.81919017  0.66456459  0.17393231  1
  O  O6  1  0.91208584  0.47238287  0.32746393  1
  O  O7  1  0.99736951  0.24742619  0.06866763  1
  O  O8  1  0.91647741  0.33837477  0.83503525  1
  O  O9  1  0.67251760  0.81699178  0.67239707  1
  O  O10  1  0.61872145  0.91220079  0.33185043  1
  O  O11  1  0.80833252  0.51506325  0.66651634  1
  O  O12  1  0.67733243  0.66480286  0.02438812  1
  O  O13  1  0.66717622  0.68209610  0.52259282  1
  O  O14  1  0.67472581  0.51038262  0.16911608  1
  O  O15  1  0.47955240  0.90242034  0.82147947  1
  O  O16  1  0.51624121  0.81151465  0.16823545  1
  O  O17  1  0.74484631  0.34362500  0.33673803  1
  O  O18  1  0.78810193  0.20224730  0.75864714  1
  O  O19  1  0.80000232  0.20384279  0.57900324  1
  O  O20  1  0.75839140  0.25489574  0.93665541  1
  O  O21  1  0.61798573  0.47986071  0.81948236  1
  O  O22  1  0.50883296  0.68166192  0.66629098  1
  O  O23  1  0.66202676  0.25410435  0.16012895  1
  O  O24  1  0.46903505  0.62106408  0.33102188  1
  O  O25  1  0.33809788  0.91986011  0.33329654  1
  O  O26  1  0.78799486  0.01086573  0.25678619  1
  O  O27  1  0.79271549  0.97694848  0.43481094  1
  O  O28  1  0.23361905  0.99967695  0.56960212  1
  O  O29  1  0.66365018  0.07991284  0.66257562  1
  O  O30  1  0.53720876  0.37805866  0.66821232  1
  O  O31  1  0.33597109  0.74782153  0.84150421  1
  O  O32  1  0.47949948  0.32623011  0.32795958  1
  O  O33  1  0.38250603  0.52341966  0.17805622  1
  O  O34  1  0.23923961  0.76028941  0.07058329  1
  O  O35  1  0.22320416  0.79379897  0.43253034  1
  O  O36  1  0.20538191  0.79293705  0.25083112  1
  O  O37  1  0.25727062  0.65953363  0.66129815  1
  O  O38  1  0.47838156  0.18397961  0.82099713  1
  O  O39  1  0.52417026  0.09550755  0.17812267  1
  O  O40  1  0.32900010  0.48374794  0.83083993  1
  O  O41  1  0.33571290  0.32211853  0.97435480  1
  O  O42  1  0.31496080  0.34057682  0.47661800  1
  O  O43  1  0.18354413  0.48189455  0.32351943  1
  O  O44  1  0.38533298  0.08855551  0.67357801  1
  O  O45  1  0.32183930  0.18635094  0.33250831  1
  O  O46  1  0.08473319  0.66069376  0.16042605  1
  O  O47  1  0.01140826  0.78565613  0.75803109  1
  O  O48  1  0.99445815  0.75798810  0.93373305  1
  O  O49  1  0.08496176  0.53453697  0.66906074  1
  O  O50  1  0.18380988  0.32811561  0.82809607  1
  O  O51  1  0.09681964  0.38204332  0.17767159  1
  O  O52  1  0.25333790  0.08392635  0.15599254  1
  O  O53  1  0.24432519  0.00194787  0.93064724  1
  O  O54  1  0.20826703  0.00243128  0.75079402  1
  O  O55  1  0.08513695  0.25495797  0.65750913  1
  O  O56  1  0.99881216  0.22835580  0.42876513  1
  O  O57  1  0.00067906  0.20884963  0.24830587  1
loop_
_geom_bond_atom_site_label_1
_geom_bond_atom_site_label_2
_geom_bond_distance
_geom_bond_site_symmetry_2
Li0 O2 1.874419 1_555
Li0 O48 1.968051 1_554
Li0 O46 2.103001 1_655
Li0 O5 2.279576 1_555
Li1 O0 1.976519 1_555
Li1 O27 1.976701 1_555
Li1 O29 2.135986 1_565
Li1 O9 2.173472 1_555
Li2 O19 1.947175 1_555
Li2 O56 2.068261 1_555
Li2 O55 2.130781 1_655
Li2 O11 2.194208 1_555
Li3 O20 1.907831 1_554
Li3 O7 1.982610 1_555
Li3 O23 2.010749 1_555
Li3 O14 2.215830 1_555
Li4 O34 1.978401 1_555
Li4 O52 2.031794 1_565
Li4 O53 2.041059 1_564
Li4 O16 2.223216 1_555
Li5 O35 2.000308 1_555
Li5 O28 2.035336 1_555
Li5 O37 2.101593 1_555
Li5 O22 2.153068 1_555
Li6 O48 1.985936 1_455
Li6 O34 2.001952 1_556
Li6 O31 2.072552 1_555
Li6 O40 2.313178 1_555
Li7 O56 2.018333 1_455
Li7 O45 2.077289 1_555
Li7 O28 2.110291 1_545
Li7 O25 2.116936 1_545
Li8 O53 1.978447 1_555
Li8 O7 1.986551 1_456
Li8 O8 2.096285 1_455
Li8 O50 2.274867 1_555
Li9 O27 1.991993 1_555
Li9 O0 2.126139 1_555
Li9 O35 2.335349 1_655
Li9 O19 2.344303 1_565
O0 P13 1.493132 1_655
O1 P1 1.567573 1_555
O1 V4 1.835234 1_655
O2 P8 1.477900 1_565
O3 P0 1.555318 1_555
O3 V2 1.879897 1_565
O4 P0 1.534431 1_555
O4 V5 1.902633 1_555
O5 P3 1.589334 1_555
O5 V4 1.945193 1_655
O6 P2 1.548137 1_555
O6 V4 1.888524 1_655
O7 P15 1.500764 1_655
O8 P5 1.558353 1_555
O8 V5 1.965616 1_555
O9 P4 1.595022 1_555
O9 V2 1.937578 1_565
O10 P1 1.523220 1_555
O10 V3 1.958647 1_555
O11 P4 1.580065 1_555
O11 V5 1.961030 1_555
O12 P3 1.493653 1_555
O13 P4 1.492844 1_555
O14 P3 1.570959 1_555
O14 V0 1.989259 1_555
O15 P7 1.550962 1_555
O15 V2 1.876233 1_565
O16 P3 1.584536 1_555
O16 V3 1.952594 1_555
O17 P2 1.532821 1_555
O17 V0 1.910244 1_555
O18 P5 1.606977 1_555
O18 P6 1.623577 1_555
O19 P6 1.497595 1_555
O20 P5 1.476009 1_555
O21 P5 1.565148 1_555
O21 V1 1.840975 1_555
O22 P4 1.565910 1_555
O22 V1 2.006898 1_555
O23 P8 1.545195 1_555
O23 V0 1.996460 1_555
O24 P9 1.524868 1_555
O24 V0 1.953986 1_555
O25 P9 1.561788 1_555
O25 V3 1.932248 1_555
O26 P1 1.599420 1_545
O26 P8 1.627480 1_555
O27 P1 1.495902 1_555
O28 P14 1.506908 1_565
O29 P6 1.568205 1_555
O29 V2 1.939614 1_555
O30 P6 1.531645 1_555
O30 V1 1.954727 1_555
O31 P7 1.542991 1_555
O31 V1 2.031360 1_555
O32 P11 1.545900 1_555
O32 V0 1.941868 1_555
O33 P10 1.535426 1_555
O33 V0 1.896779 1_555
O34 P10 1.505876 1_555
O35 P9 1.500288 1_555
O36 P10 1.610834 1_555
O36 P9 1.629380 1_555
O37 P13 1.557206 1_555
O37 V1 1.957060 1_555
O38 P12 1.608279 1_555
O38 V2 1.824861 1_555
O39 P8 1.561110 1_555
O39 V3 1.847052 1_545
O40 P12 1.573654 1_555
O40 V1 1.966069 1_555
O41 P12 1.483211 1_555
O42 P11 1.485482 1_555
O43 P11 1.628023 1_555
O43 V4 1.802369 1_555
O44 P14 1.539074 1_555
O44 V2 1.924336 1_555
O45 P11 1.568773 1_555
O45 V3 2.001584 1_545
O46 P10 1.554671 1_555
O46 V4 1.987919 1_555
O47 P0 1.606282 1_455
O47 P13 1.622654 1_555
O48 P0 1.497576 1_555
O49 P13 1.540337 1_555
O49 V5 1.920743 1_455
O50 P12 1.568825 1_555
O50 V5 1.969042 1_455
O51 P15 1.539203 1_555
O51 V4 1.901965 1_555
O52 P15 1.543419 1_555
O52 V3 2.016769 1_545
O53 P7 1.501557 1_545
O54 P7 1.617434 1_545
O54 P14 1.620993 1_555
O55 P14 1.548961 1_555
O55 V5 1.980148 1_455
O56 P2 1.510393 1_555
O57 P2 1.609890 1_455
O57 P15 1.622251 1_555
