# generated using pymatgen
data_La4(HoS2)11
_symmetry_space_group_name_H-M   'P 1'
_cell_length_a   19.78144319
_cell_length_b   19.78144319
_cell_length_c   11.40314378
_cell_angle_alpha   88.56262412
_cell_angle_beta   88.56262412
_cell_angle_gamma   11.54156848
_symmetry_Int_Tables_number   1
_chemical_formula_structural   La4(HoS2)11
_chemical_formula_sum   'La4 Ho11 S22'
_cell_volume   892.49049410
_cell_formula_units_Z   1
loop_
 _symmetry_equiv_pos_site_id
 _symmetry_equiv_pos_as_xyz
  1  'x, y, z'
loop_
 _atom_site_type_symbol
 _atom_site_label
 _atom_site_symmetry_multiplicity
 _atom_site_fract_x
 _atom_site_fract_y
 _atom_site_fract_z
 _atom_site_occupancy
  La  La0  1  0.10407900  0.10407900  0.98799000  1
  La  La1  1  0.89592100  0.89592100  0.01201000  1
  La  La2  1  0.36714700  0.36714700  0.65287800  1
  La  La3  1  0.63285300  0.63285300  0.34712200  1
  Ho  Ho0  1  0.79787400  0.79787400  0.94204000  1
  Ho  Ho1  1  0.20212600  0.20212600  0.05796000  1
  Ho  Ho2  1  0.46200000  0.46200000  0.72878000  1
  Ho  Ho3  1  0.53800000  0.53800000  0.27122000  1
  Ho  Ho4  1  0.65765200  0.65765200  0.69846600  1
  Ho  Ho5  1  0.34234800  0.34234800  0.30153400  1
  Ho  Ho6  1  0.26391500  0.26391500  0.64812000  1
  Ho  Ho7  1  0.73608500  0.73608500  0.35188000  1
  Ho  Ho8  1  0.06934400  0.06934400  0.63961600  1
  Ho  Ho9  1  0.93065600  0.93065600  0.36038400  1
  Ho  Ho10  1  0.00000000  0.00000000  0.00000000  1
  S  S0  1  0.08716900  0.08716900  0.24829300  1
  S  S1  1  0.91283100  0.91283100  0.75170700  1
  S  S2  1  0.18902300  0.18902300  0.30806100  1
  S  S3  1  0.81097700  0.81097700  0.69193900  1
  S  S4  1  0.27993600  0.27993600  0.40993800  1
  S  S5  1  0.72006400  0.72006400  0.59006200  1
  S  S6  1  0.44568700  0.44568700  0.50456200  1
  S  S7  1  0.55431300  0.55431300  0.49543800  1
  S  S8  1  0.13439600  0.13439600  0.54706900  1
  S  S9  1  0.86560400  0.86560400  0.45293100  1
  S  S10  1  0.59289600  0.59289600  0.78727800  1
  S  S11  1  0.40710400  0.40710400  0.21272200  1
  S  S12  1  0.45331600  0.45331600  0.96849000  1
  S  S13  1  0.54668400  0.54668400  0.03151000  1
  S  S14  1  0.35050300  0.35050300  0.90879000  1
  S  S15  1  0.64949700  0.64949700  0.09121000  1
  S  S16  1  0.16845500  0.16845500  0.84813800  1
  S  S17  1  0.83154500  0.83154500  0.15186200  1
  S  S18  1  0.00773000  0.00773000  0.76107800  1
  S  S19  1  0.99227000  0.99227000  0.23892200  1
  S  S20  1  0.25533500  0.25533500  0.88108900  1
  S  S21  1  0.74466500  0.74466500  0.11891100  1
loop_
_geom_bond_atom_site_label_1
_geom_bond_atom_site_label_2
_geom_bond_distance
_geom_bond_site_symmetry_2
La0 S15 2.940023 1_546
La0 S15 2.940023 1_456
La0 S16 2.959829 1_555
La0 S0 3.025568 1_556
La0 S13 3.041362 1_546
La0 S13 3.041362 1_456
La0 S10 3.072307 1_545
La0 S10 3.072307 1_455
La1 S14 2.940023 1_564
La1 S14 2.940023 1_654
La1 S17 2.959829 1_555
La1 S1 3.025568 1_554
La1 S12 3.041362 1_564
La1 S12 3.041362 1_654
La1 S11 3.072307 1_565
La1 S11 3.072307 1_655
La2 S1 2.926090 1_455
La2 S1 2.926090 1_545
La2 S14 2.974679 1_555
La2 S3 2.998888 1_545
La2 S3 2.998888 1_455
La2 S9 3.027428 1_545
La2 S9 3.027428 1_455
La2 S6 3.486294 1_555
La3 S0 2.926090 1_565
La3 S0 2.926090 1_655
La3 S15 2.974679 1_555
La3 S2 2.998888 1_655
La3 S2 2.998888 1_565
La3 S8 3.027428 1_655
La3 S8 3.027428 1_565
La3 S7 3.486294 1_555
Ho0 S20 2.702153 1_565
Ho0 S20 2.702153 1_655
Ho0 S17 2.764270 1_556
Ho0 S21 2.870797 1_556
Ho0 S3 2.885376 1_555
Ho0 S14 2.889953 1_655
Ho0 S14 2.889953 1_565
Ho1 S21 2.702153 1_545
Ho1 S21 2.702153 1_455
Ho1 S16 2.764270 1_554
Ho1 S20 2.870797 1_554
Ho1 S2 2.885376 1_555
Ho1 S15 2.889953 1_545
Ho1 S15 2.889953 1_455
Ho2 S6 2.651844 1_555
Ho2 S18 2.713920 1_565
Ho2 S18 2.713920 1_655
Ho2 S12 2.746173 1_555
Ho2 S1 2.782945 1_545
Ho2 S1 2.782945 1_455
Ho3 S7 2.651844 1_555
Ho3 S19 2.713920 1_545
Ho3 S19 2.713920 1_455
Ho3 S13 2.746173 1_555
Ho3 S0 2.782945 1_565
Ho3 S0 2.782945 1_655
Ho4 S16 2.662046 1_655
Ho4 S16 2.662046 1_565
Ho4 S10 2.718937 1_555
Ho4 S5 2.722174 1_555
Ho4 S8 2.802547 1_565
Ho4 S8 2.802547 1_655
Ho5 S17 2.662046 1_545
Ho5 S17 2.662046 1_455
Ho5 S11 2.718937 1_555
Ho5 S4 2.722174 1_555
Ho5 S9 2.802547 1_455
Ho5 S9 2.802547 1_545
Ho6 S20 2.669500 1_555
Ho6 S5 2.726062 1_545
Ho6 S5 2.726062 1_455
Ho6 S3 2.772028 1_545
Ho6 S3 2.772028 1_455
Ho6 S4 2.772743 1_555
Ho7 S21 2.669500 1_555
Ho7 S4 2.726062 1_655
Ho7 S4 2.726062 1_565
Ho7 S2 2.772028 1_655
Ho7 S2 2.772028 1_565
Ho7 S5 2.772743 1_555
Ho8 S7 2.656737 1_545
Ho8 S7 2.656737 1_455
Ho8 S8 2.744838 1_555
Ho8 S18 2.762414 1_555
Ho8 S10 2.780200 1_545
Ho8 S10 2.780200 1_455
Ho9 S6 2.656737 1_655
Ho9 S6 2.656737 1_565
Ho9 S9 2.744838 1_555
Ho9 S19 2.762414 1_555
Ho9 S11 2.780200 1_565
Ho9 S11 2.780200 1_655
Ho10 S18 2.733765 1_554
Ho10 S19 2.733765 1_445
Ho10 S13 2.737752 1_455
Ho10 S12 2.737752 1_544
Ho10 S13 2.737752 1_545
Ho10 S12 2.737752 1_454
