# generated using pymatgen
data_LiCuRu2(RhO4)2
_symmetry_space_group_name_H-M   'P 1'
_cell_length_a   6.14588261
_cell_length_b   6.14588261
_cell_length_c   6.14588261
_cell_angle_alpha   125.16103615
_cell_angle_beta   118.74297299
_cell_angle_gamma   86.74627335
_symmetry_Int_Tables_number   1
_chemical_formula_structural   LiCuRu2(RhO4)2
_chemical_formula_sum   'Li1 Cu1 Ru2 Rh2 O8'
_cell_volume   158.35618612
_cell_formula_units_Z   1
loop_
 _symmetry_equiv_pos_site_id
 _symmetry_equiv_pos_as_xyz
  1  'x, y, z'
loop_
 _atom_site_type_symbol
 _atom_site_label
 _atom_site_symmetry_multiplicity
 _atom_site_fract_x
 _atom_site_fract_y
 _atom_site_fract_z
 _atom_site_occupancy
  Li  Li0  1  0.37991000  0.37991000  0.00000000  1
  Cu  Cu0  1  0.13196300  0.63196300  0.50000000  1
  Ru  Ru0  1  0.75002000  0.02724100  0.27722100  1
  Ru  Ru1  1  0.75002000  0.47279900  0.72277900  1
  Rh  Rh0  1  0.75160900  0.99893200  0.75267700  1
  Rh  Rh1  1  0.24625500  0.99893200  0.24732300  1
  O  O0  1  0.98279700  0.76630800  0.21648900  1
  O  O1  1  0.54981800  0.76630800  0.78351100  1
  O  O2  1  0.97838800  0.73917100  0.76078400  1
  O  O3  1  0.97838800  0.21760400  0.23921600  1
  O  O4  1  0.48201400  0.23087000  0.25114400  1
  O  O5  1  0.97972700  0.23087000  0.74885600  1
  O  O6  1  0.51954500  0.25018700  0.73064200  1
  O  O7  1  0.51954500  0.78890300  0.26935800  1
loop_
_geom_bond_atom_site_label_1
_geom_bond_atom_site_label_2
_geom_bond_distance
_geom_bond_site_symmetry_2
Li0 O7 1.970066 1_555
Li0 O6 1.970066 1_554
Li0 O5 2.060767 1_454
Li0 O4 2.060773 1_555
Cu0 O3 2.015397 1_455
Cu0 O2 2.015398 1_455
Cu0 O1 2.143119 1_555
Cu0 O0 2.143124 1_455
O0 Ru0 2.078811 1_565
O0 Ru1 2.078811 1_554
O0 Rh1 2.087409 1_655
O1 Ru0 2.078811 1_566
O1 Ru1 2.078815 1_555
O1 Rh0 2.087413 1_555
O2 Ru1 2.051737 1_555
O2 Rh1 2.065419 1_656
O2 Rh0 2.065423 1_555
O3 Ru0 2.051741 1_555
O3 Rh0 2.065419 1_544
O3 Rh1 2.065419 1_645
O4 Ru1 2.011979 1_555
O4 Ru0 2.011979 1_555
O4 Rh1 2.072468 1_545
O5 Ru0 2.011980 1_555
O5 Ru1 2.011983 1_555
O5 Rh0 2.072472 1_545
O6 Rh1 2.059633 1_545
O6 Rh0 2.059633 1_545
O6 Ru1 2.059739 1_555
O7 Rh1 2.059633 1_555
O7 Rh0 2.059633 1_555
O7 Ru0 2.059739 1_565
