# generated using pymatgen
data_CeMg
_symmetry_space_group_name_H-M   'P 1'
_cell_length_a   6.14183662
_cell_length_b   6.14184001
_cell_length_c   12.05234896
_cell_angle_alpha   90.00000000
_cell_angle_beta   90.00000000
_cell_angle_gamma   120.00000380
_symmetry_Int_Tables_number   1
_chemical_formula_structural   CeMg
_chemical_formula_sum   'Ce8 Mg8'
_cell_volume   393.73051179
_cell_formula_units_Z   8
loop_
 _symmetry_equiv_pos_site_id
 _symmetry_equiv_pos_as_xyz
  1  'x, y, z'
loop_
 _atom_site_type_symbol
 _atom_site_label
 _atom_site_symmetry_multiplicity
 _atom_site_fract_x
 _atom_site_fract_y
 _atom_site_fract_z
 _atom_site_occupancy
  Ce  Ce0_0  1  0.16666650  0.33333350  0.25000000  1
  Ce  Ce0_1  1  0.16666650  0.33333350  0.75000000  1
  Ce  Ce0_2  1  0.16666650  0.83333350  0.25000000  1
  Ce  Ce0_3  1  0.16666650  0.83333350  0.75000000  1
  Ce  Ce0_4  1  0.66666650  0.33333350  0.25000000  1
  Ce  Ce0_5  1  0.66666650  0.33333350  0.75000000  1
  Ce  Ce0_6  1  0.66666650  0.83333350  0.25000000  1
  Ce  Ce0_7  1  0.66666650  0.83333350  0.75000000  1
  Mg  Mg0_0  1  0.00000000  0.00000000  0.00000000  1
  Mg  Mg0_1  1  0.00000000  0.00000000  0.50000000  1
  Mg  Mg0_2  1  0.00000000  0.50000000  0.00000000  1
  Mg  Mg0_3  1  0.00000000  0.50000000  0.50000000  1
  Mg  Mg0_4  1  0.50000000  0.00000000  0.00000000  1
  Mg  Mg0_5  1  0.50000000  0.00000000  0.50000000  1
  Mg  Mg0_6  1  0.50000000  0.50000000  0.00000000  1
  Mg  Mg0_7  1  0.50000000  0.50000000  0.50000000  1
loop_
_geom_bond_atom_site_label_1
_geom_bond_atom_site_label_2
_geom_bond_distance
_geom_bond_site_symmetry_2
Ce0_0 Ce0_4 3.070918 1_455
Ce0_0 Ce0_4 3.070918 1_555
Ce0_0 Ce0_6 3.070919 1_445
Ce0_0 Ce0_6 3.070919 1_555
Ce0_0 Ce0_2 3.070920 1_555
Ce0_0 Ce0_2 3.070920 1_545
Ce0_0 Mg0_3 3.496027 1_555
Ce0_0 Mg0_2 3.496027 1_555
Ce0_0 Mg0_6 3.496028 1_555
Ce0_0 Mg0_7 3.496028 1_555
Ce0_0 Mg0_0 3.496028 1_555
Ce0_0 Mg0_1 3.496028 1_555
Ce0_1 Ce0_5 3.070918 1_455
Ce0_1 Ce0_5 3.070918 1_555
Ce0_1 Ce0_7 3.070919 1_555
Ce0_1 Ce0_7 3.070919 1_445
Ce0_1 Ce0_3 3.070920 1_555
Ce0_1 Ce0_3 3.070920 1_545
Ce0_1 Mg0_3 3.496027 1_555
Ce0_1 Mg0_2 3.496027 1_556
Ce0_1 Mg0_7 3.496028 1_555
Ce0_1 Mg0_6 3.496028 1_556
Ce0_1 Mg0_0 3.496028 1_556
Ce0_1 Mg0_1 3.496028 1_555
Ce0_2 Ce0_6 3.070918 1_555
Ce0_2 Ce0_6 3.070918 1_455
Ce0_2 Ce0_4 3.070919 1_455
Ce0_2 Ce0_4 3.070919 1_565
Ce0_2 Mg0_0 3.496027 1_565
Ce0_2 Mg0_1 3.496027 1_565
Ce0_2 Mg0_4 3.496028 1_565
Ce0_2 Mg0_5 3.496028 1_565
Ce0_2 Mg0_3 3.496028 1_555
Ce0_2 Mg0_2 3.496028 1_555
Ce0_3 Ce0_7 3.070918 1_555
Ce0_3 Ce0_7 3.070918 1_455
Ce0_3 Ce0_5 3.070919 1_455
Ce0_3 Ce0_5 3.070919 1_565
Ce0_3 Mg0_0 3.496027 1_566
Ce0_3 Mg0_1 3.496027 1_565
Ce0_3 Mg0_5 3.496028 1_565
Ce0_3 Mg0_4 3.496028 1_566
Ce0_3 Mg0_3 3.496028 1_555
Ce0_3 Mg0_2 3.496028 1_556
Ce0_4 Ce0_6 3.070920 1_555
Ce0_4 Ce0_6 3.070920 1_545
Ce0_4 Mg0_6 3.496027 1_555
Ce0_4 Mg0_7 3.496027 1_555
Ce0_4 Mg0_3 3.496028 1_655
Ce0_4 Mg0_2 3.496028 1_655
Ce0_4 Mg0_4 3.496028 1_555
Ce0_4 Mg0_5 3.496028 1_555
Ce0_5 Ce0_7 3.070920 1_545
Ce0_5 Ce0_7 3.070920 1_555
Ce0_5 Mg0_6 3.496027 1_556
Ce0_5 Mg0_7 3.496027 1_555
Ce0_5 Mg0_2 3.496028 1_656
Ce0_5 Mg0_3 3.496028 1_655
Ce0_5 Mg0_5 3.496028 1_555
Ce0_5 Mg0_4 3.496028 1_556
Ce0_6 Mg0_4 3.496027 1_565
Ce0_6 Mg0_5 3.496027 1_565
Ce0_6 Mg0_0 3.496028 1_665
Ce0_6 Mg0_1 3.496028 1_665
Ce0_6 Mg0_7 3.496028 1_555
Ce0_6 Mg0_6 3.496028 1_555
Ce0_7 Mg0_5 3.496027 1_565
Ce0_7 Mg0_4 3.496027 1_566
Ce0_7 Mg0_0 3.496028 1_666
Ce0_7 Mg0_1 3.496028 1_665
Ce0_7 Mg0_7 3.496028 1_555
Ce0_7 Mg0_6 3.496028 1_556
Mg0_0 Mg0_4 3.070918 1_555
Mg0_0 Mg0_4 3.070918 1_455
Mg0_0 Mg0_6 3.070919 1_445
Mg0_0 Mg0_6 3.070919 1_555
Mg0_0 Mg0_2 3.070920 1_555
Mg0_0 Mg0_2 3.070920 1_545
Mg0_1 Mg0_5 3.070918 1_455
Mg0_1 Mg0_5 3.070918 1_555
Mg0_1 Mg0_7 3.070919 1_445
Mg0_1 Mg0_7 3.070919 1_555
Mg0_1 Mg0_3 3.070920 1_555
Mg0_1 Mg0_3 3.070920 1_545
Mg0_2 Mg0_6 3.070918 1_455
Mg0_2 Mg0_6 3.070918 1_555
Mg0_2 Mg0_4 3.070919 1_565
Mg0_2 Mg0_4 3.070919 1_455
Mg0_3 Mg0_7 3.070918 1_455
Mg0_3 Mg0_7 3.070918 1_555
Mg0_3 Mg0_5 3.070919 1_565
Mg0_3 Mg0_5 3.070919 1_455
Mg0_4 Mg0_6 3.070920 1_555
Mg0_4 Mg0_6 3.070920 1_545
Mg0_5 Mg0_7 3.070920 1_555
Mg0_5 Mg0_7 3.070920 1_545
