# generated using pymatgen
data_Co(IO3)2
_symmetry_space_group_name_H-M   'P 1'
_cell_length_a   5.50524746
_cell_length_b   5.50524746
_cell_length_c   4.53985600
_cell_angle_alpha   90.00000000
_cell_angle_beta   90.00000000
_cell_angle_gamma   119.99999353
_symmetry_Int_Tables_number   1
_chemical_formula_structural   Co(IO3)2
_chemical_formula_sum   'Co1 I2 O6'
_cell_volume   119.15888433
_cell_formula_units_Z   1
loop_
 _symmetry_equiv_pos_site_id
 _symmetry_equiv_pos_as_xyz
  1  'x, y, z'
loop_
 _atom_site_type_symbol
 _atom_site_label
 _atom_site_symmetry_multiplicity
 _atom_site_fract_x
 _atom_site_fract_y
 _atom_site_fract_z
 _atom_site_occupancy
  Co  Co0  1  0.00000000  0.00000000  0.00000000  1
  I  I0  1  0.66666700  0.33333300  0.50000000  1
  I  I1  1  0.33333300  0.66666700  0.50000000  1
  O  O0  1  0.65688700  0.00000000  0.74363600  1
  O  O1  1  0.34311300  0.34311300  0.74363600  1
  O  O2  1  0.00000000  0.65688700  0.74363600  1
  O  O3  1  0.34311300  0.00000000  0.25636400  1
  O  O4  1  0.65688700  0.65688700  0.25636400  1
  O  O5  1  0.00000000  0.34311300  0.25636400  1
loop_
_geom_bond_atom_site_label_1
_geom_bond_atom_site_label_2
_geom_bond_distance
_geom_bond_site_symmetry_2
Co0 O3 2.218690 1_555
Co0 O5 2.218690 1_555
Co0 O0 2.218690 1_454
Co0 O2 2.218690 1_544
Co0 O4 2.218690 1_445
Co0 O1 2.218690 1_554
I0 O5 2.120145 1_655
I0 O0 2.120145 1_555
I0 O2 2.120147 1_655
I0 O3 2.120147 1_555
I0 O4 2.120149 1_555
I0 O1 2.120149 1_555
I1 O3 2.120145 1_565
I1 O2 2.120145 1_555
I1 O0 2.120147 1_565
I1 O5 2.120147 1_555
I1 O1 2.120149 1_555
I1 O4 2.120149 1_555
