# generated using pymatgen
data_ZrFeCo
_symmetry_space_group_name_H-M   'P 1'
_cell_length_a   4.93795642
_cell_length_b   4.93795642
_cell_length_c   4.93795642
_cell_angle_alpha   120.99642923
_cell_angle_beta   118.58784603
_cell_angle_gamma   90.37298342
_symmetry_Int_Tables_number   1
_chemical_formula_structural   ZrFeCo
_chemical_formula_sum   'Zr2 Fe2 Co2'
_cell_volume   85.35738959
_cell_formula_units_Z   2
loop_
 _symmetry_equiv_pos_site_id
 _symmetry_equiv_pos_as_xyz
  1  'x, y, z'
loop_
 _atom_site_type_symbol
 _atom_site_label
 _atom_site_symmetry_multiplicity
 _atom_site_fract_x
 _atom_site_fract_y
 _atom_site_fract_z
 _atom_site_occupancy
  Zr  Zr0  1  0.12878500  0.87878500  0.25000000  1
  Zr  Zr1  1  0.87121500  0.12121500  0.75000000  1
  Fe  Fe0  1  0.50000000  0.50000000  0.50000000  1
  Fe  Fe1  1  0.50000000  0.00000000  0.00000000  1
  Co  Co0  1  0.50000000  0.50000000  0.00000000  1
  Co  Co1  1  0.00000000  0.50000000  0.50000000  1
loop_
_geom_bond_atom_site_label_1
_geom_bond_atom_site_label_2
_geom_bond_distance
_geom_bond_site_symmetry_2
Zr0 Zr1 3.021160 1_465
Zr0 Zr1 3.021160 1_454
Zr0 Zr1 3.034038 1_464
Zr0 Zr1 3.034038 1_565
Fe0 Fe1 2.431700 1_555
Fe0 Fe1 2.431700 1_566
Fe0 Zr1 2.855633 1_565
Fe0 Zr0 2.855633 1_545
Fe0 Zr0 2.939347 1_555
Fe0 Zr0 2.939347 1_656
Fe0 Zr1 2.939347 1_454
Fe0 Zr1 2.939347 1_555
Fe1 Zr1 2.855633 1_554
Fe1 Zr0 2.855633 1_545
Fe1 Zr0 2.939347 1_544
Fe1 Zr0 2.939347 1_645
Fe1 Zr1 2.939347 1_454
Fe1 Zr1 2.939347 1_555
Co0 Fe1 2.468978 1_555
Co0 Fe1 2.468978 1_565
Co0 Fe0 2.468978 1_554
Co0 Fe0 2.468978 1_555
Co0 Co1 2.521489 1_655
Co0 Co1 2.521489 1_554
Co0 Zr1 2.866097 1_565
Co0 Zr0 2.866097 1_555
Co0 Zr0 2.866097 1_544
Co0 Zr1 2.866097 1_554
Co0 Zr0 2.922482 1_655
Co0 Zr1 2.922482 1_454
Co1 Fe1 2.468978 1_566
Co1 Fe0 2.468978 1_455
Co1 Fe1 2.468978 1_455
Co1 Fe0 2.468978 1_555
Co1 Zr1 2.866097 1_465
Co1 Zr1 2.866097 1_454
Co1 Zr0 2.866097 1_556
Co1 Zr0 2.866097 1_545
Co1 Zr0 2.922482 1_555
Co1 Zr1 2.922482 1_455
