# generated using pymatgen
data_HoAsSe
_symmetry_space_group_name_H-M   'P 1'
_cell_length_a   3.87903652
_cell_length_b   3.92812747
_cell_length_c   17.40092576
_cell_angle_alpha   90.00000000
_cell_angle_beta   90.00000000
_cell_angle_gamma   90.00000000
_symmetry_Int_Tables_number   1
_chemical_formula_structural   HoAsSe
_chemical_formula_sum   'Ho4 As4 Se4'
_cell_volume   265.14399459
_cell_formula_units_Z   4
loop_
 _symmetry_equiv_pos_site_id
 _symmetry_equiv_pos_as_xyz
  1  'x, y, z'
loop_
 _atom_site_type_symbol
 _atom_site_label
 _atom_site_symmetry_multiplicity
 _atom_site_fract_x
 _atom_site_fract_y
 _atom_site_fract_z
 _atom_site_occupancy
  Ho  Ho0  1  0.75000000  0.73108230  0.63985208  1
  Ho  Ho1  1  0.25000000  0.26891770  0.36014792  1
  Ho  Ho2  1  0.75000000  0.76891770  0.13985208  1
  Ho  Ho3  1  0.25000000  0.23108230  0.86014792  1
  As  As0  1  0.25000000  0.70910657  0.99789877  1
  As  As1  1  0.75000000  0.29089343  0.00210123  1
  As  As2  1  0.25000000  0.79089343  0.49789877  1
  As  As3  1  0.75000000  0.20910657  0.50210123  1
  Se  Se0  1  0.75000000  0.73389388  0.81248548  1
  Se  Se1  1  0.25000000  0.26610612  0.18751452  1
  Se  Se2  1  0.75000000  0.76610612  0.31248548  1
  Se  Se3  1  0.25000000  0.23389388  0.68751452  1
loop_
_geom_bond_atom_site_label_1
_geom_bond_atom_site_label_2
_geom_bond_distance
_geom_bond_site_symmetry_2
Ho0 Se3 2.874695 1_655
Ho0 Se3 2.874695 1_555
Ho0 Se3 2.889747 1_565
Ho0 Se3 2.889747 1_665
Ho0 Se0 3.004001 1_555
Ho1 Se2 2.874695 1_555
Ho1 Se2 2.874695 1_455
Ho1 Se2 2.889747 1_545
Ho1 Se2 2.889747 1_445
Ho1 Se1 3.004001 1_555
Ho2 Se1 2.874695 1_565
Ho2 Se1 2.874695 1_665
Ho2 Se1 2.889747 1_555
Ho2 Se1 2.889747 1_655
Ho2 Se2 3.004001 1_555
Ho3 Se0 2.874695 1_545
Ho3 Se0 2.874695 1_445
Ho3 Se0 2.889747 1_455
Ho3 Se0 2.889747 1_555
Ho3 Se3 3.004001 1_555
As0 As1 2.542804 1_556
As0 As1 2.542804 1_456
As0 As1 2.998304 1_566
As0 As1 2.998304 1_466
As0 Ho3 3.044911 1_555
As0 Ho2 3.149352 1_556
As0 Ho2 3.149352 1_456
As0 Ho3 3.154308 1_565
As1 Ho2 3.044911 1_555
As1 Ho3 3.149352 1_654
As1 Ho3 3.149352 1_554
As1 Ho2 3.154308 1_545
As2 As3 2.542804 1_465
As2 As3 2.542804 1_565
As2 As3 2.998304 1_555
As2 As3 2.998304 1_455
As2 Ho1 3.044911 1_565
As2 Ho0 3.149352 1_555
As2 Ho0 3.149352 1_455
As2 Ho1 3.154308 1_555
As3 Ho0 3.044911 1_545
As3 Ho1 3.149352 1_555
As3 Ho1 3.149352 1_655
As3 Ho0 3.154308 1_555
