# generated using pymatgen
data_Mn(SbO2)2
_symmetry_space_group_name_H-M   'P 1'
_cell_length_a   6.01248127
_cell_length_b   8.68449002
_cell_length_c   8.68449002
_cell_angle_alpha   90.00000000
_cell_angle_beta   90.00000000
_cell_angle_gamma   90.00000000
_symmetry_Int_Tables_number   1
_chemical_formula_structural   Mn(SbO2)2
_chemical_formula_sum   'Mn4 Sb8 O16'
_cell_volume   453.46354341
_cell_formula_units_Z   4
loop_
 _symmetry_equiv_pos_site_id
 _symmetry_equiv_pos_as_xyz
  1  'x, y, z'
loop_
 _atom_site_type_symbol
 _atom_site_label
 _atom_site_symmetry_multiplicity
 _atom_site_fract_x
 _atom_site_fract_y
 _atom_site_fract_z
 _atom_site_occupancy
  Mn  Mn0  1  0.75000000  0.50000000  0.00000000  1
  Mn  Mn1  1  0.75000000  -0.00000000  0.50000000  1
  Mn  Mn2  1  0.25000000  -0.00000000  0.50000000  1
  Mn  Mn3  1  0.25000000  0.50000000  0.00000000  1
  Sb  Sb0  1  0.00000000  0.82145475  0.83322699  1
  Sb  Sb1  1  0.50000000  0.16677301  0.82145475  1
  Sb  Sb2  1  0.50000000  0.83322699  0.17854525  1
  Sb  Sb3  1  -0.00000000  0.17854525  0.16677301  1
  Sb  Sb4  1  -0.00000000  0.67854525  0.33322699  1
  Sb  Sb5  1  0.00000000  0.32145475  0.66677301  1
  Sb  Sb6  1  0.50000000  0.66677301  0.67854525  1
  Sb  Sb7  1  0.50000000  0.33322699  0.32145475  1
  O  O0  1  0.50000000  0.85509079  0.40172892  1
  O  O1  1  0.50000000  0.14490921  0.59827108  1
  O  O2  1  -0.00000000  0.40172892  0.14490921  1
  O  O3  1  0.00000000  0.59827108  0.85509079  1
  O  O4  1  -0.00000000  0.90172892  0.35509079  1
  O  O5  1  0.50000000  0.64490921  0.90172892  1
  O  O6  1  0.50000000  0.35509079  0.09827108  1
  O  O7  1  0.00000000  0.09827108  0.64490921  1
  O  O8  1  0.75000000  0.67922276  0.17922276  1
  O  O9  1  0.25000000  0.82077724  0.67922276  1
  O  O10  1  0.25000000  0.17922276  0.32077724  1
  O  O11  1  0.75000000  0.32077724  0.82077724  1
  O  O12  1  0.25000000  0.67922276  0.17922276  1
  O  O13  1  0.75000000  0.82077724  0.67922276  1
  O  O14  1  0.75000000  0.17922276  0.32077724  1
  O  O15  1  0.25000000  0.32077724  0.82077724  1
loop_
_geom_bond_atom_site_label_1
_geom_bond_atom_site_label_2
_geom_bond_distance
_geom_bond_site_symmetry_2
Mn0 O5 2.138095 1_554
Mn0 O2 2.138095 1_655
Mn0 O6 2.138095 1_555
Mn0 O3 2.138095 1_654
Mn0 O8 2.201164 1_555
Mn0 O11 2.201164 1_554
Mn1 O4 2.138095 1_645
Mn1 O7 2.138095 1_655
Mn1 O0 2.138095 1_545
Mn1 O1 2.138095 1_555
Mn1 O14 2.201164 1_555
Mn1 O13 2.201164 1_545
Mn2 O4 2.138095 1_545
Mn2 O0 2.138095 1_545
Mn2 O7 2.138095 1_555
Mn2 O1 2.138095 1_555
Mn2 O10 2.201164 1_555
Mn2 O9 2.201164 1_545
Mn3 O5 2.138095 1_554
Mn3 O6 2.138095 1_555
Mn3 O2 2.138095 1_555
Mn3 O3 2.138095 1_554
Mn3 O12 2.201164 1_555
Mn3 O15 2.201164 1_554
O0 Sb2 1.947515 1_555
O1 Sb1 1.947515 1_555
O2 Sb3 1.947515 1_555
O3 Sb0 1.947515 1_555
O4 Sb4 1.947515 1_555
O5 Sb6 1.947515 1_555
O6 Sb7 1.947515 1_555
O7 Sb5 1.947515 1_555
O8 Sb2 2.012007 1_555
O8 Sb4 2.012007 1_655
O9 Sb0 2.012007 1_555
O9 Sb6 2.012007 1_555
O10 Sb3 2.012007 1_555
O10 Sb7 2.012007 1_555
O11 Sb5 2.012007 1_655
O11 Sb1 2.012007 1_555
O12 Sb2 2.012007 1_555
O12 Sb4 2.012007 1_555
O13 Sb0 2.012007 1_655
O13 Sb6 2.012007 1_555
O14 Sb7 2.012007 1_555
O14 Sb3 2.012007 1_655
O15 Sb5 2.012007 1_555
O15 Sb1 2.012007 1_555
