# generated using pymatgen
data_Na3Ru
_symmetry_space_group_name_H-M   'P 1'
_cell_length_a   4.79496900
_cell_length_b   9.41010500
_cell_length_c   9.41010500
_cell_angle_alpha   90.00000000
_cell_angle_beta   90.00000000
_cell_angle_gamma   90.00000000
_symmetry_Int_Tables_number   1
_chemical_formula_structural   Na3Ru
_chemical_formula_sum   'Na12 Ru4'
_cell_volume   424.59486990
_cell_formula_units_Z   4
loop_
 _symmetry_equiv_pos_site_id
 _symmetry_equiv_pos_as_xyz
  1  'x, y, z'
loop_
 _atom_site_type_symbol
 _atom_site_label
 _atom_site_symmetry_multiplicity
 _atom_site_fract_x
 _atom_site_fract_y
 _atom_site_fract_z
 _atom_site_occupancy
  Na  Na0  1  0.50000000  0.96773500  0.69781300  1
  Na  Na1  1  0.50000000  0.03226500  0.30218700  1
  Na  Na2  1  0.00000000  0.53226500  0.19781300  1
  Na  Na3  1  0.00000000  0.46773500  0.80218700  1
  Na  Na4  1  0.50000000  0.69781300  0.96773500  1
  Na  Na5  1  0.50000000  0.30218700  0.03226500  1
  Na  Na6  1  0.00000000  0.19781300  0.53226500  1
  Na  Na7  1  0.00000000  0.80218700  0.46773500  1
  Na  Na8  1  0.50000000  0.37787400  0.37787400  1
  Na  Na9  1  0.50000000  0.62212600  0.62212600  1
  Na  Na10  1  0.00000000  0.12212600  0.87787400  1
  Na  Na11  1  0.00000000  0.87787400  0.12212600  1
  Ru  Ru0  1  0.50000000  0.29111700  0.70888300  1
  Ru  Ru1  1  0.50000000  0.70888300  0.29111700  1
  Ru  Ru2  1  0.00000000  0.20888300  0.20888300  1
  Ru  Ru3  1  0.00000000  0.79111700  0.79111700  1
loop_
_geom_bond_atom_site_label_1
_geom_bond_atom_site_label_2
_geom_bond_distance
_geom_bond_site_symmetry_2
Na0 Ru0 3.044841 1_565
Na0 Ru3 3.046480 1_555
Na0 Ru3 3.046480 1_655
Na1 Ru1 3.044841 1_545
Na1 Ru2 3.046480 1_655
Na1 Ru2 3.046480 1_555
Na2 Ru2 3.044841 1_555
Na2 Ru1 3.046480 1_555
Na2 Ru1 3.046480 1_455
Na3 Ru3 3.044841 1_555
Na3 Ru0 3.046480 1_555
Na3 Ru0 3.046480 1_455
Na4 Ru1 3.044841 1_556
Na4 Ru3 3.046480 1_555
Na4 Ru3 3.046480 1_655
Na5 Ru0 3.044841 1_554
Na5 Ru2 3.046480 1_655
Na5 Ru2 3.046480 1_555
Na6 Ru2 3.044841 1_555
Na6 Ru0 3.046480 1_455
Na6 Ru0 3.046480 1_555
Na7 Ru3 3.044841 1_555
Na7 Ru1 3.046480 1_455
Na7 Ru1 3.046480 1_555
Na8 Ru1 3.220040 1_555
Na8 Ru0 3.220040 1_555
Na8 Ru2 3.287180 1_655
Na8 Ru2 3.287180 1_555
Na9 Ru0 3.220040 1_555
Na9 Ru1 3.220040 1_555
Na9 Ru3 3.287180 1_655
Na9 Ru3 3.287180 1_555
Na10 Ru2 3.220040 1_556
Na10 Ru3 3.220040 1_545
Na10 Ru0 3.287180 1_555
Na10 Ru0 3.287180 1_455
Na11 Ru2 3.220040 1_565
Na11 Ru3 3.220040 1_554
Na11 Ru1 3.287180 1_555
Na11 Ru1 3.287180 1_455
