# generated using pymatgen
data_K2LiH2(SeO3)2
_symmetry_space_group_name_H-M   'P 1'
_cell_length_a   5.88200073
_cell_length_b   5.87005502
_cell_length_c   6.90107424
_cell_angle_alpha   113.68755878
_cell_angle_beta   98.72628753
_cell_angle_gamma   103.49336045
_symmetry_Int_Tables_number   1
_chemical_formula_structural   K2LiH2(SeO3)2
_chemical_formula_sum   'K2 Li1 H2 Se2 O6'
_cell_volume   203.95993536
_cell_formula_units_Z   1
loop_
 _symmetry_equiv_pos_site_id
 _symmetry_equiv_pos_as_xyz
  1  'x, y, z'
loop_
 _atom_site_type_symbol
 _atom_site_label
 _atom_site_symmetry_multiplicity
 _atom_site_fract_x
 _atom_site_fract_y
 _atom_site_fract_z
 _atom_site_occupancy
  K  K0  1  0.36657300  0.71263200  0.21658200  1
  K  K1  1  0.74834500  0.35172400  0.86818700  1
  Li  Li0  1  0.36619900  0.50336600  0.56750900  1
  H  H0  1  0.25033800  0.13273600  0.08574600  1
  H  H1  1  0.66452200  0.85844900  0.78693900  1
  Se  Se0  1  0.92111900  0.14404200  0.30531200  1
  Se  Se1  1  0.10958700  0.83797500  0.69620500  1
  O  O0  1  0.27438900  0.14712700  0.94482400  1
  O  O1  1  0.75956200  0.87665700  0.05942500  1
  O  O2  1  0.93574400  0.41914600  0.26847700  1
  O  O3  1  0.15261000  0.60101100  0.76975800  1
  O  O4  1  0.22797500  0.15367500  0.32076500  1
  O  O5  1  0.61053700  0.81354400  0.62878900  1
loop_
_geom_bond_atom_site_label_1
_geom_bond_atom_site_label_2
_geom_bond_distance
_geom_bond_site_symmetry_2
K0 O5 2.740986 1_555
K0 O4 2.747971 1_565
K0 O1 2.829794 1_555
K0 O2 2.872603 1_455
K0 O3 2.887185 1_554
K0 O0 2.946159 1_554
K1 O2 2.645130 1_556
K1 O5 2.751671 1_545
K1 O1 2.802175 1_556
K1 O3 2.814610 1_655
K1 O0 2.981487 1_555
Li0 O5 1.880232 1_555
Li0 O4 1.940810 1_555
Li0 O3 2.019972 1_555
H0 O0 1.036875 1_554
H0 O4 1.604686 1_555
H1 O5 0.993027 1_555
H1 K1 2.624324 1_565
O0 Se1 1.830118 1_545
O1 Se0 1.708989 1_565
O2 Se0 1.717989 1_555
O3 Se1 1.717312 1_555
O4 Se0 1.778048 1_455
