# generated using pymatgen
data_K2Se2O7
_symmetry_space_group_name_H-M   'P 1'
_cell_length_a   7.44079372
_cell_length_b   7.44079372
_cell_length_c   7.49041844
_cell_angle_alpha   87.06398487
_cell_angle_beta   87.06398487
_cell_angle_gamma   60.89663196
_symmetry_Int_Tables_number   1
_chemical_formula_structural   K2Se2O7
_chemical_formula_sum   'K4 Se4 O14'
_cell_volume   361.71017137
_cell_formula_units_Z   2
loop_
 _symmetry_equiv_pos_site_id
 _symmetry_equiv_pos_as_xyz
  1  'x, y, z'
loop_
 _atom_site_type_symbol
 _atom_site_label
 _atom_site_symmetry_multiplicity
 _atom_site_fract_x
 _atom_site_fract_y
 _atom_site_fract_z
 _atom_site_occupancy
  K  K0  1  0.79356785  0.49904665  0.63520701  1
  K  K1  1  0.50095335  0.20643215  0.86479299  1
  K  K2  1  0.20643215  0.50095335  0.36479299  1
  K  K3  1  0.49904665  0.79356785  0.13520701  1
  Se  Se0  1  0.28526940  0.92680255  0.62885406  1
  Se  Se1  1  0.07319745  0.71473060  0.87114594  1
  Se  Se2  1  0.71473060  0.07319745  0.37114594  1
  Se  Se3  1  0.92680255  0.28526940  0.12885406  1
  O  O0  1  0.35424530  0.75516584  0.47611345  1
  O  O1  1  0.24483416  0.64575470  0.02388655  1
  O  O2  1  0.64575470  0.24483416  0.52388655  1
  O  O3  1  0.75516584  0.35424530  0.97611345  1
  O  O4  1  0.46466858  0.85893669  0.77397420  1
  O  O5  1  0.14106331  0.53533142  0.72602580  1
  O  O6  1  0.53533142  0.14106331  0.22602580  1
  O  O7  1  0.85893669  0.46466858  0.27397420  1
  O  O8  1  0.18699329  0.16392781  0.55678167  1
  O  O9  1  0.83607219  0.81300671  0.94321833  1
  O  O10  1  0.81300671  0.83607219  0.44321833  1
  O  O11  1  0.16392781  0.18699329  0.05678167  1
  O  O12  1  0.06477723  0.93522277  0.75000000  1
  O  O13  1  0.93522277  0.06477723  0.25000000  1
loop_
_geom_bond_atom_site_label_1
_geom_bond_atom_site_label_2
_geom_bond_distance
_geom_bond_site_symmetry_2
K0 O7 2.727331 1_555
K0 O3 2.775957 1_555
K0 O2 2.786067 1_555
K0 O4 2.808919 1_555
K0 O8 2.829409 1_655
K0 O5 2.845926 1_655
K0 O10 2.887876 1_555
K0 O0 3.137520 1_555
K1 O6 2.727331 1_556
K1 O2 2.775957 1_555
K1 O3 2.786067 1_555
K1 O5 2.808919 1_555
K1 O9 2.829409 1_545
K1 O4 2.845926 1_545
K1 O11 2.887876 1_556
K1 O1 3.137520 1_556
K2 O5 2.727331 1_555
K2 O1 2.775957 1_555
K2 O0 2.786067 1_555
K2 O6 2.808919 1_555
K2 O10 2.829409 1_455
K2 O7 2.845926 1_455
K2 O8 2.887876 1_555
K2 O2 3.137520 1_555
K3 O4 2.727331 1_554
K3 O0 2.775957 1_555
K3 O1 2.786067 1_555
K3 O7 2.808919 1_555
K3 O11 2.829409 1_565
K3 O6 2.845926 1_565
K3 O9 2.887876 1_554
K3 O3 3.137520 1_554
O0 Se0 1.629505 1_555
O1 Se1 1.629505 1_554
O2 Se2 1.629505 1_555
O3 Se3 1.629505 1_556
O4 Se0 1.629467 1_555
O5 Se1 1.629467 1_555
O6 Se2 1.629467 1_555
O7 Se3 1.629467 1_555
O8 Se0 1.620817 1_545
O9 Se1 1.620817 1_655
O10 Se2 1.620817 1_565
O11 Se3 1.620817 1_455
O12 Se1 1.808969 1_555
O12 Se0 1.808969 1_555
O13 Se3 1.808969 1_555
O13 Se2 1.808969 1_555
