# generated using pymatgen
data_Li4FeP6(HO2)12
_symmetry_space_group_name_H-M   'P 1'
_cell_length_a   7.19961300
_cell_length_b   9.14630150
_cell_length_c   9.55049229
_cell_angle_alpha   62.01784411
_cell_angle_beta   71.88894712
_cell_angle_gamma   70.81520624
_symmetry_Int_Tables_number   1
_chemical_formula_structural   Li4FeP6(HO2)12
_chemical_formula_sum   'Li4 Fe1 P6 H12 O24'
_cell_volume   515.19495384
_cell_formula_units_Z   1
loop_
 _symmetry_equiv_pos_site_id
 _symmetry_equiv_pos_as_xyz
  1  'x, y, z'
loop_
 _atom_site_type_symbol
 _atom_site_label
 _atom_site_symmetry_multiplicity
 _atom_site_fract_x
 _atom_site_fract_y
 _atom_site_fract_z
 _atom_site_occupancy
  Li  Li0  1  0.82977500  0.35302300  0.87448700  1
  Li  Li1  1  0.37002000  0.28771300  0.95671000  1
  Li  Li2  1  0.62998000  0.71228700  0.04329000  1
  Li  Li3  1  0.17022500  0.64697700  0.12551300  1
  Fe  Fe0  1  0.00000000  0.50000000  0.50000000  1
  P  P0  1  0.95859100  0.91730400  0.77085400  1
  P  P1  1  0.15292000  0.60847900  0.71469600  1
  P  P2  1  0.68851800  0.25204600  0.64105300  1
  P  P3  1  0.31148200  0.74795400  0.35894700  1
  P  P4  1  0.84708000  0.39152100  0.28530400  1
  P  P5  1  0.04140900  0.08269600  0.22914600  1
  H  H0  1  0.28398800  0.94987700  0.99873700  1
  H  H1  1  0.29511700  0.89024500  0.86943400  1
  H  H2  1  0.48931200  0.58228500  0.84793200  1
  H  H3  1  0.67819000  0.64924700  0.73491800  1
  H  H4  1  0.78434500  0.82401600  0.41680500  1
  H  H5  1  0.66459700  0.71454000  0.40748300  1
  H  H6  1  0.33540300  0.28546000  0.59251700  1
  H  H7  1  0.21565500  0.17598400  0.58319500  1
  H  H8  1  0.32181000  0.35075300  0.26508200  1
  H  H9  1  0.51068800  0.41771500  0.15206800  1
  H  H10  1  0.70488300  0.10975500  0.13056600  1
  H  H11  1  0.71601200  0.05012300  0.00126300  1
  O  O0  1  0.85764600  0.84802700  0.94562400  1
  O  O1  1  0.33752900  0.84835300  0.97443100  1
  O  O2  1  0.98820500  0.78246000  0.69560200  1
  O  O3  1  0.62723000  0.58177400  0.84777800  1
  O  O4  1  0.25709500  0.54752300  0.85152900  1
  O  O5  1  0.82193600  0.32554500  0.67409900  1
  O  O6  1  0.74555800  0.71221000  0.47678100  1
  O  O7  1  0.04463300  0.49267500  0.71418900  1
  O  O8  1  0.47625500  0.26257600  0.72915700  1
  O  O9  1  0.31642200  0.66284100  0.54917900  1
  O  O10  1  0.79419100  0.05945600  0.66449500  1
  O  O11  1  0.20580900  0.94054400  0.33550500  1
  O  O12  1  0.14859400  0.97747100  0.72401800  1
  O  O13  1  0.68357800  0.33715900  0.45082100  1
  O  O14  1  0.52374500  0.73742400  0.27084300  1
  O  O15  1  0.95536700  0.50732500  0.28581100  1
  O  O16  1  0.25444200  0.28779000  0.52321900  1
  O  O17  1  0.17806400  0.67445500  0.32590100  1
  O  O18  1  0.74290500  0.45247700  0.14847100  1
  O  O19  1  0.85140600  0.02252900  0.27598200  1
  O  O20  1  0.37277000  0.41822600  0.15222200  1
  O  O21  1  0.01179500  0.21754000  0.30439800  1
  O  O22  1  0.66247100  0.15164700  0.02556900  1
  O  O23  1  0.14235400  0.15197300  0.05437600  1
loop_
_geom_bond_atom_site_label_1
_geom_bond_atom_site_label_2
_geom_bond_distance
_geom_bond_site_symmetry_2
Li0 O5 2.063206 1_555
Li0 O3 2.072246 1_555
Li0 O7 2.087911 1_655
Li0 O22 2.192923 1_556
Li1 O4 2.077229 1_555
Li1 O23 2.097212 1_556
Li1 O8 2.163495 1_555
Li1 O22 2.187520 1_556
Li2 O18 2.077229 1_555
Li2 O0 2.097212 1_554
Li2 O14 2.163495 1_555
Li2 O1 2.187520 1_554
Li3 O17 2.063206 1_555
Li3 O20 2.072246 1_555
Li3 O15 2.087911 1_455
Li3 O1 2.192923 1_554
Fe0 O5 2.117473 1_455
Fe0 O17 2.117473 1_555
Fe0 O7 2.134993 1_555
Fe0 O15 2.134993 1_455
Fe0 O6 2.164264 1_455
Fe0 O16 2.164264 1_555
H0 O1 0.987982 1_555
H1 O1 0.999263 1_555
H2 O3 0.990977 1_555
H3 O3 0.977752 1_555
H4 O6 0.995181 1_555
H5 O6 0.998336 1_555
H6 O16 0.998336 1_555
H7 O16 0.995181 1_555
H8 O20 0.977752 1_555
H9 O20 0.990977 1_555
H10 O22 0.999263 1_555
H11 O22 0.987982 1_555
O0 P0 1.507218 1_555
O2 P1 1.610482 1_655
O2 P0 1.626884 1_555
O4 P1 1.493988 1_555
O5 P2 1.512004 1_555
O7 P1 1.509825 1_555
O8 P2 1.494179 1_555
O9 P3 1.613336 1_555
O9 P1 1.619245 1_555
O10 P2 1.608360 1_555
O10 P0 1.618625 1_545
O11 P3 1.608360 1_555
O11 P5 1.618625 1_565
O12 P0 1.502512 1_455
O13 P2 1.613336 1_555
O13 P4 1.619245 1_555
O14 P3 1.494179 1_555
O15 P4 1.509825 1_555
O17 P3 1.512004 1_555
O18 P4 1.493988 1_555
O19 P5 1.502512 1_655
O21 P4 1.610482 1_455
O21 P5 1.626884 1_555
O23 P5 1.507218 1_555
