# generated using pymatgen
data_Tm12Fe2Pb3
_symmetry_space_group_name_H-M   'P 1'
_cell_length_a   8.40145263
_cell_length_b   8.40145263
_cell_length_c   8.40144950
_cell_angle_alpha   109.92652984
_cell_angle_beta   109.92652984
_cell_angle_gamma   108.56439665
_symmetry_Int_Tables_number   1
_chemical_formula_structural   Tm12Fe2Pb3
_chemical_formula_sum   'Tm12 Fe2 Pb3'
_cell_volume   456.41469463
_cell_formula_units_Z   1
loop_
 _symmetry_equiv_pos_site_id
 _symmetry_equiv_pos_as_xyz
  1  'x, y, z'
loop_
 _atom_site_type_symbol
 _atom_site_label
 _atom_site_symmetry_multiplicity
 _atom_site_fract_x
 _atom_site_fract_y
 _atom_site_fract_z
 _atom_site_occupancy
  Tm  Tm0  1  0.45430927  0.20830815  0.24600112  1
  Tm  Tm1  1  0.54569073  0.79169185  0.75399888  1
  Tm  Tm2  1  0.96230802  0.20830915  0.75399888  1
  Tm  Tm3  1  0.20830915  0.96230802  0.75399888  1
  Tm  Tm4  1  0.03769198  0.79169085  0.24600112  1
  Tm  Tm5  1  0.79169085  0.03769198  0.24600112  1
  Tm  Tm6  1  0.20830815  0.45430927  0.24600112  1
  Tm  Tm7  1  0.79169185  0.54569073  0.75399888  1
  Tm  Tm8  1  0.30988509  0.30988509  0.61977018  1
  Tm  Tm9  1  0.69011491  0.69011491  0.38022982  1
  Tm  Tm10  1  0.30988409  0.69011591  0.00000000  1
  Tm  Tm11  1  0.69011591  0.30988409  0.00000000  1
  Fe  Fe0  1  0.38015553  0.38015553  0.00000000  1
  Fe  Fe1  1  0.61984447  0.61984447  -0.00000000  1
  Pb  Pb0  1  0.50000000  -0.00000000  0.50000000  1
  Pb  Pb1  1  -0.00000000  0.50000000  0.50000000  1
  Pb  Pb2  1  -0.00000000  -0.00000000  -0.00000000  1
loop_
_geom_bond_atom_site_label_1
_geom_bond_atom_site_label_2
_geom_bond_distance
_geom_bond_site_symmetry_2
Fe0 Fe1 2.351211 1_555
Fe0 Tm8 2.847603 1_554
Fe0 Tm9 2.847603 1_555
Fe0 Tm10 2.847616 1_555
Fe0 Tm11 2.847616 1_555
Fe0 Tm3 2.910856 1_544
Fe0 Tm2 2.910856 1_454
Fe0 Tm6 2.910861 1_555
Fe0 Tm0 2.910861 1_555
Fe1 Tm9 2.847603 1_555
Fe1 Tm8 2.847603 1_554
Fe1 Tm10 2.847616 1_555
Fe1 Tm11 2.847616 1_555
Fe1 Tm5 2.910856 1_565
Fe1 Tm4 2.910856 1_655
Fe1 Tm1 2.910861 1_554
Fe1 Tm7 2.910861 1_554
Pb0 Tm1 3.190452 1_545
Pb0 Tm0 3.190452 1_555
Pb0 Tm4 3.190459 1_545
Pb0 Tm2 3.190459 1_555
Pb0 Tm11 3.507058 1_556
Pb0 Tm10 3.507058 1_545
Pb0 Tm8 3.507063 1_555
Pb0 Tm9 3.507063 1_545
Pb0 Tm5 3.767057 1_555
Pb0 Tm3 3.767057 1_545
Pb0 Tm7 3.767065 1_555
Pb0 Tm6 3.767065 1_545
Pb1 Tm6 3.190452 1_555
Pb1 Tm7 3.190452 1_455
Pb1 Tm5 3.190459 1_455
Pb1 Tm3 3.190459 1_555
Pb1 Tm10 3.507058 1_556
Pb1 Tm11 3.507058 1_455
Pb1 Tm8 3.507063 1_555
Pb1 Tm9 3.507063 1_455
Pb1 Tm4 3.767057 1_555
Pb1 Tm2 3.767057 1_455
Pb1 Tm1 3.767065 1_555
Pb1 Tm0 3.767065 1_455
Pb2 Tm1 3.131592 1_444
Pb2 Tm0 3.131592 1_555
Pb2 Tm6 3.131592 1_555
Pb2 Tm7 3.131592 1_444
Pb2 Tm2 3.131598 1_454
Pb2 Tm3 3.131598 1_544
Pb2 Tm5 3.131598 1_455
Pb2 Tm4 3.131598 1_545
