# generated using pymatgen
data_PrH6(CO3)3
_symmetry_space_group_name_H-M   'P 1'
_cell_length_a   6.13988672
_cell_length_b   7.79603393
_cell_length_c   9.02285468
_cell_angle_alpha   98.88192273
_cell_angle_beta   98.43454726
_cell_angle_gamma   97.64521641
_symmetry_Int_Tables_number   1
_chemical_formula_structural   PrH6(CO3)3
_chemical_formula_sum   'Pr2 H12 C6 O18'
_cell_volume   416.71051710
_cell_formula_units_Z   2
loop_
 _symmetry_equiv_pos_site_id
 _symmetry_equiv_pos_as_xyz
  1  'x, y, z'
loop_
 _atom_site_type_symbol
 _atom_site_label
 _atom_site_symmetry_multiplicity
 _atom_site_fract_x
 _atom_site_fract_y
 _atom_site_fract_z
 _atom_site_occupancy
  Pr  Pr0  1  0.48726100  0.19527800  0.20544800  1
  Pr  Pr1  1  0.51273900  0.80472200  0.79455200  1
  H  H0  1  0.14465300  0.76030900  0.49589100  1
  H  H1  1  0.85534700  0.23969100  0.50410900  1
  H  H2  1  0.30057300  0.81819700  0.28210300  1
  H  H3  1  0.69942700  0.18180300  0.71789700  1
  H  H4  1  0.45684400  0.11524700  0.62224500  1
  H  H5  1  0.54315600  0.88475300  0.37775500  1
  H  H6  1  0.08108900  0.38935000  0.70408200  1
  H  H7  1  0.91891100  0.61065000  0.29591800  1
  H  H8  1  0.94767400  0.15040600  0.35699800  1
  H  H9  1  0.05232600  0.84959400  0.64300200  1
  H  H10  1  0.11088600  0.55075000  0.20971400  1
  H  H11  1  0.88911400  0.44925000  0.79028600  1
  C  C0  1  0.42012500  0.43408200  0.53144900  1
  C  C1  1  0.57987500  0.56591800  0.46855100  1
  C  C2  1  0.38163100  0.51659000  0.01375600  1
  C  C3  1  0.61836900  0.48341000  0.98624400  1
  C  C4  1  0.94488100  0.02998700  0.06938700  1
  C  C5  1  0.05511900  0.97001300  0.93061300  1
  O  O0  1  0.28324600  0.41798100  0.09174100  1
  O  O1  1  0.71675400  0.58201900  0.90825900  1
  O  O2  1  0.07789600  0.64168900  0.28914400  1
  O  O3  1  0.92210400  0.35831100  0.71085600  1
  O  O4  1  0.69515200  0.36099300  0.04261100  1
  O  O5  1  0.30484800  0.63900700  0.95738900  1
  O  O6  1  0.37406100  0.27757400  0.45886300  1
  O  O7  1  0.62593900  0.72242600  0.54113700  1
  O  O8  1  0.07486900  0.10314800  0.19088900  1
  O  O9  1  0.92513100  0.89685200  0.80911100  1
  O  O10  1  0.26665400  0.99918200  0.94950800  1
  O  O11  1  0.73334600  0.00081800  0.05049200  1
  O  O12  1  0.34937500  0.49264200  0.65094700  1
  O  O13  1  0.65062500  0.50735800  0.34905300  1
  O  O14  1  0.81304800  0.16445500  0.40301000  1
  O  O15  1  0.18695200  0.83554500  0.59699000  1
  O  O16  1  0.56109800  0.09778700  0.70973400  1
  O  O17  1  0.43890200  0.90221300  0.29026600  1
loop_
_geom_bond_atom_site_label_1
_geom_bond_atom_site_label_2
_geom_bond_distance
_geom_bond_site_symmetry_2
H0 O15 0.984044 1_555
H1 O14 0.984044 1_555
H2 O17 0.987180 1_555
H3 O16 0.987180 1_555
H4 O16 0.979566 1_555
H5 O17 0.979566 1_555
H6 O3 0.987106 1_455
H7 O2 0.987106 1_655
H8 O14 0.989101 1_555
H9 O15 0.989101 1_555
H10 O2 0.990551 1_555
H11 O3 0.990551 1_555
C0 O12 1.264055 1_555
C0 O6 1.266788 1_555
C1 O13 1.264055 1_555
C1 O7 1.266788 1_555
C2 O5 1.261348 1_554
C2 O0 1.272472 1_555
C3 O4 1.261348 1_556
C3 O1 1.272472 1_555
C4 O8 1.262249 1_655
C4 O11 1.269703 1_555
C5 O9 1.262249 1_455
C5 O10 1.269703 1_555
O0 Pr0 2.527406 1_555
O1 Pr1 2.527406 1_555
O4 Pr0 2.480841 1_555
O5 Pr1 2.480841 1_555
O6 Pr0 2.500952 1_555
O7 Pr1 2.500952 1_555
O8 Pr0 2.516695 1_555
O9 Pr1 2.516695 1_555
O10 Pr0 2.635519 1_566
O10 Pr1 2.666591 1_555
O11 Pr1 2.635519 1_544
O11 Pr0 2.666591 1_555
O12 Pr1 2.569112 1_555
O13 Pr0 2.569112 1_555
O14 Pr0 2.539810 1_555
O15 Pr1 2.539810 1_555
O16 Pr1 2.513961 1_545
O17 Pr0 2.513961 1_565
