# generated using pymatgen
data_K3Np(H3O4)2
_symmetry_space_group_name_H-M   'P 1'
_cell_length_a   7.68240022
_cell_length_b   7.80925661
_cell_length_c   8.31304160
_cell_angle_alpha   90.00000000
_cell_angle_beta   90.00000000
_cell_angle_gamma   119.55945121
_symmetry_Int_Tables_number   1
_chemical_formula_structural   K3Np(H3O4)2
_chemical_formula_sum   'K6 Np2 H12 O16'
_cell_volume   433.81851894
_cell_formula_units_Z   2
loop_
 _symmetry_equiv_pos_site_id
 _symmetry_equiv_pos_as_xyz
  1  'x, y, z'
loop_
 _atom_site_type_symbol
 _atom_site_label
 _atom_site_symmetry_multiplicity
 _atom_site_fract_x
 _atom_site_fract_y
 _atom_site_fract_z
 _atom_site_occupancy
  K  K0  1  0.50000000  0.50000000  -0.00000000  1
  K  K1  1  -0.00000000  0.50000000  0.50000000  1
  K  K2  1  0.54510292  0.08588703  0.19361799  1
  K  K3  1  0.95489708  0.91411297  0.69361799  1
  K  K4  1  0.45489708  0.91411297  0.80638201  1
  K  K5  1  0.04510292  0.08588703  0.30638201  1
  Np  Np0  1  -0.00000000  0.50000000  -0.00000000  1
  Np  Np1  1  0.50000000  0.50000000  0.50000000  1
  H  H0  1  0.14251647  0.30847264  0.78301573  1
  H  H1  1  0.35748353  0.69152736  0.28301573  1
  H  H2  1  0.85748353  0.69152736  0.21698427  1
  H  H3  1  0.64251647  0.30847264  0.71698427  1
  H  H4  1  0.12426879  0.92819284  0.03930579  1
  H  H5  1  0.37573121  0.07180716  0.53930579  1
  H  H6  1  0.87573121  0.07180716  0.96069421  1
  H  H7  1  0.62426879  0.92819284  0.46069421  1
  H  H8  1  0.18315791  0.13674023  0.96068500  1
  H  H9  1  0.31684209  0.86325977  0.46068500  1
  H  H10  1  0.81684209  0.86325977  0.03931500  1
  H  H11  1  0.68315791  0.13674023  0.53931500  1
  O  O0  1  0.73113372  0.32876596  0.93115890  1
  O  O1  1  0.76886628  0.67123404  0.43115890  1
  O  O2  1  0.26886628  0.67123404  0.06884110  1
  O  O3  1  0.23113372  0.32876596  0.56884110  1
  O  O4  1  0.94255642  0.36381877  0.19634364  1
  O  O5  1  0.55744358  0.63618123  0.69634364  1
  O  O6  1  0.05744358  0.63618123  0.80365636  1
  O  O7  1  0.44255642  0.36381877  0.30365636  1
  O  O8  1  0.09744475  0.27762983  0.89491997  1
  O  O9  1  0.40255525  0.72237017  0.39491997  1
  O  O10  1  0.90255525  0.72237017  0.10508003  1
  O  O11  1  0.59744475  0.27762983  0.60508003  1
  O  O12  1  0.23850684  0.05156666  -0.00112153  1
  O  O13  1  0.26149316  0.94843334  0.49887847  1
  O  O14  1  0.76149316  0.94843334  0.00112153  1
  O  O15  1  0.73850684  0.05156666  0.50112153  1
loop_
_geom_bond_atom_site_label_1
_geom_bond_atom_site_label_2
_geom_bond_distance
_geom_bond_site_symmetry_2
K0 O5 2.689759 1_554
K0 O7 2.689759 1_555
K0 O0 2.758868 1_554
K0 O2 2.758868 1_555
K0 O8 2.836199 1_554
K0 O10 2.836199 1_555
K1 O4 2.689759 1_455
K1 O6 2.689759 1_555
K1 O3 2.758868 1_555
K1 O1 2.758868 1_455
K1 O9 2.836199 1_555
K1 O11 2.836199 1_455
K2 O4 2.737845 1_555
K2 O12 2.760003 1_555
K2 O0 2.779545 1_554
K2 O7 2.802727 1_555
K2 O14 2.870040 1_545
K2 O2 3.047111 1_545
K3 O5 2.737845 1_555
K3 O13 2.760003 1_655
K3 O1 2.779545 1_555
K3 O6 2.802727 1_655
K3 O15 2.870040 1_565
K3 O3 3.047111 1_665
K4 O6 2.737845 1_555
K4 O14 2.760003 1_556
K4 O2 2.779545 1_556
K4 O5 2.802727 1_555
K4 O12 2.870040 1_566
K4 O0 3.047111 1_565
K5 O7 2.737845 1_555
K5 O15 2.760003 1_455
K5 O3 2.779545 1_555
K5 O4 2.802727 1_455
K5 O13 2.870040 1_545
K5 O1 3.047111 1_445
Np0 O6 1.877976 1_554
Np0 O4 1.877976 1_455
Np0 O0 1.912300 1_454
Np0 O2 1.912300 1_555
Np0 O8 2.371015 1_554
Np0 O10 2.371015 1_455
Np1 O7 1.877976 1_555
Np1 O5 1.877976 1_555
Np1 O3 1.912300 1_555
Np1 O1 1.912300 1_555
Np1 O9 2.371015 1_555
Np1 O11 2.371015 1_555
H0 O8 0.980313 1_555
H0 K3 2.781088 1_445
H1 O9 0.980313 1_555
H1 K2 2.781088 1_565
H2 O10 0.980313 1_555
H2 K5 2.781088 1_665
H3 O11 0.980313 1_555
H3 K4 2.781088 1_545
H4 O12 0.988510 1_565
H4 K5 2.748589 1_565
H5 O13 0.988510 1_545
H5 K4 2.748589 1_545
H6 O14 0.988510 1_546
H6 K3 2.748589 1_545
H7 O15 0.988510 1_565
H7 K2 2.748589 1_565
H8 O12 1.001539 1_556
H8 K0 2.695585 1_556
H8 K3 2.831722 1_445
H9 O13 1.001539 1_555
H9 K1 2.695585 1_555
H9 K2 2.831722 1_565
H10 O14 1.001539 1_555
H10 K0 2.695585 1_555
H10 K5 2.831722 1_665
H11 O15 1.001539 1_555
H11 K1 2.695585 1_655
H11 K4 2.831722 1_545
