# generated using pymatgen
data_Th2NCl2
_symmetry_space_group_name_H-M   'P 1'
_cell_length_a   3.94554100
_cell_length_b   3.94554100
_cell_length_c   12.84229200
_cell_angle_alpha   90.00000000
_cell_angle_beta   90.00000000
_cell_angle_gamma   90.00000000
_symmetry_Int_Tables_number   1
_chemical_formula_structural   Th2NCl2
_chemical_formula_sum   'Th2 N1 Cl2'
_cell_volume   199.91973241
_cell_formula_units_Z   1
loop_
 _symmetry_equiv_pos_site_id
 _symmetry_equiv_pos_as_xyz
  1  'x, y, z'
loop_
 _atom_site_type_symbol
 _atom_site_label
 _atom_site_symmetry_multiplicity
 _atom_site_fract_x
 _atom_site_fract_y
 _atom_site_fract_z
 _atom_site_occupancy
  Th  Th0  1  0.50000000  0.50000000  0.16171600  1
  Th  Th1  1  0.50000000  0.50000000  0.83828400  1
  N  N0  1  0.50000000  0.50000000  0.00000000  1
  Cl  Cl0  1  0.50000000  0.50000000  0.63839600  1
  Cl  Cl1  1  0.50000000  0.50000000  0.36160400  1
loop_
_geom_bond_atom_site_label_1
_geom_bond_atom_site_label_2
_geom_bond_distance
_geom_bond_site_symmetry_2
N0 Th1 2.076804 1_554
N0 Th0 2.076804 1_555
Cl0 Th1 2.567020 1_555
Cl1 Th0 2.567020 1_555
