# generated using pymatgen
data_Lu3Ga8Rh3
_symmetry_space_group_name_H-M   'P 1'
_cell_length_a   8.08708906
_cell_length_b   8.08708906
_cell_length_c   8.08708906
_cell_angle_alpha   149.95940259
_cell_angle_beta   104.51461664
_cell_angle_gamma   83.32150924
_symmetry_Int_Tables_number   1
_chemical_formula_structural   Lu3Ga8Rh3
_chemical_formula_sum   'Lu3 Ga8 Rh3'
_cell_volume   250.73548133
_cell_formula_units_Z   1
loop_
 _symmetry_equiv_pos_site_id
 _symmetry_equiv_pos_as_xyz
  1  'x, y, z'
loop_
 _atom_site_type_symbol
 _atom_site_label
 _atom_site_symmetry_multiplicity
 _atom_site_fract_x
 _atom_site_fract_y
 _atom_site_fract_z
 _atom_site_occupancy
  Lu  Lu0  1  0.50000000  0.50000000  0.00000000  1
  Lu  Lu1  1  0.17478700  0.17478700  0.00000000  1
  Lu  Lu2  1  0.82521300  0.82521300  0.00000000  1
  Ga  Ga0  1  0.66048600  0.37304600  0.28744000  1
  Ga  Ga1  1  0.33951400  0.62695400  0.71256000  1
  Ga  Ga2  1  0.08560700  0.37304600  0.71256000  1
  Ga  Ga3  1  0.91439300  0.62695400  0.28744000  1
  Ga  Ga4  1  0.53321800  0.16052500  0.37269400  1
  Ga  Ga5  1  0.46678200  0.83947500  0.62730600  1
  Ga  Ga6  1  0.78783100  0.16052500  0.62730600  1
  Ga  Ga7  1  0.21216900  0.83947500  0.37269400  1
  Rh  Rh0  1  0.00000000  0.50000000  0.50000000  1
  Rh  Rh1  1  0.20597000  0.00000000  0.20597000  1
  Rh  Rh2  1  0.79403000  0.00000000  0.79403000  1
loop_
_geom_bond_atom_site_label_1
_geom_bond_atom_site_label_2
_geom_bond_distance
_geom_bond_site_symmetry_2
Lu1 Rh1 2.935838 1_555
Lu1 Rh2 2.935838 1_454
Lu1 Rh0 2.975471 1_555
Lu1 Rh0 2.975471 1_544
Lu2 Rh2 2.935838 1_564
Lu2 Rh1 2.935838 1_665
Lu2 Rh0 2.975471 1_654
Lu2 Rh0 2.975471 1_665
Ga0 Rh2 2.598122 1_554
Ga0 Rh2 2.598122 1_565
Ga0 Rh0 2.604236 1_655
Ga0 Ga5 2.659072 1_555
Ga0 Ga5 2.659075 1_544
Ga0 Ga4 2.703184 1_555
Ga0 Lu2 3.025789 1_545
Ga0 Lu2 3.025789 1_556
Ga0 Lu0 3.232939 1_555
Ga1 Rh1 2.598122 1_566
Ga1 Rh1 2.598122 1_555
Ga1 Rh0 2.604236 1_555
Ga1 Ga4 2.659072 1_555
Ga1 Ga4 2.659075 1_566
Ga1 Ga5 2.703184 1_555
Ga1 Lu1 3.025789 1_566
Ga1 Lu1 3.025789 1_555
Ga1 Lu0 3.232939 1_556
Ga2 Rh1 2.598117 1_555
Ga2 Rh1 2.598121 1_566
Ga2 Rh0 2.604237 1_555
Ga2 Ga7 2.659074 1_545
Ga2 Ga7 2.659077 1_556
Ga2 Ga6 2.703187 1_455
Ga2 Lu2 3.025793 1_445
Ga2 Lu2 3.025795 1_456
Ga2 Lu0 3.232932 1_556
Ga3 Rh2 2.598117 1_565
Ga3 Rh2 2.598121 1_554
Ga3 Rh0 2.604237 1_655
Ga3 Ga6 2.659074 1_565
Ga3 Ga6 2.659077 1_554
Ga3 Ga7 2.703187 1_655
Ga3 Lu1 3.025793 1_666
Ga3 Lu1 3.025795 1_655
Ga3 Lu0 3.232932 1_555
Ga4 Ga6 2.520786 1_555
Ga4 Rh1 2.546984 1_555
Ga4 Lu0 3.121494 1_556
Ga4 Lu0 3.121497 1_545
Ga4 Lu2 3.153007 1_556
Ga4 Lu2 3.153010 1_545
Ga5 Ga7 2.520786 1_555
Ga5 Rh2 2.546984 1_565
Ga5 Lu0 3.121494 1_555
Ga5 Lu0 3.121497 1_566
Ga5 Lu1 3.153007 1_555
Ga5 Lu1 3.153010 1_566
Ga6 Rh2 2.546992 1_555
Ga6 Lu0 3.121497 1_545
Ga6 Lu0 3.121497 1_556
Ga6 Lu2 3.153003 1_545
Ga6 Lu2 3.153003 1_556
Ga7 Rh1 2.546992 1_565
Ga7 Lu0 3.121497 1_555
Ga7 Lu0 3.121497 1_566
Ga7 Lu1 3.153003 1_555
Ga7 Lu1 3.153003 1_566
Rh0 Rh2 2.924205 1_454
Rh0 Rh2 2.924205 1_465
Rh0 Rh1 2.924205 1_555
Rh0 Rh1 2.924205 1_566
