# generated using pymatgen
data_Ti3In3Rh2
_symmetry_space_group_name_H-M   'P 1'
_cell_length_a   14.56296015
_cell_length_b   14.56296015
_cell_length_c   6.14833672
_cell_angle_alpha   90.00000000
_cell_angle_beta   90.00000000
_cell_angle_gamma   120.00000502
_symmetry_Int_Tables_number   1
_chemical_formula_structural   Ti3In3Rh2
_chemical_formula_sum   'Ti24 In24 Rh16'
_cell_volume   1129.24343850
_cell_formula_units_Z   8
loop_
 _symmetry_equiv_pos_site_id
 _symmetry_equiv_pos_as_xyz
  1  'x, y, z'
loop_
 _atom_site_type_symbol
 _atom_site_label
 _atom_site_symmetry_multiplicity
 _atom_site_fract_x
 _atom_site_fract_y
 _atom_site_fract_z
 _atom_site_occupancy
  Ti  Ti0_0  1  0.20946231  0.00000000  0.25000000  1
  Ti  Ti0_1  1  0.20946231  0.00000000  0.75000000  1
  Ti  Ti0_2  1  0.20946231  0.50000000  0.25000000  1
  Ti  Ti0_3  1  0.20946231  0.50000000  0.75000000  1
  Ti  Ti0_4  1  0.70946231  0.00000000  0.25000000  1
  Ti  Ti0_5  1  0.70946231  0.00000000  0.75000000  1
  Ti  Ti0_6  1  0.70946231  0.50000000  0.25000000  1
  Ti  Ti0_7  1  0.70946231  0.50000000  0.75000000  1
  Ti  Ti1_0  1  0.29053769  0.29053769  0.25000000  1
  Ti  Ti1_1  1  0.29053769  0.29053769  0.75000000  1
  Ti  Ti1_2  1  0.29053769  0.79053769  0.25000000  1
  Ti  Ti1_3  1  0.29053769  0.79053769  0.75000000  1
  Ti  Ti1_4  1  0.79053769  0.29053769  0.25000000  1
  Ti  Ti1_5  1  0.79053769  0.29053769  0.75000000  1
  Ti  Ti1_6  1  0.79053769  0.79053769  0.25000000  1
  Ti  Ti1_7  1  0.79053769  0.79053769  0.75000000  1
  Ti  Ti2_0  1  0.00000000  0.20946231  0.25000000  1
  Ti  Ti2_1  1  0.00000000  0.20946231  0.75000000  1
  Ti  Ti2_2  1  0.00000000  0.70946231  0.25000000  1
  Ti  Ti2_3  1  0.00000000  0.70946231  0.75000000  1
  Ti  Ti2_4  1  0.50000000  0.20946231  0.25000000  1
  Ti  Ti2_5  1  0.50000000  0.20946231  0.75000000  1
  Ti  Ti2_6  1  0.50000000  0.70946231  0.25000000  1
  Ti  Ti2_7  1  0.50000000  0.70946231  0.75000000  1
  In  In0_0  1  0.38163277  0.00000000  0.00000000  1
  In  In0_1  1  0.38163277  0.00000000  0.50000000  1
  In  In0_2  1  0.38163277  0.50000000  0.00000000  1
  In  In0_3  1  0.38163277  0.50000000  0.50000000  1
  In  In0_4  1  0.88163278  0.00000000  0.00000000  1
  In  In0_5  1  0.88163278  0.00000000  0.50000000  1
  In  In0_6  1  0.88163277  0.50000000  0.00000000  1
  In  In0_7  1  0.88163277  0.50000000  0.50000000  1
  In  In1_0  1  0.11836723  0.11836722  0.00000000  1
  In  In1_1  1  0.11836723  0.11836722  0.50000000  1
  In  In1_2  1  0.11836723  0.61836722  0.00000000  1
  In  In1_3  1  0.11836723  0.61836722  0.50000000  1
  In  In1_4  1  0.61836722  0.11836722  0.00000000  1
  In  In1_5  1  0.61836722  0.11836722  0.50000000  1
  In  In1_6  1  0.61836723  0.61836722  0.00000000  1
  In  In1_7  1  0.61836723  0.61836722  0.50000000  1
  In  In2_0  1  0.00000000  0.38163277  0.00000000  1
  In  In2_1  1  0.00000000  0.38163277  0.50000000  1
  In  In2_2  1  0.00000000  0.88163277  0.00000000  1
  In  In2_3  1  0.00000000  0.88163277  0.50000000  1
  In  In2_4  1  0.50000000  0.38163277  0.00000000  1
  In  In2_5  1  0.50000000  0.38163277  0.50000000  1
  In  In2_6  1  0.50000000  0.88163277  0.00000000  1
  In  In2_7  1  0.50000000  0.88163277  0.50000000  1
  Rh  Rh0_0  1  0.16666650  0.33333350  0.00000000  1
  Rh  Rh0_1  1  0.16666650  0.33333350  0.50000000  1
  Rh  Rh0_2  1  0.16666650  0.83333350  0.00000000  1
  Rh  Rh0_3  1  0.16666650  0.83333350  0.50000000  1
  Rh  Rh0_4  1  0.66666650  0.33333350  0.00000000  1
  Rh  Rh0_5  1  0.66666650  0.33333350  0.50000000  1
  Rh  Rh0_6  1  0.66666650  0.83333350  0.00000000  1
  Rh  Rh0_7  1  0.66666650  0.83333350  0.50000000  1
  Rh  Rh1_0  1  0.33333350  0.16666650  0.00000000  1
  Rh  Rh1_1  1  0.33333350  0.16666650  0.50000000  1
  Rh  Rh1_2  1  0.33333350  0.66666650  0.00000000  1
  Rh  Rh1_3  1  0.33333350  0.66666650  0.50000000  1
  Rh  Rh1_4  1  0.83333350  0.16666650  0.00000000  1
  Rh  Rh1_5  1  0.83333350  0.16666650  0.50000000  1
  Rh  Rh1_6  1  0.83333350  0.66666650  0.00000000  1
  Rh  Rh1_7  1  0.83333350  0.66666650  0.50000000  1
loop_
_geom_bond_atom_site_label_1
_geom_bond_atom_site_label_2
_geom_bond_distance
_geom_bond_site_symmetry_2
In0_0 Rh1_0 2.844829 1_555
In0_0 Rh0_2 2.844834 1_545
In0_0 Ti0_1 2.940959 1_554
In0_0 Ti0_0 2.940959 1_555
In0_0 In1_4 2.985670 1_555
In0_0 In2_6 2.985670 1_545
In0_0 Ti2_5 3.062797 1_554
In0_0 Ti2_4 3.062797 1_555
In0_0 Ti1_3 3.062797 1_544
In0_0 Ti1_2 3.062797 1_545
In0_0 In0_1 3.074168 1_554
In0_0 In0_1 3.074168 1_555
In0_1 Rh1_1 2.844829 1_555
In0_1 Rh0_3 2.844834 1_545
In0_1 Ti0_0 2.940959 1_555
In0_1 Ti0_1 2.940959 1_555
In0_1 In1_5 2.985670 1_555
In0_1 In2_7 2.985670 1_545
In0_1 Ti2_4 3.062797 1_555
In0_1 Ti2_5 3.062797 1_555
In0_1 Ti1_2 3.062797 1_545
In0_1 Ti1_3 3.062797 1_545
In0_2 Rh1_2 2.844829 1_555
In0_2 Rh0_0 2.844834 1_555
In0_2 Ti0_3 2.940959 1_554
In0_2 Ti0_2 2.940959 1_555
In0_2 In1_6 2.985670 1_555
In0_2 In2_4 2.985670 1_555
In0_2 Ti2_7 3.062797 1_554
In0_2 Ti2_6 3.062797 1_555
In0_2 Ti1_1 3.062797 1_554
In0_2 Ti1_0 3.062797 1_555
In0_2 In0_3 3.074168 1_554
In0_2 In0_3 3.074168 1_555
In0_3 Rh1_3 2.844829 1_555
In0_3 Rh0_1 2.844834 1_555
In0_3 Ti0_2 2.940959 1_555
In0_3 Ti0_3 2.940959 1_555
In0_3 In1_7 2.985670 1_555
In0_3 In2_5 2.985670 1_555
In0_3 Ti2_6 3.062797 1_555
In0_3 Ti2_7 3.062797 1_555
In0_3 Ti1_0 3.062797 1_555
In0_3 Ti1_1 3.062797 1_555
In0_4 Rh1_4 2.844829 1_555
In0_4 Rh0_6 2.844834 1_545
In0_4 Ti0_5 2.940959 1_554
In0_4 Ti0_4 2.940959 1_555
In0_4 In1_0 2.985670 1_655
In0_4 In2_2 2.985670 1_645
In0_4 Ti2_1 3.062797 1_654
In0_4 Ti2_0 3.062797 1_655
In0_4 Ti1_7 3.062797 1_544
In0_4 Ti1_6 3.062797 1_545
In0_4 In0_5 3.074168 1_555
In0_4 In0_5 3.074168 1_554
In0_5 Rh1_5 2.844829 1_555
In0_5 Rh0_7 2.844834 1_545
In0_5 Ti0_4 2.940959 1_555
In0_5 Ti0_5 2.940959 1_555
In0_5 In1_1 2.985670 1_655
In0_5 In2_3 2.985670 1_645
In0_5 Ti2_0 3.062797 1_655
In0_5 Ti2_1 3.062797 1_655
In0_5 Ti1_6 3.062797 1_545
In0_5 Ti1_7 3.062797 1_545
In0_6 Rh1_6 2.844829 1_555
In0_6 Rh0_4 2.844834 1_555
In0_6 Ti0_7 2.940959 1_554
In0_6 Ti0_6 2.940959 1_555
In0_6 In1_2 2.985670 1_655
In0_6 In2_0 2.985670 1_655
In0_6 Ti2_3 3.062797 1_654
In0_6 Ti2_2 3.062797 1_655
In0_6 Ti1_5 3.062797 1_554
In0_6 Ti1_4 3.062797 1_555
In0_6 In0_7 3.074168 1_554
In0_6 In0_7 3.074168 1_555
In0_7 Rh1_7 2.844829 1_555
In0_7 Rh0_5 2.844834 1_555
In0_7 Ti0_6 2.940959 1_555
In0_7 Ti0_7 2.940959 1_555
In0_7 In1_3 2.985670 1_655
In0_7 In2_1 2.985670 1_655
In0_7 Ti2_2 3.062797 1_655
In0_7 Ti2_3 3.062797 1_655
In0_7 Ti1_5 3.062797 1_555
In0_7 Ti1_4 3.062797 1_555
In1_0 Rh1_0 2.844836 1_555
In1_0 Rh0_0 2.844836 1_555
In1_0 Ti1_0 2.940959 1_555
In1_0 Ti1_1 2.940959 1_554
In1_0 In2_2 2.985670 1_545
In1_0 Ti0_1 3.062797 1_554
In1_0 Ti2_1 3.062797 1_554
In1_0 Ti0_0 3.062797 1_555
In1_0 Ti2_0 3.062797 1_555
In1_0 In1_1 3.074168 1_554
In1_0 In1_1 3.074168 1_555
In1_1 Rh1_1 2.844836 1_555
In1_1 Rh0_1 2.844836 1_555
In1_1 Ti1_0 2.940959 1_555
In1_1 Ti1_1 2.940959 1_555
In1_1 In2_3 2.985670 1_545
In1_1 Ti2_0 3.062797 1_555
In1_1 Ti0_0 3.062797 1_555
In1_1 Ti2_1 3.062797 1_555
In1_1 Ti0_1 3.062797 1_555
In1_2 Rh1_2 2.844836 1_555
In1_2 Rh0_2 2.844836 1_555
In1_2 Ti1_3 2.940959 1_554
In1_2 Ti1_2 2.940959 1_555
In1_2 In2_0 2.985670 1_555
In1_2 Ti0_3 3.062797 1_554
In1_2 Ti0_2 3.062797 1_555
In1_2 Ti2_3 3.062797 1_554
In1_2 Ti2_2 3.062797 1_555
In1_2 In1_3 3.074168 1_555
In1_2 In1_3 3.074168 1_554
In1_3 Rh1_3 2.844836 1_555
In1_3 Rh0_3 2.844836 1_555
In1_3 Ti1_2 2.940959 1_555
In1_3 Ti1_3 2.940959 1_555
In1_3 In2_1 2.985670 1_555
In1_3 Ti0_2 3.062797 1_555
In1_3 Ti0_3 3.062797 1_555
In1_3 Ti2_2 3.062797 1_555
In1_3 Ti2_3 3.062797 1_555
In1_4 Rh1_4 2.844836 1_555
In1_4 Rh0_4 2.844836 1_555
In1_4 Ti1_5 2.940959 1_554
In1_4 Ti1_4 2.940959 1_555
In1_4 In2_6 2.985670 1_545
In1_4 Ti2_5 3.062797 1_554
In1_4 Ti0_5 3.062797 1_554
In1_4 Ti0_4 3.062797 1_555
In1_4 Ti2_4 3.062797 1_555
In1_4 In1_5 3.074168 1_554
In1_4 In1_5 3.074168 1_555
In1_5 Rh1_5 2.844836 1_555
In1_5 Rh0_5 2.844836 1_555
In1_5 Ti1_5 2.940959 1_555
In1_5 Ti1_4 2.940959 1_555
In1_5 In2_7 2.985670 1_545
In1_5 Ti0_4 3.062797 1_555
In1_5 Ti2_4 3.062797 1_555
In1_5 Ti0_5 3.062797 1_555
In1_5 Ti2_5 3.062797 1_555
In1_6 Rh1_6 2.844836 1_555
In1_6 Rh0_6 2.844836 1_555
In1_6 Ti1_7 2.940959 1_554
In1_6 Ti1_6 2.940959 1_555
In1_6 In2_4 2.985670 1_555
In1_6 Ti0_7 3.062797 1_554
In1_6 Ti2_7 3.062797 1_554
In1_6 Ti2_6 3.062797 1_555
In1_6 Ti0_6 3.062797 1_555
In1_6 In1_7 3.074168 1_554
In1_6 In1_7 3.074168 1_555
In1_7 Rh1_7 2.844836 1_555
In1_7 Rh0_7 2.844836 1_555
In1_7 Ti1_6 2.940959 1_555
In1_7 Ti1_7 2.940959 1_555
In1_7 In2_5 2.985670 1_555
In1_7 Ti0_6 3.062797 1_555
In1_7 Ti2_6 3.062797 1_555
In1_7 Ti0_7 3.062797 1_555
In1_7 Ti2_7 3.062797 1_555
In2_0 Rh0_0 2.844829 1_555
In2_0 Rh1_4 2.844834 1_455
In2_0 Ti2_1 2.940959 1_554
In2_0 Ti2_0 2.940959 1_555
In2_0 Ti0_3 3.062797 1_554
In2_0 Ti0_2 3.062797 1_555
In2_0 Ti1_5 3.062797 1_454
In2_0 Ti1_4 3.062797 1_455
In2_0 In2_1 3.074168 1_555
In2_0 In2_1 3.074168 1_554
In2_1 Rh0_1 2.844829 1_555
In2_1 Rh1_5 2.844834 1_455
In2_1 Ti2_0 2.940959 1_555
In2_1 Ti2_1 2.940959 1_555
In2_1 Ti0_2 3.062797 1_555
In2_1 Ti0_3 3.062797 1_555
In2_1 Ti1_4 3.062797 1_455
In2_1 Ti1_5 3.062797 1_455
In2_2 Rh0_2 2.844829 1_555
In2_2 Rh1_6 2.844834 1_455
In2_2 Ti2_3 2.940959 1_554
In2_2 Ti2_2 2.940959 1_555
In2_2 Ti0_1 3.062797 1_564
In2_2 Ti0_0 3.062797 1_565
In2_2 Ti1_7 3.062797 1_454
In2_2 Ti1_6 3.062797 1_455
In2_2 In2_3 3.074168 1_554
In2_2 In2_3 3.074168 1_555
In2_3 Rh0_3 2.844829 1_555
In2_3 Rh1_7 2.844834 1_455
In2_3 Ti2_2 2.940959 1_555
In2_3 Ti2_3 2.940959 1_555
In2_3 Ti0_0 3.062797 1_565
In2_3 Ti0_1 3.062797 1_565
In2_3 Ti1_6 3.062797 1_455
In2_3 Ti1_7 3.062797 1_455
In2_4 Rh0_4 2.844829 1_555
In2_4 Rh1_0 2.844834 1_555
In2_4 Ti2_5 2.940959 1_554
In2_4 Ti2_4 2.940959 1_555
In2_4 Ti0_7 3.062797 1_554
In2_4 Ti0_6 3.062797 1_555
In2_4 Ti1_0 3.062797 1_555
In2_4 Ti1_1 3.062797 1_554
In2_4 In2_5 3.074168 1_554
In2_4 In2_5 3.074168 1_555
In2_5 Rh0_5 2.844829 1_555
In2_5 Rh1_1 2.844834 1_555
In2_5 Ti2_5 2.940959 1_555
In2_5 Ti2_4 2.940959 1_555
In2_5 Ti0_6 3.062797 1_555
In2_5 Ti0_7 3.062797 1_555
In2_5 Ti1_0 3.062797 1_555
In2_5 Ti1_1 3.062797 1_555
In2_6 Rh0_6 2.844829 1_555
In2_6 Rh1_2 2.844834 1_555
In2_6 Ti2_6 2.940959 1_555
In2_6 Ti2_7 2.940959 1_554
In2_6 Ti0_5 3.062797 1_564
In2_6 Ti0_4 3.062797 1_565
In2_6 Ti1_3 3.062797 1_554
In2_6 Ti1_2 3.062797 1_555
In2_6 In2_7 3.074168 1_554
In2_6 In2_7 3.074168 1_555
In2_7 Rh0_7 2.844829 1_555
In2_7 Rh1_3 2.844834 1_555
In2_7 Ti2_6 2.940959 1_555
In2_7 Ti2_7 2.940959 1_555
In2_7 Ti0_4 3.062797 1_565
In2_7 Ti0_5 3.062797 1_565
In2_7 Ti1_3 3.062797 1_555
In2_7 Ti1_2 3.062797 1_555
Rh0_0 Ti0_3 2.670104 1_554
Rh0_0 Ti0_2 2.670104 1_555
Rh0_0 Ti2_1 2.670106 1_554
Rh0_0 Ti2_0 2.670106 1_555
Rh0_0 Ti1_1 2.670110 1_554
Rh0_0 Ti1_0 2.670110 1_555
Rh0_1 Ti0_2 2.670104 1_555
Rh0_1 Ti0_3 2.670104 1_555
Rh0_1 Ti2_0 2.670106 1_555
Rh0_1 Ti2_1 2.670106 1_555
Rh0_1 Ti1_0 2.670110 1_555
Rh0_1 Ti1_1 2.670110 1_555
Rh0_2 Ti0_1 2.670104 1_564
Rh0_2 Ti0_0 2.670104 1_565
Rh0_2 Ti2_3 2.670106 1_554
Rh0_2 Ti2_2 2.670106 1_555
Rh0_2 Ti1_3 2.670110 1_554
Rh0_2 Ti1_2 2.670110 1_555
Rh0_3 Ti0_0 2.670104 1_565
Rh0_3 Ti0_1 2.670104 1_565
Rh0_3 Ti2_2 2.670106 1_555
Rh0_3 Ti2_3 2.670106 1_555
Rh0_3 Ti1_2 2.670110 1_555
Rh0_3 Ti1_3 2.670110 1_555
Rh0_4 Ti0_7 2.670104 1_554
Rh0_4 Ti0_6 2.670104 1_555
Rh0_4 Ti2_5 2.670106 1_554
Rh0_4 Ti2_4 2.670106 1_555
Rh0_4 Ti1_5 2.670110 1_554
Rh0_4 Ti1_4 2.670110 1_555
Rh0_5 Ti0_6 2.670104 1_555
Rh0_5 Ti0_7 2.670104 1_555
Rh0_5 Ti2_4 2.670106 1_555
Rh0_5 Ti2_5 2.670106 1_555
Rh0_5 Ti1_4 2.670110 1_555
Rh0_5 Ti1_5 2.670110 1_555
Rh0_6 Ti0_5 2.670104 1_564
Rh0_6 Ti0_4 2.670104 1_565
Rh0_6 Ti2_7 2.670106 1_554
Rh0_6 Ti2_6 2.670106 1_555
Rh0_6 Ti1_7 2.670110 1_554
Rh0_6 Ti1_6 2.670110 1_555
Rh0_7 Ti0_4 2.670104 1_565
Rh0_7 Ti0_5 2.670104 1_565
Rh0_7 Ti2_6 2.670106 1_555
Rh0_7 Ti2_7 2.670106 1_555
Rh0_7 Ti1_6 2.670110 1_555
Rh0_7 Ti1_7 2.670110 1_555
Rh1_0 Ti2_5 2.670104 1_554
Rh1_0 Ti2_4 2.670104 1_555
Rh1_0 Ti0_1 2.670106 1_554
Rh1_0 Ti0_0 2.670106 1_555
Rh1_0 Ti1_1 2.670110 1_554
Rh1_0 Ti1_0 2.670110 1_555
Rh1_1 Ti2_4 2.670104 1_555
Rh1_1 Ti2_5 2.670104 1_555
Rh1_1 Ti0_0 2.670106 1_555
Rh1_1 Ti0_1 2.670106 1_555
Rh1_1 Ti1_0 2.670110 1_555
Rh1_1 Ti1_1 2.670110 1_555
Rh1_2 Ti2_7 2.670104 1_554
Rh1_2 Ti2_6 2.670104 1_555
Rh1_2 Ti0_3 2.670106 1_554
Rh1_2 Ti0_2 2.670106 1_555
Rh1_2 Ti1_3 2.670110 1_554
Rh1_2 Ti1_2 2.670110 1_555
Rh1_3 Ti2_6 2.670104 1_555
Rh1_3 Ti2_7 2.670104 1_555
Rh1_3 Ti0_2 2.670106 1_555
Rh1_3 Ti0_3 2.670106 1_555
Rh1_3 Ti1_2 2.670110 1_555
Rh1_3 Ti1_3 2.670110 1_555
Rh1_4 Ti2_1 2.670104 1_654
Rh1_4 Ti2_0 2.670104 1_655
Rh1_4 Ti0_5 2.670106 1_554
Rh1_4 Ti0_4 2.670106 1_555
Rh1_4 Ti1_5 2.670110 1_554
Rh1_4 Ti1_4 2.670110 1_555
Rh1_5 Ti2_0 2.670104 1_655
Rh1_5 Ti2_1 2.670104 1_655
Rh1_5 Ti0_4 2.670106 1_555
Rh1_5 Ti0_5 2.670106 1_555
Rh1_5 Ti1_4 2.670110 1_555
Rh1_5 Ti1_5 2.670110 1_555
Rh1_6 Ti2_3 2.670104 1_654
Rh1_6 Ti2_2 2.670104 1_655
Rh1_6 Ti0_7 2.670106 1_554
Rh1_6 Ti0_6 2.670106 1_555
Rh1_6 Ti1_7 2.670110 1_554
Rh1_6 Ti1_6 2.670110 1_555
Rh1_7 Ti2_2 2.670104 1_655
Rh1_7 Ti2_3 2.670104 1_655
Rh1_7 Ti0_6 2.670106 1_555
Rh1_7 Ti0_7 2.670106 1_555
Rh1_7 Ti1_6 2.670110 1_555
Rh1_7 Ti1_7 2.670110 1_555
