# generated using pymatgen
data_TmAlFe
_symmetry_space_group_name_H-M   'P 1'
_cell_length_a   5.34470252
_cell_length_b   5.32762235
_cell_length_c   8.50855300
_cell_angle_alpha   90.00000000
_cell_angle_beta   90.00000000
_cell_angle_gamma   119.89390137
_symmetry_Int_Tables_number   1
_chemical_formula_structural   TmAlFe
_chemical_formula_sum   'Tm4 Al4 Fe4'
_cell_volume   210.04223479
_cell_formula_units_Z   4
loop_
 _symmetry_equiv_pos_site_id
 _symmetry_equiv_pos_as_xyz
  1  'x, y, z'
loop_
 _atom_site_type_symbol
 _atom_site_label
 _atom_site_symmetry_multiplicity
 _atom_site_fract_x
 _atom_site_fract_y
 _atom_site_fract_z
 _atom_site_occupancy
  Tm  Tm0  1  0.66657700  0.33328400  0.56512000  1
  Tm  Tm1  1  0.32706000  0.66354700  0.44808500  1
  Tm  Tm2  1  0.32706000  0.66354700  0.05191500  1
  Tm  Tm3  1  0.66657700  0.33328400  0.93488000  1
  Al  Al0  1  0.67065000  0.83531800  0.75000000  1
  Al  Al1  1  0.83579800  0.67250000  0.25000000  1
  Al  Al2  1  0.83580200  0.16331400  0.25000000  1
  Al  Al3  1  0.32898200  0.16449900  0.25000000  1
  Fe  Fe0  1  0.01153900  0.00576400  0.51057300  1
  Fe  Fe1  1  0.01153900  0.00576400  0.98942700  1
  Fe  Fe2  1  0.15919600  0.32817000  0.75000000  1
  Fe  Fe3  1  0.15922000  0.83101000  0.75000000  1
loop_
_geom_bond_atom_site_label_1
_geom_bond_atom_site_label_2
_geom_bond_distance
_geom_bond_site_symmetry_2
Tm0 Tm3 3.146123 1_555
Tm0 Tm1 3.218339 1_655
Tm0 Tm1 3.249902 1_545
Tm0 Tm1 3.250070 1_555
Tm2 Tm3 3.218339 1_454
Tm2 Tm3 3.249902 1_564
Tm2 Tm3 3.250070 1_554
Al0 Fe1 2.577797 1_665
Al0 Fe0 2.577797 1_665
Al0 Fe2 2.622660 1_665
Al0 Fe3 2.622776 1_655
Al0 Fe3 2.722075 1_555
Al0 Fe2 2.722227 1_555
Al0 Tm2 3.022198 1_556
Al0 Tm1 3.022198 1_555
Al0 Tm0 3.093654 1_555
Al0 Tm3 3.093654 1_555
Al0 Tm0 3.093677 1_565
Al0 Tm3 3.093677 1_565
Al1 Al2 2.614861 1_565
Al1 Al3 2.632798 1_665
Al1 Fe0 2.699602 1_665
Al1 Fe1 2.699602 1_664
Al1 Al3 2.711951 1_555
Al1 Al2 2.712761 1_555
Al1 Tm3 3.105427 1_554
Al1 Tm0 3.105427 1_555
Al1 Tm1 3.140346 1_655
Al1 Tm2 3.140346 1_655
Al1 Tm1 3.179132 1_555
Al1 Tm2 3.179132 1_555
Al2 Al3 2.632760 1_655
Al2 Fe0 2.699654 1_655
Al2 Fe1 2.699654 1_654
Al2 Al3 2.711954 1_555
Al2 Tm3 3.105373 1_554
Al2 Tm0 3.105373 1_555
Al2 Tm1 3.140394 1_655
Al2 Tm2 3.140394 1_655
Al2 Tm1 3.179116 1_545
Al2 Tm2 3.179116 1_545
Al3 Fe0 2.660653 1_555
Al3 Fe1 2.660653 1_554
Al3 Tm3 3.104171 1_554
Al3 Tm0 3.104171 1_555
Al3 Tm1 3.152197 1_545
Al3 Tm2 3.152197 1_545
Al3 Tm1 3.152278 1_555
Al3 Tm2 3.152278 1_555
Fe0 Fe2 2.524292 1_555
Fe0 Fe3 2.524365 1_545
Fe0 Tm0 3.070456 1_555
Fe0 Tm1 3.084689 1_545
Fe0 Tm1 3.084915 1_555
Fe0 Tm0 3.141047 1_455
Fe0 Tm0 3.141059 1_445
Fe0 Tm1 3.215851 1_445
Fe1 Fe2 2.524292 1_555
Fe1 Fe3 2.524365 1_545
Fe1 Tm3 3.070456 1_555
Fe1 Tm2 3.084689 1_546
Fe1 Tm2 3.084915 1_556
Fe1 Tm3 3.141047 1_455
Fe1 Tm3 3.141059 1_445
Fe1 Tm2 3.215851 1_446
Fe2 Fe3 2.648745 1_545
Fe2 Fe3 2.678878 1_555
Fe2 Tm2 2.999765 1_556
Fe2 Tm1 2.999765 1_555
Fe2 Tm0 3.078789 1_455
Fe2 Tm3 3.078789 1_455
Fe2 Tm0 3.123376 1_555
Fe2 Tm3 3.123376 1_555
Fe3 Tm2 2.999583 1_556
Fe3 Tm1 2.999583 1_555
Fe3 Tm0 3.078843 1_455
Fe3 Tm3 3.078843 1_455
Fe3 Tm0 3.123351 1_565
Fe3 Tm3 3.123351 1_565
