# generated using pymatgen
data_Mg149Ta
_symmetry_space_group_name_H-M   'P 1'
_cell_length_a   15.94086851
_cell_length_b   15.94087491
_cell_length_c   15.62378517
_cell_angle_alpha   90.00000000
_cell_angle_beta   90.00000000
_cell_angle_gamma   120.00001110
_symmetry_Int_Tables_number   1
_chemical_formula_structural   Mg149Ta
_chemical_formula_sum   'Mg149 Ta1'
_cell_volume   3438.27789505
_cell_formula_units_Z   1
loop_
 _symmetry_equiv_pos_site_id
 _symmetry_equiv_pos_as_xyz
  1  'x, y, z'
loop_
 _atom_site_type_symbol
 _atom_site_label
 _atom_site_symmetry_multiplicity
 _atom_site_fract_x
 _atom_site_fract_y
 _atom_site_fract_z
 _atom_site_occupancy
  Mg  Mg0  1  0.80552759  -0.00004748  -0.00000000  1
  Mg  Mg1  1  0.19442493  -0.00004748  -0.00000000  1
  Mg  Mg2  1  0.39797447  0.00036546  -0.00000000  1
  Mg  Mg3  1  0.60239199  0.00036646  -0.00000000  1
  Mg  Mg4  1  0.00004748  0.19447241  -0.00000000  1
  Mg  Mg5  1  0.19442493  0.19447241  -0.00000000  1
  Mg  Mg6  1  0.59976371  0.19952842  -0.00000000  1
  Mg  Mg7  1  0.79995248  0.20004752  -0.00000000  1
  Mg  Mg8  1  0.40009504  0.20004752  -0.00000000  1
  Mg  Mg9  1  0.99963454  0.39760801  -0.00000000  1
  Mg  Mg10  1  0.39797447  0.39760901  -0.00000000  1
  Mg  Mg11  1  0.19965333  0.39930666  -0.00000000  1
  Mg  Mg12  1  0.59976371  0.40023529  -0.00000000  1
  Mg  Mg13  1  0.80047158  0.40023529  -0.00000000  1
  Mg  Mg14  1  0.40011186  0.59988714  -0.00000000  1
  Mg  Mg15  1  0.19977528  0.59988814  -0.00000000  1
  Mg  Mg16  1  0.79995248  0.59990496  -0.00000000  1
  Mg  Mg17  1  0.60239199  0.60202553  -0.00000000  1
  Mg  Mg18  1  0.99963454  0.60202553  -0.00000000  1
  Mg  Mg19  1  0.40011186  0.80022372  -0.00000000  1
  Mg  Mg20  1  0.60069334  0.80034667  -0.00000000  1
  Mg  Mg21  1  0.19965333  0.80034667  -0.00000000  1
  Mg  Mg22  1  0.80552759  0.80557507  -0.00000000  1
  Mg  Mg23  1  0.00004748  0.80557507  -0.00000000  1
  Mg  Mg24  1  0.06493697  0.12987493  0.16079063  1
  Mg  Mg25  1  0.06493697  0.93506303  0.16079063  1
  Mg  Mg26  1  0.87012607  0.93506303  0.16079063  1
  Mg  Mg27  1  0.26728404  0.13364252  0.16573059  1
  Mg  Mg28  1  0.86635748  0.13364252  0.16573059  1
  Mg  Mg29  1  0.86635748  0.73271496  0.16573059  1
  Mg  Mg30  1  0.06672001  0.53336001  0.16629090  1
  Mg  Mg31  1  0.46663999  0.53336001  0.16629090  1
  Mg  Mg32  1  0.46663999  0.93327999  0.16629090  1
  Mg  Mg33  1  0.06716894  0.33319772  0.16627609  1
  Mg  Mg34  1  0.26603077  0.33319872  0.16627609  1
  Mg  Mg35  1  0.06716894  0.73397023  0.16627609  1
  Mg  Mg36  1  0.66680228  0.73397023  0.16627609  1
  Mg  Mg37  1  0.66680228  0.93283206  0.16627609  1
  Mg  Mg38  1  0.26603077  0.93283206  0.16627609  1
  Mg  Mg39  1  0.66666700  0.33333300  0.16613851  1
  Mg  Mg40  1  0.66686522  0.13336959  0.16664827  1
  Mg  Mg41  1  0.46650537  0.13336959  0.16664827  1
  Mg  Mg42  1  0.46650537  0.33313478  0.16664827  1
  Mg  Mg43  1  0.86663041  0.33313578  0.16664827  1
  Mg  Mg44  1  0.86663041  0.53349463  0.16664827  1
  Mg  Mg45  1  0.66686522  0.53349463  0.16664827  1
  Mg  Mg46  1  0.26678948  0.53357896  0.16653742  1
  Mg  Mg47  1  0.46642104  0.73321052  0.16653742  1
  Mg  Mg48  1  0.26678948  0.73321052  0.16653742  1
  Mg  Mg49  1  0.00030847  0.19946910  0.33148890  1
  Mg  Mg50  1  0.19916063  0.19947010  0.33148890  1
  Mg  Mg51  1  0.00030847  0.80083937  0.33148890  1
  Mg  Mg52  1  0.80053090  0.80083937  0.33148890  1
  Mg  Mg53  1  0.80053090  0.99969053  0.33148890  1
  Mg  Mg54  1  0.19916063  0.99969053  0.33148890  1
  Mg  Mg55  1  0.39959726  0.99991941  0.33286514  1
  Mg  Mg56  1  0.60032215  0.99991941  0.33286514  1
  Mg  Mg57  1  0.00008059  0.39967785  0.33286514  1
  Mg  Mg58  1  0.39959726  0.39967785  0.33286514  1
  Mg  Mg59  1  0.00008059  0.60040274  0.33286514  1
  Mg  Mg60  1  0.60032215  0.60040274  0.33286514  1
  Mg  Mg61  1  0.59983928  0.19967956  0.33301002  1
  Mg  Mg62  1  0.80032044  0.40016072  0.33301002  1
  Mg  Mg63  1  0.59983928  0.40016072  0.33301002  1
  Mg  Mg64  1  -0.00000000  0.00000000  0.33385766  1
  Mg  Mg65  1  0.39986654  0.19993277  0.33344625  1
  Mg  Mg66  1  0.80006723  0.19993277  0.33344625  1
  Mg  Mg67  1  0.80006723  0.60013346  0.33344625  1
  Mg  Mg68  1  0.20013161  0.40026322  0.33357477  1
  Mg  Mg69  1  0.59973678  0.79986839  0.33357477  1
  Mg  Mg70  1  0.20013161  0.79986839  0.33357477  1
  Mg  Mg71  1  0.19986985  0.59993542  0.33323132  1
  Mg  Mg72  1  0.40006558  0.59993542  0.33323132  1
  Mg  Mg73  1  0.40006558  0.80013015  0.33323132  1
  Mg  Mg74  1  0.26612031  0.13306066  0.50000000  1
  Mg  Mg75  1  0.86693934  0.13306066  0.50000000  1
  Mg  Mg76  1  0.06662809  0.13325618  0.50000000  1
  Mg  Mg77  1  0.66709118  0.13388720  0.50000000  1
  Mg  Mg78  1  0.46679602  0.13388820  0.50000000  1
  Mg  Mg79  1  0.26640712  0.33267156  0.50000000  1
  Mg  Mg80  1  0.06626345  0.33267156  0.50000000  1
  Mg  Mg81  1  0.86611180  0.33290782  0.50000000  1
  Mg  Mg82  1  0.46679602  0.33290882  0.50000000  1
  Mg  Mg83  1  0.66666700  0.33333300  0.50000000  1
  Mg  Mg84  1  0.26635769  0.53271538  0.50000000  1
  Mg  Mg85  1  0.46736869  0.53263131  0.50000000  1
  Mg  Mg86  1  0.06526261  0.53263131  0.50000000  1
  Mg  Mg87  1  0.66709118  0.53320398  0.50000000  1
  Mg  Mg88  1  0.86611180  0.53320398  0.50000000  1
  Mg  Mg89  1  0.06626345  0.73359188  0.50000000  1
  Mg  Mg90  1  0.66732944  0.73359288  0.50000000  1
  Mg  Mg91  1  0.26635769  0.73364131  0.50000000  1
  Mg  Mg92  1  0.46728462  0.73364231  0.50000000  1
  Mg  Mg93  1  0.86693934  0.73387869  0.50000000  1
  Mg  Mg94  1  0.86674382  0.93337191  0.50000000  1
  Mg  Mg95  1  0.06662809  0.93337191  0.50000000  1
  Mg  Mg96  1  0.26640712  0.93373655  0.50000000  1
  Mg  Mg97  1  0.66732944  0.93373655  0.50000000  1
  Mg  Mg98  1  0.46736869  0.93473739  0.50000000  1
  Mg  Mg99  1  0.19986985  0.59993542  0.66676868  1
  Mg  Mg100  1  0.40006558  0.59993542  0.66676868  1
  Mg  Mg101  1  0.40006558  0.80013015  0.66676868  1
  Mg  Mg102  1  0.20013161  0.40026322  0.66642523  1
  Mg  Mg103  1  0.59973678  0.79986839  0.66642523  1
  Mg  Mg104  1  0.20013161  0.79986839  0.66642523  1
  Mg  Mg105  1  0.39986654  0.19993277  0.66655375  1
  Mg  Mg106  1  0.80006723  0.19993277  0.66655375  1
  Mg  Mg107  1  0.80006723  0.60013346  0.66655375  1
  Mg  Mg108  1  -0.00000000  0.00000000  0.66614234  1
  Mg  Mg109  1  0.59983928  0.19967956  0.66699098  1
  Mg  Mg110  1  0.80032044  0.40016072  0.66699098  1
  Mg  Mg111  1  0.59983928  0.40016072  0.66699098  1
  Mg  Mg112  1  0.39959726  0.99991941  0.66713386  1
  Mg  Mg113  1  0.60032215  0.99991941  0.66713386  1
  Mg  Mg114  1  0.00008059  0.39967785  0.66713386  1
  Mg  Mg115  1  0.39959726  0.39967785  0.66713386  1
  Mg  Mg116  1  0.00008059  0.60040274  0.66713386  1
  Mg  Mg117  1  0.60032215  0.60040274  0.66713386  1
  Mg  Mg118  1  0.00030847  0.19946910  0.66851110  1
  Mg  Mg119  1  0.19916063  0.19947010  0.66851110  1
  Mg  Mg120  1  0.00030847  0.80083937  0.66851110  1
  Mg  Mg121  1  0.80053090  0.80083937  0.66851110  1
  Mg  Mg122  1  0.80053090  0.99969053  0.66851110  1
  Mg  Mg123  1  0.19916063  0.99969053  0.66851110  1
  Mg  Mg124  1  0.26678948  0.53357896  0.83346258  1
  Mg  Mg125  1  0.46642104  0.73321052  0.83346258  1
  Mg  Mg126  1  0.26678948  0.73321052  0.83346258  1
  Mg  Mg127  1  0.66686522  0.13336959  0.83335173  1
  Mg  Mg128  1  0.46650537  0.13336959  0.83335173  1
  Mg  Mg129  1  0.46650537  0.33313478  0.83335173  1
  Mg  Mg130  1  0.86663041  0.33313578  0.83335173  1
  Mg  Mg131  1  0.86663041  0.53349463  0.83335173  1
  Mg  Mg132  1  0.66686522  0.53349463  0.83335173  1
  Mg  Mg133  1  0.66666700  0.33333300  0.83386249  1
  Mg  Mg134  1  0.06716894  0.33319772  0.83372391  1
  Mg  Mg135  1  0.26603077  0.33319872  0.83372391  1
  Mg  Mg136  1  0.06716894  0.73397023  0.83372391  1
  Mg  Mg137  1  0.66680228  0.73397023  0.83372391  1
  Mg  Mg138  1  0.66680228  0.93283206  0.83372391  1
  Mg  Mg139  1  0.26603077  0.93283206  0.83372391  1
  Mg  Mg140  1  0.06672001  0.53336001  0.83370910  1
  Mg  Mg141  1  0.46663999  0.53336001  0.83370910  1
  Mg  Mg142  1  0.46663999  0.93327999  0.83370910  1
  Mg  Mg143  1  0.26728404  0.13364252  0.83426941  1
  Mg  Mg144  1  0.86635748  0.13364252  0.83426941  1
  Mg  Mg145  1  0.86635748  0.73271496  0.83426941  1
  Mg  Mg146  1  0.06493697  0.12987493  0.83920937  1
  Mg  Mg147  1  0.06493697  0.93506303  0.83920937  1
  Mg  Mg148  1  0.87012607  0.93506303  0.83920937  1
  Ta  Ta0  1  -0.00000000  0.00000000  -0.00000000  1
loop_
_geom_bond_atom_site_label_1
_geom_bond_atom_site_label_2
_geom_bond_distance
_geom_bond_site_symmetry_2
Mg0 Mg26 3.083259 1_545
Mg0 Mg148 3.083259 1_544
Mg0 Mg22 3.098547 1_545
Mg0 Ta0 3.099681 1_655
Mg0 Mg4 3.100816 1_655
Mg0 Mg28 3.181222 1_555
Mg0 Mg144 3.181222 1_554
Mg0 Mg20 3.224371 1_545
Mg0 Mg37 3.227675 1_545
Mg0 Mg138 3.227675 1_544
Mg0 Mg7 3.235041 1_555
Mg0 Mg3 3.241462 1_555
Mg1 Mg25 3.083258 1_545
Mg1 Mg147 3.083258 1_544
Mg1 Mg23 3.098545 1_545
Mg1 Ta0 3.099681 1_555
Mg1 Mg5 3.100817 1_555
Mg1 Mg143 3.181222 1_554
Mg1 Mg27 3.181222 1_555
Mg1 Mg21 3.224373 1_545
Mg1 Mg38 3.227684 1_545
Mg1 Mg139 3.227684 1_544
Mg1 Mg8 3.235040 1_555
Mg1 Mg2 3.241470 1_555
Mg2 Mg8 3.166340 1_555
Mg2 Mg38 3.172917 1_545
Mg2 Mg21 3.175029 1_545
Mg2 Mg41 3.186161 1_555
Mg2 Mg6 3.195969 1_555
Mg2 Mg32 3.203496 1_545
Mg2 Mg3 3.258585 1_555
Mg3 Mg7 3.166323 1_555
Mg3 Mg37 3.172925 1_545
Mg3 Mg40 3.186153 1_555
Mg3 Mg6 3.195970 1_555
Mg3 Mg32 3.203503 1_545
Mg4 Mg5 3.098545 1_555
Mg4 Ta0 3.099682 1_555
Mg4 Mg7 3.235040 1_455
Mg4 Mg9 3.241456 1_455
Mg5 Ta0 3.099681 1_555
Mg5 Mg8 3.235040 1_555
Mg6 Mg8 3.187038 1_555
Mg6 Mg7 3.187053 1_555
Mg7 Mg9 3.166331 1_555
Mg10 Mg8 3.166340 1_555
Mg10 Mg135 3.172917 1_554
Mg10 Mg34 3.172917 1_555
Mg10 Mg11 3.175029 1_555
Mg10 Mg42 3.186169 1_555
Mg10 Mg129 3.186169 1_554
Mg10 Mg12 3.195969 1_555
Mg10 Mg31 3.203496 1_555
Mg10 Mg141 3.203496 1_554
Mg10 Mg14 3.207590 1_555
Mg10 Mg5 3.241470 1_555
Mg10 Mg17 3.258585 1_555
Mg11 Mg9 3.175021 1_455
Mg11 Mg134 3.177111 1_554
Mg11 Mg33 3.177111 1_555
Mg11 Mg135 3.177119 1_554
Mg11 Mg34 3.177119 1_555
Mg11 Mg46 3.194708 1_555
Mg11 Mg124 3.194708 1_554
Mg11 Mg14 3.196456 1_555
Mg11 Mg15 3.196473 1_555
Mg11 Mg4 3.224371 1_555
Mg11 Mg5 3.224373 1_555
Mg12 Mg133 3.185881 1_554
Mg12 Mg39 3.185894 1_555
Mg12 Mg8 3.187038 1_555
Mg12 Mg16 3.187054 1_555
Mg12 Mg42 3.188029 1_555
Mg12 Mg129 3.188029 1_554
Mg12 Mg45 3.188037 1_555
Mg12 Mg132 3.188037 1_554
Mg12 Mg17 3.195970 1_555
Mg12 Mg6 3.199443 1_555
Mg12 Mg13 3.199458 1_555
Mg13 Mg133 3.185873 1_554
Mg13 Mg39 3.185885 1_555
Mg13 Mg7 3.187039 1_555
Mg13 Mg16 3.187055 1_555
Mg13 Mg43 3.188029 1_555
Mg13 Mg130 3.188029 1_554
Mg13 Mg44 3.188037 1_555
Mg13 Mg131 3.188037 1_554
Mg13 Mg9 3.195977 1_555
Mg13 Mg18 3.195977 1_555
Mg13 Mg6 3.199450 1_555
Mg14 Mg31 3.181843 1_555
Mg14 Mg141 3.181843 1_554
Mg14 Mg46 3.187121 1_555
Mg14 Mg47 3.187130 1_555
Mg14 Mg19 3.193540 1_555
Mg14 Mg15 3.193547 1_555
Mg14 Mg20 3.196472 1_555
Mg14 Mg17 3.207613 1_555
Mg15 Mg30 3.181842 1_555
Mg15 Mg48 3.187122 1_555
Mg15 Mg46 3.187130 1_555
Mg15 Mg19 3.193531 1_555
Mg15 Mg21 3.196457 1_555
Mg15 Mg18 3.207589 1_455
Mg15 Mg9 3.207605 1_455
Mg16 Mg17 3.166323 1_555
Mg16 Mg18 3.166339 1_555
Mg16 Mg29 3.172741 1_555
Mg16 Mg45 3.186659 1_555
Mg16 Mg44 3.186667 1_555
Mg16 Mg23 3.235040 1_655
Mg16 Mg22 3.235041 1_555
Mg17 Mg36 3.172925 1_555
Mg17 Mg20 3.175038 1_555
Mg17 Mg45 3.186161 1_555
Mg17 Mg31 3.203503 1_555
Mg17 Mg22 3.241462 1_555
Mg18 Mg35 3.172925 1_655
Mg18 Mg21 3.175029 1_655
Mg18 Mg44 3.186160 1_555
Mg18 Mg30 3.203496 1_655
Mg18 Mg23 3.241471 1_655
Mg18 Mg9 3.258594 1_555
Mg19 Mg32 3.181851 1_555
Mg19 Mg48 3.187121 1_555
Mg19 Mg47 3.187122 1_555
Mg19 Mg20 3.196463 1_555
Mg19 Mg21 3.196463 1_555
Mg19 Mg2 3.207606 1_565
Mg19 Mg3 3.207621 1_565
Mg20 Mg3 3.175038 1_565
Mg20 Mg36 3.177119 1_555
Mg20 Mg37 3.177119 1_555
Mg20 Mg47 3.194707 1_555
Mg20 Mg22 3.224371 1_555
Mg21 Mg35 3.177111 1_555
Mg21 Mg38 3.177119 1_555
Mg21 Mg48 3.194708 1_555
Mg21 Mg23 3.224371 1_555
Mg22 Mg26 3.083259 1_555
Mg22 Ta0 3.099681 1_665
Mg22 Mg23 3.100816 1_655
Mg22 Mg29 3.181222 1_555
Mg22 Mg36 3.227675 1_555
Mg23 Mg25 3.083259 1_555
Mg23 Ta0 3.099682 1_565
Mg23 Mg29 3.181222 1_455
Mg23 Mg35 3.227684 1_555
Mg24 Mg4 3.083251 1_555
Mg24 Mg5 3.083258 1_555
Mg24 Ta0 3.086358 1_555
Mg24 Mg26 3.105463 1_445
Mg24 Mg25 3.105472 1_545
Mg24 Mg27 3.196914 1_555
Mg24 Mg28 3.196914 1_455
Mg24 Mg33 3.224640 1_555
Mg24 Mg34 3.224670 1_555
Mg24 Mg64 3.244392 1_555
Mg24 Mg49 3.247723 1_555
Mg24 Mg50 3.247731 1_555
Mg25 Ta0 3.086350 1_565
Mg25 Mg26 3.105455 1_455
Mg25 Mg27 3.196914 1_565
Mg25 Mg29 3.196922 1_455
Mg25 Mg35 3.224671 1_555
Mg25 Mg38 3.224678 1_555
Mg25 Mg64 3.244384 1_565
Mg25 Mg54 3.247731 1_555
Mg25 Mg51 3.247731 1_555
Mg26 Ta0 3.086350 1_665
Mg26 Mg29 3.196923 1_555
Mg26 Mg28 3.196923 1_565
Mg26 Mg36 3.224662 1_555
Mg26 Mg37 3.224662 1_555
Mg26 Mg64 3.244384 1_665
Mg26 Mg53 3.247723 1_555
Mg26 Mg52 3.247731 1_555
Mg27 Mg8 3.172748 1_555
Mg27 Mg42 3.177955 1_555
Mg27 Mg41 3.177971 1_555
Mg27 Mg5 3.181214 1_555
Mg27 Mg50 3.182274 1_555
Mg27 Mg54 3.182282 1_545
Mg27 Mg34 3.191148 1_555
Mg27 Mg38 3.191164 1_545
Mg27 Mg65 3.196303 1_555
Mg28 Mg7 3.172741 1_555
Mg28 Mg40 3.177939 1_555
Mg28 Mg43 3.177956 1_555
Mg28 Mg4 3.181222 1_655
Mg28 Mg49 3.182274 1_655
Mg28 Mg53 3.182283 1_545
Mg28 Mg37 3.191147 1_545
Mg28 Mg33 3.191155 1_655
Mg28 Mg66 3.196287 1_555
Mg29 Mg45 3.177947 1_555
Mg29 Mg44 3.177956 1_555
Mg29 Mg51 3.182274 1_655
Mg29 Mg52 3.182275 1_555
Mg29 Mg36 3.191147 1_555
Mg29 Mg35 3.191162 1_655
Mg29 Mg67 3.196295 1_555
Mg30 Mg46 3.187540 1_555
Mg30 Mg48 3.187540 1_555
Mg30 Mg59 3.190458 1_555
Mg30 Mg57 3.190458 1_555
Mg30 Mg44 3.190680 1_455
Mg30 Mg43 3.190681 1_455
Mg30 Mg71 3.190886 1_555
Mg30 Mg35 3.194330 1_555
Mg30 Mg33 3.194346 1_555
Mg30 Mg9 3.203504 1_455
Mg31 Mg46 3.187540 1_555
Mg31 Mg47 3.187541 1_555
Mg31 Mg60 3.190458 1_555
Mg31 Mg58 3.190458 1_555
Mg31 Mg45 3.190697 1_555
Mg31 Mg42 3.190698 1_555
Mg31 Mg72 3.190886 1_555
Mg31 Mg34 3.194321 1_555
Mg31 Mg36 3.194337 1_555
Mg32 Mg48 3.187540 1_555
Mg32 Mg47 3.187541 1_555
Mg32 Mg56 3.190458 1_555
Mg32 Mg55 3.190458 1_555
Mg32 Mg41 3.190682 1_565
Mg32 Mg40 3.190689 1_565
Mg32 Mg73 3.190886 1_555
Mg32 Mg38 3.194321 1_555
Mg32 Mg37 3.194337 1_555
Mg33 Mg34 3.170022 1_555
Mg33 Mg9 3.172925 1_455
Mg33 Mg49 3.173503 1_555
Mg33 Mg46 3.188208 1_555
Mg33 Mg57 3.189742 1_555
Mg33 Mg68 3.193991 1_555
Mg33 Mg43 3.196270 1_455
Mg33 Mg4 3.227675 1_555
Mg34 Mg50 3.173503 1_555
Mg34 Mg46 3.188209 1_555
Mg34 Mg58 3.189725 1_555
Mg34 Mg68 3.193999 1_555
Mg34 Mg42 3.196254 1_555
Mg34 Mg5 3.227684 1_555
Mg35 Mg38 3.170030 1_555
Mg35 Mg51 3.173511 1_555
Mg35 Mg48 3.188200 1_555
Mg35 Mg59 3.189734 1_555
Mg35 Mg70 3.193991 1_555
Mg35 Mg44 3.196262 1_455
Mg36 Mg37 3.170032 1_555
Mg36 Mg52 3.173502 1_555
Mg36 Mg47 3.188216 1_555
Mg36 Mg60 3.189734 1_555
Mg36 Mg69 3.193999 1_555
Mg36 Mg45 3.196264 1_555
Mg37 Mg53 3.173502 1_555
Mg37 Mg47 3.188216 1_555
Mg37 Mg56 3.189734 1_555
Mg37 Mg69 3.193999 1_555
Mg37 Mg40 3.196247 1_565
Mg38 Mg54 3.173503 1_555
Mg38 Mg48 3.188209 1_555
Mg38 Mg55 3.189725 1_555
Mg38 Mg70 3.193999 1_555
Mg38 Mg41 3.196246 1_565
Mg39 Mg6 3.185886 1_555
Mg39 Mg43 3.189173 1_555
Mg39 Mg42 3.189181 1_555
Mg39 Mg41 3.189182 1_555
Mg39 Mg44 3.189182 1_555
Mg39 Mg40 3.189183 1_555
Mg39 Mg45 3.189183 1_555
Mg39 Mg62 3.194017 1_555
Mg39 Mg61 3.194018 1_555
Mg39 Mg63 3.194033 1_555
Mg40 Mg56 3.184051 1_545
Mg40 Mg43 3.184439 1_555
Mg40 Mg61 3.184989 1_555
Mg40 Mg7 3.186659 1_555
Mg40 Mg6 3.188045 1_555
Mg40 Mg66 3.189482 1_555
Mg40 Mg41 3.193910 1_555
Mg41 Mg55 3.184051 1_545
Mg41 Mg42 3.184432 1_555
Mg41 Mg61 3.184973 1_555
Mg41 Mg8 3.186667 1_555
Mg41 Mg6 3.188029 1_555
Mg41 Mg65 3.189483 1_555
Mg42 Mg58 3.184059 1_555
Mg42 Mg63 3.184973 1_555
Mg42 Mg8 3.186659 1_555
Mg42 Mg65 3.189483 1_555
Mg42 Mg45 3.193910 1_555
Mg43 Mg57 3.184051 1_655
Mg43 Mg62 3.184981 1_555
Mg43 Mg9 3.186161 1_555
Mg43 Mg7 3.186667 1_555
Mg43 Mg66 3.189491 1_555
Mg43 Mg44 3.193895 1_555
Mg44 Mg59 3.184051 1_655
Mg44 Mg45 3.184431 1_555
Mg44 Mg62 3.184973 1_555
Mg44 Mg67 3.189483 1_555
Mg45 Mg60 3.184059 1_555
Mg45 Mg63 3.184974 1_555
Mg45 Mg67 3.189482 1_555
Mg46 Mg47 3.182301 1_555
Mg46 Mg48 3.182302 1_555
Mg46 Mg72 3.188747 1_555
Mg46 Mg71 3.188747 1_555
Mg46 Mg68 3.193444 1_555
Mg47 Mg48 3.182300 1_555
Mg47 Mg73 3.188739 1_555
Mg47 Mg72 3.188739 1_555
Mg47 Mg69 3.193443 1_555
Mg48 Mg71 3.188739 1_555
Mg48 Mg73 3.188747 1_555
Mg48 Mg70 3.193444 1_555
Mg49 Mg50 3.169868 1_555
Mg49 Mg64 3.177472 1_555
Mg49 Mg53 3.184636 1_445
Mg49 Mg68 3.193288 1_555
Mg49 Mg57 3.193393 1_555
Mg49 Mg66 3.195868 1_455
Mg49 Mg76 3.206106 1_555
Mg49 Mg80 3.211409 1_555
Mg49 Mg75 3.212713 1_455
Mg50 Mg64 3.177479 1_555
Mg50 Mg54 3.184661 1_545
Mg50 Mg68 3.193273 1_555
Mg50 Mg58 3.193384 1_555
Mg50 Mg65 3.195892 1_555
Mg50 Mg76 3.206105 1_555
Mg50 Mg79 3.211401 1_555
Mg50 Mg74 3.212713 1_555
Mg51 Mg54 3.169868 1_555
Mg51 Mg64 3.177472 1_565
Mg51 Mg52 3.184628 1_455
Mg51 Mg70 3.193288 1_555
Mg51 Mg59 3.193393 1_555
Mg51 Mg67 3.195876 1_455
Mg51 Mg95 3.206106 1_555
Mg51 Mg89 3.211409 1_555
Mg51 Mg93 3.212713 1_455
Mg52 Mg53 3.169861 1_555
Mg52 Mg64 3.177471 1_665
Mg52 Mg69 3.193288 1_555
Mg52 Mg60 3.193392 1_555
Mg52 Mg67 3.195885 1_555
Mg52 Mg94 3.206106 1_555
Mg52 Mg90 3.211401 1_555
Mg52 Mg93 3.212713 1_555
Mg53 Mg64 3.177462 1_665
Mg53 Mg69 3.193280 1_555
Mg53 Mg56 3.193400 1_555
Mg53 Mg66 3.195885 1_565
Mg53 Mg94 3.206098 1_555
Mg53 Mg97 3.211401 1_555
Mg53 Mg75 3.212721 1_565
Mg54 Mg64 3.177478 1_565
Mg54 Mg70 3.193273 1_555
Mg54 Mg55 3.193384 1_555
Mg54 Mg65 3.195884 1_565
Mg54 Mg95 3.206105 1_555
Mg54 Mg96 3.211393 1_555
Mg54 Mg74 3.212721 1_565
Mg55 Mg70 3.184351 1_555
Mg55 Mg65 3.186257 1_565
Mg55 Mg61 3.188199 1_565
Mg55 Mg73 3.188560 1_555
Mg55 Mg98 3.191877 1_555
Mg55 Mg96 3.193697 1_555
Mg55 Mg56 3.199729 1_555
Mg55 Mg78 3.199893 1_565
Mg56 Mg69 3.184352 1_555
Mg56 Mg66 3.186264 1_565
Mg56 Mg61 3.188208 1_565
Mg56 Mg73 3.188551 1_555
Mg56 Mg98 3.191877 1_555
Mg56 Mg97 3.193697 1_555
Mg56 Mg77 3.199885 1_565
Mg57 Mg68 3.184351 1_555
Mg57 Mg66 3.186264 1_455
Mg57 Mg62 3.188207 1_455
Mg57 Mg71 3.188559 1_555
Mg57 Mg86 3.191877 1_555
Mg57 Mg80 3.193689 1_555
Mg57 Mg59 3.199730 1_555
Mg57 Mg81 3.199893 1_455
Mg58 Mg68 3.184351 1_555
Mg58 Mg65 3.186273 1_555
Mg58 Mg63 3.188191 1_555
Mg58 Mg72 3.188560 1_555
Mg58 Mg85 3.191877 1_555
Mg58 Mg79 3.193697 1_555
Mg58 Mg60 3.199729 1_555
Mg58 Mg82 3.199885 1_555
Mg59 Mg70 3.184351 1_555
Mg59 Mg67 3.186255 1_455
Mg59 Mg62 3.188199 1_455
Mg59 Mg71 3.188551 1_555
Mg59 Mg86 3.191877 1_555
Mg59 Mg89 3.193689 1_555
Mg59 Mg88 3.199893 1_455
Mg60 Mg69 3.184352 1_555
Mg60 Mg67 3.186271 1_555
Mg60 Mg63 3.188192 1_555
Mg60 Mg72 3.188551 1_555
Mg60 Mg85 3.191877 1_555
Mg60 Mg90 3.193697 1_555
Mg60 Mg87 3.199885 1_555
Mg61 Mg65 3.189767 1_555
Mg61 Mg66 3.189798 1_555
Mg61 Mg78 3.190693 1_555
Mg61 Mg77 3.190701 1_555
Mg61 Mg83 3.195529 1_555
Mg61 Mg62 3.195844 1_555
Mg61 Mg63 3.195845 1_555
Mg62 Mg67 3.189768 1_555
Mg62 Mg66 3.189800 1_555
Mg62 Mg88 3.190693 1_555
Mg62 Mg81 3.190701 1_555
Mg62 Mg83 3.195528 1_555
Mg62 Mg63 3.195844 1_555
Mg63 Mg67 3.189783 1_555
Mg63 Mg65 3.189783 1_555
Mg63 Mg82 3.190693 1_555
Mg63 Mg87 3.190693 1_555
Mg63 Mg83 3.195544 1_555
Mg64 Mg94 3.181550 1_445
Mg64 Mg95 3.181551 1_545
Mg64 Mg76 3.181551 1_555
Mg65 Mg78 3.184558 1_555
Mg65 Mg82 3.184574 1_555
Mg65 Mg74 3.190707 1_555
Mg66 Mg81 3.184566 1_555
Mg66 Mg77 3.184574 1_555
Mg66 Mg75 3.190691 1_555
Mg67 Mg88 3.184558 1_555
Mg67 Mg87 3.184574 1_555
Mg67 Mg93 3.190699 1_555
Mg68 Mg84 3.178760 1_555
Mg68 Mg72 3.185041 1_555
Mg68 Mg71 3.185042 1_555
Mg68 Mg79 3.190054 1_555
Mg68 Mg80 3.190062 1_555
Mg69 Mg92 3.178760 1_555
Mg69 Mg73 3.185025 1_555
Mg69 Mg72 3.185025 1_555
Mg69 Mg97 3.190062 1_555
Mg69 Mg90 3.190062 1_555
Mg70 Mg91 3.178768 1_555
Mg70 Mg71 3.185027 1_555
Mg70 Mg73 3.185041 1_555
Mg70 Mg89 3.190062 1_555
Mg70 Mg96 3.190062 1_555
Mg71 Mg73 3.191286 1_555
Mg71 Mg72 3.191294 1_555
Mg71 Mg91 3.193130 1_555
Mg71 Mg84 3.193146 1_555
Mg71 Mg86 3.200333 1_555
Mg72 Mg73 3.191279 1_555
Mg72 Mg92 3.193138 1_555
Mg72 Mg84 3.193146 1_555
Mg72 Mg85 3.200334 1_555
Mg73 Mg92 3.193138 1_555
Mg73 Mg91 3.193146 1_555
Mg73 Mg98 3.200334 1_555
Mg74 Mg79 3.179689 1_555
Mg74 Mg96 3.179689 1_545
Mg74 Mg76 3.181639 1_555
Mg74 Mg95 3.181647 1_545
Mg74 Mg78 3.192370 1_555
Mg74 Mg82 3.192370 1_555
Mg75 Mg97 3.179680 1_545
Mg75 Mg80 3.179688 1_655
Mg75 Mg76 3.181655 1_655
Mg75 Mg94 3.181656 1_545
Mg75 Mg81 3.192355 1_555
Mg75 Mg77 3.192362 1_555
Mg76 Mg79 3.181757 1_555
Mg76 Mg80 3.181766 1_555
Mg76 Mg94 3.186329 1_445
Mg76 Mg95 3.186330 1_545
Mg77 Mg81 3.172562 1_555
Mg77 Mg98 3.179195 1_545
Mg77 Mg83 3.182727 1_555
Mg77 Mg97 3.192477 1_545
Mg77 Mg78 3.192887 1_555
Mg78 Mg82 3.172563 1_555
Mg78 Mg98 3.179212 1_545
Mg78 Mg83 3.182726 1_555
Mg78 Mg96 3.192484 1_545
Mg79 Mg84 3.189268 1_555
Mg79 Mg80 3.190464 1_555
Mg79 Mg82 3.192484 1_555
Mg79 Mg85 3.195547 1_555
Mg80 Mg84 3.189274 1_555
Mg80 Mg81 3.192476 1_455
Mg80 Mg86 3.195540 1_555
Mg81 Mg86 3.179211 1_655
Mg81 Mg83 3.182718 1_555
Mg81 Mg88 3.192896 1_555
Mg82 Mg85 3.179197 1_555
Mg82 Mg83 3.182741 1_555
Mg82 Mg87 3.192879 1_555
Mg83 Mg88 3.182726 1_555
Mg83 Mg87 3.182743 1_555
Mg84 Mg99 3.193146 1_555
Mg84 Mg91 3.202935 1_555
Mg84 Mg92 3.202950 1_555
Mg84 Mg85 3.204960 1_555
Mg84 Mg86 3.204960 1_555
Mg85 Mg87 3.179195 1_555
Mg85 Mg90 3.195555 1_555
Mg85 Mg92 3.204961 1_555
Mg86 Mg88 3.179211 1_455
Mg86 Mg89 3.195540 1_555
Mg86 Mg99 3.200333 1_555
Mg86 Mg91 3.204952 1_555
Mg87 Mg88 3.172562 1_555
Mg87 Mg93 3.192362 1_555
Mg87 Mg90 3.192477 1_555
Mg88 Mg93 3.192355 1_555
Mg88 Mg89 3.192476 1_655
Mg89 Mg93 3.179688 1_455
Mg89 Mg95 3.181766 1_555
Mg89 Mg91 3.189282 1_555
Mg89 Mg96 3.190472 1_555
Mg90 Mg93 3.179680 1_555
Mg90 Mg94 3.181749 1_555
Mg90 Mg92 3.189282 1_555
Mg90 Mg97 3.190465 1_555
Mg91 Mg96 3.189299 1_555
Mg91 Mg99 3.193130 1_555
Mg91 Mg92 3.202942 1_555
Mg91 Mg98 3.204968 1_555
Mg92 Mg97 3.189282 1_555
Mg92 Mg98 3.204962 1_555
Mg93 Mg95 3.181655 1_655
Mg93 Mg94 3.181656 1_555
Mg94 Mg97 3.181749 1_555
Mg94 Mg95 3.186329 1_655
Mg95 Mg96 3.181749 1_555
Mg96 Mg98 3.195555 1_555
Mg97 Mg98 3.195555 1_555
Mg100 Mg103 3.185025 1_555
Mg100 Mg102 3.185041 1_555
Mg100 Mg117 3.188551 1_555
Mg100 Mg115 3.188560 1_555
Mg100 Mg125 3.188739 1_555
Mg100 Mg124 3.188747 1_555
Mg100 Mg141 3.190886 1_555
Mg100 Mg101 3.191279 1_555
Mg100 Mg99 3.191294 1_555
Mg100 Mg92 3.193138 1_555
Mg100 Mg84 3.193146 1_555
Mg100 Mg85 3.200334 1_555
Mg101 Mg103 3.185025 1_555
Mg101 Mg104 3.185041 1_555
Mg101 Mg113 3.188551 1_555
Mg101 Mg112 3.188560 1_555
Mg101 Mg125 3.188739 1_555
Mg101 Mg126 3.188747 1_555
Mg101 Mg142 3.190886 1_555
Mg101 Mg99 3.191286 1_555
Mg101 Mg92 3.193138 1_555
Mg101 Mg91 3.193146 1_555
Mg101 Mg98 3.200334 1_555
Mg102 Mg84 3.178760 1_555
Mg102 Mg114 3.184351 1_555
Mg102 Mg115 3.184351 1_555
Mg102 Mg99 3.185042 1_555
Mg102 Mg79 3.190054 1_555
Mg102 Mg80 3.190062 1_555
Mg102 Mg119 3.193273 1_555
Mg102 Mg118 3.193288 1_555
Mg102 Mg124 3.193444 1_555
Mg102 Mg134 3.193991 1_555
Mg102 Mg135 3.193999 1_555
Mg103 Mg92 3.178760 1_555
Mg103 Mg117 3.184352 1_555
Mg103 Mg113 3.184352 1_555
Mg103 Mg97 3.190062 1_555
Mg103 Mg90 3.190062 1_555
Mg103 Mg122 3.193280 1_555
Mg103 Mg121 3.193288 1_555
Mg103 Mg125 3.193443 1_555
Mg103 Mg137 3.193999 1_555
Mg103 Mg138 3.193999 1_555
Mg104 Mg91 3.178768 1_555
Mg104 Mg116 3.184351 1_555
Mg104 Mg112 3.184351 1_555
Mg104 Mg99 3.185027 1_555
Mg104 Mg89 3.190062 1_555
Mg104 Mg96 3.190062 1_555
Mg104 Mg123 3.193273 1_555
Mg104 Mg120 3.193288 1_555
Mg104 Mg126 3.193444 1_555
Mg104 Mg136 3.193991 1_555
Mg104 Mg139 3.193999 1_555
Mg105 Mg78 3.184558 1_555
Mg105 Mg82 3.184574 1_555
Mg105 Mg112 3.186257 1_545
Mg105 Mg115 3.186273 1_555
Mg105 Mg128 3.189483 1_555
Mg105 Mg129 3.189483 1_555
Mg105 Mg109 3.189767 1_555
Mg105 Mg111 3.189783 1_555
Mg105 Mg74 3.190707 1_555
Mg105 Mg123 3.195884 1_545
Mg105 Mg119 3.195892 1_555
Mg105 Mg143 3.196303 1_555
Mg106 Mg81 3.184566 1_555
Mg106 Mg77 3.184574 1_555
Mg106 Mg114 3.186264 1_655
Mg106 Mg113 3.186264 1_545
Mg106 Mg127 3.189482 1_555
Mg106 Mg130 3.189491 1_555
Mg106 Mg109 3.189798 1_555
Mg106 Mg110 3.189800 1_555
Mg106 Mg75 3.190691 1_555
Mg106 Mg118 3.195868 1_655
Mg106 Mg122 3.195885 1_545
Mg106 Mg144 3.196287 1_555
Mg107 Mg88 3.184558 1_555
Mg107 Mg87 3.184574 1_555
Mg107 Mg116 3.186255 1_655
Mg107 Mg117 3.186271 1_555
Mg107 Mg132 3.189482 1_555
Mg107 Mg131 3.189483 1_555
Mg107 Mg110 3.189768 1_555
Mg107 Mg111 3.189783 1_555
Mg107 Mg93 3.190699 1_555
Mg107 Mg120 3.195876 1_655
Mg107 Mg121 3.195885 1_555
Mg107 Mg145 3.196295 1_555
Mg108 Mg122 3.177462 1_445
Mg108 Mg121 3.177471 1_445
Mg108 Mg120 3.177472 1_545
Mg108 Mg118 3.177472 1_555
Mg108 Mg123 3.177478 1_545
Mg108 Mg119 3.177479 1_555
Mg108 Mg94 3.181550 1_445
Mg108 Mg95 3.181551 1_545
Mg108 Mg76 3.181551 1_555
Mg108 Mg148 3.244384 1_445
Mg108 Mg147 3.244384 1_545
Mg108 Mg146 3.244392 1_555
Mg109 Mg128 3.184960 1_555
Mg109 Mg127 3.184977 1_555
Mg109 Mg112 3.188199 1_545
Mg109 Mg113 3.188208 1_545
Mg109 Mg78 3.190706 1_555
Mg109 Mg77 3.190714 1_555
Mg109 Mg133 3.194018 1_555
Mg109 Mg83 3.195541 1_555
Mg109 Mg110 3.195844 1_555
Mg109 Mg111 3.195845 1_555
Mg110 Mg131 3.184961 1_555
Mg110 Mg130 3.184969 1_555
Mg110 Mg116 3.188199 1_655
Mg110 Mg114 3.188207 1_655
Mg110 Mg88 3.190706 1_555
Mg110 Mg81 3.190714 1_555
Mg110 Mg133 3.194017 1_555
Mg110 Mg83 3.195541 1_555
Mg110 Mg111 3.195844 1_555
Mg111 Mg129 3.184960 1_555
Mg111 Mg132 3.184961 1_555
Mg111 Mg115 3.188191 1_555
Mg111 Mg117 3.188192 1_555
Mg111 Mg82 3.190706 1_555
Mg111 Mg87 3.190706 1_555
Mg111 Mg133 3.194033 1_555
Mg111 Mg83 3.195557 1_555
Mg112 Mg128 3.184064 1_565
Mg112 Mg139 3.189738 1_555
Mg112 Mg142 3.190471 1_555
Mg112 Mg98 3.191864 1_555
Mg112 Mg123 3.193384 1_555
Mg112 Mg96 3.193684 1_555
Mg112 Mg113 3.199729 1_555
Mg112 Mg78 3.199880 1_565
Mg113 Mg127 3.184064 1_565
Mg113 Mg138 3.189747 1_555
Mg113 Mg142 3.190471 1_555
Mg113 Mg98 3.191864 1_555
Mg113 Mg122 3.193400 1_555
Mg113 Mg97 3.193684 1_555
Mg113 Mg77 3.199872 1_565
Mg114 Mg130 3.184064 1_455
Mg114 Mg99 3.188559 1_555
Mg114 Mg134 3.189755 1_555
Mg114 Mg140 3.190471 1_555
Mg114 Mg86 3.191864 1_555
Mg114 Mg118 3.193393 1_555
Mg114 Mg80 3.193676 1_555
Mg114 Mg116 3.199730 1_555
Mg114 Mg81 3.199880 1_455
Mg115 Mg129 3.184072 1_555
Mg115 Mg135 3.189738 1_555
Mg115 Mg141 3.190471 1_555
Mg115 Mg85 3.191864 1_555
Mg115 Mg119 3.193384 1_555
Mg115 Mg79 3.193684 1_555
Mg115 Mg117 3.199729 1_555
Mg115 Mg82 3.199872 1_555
Mg116 Mg131 3.184064 1_455
Mg116 Mg99 3.188551 1_555
Mg116 Mg136 3.189747 1_555
Mg116 Mg140 3.190471 1_555
Mg116 Mg86 3.191864 1_555
Mg116 Mg120 3.193393 1_555
Mg116 Mg89 3.193676 1_555
Mg116 Mg88 3.199880 1_455
Mg117 Mg132 3.184072 1_555
Mg117 Mg137 3.189747 1_555
Mg117 Mg141 3.190471 1_555
Mg117 Mg85 3.191864 1_555
Mg117 Mg121 3.193392 1_555
Mg117 Mg90 3.193684 1_555
Mg117 Mg87 3.199872 1_555
Mg118 Mg119 3.169868 1_555
Mg118 Mg134 3.173503 1_555
Mg118 Mg144 3.182274 1_455
Mg118 Mg122 3.184636 1_445
Mg118 Mg76 3.206106 1_555
Mg118 Mg80 3.211409 1_555
Mg118 Mg75 3.212713 1_455
Mg118 Mg146 3.247723 1_555
Mg119 Mg135 3.173503 1_555
Mg119 Mg143 3.182274 1_555
Mg119 Mg123 3.184661 1_545
Mg119 Mg76 3.206105 1_555
Mg119 Mg79 3.211401 1_555
Mg119 Mg74 3.212713 1_555
Mg119 Mg146 3.247731 1_555
Mg120 Mg123 3.169868 1_555
Mg120 Mg136 3.173511 1_555
Mg120 Mg145 3.182274 1_455
Mg120 Mg121 3.184628 1_455
Mg120 Mg95 3.206106 1_555
Mg120 Mg89 3.211409 1_555
Mg120 Mg93 3.212713 1_455
Mg120 Mg147 3.247731 1_555
Mg121 Mg122 3.169861 1_555
Mg121 Mg137 3.173502 1_555
Mg121 Mg145 3.182275 1_555
Mg121 Mg94 3.206106 1_555
Mg121 Mg90 3.211401 1_555
Mg121 Mg93 3.212713 1_555
Mg121 Mg148 3.247731 1_555
Mg122 Mg138 3.173502 1_555
Mg122 Mg144 3.182283 1_565
Mg122 Mg94 3.206098 1_555
Mg122 Mg97 3.211401 1_555
Mg122 Mg75 3.212721 1_565
Mg122 Mg148 3.247723 1_555
Mg123 Mg139 3.173503 1_555
Mg123 Mg143 3.182282 1_565
Mg123 Mg95 3.206105 1_555
Mg123 Mg96 3.211393 1_555
Mg123 Mg74 3.212721 1_565
Mg123 Mg147 3.247731 1_555
Mg124 Mg125 3.182301 1_555
Mg124 Mg126 3.182302 1_555
Mg124 Mg14 3.187121 1_556
Mg124 Mg15 3.187130 1_556
Mg124 Mg141 3.187540 1_555
Mg124 Mg140 3.187540 1_555
Mg124 Mg134 3.188208 1_555
Mg124 Mg135 3.188209 1_555
Mg124 Mg99 3.188747 1_555
Mg125 Mg126 3.182300 1_555
Mg125 Mg19 3.187122 1_556
Mg125 Mg14 3.187130 1_556
Mg125 Mg141 3.187541 1_555
Mg125 Mg142 3.187541 1_555
Mg125 Mg137 3.188216 1_555
Mg125 Mg138 3.188216 1_555
Mg125 Mg20 3.194707 1_556
Mg126 Mg19 3.187121 1_556
Mg126 Mg15 3.187122 1_556
Mg126 Mg140 3.187540 1_555
Mg126 Mg142 3.187540 1_555
Mg126 Mg136 3.188200 1_555
Mg126 Mg139 3.188209 1_555
Mg126 Mg99 3.188739 1_555
Mg126 Mg21 3.194708 1_556
Mg127 Mg144 3.177939 1_555
Mg127 Mg130 3.184439 1_555
Mg127 Mg3 3.186153 1_556
Mg127 Mg7 3.186659 1_556
Mg127 Mg6 3.188045 1_556
Mg127 Mg133 3.189183 1_555
Mg127 Mg142 3.190689 1_545
Mg127 Mg128 3.193910 1_555
Mg127 Mg138 3.196247 1_545
Mg128 Mg143 3.177971 1_555
Mg128 Mg129 3.184432 1_555
Mg128 Mg2 3.186161 1_556
Mg128 Mg8 3.186667 1_556
Mg128 Mg6 3.188029 1_556
Mg128 Mg133 3.189182 1_555
Mg128 Mg142 3.190682 1_545
Mg128 Mg139 3.196246 1_545
Mg129 Mg143 3.177955 1_555
Mg129 Mg8 3.186659 1_556
Mg129 Mg133 3.189181 1_555
Mg129 Mg141 3.190698 1_555
Mg129 Mg132 3.193910 1_555
Mg129 Mg135 3.196254 1_555
Mg130 Mg144 3.177956 1_555
Mg130 Mg9 3.186161 1_556
Mg130 Mg7 3.186667 1_556
Mg130 Mg133 3.189174 1_555
Mg130 Mg140 3.190681 1_655
Mg130 Mg131 3.193895 1_555
Mg130 Mg134 3.196270 1_655
Mg131 Mg145 3.177956 1_555
Mg131 Mg132 3.184431 1_555
Mg131 Mg18 3.186160 1_556
Mg131 Mg16 3.186667 1_556
Mg131 Mg133 3.189182 1_555
Mg131 Mg140 3.190680 1_655
Mg131 Mg136 3.196262 1_655
Mg132 Mg145 3.177947 1_555
Mg132 Mg17 3.186161 1_556
Mg132 Mg16 3.186659 1_556
Mg132 Mg133 3.189183 1_555
Mg132 Mg141 3.190697 1_555
Mg132 Mg137 3.196264 1_555
Mg133 Mg6 3.185873 1_556
Mg134 Mg135 3.170022 1_555
Mg134 Mg9 3.172925 1_456
Mg134 Mg144 3.191155 1_455
Mg134 Mg140 3.194346 1_555
Mg134 Mg146 3.224640 1_555
Mg134 Mg4 3.227675 1_556
Mg135 Mg143 3.191148 1_555
Mg135 Mg141 3.194321 1_555
Mg135 Mg146 3.224670 1_555
Mg135 Mg5 3.227684 1_556
Mg136 Mg139 3.170030 1_555
Mg136 Mg18 3.172925 1_456
Mg136 Mg21 3.177111 1_556
Mg136 Mg145 3.191162 1_455
Mg136 Mg140 3.194330 1_555
Mg136 Mg147 3.224671 1_555
Mg136 Mg23 3.227684 1_556
Mg137 Mg138 3.170032 1_555
Mg137 Mg17 3.172925 1_556
Mg137 Mg20 3.177119 1_556
Mg137 Mg145 3.191147 1_555
Mg137 Mg141 3.194337 1_555
Mg137 Mg148 3.224662 1_555
Mg137 Mg22 3.227675 1_556
Mg138 Mg3 3.172925 1_566
Mg138 Mg20 3.177119 1_556
Mg138 Mg144 3.191147 1_565
Mg138 Mg142 3.194337 1_555
Mg138 Mg148 3.224662 1_555
Mg139 Mg2 3.172917 1_566
Mg139 Mg21 3.177119 1_556
Mg139 Mg143 3.191164 1_565
Mg139 Mg142 3.194321 1_555
Mg139 Mg147 3.224678 1_555
Mg140 Mg15 3.181842 1_556
Mg140 Mg99 3.190886 1_555
Mg140 Mg18 3.203496 1_456
Mg140 Mg9 3.203504 1_456
Mg141 Mg17 3.203503 1_556
Mg142 Mg19 3.181851 1_556
Mg142 Mg2 3.203496 1_566
Mg142 Mg3 3.203503 1_566
Mg143 Mg8 3.172748 1_556
Mg143 Mg5 3.181214 1_556
Mg143 Mg146 3.196914 1_555
Mg143 Mg147 3.196914 1_545
Mg144 Mg7 3.172741 1_556
Mg144 Mg4 3.181222 1_656
Mg144 Mg146 3.196914 1_655
Mg144 Mg148 3.196923 1_545
Mg145 Mg16 3.172741 1_556
Mg145 Mg23 3.181222 1_656
Mg145 Mg22 3.181222 1_556
Mg145 Mg147 3.196922 1_655
Mg145 Mg148 3.196923 1_555
Mg146 Mg4 3.083251 1_556
Mg146 Mg5 3.083258 1_556
Mg146 Ta0 3.086358 1_556
Mg146 Mg148 3.105463 1_445
Mg146 Mg147 3.105472 1_545
Mg147 Mg23 3.083259 1_556
Mg147 Ta0 3.086350 1_566
Mg147 Mg148 3.105455 1_455
Mg148 Mg22 3.083259 1_556
Mg148 Ta0 3.086350 1_666
