# generated using pymatgen
data_SrPrZrMnO6
_symmetry_space_group_name_H-M   'P 1'
_cell_length_a   5.74687046
_cell_length_b   5.74687046
_cell_length_c   5.74687046
_cell_angle_alpha   60.00000000
_cell_angle_beta   60.00000000
_cell_angle_gamma   60.00000000
_symmetry_Int_Tables_number   1
_chemical_formula_structural   SrPrZrMnO6
_chemical_formula_sum   'Sr1 Pr1 Zr1 Mn1 O6'
_cell_volume   134.20825349
_cell_formula_units_Z   1
loop_
 _symmetry_equiv_pos_site_id
 _symmetry_equiv_pos_as_xyz
  1  'x, y, z'
loop_
 _atom_site_type_symbol
 _atom_site_label
 _atom_site_symmetry_multiplicity
 _atom_site_fract_x
 _atom_site_fract_y
 _atom_site_fract_z
 _atom_site_occupancy
  Sr  Sr0  1  0.75000000  0.75000000  0.75000000  1
  Pr  Pr0  1  0.25000000  0.25000000  0.25000000  1
  Zr  Zr0  1  0.50000000  0.50000000  0.50000000  1
  Mn  Mn0  1  0.00000000  0.00000000  -0.00000000  1
  O  O0  1  0.75451760  0.24548240  0.24548240  1
  O  O1  1  0.24548240  0.75451760  0.75451760  1
  O  O2  1  0.75451760  0.24548240  0.75451760  1
  O  O3  1  0.24548240  0.75451760  0.24548240  1
  O  O4  1  0.75451760  0.75451760  0.24548240  1
  O  O5  1  0.24548240  0.24548240  0.75451760  1
loop_
_geom_bond_atom_site_label_1
_geom_bond_atom_site_label_2
_geom_bond_distance
_geom_bond_site_symmetry_2
Mn0 O1 1.995110 1_544
Mn0 O0 1.995110 1_455
Mn0 O4 1.995110 1_445
Mn0 O3 1.995110 1_545
Mn0 O5 1.995110 1_554
Mn0 O2 1.995110 1_454
O0 Zr0 2.068541 1_555
O0 Sr0 2.873670 1_545
O0 Pr0 2.873670 1_655
O0 Pr0 2.873670 1_555
O0 Sr0 2.873670 1_554
O1 Zr0 2.068541 1_555
O1 Pr0 2.873670 1_556
O1 Pr0 2.873670 1_565
O1 Sr0 2.873670 1_555
O1 Sr0 2.873670 1_455
O2 Zr0 2.068541 1_555
O2 Sr0 2.873670 1_545
O2 Pr0 2.873670 1_556
O2 Pr0 2.873670 1_655
O2 Sr0 2.873670 1_555
O3 Zr0 2.068541 1_555
O3 Pr0 2.873670 1_565
O3 Pr0 2.873670 1_555
O3 Sr0 2.873670 1_554
O3 Sr0 2.873670 1_455
O4 Zr0 2.068541 1_555
O4 Pr0 2.873670 1_655
O4 Pr0 2.873670 1_565
O4 Sr0 2.873670 1_555
O4 Sr0 2.873670 1_554
O5 Zr0 2.068541 1_555
O5 Sr0 2.873670 1_545
O5 Pr0 2.873670 1_556
O5 Pr0 2.873670 1_555
O5 Sr0 2.873670 1_455
