# generated using pymatgen
data_Fe2O3
_symmetry_space_group_name_H-M   'P 1'
_cell_length_a   9.25609206
_cell_length_b   10.28126352
_cell_length_c   10.88277650
_cell_angle_alpha   86.61346245
_cell_angle_beta   98.21484333
_cell_angle_gamma   88.04233968
_symmetry_Int_Tables_number   1
_chemical_formula_structural   Fe2O3
_chemical_formula_sum   'Fe32 O48'
_cell_volume   1022.28386619
_cell_formula_units_Z   16
loop_
 _symmetry_equiv_pos_site_id
 _symmetry_equiv_pos_as_xyz
  1  'x, y, z'
loop_
 _atom_site_type_symbol
 _atom_site_label
 _atom_site_symmetry_multiplicity
 _atom_site_fract_x
 _atom_site_fract_y
 _atom_site_fract_z
 _atom_site_occupancy
  Fe  Fe0  1  0.49592200  0.03020700  0.87662600  1
  Fe  Fe1  1  0.17993500  0.12928300  0.99624300  1
  Fe  Fe2  1  0.53876400  0.74364100  0.86536600  1
  Fe  Fe3  1  0.07556700  0.59988200  0.56548300  1
  Fe  Fe4  1  0.03578200  0.88211300  0.06449300  1
  Fe  Fe5  1  0.82989300  0.19395600  0.94010100  1
  Fe  Fe6  1  0.28144700  0.07161200  0.56892100  1
  Fe  Fe7  1  0.69735100  0.55068300  0.65727100  1
  Fe  Fe8  1  0.97513900  0.06526300  0.76635200  1
  Fe  Fe9  1  0.71626800  0.76314700  0.44621500  1
  Fe  Fe10  1  0.72428400  0.03233400  0.38482200  1
  Fe  Fe11  1  0.67779900  0.97107500  0.67319600  1
  Fe  Fe12  1  0.30975900  0.62785500  0.05834000  1
  Fe  Fe13  1  0.18204300  0.94739400  0.32656400  1
  Fe  Fe14  1  0.00569400  0.36208000  0.18719200  1
  Fe  Fe15  1  0.01870600  0.38519700  0.75615500  1
  Fe  Fe16  1  0.92304200  0.67741600  0.23467900  1
  Fe  Fe17  1  0.85470000  0.54342000  0.97139200  1
  Fe  Fe18  1  0.33156600  0.32388200  0.20102800  1
  Fe  Fe19  1  0.34639400  0.27177900  0.75113000  1
  Fe  Fe20  1  0.43151400  0.91990700  0.19259200  1
  Fe  Fe21  1  0.83937600  0.47379600  0.43499700  1
  Fe  Fe22  1  0.36580700  0.54958100  0.73028800  1
  Fe  Fe23  1  0.59621600  0.39437300  0.95060500  1
  Fe  Fe24  1  0.57271300  0.17807100  0.12460100  1
  Fe  Fe25  1  0.75402100  0.94356600  0.13604000  1
  Fe  Fe26  1  0.03154200  0.89309000  0.58537300  1
  Fe  Fe27  1  0.40838500  0.75834900  0.51425200  1
  Fe  Fe28  1  0.19193600  0.80085400  0.84655300  1
  Fe  Fe29  1  0.10962100  0.29274200  0.44506100  1
  Fe  Fe30  1  0.63000000  0.24330200  0.63116500  1
  Fe  Fe31  1  0.52457500  0.62506300  0.27006800  1
  O  O0  1  0.32979000  0.15656500  0.89396700  1
  O  O1  1  0.28478800  0.60572300  0.56386400  1
  O  O2  1  0.98108100  0.54410200  0.12669500  1
  O  O3  1  0.54513200  0.64148400  0.44610000  1
  O  O4  1  0.43804800  0.15582200  0.24106100  1
  O  O5  1  0.23996000  0.88931400  0.52719900  1
  O  O6  1  0.82441400  0.35804500  0.02649300  1
  O  O7  1  0.91328000  0.33556800  0.33985000  1
  O  O8  1  0.86651800  0.50075100  0.79816400  1
  O  O9  1  0.59086500  0.86485100  0.54496500  1
  O  O10  1  0.65084800  0.58069300  0.94788300  1
  O  O11  1  0.89598100  0.04043200  0.04191700  1
  O  O12  1  0.36940900  0.51884600  0.20558600  1
  O  O13  1  0.16136900  0.11197600  0.40184100  1
  O  O14  1  0.48821800  0.35522500  0.08006100  1
  O  O15  1  0.15329200  0.28095300  0.09083000  1
  O  O16  1  0.01993300  0.22594900  0.86251000  1
  O  O17  1  0.13239300  0.72673300  0.00193200  1
  O  O18  1  0.21930600  0.42398500  0.77905300  1
  O  O19  1  0.88137500  0.91798300  0.69743200  1
  O  O20  1  0.75326900  0.11206500  0.22913700  1
  O  O21  1  0.47851600  0.10818900  0.69215900  1
  O  O22  1  0.67361400  0.11685700  0.52199700  1
  O  O23  1  0.35392100  0.63429600  0.88694700  1
  O  O24  1  0.83319900  0.63086600  0.56078800  1
  O  O25  1  0.87635600  0.89560300  0.44767200  1
  O  O26  1  0.00890600  0.59652000  0.39476100  1
  O  O27  1  0.69550500  0.40036500  0.55798600  1
  O  O28  1  0.36096700  0.84246800  0.33753000  1
  O  O29  1  0.77547100  0.15347400  0.75810600  1
  O  O30  1  0.10330200  0.06177000  0.64563500  1
  O  O31  1  0.01074000  0.40861500  0.57598400  1
  O  O32  1  0.73809700  0.60511600  0.29645800  1
  O  O33  1  0.64411100  0.88335700  0.28729100  1
  O  O34  1  0.09847700  0.73446200  0.69205100  1
  O  O35  1  0.62200600  0.19830000  0.94384600  1
  O  O36  1  0.45519600  0.74478800  0.12412900  1
  O  O37  1  0.27736500  0.26405100  0.57741800  1
  O  O38  1  0.51238000  0.39210300  0.76301300  1
  O  O39  1  0.18851400  0.36932300  0.30875100  1
  O  O40  1  0.64675300  0.89954900  0.83900900  1
  O  O41  1  0.03651500  0.83992600  0.24771000  1
  O  O42  1  0.37466100  0.87989900  0.84111500  1
  O  O43  1  0.22093500  0.98920800  0.13737700  1
  O  O44  1  0.83538500  0.78540300  0.08112900  1
  O  O45  1  0.54648900  0.99452500  0.06355900  1
  O  O46  1  0.09965000  0.96625500  0.90318200  1
  O  O47  1  0.53537500  0.66169100  0.70215300  1
loop_
_geom_bond_atom_site_label_1
_geom_bond_atom_site_label_2
_geom_bond_distance
_geom_bond_site_symmetry_2
Fe0 O42 1.965291 1_545
Fe0 O40 2.005343 1_545
Fe0 O0 2.015777 1_555
Fe0 O45 2.029834 1_546
Fe0 O21 2.099396 1_555
Fe0 O35 2.219693 1_555
Fe1 O0 1.916353 1_555
Fe1 O15 1.946260 1_556
Fe1 O43 2.027778 1_546
Fe1 O16 2.100434 1_555
Fe1 O46 2.111380 1_545
Fe2 O40 1.946242 1_555
Fe2 O47 2.007109 1_555
Fe2 O42 2.008925 1_555
Fe2 O10 2.031426 1_555
Fe2 O23 2.112180 1_555
Fe3 O26 1.874901 1_555
Fe3 O1 1.942109 1_555
Fe3 O34 2.004611 1_555
Fe3 O31 2.076961 1_555
Fe3 O24 2.247963 1_455
Fe4 O17 2.005019 1_555
Fe4 O41 2.014350 1_555
Fe4 O11 2.025411 1_465
Fe4 O46 2.081290 1_554
Fe4 O43 2.149936 1_555
Fe4 O44 2.159340 1_455
Fe5 O11 1.904487 1_556
Fe5 O35 1.929517 1_555
Fe5 O6 1.981868 1_556
Fe5 O29 2.043623 1_555
Fe5 O16 2.084844 1_655
Fe6 O30 1.954740 1_555
Fe6 O37 1.985450 1_555
Fe6 O5 1.991567 1_545
Fe6 O13 2.003884 1_555
Fe6 O21 2.162129 1_555
Fe7 O24 1.925897 1_555
Fe7 O27 1.936497 1_555
Fe7 O47 1.986747 1_555
Fe7 O8 2.057270 1_555
Fe7 O38 2.728714 1_555
Fe8 O30 1.892750 1_655
Fe8 O19 1.909610 1_545
Fe8 O46 1.957583 1_645
Fe8 O29 2.018582 1_555
Fe8 O16 2.030601 1_655
Fe9 O24 1.972104 1_555
Fe9 O9 2.000483 1_555
Fe9 O25 2.045531 1_555
Fe9 O3 2.051544 1_555
Fe9 O33 2.079857 1_555
Fe9 O32 2.391932 1_555
Fe10 O22 1.878623 1_555
Fe10 O20 1.896150 1_555
Fe10 O25 1.975199 1_545
Fe10 O33 2.016913 1_545
Fe11 O19 1.920642 1_555
Fe11 O9 1.925320 1_555
Fe11 O40 1.971154 1_555
Fe11 O22 2.154523 1_565
Fe11 O29 2.295594 1_565
Fe11 O21 2.323324 1_565
Fe12 O12 1.903014 1_555
Fe12 O17 1.905197 1_555
Fe12 O36 1.925349 1_555
Fe12 O23 1.963595 1_554
Fe13 O41 1.911826 1_555
Fe13 O28 1.930551 1_555
Fe13 O13 1.938410 1_565
Fe13 O43 2.161296 1_555
Fe13 O5 2.213836 1_555
Fe14 O2 1.941649 1_455
Fe14 O7 1.983581 1_455
Fe14 O39 1.999916 1_555
Fe14 O15 2.024056 1_555
Fe14 O6 2.247318 1_455
Fe15 O18 1.897061 1_555
Fe15 O8 1.933561 1_455
Fe15 O16 1.947186 1_555
Fe15 O31 1.951842 1_555
Fe16 O26 1.935566 1_655
Fe16 O2 1.966891 1_555
Fe16 O44 2.003788 1_555
Fe16 O41 2.005044 1_655
Fe16 O32 2.071681 1_555
Fe17 O10 1.890412 1_555
Fe17 O2 1.913625 1_556
Fe17 O8 1.977817 1_555
Fe17 O6 2.005019 1_556
Fe18 O39 1.952409 1_555
Fe18 O4 1.954166 1_555
Fe18 O15 1.975525 1_555
Fe18 O12 2.048861 1_555
Fe18 O14 2.113446 1_555
Fe19 O37 1.914278 1_555
Fe19 O0 1.925173 1_555
Fe19 O18 1.989346 1_555
Fe19 O38 1.999886 1_555
Fe19 O21 2.224306 1_555
Fe20 O28 1.931253 1_555
Fe20 O36 2.005734 1_555
Fe20 O45 2.012103 1_555
Fe20 O43 2.046389 1_555
Fe20 O33 2.097572 1_555
Fe20 O4 2.513368 1_565
Fe21 O7 1.967148 1_555
Fe21 O32 2.060081 1_555
Fe21 O31 2.104659 1_655
Fe21 O26 2.124257 1_655
Fe21 O27 2.143244 1_555
Fe21 O24 2.182287 1_555
Fe22 O1 1.906466 1_555
Fe22 O23 1.974798 1_555
Fe22 O18 2.008032 1_555
Fe22 O47 2.026079 1_555
Fe22 O38 2.057322 1_555
Fe23 O14 1.873250 1_556
Fe23 O10 1.997471 1_555
Fe23 O35 2.028748 1_555
Fe23 O38 2.079584 1_555
Fe23 O6 2.166610 1_556
Fe24 O4 1.910242 1_555
Fe24 O20 1.958517 1_555
Fe24 O14 1.963171 1_555
Fe24 O45 2.048080 1_545
Fe24 O35 2.082212 1_554
Fe25 O44 1.930876 1_555
Fe25 O45 2.009003 1_555
Fe25 O11 2.030064 1_565
Fe25 O20 2.058211 1_565
Fe25 O33 2.128091 1_555
Fe26 O25 1.920265 1_455
Fe26 O34 1.973122 1_555
Fe26 O30 1.991851 1_565
Fe26 O19 1.995413 1_455
Fe26 O5 2.114400 1_555
Fe27 O3 1.966088 1_555
Fe27 O9 2.042511 1_555
Fe27 O28 2.043462 1_555
Fe27 O5 2.050608 1_555
Fe27 O1 2.064395 1_555
Fe27 O47 2.354567 1_555
Fe28 O42 1.908231 1_555
Fe28 O34 1.949793 1_555
Fe28 O17 1.971443 1_556
Fe28 O46 2.043597 1_555
Fe28 O23 2.218330 1_555
Fe29 O39 1.888014 1_555
Fe29 O37 1.962633 1_555
Fe29 O13 2.002880 1_555
Fe29 O7 2.024538 1_455
Fe29 O31 2.187625 1_555
Fe30 O22 1.883652 1_555
Fe30 O27 1.913742 1_555
Fe30 O29 1.951197 1_555
Fe30 O21 2.150915 1_555
Fe30 O38 2.485271 1_555
Fe31 O12 1.912444 1_555
Fe31 O3 1.915964 1_555
Fe31 O32 1.957999 1_555
Fe31 O36 1.968140 1_555
