# generated using pymatgen
data_CaMg6Ga
_symmetry_space_group_name_H-M   'P 1'
_cell_length_a   5.09260600
_cell_length_b   6.61807100
_cell_length_c   11.33321500
_cell_angle_alpha   90.00000000
_cell_angle_beta   90.00000000
_cell_angle_gamma   90.00000000
_symmetry_Int_Tables_number   1
_chemical_formula_structural   CaMg6Ga
_chemical_formula_sum   'Ca2 Mg12 Ga2'
_cell_volume   381.96593006
_cell_formula_units_Z   2
loop_
 _symmetry_equiv_pos_site_id
 _symmetry_equiv_pos_as_xyz
  1  'x, y, z'
loop_
 _atom_site_type_symbol
 _atom_site_label
 _atom_site_symmetry_multiplicity
 _atom_site_fract_x
 _atom_site_fract_y
 _atom_site_fract_z
 _atom_site_occupancy
  Ca  Ca0  1  0.00000000  0.50000000  0.67325500  1
  Ca  Ca1  1  0.00000000  0.00000000  0.17325500  1
  Mg  Mg0  1  0.00000000  0.25740000  0.91871800  1
  Mg  Mg1  1  0.00000000  0.74260000  0.91871800  1
  Mg  Mg2  1  0.00000000  0.50000000  0.16412200  1
  Mg  Mg3  1  0.50000000  0.26136000  0.07852100  1
  Mg  Mg4  1  0.50000000  0.73864000  0.07852100  1
  Mg  Mg5  1  0.50000000  0.50000000  0.33291700  1
  Mg  Mg6  1  0.00000000  0.75740000  0.41871800  1
  Mg  Mg7  1  0.00000000  0.24260000  0.41871800  1
  Mg  Mg8  1  0.00000000  0.00000000  0.66412200  1
  Mg  Mg9  1  0.50000000  0.76136000  0.57852100  1
  Mg  Mg10  1  0.50000000  0.23864000  0.57852100  1
  Mg  Mg11  1  0.50000000  0.00000000  0.83291700  1
  Ga  Ga0  1  0.50000000  0.50000000  0.83522800  1
  Ga  Ga1  1  0.50000000  0.00000000  0.33522800  1
loop_
_geom_bond_atom_site_label_1
_geom_bond_atom_site_label_2
_geom_bond_distance
_geom_bond_site_symmetry_2
Ca0 Ga0 3.139006 1_455
Ca0 Ga0 3.139006 1_555
Ca0 Mg0 3.211955 1_555
Ca0 Mg1 3.211955 1_555
Ca0 Mg9 3.260095 1_555
Ca0 Mg10 3.260095 1_555
Ca0 Mg10 3.260095 1_455
Ca0 Mg9 3.260095 1_455
Ca0 Mg8 3.310654 1_565
Ca0 Mg8 3.310654 1_555
Ca0 Mg7 3.350150 1_555
Ca0 Mg6 3.350150 1_555
Ca1 Ga1 3.139006 1_555
Ca1 Ga1 3.139006 1_455
Ca1 Mg6 3.211955 1_545
Ca1 Mg7 3.211955 1_555
Ca1 Mg4 3.260095 1_445
Ca1 Mg4 3.260095 1_545
Ca1 Mg3 3.260095 1_455
Ca1 Mg3 3.260095 1_555
Ca1 Mg2 3.310654 1_555
Ca1 Mg2 3.310654 1_545
Ca1 Mg1 3.350150 1_544
Ca1 Mg0 3.350150 1_554
Mg0 Mg3 3.124798 1_556
Mg0 Mg3 3.124798 1_456
Mg0 Mg1 3.211088 1_555
Mg0 Mg2 3.211376 1_556
Mg0 Mg11 3.214204 1_455
Mg0 Mg11 3.214204 1_555
Mg0 Mg8 3.350726 1_555
Mg0 Mg1 3.406983 1_545
Mg1 Mg4 3.124798 1_456
Mg1 Mg4 3.124798 1_556
Mg1 Mg2 3.211376 1_556
Mg1 Mg11 3.214204 1_465
Mg1 Mg11 3.214204 1_565
Mg1 Mg8 3.350726 1_565
Mg2 Mg3 3.149464 1_555
Mg2 Mg3 3.149464 1_455
Mg2 Mg4 3.149464 1_455
Mg2 Mg4 3.149464 1_555
Mg2 Mg5 3.184837 1_455
Mg2 Mg5 3.184837 1_555
Mg2 Mg7 3.350726 1_555
Mg2 Mg6 3.350726 1_555
Mg3 Mg4 3.158673 1_555
Mg3 Mg5 3.287356 1_555
Mg3 Mg4 3.459398 1_545
Mg4 Mg5 3.287356 1_555
Mg5 Mg7 3.214204 1_655
Mg5 Mg7 3.214204 1_555
Mg5 Mg6 3.214204 1_555
Mg5 Mg6 3.214204 1_655
Mg5 Mg9 3.277138 1_555
Mg6 Mg9 3.124798 1_555
Mg6 Mg9 3.124798 1_455
Mg6 Mg7 3.211088 1_565
Mg6 Mg8 3.211376 1_565
Mg6 Mg7 3.406983 1_555
Mg7 Mg8 3.211376 1_555
Mg8 Mg9 3.149464 1_445
Mg8 Mg9 3.149464 1_545
Mg10 Mg7 3.124798 1_555
Mg10 Mg7 3.124798 1_655
Mg10 Mg8 3.149464 1_655
Mg10 Mg8 3.149464 1_555
Mg10 Mg9 3.158673 1_545
Mg10 Mg5 3.277138 1_555
Mg10 Mg11 3.287356 1_555
Mg10 Mg9 3.459398 1_555
Mg11 Mg8 3.184837 1_555
Mg11 Mg8 3.184837 1_655
Mg11 Mg4 3.277138 1_546
Mg11 Mg3 3.277138 1_556
Mg11 Mg9 3.287356 1_545
Ga0 Mg0 3.155431 1_555
Ga0 Mg1 3.155431 1_555
Ga0 Mg0 3.155431 1_655
Ga0 Mg1 3.155431 1_655
Ga0 Mg3 3.177572 1_556
Ga0 Mg4 3.177572 1_556
Ga0 Mg11 3.309139 1_555
Ga0 Mg11 3.309139 1_565
Ga0 Mg10 3.384668 1_555
Ga0 Mg9 3.384668 1_555
Ga1 Mg6 3.155431 1_645
Ga1 Mg6 3.155431 1_545
Ga1 Mg7 3.155431 1_655
Ga1 Mg7 3.155431 1_555
Ga1 Mg9 3.177572 1_545
Ga1 Mg10 3.177572 1_555
Ga1 Mg5 3.309139 1_545
Ga1 Mg5 3.309139 1_555
Ga1 Mg4 3.384668 1_545
Ga1 Mg3 3.384668 1_555
