# generated using pymatgen
data_Ti5Sn3Au
_symmetry_space_group_name_H-M   'P 1'
_cell_length_a   8.31992936
_cell_length_b   8.31992936
_cell_length_c   5.65634200
_cell_angle_alpha   90.00000000
_cell_angle_beta   90.00000000
_cell_angle_gamma   119.99999492
_symmetry_Int_Tables_number   1
_chemical_formula_structural   Ti5Sn3Au
_chemical_formula_sum   'Ti10 Sn6 Au2'
_cell_volume   339.08266852
_cell_formula_units_Z   2
loop_
 _symmetry_equiv_pos_site_id
 _symmetry_equiv_pos_as_xyz
  1  'x, y, z'
loop_
 _atom_site_type_symbol
 _atom_site_label
 _atom_site_symmetry_multiplicity
 _atom_site_fract_x
 _atom_site_fract_y
 _atom_site_fract_z
 _atom_site_occupancy
  Ti  Ti0  1  0.28176900  0.00000000  0.75000000  1
  Ti  Ti1  1  0.71823100  0.00000000  0.25000000  1
  Ti  Ti2  1  0.00000000  0.28176900  0.75000000  1
  Ti  Ti3  1  0.00000000  0.71823100  0.25000000  1
  Ti  Ti4  1  0.71823100  0.71823100  0.75000000  1
  Ti  Ti5  1  0.28176900  0.28176900  0.25000000  1
  Ti  Ti6  1  0.33333300  0.66666700  0.50000000  1
  Ti  Ti7  1  0.66666700  0.33333300  0.50000000  1
  Ti  Ti8  1  0.66666700  0.33333300  0.00000000  1
  Ti  Ti9  1  0.33333300  0.66666700  0.00000000  1
  Sn  Sn0  1  0.61800400  0.00000000  0.75000000  1
  Sn  Sn1  1  0.38199600  0.00000000  0.25000000  1
  Sn  Sn2  1  0.00000000  0.61800400  0.75000000  1
  Sn  Sn3  1  0.00000000  0.38199600  0.25000000  1
  Sn  Sn4  1  0.38199600  0.38199600  0.75000000  1
  Sn  Sn5  1  0.61800400  0.61800400  0.25000000  1
  Au  Au0  1  0.00000000  0.00000000  0.50000000  1
  Au  Au1  1  0.00000000  0.00000000  0.00000000  1
loop_
_geom_bond_atom_site_label_1
_geom_bond_atom_site_label_2
_geom_bond_distance
_geom_bond_site_symmetry_2
Ti0 Ti6 3.326363 1_545
Ti0 Ti9 3.326363 1_546
Ti0 Ti7 3.326368 1_555
Ti0 Ti8 3.326368 1_556
Ti1 Ti7 3.326363 1_555
Ti1 Ti8 3.326363 1_555
Ti1 Ti9 3.326368 1_545
Ti1 Ti6 3.326368 1_545
Ti2 Ti8 3.326363 1_456
Ti2 Ti7 3.326363 1_455
Ti2 Ti6 3.326368 1_555
Ti2 Ti9 3.326368 1_556
Ti3 Ti9 3.326363 1_555
Ti3 Ti6 3.326363 1_555
Ti3 Ti7 3.326368 1_455
Ti3 Ti8 3.326368 1_455
Ti4 Ti7 3.326371 1_555
Ti4 Ti6 3.326371 1_555
Ti4 Ti8 3.326371 1_556
Ti4 Ti9 3.326371 1_556
Ti5 Ti9 3.326371 1_555
Ti5 Ti6 3.326371 1_555
Ti5 Ti7 3.326371 1_555
Ti5 Ti8 3.326371 1_555
Ti6 Ti9 2.828171 1_555
Ti6 Ti9 2.828171 1_556
Ti7 Ti8 2.828171 1_556
Ti7 Ti8 2.828171 1_555
Sn0 Ti0 2.797451 1_555
Sn0 Ti4 2.854113 1_545
Sn0 Ti2 2.854113 1_655
Sn0 Ti1 2.948544 1_556
Sn0 Ti1 2.948544 1_555
Sn0 Ti7 2.954988 1_555
Sn0 Ti8 2.954988 1_556
Sn0 Ti6 2.954991 1_545
Sn0 Ti9 2.954991 1_546
Sn1 Ti1 2.797451 1_555
Sn1 Ti5 2.854113 1_555
Sn1 Ti3 2.854113 1_545
Sn1 Ti0 2.948544 1_555
Sn1 Ti0 2.948544 1_554
Sn1 Ti6 2.954988 1_545
Sn1 Ti9 2.954988 1_545
Sn1 Ti7 2.954991 1_555
Sn1 Ti8 2.954991 1_555
Sn2 Ti2 2.797451 1_555
Sn2 Ti4 2.854113 1_455
Sn2 Ti0 2.854113 1_565
Sn2 Ti3 2.948544 1_556
Sn2 Ti3 2.948544 1_555
Sn2 Ti6 2.954988 1_555
Sn2 Ti9 2.954988 1_556
Sn2 Ti8 2.954991 1_456
Sn2 Ti7 2.954991 1_455
Sn3 Ti3 2.797451 1_555
Sn3 Ti5 2.854113 1_555
Sn3 Ti1 2.854113 1_455
Sn3 Ti2 2.948544 1_555
Sn3 Ti2 2.948544 1_554
Sn3 Ti7 2.954988 1_455
Sn3 Ti8 2.954988 1_455
Sn3 Ti9 2.954991 1_555
Sn3 Ti6 2.954991 1_555
Sn4 Ti4 2.797452 1_555
Sn4 Ti0 2.854113 1_555
Sn4 Ti2 2.854113 1_555
Sn4 Ti5 2.948544 1_555
Sn4 Ti5 2.948544 1_556
Sn4 Ti9 2.954995 1_556
Sn4 Ti6 2.954995 1_555
Sn4 Ti7 2.954995 1_555
Sn4 Ti8 2.954995 1_556
Sn5 Ti5 2.797452 1_555
Sn5 Ti1 2.854113 1_565
Sn5 Ti3 2.854113 1_655
Sn5 Ti4 2.948544 1_555
Sn5 Ti4 2.948544 1_554
Sn5 Ti7 2.954995 1_555
Sn5 Ti8 2.954995 1_555
Sn5 Ti6 2.954995 1_555
Sn5 Ti9 2.954995 1_555
Au0 Ti0 2.737768 1_555
Au0 Ti2 2.737768 1_555
Au0 Ti3 2.737768 1_545
Au0 Ti1 2.737768 1_455
Au0 Ti5 2.737768 1_555
Au0 Ti4 2.737768 1_445
Au0 Au1 2.828171 1_555
Au0 Au1 2.828171 1_556
Au1 Ti0 2.737768 1_554
Au1 Ti2 2.737768 1_554
Au1 Ti3 2.737768 1_545
Au1 Ti1 2.737768 1_455
Au1 Ti5 2.737768 1_555
Au1 Ti4 2.737768 1_444
