# generated using pymatgen
data_Mn7Cu(PO4)12
_symmetry_space_group_name_H-M   'P 1'
_cell_length_a   8.51408089
_cell_length_b   8.53339226
_cell_length_c   11.88193376
_cell_angle_alpha   90.03754151
_cell_angle_beta   90.01674498
_cell_angle_gamma   90.09285376
_symmetry_Int_Tables_number   1
_chemical_formula_structural   Mn7Cu(PO4)12
_chemical_formula_sum   'Mn7 Cu1 P12 O48'
_cell_volume   863.26856386
_cell_formula_units_Z   1
loop_
 _symmetry_equiv_pos_site_id
 _symmetry_equiv_pos_as_xyz
  1  'x, y, z'
loop_
 _atom_site_type_symbol
 _atom_site_label
 _atom_site_symmetry_multiplicity
 _atom_site_fract_x
 _atom_site_fract_y
 _atom_site_fract_z
 _atom_site_occupancy
  Mn  Mn0  1  0.25017200  0.96576600  0.61688600  1
  Mn  Mn1  1  0.25106100  0.53567800  0.38163900  1
  Mn  Mn2  1  0.24937700  0.03493600  0.11722200  1
  Mn  Mn3  1  0.25074300  0.46385100  0.88426800  1
  Mn  Mn4  1  0.75082300  0.53529400  0.11757400  1
  Mn  Mn5  1  0.74971100  0.96479600  0.88342800  1
  Mn  Mn6  1  0.74866500  0.03564600  0.38232900  1
  Cu  Cu0  1  0.74909800  0.46180700  0.61613100  1
  P  P0  1  0.10673700  0.39160800  0.14592200  1
  P  P1  1  0.10644600  0.10838400  0.85445800  1
  P  P2  1  0.39079200  0.60987600  0.64593000  1
  P  P3  1  0.39295500  0.89235900  0.35398600  1
  P  P4  1  0.60770500  0.10496600  0.64667400  1
  P  P5  1  0.60550800  0.39030400  0.35260100  1
  P  P6  1  0.89380000  0.60953300  0.85616400  1
  P  P7  1  0.89312000  0.89160600  0.14591100  1
  P  P8  1  0.03914300  0.24904300  0.49888400  1
  P  P9  1  0.46260300  0.74989400  0.00027500  1
  P  P10  1  0.53743100  0.24985800  0.00002700  1
  P  P11  1  0.96418200  0.75135200  0.49885000  1
  O  O0  1  0.06007500  0.64276800  0.42241100  1
  O  O1  1  0.06002400  0.86041200  0.57561600  1
  O  O2  1  0.07467800  0.90034900  0.15855000  1
  O  O3  1  0.07497400  0.59844600  0.84043000  1
  O  O4  1  0.15071400  0.15838800  0.57888000  1
  O  O5  1  0.14625900  0.34222000  0.41752900  1
  O  O6  1  0.15736700  0.43888700  0.02694800  1
  O  O7  1  0.15823900  0.06099700  0.97266300  1
  O  O8  1  0.15237600  0.22224900  0.17579900  1
  O  O9  1  0.15276700  0.27784700  0.82428900  1
  O  O10  1  0.18187900  0.51256600  0.22724400  1
  O  O11  1  0.17923000  0.98867700  0.77141500  1
  O  O12  1  0.31928100  0.01232900  0.27187900  1
  O  O13  1  0.31973900  0.48771600  0.72831400  1
  O  O14  1  0.34315500  0.77855600  0.67629200  1
  O  O15  1  0.34779100  0.72244100  0.32359600  1
  O  O16  1  0.34098400  0.56152500  0.52741500  1
  O  O17  1  0.34131100  0.93823500  0.47274700  1
  O  O18  1  0.35382200  0.84166300  0.08107500  1
  O  O19  1  0.35312600  0.65864000  0.91897800  1
  O  O20  1  0.42619900  0.09567000  0.65958200  1
  O  O21  1  0.42338500  0.39833900  0.33916300  1
  O  O22  1  0.44086400  0.14192800  0.07685500  1
  O  O23  1  0.44139300  0.35860700  0.92299300  1
  O  O24  1  0.55918400  0.64157300  0.07651200  1
  O  O25  1  0.55848800  0.85856200  0.92311400  1
  O  O26  1  0.57106000  0.60396500  0.66316100  1
  O  O27  1  0.57471400  0.89983800  0.34227500  1
  O  O28  1  0.64691800  0.34158800  0.08043800  1
  O  O29  1  0.64578000  0.15806200  0.91881400  1
  O  O30  1  0.65927700  0.06199600  0.52739500  1
  O  O31  1  0.65311400  0.44272400  0.46954200  1
  O  O32  1  0.65172700  0.22122900  0.32198200  1
  O  O33  1  0.65106400  0.27266700  0.68108400  1
  O  O34  1  0.67564300  0.51196500  0.26941700  1
  O  O35  1  0.68138900  0.98336700  0.72801000  1
  O  O36  1  0.81989900  0.01198900  0.22828700  1
  O  O37  1  0.82164000  0.48632800  0.77621600  1
  O  O38  1  0.84765000  0.72219200  0.17671300  1
  O  O39  1  0.84922200  0.77852000  0.82521100  1
  O  O40  1  0.84341900  0.56460100  0.97504100  1
  O  O41  1  0.84132600  0.93864100  0.02751500  1
  O  O42  1  0.85448000  0.66381700  0.58076600  1
  O  O43  1  0.85399300  0.84157100  0.41795300  1
  O  O44  1  0.92486000  0.09956000  0.84116600  1
  O  O45  1  0.92536300  0.40041400  0.15876200  1
  O  O46  1  0.94136900  0.14104200  0.42280700  1
  O  O47  1  0.94872000  0.35778400  0.57799200  1
loop_
_geom_bond_atom_site_label_1
_geom_bond_atom_site_label_2
_geom_bond_distance
_geom_bond_site_symmetry_2
Mn0 O17 1.895079 1_555
Mn0 O4 1.904747 1_565
Mn0 O1 1.914132 1_555
Mn0 O14 1.918943 1_555
Mn0 O20 1.930219 1_565
Mn0 O11 1.942906 1_555
Mn1 O16 1.906085 1_555
Mn1 O15 1.921293 1_555
Mn1 O5 1.923467 1_555
Mn1 O0 1.928367 1_555
Mn1 O10 1.936438 1_555
Mn1 O21 1.945784 1_555
Mn2 O7 1.897929 1_554
Mn2 O18 1.923381 1_545
Mn2 O22 1.928168 1_555
Mn2 O8 1.929918 1_555
Mn2 O2 1.941171 1_545
Mn2 O12 1.941263 1_555
Mn3 O6 1.884735 1_556
Mn3 O23 1.912569 1_555
Mn3 O19 1.920179 1_555
Mn3 O9 1.927944 1_555
Mn3 O13 1.954748 1_555
Mn3 O3 1.958554 1_555
Mn4 O40 1.884924 1_554
Mn4 O28 1.924500 1_555
Mn4 O34 1.924883 1_555
Mn4 O38 1.926381 1_555
Mn4 O24 1.930719 1_555
Mn4 O45 1.943827 1_555
Mn5 O41 1.894619 1_556
Mn5 O29 1.919306 1_565
Mn5 O25 1.921213 1_555
Mn5 O39 1.930363 1_555
Mn5 O35 1.942606 1_555
Mn5 O44 1.947834 1_565
Mn6 O30 1.897788 1_555
Mn6 O32 1.925789 1_555
Mn6 O46 1.930360 1_555
Mn6 O43 1.931736 1_545
Mn6 O27 1.938122 1_545
Mn6 O36 1.938867 1_555
Cu0 O31 1.930403 1_555
Cu0 O47 1.971487 1_555
Cu0 O33 1.973564 1_555
Cu0 O42 1.987296 1_555
Cu0 O37 2.010393 1_555
Cu0 O26 2.021673 1_555
O0 P11 1.533569 1_455
O1 P11 1.536213 1_455
O2 P7 1.554700 1_455
O3 P6 1.556894 1_455
O4 P8 1.551479 1_555
O5 P8 1.548398 1_555
O6 P0 1.532160 1_555
O7 P1 1.526946 1_555
O8 P0 1.538846 1_555
O9 P1 1.540823 1_555
O10 P0 1.550662 1_555
O11 P1 1.549896 1_565
O12 P3 1.548011 1_545
O13 P2 1.552576 1_555
O14 P2 1.538783 1_555
O15 P3 1.542112 1_555
O16 P2 1.526888 1_555
O17 P3 1.529059 1_555
O18 P9 1.547462 1_555
O19 P9 1.550616 1_556
O20 P4 1.554896 1_555
O21 P5 1.560385 1_555
O22 P10 1.535137 1_555
O23 P10 1.539710 1_556
O24 P9 1.534362 1_555
O25 P9 1.538188 1_556
O26 P2 1.549259 1_555
O27 P3 1.555006 1_555
O28 P10 1.546184 1_555
O29 P10 1.548429 1_556
O30 P4 1.528430 1_555
O31 P5 1.514371 1_555
O32 P5 1.539504 1_555
O33 P4 1.532581 1_555
O34 P5 1.552733 1_555
O35 P4 1.551562 1_565
O36 P7 1.550184 1_545
O37 P6 1.543193 1_555
O38 P7 1.540377 1_555
O39 P6 1.536606 1_555
O40 P6 1.525341 1_555
O41 P7 1.528241 1_555
O42 P11 1.541726 1_555
O43 P11 1.549051 1_555
O44 P1 1.555735 1_655
O45 P0 1.553730 1_655
O46 P8 1.534747 1_655
O47 P8 1.529334 1_655
