# generated using pymatgen
data_Sb8Te3
_symmetry_space_group_name_H-M   'P 1'
_cell_length_a   21.75575724
_cell_length_b   21.75575724
_cell_length_c   21.75575734
_cell_angle_alpha   11.54138244
_cell_angle_beta   11.54138244
_cell_angle_gamma   11.54138176
_symmetry_Int_Tables_number   1
_chemical_formula_structural   Sb8Te3
_chemical_formula_sum   'Sb8 Te3'
_cell_volume   358.18520817
_cell_formula_units_Z   1
loop_
 _symmetry_equiv_pos_site_id
 _symmetry_equiv_pos_as_xyz
  1  'x, y, z'
loop_
 _atom_site_type_symbol
 _atom_site_label
 _atom_site_symmetry_multiplicity
 _atom_site_fract_x
 _atom_site_fract_y
 _atom_site_fract_z
 _atom_site_occupancy
  Sb  Sb0  1  0.17838900  0.17838900  0.17838900  1
  Sb  Sb1  1  0.36371900  0.36371900  0.36371900  1
  Sb  Sb2  1  0.63628100  0.63628100  0.63628100  1
  Sb  Sb3  1  0.82161100  0.82161100  0.82161100  1
  Sb  Sb4  1  0.54770100  0.54770100  0.54770100  1
  Sb  Sb5  1  0.09536100  0.09536100  0.09536100  1
  Sb  Sb6  1  0.90463900  0.90463900  0.90463900  1
  Sb  Sb7  1  0.45229900  0.45229900  0.45229900  1
  Te  Te0  1  0.27683500  0.27683500  0.27683500  1
  Te  Te1  1  0.72316400  0.72316500  0.72316400  1
  Te  Te2  1  0.00000000  0.00000000  0.00000000  1
loop_
_geom_bond_atom_site_label_1
_geom_bond_atom_site_label_2
_geom_bond_distance
_geom_bond_site_symmetry_2
Sb0 Sb3 2.947876 1_454
Sb0 Sb3 2.947876 1_544
Sb0 Sb3 2.947876 1_445
Sb0 Sb4 3.438018 1_545
Sb0 Sb4 3.438018 1_455
Sb0 Sb4 3.438018 1_554
Sb1 Te1 3.040633 1_545
Sb1 Te1 3.040636 1_455
Sb1 Te1 3.040636 1_554
Sb1 Te2 3.203145 1_655
Sb1 Te2 3.203145 1_565
Sb1 Te2 3.203145 1_556
Sb2 Te0 3.040659 1_565
Sb2 Te0 3.040659 1_655
Sb2 Te0 3.040659 1_556
Sb2 Te2 3.203145 1_566
Sb2 Te2 3.203145 1_656
Sb2 Te2 3.203145 1_665
Sb3 Sb7 3.438018 1_565
Sb3 Sb7 3.438018 1_655
Sb3 Sb7 3.438018 1_556
Sb4 Sb6 2.953237 1_455
Sb4 Sb6 2.953237 1_545
Sb4 Sb6 2.953237 1_554
Sb5 Sb7 2.953237 1_455
Sb5 Sb7 2.953237 1_545
Sb5 Sb7 2.953237 1_554
