# generated using pymatgen
data_MgCu2B2H8(ClO4)2
_symmetry_space_group_name_H-M   'P 1'
_cell_length_a   5.25332100
_cell_length_b   6.64212140
_cell_length_c   6.63109638
_cell_angle_alpha   89.88417580
_cell_angle_beta   90.00168048
_cell_angle_gamma   89.99894440
_symmetry_Int_Tables_number   1
_chemical_formula_structural   MgCu2B2H8(ClO4)2
_chemical_formula_sum   'Mg1 Cu2 B2 H8 Cl2 O8'
_cell_volume   231.37967176
_cell_formula_units_Z   1
loop_
 _symmetry_equiv_pos_site_id
 _symmetry_equiv_pos_as_xyz
  1  'x, y, z'
loop_
 _atom_site_type_symbol
 _atom_site_label
 _atom_site_symmetry_multiplicity
 _atom_site_fract_x
 _atom_site_fract_y
 _atom_site_fract_z
 _atom_site_occupancy
  Mg  Mg0  1  0.00050900  0.00001400  0.00003000  1
  Cu  Cu0  1  0.59664900  0.00000700  0.50000600  1
  Cu  Cu1  1  0.39979100  0.49999900  0.99999300  1
  B  B0  1  0.49976700  0.50000200  0.49999700  1
  B  B1  1  0.50040200  0.99999700  0.00000000  1
  H  H0  1  0.77511400  0.64149200  0.33435500  1
  H  H1  1  0.77511000  0.35851200  0.66566100  1
  H  H2  1  0.35595100  0.18520300  0.77186400  1
  H  H3  1  0.35599200  0.81477200  0.22812400  1
  H  H4  1  0.22454200  0.33463900  0.35852400  1
  H  H5  1  0.22454100  0.66536800  0.64146300  1
  H  H6  1  0.64595500  0.77191800  0.81608300  1
  H  H7  1  0.64591300  0.22808200  0.18393600  1
  Cl  Cl0  1  0.14053100  0.00000900  0.49997900  1
  Cl  Cl1  1  0.85900300  0.49998700  0.99999400  1
  O  O0  1  0.67937800  0.08587500  0.15001700  1
  O  O1  1  0.67939800  0.91412800  0.85000000  1
  O  O2  1  0.34347100  0.55744800  0.67773300  1
  O  O3  1  0.34347500  0.44255200  0.32225300  1
  O  O4  1  0.32154100  0.14979300  0.91385300  1
  O  O5  1  0.32155500  0.85019600  0.08614000  1
  O  O6  1  0.65569900  0.67762900  0.44203000  1
  O  O7  1  0.65571400  0.32237900  0.55796700  1
loop_
_geom_bond_atom_site_label_1
_geom_bond_atom_site_label_2
_geom_bond_distance
_geom_bond_site_symmetry_2
Mg0 O4 2.039198 1_554
Mg0 O5 2.039203 1_545
Mg0 O0 2.040286 1_455
Mg0 O1 2.040354 1_444
Cu0 O7 2.198233 1_555
Cu0 O6 2.198270 1_545
Cu0 O0 2.427973 1_555
Cu0 O1 2.428012 1_545
Cu1 O2 2.190047 1_555
Cu1 O3 2.190061 1_556
Cu1 O5 2.431277 1_556
Cu1 O4 2.431345 1_555
B0 O7 1.486252 1_555
B0 O6 1.486261 1_555
B0 O2 1.486834 1_555
B0 O3 1.486841 1_555
B1 O4 1.482157 1_564
B1 O5 1.482159 1_555
B1 O1 1.483643 1_554
B1 O0 1.483651 1_565
H0 O6 0.980645 1_555
H1 O7 0.980645 1_555
H2 O4 0.986719 1_555
H3 O5 0.986723 1_555
H4 O3 0.980461 1_555
H5 O2 0.980458 1_555
H6 O1 0.987186 1_555
H7 O0 0.987186 1_555
Cl0 Cu0 2.396134 1_555
Cl0 Cu0 2.857187 1_455
Cl1 Cu1 2.412388 1_555
Cl1 Cu1 2.840933 1_655
