# generated using pymatgen
data_K3HS3O11
_symmetry_space_group_name_H-M   'P 1'
_cell_length_a   8.25072900
_cell_length_b   9.97100700
_cell_length_c   13.69794222
_cell_angle_alpha   83.28695668
_cell_angle_beta   90.00000000
_cell_angle_gamma   90.00000000
_symmetry_Int_Tables_number   1
_chemical_formula_structural   K3HS3O11
_chemical_formula_sum   'K12 H4 S12 O44'
_cell_volume   1119.17738230
_cell_formula_units_Z   4
loop_
 _symmetry_equiv_pos_site_id
 _symmetry_equiv_pos_as_xyz
  1  'x, y, z'
loop_
 _atom_site_type_symbol
 _atom_site_label
 _atom_site_symmetry_multiplicity
 _atom_site_fract_x
 _atom_site_fract_y
 _atom_site_fract_z
 _atom_site_occupancy
  K  K0  1  0.35993000  0.28979500  0.16889200  1
  K  K1  1  0.85993000  0.21020500  0.83110800  1
  K  K2  1  0.64007000  0.71020500  0.83110800  1
  K  K3  1  0.14007000  0.78979500  0.16889200  1
  K  K4  1  0.88434700  0.14739000  0.18629900  1
  K  K5  1  0.38434700  0.35261000  0.81370100  1
  K  K6  1  0.11565300  0.85261000  0.81370100  1
  K  K7  1  0.61565300  0.64739000  0.18629900  1
  K  K8  1  0.58009500  0.26609700  0.44028900  1
  K  K9  1  0.08009500  0.23390300  0.55971100  1
  K  K10  1  0.41990500  0.73390300  0.55971100  1
  K  K11  1  0.91990500  0.76609700  0.44028900  1
  H  H0  1  0.59234800  0.09362200  0.00239300  1
  H  H1  1  0.09234800  0.40637800  0.99760700  1
  H  H2  1  0.40765200  0.90637800  0.99760700  1
  H  H3  1  0.90765200  0.59362200  0.00239300  1
  S  S0  1  0.74854600  0.91513600  0.01157000  1
  S  S1  1  0.24854600  0.58486400  0.98843000  1
  S  S2  1  0.25145400  0.08486400  0.98843000  1
  S  S3  1  0.75145400  0.41513600  0.01157000  1
  S  S4  1  0.22840800  0.00908800  0.39587200  1
  S  S5  1  0.72840800  0.49091200  0.60412800  1
  S  S6  1  0.77159200  0.99091200  0.60412800  1
  S  S7  1  0.27159200  0.50908800  0.39587200  1
  S  S8  1  0.52961400  0.94475000  0.29139700  1
  S  S9  1  0.02961400  0.55525000  0.70860300  1
  S  S10  1  0.47038600  0.05525000  0.70860300  1
  S  S11  1  0.97038600  0.44475000  0.29139700  1
  O  O0  1  0.71253500  0.07344100  0.01101000  1
  O  O1  1  0.21253500  0.42655900  0.98899000  1
  O  O2  1  0.28746500  0.92655900  0.98899000  1
  O  O3  1  0.78746500  0.57344100  0.01101000  1
  O  O4  1  0.58930000  0.84779200  0.00694300  1
  O  O5  1  0.08930000  0.65220800  0.99305700  1
  O  O6  1  0.41070000  0.15220800  0.99305700  1
  O  O7  1  0.91070000  0.34779200  0.00694300  1
  O  O8  1  0.83230000  0.87643500  0.10489500  1
  O  O9  1  0.33230000  0.62356500  0.89510500  1
  O  O10  1  0.16770000  0.12356500  0.89510500  1
  O  O11  1  0.66770000  0.37643500  0.10489500  1
  O  O12  1  0.84671800  0.90317100  0.92444600  1
  O  O13  1  0.34671800  0.59682900  0.07555400  1
  O  O14  1  0.15328200  0.09682900  0.07555400  1
  O  O15  1  0.65328200  0.40317100  0.92444600  1
  O  O16  1  0.12653300  0.97092500  0.31622000  1
  O  O17  1  0.62653300  0.52907500  0.68378000  1
  O  O18  1  0.87346700  0.02907500  0.68378000  1
  O  O19  1  0.37346700  0.47092500  0.31622000  1
  O  O20  1  0.17911700  0.94936800  0.49356700  1
  O  O21  1  0.67911700  0.55063200  0.50643300  1
  O  O22  1  0.82088300  0.05063200  0.50643300  1
  O  O23  1  0.32088300  0.44936800  0.49356700  1
  O  O24  1  0.26766400  0.15267600  0.38767300  1
  O  O25  1  0.76766400  0.34732400  0.61232700  1
  O  O26  1  0.73233600  0.84732400  0.61232700  1
  O  O27  1  0.23233600  0.65267600  0.38767300  1
  O  O28  1  0.40685900  0.92995700  0.38930100  1
  O  O29  1  0.90685900  0.57004300  0.61069900  1
  O  O30  1  0.59314100  0.07004300  0.61069900  1
  O  O31  1  0.09314100  0.42995700  0.38930100  1
  O  O32  1  0.57388200  0.08800000  0.27499800  1
  O  O33  1  0.07388200  0.41200000  0.72500200  1
  O  O34  1  0.42611800  0.91200000  0.72500200  1
  O  O35  1  0.92611800  0.58800000  0.27499800  1
  O  O36  1  0.65903100  0.85440700  0.32946000  1
  O  O37  1  0.15903100  0.64559300  0.67054000  1
  O  O38  1  0.34096900  0.14559300  0.67054000  1
  O  O39  1  0.84096900  0.35440700  0.32946000  1
  O  O40  1  0.43750900  0.89746300  0.21155500  1
  O  O41  1  0.93750900  0.60253700  0.78844500  1
  O  O42  1  0.56249100  0.10253700  0.78844500  1
  O  O43  1  0.06249100  0.39746300  0.21155500  1
loop_
_geom_bond_atom_site_label_1
_geom_bond_atom_site_label_2
_geom_bond_distance
_geom_bond_site_symmetry_2
K0 O43 2.768262 1_555
K0 O11 2.790323 1_555
K0 O19 2.863407 1_555
K0 O32 2.931457 1_555
K0 O1 2.936937 1_554
K0 O6 2.937906 1_554
K0 O14 2.969652 1_555
K0 O13 3.178654 1_555
K0 O24 3.236042 1_555
K1 O42 2.768262 1_555
K1 O10 2.790323 1_655
K1 O18 2.863407 1_555
K1 O33 2.931457 1_655
K1 O0 2.936937 1_556
K1 O7 2.937906 1_556
K1 O15 2.969652 1_555
K1 O12 3.178654 1_545
K1 O25 3.236042 1_555
K2 O41 2.768262 1_555
K2 O9 2.790323 1_555
K2 O17 2.863407 1_555
K2 O34 2.931457 1_555
K2 O3 2.936937 1_556
K2 O4 2.937906 1_556
K2 O12 2.969652 1_555
K2 O15 3.178654 1_555
K2 O26 3.236042 1_555
K3 O40 2.768262 1_555
K3 O8 2.790323 1_455
K3 O16 2.863407 1_555
K3 O35 2.931457 1_455
K3 O2 2.936937 1_554
K3 O5 2.937906 1_554
K3 O13 2.969652 1_555
K3 O14 3.178654 1_565
K3 O27 3.236042 1_555
K4 O14 2.767263 1_655
K4 O32 2.867102 1_555
K4 O43 2.949435 1_655
K4 O0 2.955061 1_555
K4 O7 2.988023 1_555
K4 O11 3.009804 1_555
K4 O39 3.029985 1_555
K4 O8 3.071035 1_545
K4 O16 3.086077 1_645
K5 O15 2.767263 1_555
K5 O33 2.867102 1_555
K5 O42 2.949435 1_555
K5 O1 2.955061 1_555
K5 O6 2.988023 1_555
K5 O10 3.009804 1_555
K5 O38 3.029985 1_555
K5 O9 3.071035 1_555
K5 O17 3.086077 1_555
K6 O12 2.767263 1_455
K6 O34 2.867102 1_555
K6 O41 2.949435 1_455
K6 O2 2.955061 1_555
K6 O5 2.988023 1_555
K6 O9 3.009804 1_555
K6 O37 3.029985 1_555
K6 O10 3.071035 1_565
K6 O18 3.086077 1_465
K7 O13 2.767263 1_555
K7 O35 2.867102 1_555
K7 O40 2.949435 1_555
K7 O3 2.955061 1_555
K7 O4 2.988023 1_555
K7 O8 3.009804 1_555
K7 O36 3.029985 1_555
K7 O11 3.071035 1_555
K7 O19 3.086077 1_555
K8 O39 2.720361 1_555
K8 O30 2.866184 1_555
K8 O24 2.938361 1_555
K8 O23 2.959352 1_555
K8 O22 2.988032 1_555
K8 O25 3.008421 1_555
K8 O19 3.025623 1_555
K8 O32 3.036855 1_555
K8 O21 3.184102 1_555
K9 O38 2.720361 1_555
K9 O31 2.866184 1_555
K9 O25 2.938361 1_455
K9 O22 2.959352 1_455
K9 O23 2.988032 1_555
K9 O24 3.008421 1_555
K9 O18 3.025623 1_455
K9 O33 3.036855 1_555
K9 O20 3.184102 1_545
K10 O37 2.720361 1_555
K10 O28 2.866184 1_555
K10 O26 2.938361 1_555
K10 O21 2.959352 1_555
K10 O20 2.988032 1_555
K10 O27 3.008421 1_555
K10 O17 3.025623 1_555
K10 O34 3.036855 1_555
K10 O23 3.184102 1_555
K11 O36 2.720361 1_555
K11 O29 2.866184 1_555
K11 O27 2.938361 1_655
K11 O20 2.959352 1_655
K11 O21 2.988032 1_555
K11 O26 3.008421 1_555
K11 O16 3.025623 1_655
K11 O35 3.036855 1_555
K11 O22 3.184102 1_565
H0 O0 1.015973 1_555
H0 O6 1.608204 1_554
H1 O1 1.015973 1_555
H1 O7 1.608204 1_456
H2 O2 1.015973 1_555
H2 O4 1.608204 1_556
H3 O3 1.015973 1_555
H3 O5 1.608204 1_654
O0 S0 1.605317 1_545
O1 S1 1.605317 1_555
O2 S2 1.605317 1_565
O3 S3 1.605317 1_555
O4 S0 1.480265 1_555
O5 S1 1.480265 1_555
O6 S2 1.480265 1_555
O7 S3 1.480265 1_555
O8 S0 1.464687 1_555
O9 S1 1.464687 1_555
O10 S2 1.464687 1_555
O11 S3 1.464687 1_555
O12 S0 1.458717 1_556
O13 S1 1.458717 1_554
O14 S2 1.458717 1_554
O15 S3 1.458717 1_556
O16 S4 1.462466 1_565
O17 S5 1.462466 1_555
O18 S6 1.462466 1_545
O19 S7 1.462466 1_555
O20 S4 1.457569 1_565
O21 S5 1.457569 1_555
O22 S6 1.457569 1_545
O23 S7 1.457569 1_555
O24 S4 1.459363 1_555
O25 S5 1.459363 1_555
O26 S6 1.459363 1_555
O27 S7 1.459363 1_555
O28 S8 1.673265 1_555
O28 S4 1.677817 1_565
O29 S9 1.673265 1_655
O29 S5 1.677817 1_555
O30 S10 1.673265 1_555
O30 S6 1.677817 1_545
O31 S11 1.673265 1_455
O31 S7 1.677817 1_555
O32 S8 1.465955 1_545
O33 S9 1.465955 1_555
O34 S10 1.465955 1_565
O35 S11 1.465955 1_555
O36 S8 1.453843 1_555
O37 S9 1.453843 1_555
O38 S10 1.453843 1_555
O39 S11 1.453843 1_555
O40 S8 1.454815 1_555
O41 S9 1.454815 1_655
O42 S10 1.454815 1_555
O43 S11 1.454815 1_455
