# generated using pymatgen
data_KSi5BO13
_symmetry_space_group_name_H-M   'P 1'
_cell_length_a   4.75361900
_cell_length_b   8.74513000
_cell_length_c   13.49671500
_cell_angle_alpha   90.00000000
_cell_angle_beta   90.00000000
_cell_angle_gamma   90.00000000
_symmetry_Int_Tables_number   1
_chemical_formula_structural   KSi5BO13
_chemical_formula_sum   'K2 Si10 B2 O26'
_cell_volume   561.07215691
_cell_formula_units_Z   2
loop_
 _symmetry_equiv_pos_site_id
 _symmetry_equiv_pos_as_xyz
  1  'x, y, z'
loop_
 _atom_site_type_symbol
 _atom_site_label
 _atom_site_symmetry_multiplicity
 _atom_site_fract_x
 _atom_site_fract_y
 _atom_site_fract_z
 _atom_site_occupancy
  K  K0  1  0.52241300  0.38544000  0.50000000  1
  K  K1  1  0.47758700  0.88544000  0.00000000  1
  Si  Si0  1  0.42187000  0.41845700  0.00000000  1
  Si  Si1  1  0.57813000  0.91845700  0.50000000  1
  Si  Si2  1  0.36272500  0.83097000  0.70533800  1
  Si  Si3  1  0.36272500  0.83097000  0.29466200  1
  Si  Si4  1  0.63727500  0.33097000  0.79466200  1
  Si  Si5  1  0.63727500  0.33097000  0.20533800  1
  Si  Si6  1  0.86308500  0.67322200  0.80093000  1
  Si  Si7  1  0.86308500  0.67322200  0.19907000  1
  Si  Si8  1  0.13691500  0.17322200  0.69907000  1
  Si  Si9  1  0.13691500  0.17322200  0.30093000  1
  B  B0  1  0.07647600  0.10027200  0.50000000  1
  B  B1  1  0.92352400  0.60027200  0.00000000  1
  O  O0  1  0.10286000  0.71091800  0.71742200  1
  O  O1  1  0.10286000  0.71091800  0.28257800  1
  O  O2  1  0.89714000  0.21091800  0.78257800  1
  O  O3  1  0.89714000  0.21091800  0.21742200  1
  O  O4  1  0.50362900  0.81147500  0.59681600  1
  O  O5  1  0.50362900  0.81147500  0.40318400  1
  O  O6  1  0.49637100  0.31147500  0.90318400  1
  O  O7  1  0.49637100  0.31147500  0.09681600  1
  O  O8  1  0.61533900  0.57162000  0.00000000  1
  O  O9  1  0.38466100  0.07162000  0.50000000  1
  O  O10  1  0.59992300  0.79450400  0.79022100  1
  O  O11  1  0.59992300  0.79450400  0.20977900  1
  O  O12  1  0.40007700  0.29450400  0.70977900  1
  O  O13  1  0.40007700  0.29450400  0.29022100  1
  O  O14  1  0.99264400  0.69444000  0.91148000  1
  O  O15  1  0.99264400  0.69444000  0.08852000  1
  O  O16  1  0.00735600  0.19444000  0.58852000  1
  O  O17  1  0.00735600  0.19444000  0.41148000  1
  O  O18  1  0.74998200  0.50280300  0.77304200  1
  O  O19  1  0.74998200  0.50280300  0.22695800  1
  O  O20  1  0.25001800  0.00280300  0.72695800  1
  O  O21  1  0.25001800  0.00280300  0.27304200  1
  O  O22  1  0.08736800  0.45766400  0.00000000  1
  O  O23  1  0.91263200  0.95766400  0.50000000  1
  O  O24  1  0.96932700  0.61168100  0.50000000  1
  O  O25  1  0.03067300  0.11168100  0.00000000  1
loop_
_geom_bond_atom_site_label_1
_geom_bond_atom_site_label_2
_geom_bond_distance
_geom_bond_site_symmetry_2
K0 O9 2.821436 1_555
K0 O24 2.903070 1_555
K0 O12 2.997836 1_555
K0 O13 2.997836 1_555
K0 O17 3.087305 1_655
K0 O16 3.087305 1_655
K0 O17 3.195612 1_555
K0 O16 3.195612 1_555
K0 O24 3.290437 1_455
K1 O8 2.821436 1_555
K1 O25 2.903070 1_565
K1 O11 2.997836 1_555
K1 O10 2.997836 1_554
K1 O14 3.087305 1_454
K1 O15 3.087305 1_455
K1 O14 3.195612 1_554
K1 O15 3.195612 1_555
K1 O25 3.290437 1_665
B0 O23 1.470351 1_445
B0 O9 1.486267 1_555
B0 O17 1.487786 1_555
B0 O16 1.487786 1_555
B1 O22 1.470351 1_655
B1 O8 1.486267 1_555
B1 O14 1.487786 1_554
B1 O15 1.487786 1_555
O0 Si2 1.629353 1_555
O0 Si6 1.636500 1_455
O1 Si3 1.629353 1_555
O1 Si7 1.636500 1_455
O2 Si4 1.629353 1_555
O2 Si8 1.636500 1_655
O3 Si5 1.629353 1_555
O3 Si9 1.636500 1_655
O4 Si2 1.619574 1_555
O4 Si1 1.645653 1_555
O5 Si3 1.619574 1_555
O5 Si1 1.645653 1_555
O6 Si4 1.619574 1_555
O6 Si0 1.645653 1_556
O7 Si5 1.619574 1_555
O7 Si0 1.645653 1_555
O8 Si0 1.624771 1_555
O9 Si1 1.624771 1_545
O10 Si2 1.638767 1_555
O10 Si6 1.646436 1_555
O11 Si3 1.638767 1_555
O11 Si7 1.646436 1_555
O12 Si4 1.638767 1_555
O12 Si8 1.646436 1_555
O13 Si5 1.638767 1_555
O13 Si9 1.646436 1_555
O14 Si6 1.624801 1_555
O15 Si7 1.624801 1_555
O16 Si8 1.624801 1_555
O17 Si9 1.624801 1_555
O18 Si4 1.621822 1_555
O18 Si6 1.628448 1_555
O19 Si5 1.621822 1_555
O19 Si7 1.628448 1_555
O20 Si2 1.621822 1_545
O20 Si8 1.628448 1_555
O21 Si3 1.621822 1_545
O21 Si9 1.628448 1_555
O22 Si0 1.626641 1_555
O23 Si1 1.626641 1_555
