# generated using pymatgen
data_MnFeCo(PO4)3
_symmetry_space_group_name_H-M   'P 1'
_cell_length_a   5.99434300
_cell_length_b   9.86114600
_cell_length_c   14.66399484
_cell_angle_alpha   89.74184763
_cell_angle_beta   90.00000000
_cell_angle_gamma   90.00000000
_symmetry_Int_Tables_number   1
_chemical_formula_structural   MnFeCo(PO4)3
_chemical_formula_sum   'Mn4 Fe4 Co4 P12 O48'
_cell_volume   866.79594261
_cell_formula_units_Z   4
loop_
 _symmetry_equiv_pos_site_id
 _symmetry_equiv_pos_as_xyz
  1  'x, y, z'
loop_
 _atom_site_type_symbol
 _atom_site_label
 _atom_site_symmetry_multiplicity
 _atom_site_fract_x
 _atom_site_fract_y
 _atom_site_fract_z
 _atom_site_occupancy
  Mn  Mn0  1  0.00000000  0.21256000  0.47699000  1
  Mn  Mn1  1  0.00000000  0.21187900  0.14487100  1
  Mn  Mn2  1  0.50000000  0.28353700  0.97739100  1
  Mn  Mn3  1  0.50000000  0.28492100  0.30936800  1
  Fe  Fe0  1  0.00000000  0.22441800  0.81787500  1
  Fe  Fe1  1  0.50000000  0.28102600  0.65061900  1
  Fe  Fe2  1  0.00000000  0.72660100  0.34718600  1
  Fe  Fe3  1  0.00000000  0.72747700  0.01249200  1
  Co  Co0  1  0.00000000  0.72910200  0.67680600  1
  Co  Co1  1  0.50000000  0.77467600  0.51393500  1
  Co  Co2  1  0.50000000  0.77216300  0.84294500  1
  Co  Co3  1  0.50000000  0.77189400  0.17787500  1
  P  P0  1  0.50000000  0.09949700  0.80439800  1
  P  P1  1  0.50000000  0.09702500  0.47165300  1
  P  P2  1  0.50000000  0.09660100  0.13782300  1
  P  P3  1  0.00000000  0.40094500  0.97109700  1
  P  P4  1  0.00000000  0.39998400  0.30327100  1
  P  P5  1  0.00000000  0.40460800  0.63685700  1
  P  P6  1  0.50000000  0.60215200  0.69956000  1
  P  P7  1  0.50000000  0.60048100  0.36282000  1
  P  P8  1  0.50000000  0.59893300  0.02783300  1
  P  P9  1  0.00000000  0.89870200  0.86220300  1
  P  P10  1  0.00000000  0.90244000  0.53202300  1
  P  P11  1  0.00000000  0.90075200  0.19803700  1
  O  O0  1  0.00000000  0.05570200  0.55323700  1
  O  O1  1  0.00000000  0.05412100  0.21927900  1
  O  O2  1  0.00000000  0.05159800  0.87981600  1
  O  O3  1  0.50000000  0.12104200  0.90844400  1
  O  O4  1  0.50000000  0.11988600  0.24132500  1
  O  O5  1  0.50000000  0.12217500  0.57434300  1
  O  O6  1  0.29846800  0.16570800  0.42194700  1
  O  O7  1  0.70153200  0.16570800  0.42194700  1
  O  O8  1  0.29871400  0.16565300  0.08822000  1
  O  O9  1  0.70128600  0.16565300  0.08822000  1
  O  O10  1  0.70030100  0.17197700  0.75566300  1
  O  O11  1  0.29969900  0.17197700  0.75566300  1
  O  O12  1  0.80152900  0.32720300  0.92096500  1
  O  O13  1  0.19847100  0.32720300  0.92096500  1
  O  O14  1  0.79546700  0.33564600  0.58990200  1
  O  O15  1  0.20453300  0.33564600  0.58990200  1
  O  O16  1  0.79903600  0.32838700  0.25468400  1
  O  O17  1  0.20096400  0.32838700  0.25468400  1
  O  O18  1  0.00000000  0.38070300  0.74039300  1
  O  O19  1  0.00000000  0.37632000  0.40718300  1
  O  O20  1  0.00000000  0.37580800  0.07427600  1
  O  O21  1  0.50000000  0.44958600  0.71748100  1
  O  O22  1  0.50000000  0.44694800  0.38118800  1
  O  O23  1  0.50000000  0.44531300  0.04911800  1
  O  O24  1  0.00000000  0.56003700  0.61904200  1
  O  O25  1  0.00000000  0.55224500  0.95156600  1
  O  O26  1  0.00000000  0.55266600  0.28479000  1
  O  O27  1  0.50000000  0.62079800  0.92410200  1
  O  O28  1  0.50000000  0.62908300  0.59540200  1
  O  O29  1  0.50000000  0.62536300  0.25839200  1
  O  O30  1  0.29856300  0.67238800  0.74856400  1
  O  O31  1  0.70143700  0.67238800  0.74856400  1
  O  O32  1  0.29768000  0.67096600  0.41090400  1
  O  O33  1  0.70232000  0.67096600  0.41090400  1
  O  O34  1  0.29812200  0.67013500  0.07654000  1
  O  O35  1  0.70187800  0.67013500  0.07654000  1
  O  O36  1  0.79856600  0.83133600  0.58153700  1
  O  O37  1  0.20143400  0.83133600  0.58153700  1
  O  O38  1  0.79990600  0.82779400  0.91249000  1
  O  O39  1  0.20009400  0.82779400  0.91249000  1
  O  O40  1  0.79964700  0.82935000  0.24757200  1
  O  O41  1  0.20035300  0.82935000  0.24757200  1
  O  O42  1  0.00000000  0.87527100  0.75853900  1
  O  O43  1  0.00000000  0.88050200  0.42898900  1
  O  O44  1  0.00000000  0.88000500  0.09482400  1
  O  O45  1  0.50000000  0.94172700  0.12111800  1
  O  O46  1  0.50000000  0.94176400  0.45407700  1
  O  O47  1  0.50000000  0.94558700  0.78783900  1
loop_
_geom_bond_atom_site_label_1
_geom_bond_atom_site_label_2
_geom_bond_distance
_geom_bond_site_symmetry_2
Mn0 O0 1.904500 1_555
Mn0 O19 1.908072 1_555
Mn0 O6 2.017240 1_555
Mn0 O7 2.017240 1_455
Mn0 O15 2.394995 1_555
Mn0 O14 2.394995 1_455
Mn1 O1 1.896145 1_555
Mn1 O20 1.915654 1_555
Mn1 O8 2.026708 1_555
Mn1 O9 2.026708 1_455
Mn1 O17 2.319672 1_555
Mn1 O16 2.319672 1_455
Mn2 O3 1.898537 1_555
Mn2 O23 1.914781 1_556
Mn2 O12 2.033171 1_555
Mn2 O13 2.033171 1_555
Mn2 O9 2.330538 1_556
Mn2 O8 2.330538 1_556
Mn3 O4 1.912784 1_555
Mn3 O22 1.917603 1_555
Mn3 O16 2.009176 1_555
Mn3 O17 2.009176 1_555
Mn3 O7 2.355677 1_555
Mn3 O6 2.355677 1_555
Fe0 O18 1.910576 1_555
Fe0 O2 1.927530 1_555
Fe0 O10 2.081184 1_455
Fe0 O11 2.081184 1_555
Fe0 O13 2.177570 1_555
Fe0 O12 2.177570 1_455
Fe1 O5 1.928893 1_555
Fe1 O21 1.933620 1_555
Fe1 O14 2.053149 1_555
Fe1 O15 2.053149 1_555
Fe1 O10 2.226159 1_555
Fe1 O11 2.226159 1_555
Fe2 O43 1.938705 1_555
Fe2 O26 1.947621 1_555
Fe2 O33 2.086497 1_455
Fe2 O32 2.086497 1_555
Fe2 O41 2.142290 1_555
Fe2 O40 2.142290 1_455
Fe3 O44 1.932950 1_555
Fe3 O25 1.948859 1_554
Fe3 O34 2.095372 1_555
Fe3 O35 2.095372 1_455
Fe3 O38 2.134145 1_454
Fe3 O39 2.134145 1_554
Co0 O24 1.873417 1_555
Co0 O42 1.878740 1_555
Co0 O37 2.100788 1_555
Co0 O36 2.100788 1_455
Co0 O30 2.148886 1_555
Co0 O31 2.148886 1_455
Co1 O46 1.863403 1_555
Co1 O28 1.863589 1_555
Co1 O37 2.122011 1_555
Co1 O36 2.122011 1_555
Co1 O33 2.193928 1_555
Co1 O32 2.193928 1_555
Co2 O47 1.888167 1_555
Co2 O27 1.904796 1_555
Co2 O31 2.086576 1_555
Co2 O30 2.086576 1_555
Co2 O38 2.139594 1_555
Co2 O39 2.139594 1_555
Co3 O29 1.861881 1_555
Co3 O45 1.866793 1_555
Co3 O41 2.144080 1_555
Co3 O40 2.144080 1_555
Co3 O35 2.166310 1_555
Co3 O34 2.166310 1_555
O0 P10 1.544394 1_545
O1 P11 1.545512 1_545
O2 P9 1.530838 1_545
O3 P0 1.541399 1_555
O4 P2 1.536046 1_555
O5 P1 1.527234 1_555
O6 P1 1.563632 1_555
O7 P1 1.563632 1_555
O8 P2 1.563366 1_555
O9 P2 1.563366 1_555
O10 P0 1.567987 1_555
O11 P0 1.567987 1_555
O12 P3 1.577792 1_655
O13 P3 1.577792 1_555
O14 P5 1.563315 1_655
O15 P5 1.563315 1_555
O16 P4 1.569016 1_655
O17 P4 1.569016 1_555
O18 P5 1.535393 1_555
O19 P4 1.540490 1_555
O20 P3 1.532085 1_554
O21 P6 1.526088 1_555
O22 P7 1.536588 1_555
O23 P8 1.545312 1_555
O24 P5 1.553651 1_555
O25 P3 1.517964 1_555
O26 P4 1.528613 1_555
O27 P8 1.535354 1_556
O28 P6 1.549109 1_555
O29 P7 1.549773 1_555
O30 P6 1.567987 1_555
O31 P6 1.567987 1_555
O32 P7 1.567011 1_555
O33 P7 1.567011 1_555
O34 P8 1.572276 1_555
O35 P8 1.572276 1_555
O36 P10 1.572323 1_655
O37 P10 1.572323 1_555
O38 P9 1.570570 1_655
O39 P9 1.570570 1_555
O40 P11 1.568805 1_655
O41 P11 1.568805 1_555
O42 P9 1.538617 1_555
O43 P10 1.527264 1_555
O44 P11 1.528193 1_555
O45 P2 1.547845 1_565
O46 P1 1.553738 1_565
O47 P0 1.538111 1_565
