# generated using pymatgen
data_Zn(WO2)4
_symmetry_space_group_name_H-M   'P 1'
_cell_length_a   3.30293200
_cell_length_b   7.70445624
_cell_length_c   7.77530752
_cell_angle_alpha   88.25911225
_cell_angle_beta   102.20442345
_cell_angle_gamma   100.54176290
_symmetry_Int_Tables_number   1
_chemical_formula_structural   Zn(WO2)4
_chemical_formula_sum   'Zn1 W4 O8'
_cell_volume   190.11767334
_cell_formula_units_Z   1
loop_
 _symmetry_equiv_pos_site_id
 _symmetry_equiv_pos_as_xyz
  1  'x, y, z'
loop_
 _atom_site_type_symbol
 _atom_site_label
 _atom_site_symmetry_multiplicity
 _atom_site_fract_x
 _atom_site_fract_y
 _atom_site_fract_z
 _atom_site_occupancy
  Zn  Zn0  1  0.41863600  0.00889500  0.95843100  1
  W  W0  1  0.82573700  0.18234900  0.45709500  1
  W  W1  1  0.62101100  0.48911300  0.78446900  1
  W  W2  1  0.31503400  0.50771800  0.15449600  1
  W  W3  1  0.16119200  0.81330600  0.48119500  1
  O  O0  1  0.52453700  0.69596300  0.35086700  1
  O  O1  1  0.83848600  0.37672200  0.26935500  1
  O  O2  1  0.14134300  0.62176900  0.67121500  1
  O  O3  1  0.46468000  0.30158300  0.58674600  1
  O  O4  1  0.20275300  0.04825800  0.34247400  1
  O  O5  1  0.12629100  0.37330800  0.91579400  1
  O  O6  1  0.78377200  0.94757400  0.59555500  1
  O  O7  1  0.78957300  0.62408100  0.02351600  1
loop_
_geom_bond_atom_site_label_1
_geom_bond_atom_site_label_2
_geom_bond_distance
_geom_bond_site_symmetry_2
O0 W2 2.057706 1_555
O0 W3 2.061861 1_555
O0 W3 2.173749 1_655
O1 W0 2.060417 1_555
O1 W2 2.062025 1_655
O1 W2 2.176288 1_555
O2 W3 2.058625 1_555
O2 W1 2.068329 1_555
O2 W1 2.171664 1_455
O3 W1 2.060082 1_555
O3 W0 2.060988 1_555
O3 W0 2.182029 1_455
O4 W3 2.076538 1_545
O4 W0 2.099550 1_455
O4 W0 2.144374 1_555
O5 W2 2.072932 1_556
O5 W1 2.095927 1_455
O5 W1 2.150663 1_555
O6 W0 2.074381 1_565
O6 W3 2.100273 1_655
O6 W3 2.143304 1_555
O7 W1 2.077012 1_554
O7 W2 2.098284 1_555
O7 W2 2.149330 1_655
