# generated using pymatgen
data_Ca2P2O11
_symmetry_space_group_name_H-M   'P 1'
_cell_length_a   7.59468600
_cell_length_b   10.73256000
_cell_length_c   12.41554938
_cell_angle_alpha   67.75535302
_cell_angle_beta   90.00000000
_cell_angle_gamma   90.00000000
_symmetry_Int_Tables_number   1
_chemical_formula_structural   Ca2P2O11
_chemical_formula_sum   'Ca8 P8 O44'
_cell_volume   936.67971777
_cell_formula_units_Z   4
loop_
 _symmetry_equiv_pos_site_id
 _symmetry_equiv_pos_as_xyz
  1  'x, y, z'
loop_
 _atom_site_type_symbol
 _atom_site_label
 _atom_site_symmetry_multiplicity
 _atom_site_fract_x
 _atom_site_fract_y
 _atom_site_fract_z
 _atom_site_occupancy
  Ca  Ca0  1  0.49536400  0.76361800  0.48377400  1
  Ca  Ca1  1  0.99536400  0.73638200  0.51622600  1
  Ca  Ca2  1  0.50463600  0.23638200  0.51622600  1
  Ca  Ca3  1  0.00463600  0.26361800  0.48377400  1
  Ca  Ca4  1  0.63888400  0.15854900  0.26946200  1
  Ca  Ca5  1  0.13888400  0.34145100  0.73053800  1
  Ca  Ca6  1  0.36111600  0.84145100  0.73053800  1
  Ca  Ca7  1  0.86111600  0.65854900  0.26946200  1
  P  P0  1  0.52075000  0.51751200  0.75311200  1
  P  P1  1  0.02075000  0.98248800  0.24688800  1
  P  P2  1  0.47925000  0.48248800  0.24688800  1
  P  P3  1  0.97925000  0.01751200  0.75311200  1
  P  P4  1  0.74525800  0.98770800  0.56375000  1
  P  P5  1  0.24525800  0.51229200  0.43625000  1
  P  P6  1  0.25474200  0.01229200  0.43625000  1
  P  P7  1  0.75474200  0.48770800  0.56375000  1
  O  O0  1  0.74921300  0.37118400  0.52106800  1
  O  O1  1  0.24921300  0.12881600  0.47893200  1
  O  O2  1  0.25078700  0.62881600  0.47893200  1
  O  O3  1  0.75078700  0.87118400  0.52106800  1
  O  O4  1  0.73868300  0.62804800  0.46130400  1
  O  O5  1  0.23868300  0.87195200  0.53869600  1
  O  O6  1  0.26131700  0.37195200  0.53869600  1
  O  O7  1  0.76131700  0.12804800  0.46130400  1
  O  O8  1  0.48210200  0.67041300  0.68598000  1
  O  O9  1  0.98210200  0.82958700  0.31402000  1
  O  O10  1  0.51789800  0.32958700  0.31402000  1
  O  O11  1  0.01789800  0.17041300  0.68598000  1
  O  O12  1  0.65074500  0.56052900  0.20900100  1
  O  O13  1  0.15074500  0.93947100  0.79099900  1
  O  O14  1  0.34925500  0.43947100  0.79099900  1
  O  O15  1  0.84925500  0.06052900  0.20900100  1
  O  O16  1  0.58383000  0.46933200  0.64210200  1
  O  O17  1  0.08383000  0.03066800  0.35789800  1
  O  O18  1  0.41617000  0.53066800  0.35789800  1
  O  O19  1  0.91617000  0.96933200  0.64210200  1
  O  O20  1  0.57536400  0.99302200  0.62932800  1
  O  O21  1  0.07536400  0.50697800  0.37067200  1
  O  O22  1  0.42463600  0.00697800  0.37067200  1
  O  O23  1  0.92463600  0.49302200  0.62932800  1
  O  O24  1  0.66884100  0.48765000  0.83751800  1
  O  O25  1  0.16884100  0.01235000  0.16248200  1
  O  O26  1  0.33115900  0.51235000  0.16248200  1
  O  O27  1  0.83115900  0.98765000  0.83751800  1
  O  O28  1  0.54255300  0.83570200  0.22701800  1
  O  O29  1  0.04255300  0.66429800  0.77298200  1
  O  O30  1  0.45744700  0.16429800  0.77298200  1
  O  O31  1  0.95744700  0.33570200  0.22701800  1
  O  O32  1  0.52093900  0.76664400  0.95905700  1
  O  O33  1  0.02093900  0.73335600  0.04094300  1
  O  O34  1  0.47906100  0.23335600  0.04094300  1
  O  O35  1  0.97906100  0.26664400  0.95905700  1
  O  O36  1  0.59412000  0.31295100  0.04589100  1
  O  O37  1  0.09412000  0.18704900  0.95410900  1
  O  O38  1  0.40588000  0.68704900  0.95410900  1
  O  O39  1  0.90588000  0.81295100  0.04589100  1
  O  O40  1  0.56869800  0.15285800  0.84857500  1
  O  O41  1  0.06869800  0.34714200  0.15142500  1
  O  O42  1  0.43130200  0.84714200  0.15142500  1
  O  O43  1  0.93130200  0.65285800  0.84857500  1
loop_
_geom_bond_atom_site_label_1
_geom_bond_atom_site_label_2
_geom_bond_distance
_geom_bond_site_symmetry_2
Ca0 O8 2.326375 1_555
Ca0 O2 2.369148 1_555
Ca0 O3 2.390592 1_555
Ca0 O4 2.432503 1_555
Ca0 O5 2.493456 1_555
Ca0 O22 2.511056 1_565
Ca0 O28 3.003598 1_555
Ca1 O9 2.326375 1_555
Ca1 O3 2.369148 1_555
Ca1 O2 2.390592 1_655
Ca1 O5 2.432503 1_655
Ca1 O4 2.493456 1_555
Ca1 O23 2.511056 1_555
Ca1 O29 3.003598 1_655
Ca2 O10 2.326375 1_555
Ca2 O0 2.369148 1_555
Ca2 O1 2.390592 1_555
Ca2 O6 2.432503 1_555
Ca2 O7 2.493456 1_555
Ca2 O20 2.511056 1_545
Ca2 O30 3.003598 1_555
Ca3 O11 2.326375 1_555
Ca3 O1 2.369148 1_555
Ca3 O0 2.390592 1_455
Ca3 O7 2.432503 1_455
Ca3 O6 2.493456 1_555
Ca3 O21 2.511056 1_555
Ca3 O31 3.003598 1_455
Ca4 O15 2.195620 1_555
Ca4 O10 2.299763 1_555
Ca4 O22 2.307646 1_555
Ca4 O7 2.460593 1_555
Ca4 O36 2.661554 1_555
Ca4 O34 2.905670 1_555
Ca4 O31 2.997916 1_555
Ca5 O14 2.195620 1_555
Ca5 O11 2.299763 1_555
Ca5 O23 2.307646 1_455
Ca5 O6 2.460593 1_555
Ca5 O37 2.661554 1_555
Ca5 O35 2.905670 1_455
Ca5 O30 2.997916 1_555
Ca6 O13 2.195620 1_555
Ca6 O8 2.299763 1_555
Ca6 O20 2.307646 1_555
Ca6 O5 2.460593 1_555
Ca6 O38 2.661554 1_555
Ca6 O32 2.905670 1_555
Ca6 O29 2.997916 1_555
Ca7 O12 2.195620 1_555
Ca7 O9 2.299763 1_555
Ca7 O21 2.307646 1_655
Ca7 O4 2.460593 1_555
Ca7 O39 2.661554 1_555
Ca7 O33 2.905670 1_655
Ca7 O28 2.997916 1_555
O0 P7 1.532430 1_555
O1 P6 1.532430 1_555
O2 P5 1.532430 1_555
O3 P4 1.532430 1_555
O4 P7 1.565516 1_555
O5 P6 1.565516 1_565
O6 P5 1.565516 1_555
O7 P4 1.565516 1_545
O8 P0 1.561482 1_555
O9 P1 1.561482 1_655
O10 P2 1.561482 1_555
O11 P3 1.561482 1_455
O12 P2 1.523445 1_555
O13 P3 1.523445 1_465
O14 P0 1.523445 1_555
O15 P1 1.523445 1_645
O16 P7 1.588965 1_555
O16 P0 1.713494 1_555
O17 P6 1.588965 1_555
O17 P1 1.713494 1_545
O18 P5 1.588965 1_555
O18 P2 1.713494 1_555
O19 P4 1.588965 1_555
O19 P3 1.713494 1_565
O20 P4 1.538234 1_555
O21 P5 1.538234 1_555
O22 P6 1.538234 1_555
O23 P7 1.538234 1_555
O24 P0 1.487139 1_555
O25 P1 1.487139 1_545
O26 P2 1.487139 1_555
O27 P3 1.487139 1_565
O28 O42 1.233916 1_555
O29 O43 1.233916 1_455
O30 O40 1.233916 1_555
O31 O41 1.233916 1_655
O32 O38 1.239700 1_555
O33 O39 1.239700 1_455
O34 O36 1.239700 1_555
O35 O37 1.239700 1_655
