# generated using pymatgen
data_NaV(SiO3)2
_symmetry_space_group_name_H-M   'P 1'
_cell_length_a   5.38220427
_cell_length_b   6.61021583
_cell_length_c   13.14545929
_cell_angle_alpha   89.31790402
_cell_angle_beta   101.00546001
_cell_angle_gamma   77.45706064
_symmetry_Int_Tables_number   1
_chemical_formula_structural   NaV(SiO3)2
_chemical_formula_sum   'Na4 V4 Si8 O24'
_cell_volume   447.42967848
_cell_formula_units_Z   4
loop_
 _symmetry_equiv_pos_site_id
 _symmetry_equiv_pos_as_xyz
  1  'x, y, z'
loop_
 _atom_site_type_symbol
 _atom_site_label
 _atom_site_symmetry_multiplicity
 _atom_site_fract_x
 _atom_site_fract_y
 _atom_site_fract_z
 _atom_site_occupancy
  Na  Na0  1  0.10015400  0.29908800  0.35041300  1
  Na  Na1  1  0.60040500  0.29898600  0.85046400  1
  Na  Na2  1  0.39982400  0.70087000  0.14957300  1
  Na  Na3  1  0.89957300  0.70098100  0.64952200  1
  V  V0  1  0.29719700  0.90568600  0.54717700  1
  V  V1  1  0.20283200  0.09428200  0.95282700  1
  V  V2  1  0.79740800  0.90537700  0.04724000  1
  V  V3  1  0.70263500  0.09471600  0.45277600  1
  Si  Si0  1  0.44787400  0.20166800  0.19093300  1
  Si  Si1  1  0.94793600  0.20176300  0.69093000  1
  Si  Si2  1  0.85791900  0.38179200  0.10092200  1
  Si  Si3  1  0.35786000  0.38198600  0.60085900  1
  Si  Si4  1  0.64205900  0.61829500  0.39906900  1
  Si  Si5  1  0.14213000  0.61798800  0.89914500  1
  Si  Si6  1  0.05211800  0.79832400  0.30906400  1
  Si  Si7  1  0.55206600  0.79820900  0.80907700  1
  O  O0  1  0.05000000  0.96342000  0.40170500  1
  O  O1  1  0.55011400  0.96333600  0.90183000  1
  O  O2  1  0.45000800  0.03655000  0.09829700  1
  O  O3  1  0.94988700  0.03664000  0.59817600  1
  O  O4  1  0.62988400  0.80363500  0.48161300  1
  O  O5  1  0.13019600  0.80338100  0.98178800  1
  O  O6  1  0.87011700  0.19643200  0.01838600  1
  O  O7  1  0.36980400  0.19662400  0.51820700  1
  O  O8  1  0.74722500  0.61767000  0.05389800  1
  O  O9  1  0.24732400  0.61788400  0.55380700  1
  O  O10  1  0.75280300  0.38241200  0.44610200  1
  O  O11  1  0.25267300  0.38208200  0.94618900  1
  O  O12  1  0.99819700  0.89246200  0.19112600  1
  O  O13  1  0.49760700  0.89244000  0.69114400  1
  O  O14  1  0.50180300  0.10757300  0.30888100  1
  O  O15  1  0.00240000  0.10754400  0.80886200  1
  O  O16  1  0.15313100  0.35810600  0.17232300  1
  O  O17  1  0.65297800  0.35792600  0.67238400  1
  O  O18  1  0.84039000  0.65526200  0.32093600  1
  O  O19  1  0.34039400  0.65518800  0.82105400  1
  O  O20  1  0.65961500  0.34473100  0.17905400  1
  O  O21  1  0.15959300  0.34478800  0.67894700  1
  O  O22  1  0.34684900  0.64186800  0.32767900  1
  O  O23  1  0.84701800  0.64203400  0.82761700  1
loop_
_geom_bond_atom_site_label_1
_geom_bond_atom_site_label_2
_geom_bond_distance
_geom_bond_site_symmetry_2
Na0 O0 2.396821 1_545
Na0 O7 2.396985 1_555
Na0 O10 2.418225 1_455
Na0 O14 2.419157 1_555
Na0 O18 2.447386 1_455
Na0 O16 2.448583 1_555
Na0 O20 2.901902 1_455
Na0 O22 2.903178 1_555
Na1 O1 2.397264 1_545
Na1 O6 2.398540 1_556
Na1 O11 2.420131 1_555
Na1 O15 2.420900 1_655
Na1 O17 2.447641 1_555
Na1 O19 2.447950 1_555
Na1 O21 2.904051 1_555
Na1 O23 2.904718 1_555
Na2 O5 2.396890 1_554
Na2 O2 2.396894 1_565
Na2 O8 2.418269 1_555
Na2 O12 2.419339 1_455
Na2 O20 2.447243 1_555
Na2 O22 2.448766 1_555
Na2 O18 2.902048 1_555
Na2 O16 2.903116 1_555
Na3 O3 2.397289 1_565
Na3 O4 2.398450 1_555
Na3 O9 2.420128 1_655
Na3 O13 2.420915 1_555
Na3 O23 2.447809 1_555
Na3 O21 2.447924 1_655
Na3 O19 2.904209 1_655
Na3 O17 2.904732 1_555
O0 Si6 1.644903 1_555
O0 V0 2.088861 1_555
O0 V3 2.118407 1_465
O1 Si7 1.646141 1_555
O1 V2 2.088487 1_556
O1 V1 2.117036 1_565
O2 Si0 1.644952 1_555
O2 V1 2.088792 1_554
O2 V2 2.118297 1_545
O3 Si1 1.646133 1_555
O3 V3 2.088314 1_555
O3 V0 2.117190 1_645
O4 Si4 1.645169 1_555
O4 V3 2.089438 1_565
O4 V0 2.117194 1_555
O5 Si5 1.646305 1_555
O5 V1 2.088372 1_565
O5 V2 2.116765 1_456
O6 Si2 1.645197 1_555
O6 V2 2.089224 1_545
O6 V1 2.117377 1_654
O7 Si3 1.646232 1_555
O7 V0 2.088566 1_545
O7 V3 2.116724 1_555
O8 Si2 1.612806 1_555
O8 V2 1.981324 1_555
O9 Si3 1.612961 1_555
O9 V0 1.981335 1_555
O10 Si4 1.612894 1_555
O10 V3 1.981236 1_555
O11 Si5 1.612979 1_555
O11 V1 1.981267 1_555
O12 Si6 1.613020 1_655
O12 V2 1.982018 1_555
O13 Si7 1.612915 1_555
O13 V0 1.982015 1_555
O14 Si0 1.613043 1_555
O14 V3 1.982234 1_555
O15 Si1 1.612874 1_455
O15 V1 1.982025 1_555
O16 Si2 1.658044 1_455
O16 Si0 1.667044 1_555
O17 Si3 1.657952 1_555
O17 Si1 1.667246 1_555
O18 Si6 1.658225 1_655
O18 Si4 1.667340 1_555
O19 Si7 1.658083 1_555
O19 Si5 1.667078 1_555
O20 Si0 1.658308 1_555
O20 Si2 1.667389 1_555
O21 Si1 1.658052 1_455
O21 Si3 1.667058 1_555
O22 Si4 1.658069 1_555
O22 Si6 1.667040 1_555
O23 Si5 1.657951 1_655
O23 Si7 1.667257 1_555
