# generated using pymatgen
data_K2Co(SO7)2
_symmetry_space_group_name_H-M   'P 1'
_cell_length_a   11.92048300
_cell_length_b   6.09746300
_cell_length_c   8.52489409
_cell_angle_alpha   76.32478600
_cell_angle_beta   90.00000000
_cell_angle_gamma   90.00000000
_symmetry_Int_Tables_number   1
_chemical_formula_structural   K2Co(SO7)2
_chemical_formula_sum   'K4 Co2 S4 O28'
_cell_volume   602.06383026
_cell_formula_units_Z   2
loop_
 _symmetry_equiv_pos_site_id
 _symmetry_equiv_pos_as_xyz
  1  'x, y, z'
loop_
 _atom_site_type_symbol
 _atom_site_label
 _atom_site_symmetry_multiplicity
 _atom_site_fract_x
 _atom_site_fract_y
 _atom_site_fract_z
 _atom_site_occupancy
  K  K0  1  0.65639300  0.84973900  0.86717400  1
  K  K1  1  0.34360700  0.15026100  0.13282600  1
  K  K2  1  0.15639300  0.15026100  0.63282600  1
  K  K3  1  0.84360700  0.84973900  0.36717400  1
  Co  Co0  1  0.50000000  0.50000000  0.50000000  1
  Co  Co1  1  0.00000000  0.50000000  0.00000000  1
  S  S0  1  0.35692300  0.75368100  0.90337700  1
  S  S1  1  0.64307700  0.24631900  0.09662300  1
  S  S2  1  0.85692300  0.24631900  0.59662300  1
  S  S3  1  0.14307700  0.75368100  0.40337700  1
  O  O0  1  0.26228600  0.91239500  0.90397000  1
  O  O1  1  0.73771400  0.08760500  0.09603000  1
  O  O2  1  0.76228600  0.08760500  0.59603000  1
  O  O3  1  0.23771400  0.91239500  0.40397000  1
  O  O4  1  0.43366500  0.86296600  0.76619600  1
  O  O5  1  0.56633500  0.13703400  0.23380400  1
  O  O6  1  0.93366500  0.13703400  0.73380400  1
  O  O7  1  0.06633500  0.86296600  0.26619600  1
  O  O8  1  0.45139200  0.77686800  0.50527200  1
  O  O9  1  0.54860800  0.22313200  0.49472800  1
  O  O10  1  0.95139200  0.22313200  0.99472800  1
  O  O11  1  0.04860800  0.77686800  0.00527200  1
  O  O12  1  0.07646100  0.72114000  0.55441700  1
  O  O13  1  0.92353900  0.27886000  0.44558300  1
  O  O14  1  0.57646100  0.27886000  0.94558300  1
  O  O15  1  0.42353900  0.72114000  0.05441700  1
  O  O16  1  0.31565100  0.53469900  0.87898000  1
  O  O17  1  0.68434900  0.46530100  0.12102000  1
  O  O18  1  0.81565100  0.46530100  0.62102000  1
  O  O19  1  0.18434900  0.53469900  0.37898000  1
  O  O20  1  0.10193700  0.42977200  0.86708100  1
  O  O21  1  0.89806300  0.57022800  0.13291900  1
  O  O22  1  0.60193700  0.57022800  0.63291900  1
  O  O23  1  0.39806300  0.42977200  0.36708100  1
  O  O24  1  0.40186400  0.33327500  0.63443100  1
  O  O25  1  0.59813600  0.66672500  0.36556900  1
  O  O26  1  0.90186400  0.66672500  0.86556900  1
  O  O27  1  0.09813600  0.33327500  0.13443100  1
loop_
_geom_bond_atom_site_label_1
_geom_bond_atom_site_label_2
_geom_bond_distance
_geom_bond_site_symmetry_2
K0 O2 2.730332 1_565
K0 O4 2.786370 1_555
K0 O17 2.808960 1_556
K0 O1 2.861392 1_566
K0 O22 2.987198 1_555
K0 O14 3.004661 1_565
K0 O26 3.132881 1_555
K0 O15 3.205567 1_556
K1 O3 2.730332 1_545
K1 O5 2.786370 1_555
K1 O16 2.808960 1_554
K1 O0 2.861392 1_544
K1 O23 2.987198 1_555
K1 O15 3.004661 1_545
K1 O27 3.132881 1_555
K1 O14 3.205567 1_554
K2 O0 2.730332 1_545
K2 O6 2.786370 1_455
K2 O19 2.808960 1_555
K2 O3 2.861392 1_545
K2 O20 2.987198 1_555
K2 O12 3.004661 1_545
K2 O24 3.132881 1_555
K2 O13 3.205567 1_455
K3 O1 2.730332 1_565
K3 O7 2.786370 1_655
K3 O18 2.808960 1_555
K3 O2 2.861392 1_565
K3 O21 2.987198 1_555
K3 O13 3.004661 1_565
K3 O25 3.132881 1_555
K3 O12 3.205567 1_655
Co0 O24 1.778888 1_555
Co0 O25 1.778888 1_555
Co0 O23 1.781381 1_555
Co0 O22 1.781381 1_555
Co0 O9 1.795447 1_555
Co0 O8 1.795447 1_555
Co1 O26 1.778888 1_454
Co1 O27 1.778888 1_555
Co1 O20 1.781381 1_554
Co1 O21 1.781381 1_455
Co1 O11 1.795447 1_555
Co1 O10 1.795447 1_454
O0 S0 1.487123 1_555
O1 S1 1.487123 1_555
O2 S2 1.487123 1_555
O3 S3 1.487123 1_555
O4 S0 1.509984 1_555
O5 S1 1.509984 1_555
O6 S2 1.509984 1_555
O7 S3 1.509984 1_555
O12 S3 1.485621 1_555
O13 S2 1.485621 1_555
O14 S1 1.485621 1_556
O15 S0 1.485621 1_554
O16 S0 1.483059 1_555
O17 S1 1.483059 1_555
O18 S2 1.483059 1_555
O19 S3 1.483059 1_555
