# generated using pymatgen
data_BaCaAlF7
_symmetry_space_group_name_H-M   'P 1'
_cell_length_a   5.46624700
_cell_length_b   5.43845100
_cell_length_c   19.61875867
_cell_angle_alpha   76.33184150
_cell_angle_beta   90.00000000
_cell_angle_gamma   90.00000000
_symmetry_Int_Tables_number   1
_chemical_formula_structural   BaCaAlF7
_chemical_formula_sum   'Ba4 Ca4 Al4 F28'
_cell_volume   566.70823610
_cell_formula_units_Z   4
loop_
 _symmetry_equiv_pos_site_id
 _symmetry_equiv_pos_as_xyz
  1  'x, y, z'
loop_
 _atom_site_type_symbol
 _atom_site_label
 _atom_site_symmetry_multiplicity
 _atom_site_fract_x
 _atom_site_fract_y
 _atom_site_fract_z
 _atom_site_occupancy
  Ba  Ba0  1  0.75741700  0.31573600  0.93237900  1
  Ba  Ba1  1  0.75741700  0.68426400  0.56762100  1
  Ba  Ba2  1  0.24258300  0.68426400  0.06762100  1
  Ba  Ba3  1  0.24258300  0.31573600  0.43237900  1
  Ca  Ca0  1  0.32208400  0.50000000  0.75000000  1
  Ca  Ca1  1  0.79220300  0.00000000  0.75000000  1
  Ca  Ca2  1  0.67791600  0.50000000  0.25000000  1
  Ca  Ca3  1  0.20779700  0.00000000  0.25000000  1
  Al  Al0  1  0.22475500  0.17975800  0.61951600  1
  Al  Al1  1  0.22475500  0.82024200  0.88048400  1
  Al  Al2  1  0.77524500  0.17975800  0.11951600  1
  Al  Al3  1  0.77524500  0.82024200  0.38048400  1
  F  F0  1  0.04416200  0.84327600  0.43456200  1
  F  F1  1  0.04416200  0.15672400  0.06543800  1
  F  F2  1  0.95583800  0.15672400  0.56543800  1
  F  F3  1  0.95583800  0.84327600  0.93456200  1
  F  F4  1  0.02920300  0.34040800  0.67500500  1
  F  F5  1  0.02920300  0.65959200  0.82499500  1
  F  F6  1  0.97079700  0.65959200  0.32499500  1
  F  F7  1  0.97079700  0.34040800  0.17500500  1
  F  F8  1  0.28225100  0.49160900  0.56049400  1
  F  F9  1  0.28225100  0.50839100  0.93950600  1
  F  F10  1  0.71774900  0.50839100  0.43950600  1
  F  F11  1  0.71774900  0.49160900  0.06049400  1
  F  F12  1  0.59322300  0.03426500  0.06457500  1
  F  F13  1  0.59322300  0.96573500  0.43542500  1
  F  F14  1  0.40677700  0.96573500  0.93542500  1
  F  F15  1  0.40677700  0.03426500  0.56457500  1
  F  F16  1  0.86189800  0.88370800  0.18110900  1
  F  F17  1  0.86189800  0.11629200  0.31889100  1
  F  F18  1  0.13810200  0.11629200  0.81889100  1
  F  F19  1  0.13810200  0.88370800  0.68110900  1
  F  F20  1  0.48105300  0.76278000  0.82583800  1
  F  F21  1  0.48105300  0.23722000  0.67416200  1
  F  F22  1  0.51894700  0.23722000  0.17416200  1
  F  F23  1  0.51894700  0.76278000  0.32583800  1
  F  F24  1  0.36264900  0.72390200  0.19273900  1
  F  F25  1  0.36264900  0.27609800  0.30726100  1
  F  F26  1  0.63735100  0.27609800  0.80726100  1
  F  F27  1  0.63735100  0.72390200  0.69273900  1
loop_
_geom_bond_atom_site_label_1
_geom_bond_atom_site_label_2
_geom_bond_distance
_geom_bond_site_symmetry_2
Ba0 F26 2.598585 1_555
Ba0 F14 2.691963 1_545
Ba0 F3 2.779982 1_545
Ba0 F9 2.816542 1_555
Ba0 F12 2.828234 1_556
Ba0 F5 2.877619 1_655
Ba0 F11 2.900945 1_556
Ba0 F1 2.992029 1_656
Ba0 F9 3.068710 1_655
Ba0 F3 3.076924 1_555
Ba0 F20 3.187527 1_555
Ba1 F27 2.598585 1_555
Ba1 F15 2.691963 1_565
Ba1 F2 2.779982 1_565
Ba1 F8 2.816542 1_555
Ba1 F13 2.828234 1_555
Ba1 F4 2.877619 1_655
Ba1 F10 2.900945 1_555
Ba1 F0 2.992029 1_655
Ba1 F8 3.068710 1_655
Ba1 F2 3.076924 1_555
Ba1 F21 3.187527 1_555
Ba2 F24 2.598585 1_555
Ba2 F12 2.691963 1_565
Ba2 F1 2.779982 1_565
Ba2 F11 2.816542 1_555
Ba2 F14 2.828234 1_554
Ba2 F7 2.877619 1_455
Ba2 F9 2.900945 1_554
Ba2 F3 2.992029 1_454
Ba2 F11 3.068710 1_455
Ba2 F1 3.076924 1_555
Ba2 F22 3.187527 1_555
Ba3 F25 2.598585 1_555
Ba3 F13 2.691963 1_545
Ba3 F0 2.779982 1_545
Ba3 F10 2.816542 1_555
Ba3 F15 2.828234 1_555
Ba3 F6 2.877619 1_455
Ba3 F8 2.900945 1_555
Ba3 F2 2.992029 1_455
Ba3 F10 3.068710 1_455
Ba3 F0 3.076924 1_555
Ba3 F23 3.187527 1_555
Ca0 F26 2.251250 1_555
Ca0 F27 2.251250 1_555
Ca0 F19 2.420712 1_555
Ca0 F18 2.420712 1_555
Ca0 F21 2.452763 1_555
Ca0 F20 2.452763 1_555
Ca0 F4 2.466705 1_555
Ca0 F5 2.466705 1_555
Ca1 F27 2.242838 1_545
Ca1 F26 2.242838 1_555
Ca1 F20 2.421514 1_545
Ca1 F21 2.421514 1_555
Ca1 F4 2.446035 1_655
Ca1 F5 2.446035 1_645
Ca1 F19 2.491119 1_645
Ca1 F18 2.491119 1_655
Ca2 F25 2.251250 1_555
Ca2 F24 2.251250 1_555
Ca2 F16 2.420712 1_555
Ca2 F17 2.420712 1_555
Ca2 F22 2.452763 1_555
Ca2 F23 2.452763 1_555
Ca2 F6 2.466705 1_555
Ca2 F7 2.466705 1_555
Ca3 F24 2.242838 1_545
Ca3 F25 2.242838 1_555
Ca3 F22 2.421514 1_555
Ca3 F23 2.421514 1_545
Ca3 F7 2.446035 1_455
Ca3 F6 2.446035 1_445
Ca3 F16 2.491119 1_445
Ca3 F17 2.491119 1_455
Al0 F15 1.783520 1_555
Al0 F19 1.832307 1_545
Al0 F2 1.834368 1_455
Al0 F21 1.835247 1_555
Al0 F8 1.840614 1_555
Al0 F4 1.881636 1_555
Al1 F14 1.783520 1_555
Al1 F18 1.832307 1_565
Al1 F3 1.834368 1_455
Al1 F20 1.835247 1_555
Al1 F9 1.840614 1_555
Al1 F5 1.881636 1_555
Al2 F12 1.783520 1_555
Al2 F16 1.832307 1_545
Al2 F1 1.834368 1_655
Al2 F22 1.835247 1_555
Al2 F11 1.840614 1_555
Al2 F7 1.881636 1_555
Al3 F13 1.783520 1_555
Al3 F17 1.832307 1_565
Al3 F0 1.834368 1_655
Al3 F23 1.835247 1_555
Al3 F10 1.840614 1_555
Al3 F6 1.881636 1_555
