# generated using pymatgen
data_Sr2HgGe
_symmetry_space_group_name_H-M   'P 1'
_cell_length_a   12.82163772
_cell_length_b   13.00597347
_cell_length_c   13.00597352
_cell_angle_alpha   60.28714716
_cell_angle_beta   60.46774886
_cell_angle_gamma   60.46774738
_symmetry_Int_Tables_number   1
_chemical_formula_structural   Sr2HgGe
_chemical_formula_sum   'Sr2 Hg1 Ge1'
_cell_volume   1547.73126934
_cell_formula_units_Z   1
loop_
 _symmetry_equiv_pos_site_id
 _symmetry_equiv_pos_as_xyz
  1  'x, y, z'
loop_
 _atom_site_type_symbol
 _atom_site_label
 _atom_site_symmetry_multiplicity
 _atom_site_fract_x
 _atom_site_fract_y
 _atom_site_fract_z
 _atom_site_occupancy
  Sr  Sr0  1  0.77594087  1.00000000  0.00000000  1
  Sr  Sr1  1  0.22405913  0.00000000  1.00000000  1
  Hg  Hg0  1  0.50000000  -0.00000000  0.00000000  1
  Ge  Ge0  1  -0.00000000  -0.00000000  0.00000000  1
loop_
_geom_bond_atom_site_label_1
_geom_bond_atom_site_label_2
_geom_bond_distance
_geom_bond_site_symmetry_2
Hg0 Sr1 3.538014 1_554
Hg0 Sr0 3.538014 1_545
Ge0 Sr1 2.872805 1_554
Ge0 Sr0 2.872805 1_445
