# generated using pymatgen
data_FeRh
_symmetry_space_group_name_H-M   'P 1'
_cell_length_a   9.07879886
_cell_length_b   9.07879886
_cell_length_c   9.07879781
_cell_angle_alpha   34.63484798
_cell_angle_beta   34.63484798
_cell_angle_gamma   34.63484061
_symmetry_Int_Tables_number   1
_chemical_formula_structural   FeRh
_chemical_formula_sum   'Fe8 Rh8'
_cell_volume   215.69089633
_cell_formula_units_Z   8
loop_
 _symmetry_equiv_pos_site_id
 _symmetry_equiv_pos_as_xyz
  1  'x, y, z'
loop_
 _atom_site_type_symbol
 _atom_site_label
 _atom_site_symmetry_multiplicity
 _atom_site_fract_x
 _atom_site_fract_y
 _atom_site_fract_z
 _atom_site_occupancy
  Fe  Fe0_0  1  0.00000000  0.00000000  0.00000000  1
  Fe  Fe0_1  1  0.00000000  0.00000000  0.50000000  1
  Fe  Fe0_2  1  0.00000000  0.50000000  0.00000000  1
  Fe  Fe0_3  1  0.00000000  0.50000000  0.50000000  1
  Fe  Fe0_4  1  0.50000000  0.00000000  0.00000000  1
  Fe  Fe0_5  1  0.50000000  0.00000000  0.50000000  1
  Fe  Fe0_6  1  0.50000000  0.50000000  0.00000000  1
  Fe  Fe0_7  1  0.50000000  0.50000000  0.50000000  1
  Rh  Rh0_0  1  0.25000000  0.25000000  0.25000000  1
  Rh  Rh0_1  1  0.25000000  0.25000000  0.75000000  1
  Rh  Rh0_2  1  0.25000000  0.75000000  0.25000000  1
  Rh  Rh0_3  1  0.25000000  0.75000000  0.75000000  1
  Rh  Rh0_4  1  0.75000000  0.25000000  0.25000000  1
  Rh  Rh0_5  1  0.75000000  0.25000000  0.75000000  1
  Rh  Rh0_6  1  0.75000000  0.75000000  0.25000000  1
  Rh  Rh0_7  1  0.75000000  0.75000000  0.75000000  1
loop_
_geom_bond_atom_site_label_1
_geom_bond_atom_site_label_2
_geom_bond_distance
_geom_bond_site_symmetry_2
Fe0_0 Rh0_5 2.641464 1_454
Fe0_0 Rh0_3 2.641464 1_544
Fe0_0 Rh0_4 2.641464 1_455
Fe0_0 Rh0_2 2.641464 1_545
Fe0_0 Rh0_1 2.641465 1_554
Fe0_0 Rh0_6 2.641465 1_445
Fe0_0 Fe0_6 2.702442 1_455
Fe0_0 Fe0_6 2.702442 1_545
Fe0_0 Fe0_3 2.702442 1_554
Fe0_0 Fe0_5 2.702442 1_554
Fe0_0 Fe0_3 2.702442 1_545
Fe0_0 Fe0_5 2.702442 1_455
Fe0_1 Rh0_4 2.641464 1_455
Fe0_1 Rh0_5 2.641464 1_455
Fe0_1 Rh0_3 2.641464 1_545
Fe0_1 Rh0_2 2.641464 1_545
Fe0_1 Rh0_0 2.641465 1_555
Fe0_1 Rh0_7 2.641465 1_445
Fe0_1 Fe0_7 2.702442 1_455
Fe0_1 Fe0_7 2.702442 1_545
Fe0_1 Fe0_4 2.702442 1_555
Fe0_1 Fe0_4 2.702442 1_456
Fe0_1 Fe0_2 2.702442 1_546
Fe0_1 Fe0_2 2.702442 1_555
Fe0_2 Rh0_0 2.641464 1_555
Fe0_2 Rh0_7 2.641464 1_454
Fe0_2 Rh0_6 2.641464 1_455
Fe0_2 Rh0_1 2.641464 1_554
Fe0_2 Rh0_4 2.641465 1_455
Fe0_2 Rh0_3 2.641465 1_554
Fe0_2 Fe0_4 2.702442 1_555
Fe0_2 Fe0_4 2.702442 1_465
Fe0_2 Fe0_7 2.702442 1_455
Fe0_2 Fe0_7 2.702442 1_554
Fe0_3 Rh0_6 2.641464 1_455
Fe0_3 Rh0_1 2.641464 1_555
Fe0_3 Rh0_7 2.641464 1_455
Fe0_3 Rh0_0 2.641464 1_555
Fe0_3 Rh0_5 2.641465 1_455
Fe0_3 Rh0_2 2.641465 1_555
Fe0_3 Fe0_5 2.702442 1_465
Fe0_3 Fe0_5 2.702442 1_555
Fe0_3 Fe0_6 2.702442 1_456
Fe0_3 Fe0_6 2.702442 1_555
Fe0_4 Rh0_0 2.641464 1_555
Fe0_4 Rh0_1 2.641464 1_554
Fe0_4 Rh0_7 2.641464 1_544
Fe0_4 Rh0_6 2.641464 1_545
Fe0_4 Rh0_5 2.641465 1_554
Fe0_4 Rh0_2 2.641465 1_545
Fe0_4 Fe0_7 2.702442 1_554
Fe0_4 Fe0_7 2.702442 1_545
Fe0_5 Rh0_1 2.641464 1_555
Fe0_5 Rh0_6 2.641464 1_545
Fe0_5 Rh0_7 2.641464 1_545
Fe0_5 Rh0_0 2.641464 1_555
Fe0_5 Rh0_3 2.641465 1_545
Fe0_5 Rh0_4 2.641465 1_555
Fe0_5 Fe0_6 2.702442 1_546
Fe0_5 Fe0_6 2.702442 1_555
Fe0_6 Rh0_3 2.641464 1_554
Fe0_6 Rh0_2 2.641464 1_555
Fe0_6 Rh0_5 2.641464 1_554
Fe0_6 Rh0_4 2.641464 1_555
Fe0_6 Rh0_7 2.641465 1_554
Fe0_6 Rh0_0 2.641465 1_555
Fe0_7 Rh0_4 2.641464 1_555
Fe0_7 Rh0_2 2.641464 1_555
Fe0_7 Rh0_5 2.641464 1_555
Fe0_7 Rh0_3 2.641464 1_555
Fe0_7 Rh0_1 2.641465 1_555
Fe0_7 Rh0_6 2.641465 1_555
Rh0_0 Rh0_6 2.702442 1_455
Rh0_0 Rh0_6 2.702442 1_545
Rh0_0 Rh0_5 2.702442 1_455
Rh0_0 Rh0_3 2.702442 1_545
Rh0_0 Rh0_3 2.702442 1_554
Rh0_0 Rh0_5 2.702442 1_554
Rh0_1 Rh0_7 2.702442 1_545
Rh0_1 Rh0_7 2.702442 1_455
Rh0_1 Rh0_4 2.702442 1_555
Rh0_1 Rh0_2 2.702442 1_555
Rh0_1 Rh0_4 2.702442 1_456
Rh0_1 Rh0_2 2.702442 1_546
Rh0_2 Rh0_4 2.702442 1_465
Rh0_2 Rh0_4 2.702442 1_555
Rh0_2 Rh0_7 2.702442 1_455
Rh0_2 Rh0_7 2.702442 1_554
Rh0_3 Rh0_5 2.702442 1_465
Rh0_3 Rh0_5 2.702442 1_555
Rh0_3 Rh0_6 2.702442 1_555
Rh0_3 Rh0_6 2.702442 1_456
Rh0_4 Rh0_7 2.702442 1_545
Rh0_4 Rh0_7 2.702442 1_554
Rh0_5 Rh0_6 2.702442 1_555
Rh0_5 Rh0_6 2.702442 1_546
