# generated using pymatgen
data_LiTiFeO4
_symmetry_space_group_name_H-M   'P 1'
_cell_length_a   5.45134364
_cell_length_b   5.44392810
_cell_length_c   5.44884098
_cell_angle_alpha   137.44375386
_cell_angle_beta   137.04903010
_cell_angle_gamma   62.05422498
_symmetry_Int_Tables_number   1
_chemical_formula_structural   LiTiFeO4
_chemical_formula_sum   'Li1 Ti1 Fe1 O4'
_cell_volume   73.63885798
_cell_formula_units_Z   1
loop_
 _symmetry_equiv_pos_site_id
 _symmetry_equiv_pos_as_xyz
  1  'x, y, z'
loop_
 _atom_site_type_symbol
 _atom_site_label
 _atom_site_symmetry_multiplicity
 _atom_site_fract_x
 _atom_site_fract_y
 _atom_site_fract_z
 _atom_site_occupancy
  Li  Li0  1  0.46001200  0.41736400  0.95923300  1
  Ti  Ti0  1  0.74086000  0.23235200  0.50644500  1
  Fe  Fe0  1  0.99059200  0.94868400  0.95885100  1
  O  O0  1  0.52119000  0.98182000  0.45983100  1
  O  O1  1  0.20765800  0.17509100  0.96323000  1
  O  O2  1  0.94602100  0.40353400  0.45758300  1
  O  O3  1  0.76461900  0.72210700  0.95673100  1
loop_
_geom_bond_atom_site_label_1
_geom_bond_atom_site_label_2
_geom_bond_distance
_geom_bond_site_symmetry_2
Li0 O2 1.995318 1_556
Li0 O2 2.002752 1_455
Li0 O0 2.054237 1_545
Li0 O0 2.067489 1_556
Li0 O1 2.327925 1_555
Fe0 O0 2.013884 1_656
Fe0 O2 2.016088 1_566
Fe0 O0 2.019511 1_555
Fe0 O2 2.022197 1_555
Fe0 O1 2.049941 1_665
Fe0 O3 2.102706 1_555
O0 Ti0 1.983399 1_565
O1 Ti0 1.973681 1_455
O1 Ti0 2.049990 1_556
O2 Ti0 1.992092 1_555
O3 Ti0 1.834776 1_555
O3 Ti0 2.162788 1_566
