# generated using pymatgen
data_KMg6Cu
_symmetry_space_group_name_H-M   'P 1'
_cell_length_a   5.23907100
_cell_length_b   6.51548900
_cell_length_c   11.48901500
_cell_angle_alpha   90.00000000
_cell_angle_beta   90.00000000
_cell_angle_gamma   90.00000000
_symmetry_Int_Tables_number   1
_chemical_formula_structural   KMg6Cu
_chemical_formula_sum   'K2 Mg12 Cu2'
_cell_volume   392.17878474
_cell_formula_units_Z   2
loop_
 _symmetry_equiv_pos_site_id
 _symmetry_equiv_pos_as_xyz
  1  'x, y, z'
loop_
 _atom_site_type_symbol
 _atom_site_label
 _atom_site_symmetry_multiplicity
 _atom_site_fract_x
 _atom_site_fract_y
 _atom_site_fract_z
 _atom_site_occupancy
  K  K0  1  0.50000000  0.50000000  0.16622500  1
  K  K1  1  0.50000000  0.00000000  0.66622500  1
  Mg  Mg0  1  0.50000000  0.25386300  0.41709300  1
  Mg  Mg1  1  0.50000000  0.74613700  0.41709300  1
  Mg  Mg2  1  0.00000000  0.77000300  0.08318700  1
  Mg  Mg3  1  0.00000000  0.22999700  0.08318700  1
  Mg  Mg4  1  0.00000000  0.00000000  0.32815800  1
  Mg  Mg5  1  0.00000000  0.50000000  0.34176900  1
  Mg  Mg6  1  0.50000000  0.75386300  0.91709300  1
  Mg  Mg7  1  0.50000000  0.24613700  0.91709300  1
  Mg  Mg8  1  0.00000000  0.27000300  0.58318700  1
  Mg  Mg9  1  0.00000000  0.72999700  0.58318700  1
  Mg  Mg10  1  0.00000000  0.50000000  0.82815800  1
  Mg  Mg11  1  0.00000000  0.00000000  0.84176900  1
  Cu  Cu0  1  0.50000000  0.00000000  0.16328500  1
  Cu  Cu1  1  0.50000000  0.50000000  0.66328500  1
loop_
_geom_bond_atom_site_label_1
_geom_bond_atom_site_label_2
_geom_bond_distance
_geom_bond_site_symmetry_2
K0 Mg2 3.296501 1_655
K0 Mg2 3.296501 1_555
K0 Mg3 3.296501 1_655
K0 Mg3 3.296501 1_555
K0 Mg1 3.298347 1_555
K0 Mg0 3.298347 1_555
K0 Mg6 3.305829 1_554
K0 Mg7 3.305829 1_554
K0 Mg5 3.305989 1_555
K0 Mg5 3.305989 1_655
K1 Mg9 3.296501 1_545
K1 Mg8 3.296501 1_555
K1 Mg8 3.296501 1_655
K1 Mg9 3.296501 1_645
K1 Mg7 3.298347 1_555
K1 Mg6 3.298347 1_545
K1 Mg0 3.305829 1_555
K1 Mg1 3.305829 1_545
K1 Mg11 3.305989 1_555
K1 Mg11 3.305989 1_655
Mg0 Mg5 3.191041 1_555
Mg0 Mg5 3.191041 1_655
Mg0 Mg1 3.207406 1_555
Mg0 Mg8 3.242602 1_555
Mg0 Mg8 3.242602 1_655
Mg0 Mg4 3.262184 1_655
Mg0 Mg4 3.262184 1_555
Mg0 Mg1 3.308083 1_545
Mg1 Mg5 3.191041 1_655
Mg1 Mg5 3.191041 1_555
Mg1 Mg9 3.242602 1_555
Mg1 Mg9 3.242602 1_655
Mg1 Mg4 3.262184 1_665
Mg1 Mg4 3.262184 1_565
Mg2 Mg6 3.242602 1_554
Mg2 Mg6 3.242602 1_454
Mg2 Mg5 3.452645 1_555
Mg3 Mg7 3.242602 1_454
Mg3 Mg7 3.242602 1_554
Mg3 Mg5 3.452645 1_555
Mg4 Mg5 3.261496 1_545
Mg4 Mg5 3.261496 1_555
Mg5 Mg9 3.152585 1_555
Mg5 Mg8 3.152585 1_555
Mg6 Mg7 3.207406 1_565
Mg6 Mg7 3.308083 1_555
Mg10 Mg11 3.261496 1_555
Mg10 Mg11 3.261496 1_565
Mg10 Mg6 3.262184 1_555
Mg10 Mg7 3.262184 1_555
Mg10 Mg7 3.262184 1_455
Mg10 Mg6 3.262184 1_455
Mg11 Mg3 3.152585 1_556
Mg11 Mg2 3.152585 1_546
Mg11 Mg7 3.191041 1_455
Mg11 Mg7 3.191041 1_555
Mg11 Mg6 3.191041 1_445
Mg11 Mg6 3.191041 1_545
Mg11 Mg8 3.452645 1_555
Mg11 Mg9 3.452645 1_545
Cu0 Mg3 3.155068 1_655
Cu0 Mg3 3.155068 1_555
Cu0 Mg2 3.155068 1_645
Cu0 Mg2 3.155068 1_545
Cu0 Mg4 3.232656 1_655
Cu0 Mg4 3.232656 1_555
Cu0 Mg7 3.251507 1_554
Cu0 Mg6 3.251507 1_544
Cu0 K0 3.257920 1_555
Cu0 K0 3.257920 1_545
Cu0 Mg0 3.352452 1_555
Cu0 Mg1 3.352452 1_545
Cu1 Mg9 3.155068 1_655
Cu1 Mg8 3.155068 1_555
Cu1 Mg8 3.155068 1_655
Cu1 Mg9 3.155068 1_555
Cu1 Mg10 3.232656 1_655
Cu1 Mg10 3.232656 1_555
Cu1 Mg1 3.251507 1_555
Cu1 Mg0 3.251507 1_555
Cu1 K1 3.257920 1_555
Cu1 K1 3.257920 1_565
Cu1 Mg7 3.352452 1_555
Cu1 Mg6 3.352452 1_555
