# generated using pymatgen
data_PuP2H4CO7
_symmetry_space_group_name_H-M   'P 1'
_cell_length_a   8.84722716
_cell_length_b   8.86947314
_cell_length_c   9.75309697
_cell_angle_alpha   71.10712759
_cell_angle_beta   71.73905019
_cell_angle_gamma   81.69825214
_symmetry_Int_Tables_number   1
_chemical_formula_structural   PuP2H4CO7
_chemical_formula_sum   'Pu4 P8 H16 C4 O28'
_cell_volume   686.84511495
_cell_formula_units_Z   4
loop_
 _symmetry_equiv_pos_site_id
 _symmetry_equiv_pos_as_xyz
  1  'x, y, z'
loop_
 _atom_site_type_symbol
 _atom_site_label
 _atom_site_symmetry_multiplicity
 _atom_site_fract_x
 _atom_site_fract_y
 _atom_site_fract_z
 _atom_site_occupancy
  Pu  Pu0  1  0.68704900  0.94717300  0.21998500  1
  Pu  Pu1  1  0.31295100  0.05282700  0.78001500  1
  Pu  Pu2  1  0.17279100  0.42426100  0.22184400  1
  Pu  Pu3  1  0.82720900  0.57573900  0.77815600  1
  P  P0  1  0.51954200  0.27091500  0.38395300  1
  P  P1  1  0.48045800  0.72908500  0.61604700  1
  P  P2  1  0.27510800  0.02229800  0.18465700  1
  P  P3  1  0.72489200  0.97770200  0.81534300  1
  P  P4  1  0.98096800  0.23044500  0.62939000  1
  P  P5  1  0.01903200  0.76955500  0.37061000  1
  P  P6  1  0.22870700  0.46191000  0.82989900  1
  P  P7  1  0.77129300  0.53809000  0.17010100  1
  H  H0  1  0.71817300  0.21934700  0.62129300  1
  H  H1  1  0.28182700  0.78065300  0.37870700  1
  H  H2  1  0.84552700  0.07277700  0.54885700  1
  H  H3  1  0.15447300  0.92722300  0.45114300  1
  H  H4  1  0.69690000  0.41512900  0.43266200  1
  H  H5  1  0.30310000  0.58487100  0.56733800  1
  H  H6  1  0.54033400  0.53847000  0.37248100  1
  H  H7  1  0.45966600  0.46153000  0.62751900  1
  H  H8  1  0.93114700  0.19232200  0.95617800  1
  H  H9  1  0.06885300  0.80767800  0.04382200  1
  H  H10  1  0.36854800  0.74509600  0.08111000  1
  H  H11  1  0.63145200  0.25490400  0.91889000  1
  H  H12  1  0.50193500  0.60292800  0.08140800  1
  H  H13  1  0.49806500  0.39707200  0.91859200  1
  H  H14  1  0.96264800  0.18769100  0.10926800  1
  H  H15  1  0.03735200  0.81230900  0.89073200  1
  C  C0  1  0.81336500  0.12796800  0.64072700  1
  C  C1  1  0.18663500  0.87203200  0.35927300  1
  C  C2  1  0.62981300  0.44380900  0.34903900  1
  C  C3  1  0.37018700  0.55619100  0.65096100  1
  O  O0  1  0.07810500  0.66370500  0.26476500  1
  O  O1  1  0.92189500  0.33629500  0.73523500  1
  O  O2  1  0.38654500  0.32482000  0.30586300  1
  O  O3  1  0.61345500  0.67518000  0.69413700  1
  O  O4  1  0.44827000  0.02888800  0.18654800  1
  O  O5  1  0.55173000  0.97111200  0.81345200  1
  O  O6  1  0.93639100  0.45366600  0.17109600  1
  O  O7  1  0.06360900  0.54633400  0.82890400  1
  O  O8  1  0.73007200  0.02691600  0.95005500  1
  O  O9  1  0.26992800  0.97308400  0.04994500  1
  O  O10  1  0.03901800  0.32920500  0.46150300  1
  O  O11  1  0.96098200  0.67079500  0.53849700  1
  O  O12  1  0.89089300  0.89413400  0.32268200  1
  O  O13  1  0.10910700  0.10586600  0.67731800  1
  O  O14  1  0.17917300  0.18120400  0.19417400  1
  O  O15  1  0.82082700  0.81879600  0.80582600  1
  O  O16  1  0.76753300  0.71402700  0.16725200  1
  O  O17  1  0.23246700  0.28597300  0.83274800  1
  O  O18  1  0.89380800  0.15116500  0.06632000  1
  O  O19  1  0.10619200  0.84883500  0.93368000  1
  O  O20  1  0.28320400  0.47524800  0.96143800  1
  O  O21  1  0.71679600  0.52475200  0.03856200  1
  O  O22  1  0.54921100  0.78700900  0.44158800  1
  O  O23  1  0.45078900  0.21299100  0.55841200  1
  O  O24  1  0.39110900  0.63214600  0.13066500  1
  O  O25  1  0.60889100  0.36785400  0.86933500  1
  O  O26  1  0.63607300  0.14387700  0.32666300  1
  O  O27  1  0.36392700  0.85612300  0.67333700  1
loop_
_geom_bond_atom_site_label_1
_geom_bond_atom_site_label_2
_geom_bond_distance
_geom_bond_site_symmetry_2
H8 O18 0.977153 1_556
H9 O19 0.977153 1_554
H10 O24 0.982957 1_555
H11 O25 0.982957 1_555
H12 O24 0.985589 1_555
H13 O25 0.985589 1_555
H14 O18 0.977793 1_555
H15 O19 0.977793 1_555
C0 H0 1.097966 1_555
C0 H2 1.098855 1_555
C0 P4 1.805126 1_555
C0 P3 1.812537 1_545
C1 H1 1.097966 1_555
C1 H3 1.098855 1_555
C1 P5 1.805126 1_555
C1 P2 1.812537 1_565
C2 H6 1.096738 1_555
C2 H4 1.098899 1_555
C2 P7 1.816573 1_555
C2 P0 1.817953 1_555
C3 H7 1.096738 1_555
C3 H5 1.098899 1_555
C3 P6 1.816573 1_555
C3 P1 1.817953 1_555
O0 P5 1.538851 1_555
O0 Pu2 2.286808 1_555
O1 P4 1.538851 1_555
O1 Pu3 2.286808 1_555
O2 P0 1.535095 1_555
O2 Pu2 2.246604 1_555
O3 P1 1.535095 1_555
O3 Pu3 2.246604 1_555
O4 P2 1.547596 1_555
O4 Pu0 2.220579 1_545
O5 P3 1.547596 1_555
O5 Pu1 2.220579 1_565
O6 P7 1.543584 1_555
O6 Pu2 2.257195 1_655
O7 P6 1.543584 1_555
O7 Pu3 2.257195 1_455
O8 P3 1.527669 1_545
O8 Pu0 2.412446 1_546
O9 P2 1.527669 1_565
O9 Pu1 2.412446 1_564
O10 P4 1.544746 1_455
O10 Pu2 2.203027 1_555
O11 P5 1.544746 1_655
O11 Pu3 2.203027 1_555
O12 P5 1.536399 1_655
O12 Pu0 2.249195 1_555
O13 P4 1.536399 1_455
O13 Pu1 2.249195 1_555
O14 P2 1.550920 1_555
O14 Pu2 2.248443 1_555
O15 P3 1.550920 1_555
O15 Pu3 2.248443 1_555
O16 P7 1.547401 1_555
O16 Pu0 2.254265 1_555
O17 P6 1.547401 1_555
O17 Pu1 2.254265 1_555
O18 Pu0 2.519416 1_545
O19 Pu1 2.519416 1_565
O20 P6 1.547490 1_555
O20 Pu2 2.331977 1_556
O21 P7 1.547490 1_555
O21 Pu3 2.331977 1_554
O22 P1 1.550682 1_555
O22 Pu0 2.244241 1_555
O23 P0 1.550682 1_555
O23 Pu1 2.244241 1_555
O24 Pu2 2.609864 1_555
O25 Pu3 2.609864 1_555
O26 P0 1.534912 1_555
O26 Pu0 2.232489 1_545
O27 P1 1.534912 1_555
O27 Pu1 2.232489 1_565
