# generated using pymatgen
data_Yb4As3
_symmetry_space_group_name_H-M   'P 1'
_cell_length_a   7.69178995
_cell_length_b   7.69178995
_cell_length_c   7.69178995
_cell_angle_alpha   109.47122063
_cell_angle_beta   109.47122063
_cell_angle_gamma   109.47122063
_symmetry_Int_Tables_number   1
_chemical_formula_structural   Yb4As3
_chemical_formula_sum   'Yb8 As6'
_cell_volume   350.31630980
_cell_formula_units_Z   2
loop_
 _symmetry_equiv_pos_site_id
 _symmetry_equiv_pos_as_xyz
  1  'x, y, z'
loop_
 _atom_site_type_symbol
 _atom_site_label
 _atom_site_symmetry_multiplicity
 _atom_site_fract_x
 _atom_site_fract_y
 _atom_site_fract_z
 _atom_site_occupancy
  Yb  Yb0  1  0.14379900  0.50000000  0.00000000  1
  Yb  Yb1  1  0.50000000  0.00000000  0.64379900  1
  Yb  Yb2  1  0.35620100  0.35620100  0.35620100  1
  Yb  Yb3  1  0.00000000  0.14379900  0.50000000  1
  Yb  Yb4  1  0.85620100  0.85620100  0.85620100  1
  Yb  Yb5  1  0.00000000  0.64379900  0.50000000  1
  Yb  Yb6  1  0.64379900  0.50000000  0.00000000  1
  Yb  Yb7  1  0.50000000  0.00000000  0.14379900  1
  As  As0  1  0.87500000  0.25000000  0.12500000  1
  As  As1  1  0.12500000  0.87500000  0.25000000  1
  As  As2  1  0.37500000  0.62500000  0.75000000  1
  As  As3  1  0.25000000  0.12500000  0.87500000  1
  As  As4  1  0.75000000  0.37500000  0.62500000  1
  As  As5  1  0.62500000  0.75000000  0.37500000  1
loop_
_geom_bond_atom_site_label_1
_geom_bond_atom_site_label_2
_geom_bond_distance
_geom_bond_site_symmetry_2
As0 Yb7 2.967190 1_555
As0 Yb4 2.967190 1_544
As0 Yb5 2.967190 1_655
As0 Yb0 2.967190 1_655
As0 Yb3 3.187029 1_655
As0 Yb1 3.187029 1_554
As0 Yb6 3.187029 1_555
As0 Yb2 3.187029 1_655
As1 Yb1 2.967190 1_565
As1 Yb0 2.967190 1_555
As1 Yb3 2.967190 1_565
As1 Yb4 2.967190 1_454
As1 Yb5 3.187029 1_555
As1 Yb6 3.187029 1_455
As1 Yb2 3.187029 1_565
As1 Yb7 3.187029 1_565
As2 Yb6 2.967190 1_556
As2 Yb5 2.967190 1_555
As2 Yb2 2.967190 1_555
As2 Yb7 2.967190 1_566
As2 Yb0 3.187029 1_556
As2 Yb4 3.187029 1_555
As2 Yb3 3.187029 1_555
As2 Yb1 3.187029 1_565
As3 Yb4 2.967190 1_445
As3 Yb3 2.967190 1_555
As3 Yb6 2.967190 1_556
As3 Yb7 2.967190 1_556
As3 Yb1 3.187029 1_555
As3 Yb0 3.187029 1_556
As3 Yb5 3.187029 1_545
As3 Yb2 3.187029 1_556
As4 Yb2 2.967190 1_555
As4 Yb5 2.967190 1_655
As4 Yb0 2.967190 1_656
As4 Yb1 2.967190 1_555
As4 Yb6 3.187029 1_556
As4 Yb3 3.187029 1_655
As4 Yb7 3.187029 1_555
As4 Yb4 3.187029 1_555
As5 Yb3 2.967190 1_665
As5 Yb2 2.967190 1_555
As5 Yb6 2.967190 1_555
As5 Yb1 2.967190 1_565
As5 Yb7 3.187029 1_565
As5 Yb0 3.187029 1_555
As5 Yb5 3.187029 1_655
As5 Yb4 3.187029 1_555
