# generated using pymatgen
data_Rb6Na4Tl13
_symmetry_space_group_name_H-M   'P 1'
_cell_length_a   10.16461009
_cell_length_b   10.16461068
_cell_length_c   10.16461068
_cell_angle_alpha   109.47124880
_cell_angle_beta   109.47123232
_cell_angle_gamma   109.47123937
_symmetry_Int_Tables_number   1
_chemical_formula_structural   Rb6Na4Tl13
_chemical_formula_sum   'Rb6 Na4 Tl13'
_cell_volume   808.44413974
_cell_formula_units_Z   1
loop_
 _symmetry_equiv_pos_site_id
 _symmetry_equiv_pos_as_xyz
  1  'x, y, z'
loop_
 _atom_site_type_symbol
 _atom_site_label
 _atom_site_symmetry_multiplicity
 _atom_site_fract_x
 _atom_site_fract_y
 _atom_site_fract_z
 _atom_site_occupancy
  Rb  Rb0  1  0.82894612  0.32894612  0.50000000  1
  Rb  Rb1  1  0.17105388  0.67105388  0.50000000  1
  Rb  Rb2  1  0.32894612  0.50000000  0.82894612  1
  Rb  Rb3  1  0.67105388  0.50000000  0.17105388  1
  Rb  Rb4  1  0.50000000  0.82894612  0.32894612  1
  Rb  Rb5  1  0.50000000  0.17105388  0.67105388  1
  Na  Na0  1  0.50000000  0.50000000  0.50000000  1
  Na  Na1  1  0.50000000  -0.00000000  -0.00000000  1
  Na  Na2  1  -0.00000000  0.50000000  -0.00000000  1
  Na  Na3  1  -0.00000000  -0.00000000  0.50000000  1
  Tl  Tl0  1  0.85899466  0.76220440  0.62119906  1
  Tl  Tl1  1  0.14100534  0.23779560  0.37880094  1
  Tl  Tl2  1  0.14100534  0.76220440  0.90320974  1
  Tl  Tl3  1  0.85899466  0.23779560  0.09679026  1
  Tl  Tl4  1  0.76220440  0.62119906  0.85899466  1
  Tl  Tl5  1  0.23779560  0.37880094  0.14100534  1
  Tl  Tl6  1  0.76220440  0.90320974  0.14100534  1
  Tl  Tl7  1  0.23779560  0.09679026  0.85899466  1
  Tl  Tl8  1  0.62119906  0.85899466  0.76220440  1
  Tl  Tl9  1  0.37880094  0.14100534  0.23779560  1
  Tl  Tl10  1  0.09679026  0.85899466  0.23779560  1
  Tl  Tl11  1  0.90320974  0.14100534  0.76220440  1
  Tl  Tl12  1  -0.00000000  -0.00000000  -0.00000000  1
loop_
_geom_bond_atom_site_label_1
_geom_bond_atom_site_label_2
_geom_bond_distance
_geom_bond_site_symmetry_2
Rb0 Tl9 3.786419 1_555
Rb0 Tl11 3.786422 1_555
Rb0 Rb1 4.015346 1_655
Rb0 Tl2 4.029989 1_655
Rb0 Tl0 4.029992 1_555
Rb0 Tl3 4.029993 1_555
Rb0 Tl1 4.029993 1_655
Rb0 Tl6 4.285747 1_545
Rb0 Tl4 4.285748 1_555
Rb0 Rb4 4.351670 1_545
Rb0 Rb2 4.351670 1_655
Rb0 Rb5 4.351672 1_555
Rb0 Rb3 4.351673 1_555
Rb1 Tl8 3.786419 1_555
Rb1 Tl10 3.786422 1_555
Rb1 Tl3 4.029989 1_455
Rb1 Tl1 4.029992 1_555
Rb1 Tl2 4.029993 1_555
Rb1 Tl0 4.029993 1_455
Rb1 Tl7 4.285747 1_565
Rb1 Tl5 4.285748 1_555
Rb1 Rb5 4.351670 1_565
Rb1 Rb3 4.351670 1_455
Rb1 Rb4 4.351672 1_555
Rb1 Rb2 4.351673 1_555
Rb2 Tl1 3.786419 1_555
Rb2 Tl2 3.786421 1_555
Rb2 Rb3 4.015346 1_556
Rb2 Tl6 4.029989 1_556
Rb2 Tl4 4.029992 1_555
Rb2 Tl7 4.029993 1_555
Rb2 Tl5 4.029993 1_556
Rb2 Tl11 4.285747 1_455
Rb2 Tl8 4.285748 1_555
Rb2 Rb4 4.351669 1_556
Rb2 Rb5 4.351672 1_555
Rb3 Tl0 3.786419 1_555
Rb3 Tl3 3.786421 1_555
Rb3 Tl7 4.029989 1_554
Rb3 Tl5 4.029992 1_555
Rb3 Tl6 4.029993 1_555
Rb3 Tl4 4.029993 1_554
Rb3 Tl10 4.285747 1_655
Rb3 Tl9 4.285748 1_555
Rb3 Rb5 4.351669 1_554
Rb3 Rb4 4.351672 1_555
Rb4 Tl5 3.786419 1_555
Rb4 Tl6 3.786421 1_555
Rb4 Rb5 4.015345 1_565
Rb4 Tl11 4.029989 1_565
Rb4 Tl8 4.029992 1_555
Rb4 Tl10 4.029993 1_555
Rb4 Tl9 4.029993 1_565
Rb4 Tl2 4.285747 1_554
Rb4 Tl0 4.285748 1_555
Rb5 Tl4 3.786419 1_555
Rb5 Tl7 3.786421 1_555
Rb5 Tl10 4.029989 1_545
Rb5 Tl9 4.029992 1_555
Rb5 Tl11 4.029993 1_555
Rb5 Tl8 4.029993 1_545
Rb5 Tl3 4.285747 1_556
Rb5 Tl1 4.285748 1_555
Na0 Tl9 3.204217 1_555
Na0 Tl8 3.204217 1_555
Na0 Tl0 3.204217 1_555
Na0 Tl1 3.204217 1_555
Na0 Tl4 3.204217 1_555
Na0 Tl5 3.204217 1_555
Na0 Rb3 4.251878 1_555
Na0 Rb2 4.251878 1_555
Na0 Rb0 4.251878 1_555
Na0 Rb1 4.251878 1_555
Na0 Rb4 4.251879 1_555
Na0 Rb5 4.251879 1_555
Na1 Tl2 3.204217 1_544
Na1 Tl3 3.204217 1_555
Na1 Tl8 3.204218 1_544
Na1 Tl9 3.204218 1_555
Na1 Tl6 3.204219 1_545
Na1 Tl7 3.204219 1_554
Na1 Rb1 4.251875 1_544
Na1 Rb0 4.251875 1_555
Na1 Rb2 4.251876 1_544
Na1 Rb3 4.251876 1_555
Na1 Rb5 4.251879 1_554
Na1 Rb4 4.251879 1_545
Na2 Tl10 3.204217 1_555
Na2 Tl11 3.204217 1_454
Na2 Tl3 3.204219 1_455
Na2 Tl2 3.204219 1_554
Na2 Tl5 3.204219 1_555
Na2 Tl4 3.204219 1_454
Na2 Rb5 4.251875 1_454
Na2 Rb4 4.251875 1_555
Na2 Rb1 4.251876 1_555
Na2 Rb0 4.251876 1_454
Na2 Rb2 4.251878 1_554
Na2 Rb3 4.251878 1_455
Na3 Tl6 3.204217 1_445
Na3 Tl7 3.204217 1_555
Na3 Tl11 3.204218 1_455
Na3 Tl10 3.204218 1_545
Na3 Tl1 3.204219 1_555
Na3 Tl0 3.204219 1_445
Na3 Rb3 4.251874 1_445
Na3 Rb2 4.251874 1_555
Na3 Rb4 4.251876 1_445
Na3 Rb5 4.251876 1_555
Na3 Rb1 4.251878 1_545
Na3 Rb0 4.251878 1_455
Tl0 Tl12 3.244813 1_666
Tl0 Tl2 3.309982 1_655
Tl0 Tl7 3.437932 1_665
Tl0 Tl11 3.437934 1_565
Tl0 Tl8 3.437935 1_555
Tl0 Tl4 3.437936 1_555
Tl1 Tl12 3.244813 1_555
Tl1 Tl3 3.309982 1_455
Tl1 Tl6 3.437932 1_445
Tl1 Tl10 3.437934 1_545
Tl1 Tl9 3.437935 1_555
Tl1 Tl5 3.437936 1_555
Tl2 Tl9 3.437932 1_566
Tl2 Tl4 3.437934 1_455
Tl2 Tl7 3.437935 1_565
Tl3 Tl8 3.437932 1_544
Tl3 Tl5 3.437934 1_655
Tl3 Tl6 3.437935 1_545
Tl4 Tl6 3.309981 1_556
Tl4 Tl8 3.437936 1_555
Tl5 Tl7 3.309981 1_554
Tl5 Tl9 3.437936 1_555
Tl6 Tl8 3.437935 1_554
Tl7 Tl9 3.437935 1_556
Tl10 Tl12 3.244815 1_565
Tl10 Tl9 3.309981 1_565
Tl10 Tl4 3.437933 1_454
Tl10 Tl2 3.437935 1_554
Tl10 Tl6 3.437935 1_455
Tl11 Tl12 3.244815 1_656
Tl11 Tl8 3.309981 1_545
Tl11 Tl5 3.437933 1_656
Tl11 Tl3 3.437935 1_556
Tl11 Tl7 3.437935 1_655
Tl12 Tl4 3.244813 1_444
Tl12 Tl5 3.244813 1_555
Tl12 Tl9 3.244813 1_555
Tl12 Tl8 3.244813 1_444
Tl12 Tl3 3.244815 1_455
Tl12 Tl2 3.244815 1_544
Tl12 Tl7 3.244815 1_554
Tl12 Tl6 3.244815 1_445
