# generated using pymatgen
data_Li9Mn2Co5O16
_symmetry_space_group_name_H-M   'P 1'
_cell_length_a   5.11239200
_cell_length_b   5.88983810
_cell_length_c   10.43854448
_cell_angle_alpha   74.41603284
_cell_angle_beta   76.21890019
_cell_angle_gamma   74.14086448
_symmetry_Int_Tables_number   1
_chemical_formula_structural   Li9Mn2Co5O16
_chemical_formula_sum   'Li9 Mn2 Co5 O16'
_cell_volume   286.59410873
_cell_formula_units_Z   1
loop_
 _symmetry_equiv_pos_site_id
 _symmetry_equiv_pos_as_xyz
  1  'x, y, z'
loop_
 _atom_site_type_symbol
 _atom_site_label
 _atom_site_symmetry_multiplicity
 _atom_site_fract_x
 _atom_site_fract_y
 _atom_site_fract_z
 _atom_site_occupancy
  Li  Li0  1  0.50269300  0.81050200  0.12617400  1
  Li  Li1  1  0.49564500  0.31651700  0.12554400  1
  Li  Li2  1  0.49867700  0.42842700  0.38440900  1
  Li  Li3  1  0.50050800  0.92835900  0.38228300  1
  Li  Li4  1  0.50671200  0.06962300  0.62159000  1
  Li  Li5  1  0.50483700  0.56156600  0.62240300  1
  Li  Li6  1  0.49720500  0.69392600  0.86847700  1
  Li  Li7  1  0.49742900  0.19032400  0.87171900  1
  Li  Li8  1  0.99854500  0.25269900  0.49851200  1
  Mn  Mn0  1  0.99999400  0.00167500  0.00020800  1
  Mn  Mn1  1  0.00340900  0.61534200  0.25260600  1
  Co  Co0  1  0.99384300  0.50370400  0.00088700  1
  Co  Co1  1  0.00505200  0.11715700  0.25235500  1
  Co  Co2  1  0.00062200  0.74470100  0.50081600  1
  Co  Co3  1  0.00420800  0.88464900  0.73927600  1
  Co  Co4  1  0.99206300  0.37584800  0.74222200  1
  O  O0  1  0.22333400  0.14360000  0.07175500  1
  O  O1  1  0.21817300  0.67237800  0.06094700  1
  O  O2  1  0.23798500  0.76004400  0.31029200  1
  O  O3  1  0.22400700  0.29711000  0.29973900  1
  O  O4  1  0.23464000  0.42953200  0.56545400  1
  O  O5  1  0.23762600  0.90287000  0.57337500  1
  O  O6  1  0.22712500  0.03592800  0.82457100  1
  O  O7  1  0.20770400  0.52915100  0.82588100  1
  O  O8  1  0.77724000  0.48029500  0.17837800  1
  O  O9  1  0.78873300  0.95051100  0.18559600  1
  O  O10  1  0.78258200  0.07648800  0.42515100  1
  O  O11  1  0.77251300  0.59713000  0.42237500  1
  O  O12  1  0.75819500  0.72059400  0.68653300  1
  O  O13  1  0.76089400  0.22518400  0.69473600  1
  O  O14  1  0.77606000  0.32439000  0.94934000  1
  O  O15  1  0.77174500  0.85978000  0.93639600  1
loop_
_geom_bond_atom_site_label_1
_geom_bond_atom_site_label_2
_geom_bond_distance
_geom_bond_site_symmetry_2
Li0 O2 2.070575 1_555
Li0 O8 2.086270 1_555
Li0 O0 2.113708 1_565
Li0 O15 2.124073 1_554
Li0 O9 2.137588 1_555
Li0 O1 2.158107 1_555
Li1 O3 2.004994 1_555
Li1 O14 2.043199 1_554
Li1 O8 2.174921 1_555
Li1 O0 2.178347 1_555
Li1 O1 2.220665 1_555
Li1 O9 2.289375 1_545
Li2 O4 2.044533 1_555
Li2 O11 2.083370 1_555
Li2 O2 2.108626 1_555
Li2 O10 2.181826 1_555
Li2 O3 2.214355 1_555
Li2 O8 2.274285 1_555
Li3 O10 2.060541 1_565
Li3 O11 2.066572 1_555
Li3 O5 2.116562 1_555
Li3 O9 2.218876 1_555
Li3 O2 2.226378 1_555
Li3 O3 2.313987 1_565
Li4 O5 2.108151 1_545
Li4 O12 2.135527 1_545
Li4 O13 2.147191 1_555
Li4 O10 2.191858 1_555
Li4 O4 2.209311 1_555
Li4 O6 2.249020 1_555
Li5 O4 2.023117 1_555
Li5 O12 2.101481 1_555
Li5 O5 2.109156 1_555
Li5 O13 2.111559 1_555
Li5 O11 2.199243 1_555
Li5 O7 2.293221 1_555
Li6 O12 2.039363 1_555
Li6 O6 2.111737 1_565
Li6 O7 2.158827 1_555
Li6 O1 2.164272 1_556
Li6 O15 2.241074 1_555
Li6 O14 2.317842 1_555
Li7 O13 2.007798 1_555
Li7 O6 2.056727 1_555
Li7 O15 2.113156 1_545
Li7 O7 2.148134 1_555
Li7 O14 2.194888 1_555
Li7 O0 2.215268 1_556
Li8 O10 2.082953 1_555
Li8 O11 2.091029 1_555
Li8 O3 2.106174 1_655
Li8 O13 2.107494 1_555
Li8 O4 2.123646 1_655
Li8 O5 2.136242 1_645
Mn0 O6 1.914527 1_654
Mn0 O15 1.925158 1_544
Mn0 O14 1.939959 1_554
Mn0 O0 1.955404 1_655
Mn0 O9 1.967490 1_545
Mn0 O1 1.975263 1_645
Mn1 O11 1.875059 1_455
Mn1 O3 1.908048 1_555
Mn1 O2 1.924981 1_555
Mn1 O8 1.957196 1_455
Mn1 O9 2.007616 1_455
Mn1 O1 2.028516 1_555
Co0 O7 1.883071 1_654
Co0 O8 1.909622 1_555
Co0 O14 1.969267 1_554
Co0 O1 1.998810 1_655
Co0 O15 2.108295 1_554
Co0 O0 2.152359 1_655
Co1 O10 1.882497 1_455
Co1 O0 1.938687 1_555
Co1 O3 1.953188 1_555
Co1 O9 1.999991 1_445
Co1 O2 2.120986 1_545
Co1 O8 2.169546 1_455
Co2 O4 1.957106 1_555
Co2 O10 2.021086 1_465
Co2 O12 2.029295 1_455
Co2 O11 2.043818 1_455
Co2 O2 2.061455 1_555
Co2 O5 2.083965 1_555
Co3 O5 1.849358 1_555
Co3 O12 2.024489 1_455
Co3 O13 2.048710 1_465
Co3 O6 2.085679 1_565
Co3 O15 2.106160 1_455
Co3 O7 2.127015 1_555
Co4 O13 1.875764 1_555
Co4 O4 1.962989 1_655
Co4 O7 2.054181 1_655
Co4 O12 2.064082 1_555
Co4 O6 2.108049 1_655
Co4 O14 2.163098 1_555
