# generated using pymatgen
data_Li7Mn4CoO12
_symmetry_space_group_name_H-M   'P 1'
_cell_length_a   2.87739900
_cell_length_b   5.88345300
_cell_length_c   13.30976032
_cell_angle_alpha   77.48755832
_cell_angle_beta   90.00000000
_cell_angle_gamma   90.00000000
_symmetry_Int_Tables_number   1
_chemical_formula_structural   Li7Mn4CoO12
_chemical_formula_sum   'Li7 Mn4 Co1 O12'
_cell_volume   219.96987442
_cell_formula_units_Z   1
loop_
 _symmetry_equiv_pos_site_id
 _symmetry_equiv_pos_as_xyz
  1  'x, y, z'
loop_
 _atom_site_type_symbol
 _atom_site_label
 _atom_site_symmetry_multiplicity
 _atom_site_fract_x
 _atom_site_fract_y
 _atom_site_fract_z
 _atom_site_occupancy
  Li  Li0  1  0.50000000  0.82904800  0.82118900  1
  Li  Li1  1  0.50000000  0.49570600  0.52005800  1
  Li  Li2  1  0.50000000  0.17146700  0.16018800  1
  Li  Li3  1  0.00000000  0.15968200  0.66371500  1
  Li  Li4  1  0.00000000  0.82604900  0.34479200  1
  Li  Li5  1  0.00000000  0.50318000  0.98440600  1
  Li  Li6  1  0.00000000  0.67340700  0.66707600  1
  Mn  Mn0  1  0.00000000  0.00954400  0.99157400  1
  Mn  Mn1  1  0.50000000  0.98780900  0.51434700  1
  Mn  Mn2  1  0.00000000  0.32918600  0.34161900  1
  Mn  Mn3  1  0.50000000  0.66566600  0.16544200  1
  Co  Co0  1  0.50000000  0.36195900  0.80581900  1
  O  O0  1  0.50000000  0.78527900  0.99503500  1
  O  O1  1  0.50000000  0.40933800  0.66999000  1
  O  O2  1  0.50000000  0.09663800  0.34720400  1
  O  O3  1  0.00000000  0.09645100  0.84712100  1
  O  O4  1  0.00000000  0.77614200  0.50131400  1
  O  O5  1  0.00000000  0.43875600  0.16578300  1
  O  O6  1  0.50000000  0.92090200  0.65313300  1
  O  O7  1  0.50000000  0.55870100  0.33741600  1
  O  O8  1  0.50000000  0.21951100  0.00581900  1
  O  O9  1  0.00000000  0.21715500  0.50668200  1
  O  O10  1  0.00000000  0.89854400  0.15849000  1
  O  O11  1  0.00000000  0.56988000  0.83178800  1
loop_
_geom_bond_atom_site_label_1
_geom_bond_atom_site_label_2
_geom_bond_distance
_geom_bond_site_symmetry_2
Li0 O11 2.078840 1_555
Li0 O11 2.078840 1_655
Li0 O6 2.184372 1_555
Li0 O3 2.213458 1_665
Li0 O3 2.213458 1_565
Li0 O0 2.272009 1_555
Li1 O1 1.949637 1_555
Li1 O4 2.162409 1_555
Li1 O4 2.162409 1_655
Li1 O9 2.216704 1_555
Li1 O9 2.216704 1_655
Li1 O7 2.378308 1_555
Li2 O8 2.012385 1_555
Li2 O5 2.144565 1_555
Li2 O5 2.144565 1_655
Li2 O10 2.159736 1_545
Li2 O10 2.159736 1_645
Li2 O2 2.432035 1_555
Li3 O6 2.036918 1_545
Li3 O6 2.036918 1_445
Li3 O9 2.043650 1_555
Li3 O1 2.070622 1_455
Li3 O1 2.070622 1_555
Li3 O3 2.388268 1_555
Li4 O4 2.039897 1_555
Li4 O7 2.149537 1_555
Li4 O7 2.149537 1_455
Li4 O2 2.151160 1_565
Li4 O2 2.151160 1_465
Li4 O10 2.423271 1_555
Li5 O11 1.983636 1_555
Li5 O8 2.174945 1_456
Li5 O8 2.174945 1_556
Li5 O0 2.224020 1_555
Li5 O0 2.224020 1_455
Li5 O5 2.361141 1_556
Li6 O6 2.026698 1_555
Li6 O6 2.026698 1_455
Li6 O1 2.111644 1_555
Li6 O1 2.111644 1_455
Li6 O11 2.144408 1_555
Li6 O4 2.157560 1_555
Mn0 O3 1.879361 1_555
Mn0 O8 1.932183 1_456
Mn0 O8 1.932183 1_556
Mn0 O0 1.945918 1_445
Mn0 O0 1.945918 1_545
Mn0 O10 2.175636 1_546
Mn1 O6 1.803347 1_555
Mn1 O4 1.935046 1_655
Mn1 O4 1.935046 1_555
Mn1 O9 1.959937 1_565
Mn1 O9 1.959937 1_665
Mn1 O2 2.177559 1_565
Mn2 O7 1.965623 1_455
Mn2 O7 1.965623 1_555
Mn2 O2 1.975663 1_455
Mn2 O2 1.975663 1_555
Mn2 O9 2.152575 1_555
Mn2 O5 2.288890 1_555
Mn3 O5 1.962018 1_655
Mn3 O5 1.962018 1_555
Mn3 O10 1.975027 1_655
Mn3 O10 1.975027 1_555
Mn3 O0 2.224367 1_554
Mn3 O7 2.238548 1_555
Co0 O1 1.768522 1_555
Co0 O11 1.966972 1_555
Co0 O11 1.966972 1_655
Co0 O3 2.107162 1_655
Co0 O3 2.107162 1_555
