# generated using pymatgen
data_Pr3PtBr3
_symmetry_space_group_name_H-M   'P 1'
_cell_length_a   10.54724781
_cell_length_b   10.54736758
_cell_length_c   10.54737396
_cell_angle_alpha   109.47162474
_cell_angle_beta   109.47134483
_cell_angle_gamma   109.47132398
_symmetry_Int_Tables_number   1
_chemical_formula_structural   Pr3PtBr3
_chemical_formula_sum   'Pr12 Pt4 Br12'
_cell_volume   903.23820645
_cell_formula_units_Z   4
loop_
 _symmetry_equiv_pos_site_id
 _symmetry_equiv_pos_as_xyz
  1  'x, y, z'
loop_
 _atom_site_type_symbol
 _atom_site_label
 _atom_site_symmetry_multiplicity
 _atom_site_fract_x
 _atom_site_fract_y
 _atom_site_fract_z
 _atom_site_occupancy
  Pr  Pr0  1  0.47254835  0.48627062  0.23627713  1
  Pr  Pr1  1  0.74999940  0.23627479  0.26372475  1
  Pr  Pr2  1  0.74999967  0.01372466  0.48627523  1
  Pr  Pr3  1  0.23626876  0.47254055  0.48627125  1
  Pr  Pr4  1  0.26373118  0.75000779  0.23627728  1
  Pr  Pr5  1  0.02745188  0.26372301  0.01372922  1
  Pr  Pr6  1  0.01372212  0.02744521  0.26372367  1
  Pr  Pr7  1  0.48628443  0.75000662  0.01372228  1
  Pr  Pr8  1  0.48627778  0.23627564  0.47255403  1
  Pr  Pr9  1  0.01371533  0.48627807  0.74999372  1
  Pr  Pr10  1  0.26373193  0.01372889  0.02746011  1
  Pr  Pr11  1  0.23626910  0.26372266  0.74999260  1
  Pt  Pt0  1  0.24999987  0.25000049  0.24999974  1
  Pt  Pt1  1  0.49999878  -0.00000262  0.24999837  1
  Pt  Pt2  1  0.00000131  0.25000172  0.50000272  1
  Pt  Pt3  1  0.24999990  0.50000037  0.99999923  1
  Br  Br0  1  0.25000065  0.75560445  0.74439774  1
  Br  Br1  1  0.51120862  0.50560485  0.75560537  1
  Br  Br2  1  0.98879275  0.74439529  0.99439578  1
  Br  Br3  1  0.74437939  0.24998536  0.75557217  1
  Br  Br4  1  0.99437865  0.98877829  0.74436521  1
  Br  Br5  1  0.25000072  0.99439592  0.50560334  1
  Br  Br6  1  0.75562060  0.51119271  0.50560611  1
  Br  Br7  1  0.50562082  0.24998619  0.99439904  1
  Br  Br8  1  0.75561937  0.74442705  0.25001410  1
  Br  Br9  1  0.74437794  0.99439316  0.98880660  1
  Br  Br10  1  0.99437916  0.50560170  0.25001317  1
  Br  Br11  1  0.50562153  0.75563557  0.51122106  1
loop_
_geom_bond_atom_site_label_1
_geom_bond_atom_site_label_2
_geom_bond_distance
_geom_bond_site_symmetry_2
Pr0 Pt0 2.882384 1_555
Pr0 Pt3 2.882480 1_554
Pr1 Pt1 2.882443 1_555
Pr1 Pt2 2.882451 1_655
Pr2 Pt1 2.882436 1_555
Pr2 Pt2 2.882441 1_655
Pr3 Pt2 2.882366 1_555
Pr3 Pt0 2.882403 1_555
Pr4 Pt1 2.882349 1_565
Pr4 Pt3 2.882472 1_554
Pr5 Pt0 2.882383 1_555
Pr5 Pt3 2.882475 1_554
Pr6 Pt0 2.882478 1_555
Pr6 Pt2 2.882479 1_555
Pr7 Pt1 2.882450 1_565
Pr7 Pt3 2.882542 1_554
Pr8 Pt1 2.882471 1_555
Pr8 Pt0 2.882479 1_555
Pr9 Pt2 2.882455 1_555
Pr9 Pt3 2.882542 1_555
Pr10 Pt1 2.882359 1_555
Pr10 Pt0 2.882407 1_555
Pr11 Pt2 2.882353 1_555
Pr11 Pt3 2.882467 1_555
Br0 Pr7 3.126335 1_556
Br0 Pr9 3.126344 1_555
Br0 Pr10 3.221282 1_566
Br0 Pr3 3.221299 1_555
Br1 Pr11 3.126358 1_555
Br1 Pr3 3.126366 1_555
Br1 Pr7 3.221193 1_556
Br1 Pr8 3.221239 1_555
Br2 Pr4 3.126348 1_656
Br2 Pr10 3.126359 1_666
Br2 Pr9 3.221185 1_655
Br2 Pr6 3.221230 1_666
Br3 Pr2 3.126166 1_555
Br3 Pr9 3.126333 1_655
Br3 Pr8 3.220980 1_555
Br3 Pr5 3.221480 1_656
Br4 Pr11 3.126355 1_665
Br4 Pr5 3.126537 1_666
Br4 Pr2 3.221034 1_565
Br4 Pr10 3.221539 1_666
Br5 Pr8 3.126342 1_565
Br5 Pr6 3.126351 1_565
Br5 Pr4 3.221216 1_555
Br5 Pr11 3.221234 1_565
Br6 Pr1 3.126167 1_555
Br6 Pr8 3.126342 1_555
Br6 Pr9 3.220900 1_655
Br6 Pr0 3.221408 1_555
Br7 Pr10 3.126361 1_556
Br7 Pr0 3.126537 1_556
Br7 Pr1 3.221036 1_556
Br7 Pr11 3.221517 1_555
Br8 Pr2 3.126169 1_565
Br8 Pr7 3.126328 1_555
Br8 Pr6 3.220987 1_665
Br8 Pr0 3.221471 1_555
Br9 Pr1 3.126169 1_566
Br9 Pr6 3.126351 1_666
Br9 Pr7 3.220893 1_556
Br9 Pr5 3.221421 1_666
Br10 Pr3 3.126371 1_655
Br10 Pr5 3.126539 1_655
Br10 Pr1 3.221052 1_555
Br10 Pr4 3.221514 1_655
Br11 Pr4 3.126348 1_555
Br11 Pr0 3.126538 1_555
Br11 Pr2 3.221020 1_565
Br11 Pr3 3.221541 1_555
