# generated using pymatgen
data_Hg3(ClO5)2
_symmetry_space_group_name_H-M   'P 1'
_cell_length_a   9.64909098
_cell_length_b   9.64909098
_cell_length_c   11.48580405
_cell_angle_alpha   86.64743132
_cell_angle_beta   86.64743132
_cell_angle_gamma   31.17337011
_symmetry_Int_Tables_number   1
_chemical_formula_structural   Hg3(ClO5)2
_chemical_formula_sum   'Hg6 Cl4 O20'
_cell_volume   552.52412976
_cell_formula_units_Z   2
loop_
 _symmetry_equiv_pos_site_id
 _symmetry_equiv_pos_as_xyz
  1  'x, y, z'
loop_
 _atom_site_type_symbol
 _atom_site_label
 _atom_site_symmetry_multiplicity
 _atom_site_fract_x
 _atom_site_fract_y
 _atom_site_fract_z
 _atom_site_occupancy
  Hg  Hg0  1  0.08751300  0.05177600  0.98498100  1
  Hg  Hg1  1  0.94822400  0.91248700  0.51501900  1
  Hg  Hg2  1  0.91248700  0.94822400  0.01501900  1
  Hg  Hg3  1  0.05177600  0.08751300  0.48498100  1
  Hg  Hg4  1  0.00000000  0.50000000  0.00000000  1
  Hg  Hg5  1  0.50000000  0.00000000  0.50000000  1
  Cl  Cl0  1  0.55749000  0.69829900  0.22896000  1
  Cl  Cl1  1  0.30170100  0.44251000  0.27104000  1
  Cl  Cl2  1  0.44251000  0.30170100  0.77104000  1
  Cl  Cl3  1  0.69829900  0.55749000  0.72896000  1
  O  O0  1  0.78548100  0.84645500  0.03809000  1
  O  O1  1  0.15354500  0.21451900  0.46191000  1
  O  O2  1  0.21451900  0.15354500  0.96191000  1
  O  O3  1  0.84645500  0.78548100  0.53809000  1
  O  O4  1  0.70649000  0.69336900  0.25938700  1
  O  O5  1  0.30663100  0.29351000  0.24061300  1
  O  O6  1  0.29351000  0.30663100  0.74061300  1
  O  O7  1  0.69336900  0.70649000  0.75938700  1
  O  O8  1  0.27089500  0.97636500  0.22114300  1
  O  O9  1  0.02363500  0.72910500  0.27885700  1
  O  O10  1  0.72910500  0.02363500  0.77885700  1
  O  O11  1  0.97636500  0.27089500  0.72114300  1
  O  O12  1  0.59244700  0.55680100  0.31941100  1
  O  O13  1  0.44319900  0.40755300  0.18058900  1
  O  O14  1  0.40755300  0.44319900  0.68058900  1
  O  O15  1  0.55680100  0.59244700  0.81941100  1
  O  O16  1  0.65182400  0.57290600  0.11578900  1
  O  O17  1  0.42709400  0.34817600  0.38421100  1
  O  O18  1  0.34817600  0.42709400  0.88421100  1
  O  O19  1  0.57290600  0.65182400  0.61578900  1
loop_
_geom_bond_atom_site_label_1
_geom_bond_atom_site_label_2
_geom_bond_distance
_geom_bond_site_symmetry_2
Hg0 O2 2.127721 1_555
Hg1 O3 2.127721 1_555
Hg2 O0 2.127721 1_555
Hg3 O1 2.127721 1_555
Hg4 O0 1.968645 1_455
Hg4 O2 1.968645 1_554
Hg5 O3 1.968645 1_545
Hg5 O1 1.968645 1_555
Cl0 O4 1.459867 1_555
Cl0 O16 1.463921 1_555
Cl0 O12 1.464320 1_555
Cl0 O8 1.469166 1_555
Cl1 O5 1.459867 1_555
Cl1 O17 1.463921 1_555
Cl1 O13 1.464320 1_555
Cl1 O9 1.469166 1_555
Cl2 O6 1.459867 1_555
Cl2 O18 1.463921 1_555
Cl2 O14 1.464320 1_555
Cl2 O10 1.469166 1_555
Cl3 O7 1.459867 1_555
Cl3 O19 1.463921 1_555
Cl3 O15 1.464320 1_555
Cl3 O11 1.469166 1_555
