# generated using pymatgen
data_ScTeO3F
_symmetry_space_group_name_H-M   'P 1'
_cell_length_a   5.60661200
_cell_length_b   5.85008500
_cell_length_c   22.31977100
_cell_angle_alpha   90.00000000
_cell_angle_beta   90.00000000
_cell_angle_gamma   90.00000000
_symmetry_Int_Tables_number   1
_chemical_formula_structural   ScTeO3F
_chemical_formula_sum   'Sc8 Te8 O24 F8'
_cell_volume   732.06966792
_cell_formula_units_Z   8
loop_
 _symmetry_equiv_pos_site_id
 _symmetry_equiv_pos_as_xyz
  1  'x, y, z'
loop_
 _atom_site_type_symbol
 _atom_site_label
 _atom_site_symmetry_multiplicity
 _atom_site_fract_x
 _atom_site_fract_y
 _atom_site_fract_z
 _atom_site_occupancy
  Sc  Sc0  1  0.75000000  0.43173000  0.25000000  1
  Sc  Sc1  1  0.75000000  0.06827000  0.75000000  1
  Sc  Sc2  1  0.25000000  0.56827000  0.75000000  1
  Sc  Sc3  1  0.25000000  0.93173000  0.25000000  1
  Sc  Sc4  1  0.67419200  0.25000000  0.50000000  1
  Sc  Sc5  1  0.32580800  0.75000000  0.50000000  1
  Sc  Sc6  1  0.82580800  0.25000000  0.00000000  1
  Sc  Sc7  1  0.17419200  0.75000000  0.00000000  1
  Te  Te0  1  0.68959800  0.70855300  0.10715300  1
  Te  Te1  1  0.68959800  0.79144700  0.89284700  1
  Te  Te2  1  0.81040200  0.70855300  0.39284700  1
  Te  Te3  1  0.81040200  0.79144700  0.60715300  1
  Te  Te4  1  0.31040200  0.29144700  0.89284700  1
  Te  Te5  1  0.31040200  0.20855300  0.10715300  1
  Te  Te6  1  0.18959800  0.29144700  0.60715300  1
  Te  Te7  1  0.18959800  0.20855300  0.39284700  1
  O  O0  1  0.64359100  0.45669900  0.16105300  1
  O  O1  1  0.64359100  0.04330100  0.83894700  1
  O  O2  1  0.85640900  0.45669900  0.33894700  1
  O  O3  1  0.85640900  0.04330100  0.66105300  1
  O  O4  1  0.35640900  0.54330100  0.83894700  1
  O  O5  1  0.35640900  0.95669900  0.16105300  1
  O  O6  1  0.14359100  0.54330100  0.66105300  1
  O  O7  1  0.14359100  0.95669900  0.33894700  1
  O  O8  1  0.41952100  0.63131900  0.06066900  1
  O  O9  1  0.41952100  0.86868100  0.93933100  1
  O  O10  1  0.08047900  0.63131900  0.43933100  1
  O  O11  1  0.08047900  0.86868100  0.56066900  1
  O  O12  1  0.58047900  0.36868100  0.93933100  1
  O  O13  1  0.58047900  0.13131900  0.06066900  1
  O  O14  1  0.91952100  0.36868100  0.56066900  1
  O  O15  1  0.40251800  0.05679300  0.44968000  1
  O  O16  1  0.90251800  0.55679300  0.05032000  1
  O  O17  1  0.90251800  0.94320700  0.94968000  1
  O  O18  1  0.59748200  0.55679300  0.44968000  1
  O  O19  1  0.59748200  0.94320700  0.55032000  1
  O  O20  1  0.09748200  0.44320700  0.94968000  1
  O  O21  1  0.09748200  0.05679300  0.05032000  1
  O  O22  1  0.40251800  0.44320700  0.55032000  1
  O  O23  1  0.91952100  0.13131900  0.43933100  1
  F  F0  1  0.49768800  0.18953500  0.26938200  1
  F  F1  1  0.99768800  0.81046500  0.76938200  1
  F  F2  1  0.50231200  0.68953500  0.26938200  1
  F  F3  1  0.50231200  0.81046500  0.73061800  1
  F  F4  1  0.00231200  0.31046500  0.76938200  1
  F  F5  1  0.00231200  0.18953500  0.23061800  1
  F  F6  1  0.49768800  0.31046500  0.73061800  1
  F  F7  1  0.99768800  0.68953500  0.23061800  1
loop_
_geom_bond_atom_site_label_1
_geom_bond_atom_site_label_2
_geom_bond_distance
_geom_bond_site_symmetry_2
O0 Te0 1.919542 1_555
O0 Sc0 2.078120 1_555
O1 Te1 1.919542 1_545
O1 Sc1 2.078120 1_555
O2 Te2 1.919542 1_555
O2 Sc0 2.078120 1_555
O3 Te3 1.919542 1_545
O3 Sc1 2.078120 1_555
O4 Te4 1.919542 1_555
O4 Sc2 2.078120 1_555
O5 Te5 1.919542 1_565
O5 Sc3 2.078120 1_555
O6 Te6 1.919542 1_555
O6 Sc2 2.078120 1_555
O7 Te7 1.919542 1_565
O7 Sc3 2.078120 1_555
O8 Te0 1.890352 1_555
O8 Sc7 2.051239 1_555
O9 Te1 1.890352 1_555
O9 Sc7 2.051239 1_556
O10 Te2 1.890352 1_455
O10 Sc5 2.051239 1_555
O11 Te3 1.890352 1_455
O11 Sc5 2.051239 1_555
O12 Te4 1.890352 1_555
O12 Sc6 2.051239 1_556
O13 Te5 1.890352 1_555
O13 Sc6 2.051239 1_555
O14 Te6 1.890352 1_655
O14 Sc4 2.051239 1_555
O15 Te7 1.955085 1_555
O15 Sc5 2.160457 1_545
O15 Sc4 2.204314 1_555
O16 Te0 1.955085 1_555
O16 Sc6 2.160457 1_555
O16 Sc7 2.204314 1_655
O17 Te1 1.955085 1_555
O17 Sc6 2.160457 1_566
O17 Sc7 2.204314 1_656
O18 Te2 1.955085 1_555
O18 Sc4 2.160457 1_555
O18 Sc5 2.204314 1_555
O19 Te3 1.955085 1_555
O19 Sc4 2.160457 1_565
O19 Sc5 2.204314 1_555
O20 Te4 1.955085 1_555
O20 Sc7 2.160457 1_556
O20 Sc6 2.204314 1_456
O21 Te5 1.955085 1_555
O21 Sc7 2.160457 1_545
O21 Sc6 2.204314 1_455
O22 Te6 1.955085 1_555
O22 Sc5 2.160457 1_555
O22 Sc4 2.204314 1_555
O23 Te7 1.890352 1_655
O23 Sc4 2.051239 1_555
F0 Sc0 2.048360 1_555
F0 Sc3 2.095284 1_545
F1 Sc2 2.048360 1_655
F1 Sc1 2.095284 1_565
F2 Sc3 2.048360 1_555
F2 Sc0 2.095284 1_555
F3 Sc2 2.048360 1_555
F3 Sc1 2.095284 1_565
F4 Sc1 2.048360 1_455
F4 Sc2 2.095284 1_555
F5 Sc0 2.048360 1_455
F5 Sc3 2.095284 1_545
F6 Sc1 2.048360 1_555
F6 Sc2 2.095284 1_555
F7 Sc3 2.048360 1_655
F7 Sc0 2.095284 1_555
