# generated using pymatgen
data_Xe
_symmetry_space_group_name_H-M   'P 1'
_cell_length_a   4.54495842
_cell_length_b   4.54495842
_cell_length_c   11.31919470
_cell_angle_alpha   78.41840123
_cell_angle_beta   101.58159877
_cell_angle_gamma   119.99997707
_symmetry_Int_Tables_number   1
_chemical_formula_structural   Xe
_chemical_formula_sum   Xe3
_cell_volume   196.97497455
_cell_formula_units_Z   3
loop_
 _symmetry_equiv_pos_site_id
 _symmetry_equiv_pos_as_xyz
  1  'x, y, z'
loop_
 _atom_site_type_symbol
 _atom_site_label
 _atom_site_symmetry_multiplicity
 _atom_site_fract_x
 _atom_site_fract_y
 _atom_site_fract_z
 _atom_site_occupancy
  Xe  Xe0  1  0.00000000  0.00000000  0.00000000  1
  Xe  Xe1  1  0.77770300  0.22229700  0.33310800  1
  Xe  Xe2  1  0.22229700  0.77770300  0.66689200  1
loop_
_geom_bond_atom_site_label_1
_geom_bond_atom_site_label_2
_geom_bond_distance
_geom_bond_site_symmetry_2
