# generated using pymatgen
data_RbFeCl3
_symmetry_space_group_name_H-M   'P 1'
_cell_length_a   4.93010805
_cell_length_b   4.93013288
_cell_length_c   4.93012564
_cell_angle_alpha   90.00000000
_cell_angle_beta   90.00000000
_cell_angle_gamma   90.00000000
_symmetry_Int_Tables_number   1
_chemical_formula_structural   RbFeCl3
_chemical_formula_sum   'Rb1 Fe1 Cl3'
_cell_volume   119.83206667
_cell_formula_units_Z   1
loop_
 _symmetry_equiv_pos_site_id
 _symmetry_equiv_pos_as_xyz
  1  'x, y, z'
loop_
 _atom_site_type_symbol
 _atom_site_label
 _atom_site_symmetry_multiplicity
 _atom_site_fract_x
 _atom_site_fract_y
 _atom_site_fract_z
 _atom_site_occupancy
  Rb  Rb0  1  0.50000000  0.50000000  0.50000000  1
  Fe  Fe0  1  -0.00000000  0.00000000  -0.00000000  1
  Cl  Cl0  1  0.50000000  -0.00000000  -0.00000000  1
  Cl  Cl1  1  0.00000000  0.50000000  -0.00000000  1
  Cl  Cl2  1  -0.00000000  -0.00000000  0.50000000  1
loop_
_geom_bond_atom_site_label_1
_geom_bond_atom_site_label_2
_geom_bond_distance
_geom_bond_site_symmetry_2
Cl0 Fe0 2.465054 1_555
Cl0 Fe0 2.465054 1_655
Cl0 Rb0 3.486128 1_555
Cl0 Rb0 3.486128 1_554
Cl0 Rb0 3.486128 1_545
Cl0 Rb0 3.486128 1_544
Cl1 Fe0 2.465066 1_555
Cl1 Fe0 2.465066 1_565
Cl1 Rb0 3.486119 1_555
Cl1 Rb0 3.486119 1_554
Cl1 Rb0 3.486119 1_454
Cl1 Rb0 3.486119 1_455
Cl2 Fe0 2.465063 1_555
Cl2 Fe0 2.465063 1_556
Cl2 Rb0 3.486122 1_455
Cl2 Rb0 3.486122 1_555
Cl2 Rb0 3.486122 1_545
Cl2 Rb0 3.486122 1_445
