# generated using pymatgen
data_Zr2(TiGa)3
_symmetry_space_group_name_H-M   'P 1'
_cell_length_a   5.58267300
_cell_length_b   7.84072446
_cell_length_c   7.84072393
_cell_angle_alpha   59.96092385
_cell_angle_beta   90.00000000
_cell_angle_gamma   90.00000000
_symmetry_Int_Tables_number   1
_chemical_formula_structural   Zr2(TiGa)3
_chemical_formula_sum   'Zr4 Ti6 Ga6'
_cell_volume   297.10778760
_cell_formula_units_Z   2
loop_
 _symmetry_equiv_pos_site_id
 _symmetry_equiv_pos_as_xyz
  1  'x, y, z'
loop_
 _atom_site_type_symbol
 _atom_site_label
 _atom_site_symmetry_multiplicity
 _atom_site_fract_x
 _atom_site_fract_y
 _atom_site_fract_z
 _atom_site_occupancy
  Zr  Zr0  1  0.50000000  0.33335000  0.33333100  1
  Zr  Zr1  1  0.50000000  0.66666900  0.66665000  1
  Zr  Zr2  1  0.00000000  0.66665000  0.66666900  1
  Zr  Zr3  1  0.00000000  0.33333100  0.33335000  1
  Ti  Ti0  1  0.74999800  0.23425900  0.76574100  1
  Ti  Ti1  1  0.75000100  0.76532300  0.99994300  1
  Ti  Ti2  1  0.75000100  0.00005700  0.23467700  1
  Ti  Ti3  1  0.24999800  0.76574100  0.23425900  1
  Ti  Ti4  1  0.25000100  0.23467700  0.00005700  1
  Ti  Ti5  1  0.25000100  0.99994300  0.76532300  1
  Ga  Ga0  1  0.74999000  0.61644700  0.38355300  1
  Ga  Ga1  1  0.75000500  0.38357600  0.00010000  1
  Ga  Ga2  1  0.75000500  0.99990000  0.61642400  1
  Ga  Ga3  1  0.24999000  0.38355300  0.61644700  1
  Ga  Ga4  1  0.25000500  0.61642400  0.99990000  1
  Ga  Ga5  1  0.25000500  0.00010000  0.38357600  1
loop_
_geom_bond_atom_site_label_1
_geom_bond_atom_site_label_2
_geom_bond_distance
_geom_bond_site_symmetry_2
Zr0 Zr3 2.791337 1_655
Zr0 Zr3 2.791337 1_555
Zr1 Zr2 2.791337 1_555
Zr1 Zr2 2.791337 1_655
Ti0 Ti2 3.182949 1_556
Ti0 Ti1 3.182949 1_545
Ti0 Ti4 3.342579 1_556
Ti0 Ti5 3.342579 1_545
Ti0 Ti4 3.342607 1_656
Ti0 Ti5 3.342607 1_645
Ti0 Zr3 3.377652 1_655
Ti0 Zr2 3.377653 1_655
Ti0 Zr0 3.377735 1_555
Ti0 Zr1 3.377735 1_555
Ti1 Ti2 3.188440 1_566
Ti1 Ti5 3.342403 1_555
Ti1 Ti5 3.342403 1_655
Ti1 Ti3 3.342579 1_656
Ti1 Ti3 3.342607 1_556
Ti1 Zr0 3.374689 1_556
Ti1 Zr3 3.374816 1_656
Ti1 Zr2 3.376217 1_655
Ti1 Zr1 3.376262 1_555
Ti2 Ti4 3.342403 1_555
Ti2 Ti4 3.342403 1_655
Ti2 Ti3 3.342579 1_645
Ti2 Ti3 3.342607 1_545
Ti2 Zr1 3.374689 1_545
Ti2 Zr2 3.374816 1_645
Ti2 Zr3 3.376217 1_655
Ti2 Zr0 3.376263 1_555
Ti3 Ti5 3.182949 1_554
Ti3 Ti4 3.182949 1_565
Ti3 Zr1 3.377652 1_555
Ti3 Zr0 3.377653 1_555
Ti3 Zr2 3.377735 1_555
Ti3 Zr3 3.377735 1_555
Ti4 Ti5 3.188440 1_544
Ti4 Zr2 3.374689 1_554
Ti4 Zr1 3.374816 1_554
Ti4 Zr0 3.376217 1_555
Ti4 Zr3 3.376262 1_555
Ti5 Zr3 3.374689 1_565
Ti5 Zr0 3.374816 1_565
Ti5 Zr1 3.376217 1_555
Ti5 Zr2 3.376263 1_555
Ga0 Ti1 2.625682 1_554
Ga0 Ti2 2.625682 1_565
Ga0 Zr1 2.811564 1_555
Ga0 Zr0 2.811564 1_555
Ga0 Zr2 2.811667 1_655
Ga0 Zr3 2.811668 1_655
Ga0 Ti0 2.994861 1_555
Ga0 Ti3 3.026538 1_555
Ga0 Ti3 3.026621 1_655
Ga1 Ti2 2.624503 1_555
Ga1 Ti0 2.626992 1_554
Ga1 Zr2 2.810586 1_654
Ga1 Zr0 2.810602 1_555
Ga1 Zr3 2.810654 1_655
Ga1 Zr1 2.810742 1_554
Ga1 Ti1 2.992557 1_554
Ga1 Ti4 3.025695 1_655
Ga1 Ti4 3.025736 1_555
Ga2 Ti1 2.624502 1_555
Ga2 Ti0 2.626992 1_565
Ga2 Zr3 2.810586 1_665
Ga2 Zr1 2.810602 1_555
Ga2 Zr2 2.810654 1_655
Ga2 Zr0 2.810742 1_565
Ga2 Ti2 2.992557 1_565
Ga2 Ti5 3.025695 1_655
Ga2 Ti5 3.025736 1_555
Ga3 Ti4 2.625682 1_556
Ga3 Ti5 2.625682 1_545
Ga3 Zr3 2.811564 1_555
Ga3 Zr2 2.811564 1_555
Ga3 Zr0 2.811667 1_555
Ga3 Zr1 2.811668 1_555
Ga3 Ti3 2.994861 1_555
Ga3 Ti0 3.026538 1_455
Ga3 Ti0 3.026621 1_555
Ga4 Ti5 2.624503 1_555
Ga4 Ti3 2.626992 1_556
Ga4 Zr0 2.810586 1_556
Ga4 Zr2 2.810602 1_555
Ga4 Zr1 2.810654 1_555
Ga4 Zr3 2.810742 1_556
Ga4 Ti4 2.992557 1_556
Ga4 Ti1 3.025695 1_555
Ga4 Ti1 3.025736 1_455
Ga5 Ti4 2.624502 1_555
Ga5 Ti3 2.626992 1_545
Ga5 Zr1 2.810586 1_545
Ga5 Zr3 2.810602 1_555
Ga5 Zr0 2.810654 1_555
Ga5 Zr2 2.810742 1_545
Ga5 Ti5 2.992557 1_545
Ga5 Ti2 3.025695 1_555
Ga5 Ti2 3.025736 1_455
