# generated using pymatgen
data_Te2Mo3W(SeS2)2
_symmetry_space_group_name_H-M   'P 1'
_cell_length_a   3.30851472
_cell_length_b   3.30851472
_cell_length_c   37.62362300
_cell_angle_alpha   90.00000000
_cell_angle_beta   90.00000000
_cell_angle_gamma   120.00001433
_symmetry_Int_Tables_number   1
_chemical_formula_structural   Te2Mo3W(SeS2)2
_chemical_formula_sum   'Te2 Mo3 W1 Se2 S4'
_cell_volume   356.66239741
_cell_formula_units_Z   1
loop_
 _symmetry_equiv_pos_site_id
 _symmetry_equiv_pos_as_xyz
  1  'x, y, z'
loop_
 _atom_site_type_symbol
 _atom_site_label
 _atom_site_symmetry_multiplicity
 _atom_site_fract_x
 _atom_site_fract_y
 _atom_site_fract_z
 _atom_site_occupancy
  Te  Te0  1  0.33333300  0.66666700  0.33263200  1
  Te  Te1  1  0.33333300  0.66666700  0.23093800  1
  Mo  Mo0  1  0.33333300  0.66666700  0.09389700  1
  Mo  Mo1  1  0.33333300  0.66666700  0.46969100  1
  Mo  Mo2  1  0.66666700  0.33333300  0.28180500  1
  W  W0  1  0.66666700  0.33333300  0.65754300  1
  Se  Se0  1  0.33333300  0.66666700  0.70246200  1
  Se  Se1  1  0.33333300  0.66666700  0.61261000  1
  S  S0  1  0.66666700  0.33333300  0.05331700  1
  S  S1  1  0.66666700  0.33333300  0.42909500  1
  S  S2  1  0.66666700  0.33333300  0.13448700  1
  S  S3  1  0.66666700  0.33333300  0.51027000  1
loop_
_geom_bond_atom_site_label_1
_geom_bond_atom_site_label_2
_geom_bond_distance
_geom_bond_site_symmetry_2
Mo0 S0 2.445356 1_455
Mo0 S0 2.445356 1_565
Mo0 S0 2.445361 1_555
Mo0 S2 2.445591 1_455
Mo0 S2 2.445591 1_565
Mo0 S2 2.445595 1_555
Mo1 S3 2.445332 1_455
Mo1 S3 2.445332 1_565
Mo1 S3 2.445337 1_555
Mo1 S1 2.445732 1_455
Mo1 S1 2.445732 1_565
Mo1 S1 2.445736 1_555
Mo2 Te0 2.702892 1_545
Mo2 Te0 2.702892 1_655
Mo2 Te0 2.702896 1_555
Mo2 Te1 2.703957 1_545
Mo2 Te1 2.703957 1_655
Mo2 Te1 2.703961 1_555
Se0 W0 2.550471 1_455
Se0 W0 2.550471 1_565
Se0 W0 2.550475 1_555
Se1 W0 2.550820 1_455
Se1 W0 2.550820 1_565
Se1 W0 2.550824 1_555
