# generated using pymatgen
data_Zn3As2
_symmetry_space_group_name_H-M   'P 1'
_cell_length_a   10.18389304
_cell_length_b   10.18389304
_cell_length_c   10.18389304
_cell_angle_alpha   109.47122063
_cell_angle_beta   109.47122063
_cell_angle_gamma   109.47122063
_symmetry_Int_Tables_number   1
_chemical_formula_structural   Zn3As2
_chemical_formula_sum   'Zn24 As16'
_cell_volume   813.05438739
_cell_formula_units_Z   8
loop_
 _symmetry_equiv_pos_site_id
 _symmetry_equiv_pos_as_xyz
  1  'x, y, z'
loop_
 _atom_site_type_symbol
 _atom_site_label
 _atom_site_symmetry_multiplicity
 _atom_site_fract_x
 _atom_site_fract_y
 _atom_site_fract_z
 _atom_site_occupancy
  Zn  Zn0  1  0.47768310  0.22975916  0.46780221  1
  Zn  Zn1  1  0.23804305  0.27024084  0.74792395  1
  Zn  Zn2  1  0.02231690  0.49011810  0.75207605  1
  Zn  Zn3  1  0.26195695  0.00988190  0.03219779  1
  Zn  Zn4  1  0.22975916  0.46780221  0.47768310  1
  Zn  Zn5  1  0.27024084  0.74792395  0.23804305  1
  Zn  Zn6  1  0.49011810  0.75207605  0.02231690  1
  Zn  Zn7  1  0.00988190  0.03219779  0.26195695  1
  Zn  Zn8  1  0.46780221  0.47768310  0.22975916  1
  Zn  Zn9  1  0.74792395  0.23804305  0.27024084  1
  Zn  Zn10  1  0.75207605  0.02231690  0.49011810  1
  Zn  Zn11  1  0.03219779  0.26195695  0.00988190  1
  Zn  Zn12  1  0.52231690  0.77024084  0.53219779  1
  Zn  Zn13  1  0.76195695  0.72975916  0.25207605  1
  Zn  Zn14  1  0.97768310  0.50988190  0.24792395  1
  Zn  Zn15  1  0.73804305  0.99011810  0.96780221  1
  Zn  Zn16  1  0.77024084  0.53219779  0.52231690  1
  Zn  Zn17  1  0.72975916  0.25207605  0.76195695  1
  Zn  Zn18  1  0.50988190  0.24792395  0.97768310  1
  Zn  Zn19  1  0.99011810  0.96780221  0.73804305  1
  Zn  Zn20  1  0.53219779  0.52231690  0.77024084  1
  Zn  Zn21  1  0.25207605  0.76195695  0.72975916  1
  Zn  Zn22  1  0.24792395  0.97768310  0.50988190  1
  Zn  Zn23  1  0.96780221  0.73804305  0.99011810  1
  As  As0  1  0.50000000  0.00000000  0.50000000  1
  As  As1  1  0.50000000  0.50000000  0.00000000  1
  As  As2  1  0.00000000  0.50000000  0.50000000  1
  As  As3  1  0.00000000  0.00000000  0.00000000  1
  As  As4  1  0.75927673  0.25000000  0.00927673  1
  As  As5  1  0.74072327  0.75000000  0.49072327  1
  As  As6  1  0.25000000  0.00927673  0.75927673  1
  As  As7  1  0.75000000  0.49072327  0.74072327  1
  As  As8  1  0.00927673  0.75927673  0.25000000  1
  As  As9  1  0.49072327  0.74072327  0.75000000  1
  As  As10  1  0.24072327  0.75000000  0.99072327  1
  As  As11  1  0.25927673  0.25000000  0.50927673  1
  As  As12  1  0.75000000  0.99072327  0.24072327  1
  As  As13  1  0.25000000  0.50927673  0.25927673  1
  As  As14  1  0.99072327  0.24072327  0.75000000  1
  As  As15  1  0.50927673  0.25927673  0.25000000  1
loop_
_geom_bond_atom_site_label_1
_geom_bond_atom_site_label_2
_geom_bond_distance
_geom_bond_site_symmetry_2
As0 Zn17 2.539756 1_555
As0 Zn5 2.539756 1_545
As0 Zn12 2.539756 1_545
As0 Zn0 2.539756 1_555
As0 Zn22 2.539760 1_545
As0 Zn10 2.539760 1_555
As1 Zn1 2.539756 1_554
As1 Zn13 2.539756 1_555
As1 Zn20 2.539756 1_554
As1 Zn8 2.539756 1_555
As1 Zn18 2.539760 1_554
As1 Zn6 2.539760 1_555
As2 Zn21 2.539756 1_555
As2 Zn9 2.539756 1_455
As2 Zn16 2.539756 1_455
As2 Zn4 2.539756 1_555
As2 Zn14 2.539760 1_455
As2 Zn2 2.539760 1_555
As3 Zn15 2.539753 1_444
As3 Zn19 2.539753 1_444
As3 Zn23 2.539753 1_444
As3 Zn3 2.539753 1_555
As3 Zn7 2.539753 1_555
As3 Zn11 2.539753 1_555
As4 Zn18 2.443254 1_554
As4 Zn17 2.443264 1_554
As4 Zn14 2.458050 1_555
As4 Zn15 2.458055 1_544
As4 Zn11 2.739046 1_655
As4 Zn9 2.739050 1_555
As5 Zn19 2.443260 1_555
As5 Zn16 2.443264 1_555
As5 Zn12 2.458045 1_555
As5 Zn13 2.458045 1_555
As5 Zn8 2.739050 1_555
As5 Zn10 2.739054 1_565
As6 Zn22 2.443254 1_545
As6 Zn21 2.443264 1_545
As6 Zn18 2.458050 1_555
As6 Zn19 2.458055 1_445
As6 Zn3 2.739046 1_556
As6 Zn1 2.739050 1_555
As7 Zn23 2.443260 1_555
As7 Zn20 2.443264 1_555
As7 Zn16 2.458045 1_555
As7 Zn17 2.458045 1_555
As7 Zn0 2.739050 1_555
As7 Zn2 2.739054 1_655
As8 Zn14 2.443254 1_455
As8 Zn13 2.443264 1_455
As8 Zn22 2.458050 1_555
As8 Zn23 2.458055 1_454
As8 Zn7 2.739046 1_565
As8 Zn5 2.739050 1_555
As9 Zn15 2.443260 1_555
As9 Zn12 2.443264 1_555
As9 Zn20 2.458045 1_555
As9 Zn21 2.458045 1_555
As9 Zn4 2.739050 1_555
As9 Zn6 2.739054 1_556
As10 Zn6 2.443254 1_556
As10 Zn5 2.443264 1_556
As10 Zn2 2.458050 1_555
As10 Zn3 2.458055 1_566
As10 Zn23 2.739046 1_455
As10 Zn21 2.739050 1_555
As11 Zn7 2.443260 1_555
As11 Zn4 2.443264 1_555
As11 Zn0 2.458045 1_555
As11 Zn1 2.458045 1_555
As11 Zn20 2.739050 1_555
As11 Zn22 2.739054 1_545
As12 Zn10 2.443254 1_565
As12 Zn9 2.443264 1_565
As12 Zn6 2.458050 1_555
As12 Zn7 2.458055 1_665
As12 Zn15 2.739046 1_554
As12 Zn13 2.739050 1_555
As13 Zn11 2.443260 1_555
As13 Zn8 2.443264 1_555
As13 Zn4 2.458045 1_555
As13 Zn5 2.458045 1_555
As13 Zn12 2.739050 1_555
As13 Zn14 2.739054 1_455
As14 Zn2 2.443254 1_655
As14 Zn1 2.443264 1_655
As14 Zn10 2.458050 1_555
As14 Zn11 2.458055 1_656
As14 Zn19 2.739046 1_545
As14 Zn17 2.739050 1_555
As15 Zn3 2.443260 1_555
As15 Zn0 2.443264 1_555
As15 Zn8 2.458045 1_555
As15 Zn9 2.458045 1_555
As15 Zn16 2.739050 1_555
As15 Zn18 2.739054 1_554
