# generated using pymatgen
data_Lu5Ga3
_symmetry_space_group_name_H-M   'P 1'
_cell_length_a   8.33488801
_cell_length_b   8.33488801
_cell_length_c   6.29016001
_cell_angle_alpha   89.18434691
_cell_angle_beta   89.18434691
_cell_angle_gamma   119.89831087
_symmetry_Int_Tables_number   1
_chemical_formula_structural   Lu5Ga3
_chemical_formula_sum   'Lu10 Ga6'
_cell_volume   378.66958197
_cell_formula_units_Z   2
loop_
 _symmetry_equiv_pos_site_id
 _symmetry_equiv_pos_as_xyz
  1  'x, y, z'
loop_
 _atom_site_type_symbol
 _atom_site_label
 _atom_site_symmetry_multiplicity
 _atom_site_fract_x
 _atom_site_fract_y
 _atom_site_fract_z
 _atom_site_occupancy
  Lu  Lu0  1  0.50413799  0.74577896  0.26319724  1
  Lu  Lu1  1  0.49586201  0.25422104  0.73680276  1
  Lu  Lu2  1  0.25422104  0.49586201  0.73680276  1
  Lu  Lu3  1  0.74577896  0.50413799  0.26319724  1
  Lu  Lu4  1  0.26796112  0.26796112  0.22806693  1
  Lu  Lu5  1  0.73203888  0.73203888  0.77193307  1
  Lu  Lu6  1  0.85147234  0.14852766  0.50000000  1
  Lu  Lu7  1  0.14852766  0.85147234  0.50000000  1
  Lu  Lu8  1  0.81593543  0.18406457  -0.00000000  1
  Lu  Lu9  1  0.18406457  0.81593543  -0.00000000  1
  Ga  Ga0  1  0.50120259  0.09795261  0.28625499  1
  Ga  Ga1  1  0.49879741  0.90204739  0.71374501  1
  Ga  Ga2  1  0.90204739  0.49879741  0.71374501  1
  Ga  Ga3  1  0.09795261  0.50120259  0.28625499  1
  Ga  Ga4  1  0.90867496  0.90867496  0.18978615  1
  Ga  Ga5  1  0.09132504  0.09132504  0.81021385  1
loop_
_geom_bond_atom_site_label_1
_geom_bond_atom_site_label_2
_geom_bond_distance
_geom_bond_site_symmetry_2
Lu6 Lu8 3.186606 1_556
Lu6 Lu8 3.186606 1_555
Lu7 Lu9 3.186606 1_555
Lu7 Lu9 3.186606 1_556
Ga0 Lu7 2.908158 1_545
Ga0 Lu8 2.930953 1_555
Ga0 Lu4 2.944977 1_555
Ga0 Lu0 2.953202 1_545
Ga0 Lu3 2.955617 1_555
Ga0 Lu6 3.067507 1_555
Ga0 Ga1 3.120583 1_545
Ga0 Lu9 3.133089 1_545
Ga0 Lu1 3.144740 1_555
Ga0 Lu1 3.684749 1_554
Ga1 Lu6 2.908158 1_565
Ga1 Lu9 2.930953 1_556
Ga1 Lu5 2.944977 1_555
Ga1 Lu1 2.953202 1_565
Ga1 Lu2 2.955617 1_555
Ga1 Lu7 3.067507 1_555
Ga1 Lu8 3.133089 1_566
Ga1 Lu0 3.144740 1_555
Ga1 Lu0 3.684749 1_556
Ga2 Lu7 2.908158 1_655
Ga2 Lu8 2.930953 1_556
Ga2 Lu5 2.944977 1_555
Ga2 Lu2 2.953202 1_655
Ga2 Lu1 2.955617 1_555
Ga2 Lu6 3.067507 1_555
Ga2 Ga3 3.120583 1_655
Ga2 Lu9 3.133089 1_656
Ga2 Lu3 3.144740 1_555
Ga2 Lu3 3.684749 1_556
Ga3 Lu6 2.908158 1_455
Ga3 Lu9 2.930953 1_555
Ga3 Lu4 2.944977 1_555
Ga3 Lu3 2.953202 1_455
Ga3 Lu0 2.955617 1_555
Ga3 Lu7 3.067507 1_555
Ga3 Lu8 3.133089 1_455
Ga3 Lu2 3.144740 1_555
Ga3 Lu2 3.684749 1_554
Ga4 Ga5 2.796115 1_664
Ga4 Lu3 2.966387 1_555
Ga4 Lu0 2.966387 1_555
Ga4 Lu9 3.001374 1_655
Ga4 Lu8 3.001374 1_565
Ga4 Lu6 3.011020 1_565
Ga4 Lu7 3.011020 1_655
Ga4 Lu4 3.015677 1_665
Ga4 Lu5 3.050048 1_554
Ga5 Lu1 2.966387 1_555
Ga5 Lu2 2.966387 1_555
Ga5 Lu8 3.001374 1_456
Ga5 Lu9 3.001374 1_546
Ga5 Lu7 3.011020 1_545
Ga5 Lu6 3.011020 1_455
Ga5 Lu5 3.015677 1_445
Ga5 Lu4 3.050048 1_556
