# generated using pymatgen
data_Na3Sr3GaSb4
_symmetry_space_group_name_H-M   'P 1'
_cell_length_a   10.30882893
_cell_length_b   10.30882893
_cell_length_c   7.99553700
_cell_angle_alpha   90.00000000
_cell_angle_beta   90.00000000
_cell_angle_gamma   120.00000594
_symmetry_Int_Tables_number   1
_chemical_formula_structural   Na3Sr3GaSb4
_chemical_formula_sum   'Na6 Sr6 Ga2 Sb8'
_cell_volume   735.86290099
_cell_formula_units_Z   2
loop_
 _symmetry_equiv_pos_site_id
 _symmetry_equiv_pos_as_xyz
  1  'x, y, z'
loop_
 _atom_site_type_symbol
 _atom_site_label
 _atom_site_symmetry_multiplicity
 _atom_site_fract_x
 _atom_site_fract_y
 _atom_site_fract_z
 _atom_site_occupancy
  Na  Na0  1  0.85542000  0.71084000  0.95660700  1
  Na  Na1  1  0.85542000  0.14458000  0.95660700  1
  Na  Na2  1  0.14458000  0.28916000  0.45660700  1
  Na  Na3  1  0.28916000  0.14458000  0.95660700  1
  Na  Na4  1  0.14458000  0.85542000  0.45660700  1
  Na  Na5  1  0.71084000  0.85542000  0.45660700  1
  Sr  Sr0  1  0.48151400  0.96302700  0.78140900  1
  Sr  Sr1  1  0.48151400  0.51848600  0.78140900  1
  Sr  Sr2  1  0.51848600  0.03697300  0.28140900  1
  Sr  Sr3  1  0.03697300  0.51848600  0.78140900  1
  Sr  Sr4  1  0.51848600  0.48151400  0.28140900  1
  Sr  Sr5  1  0.96302700  0.48151400  0.28140900  1
  Ga  Ga0  1  0.66666700  0.33333300  0.64867100  1
  Ga  Ga1  1  0.33333300  0.66666700  0.14867100  1
  Sb  Sb0  1  0.66666700  0.33333300  0.00268800  1
  Sb  Sb1  1  0.33333300  0.66666700  0.50268800  1
  Sb  Sb2  1  0.81323000  0.62646100  0.55366500  1
  Sb  Sb3  1  0.81323000  0.18677000  0.55366500  1
  Sb  Sb4  1  0.18677000  0.37353900  0.05366500  1
  Sb  Sb5  1  0.37353900  0.18677000  0.55366500  1
  Sb  Sb6  1  0.18677000  0.81323000  0.05366500  1
  Sb  Sb7  1  0.62646100  0.81323000  0.05366500  1
loop_
_geom_bond_atom_site_label_1
_geom_bond_atom_site_label_2
_geom_bond_distance
_geom_bond_site_symmetry_2
Na0 Sb7 3.127092 1_556
Na0 Sb6 3.127102 1_656
Na0 Sb2 3.308636 1_555
Na0 Sb0 3.390351 1_556
Na1 Sb4 3.127099 1_656
Na1 Sb7 3.127099 1_546
Na1 Sb3 3.308638 1_555
Na1 Sb0 3.390343 1_556
Na2 Sb5 3.127092 1_555
Na2 Sb3 3.127102 1_455
Na2 Sb4 3.308636 1_555
Na2 Sb1 3.390351 1_555
Na3 Sb4 3.127092 1_556
Na3 Sb6 3.127102 1_546
Na3 Sb5 3.308636 1_555
Na3 Sb0 3.390351 1_556
Na4 Sb5 3.127099 1_565
Na4 Sb2 3.127099 1_455
Na4 Sb6 3.308638 1_555
Na4 Sb1 3.390343 1_555
Na5 Sb2 3.127092 1_555
Na5 Sb3 3.127102 1_565
Na5 Sb7 3.308636 1_555
Na5 Sb1 3.390351 1_555
Ga0 Sb3 2.724963 1_555
Ga0 Sb2 2.724979 1_555
Ga0 Sb5 2.724979 1_555
Ga0 Sb0 2.830556 1_556
Ga0 Sr3 3.472162 1_655
Ga0 Sr0 3.472162 1_545
Ga0 Sr1 3.472162 1_555
Ga1 Sb6 2.724963 1_555
Ga1 Sb7 2.724979 1_555
Ga1 Sb4 2.724979 1_555
Ga1 Sb1 2.830556 1_555
Ga1 Sr2 3.472162 1_565
Ga1 Sr5 3.472162 1_455
Ga1 Sr4 3.472162 1_555
Sb0 Sr5 3.459286 1_555
Sb0 Sr2 3.459286 1_555
Sb0 Sr4 3.459300 1_555
Sb0 Sr3 3.749634 1_654
Sb0 Sr0 3.749634 1_544
Sb0 Sr1 3.749634 1_554
Sb1 Sr3 3.459286 1_555
Sb1 Sr0 3.459286 1_555
Sb1 Sr1 3.459300 1_555
Sb1 Sr2 3.749634 1_565
Sb1 Sr5 3.749634 1_455
Sb1 Sr4 3.749634 1_555
Sb2 Sr4 3.415176 1_555
Sb2 Sr5 3.415177 1_555
Sb2 Sr1 3.527340 1_555
Sb2 Sr3 3.527357 1_655
Sb3 Sr5 3.415176 1_555
Sb3 Sr2 3.415176 1_555
Sb3 Sr3 3.527344 1_655
Sb3 Sr0 3.527344 1_545
Sb4 Sr1 3.415176 1_554
Sb4 Sr3 3.415177 1_554
Sb4 Sr4 3.527340 1_555
Sb4 Sr5 3.527357 1_455
Sb5 Sr4 3.415176 1_555
Sb5 Sr2 3.415177 1_555
Sb5 Sr1 3.527340 1_555
Sb5 Sr0 3.527357 1_545
Sb6 Sr0 3.415176 1_554
Sb6 Sr3 3.415176 1_554
Sb6 Sr2 3.527344 1_565
Sb6 Sr5 3.527344 1_455
Sb7 Sr1 3.415176 1_554
Sb7 Sr0 3.415177 1_554
Sb7 Sr4 3.527340 1_555
Sb7 Sr2 3.527357 1_565
