# generated using pymatgen
data_Sr5(IO6)2
_symmetry_space_group_name_H-M   'P 1'
_cell_length_a   20.02764501
_cell_length_b   20.02764501
_cell_length_c   20.02764578
_cell_angle_alpha   29.41711101
_cell_angle_beta   29.41711101
_cell_angle_gamma   29.41711307
_symmetry_Int_Tables_number   1
_chemical_formula_structural   Sr5(IO6)2
_chemical_formula_sum   'Sr30 I12 O72'
_cell_volume   1715.13211521
_cell_formula_units_Z   6
loop_
 _symmetry_equiv_pos_site_id
 _symmetry_equiv_pos_as_xyz
  1  'x, y, z'
loop_
 _atom_site_type_symbol
 _atom_site_label
 _atom_site_symmetry_multiplicity
 _atom_site_fract_x
 _atom_site_fract_y
 _atom_site_fract_z
 _atom_site_occupancy
  Sr  Sr0  1  0.31044900  0.98009800  0.65279300  1
  Sr  Sr1  1  0.65279300  0.31044900  0.98009800  1
  Sr  Sr2  1  0.98009800  0.65279300  0.31044900  1
  Sr  Sr3  1  0.15279300  0.48009800  0.81044900  1
  Sr  Sr4  1  0.81044900  0.15279300  0.48009800  1
  Sr  Sr5  1  0.48009800  0.81044900  0.15279300  1
  Sr  Sr6  1  0.68955100  0.01990200  0.34720700  1
  Sr  Sr7  1  0.34720700  0.68955100  0.01990200  1
  Sr  Sr8  1  0.01990200  0.34720700  0.68955100  1
  Sr  Sr9  1  0.84720700  0.51990200  0.18955100  1
  Sr  Sr10  1  0.18955100  0.84720700  0.51990200  1
  Sr  Sr11  1  0.51990200  0.18955100  0.84720700  1
  Sr  Sr12  1  0.10303900  0.76756300  0.48076800  1
  Sr  Sr13  1  0.48076800  0.10303900  0.76756300  1
  Sr  Sr14  1  0.76756300  0.48076800  0.10303900  1
  Sr  Sr15  1  0.98076800  0.26756300  0.60303900  1
  Sr  Sr16  1  0.60303900  0.98076800  0.26756300  1
  Sr  Sr17  1  0.26756300  0.60303900  0.98076800  1
  Sr  Sr18  1  0.89696100  0.23243700  0.51923200  1
  Sr  Sr19  1  0.51923200  0.89696100  0.23243700  1
  Sr  Sr20  1  0.23243700  0.51923200  0.89696100  1
  Sr  Sr21  1  0.01923200  0.73243700  0.39696100  1
  Sr  Sr22  1  0.39696100  0.01923200  0.73243700  1
  Sr  Sr23  1  0.73243700  0.39696100  0.01923200  1
  Sr  Sr24  1  0.39591100  0.39591100  0.39591100  1
  Sr  Sr25  1  0.89591100  0.89591100  0.89591100  1
  Sr  Sr26  1  0.60408900  0.60408900  0.60408900  1
  Sr  Sr27  1  0.10408900  0.10408900  0.10408900  1
  Sr  Sr28  1  0.25000000  0.25000000  0.25000000  1
  Sr  Sr29  1  0.75000000  0.75000000  0.75000000  1
  I  I0  1  0.92321200  0.57678800  0.25000000  1
  I  I1  1  0.25000000  0.92321200  0.57678800  1
  I  I2  1  0.57678800  0.25000000  0.92321200  1
  I  I3  1  0.75000000  0.07678800  0.42321200  1
  I  I4  1  0.42321200  0.75000000  0.07678800  1
  I  I5  1  0.07678800  0.42321200  0.75000000  1
  I  I6  1  0.33701900  0.33701900  0.33701900  1
  I  I7  1  0.83701900  0.83701900  0.83701900  1
  I  I8  1  0.66298100  0.66298100  0.66298100  1
  I  I9  1  0.16298100  0.16298100  0.16298100  1
  I  I10  1  0.50000000  0.50000000  0.50000000  1
  I  I11  1  0.00000000  0.00000000  0.00000000  1
  O  O0  1  0.27263700  0.07885300  0.47219800  1
  O  O1  1  0.47219800  0.27263700  0.07885300  1
  O  O2  1  0.07885300  0.47219800  0.27263700  1
  O  O3  1  0.97219800  0.57885300  0.77263700  1
  O  O4  1  0.77263700  0.97219800  0.57885300  1
  O  O5  1  0.57885300  0.77263700  0.97219800  1
  O  O6  1  0.72736300  0.92114700  0.52780200  1
  O  O7  1  0.52780200  0.72736300  0.92114700  1
  O  O8  1  0.92114700  0.52780200  0.72736300  1
  O  O9  1  0.02780200  0.42114700  0.22736300  1
  O  O10  1  0.22736300  0.02780200  0.42114700  1
  O  O11  1  0.42114700  0.22736300  0.02780200  1
  O  O12  1  0.50244200  0.31503100  0.62772700  1
  O  O13  1  0.62772700  0.50244200  0.31503100  1
  O  O14  1  0.31503100  0.62772700  0.50244200  1
  O  O15  1  0.12772700  0.81503100  0.00244200  1
  O  O16  1  0.00244200  0.12772700  0.81503100  1
  O  O17  1  0.81503100  0.00244200  0.12772700  1
  O  O18  1  0.49755800  0.68496900  0.37227300  1
  O  O19  1  0.37227300  0.49755800  0.68496900  1
  O  O20  1  0.68496900  0.37227300  0.49755800  1
  O  O21  1  0.87227300  0.18496900  0.99755800  1
  O  O22  1  0.99755800  0.87227300  0.18496900  1
  O  O23  1  0.18496900  0.99755800  0.87227300  1
  O  O24  1  0.17881900  0.28934100  0.49023900  1
  O  O25  1  0.49023900  0.17881900  0.28934100  1
  O  O26  1  0.28934100  0.49023900  0.17881900  1
  O  O27  1  0.99023900  0.78934100  0.67881900  1
  O  O28  1  0.67881900  0.99023900  0.78934100  1
  O  O29  1  0.78934100  0.67881900  0.99023900  1
  O  O30  1  0.82118100  0.71065900  0.50976100  1
  O  O31  1  0.50976100  0.82118100  0.71065900  1
  O  O32  1  0.71065900  0.50976100  0.82118100  1
  O  O33  1  0.00976100  0.21065900  0.32118100  1
  O  O34  1  0.32118100  0.00976100  0.21065900  1
  O  O35  1  0.21065900  0.32118100  0.00976100  1
  O  O36  1  0.18846200  0.49046100  0.39106200  1
  O  O37  1  0.39106200  0.18846200  0.49046100  1
  O  O38  1  0.49046100  0.39106200  0.18846200  1
  O  O39  1  0.89106200  0.99046100  0.68846200  1
  O  O40  1  0.68846200  0.89106200  0.99046100  1
  O  O41  1  0.99046100  0.68846200  0.89106200  1
  O  O42  1  0.81153800  0.50953900  0.60893800  1
  O  O43  1  0.60893800  0.81153800  0.50953900  1
  O  O44  1  0.50953900  0.60893800  0.81153800  1
  O  O45  1  0.10893800  0.00953900  0.31153800  1
  O  O46  1  0.31153800  0.10893800  0.00953900  1
  O  O47  1  0.00953900  0.31153800  0.10893800  1
  O  O48  1  0.18832700  0.27978000  0.71071600  1
  O  O49  1  0.71071600  0.18832700  0.27978000  1
  O  O50  1  0.27978000  0.71071600  0.18832700  1
  O  O51  1  0.21071600  0.77978000  0.68832700  1
  O  O52  1  0.68832700  0.21071600  0.77978000  1
  O  O53  1  0.77978000  0.68832700  0.21071600  1
  O  O54  1  0.81167300  0.72022000  0.28928400  1
  O  O55  1  0.28928400  0.81167300  0.72022000  1
  O  O56  1  0.72022000  0.28928400  0.81167300  1
  O  O57  1  0.78928400  0.22022000  0.31167300  1
  O  O58  1  0.31167300  0.78928400  0.22022000  1
  O  O59  1  0.22022000  0.31167300  0.78928400  1
  O  O60  1  0.16809700  0.54892500  0.53355600  1
  O  O61  1  0.53355600  0.16809700  0.54892500  1
  O  O62  1  0.54892500  0.53355600  0.16809700  1
  O  O63  1  0.03355600  0.04892500  0.66809700  1
  O  O64  1  0.66809700  0.03355600  0.04892500  1
  O  O65  1  0.04892500  0.66809700  0.03355600  1
  O  O66  1  0.83190300  0.45107500  0.46644400  1
  O  O67  1  0.46644400  0.83190300  0.45107500  1
  O  O68  1  0.45107500  0.46644400  0.83190300  1
  O  O69  1  0.96644400  0.95107500  0.33190300  1
  O  O70  1  0.33190300  0.96644400  0.95107500  1
  O  O71  1  0.95107500  0.33190300  0.96644400  1
loop_
_geom_bond_atom_site_label_1
_geom_bond_atom_site_label_2
_geom_bond_distance
_geom_bond_site_symmetry_2
I0 O53 1.886057 1_555
I0 O54 1.886057 1_555
I0 O66 1.916083 1_555
I0 O65 1.916083 1_655
I0 O2 1.934466 1_655
I0 O9 1.934466 1_655
I1 O51 1.886057 1_555
I1 O55 1.886057 1_555
I1 O67 1.916083 1_555
I1 O63 1.916083 1_565
I1 O0 1.934466 1_565
I1 O10 1.934466 1_565
I2 O56 1.886057 1_555
I2 O52 1.886057 1_555
I2 O64 1.916083 1_556
I2 O68 1.916083 1_555
I2 O11 1.934466 1_556
I2 O1 1.934466 1_556
I3 O57 1.886057 1_555
I3 O49 1.886057 1_555
I3 O61 1.916083 1_555
I3 O69 1.916083 1_545
I3 O6 1.934466 1_545
I3 O4 1.934466 1_545
I4 O50 1.886057 1_555
I4 O58 1.886057 1_555
I4 O70 1.916083 1_554
I4 O62 1.916083 1_555
I4 O5 1.934466 1_554
I4 O7 1.934466 1_554
I5 O48 1.886057 1_555
I5 O59 1.886057 1_555
I5 O60 1.916083 1_555
I5 O71 1.916083 1_455
I5 O3 1.934466 1_455
I5 O8 1.934466 1_455
I6 O24 1.895990 1_555
I6 O25 1.895990 1_555
I6 O26 1.895990 1_555
I6 O38 1.929573 1_555
I6 O36 1.929573 1_555
I6 O37 1.929573 1_555
I7 O29 1.895990 1_555
I7 O28 1.895990 1_555
I7 O27 1.895990 1_555
I7 O39 1.929573 1_555
I7 O41 1.929573 1_555
I7 O40 1.929573 1_555
I8 O30 1.895990 1_555
I8 O31 1.895990 1_555
I8 O32 1.895990 1_555
I8 O44 1.929573 1_555
I8 O42 1.929573 1_555
I8 O43 1.929573 1_555
I9 O35 1.895990 1_555
I9 O34 1.895990 1_555
I9 O33 1.895990 1_555
I9 O45 1.929573 1_555
I9 O47 1.929573 1_555
I9 O46 1.929573 1_555
I10 O18 1.913798 1_555
I10 O12 1.913798 1_555
I10 O20 1.913799 1_555
I10 O14 1.913799 1_555
I10 O19 1.913799 1_555
I10 O13 1.913799 1_555
I11 O23 1.913798 1_544
I11 O17 1.913798 1_455
I11 O21 1.913799 1_454
I11 O15 1.913799 1_545
I11 O22 1.913799 1_445
I11 O16 1.913799 1_554
O0 Sr28 2.447815 1_555
O0 Sr0 2.695752 1_545
O0 Sr15 2.720348 1_455
O0 Sr16 2.928563 1_545
O1 Sr28 2.447815 1_555
O1 Sr1 2.695752 1_554
O1 Sr16 2.720348 1_545
O1 Sr17 2.928563 1_554
O2 Sr28 2.447815 1_555
O2 Sr2 2.695752 1_455
O2 Sr17 2.720348 1_554
O2 Sr15 2.928563 1_455
O3 Sr29 2.447815 1_555
O3 Sr3 2.695752 1_655
O3 Sr12 2.720348 1_655
O3 Sr14 2.928563 1_556
O4 Sr29 2.447815 1_555
O4 Sr4 2.695752 1_565
O4 Sr13 2.720348 1_565
O4 Sr12 2.928563 1_655
O5 Sr29 2.447815 1_555
O5 Sr5 2.695752 1_556
O5 Sr14 2.720348 1_556
O5 Sr13 2.928563 1_565
O6 Sr29 2.447815 1_555
O6 Sr6 2.695752 1_565
O6 Sr21 2.720348 1_655
O6 Sr22 2.928563 1_565
O7 Sr29 2.447815 1_555
O7 Sr7 2.695752 1_556
O7 Sr22 2.720348 1_565
O7 Sr23 2.928563 1_556
O8 Sr29 2.447815 1_555
O8 Sr8 2.695752 1_655
O8 Sr23 2.720348 1_556
O8 Sr21 2.928563 1_655
O9 Sr28 2.447815 1_555
O9 Sr9 2.695752 1_455
O9 Sr18 2.720348 1_455
O9 Sr20 2.928563 1_554
O10 Sr28 2.447815 1_555
O10 Sr10 2.695752 1_545
O10 Sr19 2.720348 1_545
O10 Sr18 2.928563 1_455
O11 Sr28 2.447815 1_555
O11 Sr11 2.695752 1_554
O11 Sr20 2.720348 1_554
O11 Sr19 2.928563 1_545
O12 Sr13 2.536878 1_555
O12 Sr4 2.719510 1_555
O12 Sr11 2.768008 1_555
O12 Sr3 3.075623 1_555
O13 Sr14 2.536878 1_555
O13 Sr5 2.719510 1_555
O13 Sr9 2.768008 1_555
O13 Sr4 3.075623 1_555
O14 Sr12 2.536878 1_555
O14 Sr3 2.719509 1_555
O14 Sr10 2.768008 1_555
O14 Sr5 3.075623 1_555
O15 Sr17 2.536878 1_554
O15 Sr2 2.719509 1_455
O15 Sr7 2.768008 1_555
O15 Sr0 3.075623 1_554
O16 Sr15 2.536878 1_455
O16 Sr0 2.719510 1_545
O16 Sr8 2.768008 1_555
O16 Sr1 3.075623 1_455
O17 Sr16 2.536878 1_545
O17 Sr1 2.719510 1_554
O17 Sr6 2.768008 1_555
O17 Sr2 3.075623 1_545
O18 Sr19 2.536878 1_555
O18 Sr10 2.719510 1_555
O18 Sr5 2.768008 1_555
O18 Sr9 3.075623 1_555
O19 Sr20 2.536878 1_555
O19 Sr11 2.719510 1_555
O19 Sr3 2.768008 1_555
O19 Sr10 3.075623 1_555
O20 Sr18 2.536878 1_555
O20 Sr9 2.719509 1_555
O20 Sr4 2.768008 1_555
O20 Sr11 3.075623 1_555
O21 Sr23 2.536878 1_556
O21 Sr8 2.719509 1_655
O21 Sr1 2.768008 1_555
O21 Sr6 3.075623 1_556
O22 Sr21 2.536878 1_655
O22 Sr6 2.719510 1_565
O22 Sr2 2.768008 1_555
O22 Sr7 3.075623 1_655
O23 Sr22 2.536878 1_565
O23 Sr7 2.719510 1_556
O23 Sr0 2.768008 1_555
O23 Sr8 3.075623 1_565
O24 Sr15 2.591024 1_455
O24 Sr8 2.628137 1_555
O24 Sr0 2.699529 1_545
O25 Sr16 2.591024 1_545
O25 Sr6 2.628137 1_555
O25 Sr1 2.699529 1_554
O26 Sr17 2.591024 1_554
O26 Sr7 2.628137 1_555
O26 Sr2 2.699529 1_455
O27 Sr12 2.591024 1_655
O27 Sr10 2.628137 1_655
O27 Sr3 2.699529 1_655
O28 Sr13 2.591024 1_565
O28 Sr11 2.628137 1_565
O28 Sr4 2.699529 1_565
O29 Sr14 2.591024 1_556
O29 Sr9 2.628137 1_556
O29 Sr5 2.699529 1_556
O30 Sr21 2.591024 1_655
O30 Sr2 2.628137 1_555
O30 Sr6 2.699529 1_565
O31 Sr22 2.591024 1_565
O31 Sr0 2.628137 1_555
O31 Sr7 2.699529 1_556
O32 Sr23 2.591024 1_556
O32 Sr1 2.628137 1_555
O32 Sr8 2.699529 1_655
O33 Sr18 2.591024 1_455
O33 Sr4 2.628137 1_455
O33 Sr9 2.699529 1_455
O34 Sr19 2.591024 1_545
O34 Sr5 2.628137 1_545
O34 Sr10 2.699529 1_545
O35 Sr20 2.591024 1_554
O35 Sr3 2.628137 1_554
O35 Sr11 2.699529 1_554
O36 Sr21 2.583013 1_555
O36 Sr8 2.683349 1_555
O36 Sr24 2.744685 1_555
O37 Sr22 2.583013 1_555
O37 Sr6 2.683349 1_555
O37 Sr24 2.744685 1_555
O38 Sr23 2.583013 1_555
O38 Sr7 2.683349 1_555
O38 Sr24 2.744685 1_555
O39 Sr18 2.583013 1_565
O39 Sr10 2.683349 1_655
O39 Sr25 2.744685 1_555
O40 Sr19 2.583013 1_556
O40 Sr11 2.683349 1_565
O40 Sr25 2.744685 1_555
O41 Sr20 2.583013 1_655
O41 Sr9 2.683349 1_556
O41 Sr25 2.744685 1_555
O42 Sr15 2.583013 1_555
O42 Sr2 2.683349 1_555
O42 Sr26 2.744685 1_555
O43 Sr16 2.583013 1_555
O43 Sr0 2.683349 1_555
O43 Sr26 2.744685 1_555
O44 Sr17 2.583013 1_555
O44 Sr1 2.683349 1_555
O44 Sr26 2.744685 1_555
O45 Sr12 2.583013 1_545
O45 Sr4 2.683349 1_455
O45 Sr27 2.744685 1_555
O46 Sr13 2.583013 1_554
O46 Sr5 2.683349 1_545
O46 Sr27 2.744685 1_555
O47 Sr14 2.583013 1_455
O47 Sr3 2.683349 1_554
O47 Sr27 2.744685 1_555
O48 Sr22 2.470778 1_555
O48 Sr8 2.634302 1_555
O48 Sr24 2.842330 1_555
O49 Sr23 2.470778 1_555
O49 Sr6 2.634302 1_555
O49 Sr24 2.842330 1_555
O50 Sr21 2.470778 1_555
O50 Sr7 2.634302 1_555
O50 Sr24 2.842330 1_555
O51 Sr20 2.470778 1_555
O51 Sr10 2.634302 1_555
O51 Sr25 2.842330 1_455
O52 Sr18 2.470778 1_555
O52 Sr11 2.634302 1_555
O52 Sr25 2.842330 1_545
O53 Sr19 2.470778 1_555
O53 Sr9 2.634302 1_555
O53 Sr25 2.842330 1_554
O54 Sr16 2.470778 1_555
O54 Sr2 2.634302 1_555
O54 Sr26 2.842330 1_555
O55 Sr17 2.470778 1_555
O55 Sr0 2.634302 1_555
O55 Sr26 2.842330 1_555
O56 Sr15 2.470778 1_555
O56 Sr1 2.634302 1_555
O56 Sr26 2.842330 1_555
O57 Sr14 2.470778 1_555
O57 Sr4 2.634302 1_555
O57 Sr27 2.842330 1_655
O58 Sr12 2.470778 1_555
O58 Sr5 2.634302 1_555
O58 Sr27 2.842330 1_565
O59 Sr13 2.470778 1_555
O59 Sr3 2.634302 1_555
O59 Sr27 2.842330 1_556
O60 Sr24 2.500916 1_555
O60 Sr12 2.526780 1_555
O60 Sr21 2.735683 1_555
O61 Sr24 2.500916 1_555
O61 Sr13 2.526780 1_555
O61 Sr22 2.735682 1_555
O62 Sr24 2.500915 1_555
O62 Sr14 2.526780 1_555
O62 Sr23 2.735683 1_555
O63 Sr25 2.500915 1_445
O63 Sr15 2.526780 1_455
O63 Sr18 2.735683 1_455
O64 Sr25 2.500916 1_544
O64 Sr16 2.526780 1_545
O64 Sr19 2.735682 1_545
O65 Sr25 2.500916 1_454
O65 Sr17 2.526780 1_554
O65 Sr20 2.735683 1_554
O66 Sr26 2.500916 1_555
O66 Sr18 2.526780 1_555
O66 Sr15 2.735683 1_555
O67 Sr26 2.500916 1_555
O67 Sr19 2.526780 1_555
O67 Sr16 2.735682 1_555
O68 Sr26 2.500915 1_555
O68 Sr20 2.526780 1_555
O68 Sr17 2.735683 1_555
O69 Sr27 2.500915 1_665
O69 Sr21 2.526780 1_655
O69 Sr12 2.735683 1_655
O70 Sr27 2.500916 1_566
O70 Sr22 2.526780 1_565
O70 Sr13 2.735682 1_565
O71 Sr27 2.500916 1_656
O71 Sr23 2.526780 1_556
O71 Sr14 2.735683 1_556
