# generated using pymatgen
data_CoH9C4(NO2)3
_symmetry_space_group_name_H-M   'P 1'
_cell_length_a   8.54140400
_cell_length_b   11.92446400
_cell_length_c   8.96512500
_cell_angle_alpha   90.00000000
_cell_angle_beta   90.00000000
_cell_angle_gamma   90.00000000
_symmetry_Int_Tables_number   1
_chemical_formula_structural   CoH9C4(NO2)3
_chemical_formula_sum   'Co4 H36 C16 N12 O24'
_cell_volume   913.11290377
_cell_formula_units_Z   4
loop_
 _symmetry_equiv_pos_site_id
 _symmetry_equiv_pos_as_xyz
  1  'x, y, z'
loop_
 _atom_site_type_symbol
 _atom_site_label
 _atom_site_symmetry_multiplicity
 _atom_site_fract_x
 _atom_site_fract_y
 _atom_site_fract_z
 _atom_site_occupancy
  Co  Co0  1  0.25038100  0.75000000  0.25000000  1
  Co  Co1  1  0.24961900  0.25000000  0.25000000  1
  Co  Co2  1  0.74961900  0.25000000  0.75000000  1
  Co  Co3  1  0.75038100  0.75000000  0.75000000  1
  H  H0  1  0.25000000  0.50000000  0.17693100  1
  H  H1  1  0.25000000  0.00000000  0.32306900  1
  H  H2  1  0.75000000  0.50000000  0.82306900  1
  H  H3  1  0.75000000  0.00000000  0.67693100  1
  H  H4  1  0.59208300  0.71294000  0.42798700  1
  H  H5  1  0.90791700  0.28706000  0.42798700  1
  H  H6  1  0.59208300  0.78706000  0.07201300  1
  H  H7  1  0.90791700  0.21294000  0.07201300  1
  H  H8  1  0.40791700  0.28706000  0.57201300  1
  H  H9  1  0.09208300  0.71294000  0.57201300  1
  H  H10  1  0.40791700  0.21294000  0.92798700  1
  H  H11  1  0.09208300  0.78706000  0.92798700  1
  H  H12  1  0.33146600  0.57726000  0.56910100  1
  H  H13  1  0.16853400  0.42274000  0.56910100  1
  H  H14  1  0.33146600  0.92274000  0.93089900  1
  H  H15  1  0.16853400  0.07726000  0.93089900  1
  H  H16  1  0.66853400  0.42274000  0.43089900  1
  H  H17  1  0.83146600  0.57726000  0.43089900  1
  H  H18  1  0.66853400  0.07726000  0.06910100  1
  H  H19  1  0.83146600  0.92274000  0.06910100  1
  H  H20  1  0.41429800  0.62397100  0.74147400  1
  H  H21  1  0.08570200  0.37602900  0.74147400  1
  H  H22  1  0.41429800  0.87602900  0.75852600  1
  H  H23  1  0.08570200  0.12397100  0.75852600  1
  H  H24  1  0.58570200  0.37602900  0.25852600  1
  H  H25  1  0.91429800  0.62397100  0.25852600  1
  H  H26  1  0.58570200  0.12397100  0.24147400  1
  H  H27  1  0.91429800  0.87602900  0.24147400  1
  H  H28  1  0.31387000  0.55888200  0.96351300  1
  H  H29  1  0.18613000  0.44111800  0.96351300  1
  H  H30  1  0.31387000  0.94111800  0.53648700  1
  H  H31  1  0.18613000  0.05888200  0.53648700  1
  H  H32  1  0.68613000  0.44111800  0.03648700  1
  H  H33  1  0.81387000  0.55888200  0.03648700  1
  H  H34  1  0.68613000  0.05888200  0.46351300  1
  H  H35  1  0.81387000  0.94111800  0.46351300  1
  C  C0  1  0.25000000  0.50000000  0.29963300  1
  C  C1  1  0.25000000  0.00000000  0.20036700  1
  C  C2  1  0.75000000  0.50000000  0.70036700  1
  C  C3  1  0.75000000  0.00000000  0.79963300  1
  C  C4  1  0.51918200  0.77636900  0.48613800  1
  C  C5  1  0.98081800  0.22363100  0.48613800  1
  C  C6  1  0.51918200  0.72363100  0.01386200  1
  C  C7  1  0.98081800  0.27636900  0.01386200  1
  C  C8  1  0.48081800  0.22363100  0.51386200  1
  C  C9  1  0.01918200  0.77636900  0.51386200  1
  C  C10  1  0.48081800  0.27636900  0.98613800  1
  C  C11  1  0.01918200  0.72363100  0.98613800  1
  C  C12  1  0.25000000  0.50000000  0.75757700  1
  C  C13  1  0.25000000  0.00000000  0.74242300  1
  C  C14  1  0.75000000  0.50000000  0.24242300  1
  C  C15  1  0.75000000  0.00000000  0.25757700  1
  N  N0  1  0.33996100  0.57292300  0.68289100  1
  N  N1  1  0.16003900  0.42707700  0.68289100  1
  N  N2  1  0.33996100  0.92707700  0.81710900  1
  N  N3  1  0.16003900  0.07292300  0.81710900  1
  N  N4  1  0.66003900  0.42707700  0.31710900  1
  N  N5  1  0.83996100  0.57292300  0.31710900  1
  N  N6  1  0.66003900  0.07292300  0.18289100  1
  N  N7  1  0.83996100  0.92707700  0.18289100  1
  N  N8  1  0.25000000  0.50000000  0.90629600  1
  N  N9  1  0.25000000  0.00000000  0.59370400  1
  N  N10  1  0.75000000  0.50000000  0.09370400  1
  N  N11  1  0.75000000  0.00000000  0.40629600  1
  O  O0  1  0.25725000  0.59400000  0.36618600  1
  O  O1  1  0.24275000  0.40600000  0.36618600  1
  O  O2  1  0.25725000  0.90600000  0.13381400  1
  O  O3  1  0.24275000  0.09400000  0.13381400  1
  O  O4  1  0.74275000  0.40600000  0.63381400  1
  O  O5  1  0.75725000  0.59400000  0.63381400  1
  O  O6  1  0.74275000  0.09400000  0.86618600  1
  O  O7  1  0.75725000  0.90600000  0.86618600  1
  O  O8  1  0.39821200  0.81402200  0.42073900  1
  O  O9  1  0.10178800  0.18597800  0.42073900  1
  O  O10  1  0.39821200  0.68597800  0.07926100  1
  O  O11  1  0.10178800  0.31402200  0.07926100  1
  O  O12  1  0.60178800  0.18597800  0.57926100  1
  O  O13  1  0.89821200  0.81402200  0.57926100  1
  O  O14  1  0.60178800  0.31402200  0.92073900  1
  O  O15  1  0.89821200  0.68597800  0.92073900  1
  O  O16  1  0.56096100  0.80722900  0.61583100  1
  O  O17  1  0.93903900  0.19277100  0.61583100  1
  O  O18  1  0.56096100  0.69277100  0.88416900  1
  O  O19  1  0.93903900  0.30722900  0.88416900  1
  O  O20  1  0.43903900  0.19277100  0.38416900  1
  O  O21  1  0.06096100  0.80722900  0.38416900  1
  O  O22  1  0.43903900  0.30722900  0.11583100  1
  O  O23  1  0.06096100  0.69277100  0.11583100  1
loop_
_geom_bond_atom_site_label_1
_geom_bond_atom_site_label_2
_geom_bond_distance
_geom_bond_site_symmetry_2
Co0 O10 2.126082 1_555
Co0 O8 2.126082 1_555
Co0 O21 2.128421 1_555
Co0 O23 2.128421 1_555
Co0 O2 2.132797 1_555
Co0 O0 2.132797 1_555
Co1 O9 2.126082 1_555
Co1 O11 2.126082 1_555
Co1 O22 2.128421 1_555
Co1 O20 2.128421 1_555
Co1 O3 2.132797 1_555
Co1 O1 2.132797 1_555
Co2 O14 2.126082 1_555
Co2 O12 2.126082 1_555
Co2 O19 2.128421 1_555
Co2 O17 2.128421 1_555
Co2 O6 2.132797 1_555
Co2 O4 2.132797 1_555
Co3 O15 2.126082 1_555
Co3 O13 2.126082 1_555
Co3 O18 2.128421 1_555
Co3 O16 2.128421 1_555
Co3 O5 2.132797 1_555
Co3 O7 2.132797 1_555
H12 N0 1.024026 1_555
H13 N1 1.024026 1_555
H14 N2 1.024026 1_555
H15 N3 1.024026 1_555
H16 N4 1.024026 1_555
H17 N5 1.024026 1_555
H18 N6 1.024026 1_555
H19 N7 1.024026 1_555
H20 N0 1.024466 1_555
H21 N1 1.024466 1_555
H22 N2 1.024466 1_555
H23 N3 1.024466 1_555
H24 N4 1.024466 1_555
H25 N5 1.024466 1_555
H26 N6 1.024466 1_555
H27 N7 1.024466 1_555
H28 N8 1.026516 1_555
H29 N8 1.026516 1_555
H30 N9 1.026516 1_565
H31 N9 1.026516 1_555
H32 N10 1.026516 1_555
H33 N10 1.026516 1_555
H34 N11 1.026516 1_555
H35 N11 1.026516 1_565
C0 H0 1.100039 1_555
C0 O1 1.271318 1_555
C0 O0 1.271318 1_555
C1 H1 1.100039 1_555
C1 O2 1.271318 1_545
C1 O3 1.271318 1_555
C2 H2 1.100039 1_555
C2 O5 1.271318 1_555
C2 O4 1.271318 1_555
C3 H3 1.100039 1_555
C3 O6 1.271318 1_555
C3 O7 1.271318 1_545
C4 H4 1.109769 1_555
C4 O8 1.270026 1_555
C4 O16 1.270694 1_555
C5 H5 1.109769 1_555
C5 O9 1.270026 1_655
C5 O17 1.270694 1_555
C6 H6 1.109769 1_555
C6 O10 1.270026 1_555
C6 O18 1.270694 1_554
C7 H7 1.109769 1_555
C7 O11 1.270026 1_655
C7 O19 1.270694 1_554
C8 H8 1.109769 1_555
C8 O12 1.270026 1_555
C8 O20 1.270694 1_555
C9 H9 1.109769 1_555
C9 O13 1.270026 1_455
C9 O21 1.270694 1_555
C10 H10 1.109769 1_555
C10 O14 1.270026 1_555
C10 O22 1.270694 1_556
C11 H11 1.109769 1_555
C11 O15 1.270026 1_455
C11 O23 1.270694 1_556
C12 N8 1.333284 1_555
C12 N0 1.339738 1_555
C12 N1 1.339738 1_555
C13 N9 1.333284 1_555
C13 N2 1.339738 1_545
C13 N3 1.339738 1_555
C14 N10 1.333284 1_555
C14 N5 1.339738 1_555
C14 N4 1.339738 1_555
C15 N11 1.333284 1_555
C15 N7 1.339738 1_545
C15 N6 1.339738 1_555
