# generated using pymatgen
data_CaYbAl4
_symmetry_space_group_name_H-M   'P 1'
_cell_length_a   5.54653137
_cell_length_b   5.54653137
_cell_length_c   5.54653137
_cell_angle_alpha   60.00000000
_cell_angle_beta   60.00000000
_cell_angle_gamma   60.00000000
_symmetry_Int_Tables_number   1
_chemical_formula_structural   CaYbAl4
_chemical_formula_sum   'Ca1 Yb1 Al4'
_cell_volume   120.65613897
_cell_formula_units_Z   1
loop_
 _symmetry_equiv_pos_site_id
 _symmetry_equiv_pos_as_xyz
  1  'x, y, z'
loop_
 _atom_site_type_symbol
 _atom_site_label
 _atom_site_symmetry_multiplicity
 _atom_site_fract_x
 _atom_site_fract_y
 _atom_site_fract_z
 _atom_site_occupancy
  Ca  Ca0  1  0.25000000  0.25000000  0.25000000  1
  Yb  Yb0  1  0.00000000  0.00000000  0.00000000  1
  Al  Al0  1  0.62532935  0.62532935  0.12401294  1
  Al  Al1  1  0.62532935  0.12401294  0.62532935  1
  Al  Al2  1  0.12401294  0.62532935  0.62532935  1
  Al  Al3  1  0.62532935  0.62532935  0.62532935  1
loop_
_geom_bond_atom_site_label_1
_geom_bond_atom_site_label_2
_geom_bond_distance
_geom_bond_site_symmetry_2
Ca0 Yb0 3.396543 1_655
Ca0 Yb0 3.396543 1_565
Ca0 Yb0 3.396543 1_556
Ca0 Yb0 3.396543 1_555
Al0 Al3 2.765964 1_554
Al0 Al1 2.765964 1_564
Al0 Al2 2.765964 1_654
Al0 Al3 2.780567 1_555
Al0 Al1 2.780567 1_555
Al0 Al2 2.780567 1_555
Al0 Yb0 3.251164 1_665
Al0 Yb0 3.251169 1_565
Al0 Yb0 3.251169 1_655
Al0 Ca0 3.252722 1_655
Al0 Ca0 3.252722 1_565
Al0 Ca0 3.252727 1_555
Al1 Al2 2.765964 1_645
Al1 Al3 2.765964 1_545
Al1 Al3 2.780567 1_555
Al1 Al2 2.780567 1_555
Al1 Yb0 3.251164 1_656
Al1 Yb0 3.251169 1_556
Al1 Yb0 3.251169 1_655
Al1 Ca0 3.252722 1_556
Al1 Ca0 3.252722 1_655
Al1 Ca0 3.252727 1_555
Al2 Al3 2.765964 1_455
Al2 Al3 2.780567 1_555
Al2 Yb0 3.251164 1_566
Al2 Yb0 3.251169 1_556
Al2 Yb0 3.251169 1_565
Al2 Ca0 3.252722 1_556
Al2 Ca0 3.252722 1_565
Al2 Ca0 3.252727 1_555
Al3 Yb0 3.251166 1_566
Al3 Yb0 3.251166 1_656
Al3 Yb0 3.251166 1_665
Al3 Ca0 3.252724 1_655
Al3 Ca0 3.252724 1_565
Al3 Ca0 3.252724 1_556
