# generated using pymatgen
data_Ba2Ca3Tl2(CuO3)4
_symmetry_space_group_name_H-M   'P 1'
_cell_length_a   4.48946898
_cell_length_b   3.82302445
_cell_length_c   21.75762662
_cell_angle_alpha   91.37303856
_cell_angle_beta   89.34784733
_cell_angle_gamma   92.19458724
_symmetry_Int_Tables_number   1
_chemical_formula_structural   Ba2Ca3Tl2(CuO3)4
_chemical_formula_sum   'Ba2 Ca3 Tl2 Cu4 O12'
_cell_volume   373.03224364
_cell_formula_units_Z   1
loop_
 _symmetry_equiv_pos_site_id
 _symmetry_equiv_pos_as_xyz
  1  'x, y, z'
loop_
 _atom_site_type_symbol
 _atom_site_label
 _atom_site_symmetry_multiplicity
 _atom_site_fract_x
 _atom_site_fract_y
 _atom_site_fract_z
 _atom_site_occupancy
  Ba  Ba0  1  0.95367700  0.81984900  0.67084000  1
  Ba  Ba1  1  0.13744600  0.14311100  0.29825000  1
  Ca  Ca0  1  0.91893700  0.11196600  0.15742300  1
  Ca  Ca1  1  0.97395300  0.01595900  0.83969700  1
  Ca  Ca2  1  0.00722100  0.03793000  0.98117000  1
  Tl  Tl0  1  0.58517900  0.65152200  0.41687000  1
  Tl  Tl1  1  0.42944800  0.28975700  0.56715300  1
  Cu  Cu0  1  0.47062500  0.58111800  0.07880200  1
  Cu  Cu1  1  0.00515900  0.95597100  0.49697500  1
  Cu  Cu2  1  0.45404700  0.34410700  0.74274200  1
  Cu  Cu3  1  0.50070800  0.52699000  0.91817700  1
  O  O0  1  0.47249300  0.88917500  0.81278500  1
  O  O1  1  0.46287700  0.84067100  0.74163600  1
  O  O2  1  0.47085300  0.08448000  0.09505400  1
  O  O3  1  0.99532800  0.52128600  0.91176300  1
  O  O4  1  0.28282100  0.14033100  0.44452500  1
  O  O5  1  0.74406200  0.79006400  0.55432700  1
  O  O6  1  0.05801600  0.62584500  0.21765700  1
  O  O7  1  0.63922000  0.16211400  0.24626100  1
  O  O8  1  0.96807800  0.33444000  0.74775100  1
  O  O9  1  0.07699500  0.43773500  0.06517700  1
  O  O10  1  0.50485300  0.03010300  0.93334500  1
  O  O11  1  0.86756300  0.72160300  0.06848900  1
loop_
_geom_bond_atom_site_label_1
_geom_bond_atom_site_label_2
_geom_bond_distance
_geom_bond_site_symmetry_2
Ba0 O8 2.531533 1_555
Ba0 O8 2.551402 1_565
Ba0 O1 2.676645 1_555
Ba0 O5 2.712432 1_555
Ba0 O1 2.768635 1_655
Ba1 O7 2.508554 1_555
Ba1 O7 2.522284 1_455
Ba1 O6 2.612963 1_555
Ba1 O6 2.628042 1_545
Ba1 O4 3.256445 1_555
Ca0 O7 2.301148 1_555
Ca0 O6 2.401716 1_655
Ca0 O6 2.405300 1_645
Ca0 O11 2.422800 1_545
Ca0 O2 2.436880 1_555
Ca0 O9 2.470336 1_655
Ca0 O2 2.815777 1_655
Ca1 O0 2.361976 1_545
Ca1 O8 2.367625 1_555
Ca1 O0 2.372107 1_645
Ca1 O3 2.458454 1_555
Ca1 O3 2.490714 1_545
Ca2 O11 2.343064 1_446
Ca2 O9 2.370155 1_556
Ca2 O3 2.416845 1_455
Ca2 O10 2.454706 1_555
Ca2 O3 2.456695 1_445
Ca2 O10 2.493410 1_455
Cu0 O11 1.854142 1_555
Cu0 O9 1.855065 1_555
Cu0 O2 1.939659 1_555
Cu0 O2 1.948196 1_565
Cu1 O5 1.811387 1_455
Cu1 O4 1.814344 1_565
Cu2 O1 1.897996 1_555
Cu2 O1 1.926142 1_545
Cu2 O8 2.182166 1_455
Cu2 O8 2.313286 1_555
Cu2 O0 2.344171 1_545
Cu2 O0 2.551287 1_555
Cu3 O10 1.936665 1_555
Cu3 O10 1.943131 1_565
Cu3 O3 2.224284 1_555
Cu3 O3 2.274000 1_455
Cu3 O0 2.713614 1_555
O0 O1 1.555573 1_555
O4 Tl0 2.412178 1_545
O4 Tl0 2.420438 1_555
O5 Tl1 2.353924 1_555
O5 Tl1 2.427841 1_565
O11 O9 1.462817 1_655
