# generated using pymatgen
data_Ba5(GaSe4)2
_symmetry_space_group_name_H-M   'P 1'
_cell_length_a   13.51106937
_cell_length_b   13.51106937
_cell_length_c   12.42941200
_cell_angle_alpha   90.00000000
_cell_angle_beta   90.00000000
_cell_angle_gamma   123.96938313
_symmetry_Int_Tables_number   1
_chemical_formula_structural   Ba5(GaSe4)2
_chemical_formula_sum   'Ba20 Ga8 Se32'
_cell_volume   1881.74464819
_cell_formula_units_Z   4
loop_
 _symmetry_equiv_pos_site_id
 _symmetry_equiv_pos_as_xyz
  1  'x, y, z'
loop_
 _atom_site_type_symbol
 _atom_site_label
 _atom_site_symmetry_multiplicity
 _atom_site_fract_x
 _atom_site_fract_y
 _atom_site_fract_z
 _atom_site_occupancy
  Ba  Ba0  1  0.09697100  0.89680100  0.34340900  1
  Ba  Ba1  1  0.10319900  0.90302900  0.65659100  1
  Ba  Ba2  1  0.60319900  0.40302900  0.84340900  1
  Ba  Ba3  1  0.59697100  0.39680100  0.15659100  1
  Ba  Ba4  1  0.90302900  0.10319900  0.65659100  1
  Ba  Ba5  1  0.89680100  0.09697100  0.34340900  1
  Ba  Ba6  1  0.39680100  0.59697100  0.15659100  1
  Ba  Ba7  1  0.40302900  0.60319900  0.84340900  1
  Ba  Ba8  1  0.93854000  0.74485500  0.00484800  1
  Ba  Ba9  1  0.25514500  0.06146000  0.99515200  1
  Ba  Ba10  1  0.75514500  0.56146000  0.50484800  1
  Ba  Ba11  1  0.43854000  0.24485500  0.49515200  1
  Ba  Ba12  1  0.06146000  0.25514500  0.99515200  1
  Ba  Ba13  1  0.74485500  0.93854000  0.00484800  1
  Ba  Ba14  1  0.24485500  0.43854000  0.49515200  1
  Ba  Ba15  1  0.56146000  0.75514500  0.50484800  1
  Ba  Ba16  1  0.99524700  0.49524700  0.25000000  1
  Ba  Ba17  1  0.50475300  0.00475300  0.75000000  1
  Ba  Ba18  1  0.00475300  0.50475300  0.75000000  1
  Ba  Ba19  1  0.49524700  0.99524700  0.25000000  1
  Ga  Ga0  1  0.68627300  0.68627300  0.23010200  1
  Ga  Ga1  1  0.31372700  0.31372700  0.76989800  1
  Ga  Ga2  1  0.81372700  0.81372700  0.73010200  1
  Ga  Ga3  1  0.18627300  0.18627300  0.26989800  1
  Ga  Ga4  1  0.25014300  0.74985700  0.00000000  1
  Ga  Ga5  1  0.75014300  0.24985700  0.50000000  1
  Ga  Ga6  1  0.74985700  0.25014300  0.00000000  1
  Ga  Ga7  1  0.24985700  0.75014300  0.50000000  1
  Se  Se0  1  0.52392200  0.52392200  0.34814300  1
  Se  Se1  1  0.47607800  0.47607800  0.65185700  1
  Se  Se2  1  0.97607800  0.97607800  0.84814300  1
  Se  Se3  1  0.02392200  0.02392200  0.15185700  1
  Se  Se4  1  0.18581300  0.81283400  0.15149500  1
  Se  Se5  1  0.18716600  0.81418700  0.84850500  1
  Se  Se6  1  0.68716600  0.31418700  0.65149500  1
  Se  Se7  1  0.68581300  0.31283400  0.34850500  1
  Se  Se8  1  0.81418700  0.18716600  0.84850500  1
  Se  Se9  1  0.81283400  0.18581300  0.15149500  1
  Se  Se10  1  0.31283400  0.68581300  0.34850500  1
  Se  Se11  1  0.31418700  0.68716600  0.65149500  1
  Se  Se12  1  0.83804000  0.46379400  0.00176300  1
  Se  Se13  1  0.53620600  0.16196000  0.99823700  1
  Se  Se14  1  0.03620600  0.66196000  0.50176300  1
  Se  Se15  1  0.33804000  0.96379400  0.49823700  1
  Se  Se16  1  0.16196000  0.53620600  0.99823700  1
  Se  Se17  1  0.46379400  0.83804000  0.00176300  1
  Se  Se18  1  0.96379400  0.33804000  0.49823700  1
  Se  Se19  1  0.66196000  0.03620600  0.50176300  1
  Se  Se20  1  0.84783600  0.66232100  0.25754500  1
  Se  Se21  1  0.33767900  0.15216400  0.74245500  1
  Se  Se22  1  0.83767900  0.65216400  0.75754500  1
  Se  Se23  1  0.34783600  0.16232100  0.24245500  1
  Se  Se24  1  0.15216400  0.33767900  0.74245500  1
  Se  Se25  1  0.66232100  0.84783600  0.25754500  1
  Se  Se26  1  0.16232100  0.34783600  0.24245500  1
  Se  Se27  1  0.65216400  0.83767900  0.75754500  1
  Se  Se28  1  0.64609700  0.64609700  0.03218000  1
  Se  Se29  1  0.35390300  0.35390300  0.96782000  1
  Se  Se30  1  0.85390300  0.85390300  0.53218000  1
  Se  Se31  1  0.14609700  0.14609700  0.46782000  1
loop_
_geom_bond_atom_site_label_1
_geom_bond_atom_site_label_2
_geom_bond_distance
_geom_bond_site_symmetry_2
Ba0 Se4 3.152731 1_555
Ba0 Se20 3.254103 1_455
Ba0 Se3 3.389245 1_565
Ba0 Se31 3.417392 1_565
Ba0 Se14 3.421197 1_555
Ba0 Se15 3.440469 1_555
Ba0 Ga3 3.509090 1_565
Ba0 Se23 3.513476 1_565
Ba0 Se30 3.807803 1_455
Ba1 Se5 3.152731 1_555
Ba1 Se21 3.254103 1_565
Ba1 Se2 3.389245 1_455
Ba1 Se30 3.417392 1_455
Ba1 Se15 3.421197 1_555
Ba1 Se14 3.440469 1_555
Ba1 Ga2 3.509090 1_455
Ba1 Se22 3.513476 1_455
Ba1 Se31 3.807803 1_565
Ba2 Se6 3.152731 1_555
Ba2 Se22 3.254103 1_555
Ba2 Se1 3.389245 1_555
Ba2 Se29 3.417392 1_555
Ba2 Se12 3.421197 1_556
Ba2 Se13 3.440469 1_555
Ba2 Ga1 3.509090 1_555
Ba2 Se21 3.513476 1_555
Ba2 Se28 3.807803 1_556
Ba3 Se7 3.152731 1_555
Ba3 Se23 3.254103 1_555
Ba3 Se0 3.389245 1_555
Ba3 Se28 3.417392 1_555
Ba3 Se13 3.421197 1_554
Ba3 Se12 3.440469 1_555
Ba3 Ga0 3.509090 1_555
Ba3 Se20 3.513476 1_555
Ba3 Se29 3.807803 1_554
Ba4 Se8 3.152731 1_555
Ba4 Se24 3.254103 1_655
Ba4 Se2 3.389245 1_545
Ba4 Se30 3.417392 1_545
Ba4 Se18 3.421197 1_555
Ba4 Se19 3.440469 1_555
Ba4 Ga2 3.509090 1_545
Ba4 Se27 3.513476 1_545
Ba4 Se31 3.807803 1_655
Ba5 Se9 3.152731 1_555
Ba5 Se25 3.254103 1_545
Ba5 Se3 3.389245 1_655
Ba5 Se31 3.417392 1_655
Ba5 Se19 3.421197 1_555
Ba5 Se18 3.440469 1_555
Ba5 Ga3 3.509090 1_655
Ba5 Se26 3.513476 1_655
Ba5 Se30 3.807803 1_545
Ba6 Se10 3.152731 1_555
Ba6 Se26 3.254103 1_555
Ba6 Se0 3.389245 1_555
Ba6 Se28 3.417392 1_555
Ba6 Se16 3.421197 1_554
Ba6 Se17 3.440469 1_555
Ba6 Ga0 3.509090 1_555
Ba6 Se25 3.513476 1_555
Ba6 Se29 3.807803 1_554
Ba7 Se11 3.152731 1_555
Ba7 Se27 3.254103 1_555
Ba7 Se1 3.389245 1_555
Ba7 Se29 3.417392 1_555
Ba7 Se17 3.421197 1_556
Ba7 Se16 3.440469 1_555
Ba7 Ga1 3.509090 1_555
Ba7 Se24 3.513476 1_555
Ba7 Se28 3.807803 1_556
Ba8 Se12 3.240911 1_555
Ba8 Se22 3.311605 1_554
Ba8 Se20 3.329159 1_555
Ba8 Se28 3.408264 1_555
Ba8 Se4 3.449439 1_655
Ba8 Se2 3.469891 1_554
Ba8 Se5 3.524415 1_654
Ba8 Se3 3.745060 1_665
Ba9 Se13 3.240911 1_555
Ba9 Se23 3.311605 1_556
Ba9 Se21 3.329159 1_555
Ba9 Se29 3.408264 1_555
Ba9 Se5 3.449439 1_545
Ba9 Se3 3.469891 1_556
Ba9 Se4 3.524415 1_546
Ba9 Se2 3.745060 1_445
Ba10 Se14 3.240911 1_655
Ba10 Se20 3.311605 1_555
Ba10 Se22 3.329159 1_555
Ba10 Se30 3.408264 1_555
Ba10 Se6 3.449439 1_555
Ba10 Se0 3.469891 1_555
Ba10 Se7 3.524415 1_555
Ba10 Se1 3.745060 1_555
Ba11 Se15 3.240911 1_545
Ba11 Se21 3.311605 1_555
Ba11 Se23 3.329159 1_555
Ba11 Se31 3.408264 1_555
Ba11 Se7 3.449439 1_555
Ba11 Se1 3.469891 1_555
Ba11 Se6 3.524415 1_555
Ba11 Se0 3.745060 1_555
Ba12 Se16 3.240911 1_555
Ba12 Se26 3.311605 1_556
Ba12 Se24 3.329159 1_555
Ba12 Se29 3.408264 1_555
Ba12 Se8 3.449439 1_455
Ba12 Se3 3.469891 1_556
Ba12 Se9 3.524415 1_456
Ba12 Se2 3.745060 1_445
Ba13 Se17 3.240911 1_555
Ba13 Se27 3.311605 1_554
Ba13 Se25 3.329159 1_555
Ba13 Se28 3.408264 1_555
Ba13 Se9 3.449439 1_565
Ba13 Se2 3.469891 1_554
Ba13 Se8 3.524415 1_564
Ba13 Se3 3.745060 1_665
Ba14 Se18 3.240911 1_455
Ba14 Se24 3.311605 1_555
Ba14 Se26 3.329159 1_555
Ba14 Se31 3.408264 1_555
Ba14 Se10 3.449439 1_555
Ba14 Se1 3.469891 1_555
Ba14 Se11 3.524415 1_555
Ba14 Se0 3.745060 1_555
Ba15 Se19 3.240911 1_565
Ba15 Se25 3.311605 1_555
Ba15 Se27 3.329159 1_555
Ba15 Se30 3.408264 1_555
Ba15 Se11 3.449439 1_555
Ba15 Se0 3.469891 1_555
Ba15 Se10 3.524415 1_555
Ba15 Se1 3.745060 1_555
Ba16 Se18 3.633643 1_555
Ba16 Se12 3.633643 1_555
Ba16 Se7 3.679347 1_555
Ba16 Se9 3.679347 1_555
Ba16 Se14 3.712035 1_655
Ba16 Se16 3.712035 1_654
Ba16 Se26 3.754383 1_655
Ba16 Se20 3.754383 1_555
Ba16 Se4 3.767534 1_655
Ba16 Se10 3.767534 1_655
Ba17 Se13 3.633643 1_555
Ba17 Se19 3.633643 1_555
Ba17 Se8 3.679347 1_555
Ba17 Se6 3.679347 1_555
Ba17 Se17 3.712035 1_546
Ba17 Se15 3.712035 1_545
Ba17 Se27 3.754383 1_545
Ba17 Se21 3.754383 1_555
Ba17 Se5 3.767534 1_545
Ba17 Se11 3.767534 1_545
Ba18 Se16 3.633643 1_555
Ba18 Se14 3.633643 1_555
Ba18 Se5 3.679347 1_555
Ba18 Se11 3.679347 1_555
Ba18 Se12 3.712035 1_456
Ba18 Se18 3.712035 1_455
Ba18 Se22 3.754383 1_455
Ba18 Se24 3.754383 1_555
Ba18 Se8 3.767534 1_455
Ba18 Se6 3.767534 1_455
Ba19 Se15 3.633643 1_555
Ba19 Se17 3.633643 1_555
Ba19 Se10 3.679347 1_555
Ba19 Se4 3.679347 1_555
Ba19 Se19 3.712035 1_565
Ba19 Se13 3.712035 1_564
Ba19 Se25 3.754383 1_555
Ba19 Se23 3.754383 1_565
Ba19 Se9 3.767534 1_565
Ba19 Se7 3.767534 1_565
Ga0 Se25 2.403228 1_555
Ga0 Se20 2.403228 1_555
Ga0 Se28 2.512349 1_555
Ga0 Se0 2.529596 1_555
Ga1 Se21 2.403228 1_555
Ga1 Se24 2.403228 1_555
Ga1 Se29 2.512349 1_555
Ga1 Se1 2.529596 1_555
Ga2 Se22 2.403228 1_555
Ga2 Se27 2.403228 1_555
Ga2 Se30 2.512349 1_555
Ga2 Se2 2.529596 1_555
Ga3 Se23 2.403228 1_555
Ga3 Se26 2.403228 1_555
Ga3 Se31 2.512349 1_555
Ga3 Se3 2.529596 1_555
Ga4 Se5 2.419005 1_554
Ga4 Se4 2.419005 1_555
Ga4 Se17 2.430923 1_555
Ga4 Se16 2.430923 1_554
Ga5 Se6 2.419005 1_555
Ga5 Se7 2.419005 1_555
Ga5 Se18 2.430923 1_555
Ga5 Se19 2.430923 1_555
Ga6 Se8 2.419005 1_554
Ga6 Se9 2.419005 1_555
Ga6 Se12 2.430923 1_555
Ga6 Se13 2.430923 1_554
Ga7 Se11 2.419005 1_555
Ga7 Se10 2.419005 1_555
Ga7 Se15 2.430923 1_555
Ga7 Se14 2.430923 1_555
