# generated using pymatgen
data_KTh2F9
_symmetry_space_group_name_H-M   'P 1'
_cell_length_a   7.17032163
_cell_length_b   8.85708888
_cell_length_c   11.64368682
_cell_angle_alpha   90.00000000
_cell_angle_beta   90.00000000
_cell_angle_gamma   90.00000000
_symmetry_Int_Tables_number   1
_chemical_formula_structural   KTh2F9
_chemical_formula_sum   'K4 Th8 F36'
_cell_volume   739.46931156
_cell_formula_units_Z   4
loop_
 _symmetry_equiv_pos_site_id
 _symmetry_equiv_pos_as_xyz
  1  'x, y, z'
loop_
 _atom_site_type_symbol
 _atom_site_label
 _atom_site_symmetry_multiplicity
 _atom_site_fract_x
 _atom_site_fract_y
 _atom_site_fract_z
 _atom_site_occupancy
  K  K0  1  0.64553840  0.03501637  0.25000000  1
  K  K1  1  0.35446160  0.96498363  0.75000000  1
  K  K2  1  0.14553840  0.46498363  0.75000000  1
  K  K3  1  0.85446160  0.53501637  0.25000000  1
  Th  Th0  1  0.15384597  0.17486542  0.05001216  1
  Th  Th1  1  0.84615403  0.82513458  0.94998784  1
  Th  Th2  1  0.65384597  0.32513458  0.94998784  1
  Th  Th3  1  0.84615403  0.82513458  0.55001216  1
  Th  Th4  1  0.34615403  0.67486542  0.05001216  1
  Th  Th5  1  0.15384597  0.17486542  0.44998784  1
  Th  Th6  1  0.34615403  0.67486542  0.44998784  1
  Th  Th7  1  0.65384597  0.32513458  0.55001216  1
  F  F0  1  0.19866884  0.43528120  0.08022041  1
  F  F1  1  0.80133116  0.56471880  0.91977959  1
  F  F2  1  0.69866884  0.06471880  0.91977959  1
  F  F3  1  0.80133116  0.56471880  0.58022041  1
  F  F4  1  0.30133116  0.93528120  0.08022041  1
  F  F5  1  0.19866884  0.43528120  0.41977959  1
  F  F6  1  0.30133116  0.93528120  0.41977959  1
  F  F7  1  0.69866884  0.06471880  0.58022041  1
  F  F8  1  0.07669532  0.00322846  0.59945563  1
  F  F9  1  0.92330468  0.99677154  0.40054437  1
  F  F10  1  0.57669532  0.49677154  0.40054437  1
  F  F11  1  0.92330468  0.99677154  0.09945563  1
  F  F12  1  0.42330468  0.50322846  0.59945563  1
  F  F13  1  0.07669532  0.00322846  0.90054437  1
  F  F14  1  0.42330468  0.50322846  0.90054437  1
  F  F15  1  0.57669532  0.49677154  0.09945563  1
  F  F16  1  0.47324666  0.20801348  0.09684237  1
  F  F17  1  0.52675334  0.79198652  0.90315763  1
  F  F18  1  0.97324666  0.29198652  0.90315763  1
  F  F19  1  0.52675334  0.79198652  0.59684237  1
  F  F20  1  0.02675334  0.70801348  0.09684237  1
  F  F21  1  0.47324666  0.20801348  0.40315763  1
  F  F22  1  0.02675334  0.70801348  0.40315763  1
  F  F23  1  0.97324666  0.29198652  0.59684237  1
  F  F24  1  0.16331481  0.17592474  0.25000000  1
  F  F25  1  0.83668519  0.82407526  0.75000000  1
  F  F26  1  0.66331481  0.32407526  0.75000000  1
  F  F27  1  0.33668519  0.67592474  0.25000000  1
  F  F28  1  0.35729536  0.21461937  0.60794509  1
  F  F29  1  0.64270464  0.78538063  0.39205491  1
  F  F30  1  0.85729536  0.28538063  0.39205491  1
  F  F31  1  0.64270464  0.78538063  0.10794509  1
  F  F32  1  0.14270464  0.71461937  0.60794509  1
  F  F33  1  0.35729536  0.21461937  0.89205491  1
  F  F34  1  0.14270464  0.71461937  0.89205491  1
  F  F35  1  0.85729536  0.28538063  0.10794509  1
loop_
_geom_bond_atom_site_label_1
_geom_bond_atom_site_label_2
_geom_bond_distance
_geom_bond_site_symmetry_2
F0 Th0 2.355222 1_555
F0 Th4 2.396878 1_555
F1 Th1 2.355222 1_555
F1 Th2 2.396878 1_555
F2 Th2 2.355222 1_555
F2 Th1 2.396878 1_545
F3 Th3 2.355222 1_555
F3 Th7 2.396878 1_555
F4 Th4 2.355222 1_555
F4 Th0 2.396878 1_565
F5 Th5 2.355222 1_555
F5 Th6 2.396878 1_555
F6 Th6 2.355222 1_555
F6 Th5 2.396878 1_565
F7 Th7 2.355222 1_555
F7 Th3 2.396878 1_545
F8 Th3 2.356310 1_445
F8 Th5 2.376107 1_555
F8 K1 2.674722 1_545
F9 Th5 2.356310 1_665
F9 Th3 2.376107 1_555
F9 K0 2.674722 1_565
F10 Th6 2.356310 1_555
F10 Th7 2.376107 1_555
F10 K3 2.674722 1_555
F11 Th0 2.356310 1_665
F11 Th1 2.376107 1_554
F11 K0 2.674722 1_565
F12 Th7 2.356310 1_555
F12 Th6 2.376107 1_555
F12 K2 2.674722 1_555
F13 Th1 2.356310 1_445
F13 Th0 2.376107 1_556
F13 K1 2.674722 1_545
F14 Th2 2.356310 1_555
F14 Th4 2.376107 1_556
F14 K2 2.674722 1_555
F15 Th4 2.356310 1_555
F15 Th2 2.376107 1_554
F15 K3 2.674722 1_555
F16 Th0 2.372460 1_555
F16 Th2 2.382617 1_554
F16 K0 2.655975 1_555
F17 Th1 2.372460 1_555
F17 Th4 2.382617 1_556
F17 K1 2.655975 1_555
F18 Th2 2.372460 1_555
F18 Th0 2.382617 1_656
F18 K2 2.655975 1_655
F19 Th3 2.372460 1_555
F19 Th6 2.382617 1_555
F19 K1 2.655975 1_555
F20 Th4 2.372460 1_555
F20 Th1 2.382617 1_454
F20 K3 2.655975 1_455
F21 Th5 2.372460 1_555
F21 Th7 2.382617 1_555
F21 K0 2.655975 1_555
F22 Th6 2.372460 1_555
F22 Th3 2.382617 1_455
F22 K3 2.655975 1_455
F23 Th7 2.372460 1_555
F23 Th5 2.382617 1_655
F23 K2 2.655975 1_655
F24 Th5 2.329604 1_555
F24 Th0 2.329604 1_555
F25 Th3 2.329604 1_555
F25 Th1 2.329604 1_555
F26 Th7 2.329604 1_555
F26 Th2 2.329604 1_555
F27 Th4 2.329604 1_555
F27 Th6 2.329604 1_555
F28 Th5 2.373761 1_555
F28 Th7 2.436099 1_555
F28 K1 2.761339 1_545
F29 Th3 2.373761 1_555
F29 Th6 2.436099 1_555
F29 K0 2.761339 1_565
F30 Th7 2.373761 1_555
F30 Th5 2.436099 1_655
F30 K3 2.761339 1_555
F31 Th1 2.373761 1_554
F31 Th4 2.436099 1_555
F31 K0 2.761339 1_565
F32 Th6 2.373761 1_555
F32 Th3 2.436099 1_455
F32 K2 2.761339 1_555
F33 Th0 2.373761 1_556
F33 Th2 2.436099 1_555
F33 K1 2.761339 1_545
F34 Th4 2.373761 1_556
F34 Th1 2.436099 1_455
F34 K2 2.761339 1_555
F35 Th2 2.373761 1_554
F35 Th0 2.436099 1_655
F35 K3 2.761339 1_555
