# generated using pymatgen
data_Rb4C2O9
_symmetry_space_group_name_H-M   'P 1'
_cell_length_a   9.51280176
_cell_length_b   9.51280176
_cell_length_c   7.86488994
_cell_angle_alpha   66.04953094
_cell_angle_beta   66.04953094
_cell_angle_gamma   92.38562587
_symmetry_Int_Tables_number   1
_chemical_formula_structural   Rb4C2O9
_chemical_formula_sum   'Rb8 C4 O18'
_cell_volume   575.99388177
_cell_formula_units_Z   2
loop_
 _symmetry_equiv_pos_site_id
 _symmetry_equiv_pos_as_xyz
  1  'x, y, z'
loop_
 _atom_site_type_symbol
 _atom_site_label
 _atom_site_symmetry_multiplicity
 _atom_site_fract_x
 _atom_site_fract_y
 _atom_site_fract_z
 _atom_site_occupancy
  Rb  Rb0  1  0.19007900  0.80992100  0.25000000  1
  Rb  Rb1  1  0.80992100  0.19007900  0.75000000  1
  Rb  Rb2  1  0.84658900  0.15341100  0.25000000  1
  Rb  Rb3  1  0.15341100  0.84658900  0.75000000  1
  Rb  Rb4  1  0.55103700  0.74562400  0.40984600  1
  Rb  Rb5  1  0.44896300  0.25437600  0.59015400  1
  Rb  Rb6  1  0.25437600  0.44896300  0.09015400  1
  Rb  Rb7  1  0.74562400  0.55103700  0.90984600  1
  C  C0  1  0.48364700  0.15284400  0.14959900  1
  C  C1  1  0.51635300  0.84715600  0.85040100  1
  C  C2  1  0.84715600  0.51635300  0.35040100  1
  C  C3  1  0.15284400  0.48364700  0.64959900  1
  O  O0  1  0.38158200  0.02747000  0.31016200  1
  O  O1  1  0.61841800  0.97253000  0.68983800  1
  O  O2  1  0.97253000  0.61841800  0.18983800  1
  O  O3  1  0.02747000  0.38158200  0.81016200  1
  O  O4  1  0.55105700  0.78391800  0.01111700  1
  O  O5  1  0.44894300  0.21608200  0.98888300  1
  O  O6  1  0.21608200  0.44894300  0.48888300  1
  O  O7  1  0.78391800  0.55105700  0.51111700  1
  O  O8  1  0.92989300  0.95406700  0.04313800  1
  O  O9  1  0.07010700  0.04593300  0.95686200  1
  O  O10  1  0.04593300  0.07010700  0.45686200  1
  O  O11  1  0.95406700  0.92989300  0.54313800  1
  O  O12  1  0.40582800  0.59417200  0.25000000  1
  O  O13  1  0.59417200  0.40582800  0.75000000  1
  O  O14  1  0.61153700  0.21527100  0.13691400  1
  O  O15  1  0.38846300  0.78472900  0.86308600  1
  O  O16  1  0.78472900  0.38846300  0.36308600  1
  O  O17  1  0.21527100  0.61153700  0.63691400  1
loop_
_geom_bond_atom_site_label_1
_geom_bond_atom_site_label_2
_geom_bond_distance
_geom_bond_site_symmetry_2
C0 O14 1.279032 1_555
C0 O0 1.282640 1_555
C0 O5 1.344089 1_554
C1 O15 1.279032 1_555
C1 O1 1.282640 1_555
C1 O4 1.344089 1_556
C2 O16 1.279032 1_555
C2 O2 1.282640 1_555
C2 O7 1.344089 1_555
C3 O17 1.279032 1_555
C3 O3 1.282640 1_555
C3 O6 1.344089 1_555
O0 Rb3 2.898090 1_545
O0 Rb0 3.001070 1_545
O0 Rb4 3.175056 1_545
O1 Rb2 2.898090 1_565
O1 Rb1 3.001070 1_565
O1 Rb5 3.175056 1_565
O2 Rb3 2.898090 1_654
O2 Rb0 3.001070 1_655
O2 Rb6 3.175056 1_655
O3 Rb2 2.898090 1_456
O3 Rb1 3.001070 1_455
O3 Rb7 3.175056 1_455
O4 Rb4 3.006487 1_555
O4 Rb7 3.089492 1_554
O5 Rb5 3.006487 1_555
O5 Rb6 3.089492 1_556
O6 Rb6 3.006487 1_555
O6 Rb5 3.089492 1_555
O7 Rb7 3.006487 1_555
O7 Rb4 3.089492 1_555
O8 O9 1.299974 1_664
O8 Rb2 2.907607 1_565
O8 Rb3 2.999413 1_654
O8 Rb1 3.131378 1_564
O8 Rb4 3.400225 1_555
O9 Rb3 2.907607 1_545
O9 Rb2 2.999413 1_456
O9 Rb0 3.131378 1_546
O9 Rb5 3.400225 1_555
O10 O11 1.299974 1_445
O10 Rb2 2.907607 1_455
O10 Rb3 2.999413 1_545
O10 Rb1 3.131378 1_455
O10 Rb6 3.400225 1_555
O11 Rb3 2.907607 1_655
O11 Rb2 2.999413 1_565
O11 Rb0 3.131378 1_655
O11 Rb7 3.400225 1_555
O12 O6 1.904804 1_555
O12 O4 1.904804 1_555
O12 Rb6 2.877340 1_555
O12 Rb4 2.877340 1_555
O12 Rb0 2.962292 1_555
O12 Rb5 3.428515 1_555
O12 Rb7 3.428515 1_554
O13 O5 1.904804 1_555
O13 O7 1.904804 1_555
O13 Rb5 2.877340 1_555
O13 Rb7 2.877340 1_555
O13 Rb1 2.962292 1_555
O13 Rb6 3.428515 1_556
O13 Rb4 3.428515 1_555
O14 Rb2 2.726955 1_555
O14 Rb7 2.863324 1_554
O14 Rb1 2.974252 1_554
O14 Rb5 3.447569 1_555
O15 Rb3 2.726955 1_555
O15 Rb6 2.863324 1_556
O15 Rb0 2.974252 1_556
O15 Rb4 3.447569 1_555
O16 Rb2 2.726955 1_555
O16 Rb5 2.863324 1_555
O16 Rb1 2.974252 1_555
O16 Rb7 3.447569 1_554
O17 Rb3 2.726955 1_555
O17 Rb4 2.863324 1_555
O17 Rb0 2.974252 1_555
O17 Rb6 3.447569 1_556
