# generated using pymatgen
data_Ni9S8
_symmetry_space_group_name_H-M   'P 1'
_cell_length_a   9.54609900
_cell_length_b   9.54609900
_cell_length_c   12.97223143
_cell_angle_alpha   111.58884702
_cell_angle_beta   111.58884702
_cell_angle_gamma   90.00000000
_symmetry_Int_Tables_number   1
_chemical_formula_structural   Ni9S8
_chemical_formula_sum   'Ni36 S32'
_cell_volume   1009.48607066
_cell_formula_units_Z   4
loop_
 _symmetry_equiv_pos_site_id
 _symmetry_equiv_pos_as_xyz
  1  'x, y, z'
loop_
 _atom_site_type_symbol
 _atom_site_label
 _atom_site_symmetry_multiplicity
 _atom_site_fract_x
 _atom_site_fract_y
 _atom_site_fract_z
 _atom_site_occupancy
  Ni  Ni0  1  0.48403700  0.74880600  0.50272900  1
  Ni  Ni1  1  0.76596300  0.99607600  0.99727100  1
  Ni  Ni2  1  0.01869200  0.75392400  0.50272900  1
  Ni  Ni3  1  0.23130800  0.00119400  0.99727100  1
  Ni  Ni4  1  0.25119400  0.98130800  0.49727100  1
  Ni  Ni5  1  0.99880600  0.23403700  0.00272900  1
  Ni  Ni6  1  0.24607600  0.51596300  0.49727100  1
  Ni  Ni7  1  0.00392400  0.76869200  0.00272900  1
  Ni  Ni8  1  0.75336900  0.75336900  0.50673800  1
  Ni  Ni9  1  0.49663100  0.99663100  0.99326200  1
  Ni  Ni10  1  0.24663100  0.24663100  0.49326200  1
  Ni  Ni11  1  0.00336900  0.50336900  0.00673800  1
  Ni  Ni12  1  0.41625100  0.37500000  0.25000000  1
  Ni  Ni13  1  0.83374900  0.87500000  0.25000000  1
  Ni  Ni14  1  0.62500000  0.16625100  0.75000000  1
  Ni  Ni15  1  0.12500000  0.58374900  0.75000000  1
  Ni  Ni16  1  0.88422100  0.38422100  0.76844200  1
  Ni  Ni17  1  0.36577900  0.36577900  0.73155800  1
  Ni  Ni18  1  0.61577900  0.11577900  0.23155800  1
  Ni  Ni19  1  0.63422100  0.63422100  0.26844200  1
  Ni  Ni20  1  0.23603200  0.74309800  0.67839800  1
  Ni  Ni21  1  0.01396800  0.81470000  0.82160200  1
  Ni  Ni22  1  0.44236700  0.93530000  0.67839800  1
  Ni  Ni23  1  0.80763300  0.00690200  0.82160200  1
  Ni  Ni24  1  0.25690200  0.55763300  0.32160200  1
  Ni  Ni25  1  0.99309800  0.98603200  0.17839800  1
  Ni  Ni26  1  0.06470000  0.76396800  0.32160200  1
  Ni  Ni27  1  0.18530000  0.19236700  0.17839800  1
  Ni  Ni28  1  0.59405900  0.32919000  0.42266500  1
  Ni  Ni29  1  0.65594100  0.65652500  0.07733500  1
  Ni  Ni30  1  0.82860600  0.09347500  0.42266500  1
  Ni  Ni31  1  0.42139400  0.42081000  0.07733500  1
  Ni  Ni32  1  0.67081000  0.17139400  0.57733500  1
  Ni  Ni33  1  0.57919000  0.34405900  0.92266500  1
  Ni  Ni34  1  0.90652500  0.40594100  0.57733500  1
  Ni  Ni35  1  0.34347500  0.57860600  0.92266500  1
  S  S0  1  0.57476700  0.56263000  0.39981700  1
  S  S1  1  0.67523300  0.91281400  0.10018300  1
  S  S2  1  0.82505000  0.83718600  0.39981700  1
  S  S3  1  0.42495000  0.18737000  0.10018300  1
  S  S4  1  0.43737000  0.17495000  0.60018300  1
  S  S5  1  0.81263000  0.32476700  0.89981700  1
  S  S6  1  0.16281400  0.42523300  0.60018300  1
  S  S7  1  0.08718600  0.57505000  0.89981700  1
  S  S8  1  0.67710300  0.94747500  0.62288400  1
  S  S9  1  0.57289700  0.07459100  0.87711600  1
  S  S10  1  0.94578200  0.67540900  0.62288400  1
  S  S11  1  0.30421800  0.80252500  0.87711600  1
  S  S12  1  0.05252500  0.05421800  0.37711600  1
  S  S13  1  0.19747500  0.42710300  0.12288400  1
  S  S14  1  0.32459100  0.32289700  0.37711600  1
  S  S15  1  0.92540900  0.69578200  0.12288400  1
  S  S16  1  0.44423400  0.69024800  0.64084800  1
  S  S17  1  0.80576600  0.79940000  0.85915200  1
  S  S18  1  0.19661400  0.95060000  0.64084800  1
  S  S19  1  0.05338600  0.05975200  0.85915200  1
  S  S20  1  0.30975200  0.80338600  0.35915200  1
  S  S21  1  0.94024800  0.19423400  0.14084800  1
  S  S22  1  0.04940000  0.55576600  0.35915200  1
  S  S23  1  0.20060000  0.94661400  0.14084800  1
  S  S24  1  0.69916100  0.42864600  0.62551800  1
  S  S25  1  0.55083900  0.55312800  0.87448200  1
  S  S26  1  0.92635700  0.19687200  0.62551800  1
  S  S27  1  0.32364300  0.32135400  0.87448200  1
  S  S28  1  0.57135400  0.07364300  0.37448200  1
  S  S29  1  0.67864600  0.44916100  0.12551800  1
  S  S30  1  0.80312800  0.30083900  0.37448200  1
  S  S31  1  0.44687200  0.67635700  0.12551800  1
loop_
_geom_bond_atom_site_label_1
_geom_bond_atom_site_label_2
_geom_bond_distance
_geom_bond_site_symmetry_2
Ni0 S0 2.189956 1_555
Ni0 S16 2.214747 1_555
Ni0 S20 2.223119 1_555
Ni0 S8 2.265766 1_555
Ni1 S1 2.189944 1_556
Ni1 S17 2.214742 1_555
Ni1 S21 2.223124 1_566
Ni1 S9 2.265772 1_565
Ni2 S2 2.189944 1_455
Ni2 S18 2.214742 1_555
Ni2 S22 2.223124 1_555
Ni2 S10 2.265766 1_455
Ni3 S3 2.189956 1_556
Ni3 S19 2.214747 1_555
Ni3 S23 2.223119 1_546
Ni3 S11 2.265761 1_545
Ni4 S4 2.189956 1_565
Ni4 S20 2.214747 1_555
Ni4 S18 2.223119 1_555
Ni4 S12 2.265761 1_565
Ni5 S5 2.189956 1_554
Ni5 S21 2.214747 1_555
Ni5 S19 2.223119 1_654
Ni5 S13 2.265766 1_655
Ni6 S6 2.189944 1_555
Ni6 S22 2.214742 1_555
Ni6 S16 2.223124 1_555
Ni6 S14 2.265772 1_555
Ni7 S7 2.189944 1_554
Ni7 S23 2.214742 1_555
Ni7 S17 2.223124 1_454
Ni7 S15 2.265766 1_455
Ni8 S2 2.132441 1_555
Ni8 S0 2.132447 1_555
Ni8 S8 2.233006 1_555
Ni8 S10 2.233011 1_555
Ni9 S1 2.132441 1_556
Ni9 S3 2.132447 1_566
Ni9 S9 2.233006 1_565
Ni9 S11 2.233011 1_555
Ni10 S6 2.132441 1_555
Ni10 S4 2.132447 1_555
Ni10 S14 2.233006 1_555
Ni10 S12 2.233011 1_555
Ni11 S7 2.132441 1_554
Ni11 S5 2.132447 1_454
Ni11 S13 2.233006 1_555
Ni11 S15 2.233011 1_455
Ni12 S3 2.132895 1_555
Ni12 S0 2.132895 1_555
Ni12 S14 2.323243 1_555
Ni12 S13 2.323243 1_555
Ni13 S2 2.132899 1_555
Ni13 S1 2.132899 1_555
Ni13 S15 2.323239 1_555
Ni13 S12 2.323239 1_665
Ni14 S4 2.132895 1_555
Ni14 S5 2.132895 1_555
Ni14 S9 2.323243 1_555
Ni14 S8 2.323243 1_545
Ni15 S7 2.132899 1_555
Ni15 S6 2.132899 1_555
Ni15 S10 2.323239 1_455
Ni15 S11 2.323239 1_555
Ni16 S24 2.215067 1_555
Ni16 S26 2.215067 1_555
Ni16 S7 2.293992 1_655
Ni16 S5 2.293998 1_555
Ni17 S27 2.215067 1_555
Ni17 S25 2.215067 1_555
Ni17 S6 2.293992 1_555
Ni17 S4 2.293998 1_555
Ni18 S28 2.215067 1_555
Ni18 S30 2.215067 1_555
Ni18 S1 2.293992 1_545
Ni18 S3 2.293998 1_555
Ni19 S29 2.215067 1_555
Ni19 S31 2.215067 1_555
Ni19 S2 2.293992 1_555
Ni19 S0 2.293998 1_555
Ni20 S18 2.208559 1_555
Ni20 S16 2.230162 1_555
Ni20 S11 2.253825 1_555
Ni20 S10 2.608150 1_455
Ni21 S19 2.208559 1_565
Ni21 S17 2.230162 1_455
Ni21 S10 2.253825 1_455
Ni21 S11 2.608150 1_555
Ni22 S16 2.208558 1_555
Ni22 S18 2.230171 1_555
Ni22 S9 2.253823 1_565
Ni22 S8 2.608150 1_555
Ni23 S17 2.208558 1_545
Ni23 S19 2.230171 1_655
Ni23 S8 2.253823 1_545
Ni23 S9 2.608150 1_555
Ni24 S22 2.208558 1_555
Ni24 S20 2.230171 1_555
Ni24 S13 2.253823 1_555
Ni24 S14 2.608150 1_555
Ni25 S23 2.208559 1_655
Ni25 S21 2.230162 1_565
Ni25 S12 2.253825 1_665
Ni25 S15 2.608150 1_555
Ni26 S20 2.208559 1_555
Ni26 S22 2.230162 1_555
Ni26 S15 2.253825 1_455
Ni26 S12 2.608150 1_565
Ni27 S21 2.208558 1_455
Ni27 S23 2.230171 1_545
Ni27 S14 2.253823 1_555
Ni27 S13 2.608150 1_555
Ni28 S24 2.247491 1_555
Ni28 S28 2.273092 1_555
Ni28 S30 2.289239 1_555
Ni28 S0 2.352358 1_555
Ni28 S14 2.413543 1_555
Ni29 S25 2.247491 1_554
Ni29 S29 2.273092 1_555
Ni29 S31 2.289239 1_555
Ni29 S1 2.352368 1_555
Ni29 S15 2.413544 1_555
Ni30 S26 2.247491 1_555
Ni30 S30 2.273092 1_555
Ni30 S28 2.289239 1_555
Ni30 S2 2.352368 1_545
Ni30 S12 2.413544 1_655
Ni31 S27 2.247491 1_554
Ni31 S31 2.273092 1_555
Ni31 S29 2.289239 1_555
Ni31 S3 2.352358 1_555
Ni31 S13 2.413543 1_555
Ni32 S28 2.247491 1_555
Ni32 S26 2.273092 1_555
Ni32 S24 2.289239 1_555
Ni32 S4 2.352358 1_555
Ni32 S8 2.413543 1_545
Ni33 S29 2.247491 1_556
Ni33 S27 2.273092 1_555
Ni33 S25 2.289239 1_555
Ni33 S5 2.352358 1_555
Ni33 S9 2.413543 1_555
Ni34 S30 2.247491 1_555
Ni34 S24 2.273092 1_555
Ni34 S26 2.289239 1_555
Ni34 S6 2.352368 1_655
Ni34 S10 2.413544 1_555
Ni35 S31 2.247491 1_556
Ni35 S25 2.273092 1_555
Ni35 S27 2.289239 1_555
Ni35 S7 2.352368 1_555
Ni35 S11 2.413544 1_555
