# generated using pymatgen
data_NaMg14Zr
_symmetry_space_group_name_H-M   'P 1'
_cell_length_a   6.47458855
_cell_length_b   6.52996758
_cell_length_c   10.24526410
_cell_angle_alpha   90.00000000
_cell_angle_beta   90.00000000
_cell_angle_gamma   120.28335176
_symmetry_Int_Tables_number   1
_chemical_formula_structural   NaMg14Zr
_chemical_formula_sum   'Na1 Mg14 Zr1'
_cell_volume   374.05019078
_cell_formula_units_Z   1
loop_
 _symmetry_equiv_pos_site_id
 _symmetry_equiv_pos_as_xyz
  1  'x, y, z'
loop_
 _atom_site_type_symbol
 _atom_site_label
 _atom_site_symmetry_multiplicity
 _atom_site_fract_x
 _atom_site_fract_y
 _atom_site_fract_z
 _atom_site_occupancy
  Na  Na0  1  0.16905067  0.83452483  0.12500000  1
  Mg  Mg0  1  0.16634006  0.33316953  0.62500000  1
  Mg  Mg1  1  0.16702588  0.83351244  0.62500000  1
  Mg  Mg2  1  0.66207684  0.32608409  0.12500000  1
  Mg  Mg3  1  0.66719708  0.33318658  0.62500000  1
  Mg  Mg4  1  0.66207684  0.83599175  0.12500000  1
  Mg  Mg5  1  0.66719708  0.83400950  0.62500000  1
  Mg  Mg6  1  0.33241016  0.17111625  0.37568133  1
  Mg  Mg7  1  0.33241016  0.17111625  0.87431867  1
  Mg  Mg8  1  0.33241016  0.66129492  0.37568133  1
  Mg  Mg9  1  0.33241016  0.66129492  0.87431867  1
  Mg  Mg10  1  0.83817644  0.16908872  0.37351579  1
  Mg  Mg11  1  0.83817644  0.16908872  0.87648421  1
  Mg  Mg12  1  0.83058625  0.66529362  0.37553254  1
  Mg  Mg13  1  0.83058625  0.66529362  0.87446746  1
  Zr  Zr0  1  0.17186953  0.33593426  0.12500000  1
loop_
_geom_bond_atom_site_label_1
_geom_bond_atom_site_label_2
_geom_bond_distance
_geom_bond_site_symmetry_2
Na0 Zr0 3.265022 1_565
Na0 Zr0 3.265022 1_555
Mg0 Mg7 3.154062 1_555
Mg0 Mg6 3.154062 1_555
Mg0 Mg9 3.154068 1_555
Mg0 Mg8 3.154068 1_555
Mg0 Mg10 3.163055 1_455
Mg0 Mg11 3.163055 1_455
Mg0 Mg5 3.231801 1_445
Mg0 Mg3 3.231802 1_455
Mg0 Mg5 3.242787 1_555
Mg0 Mg3 3.242787 1_555
Mg0 Mg1 3.264986 1_555
Mg0 Mg1 3.264986 1_545
Mg1 Mg12 3.173454 1_455
Mg1 Mg13 3.173454 1_455
Mg1 Mg9 3.185968 1_555
Mg1 Mg8 3.185968 1_555
Mg1 Mg7 3.185975 1_565
Mg1 Mg6 3.185975 1_565
Mg1 Mg3 3.236767 1_565
Mg1 Mg5 3.236767 1_555
Mg1 Mg3 3.237824 1_455
Mg1 Mg5 3.237824 1_455
Mg2 Mg7 3.161907 1_554
Mg2 Mg6 3.161907 1_555
Mg2 Na0 3.187322 1_545
Mg2 Mg4 3.200287 1_545
Mg2 Zr0 3.206807 1_555
Mg2 Zr0 3.268734 1_655
Mg2 Na0 3.287287 1_655
Mg2 Mg4 3.329680 1_555
Mg3 Mg6 3.166947 1_555
Mg3 Mg7 3.166947 1_555
Mg3 Mg5 3.259610 1_545
Mg3 Mg5 3.270357 1_555
Mg4 Mg8 3.161907 1_555
Mg4 Mg9 3.161907 1_554
Mg4 Na0 3.187322 1_555
Mg4 Zr0 3.206807 1_555
Mg4 Zr0 3.268734 1_665
Mg4 Na0 3.287288 1_655
Mg5 Mg9 3.166946 1_555
Mg5 Mg8 3.166946 1_555
Mg6 Zr0 3.156448 1_555
Mg6 Na0 3.193923 1_545
Mg6 Mg8 3.200851 1_555
Mg6 Mg8 3.329117 1_545
Mg7 Zr0 3.156448 1_556
Mg7 Na0 3.193923 1_546
Mg7 Mg9 3.200851 1_555
Mg7 Mg9 3.329117 1_545
Mg8 Zr0 3.156455 1_555
Mg8 Na0 3.193916 1_555
Mg9 Zr0 3.156455 1_556
Mg9 Na0 3.193916 1_556
Mg10 Zr0 3.156506 1_655
Mg10 Mg2 3.164258 1_555
Mg10 Mg4 3.164264 1_545
Mg10 Mg8 3.193381 1_655
Mg10 Mg6 3.193381 1_655
Mg10 Mg3 3.195085 1_555
Mg10 Mg5 3.195092 1_545
Mg10 Mg12 3.265325 1_555
Mg10 Mg12 3.265325 1_545
Mg10 Mg8 3.281400 1_545
Mg10 Mg6 3.281400 1_555
Mg11 Zr0 3.156506 1_656
Mg11 Mg2 3.164258 1_556
Mg11 Mg4 3.164264 1_546
Mg11 Mg9 3.193381 1_655
Mg11 Mg7 3.193381 1_655
Mg11 Mg3 3.195085 1_555
Mg11 Mg5 3.195092 1_545
Mg11 Mg13 3.265325 1_555
Mg11 Mg13 3.265325 1_545
Mg11 Mg9 3.281400 1_545
Mg11 Mg7 3.281400 1_555
Mg12 Mg5 3.168711 1_555
Mg12 Mg3 3.168718 1_555
Mg12 Na0 3.188954 1_655
Mg12 Mg4 3.201193 1_555
Mg12 Mg2 3.201200 1_555
Mg12 Mg6 3.212397 1_555
Mg12 Mg8 3.212397 1_555
Mg12 Mg6 3.262349 1_665
Mg12 Mg8 3.262349 1_655
Mg13 Mg5 3.168711 1_555
Mg13 Mg3 3.168718 1_555
Mg13 Na0 3.188954 1_656
Mg13 Mg4 3.201193 1_556
Mg13 Mg2 3.201200 1_556
Mg13 Mg7 3.212397 1_555
Mg13 Mg9 3.212397 1_555
Mg13 Mg7 3.262349 1_665
Mg13 Mg9 3.262349 1_655
