# generated using pymatgen
data_KSrB(PO4)2
_symmetry_space_group_name_H-M   'P 1'
_cell_length_a   7.11340462
_cell_length_b   7.11340462
_cell_length_c   8.72396611
_cell_angle_alpha   67.26168132
_cell_angle_beta   67.26168132
_cell_angle_gamma   89.81371225
_symmetry_Int_Tables_number   1
_chemical_formula_structural   KSrB(PO4)2
_chemical_formula_sum   'K2 Sr2 B2 P4 O16'
_cell_volume   369.90255920
_cell_formula_units_Z   2
loop_
 _symmetry_equiv_pos_site_id
 _symmetry_equiv_pos_as_xyz
  1  'x, y, z'
loop_
 _atom_site_type_symbol
 _atom_site_label
 _atom_site_symmetry_multiplicity
 _atom_site_fract_x
 _atom_site_fract_y
 _atom_site_fract_z
 _atom_site_occupancy
  K  K0  1  0.51944900  0.37698600  0.24125700  1
  K  K1  1  0.37698600  0.51944900  0.74125600  1
  Sr  Sr0  1  0.23043300  0.86045700  0.26318600  1
  Sr  Sr1  1  0.86045700  0.23043300  0.76318600  1
  B  B0  1  0.73364600  0.01412300  0.50125600  1
  B  B1  1  0.01412300  0.73364600  0.00125600  1
  P  P0  1  0.02843200  0.36498700  0.26046400  1
  P  P1  1  0.72595400  0.88157400  0.23779500  1
  P  P2  1  0.36498700  0.02843200  0.76046400  1
  P  P3  1  0.88157400  0.72595400  0.73779500  1
  O  O0  1  0.10117800  0.49064100  0.34104300  1
  O  O1  1  0.17667900  0.22586100  0.20293900  1
  O  O2  1  0.54805300  0.70377300  0.32401700  1
  O  O3  1  0.68128800  0.08362200  0.11951100  1
  O  O4  1  0.22586100  0.17667900  0.70293900  1
  O  O5  1  0.70377300  0.54805300  0.82401700  1
  O  O6  1  0.08362200  0.68128800  0.61951100  1
  O  O7  1  0.49064100  0.10117800  0.84104300  1
  O  O8  1  0.80234500  0.24000000  0.40287500  1
  O  O9  1  0.97770200  0.50767200  0.09437000  1
  O  O10  1  0.79249500  0.90036000  0.38623400  1
  O  O11  1  0.94448800  0.83780200  0.12505300  1
  O  O12  1  0.50767200  0.97770200  0.59437000  1
  O  O13  1  0.90036000  0.79249500  0.88623400  1
  O  O14  1  0.83780200  0.94448800  0.62505300  1
  O  O15  1  0.24000000  0.80234500  0.90287500  1
loop_
_geom_bond_atom_site_label_1
_geom_bond_atom_site_label_2
_geom_bond_distance
_geom_bond_site_symmetry_2
K0 O2 2.716682 1_555
K0 O3 2.749682 1_555
K0 O8 2.847031 1_555
K0 O1 2.852623 1_555
K0 O0 2.964827 1_555
K0 O9 3.000310 1_555
K0 O5 3.057160 1_554
K1 O5 2.716687 1_555
K1 O6 2.749678 1_555
K1 O15 2.847037 1_555
K1 O4 2.852618 1_555
K1 O7 2.964827 1_555
K1 O12 3.000311 1_555
K1 O2 3.057153 1_555
B0 O10 1.462132 1_545
B0 O12 1.463376 1_545
B0 O14 1.470828 1_545
B0 O8 1.473743 1_555
B1 O13 1.462132 1_454
B1 O9 1.463376 1_455
B1 O11 1.470828 1_455
B1 O15 1.473743 1_554
O0 P0 1.526701 1_555
O0 Sr0 2.525613 1_555
O0 Sr1 3.130015 1_455
O1 P0 1.520321 1_555
O1 Sr0 2.504285 1_545
O2 P1 1.518551 1_555
O2 Sr0 2.661174 1_555
O3 P1 1.528215 1_545
O3 Sr1 2.610464 1_554
O3 Sr0 3.124753 1_545
O4 P2 1.520321 1_555
O4 Sr1 2.504285 1_455
O5 P3 1.518551 1_555
O5 Sr1 2.661174 1_555
O6 P3 1.528215 1_455
O6 Sr0 2.610464 1_555
O6 Sr1 3.124753 1_455
O7 P2 1.526701 1_555
O7 Sr1 2.525613 1_555
O7 Sr0 3.130015 1_546
O8 P0 1.590994 1_655
O9 P0 1.588998 1_655
O10 P1 1.589622 1_555
O10 Sr0 2.929542 1_655
O11 P1 1.591386 1_555
O11 Sr0 2.768141 1_655
O12 P2 1.588998 1_565
O13 P3 1.589622 1_555
O13 Sr1 2.929542 1_565
O14 P3 1.591386 1_555
O14 Sr1 2.768141 1_565
O15 P2 1.590994 1_565
