# generated using pymatgen
data_ZrAl
_symmetry_space_group_name_H-M   'P 1'
_cell_length_a   6.75735646
_cell_length_b   8.52621094
_cell_length_c   11.40750243
_cell_angle_alpha   90.00000000
_cell_angle_beta   107.22832989
_cell_angle_gamma   90.00000000
_symmetry_Int_Tables_number   1
_chemical_formula_structural   ZrAl
_chemical_formula_sum   'Zr16 Al16'
_cell_volume   627.75023226
_cell_formula_units_Z   16
loop_
 _symmetry_equiv_pos_site_id
 _symmetry_equiv_pos_as_xyz
  1  'x, y, z'
loop_
 _atom_site_type_symbol
 _atom_site_label
 _atom_site_symmetry_multiplicity
 _atom_site_fract_x
 _atom_site_fract_y
 _atom_site_fract_z
 _atom_site_occupancy
  Zr  Zr0_0  1  0.42033983  0.12500000  0.34067916  1
  Zr  Zr0_1  1  0.42033983  0.12500000  0.84067916  1
  Zr  Zr0_2  1  0.42033983  0.62500000  0.34067916  1
  Zr  Zr0_3  1  0.42033983  0.62500000  0.84067916  1
  Zr  Zr0_4  1  0.92033983  0.12500000  0.34067916  1
  Zr  Zr0_5  1  0.92033983  0.12500000  0.84067916  1
  Zr  Zr0_6  1  0.92033983  0.62500000  0.34067916  1
  Zr  Zr0_7  1  0.92033983  0.62500000  0.84067916  1
  Zr  Zr1_0  1  0.07966017  0.37500000  0.15932084  1
  Zr  Zr1_1  1  0.07966017  0.37500000  0.65932084  1
  Zr  Zr1_2  1  0.07966017  0.87500000  0.15932084  1
  Zr  Zr1_3  1  0.07966017  0.87500000  0.65932084  1
  Zr  Zr1_4  1  0.57966017  0.37500000  0.15932084  1
  Zr  Zr1_5  1  0.57966017  0.37500000  0.65932084  1
  Zr  Zr1_6  1  0.57966017  0.87500000  0.15932084  1
  Zr  Zr1_7  1  0.57966017  0.87500000  0.65932084  1
  Al  Al0_0  1  0.28563874  0.12500000  0.07127798  1
  Al  Al0_1  1  0.28563873  0.12500000  0.57127797  1
  Al  Al0_2  1  0.28563874  0.62500000  0.07127798  1
  Al  Al0_3  1  0.28563873  0.62500000  0.57127797  1
  Al  Al0_4  1  0.78563873  0.12500000  0.07127797  1
  Al  Al0_5  1  0.78563874  0.12500000  0.57127797  1
  Al  Al0_6  1  0.78563873  0.62500000  0.07127797  1
  Al  Al0_7  1  0.78563874  0.62500000  0.57127797  1
  Al  Al1_0  1  0.21436127  0.37500000  0.42872203  1
  Al  Al1_1  1  0.21436127  0.37500000  0.92872202  1
  Al  Al1_2  1  0.21436127  0.87500000  0.42872203  1
  Al  Al1_3  1  0.21436127  0.87500000  0.92872202  1
  Al  Al1_4  1  0.71436126  0.37500000  0.42872203  1
  Al  Al1_5  1  0.71436126  0.37500000  0.92872202  1
  Al  Al1_6  1  0.71436126  0.87500000  0.42872203  1
  Al  Al1_7  1  0.71436126  0.87500000  0.92872202  1
loop_
_geom_bond_atom_site_label_1
_geom_bond_atom_site_label_2
_geom_bond_distance
_geom_bond_site_symmetry_2
Zr0_0 Zr1_6 3.361849 1_545
Zr0_0 Zr1_4 3.361849 1_555
Zr0_0 Zr1_0 3.361853 1_555
Zr0_0 Zr1_2 3.361853 1_545
Zr0_0 Zr0_4 3.378678 1_555
Zr0_0 Zr0_4 3.378678 1_455
Zr0_1 Zr1_5 3.361849 1_555
Zr0_1 Zr1_7 3.361849 1_545
Zr0_1 Zr1_1 3.361853 1_555
Zr0_1 Zr1_3 3.361853 1_545
Zr0_1 Zr0_5 3.378678 1_555
Zr0_1 Zr0_5 3.378678 1_455
Zr0_2 Zr1_6 3.361849 1_555
Zr0_2 Zr1_4 3.361849 1_555
Zr0_2 Zr1_0 3.361853 1_555
Zr0_2 Zr1_2 3.361853 1_555
Zr0_2 Zr0_6 3.378678 1_555
Zr0_2 Zr0_6 3.378678 1_455
Zr0_3 Zr1_7 3.361849 1_555
Zr0_3 Zr1_5 3.361849 1_555
Zr0_3 Zr1_1 3.361853 1_555
Zr0_3 Zr1_3 3.361853 1_555
Zr0_3 Zr0_7 3.378678 1_555
Zr0_3 Zr0_7 3.378678 1_455
Zr0_4 Zr1_0 3.361849 1_655
Zr0_4 Zr1_2 3.361849 1_645
Zr0_4 Zr1_4 3.361853 1_555
Zr0_4 Zr1_6 3.361853 1_545
Zr0_5 Zr1_3 3.361849 1_645
Zr0_5 Zr1_1 3.361849 1_655
Zr0_5 Zr1_5 3.361853 1_555
Zr0_5 Zr1_7 3.361853 1_545
Zr0_6 Zr1_0 3.361849 1_655
Zr0_6 Zr1_2 3.361849 1_655
Zr0_6 Zr1_4 3.361853 1_555
Zr0_6 Zr1_6 3.361853 1_555
Zr0_7 Zr1_1 3.361849 1_655
Zr0_7 Zr1_3 3.361849 1_655
Zr0_7 Zr1_7 3.361853 1_555
Zr0_7 Zr1_5 3.361853 1_555
Zr1_0 Zr1_4 3.378678 1_555
Zr1_0 Zr1_4 3.378678 1_455
Zr1_1 Zr1_5 3.378678 1_455
Zr1_1 Zr1_5 3.378678 1_555
Zr1_2 Zr1_6 3.378678 1_555
Zr1_2 Zr1_6 3.378678 1_455
Zr1_3 Zr1_7 3.378678 1_455
Zr1_3 Zr1_7 3.378678 1_555
Al0_0 Al1_1 2.637438 1_554
Al0_0 Al1_3 2.637438 1_544
Al0_0 Zr1_2 2.884027 1_545
Al0_0 Zr1_0 2.884027 1_555
Al0_0 Zr1_4 2.884027 1_555
Al0_0 Zr1_6 2.884027 1_545
Al0_0 Zr0_0 2.935307 1_555
Al0_0 Zr0_5 3.027649 1_454
Al0_0 Zr0_1 3.027652 1_554
Al0_1 Al1_0 2.637438 1_555
Al0_1 Al1_2 2.637438 1_545
Al0_1 Zr1_3 2.884027 1_545
Al0_1 Zr1_1 2.884027 1_555
Al0_1 Zr1_5 2.884027 1_555
Al0_1 Zr1_7 2.884027 1_545
Al0_1 Zr0_1 2.935307 1_555
Al0_1 Zr0_4 3.027649 1_455
Al0_1 Zr0_0 3.027652 1_555
Al0_2 Al1_1 2.637438 1_554
Al0_2 Al1_3 2.637438 1_554
Al0_2 Zr1_0 2.884027 1_555
Al0_2 Zr1_2 2.884027 1_555
Al0_2 Zr1_4 2.884027 1_555
Al0_2 Zr1_6 2.884027 1_555
Al0_2 Zr0_2 2.935307 1_555
Al0_2 Zr0_7 3.027649 1_454
Al0_2 Zr0_3 3.027652 1_554
Al0_3 Al1_0 2.637438 1_555
Al0_3 Al1_2 2.637438 1_555
Al0_3 Zr1_3 2.884027 1_555
Al0_3 Zr1_1 2.884027 1_555
Al0_3 Zr1_7 2.884027 1_555
Al0_3 Zr1_5 2.884027 1_555
Al0_3 Zr0_3 2.935307 1_555
Al0_3 Zr0_6 3.027649 1_455
Al0_3 Zr0_2 3.027652 1_555
Al0_4 Al1_5 2.637438 1_554
Al0_4 Al1_7 2.637438 1_544
Al0_4 Zr1_6 2.884027 1_545
Al0_4 Zr1_4 2.884027 1_555
Al0_4 Zr1_2 2.884027 1_645
Al0_4 Zr1_0 2.884027 1_655
Al0_4 Zr0_4 2.935307 1_555
Al0_4 Zr0_1 3.027649 1_554
Al0_4 Zr0_5 3.027652 1_554
Al0_5 Al1_6 2.637438 1_545
Al0_5 Al1_4 2.637438 1_555
Al0_5 Zr1_5 2.884027 1_555
Al0_5 Zr1_7 2.884027 1_545
Al0_5 Zr1_1 2.884027 1_655
Al0_5 Zr1_3 2.884027 1_645
Al0_5 Zr0_5 2.935307 1_555
Al0_5 Zr0_0 3.027649 1_555
Al0_5 Zr0_4 3.027652 1_555
Al0_6 Al1_7 2.637438 1_554
Al0_6 Al1_5 2.637438 1_554
Al0_6 Zr1_6 2.884027 1_555
Al0_6 Zr1_4 2.884027 1_555
Al0_6 Zr1_2 2.884027 1_655
Al0_6 Zr1_0 2.884027 1_655
Al0_6 Zr0_6 2.935307 1_555
Al0_6 Zr0_3 3.027649 1_554
Al0_6 Zr0_7 3.027652 1_554
Al0_7 Al1_4 2.637438 1_555
Al0_7 Al1_6 2.637438 1_555
Al0_7 Zr1_7 2.884027 1_555
Al0_7 Zr1_5 2.884027 1_555
Al0_7 Zr1_1 2.884027 1_655
Al0_7 Zr1_3 2.884027 1_655
Al0_7 Zr0_7 2.935307 1_555
Al0_7 Zr0_2 3.027649 1_555
Al0_7 Zr0_6 3.027652 1_555
Al1_0 Zr0_2 2.884027 1_555
Al1_0 Zr0_0 2.884027 1_555
Al1_0 Zr0_4 2.884027 1_455
Al1_0 Zr0_6 2.884027 1_455
Al1_0 Zr1_0 2.935307 1_555
Al1_0 Zr1_5 3.027649 1_555
Al1_0 Zr1_1 3.027652 1_555
Al1_1 Zr0_3 2.884027 1_555
Al1_1 Zr0_1 2.884027 1_555
Al1_1 Zr0_7 2.884027 1_455
Al1_1 Zr0_5 2.884027 1_455
Al1_1 Zr1_1 2.935307 1_555
Al1_1 Zr1_4 3.027649 1_556
Al1_1 Zr1_0 3.027652 1_556
Al1_2 Zr0_0 2.884027 1_565
Al1_2 Zr0_2 2.884027 1_555
Al1_2 Zr0_4 2.884027 1_465
Al1_2 Zr0_6 2.884027 1_455
Al1_2 Zr1_2 2.935307 1_555
Al1_2 Zr1_7 3.027649 1_555
Al1_2 Zr1_3 3.027652 1_555
Al1_3 Zr0_1 2.884027 1_565
Al1_3 Zr0_3 2.884027 1_555
Al1_3 Zr0_7 2.884027 1_455
Al1_3 Zr0_5 2.884027 1_465
Al1_3 Zr1_3 2.935307 1_555
Al1_3 Zr1_6 3.027649 1_556
Al1_3 Zr1_2 3.027652 1_556
Al1_4 Zr0_6 2.884027 1_555
Al1_4 Zr0_4 2.884027 1_555
Al1_4 Zr0_2 2.884027 1_555
Al1_4 Zr0_0 2.884027 1_555
Al1_4 Zr1_4 2.935307 1_555
Al1_4 Zr1_1 3.027649 1_655
Al1_4 Zr1_5 3.027652 1_555
Al1_5 Zr0_5 2.884027 1_555
Al1_5 Zr0_7 2.884027 1_555
Al1_5 Zr0_1 2.884027 1_555
Al1_5 Zr0_3 2.884027 1_555
Al1_5 Zr1_5 2.935307 1_555
Al1_5 Zr1_0 3.027649 1_656
Al1_5 Zr1_4 3.027652 1_556
Al1_6 Zr0_6 2.884027 1_555
Al1_6 Zr0_4 2.884027 1_565
Al1_6 Zr0_0 2.884027 1_565
Al1_6 Zr0_2 2.884027 1_555
Al1_6 Zr1_6 2.935307 1_555
Al1_6 Zr1_3 3.027649 1_655
Al1_6 Zr1_7 3.027652 1_555
Al1_7 Zr0_5 2.884027 1_565
Al1_7 Zr0_7 2.884027 1_555
Al1_7 Zr0_3 2.884027 1_555
Al1_7 Zr0_1 2.884027 1_565
Al1_7 Zr1_7 2.935307 1_555
Al1_7 Zr1_2 3.027649 1_656
Al1_7 Zr1_6 3.027652 1_556
