# generated using pymatgen
data_Li2CoO3
_symmetry_space_group_name_H-M   'P 1'
_cell_length_a   5.06898140
_cell_length_b   8.46081364
_cell_length_c   5.13167560
_cell_angle_alpha   89.58578103
_cell_angle_beta   68.75594464
_cell_angle_gamma   90.51816168
_symmetry_Int_Tables_number   1
_chemical_formula_structural   Li2CoO3
_chemical_formula_sum   'Li8 Co4 O12'
_cell_volume   205.10855005
_cell_formula_units_Z   4
loop_
 _symmetry_equiv_pos_site_id
 _symmetry_equiv_pos_as_xyz
  1  'x, y, z'
loop_
 _atom_site_type_symbol
 _atom_site_label
 _atom_site_symmetry_multiplicity
 _atom_site_fract_x
 _atom_site_fract_y
 _atom_site_fract_z
 _atom_site_occupancy
  Li  Li0  1  0.50229900  0.33572700  0.50084100  1
  Li  Li1  1  0.99822500  0.83119300  0.49926500  1
  Li  Li2  1  0.50002900  0.83214400  0.00589100  1
  Li  Li3  1  0.99944100  0.33453200  0.99369700  1
  Li  Li4  1  0.49604200  0.66809400  0.49686100  1
  Li  Li5  1  0.99996100  0.17294600  0.49924500  1
  Li  Li6  1  0.50015300  0.99374000  0.50064000  1
  Li  Li7  1  0.00338600  0.49828700  0.50323200  1
  Co  Co0  1  0.99721600  0.00531900  0.00287600  1
  Co  Co1  1  0.50319400  0.16148600  0.99683700  1
  Co  Co2  1  0.49869000  0.50408000  0.98980800  1
  Co  Co3  1  0.00133200  0.66258000  0.01066700  1
  O  O0  1  0.77991300  0.83687800  0.23158100  1
  O  O1  1  0.29666100  0.33474400  0.21575300  1
  O  O2  1  0.20358200  0.83195500  0.78425900  1
  O  O3  1  0.72057800  0.32966600  0.76817200  1
  O  O4  1  0.74583800  0.15296500  0.21681900  1
  O  O5  1  0.26273900  0.65331600  0.23119800  1
  O  O6  1  0.24178300  0.01559700  0.22098500  1
  O  O7  1  0.77173900  0.51557800  0.23177900  1
  O  O8  1  0.25848600  0.15131100  0.77877400  1
  O  O9  1  0.72764300  0.65086400  0.76828800  1
  O  O10  1  0.75435800  0.01356900  0.78301600  1
  O  O11  1  0.23671900  0.51343000  0.76951600  1
loop_
_geom_bond_atom_site_label_1
_geom_bond_atom_site_label_2
_geom_bond_distance
_geom_bond_site_symmetry_2
Li0 O3 2.051549 1_555
Li0 O1 2.081361 1_555
Li0 O8 2.156791 1_555
Li0 O7 2.157028 1_555
Li0 O11 2.166867 1_555
Li0 O4 2.191484 1_555
Li1 O0 2.053168 1_555
Li1 O2 2.079851 1_655
Li1 O6 2.157096 1_665
Li1 O9 2.162049 1_555
Li1 O5 2.164465 1_655
Li1 O10 2.189048 1_565
Li2 O5 2.001702 1_555
Li2 O10 2.048570 1_564
Li2 O9 2.051809 1_554
Li2 O6 2.087002 1_565
Li2 O0 2.132165 1_555
Li2 O2 2.188636 1_554
Li3 O11 2.000080 1_655
Li3 O4 2.048329 1_556
Li3 O7 2.051444 1_556
Li3 O8 2.087052 1_655
Li3 O3 2.127060 1_555
Li3 O1 2.193736 1_656
Li4 O11 2.001891 1_555
Li4 O7 2.036902 1_555
Li4 O5 2.107351 1_555
Li4 O0 2.116189 1_555
Li4 O9 2.127147 1_555
Li4 O2 2.185692 1_555
Li5 O6 2.025460 1_655
Li5 O10 2.028862 1_555
Li5 O3 2.076640 1_555
Li5 O1 2.144930 1_655
Li5 O4 2.267368 1_555
Li5 O8 2.274039 1_655
Li6 O8 2.026119 1_565
Li6 O4 2.028292 1_565
Li6 O0 2.078561 1_555
Li6 O2 2.144841 1_555
Li6 O10 2.267389 1_565
Li6 O6 2.274102 1_565
Li7 O5 2.002487 1_555
Li7 O9 2.037284 1_455
Li7 O11 2.110368 1_555
Li7 O3 2.112216 1_455
Li7 O7 2.127480 1_455
Li7 O1 2.185957 1_555
Co0 O4 1.850500 1_555
Co0 O8 1.856986 1_654
Co0 O0 1.905876 1_545
Co0 O2 1.924953 1_644
Co0 O10 1.949418 1_554
Co0 O6 1.949919 1_655
Co1 O10 1.851335 1_555
Co1 O6 1.856845 1_556
Co1 O3 1.904308 1_555
Co1 O1 1.925150 1_556
Co1 O4 1.949098 1_556
Co1 O8 1.950294 1_555
Co2 O9 1.782958 1_555
Co2 O1 1.880099 1_556
Co2 O5 1.880299 1_556
Co2 O3 1.965588 1_555
Co2 O11 2.033737 1_555
Co2 O7 2.170663 1_556
Co3 O7 1.784740 1_455
Co3 O11 1.878119 1_554
Co3 O2 1.881683 1_554
Co3 O0 1.962569 1_455
Co3 O5 2.032237 1_555
Co3 O9 2.175165 1_454
