# generated using pymatgen
data_LaCrSnO6
_symmetry_space_group_name_H-M   'P 1'
_cell_length_a   5.50023100
_cell_length_b   5.52325690
_cell_length_c   5.53378500
_cell_angle_alpha   90.54868195
_cell_angle_beta   119.68367438
_cell_angle_gamma   119.60083727
_symmetry_Int_Tables_number   1
_chemical_formula_structural   LaCrSnO6
_chemical_formula_sum   'La1 Cr1 Sn1 O6'
_cell_volume   119.58396466
_cell_formula_units_Z   1
loop_
 _symmetry_equiv_pos_site_id
 _symmetry_equiv_pos_as_xyz
  1  'x, y, z'
loop_
 _atom_site_type_symbol
 _atom_site_label
 _atom_site_symmetry_multiplicity
 _atom_site_fract_x
 _atom_site_fract_y
 _atom_site_fract_z
 _atom_site_occupancy
  La  La0  1  0.98571900  0.24244300  0.24817500  1
  Cr  Cr0  1  0.49534600  0.00476400  0.50137000  1
  Sn  Sn0  1  0.49102800  0.50049500  0.99783800  1
  O  O0  1  0.40824800  0.67553900  0.25308200  1
  O  O1  1  0.49764300  0.80035300  0.77019000  1
  O  O2  1  0.51643200  0.20965900  0.21688300  1
  O  O3  1  0.01271900  0.80952800  0.26920100  1
  O  O4  1  0.96270000  0.20363100  0.68962500  1
  O  O5  1  0.52851600  0.29335300  0.71180900  1
loop_
_geom_bond_atom_site_label_1
_geom_bond_atom_site_label_2
_geom_bond_distance
_geom_bond_site_symmetry_2
La0 O0 2.359683 1_655
La0 O2 2.412525 1_555
La0 O3 2.468192 1_645
La0 O4 2.513810 1_555
La0 O1 2.556000 1_544
La0 O5 2.673074 1_655
Cr0 O5 1.843046 1_555
Cr0 O4 1.853638 1_555
Cr0 O1 1.874942 1_545
Cr0 O3 1.904695 1_545
Cr0 O2 1.964141 1_555
Cr0 O0 1.965581 1_545
O0 Sn0 2.045181 1_554
O1 Sn0 2.087368 1_555
O2 Sn0 2.039732 1_554
O3 Sn0 2.060762 1_454
O4 Sn0 2.091027 1_655
O5 Sn0 2.092466 1_555
