# generated using pymatgen
data_Pr3(GeRh)2
_symmetry_space_group_name_H-M   'P 1'
_cell_length_a   5.72625261
_cell_length_b   8.11721143
_cell_length_c   13.54166448
_cell_angle_alpha   90.00000000
_cell_angle_beta   90.00000000
_cell_angle_gamma   90.00000000
_symmetry_Int_Tables_number   1
_chemical_formula_structural   Pr3(GeRh)2
_chemical_formula_sum   'Pr12 Ge8 Rh8'
_cell_volume   629.43285751
_cell_formula_units_Z   4
loop_
 _symmetry_equiv_pos_site_id
 _symmetry_equiv_pos_as_xyz
  1  'x, y, z'
loop_
 _atom_site_type_symbol
 _atom_site_label
 _atom_site_symmetry_multiplicity
 _atom_site_fract_x
 _atom_site_fract_y
 _atom_site_fract_z
 _atom_site_occupancy
  Pr  Pr0  1  0.64015423  0.25011451  0.25000000  1
  Pr  Pr1  1  0.35984577  0.74988549  0.75000000  1
  Pr  Pr2  1  0.35984577  0.75011451  0.25000000  1
  Pr  Pr3  1  0.64015423  0.24988549  0.75000000  1
  Pr  Pr4  1  0.14407652  0.39071179  0.09918632  1
  Pr  Pr5  1  0.85592348  0.60928821  0.90081368  1
  Pr  Pr6  1  0.85592348  0.60928821  0.59918632  1
  Pr  Pr7  1  0.85592348  0.89071179  0.40081368  1
  Pr  Pr8  1  0.14407652  0.39071179  0.40081368  1
  Pr  Pr9  1  0.14407652  0.10928821  0.59918632  1
  Pr  Pr10  1  0.14407652  0.10928821  0.90081368  1
  Pr  Pr11  1  0.85592348  0.89071179  0.09918632  1
  Ge  Ge0  1  0.14760752  0.10363749  0.25000000  1
  Ge  Ge1  1  0.85239248  0.89636251  0.75000000  1
  Ge  Ge2  1  0.85239248  0.60363749  0.25000000  1
  Ge  Ge3  1  0.14760752  0.39636251  0.75000000  1
  Ge  Ge4  1  0.64694404  0.25000000  -0.00000000  1
  Ge  Ge5  1  0.35305596  0.75000000  -0.00000000  1
  Ge  Ge6  1  0.35305596  0.75000000  0.50000000  1
  Ge  Ge7  1  0.64694404  0.25000000  0.50000000  1
  Rh  Rh0  1  0.38026814  0.03780662  0.09086031  1
  Rh  Rh1  1  0.61973186  0.96219338  0.90913969  1
  Rh  Rh2  1  0.61973186  0.96219338  0.59086031  1
  Rh  Rh3  1  0.61973186  0.53780662  0.40913969  1
  Rh  Rh4  1  0.38026814  0.03780662  0.40913969  1
  Rh  Rh5  1  0.38026814  0.46219338  0.59086031  1
  Rh  Rh6  1  0.38026814  0.46219338  0.90913969  1
  Rh  Rh7  1  0.61973186  0.53780662  0.09086031  1
loop_
_geom_bond_atom_site_label_1
_geom_bond_atom_site_label_2
_geom_bond_distance
_geom_bond_site_symmetry_2
Pr0 Rh0 3.135073 1_555
Pr0 Rh4 3.135073 1_555
Pr0 Rh3 3.179811 1_555
Pr0 Rh7 3.179811 1_555
Pr1 Rh2 3.135073 1_555
Pr1 Rh1 3.135073 1_555
Pr1 Rh5 3.179811 1_555
Pr1 Rh6 3.179811 1_555
Pr2 Rh7 3.135073 1_555
Pr2 Rh3 3.135073 1_555
Pr2 Rh4 3.179811 1_565
Pr2 Rh0 3.179811 1_565
Pr3 Rh5 3.135073 1_555
Pr3 Rh6 3.135073 1_555
Pr3 Rh2 3.179811 1_545
Pr3 Rh1 3.179811 1_545
Pr4 Rh6 2.964634 1_554
Pr4 Rh7 2.976073 1_555
Pr4 Rh0 3.169845 1_555
Pr4 Rh7 3.233193 1_455
Pr5 Rh7 2.964634 1_556
Pr5 Rh6 2.976073 1_555
Pr5 Rh1 3.169845 1_555
Pr5 Rh6 3.233193 1_655
Pr6 Rh3 2.964634 1_555
Pr6 Rh5 2.976073 1_555
Pr6 Rh2 3.169845 1_555
Pr6 Rh5 3.233193 1_655
Pr7 Rh2 2.964634 1_555
Pr7 Rh4 2.976073 1_565
Pr7 Rh3 3.169845 1_555
Pr7 Rh4 3.233193 1_665
Pr8 Rh5 2.964634 1_555
Pr8 Rh3 2.976073 1_555
Pr8 Rh4 3.169845 1_555
Pr8 Rh3 3.233193 1_455
Pr9 Rh4 2.964634 1_555
Pr9 Rh2 2.976073 1_545
Pr9 Rh5 3.169845 1_555
Pr9 Rh2 3.233193 1_445
Pr10 Rh0 2.964634 1_556
Pr10 Rh1 2.976073 1_545
Pr10 Rh6 3.169845 1_555
Pr10 Rh1 3.233193 1_445
Pr11 Rh1 2.964634 1_554
Pr11 Rh0 2.976073 1_565
Pr11 Rh7 3.169845 1_555
Pr11 Rh0 3.233193 1_665
Ge0 Rh0 2.589323 1_555
Ge0 Rh4 2.589323 1_555
Ge0 Pr0 3.060818 1_555
Ge0 Pr4 3.098596 1_555
Ge0 Pr8 3.098596 1_555
Ge0 Pr2 3.116368 1_545
Ge0 Pr0 3.139648 1_455
Ge0 Pr7 3.154022 1_445
Ge0 Pr11 3.154022 1_445
Ge1 Rh2 2.589323 1_555
Ge1 Rh1 2.589323 1_555
Ge1 Pr1 3.060818 1_555
Ge1 Pr6 3.098596 1_555
Ge1 Pr5 3.098596 1_555
Ge1 Pr3 3.116368 1_565
Ge1 Pr1 3.139648 1_655
Ge1 Pr9 3.154022 1_665
Ge1 Pr10 3.154022 1_665
Ge2 Rh7 2.589323 1_555
Ge2 Rh3 2.589323 1_555
Ge2 Pr2 3.060818 1_555
Ge2 Pr7 3.098596 1_555
Ge2 Pr11 3.098596 1_555
Ge2 Pr0 3.116368 1_555
Ge2 Pr2 3.139648 1_655
Ge2 Pr8 3.154022 1_655
Ge2 Pr4 3.154022 1_655
Ge3 Rh5 2.589323 1_555
Ge3 Rh6 2.589323 1_555
Ge3 Pr3 3.060818 1_555
Ge3 Pr9 3.098596 1_555
Ge3 Pr10 3.098596 1_555
Ge3 Pr1 3.116368 1_555
Ge3 Pr3 3.139648 1_455
Ge3 Pr6 3.154022 1_455
Ge3 Pr5 3.154022 1_455
Ge4 Rh6 2.610077 1_554
Ge4 Rh0 2.610077 1_555
Ge4 Rh1 2.644983 1_544
Ge4 Rh7 2.644983 1_555
Ge4 Pr10 3.348488 1_654
Ge4 Pr4 3.348488 1_655
Ge4 Pr10 3.376452 1_554
Ge4 Pr4 3.376452 1_555
Ge4 Pr0 3.385640 1_555
Ge4 Pr3 3.385640 1_554
Ge4 Pr5 3.426596 1_554
Ge4 Pr11 3.426596 1_545
Ge5 Rh1 2.610077 1_554
Ge5 Rh7 2.610077 1_555
Ge5 Rh6 2.644983 1_554
Ge5 Rh0 2.644983 1_565
Ge5 Pr5 3.348488 1_454
Ge5 Pr11 3.348488 1_455
Ge5 Pr5 3.376452 1_554
Ge5 Pr11 3.376452 1_555
Ge5 Pr1 3.385640 1_554
Ge5 Pr2 3.385640 1_555
Ge5 Pr10 3.426596 1_564
Ge5 Pr4 3.426596 1_555
Ge6 Rh3 2.610077 1_555
Ge6 Rh2 2.610077 1_555
Ge6 Rh4 2.644983 1_565
Ge6 Rh5 2.644983 1_555
Ge6 Pr7 3.348488 1_455
Ge6 Pr6 3.348488 1_455
Ge6 Pr7 3.376452 1_555
Ge6 Pr6 3.376452 1_555
Ge6 Pr1 3.385640 1_555
Ge6 Pr2 3.385640 1_555
Ge6 Pr9 3.426596 1_565
Ge6 Pr8 3.426596 1_555
Ge7 Rh4 2.610077 1_555
Ge7 Rh5 2.610077 1_555
Ge7 Rh2 2.644983 1_545
Ge7 Rh3 2.644983 1_555
Ge7 Pr8 3.348488 1_655
Ge7 Pr9 3.348488 1_655
Ge7 Pr8 3.376452 1_555
Ge7 Pr9 3.376452 1_555
Ge7 Pr0 3.385640 1_555
Ge7 Pr3 3.385640 1_555
Ge7 Pr7 3.426596 1_545
Ge7 Pr6 3.426596 1_555
