# generated using pymatgen
data_Co3B7O13F
_symmetry_space_group_name_H-M   'P 1'
_cell_length_a   8.63433637
_cell_length_b   8.63433637
_cell_length_c   8.63433671
_cell_angle_alpha   59.47842676
_cell_angle_beta   59.47842676
_cell_angle_gamma   59.47842891
_symmetry_Int_Tables_number   1
_chemical_formula_structural   Co3B7O13F
_chemical_formula_sum   'Co6 B14 O26 F2'
_cell_volume   449.76830514
_cell_formula_units_Z   2
loop_
 _symmetry_equiv_pos_site_id
 _symmetry_equiv_pos_as_xyz
  1  'x, y, z'
loop_
 _atom_site_type_symbol
 _atom_site_label
 _atom_site_symmetry_multiplicity
 _atom_site_fract_x
 _atom_site_fract_y
 _atom_site_fract_z
 _atom_site_occupancy
  Co  Co0  1  0.96737700  0.96630300  0.54645400  1
  Co  Co1  1  0.54645400  0.96737700  0.96630300  1
  Co  Co2  1  0.96630300  0.54645400  0.96737700  1
  Co  Co3  1  0.04645400  0.46630300  0.46737700  1
  Co  Co4  1  0.46737700  0.04645400  0.46630300  1
  Co  Co5  1  0.46630300  0.46737700  0.04645400  1
  B  B0  1  0.74957800  0.25701400  0.75118400  1
  B  B1  1  0.75118400  0.74957800  0.25701400  1
  B  B2  1  0.25701400  0.75118400  0.74957800  1
  B  B3  1  0.25118400  0.75701400  0.24957800  1
  B  B4  1  0.24957800  0.25118400  0.75701400  1
  B  B5  1  0.75701400  0.24957800  0.25118400  1
  B  B6  1  0.57670700  0.26943400  0.57687500  1
  B  B7  1  0.57687500  0.57670700  0.26943400  1
  B  B8  1  0.26943400  0.57687500  0.57670700  1
  B  B9  1  0.07687500  0.76943400  0.07670700  1
  B  B10  1  0.07670700  0.07687500  0.76943400  1
  B  B11  1  0.76943400  0.07670700  0.07687500  1
  B  B12  1  0.60579900  0.60579900  0.60579900  1
  B  B13  1  0.10579900  0.10579900  0.10579900  1
  O  O0  1  0.49165300  0.49165300  0.49165300  1
  O  O1  1  0.99165300  0.99165300  0.99165300  1
  O  O2  1  0.44791500  0.77014700  0.60714800  1
  O  O3  1  0.60714800  0.44791500  0.77014700  1
  O  O4  1  0.77014700  0.60714800  0.44791500  1
  O  O5  1  0.10714800  0.27014700  0.94791500  1
  O  O6  1  0.94791500  0.10714800  0.27014700  1
  O  O7  1  0.27014700  0.94791500  0.10714800  1
  O  O8  1  0.75838300  0.43898800  0.20150500  1
  O  O9  1  0.20150500  0.75838300  0.43898800  1
  O  O10  1  0.43898800  0.20150500  0.75838300  1
  O  O11  1  0.70150500  0.93898800  0.25838300  1
  O  O12  1  0.25838300  0.70150500  0.93898800  1
  O  O13  1  0.93898800  0.25838300  0.70150500  1
  O  O14  1  0.61470400  0.19209000  0.43928500  1
  O  O15  1  0.43928500  0.61470400  0.19209000  1
  O  O16  1  0.19209000  0.43928500  0.61470400  1
  O  O17  1  0.93928500  0.69209000  0.11470400  1
  O  O18  1  0.11470400  0.93928500  0.69209000  1
  O  O19  1  0.69209000  0.11470400  0.93928500  1
  O  O20  1  0.21570900  0.60376200  0.75337700  1
  O  O21  1  0.75337700  0.21570900  0.60376200  1
  O  O22  1  0.60376200  0.75337700  0.21570900  1
  O  O23  1  0.25337700  0.10376200  0.71570900  1
  O  O24  1  0.71570900  0.25337700  0.10376200  1
  O  O25  1  0.10376200  0.71570900  0.25337700  1
  F  F0  1  0.79640700  0.79640700  0.79640700  1
  F  F1  1  0.29640700  0.29640700  0.29640700  1
loop_
_geom_bond_atom_site_label_1
_geom_bond_atom_site_label_2
_geom_bond_distance
_geom_bond_site_symmetry_2
Co0 O9 2.066646 1_655
Co0 O18 2.068619 1_655
Co0 O21 2.099623 1_565
Co0 O6 2.109873 1_565
Co0 F0 2.176392 1_555
Co1 O10 2.066646 1_565
Co1 O19 2.068619 1_565
Co1 O22 2.099623 1_556
Co1 O7 2.109872 1_556
Co1 F0 2.176392 1_555
Co2 O8 2.066646 1_556
Co2 O17 2.068619 1_556
Co2 O20 2.099623 1_655
Co2 O5 2.109873 1_655
Co2 F0 2.176392 1_555
Co3 O13 2.066646 1_455
Co3 O16 2.068619 1_555
Co3 O25 2.099623 1_555
Co3 O4 2.109873 1_455
Co3 F1 2.176392 1_555
Co4 O11 2.066646 1_545
Co4 O14 2.068619 1_555
Co4 O23 2.099623 1_555
Co4 O2 2.109872 1_545
Co4 F1 2.176392 1_555
Co5 O12 2.066646 1_554
Co5 O15 2.068619 1_555
Co5 O24 2.099623 1_555
Co5 O3 2.109873 1_554
Co5 F1 2.176392 1_555
B0 O21 1.468105 1_555
B0 O13 1.469935 1_555
B0 O19 1.472289 1_555
B0 O3 1.505574 1_555
B1 O22 1.468105 1_555
B1 O11 1.469935 1_555
B1 O17 1.472289 1_555
B1 O4 1.505574 1_555
B2 O20 1.468105 1_555
B2 O12 1.469935 1_555
B2 O18 1.472289 1_555
B2 O2 1.505574 1_555
B3 O25 1.468105 1_555
B3 O9 1.469935 1_555
B3 O15 1.472289 1_555
B3 O7 1.505574 1_555
B4 O23 1.468105 1_555
B4 O10 1.469935 1_555
B4 O16 1.472289 1_555
B4 O5 1.505574 1_555
B5 O24 1.468105 1_555
B5 O8 1.469935 1_555
B5 O14 1.472289 1_555
B5 O6 1.505574 1_555
B6 O10 1.447752 1_555
B6 O21 1.458623 1_555
B6 O14 1.467093 1_555
B6 O0 1.563915 1_555
B7 O8 1.447752 1_555
B7 O22 1.458623 1_555
B7 O15 1.467093 1_555
B7 O0 1.563915 1_555
B8 O9 1.447752 1_555
B8 O20 1.458624 1_555
B8 O16 1.467093 1_555
B8 O0 1.563915 1_555
B9 O12 1.447752 1_554
B9 O25 1.458624 1_555
B9 O17 1.467093 1_455
B9 O1 1.563915 1_454
B10 O13 1.447752 1_455
B10 O23 1.458623 1_555
B10 O18 1.467093 1_545
B10 O1 1.563915 1_445
B11 O11 1.447752 1_545
B11 O24 1.458623 1_555
B11 O19 1.467093 1_554
B11 O1 1.563915 1_544
B12 O4 1.381287 1_555
B12 O3 1.381287 1_555
B12 O2 1.381287 1_555
B13 O5 1.381287 1_554
B13 O6 1.381287 1_455
B13 O7 1.381287 1_545
