# generated using pymatgen
data_Li7Fe5O16
_symmetry_space_group_name_H-M   'P 1'
_cell_length_a   5.75519200
_cell_length_b   5.93128889
_cell_length_c   9.43437737
_cell_angle_alpha   92.70974490
_cell_angle_beta   90.39410384
_cell_angle_gamma   118.80258815
_symmetry_Int_Tables_number   1
_chemical_formula_structural   Li7Fe5O16
_chemical_formula_sum   'Li7 Fe5 O16'
_cell_volume   281.72941420
_cell_formula_units_Z   1
loop_
 _symmetry_equiv_pos_site_id
 _symmetry_equiv_pos_as_xyz
  1  'x, y, z'
loop_
 _atom_site_type_symbol
 _atom_site_label
 _atom_site_symmetry_multiplicity
 _atom_site_fract_x
 _atom_site_fract_y
 _atom_site_fract_z
 _atom_site_occupancy
  Li  Li0  1  0.82332000  0.16796600  0.78494000  1
  Li  Li1  1  0.67608700  0.34569300  0.09750500  1
  Li  Li2  1  0.00107400  0.00551500  0.99892900  1
  Li  Li3  1  0.00539400  0.01398200  0.52266600  1
  Li  Li4  1  0.34536800  0.16837900  0.78484700  1
  Li  Li5  1  0.17424400  0.34869200  0.28565100  1
  Li  Li6  1  0.33573100  0.67006400  0.59961100  1
  Fe  Fe0  1  0.64137300  0.28565000  0.52411600  1
  Fe  Fe1  1  0.81912200  0.64029900  0.78593900  1
  Fe  Fe2  1  0.33009800  0.65818900  0.01339500  1
  Fe  Fe3  1  0.66468800  0.83333200  0.28534800  1
  Fe  Fe4  1  0.17127100  0.83540400  0.28666100  1
  O  O0  1  0.81758500  0.15633800  0.40765100  1
  O  O1  1  0.51781800  0.03413300  0.64199500  1
  O  O2  1  0.68458400  0.36612200  0.89361200  1
  O  O3  1  0.97940400  0.95840800  0.71602200  1
  O  O4  1  0.99182800  0.99215300  0.19619200  1
  O  O5  1  0.33363800  0.15265700  0.40803800  1
  O  O6  1  0.95233100  0.48320700  0.64423200  1
  O  O7  1  0.52816300  0.48145000  0.64652600  1
  O  O8  1  0.17321200  0.34624800  0.92285100  1
  O  O9  1  0.83050500  0.68638400  0.39400500  1
  O  O10  1  0.50698100  0.54943000  0.15392200  1
  O  O11  1  0.04746000  0.55392500  0.15308700  1
  O  O12  1  0.35278300  0.69634500  0.38815200  1
  O  O13  1  0.64548000  0.80069900  0.89981400  1
  O  O14  1  0.49497600  0.96738800  0.15570900  1
  O  O15  1  0.15578200  0.80195100  0.90074300  1
loop_
_geom_bond_atom_site_label_1
_geom_bond_atom_site_label_2
_geom_bond_distance
_geom_bond_site_symmetry_2
Li0 O3 1.944764 1_545
Li0 O2 1.967648 1_555
Li0 O1 2.015312 1_555
Li0 O8 2.155937 1_655
Li0 O6 2.172587 1_555
Li0 O13 2.248886 1_545
Li1 O2 1.932601 1_554
Li1 O11 1.936040 1_655
Li1 O10 1.941738 1_555
Li1 O14 2.072078 1_545
Li2 O4 1.866515 1_446
Li2 O8 1.949022 1_555
Li2 O13 2.002259 1_445
Li2 O15 2.012494 1_545
Li3 O3 1.863279 1_445
Li3 O0 2.002140 1_455
Li3 O5 2.007423 1_555
Li3 O9 2.034130 1_445
Li4 O3 1.945732 1_445
Li4 O2 1.972852 1_555
Li4 O1 2.028253 1_555
Li4 O7 2.150224 1_555
Li4 O8 2.164467 1_555
Li4 O15 2.250719 1_545
Li5 O4 1.991570 1_445
Li5 O12 1.999771 1_555
Li5 O11 2.136736 1_555
Li5 O10 2.145893 1_555
Li5 O5 2.160290 1_555
Li5 O0 2.177122 1_455
Li6 O1 1.911320 1_565
Li6 O7 1.976840 1_555
Li6 O6 1.993690 1_455
Li6 O12 2.007797 1_555
Fe0 O1 1.764521 1_555
Fe0 O5 1.871814 1_555
Fe0 O0 1.873284 1_555
Fe0 O6 1.919860 1_555
Fe0 O7 1.928626 1_555
Fe0 O9 2.478382 1_555
Fe1 O2 1.797146 1_555
Fe1 O3 1.815205 1_555
Fe1 O7 1.937514 1_555
Fe1 O6 1.956501 1_555
Fe1 O13 1.972885 1_555
Fe1 O15 1.982260 1_655
Fe2 O8 1.788418 1_554
Fe2 O15 1.938659 1_554
Fe2 O13 1.947125 1_554
Fe2 O11 1.975476 1_555
Fe2 O10 1.976164 1_555
Fe2 O14 2.034517 1_555
Fe3 O10 1.873800 1_555
Fe3 O12 1.875155 1_555
Fe3 O4 1.878127 1_555
Fe3 O9 1.895714 1_555
Fe3 O14 1.976349 1_555
Fe3 O0 1.982094 1_565
Fe4 O11 1.877644 1_555
Fe4 O12 1.891964 1_555
Fe4 O4 1.909844 1_455
Fe4 O5 1.952575 1_565
Fe4 O9 2.023535 1_455
Fe4 O14 2.080309 1_555
