# generated using pymatgen
data_KGdSnWO6
_symmetry_space_group_name_H-M   'P 1'
_cell_length_a   5.98103085
_cell_length_b   5.98103085
_cell_length_c   8.42634286
_cell_angle_alpha   90.00000000
_cell_angle_beta   90.00000000
_cell_angle_gamma   90.00000000
_symmetry_Int_Tables_number   1
_chemical_formula_structural   KGdSnWO6
_chemical_formula_sum   'K2 Gd2 Sn2 W2 O12'
_cell_volume   301.43328826
_cell_formula_units_Z   2
loop_
 _symmetry_equiv_pos_site_id
 _symmetry_equiv_pos_as_xyz
  1  'x, y, z'
loop_
 _atom_site_type_symbol
 _atom_site_label
 _atom_site_symmetry_multiplicity
 _atom_site_fract_x
 _atom_site_fract_y
 _atom_site_fract_z
 _atom_site_occupancy
  K  K0  1  -0.00000000  -0.00000000  0.25000000  1
  K  K1  1  -0.00000000  0.00000000  0.75000000  1
  Gd  Gd0  1  0.50000000  0.00000000  0.50000000  1
  Gd  Gd1  1  0.00000000  0.50000000  0.00000000  1
  Sn  Sn0  1  0.50000000  0.50000000  0.75000000  1
  Sn  Sn1  1  0.50000000  0.50000000  0.25000000  1
  W  W0  1  0.50000000  0.00000000  0.00000000  1
  W  W1  1  -0.00000000  0.50000000  0.50000000  1
  O  O0  1  0.27576284  0.76171692  0.00000000  1
  O  O1  1  0.72423716  0.23828308  0.00000000  1
  O  O2  1  0.23828308  0.72423716  0.50000000  1
  O  O3  1  0.76171692  0.27576284  0.50000000  1
  O  O4  1  0.72423716  0.76171692  0.00000000  1
  O  O5  1  0.76171692  0.72423716  0.50000000  1
  O  O6  1  0.27576284  0.23828308  0.00000000  1
  O  O7  1  0.23828308  0.27576284  0.50000000  1
  O  O8  1  0.50000000  0.00000000  0.76909736  1
  O  O9  1  -0.00000000  0.50000000  0.73090264  1
  O  O10  1  0.50000000  0.00000000  0.23090264  1
  O  O11  1  -0.00000000  0.50000000  0.26909736  1
loop_
_geom_bond_atom_site_label_1
_geom_bond_atom_site_label_2
_geom_bond_distance
_geom_bond_site_symmetry_2
K0 O10 2.994842 1_555
K0 O10 2.994842 1_455
K0 O11 2.994842 1_555
K0 O11 2.994842 1_545
K0 O4 3.031366 1_445
K0 O0 3.031366 1_545
K0 O5 3.031366 1_445
K0 O6 3.031366 1_555
K0 O3 3.031366 1_455
K0 O2 3.031366 1_545
K0 O1 3.031366 1_455
K0 O7 3.031366 1_555
K1 O9 2.994842 1_555
K1 O9 2.994842 1_545
K1 O8 2.994842 1_555
K1 O8 2.994842 1_455
K1 O4 3.031366 1_446
K1 O0 3.031366 1_546
K1 O5 3.031366 1_445
K1 O3 3.031366 1_455
K1 O6 3.031366 1_556
K1 O2 3.031366 1_545
K1 O1 3.031366 1_456
K1 O7 3.031366 1_555
Gd0 O10 2.267507 1_555
Gd0 O8 2.267507 1_555
Gd0 O2 2.273900 1_545
Gd0 O5 2.273900 1_545
Gd0 O7 2.273900 1_555
Gd0 O3 2.273900 1_555
Gd1 O9 2.267507 1_554
Gd1 O11 2.267507 1_555
Gd1 O1 2.273900 1_455
Gd1 O4 2.273900 1_455
Gd1 O0 2.273900 1_555
Gd1 O6 2.273900 1_555
O0 W0 1.957005 1_565
O1 W0 1.957005 1_555
O2 W1 1.957005 1_555
O3 W1 1.957005 1_655
O4 W0 1.957005 1_565
O5 W1 1.957005 1_655
O6 W0 1.957005 1_555
O7 W1 1.957005 1_555
O8 W0 1.945665 1_556
O9 W1 1.945665 1_555
O10 W0 1.945665 1_555
O11 W1 1.945665 1_555
