# generated using pymatgen
data_YbAlB4
_symmetry_space_group_name_H-M   'P 1'
_cell_length_a   5.99509825
_cell_length_b   5.99509825
_cell_length_c   3.47221200
_cell_angle_alpha   90.00000000
_cell_angle_beta   90.00000000
_cell_angle_gamma   103.97212777
_symmetry_Int_Tables_number   1
_chemical_formula_structural   YbAlB4
_chemical_formula_sum   'Yb2 Al2 B8'
_cell_volume   121.10318999
_cell_formula_units_Z   2
loop_
 _symmetry_equiv_pos_site_id
 _symmetry_equiv_pos_as_xyz
  1  'x, y, z'
loop_
 _atom_site_type_symbol
 _atom_site_label
 _atom_site_symmetry_multiplicity
 _atom_site_fract_x
 _atom_site_fract_y
 _atom_site_fract_z
 _atom_site_occupancy
  Yb  Yb0  1  0.30066700  0.69933300  0.00000000  1
  Yb  Yb1  1  0.69933300  0.30066700  0.00000000  1
  Al  Al0  1  0.18318600  0.18318600  0.00000000  1
  Al  Al1  1  0.81681400  0.81681400  0.00000000  1
  B  B0  1  0.38111200  0.06331500  0.50000000  1
  B  B1  1  0.61888800  0.93668500  0.50000000  1
  B  B2  1  0.06331500  0.38111200  0.50000000  1
  B  B3  1  0.93668500  0.61888800  0.50000000  1
  B  B4  1  0.62153900  0.62153900  0.50000000  1
  B  B5  1  0.37846100  0.37846100  0.50000000  1
  B  B6  1  0.09191800  0.90808200  0.50000000  1
  B  B7  1  0.90808200  0.09191800  0.50000000  1
loop_
_geom_bond_atom_site_label_1
_geom_bond_atom_site_label_2
_geom_bond_distance
_geom_bond_site_symmetry_2
Al0 B5 2.256830 1_555
Al0 B5 2.256830 1_554
Al0 B2 2.313066 1_555
Al0 B0 2.313066 1_554
Al0 B2 2.313066 1_554
Al0 B0 2.313066 1_555
Al0 B6 2.365963 1_545
Al0 B6 2.365963 1_544
Al0 B7 2.365963 1_455
Al0 B7 2.365963 1_454
Al1 B4 2.256830 1_554
Al1 B4 2.256830 1_555
Al1 B1 2.313066 1_555
Al1 B1 2.313066 1_554
Al1 B3 2.313066 1_554
Al1 B3 2.313066 1_555
Al1 B6 2.365963 1_654
Al1 B7 2.365963 1_565
Al1 B7 2.365963 1_564
Al1 B6 2.365963 1_655
B0 B6 1.758638 1_545
B0 B1 1.769443 1_545
B0 B5 1.893231 1_555
B0 Yb1 2.714316 1_556
B0 Yb1 2.714316 1_555
B0 Yb0 2.738623 1_545
B0 Yb0 2.738623 1_546
B1 B7 1.758638 1_565
B1 B4 1.893231 1_555
B1 Yb0 2.714316 1_555
B1 Yb0 2.714316 1_556
B1 Yb1 2.738623 1_565
B1 Yb1 2.738623 1_566
B2 B7 1.758638 1_455
B2 B3 1.769443 1_455
B2 B5 1.893231 1_555
B2 Yb0 2.714316 1_555
B2 Yb0 2.714316 1_556
B2 Yb1 2.738623 1_455
B2 Yb1 2.738623 1_456
B3 B6 1.758638 1_655
B3 B4 1.893231 1_555
B3 Yb1 2.714316 1_556
B3 Yb1 2.714316 1_555
B3 Yb0 2.738623 1_655
B3 Yb0 2.738623 1_656
B4 B5 1.794937 1_555
B4 Yb0 2.713905 1_555
B4 Yb0 2.713905 1_556
B4 Yb1 2.713905 1_556
B4 Yb1 2.713905 1_555
B5 Yb0 2.713905 1_555
B5 Yb0 2.713905 1_556
B5 Yb1 2.713905 1_556
B5 Yb1 2.713905 1_555
B6 B7 1.736627 1_465
B6 Yb0 2.627305 1_555
B6 Yb0 2.627305 1_556
B7 Yb1 2.627305 1_556
B7 Yb1 2.627305 1_555
