# generated using pymatgen
data_InCo3N
_symmetry_space_group_name_H-M   'P 1'
_cell_length_a   3.82707053
_cell_length_b   3.82712609
_cell_length_c   3.82710757
_cell_angle_alpha   90.00000000
_cell_angle_beta   90.00000000
_cell_angle_gamma   90.00000000
_symmetry_Int_Tables_number   1
_chemical_formula_structural   InCo3N
_chemical_formula_sum   'In1 Co3 N1'
_cell_volume   56.05442554
_cell_formula_units_Z   1
loop_
 _symmetry_equiv_pos_site_id
 _symmetry_equiv_pos_as_xyz
  1  'x, y, z'
loop_
 _atom_site_type_symbol
 _atom_site_label
 _atom_site_symmetry_multiplicity
 _atom_site_fract_x
 _atom_site_fract_y
 _atom_site_fract_z
 _atom_site_occupancy
  In  In0  1  0.00000000  -0.00000000  0.00000000  1
  Co  Co0  1  0.50000000  0.50000000  -0.00000000  1
  Co  Co1  1  0.50000000  0.00000000  0.50000000  1
  Co  Co2  1  0.00000000  0.50000000  0.50000000  1
  N  N0  1  0.50000000  0.50000000  0.50000000  1
loop_
_geom_bond_atom_site_label_1
_geom_bond_atom_site_label_2
_geom_bond_distance
_geom_bond_site_symmetry_2
Co0 N0 1.913554 1_555
Co0 N0 1.913554 1_554
Co0 In0 2.706167 1_555
Co0 In0 2.706167 1_655
Co0 In0 2.706167 1_565
Co0 In0 2.706167 1_665
Co1 N0 1.913563 1_555
Co1 N0 1.913563 1_545
Co1 In0 2.706161 1_656
Co1 In0 2.706161 1_556
Co1 In0 2.706161 1_555
Co1 In0 2.706161 1_655
Co2 N0 1.913535 1_555
Co2 N0 1.913535 1_455
Co2 In0 2.706180 1_555
Co2 In0 2.706180 1_566
Co2 In0 2.706180 1_565
Co2 In0 2.706180 1_556
