# generated using pymatgen
data_Ca3(TiS2)8
_symmetry_space_group_name_H-M   'P 1'
_cell_length_a   6.90069737
_cell_length_b   6.90069737
_cell_length_c   13.59703354
_cell_angle_alpha   89.43279075
_cell_angle_beta   89.43279075
_cell_angle_gamma   60.79116576
_symmetry_Int_Tables_number   1
_chemical_formula_structural   Ca3(TiS2)8
_chemical_formula_sum   'Ca3 Ti8 S16'
_cell_volume   565.11856456
_cell_formula_units_Z   1
loop_
 _symmetry_equiv_pos_site_id
 _symmetry_equiv_pos_as_xyz
  1  'x, y, z'
loop_
 _atom_site_type_symbol
 _atom_site_label
 _atom_site_symmetry_multiplicity
 _atom_site_fract_x
 _atom_site_fract_y
 _atom_site_fract_z
 _atom_site_occupancy
  Ca  Ca0  1  0.50000000  0.50000000  0.00000000  1
  Ca  Ca1  1  0.50000000  0.00000000  0.50000000  1
  Ca  Ca2  1  0.00000000  0.50000000  0.50000000  1
  Ti  Ti0  1  0.99461800  0.99461800  0.75201500  1
  Ti  Ti1  1  0.00538200  0.00538200  0.24798500  1
  Ti  Ti2  1  0.49667400  0.49667400  0.74761800  1
  Ti  Ti3  1  0.50332600  0.50332600  0.25238200  1
  Ti  Ti4  1  0.50956700  0.99956600  0.75449000  1
  Ti  Ti5  1  0.49043300  0.00043400  0.24551000  1
  Ti  Ti6  1  0.99956600  0.50956700  0.75449000  1
  Ti  Ti7  1  0.00043400  0.49043300  0.24551000  1
  S  S0  1  0.83109100  0.83109100  0.35434500  1
  S  S1  1  0.83212600  0.83212600  0.85907000  1
  S  S2  1  0.33146600  0.33146600  0.35691500  1
  S  S3  1  0.33092800  0.33092800  0.85789100  1
  S  S4  1  0.32970400  0.83227800  0.35704000  1
  S  S5  1  0.33126000  0.83248000  0.85434000  1
  S  S6  1  0.83227800  0.32970400  0.35704000  1
  S  S7  1  0.83248000  0.33126000  0.85434000  1
  S  S8  1  0.16772200  0.67029600  0.64296000  1
  S  S9  1  0.16752000  0.66874000  0.14566000  1
  S  S10  1  0.67029600  0.16772200  0.64296000  1
  S  S11  1  0.66874000  0.16752000  0.14566000  1
  S  S12  1  0.66853400  0.66853400  0.64308500  1
  S  S13  1  0.66907200  0.66907200  0.14210900  1
  S  S14  1  0.16890900  0.16890900  0.64565500  1
  S  S15  1  0.16787400  0.16787400  0.14093000  1
loop_
_geom_bond_atom_site_label_1
_geom_bond_atom_site_label_2
_geom_bond_distance
_geom_bond_site_symmetry_2
Ca0 S13 2.806045 1_555
Ca0 S3 2.806045 1_554
Ca0 S7 2.809040 1_554
Ca0 S5 2.809040 1_554
Ca0 S11 2.809040 1_555
Ca0 S9 2.809040 1_555
Ca1 S2 2.780287 1_555
Ca1 S12 2.780287 1_545
Ca1 S0 2.803208 1_545
Ca1 S14 2.803208 1_555
Ca1 S10 2.813592 1_555
Ca1 S4 2.813592 1_545
Ca2 S2 2.780287 1_555
Ca2 S12 2.780287 1_455
Ca2 S0 2.803208 1_455
Ca2 S14 2.803208 1_555
Ca2 S8 2.813592 1_555
Ca2 S6 2.813592 1_455
S0 Ti1 2.515453 1_665
S0 Ti7 2.536763 1_655
S0 Ti5 2.536763 1_565
S1 Ti0 2.407495 1_555
S1 Ti6 2.414877 1_555
S1 Ti4 2.414877 1_555
S2 Ti3 2.477729 1_555
S2 Ti7 2.511189 1_555
S2 Ti5 2.511189 1_555
S3 Ti4 2.450144 1_545
S3 Ti6 2.450144 1_455
S3 Ti2 2.464431 1_555
S4 Ti3 2.447283 1_555
S4 Ti1 2.460883 1_565
S4 Ti5 2.462602 1_565
S5 Ti4 2.450969 1_555
S5 Ti0 2.465895 1_455
S5 Ti2 2.496134 1_555
S6 Ti3 2.447283 1_555
S6 Ti1 2.460883 1_655
S6 Ti7 2.462602 1_655
S7 Ti6 2.450969 1_555
S7 Ti0 2.465895 1_545
S7 Ti2 2.496134 1_555
S8 Ti2 2.447283 1_555
S8 Ti0 2.460883 1_455
S8 Ti6 2.462602 1_455
S9 Ti7 2.450969 1_555
S9 Ti1 2.465895 1_565
S9 Ti3 2.496134 1_555
S10 Ti2 2.447283 1_555
S10 Ti0 2.460883 1_545
S10 Ti4 2.462602 1_545
S11 Ti5 2.450969 1_555
S11 Ti1 2.465895 1_655
S11 Ti3 2.496134 1_555
S12 Ti2 2.477729 1_555
S12 Ti4 2.511189 1_555
S12 Ti6 2.511189 1_555
S13 Ti5 2.450144 1_565
S13 Ti7 2.450144 1_655
S13 Ti3 2.464431 1_555
S14 Ti0 2.515453 1_445
S14 Ti6 2.536763 1_455
S14 Ti4 2.536763 1_545
S15 Ti1 2.407495 1_555
S15 Ti7 2.414877 1_555
S15 Ti5 2.414877 1_555
