# generated using pymatgen
data_Mg16MnAl12
_symmetry_space_group_name_H-M   'P 1'
_cell_length_a   9.31877382
_cell_length_b   8.99083879
_cell_length_c   8.99083782
_cell_angle_alpha   108.72059379
_cell_angle_beta   110.21180044
_cell_angle_gamma   110.21179676
_symmetry_Int_Tables_number   1
_chemical_formula_structural   Mg16MnAl12
_chemical_formula_sum   'Mg16 Mn1 Al12'
_cell_volume   574.49474914
_cell_formula_units_Z   1
loop_
 _symmetry_equiv_pos_site_id
 _symmetry_equiv_pos_as_xyz
  1  'x, y, z'
loop_
 _atom_site_type_symbol
 _atom_site_label
 _atom_site_symmetry_multiplicity
 _atom_site_fract_x
 _atom_site_fract_y
 _atom_site_fract_z
 _atom_site_occupancy
  Mg  Mg0  1  0.99408800  0.00000000  0.99999900  1
  Mg  Mg1  1  0.00405800  0.35097800  0.00000000  1
  Mg  Mg2  1  0.31862200  0.60109400  0.00000000  1
  Mg  Mg3  1  0.58806300  0.29278000  0.00000000  1
  Mg  Mg4  1  0.68338100  0.68102300  0.28059700  1
  Mg  Mg5  1  0.58806200  0.00000000  0.29278000  1
  Mg  Mg6  1  0.00235800  0.59957400  0.31897700  1
  Mg  Mg7  1  0.00405800  0.00000000  0.35097800  1
  Mg  Mg8  1  0.40278400  0.71940300  0.40042700  1
  Mg  Mg9  1  0.71752900  0.39890700  0.39890700  1
  Mg  Mg10  1  0.31862200  0.99999900  0.60109400  1
  Mg  Mg11  1  0.00235800  0.31897700  0.59957400  1
  Mg  Mg12  1  0.65307900  0.64902200  0.64902200  1
  Mg  Mg13  1  0.68338100  0.28059700  0.68102300  1
  Mg  Mg14  1  0.29528200  0.70722000  0.70722000  1
  Mg  Mg15  1  0.40278400  0.40042700  0.71940300  1
  Mn  Mn0  1  0.29398600  0.99999900  0.99999900  1
  Al  Al0  1  0.64151500  0.81047500  0.00000000  1
  Al  Al1  1  0.81480200  0.62525000  0.00000000  1
  Al  Al2  1  0.36713200  0.36285400  0.18140300  1
  Al  Al3  1  0.18573000  0.81859600  0.18145000  1
  Al  Al4  1  0.83103900  0.18952500  0.18952500  1
  Al  Al5  1  0.36713200  0.18140400  0.36285400  1
  Al  Al6  1  0.18955100  0.37475100  0.37475100  1
  Al  Al7  1  0.81480100  0.00000000  0.62525100  1
  Al  Al8  1  0.00427900  0.81855100  0.63714600  1
  Al  Al9  1  0.64151600  0.00000000  0.81047500  1
  Al  Al10  1  0.00427800  0.63714700  0.81855000  1
  Al  Al11  1  0.18573000  0.18145000  0.81859600  1
loop_
_geom_bond_atom_site_label_1
_geom_bond_atom_site_label_2
_geom_bond_distance
_geom_bond_site_symmetry_2
Mg0 Mn0 2.794685 1_645
Mg0 Mg1 3.124701 1_656
Mg0 Mg12 3.124704 1_545
Mg0 Mg7 3.124713 1_656
Mg1 Mg2 3.015763 1_555
Mg1 Mg13 3.026850 1_454
Mg1 Mg6 3.026850 1_555
Mg2 Mg5 3.040886 1_565
Mg2 Mg4 3.107717 1_555
Mg2 Mg8 3.118036 1_555
Mg3 Mg9 3.040892 1_555
Mg3 Mn0 3.074836 1_544
Mg3 Mg4 3.161400 1_555
Mg3 Mg6 3.263655 1_655
Mg4 Mg7 3.026850 1_665
Mg4 Mg9 3.118026 1_555
Mg4 Mg6 3.232410 1_655
Mg4 Mg8 3.232415 1_555
Mg4 Mg5 3.263660 1_565
Mg5 Mg9 3.040891 1_555
Mg5 Mn0 3.074830 1_544
Mg5 Mg8 3.161403 1_545
Mg6 Mg9 3.107713 1_455
Mg6 Mg8 3.232407 1_555
Mg10 Mg7 3.015768 1_565
Mg10 Mg14 3.040877 1_555
Mg10 Mg3 3.040888 1_566
Mg10 Mg8 3.107707 1_555
Mg10 Mg13 3.107720 1_565
Mg10 Mg6 3.118023 1_555
Mg10 Mg15 3.118045 1_565
Mg11 Mg7 3.026850 1_555
Mg11 Mg9 3.107713 1_455
Mg11 Mg2 3.118027 1_556
Mg11 Mg14 3.161396 1_555
Mg11 Mg15 3.232407 1_555
Mg11 Mg13 3.232410 1_455
Mg11 Mg5 3.263660 1_455
Mg12 Mg9 3.015766 1_555
Mg12 Mg8 3.026839 1_555
Mg12 Mg15 3.026840 1_555
Mg13 Mg9 3.118026 1_555
Mg13 Mg5 3.161396 1_555
Mg13 Mg15 3.232415 1_555
Mg13 Mg3 3.263654 1_556
Mg14 Mg2 3.040885 1_556
Mg14 Mn0 3.074820 1_555
Mg14 Mg6 3.161396 1_555
Mg14 Mg8 3.263651 1_555
Mg14 Mg15 3.263651 1_555
Mg15 Mg2 3.107713 1_556
Mg15 Mg3 3.161406 1_556
Al0 Al1 2.690570 1_555
Al0 Al9 2.769654 1_564
Al0 Al4 2.769654 1_565
Al0 Mg2 2.946815 1_555
Al0 Mg5 2.948586 1_565
Al0 Mg14 2.948586 1_554
Al0 Mg15 3.064275 1_554
Al0 Mg4 3.064281 1_555
Al0 Mg12 3.078829 1_554
Al0 Mg7 3.078834 1_665
Al0 Mg0 3.135274 1_564
Al1 Al10 2.786109 1_654
Al1 Al3 2.786124 1_655
Al1 Mg6 2.927969 1_655
Al1 Mg13 2.927969 1_554
Al1 Mg3 3.005909 1_555
Al1 Mg7 3.105487 1_665
Al1 Mg12 3.105488 1_554
Al1 Mg4 3.140542 1_555
Al1 Mg15 3.140543 1_554
Al1 Mg0 3.202182 1_564
Al2 Al5 2.651656 1_555
Al2 Al6 2.786132 1_555
Al2 Mn0 2.836817 1_544
Al2 Mg4 2.895617 1_555
Al2 Mg8 3.004064 1_555
Al2 Mg9 3.006788 1_555
Al2 Mg3 3.138878 1_555
Al2 Mg2 3.139201 1_555
Al2 Mg1 3.153485 1_555
Al2 Mg0 3.196593 1_454
Al3 Al5 2.650976 1_565
Al3 Mn0 2.836805 1_554
Al3 Mg8 2.895614 1_555
Al3 Mg6 3.004068 1_555
Al3 Mg2 3.006765 1_555
Al3 Mg5 3.138859 1_565
Al3 Mg10 3.139211 1_555
Al3 Mg7 3.153503 1_565
Al3 Mg0 3.196607 1_464
Al4 Al6 2.690570 1_655
Al4 Al9 2.769654 1_554
Al4 Mg9 2.946810 1_555
Al4 Mg3 2.948574 1_555
Al4 Mg5 2.948580 1_555
Al4 Mg11 3.064281 1_655
Al4 Mg6 3.064281 1_655
Al4 Mg7 3.078839 1_655
Al4 Mg1 3.078839 1_655
Al4 Mg0 3.135282 1_554
Al5 Al6 2.786124 1_555
Al5 Mn0 2.836818 1_544
Al5 Mg13 2.895620 1_555
Al5 Mg15 3.004061 1_555
Al5 Mg9 3.006786 1_555
Al5 Mg5 3.138875 1_555
Al5 Mg10 3.139213 1_545
Al5 Mg7 3.153487 1_555
Al5 Mg0 3.196597 1_454
Al6 Mg15 2.927965 1_555
Al6 Mg8 2.927965 1_555
Al6 Mg14 3.005899 1_555
Al6 Mg1 3.105489 1_555
Al6 Mg7 3.105489 1_555
Al6 Mg11 3.140529 1_555
Al6 Mg6 3.140529 1_555
Al6 Mg0 3.202192 1_454
Al7 Al9 2.690547 1_555
Al7 Al8 2.786117 1_645
Al7 Mg4 2.927977 1_545
Al7 Mg11 2.927978 1_655
Al7 Mg5 3.005916 1_555
Al7 Mg1 3.105480 1_656
Al7 Mg12 3.105482 1_545
Al7 Mg13 3.140535 1_555
Al7 Mg8 3.140536 1_545
Al7 Mg0 3.202162 1_555
Al8 Mn0 2.836802 1_555
Al8 Mg6 2.895618 1_555
Al8 Mg4 3.004061 1_455
Al8 Mg10 3.006769 1_555
Al8 Mg14 3.138873 1_555
Al8 Mg9 3.139207 1_455
Al8 Mg12 3.153504 1_455
Al8 Mg0 3.196588 1_465
Al9 Mg10 2.946817 1_545
Al9 Mg3 2.948587 1_556
Al9 Mg14 2.948593 1_545
Al9 Mg8 3.064275 1_545
Al9 Mg13 3.064282 1_555
Al9 Mg12 3.078824 1_545
Al9 Mg1 3.078829 1_656
Al9 Mg0 3.135259 1_555
Al10 Al8 2.650976 1_555
Al10 Al3 2.651648 1_556
Al10 Mn0 2.836799 1_555
Al10 Mg11 2.895627 1_555
Al10 Mg13 3.004064 1_455
Al10 Mg2 3.006786 1_556
Al10 Mg14 3.138875 1_555
Al10 Mg9 3.139199 1_455
Al10 Mg12 3.153490 1_455
Al10 Mg0 3.196583 1_465
Al11 Al2 2.650969 1_556
Al11 Al8 2.651641 1_545
Al11 Al7 2.786132 1_455
Al11 Mn0 2.836805 1_545
Al11 Mg15 2.895614 1_555
Al11 Mg11 3.004068 1_555
Al11 Mg10 3.006769 1_545
Al11 Mg3 3.138867 1_556
Al11 Mg2 3.139211 1_556
Al11 Mg1 3.153503 1_556
Al11 Mg0 3.196595 1_455
