# generated using pymatgen
data_LiMn6(OF2)4
_symmetry_space_group_name_H-M   'P 1'
_cell_length_a   5.30664356
_cell_length_b   7.95229659
_cell_length_c   6.21735410
_cell_angle_alpha   99.09748183
_cell_angle_beta   80.33922114
_cell_angle_gamma   95.63979307
_symmetry_Int_Tables_number   1
_chemical_formula_structural   LiMn6(OF2)4
_chemical_formula_sum   'Li1 Mn6 O4 F8'
_cell_volume   254.70335944
_cell_formula_units_Z   1
loop_
 _symmetry_equiv_pos_site_id
 _symmetry_equiv_pos_as_xyz
  1  'x, y, z'
loop_
 _atom_site_type_symbol
 _atom_site_label
 _atom_site_symmetry_multiplicity
 _atom_site_fract_x
 _atom_site_fract_y
 _atom_site_fract_z
 _atom_site_occupancy
  Li  Li0  1  0.21671600  0.42806300  0.59567700  1
  Mn  Mn0  1  0.50427300  0.00517300  0.51938600  1
  Mn  Mn1  1  0.53140900  0.66765900  0.16632500  1
  Mn  Mn2  1  0.52191800  0.31908000  0.84637700  1
  Mn  Mn3  1  0.87832200  0.72145700  0.63886100  1
  Mn  Mn4  1  0.91102200  0.36113800  0.25111700  1
  Mn  Mn5  1  0.03775100  0.95646000  0.06170400  1
  O  O0  1  0.78074000  0.76664600  0.96743200  1
  O  O1  1  0.66477400  0.79545800  0.44282100  1
  O  O2  1  0.65943200  0.43951600  0.09696100  1
  O  O3  1  0.37589000  0.22356700  0.59433900  1
  F  F0  1  0.84679400  0.44210200  0.60719400  1
  F  F1  1  0.79262400  0.10813800  0.31186400  1
  F  F2  1  0.69537300  0.10680100  0.80480200  1
  F  F3  1  0.33436900  0.52666200  0.86074600  1
  F  F4  1  0.31128100  0.89106700  0.23476300  1
  F  F5  1  0.20493400  0.56598500  0.35346500  1
  F  F6  1  0.19519100  0.21350600  0.05921000  1
  F  F7  1  0.20385100  0.89485200  0.71195700  1
loop_
_geom_bond_atom_site_label_1
_geom_bond_atom_site_label_2
_geom_bond_distance
_geom_bond_site_symmetry_2
Li0 O3 1.903016 1_555
Mn0 O3 1.888815 1_555
Mn0 O1 1.904039 1_545
Mn1 O0 1.858330 1_554
Mn1 O2 1.958462 1_555
Mn1 O1 2.050226 1_555
Mn2 O3 1.883725 1_555
Mn2 O2 1.910344 1_556
Mn3 O1 1.984331 1_555
Mn3 O0 2.004963 1_555
Mn4 O2 1.967620 1_555
Mn5 O0 2.016437 1_454
F0 Li0 1.965834 1_655
F0 Mn4 2.184262 1_555
F0 Mn3 2.191248 1_555
F0 Mn2 2.325679 1_555
F1 Mn0 2.025288 1_555
F1 Mn4 2.120723 1_555
F1 Mn5 2.145258 1_645
F2 Mn2 1.962481 1_555
F2 Mn0 2.195426 1_555
F3 Li0 1.887084 1_555
F3 Mn2 1.992470 1_555
F3 Mn1 2.392234 1_556
F4 Mn5 2.093931 1_555
F4 Mn1 2.168862 1_555
F4 Mn0 2.218460 1_565
F5 Li0 2.010485 1_555
F5 Mn1 2.086776 1_555
F5 Mn4 2.235425 1_455
F5 Mn3 2.525147 1_455
F6 Mn4 2.092141 1_455
F6 Mn5 2.132286 1_545
F6 Mn2 2.181098 1_554
F7 Mn0 2.039941 1_565
F7 Mn3 2.165447 1_455
F7 Mn5 2.202294 1_556
