# generated using pymatgen
data_Al5(FeO4)3
_symmetry_space_group_name_H-M   'P 1'
_cell_length_a   5.78017759
_cell_length_b   5.78017759
_cell_length_c   14.27385915
_cell_angle_alpha   89.90501487
_cell_angle_beta   89.90501487
_cell_angle_gamma   59.98578933
_symmetry_Int_Tables_number   1
_chemical_formula_structural   Al5(FeO4)3
_chemical_formula_sum   'Al10 Fe6 O24'
_cell_volume   412.94422808
_cell_formula_units_Z   2
loop_
 _symmetry_equiv_pos_site_id
 _symmetry_equiv_pos_as_xyz
  1  'x, y, z'
loop_
 _atom_site_type_symbol
 _atom_site_label
 _atom_site_symmetry_multiplicity
 _atom_site_fract_x
 _atom_site_fract_y
 _atom_site_fract_z
 _atom_site_occupancy
  Al  Al0  1  0.66894200  0.66894200  0.83316500  1
  Al  Al1  1  0.00193300  0.49809100  0.49742400  1
  Al  Al2  1  0.66855200  0.15837300  0.83333100  1
  Al  Al3  1  0.83802200  0.83802200  0.65927600  1
  Al  Al4  1  0.15837300  0.66855200  0.83333100  1
  Al  Al5  1  0.82737700  0.33395600  0.16703100  1
  Al  Al6  1  0.15914500  0.15914500  0.33835500  1
  Al  Al7  1  0.49809100  0.00193300  0.49742400  1
  Al  Al8  1  0.33489000  0.33489000  0.16738800  1
  Al  Al9  1  0.33395600  0.82737700  0.16703100  1
  Fe  Fe0  1  0.16459900  0.16459900  0.96166200  1
  Fe  Fe1  1  0.49873800  0.49873800  0.01219500  1
  Fe  Fe2  1  0.49444500  0.49444500  0.62244600  1
  Fe  Fe3  1  0.82854100  0.82854100  0.29199300  1
  Fe  Fe4  1  0.16876600  0.16876600  0.69882700  1
  Fe  Fe5  1  0.50522000  0.50522000  0.38032500  1
  O  O0  1  0.34166400  0.34166400  0.90545100  1
  O  O1  1  0.49823800  0.49823800  0.76239100  1
  O  O2  1  0.34169300  0.81143300  0.90513300  1
  O  O3  1  0.81143300  0.34169300  0.90513300  1
  O  O4  1  0.68024300  0.68024300  0.57801000  1
  O  O5  1  0.53074600  0.98001700  0.74981100  1
  O  O6  1  0.98001700  0.53074600  0.74981100  1
  O  O7  1  0.82101500  0.82101500  0.42313300  1
  O  O8  1  0.65596300  0.13610400  0.58527400  1
  O  O9  1  0.83259000  0.83259000  0.89253500  1
  O  O10  1  0.13610400  0.65596300  0.58527400  1
  O  O11  1  0.98456500  0.98456500  0.74774000  1
  O  O12  1  0.01568900  0.01568900  0.24895500  1
  O  O13  1  0.86577000  0.34004400  0.41455500  1
  O  O14  1  0.34004400  0.86577000  0.41455500  1
  O  O15  1  0.16479900  0.16479900  0.09650900  1
  O  O16  1  0.02081200  0.45806300  0.24729200  1
  O  O17  1  0.17718100  0.17718100  0.57102800  1
  O  O18  1  0.45806300  0.02081200  0.24729200  1
  O  O19  1  0.31902800  0.31902800  0.42089500  1
  O  O20  1  0.19820300  0.64897900  0.09874600  1
  O  O21  1  0.64897900  0.19820300  0.09874600  1
  O  O22  1  0.49877500  0.49877500  0.24617700  1
  O  O23  1  0.64956500  0.64956500  0.09840900  1
loop_
_geom_bond_atom_site_label_1
_geom_bond_atom_site_label_2
_geom_bond_distance
_geom_bond_site_symmetry_2
Al0 O9 1.846108 1_555
Al0 O3 1.936330 1_555
Al0 O2 1.936330 1_555
Al0 O5 1.961087 1_555
Al0 O6 1.961087 1_555
Al0 O1 1.987032 1_555
Al1 O13 1.891859 1_455
Al1 O17 1.920390 1_555
Al1 O10 1.929142 1_555
Al1 O19 1.929550 1_555
Al1 O7 1.935573 1_455
Al1 O4 1.981786 1_455
Al2 O9 1.835838 1_545
Al2 O3 1.933178 1_555
Al2 O0 1.935657 1_555
Al2 O1 1.978788 1_555
Al2 O5 1.986776 1_545
Al2 O11 1.999798 1_545
Al3 O10 1.837257 1_655
Al3 O8 1.837257 1_565
Al3 O11 1.937608 1_555
Al3 O4 1.961659 1_555
Al3 O6 2.008913 1_555
Al3 O5 2.008913 1_555
Al4 O9 1.835838 1_455
Al4 O2 1.933178 1_555
Al4 O0 1.935657 1_555
Al4 O1 1.978788 1_555
Al4 O6 1.986776 1_455
Al4 O11 1.999798 1_455
Al5 O21 1.855911 1_555
Al5 O23 1.861556 1_555
Al5 O15 1.965236 1_655
Al5 O16 1.971445 1_655
Al5 O12 1.982501 1_655
Al5 O22 1.994412 1_555
Al6 O14 1.837313 1_545
Al6 O13 1.837313 1_455
Al6 O12 1.923129 1_555
Al6 O18 1.981929 1_555
Al6 O16 1.981929 1_555
Al6 O19 1.989429 1_555
Al7 O14 1.891859 1_545
Al7 O17 1.920390 1_555
Al7 O8 1.929142 1_555
Al7 O19 1.929550 1_555
Al7 O7 1.935573 1_545
Al7 O4 1.981786 1_545
Al8 O20 1.855231 1_555
Al8 O21 1.855231 1_555
Al8 O16 1.950961 1_555
Al8 O18 1.950961 1_555
Al8 O15 1.982516 1_555
Al8 O22 1.991048 1_555
Al9 O20 1.855911 1_555
Al9 O23 1.861556 1_555
Al9 O15 1.965236 1_565
Al9 O18 1.971445 1_565
Al9 O12 1.982501 1_565
Al9 O22 1.994412 1_555
Fe0 O15 1.924792 1_556
Fe0 O3 1.943777 1_455
Fe0 O2 1.943777 1_545
Fe0 O0 1.944536 1_555
Fe1 O20 1.945586 1_555
Fe1 O21 1.945586 1_555
Fe1 O23 1.949865 1_555
Fe1 O2 2.186372 1_554
Fe1 O3 2.186372 1_554
Fe1 O0 2.191795 1_554
Fe2 O8 1.873697 1_555
Fe2 O10 1.873697 1_555
Fe2 O4 1.964270 1_555
Fe2 O1 1.997989 1_555
Fe3 O7 1.873246 1_555
Fe3 O16 1.961941 1_655
Fe3 O18 1.961941 1_565
Fe3 O12 1.970793 1_665
Fe4 O17 1.825968 1_555
Fe4 O6 1.953552 1_455
Fe4 O5 1.953552 1_545
Fe4 O11 1.970751 1_445
Fe5 O14 1.872096 1_555
Fe5 O13 1.872096 1_555
Fe5 O22 1.916020 1_555
Fe5 O19 1.951020 1_555
