# generated using pymatgen
data_Sr3Cr2S2O5
_symmetry_space_group_name_H-M   'P 1'
_cell_length_a   4.10405500
_cell_length_b   3.92196900
_cell_length_c   11.65906005
_cell_angle_alpha   99.68283623
_cell_angle_beta   100.13702407
_cell_angle_gamma   90.00000000
_symmetry_Int_Tables_number   1
_chemical_formula_structural   Sr3Cr2S2O5
_chemical_formula_sum   'Sr3 Cr2 S2 O5'
_cell_volume   182.01795382
_cell_formula_units_Z   1
loop_
 _symmetry_equiv_pos_site_id
 _symmetry_equiv_pos_as_xyz
  1  'x, y, z'
loop_
 _atom_site_type_symbol
 _atom_site_label
 _atom_site_symmetry_multiplicity
 _atom_site_fract_x
 _atom_site_fract_y
 _atom_site_fract_z
 _atom_site_occupancy
  Sr  Sr0  1  0.50000000  0.50000000  0.00000000  1
  Sr  Sr1  1  0.66275000  0.66275000  0.32549800  1
  Sr  Sr2  1  0.33725000  0.33725000  0.67450200  1
  Cr  Cr0  1  0.08439800  0.08439800  0.16879600  1
  Cr  Cr1  1  0.91560200  0.91560200  0.83120400  1
  S  S0  1  0.19380600  0.19380600  0.38761200  1
  S  S1  1  0.80619400  0.80619400  0.61238800  1
  O  O0  1  0.08536100  0.58536100  0.17072300  1
  O  O1  1  0.58492800  0.08492800  0.16985800  1
  O  O2  1  0.91463900  0.41463900  0.82927700  1
  O  O3  1  0.41507200  0.91507200  0.83014200  1
  O  O4  1  0.00000000  0.00000000  0.00000000  1
loop_
_geom_bond_atom_site_label_1
_geom_bond_atom_site_label_2
_geom_bond_distance
_geom_bond_site_symmetry_2
Cr0 O4 1.908794 1_555
Cr0 O0 1.961104 1_555
Cr0 O0 1.961108 1_545
Cr0 O1 2.052059 1_555
Cr0 O1 2.052067 1_455
Cr0 S0 2.474435 1_555
Cr1 O4 1.908794 1_666
Cr1 O2 1.961104 1_555
Cr1 O2 1.961108 1_565
Cr1 O3 2.052059 1_555
Cr1 O3 2.052067 1_655
Cr1 S1 2.474435 1_555
S0 Sr1 2.923972 1_445
S0 Sr1 2.923978 1_455
S0 Sr1 2.923978 1_545
S0 Sr1 2.923984 1_555
S0 Sr2 3.244235 1_555
S1 Sr2 2.923972 1_665
S1 Sr2 2.923978 1_655
S1 Sr2 2.923978 1_565
S1 Sr2 2.923984 1_555
S1 Sr1 3.244235 1_555
O0 Sr1 2.697060 1_455
O0 Sr1 2.697069 1_555
O0 Sr0 2.817440 1_455
O0 Sr0 2.817443 1_555
O1 Sr1 2.634978 1_545
O1 Sr1 2.634989 1_555
O1 Sr0 2.744983 1_545
O1 Sr0 2.744988 1_555
O2 Sr2 2.697060 1_655
O2 Sr2 2.697069 1_555
O2 Sr0 2.817440 1_656
O2 Sr0 2.817443 1_556
O3 Sr2 2.634978 1_565
O3 Sr2 2.634989 1_555
O3 Sr0 2.744983 1_566
O3 Sr0 2.744988 1_556
O4 Sr0 2.838358 1_545
O4 Sr0 2.838358 1_455
O4 Sr0 2.838358 1_555
O4 Sr0 2.838358 1_445
