# generated using pymatgen
data_TiCrAgS4
_symmetry_space_group_name_H-M   'P 1'
_cell_length_a   7.26497019
_cell_length_b   7.26497019
_cell_length_c   7.26497019
_cell_angle_alpha   120.16547328
_cell_angle_beta   119.11249714
_cell_angle_gamma   90.62883428
_symmetry_Int_Tables_number   1
_chemical_formula_structural   TiCrAgS4
_chemical_formula_sum   'Ti2 Cr2 Ag2 S8'
_cell_volume   272.56893102
_cell_formula_units_Z   2
loop_
 _symmetry_equiv_pos_site_id
 _symmetry_equiv_pos_as_xyz
  1  'x, y, z'
loop_
 _atom_site_type_symbol
 _atom_site_label
 _atom_site_symmetry_multiplicity
 _atom_site_fract_x
 _atom_site_fract_y
 _atom_site_fract_z
 _atom_site_occupancy
  Ti  Ti0  1  0.99310500  0.71884400  0.22573800  1
  Ti  Ti1  1  0.00689500  0.23263300  0.72573800  1
  Cr  Cr0  1  0.50000000  0.25573600  0.75573600  1
  Cr  Cr1  1  0.00000000  0.25573600  0.25573600  1
  Ag  Ag0  1  0.37220600  0.88643100  0.01422400  1
  Ag  Ag1  1  0.62779400  0.64201800  0.51422400  1
  S  S0  1  0.75900200  0.48512900  0.22612700  1
  S  S1  1  0.75971400  0.48176100  0.76688200  1
  S  S2  1  0.21487800  0.48176000  0.22204600  1
  S  S3  1  0.76587100  0.05559600  0.78972500  1
  S  S4  1  0.23412900  0.02385400  0.28972500  1
  S  S5  1  0.24099800  0.46712500  0.72612700  1
  S  S6  1  0.78512200  0.00716800  0.26688200  1
  S  S7  1  0.24028600  0.00716800  0.72204600  1
loop_
_geom_bond_atom_site_label_1
_geom_bond_atom_site_label_2
_geom_bond_distance
_geom_bond_site_symmetry_2
Cr0 S3 2.421645 1_555
Cr0 S4 2.421645 1_555
Cr0 S7 2.431599 1_555
Cr0 S1 2.431604 1_555
Cr0 S0 2.438628 1_556
Cr0 S5 2.438628 1_555
Cr1 S3 2.421645 1_454
Cr1 S4 2.421645 1_555
Cr1 S2 2.431599 1_555
Cr1 S6 2.431599 1_455
Cr1 S0 2.438628 1_455
Cr1 S5 2.438628 1_555
Ag0 S4 2.444676 1_565
Ag0 S7 2.470576 1_564
Ag0 S6 2.470582 1_565
Ag0 S5 2.481163 1_554
Ag1 S3 2.444676 1_565
Ag1 S1 2.470575 1_555
Ag1 S2 2.470582 1_555
Ag1 S0 2.481157 1_555
S0 Ti0 2.391997 1_555
S1 Ti0 2.370612 1_556
S1 Ti1 2.576785 1_655
S2 Ti0 2.370617 1_455
S2 Ti1 2.576780 1_554
S3 Ti1 2.505982 1_655
S4 Ti0 2.505976 1_445
S5 Ti1 2.391992 1_555
S6 Ti1 2.370612 1_655
S6 Ti0 2.576775 1_545
S7 Ti1 2.370612 1_555
S7 Ti0 2.576779 1_445
