# generated using pymatgen
data_MgTiMn(PO4)3
_symmetry_space_group_name_H-M   'P 1'
_cell_length_a   8.54271714
_cell_length_b   8.54271714
_cell_length_c   8.54271709
_cell_angle_alpha   60.72083377
_cell_angle_beta   60.72083377
_cell_angle_gamma   60.72083516
_symmetry_Int_Tables_number   1
_chemical_formula_structural   MgTiMn(PO4)3
_chemical_formula_sum   'Mg2 Ti2 Mn2 P6 O24'
_cell_volume   448.00302781
_cell_formula_units_Z   2
loop_
 _symmetry_equiv_pos_site_id
 _symmetry_equiv_pos_as_xyz
  1  'x, y, z'
loop_
 _atom_site_type_symbol
 _atom_site_label
 _atom_site_symmetry_multiplicity
 _atom_site_fract_x
 _atom_site_fract_y
 _atom_site_fract_z
 _atom_site_occupancy
  Mg  Mg0  1  0.00219500  0.00219500  0.00219500  1
  Mg  Mg1  1  0.50219500  0.50219500  0.50219500  1
  Ti  Ti0  1  0.85646900  0.85646900  0.85646900  1
  Ti  Ti1  1  0.35646900  0.35646900  0.35646900  1
  Mn  Mn0  1  0.64323100  0.64323100  0.64323100  1
  Mn  Mn1  1  0.14323100  0.14323100  0.14323100  1
  P  P0  1  0.24884800  0.95531900  0.54397100  1
  P  P1  1  0.95531900  0.54397100  0.24884800  1
  P  P2  1  0.54397100  0.24884800  0.95531900  1
  P  P3  1  0.45531900  0.74884800  0.04397100  1
  P  P4  1  0.04397100  0.45531900  0.74884800  1
  P  P5  1  0.74884800  0.04397100  0.45531900  1
  O  O0  1  0.68470600  0.88880500  0.49131200  1
  O  O1  1  0.49131200  0.68470600  0.88880500  1
  O  O2  1  0.08795500  0.94673600  0.74181000  1
  O  O3  1  0.88880500  0.49131200  0.68470600  1
  O  O4  1  0.18470600  0.99131200  0.38880500  1
  O  O5  1  0.40785200  0.75895900  0.56062700  1
  O  O6  1  0.94673600  0.74181000  0.08795500  1
  O  O7  1  0.75895900  0.56062700  0.40785200  1
  O  O8  1  0.61900200  0.81532700  0.99687800  1
  O  O9  1  0.56062700  0.40785200  0.75895900  1
  O  O10  1  0.25895900  0.90785200  0.06062700  1
  O  O11  1  0.99687800  0.61900200  0.81532700  1
  O  O12  1  0.99131200  0.38880500  0.18470600  1
  O  O13  1  0.74181000  0.08795500  0.94673600  1
  O  O14  1  0.44673600  0.58795500  0.24181000  1
  O  O15  1  0.38880500  0.18470600  0.99131200  1
  O  O16  1  0.24181000  0.44673600  0.58795500  1
  O  O17  1  0.06062700  0.25895900  0.90785200  1
  O  O18  1  0.58795500  0.24181000  0.44673600  1
  O  O19  1  0.81532700  0.99687800  0.61900200  1
  O  O20  1  0.11900200  0.49687800  0.31532700  1
  O  O21  1  0.90785200  0.06062700  0.25895900  1
  O  O22  1  0.49687800  0.31532700  0.11900200  1
  O  O23  1  0.31532700  0.11900200  0.49687800  1
loop_
_geom_bond_atom_site_label_1
_geom_bond_atom_site_label_2
_geom_bond_distance
_geom_bond_site_symmetry_2
Mg0 O17 2.158310 1_554
Mg0 O21 2.158310 1_455
Mg0 O10 2.158310 1_545
Mg0 O6 2.192356 1_445
Mg0 O2 2.192356 1_544
Mg0 O13 2.192356 1_454
Mg1 O7 2.158310 1_555
Mg1 O9 2.158310 1_555
Mg1 O5 2.158310 1_555
Mg1 O16 2.192356 1_555
Mg1 O14 2.192356 1_555
Mg1 O18 2.192356 1_555
Mn0 O0 1.955780 1_555
Mn0 O1 1.955780 1_555
Mn0 O3 1.955780 1_555
Mn0 O9 2.068730 1_555
Mn0 O7 2.068730 1_555
Mn0 O5 2.068731 1_555
Mn1 O15 1.955780 1_554
Mn1 O4 1.955780 1_545
Mn1 O12 1.955780 1_455
Mn1 O21 2.068730 1_455
Mn1 O17 2.068730 1_554
Mn1 O10 2.068731 1_545
O0 P5 1.516188 1_565
O1 P3 1.516188 1_556
O2 P0 1.567199 1_555
O2 Ti0 2.079131 1_455
O3 P4 1.516188 1_655
O4 P0 1.516188 1_555
O5 P0 1.551136 1_555
O6 P1 1.567199 1_555
O6 Ti0 2.079131 1_554
O7 P1 1.551136 1_555
O8 P3 1.562894 1_556
O8 Ti0 1.892755 1_555
O9 P2 1.551136 1_555
O10 P3 1.551136 1_555
O11 P4 1.562894 1_655
O11 Ti0 1.892755 1_555
O12 P1 1.516188 1_555
O13 P2 1.567199 1_555
O13 Ti0 2.079131 1_545
O14 P3 1.567199 1_555
O14 Ti1 2.079131 1_555
O15 P2 1.516188 1_555
O16 P4 1.567199 1_555
O16 Ti1 2.079131 1_555
O17 P4 1.551136 1_555
O18 P5 1.567199 1_555
O18 Ti1 2.079131 1_555
O19 P5 1.562894 1_565
O19 Ti0 1.892755 1_555
O20 P1 1.562894 1_455
O20 Ti1 1.892755 1_555
O21 P5 1.551136 1_555
O22 P2 1.562894 1_554
O22 Ti1 1.892755 1_555
O23 P0 1.562894 1_545
O23 Ti1 1.892755 1_555
