# generated using pymatgen
data_Cr(NO3)5
_symmetry_space_group_name_H-M   'P 1'
_cell_length_a   10.86709000
_cell_length_b   10.86709000
_cell_length_c   9.88587800
_cell_angle_alpha   90.00000000
_cell_angle_beta   90.00000000
_cell_angle_gamma   119.99999997
_symmetry_Int_Tables_number   1
_chemical_formula_structural   Cr(NO3)5
_chemical_formula_sum   'Cr3 N15 O45'
_cell_volume   1011.04946977
_cell_formula_units_Z   3
loop_
 _symmetry_equiv_pos_site_id
 _symmetry_equiv_pos_as_xyz
  1  'x, y, z'
loop_
 _atom_site_type_symbol
 _atom_site_label
 _atom_site_symmetry_multiplicity
 _atom_site_fract_x
 _atom_site_fract_y
 _atom_site_fract_z
 _atom_site_occupancy
  Cr  Cr0  1  0.00000000  0.30563500  0.33333300  1
  Cr  Cr1  1  0.30563500  0.00000000  0.66666700  1
  Cr  Cr2  1  0.69436500  0.69436500  0.00000000  1
  N  N0  1  0.25109800  0.90437000  0.95426900  1
  N  N1  1  0.09563000  0.34672800  0.62093600  1
  N  N2  1  0.31758400  0.74714100  0.57524200  1
  N  N3  1  0.00000000  0.07881300  0.33333300  1
  N  N4  1  0.25285900  0.57044400  0.24190900  1
  N  N5  1  0.07881300  0.00000000  0.66666700  1
  N  N6  1  0.42955600  0.68241600  0.90857600  1
  N  N7  1  0.65327200  0.74890200  0.28760200  1
  N  N8  1  0.34672800  0.09563000  0.37906400  1
  N  N9  1  0.74890200  0.65327200  0.71239800  1
  N  N10  1  0.57044400  0.25285900  0.75809100  1
  N  N11  1  0.92118700  0.92118700  0.00000000  1
  N  N12  1  0.68241600  0.42955600  0.09142400  1
  N  N13  1  0.74714100  0.31758400  0.42475800  1
  N  N14  1  0.90437000  0.25109800  0.04573100  1
  O  O0  1  0.00000000  0.96768400  0.33333300  1
  O  O1  1  0.09922000  0.90657800  0.60228200  1
  O  O2  1  0.18931300  0.81054800  0.04063800  1
  O  O3  1  0.22679100  0.86444600  0.82740600  1
  O  O4  1  0.30092700  0.96914900  0.34996400  1
  O  O5  1  0.18570400  0.68964200  0.57156400  1
  O  O6  1  0.11696900  0.51123000  0.26155200  1
  O  O7  1  0.03085100  0.33177900  0.01663100  1
  O  O8  1  0.39426100  0.88303100  0.59488600  1
  O  O9  1  0.13555400  0.36234500  0.49407300  1
  O  O10  1  0.32221100  0.70137300  0.22705300  1
  O  O11  1  0.09342200  0.19264100  0.26894900  1
  O  O12  1  0.18945200  0.37876500  0.70730500  1
  O  O13  1  0.29862700  0.62083800  0.89371900  1
  O  O14  1  0.03231600  0.03231600  0.00000000  1
  O  O15  1  0.37916200  0.67778900  0.56038600  1
  O  O16  1  0.31035800  0.49606200  0.23823000  1
  O  O17  1  0.50393800  0.81429600  0.90489700  1
  O  O18  1  0.19264100  0.09342200  0.73105100  1
  O  O19  1  0.48877000  0.60573900  0.92821900  1
  O  O20  1  0.62123500  0.81068700  0.37397200  1
  O  O21  1  0.63765500  0.77320900  0.16074000  1
  O  O22  1  0.37876500  0.18945200  0.29269500  1
  O  O23  1  0.36234500  0.13555400  0.50592700  1
  O  O24  1  0.33177900  0.03085100  0.98336900  1
  O  O25  1  0.66822100  0.69907300  0.68329700  1
  O  O26  1  0.49606200  0.31035800  0.76177000  1
  O  O27  1  0.80735900  0.90078000  0.93561500  1
  O  O28  1  0.60573900  0.48877000  0.07178100  1
  O  O29  1  0.69907300  0.66822100  0.31670300  1
  O  O30  1  0.51123000  0.11696900  0.73844800  1
  O  O31  1  0.77320900  0.63765500  0.83926000  1
  O  O32  1  0.62083800  0.29862700  0.10628100  1
  O  O33  1  0.90078000  0.80735900  0.06438500  1
  O  O34  1  0.81068700  0.62123500  0.62602800  1
  O  O35  1  0.67778900  0.37916200  0.43961400  1
  O  O36  1  0.70137300  0.32221100  0.77294700  1
  O  O37  1  0.81429600  0.50393800  0.09510300  1
  O  O38  1  0.68964200  0.18570400  0.42843600  1
  O  O39  1  0.88303100  0.39426100  0.40511400  1
  O  O40  1  0.81054800  0.18931300  0.95936200  1
  O  O41  1  0.86444600  0.22679100  0.17259400  1
  O  O42  1  0.96914900  0.30092700  0.65003600  1
  O  O43  1  0.90657800  0.09922000  0.39771800  1
  O  O44  1  0.96768400  0.00000000  0.66666700  1
loop_
_geom_bond_atom_site_label_1
_geom_bond_atom_site_label_2
_geom_bond_distance
_geom_bond_site_symmetry_2
Cr0 O41 2.041323 1_455
Cr0 O9 2.041331 1_555
Cr0 O43 2.046990 1_455
Cr0 O11 2.046996 1_555
Cr0 O39 2.066658 1_455
Cr0 O6 2.066658 1_555
Cr1 O3 2.041323 1_545
Cr1 O23 2.041331 1_555
Cr1 O1 2.046990 1_545
Cr1 O18 2.046996 1_555
Cr1 O8 2.066658 1_545
Cr1 O30 2.066658 1_555
Cr2 O31 2.041331 1_554
Cr2 O21 2.041331 1_555
Cr2 O33 2.046991 1_555
Cr2 O27 2.046991 1_554
Cr2 O28 2.066658 1_555
Cr2 O19 2.066658 1_554
N0 O2 1.238872 1_556
N0 O24 1.239184 1_565
N0 O3 1.310077 1_555
N1 O12 1.238872 1_555
N1 O42 1.239182 1_455
N1 O9 1.310077 1_555
N2 O15 1.241645 1_555
N2 O5 1.245062 1_555
N2 O8 1.297021 1_555
N3 O0 1.207649 1_545
N3 O11 1.307712 1_555
N3 O43 1.307723 1_455
N4 O10 1.241636 1_555
N4 O16 1.245072 1_555
N4 O6 1.297019 1_555
N5 O44 1.207649 1_455
N5 O18 1.307712 1_555
N5 O1 1.307723 1_545
N6 O13 1.241637 1_555
N6 O17 1.245063 1_555
N6 O19 1.297028 1_555
N7 O20 1.238879 1_555
N7 O29 1.239195 1_555
N7 O21 1.310067 1_555
N8 O22 1.238872 1_555
N8 O4 1.239182 1_545
N8 O23 1.310077 1_555
N9 O34 1.238879 1_555
N9 O25 1.239195 1_555
N9 O31 1.310067 1_555
N10 O36 1.241636 1_555
N10 O26 1.245072 1_555
N10 O30 1.297019 1_555
N11 O14 1.207649 1_665
N11 O27 1.307713 1_554
N11 O33 1.307713 1_555
N12 O32 1.241637 1_555
N12 O37 1.245063 1_555
N12 O28 1.297028 1_555
N13 O35 1.241645 1_555
N13 O38 1.245062 1_555
N13 O39 1.297021 1_555
N14 O40 1.238872 1_554
N14 O7 1.239184 1_655
N14 O41 1.310077 1_555
