# generated using pymatgen
data_Cs2Fe2(MoO4)3
_symmetry_space_group_name_H-M   'P 1'
_cell_length_a   11.09349600
_cell_length_b   11.09349600
_cell_length_c   11.09349600
_cell_angle_alpha   90.00000000
_cell_angle_beta   90.00000000
_cell_angle_gamma   90.00000000
_symmetry_Int_Tables_number   1
_chemical_formula_structural   Cs2Fe2(MoO4)3
_chemical_formula_sum   'Cs8 Fe8 Mo12 O48'
_cell_volume   1365.22833486
_cell_formula_units_Z   4
loop_
 _symmetry_equiv_pos_site_id
 _symmetry_equiv_pos_as_xyz
  1  'x, y, z'
loop_
 _atom_site_type_symbol
 _atom_site_label
 _atom_site_symmetry_multiplicity
 _atom_site_fract_x
 _atom_site_fract_y
 _atom_site_fract_z
 _atom_site_occupancy
  Cs  Cs0  1  0.82061100  0.82061100  0.82061100  1
  Cs  Cs1  1  0.17938900  0.32061100  0.67938900  1
  Cs  Cs2  1  0.32061100  0.67938900  0.17938900  1
  Cs  Cs3  1  0.67938900  0.17938900  0.32061100  1
  Cs  Cs4  1  0.95725600  0.54274400  0.45725600  1
  Cs  Cs5  1  0.54274400  0.45725600  0.95725600  1
  Cs  Cs6  1  0.04274400  0.04274400  0.04274400  1
  Cs  Cs7  1  0.45725600  0.95725600  0.54274400  1
  Fe  Fe0  1  0.16288200  0.66288200  0.83711800  1
  Fe  Fe1  1  0.66288200  0.83711800  0.16288200  1
  Fe  Fe2  1  0.83711800  0.16288200  0.66288200  1
  Fe  Fe3  1  0.33711800  0.33711800  0.33711800  1
  Fe  Fe4  1  0.88778900  0.38778900  0.11221100  1
  Fe  Fe5  1  0.38778900  0.11221100  0.88778900  1
  Fe  Fe6  1  0.11221100  0.88778900  0.38778900  1
  Fe  Fe7  1  0.61221100  0.61221100  0.61221100  1
  Mo  Mo0  1  0.97350400  0.69972300  0.12295800  1
  Mo  Mo1  1  0.87704200  0.47350400  0.80027700  1
  Mo  Mo2  1  0.19972300  0.37704200  0.02649600  1
  Mo  Mo3  1  0.47350400  0.80027700  0.87704200  1
  Mo  Mo4  1  0.37704200  0.02649600  0.19972300  1
  Mo  Mo5  1  0.69972300  0.12295800  0.97350400  1
  Mo  Mo6  1  0.02649600  0.19972300  0.37704200  1
  Mo  Mo7  1  0.12295800  0.97350400  0.69972300  1
  Mo  Mo8  1  0.80027700  0.87704200  0.47350400  1
  Mo  Mo9  1  0.52649600  0.30027700  0.62295800  1
  Mo  Mo10  1  0.62295800  0.52649600  0.30027700  1
  Mo  Mo11  1  0.30027700  0.62295800  0.52649600  1
  O  O0  1  0.05395000  0.72339200  0.98332700  1
  O  O1  1  0.01667300  0.55395000  0.77660800  1
  O  O2  1  0.22339200  0.51667300  0.94605000  1
  O  O3  1  0.55395000  0.77660800  0.01667300  1
  O  O4  1  0.51667300  0.94605000  0.22339200  1
  O  O5  1  0.72339200  0.98332700  0.05395000  1
  O  O6  1  0.94605000  0.22339200  0.51667300  1
  O  O7  1  0.98332700  0.05395000  0.72339200  1
  O  O8  1  0.77660800  0.01667300  0.55395000  1
  O  O9  1  0.44605000  0.27660800  0.48332700  1
  O  O10  1  0.48332700  0.44605000  0.27660800  1
  O  O11  1  0.27660800  0.48332700  0.44605000  1
  O  O12  1  0.98221600  0.54504600  0.17172300  1
  O  O13  1  0.82827700  0.48221600  0.95495400  1
  O  O14  1  0.04504600  0.32827700  0.01778400  1
  O  O15  1  0.48221600  0.95495400  0.82827700  1
  O  O16  1  0.32827700  0.01778400  0.04504600  1
  O  O17  1  0.54504600  0.17172300  0.98221600  1
  O  O18  1  0.01778400  0.04504600  0.32827700  1
  O  O19  1  0.17172300  0.98221600  0.54504600  1
  O  O20  1  0.95495400  0.82827700  0.48221600  1
  O  O21  1  0.51778400  0.45495400  0.67172300  1
  O  O22  1  0.67172300  0.51778400  0.45495400  1
  O  O23  1  0.45495400  0.67172300  0.51778400  1
  O  O24  1  0.82031200  0.74941600  0.10373000  1
  O  O25  1  0.89627000  0.32031200  0.75058400  1
  O  O26  1  0.24941600  0.39627000  0.17968800  1
  O  O27  1  0.32031200  0.75058400  0.89627000  1
  O  O28  1  0.39627000  0.17968800  0.24941600  1
  O  O29  1  0.74941600  0.10373000  0.82031200  1
  O  O30  1  0.17968800  0.24941600  0.39627000  1
  O  O31  1  0.10373000  0.82031200  0.74941600  1
  O  O32  1  0.75058400  0.89627000  0.32031200  1
  O  O33  1  0.67968800  0.25058400  0.60373000  1
  O  O34  1  0.60373000  0.67968800  0.25058400  1
  O  O35  1  0.25058400  0.60373000  0.67968800  1
  O  O36  1  0.04817700  0.78901800  0.23578800  1
  O  O37  1  0.76421200  0.54817700  0.71098200  1
  O  O38  1  0.28901800  0.26421200  0.95182300  1
  O  O39  1  0.54817700  0.71098200  0.76421200  1
  O  O40  1  0.26421200  0.95182300  0.28901800  1
  O  O41  1  0.78901800  0.23578800  0.04817700  1
  O  O42  1  0.95182300  0.28901800  0.26421200  1
  O  O43  1  0.23578800  0.04817700  0.78901800  1
  O  O44  1  0.71098200  0.76421200  0.54817700  1
  O  O45  1  0.45182300  0.21098200  0.73578800  1
  O  O46  1  0.73578800  0.45182300  0.21098200  1
  O  O47  1  0.21098200  0.73578800  0.45182300  1
loop_
_geom_bond_atom_site_label_1
_geom_bond_atom_site_label_2
_geom_bond_distance
_geom_bond_site_symmetry_2
Cs0 O31 3.238563 1_655
Cs0 O29 3.238563 1_565
Cs0 O24 3.238563 1_556
Cs0 O37 3.317301 1_555
Cs0 O44 3.317301 1_555
Cs0 O39 3.317301 1_555
Cs0 O0 3.334977 1_655
Cs0 O7 3.334977 1_565
Cs0 O5 3.334977 1_556
Cs1 O35 3.238563 1_555
Cs1 O30 3.238563 1_555
Cs1 O25 3.238563 1_455
Cs1 O43 3.317301 1_555
Cs1 O38 3.317301 1_555
Cs1 O45 3.317301 1_555
Cs1 O1 3.334977 1_555
Cs1 O6 3.334977 1_455
Cs1 O11 3.334977 1_555
Cs2 O27 3.238563 1_554
Cs2 O34 3.238563 1_555
Cs2 O26 3.238563 1_555
Cs2 O40 3.317301 1_555
Cs2 O47 3.317301 1_555
Cs2 O36 3.317301 1_555
Cs2 O10 3.334977 1_555
Cs2 O2 3.334977 1_554
Cs2 O3 3.334977 1_555
Cs3 O33 3.238563 1_555
Cs3 O32 3.238563 1_545
Cs3 O28 3.238563 1_555
Cs3 O41 3.317301 1_555
Cs3 O42 3.317301 1_555
Cs3 O46 3.317301 1_555
Cs3 O8 3.334977 1_555
Cs3 O4 3.334977 1_545
Cs3 O9 3.334977 1_555
Cs4 O12 3.179741 1_555
Cs4 O20 3.179741 1_555
Cs4 O22 3.179741 1_555
Cs4 O37 3.537284 1_555
Cs4 O47 3.537284 1_655
Cs4 O42 3.537284 1_555
Cs4 O6 3.605670 1_555
Cs4 O1 3.605670 1_655
Cs4 O11 3.605670 1_655
Cs5 O17 3.179741 1_555
Cs5 O21 3.179741 1_555
Cs5 O13 3.179741 1_555
Cs5 O39 3.537284 1_555
Cs5 O46 3.537284 1_556
Cs5 O38 3.537284 1_555
Cs5 O2 3.605670 1_555
Cs5 O3 3.605670 1_556
Cs5 O10 3.605670 1_556
Cs6 O16 3.179741 1_555
Cs6 O14 3.179741 1_555
Cs6 O18 3.179741 1_555
Cs6 O36 3.537284 1_545
Cs6 O43 3.537284 1_554
Cs6 O41 3.537284 1_455
Cs6 O5 3.605670 1_445
Cs6 O7 3.605670 1_454
Cs6 O0 3.605670 1_544
Cs7 O15 3.179741 1_555
Cs7 O23 3.179741 1_555
Cs7 O19 3.179741 1_555
Cs7 O45 3.537284 1_565
Cs7 O40 3.537284 1_555
Cs7 O44 3.537284 1_555
Cs7 O8 3.605670 1_565
Cs7 O4 3.605670 1_555
Cs7 O9 3.605670 1_565
Fe0 O35 2.104106 1_555
Fe0 O27 2.104106 1_555
Fe0 O31 2.104106 1_555
Fe0 O2 2.131127 1_555
Fe0 O0 2.131127 1_555
Fe0 O1 2.131127 1_555
Fe1 O32 2.104106 1_555
Fe1 O34 2.104106 1_555
Fe1 O24 2.104106 1_555
Fe1 O4 2.131127 1_555
Fe1 O5 2.131127 1_555
Fe1 O3 2.131127 1_555
Fe2 O33 2.104106 1_555
Fe2 O25 2.104106 1_555
Fe2 O29 2.104106 1_555
Fe2 O6 2.131127 1_555
Fe2 O8 2.131127 1_555
Fe2 O7 2.131127 1_555
Fe3 O28 2.104106 1_555
Fe3 O26 2.104106 1_555
Fe3 O30 2.104106 1_555
Fe3 O10 2.131127 1_555
Fe3 O11 2.131127 1_555
Fe3 O9 2.131127 1_555
Fe4 O42 2.132733 1_555
Fe4 O41 2.132733 1_555
Fe4 O46 2.132733 1_555
Fe4 O14 2.139288 1_655
Fe4 O13 2.139288 1_554
Fe4 O12 2.139288 1_555
Fe5 O38 2.132733 1_555
Fe5 O45 2.132733 1_555
Fe5 O43 2.132733 1_555
Fe5 O16 2.139288 1_556
Fe5 O15 2.139288 1_545
Fe5 O17 2.139288 1_555
Fe6 O40 2.132733 1_555
Fe6 O36 2.132733 1_555
Fe6 O47 2.132733 1_555
Fe6 O18 2.139288 1_565
Fe6 O19 2.139288 1_555
Fe6 O20 2.139288 1_455
Fe7 O44 2.132733 1_555
Fe7 O37 2.132733 1_555
Fe7 O39 2.132733 1_555
Fe7 O22 2.139288 1_555
Fe7 O23 2.139288 1_555
Fe7 O21 2.139288 1_555
Mo0 O36 1.798388 1_655
Mo0 O24 1.799299 1_555
Mo0 O12 1.801759 1_555
Mo0 O0 1.806864 1_654
Mo1 O37 1.798388 1_555
Mo1 O25 1.799299 1_555
Mo1 O13 1.801759 1_555
Mo1 O1 1.806864 1_655
Mo2 O38 1.798388 1_554
Mo2 O26 1.799299 1_555
Mo2 O14 1.801759 1_555
Mo2 O2 1.806864 1_554
Mo3 O39 1.798388 1_555
Mo3 O27 1.799299 1_555
Mo3 O15 1.801759 1_555
Mo3 O3 1.806864 1_556
Mo4 O40 1.798388 1_545
Mo4 O28 1.799299 1_555
Mo4 O16 1.801759 1_555
Mo4 O4 1.806864 1_545
Mo5 O41 1.798388 1_556
Mo5 O29 1.799299 1_555
Mo5 O17 1.801759 1_555
Mo5 O5 1.806864 1_546
Mo6 O42 1.798388 1_455
Mo6 O30 1.799299 1_555
Mo6 O18 1.801759 1_555
Mo6 O6 1.806864 1_455
Mo7 O43 1.798388 1_565
Mo7 O31 1.799299 1_555
Mo7 O19 1.801759 1_555
Mo7 O7 1.806864 1_465
Mo8 O44 1.798388 1_555
Mo8 O32 1.799299 1_555
Mo8 O20 1.801759 1_555
Mo8 O8 1.806864 1_565
Mo9 O45 1.798388 1_555
Mo9 O33 1.799299 1_555
Mo9 O21 1.801759 1_555
Mo9 O9 1.806864 1_555
Mo10 O46 1.798388 1_555
Mo10 O34 1.799299 1_555
Mo10 O22 1.801759 1_555
Mo10 O10 1.806864 1_555
Mo11 O47 1.798388 1_555
Mo11 O35 1.799299 1_555
Mo11 O23 1.801759 1_555
Mo11 O11 1.806864 1_555
