# generated using pymatgen
data_Tm2AlGe3
_symmetry_space_group_name_H-M   'P 1'
_cell_length_a   4.13392500
_cell_length_b   6.79860700
_cell_length_c   17.53075800
_cell_angle_alpha   90.00000000
_cell_angle_beta   90.00000000
_cell_angle_gamma   90.00000000
_symmetry_Int_Tables_number   1
_chemical_formula_structural   Tm2AlGe3
_chemical_formula_sum   'Tm8 Al4 Ge12'
_cell_volume   492.70075172
_cell_formula_units_Z   4
loop_
 _symmetry_equiv_pos_site_id
 _symmetry_equiv_pos_as_xyz
  1  'x, y, z'
loop_
 _atom_site_type_symbol
 _atom_site_label
 _atom_site_symmetry_multiplicity
 _atom_site_fract_x
 _atom_site_fract_y
 _atom_site_fract_z
 _atom_site_occupancy
  Tm  Tm0  1  0.25000000  0.66599100  0.70321000  1
  Tm  Tm1  1  0.75000000  0.33400900  0.29679000  1
  Tm  Tm2  1  0.75000000  0.83400900  0.20321000  1
  Tm  Tm3  1  0.25000000  0.16599100  0.79679000  1
  Tm  Tm4  1  0.25000000  0.66759800  0.91457500  1
  Tm  Tm5  1  0.75000000  0.33240200  0.08542500  1
  Tm  Tm6  1  0.75000000  0.83240200  0.41457500  1
  Tm  Tm7  1  0.25000000  0.16759800  0.58542500  1
  Al  Al0  1  0.25000000  0.95124500  0.06425000  1
  Al  Al1  1  0.75000000  0.04875500  0.93575000  1
  Al  Al2  1  0.75000000  0.54875500  0.56425000  1
  Al  Al3  1  0.25000000  0.45124500  0.43575000  1
  Ge  Ge0  1  0.25000000  0.75282800  0.53466200  1
  Ge  Ge1  1  0.75000000  0.24717200  0.46533800  1
  Ge  Ge2  1  0.75000000  0.74717200  0.03466200  1
  Ge  Ge3  1  0.25000000  0.25282800  0.96533800  1
  Ge  Ge4  1  0.25000000  0.53602700  0.17173200  1
  Ge  Ge5  1  0.75000000  0.46397300  0.82826800  1
  Ge  Ge6  1  0.75000000  0.96397300  0.67173200  1
  Ge  Ge7  1  0.25000000  0.03602700  0.32826800  1
  Ge  Ge8  1  0.25000000  0.64623200  0.31158000  1
  Ge  Ge9  1  0.75000000  0.35376800  0.68842000  1
  Ge  Ge10  1  0.75000000  0.85376800  0.81158000  1
  Ge  Ge11  1  0.25000000  0.14623200  0.18842000  1
loop_
_geom_bond_atom_site_label_1
_geom_bond_atom_site_label_2
_geom_bond_distance
_geom_bond_site_symmetry_2
Al0 Ge2 2.542891 1_455
Al0 Ge2 2.542891 1_555
Al0 Ge11 2.548677 1_565
Al0 Ge3 2.685270 1_564
Al0 Tm2 3.292729 1_555
Al0 Tm2 3.292729 1_455
Al1 Ge3 2.542891 1_655
Al1 Ge3 2.542891 1_555
Al1 Ge10 2.548677 1_545
Al1 Ge2 2.685270 1_546
Al1 Tm3 3.292729 1_655
Al1 Tm3 3.292729 1_555
Al2 Ge0 2.542891 1_555
Al2 Ge0 2.542891 1_655
Al2 Ge9 2.548677 1_555
Al2 Ge1 2.685270 1_555
Al2 Tm0 3.292729 1_555
Al2 Tm0 3.292729 1_655
Al3 Ge1 2.542891 1_455
Al3 Ge1 2.542891 1_555
Al3 Ge8 2.548677 1_555
Al3 Ge0 2.685270 1_555
Al3 Tm1 3.292729 1_455
Al3 Tm1 3.292729 1_555
Ge0 Tm7 2.956949 1_565
Ge0 Tm6 2.999490 1_455
Ge0 Tm6 2.999490 1_555
Ge0 Tm0 3.013176 1_555
Ge1 Tm6 2.956949 1_545
Ge1 Tm7 2.999490 1_655
Ge1 Tm7 2.999490 1_555
Ge1 Tm1 3.013176 1_555
Ge2 Tm5 2.956949 1_555
Ge2 Tm4 2.999490 1_554
Ge2 Tm4 2.999490 1_654
Ge2 Tm2 3.013176 1_555
Ge3 Tm4 2.956949 1_555
Ge3 Tm5 2.999490 1_456
Ge3 Tm5 2.999490 1_556
Ge3 Tm3 3.013176 1_555
Ge4 Ge8 2.563573 1_555
Ge4 Tm5 2.911710 1_455
Ge4 Tm5 2.911710 1_555
Ge4 Tm2 2.946349 1_555
Ge4 Tm2 2.946349 1_455
Ge4 Tm1 3.311363 1_555
Ge4 Tm1 3.311363 1_455
Ge5 Ge9 2.563573 1_555
Ge5 Tm4 2.911710 1_655
Ge5 Tm4 2.911710 1_555
Ge5 Tm3 2.946349 1_655
Ge5 Tm3 2.946349 1_555
Ge5 Tm0 3.311363 1_555
Ge5 Tm0 3.311363 1_655
Ge6 Ge9 2.666162 1_565
Ge6 Tm7 2.911710 1_565
Ge6 Tm7 2.911710 1_665
Ge6 Tm0 2.946349 1_555
Ge6 Tm0 2.946349 1_655
Ge6 Tm3 3.311363 1_565
Ge6 Tm3 3.311363 1_665
Ge7 Ge8 2.666162 1_545
Ge7 Tm6 2.911710 1_445
Ge7 Tm6 2.911710 1_545
Ge7 Tm1 2.946349 1_555
Ge7 Tm1 2.946349 1_455
Ge7 Tm2 3.311363 1_445
Ge7 Tm2 3.311363 1_545
Ge8 Tm1 2.974111 1_455
Ge8 Tm1 2.974111 1_555
Ge8 Tm6 3.022324 1_555
Ge8 Tm6 3.022324 1_455
Ge8 Tm2 3.084051 1_455
Ge8 Tm2 3.084051 1_555
Ge9 Tm0 2.974111 1_555
Ge9 Tm0 2.974111 1_655
Ge9 Tm7 3.022324 1_555
Ge9 Tm7 3.022324 1_655
Ge9 Tm3 3.084051 1_655
Ge9 Tm3 3.084051 1_555
Ge10 Ge6 2.563573 1_555
Ge10 Ge5 2.666162 1_555
Ge10 Tm3 2.974111 1_665
Ge10 Tm3 2.974111 1_565
Ge10 Tm4 3.022324 1_555
Ge10 Tm4 3.022324 1_655
Ge10 Tm0 3.084051 1_555
Ge10 Tm0 3.084051 1_655
Ge11 Ge7 2.563573 1_555
Ge11 Ge4 2.666162 1_555
Ge11 Tm2 2.974111 1_545
Ge11 Tm2 2.974111 1_445
Ge11 Tm5 3.022324 1_555
Ge11 Tm5 3.022324 1_455
Ge11 Tm1 3.084051 1_555
Ge11 Tm1 3.084051 1_455
