# generated using pymatgen
data_AlGe3Mo2
_symmetry_space_group_name_H-M   'P 1'
_cell_length_a   4.81871366
_cell_length_b   4.81844224
_cell_length_c   13.38761215
_cell_angle_alpha   90.00396567
_cell_angle_beta   90.26598291
_cell_angle_gamma   59.97198967
_symmetry_Int_Tables_number   1
_chemical_formula_structural   AlGe3Mo2
_chemical_formula_sum   'Al3 Ge9 Mo6'
_cell_volume   269.11799004
_cell_formula_units_Z   3
loop_
 _symmetry_equiv_pos_site_id
 _symmetry_equiv_pos_as_xyz
  1  'x, y, z'
loop_
 _atom_site_type_symbol
 _atom_site_label
 _atom_site_symmetry_multiplicity
 _atom_site_fract_x
 _atom_site_fract_y
 _atom_site_fract_z
 _atom_site_occupancy
  Al  Al0  1  0.16523570  0.66793214  0.08509161  1
  Al  Al1  1  0.16153932  0.67244692  0.58256250  1
  Al  Al2  1  0.67129345  0.16130994  0.24912984  1
  Ge  Ge0  1  0.66995144  0.16312843  0.74886831  1
  Ge  Ge1  1  0.16889956  0.16266745  0.41600890  1
  Ge  Ge2  1  0.16183872  0.16388349  0.91835231  1
  Ge  Ge3  1  0.82787498  0.33446366  0.08630720  1
  Ge  Ge4  1  0.83359603  0.33777694  0.58281948  1
  Ge  Ge5  1  0.33289602  0.83068184  0.24750677  1
  Ge  Ge6  1  0.32532100  0.83437155  0.74783541  1
  Ge  Ge7  1  0.83856665  0.84172069  0.41644070  1
  Ge  Ge8  1  0.84292181  0.83271702  0.91906845  1
  Mo  Mo0  1  0.49924229  0.99956726  0.07991893  1
  Mo  Mo1  1  0.49889672  0.00229451  0.58353407  1
  Mo  Mo2  1  0.00142164  0.49843470  0.25341708  1
  Mo  Mo3  1  0.99976433  0.49860710  0.75304919  1
  Mo  Mo4  1  0.50026040  0.50068475  0.41684084  1
  Mo  Mo5  1  0.50047794  0.49731161  0.91324942  1
loop_
_geom_bond_atom_site_label_1
_geom_bond_atom_site_label_2
_geom_bond_distance
_geom_bond_site_symmetry_2
Al0 Ge5 2.571583 1_555
Al0 Ge8 2.591683 1_454
Al0 Mo2 2.651470 1_555
Al0 Mo5 2.698724 1_554
Al0 Ge3 2.764474 1_555
Al0 Mo0 2.778997 1_455
Al0 Mo0 2.779180 1_555
Al0 Ge3 2.780731 1_465
Al0 Mo0 2.789268 1_545
Al0 Ge3 2.799881 1_455
Al1 Ge6 2.593664 1_555
Al1 Ge7 2.594434 1_455
Al1 Mo4 2.636793 1_555
Al1 Mo3 2.681238 1_455
Al1 Mo1 2.764625 1_465
Al1 Ge4 2.765540 1_455
Al1 Ge4 2.775682 1_465
Al1 Mo1 2.784701 1_565
Al1 Mo1 2.795698 1_555
Al1 Ge4 2.803782 1_555
Al2 Ge3 2.581190 1_555
Al2 Ge7 2.603768 1_545
Al2 Mo0 2.656209 1_545
Al2 Mo4 2.657494 1_555
Al2 Ge5 2.760375 1_645
Al2 Mo2 2.765784 1_645
Al2 Mo2 2.785333 1_655
Al2 Ge5 2.792333 1_545
Al2 Ge5 2.792506 1_555
Al2 Mo2 2.795581 1_555
Ge0 Mo1 2.607951 1_555
Ge0 Mo5 2.608223 1_555
Ge0 Ge4 2.636742 1_555
Ge0 Ge8 2.660086 1_545
Ge0 Ge6 2.734280 1_645
Ge0 Mo3 2.772645 1_545
Ge0 Mo3 2.777106 1_555
Ge0 Mo3 2.796845 1_455
Ge0 Ge6 2.800549 1_555
Ge0 Ge6 2.810707 1_545
Ge1 Mo2 2.585403 1_555
Ge1 Mo1 2.625458 1_555
Ge1 Ge4 2.641681 1_455
Ge1 Ge5 2.650106 1_545
Ge1 Ge7 2.718298 1_445
Ge1 Mo4 2.761597 1_545
Ge1 Mo4 2.789659 1_455
Ge1 Mo4 2.793754 1_555
Ge1 Ge7 2.794629 1_545
Ge1 Ge7 2.833204 1_455
Ge2 Mo0 2.574494 1_546
Ge2 Mo3 2.613889 1_455
Ge2 Ge3 2.651540 1_456
Ge2 Ge6 2.667787 1_545
Ge2 Ge8 2.713389 1_445
Ge2 Mo5 2.759672 1_455
Ge2 Mo5 2.781876 1_545
Ge2 Ge8 2.791257 1_455
Ge2 Mo5 2.805988 1_555
Ge2 Ge8 2.841793 1_545
Ge3 Mo2 2.640517 1_655
Ge3 Mo5 2.683222 1_554
Ge3 Mo0 2.770435 1_545
Ge3 Mo0 2.775794 1_555
Ge3 Mo0 2.802676 1_645
Ge4 Mo4 2.615135 1_555
Ge4 Mo3 2.653159 1_555
Ge4 Mo1 2.772239 1_565
Ge4 Mo1 2.775594 1_655
Ge4 Mo1 2.797113 1_555
Ge5 Mo0 2.647315 1_555
Ge5 Mo4 2.649153 1_555
Ge5 Mo2 2.771453 1_555
Ge5 Mo2 2.787032 1_565
Ge5 Mo2 2.789779 1_655
Ge6 Mo5 2.620171 1_555
Ge6 Mo1 2.624345 1_565
Ge6 Mo3 2.761267 1_455
Ge6 Mo3 2.772253 1_465
Ge6 Mo3 2.814251 1_555
Ge7 Mo2 2.613700 1_655
Ge7 Mo1 2.654813 1_565
Ge7 Mo4 2.749340 1_565
Ge7 Mo4 2.760941 1_655
Ge7 Mo4 2.835329 1_555
Ge8 Mo0 2.593541 1_556
Ge8 Mo3 2.626833 1_555
Ge8 Mo5 2.744981 1_655
Ge8 Mo5 2.773794 1_565
Ge8 Mo5 2.829982 1_555
