# generated using pymatgen
data_H4C2SN4
_symmetry_space_group_name_H-M   'P 1'
_cell_length_a   10.90150800
_cell_length_b   4.00872200
_cell_length_c   11.40264879
_cell_angle_alpha   73.06870335
_cell_angle_beta   90.00000000
_cell_angle_gamma   90.00000000
_symmetry_Int_Tables_number   1
_chemical_formula_structural   H4C2SN4
_chemical_formula_sum   'H16 C8 S4 N16'
_cell_volume   476.70911125
_cell_formula_units_Z   4
loop_
 _symmetry_equiv_pos_site_id
 _symmetry_equiv_pos_as_xyz
  1  'x, y, z'
loop_
 _atom_site_type_symbol
 _atom_site_label
 _atom_site_symmetry_multiplicity
 _atom_site_fract_x
 _atom_site_fract_y
 _atom_site_fract_z
 _atom_site_occupancy
  H  H0  1  0.08552200  0.86145500  0.94001500  1
  H  H1  1  0.91447800  0.13854500  0.05998500  1
  H  H2  1  0.58552200  0.13854500  0.55998500  1
  H  H3  1  0.41447800  0.86145500  0.44001500  1
  H  H4  1  0.76121900  0.82628200  0.52218200  1
  H  H5  1  0.23878100  0.17371800  0.47781800  1
  H  H6  1  0.26121900  0.17371800  0.97781800  1
  H  H7  1  0.73878100  0.82628200  0.02218200  1
  H  H8  1  0.12905900  0.86443500  0.79348700  1
  H  H9  1  0.87094100  0.13556500  0.20651300  1
  H  H10  1  0.62905900  0.13556500  0.70651300  1
  H  H11  1  0.37094100  0.86443500  0.29348700  1
  H  H12  1  0.10394800  0.31350100  0.53680300  1
  H  H13  1  0.89605200  0.68649900  0.46319700  1
  H  H14  1  0.60394800  0.68649900  0.96319700  1
  H  H15  1  0.39605200  0.31350100  0.03680300  1
  C  C0  1  0.48820300  0.81187300  0.69984200  1
  C  C1  1  0.51179700  0.18812700  0.30015800  1
  C  C2  1  0.98820300  0.18812700  0.80015800  1
  C  C3  1  0.01179700  0.81187300  0.19984200  1
  C  C4  1  0.37551500  0.48985500  0.85096100  1
  C  C5  1  0.62448500  0.51014500  0.14903900  1
  C  C6  1  0.87551500  0.51014500  0.64903900  1
  C  C7  1  0.12448500  0.48985500  0.35096100  1
  S  S0  1  0.29610200  0.49106200  0.71749000  1
  S  S1  1  0.70389800  0.50893800  0.28251000  1
  S  S2  1  0.79610200  0.50893800  0.78251000  1
  S  S3  1  0.20389800  0.49106200  0.21749000  1
  N  N0  1  0.47859100  0.67496400  0.82494600  1
  N  N1  1  0.52140900  0.32503600  0.17505400  1
  N  N2  1  0.97859100  0.32503600  0.67505400  1
  N  N3  1  0.02140900  0.67496400  0.32494600  1
  N  N4  1  0.40147800  0.74667300  0.62743000  1
  N  N5  1  0.59852200  0.25332700  0.37257000  1
  N  N6  1  0.90147800  0.25332700  0.87257000  1
  N  N7  1  0.09852200  0.74667300  0.12743000  1
  N  N8  1  0.83752100  0.67349500  0.53527100  1
  N  N9  1  0.16247900  0.32650500  0.46472900  1
  N  N10  1  0.33752100  0.32650500  0.96472900  1
  N  N11  1  0.66247900  0.67349500  0.03527100  1
  N  N12  1  0.09009200  0.99564300  0.84823700  1
  N  N13  1  0.90990800  0.00435700  0.15176300  1
  N  N14  1  0.59009200  0.00435700  0.65176300  1
  N  N15  1  0.40990800  0.99564300  0.34823700  1
loop_
_geom_bond_atom_site_label_1
_geom_bond_atom_site_label_2
_geom_bond_distance
_geom_bond_site_symmetry_2
H0 N12 1.029148 1_555
H1 N13 1.029148 1_555
H2 N14 1.029148 1_555
H3 N15 1.029148 1_555
H4 N8 1.017874 1_555
H5 N9 1.017874 1_555
H6 N10 1.017874 1_555
H7 N11 1.017874 1_555
H8 N12 1.018875 1_555
H9 N13 1.018875 1_555
H10 N14 1.018875 1_555
H11 N15 1.018875 1_555
H12 N9 1.029717 1_555
H13 N8 1.029717 1_555
H14 N11 1.029717 1_556
H15 N10 1.029717 1_554
C0 N4 1.330270 1_555
C0 N14 1.372336 1_565
C0 N0 1.375186 1_555
C1 N5 1.330270 1_555
C1 N15 1.372336 1_545
C1 N1 1.375186 1_555
C2 N6 1.330270 1_555
C2 N12 1.372336 1_645
C2 N2 1.375186 1_555
C3 N7 1.330270 1_555
C3 N13 1.372336 1_465
C3 N3 1.375186 1_555
C4 N0 1.331574 1_555
C4 N10 1.337329 1_555
C4 S0 1.749702 1_555
C5 N1 1.331574 1_555
C5 N11 1.337329 1_555
C5 S1 1.749702 1_555
C6 N2 1.331574 1_555
C6 N8 1.337329 1_555
C6 S2 1.749702 1_555
C7 N3 1.331574 1_555
C7 N9 1.337329 1_555
C7 S3 1.749702 1_555
N4 S0 1.676687 1_555
N5 S1 1.676687 1_555
N6 S2 1.676687 1_555
N7 S3 1.676687 1_555
