# generated using pymatgen
data_Ce4Mn3Sb8
_symmetry_space_group_name_H-M   'P 1'
_cell_length_a   4.38020822
_cell_length_b   4.38020822
_cell_length_c   20.26918437
_cell_angle_alpha   90.00000000
_cell_angle_beta   90.00000000
_cell_angle_gamma   90.00000000
_symmetry_Int_Tables_number   1
_chemical_formula_structural   Ce4Mn3Sb8
_chemical_formula_sum   'Ce4 Mn3 Sb8'
_cell_volume   388.88911264
_cell_formula_units_Z   1
loop_
 _symmetry_equiv_pos_site_id
 _symmetry_equiv_pos_as_xyz
  1  'x, y, z'
loop_
 _atom_site_type_symbol
 _atom_site_label
 _atom_site_symmetry_multiplicity
 _atom_site_fract_x
 _atom_site_fract_y
 _atom_site_fract_z
 _atom_site_occupancy
  Ce  Ce0  1  0.75000000  0.75000000  0.12474037  1
  Ce  Ce1  1  0.75000000  0.75000000  0.62966685  1
  Ce  Ce2  1  0.25000000  0.25000000  0.37033315  1
  Ce  Ce3  1  0.25000000  0.25000000  0.87525963  1
  Mn  Mn0  1  0.75000000  0.25000000  0.50000000  1
  Mn  Mn1  1  0.25000000  0.75000000  0.00000000  1
  Mn  Mn2  1  0.25000000  0.75000000  0.50000000  1
  Sb  Sb0  1  0.75000000  0.75000000  0.41758857  1
  Sb  Sb1  1  0.75000000  0.75000000  0.92580247  1
  Sb  Sb2  1  0.25000000  0.25000000  0.07419753  1
  Sb  Sb3  1  0.25000000  0.25000000  0.58241143  1
  Sb  Sb4  1  0.75000000  0.25000000  0.24789601  1
  Sb  Sb5  1  0.75000000  0.25000000  0.75210399  1
  Sb  Sb6  1  0.25000000  0.75000000  0.24739544  1
  Sb  Sb7  1  0.25000000  0.75000000  0.75260456  1
loop_
_geom_bond_atom_site_label_1
_geom_bond_atom_site_label_2
_geom_bond_distance
_geom_bond_site_symmetry_2
Ce0 Sb2 3.262305 1_565
Ce0 Sb2 3.262305 1_665
Ce0 Sb2 3.262305 1_555
Ce0 Sb2 3.262305 1_655
Ce0 Sb6 3.313207 1_555
Ce0 Sb6 3.313207 1_655
Ce0 Sb4 3.320827 1_555
Ce0 Sb4 3.320827 1_565
Ce0 Mn1 3.345040 1_555
Ce0 Mn1 3.345040 1_655
Ce1 Sb3 3.241998 1_555
Ce1 Sb3 3.241998 1_655
Ce1 Sb3 3.241998 1_565
Ce1 Sb3 3.241998 1_665
Ce1 Sb5 3.309894 1_555
Ce1 Sb5 3.309894 1_565
Ce1 Sb7 3.317508 1_555
Ce1 Sb7 3.317508 1_655
Ce1 Mn0 3.421141 1_565
Ce1 Mn2 3.421141 1_555
Ce1 Mn0 3.421141 1_555
Ce1 Mn2 3.421141 1_655
Ce2 Sb0 3.241998 1_445
Ce2 Sb0 3.241998 1_545
Ce2 Sb0 3.241998 1_555
Ce2 Sb0 3.241998 1_455
Ce2 Sb4 3.309894 1_555
Ce2 Sb4 3.309894 1_455
Ce2 Sb6 3.317508 1_545
Ce2 Sb6 3.317508 1_555
Ce2 Mn2 3.421141 1_555
Ce2 Mn0 3.421141 1_455
Ce2 Mn0 3.421141 1_555
Ce2 Mn2 3.421141 1_545
Ce3 Sb1 3.262305 1_455
Ce3 Sb1 3.262305 1_555
Ce3 Sb1 3.262305 1_445
Ce3 Sb1 3.262305 1_545
Ce3 Sb7 3.313207 1_545
Ce3 Sb7 3.313207 1_555
Ce3 Sb5 3.320827 1_455
Ce3 Sb5 3.320827 1_555
Ce3 Mn1 3.345040 1_546
Ce3 Mn1 3.345040 1_556
Mn0 Sb0 2.754421 1_545
Mn0 Sb0 2.754421 1_555
Mn0 Sb3 2.754421 1_555
Mn0 Sb3 2.754421 1_655
Mn1 Sb1 2.656754 1_554
Mn1 Sb1 2.656754 1_454
Mn1 Sb2 2.656754 1_565
Mn1 Sb2 2.656754 1_555
Mn2 Sb0 2.754421 1_555
Mn2 Sb0 2.754421 1_455
Mn2 Sb3 2.754421 1_555
Mn2 Sb3 2.754421 1_565
Sb4 Sb6 3.097292 1_555
Sb4 Sb6 3.097292 1_645
Sb4 Sb6 3.097292 1_655
Sb4 Sb6 3.097292 1_545
Sb5 Sb7 3.097292 1_645
Sb5 Sb7 3.097292 1_545
Sb5 Sb7 3.097292 1_555
Sb5 Sb7 3.097292 1_655
