# generated using pymatgen
data_SmMgSe3
_symmetry_space_group_name_H-M   'P 1'
_cell_length_a   8.59045850
_cell_length_b   11.93686800
_cell_length_c   7.77177893
_cell_angle_alpha   90.00000000
_cell_angle_beta   135.29838521
_cell_angle_gamma   90.00000000
_symmetry_Int_Tables_number   1
_chemical_formula_structural   SmMgSe3
_chemical_formula_sum   'Sm4 Mg4 Se12'
_cell_volume   560.58133760
_cell_formula_units_Z   4
loop_
 _symmetry_equiv_pos_site_id
 _symmetry_equiv_pos_as_xyz
  1  'x, y, z'
loop_
 _atom_site_type_symbol
 _atom_site_label
 _atom_site_symmetry_multiplicity
 _atom_site_fract_x
 _atom_site_fract_y
 _atom_site_fract_z
 _atom_site_occupancy
  Sm  Sm0  1  0.95043400  0.00000000  0.17750900  1
  Sm  Sm1  1  0.04956600  0.00000000  0.82249100  1
  Sm  Sm2  1  0.45043400  0.50000000  0.17750900  1
  Sm  Sm3  1  0.54956600  0.50000000  0.82249100  1
  Mg  Mg0  1  0.00000000  0.32752100  0.00000000  1
  Mg  Mg1  1  0.00000000  0.67247900  0.00000000  1
  Mg  Mg2  1  0.50000000  0.82752100  0.00000000  1
  Mg  Mg3  1  0.50000000  0.17247900  0.00000000  1
  Se  Se0  1  0.26092800  0.15658700  0.24118700  1
  Se  Se1  1  0.73907200  0.84341300  0.75881300  1
  Se  Se2  1  0.73907200  0.15658700  0.75881300  1
  Se  Se3  1  0.26092800  0.84341300  0.24118700  1
  Se  Se4  1  0.76092800  0.65658700  0.24118700  1
  Se  Se5  1  0.23907200  0.34341300  0.75881300  1
  Se  Se6  1  0.23907200  0.65658700  0.75881300  1
  Se  Se7  1  0.76092800  0.34341300  0.24118700  1
  Se  Se8  1  0.29990300  0.00000000  0.69765200  1
  Se  Se9  1  0.70009700  0.00000000  0.30234800  1
  Se  Se10  1  0.79990300  0.50000000  0.69765200  1
  Se  Se11  1  0.20009700  0.50000000  0.30234800  1
loop_
_geom_bond_atom_site_label_1
_geom_bond_atom_site_label_2
_geom_bond_distance
_geom_bond_site_symmetry_2
Mg0 Se0 2.593911 1_555
Mg0 Se2 2.593911 1_454
Mg0 Se11 2.640693 1_555
Mg0 Se10 2.640693 1_454
Mg1 Se3 2.593911 1_555
Mg1 Se1 2.593911 1_454
Mg1 Se11 2.640693 1_555
Mg1 Se10 2.640693 1_454
Mg2 Se4 2.593911 1_555
Mg2 Se6 2.593911 1_554
Mg2 Se9 2.640693 1_565
Mg2 Se8 2.640693 1_564
Mg3 Se7 2.593911 1_555
Mg3 Se5 2.593911 1_554
Mg3 Se9 2.640693 1_555
Mg3 Se8 2.640693 1_554
Se0 Sm0 2.996098 1_455
Se0 Sm1 2.996683 1_554
Se1 Sm1 2.996098 1_665
Se1 Sm0 2.996683 1_566
Se2 Sm1 2.996098 1_655
Se2 Sm0 2.996683 1_556
Se3 Sm0 2.996098 1_465
Se3 Sm1 2.996683 1_564
Se4 Sm2 2.996098 1_555
Se4 Sm3 2.996683 1_554
Se5 Sm3 2.996098 1_555
Se5 Sm2 2.996683 1_556
Se6 Sm3 2.996098 1_555
Se6 Sm2 2.996683 1_556
Se7 Sm2 2.996098 1_555
Se7 Sm3 2.996683 1_554
Se8 Sm0 2.846426 1_455
Se8 Sm1 2.920969 1_555
Se9 Sm1 2.846426 1_655
Se9 Sm0 2.920969 1_555
Se10 Sm2 2.846426 1_555
Se10 Sm3 2.920969 1_555
Se11 Sm3 2.846426 1_555
Se11 Sm2 2.920969 1_555
