# generated using pymatgen
data_Li3(CoO2)4
_symmetry_space_group_name_H-M   'P 1'
_cell_length_a   5.78914250
_cell_length_b   5.93760982
_cell_length_c   8.26087373
_cell_angle_alpha   87.95077994
_cell_angle_beta   89.98851960
_cell_angle_gamma   89.99426642
_symmetry_Int_Tables_number   1
_chemical_formula_structural   Li3(CoO2)4
_chemical_formula_sum   'Li6 Co8 O16'
_cell_volume   283.77493886
_cell_formula_units_Z   2
loop_
 _symmetry_equiv_pos_site_id
 _symmetry_equiv_pos_as_xyz
  1  'x, y, z'
loop_
 _atom_site_type_symbol
 _atom_site_label
 _atom_site_symmetry_multiplicity
 _atom_site_fract_x
 _atom_site_fract_y
 _atom_site_fract_z
 _atom_site_occupancy
  Li  Li0  1  0.50004700  0.00001100  0.99999200  1
  Li  Li1  1  0.99994000  0.49998600  0.50000400  1
  Li  Li2  1  0.24860900  0.74813300  0.25150900  1
  Li  Li3  1  0.75139600  0.25188000  0.74849600  1
  Li  Li4  1  0.75140000  0.74816800  0.25143300  1
  Li  Li5  1  0.24857500  0.25180400  0.74857200  1
  Co  Co0  1  0.75483600  0.24791500  0.25328600  1
  Co  Co1  1  0.24517900  0.75204900  0.74668900  1
  Co  Co2  1  0.24523700  0.24787200  0.25308800  1
  Co  Co3  1  0.75479900  0.75218100  0.74692900  1
  Co  Co4  1  0.50002100  0.00003800  0.50001700  1
  Co  Co5  1  0.00001000  0.49996900  0.99998200  1
  Co  Co6  1  0.50005500  0.49999100  0.99997600  1
  Co  Co7  1  0.99994200  0.00000100  0.50002000  1
  O  O0  1  0.49999400  0.01009000  0.26910500  1
  O  O1  1  0.99986800  0.51296900  0.75501000  1
  O  O2  1  0.49997100  0.98988700  0.73091800  1
  O  O3  1  0.00015100  0.48706400  0.24495600  1
  O  O4  1  0.00006500  0.01336700  0.26418200  1
  O  O5  1  0.50021800  0.51496000  0.77162200  1
  O  O6  1  0.24174900  0.22387100  0.49459000  1
  O  O7  1  0.73627600  0.72524100  0.99273700  1
  O  O8  1  0.24139500  0.77552300  0.50552000  1
  O  O9  1  0.73652600  0.27484900  0.00729700  1
  O  O10  1  0.75852000  0.22445900  0.49458600  1
  O  O11  1  0.26356700  0.72518300  0.99257600  1
  O  O12  1  0.75817600  0.77614400  0.50536900  1
  O  O13  1  0.26378800  0.27472000  0.00732400  1
  O  O14  1  0.99970200  0.98669300  0.73583300  1
  O  O15  1  0.49998800  0.48497900  0.22838300  1
loop_
_geom_bond_atom_site_label_1
_geom_bond_atom_site_label_2
_geom_bond_distance
_geom_bond_site_symmetry_2
Li0 O13 2.131078 1_556
Li0 O7 2.131209 1_545
Li0 O9 2.132695 1_556
Li0 O11 2.132705 1_545
Li0 O2 2.225747 1_545
Li0 O0 2.226052 1_556
Li1 O1 2.110735 1_555
Li1 O3 2.111056 1_655
Li1 O10 2.153475 1_555
Li1 O8 2.153690 1_655
Li1 O6 2.157366 1_655
Li1 O12 2.157371 1_555
Li2 O8 2.110840 1_555
Li2 O3 2.116879 1_555
Li2 O4 2.138391 1_565
Li2 O0 2.138927 1_565
Li2 O15 2.148606 1_555
Li2 O11 2.149933 1_554
Li3 O10 2.110019 1_555
Li3 O1 2.117004 1_555
Li3 O14 2.137252 1_545
Li3 O2 2.139227 1_545
Li3 O5 2.147498 1_555
Li3 O9 2.148837 1_556
Li4 O12 2.110585 1_555
Li4 O3 2.117926 1_655
Li4 O0 2.138666 1_565
Li4 O4 2.138997 1_665
Li4 O7 2.148042 1_554
Li4 O15 2.149079 1_555
Li5 O6 2.110940 1_555
Li5 O1 2.118002 1_455
Li5 O2 2.138591 1_545
Li5 O14 2.139416 1_445
Li5 O13 2.148518 1_556
Li5 O5 2.149842 1_555
Co0 O4 1.988399 1_655
Co0 O10 1.993352 1_555
Co0 O3 2.007810 1_655
Co0 O9 2.035441 1_555
Co0 O0 2.043242 1_555
Co0 O15 2.044333 1_555
Co1 O14 1.989815 1_455
Co1 O8 1.992283 1_555
Co1 O1 2.007504 1_455
Co1 O11 2.034608 1_555
Co1 O2 2.043071 1_555
Co1 O5 2.045252 1_555
Co2 O4 1.988192 1_555
Co2 O6 1.995110 1_555
Co2 O3 2.006857 1_555
Co2 O13 2.033601 1_555
Co2 O0 2.042610 1_555
Co2 O15 2.044124 1_555
Co3 O14 1.987109 1_555
Co3 O12 1.995573 1_555
Co3 O1 2.006868 1_555
Co3 O7 2.033977 1_555
Co3 O2 2.042594 1_555
Co3 O5 2.043870 1_555
Co4 O2 1.906241 1_545
Co4 O0 1.906334 1_555
Co4 O12 1.999548 1_545
Co4 O6 1.999813 1_555
Co4 O10 2.003299 1_555
Co4 O8 2.004218 1_545
Co5 O1 2.022395 1_455
Co5 O3 2.022410 1_556
Co5 O9 2.027715 1_456
Co5 O11 2.028405 1_555
Co5 O7 2.029211 1_455
Co5 O13 2.029318 1_556
Co6 O5 1.885319 1_555
Co6 O15 1.885759 1_556
Co6 O7 1.912343 1_555
Co6 O13 1.912626 1_556
Co6 O9 1.912761 1_556
Co6 O11 1.913043 1_555
Co7 O12 1.929699 1_545
Co7 O6 1.929923 1_655
Co7 O10 1.930532 1_555
Co7 O8 1.930743 1_645
Co7 O14 1.946798 1_545
Co7 O4 1.947006 1_655
