# generated using pymatgen
data_Li9Mn2Co5O16
_symmetry_space_group_name_H-M   'P 1'
_cell_length_a   2.87573400
_cell_length_b   9.80021000
_cell_length_c   10.35502180
_cell_angle_alpha   81.47417827
_cell_angle_beta   90.00000000
_cell_angle_gamma   90.00000000
_symmetry_Int_Tables_number   1
_chemical_formula_structural   Li9Mn2Co5O16
_chemical_formula_sum   'Li9 Mn2 Co5 O16'
_cell_volume   288.60847020
_cell_formula_units_Z   1
loop_
 _symmetry_equiv_pos_site_id
 _symmetry_equiv_pos_as_xyz
  1  'x, y, z'
loop_
 _atom_site_type_symbol
 _atom_site_label
 _atom_site_symmetry_multiplicity
 _atom_site_fract_x
 _atom_site_fract_y
 _atom_site_fract_z
 _atom_site_occupancy
  Li  Li0  1  0.50000000  0.26592500  0.87185600  1
  Li  Li1  1  0.50000000  0.74408800  0.62283500  1
  Li  Li2  1  0.50000000  0.25591200  0.37716500  1
  Li  Li3  1  0.00000000  0.27054200  0.60836600  1
  Li  Li4  1  0.00000000  0.72945800  0.39163400  1
  Li  Li5  1  0.00000000  0.26513200  0.12499500  1
  Li  Li6  1  0.50000000  0.73407500  0.12814400  1
  Li  Li7  1  0.00000000  0.73486800  0.87500500  1
  Li  Li8  1  0.50000000  0.50000000  0.50000000  1
  Mn  Mn0  1  0.00000000  0.00000000  0.00000000  1
  Mn  Mn1  1  0.00000000  0.00000000  0.50000000  1
  Co  Co0  1  0.00000000  0.50580900  0.73268300  1
  Co  Co1  1  0.00000000  0.49419100  0.26731700  1
  Co  Co2  1  0.50000000  0.00326600  0.24669000  1
  Co  Co3  1  0.50000000  0.50000000  0.00000000  1
  Co  Co4  1  0.50000000  0.99673400  0.75331000  1
  O  O0  1  0.50000000  0.11572600  0.04726300  1
  O  O1  1  0.50000000  0.60365900  0.82752600  1
  O  O2  1  0.50000000  0.11317800  0.55982000  1
  O  O3  1  0.00000000  0.09994500  0.82182000  1
  O  O4  1  0.00000000  0.62107900  0.57884500  1
  O  O5  1  0.00000000  0.11567200  0.29806000  1
  O  O6  1  0.50000000  0.62178900  0.30380900  1
  O  O7  1  0.00000000  0.60863400  0.05448400  1
  O  O8  1  0.50000000  0.37821100  0.69619100  1
  O  O9  1  0.50000000  0.88682200  0.44018000  1
  O  O10  1  0.50000000  0.39634100  0.17247400  1
  O  O11  1  0.00000000  0.37892100  0.42115500  1
  O  O12  1  0.00000000  0.90005500  0.17818000  1
  O  O13  1  0.00000000  0.39136600  0.94551600  1
  O  O14  1  0.50000000  0.88427400  0.95273700  1
  O  O15  1  0.00000000  0.88432800  0.70194000  1
loop_
_geom_bond_atom_site_label_1
_geom_bond_atom_site_label_2
_geom_bond_distance
_geom_bond_site_symmetry_2
Li0 O8 1.981472 1_555
Li0 O13 2.106794 1_655
Li0 O13 2.106794 1_555
Li0 O0 2.161730 1_556
Li0 O3 2.287306 1_555
Li0 O3 2.287306 1_655
Li1 O4 1.972573 1_555
Li1 O4 1.972573 1_655
Li1 O9 2.179358 1_555
Li1 O15 2.227370 1_655
Li1 O15 2.227370 1_555
Li1 O1 2.349831 1_555
Li2 O11 1.972573 1_555
Li2 O11 1.972573 1_655
Li2 O2 2.179358 1_555
Li2 O5 2.227370 1_555
Li2 O5 2.227370 1_655
Li2 O10 2.349831 1_555
Li3 O11 2.067772 1_555
Li3 O8 2.071825 1_555
Li3 O8 2.071825 1_455
Li3 O2 2.220004 1_555
Li3 O2 2.220004 1_455
Li3 O3 2.566125 1_555
Li4 O4 2.067772 1_555
Li4 O6 2.071825 1_455
Li4 O6 2.071825 1_555
Li4 O9 2.220004 1_555
Li4 O9 2.220004 1_455
Li4 O12 2.566125 1_555
Li5 O10 2.037181 1_555
Li5 O10 2.037181 1_455
Li5 O13 2.074316 1_554
Li5 O5 2.139797 1_555
Li5 O0 2.282262 1_555
Li5 O0 2.282262 1_455
Li6 O6 1.981472 1_555
Li6 O7 2.106794 1_555
Li6 O7 2.106794 1_655
Li6 O14 2.161730 1_554
Li6 O12 2.287306 1_555
Li6 O12 2.287306 1_655
Li7 O1 2.037181 1_555
Li7 O1 2.037181 1_455
Li7 O7 2.074316 1_556
Li7 O15 2.139797 1_555
Li7 O14 2.282262 1_555
Li7 O14 2.282262 1_455
Li8 O11 2.104593 1_655
Li8 O11 2.104593 1_555
Li8 O4 2.104593 1_555
Li8 O4 2.104593 1_655
Li8 O6 2.198375 1_555
Li8 O8 2.198375 1_555
Mn0 O0 1.938514 1_455
Mn0 O0 1.938514 1_555
Mn0 O14 1.938514 1_444
Mn0 O14 1.938514 1_544
Mn0 O12 1.956469 1_545
Mn0 O3 1.956469 1_554
Mn1 O9 1.971076 1_545
Mn1 O2 1.971076 1_555
Mn1 O2 1.971076 1_455
Mn1 O9 1.971076 1_445
Mn1 O5 2.225954 1_555
Mn1 O15 2.225954 1_545
Co0 O4 1.811133 1_555
Co0 O8 1.978403 1_455
Co0 O8 1.978403 1_555
Co0 O1 2.056896 1_455
Co0 O1 2.056896 1_555
Co0 O13 2.319941 1_555
Co1 O11 1.811133 1_555
Co1 O6 1.978403 1_455
Co1 O6 1.978403 1_555
Co1 O10 2.056896 1_555
Co1 O10 2.056896 1_455
Co1 O7 2.319941 1_555
Co2 O5 1.933312 1_555
Co2 O5 1.933312 1_655
Co2 O12 1.951056 1_645
Co2 O12 1.951056 1_545
Co2 O9 2.153767 1_545
Co2 O0 2.191885 1_555
Co3 O10 1.919307 1_555
Co3 O1 1.919307 1_554
Co3 O13 1.922840 1_554
Co3 O13 1.922840 1_654
Co3 O7 1.922840 1_655
Co3 O7 1.922840 1_555
Co4 O15 1.933312 1_555
Co4 O15 1.933312 1_655
Co4 O3 1.951056 1_565
Co4 O3 1.951056 1_665
Co4 O2 2.153767 1_565
Co4 O14 2.191885 1_555
