# generated using pymatgen
data_NpSi2Ni
_symmetry_space_group_name_H-M   'P 1'
_cell_length_a   4.01592570
_cell_length_b   4.05373240
_cell_length_c   8.34952839
_cell_angle_alpha   104.04776158
_cell_angle_beta   90.25857381
_cell_angle_gamma   90.00645545
_symmetry_Int_Tables_number   1
_chemical_formula_structural   NpSi2Ni
_chemical_formula_sum   'Np2 Si4 Ni2'
_cell_volume   131.85956120
_cell_formula_units_Z   2
loop_
 _symmetry_equiv_pos_site_id
 _symmetry_equiv_pos_as_xyz
  1  'x, y, z'
loop_
 _atom_site_type_symbol
 _atom_site_label
 _atom_site_symmetry_multiplicity
 _atom_site_fract_x
 _atom_site_fract_y
 _atom_site_fract_z
 _atom_site_occupancy
  Np  Np0  1  0.25039101  0.39507024  0.78997865  1
  Np  Np1  1  0.74951893  0.60503302  0.21001490  1
  Si  Si0  1  0.25092918  0.04182459  0.08055134  1
  Si  Si1  1  0.74898916  0.96022946  0.91940700  1
  Si  Si2  1  0.25346133  0.74873323  0.49899330  1
  Si  Si3  1  0.74660768  0.25097562  0.50105235  1
  Ni  Ni0  1  0.24453665  0.17868575  0.36067445  1
  Ni  Ni1  1  0.75556605  0.81944809  0.63932701  1
loop_
_geom_bond_atom_site_label_1
_geom_bond_atom_site_label_2
_geom_bond_distance
_geom_bond_site_symmetry_2
Np0 Si1 3.031570 1_545
Np0 Si1 3.033711 1_555
Np0 Si1 3.045194 1_445
Np0 Si1 3.047928 1_455
Np0 Si3 3.080839 1_555
Np0 Si3 3.086361 1_455
Np0 Si0 3.102132 1_556
Np0 Si2 3.106389 1_555
Np0 Si0 3.109966 1_566
Np0 Si2 3.110922 1_545
Np1 Si0 3.028457 1_555
Np1 Si0 3.036982 1_565
Np1 Si0 3.042744 1_655
Np1 Si0 3.050627 1_665
Np1 Si2 3.080746 1_555
Np1 Si2 3.087098 1_655
Np1 Si1 3.104973 1_544
Np1 Si1 3.107552 1_554
Np1 Si3 3.107815 1_555
Np1 Si3 3.110125 1_565
Si0 Si1 2.393491 1_544
Si0 Si1 2.396311 1_444
Ni0 Si0 2.269250 1_555
Ni0 Si3 2.304950 1_455
Ni0 Si3 2.310161 1_555
Ni0 Si2 2.312928 1_545
Ni0 Si2 2.319265 1_555
Ni0 Np1 3.081932 1_445
Ni0 Np1 3.091119 1_455
Ni0 Np1 3.115559 1_545
Ni0 Np1 3.124061 1_555
Ni1 Si1 2.268878 1_555
Ni1 Si2 2.304639 1_655
Ni1 Si2 2.310090 1_555
Ni1 Si3 2.313584 1_555
Ni1 Si3 2.318265 1_565
Ni1 Np0 3.085339 1_655
Ni1 Np0 3.086659 1_665
Ni1 Np0 3.119339 1_555
Ni1 Np0 3.121232 1_565
