# generated using pymatgen
data_DyMgPd
_symmetry_space_group_name_H-M   'P 1'
_cell_length_a   7.39968136
_cell_length_b   7.39968136
_cell_length_c   4.06720911
_cell_angle_alpha   90.00000000
_cell_angle_beta   90.00000000
_cell_angle_gamma   120.00000398
_symmetry_Int_Tables_number   1
_chemical_formula_structural   DyMgPd
_chemical_formula_sum   'Dy3 Mg3 Pd3'
_cell_volume   192.86488123
_cell_formula_units_Z   3
loop_
 _symmetry_equiv_pos_site_id
 _symmetry_equiv_pos_as_xyz
  1  'x, y, z'
loop_
 _atom_site_type_symbol
 _atom_site_label
 _atom_site_symmetry_multiplicity
 _atom_site_fract_x
 _atom_site_fract_y
 _atom_site_fract_z
 _atom_site_occupancy
  Dy  Dy0  1  0.00000000  0.41200386  0.50000000  1
  Dy  Dy1  1  0.58799614  0.58799614  0.50000000  1
  Dy  Dy2  1  0.41200386  0.00000000  0.50000000  1
  Mg  Mg0  1  -0.00000000  0.75723657  -0.00000000  1
  Mg  Mg1  1  0.24276343  0.24276343  -0.00000000  1
  Mg  Mg2  1  0.75723657  -0.00000000  0.00000000  1
  Pd  Pd0  1  0.33333300  0.66666700  -0.00000000  1
  Pd  Pd1  1  0.66666700  0.33333300  0.00000000  1
  Pd  Pd2  1  -0.00000000  -0.00000000  0.50000000  1
loop_
_geom_bond_atom_site_label_1
_geom_bond_atom_site_label_2
_geom_bond_distance
_geom_bond_site_symmetry_2
Dy0 Pd1 3.020341 1_456
Dy0 Pd1 3.020341 1_455
Dy0 Pd0 3.020343 1_555
Dy0 Pd0 3.020343 1_556
Dy0 Pd2 3.048697 1_555
Dy1 Pd1 3.020347 1_556
Dy1 Pd1 3.020347 1_555
Dy1 Pd0 3.020347 1_556
Dy1 Pd0 3.020347 1_555
Dy1 Pd2 3.048697 1_665
Dy2 Pd0 3.020341 1_546
Dy2 Pd0 3.020341 1_545
Dy2 Pd1 3.020343 1_555
Dy2 Pd1 3.020343 1_556
Dy2 Pd2 3.048697 1_555
Mg0 Pd2 2.713393 1_564
Mg0 Pd2 2.713393 1_565
Mg0 Pd0 2.861138 1_555
Mg0 Pd1 2.861143 1_455
Mg1 Pd2 2.713393 1_555
Mg1 Pd2 2.713393 1_554
Mg1 Pd1 2.861145 1_555
Mg1 Pd0 2.861145 1_555
Mg2 Pd2 2.713393 1_654
Mg2 Pd2 2.713393 1_655
Mg2 Pd1 2.861138 1_555
Mg2 Pd0 2.861143 1_545
