# generated using pymatgen
data_Li9Mn2Co5O16
_symmetry_space_group_name_H-M   'P 1'
_cell_length_a   5.84412200
_cell_length_b   7.71200558
_cell_length_c   7.73911519
_cell_angle_alpha   66.98663280
_cell_angle_beta   67.82546841
_cell_angle_gamma   67.97720258
_symmetry_Int_Tables_number   1
_chemical_formula_structural   Li9Mn2Co5O16
_chemical_formula_sum   'Li9 Mn2 Co5 O16'
_cell_volume   286.51854396
_cell_formula_units_Z   1
loop_
 _symmetry_equiv_pos_site_id
 _symmetry_equiv_pos_as_xyz
  1  'x, y, z'
loop_
 _atom_site_type_symbol
 _atom_site_label
 _atom_site_symmetry_multiplicity
 _atom_site_fract_x
 _atom_site_fract_y
 _atom_site_fract_z
 _atom_site_occupancy
  Li  Li0  1  0.00000000  0.50000000  0.00000000  1
  Li  Li1  1  0.50000000  0.00000000  0.50000000  1
  Li  Li2  1  0.62372900  0.37959700  0.36556400  1
  Li  Li3  1  0.12844000  0.86986400  0.88180100  1
  Li  Li4  1  0.25423900  0.24747100  0.75145400  1
  Li  Li5  1  0.74576100  0.75252900  0.24854600  1
  Li  Li6  1  0.87156000  0.13013600  0.11819900  1
  Li  Li7  1  0.37627100  0.62040300  0.63443600  1
  Li  Li8  1  0.50000000  0.50000000  0.00000000  1
  Mn  Mn0  1  0.87405800  0.62097000  0.62955000  1
  Mn  Mn1  1  0.12594200  0.37903000  0.37045000  1
  Co  Co0  1  0.37582400  0.13212100  0.11389100  1
  Co  Co1  1  0.00000000  0.00000000  0.50000000  1
  Co  Co2  1  0.62417600  0.86787900  0.88610900  1
  Co  Co3  1  0.74974400  0.25214700  0.74997900  1
  Co  Co4  1  0.25025600  0.74785300  0.25002100  1
  O  O0  1  0.99460900  0.74187000  0.74405000  1
  O  O1  1  0.47072500  0.24391500  0.25796100  1
  O  O2  1  0.59490800  0.64339600  0.12838400  1
  O  O3  1  0.10384800  0.15039200  0.60811100  1
  O  O4  1  0.22713900  0.49366200  0.50365000  1
  O  O5  1  0.74681200  0.99482000  0.99522700  1
  O  O6  1  0.86539900  0.39029900  0.84882300  1
  O  O7  1  0.34581200  0.88110900  0.37048000  1
  O  O8  1  0.00539100  0.25813000  0.25595000  1
  O  O9  1  0.52927500  0.75608500  0.74203900  1
  O  O10  1  0.65418800  0.11889100  0.62952000  1
  O  O11  1  0.13460100  0.60970100  0.15117700  1
  O  O12  1  0.25318800  0.00518000  0.00477300  1
  O  O13  1  0.77286100  0.50633800  0.49635000  1
  O  O14  1  0.89615200  0.84960800  0.39188900  1
  O  O15  1  0.40509200  0.35660400  0.87161600  1
loop_
_geom_bond_atom_site_label_1
_geom_bond_atom_site_label_2
_geom_bond_distance
_geom_bond_site_symmetry_2
Li0 O8 2.125580 1_555
Li0 O0 2.125580 1_454
Li0 O6 2.161274 1_454
Li0 O11 2.161274 1_555
Li0 O2 2.221462 1_455
Li0 O15 2.221462 1_554
Li1 O1 2.078937 1_555
Li1 O9 2.078937 1_545
Li1 O7 2.162736 1_545
Li1 O10 2.162736 1_555
Li1 O3 2.165178 1_555
Li1 O14 2.165178 1_545
Li2 O8 2.048967 1_655
Li2 O1 2.129092 1_555
Li2 O2 2.143152 1_555
Li2 O4 2.150353 1_555
Li2 O13 2.194936 1_555
Li2 O10 2.245389 1_555
Li3 O5 2.060366 1_455
Li3 O12 2.096920 1_566
Li3 O9 2.171466 1_555
Li3 O0 2.180309 1_455
Li3 O11 2.259419 1_556
Li3 O3 2.366683 1_565
Li4 O15 2.034125 1_555
Li4 O6 2.103392 1_455
Li4 O3 2.107724 1_555
Li4 O4 2.112945 1_555
Li4 O12 2.114287 1_556
Li4 O10 2.159974 1_555
Li5 O2 2.034125 1_555
Li5 O11 2.103392 1_655
Li5 O14 2.107724 1_555
Li5 O13 2.112945 1_555
Li5 O5 2.114287 1_554
Li5 O7 2.159974 1_555
Li6 O12 2.060366 1_655
Li6 O5 2.096920 1_544
Li6 O1 2.171466 1_555
Li6 O8 2.180309 1_655
Li6 O6 2.259419 1_554
Li6 O14 2.366683 1_545
Li7 O0 2.048967 1_455
Li7 O9 2.129092 1_555
Li7 O15 2.143152 1_555
Li7 O13 2.150353 1_555
Li7 O4 2.194936 1_555
Li7 O7 2.245389 1_555
Li8 O6 2.043964 1_554
Li8 O11 2.043964 1_555
Li8 O2 2.062258 1_555
Li8 O15 2.062258 1_554
Li8 O9 2.197264 1_554
Li8 O1 2.197264 1_555
Mn0 O6 1.920732 1_555
Mn0 O9 1.927241 1_555
Mn0 O13 1.938761 1_555
Mn0 O0 1.939274 1_555
Mn0 O4 1.970306 1_655
Mn0 O14 1.991084 1_555
Mn1 O11 1.920732 1_555
Mn1 O1 1.927241 1_555
Mn1 O4 1.938761 1_555
Mn1 O8 1.939274 1_555
Mn1 O13 1.970306 1_455
Mn1 O3 1.991084 1_555
Co0 O12 1.953110 1_555
Co0 O1 1.967507 1_555
Co0 O15 1.995974 1_554
Co0 O5 2.049605 1_544
Co0 O8 2.073811 1_555
Co0 O7 2.169670 1_545
Co1 O10 1.931198 1_455
Co1 O7 1.931198 1_545
Co1 O3 2.020768 1_555
Co1 O14 2.020768 1_445
Co1 O0 2.143238 1_445
Co1 O8 2.143238 1_555
Co2 O5 1.953110 1_555
Co2 O9 1.967507 1_555
Co2 O2 1.995974 1_556
Co2 O12 2.049605 1_566
Co2 O0 2.073811 1_555
Co2 O10 2.169670 1_565
Co3 O15 1.880659 1_555
Co3 O6 1.935138 1_555
Co3 O10 1.951796 1_555
Co3 O3 1.960732 1_655
Co3 O5 2.144028 1_545
Co3 O13 2.168823 1_555
Co4 O2 1.880659 1_555
Co4 O11 1.935138 1_555
Co4 O7 1.951796 1_555
Co4 O14 1.960732 1_455
Co4 O12 2.144028 1_565
Co4 O4 2.168823 1_555
