# generated using pymatgen
data_La2MoO5
_symmetry_space_group_name_H-M   'P 1'
_cell_length_a   7.07324580
_cell_length_b   7.07324580
_cell_length_c   7.07324580
_cell_angle_alpha   100.70864520
_cell_angle_beta   100.70864520
_cell_angle_gamma   128.92998433
_symmetry_Int_Tables_number   1
_chemical_formula_structural   La2MoO5
_chemical_formula_sum   'La4 Mo2 O10'
_cell_volume   248.39888928
_cell_formula_units_Z   2
loop_
 _symmetry_equiv_pos_site_id
 _symmetry_equiv_pos_as_xyz
  1  'x, y, z'
loop_
 _atom_site_type_symbol
 _atom_site_label
 _atom_site_symmetry_multiplicity
 _atom_site_fract_x
 _atom_site_fract_y
 _atom_site_fract_z
 _atom_site_occupancy
  La  La0  1  0.39213600  0.17835000  0.57048700  1
  La  La1  1  0.60786400  0.82165000  0.42951300  1
  La  La2  1  0.82165000  0.39213600  0.21378600  1
  La  La3  1  0.17835000  0.60786400  0.78621400  1
  Mo  Mo0  1  0.20436800  0.20436800  0.00000000  1
  Mo  Mo1  1  0.79563200  0.79563200  0.00000000  1
  O  O0  1  0.75000000  0.25000000  0.50000000  1
  O  O1  1  0.25000000  0.75000000  0.50000000  1
  O  O2  1  0.45481800  0.36031900  0.28440300  1
  O  O3  1  0.07591600  0.17041500  0.71559700  1
  O  O4  1  0.17041500  0.45481800  0.09449900  1
  O  O5  1  0.36031900  0.07591600  0.90550100  1
  O  O6  1  0.54518200  0.63968100  0.71559700  1
  O  O7  1  0.92408400  0.82958500  0.28440300  1
  O  O8  1  0.82958500  0.54518200  0.90550100  1
  O  O9  1  0.63968100  0.92408400  0.09449900  1
loop_
_geom_bond_atom_site_label_1
_geom_bond_atom_site_label_2
_geom_bond_distance
_geom_bond_site_symmetry_2
La0 O1 2.421443 1_545
La0 O0 2.421447 1_555
La0 O7 2.555796 1_445
La0 O2 2.555800 1_555
La0 O3 2.603130 1_555
La0 O6 2.603134 1_555
La0 O5 2.611915 1_555
La0 O8 2.611918 1_555
La1 O0 2.421443 1_565
La1 O1 2.421447 1_555
La1 O3 2.555796 1_665
La1 O6 2.555800 1_555
La1 O7 2.603130 1_555
La1 O2 2.603134 1_555
La1 O9 2.611915 1_555
La1 O4 2.611918 1_555
La2 O1 2.421444 1_655
La2 O0 2.421444 1_555
La2 O4 2.555794 1_655
La2 O9 2.555794 1_545
La2 O8 2.603134 1_554
La2 O5 2.603134 1_554
La2 O2 2.611921 1_555
La2 O7 2.611921 1_555
La3 O1 2.421444 1_555
La3 O0 2.421444 1_455
La3 O8 2.555794 1_455
La3 O5 2.555794 1_565
La3 O9 2.603134 1_556
La3 O4 2.603134 1_556
La3 O6 2.611921 1_555
La3 O3 2.611921 1_555
Mo0 O2 1.948570 1_555
Mo0 O5 1.948570 1_554
Mo0 O3 1.948570 1_554
Mo0 O4 1.948570 1_555
Mo1 O7 1.948570 1_555
Mo1 O9 1.948570 1_555
Mo1 O6 1.948570 1_554
Mo1 O8 1.948570 1_554
