# generated using pymatgen
data_KB5O8
_symmetry_space_group_name_H-M   'P 1'
_cell_length_a   8.60486600
_cell_length_b   8.63880800
_cell_length_c   21.72114700
_cell_angle_alpha   90.00000000
_cell_angle_beta   90.00000000
_cell_angle_gamma   90.00000000
_symmetry_Int_Tables_number   1
_chemical_formula_structural   KB5O8
_chemical_formula_sum   'K8 B40 O64'
_cell_volume   1614.65851855
_cell_formula_units_Z   8
loop_
 _symmetry_equiv_pos_site_id
 _symmetry_equiv_pos_as_xyz
  1  'x, y, z'
loop_
 _atom_site_type_symbol
 _atom_site_label
 _atom_site_symmetry_multiplicity
 _atom_site_fract_x
 _atom_site_fract_y
 _atom_site_fract_z
 _atom_site_occupancy
  K  K0  1  0.60441900  0.39857700  0.12377600  1
  K  K1  1  0.10441900  0.10142300  0.87622400  1
  K  K2  1  0.39558100  0.89857700  0.37622400  1
  K  K3  1  0.89558100  0.60142300  0.62377600  1
  K  K4  1  0.39558100  0.60142300  0.87622400  1
  K  K5  1  0.89558100  0.89857700  0.12377600  1
  K  K6  1  0.60441900  0.10142300  0.62377600  1
  K  K7  1  0.10441900  0.39857700  0.37622400  1
  B  B0  1  0.53309700  0.00252900  0.20155700  1
  B  B1  1  0.03309700  0.49747100  0.79844300  1
  B  B2  1  0.46690300  0.50252900  0.29844300  1
  B  B3  1  0.96690300  0.99747100  0.70155700  1
  B  B4  1  0.46690300  0.99747100  0.79844300  1
  B  B5  1  0.96690300  0.50252900  0.20155700  1
  B  B6  1  0.53309700  0.49747100  0.70155700  1
  B  B7  1  0.03309700  0.00252900  0.29844300  1
  B  B8  1  0.53259800  0.24527900  0.26683400  1
  B  B9  1  0.03259800  0.25472100  0.73316600  1
  B  B10  1  0.46740200  0.74527900  0.23316600  1
  B  B11  1  0.96740200  0.75472100  0.76683400  1
  B  B12  1  0.46740200  0.75472100  0.73316600  1
  B  B13  1  0.96740200  0.74527900  0.26683400  1
  B  B14  1  0.53259800  0.25472100  0.76683400  1
  B  B15  1  0.03259800  0.24527900  0.23316600  1
  B  B16  1  0.96013000  0.21894800  0.01625900  1
  B  B17  1  0.46013000  0.28105200  0.98374100  1
  B  B18  1  0.03987000  0.71894800  0.48374100  1
  B  B19  1  0.53987000  0.78105200  0.51625900  1
  B  B20  1  0.03987000  0.78105200  0.98374100  1
  B  B21  1  0.53987000  0.71894800  0.01625900  1
  B  B22  1  0.96013000  0.28105200  0.51625900  1
  B  B23  1  0.46013000  0.21894800  0.48374100  1
  B  B24  1  0.71444700  0.30065100  0.45309900  1
  B  B25  1  0.21444700  0.19934900  0.54690100  1
  B  B26  1  0.28555300  0.80065100  0.04690100  1
  B  B27  1  0.78555300  0.69934900  0.95309900  1
  B  B28  1  0.28555300  0.69934900  0.54690100  1
  B  B29  1  0.78555300  0.80065100  0.45309900  1
  B  B30  1  0.71444700  0.19934900  0.95309900  1
  B  B31  1  0.21444700  0.30065100  0.04690100  1
  B  B32  1  0.50206500  0.30268100  0.37598600  1
  B  B33  1  0.00206500  0.19731900  0.62401400  1
  B  B34  1  0.49793500  0.80268100  0.12401400  1
  B  B35  1  0.99793500  0.69731900  0.87598600  1
  B  B36  1  0.49793500  0.69731900  0.62401400  1
  B  B37  1  0.99793500  0.80268100  0.37598600  1
  B  B38  1  0.50206500  0.19731900  0.87598600  1
  B  B39  1  0.00206500  0.30268100  0.12401400  1
  O  O0  1  0.55989600  0.15648700  0.21485300  1
  O  O1  1  0.05989600  0.34351300  0.78514700  1
  O  O2  1  0.44010400  0.65648700  0.28514700  1
  O  O3  1  0.94010400  0.84351300  0.71485300  1
  O  O4  1  0.44010400  0.84351300  0.78514700  1
  O  O5  1  0.94010400  0.65648700  0.21485300  1
  O  O6  1  0.55989600  0.34351300  0.71485300  1
  O  O7  1  0.05989600  0.15648700  0.28514700  1
  O  O8  1  0.53041700  0.40447100  0.25410900  1
  O  O9  1  0.03041700  0.09552900  0.74589100  1
  O  O10  1  0.46958300  0.90447100  0.24589100  1
  O  O11  1  0.96958300  0.59552900  0.75410900  1
  O  O12  1  0.46958300  0.59552900  0.74589100  1
  O  O13  1  0.96958300  0.90447100  0.25410900  1
  O  O14  1  0.53041700  0.09552900  0.75410900  1
  O  O15  1  0.03041700  0.40447100  0.24589100  1
  O  O16  1  0.61668900  0.23941500  0.49830800  1
  O  O17  1  0.11668900  0.26058500  0.50169200  1
  O  O18  1  0.38331100  0.73941500  0.00169200  1
  O  O19  1  0.88331100  0.76058500  0.99830800  1
  O  O20  1  0.38331100  0.76058500  0.50169200  1
  O  O21  1  0.88331100  0.73941500  0.49830800  1
  O  O22  1  0.61668900  0.26058500  0.99830800  1
  O  O23  1  0.11668900  0.23941500  0.00169200  1
  O  O24  1  0.87024800  0.32471400  0.46631400  1
  O  O25  1  0.37024800  0.17528600  0.53368600  1
  O  O26  1  0.12975200  0.82471400  0.03368600  1
  O  O27  1  0.62975200  0.67528600  0.96631400  1
  O  O28  1  0.12975200  0.67528600  0.53368600  1
  O  O29  1  0.62975200  0.82471400  0.46631400  1
  O  O30  1  0.87024800  0.17528600  0.96631400  1
  O  O31  1  0.37024800  0.32471400  0.03368600  1
  O  O32  1  0.92809600  0.44896800  0.14479000  1
  O  O33  1  0.42809600  0.05103200  0.85521000  1
  O  O34  1  0.07190400  0.94896800  0.35521000  1
  O  O35  1  0.57190400  0.55103200  0.64479000  1
  O  O36  1  0.07190400  0.55103200  0.85521000  1
  O  O37  1  0.57190400  0.94896800  0.14479000  1
  O  O38  1  0.92809600  0.05103200  0.64479000  1
  O  O39  1  0.42809600  0.44896800  0.35521000  1
  O  O40  1  0.90516100  0.23560700  0.07437300  1
  O  O41  1  0.40516100  0.26439300  0.92562700  1
  O  O42  1  0.09483900  0.73560700  0.42562700  1
  O  O43  1  0.59483900  0.76439300  0.57437300  1
  O  O44  1  0.09483900  0.76439300  0.92562700  1
  O  O45  1  0.59483900  0.73560700  0.07437300  1
  O  O46  1  0.90516100  0.26439300  0.57437300  1
  O  O47  1  0.40516100  0.23560700  0.42562700  1
  O  O48  1  0.50855000  0.18952400  0.32419200  1
  O  O49  1  0.00855000  0.31047600  0.67580800  1
  O  O50  1  0.49145000  0.68952400  0.17580800  1
  O  O51  1  0.99145000  0.81047600  0.82419200  1
  O  O52  1  0.49145000  0.81047600  0.67580800  1
  O  O53  1  0.99145000  0.68952400  0.32419200  1
  O  O54  1  0.50855000  0.31047600  0.82419200  1
  O  O55  1  0.00855000  0.18952400  0.17580800  1
  O  O56  1  0.66187800  0.33632400  0.39645700  1
  O  O57  1  0.16187800  0.16367600  0.60354300  1
  O  O58  1  0.33812200  0.83632400  0.10354300  1
  O  O59  1  0.83812200  0.66367600  0.89645700  1
  O  O60  1  0.33812200  0.66367600  0.60354300  1
  O  O61  1  0.83812200  0.83632400  0.39645700  1
  O  O62  1  0.66187800  0.16367600  0.89645700  1
  O  O63  1  0.16187800  0.33632400  0.10354300  1
loop_
_geom_bond_atom_site_label_1
_geom_bond_atom_site_label_2
_geom_bond_distance
_geom_bond_site_symmetry_2
K0 O32 2.855726 1_555
K0 O31 2.880402 1_555
K0 O8 2.902161 1_555
K0 O0 2.904180 1_555
K0 O50 2.922267 1_555
K0 O22 2.976496 1_554
K0 O45 3.104089 1_555
K0 O40 3.135371 1_555
K1 O33 2.855726 1_555
K1 O30 2.880402 1_455
K1 O9 2.902161 1_555
K1 O1 2.904180 1_555
K1 O51 2.922267 1_445
K1 O23 2.976496 1_556
K1 O44 3.104089 1_545
K1 O41 3.135371 1_555
K2 O34 2.855726 1_555
K2 O29 2.880402 1_555
K2 O10 2.902161 1_555
K2 O2 2.904180 1_555
K2 O48 2.922267 1_565
K2 O20 2.976496 1_555
K2 O47 3.104089 1_565
K2 O42 3.135371 1_555
K3 O35 2.855726 1_555
K3 O28 2.880402 1_655
K3 O11 2.902161 1_555
K3 O3 2.904180 1_555
K3 O49 2.922267 1_655
K3 O21 2.976496 1_555
K3 O46 3.104089 1_555
K3 O43 3.135371 1_555
K4 O36 2.855726 1_555
K4 O27 2.880402 1_555
K4 O12 2.902161 1_555
K4 O4 2.904180 1_555
K4 O54 2.922267 1_555
K4 O18 2.976496 1_556
K4 O41 3.104089 1_555
K4 O44 3.135371 1_555
K5 O37 2.855726 1_555
K5 O26 2.880402 1_655
K5 O13 2.902161 1_555
K5 O5 2.904180 1_555
K5 O55 2.922267 1_665
K5 O19 2.976496 1_554
K5 O40 3.104089 1_565
K5 O45 3.135371 1_555
K6 O38 2.855726 1_555
K6 O25 2.880402 1_555
K6 O14 2.902161 1_555
K6 O6 2.904180 1_555
K6 O52 2.922267 1_545
K6 O16 2.976496 1_555
K6 O43 3.104089 1_545
K6 O46 3.135371 1_555
K7 O39 2.855726 1_555
K7 O24 2.880402 1_455
K7 O15 2.902161 1_555
K7 O7 2.904180 1_555
K7 O53 2.922267 1_455
K7 O17 2.976496 1_555
K7 O42 3.104089 1_555
K7 O47 3.135371 1_555
B0 O37 1.358676 1_545
B0 O0 1.380406 1_555
B0 O10 1.394138 1_545
B1 O36 1.358676 1_555
B1 O1 1.380406 1_555
B1 O11 1.394138 1_455
B2 O39 1.358676 1_555
B2 O2 1.380406 1_555
B2 O8 1.394138 1_555
B3 O38 1.358676 1_565
B3 O3 1.380406 1_555
B3 O9 1.394138 1_665
B4 O33 1.358676 1_565
B4 O4 1.380406 1_555
B4 O14 1.394138 1_565
B5 O32 1.358676 1_555
B5 O5 1.380406 1_555
B5 O15 1.394138 1_655
B6 O35 1.358676 1_555
B6 O6 1.380406 1_555
B6 O12 1.394138 1_555
B7 O34 1.358676 1_545
B7 O7 1.380406 1_555
B7 O13 1.394138 1_445
B8 O48 1.351678 1_555
B8 O0 1.385059 1_555
B8 O8 1.402856 1_555
B9 O49 1.351678 1_555
B9 O1 1.385059 1_555
B9 O9 1.402856 1_555
B10 O50 1.351678 1_555
B10 O2 1.385059 1_555
B10 O10 1.402856 1_555
B11 O51 1.351678 1_555
B11 O3 1.385059 1_555
B11 O11 1.402856 1_555
B12 O52 1.351678 1_555
B12 O4 1.385059 1_555
B12 O12 1.402856 1_555
B13 O53 1.351678 1_555
B13 O5 1.385059 1_555
B13 O13 1.402856 1_555
B14 O54 1.351678 1_555
B14 O6 1.385059 1_555
B14 O14 1.402856 1_555
B15 O55 1.351678 1_555
B15 O7 1.385059 1_555
B15 O15 1.402856 1_555
B16 O40 1.355673 1_555
B16 O30 1.384695 1_554
B16 O23 1.395078 1_655
B17 O41 1.355673 1_555
B17 O31 1.384695 1_556
B17 O22 1.395078 1_555
B18 O42 1.355673 1_555
B18 O28 1.384695 1_555
B18 O21 1.395078 1_455
B19 O43 1.355673 1_555
B19 O29 1.384695 1_555
B19 O20 1.395078 1_555
B20 O44 1.355673 1_555
B20 O26 1.384695 1_556
B20 O19 1.395078 1_455
B21 O45 1.355673 1_555
B21 O27 1.384695 1_554
B21 O18 1.395078 1_555
B22 O46 1.355673 1_555
B22 O24 1.384695 1_555
B22 O17 1.395078 1_655
B23 O47 1.355673 1_555
B23 O25 1.384695 1_555
B23 O16 1.395078 1_555
B24 O56 1.346588 1_555
B24 O24 1.386701 1_555
B24 O16 1.397055 1_555
B25 O57 1.346588 1_555
B25 O25 1.386701 1_555
B25 O17 1.397055 1_555
B26 O58 1.346588 1_555
B26 O26 1.386701 1_555
B26 O18 1.397055 1_555
B27 O59 1.346588 1_555
B27 O27 1.386701 1_555
B27 O19 1.397055 1_555
B28 O60 1.346588 1_555
B28 O28 1.386701 1_555
B28 O20 1.397055 1_555
B29 O61 1.346588 1_555
B29 O29 1.386701 1_555
B29 O21 1.397055 1_555
B30 O62 1.346588 1_555
B30 O30 1.386701 1_555
B30 O22 1.397055 1_555
B31 O63 1.346588 1_555
B31 O31 1.386701 1_555
B31 O23 1.397055 1_555
B32 O56 1.474204 1_555
B32 O47 1.481112 1_555
B32 O39 1.485203 1_555
B32 O48 1.491437 1_555
B33 O57 1.474204 1_555
B33 O46 1.481112 1_455
B33 O38 1.485203 1_455
B33 O49 1.491437 1_555
B34 O58 1.474204 1_555
B34 O45 1.481112 1_555
B34 O37 1.485203 1_555
B34 O50 1.491437 1_555
B35 O59 1.474204 1_555
B35 O44 1.481112 1_655
B35 O36 1.485203 1_655
B35 O51 1.491437 1_555
B36 O60 1.474204 1_555
B36 O43 1.481112 1_555
B36 O35 1.485203 1_555
B36 O52 1.491437 1_555
B37 O61 1.474204 1_555
B37 O42 1.481112 1_655
B37 O34 1.485203 1_655
B37 O53 1.491437 1_555
B38 O62 1.474204 1_555
B38 O41 1.481112 1_555
B38 O33 1.485203 1_555
B38 O54 1.491437 1_555
B39 O63 1.474204 1_555
B39 O40 1.481112 1_455
B39 O32 1.485203 1_455
B39 O55 1.491437 1_555
