# generated using pymatgen
data_Rb2Nb3H11C5(Cl3O4)2
_symmetry_space_group_name_H-M   'P 1'
_cell_length_a   9.71486500
_cell_length_b   10.38054113
_cell_length_c   12.44834841
_cell_angle_alpha   68.32680120
_cell_angle_beta   72.37111114
_cell_angle_gamma   81.09653912
_symmetry_Int_Tables_number   1
_chemical_formula_structural   Rb2Nb3H11C5(Cl3O4)2
_chemical_formula_sum   'Rb4 Nb6 H22 C10 Cl12 O16'
_cell_volume   1110.52050377
_cell_formula_units_Z   2
loop_
 _symmetry_equiv_pos_site_id
 _symmetry_equiv_pos_as_xyz
  1  'x, y, z'
loop_
 _atom_site_type_symbol
 _atom_site_label
 _atom_site_symmetry_multiplicity
 _atom_site_fract_x
 _atom_site_fract_y
 _atom_site_fract_z
 _atom_site_occupancy
  Rb  Rb0  1  0.69537500  0.86672500  0.79995800  1
  Rb  Rb1  1  0.30462500  0.13327500  0.20004200  1
  Rb  Rb2  1  0.26271900  0.99709600  0.90701300  1
  Rb  Rb3  1  0.73728100  0.00290400  0.09298700  1
  Nb  Nb0  1  0.02761200  0.62797500  0.58541000  1
  Nb  Nb1  1  0.97238800  0.37202500  0.41459000  1
  Nb  Nb2  1  0.15491200  0.35668700  0.56962300  1
  Nb  Nb3  1  0.84508800  0.64331300  0.43037700  1
  Nb  Nb4  1  0.83750900  0.40020200  0.65112600  1
  Nb  Nb5  1  0.16249100  0.59979800  0.34887400  1
  H  H0  1  0.99940600  0.87004500  0.86498800  1
  H  H1  1  0.00059400  0.12995500  0.13501200  1
  H  H2  1  0.42247400  0.60259900  0.79684800  1
  H  H3  1  0.57752600  0.39740100  0.20315200  1
  H  H4  1  0.41449100  0.49392600  0.94773000  1
  H  H5  1  0.58550900  0.50607400  0.05227000  1
  H  H6  1  0.25852800  0.59861900  0.91190400  1
  H  H7  1  0.74147200  0.40138100  0.08809600  1
  H  H8  1  0.25979600  0.80770800  0.62381300  1
  H  H9  1  0.74020400  0.19229200  0.37618700  1
  H  H10  1  0.43894400  0.12829800  0.52144800  1
  H  H11  1  0.56105600  0.87170200  0.47855200  1
  H  H12  1  0.50132600  0.27852500  0.75993400  1
  H  H13  1  0.49867400  0.72147500  0.24006600  1
  H  H14  1  0.92861900  0.64786800  0.93699400  1
  H  H15  1  0.07138100  0.35213200  0.06300600  1
  H  H16  1  0.00500300  0.67001900  0.04253000  1
  H  H17  1  0.99499700  0.32998100  0.95747000  1
  H  H18  1  0.81397800  0.67881100  0.06861000  1
  H  H19  1  0.18602200  0.32118900  0.93139000  1
  H  H20  1  0.39455300  0.69882700  0.99108300  1
  H  H21  1  0.60544700  0.30117300  0.00891700  1
  C  C0  1  0.37719500  0.59449500  0.89116100  1
  C  C1  1  0.62280500  0.40550500  0.10883900  1
  C  C2  1  0.15421000  0.81702200  0.68821100  1
  C  C3  1  0.84579000  0.18297800  0.31178900  1
  C  C4  1  0.41634100  0.12101800  0.61654600  1
  C  C5  1  0.58365900  0.87898200  0.38345400  1
  C  C6  1  0.54462400  0.24523800  0.83974000  1
  C  C7  1  0.45537600  0.75476200  0.16026000  1
  C  C8  1  0.91627000  0.70500400  0.99873600  1
  C  C9  1  0.08373000  0.29499600  0.00126400  1
  Cl  Cl0  1  0.84010600  0.53366900  0.78048000  1
  Cl  Cl1  1  0.15989400  0.46633100  0.21952000  1
  Cl  Cl2  1  0.21704100  0.48597100  0.68055600  1
  Cl  Cl3  1  0.78295900  0.51402900  0.31944400  1
  Cl  Cl4  1  0.98991000  0.21208100  0.75974800  1
  Cl  Cl5  1  0.01009000  0.78791900  0.24025200  1
  Cl  Cl6  1  0.22288400  0.76949600  0.42329500  1
  Cl  Cl7  1  0.77711600  0.23050400  0.57670500  1
  Cl  Cl8  1  0.85145100  0.82142100  0.51838400  1
  Cl  Cl9  1  0.14854900  0.17857900  0.48161600  1
  Cl  Cl10  1  0.37292300  0.44999800  0.40506100  1
  Cl  Cl11  1  0.62707700  0.55000200  0.59493900  1
  O  O0  1  0.04518000  0.76510000  0.68328700  1
  O  O1  1  0.95482000  0.23490000  0.31671300  1
  O  O2  1  0.14933600  0.87713600  0.76007000  1
  O  O3  1  0.85066400  0.12286400  0.23993000  1
  O  O4  1  0.31388100  0.20342700  0.65281800  1
  O  O5  1  0.68611900  0.79657300  0.34718200  1
  O  O6  1  0.48860200  0.03568000  0.68157200  1
  O  O7  1  0.51139800  0.96432000  0.31842800  1
  O  O8  1  0.66979900  0.28847200  0.82338900  1
  O  O9  1  0.33020100  0.71152800  0.17661100  1
  O  O10  1  0.47097600  0.17014900  0.93859700  1
  O  O11  1  0.52902400  0.82985100  0.06140300  1
  O  O12  1  0.91261600  0.85218600  0.93710800  1
  O  O13  1  0.08738400  0.14781400  0.06289200  1
  O  O14  1  0.42763000  0.70825000  0.90611400  1
  O  O15  1  0.57237000  0.29175000  0.09388600  1
loop_
_geom_bond_atom_site_label_1
_geom_bond_atom_site_label_2
_geom_bond_distance
_geom_bond_site_symmetry_2
Nb0 O0 2.240974 1_555
Nb1 O1 2.240974 1_555
Nb2 O4 2.231568 1_555
Nb3 O5 2.231568 1_555
Nb4 O8 2.286882 1_555
Nb5 O9 2.286882 1_555
H0 O12 1.009076 1_555
H0 O2 1.625629 1_655
H1 O13 1.009076 1_555
H1 O3 1.625629 1_455
H20 O14 0.979309 1_555
H21 O15 0.979309 1_555
C0 H2 1.097562 1_555
C0 H6 1.100053 1_555
C0 H4 1.100672 1_555
C0 O14 1.437283 1_555
C1 H3 1.097562 1_555
C1 H7 1.100053 1_555
C1 H5 1.100672 1_555
C1 O15 1.437283 1_555
C2 H8 1.110245 1_555
C2 O2 1.252722 1_555
C2 O0 1.287100 1_555
C3 H9 1.110245 1_555
C3 O3 1.252722 1_555
C3 O1 1.287100 1_555
C4 H10 1.112182 1_555
C4 O6 1.246931 1_555
C4 O4 1.294589 1_555
C5 H11 1.112182 1_555
C5 O7 1.246931 1_555
C5 O5 1.294589 1_555
C6 H12 1.112586 1_555
C6 O10 1.250877 1_555
C6 O8 1.293515 1_555
C7 H13 1.112586 1_555
C7 O11 1.250877 1_555
C7 O9 1.293515 1_555
C8 H18 1.097018 1_556
C8 H16 1.101677 1_656
C8 H14 1.102595 1_555
C8 O12 1.434584 1_555
C9 H19 1.097018 1_554
C9 H17 1.101677 1_454
C9 H15 1.102595 1_555
C9 O13 1.434584 1_555
Cl0 Nb4 2.489230 1_555
Cl0 Nb0 2.508004 1_655
Cl0 Rb0 3.591191 1_555
Cl1 Nb5 2.489230 1_555
Cl1 Nb1 2.508004 1_455
Cl1 Rb1 3.591191 1_555
Cl2 Nb0 2.480585 1_555
Cl2 Nb2 2.489336 1_555
Cl3 Nb1 2.480585 1_555
Cl3 Nb3 2.489336 1_555
Cl4 Nb4 2.490202 1_555
Cl4 Nb2 2.499409 1_655
Cl5 Nb5 2.490202 1_555
Cl5 Nb3 2.499409 1_455
Cl6 Nb5 2.481953 1_555
Cl6 Nb0 2.486672 1_555
Cl6 Rb1 3.801834 1_565
Cl7 Nb4 2.481953 1_555
Cl7 Nb1 2.486672 1_555
Cl7 Rb0 3.801834 1_545
Cl8 Nb3 2.488933 1_555
Cl8 Nb0 2.494181 1_655
Cl8 Rb0 3.547373 1_555
Cl9 Nb2 2.488933 1_555
Cl9 Nb1 2.494181 1_455
Cl9 Rb1 3.547373 1_555
Cl10 Nb2 2.482308 1_555
Cl10 Nb5 2.482984 1_555
Cl11 Nb3 2.482308 1_555
Cl11 Nb4 2.482984 1_555
O0 Rb0 3.435581 1_455
O1 Rb1 3.435581 1_655
O2 Rb2 3.072026 1_555
O3 Rb3 3.072026 1_555
O4 Rb2 3.036158 1_545
O5 Rb3 3.036158 1_565
O6 Rb0 2.841904 1_545
O6 Rb2 2.926316 1_545
O7 Rb1 2.841904 1_565
O7 Rb3 2.926316 1_565
O10 Rb1 3.071799 1_556
O10 Rb2 3.098928 1_545
O11 Rb0 3.071799 1_554
O11 Rb3 3.098928 1_565
O12 Rb3 2.920608 1_566
O12 Rb0 3.047167 1_555
O13 Rb2 2.920608 1_544
O13 Rb1 3.047167 1_555
O14 Rb0 2.975753 1_555
O15 Rb1 2.975753 1_555
