# generated using pymatgen
data_KSmS2
_symmetry_space_group_name_H-M   'P 1'
_cell_length_a   7.70565355
_cell_length_b   7.70565355
_cell_length_c   7.70565401
_cell_angle_alpha   31.11883067
_cell_angle_beta   31.11883067
_cell_angle_gamma   31.11883305
_symmetry_Int_Tables_number   1
_chemical_formula_structural   KSmS2
_chemical_formula_sum   'K1 Sm1 S2'
_cell_volume   108.43211238
_cell_formula_units_Z   1
loop_
 _symmetry_equiv_pos_site_id
 _symmetry_equiv_pos_as_xyz
  1  'x, y, z'
loop_
 _atom_site_type_symbol
 _atom_site_label
 _atom_site_symmetry_multiplicity
 _atom_site_fract_x
 _atom_site_fract_y
 _atom_site_fract_z
 _atom_site_occupancy
  K  K0  1  0.50000000  0.50000000  0.50000000  1
  Sm  Sm0  1  -0.00000000  -0.00000000  0.00000000  1
  S  S0  1  0.73560513  0.73560513  0.73560513  1
  S  S1  1  0.26439487  0.26439487  0.26439487  1
loop_
_geom_bond_atom_site_label_1
_geom_bond_atom_site_label_2
_geom_bond_distance
_geom_bond_site_symmetry_2
K0 S0 3.211012 1_455
K0 S0 3.211012 1_545
K0 S1 3.211012 1_565
K0 S1 3.211012 1_655
K0 S0 3.211012 1_554
K0 S1 3.211012 1_556
S0 Sm0 2.827086 1_566
S0 Sm0 2.827086 1_656
S0 Sm0 2.827086 1_665
S1 Sm0 2.827086 1_565
S1 Sm0 2.827086 1_655
S1 Sm0 2.827086 1_556
