# generated using pymatgen
data_BaMg14Cu
_symmetry_space_group_name_H-M   'P 1'
_cell_length_a   6.56426500
_cell_length_b   6.56426444
_cell_length_c   10.45276496
_cell_angle_alpha   90.00000000
_cell_angle_beta   90.00000000
_cell_angle_gamma   120.00000282
_symmetry_Int_Tables_number   1
_chemical_formula_structural   BaMg14Cu
_chemical_formula_sum   'Ba1 Mg14 Cu1'
_cell_volume   390.06230044
_cell_formula_units_Z   1
loop_
 _symmetry_equiv_pos_site_id
 _symmetry_equiv_pos_as_xyz
  1  'x, y, z'
loop_
 _atom_site_type_symbol
 _atom_site_label
 _atom_site_symmetry_multiplicity
 _atom_site_fract_x
 _atom_site_fract_y
 _atom_site_fract_z
 _atom_site_occupancy
  Ba  Ba0  1  0.16666700  0.33333300  0.62500000  1
  Mg  Mg0  1  0.15730717  0.82865309  0.12500000  1
  Mg  Mg1  1  0.18022879  0.84011389  0.62500000  1
  Mg  Mg2  1  0.67134691  0.34269283  0.12500000  1
  Mg  Mg3  1  0.65988611  0.31977121  0.62500000  1
  Mg  Mg4  1  0.67134691  0.82865309  0.12500000  1
  Mg  Mg5  1  0.65988611  0.84011389  0.62500000  1
  Mg  Mg6  1  0.33253406  0.16746594  0.34978850  1
  Mg  Mg7  1  0.33253406  0.16746594  0.90021150  1
  Mg  Mg8  1  0.33253406  0.66506912  0.34978850  1
  Mg  Mg9  1  0.33253406  0.66506912  0.90021150  1
  Mg  Mg10  1  0.83493088  0.16746594  0.34978850  1
  Mg  Mg11  1  0.83493088  0.16746594  0.90021150  1
  Mg  Mg12  1  0.83333300  0.66666700  0.38192599  1
  Mg  Mg13  1  0.83333300  0.66666700  0.86807401  1
  Cu  Cu0  1  0.16666700  0.33333300  0.12500000  1
loop_
_geom_bond_atom_site_label_1
_geom_bond_atom_site_label_2
_geom_bond_distance
_geom_bond_site_symmetry_2
Ba0 Mg1 3.283038 1_555
Ba0 Mg5 3.283038 1_555
Ba0 Mg5 3.283038 1_445
Ba0 Mg1 3.283038 1_545
Ba0 Mg3 3.283038 1_455
Ba0 Mg3 3.283038 1_555
Ba0 Mg6 3.439760 1_555
Ba0 Mg7 3.439760 1_555
Ba0 Mg8 3.439766 1_555
Ba0 Mg9 3.439766 1_555
Ba0 Mg10 3.439766 1_455
Ba0 Mg11 3.439766 1_455
Mg0 Mg9 3.038445 1_554
Mg0 Mg8 3.038445 1_555
Mg0 Mg7 3.038452 1_564
Mg0 Mg6 3.038452 1_565
Mg0 Mg2 3.189972 1_455
Mg0 Mg4 3.189972 1_455
Mg0 Mg12 3.256434 1_455
Mg0 Mg13 3.256434 1_454
Mg0 Mg2 3.374293 1_565
Mg0 Mg4 3.374293 1_555
Mg1 Mg3 3.148597 1_565
Mg1 Mg5 3.148598 1_555
Mg1 Mg13 3.216300 1_455
Mg1 Mg12 3.216300 1_455
Mg1 Mg3 3.415667 1_455
Mg1 Mg5 3.415667 1_455
Mg1 Mg8 3.426973 1_555
Mg1 Mg9 3.426973 1_555
Mg1 Mg6 3.426979 1_565
Mg1 Mg7 3.426979 1_565
Mg2 Mg7 3.038452 1_554
Mg2 Mg6 3.038452 1_555
Mg2 Mg4 3.189972 1_555
Mg2 Mg4 3.374293 1_545
Mg3 Mg5 3.148597 1_545
Mg3 Mg5 3.415667 1_555
Mg3 Mg6 3.426979 1_555
Mg3 Mg7 3.426979 1_555
Mg4 Mg9 3.038452 1_554
Mg4 Mg8 3.038452 1_555
Mg5 Mg8 3.426979 1_555
Mg5 Mg9 3.426979 1_555
Mg6 Mg8 3.266399 1_555
Mg6 Mg8 3.297866 1_545
Mg7 Mg9 3.266399 1_555
Mg7 Mg9 3.297866 1_545
Mg10 Mg2 3.038445 1_555
Mg10 Mg4 3.038452 1_545
Mg10 Mg8 3.266399 1_655
Mg10 Mg6 3.266399 1_655
Mg10 Mg8 3.297866 1_545
Mg10 Mg6 3.297866 1_555
Mg10 Mg12 3.299291 1_545
Mg10 Mg12 3.299291 1_555
Mg10 Mg3 3.426973 1_555
Mg10 Mg5 3.426978 1_545
Mg11 Mg2 3.038445 1_556
Mg11 Mg4 3.038452 1_546
Mg11 Mg9 3.266399 1_655
Mg11 Mg7 3.266399 1_655
Mg11 Mg9 3.297866 1_545
Mg11 Mg7 3.297866 1_555
Mg11 Mg13 3.299291 1_545
Mg11 Mg13 3.299291 1_555
Mg11 Mg3 3.426973 1_555
Mg11 Mg5 3.426978 1_545
Mg12 Mg5 3.216293 1_555
Mg12 Mg3 3.216300 1_555
Mg12 Mg4 3.256428 1_555
Mg12 Mg2 3.256434 1_555
Mg12 Mg6 3.299291 1_665
Mg12 Mg6 3.299291 1_555
Mg12 Mg8 3.299291 1_555
Mg12 Mg8 3.299291 1_655
Mg13 Mg5 3.216293 1_555
Mg13 Mg3 3.216300 1_555
Mg13 Mg4 3.256428 1_556
Mg13 Mg2 3.256434 1_556
Mg13 Mg7 3.299291 1_665
Mg13 Mg7 3.299291 1_555
Mg13 Mg9 3.299291 1_555
Mg13 Mg9 3.299291 1_655
Cu0 Mg7 3.012861 1_554
Cu0 Mg6 3.012861 1_555
Cu0 Mg9 3.012868 1_554
Cu0 Mg8 3.012868 1_555
Cu0 Mg11 3.012869 1_454
Cu0 Mg10 3.012869 1_455
Cu0 Mg0 3.282563 1_545
Cu0 Mg4 3.282563 1_445
Cu0 Mg4 3.282563 1_555
Cu0 Mg0 3.282564 1_555
Cu0 Mg2 3.282564 1_555
Cu0 Mg2 3.282564 1_455
