# generated using pymatgen
data_Na2MnP2O7F3
_symmetry_space_group_name_H-M   'P 1'
_cell_length_a   4.64859679
_cell_length_b   6.15621993
_cell_length_c   7.97397653
_cell_angle_alpha   105.07463191
_cell_angle_beta   97.14285598
_cell_angle_gamma   105.93519747
_symmetry_Int_Tables_number   1
_chemical_formula_structural   Na2MnP2O7F3
_chemical_formula_sum   'Na2 Mn1 P2 O7 F3'
_cell_volume   207.11533494
_cell_formula_units_Z   1
loop_
 _symmetry_equiv_pos_site_id
 _symmetry_equiv_pos_as_xyz
  1  'x, y, z'
loop_
 _atom_site_type_symbol
 _atom_site_label
 _atom_site_symmetry_multiplicity
 _atom_site_fract_x
 _atom_site_fract_y
 _atom_site_fract_z
 _atom_site_occupancy
  Na  Na0  1  0.84922900  0.11582500  0.33813200  1
  Na  Na1  1  0.24930100  0.82949700  0.92701200  1
  Mn  Mn0  1  0.55536700  0.48030000  0.15403700  1
  P  P0  1  0.91626000  0.24390400  0.87926400  1
  P  P1  1  0.19616000  0.71427300  0.43986200  1
  O  O0  1  0.21349800  0.45582700  0.97177700  1
  O  O1  1  0.66917300  0.23452500  0.99491400  1
  O  O2  1  0.44513400  0.72076100  0.32394100  1
  O  O3  1  0.29692600  0.66927600  0.61342700  1
  O  O4  1  0.89198000  0.50849000  0.33664600  1
  O  O5  1  0.94589400  0.00512900  0.80969600  1
  O  O6  1  0.16475900  0.96281900  0.48160700  1
  F  F0  1  0.31919700  0.22810800  0.21656700  1
  F  F1  1  0.78627800  0.73275200  0.09093400  1
  F  F2  1  0.79004300  0.32611500  0.72078300  1
loop_
_geom_bond_atom_site_label_1
_geom_bond_atom_site_label_2
_geom_bond_distance
_geom_bond_site_symmetry_2
Na0 O6 2.291161 1_645
Na0 O4 2.373779 1_555
Na0 O2 2.598448 1_545
Na1 O5 2.251402 1_465
Na1 O0 2.382980 1_555
Na1 O3 2.499835 1_555
Na1 O1 2.585076 1_565
Mn0 O4 1.936941 1_555
Mn0 O1 1.946026 1_554
Mn0 O2 1.958430 1_555
Mn0 O0 1.959778 1_554
O0 P0 1.552915 1_455
O1 P0 1.558129 1_555
O2 P1 1.566978 1_555
O3 P1 1.523504 1_555
O4 P1 1.570456 1_655
O5 P0 1.481050 1_555
O6 P1 1.530727 1_555
F0 Mn0 1.862038 1_555
F0 Na0 2.497261 1_455
F0 Na1 2.808362 1_544
F0 Na0 2.859730 1_555
F1 Mn0 1.856299 1_555
F1 Na0 2.567532 1_565
F1 Na1 2.663983 1_654
F1 Na1 2.950268 1_554
F2 P0 1.583901 1_555
