# generated using pymatgen
data_NiP2H2O7
_symmetry_space_group_name_H-M   'P 1'
_cell_length_a   12.79785100
_cell_length_b   9.28583600
_cell_length_c   9.68397927
_cell_angle_alpha   73.07185644
_cell_angle_beta   90.00000000
_cell_angle_gamma   90.00000000
_symmetry_Int_Tables_number   1
_chemical_formula_structural   NiP2H2O7
_chemical_formula_sum   'Ni8 P16 H16 O56'
_cell_volume   1100.96717855
_cell_formula_units_Z   8
loop_
 _symmetry_equiv_pos_site_id
 _symmetry_equiv_pos_as_xyz
  1  'x, y, z'
loop_
 _atom_site_type_symbol
 _atom_site_label
 _atom_site_symmetry_multiplicity
 _atom_site_fract_x
 _atom_site_fract_y
 _atom_site_fract_z
 _atom_site_occupancy
  Ni  Ni0  1  0.24531500  0.75012500  0.24841300  1
  Ni  Ni1  1  0.74531500  0.24987500  0.25158700  1
  Ni  Ni2  1  0.75468500  0.24987500  0.75158700  1
  Ni  Ni3  1  0.25468500  0.75012500  0.74841300  1
  Ni  Ni4  1  0.41163900  0.74802100  0.00336300  1
  Ni  Ni5  1  0.91163900  0.25197900  0.49663700  1
  Ni  Ni6  1  0.58836100  0.25197900  0.99663700  1
  Ni  Ni7  1  0.08836100  0.74802100  0.50336300  1
  P  P0  1  0.29240300  0.52037700  0.56150500  1
  P  P1  1  0.79240300  0.47962300  0.93849500  1
  P  P2  1  0.70759700  0.47962300  0.43849500  1
  P  P3  1  0.20759700  0.52037700  0.06150500  1
  P  P4  1  0.03904000  0.53957600  0.28078700  1
  P  P5  1  0.53904000  0.46042400  0.21921300  1
  P  P6  1  0.96096000  0.46042400  0.71921300  1
  P  P7  1  0.46096000  0.53957600  0.78078700  1
  P  P8  1  0.21902300  0.98734600  0.93254100  1
  P  P9  1  0.71902300  0.01265400  0.56745900  1
  P  P10  1  0.78097700  0.01265400  0.06745900  1
  P  P11  1  0.28097700  0.98734600  0.43254100  1
  P  P12  1  0.44575500  0.97666500  0.21143300  1
  P  P13  1  0.94575500  0.02333500  0.28856700  1
  P  P14  1  0.55424500  0.02333500  0.78856700  1
  P  P15  1  0.05424500  0.97666500  0.71143300  1
  H  H0  1  0.89328700  0.54734200  0.16452100  1
  H  H1  1  0.39328700  0.45265800  0.33547900  1
  H  H2  1  0.10671300  0.45265800  0.83547900  1
  H  H3  1  0.60671300  0.54734200  0.66452100  1
  H  H4  1  0.58907800  0.97536900  0.34231900  1
  H  H5  1  0.08907800  0.02463100  0.15768100  1
  H  H6  1  0.41092200  0.02463100  0.65768100  1
  H  H7  1  0.91092200  0.97536900  0.84231900  1
  H  H8  1  0.24442100  0.29951600  0.69794600  1
  H  H9  1  0.74442100  0.70048400  0.80205400  1
  H  H10  1  0.75557900  0.70048400  0.30205400  1
  H  H11  1  0.25557900  0.29951600  0.19794600  1
  H  H12  1  0.33681100  0.15025100  0.96781100  1
  H  H13  1  0.83681100  0.84974900  0.53218900  1
  H  H14  1  0.66318900  0.84974900  0.03218900  1
  H  H15  1  0.16318900  0.15025100  0.46781100  1
  O  O0  1  0.38762300  0.84954600  0.17330000  1
  O  O1  1  0.88762300  0.15045400  0.32670000  1
  O  O2  1  0.61237700  0.15045400  0.82670000  1
  O  O3  1  0.11237700  0.84954600  0.67330000  1
  O  O4  1  0.10230500  0.65763500  0.32713100  1
  O  O5  1  0.60230500  0.34236500  0.17286900  1
  O  O6  1  0.89769500  0.34236500  0.67286900  1
  O  O7  1  0.39769500  0.65763500  0.82713100  1
  O  O8  1  0.32029700  0.57432100  0.40312800  1
  O  O9  1  0.82029700  0.42567900  0.09687200  1
  O  O10  1  0.67970300  0.42567900  0.59687200  1
  O  O11  1  0.17970300  0.57432100  0.90312800  1
  O  O12  1  0.17242700  0.92372600  0.08223500  1
  O  O13  1  0.67242700  0.07627400  0.41776500  1
  O  O14  1  0.82757300  0.07627400  0.91776500  1
  O  O15  1  0.32757300  0.92372600  0.58223500  1
  O  O16  1  0.28141900  0.62281900  0.11361500  1
  O  O17  1  0.78141900  0.37718100  0.38638500  1
  O  O18  1  0.71858100  0.37718100  0.88638500  1
  O  O19  1  0.21858100  0.62281900  0.61361500  1
  O  O20  1  0.37104000  0.04029000  0.31579700  1
  O  O21  1  0.87104000  0.95971000  0.18420300  1
  O  O22  1  0.62896000  0.95971000  0.68420300  1
  O  O23  1  0.12896000  0.04029000  0.81579700  1
  O  O24  1  0.93838400  0.61762400  0.20030300  1
  O  O25  1  0.43838400  0.38237600  0.29969700  1
  O  O26  1  0.06161600  0.38237600  0.79969700  1
  O  O27  1  0.56161600  0.61762400  0.70030300  1
  O  O28  1  0.54191000  0.90713000  0.30656900  1
  O  O29  1  0.04191000  0.09287000  0.19343100  1
  O  O30  1  0.45809000  0.09287000  0.69343100  1
  O  O31  1  0.95809000  0.90713000  0.80656900  1
  O  O32  1  0.20964200  0.87946200  0.38392400  1
  O  O33  1  0.70964200  0.12053800  0.11607600  1
  O  O34  1  0.79035800  0.12053800  0.61607600  1
  O  O35  1  0.29035800  0.87946200  0.88392400  1
  O  O36  1  0.53271400  0.88916200  0.91658000  1
  O  O37  1  0.03271400  0.11083800  0.58342000  1
  O  O38  1  0.46728600  0.11083800  0.08342000  1
  O  O39  1  0.96728600  0.88916200  0.41658000  1
  O  O40  1  0.39672400  0.49988100  0.65314300  1
  O  O41  1  0.89672400  0.50011900  0.84685700  1
  O  O42  1  0.60327600  0.50011900  0.34685700  1
  O  O43  1  0.10327600  0.49988100  0.15314300  1
  O  O44  1  0.52064900  0.60576900  0.10562200  1
  O  O45  1  0.02064900  0.39423100  0.39437800  1
  O  O46  1  0.47935100  0.39423100  0.89437800  1
  O  O47  1  0.97935100  0.60576900  0.60562200  1
  O  O48  1  0.24768300  0.35529500  0.59505000  1
  O  O49  1  0.74768300  0.64470500  0.90495000  1
  O  O50  1  0.75231700  0.64470500  0.40495000  1
  O  O51  1  0.25231700  0.35529500  0.09505000  1
  O  O52  1  0.27396600  0.14581800  0.90872600  1
  O  O53  1  0.77396600  0.85418200  0.59127400  1
  O  O54  1  0.72603400  0.85418200  0.09127400  1
  O  O55  1  0.22603400  0.14581800  0.40872600  1
loop_
_geom_bond_atom_site_label_1
_geom_bond_atom_site_label_2
_geom_bond_distance
_geom_bond_site_symmetry_2
Ni0 O16 2.052710 1_555
Ni0 O4 2.070548 1_555
Ni0 O32 2.071409 1_555
Ni0 O0 2.075392 1_555
Ni0 O8 2.099116 1_555
Ni0 O12 2.132557 1_555
Ni1 O17 2.052710 1_555
Ni1 O5 2.070548 1_555
Ni1 O33 2.071409 1_555
Ni1 O1 2.075392 1_555
Ni1 O9 2.099116 1_555
Ni1 O13 2.132557 1_555
Ni2 O18 2.052710 1_555
Ni2 O6 2.070548 1_555
Ni2 O34 2.071409 1_555
Ni2 O2 2.075392 1_555
Ni2 O10 2.099116 1_555
Ni2 O14 2.132557 1_555
Ni3 O19 2.052710 1_555
Ni3 O7 2.070548 1_555
Ni3 O35 2.071409 1_555
Ni3 O3 2.075392 1_555
Ni3 O11 2.099116 1_555
Ni3 O15 2.132557 1_555
Ni4 O44 1.977379 1_555
Ni4 O36 2.045364 1_554
Ni4 O35 2.101085 1_554
Ni4 O7 2.117311 1_554
Ni4 O16 2.132152 1_555
Ni4 O0 2.143578 1_555
Ni5 O45 1.977379 1_655
Ni5 O37 2.045364 1_655
Ni5 O34 2.101085 1_555
Ni5 O6 2.117311 1_555
Ni5 O17 2.132152 1_555
Ni5 O1 2.143578 1_555
Ni6 O46 1.977379 1_555
Ni6 O38 2.045364 1_556
Ni6 O33 2.101085 1_556
Ni6 O5 2.117311 1_556
Ni6 O18 2.132152 1_555
Ni6 O2 2.143578 1_555
Ni7 O47 1.977379 1_455
Ni7 O39 2.045364 1_455
Ni7 O32 2.101085 1_555
Ni7 O4 2.117311 1_555
Ni7 O19 2.132152 1_555
Ni7 O3 2.143578 1_555
H0 O24 1.005377 1_555
H0 O9 1.734664 1_555
H1 O25 1.005377 1_555
H1 O8 1.734664 1_555
H2 O26 1.005377 1_555
H2 O11 1.734664 1_555
H3 O27 1.005377 1_555
H3 O10 1.734664 1_555
H4 O28 1.006737 1_555
H4 O13 1.717041 1_565
H5 O29 1.006737 1_555
H5 O12 1.717041 1_545
H6 O30 1.006737 1_555
H6 O15 1.717041 1_545
H7 O31 1.006737 1_555
H7 O14 1.717041 1_565
H8 O48 0.981001 1_555
H9 O49 0.981001 1_555
H10 O50 0.981001 1_555
H11 O51 0.981001 1_555
H12 O52 0.994820 1_555
H13 O53 0.994820 1_555
H14 O54 0.994820 1_555
H15 O55 0.994820 1_555
O0 P12 1.528742 1_555
O1 P13 1.528742 1_555
O2 P14 1.528742 1_555
O3 P15 1.528742 1_555
O4 P4 1.531436 1_555
O5 P5 1.531436 1_555
O6 P6 1.531436 1_555
O7 P7 1.531436 1_555
O8 P0 1.511044 1_555
O9 P1 1.511044 1_554
O10 P2 1.511044 1_555
O11 P3 1.511044 1_556
O12 P8 1.518991 1_554
O13 P9 1.518991 1_555
O14 P10 1.518991 1_556
O15 P11 1.518991 1_555
O16 P3 1.526981 1_555
O17 P2 1.526981 1_555
O18 P1 1.526981 1_555
O19 P0 1.526981 1_555
O20 P11 1.588924 1_545
O20 P12 1.622502 1_545
O21 P10 1.588924 1_565
O21 P13 1.622502 1_565
O22 P9 1.588924 1_565
O22 P14 1.622502 1_565
O23 P8 1.588924 1_545
O23 P15 1.622502 1_545
O24 P4 1.569453 1_655
O25 P5 1.569453 1_555
O26 P6 1.569453 1_455
O27 P7 1.569453 1_555
O28 P12 1.560000 1_555
O29 P13 1.560000 1_455
O30 P14 1.560000 1_555
O31 P15 1.560000 1_655
O32 P11 1.527534 1_555
O33 P10 1.527534 1_555
O34 P9 1.527534 1_555
O35 P8 1.527534 1_555
O36 P14 1.505180 1_565
O37 P15 1.505180 1_545
O38 P12 1.505180 1_545
O39 P13 1.505180 1_565
O40 P0 1.583614 1_555
O40 P7 1.613991 1_555
O41 P1 1.583614 1_555
O41 P6 1.613991 1_555
O42 P2 1.583614 1_555
O42 P5 1.613991 1_555
O43 P3 1.583614 1_555
O43 P4 1.613991 1_555
O44 P5 1.490776 1_555
O45 P4 1.490776 1_555
O46 P7 1.490776 1_555
O47 P6 1.490776 1_555
O48 P0 1.578906 1_555
O49 P1 1.578906 1_555
O50 P2 1.578906 1_555
O51 P3 1.578906 1_555
O52 P8 1.586009 1_545
O53 P9 1.586009 1_565
O54 P10 1.586009 1_565
O55 P11 1.586009 1_545
