# generated using pymatgen
data_BaNdMnCoO6
_symmetry_space_group_name_H-M   'P 1'
_cell_length_a   5.58279025
_cell_length_b   5.58279025
_cell_length_c   7.80567400
_cell_angle_alpha   90.00000000
_cell_angle_beta   90.00000000
_cell_angle_gamma   90.35874246
_symmetry_Int_Tables_number   1
_chemical_formula_structural   BaNdMnCoO6
_chemical_formula_sum   'Ba2 Nd2 Mn2 Co2 O12'
_cell_volume   243.27894249
_cell_formula_units_Z   2
loop_
 _symmetry_equiv_pos_site_id
 _symmetry_equiv_pos_as_xyz
  1  'x, y, z'
loop_
 _atom_site_type_symbol
 _atom_site_label
 _atom_site_symmetry_multiplicity
 _atom_site_fract_x
 _atom_site_fract_y
 _atom_site_fract_z
 _atom_site_occupancy
  Ba  Ba0  1  0.24873900  0.75126100  0.99701400  1
  Ba  Ba1  1  0.75126100  0.24873900  0.99701400  1
  Nd  Nd0  1  0.24158600  0.75841400  0.50374700  1
  Nd  Nd1  1  0.75841400  0.24158600  0.50374700  1
  Mn  Mn0  1  0.74995200  0.74995200  0.25521300  1
  Mn  Mn1  1  0.25004800  0.25004800  0.25521300  1
  Co  Co0  1  0.25208800  0.25208800  0.74828600  1
  Co  Co1  1  0.74791200  0.74791200  0.74828600  1
  O  O0  1  0.25544100  0.25544100  0.99840600  1
  O  O1  1  0.74455900  0.74455900  0.99840600  1
  O  O2  1  0.50000000  0.50000000  0.71176300  1
  O  O3  1  0.50000000  0.50000000  0.28703500  1
  O  O4  1  0.00000000  0.00000000  0.73981700  1
  O  O5  1  0.00000000  0.00000000  0.26131500  1
  O  O6  1  0.50000000  0.00000000  0.72395800  1
  O  O7  1  0.00000000  0.50000000  0.27461900  1
  O  O8  1  0.50000000  0.00000000  0.27461900  1
  O  O9  1  0.00000000  0.50000000  0.72395800  1
  O  O10  1  0.22789000  0.22789000  0.49879200  1
  O  O11  1  0.77211000  0.77211000  0.49879200  1
loop_
_geom_bond_atom_site_label_1
_geom_bond_atom_site_label_2
_geom_bond_distance
_geom_bond_site_symmetry_2
Ba0 O1 2.768567 1_555
Ba0 O0 2.768567 1_555
Ba0 O4 2.812709 1_565
Ba0 O1 2.814767 1_455
Ba0 O0 2.814767 1_565
Ba0 O5 2.852552 1_566
Ba0 O9 2.900768 1_555
Ba0 O6 2.900768 1_565
Ba0 O7 2.926957 1_556
Ba0 O8 2.926957 1_566
Ba0 O2 2.986240 1_555
Ba0 O3 3.014103 1_556
Ba1 O1 2.768567 1_555
Ba1 O0 2.768567 1_555
Ba1 O4 2.812709 1_655
Ba1 O0 2.814767 1_655
Ba1 O1 2.814767 1_545
Ba1 O5 2.852552 1_656
Ba1 O9 2.900768 1_655
Ba1 O6 2.900768 1_555
Ba1 O8 2.926957 1_556
Ba1 O7 2.926957 1_656
Ba1 O2 2.986240 1_555
Ba1 O3 3.014103 1_556
Nd0 O2 2.612486 1_555
Nd0 O9 2.613540 1_555
Nd0 O6 2.613540 1_565
Nd0 O10 2.622865 1_565
Nd0 O11 2.622865 1_455
Nd0 O3 2.655206 1_555
Nd0 O4 2.656385 1_565
Nd0 O8 2.659834 1_565
Nd0 O7 2.659834 1_555
Nd0 O5 2.691071 1_565
Nd0 O11 2.962565 1_555
Nd0 O10 2.962565 1_555
Nd1 O2 2.612486 1_555
Nd1 O6 2.613540 1_555
Nd1 O9 2.613540 1_655
Nd1 O10 2.622865 1_655
Nd1 O11 2.622865 1_545
Nd1 O3 2.655206 1_555
Nd1 O4 2.656385 1_655
Nd1 O8 2.659834 1_555
Nd1 O7 2.659834 1_655
Nd1 O5 2.691071 1_655
Nd1 O11 2.962565 1_555
Nd1 O10 2.962565 1_555
Mn0 O11 1.909280 1_555
Mn0 O5 1.968580 1_665
Mn0 O3 1.982867 1_555
Mn0 O7 1.985770 1_655
Mn0 O8 1.985770 1_565
Mn0 O1 2.005001 1_554
Mn1 O10 1.909280 1_555
Mn1 O5 1.968580 1_555
Mn1 O3 1.982867 1_555
Mn1 O7 1.985770 1_555
Mn1 O8 1.985770 1_555
Mn1 O0 2.005001 1_554
Co0 O0 1.952534 1_555
Co0 O10 1.956759 1_555
Co0 O2 1.971909 1_555
Co0 O4 1.985160 1_555
Co0 O9 1.989137 1_555
Co0 O6 1.989137 1_555
Co1 O1 1.952534 1_555
Co1 O11 1.956759 1_555
Co1 O2 1.971909 1_555
Co1 O4 1.985160 1_665
Co1 O9 1.989137 1_655
Co1 O6 1.989137 1_565
