# generated using pymatgen
data_Y14Ag51
_symmetry_space_group_name_H-M   'P 1'
_cell_length_a   9.32698380
_cell_length_b   12.66098940
_cell_length_c   12.66106741
_cell_angle_alpha   120.00014494
_cell_angle_beta   90.00000000
_cell_angle_gamma   90.00000000
_symmetry_Int_Tables_number   1
_chemical_formula_structural   Y14Ag51
_chemical_formula_sum   'Y14 Ag51'
_cell_volume   1294.81936571
_cell_formula_units_Z   1
loop_
 _symmetry_equiv_pos_site_id
 _symmetry_equiv_pos_as_xyz
  1  'x, y, z'
loop_
 _atom_site_type_symbol
 _atom_site_label
 _atom_site_symmetry_multiplicity
 _atom_site_fract_x
 _atom_site_fract_y
 _atom_site_fract_z
 _atom_site_occupancy
  Y  Y0  1  0.50000000  0.67231491  0.53181671  1
  Y  Y1  1  0.50000000  0.46817467  0.14049236  1
  Y  Y2  1  0.50000000  0.85950447  0.32768167  1
  Y  Y3  1  0.50000000  0.32944833  0.47179886  1
  Y  Y4  1  0.50000000  0.52820211  0.85765016  1
  Y  Y5  1  0.50000000  0.14235388  0.67055220  1
  Y  Y6  1  0.00000000  0.26733686  0.88755107  1
  Y  Y7  1  0.00000000  0.11245700  0.37979692  1
  Y  Y8  1  0.00000000  0.62021573  0.73266589  1
  Y  Y9  1  0.00000000  0.71607022  0.11578886  1
  Y  Y10  1  0.00000000  0.88421636  0.60028368  1
  Y  Y11  1  0.00000000  0.39970840  0.28392469  1
  Y  Y12  1  0.30634808  0.99999605  0.99999861  1
  Y  Y13  1  0.69365192  0.99999605  0.99999861  1
  Ag  Ag0  1  0.15219259  0.62398974  0.50904769  1
  Ag  Ag1  1  0.15219469  0.49095053  0.11494266  1
  Ag  Ag2  1  0.15219024  0.88505780  0.37600606  1
  Ag  Ag3  1  0.15091755  0.38218724  0.49736337  1
  Ag  Ag4  1  0.15091416  0.50263730  0.88482925  1
  Ag  Ag5  1  0.15091747  0.11518764  0.61782235  1
  Ag  Ag6  1  0.84908245  0.38218724  0.49736337  1
  Ag  Ag7  1  0.84908584  0.50263730  0.88482925  1
  Ag  Ag8  1  0.84908253  0.11518764  0.61782235  1
  Ag  Ag9  1  0.84780741  0.62398974  0.50904769  1
  Ag  Ag10  1  0.84780531  0.49095053  0.11494266  1
  Ag  Ag11  1  0.84780976  0.88505780  0.37600606  1
  Ag  Ag12  1  0.50000000  0.17813104  0.94231944  1
  Ag  Ag13  1  0.50000000  0.05767804  0.23581980  1
  Ag  Ag14  1  0.50000000  0.76418851  0.82186376  1
  Ag  Ag15  1  0.50000000  0.81956134  0.05924559  1
  Ag  Ag16  1  0.50000000  0.94075691  0.76031030  1
  Ag  Ag17  1  0.50000000  0.23967767  0.18043967  1
  Ag  Ag18  1  0.00000000  0.66666456  0.33333299  1
  Ag  Ag19  1  0.00000000  0.33334615  0.66667532  1
  Ag  Ag20  1  0.33229287  0.33316901  0.89641474  1
  Ag  Ag21  1  0.33228927  0.10358538  0.43675545  1
  Ag  Ag22  1  0.33229536  0.56324327  0.66682842  1
  Ag  Ag23  1  0.33338764  0.66268156  0.10400246  1
  Ag  Ag24  1  0.33338979  0.89600035  0.55867676  1
  Ag  Ag25  1  0.33338706  0.44131696  0.33731531  1
  Ag  Ag26  1  0.66661236  0.66268156  0.10400246  1
  Ag  Ag27  1  0.66661021  0.89600035  0.55867676  1
  Ag  Ag28  1  0.66661294  0.44131696  0.33731531  1
  Ag  Ag29  1  0.66770713  0.33316901  0.89641474  1
  Ag  Ag30  1  0.66771073  0.10358538  0.43675545  1
  Ag  Ag31  1  0.66770464  0.56324327  0.66682842  1
  Ag  Ag32  1  0.24019204  0.07594388  0.80535855  1
  Ag  Ag33  1  0.24019619  0.19463878  0.27058456  1
  Ag  Ag34  1  0.24019492  0.72941258  0.92405372  1
  Ag  Ag35  1  0.23124707  0.92443664  0.18763335  1
  Ag  Ag36  1  0.23124679  0.81237124  0.73679896  1
  Ag  Ag37  1  0.23124546  0.26319583  0.07556516  1
  Ag  Ag38  1  0.76875293  0.92443664  0.18763335  1
  Ag  Ag39  1  0.76875321  0.81237124  0.73679896  1
  Ag  Ag40  1  0.76875454  0.26319583  0.07556516  1
  Ag  Ag41  1  0.75980796  0.07594388  0.80535855  1
  Ag  Ag42  1  0.75980381  0.19463878  0.27058456  1
  Ag  Ag43  1  0.75980508  0.72941258  0.92405372  1
  Ag  Ag44  1  0.29900456  0.66666508  0.33333027  1
  Ag  Ag45  1  0.29871239  0.33334154  0.66667019  1
  Ag  Ag46  1  0.70128761  0.33334154  0.66667019  1
  Ag  Ag47  1  0.70099544  0.66666508  0.33333027  1
  Ag  Ag48  1  0.00000000  0.98489051  0.86675828  1
  Ag  Ag49  1  0.00000000  0.13323432  0.11813161  1
  Ag  Ag50  1  0.00000000  0.88185423  0.01510037  1
loop_
_geom_bond_atom_site_label_1
_geom_bond_atom_site_label_2
_geom_bond_distance
_geom_bond_site_symmetry_2
Ag0 Ag36 2.769426 1_555
Ag0 Ag25 2.811414 1_555
Ag0 Ag9 2.838996 1_455
Ag0 Ag44 2.884204 1_555
Ag0 Ag18 2.908332 1_555
Ag0 Ag22 2.990058 1_555
Ag0 Ag3 2.990260 1_555
Ag0 Y11 3.179438 1_555
Ag0 Y8 3.188807 1_555
Ag0 Y10 3.224694 1_555
Ag0 Y0 3.287031 1_555
Ag1 Ag37 2.769417 1_555
Ag1 Ag23 2.811391 1_555
Ag1 Ag10 2.839035 1_455
Ag1 Ag44 2.884139 1_555
Ag1 Ag18 2.908337 1_555
Ag1 Ag20 2.990036 1_554
Ag1 Ag4 2.990236 1_554
Ag1 Y9 3.179381 1_555
Ag1 Y6 3.188774 1_554
Ag1 Y11 3.224681 1_555
Ag1 Y1 3.287012 1_555
Ag2 Ag35 2.769406 1_555
Ag2 Ag24 2.811422 1_555
Ag2 Ag44 2.884197 1_555
Ag2 Ag21 2.990021 1_565
Ag2 Ag5 2.990426 1_565
Ag2 Y10 3.179398 1_555
Ag2 Y7 3.188768 1_565
Ag2 Y9 3.224609 1_555
Ag2 Y2 3.287052 1_555
Ag3 Ag33 2.785325 1_555
Ag3 Ag6 2.815211 1_455
Ag3 Ag45 2.864157 1_555
Ag3 Y11 3.151635 1_555
Ag3 Y7 3.282717 1_555
Ag3 Y3 3.306855 1_555
Ag3 Y8 3.310709 1_555
Ag4 Ag7 2.815148 1_455
Ag4 Ag45 2.864177 1_555
Ag4 Y9 3.151579 1_556
Ag4 Y8 3.282828 1_555
Ag4 Y4 3.306897 1_555
Ag4 Y6 3.310645 1_555
Ag5 Ag8 2.815210 1_455
Ag5 Y10 3.151661 1_545
Ag5 Y6 3.282705 1_555
Ag5 Y5 3.306839 1_555
Ag5 Y7 3.310661 1_555
Ag6 Ag9 2.990260 1_555
Ag6 Y11 3.151635 1_655
Ag6 Y7 3.282717 1_655
Ag6 Y3 3.306855 1_555
Ag6 Y8 3.310709 1_655
Ag7 Y9 3.151579 1_656
Ag7 Y8 3.282828 1_655
Ag7 Y4 3.306897 1_555
Ag7 Y6 3.310645 1_655
Ag8 Y10 3.151661 1_645
Ag8 Y6 3.282705 1_655
Ag8 Y5 3.306839 1_555
Ag8 Y7 3.310661 1_655
Ag9 Y11 3.179438 1_655
Ag9 Y8 3.188807 1_655
Ag9 Y10 3.224694 1_655
Ag9 Y0 3.287031 1_555
Ag10 Ag40 2.769417 1_555
Ag10 Ag26 2.811391 1_555
Ag10 Ag47 2.884139 1_555
Ag10 Ag18 2.908337 1_655
Ag10 Ag29 2.990036 1_554
Ag10 Ag7 2.990236 1_554
Ag10 Y9 3.179381 1_655
Ag10 Y6 3.188774 1_654
Ag10 Y11 3.224681 1_655
Ag10 Y1 3.287012 1_555
Ag11 Ag38 2.769406 1_555
Ag11 Ag27 2.811422 1_555
Ag11 Ag2 2.838952 1_655
Ag11 Ag47 2.884197 1_555
Ag11 Ag18 2.908353 1_655
Ag11 Ag30 2.990021 1_565
Ag11 Ag8 2.990426 1_565
Ag11 Y10 3.179398 1_655
Ag11 Y7 3.188768 1_665
Ag11 Y9 3.224609 1_655
Ag11 Y2 3.287052 1_555
Ag12 Ag17 2.710584 1_556
Ag12 Ag16 2.723423 1_545
Ag12 Ag20 2.788996 1_555
Ag12 Ag29 2.788996 1_555
Ag12 Ag32 2.882599 1_555
Ag12 Ag41 2.882599 1_555
Ag12 Ag37 2.910749 1_556
Ag12 Ag40 2.910749 1_556
Ag12 Y5 3.238224 1_555
Ag12 Y12 3.244896 1_545
Ag12 Y13 3.244896 1_545
Ag12 Y1 3.250668 1_556
Ag13 Ag15 2.710537 1_545
Ag13 Ag17 2.723441 1_555
Ag13 Ag21 2.788944 1_555
Ag13 Ag30 2.788944 1_555
Ag13 Ag33 2.882579 1_555
Ag13 Ag42 2.882579 1_555
Ag13 Ag38 2.910701 1_545
Ag13 Ag35 2.910701 1_545
Ag13 Y3 3.238173 1_555
Ag13 Y13 3.244970 1_544
Ag13 Y12 3.244970 1_544
Ag13 Y2 3.250603 1_545
Ag14 Ag16 2.710569 1_555
Ag14 Ag15 2.723506 1_556
Ag14 Ag31 2.788989 1_555
Ag14 Ag22 2.788989 1_555
Ag14 Ag34 2.882608 1_555
Ag14 Ag43 2.882608 1_555
Ag14 Ag36 2.910748 1_555
Ag14 Ag39 2.910748 1_555
Ag14 Y4 3.238231 1_555
Ag14 Y12 3.244843 1_555
Ag14 Y13 3.244843 1_555
Ag14 Y0 3.250723 1_555
Ag15 Ag26 2.794058 1_555
Ag15 Ag23 2.794058 1_555
Ag15 Ag43 2.854957 1_554
Ag15 Ag34 2.854957 1_554
Ag15 Ag38 2.920676 1_555
Ag15 Ag35 2.920676 1_555
Ag15 Y2 3.176167 1_555
Ag15 Y4 3.272177 1_554
Ag15 Y12 3.279868 1_554
Ag15 Y13 3.279868 1_554
Ag16 Ag24 2.794024 1_555
Ag16 Ag27 2.794024 1_555
Ag16 Ag32 2.854938 1_565
Ag16 Ag41 2.854938 1_565
Ag16 Ag36 2.920665 1_555
Ag16 Ag39 2.920665 1_555
Ag16 Y0 3.176197 1_555
Ag16 Y5 3.272152 1_565
Ag16 Y13 3.279969 1_555
Ag16 Y12 3.279969 1_555
Ag17 Ag25 2.794062 1_555
Ag17 Ag28 2.794062 1_555
Ag17 Ag33 2.854902 1_555
Ag17 Ag42 2.854902 1_555
Ag17 Ag37 2.920710 1_555
Ag17 Ag40 2.920710 1_555
Ag17 Y1 3.176234 1_555
Ag17 Y3 3.272179 1_555
Ag17 Y13 3.279881 1_544
Ag17 Y12 3.279881 1_544
Ag18 Ag47 2.788811 1_455
Ag18 Ag44 2.788811 1_555
Ag18 Ag9 2.908332 1_455
Ag18 Ag2 2.908353 1_555
Ag18 Y9 3.114577 1_555
Ag18 Y10 3.114606 1_555
Ag18 Y11 3.114624 1_555
Ag19 Ag46 2.786086 1_455
Ag19 Ag45 2.786086 1_555
Ag19 Ag4 2.878224 1_555
Ag19 Ag7 2.878224 1_455
Ag19 Ag6 2.878309 1_455
Ag19 Ag3 2.878309 1_555
Ag19 Ag8 2.878314 1_455
Ag19 Ag5 2.878314 1_555
Ag19 Y8 3.294731 1_555
Ag19 Y7 3.294857 1_555
Ag19 Y6 3.294873 1_555
Ag20 Ag4 2.793190 1_555
Ag20 Ag45 2.926711 1_555
Ag20 Ag37 2.971113 1_556
Ag20 Ag32 2.986418 1_555
Ag20 Y5 3.090678 1_555
Ag20 Y1 3.104197 1_556
Ag20 Ag29 3.128403 1_555
Ag20 Y4 3.161813 1_555
Ag20 Y6 3.196776 1_555
Ag21 Ag5 2.793217 1_555
Ag21 Ag45 2.926751 1_555
Ag21 Ag35 2.971074 1_545
Ag21 Ag33 2.986410 1_555
Ag21 Y3 3.090709 1_555
Ag21 Y2 3.104232 1_545
Ag21 Ag30 3.128471 1_555
Ag21 Y5 3.161816 1_555
Ag21 Y7 3.196729 1_555
Ag22 Ag3 2.793183 1_555
Ag22 Ag45 2.926593 1_555
Ag22 Ag36 2.971158 1_555
Ag22 Ag34 2.986433 1_555
Ag22 Y4 3.090704 1_555
Ag22 Y0 3.104242 1_555
Ag22 Ag31 3.128357 1_555
Ag22 Y3 3.161766 1_555
Ag22 Y8 3.196814 1_555
Ag23 Ag44 2.896456 1_555
Ag23 Ag34 2.930039 1_554
Ag23 Ag4 3.013299 1_554
Ag23 Ag35 3.082647 1_555
Ag23 Y2 3.096417 1_555
Ag23 Ag26 3.107982 1_555
Ag23 Y4 3.119592 1_554
Ag23 Y1 3.135399 1_555
Ag23 Y9 3.169749 1_555
Ag24 Ag44 2.896505 1_555
Ag24 Ag32 2.930047 1_565
Ag24 Ag5 3.013382 1_565
Ag24 Ag36 3.082633 1_555
Ag24 Y0 3.096453 1_555
Ag24 Ag27 3.107941 1_555
Ag24 Y5 3.119578 1_565
Ag24 Y2 3.135359 1_555
Ag24 Y10 3.169776 1_555
Ag25 Ag44 2.896496 1_555
Ag25 Ag33 2.929999 1_555
Ag25 Ag3 3.013328 1_555
Ag25 Ag37 3.082611 1_555
Ag25 Y1 3.096439 1_555
Ag25 Ag28 3.107992 1_555
Ag25 Y3 3.119595 1_555
Ag25 Y0 3.135385 1_555
Ag25 Y11 3.169752 1_555
Ag26 Ag47 2.896456 1_555
Ag26 Ag43 2.930039 1_554
Ag26 Ag7 3.013299 1_554
Ag26 Ag38 3.082647 1_555
Ag26 Y2 3.096417 1_555
Ag26 Y4 3.119592 1_554
Ag26 Y1 3.135399 1_555
Ag26 Y9 3.169749 1_655
Ag27 Ag47 2.896505 1_555
Ag27 Ag41 2.930047 1_565
Ag27 Ag8 3.013382 1_565
Ag27 Ag39 3.082633 1_555
Ag27 Y0 3.096453 1_555
Ag27 Y5 3.119578 1_565
Ag27 Y2 3.135359 1_555
Ag27 Y10 3.169776 1_655
Ag28 Ag9 2.811414 1_555
Ag28 Ag47 2.896496 1_555
Ag28 Ag42 2.929999 1_555
Ag28 Ag6 3.013328 1_555
Ag28 Ag40 3.082611 1_555
Ag28 Y1 3.096439 1_555
Ag28 Y3 3.119595 1_555
Ag28 Y0 3.135385 1_555
Ag28 Y11 3.169752 1_655
Ag29 Ag7 2.793190 1_555
Ag29 Ag46 2.926711 1_555
Ag29 Ag40 2.971113 1_556
Ag29 Ag41 2.986418 1_555
Ag29 Y5 3.090678 1_555
Ag29 Y1 3.104197 1_556
Ag29 Y4 3.161813 1_555
Ag29 Y6 3.196776 1_655
Ag30 Ag8 2.793217 1_555
Ag30 Ag46 2.926751 1_555
Ag30 Ag38 2.971074 1_545
Ag30 Ag42 2.986410 1_555
Ag30 Y3 3.090709 1_555
Ag30 Y2 3.104232 1_545
Ag30 Y5 3.161816 1_555
Ag30 Y7 3.196729 1_655
Ag31 Ag6 2.793183 1_555
Ag31 Ag46 2.926593 1_555
Ag31 Ag39 2.971158 1_555
Ag31 Ag43 2.986433 1_555
Ag31 Ag9 2.990058 1_555
Ag31 Y4 3.090704 1_555
Ag31 Y0 3.104242 1_555
Ag31 Y3 3.161766 1_555
Ag31 Y8 3.196814 1_655
Ag32 Ag5 2.785280 1_555
Ag32 Ag48 2.801487 1_545
Ag32 Ag36 2.999982 1_545
Ag32 Ag37 3.036579 1_556
Ag32 Y6 3.074415 1_555
Ag32 Y12 3.122187 1_545
Ag32 Y5 3.305637 1_555
Ag32 Y10 3.368999 1_545
Ag33 Ag49 2.801515 1_555
Ag33 Ag37 3.000058 1_555
Ag33 Ag35 3.036522 1_545
Ag33 Y7 3.074469 1_555
Ag33 Y12 3.122163 1_544
Ag33 Y3 3.305598 1_555
Ag33 Y11 3.369002 1_555
Ag34 Ag4 2.785306 1_555
Ag34 Ag50 2.801428 1_556
Ag34 Ag35 3.000093 1_556
Ag34 Ag36 3.036657 1_555
Ag34 Y8 3.074404 1_555
Ag34 Y12 3.122118 1_555
Ag34 Y4 3.305570 1_555
Ag34 Y9 3.369072 1_556
Ag35 Ag50 2.921767 1_555
Ag35 Y12 3.053242 1_554
Ag35 Y9 3.168494 1_555
Ag35 Y7 3.232102 1_565
Ag35 Y2 3.400148 1_555
Ag36 Ag48 2.921697 1_555
Ag36 Y12 3.053255 1_555
Ag36 Y10 3.168449 1_555
Ag36 Y8 3.232068 1_555
Ag36 Y0 3.400172 1_555
Ag37 Ag49 2.921747 1_555
Ag37 Y12 3.053272 1_544
Ag37 Y11 3.168428 1_555
Ag37 Y6 3.232031 1_554
Ag37 Y1 3.400144 1_555
Ag38 Ag50 2.921767 1_655
Ag38 Ag43 3.000093 1_554
Ag38 Ag42 3.036522 1_565
Ag38 Y13 3.053242 1_554
Ag38 Y9 3.168494 1_655
Ag38 Y7 3.232102 1_665
Ag38 Y2 3.400148 1_555
Ag39 Ag9 2.769426 1_555
Ag39 Ag48 2.921697 1_655
Ag39 Ag41 2.999982 1_565
Ag39 Ag43 3.036657 1_555
Ag39 Y13 3.053255 1_555
Ag39 Y10 3.168449 1_655
Ag39 Y8 3.232068 1_655
Ag39 Y0 3.400172 1_555
Ag40 Ag49 2.921747 1_655
Ag40 Ag42 3.000058 1_555
Ag40 Ag41 3.036579 1_554
Ag40 Y13 3.053272 1_544
Ag40 Y11 3.168428 1_655
Ag40 Y6 3.232031 1_654
Ag40 Y1 3.400144 1_555
Ag41 Ag8 2.785280 1_555
Ag41 Ag48 2.801487 1_645
Ag41 Y6 3.074415 1_655
Ag41 Y13 3.122187 1_545
Ag41 Y5 3.305637 1_555
Ag41 Y10 3.368999 1_645
Ag42 Ag6 2.785325 1_555
Ag42 Ag49 2.801515 1_655
Ag42 Y7 3.074469 1_655
Ag42 Y13 3.122163 1_544
Ag42 Y3 3.305598 1_555
Ag42 Y11 3.369002 1_655
Ag43 Ag7 2.785306 1_555
Ag43 Ag50 2.801428 1_656
Ag43 Y8 3.074404 1_655
Ag43 Y13 3.122118 1_555
Ag43 Y4 3.305570 1_555
Ag43 Y9 3.369072 1_656
Ag44 Y0 3.107282 1_555
Ag44 Y2 3.107292 1_555
Ag44 Y1 3.107299 1_555
Ag45 Ag5 2.864151 1_555
Ag45 Y4 3.081003 1_555
Ag45 Y3 3.081060 1_555
Ag45 Y5 3.081086 1_555
Ag46 Ag8 2.864151 1_555
Ag46 Ag6 2.864157 1_555
Ag46 Ag7 2.864177 1_555
Ag46 Y4 3.081003 1_555
Ag46 Y3 3.081060 1_555
Ag46 Y5 3.081086 1_555
Ag47 Ag9 2.884204 1_555
Ag47 Y0 3.107282 1_555
Ag47 Y2 3.107292 1_555
Ag47 Y1 3.107299 1_555
Ag48 Ag49 2.771142 1_566
Ag48 Ag50 2.771192 1_556
Ag48 Y10 2.950784 1_555
Ag48 Y13 3.274748 1_455
Ag48 Y12 3.274748 1_555
Ag48 Y6 3.451957 1_565
Ag49 Ag50 2.771202 1_545
Ag49 Y11 2.950747 1_555
Ag49 Y12 3.274732 1_544
Ag49 Y13 3.274732 1_444
Ag49 Y7 3.452019 1_555
Ag50 Y9 2.950726 1_555
Ag50 Y13 3.274773 1_454
Ag50 Y12 3.274773 1_554
Ag50 Y8 3.451796 1_554
