# generated using pymatgen
data_K2CuSbBr6
_symmetry_space_group_name_H-M   'P 1'
_cell_length_a   7.73132311
_cell_length_b   7.73132311
_cell_length_c   7.73132311
_cell_angle_alpha   60.00000000
_cell_angle_beta   60.00000000
_cell_angle_gamma   60.00000000
_symmetry_Int_Tables_number   1
_chemical_formula_structural   K2CuSbBr6
_chemical_formula_sum   'K2 Cu1 Sb1 Br6'
_cell_volume   326.77323229
_cell_formula_units_Z   1
loop_
 _symmetry_equiv_pos_site_id
 _symmetry_equiv_pos_as_xyz
  1  'x, y, z'
loop_
 _atom_site_type_symbol
 _atom_site_label
 _atom_site_symmetry_multiplicity
 _atom_site_fract_x
 _atom_site_fract_y
 _atom_site_fract_z
 _atom_site_occupancy
  K  K0  1  0.25000000  0.25000000  0.25000000  1
  K  K1  1  0.75000000  0.75000000  0.75000000  1
  Cu  Cu0  1  0.00000000  0.00000000  0.00000000  1
  Sb  Sb0  1  0.50000000  0.50000000  0.50000000  1
  Br  Br0  1  0.24160800  0.75839200  0.75839200  1
  Br  Br1  1  0.75839200  0.75839200  0.24160800  1
  Br  Br2  1  0.75839200  0.24160800  0.24160800  1
  Br  Br3  1  0.75839200  0.24160800  0.75839200  1
  Br  Br4  1  0.24160800  0.75839200  0.24160800  1
  Br  Br5  1  0.24160800  0.24160800  0.75839200  1
loop_
_geom_bond_atom_site_label_1
_geom_bond_atom_site_label_2
_geom_bond_distance
_geom_bond_site_symmetry_2
Br0 Cu0 2.641680 1_566
Br0 Sb0 2.825191 1_555
Br0 K1 3.866750 1_455
Br0 K0 3.866750 1_556
Br0 K1 3.866750 1_555
Br0 K0 3.866750 1_565
Br1 Cu0 2.641680 1_665
Br1 Sb0 2.825191 1_555
Br1 K1 3.866750 1_554
Br1 K1 3.866750 1_555
Br1 K0 3.866750 1_655
Br1 K0 3.866750 1_565
Br2 Cu0 2.641680 1_655
Br2 Sb0 2.825191 1_555
Br2 K1 3.866750 1_554
Br2 K0 3.866750 1_555
Br2 K1 3.866750 1_545
Br2 K0 3.866750 1_655
Br3 Cu0 2.641680 1_656
Br3 Sb0 2.825191 1_555
Br3 K1 3.866750 1_545
Br3 K0 3.866750 1_556
Br3 K1 3.866750 1_555
Br3 K0 3.866750 1_655
Br4 Cu0 2.641680 1_565
Br4 Sb0 2.825191 1_555
Br4 K1 3.866750 1_554
Br4 K0 3.866750 1_555
Br4 K1 3.866750 1_455
Br4 K0 3.866750 1_565
Br5 Cu0 2.641680 1_556
Br5 Sb0 2.825191 1_555
Br5 K1 3.866750 1_545
Br5 K0 3.866750 1_555
Br5 K1 3.866750 1_455
Br5 K0 3.866750 1_556
