# generated using pymatgen
data_Fe3P4H8NO12
_symmetry_space_group_name_H-M   'P 1'
_cell_length_a   9.43565474
_cell_length_b   10.26324300
_cell_length_c   12.75026069
_cell_angle_alpha   90.00000000
_cell_angle_beta   99.89806396
_cell_angle_gamma   90.00000000
_symmetry_Int_Tables_number   1
_chemical_formula_structural   Fe3P4H8NO12
_chemical_formula_sum   'Fe12 P16 H32 N4 O48'
_cell_volume   1216.36162129
_cell_formula_units_Z   4
loop_
 _symmetry_equiv_pos_site_id
 _symmetry_equiv_pos_as_xyz
  1  'x, y, z'
loop_
 _atom_site_type_symbol
 _atom_site_label
 _atom_site_symmetry_multiplicity
 _atom_site_fract_x
 _atom_site_fract_y
 _atom_site_fract_z
 _atom_site_occupancy
  Fe  Fe0  1  0.19665300  0.25180900  0.12622800  1
  Fe  Fe1  1  0.30334700  0.75180900  0.87377200  1
  Fe  Fe2  1  0.80334700  0.74819100  0.87377200  1
  Fe  Fe3  1  0.69665300  0.24819100  0.12622800  1
  Fe  Fe4  1  0.22548900  0.06456900  0.91529300  1
  Fe  Fe5  1  0.27451100  0.56456900  0.08470700  1
  Fe  Fe6  1  0.77451100  0.93543100  0.08470700  1
  Fe  Fe7  1  0.72548900  0.43543100  0.91529300  1
  Fe  Fe8  1  0.32556500  0.13094000  0.36469000  1
  Fe  Fe9  1  0.17443500  0.63094000  0.63531000  1
  Fe  Fe10  1  0.67443500  0.86906000  0.63531000  1
  Fe  Fe11  1  0.82556500  0.36906000  0.36469000  1
  P  P0  1  0.97403800  0.10126700  0.28916000  1
  P  P1  1  0.52596200  0.60126700  0.71084000  1
  P  P2  1  0.02596200  0.89873300  0.71084000  1
  P  P3  1  0.47403800  0.39873300  0.28916000  1
  P  P4  1  0.44441600  0.02456300  0.15140300  1
  P  P5  1  0.05558400  0.52456300  0.84859700  1
  P  P6  1  0.55558400  0.97543700  0.84859700  1
  P  P7  1  0.94441600  0.47543700  0.15140300  1
  P  P8  1  0.89861500  0.15802900  0.94042800  1
  P  P9  1  0.60138500  0.65802900  0.05957200  1
  P  P10  1  0.10138500  0.84197100  0.05957200  1
  P  P11  1  0.39861500  0.34197100  0.94042800  1
  P  P12  1  0.17602800  0.38820100  0.46768700  1
  P  P13  1  0.32397200  0.88820100  0.53231300  1
  P  P14  1  0.82397200  0.61179900  0.53231300  1
  P  P15  1  0.67602800  0.11179900  0.46768700  1
  H  H0  1  0.99574500  0.08199100  0.39970200  1
  H  H1  1  0.50425500  0.58199100  0.60029800  1
  H  H2  1  0.00425500  0.91800900  0.60029800  1
  H  H3  1  0.49574500  0.41800900  0.39970200  1
  H  H4  1  0.43611800  0.89768900  0.11038500  1
  H  H5  1  0.06388200  0.39768900  0.88961500  1
  H  H6  1  0.56388200  0.10231100  0.88961500  1
  H  H7  1  0.93611800  0.60231100  0.11038500  1
  H  H8  1  0.88638400  0.04988400  0.87248800  1
  H  H9  1  0.61361600  0.54988400  0.12751200  1
  H  H10  1  0.11361600  0.95011600  0.12751200  1
  H  H11  1  0.38638400  0.45011600  0.87248800  1
  H  H12  1  0.19684700  0.45997700  0.37744400  1
  H  H13  1  0.30315300  0.95997700  0.62255600  1
  H  H14  1  0.80315300  0.54002300  0.62255600  1
  H  H15  1  0.69684700  0.04002300  0.37744400  1
  H  H16  1  0.89382200  0.25130000  0.60022600  1
  H  H17  1  0.60617800  0.75130000  0.39977400  1
  H  H18  1  0.10617800  0.74870000  0.39977400  1
  H  H19  1  0.39382200  0.24870000  0.60022600  1
  H  H20  1  0.01421400  0.17273800  0.69588700  1
  H  H21  1  0.48578600  0.67273800  0.30411300  1
  H  H22  1  0.98578600  0.82726200  0.30411300  1
  H  H23  1  0.51421400  0.32726200  0.69588700  1
  H  H24  1  0.88818700  0.26684500  0.73350000  1
  H  H25  1  0.61181300  0.76684500  0.26650000  1
  H  H26  1  0.11181300  0.73315500  0.26650000  1
  H  H27  1  0.38818700  0.23315500  0.73350000  1
  H  H28  1  0.02050200  0.33951100  0.68210100  1
  H  H29  1  0.47949800  0.83951100  0.31789900  1
  H  H30  1  0.97949800  0.66048900  0.31789900  1
  H  H31  1  0.52050200  0.16048900  0.68210100  1
  N  N0  1  0.95469800  0.25785900  0.67647100  1
  N  N1  1  0.54530200  0.75785900  0.32352900  1
  N  N2  1  0.04530200  0.74214100  0.32352900  1
  N  N3  1  0.45469800  0.24214100  0.67647100  1
  O  O0  1  0.12422000  0.14020300  0.26274300  1
  O  O1  1  0.37578000  0.64020300  0.73725700  1
  O  O2  1  0.87578000  0.85979700  0.73725700  1
  O  O3  1  0.62422000  0.35979700  0.26274300  1
  O  O4  1  0.36602300  0.28353800  0.26589200  1
  O  O5  1  0.13397700  0.78353800  0.73410800  1
  O  O6  1  0.63397700  0.71646200  0.73410800  1
  O  O7  1  0.86602300  0.21646200  0.26589200  1
  O  O8  1  0.32661500  0.10482400  0.08093800  1
  O  O9  1  0.17338500  0.60482400  0.91906200  1
  O  O10  1  0.67338500  0.89517600  0.91906200  1
  O  O11  1  0.82661500  0.39517600  0.08093800  1
  O  O12  1  0.06162400  0.17695600  0.98117900  1
  O  O13  1  0.43837600  0.67695600  0.01882100  1
  O  O14  1  0.93837600  0.82304400  0.01882100  1
  O  O15  1  0.56162400  0.32304400  0.98117900  1
  O  O16  1  0.09769400  0.42748200  0.14475900  1
  O  O17  1  0.40230600  0.92748200  0.85524100  1
  O  O18  1  0.90230600  0.57251800  0.85524100  1
  O  O19  1  0.59769400  0.07251800  0.14475900  1
  O  O20  1  0.31834700  0.37835600  0.03235600  1
  O  O21  1  0.18165300  0.87835600  0.96764400  1
  O  O22  1  0.68165300  0.62164400  0.96764400  1
  O  O23  1  0.81834700  0.12164400  0.03235600  1
  O  O24  1  0.41385000  0.01223100  0.26599700  1
  O  O25  1  0.08615000  0.51223100  0.73400300  1
  O  O26  1  0.58615000  0.98776900  0.73400300  1
  O  O27  1  0.91385000  0.48776900  0.26599700  1
  O  O28  1  0.26561300  0.26147900  0.47044600  1
  O  O29  1  0.23438700  0.76147900  0.52955400  1
  O  O30  1  0.73438700  0.73852100  0.52955400  1
  O  O31  1  0.76561300  0.23852100  0.47044600  1
  O  O32  1  0.26385400  0.97097000  0.43393300  1
  O  O33  1  0.23614600  0.47097000  0.56606700  1
  O  O34  1  0.73614600  0.02903000  0.56606700  1
  O  O35  1  0.76385400  0.52903000  0.43393300  1
  O  O36  1  0.51555800  0.14264400  0.45876200  1
  O  O37  1  0.98444200  0.64264400  0.54123800  1
  O  O38  1  0.48444200  0.85735600  0.54123800  1
  O  O39  1  0.01555800  0.35735600  0.45876200  1
  O  O40  1  0.08688900  0.02575400  0.76332000  1
  O  O41  1  0.41311100  0.52575400  0.23668000  1
  O  O42  1  0.91311100  0.97424600  0.23668000  1
  O  O43  1  0.58688900  0.47424600  0.76332000  1
  O  O44  1  0.32871000  0.22796000  0.87134200  1
  O  O45  1  0.17129000  0.72796000  0.12865800  1
  O  O46  1  0.67129000  0.77204000  0.12865800  1
  O  O47  1  0.82871000  0.27204000  0.87134200  1
loop_
_geom_bond_atom_site_label_1
_geom_bond_atom_site_label_2
_geom_bond_distance
_geom_bond_site_symmetry_2
Fe0 O16 2.062587 1_555
Fe0 O8 2.087190 1_555
Fe0 O12 2.196299 1_554
Fe0 O4 2.202889 1_555
Fe0 O20 2.215939 1_555
Fe0 O0 2.284254 1_555
Fe1 O17 2.062587 1_555
Fe1 O9 2.087190 1_555
Fe1 O13 2.196299 1_556
Fe1 O5 2.202889 1_555
Fe1 O21 2.215939 1_555
Fe1 O1 2.284254 1_555
Fe2 O18 2.062587 1_555
Fe2 O10 2.087190 1_555
Fe2 O14 2.196299 1_556
Fe2 O6 2.202889 1_555
Fe2 O22 2.215939 1_555
Fe2 O2 2.284254 1_555
Fe3 O19 2.062587 1_555
Fe3 O11 2.087190 1_555
Fe3 O15 2.196299 1_554
Fe3 O7 2.202889 1_555
Fe3 O23 2.215939 1_555
Fe3 O3 2.284254 1_555
Fe4 O44 2.064542 1_555
Fe4 O21 2.089027 1_545
Fe4 O40 2.180013 1_555
Fe4 O8 2.202034 1_556
Fe4 O12 2.207570 1_555
Fe4 O17 2.405925 1_545
Fe5 O45 2.064542 1_555
Fe5 O20 2.089027 1_555
Fe5 O41 2.180013 1_555
Fe5 O9 2.202034 1_554
Fe5 O13 2.207570 1_555
Fe5 O16 2.405925 1_555
Fe6 O46 2.064542 1_555
Fe6 O23 2.089027 1_565
Fe6 O42 2.180013 1_555
Fe6 O10 2.202034 1_554
Fe6 O14 2.207570 1_555
Fe6 O19 2.405925 1_565
Fe7 O47 2.064542 1_555
Fe7 O22 2.089027 1_555
Fe7 O43 2.180013 1_555
Fe7 O11 2.202034 1_556
Fe7 O15 2.207570 1_555
Fe7 O18 2.405925 1_555
Fe8 O36 1.981832 1_555
Fe8 O32 1.997695 1_545
Fe8 O24 2.030305 1_555
Fe8 O28 2.048269 1_555
Fe8 O4 2.085840 1_555
Fe8 O0 2.111631 1_555
Fe9 O37 1.981832 1_455
Fe9 O33 1.997695 1_555
Fe9 O25 2.030305 1_555
Fe9 O29 2.048269 1_555
Fe9 O5 2.085840 1_555
Fe9 O1 2.111631 1_555
Fe10 O38 1.981832 1_555
Fe10 O34 1.997695 1_565
Fe10 O26 2.030305 1_555
Fe10 O30 2.048269 1_555
Fe10 O6 2.085840 1_555
Fe10 O2 2.111631 1_555
Fe11 O39 1.981832 1_655
Fe11 O35 1.997695 1_555
Fe11 O27 2.030305 1_555
Fe11 O31 2.048269 1_555
Fe11 O7 2.085840 1_555
Fe11 O3 2.111631 1_555
H0 P0 1.402983 1_555
H1 P1 1.402983 1_555
H2 P2 1.402983 1_555
H3 P3 1.402983 1_555
H4 P4 1.400406 1_565
H5 P5 1.400406 1_555
H6 P6 1.400406 1_545
H7 P7 1.400406 1_555
H8 P8 1.400451 1_555
H9 P9 1.400451 1_555
H10 P10 1.400451 1_555
H11 P11 1.400451 1_555
H12 P12 1.408150 1_555
H13 P13 1.408150 1_555
H14 P14 1.408150 1_555
H15 P15 1.408150 1_555
H16 N0 1.042862 1_555
H17 N1 1.042862 1_555
H18 N2 1.042862 1_555
H19 N3 1.042862 1_555
H20 N0 1.045018 1_455
H21 N1 1.045018 1_555
H22 N2 1.045018 1_655
H23 N3 1.045018 1_555
H24 N0 1.043055 1_555
H25 N1 1.043055 1_555
H26 N2 1.043055 1_555
H27 N3 1.043055 1_555
H28 N0 1.038084 1_455
H29 N1 1.038084 1_555
H30 N2 1.038084 1_655
H31 N3 1.038084 1_555
O0 P0 1.563747 1_455
O1 P1 1.563747 1_555
O2 P2 1.563747 1_655
O3 P3 1.563747 1_555
O4 P3 1.555824 1_555
O5 P2 1.555824 1_555
O6 P1 1.555824 1_555
O7 P0 1.555824 1_555
O8 P4 1.542051 1_555
O9 P5 1.542051 1_555
O10 P6 1.542051 1_555
O11 P7 1.542051 1_555
O12 P8 1.548772 1_455
O13 P9 1.548772 1_555
O14 P10 1.548772 1_655
O15 P11 1.548772 1_555
O16 P7 1.543779 1_455
O17 P6 1.543779 1_555
O18 P5 1.543779 1_655
O19 P4 1.543779 1_555
O20 P11 1.546642 1_554
O21 P10 1.546642 1_556
O22 P9 1.546642 1_556
O23 P8 1.546642 1_554
O24 P4 1.542367 1_555
O25 P5 1.542367 1_555
O26 P6 1.542367 1_555
O27 P7 1.542367 1_555
O28 P12 1.548238 1_555
O29 P13 1.548238 1_555
O30 P14 1.548238 1_555
O31 P15 1.548238 1_555
O32 P13 1.540199 1_555
O33 P12 1.540199 1_555
O34 P15 1.540199 1_555
O35 P14 1.540199 1_555
O36 P15 1.531845 1_555
O37 P14 1.531845 1_555
O38 P13 1.531845 1_555
O39 P12 1.531845 1_555
O40 P2 1.531497 1_545
O41 P3 1.531497 1_555
O42 P0 1.531497 1_565
O43 P1 1.531497 1_555
O44 P11 1.542865 1_555
O45 P10 1.542865 1_555
O46 P9 1.542865 1_555
O47 P8 1.542865 1_555
