# generated using pymatgen
data_La2ZrSe5
_symmetry_space_group_name_H-M   'P 1'
_cell_length_a   7.77354927
_cell_length_b   8.57047752
_cell_length_c   12.07556869
_cell_angle_alpha   90.00000000
_cell_angle_beta   90.00000000
_cell_angle_gamma   90.00000000
_symmetry_Int_Tables_number   1
_chemical_formula_structural   La2ZrSe5
_chemical_formula_sum   'La8 Zr4 Se20'
_cell_volume   804.51096628
_cell_formula_units_Z   4
loop_
 _symmetry_equiv_pos_site_id
 _symmetry_equiv_pos_as_xyz
  1  'x, y, z'
loop_
 _atom_site_type_symbol
 _atom_site_label
 _atom_site_symmetry_multiplicity
 _atom_site_fract_x
 _atom_site_fract_y
 _atom_site_fract_z
 _atom_site_occupancy
  La  La0  1  0.94463817  0.00001522  0.17266751  1
  La  La1  1  0.55536183  0.49998478  0.67266751  1
  La  La2  1  0.05536183  0.50001522  0.82733249  1
  La  La3  1  0.44463817  -0.00001522  0.32733249  1
  La  La4  1  0.05536183  -0.00001522  0.82733249  1
  La  La5  1  0.44463817  0.50001522  0.32733249  1
  La  La6  1  0.94463817  0.49998478  0.17266751  1
  La  La7  1  0.55536183  0.00001522  0.67266751  1
  Zr  Zr0  1  0.42498419  0.75000000  0.00954354  1
  Zr  Zr1  1  0.07501581  0.75000000  0.50954354  1
  Zr  Zr2  1  0.57501581  0.25000000  0.99045646  1
  Zr  Zr3  1  0.92498419  0.25000000  0.49045646  1
  Se  Se0  1  0.82393779  0.96408956  0.42446335  1
  Se  Se1  1  0.67606221  0.53591044  0.92446335  1
  Se  Se2  1  0.17606221  0.46408956  0.57553665  1
  Se  Se3  1  0.32393779  0.03591044  0.07553665  1
  Se  Se4  1  0.17606221  0.03591044  0.57553665  1
  Se  Se5  1  0.32393779  0.46408956  0.07553665  1
  Se  Se6  1  0.82393779  0.53591044  0.42446335  1
  Se  Se7  1  0.67606221  0.96408956  0.92446335  1
  Se  Se8  1  0.64292837  0.75000000  0.19066206  1
  Se  Se9  1  0.85707163  0.75000000  0.69066206  1
  Se  Se10  1  0.35707163  0.25000000  0.80933794  1
  Se  Se11  1  0.14292837  0.25000000  0.30933794  1
  Se  Se12  1  0.44352603  0.75000000  0.50472119  1
  Se  Se13  1  0.05647397  0.75000000  0.00472119  1
  Se  Se14  1  0.55647397  0.25000000  0.49527881  1
  Se  Se15  1  0.94352603  0.25000000  0.99527881  1
  Se  Se16  1  0.16131522  0.75000000  0.29131500  1
  Se  Se17  1  0.33868478  0.75000000  0.79131500  1
  Se  Se18  1  0.83868478  0.25000000  0.70868500  1
  Se  Se19  1  0.66131522  0.25000000  0.20868500  1
loop_
_geom_bond_atom_site_label_1
_geom_bond_atom_site_label_2
_geom_bond_distance
_geom_bond_site_symmetry_2
La0 Se15 3.029653 1_554
La0 Se13 3.075734 1_645
La0 Se16 3.079146 1_645
La0 Se19 3.103240 1_555
La0 Se11 3.112870 1_655
La0 Se8 3.184225 1_545
La0 Se3 3.188109 1_655
La0 Se0 3.196915 1_545
La0 Se7 3.665639 1_544
La1 Se14 3.029653 1_555
La1 Se12 3.075734 1_555
La1 Se17 3.079146 1_555
La1 Se18 3.103240 1_555
La1 Se10 3.112870 1_555
La1 Se9 3.184225 1_555
La1 Se2 3.188109 1_555
La1 Se1 3.196915 1_555
La1 Se6 3.665639 1_555
La2 Se13 3.029653 1_556
La2 Se15 3.075734 1_455
La2 Se18 3.079146 1_455
La2 Se17 3.103240 1_555
La2 Se9 3.112870 1_455
La2 Se10 3.184225 1_555
La2 Se1 3.188109 1_455
La2 Se2 3.196915 1_555
La2 Se5 3.665639 1_556
La3 Se12 3.029653 1_545
La3 Se14 3.075734 1_555
La3 Se19 3.079146 1_555
La3 Se16 3.103240 1_545
La3 Se8 3.112870 1_545
La3 Se11 3.184225 1_555
La3 Se0 3.188109 1_545
La3 Se3 3.196915 1_555
La3 Se4 3.665639 1_555
La4 Se13 3.029653 1_546
La4 Se15 3.075734 1_455
La4 Se18 3.079146 1_455
La4 Se17 3.103240 1_545
La4 Se9 3.112870 1_445
La4 Se10 3.184225 1_555
La4 Se7 3.188109 1_445
La4 Se4 3.196915 1_555
La4 Se3 3.665639 1_556
La5 Se12 3.029653 1_555
La5 Se14 3.075734 1_555
La5 Se19 3.079146 1_555
La5 Se16 3.103240 1_555
La5 Se8 3.112870 1_555
La5 Se11 3.184225 1_555
La5 Se6 3.188109 1_555
La5 Se5 3.196915 1_555
La5 Se2 3.665639 1_555
La6 Se15 3.029653 1_554
La6 Se13 3.075734 1_655
La6 Se16 3.079146 1_655
La6 Se19 3.103240 1_555
La6 Se11 3.112870 1_655
La6 Se8 3.184225 1_555
La6 Se5 3.188109 1_655
La6 Se6 3.196915 1_555
La6 Se1 3.665639 1_554
La7 Se14 3.029653 1_555
La7 Se12 3.075734 1_545
La7 Se17 3.079146 1_545
La7 Se18 3.103240 1_555
La7 Se10 3.112870 1_555
La7 Se9 3.184225 1_545
La7 Se4 3.188109 1_555
La7 Se7 3.196915 1_545
La7 Se0 3.665639 1_545
Se0 Zr3 2.693781 1_565
Se0 Zr1 2.869077 1_655
Se1 Zr2 2.693781 1_555
Se1 Zr0 2.869077 1_556
Se2 Zr1 2.693781 1_555
Se2 Zr3 2.869077 1_455
Se3 Zr0 2.693781 1_545
Se3 Zr2 2.869077 1_554
Se4 Zr1 2.693781 1_545
Se4 Zr3 2.869077 1_455
Se5 Zr0 2.693781 1_555
Se5 Zr2 2.869077 1_554
Se6 Zr3 2.693781 1_555
Se6 Zr1 2.869077 1_655
Se7 Zr2 2.693781 1_565
Se7 Zr0 2.869077 1_556
Se8 Zr0 2.766543 1_555
Se9 Zr1 2.766543 1_655
Se10 Zr2 2.766543 1_555
Se11 Zr3 2.766543 1_455
Se12 Zr1 2.865224 1_555
Se13 Zr0 2.865224 1_555
Se14 Zr3 2.865224 1_555
Se15 Zr2 2.865224 1_555
Se16 Zr1 2.719283 1_555
Se17 Zr0 2.719283 1_556
Se18 Zr3 2.719283 1_555
Se19 Zr2 2.719283 1_554
