# generated using pymatgen
data_BaBeF4
_symmetry_space_group_name_H-M   'P 1'
_cell_length_a   5.26519531
_cell_length_b   7.06970711
_cell_length_c   8.89148016
_cell_angle_alpha   90.00000000
_cell_angle_beta   90.00000000
_cell_angle_gamma   90.00000000
_symmetry_Int_Tables_number   1
_chemical_formula_structural   BaBeF4
_chemical_formula_sum   'Ba4 Be4 F16'
_cell_volume   330.97102228
_cell_formula_units_Z   4
loop_
 _symmetry_equiv_pos_site_id
 _symmetry_equiv_pos_as_xyz
  1  'x, y, z'
loop_
 _atom_site_type_symbol
 _atom_site_label
 _atom_site_symmetry_multiplicity
 _atom_site_fract_x
 _atom_site_fract_y
 _atom_site_fract_z
 _atom_site_occupancy
  Ba  Ba0  1  0.25000000  0.15429427  0.18664905  1
  Ba  Ba1  1  0.75000000  0.84570573  0.81335095  1
  Ba  Ba2  1  0.75000000  0.65429427  0.31335095  1
  Ba  Ba3  1  0.25000000  0.34570573  0.68664905  1
  Be  Be0  1  0.25000000  0.80824128  0.55427906  1
  Be  Be1  1  0.25000000  0.69175872  0.05427906  1
  Be  Be2  1  0.75000000  0.30824128  0.94572094  1
  Be  Be3  1  0.75000000  0.19175872  0.44572094  1
  F  F0  1  0.48790586  0.81979182  0.07963079  1
  F  F1  1  0.01209414  0.68020818  0.57963079  1
  F  F2  1  0.51209414  0.31979182  0.42036921  1
  F  F3  1  0.98790586  0.18020818  0.92036921  1
  F  F4  1  0.25000000  0.87444208  0.38971510  1
  F  F5  1  0.75000000  0.12555792  0.61028490  1
  F  F6  1  0.75000000  0.37444208  0.11028490  1
  F  F7  1  0.25000000  0.62555792  0.88971510  1
  F  F8  1  0.25000000  0.96344033  0.67595086  1
  F  F9  1  0.75000000  0.03655967  0.32404914  1
  F  F10  1  0.75000000  0.46344033  0.82404914  1
  F  F11  1  0.25000000  0.53655967  0.17595086  1
  F  F12  1  0.98790586  0.31979182  0.42036921  1
  F  F13  1  0.48790586  0.68020818  0.57963079  1
  F  F14  1  0.01209414  0.81979182  0.07963079  1
  F  F15  1  0.51209414  0.18020818  0.92036921  1
loop_
_geom_bond_atom_site_label_1
_geom_bond_atom_site_label_2
_geom_bond_distance
_geom_bond_site_symmetry_2
Ba0 F4 2.678506 1_545
Ba0 F11 2.704178 1_555
Ba0 F3 2.746549 1_454
Ba0 F15 2.746549 1_554
Ba0 F12 2.755332 1_455
Ba0 F2 2.755332 1_555
Ba0 F0 2.840238 1_545
Ba0 F14 2.840238 1_545
Ba0 F9 3.019255 1_455
Ba0 F9 3.019255 1_555
Ba0 F6 3.132717 1_455
Ba0 F6 3.132717 1_555
Ba1 F5 2.678506 1_565
Ba1 F10 2.704178 1_555
Ba1 F0 2.746549 1_556
Ba1 F14 2.746549 1_656
Ba1 F13 2.755332 1_555
Ba1 F1 2.755332 1_655
Ba1 F15 2.840238 1_565
Ba1 F3 2.840238 1_565
Ba1 F8 3.019255 1_655
Ba1 F8 3.019255 1_555
Ba1 F7 3.132717 1_555
Ba1 F7 3.132717 1_655
Ba2 F6 2.678506 1_555
Ba2 F9 2.704178 1_565
Ba2 F13 2.746549 1_555
Ba2 F1 2.746549 1_655
Ba2 F0 2.755332 1_555
Ba2 F14 2.755332 1_655
Ba2 F12 2.840238 1_555
Ba2 F2 2.840238 1_555
Ba2 F11 3.019255 1_555
Ba2 F11 3.019255 1_655
Ba2 F4 3.132717 1_555
Ba2 F4 3.132717 1_655
Ba3 F7 2.678506 1_555
Ba3 F8 2.704178 1_545
Ba3 F12 2.746549 1_455
Ba3 F2 2.746549 1_555
Ba3 F3 2.755332 1_455
Ba3 F15 2.755332 1_555
Ba3 F1 2.840238 1_555
Ba3 F13 2.840238 1_555
Ba3 F10 3.019255 1_555
Ba3 F10 3.019255 1_455
Ba3 F5 3.132717 1_555
Ba3 F5 3.132717 1_455
Be0 F4 1.536245 1_555
Be0 F8 1.540862 1_555
Be0 F1 1.561787 1_555
Be0 F13 1.561787 1_555
Be1 F7 1.536245 1_554
Be1 F11 1.540862 1_555
Be1 F14 1.561787 1_555
Be1 F0 1.561787 1_555
Be2 F6 1.536245 1_556
Be2 F10 1.540862 1_555
Be2 F3 1.561787 1_555
Be2 F15 1.561787 1_555
Be3 F5 1.536245 1_555
Be3 F9 1.540862 1_555
Be3 F2 1.561787 1_555
Be3 F12 1.561787 1_555
