# generated using pymatgen
data_Te6MoW3Se2
_symmetry_space_group_name_H-M   'P 1'
_cell_length_a   3.49802431
_cell_length_b   3.49802431
_cell_length_c   39.65088900
_cell_angle_alpha   90.00000000
_cell_angle_beta   90.00000000
_cell_angle_gamma   120.00000578
_symmetry_Int_Tables_number   1
_chemical_formula_structural   Te6MoW3Se2
_chemical_formula_sum   'Te6 Mo1 W3 Se2'
_cell_volume   420.17400562
_cell_formula_units_Z   1
loop_
 _symmetry_equiv_pos_site_id
 _symmetry_equiv_pos_as_xyz
  1  'x, y, z'
loop_
 _atom_site_type_symbol
 _atom_site_label
 _atom_site_symmetry_multiplicity
 _atom_site_fract_x
 _atom_site_fract_y
 _atom_site_fract_z
 _atom_site_occupancy
  Te  Te0  1  0.33333300  0.66666700  0.32797900  1
  Te  Te1  1  0.33333300  0.66666700  0.70398400  1
  Te  Te2  1  0.66666700  0.33333300  0.04746800  1
  Te  Te3  1  0.66666700  0.33333300  0.14038500  1
  Te  Te4  1  0.33333300  0.66666700  0.23562700  1
  Te  Te5  1  0.33333300  0.66666700  0.61107100  1
  Mo  Mo0  1  0.66666700  0.33333300  0.28182000  1
  W  W0  1  0.33333300  0.66666700  0.09390300  1
  W  W1  1  0.33333300  0.66666700  0.46966200  1
  W  W2  1  0.66666700  0.33333300  0.65753200  1
  Se  Se0  1  0.66666700  0.33333300  0.42870700  1
  Se  Se1  1  0.66666700  0.33333300  0.51060900  1
loop_
_geom_bond_atom_site_label_1
_geom_bond_atom_site_label_2
_geom_bond_distance
_geom_bond_site_symmetry_2
Te1 W2 2.733345 1_455
Te1 W2 2.733345 1_565
Te1 W2 2.733350 1_555
Te2 W0 2.732891 1_545
Te2 W0 2.732891 1_655
Te2 W0 2.732896 1_555
Te3 W0 2.734147 1_545
Te3 W0 2.734147 1_655
Te3 W0 2.734151 1_555
Te5 W2 2.733586 1_455
Te5 W2 2.733586 1_565
Te5 W2 2.733590 1_555
Mo0 Te0 2.725530 1_545
Mo0 Te0 2.725530 1_655
Mo0 Te0 2.725535 1_555
Mo0 Te4 2.726436 1_545
Mo0 Te4 2.726436 1_655
Mo0 Te4 2.726440 1_555
Se0 W1 2.591481 1_545
Se0 W1 2.591481 1_655
Se0 W1 2.591486 1_555
Se1 W1 2.591282 1_655
Se1 W1 2.591282 1_545
Se1 W1 2.591287 1_555
