# generated using pymatgen
data_Er2CdPd2
_symmetry_space_group_name_H-M   'P 1'
_cell_length_a   7.65953750
_cell_length_b   7.65953750
_cell_length_c   3.62377225
_cell_angle_alpha   90.00000000
_cell_angle_beta   90.00000000
_cell_angle_gamma   90.00000000
_symmetry_Int_Tables_number   1
_chemical_formula_structural   Er2CdPd2
_chemical_formula_sum   'Er4 Cd2 Pd4'
_cell_volume   212.60133557
_cell_formula_units_Z   2
loop_
 _symmetry_equiv_pos_site_id
 _symmetry_equiv_pos_as_xyz
  1  'x, y, z'
loop_
 _atom_site_type_symbol
 _atom_site_label
 _atom_site_symmetry_multiplicity
 _atom_site_fract_x
 _atom_site_fract_y
 _atom_site_fract_z
 _atom_site_occupancy
  Er  Er0  1  0.67130884  0.17130884  0.50000000  1
  Er  Er1  1  0.32869116  0.82869116  0.50000000  1
  Er  Er2  1  0.17130884  0.32869116  0.50000000  1
  Er  Er3  1  0.82869116  0.67130884  0.50000000  1
  Cd  Cd0  1  -0.00000000  -0.00000000  -0.00000000  1
  Cd  Cd1  1  0.50000000  0.50000000  -0.00000000  1
  Pd  Pd0  1  0.12936198  0.62936198  0.00000000  1
  Pd  Pd1  1  0.87063802  0.37063802  -0.00000000  1
  Pd  Pd2  1  0.62936198  0.87063802  0.00000000  1
  Pd  Pd3  1  0.37063802  0.12936198  0.00000000  1
loop_
_geom_bond_atom_site_label_1
_geom_bond_atom_site_label_2
_geom_bond_distance
_geom_bond_site_symmetry_2
Er0 Pd1 2.818684 1_556
Er0 Pd1 2.818684 1_555
Er0 Pd3 2.947875 1_556
Er0 Pd2 2.947875 1_546
Er0 Pd3 2.947875 1_555
Er0 Pd2 2.947875 1_545
Er1 Pd0 2.818684 1_556
Er1 Pd0 2.818684 1_555
Er1 Pd2 2.947875 1_555
Er1 Pd2 2.947875 1_556
Er1 Pd3 2.947875 1_565
Er1 Pd3 2.947875 1_566
Er2 Pd3 2.818684 1_556
Er2 Pd3 2.818684 1_555
Er2 Pd0 2.947875 1_555
Er2 Pd0 2.947875 1_556
Er2 Pd1 2.947875 1_456
Er2 Pd1 2.947875 1_455
Er3 Pd2 2.818684 1_555
Er3 Pd2 2.818684 1_556
Er3 Pd1 2.947875 1_556
Er3 Pd1 2.947875 1_555
Er3 Pd0 2.947875 1_655
Er3 Pd0 2.947875 1_656
Cd0 Pd0 3.006864 1_545
Cd0 Pd3 3.006864 1_555
Cd0 Pd1 3.006864 1_455
Cd0 Pd2 3.006864 1_445
Cd0 Er3 3.367949 1_445
Cd0 Er2 3.367949 1_554
Cd0 Er1 3.367949 1_544
Cd0 Er1 3.367949 1_545
Cd0 Er0 3.367949 1_455
Cd0 Er0 3.367949 1_454
Cd0 Er2 3.367949 1_555
Cd0 Er3 3.367949 1_444
Cd1 Pd1 3.006864 1_555
Cd1 Pd0 3.006864 1_555
Cd1 Pd3 3.006864 1_555
Cd1 Pd2 3.006864 1_555
Cd1 Er3 3.367949 1_555
Cd1 Er2 3.367949 1_554
Cd1 Er1 3.367949 1_555
Cd1 Er0 3.367949 1_555
Cd1 Er3 3.367949 1_554
Cd1 Er0 3.367949 1_554
Cd1 Er1 3.367949 1_554
Cd1 Er2 3.367949 1_555
Pd0 Pd1 2.802555 1_455
Pd2 Pd3 2.802555 1_565
