# generated using pymatgen
data_Mg5Si9
_symmetry_space_group_name_H-M   'P 1'
_cell_length_a   6.79809300
_cell_length_b   7.06368635
_cell_length_c   12.73659362
_cell_angle_alpha   100.91223272
_cell_angle_beta   85.48408728
_cell_angle_gamma   116.81876228
_symmetry_Int_Tables_number   1
_chemical_formula_structural   Mg5Si9
_chemical_formula_sum   'Mg10 Si18'
_cell_volume   535.93569872
_cell_formula_units_Z   2
loop_
 _symmetry_equiv_pos_site_id
 _symmetry_equiv_pos_as_xyz
  1  'x, y, z'
loop_
 _atom_site_type_symbol
 _atom_site_label
 _atom_site_symmetry_multiplicity
 _atom_site_fract_x
 _atom_site_fract_y
 _atom_site_fract_z
 _atom_site_occupancy
  Mg  Mg0  1  0.03166500  0.49916000  0.25868800  1
  Mg  Mg1  1  0.97686800  0.19643200  0.62139700  1
  Mg  Mg2  1  0.38079800  0.86735300  0.45533500  1
  Mg  Mg3  1  0.56313700  0.29900100  0.62796600  1
  Mg  Mg4  1  0.19477800  0.30197500  0.40261200  1
  Mg  Mg5  1  0.83141500  0.67740000  0.52619400  1
  Mg  Mg6  1  0.94237300  0.39245700  0.90027900  1
  Mg  Mg7  1  0.81740200  0.66661100  0.11312900  1
  Mg  Mg8  1  0.28617500  0.88936700  0.88394200  1
  Mg  Mg9  1  0.63690900  0.11949000  0.07550700  1
  Si  Si0  1  0.72009000  0.64778200  0.85114700  1
  Si  Si1  1  0.35116000  0.47030000  0.09824800  1
  Si  Si2  1  0.18783800  0.93495000  0.67633400  1
  Si  Si3  1  0.76411600  0.95937700  0.28548400  1
  Si  Si4  1  0.54804100  0.91913200  0.68482500  1
  Si  Si5  1  0.26396300  0.99203500  0.21189800  1
  Si  Si6  1  0.36927800  0.57089800  0.77077700  1
  Si  Si7  1  0.58878800  0.32859500  0.27485900  1
  Si  Si8  1  0.20631900  0.20469400  0.83119400  1
  Si  Si9  1  0.02645400  0.87740200  0.36131300  1
  Si  Si10  1  0.05129600  0.12630800  0.13358500  1
  Si  Si11  1  0.91950800  0.00246000  0.95089500  1
  Si  Si12  1  0.96831200  0.58094900  0.71963600  1
  Si  Si13  1  0.46882600  0.59892000  0.28110900  1
  Si  Si14  1  0.23984600  0.71999300  0.06080000  1
  Si  Si15  1  0.52757300  0.35230500  0.94909300  1
  Si  Si16  1  0.73907400  0.24453800  0.41520200  1
  Si  Si17  1  0.39818900  0.56041700  0.57876200  1
loop_
_geom_bond_atom_site_label_1
_geom_bond_atom_site_label_2
_geom_bond_distance
_geom_bond_site_symmetry_2
Mg0 Si7 2.698448 1_455
Mg0 Si13 2.752790 1_555
Mg0 Si9 2.757549 1_555
Mg0 Si10 2.861457 1_555
Mg0 Si1 2.911629 1_555
Mg0 Si16 2.944496 1_455
Mg0 Si14 3.118251 1_555
Mg1 Si12 2.791164 1_555
Mg1 Si4 2.839634 1_545
Mg1 Si17 2.957645 1_655
Mg1 Si2 2.999274 1_645
Mg1 Si8 3.176751 1_655
Mg1 Si6 3.203051 1_655
Mg2 Si16 2.784978 1_565
Mg2 Si9 2.807569 1_555
Mg2 Si13 2.845926 1_555
Mg2 Si17 2.955830 1_555
Mg2 Si2 3.057212 1_555
Mg2 Si4 3.116598 1_555
Mg2 Si3 3.163719 1_555
Mg3 Si17 2.734429 1_555
Mg3 Si12 2.755459 1_555
Mg3 Si2 2.816692 1_545
Mg3 Si4 2.865395 1_545
Mg3 Si16 2.903807 1_555
Mg3 Si6 3.052499 1_555
Mg4 Si17 2.634070 1_555
Mg4 Si9 2.642210 1_545
Mg4 Si13 2.741196 1_555
Mg4 Si16 2.932523 1_455
Mg4 Si7 2.971943 1_555
Mg4 Si3 3.095331 1_445
Mg4 Si5 3.106508 1_545
Mg5 Si9 2.675542 1_655
Mg5 Si17 2.740031 1_555
Mg5 Si2 2.876163 1_655
Mg5 Si16 2.917656 1_555
Mg5 Si12 2.994870 1_555
Mg6 Si8 2.685118 1_655
Mg6 Si15 2.736340 1_555
Mg6 Si12 2.825155 1_555
Mg6 Si14 2.874132 1_656
Mg6 Si11 2.880801 1_555
Mg6 Si0 2.993850 1_555
Mg6 Si6 3.076410 1_655
Mg7 Si14 2.765922 1_655
Mg7 Si1 2.834441 1_555
Mg7 Si3 2.838803 1_555
Mg7 Si15 2.849743 1_554
Mg7 Si10 2.868131 1_665
Mg7 Si13 2.997978 1_555
Mg7 Si5 3.048298 1_655
Mg8 Si14 2.678295 1_556
Mg8 Si6 2.692228 1_555
Mg8 Si8 2.724393 1_565
Mg8 Si2 2.887455 1_555
Mg8 Si15 2.901668 1_565
Mg8 Si12 2.921131 1_455
Mg8 Si11 2.963568 1_465
Mg8 Si4 2.966168 1_555
Mg9 Si11 2.710952 1_554
Mg9 Si7 2.760587 1_555
Mg9 Si5 2.845182 1_545
Mg9 Si15 2.853635 1_554
Mg9 Si14 2.879348 1_545
Mg9 Si10 2.945752 1_655
Si0 Si11 2.393742 1_565
Si0 Si12 2.418736 1_555
Si0 Si15 2.426767 1_555
Si0 Si6 2.456738 1_555
Si1 Si14 2.343205 1_555
Si1 Si15 2.384450 1_554
Si1 Si13 2.392929 1_555
Si1 Si10 2.462172 1_555
Si2 Si8 2.436542 1_565
Si2 Si4 2.512655 1_555
Si3 Si9 2.421438 1_655
Si4 Si6 2.615083 1_555
Si5 Si9 2.409154 1_555
Si5 Si7 2.447665 1_565
Si6 Si8 2.558180 1_555
Si10 Si5 2.409807 1_545
Si10 Si11 2.415067 1_454
Si10 Si3 2.671418 1_445
Si11 Si8 2.451493 1_655
Si12 Si2 2.410254 1_655
Si12 Si6 2.886355 1_655
Si13 Si7 2.378007 1_555
Si13 Si3 2.422310 1_555
Si14 Si5 2.405902 1_555
Si15 Si8 2.445495 1_555
Si16 Si3 2.412701 1_545
Si16 Si7 2.414173 1_555
Si17 Si4 2.423763 1_555
Si17 Si6 2.427764 1_555
