# generated using pymatgen
data_Te2W2SeS
_symmetry_space_group_name_H-M   'P 1'
_cell_length_a   3.39816679
_cell_length_b   3.39816679
_cell_length_c   38.84726100
_cell_angle_alpha   90.00000000
_cell_angle_beta   90.00000000
_cell_angle_gamma   120.00001547
_symmetry_Int_Tables_number   1
_chemical_formula_structural   Te2W2SeS
_chemical_formula_sum   'Te4 W4 Se2 S2'
_cell_volume   388.49045345
_cell_formula_units_Z   2
loop_
 _symmetry_equiv_pos_site_id
 _symmetry_equiv_pos_as_xyz
  1  'x, y, z'
loop_
 _atom_site_type_symbol
 _atom_site_label
 _atom_site_symmetry_multiplicity
 _atom_site_fract_x
 _atom_site_fract_y
 _atom_site_fract_z
 _atom_site_occupancy
  Te  Te0  1  0.00000000  0.00000000  0.33026300  1
  Te  Te1  1  0.00000000  0.00000000  0.70601900  1
  Te  Te2  1  0.00000000  0.00000000  0.23330200  1
  Te  Te3  1  0.00000000  0.00000000  0.60905900  1
  W  W0  1  0.00000000  0.00000000  0.09393600  1
  W  W1  1  0.00000000  0.00000000  0.46966000  1
  W  W2  1  0.33333300  0.66666700  0.28179400  1
  W  W3  1  0.33333300  0.66666700  0.65755200  1
  Se  Se0  1  0.33333300  0.66666700  0.42705400  1
  Se  Se1  1  0.33333300  0.66666700  0.51225200  1
  S  S0  1  0.33333300  0.66666700  0.05512200  1
  S  S1  1  0.33333300  0.66666700  0.13273600  1
loop_
_geom_bond_atom_site_label_1
_geom_bond_atom_site_label_2
_geom_bond_distance
_geom_bond_site_symmetry_2
Te0 W2 2.719272 1_545
Te0 W2 2.719274 1_445
Te0 W2 2.719274 1_555
Te1 W3 2.719218 1_545
Te1 W3 2.719220 1_445
Te1 W3 2.719220 1_555
Te2 W2 2.719891 1_545
Te2 W2 2.719892 1_555
Te2 W2 2.719892 1_445
Te3 W3 2.719917 1_545
Te3 W3 2.719919 1_445
Te3 W3 2.719919 1_555
Se0 W1 2.566830 1_565
Se0 W1 2.566832 1_665
Se0 W1 2.566832 1_555
Se1 W1 2.566479 1_565
Se1 W1 2.566481 1_665
Se1 W1 2.566481 1_555
S0 W0 2.474406 1_565
S0 W0 2.474408 1_665
S0 W0 2.474408 1_555
S1 W0 2.474075 1_565
S1 W0 2.474077 1_665
S1 W0 2.474077 1_555
