# generated using pymatgen
data_HoPS4
_symmetry_space_group_name_H-M   'P 1'
_cell_length_a   12.13874595
_cell_length_b   12.13877354
_cell_length_c   12.13878526
_cell_angle_alpha   127.78687234
_cell_angle_beta   127.78615927
_cell_angle_gamma   76.97123990
_symmetry_Int_Tables_number   1
_chemical_formula_structural   HoPS4
_chemical_formula_sum   'Ho8 P8 S32'
_cell_volume   1084.44808227
_cell_formula_units_Z   8
loop_
 _symmetry_equiv_pos_site_id
 _symmetry_equiv_pos_as_xyz
  1  'x, y, z'
loop_
 _atom_site_type_symbol
 _atom_site_label
 _atom_site_symmetry_multiplicity
 _atom_site_fract_x
 _atom_site_fract_y
 _atom_site_fract_z
 _atom_site_occupancy
  Ho  Ho0  1  0.00000614  0.00000054  0.00001134  1
  Ho  Ho1  1  0.74999692  0.24999243  0.49999726  1
  Ho  Ho2  1  0.24999208  0.75000221  0.50000594  1
  Ho  Ho3  1  0.50000986  0.50001126  -0.00000729  1
  Ho  Ho4  1  0.74998925  0.74999768  0.99999011  1
  Ho  Ho5  1  0.49999679  0.00001105  0.50000139  1
  Ho  Ho6  1  0.00000543  0.50000520  0.50000829  1
  Ho  Ho7  1  0.25000148  0.24999948  0.00000163  1
  P  P0  1  0.12499685  0.41287750  0.78787424  1
  P  P1  1  0.12499532  0.91287638  0.28786824  1
  P  P2  1  0.66287845  0.87499550  0.28787629  1
  P  P3  1  0.58712506  0.37499707  0.71212600  1
  P  P4  1  0.62499594  0.83712435  0.71211919  1
  P  P5  1  0.62499760  0.33712404  0.21212558  1
  P  P6  1  0.08712426  0.37500134  0.21212502  1
  P  P7  1  0.16287972  0.87500101  0.78787746  1
  S  S0  1  0.48474291  0.20883613  0.45086625  1
  S  S1  1  0.75798770  0.03388696  0.54913722  1
  S  S2  1  0.78389019  0.73473966  0.77589711  1
  S  S3  1  0.95884141  0.00798306  0.22409301  1
  S  S4  1  0.49201495  0.54115847  0.77590889  1
  S  S5  1  0.76524919  0.71610005  0.22408802  1
  S  S6  1  0.29115834  0.01526149  0.54913447  1
  S  S7  1  0.46611697  0.74201486  0.45086375  1
  S  S8  1  0.28003496  0.46915171  0.32030260  1
  S  S9  1  0.21914861  0.39885162  0.68911453  1
  S  S10  1  0.70973562  0.53001879  0.31086032  1
  S  S11  1  0.96998122  0.79026823  0.68914234  1
  S  S12  1  0.10114891  0.28085497  0.31088686  1
  S  S13  1  0.54027778  0.35117319  0.32032218  1
  S  S14  1  0.03084711  0.21996640  0.67969986  1
  S  S15  1  0.14883601  0.95972432  0.67968608  1
  S  S16  1  0.46996687  0.78084474  0.17970098  1
  S  S17  1  0.53085399  0.85114629  0.81088528  1
  S  S18  1  0.04026898  0.71997758  0.18913866  1
  S  S19  1  0.78001934  0.45973037  0.81085589  1
  S  S20  1  0.64884686  0.96914057  0.18910876  1
  S  S21  1  0.20972500  0.89883632  0.17968644  1
  S  S22  1  0.71915452  0.03003639  0.82030614  1
  S  S23  1  0.60117402  0.29027851  0.82032081  1
  S  S24  1  0.99201424  0.21611294  0.95086286  1
  S  S25  1  0.96610790  0.51525156  0.72409127  1
  S  S26  1  0.79115503  0.24200881  0.27589599  1
  S  S27  1  0.25798649  0.70884197  0.72409164  1
  S  S28  1  0.98474814  0.53389491  0.27590991  1
  S  S29  1  0.45884068  0.23474326  0.95087001  1
  S  S30  1  0.28388116  0.50798886  0.04913902  1
  S  S31  1  0.26525573  0.04116096  0.04913220  1
loop_
_geom_bond_atom_site_label_1
_geom_bond_atom_site_label_2
_geom_bond_distance
_geom_bond_site_symmetry_2
Ho0 S11 2.795387 1_444
Ho0 S21 2.795405 1_545
Ho0 S12 2.795463 1_555
Ho0 S22 2.795515 1_454
Ho0 S3 2.996445 1_455
Ho0 S2 2.996560 1_444
Ho0 S24 2.996586 1_454
Ho0 S31 2.996643 1_555
Ho1 S19 2.795320 1_555
Ho1 S14 2.795460 1_655
Ho1 S20 2.795490 1_545
Ho1 S13 2.795549 1_555
Ho1 S1 2.996433 1_555
Ho1 S25 2.996581 1_555
Ho1 S0 2.996613 1_555
Ho1 S26 2.996615 1_555
Ho2 S15 2.795349 1_555
Ho2 S18 2.795389 1_555
Ho2 S8 2.795508 1_555
Ho2 S17 2.795546 1_555
Ho2 S27 2.996380 1_555
Ho2 S28 2.996421 1_455
Ho2 S7 2.996686 1_555
Ho2 S6 2.996729 1_565
Ho3 S16 2.795368 1_555
Ho3 S23 2.795413 1_554
Ho3 S10 2.795497 1_555
Ho3 S9 2.795516 1_554
Ho3 S4 2.996240 1_554
Ho3 S5 2.996257 1_555
Ho3 S30 2.996802 1_555
Ho3 S29 2.996884 1_554
Ho4 S4 2.884887 1_555
Ho4 S3 2.884996 1_566
Ho4 S2 2.884998 1_555
Ho4 S5 2.885023 1_556
Ho4 S17 2.889863 1_555
Ho4 S20 2.889894 1_556
Ho4 S19 2.889994 1_555
Ho4 S18 2.890106 1_656
Ho5 S0 2.884693 1_555
Ho5 S6 2.884835 1_555
Ho5 S1 2.885031 1_555
Ho5 S7 2.885096 1_545
Ho5 S23 2.890016 1_555
Ho5 S16 2.890025 1_545
Ho5 S21 2.890054 1_545
Ho5 S22 2.890106 1_555
Ho6 S27 2.884922 1_555
Ho6 S25 2.884926 1_455
Ho6 S28 2.884978 1_455
Ho6 S26 2.885049 1_455
Ho6 S11 2.889933 1_455
Ho6 S9 2.889947 1_555
Ho6 S12 2.889950 1_555
Ho6 S10 2.889994 1_455
Ho7 S29 2.884813 1_554
Ho7 S31 2.884814 1_555
Ho7 S24 2.885001 1_454
Ho7 S30 2.885016 1_555
Ho7 S8 2.889988 1_555
Ho7 S14 2.890029 1_554
Ho7 S15 2.890064 1_544
Ho7 S13 2.890105 1_555
P0 S14 2.028169 1_555
P0 S9 2.028170 1_555
P0 S30 2.032763 1_556
P0 S25 2.032768 1_455
P1 S21 2.028098 1_555
P1 S18 2.028147 1_555
P1 S3 2.032738 1_465
P1 S6 2.032786 1_565
P2 S20 2.028163 1_555
P2 S16 2.028178 1_555
P2 S1 2.032737 1_565
P2 S5 2.032789 1_555
P3 S23 2.028086 1_555
P3 S19 2.028134 1_555
P3 S0 2.032730 1_555
P3 S4 2.032820 1_555
P4 S17 2.028150 1_555
P4 S22 2.028163 1_565
P4 S7 2.032687 1_555
P4 S2 2.032876 1_555
P5 S13 2.028108 1_555
P5 S10 2.028133 1_555
P5 S29 2.032705 1_554
P5 S26 2.032817 1_555
P6 S12 2.028150 1_555
P6 S8 2.028156 1_555
P6 S24 2.032741 1_454
P6 S28 2.032809 1_455
P7 S15 2.028126 1_555
P7 S11 2.028151 1_455
P7 S31 2.032701 1_566
P7 S27 2.032782 1_555
