# generated using pymatgen
data_SmTiNbBi2O9
_symmetry_space_group_name_H-M   'P 1'
_cell_length_a   5.48887200
_cell_length_b   5.44037000
_cell_length_c   12.93241574
_cell_angle_alpha   78.22159727
_cell_angle_beta   90.00000000
_cell_angle_gamma   90.00000000
_symmetry_Int_Tables_number   1
_chemical_formula_structural   SmTiNbBi2O9
_chemical_formula_sum   'Sm2 Ti2 Nb2 Bi4 O18'
_cell_volume   378.04998510
_cell_formula_units_Z   2
loop_
 _symmetry_equiv_pos_site_id
 _symmetry_equiv_pos_as_xyz
  1  'x, y, z'
loop_
 _atom_site_type_symbol
 _atom_site_label
 _atom_site_symmetry_multiplicity
 _atom_site_fract_x
 _atom_site_fract_y
 _atom_site_fract_z
 _atom_site_occupancy
  Sm  Sm0  1  0.48225100  0.24254600  0.00005100  1
  Sm  Sm1  1  0.98225100  0.75745400  0.99994900  1
  Ti  Ti0  1  0.51815200  0.66449100  0.17167400  1
  Ti  Ti1  1  0.01815200  0.33550900  0.82832600  1
  Nb  Nb0  1  0.52278300  0.82423300  0.82922500  1
  Nb  Nb1  1  0.02278300  0.17576700  0.17077500  1
  Bi  Bi0  1  0.48467000  0.02178600  0.39736600  1
  Bi  Bi1  1  0.48286200  0.42702700  0.60122200  1
  Bi  Bi2  1  0.98467000  0.97821400  0.60263400  1
  Bi  Bi3  1  0.98286200  0.57297300  0.39877800  1
  O  O0  1  0.52832800  0.67054700  0.31032600  1
  O  O1  1  0.52924300  0.97719600  0.68420000  1
  O  O2  1  0.02832800  0.32945300  0.68967400  1
  O  O3  1  0.02924300  0.02280400  0.31580000  1
  O  O4  1  0.84200700  0.47656600  0.17299500  1
  O  O5  1  0.84795100  0.64157200  0.82730600  1
  O  O6  1  0.34200700  0.52343400  0.82700500  1
  O  O7  1  0.34795100  0.35842800  0.17269400  1
  O  O8  1  0.56008300  0.66590700  0.99883200  1
  O  O9  1  0.06008300  0.33409300  0.00116800  1
  O  O10  1  0.74717500  0.25628900  0.49816900  1
  O  O11  1  0.74555400  0.75300800  0.50185200  1
  O  O12  1  0.24717500  0.74371100  0.50183100  1
  O  O13  1  0.24555400  0.24699200  0.49814800  1
  O  O14  1  0.75382800  0.97816500  0.12271300  1
  O  O15  1  0.75591400  0.10069600  0.87756500  1
  O  O16  1  0.25382800  0.02183500  0.87728700  1
  O  O17  1  0.25591400  0.89930400  0.12243500  1
loop_
_geom_bond_atom_site_label_1
_geom_bond_atom_site_label_2
_geom_bond_distance
_geom_bond_site_symmetry_2
Nb0 O1 1.890548 1_555
Nb0 O6 1.919003 1_555
Nb0 O16 1.998538 1_565
Nb0 O5 2.045420 1_555
Nb0 O15 2.162019 1_565
Nb0 O8 2.196281 1_555
Nb1 O3 1.890548 1_555
Nb1 O4 1.919003 1_455
Nb1 O14 1.998538 1_445
Nb1 O7 2.045420 1_555
Nb1 O17 2.162019 1_545
Nb1 O9 2.196281 1_555
Bi0 O12 2.231310 1_545
Bi0 O11 2.282087 1_545
Bi0 O13 2.361014 1_555
Bi0 O0 2.419513 1_545
Bi0 O10 2.466195 1_555
Bi0 O3 2.712793 1_555
Bi1 O13 2.228426 1_555
Bi1 O10 2.291097 1_555
Bi1 O12 2.321622 1_555
Bi1 O11 2.438280 1_555
Bi1 O1 2.476539 1_545
Bi1 O2 2.750784 1_555
Bi2 O10 2.231310 1_565
Bi2 O13 2.282087 1_665
Bi2 O11 2.361014 1_555
Bi2 O2 2.419513 1_665
Bi2 O12 2.466195 1_655
Bi2 O1 2.712793 1_555
Bi3 O11 2.228426 1_555
Bi3 O12 2.291097 1_655
Bi3 O10 2.321622 1_555
Bi3 O13 2.438280 1_655
Bi3 O3 2.476539 1_665
Bi3 O0 2.750784 1_555
O0 Ti0 1.800986 1_555
O2 Ti1 1.800986 1_555
O4 Ti0 2.048971 1_555
O4 Sm1 2.557306 1_554
O5 Ti1 1.906962 1_655
O5 Sm1 2.549591 1_555
O6 Ti1 2.048971 1_555
O6 Sm0 2.557306 1_556
O7 Ti0 1.906962 1_555
O7 Sm0 2.549591 1_555
O8 Ti0 2.245531 1_556
O8 Sm0 2.339412 1_556
O8 Sm1 2.370809 1_555
O9 Ti1 2.245531 1_554
O9 Sm1 2.339412 1_454
O9 Sm0 2.370809 1_555
O14 Ti0 2.131978 1_555
O14 Sm0 2.423993 1_565
O14 Sm1 2.512496 1_554
O15 Ti1 1.943492 1_655
O15 Sm0 2.420764 1_556
O15 Sm1 2.515720 1_545
O16 Ti1 2.131978 1_555
O16 Sm1 2.423993 1_445
O16 Sm0 2.512496 1_556
O17 Ti0 1.943492 1_555
O17 Sm1 2.420764 1_454
O17 Sm0 2.515720 1_565
