# generated using pymatgen
data_NaEu(WO3)2
_symmetry_space_group_name_H-M   'P 1'
_cell_length_a   5.60455242
_cell_length_b   5.72447826
_cell_length_c   7.99414574
_cell_angle_alpha   90.00000000
_cell_angle_beta   90.00000000
_cell_angle_gamma   90.00000000
_symmetry_Int_Tables_number   1
_chemical_formula_structural   NaEu(WO3)2
_chemical_formula_sum   'Na2 Eu2 W4 O12'
_cell_volume   256.47728485
_cell_formula_units_Z   2
loop_
 _symmetry_equiv_pos_site_id
 _symmetry_equiv_pos_as_xyz
  1  'x, y, z'
loop_
 _atom_site_type_symbol
 _atom_site_label
 _atom_site_symmetry_multiplicity
 _atom_site_fract_x
 _atom_site_fract_y
 _atom_site_fract_z
 _atom_site_occupancy
  Na  Na0  1  0.48870960  0.79176777  -0.00000000  1
  Na  Na1  1  0.98870960  0.20823223  0.50000000  1
  Eu  Eu0  1  0.51224065  0.70533021  0.50000000  1
  Eu  Eu1  1  0.01224065  0.29466979  -0.00000000  1
  W  W0  1  -0.00064502  0.75391560  0.24977413  1
  W  W1  1  0.49935498  0.24608440  0.25022587  1
  W  W2  1  -0.00064502  0.75391560  0.75022587  1
  W  W3  1  0.49935498  0.24608440  0.74977413  1
  O  O0  1  0.41379894  0.26925815  0.50000000  1
  O  O1  1  0.91379894  0.73074185  -0.00000000  1
  O  O2  1  0.58879049  0.22937916  -0.00000000  1
  O  O3  1  0.08879049  0.77062084  0.50000000  1
  O  O4  1  0.20080911  0.03596935  0.20486508  1
  O  O5  1  0.70080911  0.96403065  0.29513492  1
  O  O6  1  0.79806607  0.46588950  0.70883435  1
  O  O7  1  0.29806607  0.53411050  0.79116565  1
  O  O8  1  0.79806607  0.46588950  0.29116565  1
  O  O9  1  0.29806607  0.53411050  0.20883435  1
  O  O10  1  0.20080911  0.03596935  0.79513492  1
  O  O11  1  0.70080911  0.96403065  0.70486508  1
loop_
_geom_bond_atom_site_label_1
_geom_bond_atom_site_label_2
_geom_bond_distance
_geom_bond_site_symmetry_2
Na0 O1 2.407912 1_555
Na0 O7 2.470666 1_554
Na0 O9 2.470666 1_555
Na0 O2 2.567125 1_565
Na0 O4 2.690703 1_565
Na0 O10 2.690703 1_564
Na0 O11 2.819933 1_554
Na0 O5 2.819933 1_555
Na1 O0 2.407912 1_655
Na1 O6 2.470666 1_555
Na1 O8 2.470666 1_555
Na1 O3 2.567125 1_645
Na1 O5 2.690703 1_545
Na1 O11 2.690703 1_545
Na1 O10 2.819933 1_655
Na1 O4 2.819933 1_655
Eu0 O3 2.402499 1_555
Eu0 O5 2.447894 1_555
Eu0 O11 2.447894 1_555
Eu0 O0 2.556528 1_555
Eu0 O8 2.689233 1_555
Eu0 O6 2.689233 1_555
Eu0 O9 2.796309 1_555
Eu0 O7 2.796309 1_555
Eu1 O2 2.402499 1_455
Eu1 O10 2.447894 1_554
Eu1 O4 2.447894 1_555
Eu1 O1 2.556528 1_455
Eu1 O7 2.689233 1_554
Eu1 O9 2.689233 1_555
Eu1 O6 2.796309 1_454
Eu1 O8 2.796309 1_455
O0 W1 2.057779 1_555
O0 W3 2.057779 1_555
O1 W0 2.057779 1_655
O1 W2 2.057779 1_654
O2 W3 2.064403 1_554
O2 W1 2.064403 1_555
O3 W2 2.064403 1_555
O3 W0 2.064403 1_555
O4 W0 2.002656 1_545
O4 W1 2.092336 1_555
O5 W1 2.002656 1_565
O5 W0 2.092336 1_655
O6 W2 2.025022 1_655
O6 W3 2.119694 1_555
O7 W3 2.025022 1_555
O7 W2 2.119694 1_555
O8 W0 2.025022 1_655
O8 W1 2.119694 1_555
O9 W1 2.025022 1_555
O9 W0 2.119694 1_555
O10 W2 2.002656 1_545
O10 W3 2.092336 1_555
O11 W3 2.002656 1_565
O11 W2 2.092336 1_655
