# generated using pymatgen
data_Ti3Zn2O8
_symmetry_space_group_name_H-M   'P 1'
_cell_length_a   5.96688029
_cell_length_b   5.96688029
_cell_length_c   9.55316500
_cell_angle_alpha   90.00000000
_cell_angle_beta   90.00000000
_cell_angle_gamma   120.00000325
_symmetry_Int_Tables_number   1
_chemical_formula_structural   Ti3Zn2O8
_chemical_formula_sum   'Ti6 Zn4 O16'
_cell_volume   294.55916949
_cell_formula_units_Z   2
loop_
 _symmetry_equiv_pos_site_id
 _symmetry_equiv_pos_as_xyz
  1  'x, y, z'
loop_
 _atom_site_type_symbol
 _atom_site_label
 _atom_site_symmetry_multiplicity
 _atom_site_fract_x
 _atom_site_fract_y
 _atom_site_fract_z
 _atom_site_occupancy
  Ti  Ti0  1  0.67462000  0.83731000  0.24345500  1
  Ti  Ti1  1  0.83731000  0.16269000  0.74345500  1
  Ti  Ti2  1  0.16269000  0.32538000  0.24345500  1
  Ti  Ti3  1  0.83731000  0.67462000  0.74345500  1
  Ti  Ti4  1  0.32538000  0.16269000  0.74345500  1
  Ti  Ti5  1  0.16269000  0.83731000  0.24345500  1
  Zn  Zn0  1  0.66666700  0.33333300  0.02875300  1
  Zn  Zn1  1  0.33333300  0.66666700  0.52875300  1
  Zn  Zn2  1  0.66666700  0.33333300  0.41770900  1
  Zn  Zn3  1  0.33333300  0.66666700  0.91770900  1
  O  O0  1  0.83705000  0.16295000  0.14573000  1
  O  O1  1  0.67409900  0.83705000  0.64573000  1
  O  O2  1  0.16295000  0.32590100  0.64573000  1
  O  O3  1  0.83705000  0.67409900  0.14573000  1
  O  O4  1  0.32590100  0.16295000  0.14573000  1
  O  O5  1  0.16295000  0.83705000  0.64573000  1
  O  O6  1  0.51806800  0.48193200  0.86559100  1
  O  O7  1  0.03613700  0.51806800  0.36559100  1
  O  O8  1  0.48193200  0.96386300  0.36559100  1
  O  O9  1  0.51806800  0.03613700  0.86559100  1
  O  O10  1  0.00000000  0.00000000  0.34984500  1
  O  O11  1  0.00000000  0.00000000  0.84984500  1
  O  O12  1  0.33333300  0.66666700  0.13286200  1
  O  O13  1  0.96386300  0.48193200  0.86559100  1
  O  O14  1  0.48193200  0.51806800  0.36559100  1
  O  O15  1  0.66666700  0.33333300  0.63286200  1
loop_
_geom_bond_atom_site_label_1
_geom_bond_atom_site_label_2
_geom_bond_distance
_geom_bond_site_symmetry_2
O0 Ti2 1.924365 1_655
O0 Ti0 1.924365 1_545
O0 Zn0 2.085562 1_555
O1 Ti1 1.924365 1_565
O1 Ti3 1.924369 1_555
O1 Zn1 2.085562 1_555
O2 Ti1 1.924365 1_455
O2 Ti4 1.924369 1_555
O2 Zn1 2.085562 1_555
O3 Ti5 1.924365 1_655
O3 Ti0 1.924369 1_555
O3 Zn0 2.085562 1_555
O4 Ti5 1.924365 1_545
O4 Ti2 1.924369 1_555
O4 Zn0 2.085562 1_555
O5 Ti4 1.924365 1_565
O5 Ti3 1.924365 1_455
O5 Zn1 2.085562 1_555
O6 Zn3 1.973078 1_555
O6 Ti4 2.030207 1_555
O6 Ti3 2.030207 1_555
O6 Zn0 2.188185 1_556
O7 Zn2 1.973078 1_455
O7 Ti2 2.030203 1_555
O7 Ti5 2.030208 1_555
O7 Zn1 2.188177 1_555
O8 Zn2 1.973078 1_565
O8 Ti0 2.030203 1_555
O8 Ti5 2.030208 1_555
O8 Zn1 2.188177 1_555
O9 Zn3 1.973078 1_545
O9 Ti4 2.030203 1_555
O9 Ti1 2.030208 1_555
O9 Zn0 2.188177 1_556
O10 Ti2 1.964705 1_555
O10 Ti0 1.964705 1_445
O10 Ti5 1.964705 1_545
O11 Ti3 1.964705 1_445
O11 Ti4 1.964705 1_555
O11 Ti1 1.964705 1_455
O12 Zn3 2.055392 1_554
O12 Ti5 2.055834 1_555
O12 Ti2 2.055838 1_555
O12 Ti0 2.055838 1_555
O13 Zn3 1.973078 1_655
O13 Ti3 2.030203 1_555
O13 Ti1 2.030208 1_555
O13 Zn0 2.188177 1_556
O14 Zn2 1.973078 1_555
O14 Ti2 2.030207 1_555
O14 Ti0 2.030207 1_555
O14 Zn1 2.188185 1_555
O15 Zn2 2.055392 1_555
O15 Ti1 2.055834 1_555
O15 Ti4 2.055838 1_555
O15 Ti3 2.055838 1_555
