# generated using pymatgen
data_NaAl(SO4)2
_symmetry_space_group_name_H-M   'P 1'
_cell_length_a   4.71083661
_cell_length_b   4.71083661
_cell_length_c   7.30876635
_cell_angle_alpha   87.46046514
_cell_angle_beta   87.46046514
_cell_angle_gamma   65.05649123
_symmetry_Int_Tables_number   1
_chemical_formula_structural   NaAl(SO4)2
_chemical_formula_sum   'Na1 Al1 S2 O8'
_cell_volume   146.86379226
_cell_formula_units_Z   1
loop_
 _symmetry_equiv_pos_site_id
 _symmetry_equiv_pos_as_xyz
  1  'x, y, z'
loop_
 _atom_site_type_symbol
 _atom_site_label
 _atom_site_symmetry_multiplicity
 _atom_site_fract_x
 _atom_site_fract_y
 _atom_site_fract_z
 _atom_site_occupancy
  Na  Na0  1  0.00000000  0.00000000  0.50000000  1
  Al  Al0  1  0.00000000  0.00000000  0.00000000  1
  S  S0  1  0.36267600  0.36267600  0.78870400  1
  S  S1  1  0.63732400  0.63732400  0.21129600  1
  O  O0  1  0.29884000  0.29884000  0.60681600  1
  O  O1  1  0.70116000  0.70116000  0.39318400  1
  O  O2  1  0.71123900  0.23078100  0.81208200  1
  O  O3  1  0.28876100  0.76921900  0.18791800  1
  O  O4  1  0.76921900  0.28876100  0.18791800  1
  O  O5  1  0.23078100  0.71123900  0.81208200  1
  O  O6  1  0.23023100  0.23023100  0.93965700  1
  O  O7  1  0.76976900  0.76976900  0.06034300  1
loop_
_geom_bond_atom_site_label_1
_geom_bond_atom_site_label_2
_geom_bond_distance
_geom_bond_site_symmetry_2
Na0 O0 2.537636 1_555
Na0 O1 2.537636 1_445
Na0 O3 2.632957 1_545
Na0 O2 2.632957 1_455
Na0 O5 2.632957 1_545
Na0 O4 2.632957 1_455
Al0 O7 1.858635 1_445
Al0 O6 1.858635 1_554
Al0 O4 1.924738 1_455
Al0 O3 1.924738 1_545
Al0 O2 1.924738 1_454
Al0 O5 1.924738 1_544
O0 S0 1.447494 1_555
O1 S1 1.447494 1_555
O2 S0 1.505464 1_555
O3 S1 1.505464 1_555
O4 S1 1.505464 1_555
O5 S0 1.505464 1_555
O6 S0 1.483959 1_555
O7 S1 1.483959 1_555
