# generated using pymatgen
data_TeSO5
_symmetry_space_group_name_H-M   'P 1'
_cell_length_a   8.41428900
_cell_length_b   8.62687223
_cell_length_c   12.07662285
_cell_angle_alpha   82.79262835
_cell_angle_beta   69.83374101
_cell_angle_gamma   82.08365604
_symmetry_Int_Tables_number   1
_chemical_formula_structural   TeSO5
_chemical_formula_sum   'Te8 S8 O40'
_cell_volume   812.17543712
_cell_formula_units_Z   8
loop_
 _symmetry_equiv_pos_site_id
 _symmetry_equiv_pos_as_xyz
  1  'x, y, z'
loop_
 _atom_site_type_symbol
 _atom_site_label
 _atom_site_symmetry_multiplicity
 _atom_site_fract_x
 _atom_site_fract_y
 _atom_site_fract_z
 _atom_site_occupancy
  Te  Te0  1  0.06002400  0.81435200  0.24069500  1
  Te  Te1  1  0.93997600  0.18564800  0.75930500  1
  Te  Te2  1  0.45350100  0.27866000  0.27102900  1
  Te  Te3  1  0.54649900  0.72134000  0.72897100  1
  Te  Te4  1  0.42072700  0.67781200  0.34167700  1
  Te  Te5  1  0.57927300  0.32218800  0.65832300  1
  Te  Te6  1  0.10557600  0.24241000  0.15454600  1
  Te  Te7  1  0.89442400  0.75759000  0.84545400  1
  S  S0  1  0.81228700  0.40076200  0.37939100  1
  S  S1  1  0.18771300  0.59923800  0.62060900  1
  S  S2  1  0.74410700  0.88907500  0.45931300  1
  S  S3  1  0.25589300  0.11092500  0.54068700  1
  S  S4  1  0.31618700  0.15312700  0.89687300  1
  S  S5  1  0.68381300  0.84687300  0.10312700  1
  S  S6  1  0.73045900  0.33213300  0.02105000  1
  S  S7  1  0.26954100  0.66786700  0.97895000  1
  O  O0  1  0.89624900  0.24705800  0.32744300  1
  O  O1  1  0.10375100  0.75294200  0.67255700  1
  O  O2  1  0.36502000  0.49872900  0.28468200  1
  O  O3  1  0.63498000  0.50127100  0.71531800  1
  O  O4  1  0.24959000  0.22425300  0.25297700  1
  O  O5  1  0.75041000  0.77574700  0.74702300  1
  O  O6  1  0.32905600  0.15869000  0.02116800  1
  O  O7  1  0.67094400  0.84131000  0.97883200  1
  O  O8  1  0.04938100  0.02989800  0.18504900  1
  O  O9  1  0.95061900  0.97010200  0.81495100  1
  O  O10  1  0.80386400  0.37917800  0.50806800  1
  O  O11  1  0.19613600  0.62082200  0.49193200  1
  O  O12  1  0.26609800  0.81663300  0.28016700  1
  O  O13  1  0.73390200  0.18336700  0.71983300  1
  O  O14  1  0.70086800  0.88313200  0.35250800  1
  O  O15  1  0.29913200  0.11686800  0.64749200  1
  O  O16  1  0.41892400  0.01630900  0.84370400  1
  O  O17  1  0.58107600  0.98369100  0.15629600  1
  O  O18  1  0.63365800  0.42466100  0.37747100  1
  O  O19  1  0.36634200  0.57533900  0.62252900  1
  O  O20  1  0.39463100  0.30431200  0.82810300  1
  O  O21  1  0.60536900  0.69568800  0.17189700  1
  O  O22  1  0.67638900  0.02563900  0.52552500  1
  O  O23  1  0.32361100  0.97436100  0.47447500  1
  O  O24  1  0.75278700  0.20184300  0.94244800  1
  O  O25  1  0.24721300  0.79815700  0.05755200  1
  O  O26  1  0.13500800  0.17285600  0.91123300  1
  O  O27  1  0.86499200  0.82714400  0.08876700  1
  O  O28  1  0.53631500  0.35518200  0.08790000  1
  O  O29  1  0.46368500  0.64481800  0.91210000  1
  O  O30  1  0.94273400  0.87318800  0.41768800  1
  O  O31  1  0.05726600  0.12681200  0.58231200  1
  O  O32  1  0.91412000  0.52741900  0.31648300  1
  O  O33  1  0.08588000  0.47258100  0.68351700  1
  O  O34  1  0.80787700  0.28257400  0.11388400  1
  O  O35  1  0.19212300  0.71742600  0.88611600  1
  O  O36  1  0.78649900  0.47495700  0.94848100  1
  O  O37  1  0.21350100  0.52504300  0.05151900  1
  O  O38  1  0.69376800  0.73886300  0.54045000  1
  O  O39  1  0.30623200  0.26113700  0.45955000  1
loop_
_geom_bond_atom_site_label_1
_geom_bond_atom_site_label_2
_geom_bond_distance
_geom_bond_site_symmetry_2
O0 S0 1.515264 1_555
O0 Te6 2.220254 1_655
O1 S1 1.515264 1_555
O1 Te7 2.220254 1_455
O2 Te4 1.941398 1_555
O2 Te2 1.946887 1_555
O3 Te5 1.941398 1_555
O3 Te3 1.946887 1_555
O4 Te2 1.927975 1_555
O4 Te6 1.949398 1_555
O5 Te3 1.927975 1_555
O5 Te7 1.949398 1_555
O6 S4 1.548806 1_554
O6 Te6 2.116973 1_555
O7 S5 1.548806 1_556
O7 Te7 2.116973 1_555
O8 Te0 1.897206 1_545
O8 Te6 1.915605 1_555
O9 Te1 1.897206 1_565
O9 Te7 1.915605 1_555
O10 S0 1.519754 1_555
O10 Te5 2.184800 1_555
O11 S1 1.519754 1_555
O11 Te4 2.184800 1_555
O12 Te4 1.921673 1_555
O12 Te0 1.953437 1_555
O13 Te5 1.921673 1_555
O13 Te1 1.953437 1_555
O14 S2 1.464237 1_555
O15 S3 1.464237 1_555
O16 S4 1.441914 1_555
O17 S5 1.441914 1_555
O18 S0 1.496540 1_555
O19 S1 1.496540 1_555
O20 S4 1.553660 1_555
O20 Te5 2.105193 1_555
O21 S5 1.553660 1_555
O21 Te4 2.105193 1_555
O22 S2 1.445458 1_545
O23 S3 1.445458 1_565
O24 S6 1.512059 1_556
O24 Te1 2.237668 1_555
O25 S7 1.512059 1_554
O25 Te0 2.237668 1_555
O26 S4 1.461769 1_555
O27 S5 1.461769 1_555
O28 S6 1.549641 1_555
O28 Te2 2.123736 1_555
O29 S7 1.549641 1_555
O29 Te3 2.123736 1_555
O30 S2 1.561941 1_555
O30 Te0 2.116648 1_655
O31 S3 1.561941 1_555
O31 Te1 2.116648 1_455
O32 S0 1.451214 1_555
O33 S1 1.451214 1_555
O34 S6 1.473298 1_555
O34 Te6 2.683691 1_655
O35 S7 1.473298 1_555
O35 Te7 2.683691 1_455
O36 S6 1.453509 1_556
O36 Te7 2.717976 1_555
O37 S7 1.453509 1_554
O37 Te6 2.717976 1_555
O38 S2 1.537923 1_555
O38 Te3 2.182149 1_555
O39 S3 1.537923 1_555
O39 Te2 2.182149 1_555
