# generated using pymatgen
data_Nd4Zn11
_symmetry_space_group_name_H-M   'P 1'
_cell_length_a   6.36538700
_cell_length_b   10.76466709
_cell_length_c   10.76466709
_cell_angle_alpha   84.98506178
_cell_angle_beta   72.80281770
_cell_angle_gamma   72.80281770
_symmetry_Int_Tables_number   1
_chemical_formula_structural   Nd4Zn11
_chemical_formula_sum   'Nd8 Zn22'
_cell_volume   673.13027253
_cell_formula_units_Z   2
loop_
 _symmetry_equiv_pos_site_id
 _symmetry_equiv_pos_as_xyz
  1  'x, y, z'
loop_
 _atom_site_type_symbol
 _atom_site_label
 _atom_site_symmetry_multiplicity
 _atom_site_fract_x
 _atom_site_fract_y
 _atom_site_fract_z
 _atom_site_occupancy
  Nd  Nd0  1  0.52653700  0.15258600  0.84741400  1
  Nd  Nd1  1  0.52653700  0.84741400  0.15258600  1
  Nd  Nd2  1  0.62395100  0.65258600  0.65258600  1
  Nd  Nd3  1  0.72346300  0.65258600  0.34741400  1
  Nd  Nd4  1  0.72346300  0.34741400  0.65258600  1
  Nd  Nd5  1  0.92912400  0.34741400  0.34741400  1
  Nd  Nd6  1  0.62604900  0.84741400  0.84741400  1
  Nd  Nd7  1  0.32087600  0.15258600  0.15258600  1
  Zn  Zn0  1  0.00000000  0.00000000  0.00000000  1
  Zn  Zn1  1  0.25000000  0.50000000  0.50000000  1
  Zn  Zn2  1  0.12500000  0.75000000  0.25000000  1
  Zn  Zn3  1  0.12500000  0.25000000  0.75000000  1
  Zn  Zn4  1  0.62500000  0.25000000  0.25000000  1
  Zn  Zn5  1  0.12500000  0.75000000  0.75000000  1
  Zn  Zn6  1  0.39087300  0.95138200  0.63988800  1
  Zn  Zn7  1  0.98214300  0.04861800  0.36011200  1
  Zn  Zn8  1  0.28076100  0.86011200  0.45138200  1
  Zn  Zn9  1  0.85912700  0.86011200  0.54861800  1
  Zn  Zn10  1  0.85912700  0.54861800  0.86011200  1
  Zn  Zn11  1  0.59225500  0.13988800  0.54861800  1
  Zn  Zn12  1  0.26785700  0.13988800  0.45138200  1
  Zn  Zn13  1  0.26785700  0.45138200  0.13988800  1
  Zn  Zn14  1  0.96923900  0.04861800  0.63988800  1
  Zn  Zn15  1  0.96923900  0.63988800  0.04861800  1
  Zn  Zn16  1  0.65774500  0.95138200  0.36011200  1
  Zn  Zn17  1  0.65774500  0.36011200  0.95138200  1
  Zn  Zn18  1  0.39087300  0.63988800  0.95138200  1
  Zn  Zn19  1  0.98214300  0.36011200  0.04861800  1
  Zn  Zn20  1  0.59225500  0.54861800  0.13988800  1
  Zn  Zn21  1  0.28076100  0.45138200  0.86011200  1
loop_
_geom_bond_atom_site_label_1
_geom_bond_atom_site_label_2
_geom_bond_distance
_geom_bond_site_symmetry_2
Nd0 Zn3 2.922297 1_555
Nd0 Zn17 3.005618 1_555
Nd0 Zn14 3.005618 1_555
Nd0 Nd4 3.098271 1_555
Nd0 Zn11 3.128352 1_555
Nd0 Zn21 3.128352 1_555
Nd0 Nd6 3.156341 1_545
Nd0 Nd7 3.156342 1_556
Nd0 Zn0 3.742595 1_656
Nd1 Zn2 2.922297 1_555
Nd1 Zn16 3.005618 1_555
Nd1 Zn15 3.005618 1_555
Nd1 Nd3 3.098271 1_555
Nd1 Zn20 3.128352 1_555
Nd1 Zn8 3.128352 1_555
Nd1 Nd6 3.156341 1_554
Nd1 Nd7 3.156342 1_565
Nd1 Zn0 3.742595 1_665
Nd2 Zn5 2.922297 1_555
Nd2 Zn10 3.005618 1_555
Nd2 Zn9 3.005618 1_555
Nd2 Nd6 3.098271 1_555
Nd2 Zn18 3.128352 1_555
Nd2 Zn6 3.128352 1_555
Nd2 Nd4 3.156341 1_555
Nd2 Nd3 3.156341 1_555
Nd2 Zn1 3.742595 1_655
Nd3 Zn2 2.922297 1_655
Nd3 Zn20 3.005618 1_555
Nd3 Zn8 3.005618 1_555
Nd3 Zn16 3.128352 1_555
Nd3 Zn15 3.128352 1_555
Nd3 Nd5 3.156342 1_555
Nd3 Zn1 3.742595 1_555
Nd4 Zn3 2.922297 1_655
Nd4 Zn11 3.005618 1_555
Nd4 Zn21 3.005618 1_555
Nd4 Zn17 3.128352 1_555
Nd4 Zn14 3.128352 1_555
Nd4 Nd5 3.156342 1_555
Nd4 Zn1 3.742595 1_555
Nd5 Zn4 2.922302 1_555
Nd5 Zn13 3.005614 1_655
Nd5 Zn12 3.005614 1_655
Nd5 Nd7 3.098266 1_655
Nd5 Zn7 3.128353 1_555
Nd5 Zn19 3.128353 1_555
Nd5 Zn1 3.742590 1_655
Nd6 Zn5 2.922297 1_655
Nd6 Zn18 3.005618 1_555
Nd6 Zn6 3.005618 1_555
Nd6 Zn10 3.128352 1_555
Nd6 Zn9 3.128352 1_555
Nd6 Zn0 3.742595 1_566
Nd7 Zn4 2.922302 1_555
Nd7 Zn7 3.005614 1_455
Nd7 Zn19 3.005614 1_455
Nd7 Zn12 3.128353 1_555
Nd7 Zn13 3.128353 1_555
Nd7 Zn0 3.742590 1_555
Zn2 Zn8 3.082618 1_555
Zn2 Zn20 3.082618 1_555
Zn4 Zn7 3.082618 1_555
Zn5 Zn6 3.082618 1_555
Zn5 Zn9 3.082618 1_455
Zn6 Zn8 2.677875 1_555
Zn6 Zn9 2.742286 1_555
Zn7 Zn8 2.677875 1_645
Zn7 Zn9 2.851070 1_545
Zn8 Zn9 2.576348 1_455
Zn10 Zn21 2.576348 1_655
Zn10 Zn15 2.677875 1_556
Zn10 Zn17 2.677875 1_555
Zn10 Zn18 2.742286 1_555
Zn10 Zn19 2.851070 1_556
Zn10 Zn20 2.988441 1_556
Zn10 Zn5 3.082618 1_655
Zn11 Zn12 2.576348 1_555
Zn11 Zn6 2.677875 1_545
Zn11 Zn7 2.677875 1_555
Zn11 Zn14 2.742286 1_555
Zn11 Zn16 2.851070 1_545
Zn11 Zn9 2.988441 1_545
Zn11 Zn3 3.082618 1_555
Zn12 Zn14 2.677875 1_455
Zn12 Zn16 2.677875 1_545
Zn12 Zn7 2.742286 1_455
Zn12 Zn6 2.851070 1_545
Zn12 Zn8 2.988441 1_545
Zn12 Zn4 3.082618 1_555
Zn13 Zn20 2.576348 1_555
Zn13 Zn15 2.677875 1_455
Zn13 Zn17 2.677875 1_554
Zn13 Zn19 2.742286 1_455
Zn13 Zn18 2.851070 1_554
Zn13 Zn21 2.988441 1_554
Zn13 Zn4 3.082618 1_555
Zn14 Zn6 2.576348 1_645
Zn14 Zn9 2.677875 1_545
Zn14 Zn8 2.851071 1_645
Zn14 Zn7 2.988441 1_555
Zn14 Zn3 3.082618 1_655
Zn15 Zn18 2.576348 1_654
Zn15 Zn20 2.742286 1_555
Zn15 Zn21 2.851071 1_654
Zn15 Zn19 2.988441 1_555
Zn15 Zn2 3.082618 1_655
Zn16 Zn7 2.576348 1_565
Zn16 Zn9 2.677875 1_555
Zn16 Zn8 2.742286 1_555
Zn16 Zn6 2.988441 1_555
Zn16 Zn2 3.082618 1_655
Zn17 Zn19 2.576348 1_556
Zn17 Zn21 2.742286 1_555
Zn17 Zn20 2.851070 1_556
Zn17 Zn18 2.988441 1_555
Zn17 Zn3 3.082618 1_655
Zn18 Zn21 2.677875 1_555
Zn18 Zn20 2.677875 1_556
Zn18 Zn5 3.082618 1_555
Zn19 Zn21 2.677875 1_654
Zn19 Zn20 2.677875 1_555
Zn19 Zn4 3.082618 1_555
Zn21 Zn3 3.082618 1_555
