# generated using pymatgen
data_Tb3NiGe2
_symmetry_space_group_name_H-M   'P 1'
_cell_length_a   4.18556500
_cell_length_b   11.27583800
_cell_length_c   11.41986100
_cell_angle_alpha   90.00000000
_cell_angle_beta   90.00000000
_cell_angle_gamma   90.00000000
_symmetry_Int_Tables_number   1
_chemical_formula_structural   Tb3NiGe2
_chemical_formula_sum   'Tb12 Ni4 Ge8'
_cell_volume   538.96893766
_cell_formula_units_Z   4
loop_
 _symmetry_equiv_pos_site_id
 _symmetry_equiv_pos_as_xyz
  1  'x, y, z'
loop_
 _atom_site_type_symbol
 _atom_site_label
 _atom_site_symmetry_multiplicity
 _atom_site_fract_x
 _atom_site_fract_y
 _atom_site_fract_z
 _atom_site_occupancy
  Tb  Tb0  1  0.25000000  0.05890400  0.88169000  1
  Tb  Tb1  1  0.25000000  0.44109600  0.38169000  1
  Tb  Tb2  1  0.75000000  0.94109600  0.11831000  1
  Tb  Tb3  1  0.75000000  0.55890400  0.61831000  1
  Tb  Tb4  1  0.25000000  0.12723300  0.55541400  1
  Tb  Tb5  1  0.25000000  0.37276700  0.05541400  1
  Tb  Tb6  1  0.75000000  0.87276700  0.44458600  1
  Tb  Tb7  1  0.75000000  0.62723300  0.94458600  1
  Tb  Tb8  1  0.25000000  0.80505800  0.71990400  1
  Tb  Tb9  1  0.25000000  0.69494200  0.21990400  1
  Tb  Tb10  1  0.75000000  0.19494200  0.28009600  1
  Tb  Tb11  1  0.75000000  0.30505800  0.78009600  1
  Ni  Ni0  1  0.25000000  0.37117300  0.62709300  1
  Ni  Ni1  1  0.25000000  0.12882700  0.12709300  1
  Ni  Ni2  1  0.75000000  0.62882700  0.37290700  1
  Ni  Ni3  1  0.75000000  0.87117300  0.87290700  1
  Ge  Ge0  1  0.25000000  0.81174000  0.98104100  1
  Ge  Ge1  1  0.25000000  0.68826000  0.48104100  1
  Ge  Ge2  1  0.75000000  0.18826000  0.01895900  1
  Ge  Ge3  1  0.75000000  0.31174000  0.51895900  1
  Ge  Ge4  1  0.25000000  0.50057900  0.80581100  1
  Ge  Ge5  1  0.25000000  0.99942100  0.30581100  1
  Ge  Ge6  1  0.75000000  0.49942100  0.19418900  1
  Ge  Ge7  1  0.75000000  0.00057900  0.69418900  1
loop_
_geom_bond_atom_site_label_1
_geom_bond_atom_site_label_2
_geom_bond_distance
_geom_bond_site_symmetry_2
Ni0 Tb11 2.826389 1_455
Ni0 Tb11 2.826389 1_555
Ni0 Tb4 2.869843 1_555
Ni0 Tb1 2.911265 1_555
Ni0 Tb3 2.978379 1_455
Ni0 Tb3 2.978379 1_555
Ni1 Tb10 2.826389 1_455
Ni1 Tb10 2.826389 1_555
Ni1 Tb5 2.869843 1_555
Ni1 Tb0 2.911265 1_554
Ni1 Tb2 2.978379 1_545
Ni1 Tb2 2.978379 1_445
Ni2 Tb9 2.826389 1_555
Ni2 Tb9 2.826389 1_655
Ni2 Tb6 2.869843 1_555
Ni2 Tb3 2.911265 1_555
Ni2 Tb1 2.978379 1_555
Ni2 Tb1 2.978379 1_655
Ni3 Tb8 2.826389 1_555
Ni3 Tb8 2.826389 1_655
Ni3 Tb7 2.869843 1_555
Ni3 Tb2 2.911265 1_556
Ni3 Tb0 2.978379 1_565
Ni3 Tb0 2.978379 1_665
Ge0 Ni3 2.520668 1_455
Ge0 Ni3 2.520668 1_555
Ge0 Tb7 2.980170 1_455
Ge0 Tb7 2.980170 1_555
Ge0 Tb8 2.983100 1_555
Ge0 Tb2 2.994093 1_456
Ge0 Tb2 2.994093 1_556
Ge0 Tb0 3.009074 1_565
Ge0 Tb9 3.029071 1_556
Ge1 Ni2 2.520668 1_455
Ge1 Ni2 2.520668 1_555
Ge1 Tb6 2.980170 1_455
Ge1 Tb6 2.980170 1_555
Ge1 Tb9 2.983100 1_555
Ge1 Tb3 2.994093 1_555
Ge1 Tb3 2.994093 1_455
Ge1 Tb1 3.009074 1_555
Ge1 Tb8 3.029071 1_555
Ge2 Ni1 2.520668 1_655
Ge2 Ni1 2.520668 1_555
Ge2 Tb5 2.980170 1_555
Ge2 Tb5 2.980170 1_655
Ge2 Tb10 2.983100 1_555
Ge2 Tb0 2.994093 1_554
Ge2 Tb0 2.994093 1_654
Ge2 Tb2 3.009074 1_545
Ge2 Tb11 3.029071 1_554
Ge3 Ni0 2.520668 1_655
Ge3 Ni0 2.520668 1_555
Ge3 Tb4 2.980170 1_655
Ge3 Tb4 2.980170 1_555
Ge3 Tb11 2.983100 1_555
Ge3 Tb1 2.994093 1_555
Ge3 Tb1 2.994093 1_655
Ge3 Tb3 3.009074 1_555
Ge3 Tb10 3.029071 1_555
Ge4 Ni0 2.508897 1_555
Ge4 Tb7 2.988454 1_455
Ge4 Tb7 2.988454 1_555
Ge4 Tb11 3.053934 1_555
Ge4 Tb11 3.053934 1_455
Ge4 Tb3 3.065477 1_455
Ge4 Tb3 3.065477 1_555
Ge4 Tb5 3.194054 1_556
Ge4 Tb8 3.570672 1_555
Ge5 Ni1 2.508897 1_565
Ge5 Tb6 2.988454 1_455
Ge5 Tb6 2.988454 1_555
Ge5 Tb10 3.053934 1_465
Ge5 Tb10 3.053934 1_565
Ge5 Tb2 3.065477 1_455
Ge5 Tb2 3.065477 1_555
Ge5 Tb4 3.194054 1_565
Ge5 Tb9 3.570672 1_555
Ge6 Ni2 2.508897 1_555
Ge6 Tb5 2.988454 1_555
Ge6 Tb5 2.988454 1_655
Ge6 Tb9 3.053934 1_555
Ge6 Tb9 3.053934 1_655
Ge6 Tb1 3.065477 1_555
Ge6 Tb1 3.065477 1_655
Ge6 Tb7 3.194054 1_554
Ge6 Tb10 3.570672 1_555
Ge7 Ni3 2.508897 1_545
Ge7 Tb4 2.988454 1_655
Ge7 Tb4 2.988454 1_555
Ge7 Tb8 3.053934 1_545
Ge7 Tb8 3.053934 1_645
Ge7 Tb0 3.065477 1_555
Ge7 Tb0 3.065477 1_655
Ge7 Tb6 3.194054 1_545
Ge7 Tb11 3.570672 1_555
