# generated using pymatgen
data_SrCe2(SF2)2
_symmetry_space_group_name_H-M   'P 1'
_cell_length_a   10.35041689
_cell_length_b   10.35041689
_cell_length_c   10.35041689
_cell_angle_alpha   157.65005765
_cell_angle_beta   157.65005765
_cell_angle_gamma   31.81472672
_symmetry_Int_Tables_number   1
_chemical_formula_structural   SrCe2(SF2)2
_chemical_formula_sum   'Sr1 Ce2 S2 F4'
_cell_volume   160.21733454
_cell_formula_units_Z   1
loop_
 _symmetry_equiv_pos_site_id
 _symmetry_equiv_pos_as_xyz
  1  'x, y, z'
loop_
 _atom_site_type_symbol
 _atom_site_label
 _atom_site_symmetry_multiplicity
 _atom_site_fract_x
 _atom_site_fract_y
 _atom_site_fract_z
 _atom_site_occupancy
  Sr  Sr0  1  0.50000000  0.50000000  0.00000000  1
  Ce  Ce0  1  0.84227600  0.84227600  0.00000000  1
  Ce  Ce1  1  0.15772400  0.15772400  0.00000000  1
  S  S0  1  0.30171000  0.30171000  0.00000000  1
  S  S1  1  0.69829000  0.69829000  0.00000000  1
  F  F0  1  0.92535200  0.42535200  0.50000000  1
  F  F1  1  0.42535200  0.92535200  0.50000000  1
  F  F2  1  0.07464800  0.57464800  0.50000000  1
  F  F3  1  0.57464800  0.07464800  0.50000000  1
loop_
_geom_bond_atom_site_label_1
_geom_bond_atom_site_label_2
_geom_bond_distance
_geom_bond_site_symmetry_2
Ce0 F1 2.599858 1_655
Ce0 F0 2.599858 1_565
Ce0 F0 2.599858 1_554
Ce0 F1 2.599858 1_554
Ce0 S1 2.866490 1_555
Ce0 S0 2.949584 1_554
Ce0 S0 2.949584 1_565
Ce0 S0 2.949584 1_655
Ce0 S0 2.949584 1_666
Ce1 F3 2.599858 1_454
Ce1 F2 2.599858 1_544
Ce1 F3 2.599858 1_555
Ce1 F2 2.599858 1_555
Ce1 S0 2.866490 1_555
Ce1 S1 2.949584 1_556
Ce1 S1 2.949584 1_444
Ce1 S1 2.949584 1_545
Ce1 S1 2.949584 1_455
F0 Sr0 2.496481 1_656
F0 Sr0 2.496481 1_555
F1 Sr0 2.496481 1_566
F1 Sr0 2.496481 1_555
F2 Sr0 2.496481 1_455
F2 Sr0 2.496481 1_556
F3 Sr0 2.496481 1_545
F3 Sr0 2.496481 1_556
