# generated using pymatgen
data_CeMg6Sb
_symmetry_space_group_name_H-M   'P 1'
_cell_length_a   6.68484678
_cell_length_b   6.68484678
_cell_length_c   5.07692200
_cell_angle_alpha   90.00000000
_cell_angle_beta   90.00000000
_cell_angle_gamma   118.99642270
_symmetry_Int_Tables_number   1
_chemical_formula_structural   CeMg6Sb
_chemical_formula_sum   'Ce1 Mg6 Sb1'
_cell_volume   198.43473433
_cell_formula_units_Z   1
loop_
 _symmetry_equiv_pos_site_id
 _symmetry_equiv_pos_as_xyz
  1  'x, y, z'
loop_
 _atom_site_type_symbol
 _atom_site_label
 _atom_site_symmetry_multiplicity
 _atom_site_fract_x
 _atom_site_fract_y
 _atom_site_fract_z
 _atom_site_occupancy
  Ce  Ce0  1  0.32778500  0.67221500  0.50000000  1
  Mg  Mg0  1  0.81920200  0.66382800  0.50000000  1
  Mg  Mg1  1  0.33617200  0.18079800  0.50000000  1
  Mg  Mg2  1  0.83847000  0.16153000  0.50000000  1
  Mg  Mg3  1  0.69414400  0.84508900  0.00000000  1
  Mg  Mg4  1  0.15491100  0.30585600  0.00000000  1
  Mg  Mg5  1  0.66812900  0.33187100  0.00000000  1
  Sb  Sb0  1  0.16118700  0.83881300  0.00000000  1
loop_
_geom_bond_atom_site_label_1
_geom_bond_atom_site_label_2
_geom_bond_distance
_geom_bond_site_symmetry_2
Ce0 Sb0 3.182268 1_556
Ce0 Sb0 3.182268 1_555
Ce0 Mg0 3.312589 1_555
Ce0 Mg1 3.312589 1_555
Ce0 Mg4 3.321629 1_556
Ce0 Mg4 3.321629 1_555
Ce0 Mg3 3.321629 1_555
Ce0 Mg3 3.321629 1_556
Ce0 Mg1 3.372978 1_565
Ce0 Mg0 3.372978 1_455
Ce0 Mg2 3.395228 1_455
Ce0 Mg2 3.395228 1_565
Mg0 Mg3 3.097254 1_555
Mg0 Mg3 3.097254 1_556
Mg0 Mg5 3.196136 1_555
Mg0 Mg5 3.196136 1_556
Mg0 Sb0 3.231993 1_656
Mg0 Sb0 3.231993 1_655
Mg0 Mg2 3.266567 1_565
Mg0 Mg2 3.422078 1_555
Mg1 Mg4 3.097254 1_556
Mg1 Mg4 3.097254 1_555
Mg1 Mg5 3.196136 1_555
Mg1 Mg5 3.196136 1_556
Mg1 Sb0 3.231993 1_546
Mg1 Sb0 3.231993 1_545
Mg1 Mg2 3.266567 1_455
Mg1 Mg2 3.422078 1_555
Mg2 Mg4 3.141767 1_656
Mg2 Mg3 3.141767 1_545
Mg2 Mg4 3.141767 1_655
Mg2 Mg3 3.141767 1_546
Mg2 Mg5 3.208455 1_556
Mg2 Mg5 3.208455 1_555
Mg3 Mg4 3.126761 1_665
Mg3 Sb0 3.142663 1_655
Mg3 Mg5 3.341828 1_565
Mg3 Mg5 3.349937 1_555
Mg3 Sb0 3.542588 1_555
Mg4 Sb0 3.142663 1_545
Mg4 Mg5 3.341828 1_455
Mg4 Mg5 3.349937 1_555
Mg4 Sb0 3.542588 1_555
Mg5 Sb0 3.393938 1_545
Mg5 Sb0 3.393938 1_655
