# generated using pymatgen
data_Li2MnCoO4
_symmetry_space_group_name_H-M   'P 1'
_cell_length_a   3.05406862
_cell_length_b   3.01632714
_cell_length_c   19.69828174
_cell_angle_alpha   98.30429296
_cell_angle_beta   82.27139864
_cell_angle_gamma   123.64486161
_symmetry_Int_Tables_number   1
_chemical_formula_structural   Li2MnCoO4
_chemical_formula_sum   'Li4 Mn2 Co2 O8'
_cell_volume   149.15389054
_cell_formula_units_Z   2
loop_
 _symmetry_equiv_pos_site_id
 _symmetry_equiv_pos_as_xyz
  1  'x, y, z'
loop_
 _atom_site_type_symbol
 _atom_site_label
 _atom_site_symmetry_multiplicity
 _atom_site_fract_x
 _atom_site_fract_y
 _atom_site_fract_z
 _atom_site_occupancy
  Li  Li0  1  0.12479700  0.87433700  0.62453600  1
  Li  Li1  1  0.61914600  0.36744800  0.12694900  1
  Li  Li2  1  0.87346500  0.12872600  0.37158300  1
  Li  Li3  1  0.38325400  0.62854100  0.87712800  1
  Mn  Mn0  1  0.49984800  0.50070500  0.49840900  1
  Mn  Mn1  1  0.75313000  0.25036800  0.75062800  1
  Co  Co0  1  0.99891400  0.00036900  0.00169100  1
  Co  Co1  1  0.24811200  0.74892900  0.24914300  1
  O  O0  1  0.84145700  0.16890600  0.55735800  1
  O  O1  1  0.41095100  0.58060600  0.69189800  1
  O  O2  1  0.09450400  0.91952300  0.80944300  1
  O  O3  1  0.15963700  0.83086800  0.43971500  1
  O  O4  1  0.28521400  0.67111400  0.05865800  1
  O  O5  1  0.91017700  0.07766600  0.19391000  1
  O  O6  1  0.58523500  0.42001600  0.30432700  1
  O  O7  1  0.71215900  0.33187900  0.94462200  1
loop_
_geom_bond_atom_site_label_1
_geom_bond_atom_site_label_2
_geom_bond_distance
_geom_bond_site_symmetry_2
Li0 O0 2.117034 1_455
Li0 O1 2.120177 1_565
Li0 O1 2.172520 1_455
Li0 O0 2.176420 1_565
Li0 O0 2.188371 1_465
Li0 O1 2.195204 1_555
Li1 O4 2.083721 1_655
Li1 O4 2.107248 1_545
Li1 O5 2.123266 1_565
Li1 O5 2.158660 1_455
Li1 O5 2.191591 1_555
Li1 O4 2.334245 1_555
Li2 O3 2.119870 1_655
Li2 O6 2.123734 1_545
Li2 O6 2.167441 1_655
Li2 O3 2.179934 1_545
Li2 O6 2.192937 1_555
Li2 O3 2.214975 1_645
Li3 O7 2.085083 1_455
Li3 O7 2.111978 1_565
Li3 O2 2.128804 1_545
Li3 O2 2.170927 1_655
Li3 O2 2.199454 1_555
Li3 O7 2.297000 1_555
Mn0 O0 1.954190 1_565
Mn0 O3 1.954645 1_545
Mn0 O0 1.967480 1_455
Mn0 O3 1.967548 1_655
Mn0 O3 2.282624 1_555
Mn0 O0 2.292817 1_555
Mn1 O2 1.954670 1_655
Mn1 O1 1.955103 1_545
Mn1 O1 1.963936 1_655
Mn1 O2 1.966490 1_545
Mn1 O1 2.287845 1_555
Mn1 O2 2.288412 1_645
Co0 O7 1.936435 1_544
Co0 O4 1.940335 1_655
Co0 O7 2.064241 1_654
Co0 O4 2.064446 1_545
Co0 O4 2.134985 1_645
Co0 O7 2.142538 1_554
Co1 O6 1.922286 1_565
Co1 O5 1.923184 1_455
Co1 O5 1.937441 1_565
Co1 O6 1.938670 1_455
Co1 O6 2.229442 1_555
Co1 O5 2.231545 1_465
