# generated using pymatgen
data_BaAlB4H3O10
_symmetry_space_group_name_H-M   'P 1'
_cell_length_a   7.16908770
_cell_length_b   7.16908770
_cell_length_c   19.11851338
_cell_angle_alpha   74.54178655
_cell_angle_beta   74.54178655
_cell_angle_gamma   59.69170995
_symmetry_Int_Tables_number   1
_chemical_formula_structural   BaAlB4H3O10
_chemical_formula_sum   'Ba4 Al4 B16 H12 O40'
_cell_volume   807.26535503
_cell_formula_units_Z   4
loop_
 _symmetry_equiv_pos_site_id
 _symmetry_equiv_pos_as_xyz
  1  'x, y, z'
loop_
 _atom_site_type_symbol
 _atom_site_label
 _atom_site_symmetry_multiplicity
 _atom_site_fract_x
 _atom_site_fract_y
 _atom_site_fract_z
 _atom_site_occupancy
  Ba  Ba0  1  0.98105498  0.61350808  0.60155069  1
  Ba  Ba1  1  0.38649192  0.01894502  0.89844931  1
  Ba  Ba2  1  0.01894502  0.38649192  0.39844931  1
  Ba  Ba3  1  0.61350808  0.98105498  0.10155069  1
  Al  Al0  1  0.33619248  0.96101763  0.55698939  1
  Al  Al1  1  0.03898237  0.66380752  0.94301061  1
  Al  Al2  1  0.66380752  0.03898237  0.44301061  1
  Al  Al3  1  0.96101763  0.33619248  0.05698939  1
  B  B0  1  0.59456948  0.10133015  0.60252179  1
  B  B1  1  0.89866985  0.40543052  0.89747821  1
  B  B2  1  0.40543052  0.89866985  0.39747821  1
  B  B3  1  0.10133015  0.59456948  0.10252179  1
  B  B4  1  0.87324303  0.23391102  0.57142096  1
  B  B5  1  0.76608898  0.12675697  0.92857904  1
  B  B6  1  0.12675697  0.76608898  0.42857904  1
  B  B7  1  0.23391102  0.87324303  0.07142096  1
  B  B8  1  0.48944977  0.50025140  0.57767148  1
  B  B9  1  0.49974860  0.51055023  0.92232852  1
  B  B10  1  0.51055023  0.49974860  0.42232852  1
  B  B11  1  0.50025140  0.48944977  0.07767148  1
  B  B12  1  0.39924691  0.92978783  0.70475762  1
  B  B13  1  0.07021217  0.60075309  0.79524238  1
  B  B14  1  0.60075309  0.07021217  0.29524238  1
  B  B15  1  0.92978783  0.39924691  0.20475762  1
  H  H0  1  0.24563581  0.82798786  0.79999847  1
  H  H1  1  0.17201214  0.75436419  0.70000153  1
  H  H2  1  0.75436419  0.17201214  0.20000153  1
  H  H3  1  0.82798786  0.24563581  0.29999847  1
  H  H4  1  0.02154952  0.17549915  0.70711871  1
  H  H5  1  0.82450085  0.97845048  0.79288129  1
  H  H6  1  0.97845048  0.82450085  0.29288129  1
  H  H7  1  0.17549915  0.02154952  0.20711871  1
  H  H8  1  0.96743174  0.34073479  0.75947876  1
  H  H9  1  0.65926521  0.03256826  0.74052124  1
  H  H10  1  0.03256826  0.65926521  0.24052124  1
  H  H11  1  0.34073479  0.96743174  0.25947876  1
  O  O0  1  0.43449907  0.33413120  0.59854503  1
  O  O1  1  0.66586880  0.56550093  0.90145497  1
  O  O2  1  0.56550093  0.66586880  0.40145497  1
  O  O3  1  0.33413120  0.43449907  0.09854503  1
  O  O4  1  0.33550748  0.70824384  0.56174423  1
  O  O5  1  0.29175616  0.66449252  0.93825577  1
  O  O6  1  0.66449252  0.29175616  0.43825577  1
  O  O7  1  0.70824384  0.33550748  0.06174423  1
  O  O8  1  0.70879173  0.45170801  0.56998566  1
  O  O9  1  0.54829199  0.29120827  0.93001434  1
  O  O10  1  0.29120827  0.54829199  0.43001434  1
  O  O11  1  0.45170801  0.70879173  0.06998566  1
  O  O12  1  0.07990634  0.20642514  0.54962848  1
  O  O13  1  0.79357486  0.92009366  0.95037152  1
  O  O14  1  0.92009366  0.79357486  0.45037152  1
  O  O15  1  0.20642514  0.07990634  0.04962848  1
  O  O16  1  0.82160013  0.06777194  0.58859045  1
  O  O17  1  0.93222806  0.17839987  0.91140955  1
  O  O18  1  0.17839987  0.93222806  0.41140955  1
  O  O19  1  0.06777194  0.82160013  0.08859045  1
  O  O20  1  0.56955940  0.98048831  0.67734876  1
  O  O21  1  0.01951169  0.43044060  0.82265124  1
  O  O22  1  0.43044060  0.01951169  0.32265124  1
  O  O23  1  0.98048831  0.56955940  0.17734876  1
  O  O24  1  0.57137781  0.00366814  0.54913176  1
  O  O25  1  0.99633186  0.42862219  0.95086824  1
  O  O26  1  0.42862219  0.99633186  0.45086824  1
  O  O27  1  0.00366814  0.57137781  0.04913176  1
  O  O28  1  0.28315666  0.92563808  0.66035493  1
  O  O29  1  0.07436192  0.71684334  0.83964507  1
  O  O30  1  0.71684334  0.07436192  0.33964507  1
  O  O31  1  0.92563808  0.28315666  0.16035493  1
  O  O32  1  0.35212049  0.88681022  0.78045781  1
  O  O33  1  0.11318978  0.64787951  0.71954219  1
  O  O34  1  0.64787951  0.11318978  0.21954219  1
  O  O35  1  0.88681022  0.35212049  0.28045781  1
  O  O36  1  0.93174836  0.32623322  0.71540060  1
  O  O37  1  0.67376678  0.06825164  0.78459940  1
  O  O38  1  0.06825164  0.67376678  0.28459940  1
  O  O39  1  0.32623322  0.93174836  0.21540060  1
loop_
_geom_bond_atom_site_label_1
_geom_bond_atom_site_label_2
_geom_bond_distance
_geom_bond_site_symmetry_2
Ba0 O36 2.653155 1_555
Ba0 O33 2.778099 1_655
Ba0 O4 2.816579 1_655
Ba0 O16 2.817332 1_565
Ba0 O0 2.823591 1_655
Ba0 O14 2.885547 1_555
Ba0 O8 2.967449 1_555
Ba0 O12 3.014404 1_655
Ba0 O24 3.039297 1_565
Ba0 O20 3.105550 1_555
Ba1 O37 2.653155 1_555
Ba1 O32 2.778099 1_545
Ba1 O5 2.816579 1_545
Ba1 O17 2.817332 1_455
Ba1 O1 2.823591 1_545
Ba1 O15 2.885547 1_556
Ba1 O9 2.967449 1_555
Ba1 O13 3.014404 1_545
Ba1 O25 3.039297 1_455
Ba1 O21 3.105550 1_555
Ba2 O38 2.653155 1_555
Ba2 O35 2.778099 1_455
Ba2 O6 2.816579 1_455
Ba2 O18 2.817332 1_545
Ba2 O2 2.823591 1_455
Ba2 O12 2.885547 1_555
Ba2 O10 2.967449 1_555
Ba2 O14 3.014404 1_455
Ba2 O26 3.039297 1_545
Ba2 O22 3.105550 1_555
Ba3 O39 2.653155 1_555
Ba3 O34 2.778099 1_565
Ba3 O7 2.816579 1_565
Ba3 O19 2.817332 1_655
Ba3 O3 2.823591 1_565
Ba3 O13 2.885547 1_554
Ba3 O11 2.967449 1_555
Ba3 O15 3.014404 1_565
Ba3 O27 3.039297 1_655
Ba3 O23 3.105550 1_555
Al0 O4 1.792521 1_555
Al0 O12 1.798381 1_565
Al0 O24 1.822005 1_565
Al0 O28 1.882510 1_555
Al0 O26 1.948942 1_555
Al1 O5 1.792521 1_555
Al1 O13 1.798381 1_455
Al1 O25 1.822005 1_455
Al1 O29 1.882510 1_555
Al1 O27 1.948942 1_556
Al2 O6 1.792521 1_555
Al2 O14 1.798381 1_545
Al2 O26 1.822005 1_545
Al2 O30 1.882510 1_555
Al2 O24 1.948942 1_555
Al3 O7 1.792521 1_555
Al3 O15 1.798381 1_655
Al3 O27 1.822005 1_655
Al3 O31 1.882510 1_555
Al3 O25 1.948942 1_554
B0 O24 1.465839 1_555
B0 O0 1.467631 1_555
B0 O16 1.478433 1_555
B0 O20 1.479396 1_545
B1 O25 1.465839 1_555
B1 O1 1.467631 1_555
B1 O17 1.478433 1_555
B1 O21 1.479396 1_655
B2 O26 1.465839 1_555
B2 O2 1.467631 1_555
B2 O18 1.478433 1_555
B2 O22 1.479396 1_565
B3 O27 1.465839 1_555
B3 O3 1.467631 1_555
B3 O19 1.478433 1_555
B3 O23 1.479396 1_455
B4 O12 1.351874 1_655
B4 O16 1.354745 1_555
B4 O8 1.401832 1_555
B5 O13 1.351874 1_545
B5 O17 1.354745 1_555
B5 O9 1.401832 1_555
B6 O14 1.351874 1_455
B6 O18 1.354745 1_555
B6 O10 1.401832 1_555
B7 O15 1.351874 1_565
B7 O19 1.354745 1_555
B7 O11 1.401832 1_555
B8 O4 1.345472 1_555
B8 O0 1.367164 1_555
B8 O8 1.402553 1_555
B9 O5 1.345472 1_555
B9 O1 1.367164 1_555
B9 O9 1.402553 1_555
B10 O6 1.345472 1_555
B10 O2 1.367164 1_555
B10 O10 1.402553 1_555
B11 O7 1.345472 1_555
B11 O3 1.367164 1_555
B11 O11 1.402553 1_555
B12 O28 1.352507 1_555
B12 O20 1.379435 1_555
B12 O32 1.382167 1_555
B13 O29 1.352507 1_555
B13 O21 1.379435 1_555
B13 O33 1.382167 1_555
B14 O30 1.352507 1_555
B14 O22 1.379435 1_555
B14 O34 1.382167 1_555
B15 O31 1.352507 1_555
B15 O23 1.379435 1_555
B15 O35 1.382167 1_555
H0 O32 0.994529 1_555
H0 O29 1.698974 1_555
H1 O33 0.994529 1_555
H1 O28 1.698974 1_555
H2 O34 0.994529 1_555
H2 O31 1.698974 1_555
H3 O35 0.994529 1_555
H3 O30 1.698974 1_555
H4 O36 0.970562 1_455
H5 O37 0.970562 1_565
H6 O38 0.970562 1_655
H7 O39 0.970562 1_545
H8 O36 0.987357 1_555
H9 O37 0.987357 1_555
H10 O38 0.987357 1_555
H11 O39 0.987357 1_555
