# generated using pymatgen
data_UV5P3
_symmetry_space_group_name_H-M   'P 1'
_cell_length_a   3.35142529
_cell_length_b   7.46889326
_cell_length_c   10.25407885
_cell_angle_alpha   79.67098985
_cell_angle_beta   90.00000000
_cell_angle_gamma   90.00000000
_symmetry_Int_Tables_number   1
_chemical_formula_structural   UV5P3
_chemical_formula_sum   'U2 V10 P6'
_cell_volume   252.51476954
_cell_formula_units_Z   2
loop_
 _symmetry_equiv_pos_site_id
 _symmetry_equiv_pos_as_xyz
  1  'x, y, z'
loop_
 _atom_site_type_symbol
 _atom_site_label
 _atom_site_symmetry_multiplicity
 _atom_site_fract_x
 _atom_site_fract_y
 _atom_site_fract_z
 _atom_site_occupancy
  U  U0  1  0.25000000  0.80741770  0.77953097  1
  U  U1  1  0.75000000  0.19258230  0.22046903  1
  V  V0  1  0.25000000  0.52910436  0.09130445  1
  V  V1  1  0.75000000  0.47089564  0.90869555  1
  V  V2  1  0.25000000  0.92568125  0.09398968  1
  V  V3  1  0.75000000  0.07431875  0.90601032  1
  V  V4  1  0.25000000  0.62266565  0.49959520  1
  V  V5  1  0.75000000  0.37733435  0.50040480  1
  V  V6  1  0.25000000  0.12975048  0.48917273  1
  V  V7  1  0.75000000  0.87024952  0.51082727  1
  V  V8  1  0.25000000  0.31561844  0.73241314  1
  V  V9  1  0.75000000  0.68438156  0.26758686  1
  P  P0  1  0.25000000  0.25201901  0.98800870  1
  P  P1  1  0.75000000  0.74798099  0.01199130  1
  P  P2  1  0.25000000  0.43223316  0.32817156  1
  P  P3  1  0.75000000  0.56776684  0.67182844  1
  P  P4  1  0.25000000  0.90228359  0.33549110  1
  P  P5  1  0.75000000  0.09771641  0.66450890  1
loop_
_geom_bond_atom_site_label_1
_geom_bond_atom_site_label_2
_geom_bond_distance
_geom_bond_site_symmetry_2
P0 V1 2.380154 1_455
P0 V1 2.380154 1_555
P0 V3 2.382581 1_455
P0 V3 2.382581 1_555
P0 V2 2.484345 1_546
P0 V0 2.488151 1_556
P0 V8 2.578429 1_555
P0 U1 2.882271 1_456
P0 U1 2.882271 1_556
P1 V0 2.380154 1_655
P1 V0 2.380154 1_555
P1 V2 2.382581 1_555
P1 V2 2.382581 1_655
P1 V3 2.484345 1_564
P1 V1 2.488151 1_554
P1 V9 2.578429 1_555
P1 U0 2.882271 1_654
P1 U0 2.882271 1_554
P2 V0 2.406789 1_555
P2 V5 2.415687 1_555
P2 V5 2.415687 1_455
P2 V4 2.451403 1_555
P2 V9 2.514181 1_555
P2 V9 2.514181 1_455
P2 V6 2.547953 1_555
P2 U1 2.817872 1_455
P2 U1 2.817872 1_555
P3 V1 2.406789 1_555
P3 V4 2.415687 1_555
P3 V4 2.415687 1_655
P3 V5 2.451403 1_555
P3 V8 2.514181 1_655
P3 V8 2.514181 1_555
P3 V7 2.547953 1_555
P3 U0 2.817872 1_555
P3 U0 2.817872 1_655
P4 V4 2.435763 1_555
P4 V7 2.437926 1_555
P4 V7 2.437926 1_455
P4 V2 2.451078 1_555
P4 V6 2.515903 1_565
P4 V9 2.519509 1_555
P4 V9 2.519509 1_455
P4 U1 2.825455 1_565
P4 U1 2.825455 1_465
P5 V5 2.435763 1_555
P5 V6 2.437926 1_655
P5 V6 2.437926 1_555
P5 V3 2.451078 1_555
P5 V7 2.515903 1_545
P5 V8 2.519509 1_555
P5 V8 2.519509 1_655
P5 U0 2.825455 1_645
P5 U0 2.825455 1_545
