# generated using pymatgen
data_Ba3FeS4Br
_symmetry_space_group_name_H-M   'P 1'
_cell_length_a   8.61422100
_cell_length_b   9.63807700
_cell_length_c   12.53323800
_cell_angle_alpha   90.00000000
_cell_angle_beta   90.00000000
_cell_angle_gamma   90.00000000
_symmetry_Int_Tables_number   1
_chemical_formula_structural   Ba3FeS4Br
_chemical_formula_sum   'Ba12 Fe4 S16 Br4'
_cell_volume   1040.56613533
_cell_formula_units_Z   4
loop_
 _symmetry_equiv_pos_site_id
 _symmetry_equiv_pos_as_xyz
  1  'x, y, z'
loop_
 _atom_site_type_symbol
 _atom_site_label
 _atom_site_symmetry_multiplicity
 _atom_site_fract_x
 _atom_site_fract_y
 _atom_site_fract_z
 _atom_site_occupancy
  Ba  Ba0  1  0.91939700  0.75000000  0.47505900  1
  Ba  Ba1  1  0.58060300  0.75000000  0.97505900  1
  Ba  Ba2  1  0.08060300  0.25000000  0.52494100  1
  Ba  Ba3  1  0.41939700  0.25000000  0.02494100  1
  Ba  Ba4  1  0.58765300  0.47851800  0.66322200  1
  Ba  Ba5  1  0.91234700  0.02148200  0.16322200  1
  Ba  Ba6  1  0.41234700  0.97851800  0.33677800  1
  Ba  Ba7  1  0.08765300  0.52148200  0.83677800  1
  Ba  Ba8  1  0.41234700  0.52148200  0.33677800  1
  Ba  Ba9  1  0.08765300  0.97851800  0.83677800  1
  Ba  Ba10  1  0.58765300  0.02148200  0.66322200  1
  Ba  Ba11  1  0.91234700  0.47851800  0.16322200  1
  Fe  Fe0  1  0.31258000  0.75000000  0.60587000  1
  Fe  Fe1  1  0.18742000  0.75000000  0.10587000  1
  Fe  Fe2  1  0.68742000  0.25000000  0.39413000  1
  Fe  Fe3  1  0.81258000  0.25000000  0.89413000  1
  S  S0  1  0.81078700  0.44905100  0.42797300  1
  S  S1  1  0.68921300  0.05094900  0.92797300  1
  S  S2  1  0.18921300  0.94905100  0.57202700  1
  S  S3  1  0.31078700  0.55094900  0.07202700  1
  S  S4  1  0.18921300  0.55094900  0.57202700  1
  S  S5  1  0.31078700  0.94905100  0.07202700  1
  S  S6  1  0.81078700  0.05094900  0.42797300  1
  S  S7  1  0.68921300  0.44905100  0.92797300  1
  S  S8  1  0.13835900  0.75000000  0.28250500  1
  S  S9  1  0.36164100  0.75000000  0.78250500  1
  S  S10  1  0.86164100  0.25000000  0.71749500  1
  S  S11  1  0.63835900  0.25000000  0.21749500  1
  S  S12  1  0.53464300  0.75000000  0.50852500  1
  S  S13  1  0.96535700  0.75000000  0.00852500  1
  S  S14  1  0.46535700  0.25000000  0.49147500  1
  S  S15  1  0.03464300  0.25000000  0.99147500  1
  Br  Br0  1  0.67116900  0.75000000  0.23240800  1
  Br  Br1  1  0.82883100  0.75000000  0.73240800  1
  Br  Br2  1  0.32883100  0.25000000  0.76759200  1
  Br  Br3  1  0.17116900  0.25000000  0.26759200  1
loop_
_geom_bond_atom_site_label_1
_geom_bond_atom_site_label_2
_geom_bond_distance
_geom_bond_site_symmetry_2
Ba0 S8 3.062979 1_655
Ba0 S6 3.104336 1_565
Ba0 S0 3.104336 1_555
Ba0 S4 3.249568 1_655
Ba0 S2 3.249568 1_655
Ba0 Br1 3.318426 1_555
Ba0 S12 3.340791 1_555
Ba0 Br0 3.717688 1_555
Ba1 S9 3.062979 1_555
Ba1 S1 3.104336 1_565
Ba1 S7 3.104336 1_555
Ba1 S5 3.249568 1_556
Ba1 S3 3.249568 1_556
Ba1 Br0 3.318426 1_556
Ba1 S13 3.340791 1_556
Ba1 Br1 3.717688 1_555
Ba2 S10 3.062979 1_455
Ba2 S4 3.104336 1_555
Ba2 S2 3.104336 1_545
Ba2 S0 3.249568 1_455
Ba2 S6 3.249568 1_455
Ba2 Br3 3.318426 1_555
Ba2 S14 3.340791 1_555
Ba2 Br2 3.717688 1_555
Ba3 S11 3.062979 1_555
Ba3 S3 3.104336 1_555
Ba3 S5 3.104336 1_545
Ba3 S7 3.249568 1_554
Ba3 S1 3.249568 1_554
Ba3 Br2 3.318426 1_554
Ba3 S15 3.340791 1_554
Ba3 Br3 3.717688 1_555
Ba4 S14 3.254870 1_555
Ba4 S12 3.288478 1_555
Ba4 S10 3.299106 1_555
Ba4 Br2 3.396012 1_555
Ba4 S7 3.443313 1_555
Ba4 Br1 3.451749 1_555
Ba4 S0 3.531073 1_555
Ba4 S9 3.587747 1_555
Ba4 S4 3.684299 1_555
Ba5 S15 3.254870 1_654
Ba5 S13 3.288478 1_545
Ba5 S11 3.299106 1_555
Ba5 Br3 3.396012 1_655
Ba5 S6 3.443313 1_555
Ba5 Br0 3.451749 1_545
Ba5 S1 3.531073 1_554
Ba5 S8 3.587747 1_645
Ba5 S5 3.684299 1_645
Ba6 S12 3.254870 1_555
Ba6 S14 3.288478 1_565
Ba6 S8 3.299106 1_555
Ba6 Br0 3.396012 1_555
Ba6 S5 3.443313 1_555
Ba6 Br3 3.451749 1_565
Ba6 S2 3.531073 1_555
Ba6 S11 3.587747 1_565
Ba6 S6 3.684299 1_565
Ba7 S13 3.254870 1_456
Ba7 S15 3.288478 1_555
Ba7 S9 3.299106 1_555
Ba7 Br1 3.396012 1_455
Ba7 S4 3.443313 1_555
Ba7 Br2 3.451749 1_555
Ba7 S3 3.531073 1_556
Ba7 S10 3.587747 1_455
Ba7 S7 3.684299 1_455
Ba8 S12 3.254870 1_555
Ba8 S14 3.288478 1_555
Ba8 S8 3.299106 1_555
Ba8 Br0 3.396012 1_555
Ba8 S3 3.443313 1_555
Ba8 Br3 3.451749 1_555
Ba8 S4 3.531073 1_555
Ba8 S11 3.587747 1_555
Ba8 S0 3.684299 1_555
Ba9 S13 3.254870 1_456
Ba9 S15 3.288478 1_565
Ba9 S9 3.299106 1_555
Ba9 Br1 3.396012 1_455
Ba9 S2 3.443313 1_555
Ba9 Br2 3.451749 1_565
Ba9 S5 3.531073 1_556
Ba9 S10 3.587747 1_465
Ba9 S1 3.684299 1_465
Ba10 S14 3.254870 1_555
Ba10 S12 3.288478 1_545
Ba10 S10 3.299106 1_555
Ba10 Br2 3.396012 1_555
Ba10 S1 3.443313 1_555
Ba10 Br1 3.451749 1_545
Ba10 S6 3.531073 1_555
Ba10 S9 3.587747 1_545
Ba10 S2 3.684299 1_545
Ba11 S15 3.254870 1_654
Ba11 S13 3.288478 1_555
Ba11 S11 3.299106 1_555
Ba11 Br3 3.396012 1_655
Ba11 S0 3.443313 1_555
Ba11 Br0 3.451749 1_555
Ba11 S7 3.531073 1_554
Ba11 S8 3.587747 1_655
Ba11 S3 3.684299 1_655
Fe0 S4 2.233784 1_555
Fe0 S2 2.233784 1_555
Fe0 S9 2.253787 1_555
Fe0 S12 2.268855 1_555
Fe1 S5 2.233784 1_555
Fe1 S3 2.233784 1_555
Fe1 S8 2.253787 1_555
Fe1 S13 2.268855 1_455
Fe2 S0 2.233784 1_555
Fe2 S6 2.233784 1_555
Fe2 S11 2.253787 1_555
Fe2 S14 2.268855 1_555
Fe3 S7 2.233784 1_555
Fe3 S1 2.233784 1_555
Fe3 S10 2.253787 1_555
Fe3 S15 2.268855 1_655
