# generated using pymatgen
data_VSO5
_symmetry_space_group_name_H-M   'P 1'
_cell_length_a   3.96703815
_cell_length_b   6.25654735
_cell_length_c   6.25654541
_cell_angle_alpha   89.99993801
_cell_angle_beta   90.00000000
_cell_angle_gamma   90.00000000
_symmetry_Int_Tables_number   1
_chemical_formula_structural   VSO5
_chemical_formula_sum   'V2 S2 O10'
_cell_volume   155.28721945
_cell_formula_units_Z   2
loop_
 _symmetry_equiv_pos_site_id
 _symmetry_equiv_pos_as_xyz
  1  'x, y, z'
loop_
 _atom_site_type_symbol
 _atom_site_label
 _atom_site_symmetry_multiplicity
 _atom_site_fract_x
 _atom_site_fract_y
 _atom_site_fract_z
 _atom_site_occupancy
  V  V0  1  0.37480970  0.75000000  0.75000000  1
  V  V1  1  0.62519030  0.25000000  0.25000000  1
  S  S0  1  0.50000000  0.75000000  0.25000000  1
  S  S1  1  0.50000000  0.25000000  0.75000000  1
  O  O0  1  0.71540198  0.28310737  0.93768941  1
  O  O1  1  0.71540198  0.56231059  0.28310737  1
  O  O2  1  0.21751524  0.25000000  0.25000000  1
  O  O3  1  0.78248476  0.75000000  0.75000000  1
  O  O4  1  0.71540198  0.93768941  0.21689263  1
  O  O5  1  0.71540198  0.21689263  0.56231059  1
  O  O6  1  0.28459802  0.78310737  0.43768941  1
  O  O7  1  0.28459802  0.06231059  0.78310737  1
  O  O8  1  0.28459802  0.43768941  0.71689263  1
  O  O9  1  0.28459802  0.71689263  0.06231059  1
loop_
_geom_bond_atom_site_label_1
_geom_bond_atom_site_label_2
_geom_bond_distance
_geom_bond_site_symmetry_2
O0 S1 1.466984 1_555
O0 V1 1.997257 1_556
O1 S0 1.466984 1_555
O1 V1 1.997258 1_555
O2 V1 1.617263 1_555
O2 V1 2.349776 1_455
O3 V0 1.617263 1_555
O3 V0 2.349776 1_655
O4 S0 1.466984 1_555
O4 V1 1.997258 1_565
O5 S1 1.466984 1_555
O5 V1 1.997257 1_555
O6 S0 1.466984 1_555
O6 V0 1.997257 1_555
O7 S1 1.466984 1_555
O7 V0 1.997258 1_545
O8 S1 1.466984 1_555
O8 V0 1.997258 1_555
O9 S0 1.466984 1_555
O9 V0 1.997257 1_554
