# generated using pymatgen
data_Hf6NiSb2
_symmetry_space_group_name_H-M   'P 1'
_cell_length_a   7.65775989
_cell_length_b   7.65776046
_cell_length_c   3.61366935
_cell_angle_alpha   90.00000000
_cell_angle_beta   90.00000000
_cell_angle_gamma   119.99999757
_symmetry_Int_Tables_number   1
_chemical_formula_structural   Hf6NiSb2
_chemical_formula_sum   'Hf6 Ni1 Sb2'
_cell_volume   183.51965190
_cell_formula_units_Z   1
loop_
 _symmetry_equiv_pos_site_id
 _symmetry_equiv_pos_as_xyz
  1  'x, y, z'
loop_
 _atom_site_type_symbol
 _atom_site_label
 _atom_site_symmetry_multiplicity
 _atom_site_fract_x
 _atom_site_fract_y
 _atom_site_fract_z
 _atom_site_occupancy
  Hf  Hf0  1  0.76074025  0.00000000  0.50000000  1
  Hf  Hf1  1  0.23925975  0.23925975  0.50000000  1
  Hf  Hf2  1  0.00000000  0.76074025  0.50000000  1
  Hf  Hf3  1  0.00000000  0.39825544  0.00000000  1
  Hf  Hf4  1  0.60174456  0.60174456  0.00000000  1
  Hf  Hf5  1  0.39825544  0.00000000  -0.00000000  1
  Ni  Ni0  1  0.00000000  0.00000000  0.00000000  1
  Sb  Sb0  1  0.33333300  0.66666700  0.50000000  1
  Sb  Sb1  1  0.66666700  0.33333300  0.50000000  1
loop_
_geom_bond_atom_site_label_1
_geom_bond_atom_site_label_2
_geom_bond_distance
_geom_bond_site_symmetry_2
Hf0 Ni0 2.573244 1_655
Hf0 Ni0 2.573244 1_656
Hf0 Sb1 2.978843 1_555
Hf0 Sb0 2.978848 1_545
Hf1 Ni0 2.573244 1_556
Hf1 Ni0 2.573244 1_555
Hf1 Sb1 2.978850 1_555
Hf1 Sb0 2.978851 1_555
Hf2 Ni0 2.573244 1_565
Hf2 Ni0 2.573244 1_566
Hf2 Sb0 2.978843 1_555
Hf2 Sb1 2.978848 1_455
Hf3 Sb1 2.959470 1_455
Hf3 Sb1 2.959470 1_454
Hf3 Sb0 2.959472 1_555
Hf3 Sb0 2.959472 1_554
Hf3 Ni0 3.049745 1_555
Hf4 Sb0 2.959476 1_555
Hf4 Sb0 2.959476 1_554
Hf4 Sb1 2.959476 1_554
Hf4 Sb1 2.959476 1_555
Hf4 Ni0 3.049745 1_665
Hf5 Sb0 2.959470 1_545
Hf5 Sb0 2.959470 1_544
Hf5 Sb1 2.959472 1_554
Hf5 Sb1 2.959472 1_555
Hf5 Ni0 3.049745 1_555
