# generated using pymatgen
data_Cs4Fe(MoO4)3
_symmetry_space_group_name_H-M   'P 1'
_cell_length_a   6.38628119
_cell_length_b   6.38628119
_cell_length_c   24.81521013
_cell_angle_alpha   89.87125244
_cell_angle_beta   89.87125244
_cell_angle_gamma   120.06998958
_symmetry_Int_Tables_number   1
_chemical_formula_structural   Cs4Fe(MoO4)3
_chemical_formula_sum   'Cs8 Fe2 Mo6 O24'
_cell_volume   875.85768191
_cell_formula_units_Z   2
loop_
 _symmetry_equiv_pos_site_id
 _symmetry_equiv_pos_as_xyz
  1  'x, y, z'
loop_
 _atom_site_type_symbol
 _atom_site_label
 _atom_site_symmetry_multiplicity
 _atom_site_fract_x
 _atom_site_fract_y
 _atom_site_fract_z
 _atom_site_occupancy
  Cs  Cs0  1  0.33262600  0.66609000  0.15921100  1
  Cs  Cs1  1  0.33340700  0.66648100  0.33760700  1
  Cs  Cs2  1  0.66609000  0.33262600  0.65921100  1
  Cs  Cs3  1  0.66648100  0.33340700  0.83760700  1
  Cs  Cs4  1  0.66659300  0.33330800  0.03211900  1
  Cs  Cs5  1  0.66666500  0.33331400  0.47117700  1
  Cs  Cs6  1  0.33330800  0.66659300  0.53211900  1
  Cs  Cs7  1  0.33331400  0.66666500  0.97117700  1
  Fe  Fe0  1  0.00820300  0.00315500  0.25057800  1
  Fe  Fe1  1  0.00315500  0.00820300  0.75057800  1
  Mo  Mo0  1  0.99930300  0.99969400  0.09376800  1
  Mo  Mo1  1  0.00031300  0.99997100  0.40647800  1
  Mo  Mo2  1  0.99969400  0.99930300  0.59376800  1
  Mo  Mo3  1  0.99997100  0.00031300  0.90647800  1
  Mo  Mo4  1  0.66572600  0.33341200  0.22855000  1
  Mo  Mo5  1  0.33341200  0.66572600  0.72855000  1
  O  O0  1  0.14866200  0.84535400  0.06892000  1
  O  O1  1  0.15537600  0.30378600  0.06873100  1
  O  O2  1  0.69633200  0.85164100  0.06875900  1
  O  O3  1  0.14948100  0.84388600  0.43026400  1
  O  O4  1  0.15631000  0.30541100  0.43016200  1
  O  O5  1  0.69419800  0.85059600  0.43017500  1
  O  O6  1  0.84535400  0.14866200  0.56892000  1
  O  O7  1  0.30378600  0.15537600  0.56873100  1
  O  O8  1  0.85164100  0.69633200  0.56875900  1
  O  O9  1  0.84388600  0.14948100  0.93026400  1
  O  O10  1  0.30541100  0.15631000  0.93016200  1
  O  O11  1  0.85059600  0.69419800  0.93017500  1
  O  O12  1  0.99678500  0.99966000  0.16766400  1
  O  O13  1  0.00188700  0.00020600  0.33286200  1
  O  O14  1  0.99966000  0.99678500  0.66766400  1
  O  O15  1  0.00020600  0.00188700  0.83286200  1
  O  O16  1  0.66604000  0.33338700  0.15747600  1
  O  O17  1  0.33338700  0.66604000  0.65747600  1
  O  O18  1  0.37201600  0.09253800  0.25244000  1
  O  O19  1  0.90439800  0.27976000  0.25147200  1
  O  O20  1  0.71907200  0.62515800  0.25166600  1
  O  O21  1  0.09253800  0.37201600  0.75244000  1
  O  O22  1  0.27976000  0.90439800  0.75147200  1
  O  O23  1  0.62515800  0.71907200  0.75166600  1
loop_
_geom_bond_atom_site_label_1
_geom_bond_atom_site_label_2
_geom_bond_distance
_geom_bond_site_symmetry_2
Cs0 O2 3.007294 1_555
Cs0 O0 3.009865 1_555
Cs0 O1 3.014349 1_555
Cs0 O19 3.463061 1_455
Cs0 O20 3.477375 1_555
Cs0 O18 3.489547 1_565
Cs0 O12 3.677468 1_555
Cs0 O16 3.684501 1_455
Cs0 O16 3.685632 1_555
Cs0 O16 3.688090 1_565
Cs0 O12 3.688381 1_445
Cs0 O12 3.709545 1_455
Cs1 O4 3.036859 1_555
Cs1 O3 3.046841 1_555
Cs1 O5 3.047803 1_555
Cs1 O18 3.351167 1_565
Cs1 O20 3.363672 1_555
Cs1 O19 3.382873 1_455
Cs2 O8 3.007294 1_555
Cs2 O6 3.009865 1_555
Cs2 O7 3.014349 1_555
Cs2 O22 3.463061 1_545
Cs2 O23 3.477375 1_555
Cs2 O21 3.489547 1_655
Cs2 O14 3.677468 1_555
Cs2 O17 3.684501 1_545
Cs2 O17 3.685632 1_555
Cs2 O17 3.688090 1_655
Cs2 O14 3.688381 1_445
Cs2 O14 3.709545 1_545
Cs3 O10 3.036859 1_555
Cs3 O9 3.046841 1_555
Cs3 O11 3.047803 1_555
Cs3 O21 3.351167 1_655
Cs3 O23 3.363672 1_555
Cs3 O22 3.382873 1_545
Cs4 O16 3.110756 1_555
Cs4 O11 3.215402 1_554
Cs4 O9 3.221989 1_554
Cs4 O10 3.228894 1_554
Cs4 O1 3.299820 1_555
Cs4 O2 3.301298 1_545
Cs4 O0 3.307978 1_655
Cs4 O0 3.336137 1_545
Cs4 O2 3.347330 1_555
Cs4 O1 3.347613 1_655
Cs5 O7 3.137779 1_555
Cs5 O6 3.150253 1_555
Cs5 O8 3.150800 1_555
Cs5 O3 3.326541 1_655
Cs5 O4 3.335298 1_555
Cs5 O5 3.335589 1_545
Cs5 O5 3.373623 1_555
Cs5 O4 3.375022 1_655
Cs5 O3 3.375389 1_545
Cs6 O17 3.110756 1_555
Cs6 O5 3.215402 1_555
Cs6 O3 3.221989 1_555
Cs6 O4 3.228894 1_555
Cs6 O7 3.299820 1_555
Cs6 O8 3.301298 1_455
Cs6 O6 3.307978 1_565
Cs6 O6 3.336137 1_455
Cs6 O8 3.347330 1_555
Cs6 O7 3.347613 1_565
Cs7 O1 3.137779 1_556
Cs7 O0 3.150253 1_556
Cs7 O2 3.150800 1_556
Cs7 O9 3.326541 1_565
Cs7 O10 3.335298 1_555
Cs7 O11 3.335589 1_455
Cs7 O11 3.373623 1_555
Cs7 O10 3.375022 1_565
Cs7 O9 3.375389 1_455
Fe0 O13 2.042061 1_555
Fe0 O12 2.058759 1_445
Fe0 O18 2.097082 1_555
Fe0 O19 2.175785 1_455
Fe0 O20 2.184088 1_445
Fe1 O15 2.042061 1_555
Fe1 O14 2.058759 1_445
Fe1 O21 2.097082 1_555
Fe1 O22 2.175785 1_545
Fe1 O23 2.184088 1_445
Mo0 O2 1.788170 1_555
Mo0 O1 1.789678 1_665
Mo0 O0 1.789917 1_655
Mo0 O12 1.833778 1_555
Mo1 O3 1.789132 1_555
Mo1 O5 1.789148 1_455
Mo1 O4 1.789759 1_565
Mo1 O13 1.826795 1_565
Mo2 O8 1.788170 1_555
Mo2 O7 1.789678 1_665
Mo2 O6 1.789917 1_565
Mo2 O14 1.833778 1_555
Mo3 O9 1.789132 1_555
Mo3 O11 1.789148 1_545
Mo3 O10 1.789759 1_655
Mo3 O15 1.826795 1_655
Mo4 O16 1.763713 1_555
Mo4 O20 1.812764 1_555
Mo4 O19 1.814000 1_555
Mo4 O18 1.826336 1_555
Mo5 O17 1.763713 1_555
Mo5 O23 1.812764 1_555
Mo5 O22 1.814000 1_555
Mo5 O21 1.826336 1_555
