# generated using pymatgen
data_Ba2LiV2(Si2O7)2
_symmetry_space_group_name_H-M   'P 1'
_cell_length_a   5.50525514
_cell_length_b   7.26492145
_cell_length_c   8.18222571
_cell_angle_alpha   89.16346958
_cell_angle_beta   109.26481432
_cell_angle_gamma   89.19186326
_symmetry_Int_Tables_number   1
_chemical_formula_structural   Ba2LiV2(Si2O7)2
_chemical_formula_sum   'Ba2 Li1 V2 Si4 O14'
_cell_volume   308.83035692
_cell_formula_units_Z   1
loop_
 _symmetry_equiv_pos_site_id
 _symmetry_equiv_pos_as_xyz
  1  'x, y, z'
loop_
 _atom_site_type_symbol
 _atom_site_label
 _atom_site_symmetry_multiplicity
 _atom_site_fract_x
 _atom_site_fract_y
 _atom_site_fract_z
 _atom_site_occupancy
  Ba  Ba0  1  0.81159200  0.74330000  0.59637700  1
  Ba  Ba1  1  0.22252900  0.23712300  0.40766300  1
  Li  Li0  1  0.13615400  0.48393800  0.99492700  1
  V  V0  1  0.13290400  0.74937800  0.22847200  1
  V  V1  1  0.89539700  0.22548300  0.79754300  1
  Si  Si0  1  0.41790200  0.51820800  0.79848200  1
  Si  Si1  1  0.63659600  0.46953200  0.21856800  1
  Si  Si2  1  0.40540600  0.96550600  0.79394100  1
  Si  Si3  1  0.62349200  0.01990500  0.20841900  1
  O  O0  1  0.12682700  0.44429400  0.74204300  1
  O  O1  1  0.41967000  0.55430400  0.29671100  1
  O  O2  1  0.11410100  0.04733800  0.70836500  1
  O  O3  1  0.42208900  0.93146000  0.29697000  1
  O  O4  1  0.52521300  0.50506200  0.01100200  1
  O  O5  1  0.51936600  0.99145600  0.00225100  1
  O  O6  1  0.02752500  0.73702000  0.01515700  1
  O  O7  1  0.02608700  0.25541500  0.02975300  1
  O  O8  1  0.38964800  0.74183200  0.74352800  1
  O  O9  1  0.65352400  0.24302900  0.26621300  1
  O  O10  1  0.60940200  0.42801300  0.70787400  1
  O  O11  1  0.92083700  0.55639200  0.30724800  1
  O  O12  1  0.60096200  0.04506400  0.70094300  1
  O  O13  1  0.91377700  0.93102300  0.29942500  1
loop_
_geom_bond_atom_site_label_1
_geom_bond_atom_site_label_2
_geom_bond_distance
_geom_bond_site_symmetry_2
Ba0 O12 2.742352 1_565
Ba0 O0 2.757571 1_655
Ba0 O2 2.765482 1_665
Ba0 O10 2.828220 1_555
Ba0 O8 2.948146 1_555
Ba0 O11 2.968463 1_555
Ba0 O3 2.970084 1_555
Ba0 O13 2.984428 1_555
Ba0 O8 3.007891 1_655
Ba0 O1 3.040315 1_555
Ba0 O6 3.234582 1_656
Ba1 O3 2.757709 1_545
Ba1 O11 2.783657 1_455
Ba1 O13 2.790979 1_445
Ba1 O1 2.823378 1_555
Ba1 O7 2.919914 1_555
Ba1 O12 2.926947 1_555
Ba1 O9 2.959126 1_455
Ba1 O9 2.963910 1_555
Ba1 O2 3.033852 1_555
Ba1 O10 3.037075 1_555
Ba1 O0 3.328282 1_555
Li0 O7 1.825689 1_556
Li0 O6 1.951604 1_556
Li0 O0 2.077184 1_555
Li0 O4 2.110075 1_556
Li0 O1 2.512160 1_556
O0 Si0 1.616364 1_555
O0 V1 2.185020 1_455
O1 Si1 1.645873 1_555
O1 V0 2.035849 1_555
O2 Si2 1.623443 1_545
O2 V1 2.054364 1_455
O3 Si3 1.644331 1_565
O3 V0 2.022572 1_555
O4 Si1 1.619434 1_555
O4 Si0 1.642420 1_554
O5 Si3 1.610100 1_565
O5 Si2 1.625226 1_554
O6 V0 1.651936 1_555
O7 V1 1.813656 1_454
O8 Si0 1.670666 1_555
O8 Si2 1.678735 1_555
O9 Si1 1.679699 1_555
O9 Si3 1.690230 1_555
O10 Si0 1.612734 1_555
O10 V1 2.079195 1_555
O11 Si1 1.632587 1_555
O11 V0 2.064100 1_655
O12 Si2 1.617837 1_545
O12 V1 2.053036 1_555
O13 Si3 1.642238 1_565
O13 V0 1.993331 1_655
