# generated using pymatgen
data_TiMoO4
_symmetry_space_group_name_H-M   'P 1'
_cell_length_a   4.70962405
_cell_length_b   4.70962405
_cell_length_c   3.09756100
_cell_angle_alpha   90.00000000
_cell_angle_beta   90.00000000
_cell_angle_gamma   90.39815590
_symmetry_Int_Tables_number   1
_chemical_formula_structural   TiMoO4
_chemical_formula_sum   'Ti1 Mo1 O4'
_cell_volume   68.70397464
_cell_formula_units_Z   1
loop_
 _symmetry_equiv_pos_site_id
 _symmetry_equiv_pos_as_xyz
  1  'x, y, z'
loop_
 _atom_site_type_symbol
 _atom_site_label
 _atom_site_symmetry_multiplicity
 _atom_site_fract_x
 _atom_site_fract_y
 _atom_site_fract_z
 _atom_site_occupancy
  Ti  Ti0  1  0.50000000  0.50000000  0.50000000  1
  Mo  Mo0  1  0.00000000  0.00000000  0.00000000  1
  O  O0  1  0.20682400  0.79317600  0.50000000  1
  O  O1  1  0.79317600  0.20682400  0.50000000  1
  O  O2  1  0.30776700  0.30776700  0.00000000  1
  O  O3  1  0.69223300  0.69223300  0.00000000  1
loop_
_geom_bond_atom_site_label_1
_geom_bond_atom_site_label_2
_geom_bond_distance
_geom_bond_site_symmetry_2
Mo0 O3 2.042721 1_445
Mo0 O2 2.042721 1_555
Mo0 O1 2.075935 1_455
Mo0 O1 2.075935 1_454
Mo0 O0 2.075935 1_544
Mo0 O0 2.075935 1_545
O0 Ti0 1.959446 1_555
O1 Ti0 1.959446 1_555
O2 Ti0 2.006646 1_554
O2 Ti0 2.006646 1_555
O3 Ti0 2.006646 1_554
O3 Ti0 2.006646 1_555
