# generated using pymatgen
data_CoP2H2O7
_symmetry_space_group_name_H-M   'P 1'
_cell_length_a   9.37224000
_cell_length_b   12.71292800
_cell_length_c   9.74045183
_cell_angle_alpha   90.00000000
_cell_angle_beta   105.34074287
_cell_angle_gamma   90.00000000
_symmetry_Int_Tables_number   1
_chemical_formula_structural   CoP2H2O7
_chemical_formula_sum   'Co8 P16 H16 O56'
_cell_volume   1119.20997921
_cell_formula_units_Z   8
loop_
 _symmetry_equiv_pos_site_id
 _symmetry_equiv_pos_as_xyz
  1  'x, y, z'
loop_
 _atom_site_type_symbol
 _atom_site_label
 _atom_site_symmetry_multiplicity
 _atom_site_fract_x
 _atom_site_fract_y
 _atom_site_fract_z
 _atom_site_occupancy
  Co  Co0  1  0.74723200  0.24379000  0.24982900  1
  Co  Co1  1  0.25276800  0.74379000  0.25017100  1
  Co  Co2  1  0.25276800  0.75621000  0.75017100  1
  Co  Co3  1  0.74723200  0.25621000  0.74982900  1
  Co  Co4  1  0.75198600  0.41552800  0.00694500  1
  Co  Co5  1  0.24801400  0.91552800  0.49305500  1
  Co  Co6  1  0.24801400  0.58447200  0.99305500  1
  Co  Co7  1  0.75198600  0.08447200  0.50694500  1
  P  P0  1  0.51967600  0.44358100  0.21827500  1
  P  P1  1  0.48032400  0.94358100  0.28172500  1
  P  P2  1  0.48032400  0.55641900  0.78172500  1
  P  P3  1  0.51967600  0.05641900  0.71827500  1
  P  P4  1  0.95884900  0.03886300  0.27650000  1
  P  P5  1  0.04115100  0.53886300  0.22350000  1
  P  P6  1  0.04115100  0.96113700  0.72350000  1
  P  P7  1  0.95884900  0.46113700  0.77650000  1
  P  P8  1  0.97940000  0.20923200  0.05960200  1
  P  P9  1  0.02060000  0.70923200  0.44039800  1
  P  P10  1  0.02060000  0.79076800  0.94039800  1
  P  P11  1  0.97940000  0.29076800  0.55960200  1
  P  P12  1  0.51059100  0.27978200  0.43870200  1
  P  P13  1  0.48940900  0.77978200  0.06129800  1
  P  P14  1  0.48940900  0.72021800  0.56129800  1
  P  P15  1  0.51059100  0.22021800  0.93870200  1
  H  H0  1  0.51720600  0.59004400  0.34810600  1
  H  H1  1  0.48279400  0.09004400  0.15189400  1
  H  H2  1  0.48279400  0.40995600  0.65189400  1
  H  H3  1  0.51720600  0.90995600  0.84810600  1
  H  H4  1  0.95972400  0.88970800  0.16580200  1
  H  H5  1  0.04027600  0.38970800  0.33419800  1
  H  H6  1  0.04027600  0.11029200  0.83419800  1
  H  H7  1  0.95972400  0.61029200  0.66580200  1
  H  H8  1  0.37613900  0.14758900  0.47765200  1
  H  H9  1  0.62386100  0.64758900  0.02234800  1
  H  H10  1  0.62386100  0.85241100  0.52234800  1
  H  H11  1  0.37613900  0.35241100  0.97765200  1
  H  H12  1  0.17551200  0.28530900  0.02141800  1
  H  H13  1  0.82448800  0.78530900  0.47858200  1
  H  H14  1  0.82448800  0.71469100  0.97858200  1
  H  H15  1  0.17551200  0.21469100  0.52141800  1
  O  O0  1  0.64906800  0.38725300  0.18176000  1
  O  O1  1  0.35093200  0.88725300  0.31824000  1
  O  O2  1  0.35093200  0.61274700  0.81824000  1
  O  O3  1  0.64906800  0.11274700  0.68176000  1
  O  O4  1  0.83741500  0.09918300  0.32111400  1
  O  O5  1  0.16258500  0.59918300  0.17888600  1
  O  O6  1  0.16258500  0.90081700  0.67888600  1
  O  O7  1  0.83741500  0.40081700  0.82111400  1
  O  O8  1  0.45206300  0.36738700  0.31946800  1
  O  O9  1  0.54793700  0.86738700  0.18053200  1
  O  O10  1  0.54793700  0.63261300  0.68053200  1
  O  O11  1  0.45206300  0.13261300  0.81946800  1
  O  O12  1  0.87583300  0.28262600  0.11191200  1
  O  O13  1  0.12416700  0.78262600  0.38808800  1
  O  O14  1  0.12416700  0.71737400  0.88808800  1
  O  O15  1  0.87583300  0.21737400  0.61191200  1
  O  O16  1  0.61487600  0.20582100  0.38790200  1
  O  O17  1  0.38512400  0.70582100  0.11209800  1
  O  O18  1  0.38512400  0.79417900  0.61209800  1
  O  O19  1  0.61487600  0.29417900  0.88790200  1
  O  O20  1  0.90105700  0.52286500  0.10654000  1
  O  O21  1  0.09894300  0.02286500  0.39346000  1
  O  O22  1  0.09894300  0.47713500  0.89346000  1
  O  O23  1  0.90105700  0.97713500  0.60654000  1
  O  O24  1  0.60772400  0.53668900  0.91278300  1
  O  O25  1  0.39227600  0.03668900  0.58721700  1
  O  O26  1  0.39227600  0.46331100  0.08721700  1
  O  O27  1  0.60772400  0.96331100  0.41278300  1
  O  O28  1  0.92455900  0.31913800  0.40287100  1
  O  O29  1  0.07544100  0.81913800  0.09712900  1
  O  O30  1  0.07544100  0.68086200  0.59712900  1
  O  O31  1  0.92455900  0.18086200  0.90287100  1
  O  O32  1  0.58304400  0.54205900  0.30764500  1
  O  O33  1  0.41695600  0.04205900  0.19235500  1
  O  O34  1  0.41695600  0.45794100  0.69235500  1
  O  O35  1  0.58304400  0.95794100  0.80764500  1
  O  O36  1  0.57882600  0.16762600  0.08157100  1
  O  O37  1  0.42117400  0.66762600  0.41842900  1
  O  O38  1  0.42117400  0.83237400  0.91842900  1
  O  O39  1  0.57882600  0.33237400  0.58157100  1
  O  O40  1  0.88844500  0.93679300  0.19840300  1
  O  O41  1  0.11155500  0.43679300  0.30159700  1
  O  O42  1  0.11155500  0.06320700  0.80159700  1
  O  O43  1  0.88844500  0.56320700  0.69840300  1
  O  O44  1  0.00488300  0.10586500  0.15391200  1
  O  O45  1  0.99511700  0.60586500  0.34608800  1
  O  O46  1  0.99511700  0.89413500  0.84608800  1
  O  O47  1  0.00488300  0.39413500  0.65391200  1
  O  O48  1  0.36180700  0.22088600  0.43740600  1
  O  O49  1  0.63819300  0.72088600  0.06259400  1
  O  O50  1  0.63819300  0.77911400  0.56259400  1
  O  O51  1  0.36180700  0.27911400  0.93740600  1
  O  O52  1  0.14218400  0.25291800  0.09844500  1
  O  O53  1  0.85781600  0.75291800  0.40155500  1
  O  O54  1  0.85781600  0.74708200  0.90155500  1
  O  O55  1  0.14218400  0.24708200  0.59844500  1
loop_
_geom_bond_atom_site_label_1
_geom_bond_atom_site_label_2
_geom_bond_distance
_geom_bond_site_symmetry_2
Co0 O4 2.065338 1_555
Co0 O0 2.071146 1_555
Co0 O12 2.087541 1_555
Co0 O16 2.112637 1_555
Co0 O28 2.142651 1_555
Co0 O36 2.178538 1_555
Co1 O5 2.065338 1_555
Co1 O1 2.071146 1_555
Co1 O13 2.087541 1_555
Co1 O17 2.112637 1_555
Co1 O29 2.142651 1_555
Co1 O37 2.178538 1_555
Co2 O6 2.065338 1_555
Co2 O2 2.071146 1_555
Co2 O14 2.087541 1_555
Co2 O18 2.112637 1_555
Co2 O30 2.142651 1_555
Co2 O38 2.178538 1_555
Co3 O7 2.065338 1_555
Co3 O3 2.071146 1_555
Co3 O15 2.087541 1_555
Co3 O19 2.112637 1_555
Co3 O31 2.142651 1_555
Co3 O39 2.178538 1_555
Co4 O20 2.009469 1_555
Co4 O24 2.094204 1_554
Co4 O19 2.141807 1_554
Co4 O12 2.149270 1_555
Co4 O7 2.172382 1_554
Co4 O0 2.197296 1_555
Co5 O21 2.009469 1_565
Co5 O25 2.094204 1_565
Co5 O18 2.141807 1_555
Co5 O13 2.149270 1_555
Co5 O6 2.172382 1_555
Co5 O1 2.197296 1_555
Co6 O22 2.009469 1_555
Co6 O26 2.094204 1_556
Co6 O17 2.141807 1_556
Co6 O14 2.149270 1_555
Co6 O5 2.172382 1_556
Co6 O2 2.197296 1_555
Co7 O23 2.009469 1_545
Co7 O27 2.094204 1_545
Co7 O16 2.141807 1_555
Co7 O15 2.149270 1_555
Co7 O4 2.172382 1_555
Co7 O3 2.197296 1_555
H0 O32 1.018274 1_555
H0 O37 1.605689 1_555
H1 O33 1.018274 1_555
H1 O36 1.605689 1_555
H2 O34 1.018274 1_555
H2 O39 1.605689 1_555
H3 O35 1.018274 1_555
H3 O38 1.605689 1_555
H4 O40 1.008798 1_555
H4 O29 1.677010 1_655
H5 O41 1.008798 1_555
H5 O28 1.677010 1_455
H6 O42 1.008798 1_555
H6 O31 1.677010 1_455
H7 O43 1.008798 1_555
H7 O30 1.677010 1_655
H8 O48 1.006054 1_555
H8 O25 1.750466 1_555
H9 O49 1.006054 1_555
H9 O24 1.750466 1_554
H10 O50 1.006054 1_555
H10 O27 1.750466 1_555
H11 O51 1.006054 1_555
H11 O26 1.750466 1_556
H12 O52 0.976756 1_555
H13 O53 0.976756 1_555
H14 O54 0.976756 1_555
H15 O55 0.976756 1_555
O0 P0 1.529097 1_555
O1 P1 1.529097 1_555
O2 P2 1.529097 1_555
O3 P3 1.529097 1_555
O4 P4 1.527702 1_555
O5 P5 1.527702 1_555
O6 P6 1.527702 1_555
O7 P7 1.527702 1_555
O8 P12 1.597813 1_555
O8 P0 1.625381 1_555
O9 P13 1.597813 1_555
O9 P1 1.625381 1_555
O10 P14 1.597813 1_555
O10 P2 1.625381 1_555
O11 P15 1.597813 1_555
O11 P3 1.625381 1_555
O12 P8 1.527762 1_555
O13 P9 1.527762 1_555
O14 P10 1.527762 1_555
O15 P11 1.527762 1_555
O16 P12 1.529741 1_555
O17 P13 1.529741 1_555
O18 P14 1.529741 1_555
O19 P15 1.529741 1_555
O20 P5 1.507226 1_655
O21 P4 1.507226 1_455
O22 P7 1.507226 1_455
O23 P6 1.507226 1_655
O24 P2 1.520433 1_555
O25 P3 1.520433 1_555
O26 P0 1.520433 1_555
O27 P1 1.520433 1_555
O28 P11 1.519763 1_555
O29 P10 1.519763 1_554
O30 P9 1.519763 1_555
O31 P8 1.519763 1_556
O32 P0 1.550583 1_555
O33 P1 1.550583 1_545
O34 P2 1.550583 1_555
O35 P3 1.550583 1_565
O36 P15 1.523708 1_554
O37 P14 1.523708 1_555
O38 P13 1.523708 1_556
O39 P12 1.523708 1_555
O40 P4 1.559570 1_565
O41 P5 1.559570 1_555
O42 P6 1.559570 1_545
O43 P7 1.559570 1_555
O44 P8 1.584826 1_455
O44 P4 1.615568 1_455
O45 P9 1.584826 1_655
O45 P5 1.615568 1_655
O46 P10 1.584826 1_655
O46 P6 1.615568 1_655
O47 P11 1.584826 1_455
O47 P7 1.615568 1_455
O48 P12 1.579848 1_555
O49 P13 1.579848 1_555
O50 P14 1.579848 1_555
O51 P15 1.579848 1_555
O52 P8 1.572825 1_455
O53 P9 1.572825 1_655
O54 P10 1.572825 1_655
O55 P11 1.572825 1_455
