# generated using pymatgen
data_Li4Co3O7
_symmetry_space_group_name_H-M   'P 1'
_cell_length_a   9.83854197
_cell_length_b   9.83854197
_cell_length_c   9.73993412
_cell_angle_alpha   63.95438309
_cell_angle_beta   63.95438309
_cell_angle_gamma   17.23331651
_symmetry_Int_Tables_number   1
_chemical_formula_structural   Li4Co3O7
_chemical_formula_sum   'Li8 Co6 O14'
_cell_volume   250.26077424
_cell_formula_units_Z   2
loop_
 _symmetry_equiv_pos_site_id
 _symmetry_equiv_pos_as_xyz
  1  'x, y, z'
loop_
 _atom_site_type_symbol
 _atom_site_label
 _atom_site_symmetry_multiplicity
 _atom_site_fract_x
 _atom_site_fract_y
 _atom_site_fract_z
 _atom_site_occupancy
  Li  Li0  1  0.43062400  0.43062400  0.78017100  1
  Li  Li1  1  0.14050800  0.14050800  0.92821300  1
  Li  Li2  1  0.85949200  0.85949200  0.07178700  1
  Li  Li3  1  0.56937600  0.56937600  0.21982900  1
  Li  Li4  1  0.28985900  0.28985900  0.35179600  1
  Li  Li5  1  0.00000000  0.00000000  0.50000000  1
  Li  Li6  1  0.71014100  0.71014100  0.64820400  1
  Li  Li7  1  0.50000000  0.50000000  0.00000000  1
  Co  Co0  1  0.06845900  0.06845900  0.72600400  1
  Co  Co1  1  0.93154100  0.93154100  0.27399600  1
  Co  Co2  1  0.78713900  0.78713900  0.85541100  1
  Co  Co3  1  0.21286100  0.21286100  0.14458900  1
  Co  Co4  1  0.64030700  0.64030700  0.43219400  1
  Co  Co5  1  0.35969300  0.35969300  0.56780600  1
  O  O0  1  0.54104400  0.54104400  0.60732400  1
  O  O1  1  0.25615200  0.25615200  0.74422300  1
  O  O2  1  0.97562000  0.97562000  0.87127000  1
  O  O3  1  0.68164100  0.68164100  0.03874100  1
  O  O4  1  0.39645500  0.39645500  0.18401700  1
  O  O5  1  0.10993300  0.10993300  0.32836100  1
  O  O6  1  0.83254000  0.83254000  0.45091900  1
  O  O7  1  0.31835900  0.31835900  0.96125900  1
  O  O8  1  0.02438000  0.02438000  0.12873000  1
  O  O9  1  0.74384800  0.74384800  0.25577700  1
  O  O10  1  0.45895600  0.45895600  0.39267600  1
  O  O11  1  0.16746000  0.16746000  0.54908100  1
  O  O12  1  0.89006700  0.89006700  0.67163900  1
  O  O13  1  0.60354500  0.60354500  0.81598300  1
loop_
_geom_bond_atom_site_label_1
_geom_bond_atom_site_label_2
_geom_bond_distance
_geom_bond_site_symmetry_2
Li0 O0 2.058362 1_555
Li0 O2 2.101500 1_545
Li0 O2 2.101500 1_455
Li0 O7 2.111795 1_555
Li0 O12 2.157232 1_455
Li0 O12 2.157232 1_545
Li1 O13 2.140794 1_545
Li1 O13 2.140794 1_455
Li1 O1 2.166148 1_555
Li1 O3 2.176529 1_456
Li1 O3 2.176529 1_546
Li1 O8 2.235957 1_556
Li2 O4 2.140794 1_565
Li2 O4 2.140794 1_655
Li2 O9 2.166148 1_555
Li2 O7 2.176529 1_654
Li2 O7 2.176529 1_564
Li2 O2 2.235957 1_554
Li3 O10 2.058362 1_555
Li3 O8 2.101500 1_565
Li3 O8 2.101500 1_655
Li3 O3 2.111795 1_555
Li3 O5 2.157232 1_655
Li3 O5 2.157232 1_565
Li4 O4 1.990264 1_555
Li4 O6 2.122833 1_455
Li4 O6 2.122833 1_545
Li4 O9 2.142957 1_455
Li4 O9 2.142957 1_545
Li4 O11 2.301877 1_555
Li5 O12 2.047749 1_445
Li5 O5 2.047749 1_555
Li5 O0 2.155111 1_545
Li5 O0 2.155111 1_455
Li5 O10 2.155111 1_455
Li5 O10 2.155111 1_545
Li6 O13 1.990264 1_555
Li6 O11 2.122833 1_655
Li6 O11 2.122833 1_565
Li6 O1 2.142957 1_655
Li6 O1 2.142957 1_565
Li6 O6 2.301877 1_555
Li7 O13 2.015831 1_554
Li7 O4 2.015831 1_555
Li7 O2 2.120859 1_544
Li7 O2 2.120859 1_454
Li7 O8 2.120859 1_565
Li7 O8 2.120859 1_655
Co0 O2 1.730422 1_445
Co0 O11 1.931643 1_555
Co0 O13 1.984471 1_545
Co0 O13 1.984471 1_455
Co0 O0 2.083517 1_545
Co0 O0 2.083517 1_455
Co1 O8 1.730422 1_665
Co1 O6 1.931643 1_555
Co1 O4 1.984471 1_565
Co1 O4 1.984471 1_655
Co1 O10 2.083517 1_565
Co1 O10 2.083517 1_655
Co2 O12 2.007526 1_555
Co2 O3 2.036141 1_556
Co2 O7 2.039790 1_565
Co2 O7 2.039790 1_655
Co2 O1 2.070967 1_655
Co2 O1 2.070967 1_565
Co3 O5 2.007526 1_555
Co3 O7 2.036141 1_554
Co3 O3 2.039790 1_545
Co3 O3 2.039790 1_455
Co3 O9 2.070967 1_545
Co3 O9 2.070967 1_455
Co4 O0 1.926961 1_555
Co4 O9 1.983925 1_555
Co4 O5 2.018803 1_655
Co4 O5 2.018803 1_565
Co4 O11 2.069333 1_565
Co4 O11 2.069333 1_655
Co5 O10 1.926961 1_555
Co5 O1 1.983925 1_555
Co5 O12 2.018803 1_545
Co5 O12 2.018803 1_455
Co5 O6 2.069333 1_455
Co5 O6 2.069333 1_545
