# generated using pymatgen
data_Li3CuN2
_symmetry_space_group_name_H-M   'P 1'
_cell_length_a   8.34162070
_cell_length_b   9.63207350
_cell_length_c   9.63207408
_cell_angle_alpha   89.99999658
_cell_angle_beta   125.26438651
_cell_angle_gamma   54.73561103
_symmetry_Int_Tables_number   1
_chemical_formula_structural   Li3CuN2
_chemical_formula_sum   'Li24 Cu8 N16'
_cell_volume   446.81673314
_cell_formula_units_Z   8
loop_
 _symmetry_equiv_pos_site_id
 _symmetry_equiv_pos_as_xyz
  1  'x, y, z'
loop_
 _atom_site_type_symbol
 _atom_site_label
 _atom_site_symmetry_multiplicity
 _atom_site_fract_x
 _atom_site_fract_y
 _atom_site_fract_z
 _atom_site_occupancy
  Li  Li0  1  0.23500928  0.01970345  0.99303749  1
  Li  Li1  1  0.76499072  0.75471274  0.50696251  1
  Li  Li2  1  0.76499072  0.48029655  0.75802821  1
  Li  Li3  1  0.23500928  0.74528726  0.74197179  1
  Li  Li4  1  0.24893530  0.75802821  0.26167625  1
  Li  Li5  1  0.75106470  0.74197179  0.01274094  1
  Li  Li6  1  0.24893530  0.99303749  0.48725906  1
  Li  Li7  1  0.75106470  0.50696251  0.23832375  1
  Li  Li8  1  0.72558281  0.01274094  0.74528726  1
  Li  Li9  1  0.72558281  0.26167625  0.48029655  1
  Li  Li10  1  0.27441719  0.23832375  0.75471274  1
  Li  Li11  1  0.27441719  0.48725906  0.01970345  1
  Li  Li12  1  0.76499072  0.98029655  0.00696251  1
  Li  Li13  1  0.23500928  0.24528726  0.49303749  1
  Li  Li14  1  0.23500928  0.51970345  0.24197179  1
  Li  Li15  1  0.76499072  0.25471274  0.25802821  1
  Li  Li16  1  0.75106470  0.24197179  0.73832375  1
  Li  Li17  1  0.24893530  0.25802821  0.98725906  1
  Li  Li18  1  0.75106470  0.00696251  0.51274094  1
  Li  Li19  1  0.24893530  0.49303749  0.76167625  1
  Li  Li20  1  0.27441719  0.98725906  0.25471274  1
  Li  Li21  1  0.27441719  0.73832375  0.51970345  1
  Li  Li22  1  0.72558281  0.76167625  0.24528726  1
  Li  Li23  1  0.72558281  0.51274094  0.98029655  1
  Cu  Cu0  1  0.24345973  -0.00000000  0.74345973  1
  Cu  Cu1  1  0.75654027  0.74345973  0.75654027  1
  Cu  Cu2  1  0.75654027  0.50000000  0.50000000  1
  Cu  Cu3  1  0.24345973  0.75654027  -0.00000000  1
  Cu  Cu4  1  0.75654027  0.00000000  0.25654027  1
  Cu  Cu5  1  0.24345973  0.25654027  0.24345973  1
  Cu  Cu6  1  0.24345973  0.50000000  0.50000000  1
  Cu  Cu7  1  0.75654027  0.24345973  0.00000000  1
  N  N0  1  0.00000000  -0.00000000  0.50000000  1
  N  N1  1  0.00000000  0.50000000  0.00000000  1
  N  N2  1  0.00000000  0.50000000  0.50000000  1
  N  N3  1  0.00000000  -0.00000000  0.00000000  1
  N  N4  1  0.50000000  0.97903887  0.75000000  1
  N  N5  1  0.50000000  0.52096113  0.25000000  1
  N  N6  1  -0.00000000  0.25000000  0.72903887  1
  N  N7  1  0.00000000  0.75000000  0.77096113  1
  N  N8  1  0.54192125  0.72903887  0.52096113  1
  N  N9  1  0.45807875  0.77096113  0.97903887  1
  N  N10  1  0.50000000  0.02096113  0.25000000  1
  N  N11  1  0.50000000  0.47903887  0.75000000  1
  N  N12  1  0.00000000  0.75000000  0.27096113  1
  N  N13  1  -0.00000000  0.25000000  0.22903887  1
  N  N14  1  0.45807875  0.27096113  0.47903887  1
  N  N15  1  0.54192125  0.22903887  0.02096113  1
loop_
_geom_bond_atom_site_label_1
_geom_bond_atom_site_label_2
_geom_bond_distance
_geom_bond_site_symmetry_2
Li0 N9 2.088729 1_545
Li0 N6 2.110058 1_555
Li0 N3 2.113038 1_556
Li0 N10 2.173884 1_556
Li1 N8 2.088735 1_555
Li1 N7 2.110058 1_655
Li1 N2 2.113038 1_655
Li1 N10 2.173884 1_565
Li2 N8 2.088723 1_555
Li2 N6 2.110058 1_655
Li2 N1 2.113038 1_656
Li2 N11 2.173884 1_555
Li3 N9 2.088730 1_555
Li3 N7 2.110058 1_555
Li3 N0 2.113038 1_565
Li3 N11 2.173884 1_555
Li4 N5 2.088730 1_555
Li4 N8 2.110047 1_555
Li4 N3 2.113041 1_565
Li4 N12 2.173886 1_555
Li5 N4 2.088729 1_554
Li5 N9 2.110042 1_554
Li5 N1 2.113041 1_655
Li5 N12 2.173887 1_655
Li6 N4 2.088725 1_555
Li6 N8 2.110052 1_555
Li6 N0 2.113046 1_565
Li6 N13 2.173881 1_565
Li7 N5 2.088725 1_555
Li7 N9 2.110057 1_554
Li7 N2 2.113047 1_655
Li7 N13 2.173881 1_655
Li8 N7 2.088729 1_645
Li8 N4 2.110050 1_545
Li8 N3 2.113041 1_656
Li8 N14 2.173889 1_555
Li9 N6 2.088725 1_655
Li9 N5 2.110055 1_555
Li9 N0 2.113046 1_655
Li9 N14 2.173872 1_555
Li10 N6 2.088729 1_555
Li10 N4 2.110050 1_545
Li10 N2 2.113041 1_555
Li10 N15 2.173884 1_556
Li11 N7 2.088724 1_554
Li11 N5 2.110055 1_555
Li11 N1 2.113046 1_555
Li11 N15 2.173878 1_555
Li12 N15 2.088729 1_565
Li12 N12 2.110058 1_655
Li12 N3 2.113038 1_665
Li12 N4 2.173884 1_554
Li13 N14 2.088735 1_555
Li13 N13 2.110058 1_555
Li13 N2 2.113038 1_555
Li13 N4 2.173884 1_545
Li14 N14 2.088723 1_555
Li14 N12 2.110058 1_555
Li14 N1 2.113038 1_555
Li14 N5 2.173884 1_555
Li15 N15 2.088730 1_555
Li15 N13 2.110058 1_655
Li15 N0 2.113038 1_655
Li15 N5 2.173884 1_555
Li16 N11 2.088730 1_555
Li16 N14 2.110047 1_555
Li16 N3 2.113041 1_656
Li16 N6 2.173886 1_655
Li17 N10 2.088729 1_556
Li17 N15 2.110042 1_556
Li17 N1 2.113041 1_556
Li17 N6 2.173887 1_555
Li18 N10 2.088725 1_555
Li18 N14 2.110052 1_555
Li18 N0 2.113046 1_655
Li18 N7 2.173881 1_645
Li19 N11 2.088725 1_555
Li19 N15 2.110057 1_556
Li19 N2 2.113047 1_555
Li19 N7 2.173881 1_555
Li20 N13 2.088729 1_565
Li20 N10 2.110050 1_565
Li20 N3 2.113041 1_565
Li20 N8 2.173889 1_555
Li21 N12 2.088725 1_555
Li21 N11 2.110055 1_555
Li21 N0 2.113046 1_565
Li21 N8 2.173872 1_555
Li22 N12 2.088729 1_655
Li22 N10 2.110050 1_565
Li22 N2 2.113041 1_655
Li22 N9 2.173884 1_554
Li23 N13 2.088724 1_656
Li23 N11 2.110055 1_555
Li23 N1 2.113046 1_656
Li23 N9 2.173878 1_555
Cu0 N9 1.992384 1_545
Cu0 N6 1.992387 1_555
Cu0 N4 1.992387 1_545
Cu0 N0 2.030849 1_555
Cu1 N4 1.992387 1_555
Cu1 N7 1.992387 1_655
Cu1 N8 1.992390 1_555
Cu1 N1 2.030849 1_656
Cu2 N6 1.992387 1_655
Cu2 N5 1.992387 1_555
Cu2 N8 1.992390 1_555
Cu2 N2 2.030849 1_655
Cu3 N5 1.992387 1_555
Cu3 N7 1.992387 1_554
Cu3 N9 1.992396 1_554
Cu3 N3 2.030849 1_565
Cu4 N15 1.992384 1_555
Cu4 N12 1.992387 1_645
Cu4 N10 1.992387 1_555
Cu4 N0 2.030849 1_655
Cu5 N10 1.992387 1_555
Cu5 N13 1.992387 1_555
Cu5 N14 1.992390 1_555
Cu5 N1 2.030849 1_555
Cu6 N12 1.992387 1_555
Cu6 N11 1.992387 1_555
Cu6 N14 1.992390 1_555
Cu6 N2 2.030849 1_555
Cu7 N11 1.992387 1_554
Cu7 N13 1.992387 1_655
Cu7 N15 1.992396 1_555
Cu7 N3 2.030849 1_655
