# generated using pymatgen
data_Ba5Sb4
_symmetry_space_group_name_H-M   'P 1'
_cell_length_a   9.14366576
_cell_length_b   9.19098199
_cell_length_c   18.00249831
_cell_angle_alpha   90.00000000
_cell_angle_beta   90.00000000
_cell_angle_gamma   90.00000000
_symmetry_Int_Tables_number   1
_chemical_formula_structural   Ba5Sb4
_chemical_formula_sum   'Ba20 Sb16'
_cell_volume   1512.91676795
_cell_formula_units_Z   4
loop_
 _symmetry_equiv_pos_site_id
 _symmetry_equiv_pos_as_xyz
  1  'x, y, z'
loop_
 _atom_site_type_symbol
 _atom_site_label
 _atom_site_symmetry_multiplicity
 _atom_site_fract_x
 _atom_site_fract_y
 _atom_site_fract_z
 _atom_site_occupancy
  Ba  Ba0  1  0.42379325  0.66649522  0.60313022  1
  Ba  Ba1  1  0.92379325  0.83350478  0.89686978  1
  Ba  Ba2  1  0.07620675  0.16649522  0.39686978  1
  Ba  Ba3  1  0.57620675  0.33350478  0.10313022  1
  Ba  Ba4  1  0.42379325  0.66649522  0.89686978  1
  Ba  Ba5  1  0.92379325  0.83350478  0.60313022  1
  Ba  Ba6  1  0.07620675  0.16649522  0.10313022  1
  Ba  Ba7  1  0.57620675  0.33350478  0.39686978  1
  Ba  Ba8  1  0.41381640  0.83741375  0.39550427  1
  Ba  Ba9  1  0.91381640  0.66258625  0.10449573  1
  Ba  Ba10  1  0.08618360  0.33741375  0.60449573  1
  Ba  Ba11  1  0.58618360  0.16258625  0.89550427  1
  Ba  Ba12  1  0.58618360  0.16258625  0.60449573  1
  Ba  Ba13  1  0.08618360  0.33741375  0.89550427  1
  Ba  Ba14  1  0.91381640  0.66258625  0.39550427  1
  Ba  Ba15  1  0.41381640  0.83741375  0.10449573  1
  Ba  Ba16  1  0.25381649  0.00153736  0.75000000  1
  Ba  Ba17  1  0.75381649  0.49846264  0.75000000  1
  Ba  Ba18  1  0.24618351  0.50153736  0.25000000  1
  Ba  Ba19  1  0.74618351  0.99846264  0.25000000  1
  Sb  Sb0  1  0.74740225  0.99628280  0.05170120  1
  Sb  Sb1  1  0.24740225  0.50371720  0.44829880  1
  Sb  Sb2  1  0.75259775  0.49628280  0.94829880  1
  Sb  Sb3  1  0.25259775  0.00371720  0.55170120  1
  Sb  Sb4  1  0.25259775  0.00371720  0.94829880  1
  Sb  Sb5  1  0.75259775  0.49628280  0.55170120  1
  Sb  Sb6  1  0.24740225  0.50371720  0.05170120  1
  Sb  Sb7  1  0.74740225  0.99628280  0.44829880  1
  Sb  Sb8  1  0.36664645  0.39066249  0.75000000  1
  Sb  Sb9  1  0.86664645  0.10933751  0.75000000  1
  Sb  Sb10  1  0.13335355  0.89066249  0.25000000  1
  Sb  Sb11  1  0.63335355  0.60933751  0.25000000  1
  Sb  Sb12  1  0.14175194  0.61492435  0.75000000  1
  Sb  Sb13  1  0.64175194  0.88507565  0.75000000  1
  Sb  Sb14  1  0.35824806  0.11492435  0.25000000  1
  Sb  Sb15  1  0.85824806  0.38507565  0.25000000  1
loop_
_geom_bond_atom_site_label_1
_geom_bond_atom_site_label_2
_geom_bond_distance
_geom_bond_site_symmetry_2
Ba0 Sb5 3.513335 1_555
Ba0 Sb1 3.550906 1_555
Ba0 Sb3 3.593581 1_565
Ba0 Sb8 3.700135 1_555
Ba0 Sb12 3.723735 1_555
Ba0 Sb13 3.872806 1_555
Ba1 Sb4 3.513335 1_665
Ba1 Sb0 3.550906 1_556
Ba1 Sb2 3.593581 1_555
Ba1 Sb9 3.700135 1_565
Ba1 Sb13 3.723735 1_555
Ba1 Sb12 3.872806 1_655
Ba2 Sb7 3.513335 1_445
Ba2 Sb3 3.550906 1_555
Ba2 Sb1 3.593581 1_555
Ba2 Sb10 3.700135 1_545
Ba2 Sb14 3.723735 1_555
Ba2 Sb15 3.872806 1_455
Ba3 Sb6 3.513335 1_555
Ba3 Sb2 3.550906 1_554
Ba3 Sb0 3.593581 1_545
Ba3 Sb11 3.700135 1_555
Ba3 Sb15 3.723735 1_555
Ba3 Sb14 3.872806 1_555
Ba4 Sb2 3.513335 1_555
Ba4 Sb6 3.550906 1_556
Ba4 Sb4 3.593581 1_565
Ba4 Sb8 3.700135 1_555
Ba4 Sb12 3.723735 1_555
Ba4 Sb13 3.872806 1_555
Ba5 Sb3 3.513335 1_665
Ba5 Sb7 3.550906 1_555
Ba5 Sb5 3.593581 1_555
Ba5 Sb9 3.700135 1_565
Ba5 Sb13 3.723735 1_555
Ba5 Sb12 3.872806 1_655
Ba6 Sb0 3.513335 1_445
Ba6 Sb4 3.550906 1_554
Ba6 Sb6 3.593581 1_555
Ba6 Sb10 3.700135 1_545
Ba6 Sb14 3.723735 1_555
Ba6 Sb15 3.872806 1_455
Ba7 Sb1 3.513335 1_555
Ba7 Sb5 3.550906 1_555
Ba7 Sb7 3.593581 1_545
Ba7 Sb11 3.700135 1_555
Ba7 Sb15 3.723735 1_555
Ba7 Sb14 3.872806 1_555
Ba8 Sb7 3.512706 1_555
Ba8 Sb3 3.523680 1_565
Ba8 Sb1 3.553193 1_555
Ba8 Sb14 3.691228 1_565
Ba8 Sb10 3.698302 1_555
Ba8 Sb11 3.909637 1_555
Ba9 Sb6 3.512706 1_655
Ba9 Sb2 3.523680 1_554
Ba9 Sb0 3.553193 1_555
Ba9 Sb15 3.691228 1_555
Ba9 Sb11 3.698302 1_555
Ba9 Sb10 3.909637 1_655
Ba10 Sb5 3.512706 1_455
Ba10 Sb1 3.523680 1_555
Ba10 Sb3 3.553193 1_555
Ba10 Sb12 3.691228 1_555
Ba10 Sb8 3.698302 1_555
Ba10 Sb9 3.909637 1_455
Ba11 Sb4 3.512706 1_555
Ba11 Sb0 3.523680 1_546
Ba11 Sb2 3.553193 1_555
Ba11 Sb13 3.691228 1_545
Ba11 Sb9 3.698302 1_555
Ba11 Sb8 3.909637 1_555
Ba12 Sb3 3.512706 1_555
Ba12 Sb7 3.523680 1_545
Ba12 Sb5 3.553193 1_555
Ba12 Sb13 3.691228 1_545
Ba12 Sb9 3.698302 1_555
Ba12 Sb8 3.909637 1_555
Ba13 Sb2 3.512706 1_455
Ba13 Sb6 3.523680 1_556
Ba13 Sb4 3.553193 1_555
Ba13 Sb12 3.691228 1_555
Ba13 Sb8 3.698302 1_555
Ba13 Sb9 3.909637 1_455
Ba14 Sb1 3.512706 1_655
Ba14 Sb5 3.523680 1_555
Ba14 Sb7 3.553193 1_555
Ba14 Sb15 3.691228 1_555
Ba14 Sb11 3.698302 1_555
Ba14 Sb10 3.909637 1_655
Ba15 Sb0 3.512706 1_555
Ba15 Sb4 3.523680 1_564
Ba15 Sb6 3.553193 1_555
Ba15 Sb14 3.691228 1_565
Ba15 Sb10 3.698302 1_555
Ba15 Sb11 3.909637 1_555
Ba16 Sb3 3.569947 1_555
Ba16 Sb4 3.569947 1_555
Ba16 Sb9 3.676187 1_455
Ba16 Sb12 3.698147 1_545
Ba16 Sb13 3.705137 1_545
Ba16 Sb8 3.722271 1_555
Ba17 Sb5 3.569947 1_555
Ba17 Sb2 3.569947 1_555
Ba17 Sb8 3.676187 1_555
Ba17 Sb13 3.698147 1_555
Ba17 Sb12 3.705137 1_655
Ba17 Sb9 3.722271 1_555
Ba18 Sb1 3.569947 1_555
Ba18 Sb6 3.569947 1_555
Ba18 Sb11 3.676187 1_555
Ba18 Sb14 3.698147 1_555
Ba18 Sb15 3.705137 1_455
Ba18 Sb10 3.722271 1_555
Ba19 Sb0 3.569947 1_555
Ba19 Sb7 3.569947 1_555
Ba19 Sb10 3.676187 1_655
Ba19 Sb15 3.698147 1_565
Ba19 Sb14 3.705137 1_565
Ba19 Sb11 3.722271 1_555
Sb10 Sb14 2.911547 1_565
Sb11 Sb15 2.911547 1_555
Sb12 Sb8 2.911547 1_555
Sb13 Sb9 2.911547 1_565
