# generated using pymatgen
data_Mg4SO18
_symmetry_space_group_name_H-M   'P 1'
_cell_length_a   5.89923757
_cell_length_b   5.89923757
_cell_length_c   20.19629370
_cell_angle_alpha   91.07680102
_cell_angle_beta   91.07680102
_cell_angle_gamma   100.94078236
_symmetry_Int_Tables_number   1
_chemical_formula_structural   Mg4SO18
_chemical_formula_sum   'Mg8 S2 O36'
_cell_volume   689.77531252
_cell_formula_units_Z   2
loop_
 _symmetry_equiv_pos_site_id
 _symmetry_equiv_pos_as_xyz
  1  'x, y, z'
loop_
 _atom_site_type_symbol
 _atom_site_label
 _atom_site_symmetry_multiplicity
 _atom_site_fract_x
 _atom_site_fract_y
 _atom_site_fract_z
 _atom_site_occupancy
  Mg  Mg0  1  0.45065200  0.31651800  0.94608200  1
  Mg  Mg1  1  0.68348200  0.54934800  0.55391800  1
  Mg  Mg2  1  0.54934800  0.68348200  0.05391800  1
  Mg  Mg3  1  0.31651800  0.45065200  0.44608200  1
  Mg  Mg4  1  0.95977800  0.23096500  0.01695500  1
  Mg  Mg5  1  0.76903500  0.04022200  0.48304500  1
  Mg  Mg6  1  0.04022200  0.76903500  0.98304500  1
  Mg  Mg7  1  0.23096500  0.95977800  0.51695500  1
  S  S0  1  0.82718900  0.17281100  0.25000000  1
  S  S1  1  0.17281100  0.82718900  0.75000000  1
  O  O0  1  0.07876600  0.24198700  0.26412400  1
  O  O1  1  0.75801300  0.92123400  0.23587600  1
  O  O2  1  0.92123400  0.75801300  0.73587600  1
  O  O3  1  0.24198700  0.07876600  0.76412400  1
  O  O4  1  0.77024000  0.29532700  0.19000900  1
  O  O5  1  0.70467300  0.22976000  0.30999100  1
  O  O6  1  0.22976000  0.70467300  0.80999100  1
  O  O7  1  0.29532700  0.77024000  0.69000900  1
  O  O8  1  0.89496900  0.31789600  0.82196500  1
  O  O9  1  0.68210400  0.10503100  0.67803500  1
  O  O10  1  0.10503100  0.68210400  0.17803500  1
  O  O11  1  0.31789600  0.89496900  0.32196500  1
  O  O12  1  0.69758000  0.35606800  0.82234900  1
  O  O13  1  0.64393200  0.30242000  0.67765100  1
  O  O14  1  0.30242000  0.64393200  0.17765100  1
  O  O15  1  0.35606800  0.69758000  0.32234900  1
  O  O16  1  0.34988800  0.01710100  0.08347900  1
  O  O17  1  0.98289900  0.65011200  0.41652100  1
  O  O18  1  0.65011200  0.98289900  0.91652100  1
  O  O19  1  0.01710100  0.34988800  0.58347900  1
  O  O20  1  0.68209800  0.39730000  0.02725300  1
  O  O21  1  0.60270000  0.31790200  0.47274700  1
  O  O22  1  0.31790200  0.60270000  0.97274700  1
  O  O23  1  0.39730000  0.68209800  0.52725300  1
  O  O24  1  0.81506100  0.91054300  0.03641900  1
  O  O25  1  0.08945700  0.18493900  0.46358100  1
  O  O26  1  0.18493900  0.08945700  0.96358100  1
  O  O27  1  0.91054300  0.81506100  0.53641900  1
  O  O28  1  0.79171100  0.46373400  0.96005900  1
  O  O29  1  0.53626600  0.20828900  0.53994100  1
  O  O30  1  0.20828900  0.53626600  0.03994100  1
  O  O31  1  0.46373400  0.79171100  0.46005900  1
  O  O32  1  0.15932000  0.31569300  0.62611600  1
  O  O33  1  0.68430700  0.84068000  0.87388400  1
  O  O34  1  0.84068000  0.68430700  0.37388400  1
  O  O35  1  0.31569300  0.15932000  0.12611600  1
loop_
_geom_bond_atom_site_label_1
_geom_bond_atom_site_label_2
_geom_bond_distance
_geom_bond_site_symmetry_2
Mg0 O26 1.902053 1_555
Mg0 O28 2.046504 1_555
Mg0 O22 2.058409 1_555
Mg0 O20 2.101976 1_556
Mg0 O18 2.544733 1_545
Mg1 O27 1.902053 1_555
Mg1 O29 2.046504 1_555
Mg1 O23 2.058409 1_555
Mg1 O21 2.101976 1_555
Mg1 O19 2.544733 1_655
Mg2 O24 1.902053 1_555
Mg2 O30 2.046504 1_555
Mg2 O20 2.058409 1_555
Mg2 O22 2.101976 1_554
Mg2 O16 2.544733 1_565
Mg3 O25 1.902053 1_555
Mg3 O31 2.046504 1_555
Mg3 O21 2.058409 1_555
Mg3 O23 2.101976 1_555
Mg3 O17 2.544733 1_455
Mg4 O24 1.970883 1_545
Mg4 O26 2.015957 1_654
Mg4 O20 2.074791 1_555
Mg4 O30 2.132894 1_655
Mg4 O28 2.173074 1_554
Mg5 O25 1.970883 1_655
Mg5 O27 2.015957 1_545
Mg5 O21 2.074791 1_555
Mg5 O31 2.132894 1_545
Mg5 O29 2.173074 1_555
Mg6 O26 1.970883 1_565
Mg6 O24 2.015957 1_456
Mg6 O22 2.074791 1_555
Mg6 O28 2.132894 1_455
Mg6 O30 2.173074 1_556
Mg7 O27 1.970883 1_455
Mg7 O25 2.015957 1_565
Mg7 O23 2.074791 1_555
Mg7 O29 2.132894 1_565
Mg7 O31 2.173074 1_555
O0 S0 1.483344 1_455
O1 S0 1.483344 1_565
O2 S1 1.483344 1_655
O3 S1 1.483344 1_545
O4 S0 1.487610 1_555
O5 S0 1.487610 1_555
O6 S1 1.487610 1_555
O7 S1 1.487610 1_555
O10 O14 1.227399 1_555
O11 O15 1.227399 1_555
O12 O8 1.227399 1_555
O13 O9 1.227399 1_555
O16 O35 1.236816 1_555
O17 O34 1.236816 1_555
O18 O33 1.236816 1_555
O19 O32 1.236816 1_555
O20 O28 1.539526 1_554
O21 O29 1.539526 1_555
O22 O30 1.539526 1_556
O23 O31 1.539526 1_555
