# generated using pymatgen
data_Ca2Bi3(PO4)3
_symmetry_space_group_name_H-M   'P 1'
_cell_length_a   9.67478871
_cell_length_b   9.67478871
_cell_length_c   7.09568000
_cell_angle_alpha   90.00000000
_cell_angle_beta   90.00000000
_cell_angle_gamma   120.00000483
_symmetry_Int_Tables_number   1
_chemical_formula_structural   Ca2Bi3(PO4)3
_chemical_formula_sum   'Ca4 Bi6 P6 O24'
_cell_volume   575.18507718
_cell_formula_units_Z   2
loop_
 _symmetry_equiv_pos_site_id
 _symmetry_equiv_pos_as_xyz
  1  'x, y, z'
loop_
 _atom_site_type_symbol
 _atom_site_label
 _atom_site_symmetry_multiplicity
 _atom_site_fract_x
 _atom_site_fract_y
 _atom_site_fract_z
 _atom_site_occupancy
  Ca  Ca0  1  0.33333300  0.66666700  0.99556800  1
  Ca  Ca1  1  0.66666700  0.33333300  0.00443200  1
  Ca  Ca2  1  0.66666700  0.33333300  0.49556800  1
  Ca  Ca3  1  0.33333300  0.66666700  0.50443200  1
  Bi  Bi0  1  0.80242900  0.79156800  0.75000000  1
  Bi  Bi1  1  0.19757100  0.20843200  0.25000000  1
  Bi  Bi2  1  0.98913900  0.19757100  0.75000000  1
  Bi  Bi3  1  0.01086100  0.80242900  0.25000000  1
  Bi  Bi4  1  0.20843200  0.01086100  0.75000000  1
  Bi  Bi5  1  0.79156800  0.98913900  0.25000000  1
  P  P0  1  0.96794100  0.58784700  0.75000000  1
  P  P1  1  0.03205900  0.41215300  0.25000000  1
  P  P2  1  0.61990500  0.03205900  0.75000000  1
  P  P3  1  0.38009500  0.96794100  0.25000000  1
  P  P4  1  0.41215300  0.38009500  0.75000000  1
  P  P5  1  0.58784700  0.61990500  0.25000000  1
  O  O0  1  0.86648800  0.40364500  0.75000000  1
  O  O1  1  0.13351200  0.59635500  0.25000000  1
  O  O2  1  0.53715700  0.13351200  0.75000000  1
  O  O3  1  0.46284300  0.86648800  0.25000000  1
  O  O4  1  0.59635500  0.46284300  0.75000000  1
  O  O5  1  0.40364500  0.53715700  0.25000000  1
  O  O6  1  0.91383500  0.65090500  0.92517800  1
  O  O7  1  0.08616500  0.34909500  0.07482200  1
  O  O8  1  0.73707000  0.08616500  0.92517800  1
  O  O9  1  0.08616500  0.34909500  0.42517800  1
  O  O10  1  0.26293000  0.91383500  0.07482200  1
  O  O11  1  0.91383500  0.65090500  0.57482200  1
  O  O12  1  0.34909500  0.26293000  0.92517800  1
  O  O13  1  0.26293000  0.91383500  0.42517800  1
  O  O14  1  0.65090500  0.73707000  0.07482200  1
  O  O15  1  0.73707000  0.08616500  0.57482200  1
  O  O16  1  0.65090500  0.73707000  0.42517800  1
  O  O17  1  0.34909500  0.26293000  0.57482200  1
  O  O18  1  0.50213500  0.85222400  0.75000000  1
  O  O19  1  0.49786500  0.14777600  0.25000000  1
  O  O20  1  0.35008900  0.49786500  0.75000000  1
  O  O21  1  0.64991100  0.50213500  0.25000000  1
  O  O22  1  0.14777600  0.64991100  0.75000000  1
  O  O23  1  0.85222400  0.35008900  0.25000000  1
loop_
_geom_bond_atom_site_label_1
_geom_bond_atom_site_label_2
_geom_bond_distance
_geom_bond_site_symmetry_2
Ca0 O22 2.448325 1_555
Ca0 O18 2.448328 1_555
Ca0 O20 2.448332 1_555
Ca0 O1 2.478785 1_556
Ca0 O3 2.478787 1_556
Ca0 O5 2.478792 1_556
Ca0 O10 2.850841 1_556
Ca0 O7 2.850847 1_556
Ca0 O14 2.850850 1_556
Ca1 O23 2.448325 1_555
Ca1 O19 2.448328 1_555
Ca1 O21 2.448332 1_555
Ca1 O0 2.478785 1_554
Ca1 O2 2.478787 1_554
Ca1 O4 2.478792 1_554
Ca1 O8 2.850841 1_554
Ca1 O6 2.850847 1_554
Ca1 O12 2.850850 1_554
Ca2 O23 2.448325 1_555
Ca2 O19 2.448328 1_555
Ca2 O21 2.448332 1_555
Ca2 O0 2.478785 1_555
Ca2 O2 2.478787 1_555
Ca2 O4 2.478792 1_555
Ca2 O15 2.850841 1_555
Ca2 O11 2.850847 1_555
Ca2 O17 2.850850 1_555
Ca3 O22 2.448325 1_555
Ca3 O18 2.448328 1_555
Ca3 O20 2.448332 1_555
Ca3 O1 2.478785 1_555
Ca3 O3 2.478787 1_555
Ca3 O5 2.478792 1_555
Ca3 O13 2.850841 1_555
Ca3 O9 2.850847 1_555
Ca3 O16 2.850850 1_555
Bi0 O6 2.454708 1_555
Bi0 O11 2.454708 1_555
Bi0 O14 2.639387 1_556
Bi0 O16 2.639387 1_555
Bi0 O4 2.783666 1_555
Bi1 O7 2.454708 1_555
Bi1 O9 2.454708 1_555
Bi1 O12 2.639387 1_554
Bi1 O17 2.639387 1_555
Bi1 O5 2.783666 1_555
Bi2 O15 2.454708 1_555
Bi2 O8 2.454708 1_555
Bi2 O7 2.639387 1_656
Bi2 O9 2.639387 1_655
Bi2 O0 2.783666 1_555
Bi3 O13 2.454708 1_555
Bi3 O10 2.454708 1_555
Bi3 O11 2.639387 1_455
Bi3 O6 2.639387 1_454
Bi3 O1 2.783666 1_555
Bi4 O17 2.454708 1_555
Bi4 O12 2.454708 1_555
Bi4 O10 2.639387 1_546
Bi4 O13 2.639387 1_545
Bi4 O2 2.783666 1_555
Bi5 O16 2.454708 1_555
Bi5 O14 2.454708 1_555
Bi5 O15 2.639387 1_565
Bi5 O8 2.639387 1_564
Bi5 O3 2.783666 1_555
O0 P0 1.546007 1_555
O1 P1 1.546007 1_555
O2 P2 1.545999 1_555
O3 P3 1.545999 1_555
O4 P4 1.546008 1_555
O5 P5 1.546008 1_555
O6 P0 1.584494 1_555
O7 P1 1.584494 1_555
O8 P2 1.584499 1_555
O9 P1 1.584494 1_555
O10 P3 1.584499 1_555
O11 P0 1.584494 1_555
O12 P4 1.584499 1_555
O13 P3 1.584499 1_555
O14 P5 1.584499 1_555
O15 P2 1.584499 1_555
O16 P5 1.584499 1_555
O17 P4 1.584499 1_555
O18 P2 1.530674 1_565
O19 P3 1.530674 1_545
O20 P4 1.530666 1_555
O21 P5 1.530666 1_555
O22 P0 1.530675 1_455
O23 P1 1.530675 1_655
