# generated using pymatgen
data_LiMg4SnO8
_symmetry_space_group_name_H-M   'P 1'
_cell_length_a   6.06453083
_cell_length_b   6.06453083
_cell_length_c   10.02726500
_cell_angle_alpha   90.00000000
_cell_angle_beta   90.00000000
_cell_angle_gamma   120.00000905
_symmetry_Int_Tables_number   1
_chemical_formula_structural   LiMg4SnO8
_chemical_formula_sum   'Li2 Mg8 Sn2 O16'
_cell_volume   319.37984151
_cell_formula_units_Z   2
loop_
 _symmetry_equiv_pos_site_id
 _symmetry_equiv_pos_as_xyz
  1  'x, y, z'
loop_
 _atom_site_type_symbol
 _atom_site_label
 _atom_site_symmetry_multiplicity
 _atom_site_fract_x
 _atom_site_fract_y
 _atom_site_fract_z
 _atom_site_occupancy
  Li  Li0  1  0.00000000  0.00000000  0.82099900  1
  Li  Li1  1  0.00000000  0.00000000  0.32099900  1
  Mg  Mg0  1  0.82940400  0.65880800  0.60248800  1
  Mg  Mg1  1  0.82940400  0.17059600  0.60248800  1
  Mg  Mg2  1  0.17059600  0.34119200  0.10248800  1
  Mg  Mg3  1  0.34119200  0.17059600  0.60248800  1
  Mg  Mg4  1  0.17059600  0.82940400  0.10248800  1
  Mg  Mg5  1  0.65880800  0.82940400  0.10248800  1
  Mg  Mg6  1  0.66666700  0.33333300  0.91163400  1
  Mg  Mg7  1  0.33333300  0.66666700  0.41163400  1
  Sn  Sn0  1  0.66666700  0.33333300  0.32610700  1
  Sn  Sn1  1  0.33333300  0.66666700  0.82610700  1
  O  O0  1  0.48461900  0.96923800  0.96859300  1
  O  O1  1  0.48461900  0.51538100  0.96859300  1
  O  O2  1  0.51538100  0.03076200  0.46859300  1
  O  O3  1  0.03076200  0.51538100  0.96859300  1
  O  O4  1  0.51538100  0.48461900  0.46859300  1
  O  O5  1  0.96923800  0.48461900  0.46859300  1
  O  O6  1  0.66666700  0.33333300  0.71426000  1
  O  O7  1  0.33333300  0.66666700  0.21426000  1
  O  O8  1  0.16377600  0.32755200  0.71952400  1
  O  O9  1  0.16377600  0.83622400  0.71952400  1
  O  O10  1  0.83622400  0.67244800  0.21952400  1
  O  O11  1  0.67244800  0.83622400  0.71952400  1
  O  O12  1  0.83622400  0.16377600  0.21952400  1
  O  O13  1  0.32755200  0.16377600  0.21952400  1
  O  O14  1  0.00000000  0.00000000  0.00518500  1
  O  O15  1  0.00000000  0.00000000  0.50518500  1
loop_
_geom_bond_atom_site_label_1
_geom_bond_atom_site_label_2
_geom_bond_distance
_geom_bond_site_symmetry_2
Li0 O14 1.846882 1_556
Li0 O8 1.998706 1_555
Li0 O11 1.998706 1_445
Li0 O9 1.998706 1_545
Li1 O15 1.846882 1_555
Li1 O13 1.998706 1_555
Li1 O10 1.998706 1_445
Li1 O12 1.998706 1_455
Mg0 O15 2.040356 1_665
Mg0 O6 2.044062 1_555
Mg0 O9 2.113073 1_655
Mg0 O11 2.113073 1_555
Mg0 O4 2.129199 1_555
Mg0 O5 2.129199 1_555
Mg1 O15 2.040356 1_655
Mg1 O6 2.044058 1_555
Mg1 O11 2.113073 1_545
Mg1 O8 2.113073 1_655
Mg1 O2 2.129199 1_555
Mg1 O5 2.129199 1_555
Mg2 O14 2.040356 1_555
Mg2 O7 2.044062 1_555
Mg2 O12 2.113073 1_455
Mg2 O13 2.113073 1_555
Mg2 O1 2.129199 1_554
Mg2 O3 2.129199 1_554
Mg3 O15 2.040356 1_555
Mg3 O6 2.044062 1_555
Mg3 O9 2.113073 1_545
Mg3 O8 2.113073 1_555
Mg3 O4 2.129199 1_555
Mg3 O2 2.129199 1_555
Mg4 O14 2.040356 1_565
Mg4 O7 2.044058 1_555
Mg4 O10 2.113073 1_455
Mg4 O13 2.113073 1_565
Mg4 O3 2.129199 1_554
Mg4 O0 2.129199 1_554
Mg5 O14 2.040356 1_665
Mg5 O7 2.044062 1_555
Mg5 O12 2.113073 1_565
Mg5 O10 2.113073 1_555
Mg5 O1 2.129199 1_554
Mg5 O0 2.129199 1_554
Mg6 O6 1.979121 1_555
Mg6 O3 1.995712 1_655
Mg6 O0 1.995712 1_545
Mg6 O1 1.995718 1_555
Mg7 O7 1.979121 1_555
Mg7 O2 1.995712 1_565
Mg7 O5 1.995712 1_455
Mg7 O4 1.995718 1_555
O0 Sn1 2.136959 1_555
O1 Sn1 2.136964 1_555
O2 Sn0 2.136959 1_555
O3 Sn1 2.136959 1_555
O4 Sn0 2.136964 1_555
O5 Sn0 2.136959 1_555
O8 Sn1 2.077093 1_555
O9 Sn1 2.077089 1_555
O10 Sn0 2.077093 1_555
O11 Sn1 2.077093 1_555
O12 Sn0 2.077089 1_555
O13 Sn0 2.077093 1_555
