# generated using pymatgen
data_EuGaGe
_symmetry_space_group_name_H-M   'P 1'
_cell_length_a   4.22657816
_cell_length_b   4.22657816
_cell_length_c   17.98233971
_cell_angle_alpha   90.00000000
_cell_angle_beta   90.00000000
_cell_angle_gamma   119.99999408
_symmetry_Int_Tables_number   1
_chemical_formula_structural   EuGaGe
_chemical_formula_sum   'Eu4 Ga4 Ge4'
_cell_volume   278.19842371
_cell_formula_units_Z   4
loop_
 _symmetry_equiv_pos_site_id
 _symmetry_equiv_pos_as_xyz
  1  'x, y, z'
loop_
 _atom_site_type_symbol
 _atom_site_label
 _atom_site_symmetry_multiplicity
 _atom_site_fract_x
 _atom_site_fract_y
 _atom_site_fract_z
 _atom_site_occupancy
  Eu  Eu0  1  0.00000000  -0.00000000  0.50000000  1
  Eu  Eu1  1  0.00000000  -0.00000000  0.00000000  1
  Eu  Eu2  1  0.00000000  -0.00000000  0.25000000  1
  Eu  Eu3  1  0.00000000  -0.00000000  0.75000000  1
  Ga  Ga0  1  0.66666700  0.33333300  0.35484396  1
  Ga  Ga1  1  0.33333300  0.66666700  0.64515604  1
  Ga  Ga2  1  0.33333300  0.66666700  0.85484396  1
  Ga  Ga3  1  0.66666700  0.33333300  0.14515604  1
  Ge  Ge0  1  0.33333300  0.66666700  0.38768763  1
  Ge  Ge1  1  0.66666700  0.33333300  0.61231237  1
  Ge  Ge2  1  0.66666700  0.33333300  0.88768763  1
  Ge  Ge3  1  0.33333300  0.66666700  0.11231237  1
loop_
_geom_bond_atom_site_label_1
_geom_bond_atom_site_label_2
_geom_bond_distance
_geom_bond_site_symmetry_2
Eu0 Ge0 3.167583 1_545
Eu0 Ge1 3.167583 1_455
Eu0 Ge0 3.167586 1_555
Eu0 Ge0 3.167586 1_445
Eu0 Ge1 3.167586 1_445
Eu0 Ge1 3.167586 1_555
Eu1 Ge3 3.167583 1_545
Eu1 Ge2 3.167583 1_454
Eu1 Ge3 3.167586 1_555
Eu1 Ge3 3.167586 1_445
Eu1 Ge2 3.167586 1_444
Eu1 Ge2 3.167586 1_554
Eu2 Ga0 3.083691 1_455
Eu2 Ga3 3.083691 1_455
Eu2 Ga0 3.083694 1_555
Eu2 Ga3 3.083694 1_445
Eu2 Ga0 3.083694 1_445
Eu2 Ga3 3.083694 1_555
Eu2 Ge0 3.476341 1_545
Eu2 Ge3 3.476341 1_545
Eu2 Ge3 3.476344 1_445
Eu2 Ge0 3.476344 1_555
Eu2 Ge3 3.476344 1_555
Eu2 Ge0 3.476344 1_445
Eu3 Ga2 3.083691 1_545
Eu3 Ga1 3.083691 1_545
Eu3 Ga1 3.083694 1_445
Eu3 Ga2 3.083694 1_555
Eu3 Ga1 3.083694 1_555
Eu3 Ga2 3.083694 1_445
Eu3 Ge1 3.476341 1_455
Eu3 Ge2 3.476341 1_455
Eu3 Ge1 3.476344 1_445
Eu3 Ge2 3.476344 1_555
Eu3 Ge1 3.476344 1_555
Eu3 Ge2 3.476344 1_445
Ga0 Ge0 2.510669 1_545
Ga0 Ge0 2.510669 1_655
Ga0 Ge0 2.510676 1_555
Ga1 Ge1 2.510669 1_455
Ga1 Ge1 2.510669 1_565
Ga1 Ge1 2.510676 1_555
Ga2 Ge2 2.510669 1_455
Ga2 Ge2 2.510669 1_565
Ga2 Ge2 2.510676 1_555
Ga3 Ge3 2.510669 1_545
Ga3 Ge3 2.510669 1_655
Ga3 Ge3 2.510676 1_555
