# generated using pymatgen
data_Ce3S3O16
_symmetry_space_group_name_H-M   'P 1'
_cell_length_a   9.35949059
_cell_length_b   9.35949059
_cell_length_c   9.35949059
_cell_angle_alpha   108.64040697
_cell_angle_beta   108.64040697
_cell_angle_gamma   111.14594021
_symmetry_Int_Tables_number   1
_chemical_formula_structural   Ce3S3O16
_chemical_formula_sum   'Ce6 S6 O32'
_cell_volume   630.74738230
_cell_formula_units_Z   2
loop_
 _symmetry_equiv_pos_site_id
 _symmetry_equiv_pos_as_xyz
  1  'x, y, z'
loop_
 _atom_site_type_symbol
 _atom_site_label
 _atom_site_symmetry_multiplicity
 _atom_site_fract_x
 _atom_site_fract_y
 _atom_site_fract_z
 _atom_site_occupancy
  Ce  Ce0  1  0.24723800  0.24723800  0.00000000  1
  Ce  Ce1  1  0.75276200  0.75276200  0.00000000  1
  Ce  Ce2  1  0.75815100  0.03124800  0.78939900  1
  Ce  Ce3  1  0.24184900  0.96875200  0.21060100  1
  Ce  Ce4  1  0.96875200  0.75815100  0.72690300  1
  Ce  Ce5  1  0.03124800  0.24184900  0.27309700  1
  S  S0  1  0.25000000  0.75000000  0.50000000  1
  S  S1  1  0.75000000  0.25000000  0.50000000  1
  S  S2  1  0.71904200  0.37165100  0.09069300  1
  S  S3  1  0.28095800  0.62834900  0.90930700  1
  S  S4  1  0.62834900  0.71904200  0.34739100  1
  S  S5  1  0.37165100  0.28095800  0.65260900  1
  O  O0  1  0.01886800  0.25492400  0.02940600  1
  O  O1  1  0.22551800  0.98946200  0.97059400  1
  O  O2  1  0.98946200  0.01886800  0.76394300  1
  O  O3  1  0.25492400  0.22551800  0.23605700  1
  O  O4  1  0.98113200  0.74507600  0.97059400  1
  O  O5  1  0.77448200  0.01053800  0.02940600  1
  O  O6  1  0.01053800  0.98113200  0.23605700  1
  O  O7  1  0.74507600  0.77448200  0.76394300  1
  O  O8  1  0.77315800  0.21843200  0.64961400  1
  O  O9  1  0.56881800  0.12354400  0.35038600  1
  O  O10  1  0.12354400  0.77315800  0.55472600  1
  O  O11  1  0.21843200  0.56881800  0.44527400  1
  O  O12  1  0.22684200  0.78156800  0.35038600  1
  O  O13  1  0.43118200  0.87645600  0.64961400  1
  O  O14  1  0.87645600  0.22684200  0.44527400  1
  O  O15  1  0.78156800  0.43118200  0.55472600  1
  O  O16  1  0.78459100  0.54767800  0.10314100  1
  O  O17  1  0.44453700  0.68145100  0.89685900  1
  O  O18  1  0.68145100  0.78459100  0.23691400  1
  O  O19  1  0.54767800  0.44453700  0.76308600  1
  O  O20  1  0.21540900  0.45232200  0.89685900  1
  O  O21  1  0.55546300  0.31854900  0.10314100  1
  O  O22  1  0.31854900  0.21540900  0.76308600  1
  O  O23  1  0.45232200  0.55546300  0.23691400  1
  O  O24  1  0.68155700  0.24113800  0.92269500  1
  O  O25  1  0.31844300  0.75886200  0.07730500  1
  O  O26  1  0.75886200  0.68155700  0.44041800  1
  O  O27  1  0.24113800  0.31844300  0.55958200  1
  O  O28  1  0.85394900  0.38405500  0.23800400  1
  O  O29  1  0.14605100  0.61594500  0.76199600  1
  O  O30  1  0.61594500  0.85394900  0.46989400  1
  O  O31  1  0.38405500  0.14605100  0.53010600  1
loop_
_geom_bond_atom_site_label_1
_geom_bond_atom_site_label_2
_geom_bond_distance
_geom_bond_site_symmetry_2
Ce0 O0 2.263593 1_555
Ce0 O1 2.263593 1_544
Ce0 O2 2.263596 1_454
Ce0 O3 2.263603 1_555
Ce0 O20 2.473519 1_554
Ce0 O23 2.473521 1_555
Ce0 O21 2.473521 1_555
Ce0 O22 2.473522 1_554
Ce1 O5 2.263593 1_565
Ce1 O4 2.263593 1_554
Ce1 O6 2.263596 1_655
Ce1 O7 2.263603 1_554
Ce1 O16 2.473519 1_555
Ce1 O19 2.473521 1_554
Ce1 O17 2.473521 1_554
Ce1 O18 2.473522 1_555
Ce2 O0 2.277548 1_656
Ce2 O5 2.277548 1_556
Ce2 O7 2.291345 1_545
Ce2 O2 2.291351 1_555
Ce2 O24 2.439382 1_555
Ce2 O30 2.481459 1_545
Ce2 O8 2.491166 1_555
Ce2 O13 2.491166 1_545
Ce3 O4 2.277548 1_454
Ce3 O1 2.277548 1_554
Ce3 O3 2.291345 1_565
Ce3 O6 2.291351 1_555
Ce3 O25 2.439382 1_555
Ce3 O31 2.481459 1_565
Ce3 O12 2.491166 1_555
Ce3 O9 2.491166 1_565
Ce4 O7 2.277544 1_555
Ce4 O2 2.277550 1_565
Ce4 O4 2.291347 1_555
Ce4 O1 2.291347 1_655
Ce4 O26 2.439389 1_555
Ce4 O29 2.481459 1_655
Ce4 O15 2.491166 1_555
Ce4 O10 2.491166 1_655
Ce5 O3 2.277544 1_555
Ce5 O6 2.277550 1_545
Ce5 O0 2.291347 1_555
Ce5 O5 2.291347 1_455
Ce5 O27 2.439389 1_555
Ce5 O28 2.481459 1_455
Ce5 O14 2.491166 1_455
Ce5 O11 2.491166 1_555
O8 S1 1.487216 1_555
O9 S1 1.487216 1_555
O10 S0 1.487216 1_555
O11 S0 1.487216 1_555
O12 S0 1.487216 1_555
O13 S0 1.487216 1_555
O14 S1 1.487216 1_555
O15 S1 1.487216 1_555
O16 S2 1.485477 1_555
O17 S3 1.485477 1_555
O18 S4 1.485472 1_555
O19 S5 1.485477 1_555
O20 S3 1.485477 1_555
O21 S2 1.485477 1_555
O22 S5 1.485472 1_555
O23 S4 1.485477 1_555
O24 S2 1.482540 1_556
O25 S3 1.482540 1_554
O26 S4 1.482537 1_555
O27 S5 1.482537 1_555
O28 S2 1.479119 1_555
O29 S3 1.479119 1_555
O30 S4 1.479119 1_555
O31 S5 1.479119 1_555
