# generated using pymatgen
data_Li9Mn2Co5O16
_symmetry_space_group_name_H-M   'P 1'
_cell_length_a   5.18378700
_cell_length_b   5.90270213
_cell_length_c   10.35546412
_cell_angle_alpha   104.52620185
_cell_angle_beta   95.05692489
_cell_angle_gamma   108.58854211
_symmetry_Int_Tables_number   1
_chemical_formula_structural   Li9Mn2Co5O16
_chemical_formula_sum   'Li9 Mn2 Co5 O16'
_cell_volume   285.80868860
_cell_formula_units_Z   1
loop_
 _symmetry_equiv_pos_site_id
 _symmetry_equiv_pos_as_xyz
  1  'x, y, z'
loop_
 _atom_site_type_symbol
 _atom_site_label
 _atom_site_symmetry_multiplicity
 _atom_site_fract_x
 _atom_site_fract_y
 _atom_site_fract_z
 _atom_site_occupancy
  Li  Li0  1  0.36980500  0.80603400  0.13226800  1
  Li  Li1  1  0.12303200  0.93323400  0.37686900  1
  Li  Li2  1  0.87262300  0.05763600  0.61805900  1
  Li  Li3  1  0.62777700  0.19376000  0.87337900  1
  Li  Li4  1  0.36498400  0.31288400  0.13117000  1
  Li  Li5  1  0.12800000  0.44150700  0.37934400  1
  Li  Li6  1  0.88559700  0.56925100  0.61632600  1
  Li  Li7  1  0.62455300  0.68078700  0.87509100  1
  Li  Li8  1  0.50287400  0.75681400  0.49632900  1
  Mn  Mn0  1  0.00353000  0.99563100  0.00207300  1
  Mn  Mn1  1  0.25444200  0.87642600  0.74857400  1
  Co  Co0  1  0.74623500  0.11893600  0.25176900  1
  Co  Co1  1  0.51597500  0.25559000  0.49307000  1
  Co  Co2  1  0.25598900  0.38287400  0.73713500  1
  Co  Co3  1  0.00182400  0.49433100  0.00087800  1
  Co  Co4  1  0.73788800  0.62754000  0.25276800  1
  O  O0  1  0.70388100  0.66955800  0.06833400  1
  O  O1  1  0.45996300  0.80709000  0.30798900  1
  O  O2  1  0.19730600  0.92081100  0.57591500  1
  O  O3  1  0.96274800  0.01858700  0.82144400  1
  O  O4  1  0.73193400  0.15170600  0.05853500  1
  O  O5  1  0.44895000  0.30283400  0.31056400  1
  O  O6  1  0.18693700  0.40048100  0.57436200  1
  O  O7  1  0.96094300  0.54243000  0.82043600  1
  O  O8  1  0.05269400  0.94868400  0.17916100  1
  O  O9  1  0.79958900  0.10679700  0.42528400  1
  O  O10  1  0.54229600  0.20495300  0.69121500  1
  O  O11  1  0.29665100  0.32090500  0.93568400  1
  O  O12  1  0.03565400  0.44902200  0.17684300  1
  O  O13  1  0.79782300  0.58340600  0.42972100  1
  O  O14  1  0.52932700  0.72933900  0.70006100  1
  O  O15  1  0.27817700  0.84016200  0.93935100  1
loop_
_geom_bond_atom_site_label_1
_geom_bond_atom_site_label_2
_geom_bond_distance
_geom_bond_site_symmetry_2
Li0 O1 1.836355 1_555
Li0 O15 2.086331 1_554
Li0 O8 2.113068 1_555
Li0 O0 2.215929 1_555
Li1 O8 2.077546 1_555
Li1 O2 2.087136 1_555
Li1 O1 2.212699 1_555
Li1 O9 2.257825 1_465
Li1 O13 2.432224 1_455
Li1 O5 2.586781 1_565
Li2 O9 2.107143 1_555
Li2 O2 2.120100 1_645
Li2 O3 2.201354 1_555
Li2 O10 2.260465 1_555
Li2 O6 2.332829 1_655
Li2 O14 2.556659 1_545
Li3 O10 1.921723 1_555
Li3 O4 2.042346 1_556
Li3 O11 2.167828 1_555
Li3 Mn1 2.226618 1_545
Li3 O3 2.324623 1_555
Li3 O7 2.446614 1_555
Li3 O15 2.574758 1_545
Li4 O5 1.890304 1_555
Li4 O11 2.039132 1_554
Li4 O12 2.147135 1_555
Li4 Mn0 2.206883 1_545
Li4 O8 2.438887 1_545
Li4 O4 2.477144 1_555
Li4 O0 2.544179 1_555
Li5 O6 2.100976 1_555
Li5 O12 2.124084 1_555
Li5 O5 2.174857 1_555
Li5 O13 2.180675 1_455
Li5 O9 2.344746 1_455
Li6 O13 1.974420 1_555
Li6 O6 2.125079 1_655
Li6 O7 2.169538 1_555
Li6 Mn1 2.213907 1_655
Li6 O2 2.347211 1_655
Li6 O14 2.457535 1_555
Li7 O14 1.950400 1_555
Li7 O0 2.028996 1_556
Li7 O7 2.208639 1_555
Li7 Mn0 2.243511 1_656
Li7 O15 2.350589 1_555
Li7 O3 2.420048 1_565
Li7 O11 2.519951 1_555
Li8 O1 2.048746 1_555
Li8 O14 2.151957 1_555
Li8 O13 2.165794 1_555
Li8 O2 2.221002 1_555
Li8 O9 2.472022 1_565
Mn0 O3 1.907226 1_464
Mn0 O8 1.929308 1_555
Mn0 O4 1.968396 1_465
Mn0 O15 1.996985 1_554
Mn1 O2 1.882626 1_555
Mn1 O14 1.932038 1_555
Mn1 O15 2.037147 1_555
Mn1 O3 2.062133 1_465
Mn1 O10 2.286733 1_565
Co0 O9 1.816544 1_555
Co0 O4 2.055282 1_555
Co0 O5 2.196412 1_555
Co0 O1 2.208575 1_545
Co0 Li0 2.209159 1_545
Co0 O8 2.224479 1_645
Co0 Li5 2.272007 1_655
Co0 O12 2.397724 1_655
Co1 O5 1.995178 1_555
Co1 O9 2.030141 1_555
Co1 O10 2.145340 1_555
Co1 Li6 2.202265 1_555
Co1 Li1 2.272868 1_545
Co1 O6 2.274065 1_555
Co1 O13 2.304899 1_555
Co1 O2 2.527627 1_545
Co2 O6 1.727823 1_555
Co2 O10 2.097475 1_555
Co2 O7 2.171116 1_455
Co2 O11 2.180750 1_555
Co2 Li7 2.213612 1_555
Co2 O14 2.231540 1_555
Co2 Li2 2.259102 1_455
Co3 O12 1.908070 1_555
Co3 O7 1.962578 1_454
Co3 O11 2.161507 1_554
Co3 O0 2.188460 1_455
Co3 Li3 2.197949 1_454
Co3 Li0 2.219063 1_555
Co3 O4 2.313676 1_455
Co3 O15 2.360975 1_554
Co4 O13 1.926888 1_555
Co4 O0 1.986568 1_555
Co4 O1 2.083397 1_555
Co4 Li4 2.209218 1_555
Co4 O12 2.224050 1_655
Co4 Li1 2.231852 1_655
Co4 O5 2.275607 1_555
Co4 O8 2.410260 1_655
