# generated using pymatgen
data_KAl3(SiO4)3
_symmetry_space_group_name_H-M   'P 1'
_cell_length_a   5.27908773
_cell_length_b   5.27908773
_cell_length_c   30.68184700
_cell_angle_alpha   90.00000000
_cell_angle_beta   90.00000000
_cell_angle_gamma   119.99999656
_symmetry_Int_Tables_number   1
_chemical_formula_structural   KAl3(SiO4)3
_chemical_formula_sum   'K3 Al9 Si9 O36'
_cell_volume   740.50825558
_cell_formula_units_Z   3
loop_
 _symmetry_equiv_pos_site_id
 _symmetry_equiv_pos_as_xyz
  1  'x, y, z'
loop_
 _atom_site_type_symbol
 _atom_site_label
 _atom_site_symmetry_multiplicity
 _atom_site_fract_x
 _atom_site_fract_y
 _atom_site_fract_z
 _atom_site_occupancy
  K  K0  1  0.26486800  0.13334400  0.50745500  1
  K  K1  1  0.86847600  0.73513200  0.17412200  1
  K  K2  1  0.86665600  0.13152400  0.84078900  1
  Al  Al0  1  0.22710700  0.10891000  0.99850300  1
  Al  Al1  1  0.88180300  0.77289300  0.66516900  1
  Al  Al2  1  0.89109000  0.11819700  0.33183600  1
  Al  Al3  1  0.51627200  0.75775400  0.99818800  1
  Al  Al4  1  0.24148200  0.48372800  0.66485500  1
  Al  Al5  1  0.24224600  0.75851800  0.33152200  1
  Al  Al6  1  0.58178600  0.79358900  0.57694700  1
  Al  Al7  1  0.21180300  0.41821400  0.24361300  1
  Al  Al8  1  0.20641100  0.78819700  0.91028000  1
  Si  Si0  1  0.92629200  0.47939300  0.57547400  1
  Si  Si1  1  0.55310100  0.07370800  0.24214100  1
  Si  Si2  1  0.52060700  0.44689900  0.90880700  1
  Si  Si3  1  0.92247700  0.45256200  0.42217800  1
  Si  Si4  1  0.54743800  0.46991500  0.75551100  1
  Si  Si5  1  0.53008500  0.07752300  0.08884400  1
  Si  Si6  1  0.58003300  0.79743100  0.42174100  1
  Si  Si7  1  0.20256900  0.78260200  0.75507500  1
  Si  Si8  1  0.21739800  0.41996700  0.08840800  1
  O  O0  1  0.16247200  0.12764800  0.63800400  1
  O  O1  1  0.96517600  0.83752800  0.30467100  1
  O  O2  1  0.87235200  0.03482400  0.97133800  1
  O  O3  1  0.15463000  0.02456300  0.36213200  1
  O  O4  1  0.97543700  0.13006600  0.69546500  1
  O  O5  1  0.86993400  0.84537000  0.02879800  1
  O  O6  1  0.23846400  0.54927500  0.55453000  1
  O  O7  1  0.31081200  0.76153600  0.22119700  1
  O  O8  1  0.45072500  0.68918800  0.88786400  1
  O  O9  1  0.25098200  0.65637900  0.44360200  1
  O  O10  1  0.34362100  0.59460400  0.77693500  1
  O  O11  1  0.40539600  0.74901800  0.11026900  1
  O  O12  1  0.56635700  0.73277600  0.63364800  1
  O  O13  1  0.16642000  0.43364300  0.30031500  1
  O  O14  1  0.26722400  0.83358000  0.96698200  1
  O  O15  1  0.56346500  0.83426900  0.36927400  1
  O  O16  1  0.16573100  0.72919500  0.70260800  1
  O  O17  1  0.27080500  0.43653500  0.03594100  1
  O  O18  1  0.96840700  0.53101300  0.62978200  1
  O  O19  1  0.56260600  0.03159300  0.29644900  1
  O  O20  1  0.46898700  0.43739400  0.96311500  1
  O  O21  1  0.95186500  0.43307700  0.36990400  1
  O  O22  1  0.56692300  0.51878700  0.70323700  1
  O  O23  1  0.48121300  0.04813500  0.03657000  1
  O  O24  1  0.83587800  0.70764500  0.55472500  1
  O  O25  1  0.87176700  0.16412200  0.22139200  1
  O  O26  1  0.29235500  0.12823300  0.88805900  1
  O  O27  1  0.78278800  0.12342800  0.44417400  1
  O  O28  1  0.87657200  0.65936000  0.77750700  1
  O  O29  1  0.34064000  0.21721200  0.11084000  1
  O  O30  1  0.67504000  0.14950200  0.56291700  1
  O  O31  1  0.47446200  0.32496000  0.22958400  1
  O  O32  1  0.85049800  0.52553800  0.89625000  1
  O  O33  1  0.71548500  0.58973200  0.43672200  1
  O  O34  1  0.41026800  0.12575300  0.77005500  1
  O  O35  1  0.87424700  0.28451500  0.10338900  1
loop_
_geom_bond_atom_site_label_1
_geom_bond_atom_site_label_2
_geom_bond_distance
_geom_bond_site_symmetry_2
K0 O24 2.682009 1_445
K0 O6 2.689403 1_555
K0 O30 2.721571 1_555
K0 O9 3.162119 1_545
K0 O27 3.180562 1_455
K0 O33 3.231434 1_555
K1 O25 2.682009 1_565
K1 O7 2.689408 1_655
K1 O31 2.721571 1_555
K1 O11 3.162124 1_555
K1 O29 3.180581 1_665
K1 O35 3.231434 1_555
K2 O26 2.682009 1_655
K2 O8 2.689406 1_545
K2 O32 2.721552 1_555
K2 O10 3.162141 1_655
K2 O28 3.180581 1_545
K2 O34 3.231454 1_555
Al0 O14 1.844081 1_545
Al0 O20 1.897945 1_555
Al0 O2 1.903286 1_455
Al0 O23 1.922745 1_556
Al0 O5 1.931730 1_446
Al0 O17 1.991243 1_556
Al1 O12 1.844077 1_555
Al1 O18 1.897927 1_555
Al1 O0 1.903286 1_665
Al1 O22 1.922761 1_555
Al1 O4 1.931744 1_565
Al1 O16 1.991265 1_655
Al2 O13 1.844079 1_655
Al2 O19 1.897927 1_555
Al2 O1 1.903286 1_545
Al2 O21 1.922760 1_555
Al2 O3 1.931748 1_655
Al2 O15 1.991245 1_545
Al3 O14 1.825322 1_555
Al3 O2 1.897930 1_565
Al3 O20 1.912678 1_555
Al3 O17 1.923296 1_556
Al3 O5 1.928254 1_556
Al3 O23 2.013631 1_566
Al4 O12 1.825341 1_555
Al4 O0 1.897944 1_555
Al4 O18 1.912678 1_455
Al4 O16 1.923293 1_555
Al4 O4 1.928252 1_455
Al4 O22 2.013636 1_555
Al5 O13 1.825342 1_555
Al5 O1 1.897944 1_455
Al5 O19 1.912678 1_565
Al5 O15 1.923279 1_555
Al5 O3 1.928249 1_565
Al5 O21 2.013634 1_455
Al6 O30 1.741532 1_565
Al6 O24 1.754591 1_555
Al6 O6 1.756085 1_555
Al6 O12 1.763541 1_555
Al7 O31 1.741524 1_555
Al7 O25 1.754579 1_455
Al7 O7 1.756072 1_555
Al7 O13 1.763570 1_555
Al8 O32 1.741532 1_455
Al8 O26 1.754579 1_565
Al8 O8 1.756077 1_555
Al8 O14 1.763571 1_555
O6 Si0 1.630006 1_455
O7 Si1 1.630004 1_565
O8 Si2 1.629989 1_555
O9 Si6 1.651772 1_555
O9 Si3 1.652667 1_455
O10 Si7 1.651755 1_555
O10 Si4 1.652671 1_555
O11 Si8 1.651772 1_555
O11 Si5 1.652679 1_565
O15 Si6 1.629075 1_555
O16 Si7 1.629075 1_555
O17 Si8 1.629075 1_555
O18 Si0 1.685099 1_555
O19 Si1 1.685099 1_555
O20 Si2 1.685099 1_555
O21 Si3 1.619563 1_555
O22 Si4 1.619562 1_555
O23 Si5 1.619562 1_555
O24 Si0 1.631002 1_555
O25 Si1 1.631002 1_555
O26 Si2 1.630990 1_555
O27 Si3 1.654376 1_555
O27 Si6 1.655017 1_545
O28 Si4 1.654376 1_555
O28 Si7 1.655004 1_655
O29 Si5 1.654376 1_555
O29 Si8 1.655004 1_555
O30 Si0 1.621944 1_555
O31 Si1 1.621944 1_555
O32 Si2 1.621944 1_555
O33 Si3 1.645853 1_555
O33 Si6 1.645860 1_555
O34 Si7 1.645851 1_545
O34 Si4 1.645853 1_555
O35 Si8 1.645860 1_655
O35 Si5 1.645861 1_555
