# generated using pymatgen
data_Li2MnCoO4
_symmetry_space_group_name_H-M   'P 1'
_cell_length_a   5.08215228
_cell_length_b   5.83335547
_cell_length_c   6.05190544
_cell_angle_alpha   61.08875872
_cell_angle_beta   77.16954616
_cell_angle_gamma   72.20202352
_symmetry_Int_Tables_number   1
_chemical_formula_structural   Li2MnCoO4
_chemical_formula_sum   'Li4 Mn2 Co2 O8'
_cell_volume   148.94243208
_cell_formula_units_Z   2
loop_
 _symmetry_equiv_pos_site_id
 _symmetry_equiv_pos_as_xyz
  1  'x, y, z'
loop_
 _atom_site_type_symbol
 _atom_site_label
 _atom_site_symmetry_multiplicity
 _atom_site_fract_x
 _atom_site_fract_y
 _atom_site_fract_z
 _atom_site_occupancy
  Li  Li0  1  0.50818600  0.24771400  0.24970400  1
  Li  Li1  1  0.99707700  0.00031200  0.50289300  1
  Li  Li2  1  0.00257000  0.49961600  0.99754200  1
  Li  Li3  1  0.49139300  0.75277700  0.74997700  1
  Mn  Mn0  1  0.49895800  0.75149700  0.24832100  1
  Mn  Mn1  1  0.99765500  0.49617200  0.50259200  1
  Co  Co0  1  0.00216200  0.00451100  0.99523000  1
  Co  Co1  1  0.50061300  0.24716700  0.75393000  1
  O  O0  1  0.75838400  0.34975100  0.88814500  1
  O  O1  1  0.75214400  0.90020500  0.87727000  1
  O  O2  1  0.25247100  0.60094500  0.62550800  1
  O  O3  1  0.25086100  0.65469100  0.11601900  1
  O  O4  1  0.25284100  0.10783100  0.11254700  1
  O  O5  1  0.24338600  0.14134700  0.62097800  1
  O  O6  1  0.74774400  0.85321500  0.37673500  1
  O  O7  1  0.74355400  0.39225100  0.38260900  1
loop_
_geom_bond_atom_site_label_1
_geom_bond_atom_site_label_2
_geom_bond_distance
_geom_bond_site_symmetry_2
Li0 O6 2.088386 1_545
Li0 O7 2.118544 1_555
Li0 O3 2.171560 1_555
Li0 O0 2.174084 1_554
Li0 O4 2.195340 1_555
Li0 O5 2.250365 1_555
Li1 O5 2.085635 1_655
Li1 O7 2.103267 1_555
Li1 O2 2.137834 1_645
Li1 O6 2.157012 1_545
Li1 O1 2.221793 1_545
Li1 O4 2.316368 1_655
Li2 O0 2.080959 1_455
Li2 O4 2.098442 1_556
Li2 O1 2.135146 1_455
Li2 O3 2.156732 1_556
Li2 O2 2.221218 1_555
Li2 O7 2.299152 1_456
Li3 O5 2.077353 1_565
Li3 O2 2.129555 1_555
Li3 O0 2.172668 1_555
Li3 O3 2.174477 1_556
Li3 O1 2.209037 1_555
Li3 O6 2.241177 1_555
Mn0 O4 1.943181 1_565
Mn0 O7 1.951087 1_555
Mn0 O3 1.967382 1_555
Mn0 O6 1.973718 1_555
Mn0 O1 2.228521 1_554
Mn0 O2 2.239502 1_555
Mn1 O5 1.934011 1_655
Mn1 O6 1.951868 1_555
Mn1 O7 1.970549 1_555
Mn1 O2 1.988780 1_655
Mn1 O0 2.258409 1_555
Mn1 O3 2.298451 1_655
Co0 O0 1.892109 1_455
Co0 O3 1.920237 1_546
Co0 O4 1.943004 1_556
Co0 O1 1.946748 1_445
Co0 O5 2.210641 1_555
Co0 O6 2.276604 1_446
Co1 O1 1.915471 1_545
Co1 O2 1.935661 1_555
Co1 O0 2.038589 1_555
Co1 O5 2.044040 1_555
Co1 O4 2.159350 1_556
Co1 O7 2.204124 1_555
