# generated using pymatgen
data_MnCdTe2
_symmetry_space_group_name_H-M   'P 1'
_cell_length_a   4.23119600
_cell_length_b   4.23119600
_cell_length_c   6.01427000
_cell_angle_alpha   90.00000000
_cell_angle_beta   90.00000000
_cell_angle_gamma   90.00000000
_symmetry_Int_Tables_number   1
_chemical_formula_structural   MnCdTe2
_chemical_formula_sum   'Mn1 Cd1 Te2'
_cell_volume   107.67359363
_cell_formula_units_Z   1
loop_
 _symmetry_equiv_pos_site_id
 _symmetry_equiv_pos_as_xyz
  1  'x, y, z'
loop_
 _atom_site_type_symbol
 _atom_site_label
 _atom_site_symmetry_multiplicity
 _atom_site_fract_x
 _atom_site_fract_y
 _atom_site_fract_z
 _atom_site_occupancy
  Mn  Mn0  1  0.50000000  0.50000000  0.50000000  1
  Cd  Cd0  1  0.00000000  0.00000000  0.00000000  1
  Te  Te0  1  0.00000000  0.00000000  0.50000000  1
  Te  Te1  1  0.50000000  0.50000000  0.00000000  1
loop_
_geom_bond_atom_site_label_1
_geom_bond_atom_site_label_2
_geom_bond_distance
_geom_bond_site_symmetry_2
Mn0 Te0 2.991907 1_565
Mn0 Te0 2.991907 1_655
Mn0 Te0 2.991907 1_665
Mn0 Te0 2.991907 1_555
Mn0 Te1 3.007135 1_556
Mn0 Te1 3.007135 1_555
Cd0 Te1 2.991907 1_545
Cd0 Te1 2.991907 1_555
Cd0 Te1 2.991907 1_445
Cd0 Te1 2.991907 1_455
Cd0 Te0 3.007135 1_554
Cd0 Te0 3.007135 1_555
