# generated using pymatgen
data_Ba10CaY4(Cu3O7)5
_symmetry_space_group_name_H-M   'P 1'
_cell_length_a   8.63059200
_cell_length_b   8.70969876
_cell_length_c   12.46330071
_cell_angle_alpha   106.34113402
_cell_angle_beta   98.17043658
_cell_angle_gamma   89.25424628
_symmetry_Int_Tables_number   1
_chemical_formula_structural   Ba10CaY4(Cu3O7)5
_chemical_formula_sum   'Ba10 Ca1 Y4 Cu15 O35'
_cell_volume   889.53441349
_cell_formula_units_Z   1
loop_
 _symmetry_equiv_pos_site_id
 _symmetry_equiv_pos_as_xyz
  1  'x, y, z'
loop_
 _atom_site_type_symbol
 _atom_site_label
 _atom_site_symmetry_multiplicity
 _atom_site_fract_x
 _atom_site_fract_y
 _atom_site_fract_z
 _atom_site_occupancy
  Ba  Ba0  1  0.73722500  0.97324500  0.18303800  1
  Ba  Ba1  1  0.53678400  0.57304100  0.18293200  1
  Ba  Ba2  1  0.33598500  0.17347800  0.18289600  1
  Ba  Ba3  1  0.13611300  0.77306500  0.18281700  1
  Ba  Ba4  1  0.93730600  0.37406300  0.18535200  1
  Ba  Ba5  1  0.86388700  0.22693500  0.81718300  1
  Ba  Ba6  1  0.66401500  0.82652200  0.81710400  1
  Ba  Ba7  1  0.46321600  0.42695900  0.81706800  1
  Ba  Ba8  1  0.26277500  0.02675500  0.81696200  1
  Ba  Ba9  1  0.06269400  0.62593700  0.81464800  1
  Ca  Ca0  1  0.00000000  0.50000000  0.50000000  1
  Y  Y0  1  0.19879500  0.89823500  0.49999000  1
  Y  Y1  1  0.39795400  0.30099400  0.49995400  1
  Y  Y2  1  0.60204600  0.69900600  0.50004600  1
  Y  Y3  1  0.80120500  0.10176500  0.50001000  1
  Cu  Cu0  1  0.07053000  0.14335200  0.35478400  1
  Cu  Cu1  1  0.87148000  0.74034000  0.35478300  1
  Cu  Cu2  1  0.67267000  0.34229400  0.35485100  1
  Cu  Cu3  1  0.47093300  0.94202800  0.35505100  1
  Cu  Cu4  1  0.26929300  0.54154300  0.35489600  1
  Cu  Cu5  1  0.12852000  0.25966000  0.64521700  1
  Cu  Cu6  1  0.92947000  0.85664800  0.64521600  1
  Cu  Cu7  1  0.73070700  0.45845700  0.64510400  1
  Cu  Cu8  1  0.52906700  0.05797200  0.64494900  1
  Cu  Cu9  1  0.32733000  0.65770600  0.64514900  1
  Cu  Cu10  1  0.00000000  0.00000000  0.00000000  1
  Cu  Cu11  1  0.80002700  0.59986200  0.99999900  1
  Cu  Cu12  1  0.60001900  0.20009100  0.00006700  1
  Cu  Cu13  1  0.39998100  0.79990900  0.99993300  1
  Cu  Cu14  1  0.19997300  0.40013800  0.00000100  1
  O  O0  1  0.03180400  0.06346300  0.15856600  1
  O  O1  1  0.83162700  0.66356200  0.15850800  1
  O  O2  1  0.63147200  0.26334000  0.15823000  1
  O  O3  1  0.43195400  0.86384300  0.15902600  1
  O  O4  1  0.23201000  0.46365200  0.15850400  1
  O  O5  1  0.16837300  0.33643800  0.84149200  1
  O  O6  1  0.96819600  0.93653700  0.84143400  1
  O  O7  1  0.76799000  0.53634800  0.84149600  1
  O  O8  1  0.56804600  0.13615700  0.84097400  1
  O  O9  1  0.36852800  0.73666000  0.84177000  1
  O  O10  1  0.97576500  0.95155000  0.37891600  1
  O  O11  1  0.76968200  0.55251300  0.37504900  1
  O  O12  1  0.57519800  0.15183000  0.37858300  1
  O  O13  1  0.37626300  0.75107300  0.37850000  1
  O  O14  1  0.18032600  0.34746700  0.37503700  1
  O  O15  1  0.02423500  0.04845000  0.62108400  1
  O  O16  1  0.81967400  0.65253300  0.62496300  1
  O  O17  1  0.62373700  0.24892700  0.62150000  1
  O  O18  1  0.42480200  0.84817000  0.62141700  1
  O  O19  1  0.23031800  0.44748700  0.62495100  1
  O  O20  1  0.90009600  0.80033800  0.00009300  1
  O  O21  1  0.70036800  0.40048000  0.00016000  1
  O  O22  1  0.50000000  0.00000000  0.00000000  1
  O  O23  1  0.29963200  0.59952000  0.99984000  1
  O  O24  1  0.09990400  0.19966200  0.99990700  1
  O  O25  1  0.07798300  0.65567200  0.37573000  1
  O  O26  1  0.27588500  0.05114100  0.37955700  1
  O  O27  1  0.47593300  0.45196200  0.37986300  1
  O  O28  1  0.67601200  0.85245900  0.37954100  1
  O  O29  1  0.87229400  0.24491000  0.37567700  1
  O  O30  1  0.12770600  0.75509000  0.62432300  1
  O  O31  1  0.32398800  0.14754100  0.62045900  1
  O  O32  1  0.52406700  0.54803800  0.62013700  1
  O  O33  1  0.72411500  0.94885900  0.62044300  1
  O  O34  1  0.92201700  0.34432800  0.62427000  1
loop_
_geom_bond_atom_site_label_1
_geom_bond_atom_site_label_2
_geom_bond_distance
_geom_bond_site_symmetry_2
Ba0 O0 2.753450 1_665
Ba0 O1 2.753541 1_555
Ba0 O2 2.758968 1_565
Ba0 O3 2.760391 1_555
Ba0 O20 2.892471 1_555
Ba0 O22 2.899898 1_565
Ba0 O29 2.966722 1_565
Ba0 O10 3.009134 1_555
Ba0 O12 3.015531 1_565
Ba0 O28 3.035759 1_555
Ba1 O2 2.754166 1_555
Ba1 O4 2.755667 1_555
Ba1 O1 2.756273 1_555
Ba1 O3 2.758763 1_555
Ba1 O21 2.893702 1_555
Ba1 O23 2.899299 1_554
Ba1 O11 2.944319 1_555
Ba1 O13 3.006966 1_555
Ba1 O27 3.041270 1_555
Ba1 O28 3.042121 1_555
Ba2 O0 2.752781 1_555
Ba2 O4 2.753332 1_555
Ba2 O3 2.758232 1_545
Ba2 O2 2.760603 1_555
Ba2 O24 2.892164 1_554
Ba2 O22 2.899342 1_555
Ba2 O14 2.941980 1_555
Ba2 O12 3.010583 1_555
Ba2 O27 3.041585 1_555
Ba2 O26 3.042589 1_555
Ba3 O1 2.753830 1_455
Ba3 O0 2.755470 1_565
Ba3 O4 2.755537 1_555
Ba3 O3 2.762601 1_555
Ba3 O20 2.892270 1_455
Ba3 O23 2.897692 1_554
Ba3 O25 2.969423 1_555
Ba3 O10 3.012068 1_455
Ba3 O13 3.016006 1_555
Ba3 O26 3.037606 1_565
Ba4 O0 2.758016 1_655
Ba4 O1 2.762175 1_555
Ba4 O4 2.762346 1_655
Ba4 O2 2.764162 1_555
Ba4 O21 2.916673 1_555
Ba4 O24 2.917084 1_654
Ba4 O14 2.987955 1_655
Ba4 O11 2.990684 1_555
Ba4 O29 3.017145 1_555
Ba4 O25 3.017243 1_655
Ba5 O5 2.753830 1_655
Ba5 O6 2.755470 1_545
Ba5 O7 2.755537 1_555
Ba5 O8 2.762601 1_555
Ba5 O24 2.892270 1_655
Ba5 O21 2.897692 1_556
Ba5 O34 2.969423 1_555
Ba5 O15 3.012068 1_655
Ba5 O17 3.016006 1_555
Ba5 O33 3.037606 1_545
Ba6 O6 2.752781 1_555
Ba6 O7 2.753332 1_555
Ba6 O8 2.758232 1_565
Ba6 O9 2.760603 1_555
Ba6 O20 2.892164 1_556
Ba6 O22 2.899342 1_566
Ba6 O16 2.941980 1_555
Ba6 O18 3.010583 1_555
Ba6 O32 3.041585 1_555
Ba6 O33 3.042589 1_555
Ba7 O9 2.754166 1_555
Ba7 O7 2.755667 1_555
Ba7 O5 2.756273 1_555
Ba7 O8 2.758763 1_555
Ba7 O23 2.893702 1_555
Ba7 O21 2.899299 1_556
Ba7 O19 2.944319 1_555
Ba7 O17 3.006966 1_555
Ba7 O32 3.041270 1_555
Ba7 O31 3.042121 1_555
Ba8 O6 2.753450 1_445
Ba8 O5 2.753541 1_555
Ba8 O9 2.758968 1_545
Ba8 O8 2.760391 1_555
Ba8 O24 2.892471 1_555
Ba8 O22 2.899898 1_556
Ba8 O30 2.966722 1_545
Ba8 O15 3.009134 1_555
Ba8 O18 3.015531 1_545
Ba8 O31 3.035759 1_555
Ba9 O6 2.758016 1_455
Ba9 O5 2.762175 1_555
Ba9 O7 2.762346 1_455
Ba9 O9 2.764162 1_555
Ba9 O23 2.916673 1_555
Ba9 O20 2.917084 1_456
Ba9 O16 2.987955 1_455
Ba9 O19 2.990684 1_555
Ba9 O30 3.017145 1_555
Ba9 O34 3.017243 1_455
Ca0 O19 2.466356 1_555
Ca0 O11 2.466356 1_455
Ca0 O14 2.466490 1_555
Ca0 O16 2.466490 1_455
Ca0 O34 2.488348 1_455
Ca0 O25 2.488348 1_555
Ca0 O30 2.488581 1_555
Ca0 O29 2.488581 1_455
Cu0 O29 1.932615 1_455
Cu0 O26 1.956646 1_555
Cu0 O14 1.961000 1_555
Cu0 O10 1.984513 1_445
Cu0 O0 2.322209 1_555
Cu1 O25 1.931379 1_655
Cu1 O28 1.957119 1_555
Cu1 O11 1.960847 1_555
Cu1 O10 1.984788 1_555
Cu1 O1 2.322903 1_555
Cu2 O29 1.927127 1_555
Cu2 O27 1.957874 1_555
Cu2 O11 1.958925 1_555
Cu2 O12 1.982478 1_555
Cu2 O2 2.327001 1_555
Cu3 O26 1.942000 1_565
Cu3 O28 1.943958 1_555
Cu3 O13 1.973792 1_555
Cu3 O12 1.975112 1_565
Cu3 O3 2.319891 1_555
Cu4 O25 1.927591 1_555
Cu4 O27 1.956742 1_555
Cu4 O14 1.958874 1_555
Cu4 O13 1.983392 1_555
Cu4 O4 2.324304 1_555
Cu5 O34 1.931379 1_455
Cu5 O31 1.957119 1_555
Cu5 O19 1.960847 1_555
Cu5 O15 1.984788 1_555
Cu5 O5 2.322903 1_555
Cu6 O30 1.932615 1_655
Cu6 O33 1.956646 1_555
Cu6 O16 1.961000 1_555
Cu6 O15 1.984513 1_665
Cu6 O6 2.322209 1_555
Cu7 O34 1.927591 1_555
Cu7 O32 1.956742 1_555
Cu7 O16 1.958874 1_555
Cu7 O17 1.983392 1_555
Cu7 O7 2.324304 1_555
Cu8 O33 1.942000 1_545
Cu8 O31 1.943958 1_555
Cu8 O17 1.973792 1_555
Cu8 O18 1.975112 1_545
Cu8 O8 2.319891 1_555
Cu9 O30 1.927127 1_555
Cu9 O32 1.957874 1_555
Cu9 O19 1.958925 1_555
Cu9 O18 1.982478 1_555
Cu9 O9 2.327001 1_555
Cu10 O6 1.876575 1_444
Cu10 O0 1.876575 1_555
Cu10 O20 1.951410 1_445
Cu10 O24 1.951410 1_554
Cu11 O7 1.875832 1_555
Cu11 O1 1.875902 1_556
Cu11 O21 1.948529 1_556
Cu11 O20 1.957685 1_556
Cu12 O2 1.871806 1_555
Cu12 O8 1.882814 1_554
Cu12 O22 1.954586 1_555
Cu12 O21 1.958105 1_555
Cu13 O9 1.871806 1_555
Cu13 O3 1.882814 1_556
Cu13 O22 1.954586 1_566
Cu13 O23 1.958105 1_555
Cu14 O4 1.875832 1_555
Cu14 O5 1.875902 1_554
Cu14 O23 1.948529 1_554
Cu14 O24 1.957685 1_554
O10 Y3 2.396470 1_565
O10 Y0 2.396508 1_655
O11 Y2 2.371125 1_555
O12 Y3 2.407353 1_555
O12 Y1 2.411686 1_555
O13 Y0 2.407803 1_555
O13 Y2 2.412921 1_555
O14 Y1 2.370486 1_555
O15 Y0 2.396470 1_545
O15 Y3 2.396508 1_455
O16 Y2 2.370486 1_555
O17 Y3 2.407803 1_555
O17 Y1 2.412921 1_555
O18 Y0 2.407353 1_555
O18 Y2 2.411686 1_555
O19 Y1 2.371125 1_555
O25 Y0 2.388759 1_555
O26 Y1 2.422812 1_555
O26 Y0 2.429199 1_545
O27 Y1 2.416370 1_555
O27 Y2 2.417025 1_555
O28 Y2 2.423586 1_555
O28 Y3 2.429420 1_565
O29 Y3 2.389427 1_555
O30 Y0 2.389427 1_555
O31 Y1 2.423586 1_555
O31 Y0 2.429420 1_545
O32 Y2 2.416370 1_555
O32 Y1 2.417025 1_555
O33 Y2 2.422812 1_555
O33 Y3 2.429199 1_565
O34 Y3 2.388759 1_555
