# generated using pymatgen
data_LiMn2O3
_symmetry_space_group_name_H-M   'P 1'
_cell_length_a   5.23537774
_cell_length_b   5.26083199
_cell_length_c   10.10465165
_cell_angle_alpha   86.08194452
_cell_angle_beta   93.17082719
_cell_angle_gamma   63.07754069
_symmetry_Int_Tables_number   1
_chemical_formula_structural   LiMn2O3
_chemical_formula_sum   'Li4 Mn8 O12'
_cell_volume   246.39745254
_cell_formula_units_Z   4
loop_
 _symmetry_equiv_pos_site_id
 _symmetry_equiv_pos_as_xyz
  1  'x, y, z'
loop_
 _atom_site_type_symbol
 _atom_site_label
 _atom_site_symmetry_multiplicity
 _atom_site_fract_x
 _atom_site_fract_y
 _atom_site_fract_z
 _atom_site_occupancy
  Li  Li0  1  0.41217400  0.42477800  0.74949700  1
  Li  Li1  1  0.58264000  0.56869300  0.25155800  1
  Li  Li2  1  0.75214000  0.74985500  0.75272200  1
  Li  Li3  1  0.25349700  0.26562400  0.24866900  1
  Mn  Mn0  1  0.99923100  0.50211400  0.50055300  1
  Mn  Mn1  1  0.50166900  0.99725600  0.99921400  1
  Mn  Mn2  1  0.07183500  0.09063000  0.75293300  1
  Mn  Mn3  1  0.91887400  0.91890100  0.24852500  1
  Mn  Mn4  1  0.17088200  0.65851400  0.99835000  1
  Mn  Mn5  1  0.33640500  0.83302900  0.50005300  1
  Mn  Mn6  1  0.66198800  0.17140500  0.50120600  1
  Mn  Mn7  1  0.82990000  0.33382500  0.00012100  1
  O  O0  1  0.06636300  0.79539000  0.61825200  1
  O  O1  1  0.22868200  0.93060800  0.11104300  1
  O  O2  1  0.77499000  0.03405800  0.87950400  1
  O  O3  1  0.92810800  0.21580200  0.37977400  1
  O  O4  1  0.12745700  0.39402400  0.87717900  1
  O  O5  1  0.60601900  0.90146500  0.38893500  1
  O  O6  1  0.39059000  0.10332300  0.61275400  1
  O  O7  1  0.90674600  0.61862900  0.11995900  1
  O  O8  1  0.43777900  0.72618700  0.88610700  1
  O  O9  1  0.29256000  0.57346600  0.38023800  1
  O  O10  1  0.70632900  0.43071100  0.62193100  1
  O  O11  1  0.54314400  0.26171400  0.12092000  1
loop_
_geom_bond_atom_site_label_1
_geom_bond_atom_site_label_2
_geom_bond_distance
_geom_bond_site_symmetry_2
Li0 O10 2.071664 1_555
Li0 O4 2.077319 1_555
Li0 O8 2.215611 1_555
Li0 O0 2.241074 1_555
Li0 O6 2.292809 1_555
Li0 O2 2.319079 1_555
Li1 O9 2.045993 1_555
Li1 O3 2.183515 1_555
Li1 O11 2.226420 1_555
Li1 O1 2.284623 1_555
Li1 O7 2.306949 1_555
Li1 O5 2.348209 1_555
Li2 O2 2.073097 1_565
Li2 O8 2.224585 1_555
Li2 O4 2.240697 1_655
Li2 O0 2.273673 1_655
Li2 O6 2.279927 1_565
Li2 O10 2.292571 1_555
Li3 O11 2.039160 1_555
Li3 O7 2.188983 1_455
Li3 O9 2.235211 1_555
Li3 O5 2.285377 1_545
Li3 O3 2.309176 1_455
Li3 O1 2.362078 1_545
Mn0 O3 2.146088 1_555
Mn0 O0 2.148027 1_655
Mn0 O9 2.154869 1_655
Mn0 O10 2.159530 1_555
Mn0 O6 2.325994 1_655
Mn0 O5 2.329502 1_555
Mn1 O2 1.989630 1_565
Mn1 O11 1.993245 1_566
Mn1 O1 2.005170 1_556
Mn1 O8 2.015968 1_555
Mn1 O4 2.322402 1_565
Mn1 O7 2.347343 1_556
Mn2 O0 2.142472 1_545
Mn2 O2 2.173989 1_455
Mn2 O4 2.205184 1_555
Mn2 O10 2.216019 1_455
Mn2 O6 2.268304 1_555
Mn2 O8 2.278846 1_545
Mn3 O3 2.131962 1_565
Mn3 O7 2.132903 1_555
Mn3 O1 2.211897 1_655
Mn3 O11 2.230149 1_565
Mn3 O9 2.250141 1_655
Mn3 O5 2.253775 1_555
Mn4 O7 1.970230 1_456
Mn4 O8 1.983985 1_555
Mn4 O4 1.993843 1_555
Mn4 O1 2.003541 1_556
Mn4 O2 2.309442 1_465
Mn4 O11 2.320641 1_556
Mn5 O9 1.965230 1_555
Mn5 O0 1.967852 1_555
Mn5 O6 1.987512 1_565
Mn5 O5 1.990736 1_555
Mn5 O10 2.327035 1_555
Mn5 O3 2.362535 1_465
Mn6 O10 1.971248 1_555
Mn6 O3 1.986430 1_555
Mn6 O5 1.987406 1_545
Mn6 O6 2.000122 1_555
Mn6 O9 2.321488 1_555
Mn6 O0 2.324801 1_645
Mn7 O11 2.131403 1_555
Mn7 O7 2.147797 1_555
Mn7 O4 2.162748 1_654
Mn7 O2 2.165538 1_554
Mn7 O8 2.319143 1_554
Mn7 O1 2.349576 1_645
