# generated using pymatgen
data_Na8Al6Si6BrClO24
_symmetry_space_group_name_H-M   'P 1'
_cell_length_a   8.98899100
_cell_length_b   8.98899100
_cell_length_c   8.98899100
_cell_angle_alpha   90.00000000
_cell_angle_beta   90.00000000
_cell_angle_gamma   90.00000000
_symmetry_Int_Tables_number   1
_chemical_formula_structural   Na8Al6Si6BrClO24
_chemical_formula_sum   'Na8 Al6 Si6 Br1 Cl1 O24'
_cell_volume   726.32808401
_cell_formula_units_Z   1
loop_
 _symmetry_equiv_pos_site_id
 _symmetry_equiv_pos_as_xyz
  1  'x, y, z'
loop_
 _atom_site_type_symbol
 _atom_site_label
 _atom_site_symmetry_multiplicity
 _atom_site_fract_x
 _atom_site_fract_y
 _atom_site_fract_z
 _atom_site_occupancy
  Na  Na0  1  0.31891100  0.68108900  0.31891100  1
  Na  Na1  1  0.68108900  0.31891100  0.31891100  1
  Na  Na2  1  0.31891100  0.31891100  0.68108900  1
  Na  Na3  1  0.68108900  0.68108900  0.68108900  1
  Na  Na4  1  0.81725400  0.81725400  0.18274600  1
  Na  Na5  1  0.18274600  0.81725400  0.81725400  1
  Na  Na6  1  0.81725400  0.18274600  0.81725400  1
  Na  Na7  1  0.18274600  0.18274600  0.18274600  1
  Al  Al0  1  0.50000000  0.00000000  0.24999100  1
  Al  Al1  1  0.00000000  0.75000900  0.50000000  1
  Al  Al2  1  0.24999100  0.50000000  0.00000000  1
  Al  Al3  1  0.00000000  0.24999100  0.50000000  1
  Al  Al4  1  0.75000900  0.50000000  0.00000000  1
  Al  Al5  1  0.50000000  0.00000000  0.75000900  1
  Si  Si0  1  0.00000000  0.50000000  0.25001400  1
  Si  Si1  1  0.50000000  0.74998600  0.00000000  1
  Si  Si2  1  0.25001400  0.00000000  0.50000000  1
  Si  Si3  1  0.50000000  0.25001400  0.00000000  1
  Si  Si4  1  0.74998600  0.00000000  0.50000000  1
  Si  Si5  1  0.00000000  0.50000000  0.74998600  1
  Br  Br0  1  0.00000000  0.00000000  0.00000000  1
  Cl  Cl0  1  0.50000000  0.50000000  0.50000000  1
  O  O0  1  0.35001600  0.93980600  0.35984900  1
  O  O1  1  0.06019400  0.64015100  0.35001600  1
  O  O2  1  0.35984900  0.64998400  0.06019400  1
  O  O3  1  0.64998400  0.06019400  0.35984900  1
  O  O4  1  0.93980600  0.35984900  0.35001600  1
  O  O5  1  0.64015100  0.35001600  0.06019400  1
  O  O6  1  0.35001600  0.06019400  0.64015100  1
  O  O7  1  0.06019400  0.35984900  0.64998400  1
  O  O8  1  0.35984900  0.35001600  0.93980600  1
  O  O9  1  0.64998400  0.93980600  0.64015100  1
  O  O10  1  0.93980600  0.64015100  0.64998400  1
  O  O11  1  0.64015100  0.64998400  0.93980600  1
  O  O12  1  0.84998000  0.85980500  0.43987300  1
  O  O13  1  0.56012700  0.84998000  0.14019500  1
  O  O14  1  0.85980500  0.56012700  0.15002000  1
  O  O15  1  0.15002000  0.85980500  0.56012700  1
  O  O16  1  0.43987300  0.84998000  0.85980500  1
  O  O17  1  0.14019500  0.56012700  0.84998000  1
  O  O18  1  0.84998000  0.14019500  0.56012700  1
  O  O19  1  0.56012700  0.15002000  0.85980500  1
  O  O20  1  0.85980500  0.43987300  0.84998000  1
  O  O21  1  0.15002000  0.14019500  0.43987300  1
  O  O22  1  0.43987300  0.15002000  0.14019500  1
  O  O23  1  0.14019500  0.43987300  0.15002000  1
loop_
_geom_bond_atom_site_label_1
_geom_bond_atom_site_label_2
_geom_bond_distance
_geom_bond_site_symmetry_2
Na0 O0 2.371083 1_555
Na0 O2 2.371083 1_555
Na0 O1 2.371083 1_555
Na1 O5 2.371083 1_555
Na1 O3 2.371083 1_555
Na1 O4 2.371083 1_555
Na2 O8 2.371083 1_555
Na2 O6 2.371083 1_555
Na2 O7 2.371083 1_555
Na3 O11 2.371083 1_555
Na3 O10 2.371083 1_555
Na3 O9 2.371083 1_555
Na4 O13 2.361144 1_555
Na4 O12 2.361144 1_555
Na4 O14 2.361144 1_555
Na5 O16 2.361144 1_555
Na5 O17 2.361144 1_555
Na5 O15 2.361144 1_555
Na6 O18 2.361144 1_555
Na6 O20 2.361144 1_555
Na6 O19 2.361144 1_555
Na7 O23 2.361144 1_555
Na7 O22 2.361144 1_555
Na7 O21 2.361144 1_555
Al0 O22 1.756340 1_555
Al0 O13 1.756340 1_545
Al0 O3 1.756590 1_555
Al0 O0 1.756590 1_545
Al1 O15 1.756340 1_555
Al1 O12 1.756340 1_455
Al1 O10 1.756590 1_455
Al1 O1 1.756590 1_555
Al2 O23 1.756340 1_555
Al2 O17 1.756340 1_554
Al2 O8 1.756590 1_554
Al2 O2 1.756590 1_555
Al3 O21 1.756340 1_555
Al3 O18 1.756340 1_455
Al3 O4 1.756590 1_455
Al3 O7 1.756590 1_555
Al4 O14 1.756340 1_555
Al4 O20 1.756340 1_554
Al4 O11 1.756590 1_554
Al4 O5 1.756590 1_555
Al5 O19 1.756340 1_555
Al5 O16 1.756340 1_545
Al5 O9 1.756590 1_545
Al5 O6 1.756590 1_555
Br0 Na6 2.845244 1_454
Br0 Na5 2.845244 1_544
Br0 Na7 2.845244 1_555
Br0 Na4 2.845244 1_445
Cl0 Na2 2.819445 1_555
Cl0 Na0 2.819445 1_555
Cl0 Na1 2.819445 1_555
Cl0 Na3 2.819445 1_555
O0 Si2 1.639500 1_565
O1 Si0 1.639500 1_555
O2 Si1 1.639500 1_555
O3 Si4 1.639500 1_555
O4 Si0 1.639500 1_655
O5 Si3 1.639500 1_555
O6 Si2 1.639500 1_555
O7 Si5 1.639500 1_555
O8 Si3 1.639500 1_556
O9 Si4 1.639500 1_565
O10 Si5 1.639500 1_655
O11 Si1 1.639500 1_556
O12 Si4 1.639566 1_565
O13 Si1 1.639566 1_555
O14 Si0 1.639566 1_655
O15 Si2 1.639566 1_565
O16 Si1 1.639566 1_556
O17 Si5 1.639566 1_555
O18 Si4 1.639566 1_555
O19 Si3 1.639566 1_556
O20 Si5 1.639566 1_655
O21 Si2 1.639566 1_555
O22 Si3 1.639566 1_555
O23 Si0 1.639566 1_555
