# generated using pymatgen
data_PrPO4
_symmetry_space_group_name_H-M   'P 1'
_cell_length_a   5.94206199
_cell_length_b   5.94205997
_cell_length_c   5.94203444
_cell_angle_alpha   106.09009467
_cell_angle_beta   106.09126397
_cell_angle_gamma   116.46734938
_symmetry_Int_Tables_number   1
_chemical_formula_structural   PrPO4
_chemical_formula_sum   'Pr2 P2 O8'
_cell_volume   159.67788622
_cell_formula_units_Z   2
loop_
 _symmetry_equiv_pos_site_id
 _symmetry_equiv_pos_as_xyz
  1  'x, y, z'
loop_
 _atom_site_type_symbol
 _atom_site_label
 _atom_site_symmetry_multiplicity
 _atom_site_fract_x
 _atom_site_fract_y
 _atom_site_fract_z
 _atom_site_occupancy
  Pr  Pr0  1  0.25000158  0.75000173  0.49999988  1
  Pr  Pr1  1  -0.00000098  -0.00000116  -0.00000023  1
  P  P0  1  0.50000648  0.50000608  -0.00000024  1
  P  P1  1  0.74999329  0.24999367  0.50000042  1
  O  O0  1  0.48080659  0.65109208  0.82971435  1
  O  O1  1  0.90109015  0.23080105  0.32971106  1
  O  O2  1  0.90108959  0.57137808  0.67028913  1
  O  O3  1  0.82137752  0.65109275  0.17028631  1
  O  O4  1  0.76919928  0.09891373  0.67028558  1
  O  O5  1  0.34890418  0.51919311  0.17028883  1
  O  O6  1  0.34890477  0.17861641  0.82971097  1
  O  O7  1  0.42862855  0.09891348  0.32971396  1
loop_
_geom_bond_atom_site_label_1
_geom_bond_atom_site_label_2
_geom_bond_distance
_geom_bond_site_symmetry_2
O0 P0 1.540663 1_556
O0 Pr0 2.435562 1_555
O0 Pr1 2.499054 1_666
O1 P1 1.540740 1_555
O1 Pr1 2.435569 1_655
O1 Pr0 2.499099 1_655
O2 P1 1.540728 1_555
O2 Pr1 2.435566 1_666
O2 Pr0 2.499107 1_655
O3 P0 1.540659 1_555
O3 Pr0 2.435559 1_655
O3 Pr1 2.499058 1_665
O4 P1 1.540638 1_555
O4 Pr1 2.435569 1_656
O4 Pr0 2.499082 1_545
O5 P0 1.540759 1_555
O5 Pr0 2.435558 1_555
O5 Pr1 2.499064 1_555
O6 P0 1.540748 1_556
O6 Pr0 2.435558 1_545
O6 Pr1 2.499071 1_556
O7 P1 1.540635 1_555
O7 Pr1 2.435569 1_555
O7 Pr0 2.499086 1_545
