# generated using pymatgen
data_CaTiO2
_symmetry_space_group_name_H-M   'P 1'
_cell_length_a   2.98719992
_cell_length_b   8.43779539
_cell_length_c   9.04107259
_cell_angle_alpha   85.82119230
_cell_angle_beta   80.76044051
_cell_angle_gamma   79.79836391
_symmetry_Int_Tables_number   1
_chemical_formula_structural   CaTiO2
_chemical_formula_sum   'Ca4 Ti4 O8'
_cell_volume   221.13938944
_cell_formula_units_Z   4
loop_
 _symmetry_equiv_pos_site_id
 _symmetry_equiv_pos_as_xyz
  1  'x, y, z'
loop_
 _atom_site_type_symbol
 _atom_site_label
 _atom_site_symmetry_multiplicity
 _atom_site_fract_x
 _atom_site_fract_y
 _atom_site_fract_z
 _atom_site_occupancy
  Ca  Ca0  1  0.33371500  0.04881500  0.27691800  1
  Ca  Ca1  1  0.66283400  0.93103200  0.75122600  1
  Ca  Ca2  1  0.08815900  0.72633100  0.08565000  1
  Ca  Ca3  1  0.90756300  0.25357300  0.94251900  1
  Ti  Ti0  1  0.55183100  0.29720000  0.60127100  1
  Ti  Ti1  1  0.14474000  0.40710200  0.29688000  1
  Ti  Ti2  1  0.85117700  0.57277000  0.73124900  1
  Ti  Ti3  1  0.44400000  0.68279800  0.42708200  1
  O  O0  1  0.84756000  0.73687800  0.57019300  1
  O  O1  1  0.39148300  0.41256200  0.81228700  1
  O  O2  1  0.60422900  0.56742000  0.21595800  1
  O  O3  1  0.14835600  0.24304700  0.45800400  1
  O  O4  1  0.07541100  0.13885100  0.71718500  1
  O  O5  1  0.76538700  0.25962100  0.19889500  1
  O  O6  1  0.92099300  0.84104800  0.31101800  1
  O  O7  1  0.23083700  0.72029000  0.82928000  1
loop_
_geom_bond_atom_site_label_1
_geom_bond_atom_site_label_2
_geom_bond_distance
_geom_bond_site_symmetry_2
Ca0 O6 2.291619 1_545
Ca0 O6 2.291981 1_445
Ca0 O3 2.334845 1_555
Ca0 O5 2.379455 1_555
Ca0 O5 2.382385 1_455
Ca1 O4 2.292066 1_565
Ca1 O4 2.292076 1_665
Ca1 O0 2.334035 1_555
Ca1 O7 2.379664 1_555
Ca1 O7 2.381552 1_655
Ca2 O6 2.264392 1_455
Ca2 O2 2.276668 1_555
Ca2 O2 2.277083 1_455
Ca2 O7 2.291072 1_554
Ca3 O4 2.264137 1_655
Ca3 O1 2.276571 1_555
Ca3 O1 2.277244 1_655
Ca3 O5 2.291100 1_556
O0 Ti2 1.934869 1_555
O0 Ti3 2.028427 1_655
O0 Ti3 2.029137 1_555
O1 Ti2 2.105166 1_455
O1 Ti2 2.107123 1_555
O1 Ti0 2.151446 1_555
O2 Ti1 2.105601 1_655
O2 Ti1 2.107162 1_555
O2 Ti3 2.152374 1_555
O3 Ti1 1.935006 1_555
O3 Ti0 2.029410 1_455
O3 Ti0 2.030240 1_555
O4 Ti0 2.213464 1_555
O4 Ti0 2.216246 1_455
O5 Ti1 2.141649 1_555
O5 Ti1 2.144779 1_655
O6 Ti3 2.214490 1_555
O6 Ti3 2.215457 1_655
O7 Ti2 2.141293 1_555
O7 Ti2 2.145875 1_455
