# generated using pymatgen
data_PH10C2NO4
_symmetry_space_group_name_H-M   'P 1'
_cell_length_a   6.92061628
_cell_length_b   9.78598044
_cell_length_c   9.78802700
_cell_angle_alpha   90.00000000
_cell_angle_beta   90.00000000
_cell_angle_gamma   90.03150389
_symmetry_Int_Tables_number   1
_chemical_formula_structural   PH10C2NO4
_chemical_formula_sum   'P4 H40 C8 N4 O16'
_cell_volume   662.89418035
_cell_formula_units_Z   4
loop_
 _symmetry_equiv_pos_site_id
 _symmetry_equiv_pos_as_xyz
  1  'x, y, z'
loop_
 _atom_site_type_symbol
 _atom_site_label
 _atom_site_symmetry_multiplicity
 _atom_site_fract_x
 _atom_site_fract_y
 _atom_site_fract_z
 _atom_site_occupancy
  P  P0  1  0.24575900  0.83409800  0.27293300  1
  P  P1  1  0.74575900  0.33409800  0.72706700  1
  P  P2  1  0.75154000  0.16733000  0.22205300  1
  P  P3  1  0.25154000  0.66733000  0.77794700  1
  H  H0  1  0.51554800  0.00737000  0.25543800  1
  H  H1  1  0.01554800  0.50737000  0.74456200  1
  H  H2  1  0.99944300  0.98110100  0.25991900  1
  H  H3  1  0.49944300  0.48110100  0.74008100  1
  H  H4  1  0.21022800  0.71233400  0.07745800  1
  H  H5  1  0.71022800  0.21233400  0.92254200  1
  H  H6  1  0.76443100  0.28650900  0.41714600  1
  H  H7  1  0.26443100  0.78650900  0.58285400  1
  H  H8  1  0.80591900  0.84189100  0.40121700  1
  H  H9  1  0.30591900  0.34189100  0.59878300  1
  H  H10  1  0.56880200  0.80612400  0.43716900  1
  H  H11  1  0.06880200  0.30612400  0.56283100  1
  H  H12  1  0.16103500  0.16686400  0.10996700  1
  H  H13  1  0.66103500  0.66686400  0.89003300  1
  H  H14  1  0.40349600  0.18581700  0.07021500  1
  H  H15  1  0.90349600  0.68581700  0.92978500  1
  H  H16  1  0.62448700  0.84675500  0.67469400  1
  H  H17  1  0.12448600  0.34675500  0.32530600  1
  H  H18  1  0.87863900  0.87190800  0.64021900  1
  H  H19  1  0.37863900  0.37190800  0.35978100  1
  H  H20  1  0.70263600  0.99121700  0.57665300  1
  H  H21  1  0.20263600  0.49121700  0.42334700  1
  H  H22  1  0.67292500  0.61763400  0.58104200  1
  H  H23  1  0.17292500  0.11763400  0.41895800  1
  H  H24  1  0.91559200  0.64549300  0.52358400  1
  H  H25  1  0.41559200  0.14549300  0.47641600  1
  H  H26  1  0.73059100  0.59477500  0.40508000  1
  H  H27  1  0.23059100  0.09477500  0.59492000  1
  H  H28  1  0.33861000  0.14399600  0.83524300  1
  H  H29  1  0.83861000  0.64399600  0.16475700  1
  H  H30  1  0.08435200  0.13062800  0.87353300  1
  H  H31  1  0.58435200  0.63062800  0.12646700  1
  H  H32  1  0.25114800  0.00597500  0.93851900  1
  H  H33  1  0.75114800  0.50597500  0.06148100  1
  H  H34  1  0.33678200  0.37879400  0.93016700  1
  H  H35  1  0.83678200  0.87879400  0.06983300  1
  H  H36  1  0.08499800  0.36467700  0.97222300  1
  H  H37  1  0.58499800  0.86467700  0.02777700  1
  H  H38  1  0.25912100  0.40566600  0.10159800  1
  H  H39  1  0.75912100  0.90566700  0.89840200  1
  C  C0  1  0.73111500  0.88388100  0.60079300  1
  C  C1  1  0.23111500  0.38388100  0.39920700  1
  C  C2  1  0.76244900  0.65475900  0.49686000  1
  C  C3  1  0.26244900  0.15475900  0.50314000  1
  C  C4  1  0.23138500  0.11362600  0.91167400  1
  C  C5  1  0.73138500  0.61362600  0.08832600  1
  C  C6  1  0.23283800  0.34710600  0.00820900  1
  C  C7  1  0.73283800  0.84710600  0.99179100  1
  N  N0  1  0.71333900  0.80091900  0.47388400  1
  N  N1  1  0.21333900  0.30091900  0.52611600  1
  N  N2  1  0.26069100  0.19909300  0.03550700  1
  N  N3  1  0.76069100  0.69909300  0.96449300  1
  O  O0  1  0.35227100  0.94823700  0.19797800  1
  O  O1  1  0.85227100  0.44823700  0.80202200  1
  O  O2  1  0.02688000  0.88251100  0.29695400  1
  O  O3  1  0.52688000  0.38251100  0.70304600  1
  O  O4  1  0.33156000  0.78879600  0.40822000  1
  O  O5  1  0.83156000  0.28879600  0.59178000  1
  O  O6  1  0.23361000  0.70093600  0.17861700  1
  O  O7  1  0.73361000  0.20093600  0.82138300  1
  O  O8  1  0.64335500  0.04952200  0.30108300  1
  O  O9  1  0.14335500  0.54952200  0.69891700  1
  O  O10  1  0.96349600  0.12287100  0.20922900  1
  O  O11  1  0.46349600  0.62287100  0.79077100  1
  O  O12  1  0.65228500  0.20527400  0.08846900  1
  O  O13  1  0.15228500  0.70527400  0.91153100  1
  O  O14  1  0.73664200  0.30031200  0.31762000  1
  O  O15  1  0.23664200  0.80031200  0.68238000  1
loop_
_geom_bond_atom_site_label_1
_geom_bond_atom_site_label_2
_geom_bond_distance
_geom_bond_site_symmetry_2
H0 O8 1.073176 1_555
H0 O0 1.388276 1_545
H1 O9 1.073176 1_555
H1 O1 1.388276 1_455
H2 O2 1.048094 1_655
H2 O10 1.494390 1_565
H3 O3 1.048094 1_555
H3 O11 1.494390 1_555
H4 O6 1.009474 1_555
H4 O13 1.674288 1_554
H5 O7 1.009474 1_555
H5 O12 1.674288 1_556
H6 O14 1.002125 1_555
H7 O15 1.002125 1_555
H8 N0 1.037733 1_555
H9 N1 1.037733 1_555
H10 N0 1.064127 1_555
H11 N1 1.064127 1_555
H12 N2 1.051697 1_555
H13 N3 1.051697 1_555
H14 N2 1.053169 1_555
H14 O12 1.741356 1_555
H15 N3 1.053169 1_555
H15 O13 1.741356 1_655
C0 H20 1.094631 1_555
C0 H16 1.095205 1_555
C0 H18 1.097786 1_555
C0 N0 1.489020 1_555
C1 H21 1.094631 1_555
C1 H17 1.095209 1_555
C1 H19 1.097786 1_555
C1 N1 1.489020 1_555
C2 H22 1.092948 1_555
C2 H24 1.095454 1_555
C2 H26 1.095474 1_555
C2 N0 1.487426 1_555
C3 H23 1.092948 1_555
C3 H25 1.095454 1_555
C3 H27 1.095474 1_555
C3 N1 1.487426 1_555
C4 H32 1.094398 1_555
C4 H28 1.094719 1_555
C4 H30 1.096662 1_555
C4 N2 1.486478 1_556
C5 H33 1.094398 1_555
C5 H29 1.094719 1_555
C5 H31 1.096662 1_555
C5 N3 1.486478 1_554
C6 H34 1.094028 1_554
C6 H38 1.094050 1_555
C6 H36 1.095742 1_554
C6 N2 1.485554 1_555
C7 H35 1.094028 1_556
C7 H39 1.094055 1_555
C7 H37 1.095742 1_556
C7 N3 1.485554 1_555
O0 P0 1.525882 1_555
O1 P1 1.525882 1_555
O2 P0 1.604705 1_555
O3 P1 1.604705 1_555
O4 P0 1.517533 1_555
O5 P1 1.517533 1_555
O6 P0 1.599159 1_555
O7 P1 1.599159 1_555
O8 P2 1.577051 1_555
O9 P3 1.577051 1_555
O10 P2 1.535397 1_555
O11 P3 1.535397 1_555
O12 P2 1.523029 1_555
O13 P3 1.523029 1_555
O14 P2 1.606023 1_555
O15 P3 1.606023 1_555
