# generated using pymatgen
data_CeHf2F11
_symmetry_space_group_name_H-M   'P 1'
_cell_length_a   8.37267652
_cell_length_b   8.37259014
_cell_length_c   8.37299348
_cell_angle_alpha   125.17919635
_cell_angle_beta   106.55324680
_cell_angle_gamma   97.98359796
_symmetry_Int_Tables_number   1
_chemical_formula_structural   CeHf2F11
_chemical_formula_sum   'Ce2 Hf4 F22'
_cell_volume   424.07656156
_cell_formula_units_Z   2
loop_
 _symmetry_equiv_pos_site_id
 _symmetry_equiv_pos_as_xyz
  1  'x, y, z'
loop_
 _atom_site_type_symbol
 _atom_site_label
 _atom_site_symmetry_multiplicity
 _atom_site_fract_x
 _atom_site_fract_y
 _atom_site_fract_z
 _atom_site_occupancy
  Ce  Ce0  1  0.74923630  0.24924060  0.49999160  1
  Ce  Ce1  1  0.25034819  0.75036793  0.50005382  1
  Hf  Hf0  1  0.68036503  0.63201866  0.31238143  1
  Hf  Hf1  1  0.31963448  0.36797989  0.68763271  1
  Hf  Hf2  1  0.17980439  0.86764018  0.04769053  1
  Hf  Hf3  1  0.81998979  0.13215247  0.95232402  1
  F  F0  1  0.70238425  0.89073648  0.33882655  1
  F  F1  1  0.29733111  0.10961083  0.66160830  1
  F  F2  1  0.55187418  0.36350356  0.66112576  1
  F  F3  1  0.94752099  0.61007433  0.81298205  1
  F  F4  1  0.44805817  0.63578523  0.33848151  1
  F  F5  1  0.05199912  0.39060131  0.18850763  1
  F  F6  1  0.79709168  0.13459800  0.18704297  1
  F  F7  1  0.20201633  0.86348726  0.81147503  1
  F  F8  1  0.50010421  0.50012567  0.00000096  1
  F  F9  1  0.00063423  0.00064360  0.00002299  1
  F  F10  1  0.78007372  0.86883244  0.64925866  1
  F  F11  1  0.21950540  0.13069559  0.35076977  1
  F  F12  1  0.28035354  0.63120224  0.91144624  1
  F  F13  1  0.71969575  0.36887927  0.08851375  1
  F  F14  1  0.94788500  0.73965353  0.41356112  1
  F  F15  1  0.05194784  0.26151907  0.58603842  1
  F  F16  1  0.32604325  0.53422711  0.58633355  1
  F  F17  1  0.17411160  0.76027921  0.20828973  1
  F  F18  1  0.67549036  0.46591253  0.41398146  1
  F  F19  1  0.82678385  0.23972811  0.79204199  1
  F  F20  1  0.55206924  0.96576783  0.79169877  1
  F  F21  1  0.44764901  0.03473806  0.20791968  1
loop_
_geom_bond_atom_site_label_1
_geom_bond_atom_site_label_2
_geom_bond_distance
_geom_bond_site_symmetry_2
Ce0 F2 2.385021 1_555
Ce0 F0 2.385070 1_545
Ce0 F19 2.396175 1_555
Ce0 F21 2.396431 1_555
Ce0 F18 2.398752 1_555
Ce0 F6 2.398937 1_555
Ce0 F15 2.398989 1_655
Ce0 F3 2.399155 1_555
Ce1 F1 2.389836 1_565
Ce1 F4 2.390081 1_555
Ce1 F7 2.392077 1_555
Ce1 F5 2.392457 1_555
Ce1 F17 2.396256 1_555
Ce1 F20 2.396272 1_555
Ce1 F16 2.400525 1_555
Ce1 F14 2.400564 1_455
F0 Hf0 2.021957 1_555
F1 Hf1 2.020723 1_555
F2 Hf1 2.021926 1_555
F3 Hf2 2.017120 1_656
F4 Hf0 2.020692 1_555
F5 Hf3 2.019712 1_454
F6 Hf3 2.017176 1_554
F7 Hf2 2.019840 1_556
F8 Hf1 2.072979 1_554
F8 Hf0 2.073163 1_555
F9 Hf3 2.069917 1_454
F9 Hf2 2.069968 1_545
F10 Hf3 2.068143 1_565
F10 Hf0 2.082919 1_555
F11 Hf2 2.068070 1_545
F11 Hf1 2.082887 1_555
F12 Hf1 2.066549 1_555
F12 Hf2 2.082531 1_556
F13 Hf0 2.066545 1_555
F13 Hf3 2.082674 1_554
F14 Hf0 2.006274 1_555
F15 Hf1 2.006578 1_555
F16 Hf1 2.006309 1_555
F17 Hf2 2.008952 1_555
F18 Hf0 2.006681 1_555
F19 Hf3 2.009385 1_555
F20 Hf3 2.008846 1_565
F21 Hf2 2.009407 1_545
