# generated using pymatgen
data_Li2Ca2Si2O7
_symmetry_space_group_name_H-M   'P 1'
_cell_length_a   5.14711718
_cell_length_b   5.14711718
_cell_length_c   41.62912600
_cell_angle_alpha   90.00000000
_cell_angle_beta   90.00000000
_cell_angle_gamma   119.99998949
_symmetry_Int_Tables_number   1
_chemical_formula_structural   Li2Ca2Si2O7
_chemical_formula_sum   'Li12 Ca12 Si12 O42'
_cell_volume   955.11591609
_cell_formula_units_Z   6
loop_
 _symmetry_equiv_pos_site_id
 _symmetry_equiv_pos_as_xyz
  1  'x, y, z'
loop_
 _atom_site_type_symbol
 _atom_site_label
 _atom_site_symmetry_multiplicity
 _atom_site_fract_x
 _atom_site_fract_y
 _atom_site_fract_z
 _atom_site_occupancy
  Li  Li0  1  0.69810800  0.28662100  0.69312200  1
  Li  Li1  1  0.71337900  0.41148700  0.02645600  1
  Li  Li2  1  0.58851300  0.30189200  0.35978900  1
  Li  Li3  1  0.30189200  0.71337900  0.19312200  1
  Li  Li4  1  0.28662100  0.58851300  0.52645600  1
  Li  Li5  1  0.41148700  0.69810800  0.85978900  1
  Li  Li6  1  0.28662100  0.69810800  0.64021100  1
  Li  Li7  1  0.41148700  0.71337900  0.30687800  1
  Li  Li8  1  0.30189200  0.58851300  0.97354400  1
  Li  Li9  1  0.71337900  0.30189200  0.14021100  1
  Li  Li10  1  0.58851300  0.28662100  0.80687800  1
  Li  Li11  1  0.69810800  0.41148700  0.47354400  1
  Ca  Ca0  1  0.96117100  0.96117100  0.66666700  1
  Ca  Ca1  1  0.03882900  0.00000000  0.00000000  1
  Ca  Ca2  1  0.00000000  0.03882900  0.33333300  1
  Ca  Ca3  1  0.03882900  0.03882900  0.16666700  1
  Ca  Ca4  1  0.96117100  0.00000000  0.50000000  1
  Ca  Ca5  1  0.00000000  0.96117100  0.83333300  1
  Ca  Ca6  1  0.96385900  0.92771800  0.75000000  1
  Ca  Ca7  1  0.07228200  0.03614100  0.08333300  1
  Ca  Ca8  1  0.96385900  0.03614100  0.41666700  1
  Ca  Ca9  1  0.03614100  0.07228200  0.25000000  1
  Ca  Ca10  1  0.92771800  0.96385900  0.58333300  1
  Ca  Ca11  1  0.03614100  0.96385900  0.91666700  1
  Si  Si0  1  0.35367700  0.62664300  0.71249000  1
  Si  Si1  1  0.37335700  0.72703400  0.04582300  1
  Si  Si2  1  0.27296600  0.64632300  0.37915600  1
  Si  Si3  1  0.64632300  0.37335700  0.21249000  1
  Si  Si4  1  0.62664300  0.27296600  0.54582300  1
  Si  Si5  1  0.72703400  0.35367700  0.87915600  1
  Si  Si6  1  0.62664300  0.35367700  0.62084400  1
  Si  Si7  1  0.72703400  0.37335700  0.28751000  1
  Si  Si8  1  0.64632300  0.27296600  0.95417700  1
  Si  Si9  1  0.37335700  0.64632300  0.12084400  1
  Si  Si10  1  0.27296600  0.62664300  0.78751000  1
  Si  Si11  1  0.35367700  0.72703400  0.45417700  1
  O  O0  1  0.38818500  0.77637100  0.75000000  1
  O  O1  1  0.22362900  0.61181500  0.08333300  1
  O  O2  1  0.38818500  0.61181500  0.41666700  1
  O  O3  1  0.61181500  0.22362900  0.25000000  1
  O  O4  1  0.77637100  0.38818500  0.58333300  1
  O  O5  1  0.61181500  0.38818500  0.91666700  1
  O  O6  1  0.66625300  0.61928300  0.70771300  1
  O  O7  1  0.38071700  0.04697100  0.04104600  1
  O  O8  1  0.95302900  0.33374700  0.37437900  1
  O  O9  1  0.33374700  0.38071700  0.20771300  1
  O  O10  1  0.61928300  0.95302900  0.54104600  1
  O  O11  1  0.04697100  0.66625300  0.87437900  1
  O  O12  1  0.61928300  0.66625300  0.62562100  1
  O  O13  1  0.04697100  0.38071700  0.29228700  1
  O  O14  1  0.33374700  0.95302900  0.95895400  1
  O  O15  1  0.38071700  0.33374700  0.12562100  1
  O  O16  1  0.95302900  0.61928300  0.79228700  1
  O  O17  1  0.66625300  0.04697100  0.45895400  1
  O  O18  1  0.05852300  0.29153800  0.71145300  1
  O  O19  1  0.70846200  0.76698500  0.04478600  1
  O  O20  1  0.23301500  0.94147700  0.37812000  1
  O  O21  1  0.94147700  0.70846200  0.21145300  1
  O  O22  1  0.29153800  0.23301500  0.54478600  1
  O  O23  1  0.76698500  0.05852300  0.87812000  1
  O  O24  1  0.29153800  0.05852300  0.62188000  1
  O  O25  1  0.76698500  0.70846200  0.28854700  1
  O  O26  1  0.94147700  0.23301500  0.95521400  1
  O  O27  1  0.70846200  0.94147700  0.12188000  1
  O  O28  1  0.23301500  0.29153800  0.78854700  1
  O  O29  1  0.05852300  0.76698500  0.45521400  1
  O  O30  1  0.86795100  0.34463400  0.64553100  1
  O  O31  1  0.65536600  0.52331600  0.97886500  1
  O  O32  1  0.47668400  0.13204900  0.31219800  1
  O  O33  1  0.13204900  0.65536600  0.14553100  1
  O  O34  1  0.34463400  0.47668400  0.47886500  1
  O  O35  1  0.52331600  0.86795100  0.81219800  1
  O  O36  1  0.34463400  0.86795100  0.68780200  1
  O  O37  1  0.52331600  0.65536600  0.35446900  1
  O  O38  1  0.13204900  0.47668400  0.02113500  1
  O  O39  1  0.65536600  0.13204900  0.18780200  1
  O  O40  1  0.47668400  0.34463400  0.85446900  1
  O  O41  1  0.86795100  0.52331600  0.52113500  1
loop_
_geom_bond_atom_site_label_1
_geom_bond_atom_site_label_2
_geom_bond_distance
_geom_bond_site_symmetry_2
Li0 O6 1.899572 1_555
Li0 O18 1.994344 1_655
Li0 O36 2.020471 1_545
Li0 O30 2.125417 1_555
Li1 O7 1.899557 1_555
Li1 O19 1.994328 1_555
Li1 O38 2.020473 1_655
Li1 O31 2.125415 1_554
Li2 O8 1.899554 1_555
Li2 O20 1.994344 1_545
Li2 O37 2.020473 1_555
Li2 O32 2.125416 1_555
Li3 O9 1.899572 1_555
Li3 O21 1.994344 1_455
Li3 O39 2.020471 1_565
Li3 O33 2.125417 1_555
Li4 O10 1.899557 1_555
Li4 O22 1.994328 1_555
Li4 O41 2.020473 1_455
Li4 O34 2.125415 1_555
Li5 O11 1.899554 1_555
Li5 O23 1.994344 1_565
Li5 O40 2.020473 1_555
Li5 O35 2.125416 1_555
Li6 O12 1.899559 1_555
Li6 O24 1.994344 1_565
Li6 O30 2.020471 1_455
Li6 O36 2.125417 1_555
Li7 O13 1.899570 1_555
Li7 O25 1.994344 1_555
Li7 O32 2.020468 1_565
Li7 O37 2.125415 1_555
Li8 O14 1.899554 1_555
Li8 O26 1.994328 1_455
Li8 O31 2.020478 1_555
Li8 O38 2.125416 1_556
Li9 O15 1.899559 1_555
Li9 O27 1.994344 1_545
Li9 O33 2.020471 1_655
Li9 O39 2.125417 1_555
Li10 O16 1.899570 1_555
Li10 O28 1.994344 1_555
Li10 O35 2.020468 1_545
Li10 O40 2.125415 1_555
Li11 O17 1.899554 1_555
Li11 O29 1.994328 1_655
Li11 O34 2.020478 1_555
Li11 O41 2.125416 1_555
Ca0 O6 2.376842 1_555
Ca0 O12 2.376842 1_555
Ca0 O18 2.401355 1_665
Ca0 O24 2.401388 1_665
Ca0 O36 2.418048 1_655
Ca0 O30 2.418063 1_565
Ca1 O7 2.376840 1_555
Ca1 O14 2.376844 1_544
Ca1 O26 2.401355 1_454
Ca1 O19 2.401355 1_445
Ca1 O31 2.418051 1_444
Ca1 O38 2.418053 1_555
Ca2 O13 2.376840 1_555
Ca2 O8 2.376844 1_455
Ca2 O25 2.401355 1_445
Ca2 O20 2.401388 1_545
Ca2 O32 2.418053 1_555
Ca2 O37 2.418066 1_445
Ca3 O9 2.376842 1_555
Ca3 O15 2.376842 1_555
Ca3 O21 2.401355 1_445
Ca3 O27 2.401388 1_445
Ca3 O39 2.418048 1_455
Ca3 O33 2.418063 1_545
Ca4 O10 2.376840 1_545
Ca4 O17 2.376844 1_555
Ca4 O29 2.401355 1_645
Ca4 O22 2.401355 1_655
Ca4 O34 2.418051 1_655
Ca4 O41 2.418053 1_545
Ca5 O16 2.376840 1_455
Ca5 O11 2.376844 1_555
Ca5 O28 2.401355 1_565
Ca5 O23 2.401388 1_465
Ca5 O35 2.418053 1_455
Ca5 O40 2.418066 1_565
Ca6 O18 2.325229 1_665
Ca6 O28 2.325230 1_665
Ca6 O16 2.352411 1_555
Ca6 O6 2.352412 1_555
Ca6 O0 2.660512 1_655
Ca6 O0 2.660517 1_555
Ca7 O27 2.325229 1_445
Ca7 O19 2.325230 1_445
Ca7 O7 2.352411 1_555
Ca7 O15 2.352444 1_555
Ca7 O1 2.660512 1_545
Ca7 O1 2.660517 1_555
Ca8 O20 2.325229 1_645
Ca8 O29 2.325229 1_645
Ca8 O17 2.352414 1_555
Ca8 O8 2.352445 1_555
Ca8 O2 2.660516 1_545
Ca8 O2 2.660516 1_655
Ca9 O21 2.325229 1_445
Ca9 O25 2.325230 1_445
Ca9 O13 2.352411 1_555
Ca9 O9 2.352412 1_555
Ca9 O3 2.660512 1_455
Ca9 O3 2.660517 1_555
Ca10 O24 2.325229 1_665
Ca10 O22 2.325230 1_665
Ca10 O10 2.352411 1_555
Ca10 O12 2.352444 1_555
Ca10 O4 2.660512 1_565
Ca10 O4 2.660517 1_555
Ca11 O23 2.325229 1_465
Ca11 O26 2.325229 1_465
Ca11 O14 2.352414 1_555
Ca11 O11 2.352445 1_555
Ca11 O5 2.660516 1_455
Ca11 O5 2.660516 1_565
O0 Si10 1.710818 1_555
O0 Si0 1.710819 1_555
O1 Si1 1.710818 1_555
O1 Si9 1.710857 1_555
O2 Si11 1.710817 1_555
O2 Si2 1.710855 1_555
O3 Si7 1.710818 1_555
O3 Si3 1.710819 1_555
O4 Si4 1.710818 1_555
O4 Si6 1.710857 1_555
O5 Si8 1.710817 1_555
O5 Si5 1.710855 1_555
O6 Si0 1.640237 1_555
O7 Si1 1.640242 1_545
O8 Si2 1.640240 1_655
O9 Si3 1.640237 1_555
O10 Si4 1.640242 1_565
O11 Si5 1.640240 1_455
O12 Si6 1.640237 1_555
O13 Si7 1.640242 1_455
O14 Si8 1.640240 1_565
O15 Si9 1.640237 1_555
O16 Si10 1.640242 1_655
O17 Si11 1.640240 1_545
O18 Si0 1.632326 1_555
O19 Si1 1.632326 1_555
O20 Si2 1.632325 1_555
O21 Si3 1.632326 1_555
O22 Si4 1.632326 1_555
O23 Si5 1.632325 1_555
O24 Si6 1.632325 1_555
O25 Si7 1.632326 1_555
O26 Si8 1.632326 1_555
O27 Si9 1.632325 1_555
O28 Si10 1.632326 1_555
O29 Si11 1.632326 1_555
O30 Si6 1.630585 1_555
O31 Si8 1.630607 1_555
O32 Si7 1.630609 1_555
O33 Si9 1.630585 1_555
O34 Si11 1.630607 1_555
O35 Si10 1.630609 1_555
O36 Si0 1.630611 1_555
O37 Si2 1.630581 1_555
O38 Si1 1.630609 1_555
O39 Si3 1.630611 1_555
O40 Si5 1.630581 1_555
O41 Si4 1.630609 1_555
