# generated using pymatgen
data_Sc25InIr7
_symmetry_space_group_name_H-M   'P 1'
_cell_length_a   12.48886495
_cell_length_b   12.48886185
_cell_length_c   12.48885856
_cell_angle_alpha   59.99964461
_cell_angle_beta   59.99961275
_cell_angle_gamma   59.99958546
_symmetry_Int_Tables_number   1
_chemical_formula_structural   Sc25InIr7
_chemical_formula_sum   'Sc50 In2 Ir14'
_cell_volume   1377.36734302
_cell_formula_units_Z   2
loop_
 _symmetry_equiv_pos_site_id
 _symmetry_equiv_pos_as_xyz
  1  'x, y, z'
loop_
 _atom_site_type_symbol
 _atom_site_label
 _atom_site_symmetry_multiplicity
 _atom_site_fract_x
 _atom_site_fract_y
 _atom_site_fract_z
 _atom_site_occupancy
  Sc  Sc0  1  0.78721560  0.21278408  0.21278494  1
  Sc  Sc1  1  0.21278440  0.78721592  0.78721506  1
  Sc  Sc2  1  0.21278473  0.78721585  0.21278396  1
  Sc  Sc3  1  0.78721527  0.21278415  0.78721604  1
  Sc  Sc4  1  0.21278423  0.21278435  0.78721561  1
  Sc  Sc5  1  0.78721577  0.78721565  0.21278439  1
  Sc  Sc6  1  0.44812138  0.26798176  0.73201845  1
  Sc  Sc7  1  0.55187862  0.73201824  0.26798155  1
  Sc  Sc8  1  0.26798188  0.44812158  0.55187849  1
  Sc  Sc9  1  0.73201812  0.55187842  0.44812151  1
  Sc  Sc10  1  0.73201846  0.44812146  0.26798169  1
  Sc  Sc11  1  0.26798154  0.55187854  0.73201831  1
  Sc  Sc12  1  0.55187857  0.26798123  0.44812164  1
  Sc  Sc13  1  0.44812143  0.73201877  0.55187836  1
  Sc  Sc14  1  0.26798211  0.73201826  0.44812136  1
  Sc  Sc15  1  0.73201789  0.26798174  0.55187864  1
  Sc  Sc16  1  0.55187822  0.44812151  0.73201850  1
  Sc  Sc17  1  0.44812178  0.55187849  0.26798150  1
  Sc  Sc18  1  0.32403095  0.99011443  0.19328231  1
  Sc  Sc19  1  0.67596905  0.00988557  0.80671769  1
  Sc  Sc20  1  0.99011357  0.32403152  0.49257302  1
  Sc  Sc21  1  0.19328130  0.49257297  0.32403223  1
  Sc  Sc22  1  0.19328236  0.32403048  0.99011338  1
  Sc  Sc23  1  0.00988643  0.67596848  0.50742698  1
  Sc  Sc24  1  0.80671870  0.50742703  0.67596777  1
  Sc  Sc25  1  0.80671764  0.67596952  0.00988662  1
  Sc  Sc26  1  0.49257312  0.19328080  0.99011331  1
  Sc  Sc27  1  0.49257212  0.99011461  0.32403108  1
  Sc  Sc28  1  0.50742688  0.80671920  0.00988669  1
  Sc  Sc29  1  0.50742788  0.00988539  0.67596892  1
  Sc  Sc30  1  0.32403175  0.19328124  0.49257396  1
  Sc  Sc31  1  0.67596825  0.80671876  0.50742604  1
  Sc  Sc32  1  0.99011368  0.49257248  0.19328104  1
  Sc  Sc33  1  0.00988632  0.50742752  0.80671896  1
  Sc  Sc34  1  0.99011435  0.19328251  0.32403031  1
  Sc  Sc35  1  0.00988565  0.80671749  0.67596969  1
  Sc  Sc36  1  0.49257398  0.32403141  0.19328163  1
  Sc  Sc37  1  0.50742602  0.67596859  0.80671837  1
  Sc  Sc38  1  0.19328128  0.99011366  0.49257247  1
  Sc  Sc39  1  0.80671872  0.00988634  0.50742753  1
  Sc  Sc40  1  0.32403178  0.49257364  0.99011312  1
  Sc  Sc41  1  0.67596822  0.50742636  0.00988688  1
  Sc  Sc42  1  0.09048929  0.09048912  0.09048958  1
  Sc  Sc43  1  0.90951071  0.90951088  0.90951042  1
  Sc  Sc44  1  0.09048976  0.09048924  0.72853189  1
  Sc  Sc45  1  0.09048933  0.72853248  0.09048938  1
  Sc  Sc46  1  0.90951024  0.90951076  0.27146811  1
  Sc  Sc47  1  0.90951067  0.27146752  0.90951062  1
  Sc  Sc48  1  0.72853202  0.09048962  0.09048932  1
  Sc  Sc49  1  0.27146798  0.90951038  0.90951068  1
  In  In0  1  0.25000031  0.25000022  0.25000011  1
  In  In1  1  0.74999969  0.74999978  0.74999989  1
  Ir  Ir0  1  0.36698280  0.06215744  0.93784457  1
  Ir  Ir1  1  0.63301720  0.93784256  0.06215543  1
  Ir  Ir2  1  0.06215684  0.36698131  0.63301663  1
  Ir  Ir3  1  0.93784316  0.63301869  0.36698337  1
  Ir  Ir4  1  0.93784566  0.36698100  0.06215715  1
  Ir  Ir5  1  0.06215434  0.63301900  0.93784285  1
  Ir  Ir6  1  0.63301810  0.06215557  0.36698093  1
  Ir  Ir7  1  0.36698190  0.93784443  0.63301907  1
  Ir  Ir8  1  0.06215736  0.93784493  0.36698341  1
  Ir  Ir9  1  0.93784264  0.06215507  0.63301659  1
  Ir  Ir10  1  0.63301772  0.36698313  0.93784412  1
  Ir  Ir11  1  0.36698228  0.63301687  0.06215588  1
  Ir  Ir12  1  0.00000000  -0.00000000  0.00000000  1
  Ir  Ir13  1  0.50000000  0.50000000  0.50000000  1
loop_
_geom_bond_atom_site_label_1
_geom_bond_atom_site_label_2
_geom_bond_distance
_geom_bond_site_symmetry_2
In0 Sc27 3.245633 1_545
In0 Sc20 3.245647 1_455
In0 Sc32 3.245649 1_455
In0 Sc38 3.245651 1_545
In0 Sc26 3.245653 1_554
In0 Sc40 3.245654 1_554
In0 Sc18 3.245656 1_545
In0 Sc34 3.245661 1_455
In0 Sc21 3.245662 1_555
In0 Sc36 3.245670 1_555
In0 Sc30 3.245670 1_555
In0 Sc22 3.245670 1_554
In1 Sc29 3.245633 1_565
In1 Sc23 3.245647 1_655
In1 Sc33 3.245649 1_655
In1 Sc39 3.245651 1_565
In1 Sc28 3.245653 1_556
In1 Sc41 3.245654 1_556
In1 Sc19 3.245656 1_565
In1 Sc35 3.245661 1_655
In1 Sc24 3.245662 1_555
In1 Sc37 3.245670 1_555
In1 Sc31 3.245670 1_555
In1 Sc25 3.245670 1_556
Ir0 Sc18 2.678665 1_546
Ir0 Sc28 2.678666 1_546
Ir0 Sc4 2.692097 1_555
Ir0 Sc6 2.763029 1_555
Ir0 Sc42 2.924558 1_556
Ir0 Sc49 2.924601 1_545
Ir0 Sc22 3.074443 1_555
Ir0 Sc29 3.074491 1_555
Ir0 Sc26 3.198333 1_555
Ir0 Sc19 3.198346 1_555
Ir1 Sc19 2.678665 1_564
Ir1 Sc26 2.678666 1_564
Ir1 Sc5 2.692097 1_555
Ir1 Sc7 2.763029 1_555
Ir1 Sc43 2.924558 1_554
Ir1 Sc48 2.924601 1_565
Ir1 Sc25 3.074443 1_555
Ir1 Sc27 3.074491 1_555
Ir1 Sc28 3.198333 1_555
Ir1 Sc18 3.198346 1_555
Ir2 Sc24 2.678670 1_455
Ir2 Sc20 2.678674 1_455
Ir2 Sc4 2.692086 1_555
Ir2 Sc8 2.763058 1_555
Ir2 Sc44 2.924544 1_555
Ir2 Sc47 2.924558 1_455
Ir2 Sc30 3.074452 1_555
Ir2 Sc33 3.074519 1_555
Ir2 Sc21 3.198329 1_555
Ir2 Sc23 3.198359 1_555
Ir3 Sc21 2.678670 1_655
Ir3 Sc23 2.678674 1_655
Ir3 Sc5 2.692086 1_555
Ir3 Sc9 2.763058 1_555
Ir3 Sc46 2.924544 1_555
Ir3 Sc45 2.924558 1_655
Ir3 Sc31 3.074452 1_555
Ir3 Sc32 3.074519 1_555
Ir3 Sc24 3.198329 1_555
Ir3 Sc20 3.198359 1_555
Ir4 Sc22 2.678656 1_654
Ir4 Sc33 2.678672 1_654
Ir4 Sc0 2.692093 1_555
Ir4 Sc10 2.763041 1_555
Ir4 Sc42 2.924537 1_655
Ir4 Sc47 2.924589 1_554
Ir4 Sc34 3.074444 1_555
Ir4 Sc41 3.074502 1_555
Ir4 Sc32 3.198344 1_555
Ir4 Sc25 3.198372 1_555
Ir5 Sc25 2.678656 1_456
Ir5 Sc32 2.678672 1_456
Ir5 Sc1 2.692093 1_555
Ir5 Sc11 2.763041 1_555
Ir5 Sc43 2.924537 1_455
Ir5 Sc45 2.924589 1_556
Ir5 Sc35 3.074444 1_555
Ir5 Sc40 3.074502 1_555
Ir5 Sc33 3.198344 1_555
Ir5 Sc22 3.198372 1_555
Ir6 Sc31 2.678658 1_545
Ir6 Sc27 2.678680 1_545
Ir6 Sc0 2.692084 1_555
Ir6 Sc12 2.763062 1_555
Ir6 Sc46 2.924535 1_545
Ir6 Sc48 2.924536 1_555
Ir6 Sc36 3.074462 1_555
Ir6 Sc39 3.074512 1_555
Ir6 Sc30 3.198350 1_555
Ir6 Sc29 3.198367 1_555
Ir7 Sc30 2.678658 1_565
Ir7 Sc29 2.678680 1_565
Ir7 Sc1 2.692084 1_555
Ir7 Sc13 2.763062 1_555
Ir7 Sc44 2.924535 1_565
Ir7 Sc49 2.924536 1_555
Ir7 Sc37 3.074462 1_555
Ir7 Sc38 3.074512 1_555
Ir7 Sc31 3.198350 1_555
Ir7 Sc27 3.198367 1_555
Ir8 Sc34 2.678660 1_465
Ir8 Sc39 2.678669 1_465
Ir8 Sc2 2.692104 1_555
Ir8 Sc14 2.763030 1_555
Ir8 Sc42 2.924559 1_565
Ir8 Sc46 2.924608 1_455
Ir8 Sc18 3.074455 1_555
Ir8 Sc23 3.074497 1_555
Ir8 Sc38 3.198325 1_555
Ir8 Sc35 3.198347 1_555
Ir9 Sc35 2.678660 1_645
Ir9 Sc38 2.678669 1_645
Ir9 Sc3 2.692104 1_555
Ir9 Sc15 2.763030 1_555
Ir9 Sc43 2.924559 1_545
Ir9 Sc44 2.924608 1_655
Ir9 Sc19 3.074455 1_555
Ir9 Sc20 3.074497 1_555
Ir9 Sc39 3.198325 1_555
Ir9 Sc34 3.198347 1_555
Ir10 Sc36 2.678660 1_556
Ir10 Sc41 2.678671 1_556
Ir10 Sc3 2.692090 1_555
Ir10 Sc16 2.763056 1_555
Ir10 Sc48 2.924551 1_556
Ir10 Sc47 2.924552 1_555
Ir10 Sc24 3.074474 1_555
Ir10 Sc26 3.074512 1_555
Ir10 Sc37 3.198340 1_555
Ir10 Sc40 3.198348 1_555
Ir11 Sc37 2.678660 1_554
Ir11 Sc40 2.678671 1_554
Ir11 Sc2 2.692090 1_555
Ir11 Sc17 2.763056 1_555
Ir11 Sc49 2.924551 1_554
Ir11 Sc45 2.924552 1_555
Ir11 Sc21 3.074474 1_555
Ir11 Sc28 3.074512 1_555
Ir11 Sc36 3.198340 1_555
Ir11 Sc41 3.198348 1_555
Ir12 Sc45 2.768172 1_545
Ir12 Sc47 2.768172 1_454
Ir12 Sc49 2.768176 1_544
Ir12 Sc48 2.768176 1_455
Ir12 Sc46 2.768178 1_445
Ir12 Sc44 2.768178 1_554
Ir12 Sc43 2.768198 1_444
Ir12 Sc42 2.768198 1_555
Ir13 Sc15 2.969176 1_555
Ir13 Sc14 2.969176 1_555
Ir13 Sc11 2.969179 1_555
Ir13 Sc10 2.969179 1_555
Ir13 Sc6 2.969181 1_555
Ir13 Sc7 2.969181 1_555
Ir13 Sc9 2.969193 1_555
Ir13 Sc8 2.969193 1_555
Ir13 Sc16 2.969195 1_555
Ir13 Sc17 2.969195 1_555
Ir13 Sc12 2.969198 1_555
Ir13 Sc13 2.969198 1_555
