# generated using pymatgen
data_HfCrCuS4
_symmetry_space_group_name_H-M   'P 1'
_cell_length_a   7.16223143
_cell_length_b   7.16223143
_cell_length_c   7.16223143
_cell_angle_alpha   119.51857254
_cell_angle_beta   119.27525909
_cell_angle_gamma   91.04791233
_symmetry_Int_Tables_number   1
_chemical_formula_structural   HfCrCuS4
_chemical_formula_sum   'Hf2 Cr2 Cu2 S8'
_cell_volume   262.11384626
_cell_formula_units_Z   2
loop_
 _symmetry_equiv_pos_site_id
 _symmetry_equiv_pos_as_xyz
  1  'x, y, z'
loop_
 _atom_site_type_symbol
 _atom_site_label
 _atom_site_symmetry_multiplicity
 _atom_site_fract_x
 _atom_site_fract_y
 _atom_site_fract_z
 _atom_site_occupancy
  Hf  Hf0  1  0.26322500  0.75000000  0.01322500  1
  Hf  Hf1  1  0.23677500  0.25000000  0.48677500  1
  Cr  Cr0  1  0.25000000  0.75228700  0.50228700  1
  Cr  Cr1  1  0.75000000  0.74771300  0.99771300  1
  Cu  Cu0  1  0.87701000  0.12701000  0.75000000  1
  Cu  Cu1  1  0.62299000  0.37299000  0.25000000  1
  S  S0  1  0.50345600  0.97976700  0.97906200  1
  S  S1  1  0.01204600  0.51496800  0.51289100  1
  S  S2  1  0.50070500  0.52439400  0.52093800  1
  S  S3  1  0.50207700  0.49915500  0.98710900  1
  S  S4  1  0.99929500  0.52023300  0.02368900  1
  S  S5  1  0.99792300  0.98503200  0.99707800  1
  S  S6  1  0.99654400  0.97560600  0.47631100  1
  S  S7  1  0.48795400  0.00084500  0.50292200  1
loop_
_geom_bond_atom_site_label_1
_geom_bond_atom_site_label_2
_geom_bond_distance
_geom_bond_site_symmetry_2
Hf0 S7 2.506702 1_565
Hf0 S3 2.506702 1_554
Hf0 S4 2.536416 1_455
Hf0 S0 2.536416 1_554
Hf0 S5 2.559601 1_454
Hf0 S1 2.559601 1_554
Hf1 S5 2.506702 1_444
Hf1 S1 2.506702 1_555
Hf1 S2 2.536416 1_555
Hf1 S6 2.536416 1_445
Hf1 S7 2.559601 1_555
Hf1 S3 2.559601 1_555
Cr0 S1 2.438705 1_555
Cr0 S7 2.438705 1_565
Cr0 S6 2.440773 1_455
Cr0 S0 2.440773 1_555
Cr0 S4 2.448197 1_455
Cr0 S2 2.448197 1_555
Cr1 S3 2.438705 1_555
Cr1 S5 2.438705 1_555
Cr1 S2 2.440773 1_555
Cr1 S4 2.440773 1_556
Cr1 S6 2.448197 1_556
Cr1 S0 2.448197 1_555
Cu0 S5 2.285223 1_545
Cu0 S7 2.285223 1_555
Cu0 S4 2.309105 1_556
Cu0 S6 2.309105 1_545
Cu1 S1 2.285223 1_655
Cu1 S3 2.285223 1_554
Cu1 S0 2.309105 1_544
Cu1 S2 2.309105 1_555
