# generated using pymatgen
data_Al2Si2PbO10
_symmetry_space_group_name_H-M   'P 1'
_cell_length_a   5.71534593
_cell_length_b   8.97975432
_cell_length_c   12.52585396
_cell_angle_alpha   90.00000000
_cell_angle_beta   90.00000000
_cell_angle_gamma   90.00000000
_symmetry_Int_Tables_number   1
_chemical_formula_structural   Al2Si2PbO10
_chemical_formula_sum   'Al8 Si8 Pb4 O40'
_cell_volume   642.85691615
_cell_formula_units_Z   4
loop_
 _symmetry_equiv_pos_site_id
 _symmetry_equiv_pos_as_xyz
  1  'x, y, z'
loop_
 _atom_site_type_symbol
 _atom_site_label
 _atom_site_symmetry_multiplicity
 _atom_site_fract_x
 _atom_site_fract_y
 _atom_site_fract_z
 _atom_site_occupancy
  Al  Al0  1  0.25057704  0.74993299  -0.00036476  1
  Al  Al1  1  0.24942296  0.24993299  0.50036476  1
  Al  Al2  1  0.74942296  0.25006701  0.49963524  1
  Al  Al3  1  0.75057704  0.75006701  0.00036476  1
  Al  Al4  1  0.74942296  0.25006701  0.00036476  1
  Al  Al5  1  0.75057704  0.75006701  0.49963524  1
  Al  Al6  1  0.25057704  0.74993299  0.50036476  1
  Al  Al7  1  0.24942296  0.24993299  -0.00036476  1
  Si  Si0  1  0.50074118  0.51764428  0.86873909  1
  Si  Si1  1  0.99925882  0.01764428  0.63126091  1
  Si  Si2  1  0.49925882  0.48235572  0.36873909  1
  Si  Si3  1  0.00074118  0.98235572  0.13126091  1
  Si  Si4  1  0.49925882  0.48235572  0.13126091  1
  Si  Si5  1  0.00074118  0.98235572  0.36873909  1
  Si  Si6  1  0.50074118  0.51764428  0.63126091  1
  Si  Si7  1  0.99925882  0.01764428  0.86873909  1
  Pb  Pb0  1  0.49910961  0.93905078  0.25000000  1
  Pb  Pb1  1  0.00089039  0.43905078  0.25000000  1
  Pb  Pb2  1  0.50089039  0.06094922  0.75000000  1
  Pb  Pb3  1  -0.00089039  0.56094922  0.75000000  1
  O  O0  1  0.49454265  0.55452783  0.25000000  1
  O  O1  1  0.00545735  0.05452783  0.25000000  1
  O  O2  1  0.50545735  0.44547217  0.75000000  1
  O  O3  1  0.99454265  0.94547217  0.75000000  1
  O  O4  1  0.76292441  0.88020722  0.37688530  1
  O  O5  1  0.73707559  0.38020722  0.12311470  1
  O  O6  1  0.23707559  0.11979278  0.87688530  1
  O  O7  1  0.26292441  0.61979278  0.62311470  1
  O  O8  1  0.23707559  0.11979278  0.62311470  1
  O  O9  1  0.26292441  0.61979278  0.87688530  1
  O  O10  1  0.76292441  0.88020722  0.12311470  1
  O  O11  1  0.73707559  0.38020722  0.37688530  1
  O  O12  1  0.49969653  0.37066862  0.94506575  1
  O  O13  1  0.00030347  0.87066862  0.55493425  1
  O  O14  1  0.50030347  0.62933138  0.44506575  1
  O  O15  1  -0.00030347  0.12933138  0.05493425  1
  O  O16  1  0.50030347  0.62933138  0.05493425  1
  O  O17  1  -0.00030347  0.12933138  0.44506575  1
  O  O18  1  0.49969653  0.37066862  0.55493425  1
  O  O19  1  0.00030347  0.87066862  0.94506575  1
  O  O20  1  0.50072416  0.85847565  0.94573100  1
  O  O21  1  -0.00072416  0.35847565  0.55426900  1
  O  O22  1  0.49927584  0.14152435  0.44573100  1
  O  O23  1  0.00072416  0.64152435  0.05426900  1
  O  O24  1  0.49927584  0.14152435  0.05426900  1
  O  O25  1  0.00072416  0.64152435  0.44573100  1
  O  O26  1  0.50072416  0.85847565  0.55426900  1
  O  O27  1  -0.00072416  0.35847565  0.94573100  1
  O  O28  1  0.51203161  0.16239969  0.25000000  1
  O  O29  1  0.98796839  0.66239969  0.25000000  1
  O  O30  1  0.48796839  0.83760031  0.75000000  1
  O  O31  1  0.01203161  0.33760031  0.75000000  1
  O  O32  1  0.23817376  0.87945013  0.12272724  1
  O  O33  1  0.26182624  0.37945013  0.37727276  1
  O  O34  1  0.76182624  0.12054987  0.62272724  1
  O  O35  1  0.73817376  0.62054987  0.87727276  1
  O  O36  1  0.76182624  0.12054987  0.87727276  1
  O  O37  1  0.73817376  0.62054987  0.62272724  1
  O  O38  1  0.23817376  0.87945013  0.37727276  1
  O  O39  1  0.26182624  0.37945013  0.12272724  1
loop_
_geom_bond_atom_site_label_1
_geom_bond_atom_site_label_2
_geom_bond_distance
_geom_bond_site_symmetry_2
Al0 O20 1.857386 1_554
Al0 O23 1.858805 1_555
Al0 O19 1.920598 1_554
Al0 O16 1.920866 1_555
Al0 O9 1.932543 1_554
Al0 O32 1.932593 1_555
Al1 O21 1.857386 1_555
Al1 O22 1.858805 1_555
Al1 O18 1.920598 1_555
Al1 O17 1.920866 1_555
Al1 O8 1.932543 1_555
Al1 O33 1.932593 1_555
Al2 O22 1.857386 1_555
Al2 O21 1.858805 1_655
Al2 O17 1.920598 1_655
Al2 O18 1.920866 1_555
Al2 O11 1.932543 1_555
Al2 O34 1.932593 1_555
Al3 O23 1.857386 1_655
Al3 O20 1.858805 1_554
Al3 O16 1.920598 1_555
Al3 O19 1.920866 1_654
Al3 O10 1.932543 1_555
Al3 O35 1.932593 1_554
Al4 O24 1.857386 1_555
Al4 O27 1.858805 1_654
Al4 O15 1.920598 1_655
Al4 O12 1.920866 1_554
Al4 O5 1.932543 1_555
Al4 O36 1.932593 1_554
Al5 O25 1.857386 1_655
Al5 O26 1.858805 1_555
Al5 O14 1.920598 1_555
Al5 O13 1.920866 1_655
Al5 O4 1.932543 1_555
Al5 O37 1.932593 1_555
Al6 O26 1.857386 1_555
Al6 O25 1.858805 1_555
Al6 O13 1.920598 1_555
Al6 O14 1.920866 1_555
Al6 O7 1.932543 1_555
Al6 O38 1.932593 1_555
Al7 O27 1.857386 1_554
Al7 O24 1.858805 1_555
Al7 O12 1.920598 1_554
Al7 O15 1.920866 1_555
Al7 O6 1.932543 1_554
Al7 O39 1.932593 1_555
O0 Si2 1.622600 1_555
O0 Si4 1.622600 1_555
O1 Si3 1.622600 1_545
O1 Si5 1.622600 1_545
O2 Si0 1.622600 1_555
O2 Si6 1.622600 1_555
O3 Si7 1.622600 1_565
O3 Si1 1.622600 1_565
O4 Si5 1.642934 1_655
O4 Pb0 2.253590 1_555
O5 Si4 1.642934 1_555
O5 Pb1 2.253590 1_655
O6 Si7 1.642934 1_455
O6 Pb2 2.253590 1_555
O7 Si6 1.642934 1_555
O7 Pb3 2.253590 1_555
O8 Si1 1.642934 1_455
O8 Pb2 2.253590 1_555
O9 Si0 1.642934 1_555
O9 Pb3 2.253590 1_555
O10 Si3 1.642934 1_655
O10 Pb0 2.253590 1_555
O11 Si2 1.642934 1_555
O11 Pb1 2.253590 1_655
O12 Si0 1.629713 1_555
O13 Si1 1.629713 1_465
O14 Si2 1.629713 1_555
O15 Si3 1.629713 1_545
O16 Si4 1.629713 1_555
O17 Si5 1.629713 1_545
O18 Si6 1.629713 1_555
O19 Si7 1.629713 1_465
O28 Pb0 2.006978 1_545
O29 Pb1 2.006978 1_655
O30 Pb2 2.006978 1_565
O31 Pb3 2.006978 1_555
O32 Si3 1.645235 1_555
O32 Pb0 2.247666 1_555
O33 Si2 1.645235 1_555
O33 Pb1 2.247666 1_555
O34 Si1 1.645235 1_555
O34 Pb2 2.247666 1_555
O35 Si0 1.645235 1_555
O35 Pb3 2.247666 1_655
O36 Si7 1.645235 1_555
O36 Pb2 2.247666 1_555
O37 Si6 1.645235 1_555
O37 Pb3 2.247666 1_655
O38 Si5 1.645235 1_555
O38 Pb0 2.247666 1_555
O39 Si4 1.645235 1_555
O39 Pb1 2.247666 1_555
