# generated using pymatgen
data_Mg2Si3
_symmetry_space_group_name_H-M   'P 1'
_cell_length_a   5.26324132
_cell_length_b   3.55733381
_cell_length_c   20.36283437
_cell_angle_alpha   89.96322185
_cell_angle_beta   80.00746051
_cell_angle_gamma   109.04329115
_symmetry_Int_Tables_number   1
_chemical_formula_structural   Mg2Si3
_chemical_formula_sum   'Mg8 Si12'
_cell_volume   354.25130637
_cell_formula_units_Z   4
loop_
 _symmetry_equiv_pos_site_id
 _symmetry_equiv_pos_as_xyz
  1  'x, y, z'
loop_
 _atom_site_type_symbol
 _atom_site_label
 _atom_site_symmetry_multiplicity
 _atom_site_fract_x
 _atom_site_fract_y
 _atom_site_fract_z
 _atom_site_occupancy
  Mg  Mg0  1  0.11332500  0.35443100  0.81312600  1
  Mg  Mg1  1  0.88663500  0.24546800  0.18690000  1
  Mg  Mg2  1  0.75700400  0.68045700  0.94288000  1
  Mg  Mg3  1  0.24299100  0.91974300  0.05710400  1
  Mg  Mg4  1  0.45280600  0.52986300  0.28456100  1
  Mg  Mg5  1  0.54718800  0.07028700  0.71543800  1
  Mg  Mg6  1  0.14702600  0.37526800  0.42630700  1
  Mg  Mg7  1  0.85304600  0.22437800  0.57367800  1
  Si  Si0  1  0.19010700  0.39825200  0.94896300  1
  Si  Si1  1  0.81000100  0.20180300  0.05098300  1
  Si  Si2  1  0.44070500  0.02059300  0.87571800  1
  Si  Si3  1  0.55965200  0.57964300  0.12418900  1
  Si  Si4  1  0.98151400  0.79301900  0.31348100  1
  Si  Si5  1  0.01830500  0.80723600  0.68659200  1
  Si  Si6  1  0.65802500  0.62642200  0.46543500  1
  Si  Si7  1  0.34176000  0.97260400  0.53467200  1
  Si  Si8  1  0.66528100  0.13749000  0.37222400  1
  Si  Si9  1  0.33470800  0.46284900  0.62782500  1
  Si  Si10  1  0.70628100  0.64910700  0.80187800  1
  Si  Si11  1  0.29368100  0.95100800  0.19813900  1
loop_
_geom_bond_atom_site_label_1
_geom_bond_atom_site_label_2
_geom_bond_distance
_geom_bond_site_symmetry_2
Mg0 Si10 2.715981 1_455
Mg0 Si10 2.756975 1_445
Mg0 Si2 2.845937 1_555
Mg0 Si0 2.861099 1_555
Mg0 Si2 2.882823 1_565
Mg0 Si10 2.916832 1_555
Mg0 Si5 3.232815 1_555
Mg0 Si5 3.239810 1_545
Mg1 Si11 2.715456 1_645
Mg1 Si11 2.757445 1_655
Mg1 Si3 2.846302 1_555
Mg1 Si1 2.862482 1_555
Mg1 Si3 2.882548 1_545
Mg1 Si11 2.916834 1_545
Mg1 Si4 3.232571 1_545
Mg1 Si4 3.241224 1_555
Mg2 Si0 2.794737 1_655
Mg2 Si0 2.800471 1_555
Mg2 Si0 2.834022 1_665
Mg2 Si2 2.865011 1_565
Mg2 Si1 2.871193 1_566
Mg2 Si1 2.888073 1_556
Mg2 Si2 2.897588 1_555
Mg2 Si10 2.928224 1_555
Mg3 Si1 2.793999 1_465
Mg3 Si1 2.800916 1_565
Mg3 Si1 2.834185 1_455
Mg3 Si3 2.865554 1_555
Mg3 Si0 2.872105 1_554
Mg3 Si0 2.888105 1_564
Mg3 Si3 2.897518 1_565
Mg3 Si11 2.928847 1_555
Mg4 Si11 2.714713 1_555
Mg4 Si11 2.725668 1_545
Mg4 Si4 2.799311 1_555
Mg4 Si8 2.844913 1_555
Mg4 Si8 2.868730 1_565
Mg4 Si4 2.895725 1_455
Mg4 Si4 2.935748 1_445
Mg4 Mg6 3.005312 1_555
Mg5 Si10 2.714950 1_545
Mg5 Si10 2.725814 1_555
Mg5 Si5 2.799579 1_545
Mg5 Si9 2.844639 1_555
Mg5 Si9 2.867613 1_545
Mg5 Si5 2.894564 1_645
Mg5 Si5 2.935420 1_655
Mg5 Mg7 3.005673 1_555
Mg6 Si6 2.800544 1_555
Mg6 Si8 2.815663 1_455
Mg6 Si6 2.974383 1_455
Mg6 Si6 3.027670 1_445
Mg6 Mg7 3.087415 1_455
Mg6 Si7 3.116138 1_545
Mg6 Si4 3.127391 1_455
Mg6 Si7 3.131234 1_555
Mg6 Si8 3.135757 1_555
Mg6 Si4 3.138550 1_445
Mg6 Si8 3.183162 1_565
Mg7 Si7 2.800806 1_545
Mg7 Si9 2.816014 1_655
Mg7 Si7 2.973993 1_645
Mg7 Si7 3.025275 1_655
Mg7 Si6 3.113898 1_555
Mg7 Si5 3.126823 1_645
Mg7 Si6 3.130949 1_545
Mg7 Si9 3.137776 1_555
Mg7 Si5 3.140932 1_655
Mg7 Si9 3.182237 1_545
Si0 Si2 2.499046 1_555
Si0 Si2 2.504588 1_565
Si0 Si1 2.539659 1_456
Si1 Si3 2.498317 1_555
Si1 Si3 2.503554 1_545
Si4 Si8 2.518848 1_565
Si4 Si8 2.532135 1_555
Si5 Si9 2.519474 1_555
Si5 Si9 2.532767 1_565
Si6 Si8 2.579067 1_555
Si6 Si7 2.607790 1_555
Si6 Si7 2.612089 1_545
Si6 Si8 2.614266 1_565
Si7 Si9 2.581263 1_565
Si7 Si9 2.610553 1_555
Si10 Si2 2.537626 1_565
Si10 Si2 2.537805 1_555
Si10 Si5 2.565532 1_655
Si11 Si3 2.539553 1_565
Si11 Si3 2.539724 1_555
Si11 Si4 2.566752 1_455
