# generated using pymatgen
data_Na7V(W3O19)2
_symmetry_space_group_name_H-M   'P 1'
_cell_length_a   7.99926700
_cell_length_b   10.83658803
_cell_length_c   10.96618504
_cell_angle_alpha   117.06391281
_cell_angle_beta   104.04295105
_cell_angle_gamma   87.80350735
_symmetry_Int_Tables_number   1
_chemical_formula_structural   Na7V(W3O19)2
_chemical_formula_sum   'Na7 V1 W6 O38'
_cell_volume   818.34806036
_cell_formula_units_Z   1
loop_
 _symmetry_equiv_pos_site_id
 _symmetry_equiv_pos_as_xyz
  1  'x, y, z'
loop_
 _atom_site_type_symbol
 _atom_site_label
 _atom_site_symmetry_multiplicity
 _atom_site_fract_x
 _atom_site_fract_y
 _atom_site_fract_z
 _atom_site_occupancy
  Na  Na0  1  0.42581900  0.80384200  0.18302100  1
  Na  Na1  1  0.44108200  0.92824700  0.96944700  1
  Na  Na2  1  0.02737700  0.30749900  0.31419400  1
  Na  Na3  1  0.58557800  0.38134500  0.05468800  1
  Na  Na4  1  0.98805700  0.94050800  0.29246000  1
  Na  Na5  1  0.22112200  0.60398800  0.63771100  1
  Na  Na6  1  0.07860900  0.17309800  0.82191200  1
  V  V0  1  0.73340600  0.51593200  0.55853300  1
  W  W0  1  0.67012200  0.59281800  0.87944800  1
  W  W1  1  0.95843500  0.78159900  0.85424200  1
  W  W2  1  0.60904400  0.84210900  0.66034900  1
  W  W3  1  0.44163800  0.32960800  0.59400700  1
  W  W4  1  0.36829800  0.58454300  0.37750400  1
  W  W5  1  0.49121900  0.26724400  0.28715900  1
  O  O0  1  0.64280700  0.64201400  0.48809300  1
  O  O1  1  0.85719100  0.09793200  0.22346800  1
  O  O2  1  0.93954700  0.59297900  0.64624700  1
  O  O3  1  0.38610000  0.21811300  0.84221700  1
  O  O4  1  0.92798300  0.70505100  0.28292400  1
  O  O5  1  0.26180400  0.19931700  0.20669800  1
  O  O6  1  0.76682400  0.71555800  0.28577300  1
  O  O7  1  0.81827100  0.17726000  0.89638600  1
  O  O8  1  0.20714000  0.96858500  0.18773700  1
  O  O9  1  0.15513200  0.51570300  0.35004600  1
  O  O10  1  0.53459900  0.96684900  0.80803800  1
  O  O11  1  0.14043500  0.43643200  0.97461300  1
  O  O12  1  0.68120100  0.70275600  0.75690700  1
  O  O13  1  0.51816000  0.19827500  0.42444600  1
  O  O14  1  0.18365800  0.77569400  0.85700300  1
  O  O15  1  0.26450000  0.50172400  0.97627600  1
  O  O16  1  0.02172000  0.09085000  0.56881300  1
  O  O17  1  0.37587700  0.73524400  0.56617700  1
  O  O18  1  0.45926200  0.44672200  0.47602400  1
  O  O19  1  0.59263400  0.74002600  0.01083200  1
  O  O20  1  0.25265200  0.99029700  0.50211400  1
  O  O21  1  0.47851500  0.22279900  0.68432100  1
  O  O22  1  0.16835600  0.03573200  0.59637500  1
  O  O23  1  0.61139000  0.93021200  0.55828000  1
  O  O24  1  0.45650800  0.41809900  0.23303000  1
  O  O25  1  0.43544200  0.51020400  0.75652200  1
  O  O26  1  0.96666800  0.93270800  0.02485800  1
  O  O27  1  0.91685400  0.64980500  0.92103000  1
  O  O28  1  0.70030300  0.43246400  0.66962200  1
  O  O29  1  0.22105400  0.09097600  0.98025900  1
  O  O30  1  0.21326700  0.31269100  0.52125800  1
  O  O31  1  0.71219400  0.47768300  0.95649900  1
  O  O32  1  0.74873200  0.37332800  0.40138000  1
  O  O33  1  0.34312100  0.67947600  0.27809900  1
  O  O34  1  0.58944000  0.14307300  0.15338800  1
  O  O35  1  0.83232100  0.22145700  0.02407600  1
  O  O36  1  0.86577000  0.87405300  0.74012300  1
  O  O37  1  0.71606400  0.84108200  0.33687200  1
loop_
_geom_bond_atom_site_label_1
_geom_bond_atom_site_label_2
_geom_bond_distance
_geom_bond_site_symmetry_2
Na0 O33 2.241149 1_555
Na0 O19 2.405863 1_555
Na0 O37 2.439496 1_555
Na0 O8 2.443411 1_555
Na1 O10 2.282100 1_555
Na1 O14 2.380645 1_555
Na1 O34 2.381949 1_566
Na1 O29 2.427891 1_565
Na1 O19 2.494335 1_556
Na2 O9 2.337530 1_555
Na2 O1 2.350366 1_455
Na2 O30 2.371060 1_555
Na2 O5 2.434592 1_555
Na2 O32 2.585140 1_455
Na2 O35 2.903255 1_455
Na3 O31 2.215477 1_554
Na3 O24 2.299803 1_555
Na3 O3 2.401175 1_554
Na3 O35 2.557462 1_555
Na3 O15 2.954631 1_554
Na4 O1 2.287296 1_565
Na4 O8 2.412101 1_655
Na4 O4 2.564970 1_555
Na4 O20 2.579541 1_655
Na4 O16 2.656261 1_665
Na4 O37 2.702477 1_555
Na4 O26 2.860047 1_555
Na5 O2 2.286778 1_455
Na5 O14 2.360154 1_555
Na5 O25 2.378435 1_555
Na5 O17 2.406768 1_555
Na5 O9 2.762181 1_555
Na5 O30 2.811997 1_555
Na5 O18 2.884037 1_555
Na6 O29 2.339628 1_555
Na6 O7 2.406357 1_455
Na6 O16 2.423243 1_555
Na6 O3 2.462725 1_555
Na6 O22 2.505583 1_555
Na6 O11 2.559279 1_555
O0 V0 1.897761 1_555
O0 W4 2.192177 1_555
O0 W2 2.195094 1_555
O2 V0 1.716520 1_555
O2 W1 2.239934 1_555
O4 O6 1.296501 1_555
O5 W5 1.847937 1_555
O9 W4 1.788494 1_555
O10 W2 1.794185 1_555
O11 O15 1.232544 1_555
O12 W0 2.180756 1_555
O12 W2 2.196917 1_555
O12 W1 2.225753 1_555
O12 V0 2.318172 1_555
O13 W5 1.930209 1_555
O13 W3 1.983731 1_555
O14 W1 1.793682 1_455
O16 O22 1.327597 1_555
O17 W4 1.955385 1_555
O17 W2 2.007225 1_555
O18 W5 2.165864 1_555
O18 V0 2.176200 1_555
O18 W3 2.213803 1_555
O18 W4 2.220532 1_555
O19 W0 1.808586 1_554
O20 O22 1.270944 1_565
O21 W3 1.811839 1_555
O23 W2 1.774463 1_555
O24 W5 1.967255 1_555
O24 W4 2.026299 1_555
O25 W3 1.967299 1_555
O25 W0 1.986289 1_555
O26 W1 1.829467 1_554
O27 W1 1.947638 1_555
O27 W0 1.971067 1_555
O28 V0 1.884122 1_555
O28 W3 2.171254 1_555
O28 W0 2.229668 1_555
O30 W3 1.786779 1_555
O31 W0 1.781297 1_555
O32 V0 1.742900 1_555
O32 W5 2.180090 1_555
O33 W4 1.784723 1_555
O34 W5 1.806099 1_555
O35 O7 1.232988 1_554
O36 W1 1.937312 1_555
O36 W2 2.002388 1_555
O37 O6 1.305234 1_555
