# generated using pymatgen
data_Gd2Fe5Si8
_symmetry_space_group_name_H-M   'P 1'
_cell_length_a   3.88100618
_cell_length_b   3.88100618
_cell_length_c   16.52683800
_cell_angle_alpha   90.00000000
_cell_angle_beta   90.00000000
_cell_angle_gamma   120.00000313
_symmetry_Int_Tables_number   1
_chemical_formula_structural   Gd2Fe5Si8
_chemical_formula_sum   'Gd2 Fe5 Si8'
_cell_volume   215.58029279
_cell_formula_units_Z   1
loop_
 _symmetry_equiv_pos_site_id
 _symmetry_equiv_pos_as_xyz
  1  'x, y, z'
loop_
 _atom_site_type_symbol
 _atom_site_label
 _atom_site_symmetry_multiplicity
 _atom_site_fract_x
 _atom_site_fract_y
 _atom_site_fract_z
 _atom_site_occupancy
  Gd  Gd0  1  0.33333300  0.66666700  0.24629200  1
  Gd  Gd1  1  0.66666700  0.33333300  0.75370800  1
  Fe  Fe0  1  0.33333300  0.66666700  0.59499200  1
  Fe  Fe1  1  0.66666700  0.33333300  0.40500800  1
  Fe  Fe2  1  0.66666700  0.33333300  0.09876400  1
  Fe  Fe3  1  0.33333300  0.66666700  0.90123600  1
  Fe  Fe4  1  0.00000000  0.00000000  0.50000000  1
  Si  Si0  1  0.33333300  0.66666700  0.44853100  1
  Si  Si1  1  0.66666700  0.33333300  0.55146900  1
  Si  Si2  1  0.66666700  0.33333300  0.95791300  1
  Si  Si3  1  0.33333300  0.66666700  0.04208700  1
  Si  Si4  1  0.00000000  0.00000000  0.64167900  1
  Si  Si5  1  0.00000000  0.00000000  0.35832100  1
  Si  Si6  1  0.00000000  0.00000000  0.12826300  1
  Si  Si7  1  0.00000000  0.00000000  0.87173700  1
loop_
_geom_bond_atom_site_label_1
_geom_bond_atom_site_label_2
_geom_bond_distance
_geom_bond_site_symmetry_2
Gd0 Si5 2.906669 1_565
Gd0 Si5 2.906671 1_555
Gd0 Si5 2.906671 1_665
Gd0 Si6 2.970816 1_565
Gd0 Si6 2.970818 1_665
Gd0 Si6 2.970818 1_555
Gd1 Si4 2.906669 1_655
Gd1 Si4 2.906671 1_555
Gd1 Si4 2.906671 1_665
Gd1 Si7 2.970816 1_655
Gd1 Si7 2.970818 1_555
Gd1 Si7 2.970818 1_665
Fe0 Si1 2.353320 1_455
Fe0 Si1 2.353320 1_565
Fe0 Si1 2.353326 1_555
Fe0 Si4 2.369826 1_565
Fe0 Si4 2.369829 1_665
Fe0 Si4 2.369829 1_555
Fe0 Si0 2.420537 1_555
Fe1 Si0 2.353320 1_545
Fe1 Si0 2.353320 1_655
Fe1 Si0 2.353326 1_555
Fe1 Si5 2.369826 1_655
Fe1 Si5 2.369829 1_555
Fe1 Si5 2.369829 1_665
Fe1 Si1 2.420537 1_555
Fe2 Si6 2.293122 1_655
Fe2 Si6 2.293125 1_665
Fe2 Si6 2.293125 1_555
Fe2 Si2 2.327822 1_554
Fe2 Si3 2.428604 1_545
Fe2 Si3 2.428604 1_655
Fe2 Si3 2.428610 1_555
Fe3 Si7 2.293122 1_565
Fe3 Si7 2.293125 1_555
Fe3 Si7 2.293125 1_665
Fe3 Si3 2.327822 1_556
Fe3 Si2 2.428604 1_455
Fe3 Si2 2.428604 1_565
Fe3 Si2 2.428610 1_555
Fe4 Si5 2.341506 1_555
Fe4 Si4 2.341506 1_555
Fe4 Si0 2.396723 1_545
Fe4 Si1 2.396723 1_455
Fe4 Si1 2.396726 1_445
Fe4 Si1 2.396726 1_555
Fe4 Si0 2.396726 1_445
Fe4 Si0 2.396726 1_555
