# generated using pymatgen
data_RbNa3Fe7(PO4)6
_symmetry_space_group_name_H-M   'P 1'
_cell_length_a   8.54277429
_cell_length_b   8.54277429
_cell_length_c   15.96481005
_cell_angle_alpha   72.24977751
_cell_angle_beta   72.24977751
_cell_angle_gamma   79.60330538
_symmetry_Int_Tables_number   1
_chemical_formula_structural   RbNa3Fe7(PO4)6
_chemical_formula_sum   'Rb2 Na6 Fe14 P12 O48'
_cell_volume   1051.87584778
_cell_formula_units_Z   2
loop_
 _symmetry_equiv_pos_site_id
 _symmetry_equiv_pos_as_xyz
  1  'x, y, z'
loop_
 _atom_site_type_symbol
 _atom_site_label
 _atom_site_symmetry_multiplicity
 _atom_site_fract_x
 _atom_site_fract_y
 _atom_site_fract_z
 _atom_site_occupancy
  Rb  Rb0  1  0.25356400  0.74643600  0.75000000  1
  Rb  Rb1  1  0.74643600  0.25356400  0.25000000  1
  Na  Na0  1  0.71948400  0.24113500  0.52003700  1
  Na  Na1  1  0.28051600  0.75886500  0.47996300  1
  Na  Na2  1  0.75886500  0.28051600  0.97996300  1
  Na  Na3  1  0.24113500  0.71948400  0.02003700  1
  Na  Na4  1  0.50000000  0.00000000  0.00000000  1
  Na  Na5  1  0.00000000  0.50000000  0.50000000  1
  Fe  Fe0  1  0.61759700  0.38240300  0.75000000  1
  Fe  Fe1  1  0.38240300  0.61759700  0.25000000  1
  Fe  Fe2  1  0.69223700  0.69350400  0.85643500  1
  Fe  Fe3  1  0.30776300  0.30649600  0.14356500  1
  Fe  Fe4  1  0.30649600  0.30776300  0.64356500  1
  Fe  Fe5  1  0.69350400  0.69223700  0.35643500  1
  Fe  Fe6  1  0.91495100  0.08504900  0.75000000  1
  Fe  Fe7  1  0.08504900  0.91495100  0.25000000  1
  Fe  Fe8  1  0.50000000  0.00000000  0.50000000  1
  Fe  Fe9  1  0.00000000  0.50000000  0.00000000  1
  Fe  Fe10  1  0.77699900  0.85479600  0.12544600  1
  Fe  Fe11  1  0.22300100  0.14520400  0.87455400  1
  Fe  Fe12  1  0.14520400  0.22300100  0.37455400  1
  Fe  Fe13  1  0.85479600  0.77699900  0.62544600  1
  P  P0  1  0.55925200  0.02026400  0.73037200  1
  P  P1  1  0.44074800  0.97973600  0.26962800  1
  P  P2  1  0.97973600  0.44074800  0.76962800  1
  P  P3  1  0.02026400  0.55925200  0.23037200  1
  P  P4  1  0.90617600  0.90759000  0.92835800  1
  P  P5  1  0.09382400  0.09241000  0.07164200  1
  P  P6  1  0.09241000  0.09382400  0.57164200  1
  P  P7  1  0.90759000  0.90617600  0.42835800  1
  P  P8  1  0.58665100  0.58884900  0.57889400  1
  P  P9  1  0.41334900  0.41115100  0.42110600  1
  P  P10  1  0.41115100  0.41334900  0.92110600  1
  P  P11  1  0.58884900  0.58665100  0.07889400  1
  O  O0  1  0.48602000  0.08928800  0.64591900  1
  O  O1  1  0.51398000  0.91071200  0.35408100  1
  O  O2  1  0.91071200  0.51398000  0.85408100  1
  O  O3  1  0.08928800  0.48602000  0.14591900  1
  O  O4  1  0.31873800  0.46105300  0.50983200  1
  O  O5  1  0.68126200  0.53894700  0.49016800  1
  O  O6  1  0.53894700  0.68126200  0.99016800  1
  O  O7  1  0.46105300  0.31873800  0.00983200  1
  O  O8  1  0.94945300  0.99050400  0.13777600  1
  O  O9  1  0.05054700  0.00949600  0.86222400  1
  O  O10  1  0.00949600  0.05054700  0.36222400  1
  O  O11  1  0.99050400  0.94945300  0.63777600  1
  O  O12  1  0.47761300  0.45152500  0.64900300  1
  O  O13  1  0.52238700  0.54847500  0.35099700  1
  O  O14  1  0.54847500  0.52238700  0.85099700  1
  O  O15  1  0.45152500  0.47761300  0.14900300  1
  O  O16  1  0.47595900  0.75349300  0.56012200  1
  O  O17  1  0.52404100  0.24650700  0.43987800  1
  O  O18  1  0.24650700  0.52404100  0.93987800  1
  O  O19  1  0.75349300  0.47595900  0.06012200  1
  O  O20  1  0.66232100  0.84875800  0.72845700  1
  O  O21  1  0.33767900  0.15124200  0.27154300  1
  O  O22  1  0.15124200  0.33767900  0.77154300  1
  O  O23  1  0.84875800  0.66232100  0.22845700  1
  O  O24  1  0.68040900  0.14547100  0.72347000  1
  O  O25  1  0.31959100  0.85452900  0.27653000  1
  O  O26  1  0.85452900  0.31959100  0.77653000  1
  O  O27  1  0.14547100  0.68040900  0.22347000  1
  O  O28  1  0.77435600  0.00699600  0.98852500  1
  O  O29  1  0.22564400  0.99300400  0.01147500  1
  O  O30  1  0.99300400  0.22564400  0.51147500  1
  O  O31  1  0.00699600  0.77435600  0.48852500  1
  O  O32  1  0.42349300  0.98865500  0.82073300  1
  O  O33  1  0.57650700  0.01134500  0.17926700  1
  O  O34  1  0.01134500  0.57650700  0.67926700  1
  O  O35  1  0.98865500  0.42349300  0.32073300  1
  O  O36  1  0.24844400  0.03311800  0.50470000  1
  O  O37  1  0.75155600  0.96688200  0.49530000  1
  O  O38  1  0.96688200  0.75155600  0.99530000  1
  O  O39  1  0.03311800  0.24844400  0.00470000  1
  O  O40  1  0.83134000  0.86826600  0.85984800  1
  O  O41  1  0.16866000  0.13173400  0.14015200  1
  O  O42  1  0.13173400  0.16866000  0.64015200  1
  O  O43  1  0.86826600  0.83134000  0.35984800  1
  O  O44  1  0.40831900  0.28658900  0.86903900  1
  O  O45  1  0.59168100  0.71341100  0.13096100  1
  O  O46  1  0.71341100  0.59168100  0.63096100  1
  O  O47  1  0.28658900  0.40831900  0.36903900  1
loop_
_geom_bond_atom_site_label_1
_geom_bond_atom_site_label_2
_geom_bond_distance
_geom_bond_site_symmetry_2
Na0 O30 2.280497 1_555
Na0 O17 2.380500 1_555
Na0 O5 2.421167 1_555
Na0 O37 2.446759 1_545
Na0 O0 2.568965 1_555
Na1 O31 2.280497 1_555
Na1 O16 2.380500 1_555
Na1 O4 2.421167 1_555
Na1 O36 2.446759 1_565
Na1 O1 2.568965 1_555
Na2 O28 2.280497 1_555
Na2 O19 2.380500 1_556
Na2 O7 2.421167 1_556
Na2 O39 2.446759 1_656
Na2 O2 2.568965 1_555
Na3 O29 2.280497 1_555
Na3 O18 2.380500 1_554
Na3 O6 2.421167 1_554
Na3 O38 2.446759 1_454
Na3 O3 2.568965 1_555
Na4 O29 2.304871 1_545
Na4 O28 2.304871 1_554
Na4 O6 2.729714 1_544
Na4 O7 2.729714 1_555
Na4 O44 2.857274 1_554
Na4 O45 2.857274 1_545
Na5 O30 2.304871 1_455
Na5 O31 2.304871 1_555
Na5 O4 2.729714 1_555
Na5 O5 2.729714 1_455
Na5 O46 2.857274 1_455
Na5 O47 2.857274 1_555
Fe0 O24 2.134542 1_555
Fe0 O26 2.134542 1_555
Fe0 O12 2.172293 1_555
Fe0 O14 2.172293 1_555
Fe0 O44 2.232923 1_555
Fe0 O46 2.232923 1_555
Fe1 O27 2.134542 1_555
Fe1 O25 2.134542 1_555
Fe1 O15 2.172293 1_555
Fe1 O13 2.172293 1_555
Fe1 O47 2.232923 1_555
Fe1 O45 2.232923 1_555
Fe2 O40 2.091266 1_555
Fe2 O14 2.107864 1_555
Fe2 O6 2.119588 1_555
Fe2 O20 2.131335 1_555
Fe2 O2 2.190002 1_555
Fe3 O41 2.091266 1_555
Fe3 O15 2.107864 1_555
Fe3 O7 2.119588 1_555
Fe3 O21 2.131335 1_555
Fe3 O3 2.190002 1_555
Fe4 O42 2.091266 1_555
Fe4 O12 2.107864 1_555
Fe4 O4 2.119588 1_555
Fe4 O22 2.131335 1_555
Fe4 O0 2.190002 1_555
Fe5 O43 2.091266 1_555
Fe5 O13 2.107864 1_555
Fe5 O5 2.119588 1_555
Fe5 O23 2.131335 1_555
Fe5 O1 2.190002 1_555
Fe6 O24 2.114535 1_555
Fe6 O26 2.114535 1_555
Fe6 O40 2.179149 1_545
Fe6 O42 2.179149 1_655
Fe6 O9 2.293218 1_655
Fe6 O11 2.293218 1_545
Fe7 O27 2.114535 1_555
Fe7 O25 2.114535 1_555
Fe7 O43 2.179149 1_455
Fe7 O41 2.179149 1_565
Fe7 O10 2.293218 1_565
Fe7 O8 2.293218 1_455
Fe8 O17 2.049766 1_555
Fe8 O16 2.049766 1_545
Fe8 O37 2.097380 1_545
Fe8 O36 2.097380 1_555
Fe8 O0 2.627528 1_555
Fe8 O1 2.627528 1_545
Fe9 O18 2.049766 1_554
Fe9 O19 2.049766 1_455
Fe9 O39 2.097380 1_555
Fe9 O38 2.097380 1_454
Fe9 O3 2.627528 1_555
Fe9 O2 2.627528 1_454
Fe10 O23 2.094299 1_555
Fe10 O33 2.106413 1_565
Fe10 O8 2.117927 1_555
Fe10 O45 2.124426 1_555
Fe10 O28 2.180786 1_564
Fe10 O38 2.504426 1_554
Fe11 O22 2.094299 1_555
Fe11 O32 2.106413 1_545
Fe11 O9 2.117927 1_555
Fe11 O44 2.124426 1_555
Fe11 O29 2.180786 1_546
Fe11 O39 2.504426 1_556
Fe12 O21 2.094299 1_555
Fe12 O35 2.106413 1_455
Fe12 O10 2.117927 1_555
Fe12 O47 2.124426 1_555
Fe12 O30 2.180786 1_455
Fe12 O36 2.504426 1_555
Fe13 O20 2.094299 1_555
Fe13 O34 2.106413 1_655
Fe13 O11 2.117927 1_555
Fe13 O46 2.124426 1_555
Fe13 O31 2.180786 1_655
Fe13 O37 2.504426 1_555
O0 P0 1.566312 1_555
O1 P1 1.566312 1_555
O2 P2 1.566312 1_555
O3 P3 1.566312 1_555
O4 P9 1.545059 1_555
O5 P8 1.545059 1_555
O6 P11 1.545059 1_556
O7 P10 1.545059 1_554
O8 P5 1.557827 1_665
O8 Rb1 3.228262 1_565
O9 P4 1.557827 1_445
O9 Rb0 3.228262 1_545
O10 P7 1.557827 1_445
O10 Rb1 3.228262 1_455
O11 P6 1.557827 1_665
O11 Rb0 3.228262 1_655
O12 P8 1.566766 1_555
O12 Rb0 3.386021 1_555
O13 P9 1.566766 1_555
O13 Rb1 3.386021 1_555
O14 P10 1.566766 1_555
O14 Rb0 3.386021 1_555
O15 P11 1.566766 1_555
O15 Rb1 3.386021 1_555
O16 P8 1.548559 1_555
O16 Rb0 3.036551 1_555
O17 P9 1.548559 1_555
O17 Rb1 3.036551 1_555
O18 P10 1.548559 1_555
O18 Rb0 3.036551 1_555
O19 P11 1.548559 1_555
O19 Rb1 3.036551 1_555
O20 P0 1.571026 1_565
O21 P1 1.571026 1_545
O22 P2 1.571026 1_455
O23 P3 1.571026 1_655
O24 P0 1.576593 1_555
O25 P1 1.576593 1_555
O26 P2 1.576593 1_555
O27 P3 1.576593 1_555
O28 P4 1.550678 1_545
O29 P5 1.550678 1_565
O30 P6 1.550678 1_655
O31 P7 1.550678 1_455
O32 P0 1.534413 1_565
O32 Rb0 3.342545 1_555
O33 P1 1.534413 1_545
O33 Rb1 3.342545 1_555
O34 P2 1.534413 1_455
O34 Rb0 3.342545 1_555
O35 P3 1.534413 1_655
O35 Rb1 3.342545 1_555
O36 P6 1.551684 1_555
O37 P7 1.551684 1_555
O38 P4 1.551684 1_555
O39 P5 1.551684 1_555
O40 P4 1.563891 1_555
O41 P5 1.563891 1_555
O42 P6 1.563891 1_555
O43 P7 1.563891 1_555
O44 P10 1.560366 1_555
O45 P11 1.560366 1_555
O46 P8 1.560366 1_555
O47 P9 1.560366 1_555
