# generated using pymatgen
data_Y2MgS4
_symmetry_space_group_name_H-M   'P 1'
_cell_length_a   7.57947600
_cell_length_b   12.67756600
_cell_length_c   12.81606800
_cell_angle_alpha   90.00000000
_cell_angle_beta   90.00000000
_cell_angle_gamma   90.00000000
_symmetry_Int_Tables_number   1
_chemical_formula_structural   Y2MgS4
_chemical_formula_sum   'Y16 Mg8 S32'
_cell_volume   1231.48709560
_cell_formula_units_Z   8
loop_
 _symmetry_equiv_pos_site_id
 _symmetry_equiv_pos_as_xyz
  1  'x, y, z'
loop_
 _atom_site_type_symbol
 _atom_site_label
 _atom_site_symmetry_multiplicity
 _atom_site_fract_x
 _atom_site_fract_y
 _atom_site_fract_z
 _atom_site_occupancy
  Y  Y0  1  0.88193900  0.10916000  0.68531200  1
  Y  Y1  1  0.11806100  0.89084000  0.18531200  1
  Y  Y2  1  0.88193900  0.39084000  0.18531200  1
  Y  Y3  1  0.11806100  0.60916000  0.68531200  1
  Y  Y4  1  0.38105700  0.12764800  0.32661400  1
  Y  Y5  1  0.61894300  0.87235200  0.82661400  1
  Y  Y6  1  0.38105700  0.37235200  0.82661400  1
  Y  Y7  1  0.61894300  0.62764800  0.32661400  1
  Y  Y8  1  0.62825200  0.13321400  0.99195000  1
  Y  Y9  1  0.37174800  0.86678600  0.49195000  1
  Y  Y10  1  0.62825200  0.36678600  0.49195000  1
  Y  Y11  1  0.37174800  0.63321400  0.99195000  1
  Y  Y12  1  0.12855400  0.13362200  0.99115100  1
  Y  Y13  1  0.87144600  0.86637800  0.49115100  1
  Y  Y14  1  0.12855400  0.36637800  0.49115100  1
  Y  Y15  1  0.87144600  0.63362200  0.99115100  1
  Mg  Mg0  1  0.38100800  0.10995200  0.69109100  1
  Mg  Mg1  1  0.61899200  0.89004800  0.19109100  1
  Mg  Mg2  1  0.38100800  0.39004800  0.19109100  1
  Mg  Mg3  1  0.61899200  0.60995200  0.69109100  1
  Mg  Mg4  1  0.87805000  0.12592000  0.32120800  1
  Mg  Mg5  1  0.12195000  0.87408000  0.82120800  1
  Mg  Mg6  1  0.87805000  0.37408000  0.82120800  1
  Mg  Mg7  1  0.12195000  0.62592000  0.32120800  1
  S  S0  1  0.87764800  0.01293500  0.87744500  1
  S  S1  1  0.12235200  0.98706500  0.37744500  1
  S  S2  1  0.87764800  0.48706500  0.37744500  1
  S  S3  1  0.12235200  0.51293500  0.87744500  1
  S  S4  1  0.37694400  0.03308100  0.13061500  1
  S  S5  1  0.62305600  0.96691900  0.63061500  1
  S  S6  1  0.37694400  0.46691900  0.63061500  1
  S  S7  1  0.62305600  0.53308100  0.13061500  1
  S  S8  1  0.37230300  0.02068800  0.86931400  1
  S  S9  1  0.62769700  0.97931200  0.36931400  1
  S  S10  1  0.37230300  0.47931200  0.36931400  1
  S  S11  1  0.62769700  0.52068800  0.86931400  1
  S  S12  1  0.87215300  0.04099100  0.13707000  1
  S  S13  1  0.12784700  0.95900900  0.63707000  1
  S  S14  1  0.87215300  0.45900900  0.63707000  1
  S  S15  1  0.12784700  0.54099100  0.13707000  1
  S  S16  1  0.87898500  0.21248700  0.50197000  1
  S  S17  1  0.12101500  0.78751300  0.00197000  1
  S  S18  1  0.87898500  0.28751300  0.00197000  1
  S  S19  1  0.12101500  0.71248700  0.50197000  1
  S  S20  1  0.37944100  0.21296000  0.51961300  1
  S  S21  1  0.62055900  0.78704000  0.01961300  1
  S  S22  1  0.37944100  0.28704000  0.01961300  1
  S  S23  1  0.62055900  0.71296000  0.51961300  1
  S  S24  1  0.12752000  0.23256700  0.77659200  1
  S  S25  1  0.87248000  0.76743300  0.27659200  1
  S  S26  1  0.12752000  0.26743300  0.27659200  1
  S  S27  1  0.87248000  0.73256700  0.77659200  1
  S  S28  1  0.63048800  0.23090700  0.77705400  1
  S  S29  1  0.36951200  0.76909300  0.27705400  1
  S  S30  1  0.63048800  0.26909300  0.27705400  1
  S  S31  1  0.36951200  0.73090700  0.77705400  1
loop_
_geom_bond_atom_site_label_1
_geom_bond_atom_site_label_2
_geom_bond_distance
_geom_bond_site_symmetry_2
Mg0 S8 2.549937 1_555
Mg0 S20 2.556416 1_555
Mg0 S28 2.672214 1_555
Mg0 S5 2.693430 1_545
Mg0 S24 2.703426 1_555
Mg0 S13 2.796973 1_545
Mg1 S9 2.549937 1_555
Mg1 S21 2.556416 1_555
Mg1 S29 2.672214 1_555
Mg1 S4 2.693430 1_565
Mg1 S25 2.703426 1_555
Mg1 S12 2.796973 1_565
Mg2 S10 2.549937 1_555
Mg2 S22 2.556416 1_555
Mg2 S30 2.672214 1_555
Mg2 S7 2.693430 1_555
Mg2 S26 2.703426 1_555
Mg2 S15 2.796973 1_555
Mg3 S11 2.549937 1_555
Mg3 S23 2.556416 1_555
Mg3 S31 2.672214 1_555
Mg3 S6 2.693430 1_555
Mg3 S27 2.703426 1_555
Mg3 S14 2.796973 1_555
Mg4 S16 2.563469 1_555
Mg4 S12 2.594323 1_555
Mg4 S1 2.654618 1_645
Mg4 S26 2.668494 1_655
Mg4 S30 2.671254 1_555
Mg4 S9 2.726775 1_545
Mg5 S17 2.563469 1_556
Mg5 S13 2.594323 1_555
Mg5 S0 2.654618 1_465
Mg5 S27 2.668494 1_455
Mg5 S31 2.671254 1_555
Mg5 S8 2.726775 1_565
Mg6 S18 2.563469 1_556
Mg6 S14 2.594323 1_555
Mg6 S3 2.654618 1_655
Mg6 S24 2.668494 1_655
Mg6 S28 2.671254 1_555
Mg6 S11 2.726775 1_555
Mg7 S19 2.563469 1_555
Mg7 S15 2.594323 1_555
Mg7 S2 2.654618 1_455
Mg7 S25 2.668494 1_455
Mg7 S29 2.671254 1_555
Mg7 S10 2.726775 1_555
S0 Y5 2.728687 1_545
S0 Y0 2.748195 1_555
S0 Y8 2.837590 1_555
S0 Y12 2.842740 1_655
S1 Y4 2.728687 1_565
S1 Y1 2.748195 1_555
S1 Y9 2.837590 1_555
S1 Y13 2.842740 1_455
S2 Y7 2.728687 1_555
S2 Y2 2.748195 1_555
S2 Y10 2.837590 1_555
S2 Y14 2.842740 1_655
S3 Y6 2.728687 1_555
S3 Y3 2.748195 1_555
S3 Y11 2.837590 1_555
S3 Y15 2.842740 1_455
S4 Y1 2.755613 1_545
S4 Y4 2.783542 1_555
S4 Y12 2.892024 1_554
S4 Y8 2.897915 1_554
S5 Y0 2.755613 1_565
S5 Y5 2.783542 1_555
S5 Y13 2.892024 1_555
S5 Y9 2.897915 1_555
S6 Y3 2.755613 1_555
S6 Y6 2.783542 1_555
S6 Y14 2.892024 1_555
S6 Y10 2.897915 1_555
S7 Y2 2.755613 1_555
S7 Y7 2.783542 1_555
S7 Y15 2.892024 1_554
S7 Y11 2.897915 1_554
S8 Y5 2.707503 1_545
S8 Y12 2.810917 1_555
S8 Y8 2.875549 1_555
S9 Y4 2.707503 1_565
S9 Y13 2.810917 1_555
S9 Y9 2.875549 1_555
S10 Y7 2.707503 1_555
S10 Y14 2.810917 1_555
S10 Y10 2.875549 1_555
S11 Y6 2.707503 1_555
S11 Y15 2.810917 1_555
S11 Y11 2.875549 1_555
S12 Y1 2.734906 1_645
S12 Y8 2.871154 1_554
S12 Y12 2.941618 1_654
S13 Y0 2.734906 1_465
S13 Y9 2.871154 1_555
S13 Y13 2.941618 1_455
S14 Y3 2.734906 1_655
S14 Y10 2.871154 1_555
S14 Y14 2.941618 1_655
S15 Y2 2.734906 1_455
S15 Y11 2.871154 1_554
S15 Y15 2.941618 1_454
S16 Y0 2.690285 1_555
S16 Y14 2.720964 1_655
S16 Y10 2.730306 1_555
S17 Y1 2.690285 1_555
S17 Y15 2.720964 1_454
S17 Y11 2.730306 1_554
S18 Y2 2.690285 1_555
S18 Y12 2.720964 1_654
S18 Y8 2.730306 1_554
S19 Y3 2.690285 1_555
S19 Y13 2.720964 1_455
S19 Y9 2.730306 1_555
S20 Y4 2.699637 1_555
S20 Y10 2.735908 1_555
S20 Y14 2.744450 1_555
S21 Y5 2.699637 1_554
S21 Y11 2.735908 1_554
S21 Y15 2.744450 1_554
S22 Y6 2.699637 1_554
S22 Y8 2.735908 1_554
S22 Y12 2.744450 1_554
S23 Y7 2.699637 1_555
S23 Y9 2.735908 1_555
S23 Y13 2.744450 1_555
S24 Y6 2.691522 1_555
S24 Y0 2.698320 1_455
S24 Y12 3.022408 1_555
S25 Y7 2.691522 1_555
S25 Y1 2.698320 1_655
S25 Y13 3.022408 1_555
S26 Y4 2.691522 1_555
S26 Y2 2.698320 1_455
S26 Y14 3.022408 1_555
S27 Y5 2.691522 1_555
S27 Y3 2.698320 1_655
S27 Y15 3.022408 1_555
S28 Y6 2.682000 1_555
S28 Y0 2.719747 1_555
S28 Y8 3.019831 1_555
S29 Y7 2.682000 1_555
S29 Y1 2.719747 1_555
S29 Y9 3.019831 1_555
S30 Y4 2.682000 1_555
S30 Y2 2.719747 1_555
S30 Y10 3.019831 1_555
S31 Y5 2.682000 1_555
S31 Y3 2.719747 1_555
S31 Y11 3.019831 1_555
