# generated using pymatgen
data_CoNiSb
_symmetry_space_group_name_H-M   'P 1'
_cell_length_a   4.01579893
_cell_length_b   4.01579893
_cell_length_c   9.87651900
_cell_angle_alpha   90.00106667
_cell_angle_beta   89.99893333
_cell_angle_gamma   120.00228891
_symmetry_Int_Tables_number   1
_chemical_formula_structural   CoNiSb
_chemical_formula_sum   'Co3 Ni3 Sb3'
_cell_volume   137.93308137
_cell_formula_units_Z   3
loop_
 _symmetry_equiv_pos_site_id
 _symmetry_equiv_pos_as_xyz
  1  'x, y, z'
loop_
 _atom_site_type_symbol
 _atom_site_label
 _atom_site_symmetry_multiplicity
 _atom_site_fract_x
 _atom_site_fract_y
 _atom_site_fract_z
 _atom_site_occupancy
  Co  Co0  1  0.00006900  0.99993100  0.25790600  1
  Co  Co1  1  0.00003900  0.99996100  0.74296400  1
  Co  Co2  1  0.00003000  0.99997000  0.99260200  1
  Ni  Ni0  1  0.99993200  0.00006800  0.49074200  1
  Ni  Ni1  1  0.66667900  0.33332100  0.11406700  1
  Ni  Ni2  1  0.66664600  0.33335400  0.38642500  1
  Sb  Sb0  1  0.66669300  0.33330700  0.86066700  1
  Sb  Sb1  1  0.33332900  0.66667100  0.18950300  1
  Sb  Sb2  1  0.33328300  0.66671700  0.59012300  1
loop_
_geom_bond_atom_site_label_1
_geom_bond_atom_site_label_2
_geom_bond_distance
_geom_bond_site_symmetry_2
Co0 Ni0 2.299609 1_465
Co0 Sb1 2.414467 1_555
Co0 Sb1 2.415146 1_455
Co0 Sb1 2.415146 1_565
Co0 Co2 2.620280 1_554
Co0 Ni2 2.642932 1_455
Co0 Ni2 2.642932 1_565
Co0 Ni2 2.643787 1_465
Co0 Ni1 2.718915 1_455
Co0 Ni1 2.718915 1_565
Co0 Ni1 2.719527 1_465
Co1 Co2 2.465554 1_555
Co1 Ni0 2.491076 1_465
Co1 Sb0 2.593559 1_455
Co1 Sb0 2.593559 1_565
Co1 Sb0 2.593716 1_465
Co1 Sb2 2.766106 1_555
Co1 Sb2 2.766861 1_455
Co1 Sb2 2.766861 1_565
Co2 Ni1 2.610409 1_456
Co2 Ni1 2.610409 1_566
Co2 Ni1 2.610610 1_466
Co2 Sb0 2.659537 1_455
Co2 Sb0 2.659537 1_565
Co2 Sb0 2.659677 1_465
Co2 Sb1 3.025988 1_556
Co2 Sb1 3.026153 1_456
Co2 Sb1 3.026153 1_566
Ni0 Sb2 2.517614 1_545
Ni0 Sb2 2.517614 1_655
Ni0 Sb2 2.517887 1_645
Ni0 Ni2 2.536876 1_555
Ni0 Ni2 2.537224 1_655
Ni0 Ni2 2.537224 1_545
Ni1 Sb1 2.435192 1_655
Ni1 Sb1 2.435192 1_545
Ni1 Sb1 2.435411 1_555
Ni1 Sb0 2.502710 1_554
Ni1 Ni2 2.689949 1_555
Ni2 Sb1 3.026217 1_555
Ni2 Sb1 3.026238 1_545
Ni2 Sb1 3.026238 1_655
Ni2 Sb2 3.069588 1_545
Ni2 Sb2 3.069588 1_655
Ni2 Sb2 3.069833 1_555
