# generated using pymatgen
data_CePd7
_symmetry_space_group_name_H-M   'P 1'
_cell_length_a   5.68026384
_cell_length_b   5.68026384
_cell_length_c   5.68026384
_cell_angle_alpha   60.00000000
_cell_angle_beta   60.00000000
_cell_angle_gamma   60.00000000
_symmetry_Int_Tables_number   1
_chemical_formula_structural   CePd7
_chemical_formula_sum   'Ce1 Pd7'
_cell_volume   129.59568086
_cell_formula_units_Z   1
loop_
 _symmetry_equiv_pos_site_id
 _symmetry_equiv_pos_as_xyz
  1  'x, y, z'
loop_
 _atom_site_type_symbol
 _atom_site_label
 _atom_site_symmetry_multiplicity
 _atom_site_fract_x
 _atom_site_fract_y
 _atom_site_fract_z
 _atom_site_occupancy
  Ce  Ce0  1  -0.00000000  -0.00000000  0.00000000  1
  Pd  Pd0  1  0.00000000  -0.00000000  0.50000000  1
  Pd  Pd1  1  0.50000000  0.50000000  0.00000000  1
  Pd  Pd2  1  0.00000000  0.50000000  -0.00000000  1
  Pd  Pd3  1  0.50000000  0.00000000  0.50000000  1
  Pd  Pd4  1  0.50000000  -0.00000000  0.00000000  1
  Pd  Pd5  1  -0.00000000  0.50000000  0.50000000  1
  Pd  Pd6  1  0.50000000  0.50000000  0.50000000  1
loop_
_geom_bond_atom_site_label_1
_geom_bond_atom_site_label_2
_geom_bond_distance
_geom_bond_site_symmetry_2
Ce0 Pd2 2.840132 1_555
Ce0 Pd0 2.840132 1_554
Ce0 Pd2 2.840132 1_545
Ce0 Pd1 2.840132 1_455
Ce0 Pd4 2.840132 1_555
Ce0 Pd1 2.840132 1_545
Ce0 Pd3 2.840132 1_554
Ce0 Pd5 2.840132 1_545
Ce0 Pd0 2.840132 1_555
Ce0 Pd4 2.840132 1_455
Ce0 Pd5 2.840132 1_554
Ce0 Pd3 2.840132 1_455
Pd0 Pd2 2.840132 1_555
Pd0 Pd4 2.840132 1_456
Pd0 Pd4 2.840132 1_555
Pd0 Pd2 2.840132 1_546
Pd0 Pd5 2.840132 1_545
Pd0 Pd5 2.840132 1_555
Pd0 Pd6 2.840132 1_545
Pd0 Pd3 2.840132 1_555
Pd0 Pd3 2.840132 1_455
Pd0 Pd6 2.840132 1_455
Pd1 Pd2 2.840132 1_555
Pd1 Pd4 2.840132 1_555
Pd1 Pd6 2.840132 1_554
Pd1 Pd2 2.840132 1_655
Pd1 Pd6 2.840132 1_555
Pd1 Pd3 2.840132 1_555
Pd1 Pd5 2.840132 1_555
Pd1 Pd5 2.840132 1_654
Pd1 Pd3 2.840132 1_564
Pd1 Pd4 2.840132 1_565
Pd2 Pd4 2.840132 1_465
Pd2 Pd4 2.840132 1_555
Pd2 Pd6 2.840132 1_554
Pd2 Pd5 2.840132 1_555
Pd2 Pd5 2.840132 1_554
Pd2 Pd6 2.840132 1_455
Pd3 Pd4 2.840132 1_555
Pd3 Pd6 2.840132 1_555
Pd3 Pd5 2.840132 1_555
Pd3 Pd6 2.840132 1_545
Pd3 Pd5 2.840132 1_645
Pd3 Pd4 2.840132 1_556
Pd4 Pd6 2.840132 1_554
Pd4 Pd6 2.840132 1_545
Pd5 Pd6 2.840132 1_555
Pd5 Pd6 2.840132 1_455
