# generated using pymatgen
data_YIn
_symmetry_space_group_name_H-M   'P 1'
_cell_length_a   7.08487003
_cell_length_b   7.08487003
_cell_length_c   8.38992154
_cell_angle_alpha   90.00000000
_cell_angle_beta   90.00000000
_cell_angle_gamma   90.00000000
_symmetry_Int_Tables_number   1
_chemical_formula_structural   YIn
_chemical_formula_sum   'Y8 In8'
_cell_volume   421.13532757
_cell_formula_units_Z   8
loop_
 _symmetry_equiv_pos_site_id
 _symmetry_equiv_pos_as_xyz
  1  'x, y, z'
loop_
 _atom_site_type_symbol
 _atom_site_label
 _atom_site_symmetry_multiplicity
 _atom_site_fract_x
 _atom_site_fract_y
 _atom_site_fract_z
 _atom_site_occupancy
  Y  Y0_0  1  0.00000000  0.00000000  0.00000000  1
  Y  Y0_1  1  0.00000000  0.00000000  0.50000000  1
  Y  Y0_2  1  0.00000000  0.50000000  0.00000000  1
  Y  Y0_3  1  0.00000000  0.50000000  0.50000000  1
  Y  Y0_4  1  0.50000000  0.00000000  0.00000000  1
  Y  Y0_5  1  0.50000000  0.00000000  0.50000000  1
  Y  Y0_6  1  0.50000000  0.50000000  0.00000000  1
  Y  Y0_7  1  0.50000000  0.50000000  0.50000000  1
  In  In0_0  1  0.25000000  0.25000000  0.25000000  1
  In  In0_1  1  0.25000000  0.25000000  0.75000000  1
  In  In0_2  1  0.25000000  0.75000000  0.25000000  1
  In  In0_3  1  0.25000000  0.75000000  0.75000000  1
  In  In0_4  1  0.75000000  0.25000000  0.25000000  1
  In  In0_5  1  0.75000000  0.25000000  0.75000000  1
  In  In0_6  1  0.75000000  0.75000000  0.25000000  1
  In  In0_7  1  0.75000000  0.75000000  0.75000000  1
loop_
_geom_bond_atom_site_label_1
_geom_bond_atom_site_label_2
_geom_bond_distance
_geom_bond_site_symmetry_2
Y0_0 Y0_2 3.542435 1_555
Y0_0 Y0_2 3.542435 1_545
Y0_0 Y0_4 3.542435 1_455
Y0_0 Y0_4 3.542435 1_555
Y0_1 Y0_5 3.542435 1_555
Y0_1 Y0_3 3.542435 1_555
Y0_1 Y0_5 3.542435 1_455
Y0_1 Y0_3 3.542435 1_545
Y0_2 Y0_6 3.542435 1_455
Y0_2 Y0_6 3.542435 1_555
Y0_3 Y0_7 3.542435 1_555
Y0_3 Y0_7 3.542435 1_455
Y0_4 Y0_6 3.542435 1_555
Y0_4 Y0_6 3.542435 1_545
Y0_5 Y0_7 3.542435 1_555
Y0_5 Y0_7 3.542435 1_545
In0_0 Y0_4 3.267085 1_555
In0_0 Y0_7 3.267085 1_555
In0_0 Y0_2 3.267085 1_555
In0_0 Y0_1 3.267085 1_555
In0_0 Y0_0 3.267085 1_555
In0_0 Y0_5 3.267085 1_555
In0_0 Y0_6 3.267085 1_555
In0_0 Y0_3 3.267085 1_555
In0_1 Y0_7 3.267085 1_555
In0_1 Y0_2 3.267085 1_556
In0_1 Y0_0 3.267085 1_556
In0_1 Y0_1 3.267085 1_555
In0_1 Y0_4 3.267085 1_556
In0_1 Y0_5 3.267085 1_555
In0_1 Y0_3 3.267085 1_555
In0_1 Y0_6 3.267085 1_556
In0_2 Y0_4 3.267085 1_565
In0_2 Y0_7 3.267085 1_555
In0_2 Y0_1 3.267085 1_565
In0_2 Y0_2 3.267085 1_555
In0_2 Y0_5 3.267085 1_565
In0_2 Y0_0 3.267085 1_565
In0_2 Y0_6 3.267085 1_555
In0_2 Y0_3 3.267085 1_555
In0_3 Y0_7 3.267085 1_555
In0_3 Y0_1 3.267085 1_565
In0_3 Y0_2 3.267085 1_556
In0_3 Y0_4 3.267085 1_566
In0_3 Y0_5 3.267085 1_565
In0_3 Y0_0 3.267085 1_566
In0_3 Y0_3 3.267085 1_555
In0_3 Y0_6 3.267085 1_556
In0_4 Y0_4 3.267085 1_555
In0_4 Y0_7 3.267085 1_555
In0_4 Y0_0 3.267085 1_655
In0_4 Y0_2 3.267085 1_655
In0_4 Y0_1 3.267085 1_655
In0_4 Y0_5 3.267085 1_555
In0_4 Y0_6 3.267085 1_555
In0_4 Y0_3 3.267085 1_655
In0_5 Y0_7 3.267085 1_555
In0_5 Y0_6 3.267085 1_556
In0_5 Y0_1 3.267085 1_655
In0_5 Y0_2 3.267085 1_656
In0_5 Y0_4 3.267085 1_556
In0_5 Y0_5 3.267085 1_555
In0_5 Y0_3 3.267085 1_655
In0_5 Y0_0 3.267085 1_656
In0_6 Y0_0 3.267085 1_665
In0_6 Y0_4 3.267085 1_565
In0_6 Y0_7 3.267085 1_555
In0_6 Y0_1 3.267085 1_665
In0_6 Y0_2 3.267085 1_655
In0_6 Y0_5 3.267085 1_565
In0_6 Y0_6 3.267085 1_555
In0_6 Y0_3 3.267085 1_655
In0_7 Y0_7 3.267085 1_555
In0_7 Y0_0 3.267085 1_666
In0_7 Y0_1 3.267085 1_665
In0_7 Y0_4 3.267085 1_566
In0_7 Y0_2 3.267085 1_656
In0_7 Y0_5 3.267085 1_565
In0_7 Y0_3 3.267085 1_655
In0_7 Y0_6 3.267085 1_556
