# generated using pymatgen
data_LaYbS3
_symmetry_space_group_name_H-M   'P 1'
_cell_length_a   7.16010200
_cell_length_b   7.78410100
_cell_length_c   8.94871400
_cell_angle_alpha   90.00000000
_cell_angle_beta   90.00000000
_cell_angle_gamma   90.00000000
_symmetry_Int_Tables_number   1
_chemical_formula_structural   LaYbS3
_chemical_formula_sum   'La4 Yb4 S12'
_cell_volume   498.75619123
_cell_formula_units_Z   4
loop_
 _symmetry_equiv_pos_site_id
 _symmetry_equiv_pos_as_xyz
  1  'x, y, z'
loop_
 _atom_site_type_symbol
 _atom_site_label
 _atom_site_symmetry_multiplicity
 _atom_site_fract_x
 _atom_site_fract_y
 _atom_site_fract_z
 _atom_site_occupancy
  La  La0  1  0.47668300  0.59974500  0.50746900  1
  La  La1  1  0.52331700  0.40025500  0.00746900  1
  La  La2  1  0.97668300  0.90025500  0.00746900  1
  La  La3  1  0.02331700  0.09974500  0.50746900  1
  Yb  Yb0  1  0.99888900  0.50648300  0.25904800  1
  Yb  Yb1  1  0.00111100  0.49351700  0.75904800  1
  Yb  Yb2  1  0.49888900  0.99351700  0.75904800  1
  Yb  Yb3  1  0.50111100  0.00648300  0.25904800  1
  S  S0  1  0.18251000  0.80460900  0.67331400  1
  S  S1  1  0.81749000  0.19539100  0.17331400  1
  S  S2  1  0.68251000  0.69539100  0.17331400  1
  S  S3  1  0.31749000  0.30460900  0.67331400  1
  S  S4  1  0.18568700  0.81492600  0.33915200  1
  S  S5  1  0.81431300  0.18507400  0.83915200  1
  S  S6  1  0.68568700  0.68507400  0.83915200  1
  S  S7  1  0.31431300  0.31492600  0.33915200  1
  S  S8  1  0.18816600  0.58941200  0.00701700  1
  S  S9  1  0.81183400  0.41058800  0.50701700  1
  S  S10  1  0.68816600  0.91058800  0.50701700  1
  S  S11  1  0.31183400  0.08941200  0.00701700  1
loop_
_geom_bond_atom_site_label_1
_geom_bond_atom_site_label_2
_geom_bond_distance
_geom_bond_site_symmetry_2
La0 S9 2.815433 1_555
La0 S10 2.854394 1_555
La0 S7 2.921585 1_555
La0 S3 2.963053 1_555
La0 S0 3.030198 1_555
La0 S4 3.068472 1_555
La0 S6 3.389762 1_555
La0 S2 3.415825 1_555
La1 S8 2.815433 1_555
La1 S11 2.854394 1_555
La1 S6 2.921585 1_554
La1 S2 2.963053 1_555
La1 S1 3.030198 1_555
La1 S5 3.068472 1_554
La1 S7 3.389762 1_555
La1 S3 3.415825 1_554
La2 S11 2.815433 1_665
La2 S8 2.854394 1_655
La2 S5 2.921585 1_564
La2 S1 2.963053 1_565
La2 S2 3.030198 1_555
La2 S6 3.068472 1_554
La2 S4 3.389762 1_655
La2 S0 3.415825 1_654
La3 S10 2.815433 1_445
La3 S9 2.854394 1_455
La3 S4 2.921585 1_545
La3 S0 2.963053 1_545
La3 S3 3.030198 1_555
La3 S7 3.068472 1_555
La3 S5 3.389762 1_455
La3 S1 3.415825 1_455
S0 Yb2 2.807584 1_555
S0 Yb1 2.852997 1_555
S1 Yb3 2.807584 1_555
S1 Yb0 2.852997 1_555
S2 Yb0 2.807584 1_555
S2 Yb3 2.852997 1_565
S3 Yb1 2.807584 1_555
S3 Yb2 2.852997 1_545
S4 Yb3 2.799624 1_565
S4 Yb0 2.840299 1_455
S5 Yb2 2.799624 1_545
S5 Yb1 2.840299 1_655
S6 Yb1 2.799624 1_655
S6 Yb2 2.840299 1_555
S7 Yb0 2.799624 1_455
S7 Yb3 2.840299 1_555
S8 Yb1 2.697218 1_554
S8 Yb0 2.709245 1_455
S9 Yb0 2.697218 1_555
S9 Yb1 2.709245 1_655
S10 Yb3 2.697218 1_565
S10 Yb2 2.709245 1_555
S11 Yb2 2.697218 1_544
S11 Yb3 2.709245 1_555
