# generated using pymatgen
data_Zn(CuO2)2
_symmetry_space_group_name_H-M   'P 1'
_cell_length_a   3.12057800
_cell_length_b   9.27630200
_cell_length_c   9.92045300
_cell_angle_alpha   90.00000000
_cell_angle_beta   90.00000000
_cell_angle_gamma   90.00000000
_symmetry_Int_Tables_number   1
_chemical_formula_structural   Zn(CuO2)2
_chemical_formula_sum   'Zn4 Cu8 O16'
_cell_volume   287.17155869
_cell_formula_units_Z   4
loop_
 _symmetry_equiv_pos_site_id
 _symmetry_equiv_pos_as_xyz
  1  'x, y, z'
loop_
 _atom_site_type_symbol
 _atom_site_label
 _atom_site_symmetry_multiplicity
 _atom_site_fract_x
 _atom_site_fract_y
 _atom_site_fract_z
 _atom_site_occupancy
  Zn  Zn0  1  0.83000900  0.75000000  0.34560100  1
  Zn  Zn1  1  0.83000900  0.25000000  0.15439900  1
  Zn  Zn2  1  0.16999100  0.75000000  0.84560100  1
  Zn  Zn3  1  0.16999100  0.25000000  0.65439900  1
  Cu  Cu0  1  0.32945800  0.56882000  0.11448500  1
  Cu  Cu1  1  0.32945800  0.06882000  0.38551500  1
  Cu  Cu2  1  0.67054200  0.06882000  0.88551500  1
  Cu  Cu3  1  0.32945800  0.43118000  0.38551500  1
  Cu  Cu4  1  0.67054200  0.43118000  0.88551500  1
  Cu  Cu5  1  0.32945800  0.93118000  0.11448500  1
  Cu  Cu6  1  0.67054200  0.93118000  0.61448500  1
  Cu  Cu7  1  0.67054200  0.56882000  0.61448500  1
  O  O0  1  0.63020200  0.88380900  0.95783000  1
  O  O1  1  0.36979800  0.11619100  0.04217000  1
  O  O2  1  0.98061200  0.00000000  0.25000000  1
  O  O3  1  0.36979800  0.88380900  0.45783000  1
  O  O4  1  0.36979800  0.61619100  0.45783000  1
  O  O5  1  0.31973200  0.25000000  0.29833200  1
  O  O6  1  0.63020200  0.11619100  0.54217000  1
  O  O7  1  0.68026800  0.25000000  0.79833200  1
  O  O8  1  0.98061200  0.50000000  0.25000000  1
  O  O9  1  0.01938800  0.00000000  0.75000000  1
  O  O10  1  0.63020200  0.61619100  0.95783000  1
  O  O11  1  0.68026800  0.75000000  0.70166800  1
  O  O12  1  0.31973200  0.75000000  0.20166800  1
  O  O13  1  0.01938800  0.50000000  0.75000000  1
  O  O14  1  0.63020200  0.38380900  0.54217000  1
  O  O15  1  0.36979800  0.38380900  0.04217000  1
loop_
_geom_bond_atom_site_label_1
_geom_bond_atom_site_label_2
_geom_bond_distance
_geom_bond_site_symmetry_2
Cu0 O8 1.843890 1_455
Cu0 O15 1.864379 1_555
Cu0 O10 1.867903 1_554
Cu0 O12 1.890410 1_555
Cu1 O2 1.843890 1_455
Cu1 O3 1.864379 1_545
Cu1 O6 1.867903 1_555
Cu1 O5 1.890410 1_555
Cu2 O9 1.843890 1_655
Cu2 O0 1.864379 1_545
Cu2 O1 1.867903 1_556
Cu2 O7 1.890410 1_555
Cu3 O8 1.843890 1_455
Cu3 O4 1.864379 1_555
Cu3 O14 1.867903 1_555
Cu3 O5 1.890410 1_555
Cu4 O13 1.843890 1_655
Cu4 O10 1.864379 1_555
Cu4 O15 1.867903 1_556
Cu4 O7 1.890410 1_555
Cu5 O2 1.843890 1_465
Cu5 O1 1.864379 1_565
Cu5 O0 1.867903 1_554
Cu5 O12 1.890410 1_555
Cu6 O9 1.843890 1_665
Cu6 O6 1.864379 1_565
Cu6 O3 1.867903 1_555
Cu6 O11 1.890410 1_555
Cu7 O13 1.843890 1_655
Cu7 O14 1.864379 1_555
Cu7 O4 1.867903 1_555
Cu7 O11 1.890410 1_555
O0 Zn2 2.200622 1_555
O0 Zn2 2.370162 1_655
O1 Zn1 2.200622 1_555
O1 Zn1 2.370162 1_455
O2 Zn0 2.549207 1_545
O2 Zn1 2.549207 1_555
O3 Zn0 2.200622 1_555
O3 Zn0 2.370162 1_455
O4 Zn0 2.200622 1_555
O4 Zn0 2.370162 1_455
O5 Zn1 2.091482 1_455
O5 Zn1 2.138797 1_555
O6 Zn3 2.200622 1_555
O6 Zn3 2.370162 1_655
O7 Zn3 2.091482 1_655
O7 Zn3 2.138797 1_555
O8 Zn0 2.549207 1_555
O8 Zn1 2.549207 1_555
O9 Zn2 2.549207 1_545
O9 Zn3 2.549207 1_555
O10 Zn2 2.200622 1_555
O10 Zn2 2.370162 1_655
O11 Zn2 2.091482 1_655
O11 Zn2 2.138797 1_555
O12 Zn0 2.091482 1_455
O12 Zn0 2.138797 1_555
O13 Zn2 2.549207 1_555
O13 Zn3 2.549207 1_555
O14 Zn3 2.200622 1_555
O14 Zn3 2.370162 1_655
O15 Zn1 2.200622 1_555
O15 Zn1 2.370162 1_455
