# generated using pymatgen
data_Dy3Co4Ge13
_symmetry_space_group_name_H-M   'P 1'
_cell_length_a   8.77722900
_cell_length_b   8.77722900
_cell_length_c   8.77722900
_cell_angle_alpha   90.00000000
_cell_angle_beta   90.00000000
_cell_angle_gamma   90.00000000
_symmetry_Int_Tables_number   1
_chemical_formula_structural   Dy3Co4Ge13
_chemical_formula_sum   'Dy6 Co8 Ge26'
_cell_volume   676.19551836
_cell_formula_units_Z   2
loop_
 _symmetry_equiv_pos_site_id
 _symmetry_equiv_pos_as_xyz
  1  'x, y, z'
loop_
 _atom_site_type_symbol
 _atom_site_label
 _atom_site_symmetry_multiplicity
 _atom_site_fract_x
 _atom_site_fract_y
 _atom_site_fract_z
 _atom_site_occupancy
  Dy  Dy0  1  0.00000000  0.50000000  0.75000000  1
  Dy  Dy1  1  0.50000000  0.25000000  0.00000000  1
  Dy  Dy2  1  0.75000000  0.00000000  0.50000000  1
  Dy  Dy3  1  0.00000000  0.50000000  0.25000000  1
  Dy  Dy4  1  0.50000000  0.75000000  0.00000000  1
  Dy  Dy5  1  0.25000000  0.00000000  0.50000000  1
  Co  Co0  1  0.75000000  0.25000000  0.75000000  1
  Co  Co1  1  0.25000000  0.75000000  0.25000000  1
  Co  Co2  1  0.75000000  0.75000000  0.25000000  1
  Co  Co3  1  0.25000000  0.25000000  0.75000000  1
  Co  Co4  1  0.25000000  0.75000000  0.75000000  1
  Co  Co5  1  0.75000000  0.25000000  0.25000000  1
  Co  Co6  1  0.25000000  0.25000000  0.25000000  1
  Co  Co7  1  0.75000000  0.75000000  0.75000000  1
  Ge  Ge0  1  0.50000000  0.50000000  0.50000000  1
  Ge  Ge1  1  0.00000000  0.00000000  0.00000000  1
  Ge  Ge2  1  0.80271200  0.34724200  0.50000000  1
  Ge  Ge3  1  0.65275800  0.50000000  0.80271200  1
  Ge  Ge4  1  0.50000000  0.19728800  0.65275800  1
  Ge  Ge5  1  0.19728800  0.65275800  0.50000000  1
  Ge  Ge6  1  0.34724200  0.50000000  0.19728800  1
  Ge  Ge7  1  0.50000000  0.80271200  0.34724200  1
  Ge  Ge8  1  0.80271200  0.65275800  0.50000000  1
  Ge  Ge9  1  0.65275800  0.50000000  0.19728800  1
  Ge  Ge10  1  0.19728800  0.34724200  0.50000000  1
  Ge  Ge11  1  0.34724200  0.50000000  0.80271200  1
  Ge  Ge12  1  0.50000000  0.80271200  0.65275800  1
  Ge  Ge13  1  0.50000000  0.19728800  0.34724200  1
  Ge  Ge14  1  0.30271200  0.00000000  0.84724200  1
  Ge  Ge15  1  0.15275800  0.30271200  0.00000000  1
  Ge  Ge16  1  0.00000000  0.15275800  0.69728800  1
  Ge  Ge17  1  0.69728800  0.00000000  0.15275800  1
  Ge  Ge18  1  0.84724200  0.69728800  0.00000000  1
  Ge  Ge19  1  0.00000000  0.84724200  0.30271200  1
  Ge  Ge20  1  0.30271200  0.00000000  0.15275800  1
  Ge  Ge21  1  0.15275800  0.69728800  0.00000000  1
  Ge  Ge22  1  0.69728800  0.00000000  0.84724200  1
  Ge  Ge23  1  0.84724200  0.30271200  0.00000000  1
  Ge  Ge24  1  0.00000000  0.15275800  0.30271200  1
  Ge  Ge25  1  0.00000000  0.84724200  0.69728800  1
loop_
_geom_bond_atom_site_label_1
_geom_bond_atom_site_label_2
_geom_bond_distance
_geom_bond_site_symmetry_2
Dy0 Ge16 3.082739 1_555
Dy0 Ge11 3.082739 1_555
Dy0 Ge3 3.082739 1_455
Dy0 Ge25 3.082739 1_555
Dy0 Ge5 3.100208 1_555
Dy0 Ge8 3.100208 1_455
Dy0 Ge2 3.100208 1_455
Dy0 Ge18 3.100208 1_456
Dy0 Ge15 3.100208 1_556
Dy0 Ge21 3.100208 1_556
Dy0 Ge10 3.100208 1_555
Dy0 Ge23 3.100208 1_456
Dy1 Ge15 3.082739 1_555
Dy1 Ge13 3.082739 1_555
Dy1 Ge23 3.082739 1_555
Dy1 Ge4 3.082739 1_554
Dy1 Ge9 3.100208 1_555
Dy1 Ge17 3.100208 1_555
Dy1 Ge14 3.100208 1_554
Dy1 Ge6 3.100208 1_555
Dy1 Ge11 3.100208 1_554
Dy1 Ge20 3.100208 1_555
Dy1 Ge22 3.100208 1_554
Dy1 Ge3 3.100208 1_554
Dy2 Ge17 3.082739 1_555
Dy2 Ge2 3.082739 1_555
Dy2 Ge22 3.082739 1_555
Dy2 Ge8 3.082739 1_545
Dy2 Ge4 3.100208 1_555
Dy2 Ge13 3.100208 1_555
Dy2 Ge16 3.100208 1_655
Dy2 Ge12 3.100208 1_545
Dy2 Ge24 3.100208 1_655
Dy2 Ge7 3.100208 1_545
Dy2 Ge25 3.100208 1_645
Dy2 Ge19 3.100208 1_645
Dy3 Ge24 3.082739 1_555
Dy3 Ge6 3.082739 1_555
Dy3 Ge19 3.082739 1_555
Dy3 Ge9 3.082739 1_455
Dy3 Ge5 3.100208 1_555
Dy3 Ge8 3.100208 1_455
Dy3 Ge2 3.100208 1_455
Dy3 Ge18 3.100208 1_455
Dy3 Ge21 3.100208 1_555
Dy3 Ge15 3.100208 1_555
Dy3 Ge10 3.100208 1_555
Dy3 Ge23 3.100208 1_455
Dy4 Ge21 3.082739 1_555
Dy4 Ge7 3.082739 1_555
Dy4 Ge18 3.082739 1_555
Dy4 Ge12 3.082739 1_554
Dy4 Ge9 3.100208 1_555
Dy4 Ge20 3.100208 1_565
Dy4 Ge6 3.100208 1_555
Dy4 Ge11 3.100208 1_554
Dy4 Ge17 3.100208 1_565
Dy4 Ge14 3.100208 1_564
Dy4 Ge3 3.100208 1_554
Dy4 Ge22 3.100208 1_564
Dy5 Ge10 3.082739 1_555
Dy5 Ge20 3.082739 1_555
Dy5 Ge14 3.082739 1_555
Dy5 Ge5 3.082739 1_545
Dy5 Ge4 3.100208 1_555
Dy5 Ge13 3.100208 1_555
Dy5 Ge19 3.100208 1_545
Dy5 Ge12 3.100208 1_545
Dy5 Ge25 3.100208 1_545
Dy5 Ge24 3.100208 1_555
Dy5 Ge7 3.100208 1_545
Dy5 Ge16 3.100208 1_555
Co0 Ge2 2.399486 1_555
Co0 Ge22 2.399486 1_555
Co0 Ge23 2.399486 1_556
Co0 Ge4 2.399486 1_555
Co0 Ge16 2.399486 1_655
Co0 Ge3 2.399486 1_555
Co0 Dy2 3.103219 1_555
Co0 Dy0 3.103219 1_655
Co0 Dy1 3.103219 1_556
Co1 Ge21 2.399486 1_555
Co1 Ge6 2.399486 1_555
Co1 Ge7 2.399486 1_555
Co1 Ge19 2.399486 1_555
Co1 Ge20 2.399486 1_565
Co1 Ge5 2.399486 1_555
Co1 Dy5 3.103219 1_565
Co1 Dy4 3.103219 1_555
Co1 Dy3 3.103219 1_555
Co2 Ge7 2.399486 1_555
Co2 Ge9 2.399486 1_555
Co2 Ge19 2.399486 1_655
Co2 Ge18 2.399486 1_555
Co2 Ge8 2.399486 1_555
Co2 Ge17 2.399486 1_565
Co2 Dy2 3.103219 1_565
Co2 Dy4 3.103219 1_555
Co2 Dy3 3.103219 1_655
Co3 Ge15 2.399486 1_556
Co3 Ge11 2.399486 1_555
Co3 Ge10 2.399486 1_555
Co3 Ge16 2.399486 1_555
Co3 Ge14 2.399486 1_555
Co3 Ge4 2.399486 1_555
Co3 Dy5 3.103219 1_555
Co3 Dy0 3.103219 1_555
Co3 Dy1 3.103219 1_556
Co4 Ge21 2.399486 1_556
Co4 Ge11 2.399486 1_555
Co4 Ge12 2.399486 1_555
Co4 Ge5 2.399486 1_555
Co4 Ge14 2.399486 1_565
Co4 Ge25 2.399486 1_555
Co4 Dy5 3.103219 1_565
Co4 Dy4 3.103219 1_556
Co4 Dy0 3.103219 1_555
Co5 Ge2 2.399486 1_555
Co5 Ge9 2.399486 1_555
Co5 Ge23 2.399486 1_555
Co5 Ge13 2.399486 1_555
Co5 Ge17 2.399486 1_555
Co5 Ge24 2.399486 1_655
Co5 Dy1 3.103219 1_555
Co5 Dy2 3.103219 1_555
Co5 Dy3 3.103219 1_655
Co6 Ge15 2.399486 1_555
Co6 Ge6 2.399486 1_555
Co6 Ge10 2.399486 1_555
Co6 Ge13 2.399486 1_555
Co6 Ge24 2.399486 1_555
Co6 Ge20 2.399486 1_555
Co6 Dy1 3.103219 1_555
Co6 Dy5 3.103219 1_555
Co6 Dy3 3.103219 1_555
Co7 Ge22 2.399486 1_565
Co7 Ge25 2.399486 1_655
Co7 Ge8 2.399486 1_555
Co7 Ge12 2.399486 1_555
Co7 Ge18 2.399486 1_556
Co7 Ge3 2.399486 1_555
Co7 Dy2 3.103219 1_565
Co7 Dy4 3.103219 1_556
Co7 Dy0 3.103219 1_655
Ge0 Ge4 2.976109 1_555
Ge0 Ge13 2.976109 1_555
Ge0 Ge6 2.976109 1_555
Ge0 Ge8 2.976109 1_555
Ge0 Ge12 2.976109 1_555
Ge0 Ge2 2.976109 1_555
Ge0 Ge3 2.976109 1_555
Ge0 Ge5 2.976109 1_555
Ge0 Ge9 2.976109 1_555
Ge0 Ge10 2.976109 1_555
Ge0 Ge7 2.976109 1_555
Ge0 Ge11 2.976109 1_555
Ge1 Ge25 2.976109 1_544
Ge1 Ge19 2.976109 1_545
Ge1 Ge24 2.976109 1_555
Ge1 Ge22 2.976109 1_454
Ge1 Ge15 2.976109 1_555
Ge1 Ge20 2.976109 1_555
Ge1 Ge18 2.976109 1_445
Ge1 Ge21 2.976109 1_545
Ge1 Ge16 2.976109 1_554
Ge1 Ge23 2.976109 1_455
Ge1 Ge17 2.976109 1_455
Ge1 Ge14 2.976109 1_554
