# generated using pymatgen
data_NaLi2FePCO7
_symmetry_space_group_name_H-M   'P 1'
_cell_length_a   6.66972800
_cell_length_b   8.62705956
_cell_length_c   10.09074970
_cell_angle_alpha   92.00156846
_cell_angle_beta   90.09032078
_cell_angle_gamma   90.14999626
_symmetry_Int_Tables_number   1
_chemical_formula_structural   NaLi2FePCO7
_chemical_formula_sum   'Na4 Li8 Fe4 P4 C4 O28'
_cell_volume   580.26610636
_cell_formula_units_Z   4
loop_
 _symmetry_equiv_pos_site_id
 _symmetry_equiv_pos_as_xyz
  1  'x, y, z'
loop_
 _atom_site_type_symbol
 _atom_site_label
 _atom_site_symmetry_multiplicity
 _atom_site_fract_x
 _atom_site_fract_y
 _atom_site_fract_z
 _atom_site_occupancy
  Na  Na0  1  0.24194500  0.91601500  0.37758500  1
  Na  Na1  1  0.99705600  0.74720400  0.62689400  1
  Na  Na2  1  0.50204200  0.74354100  0.12472400  1
  Na  Na3  1  0.50191200  0.25491400  0.37564900  1
  Li  Li0  1  0.25531700  0.91315500  0.87478800  1
  Li  Li1  1  0.47533300  0.72478000  0.61654600  1
  Li  Li2  1  0.02307400  0.72389200  0.10895400  1
  Li  Li3  1  0.51729800  0.26728200  0.88423700  1
  Li  Li4  1  0.98437800  0.26770500  0.88370300  1
  Li  Li5  1  0.97416600  0.27613500  0.39006000  1
  Li  Li6  1  0.74348000  0.09408700  0.63019400  1
  Li  Li7  1  0.77113800  0.09577000  0.12319400  1
  Fe  Fe0  1  0.75257900  0.65109300  0.88651200  1
  Fe  Fe1  1  0.74629100  0.64398300  0.38985900  1
  Fe  Fe2  1  0.24343400  0.34981200  0.61509100  1
  Fe  Fe3  1  0.25027500  0.34540600  0.10742200  1
  P  P0  1  0.25644600  0.59118500  0.85160600  1
  P  P1  1  0.23758400  0.58185000  0.35302100  1
  P  P2  1  0.74237800  0.40684200  0.64977300  1
  P  P3  1  0.76158300  0.40787000  0.14059500  1
  C  C0  1  0.74912600  0.96045900  0.86694700  1
  C  C1  1  0.76080100  0.95455800  0.36443600  1
  C  C2  1  0.25707000  0.05343300  0.64591400  1
  C  C3  1  0.23996500  0.04307600  0.12752700  1
  O  O0  1  0.28095600  0.90639500  0.66345200  1
  O  O1  1  0.21671900  0.89710200  0.14646700  1
  O  O2  1  0.75013100  0.91935100  0.98934300  1
  O  O3  1  0.75277100  0.92041700  0.48873600  1
  O  O4  1  0.75091300  0.85372200  0.77209500  1
  O  O5  1  0.74571200  0.84387600  0.27354700  1
  O  O6  1  0.07145000  0.69069900  0.89504300  1
  O  O7  1  0.44019000  0.68899800  0.89817800  1
  O  O8  1  0.05759200  0.68265000  0.40053000  1
  O  O9  1  0.42877300  0.67265500  0.40081600  1
  O  O10  1  0.26208000  0.57274400  0.69639700  1
  O  O11  1  0.72436600  0.57103900  0.59198700  1
  O  O12  1  0.23487000  0.56733400  0.19775000  1
  O  O13  1  0.77418000  0.57262600  0.08434200  1
  O  O14  1  0.25371600  0.42622500  0.90844400  1
  O  O15  1  0.75709800  0.42527800  0.80459600  1
  O  O16  1  0.22843900  0.41717400  0.40923400  1
  O  O17  1  0.77153900  0.42417000  0.29545500  1
  O  O18  1  0.56011100  0.30221000  0.61248800  1
  O  O19  1  0.92598200  0.31473700  0.59429800  1
  O  O20  1  0.56886200  0.31703100  0.09694000  1
  O  O21  1  0.93594000  0.30214400  0.08876000  1
  O  O22  1  0.23779400  0.14899700  0.74751800  1
  O  O23  1  0.25134700  0.14161200  0.22880500  1
  O  O24  1  0.25048300  0.10966200  0.52792400  1
  O  O25  1  0.25367300  0.09533400  0.00860000  1
  O  O26  1  0.74718300  0.10539300  0.83553500  1
  O  O27  1  0.78245900  0.09637900  0.32749100  1
loop_
_geom_bond_atom_site_label_1
_geom_bond_atom_site_label_2
_geom_bond_distance
_geom_bond_site_symmetry_2
Na0 O24 2.217599 1_565
Na0 O1 2.337929 1_555
Na0 O8 2.374694 1_555
Na0 O9 2.462250 1_555
Na0 O23 2.499889 1_565
Na1 O0 2.357212 1_655
Na1 O8 2.367675 1_655
Na1 O4 2.368090 1_555
Na1 O11 2.384922 1_555
Na1 O10 2.442423 1_655
Na1 O3 2.642410 1_555
Na1 O6 2.809713 1_655
Na2 O1 2.327854 1_555
Na2 O7 2.353370 1_554
Na2 O5 2.353703 1_555
Na2 O13 2.368352 1_555
Na2 O12 2.469303 1_555
Na2 O2 2.653936 1_554
Na2 O9 2.914822 1_555
Na3 O16 2.320234 1_555
Na3 O27 2.361747 1_555
Na3 O23 2.413802 1_555
Na3 O18 2.440662 1_555
Na3 O17 2.468677 1_555
Na3 O24 2.622046 1_555
Na3 O20 2.916171 1_555
Li0 O25 2.036018 1_566
Li0 O0 2.138429 1_555
Li0 O6 2.290123 1_555
Li0 O7 2.314999 1_555
Li0 O22 2.446619 1_565
Li1 O0 2.078564 1_555
Li1 O10 2.111947 1_555
Li1 O11 2.137594 1_555
Li1 O9 2.228499 1_555
Li2 O1 1.998291 1_555
Li2 O13 2.117819 1_455
Li2 O12 2.170967 1_555
Li2 O6 2.191992 1_554
Li3 O26 2.123356 1_555
Li3 O20 2.200404 1_556
Li3 O14 2.240781 1_555
Li3 O15 2.265160 1_555
Li3 O22 2.510677 1_555
Li4 O21 2.105662 1_556
Li4 O26 2.153661 1_555
Li4 O15 2.205870 1_555
Li4 O14 2.263077 1_655
Li4 O22 2.390009 1_655
Li5 O27 2.087363 1_555
Li5 O16 2.089455 1_655
Li5 O19 2.101490 1_555
Li5 O17 2.111617 1_555
Li6 O3 2.034090 1_545
Li6 O26 2.071039 1_555
Li6 O18 2.187396 1_555
Li6 O19 2.296484 1_555
Li6 O4 2.561344 1_545
Li7 O2 2.003749 1_544
Li7 O27 2.062596 1_555
Li7 O21 2.129069 1_555
Li7 O20 2.362551 1_555
Fe0 O15 2.089793 1_555
Fe0 O7 2.112729 1_555
Fe0 O4 2.128377 1_555
Fe0 O13 2.134954 1_556
Fe0 O6 2.154281 1_655
Fe0 O2 2.503069 1_555
Fe1 O17 2.099503 1_555
Fe1 O8 2.104049 1_655
Fe1 O5 2.119621 1_555
Fe1 O9 2.135388 1_555
Fe1 O11 2.160457 1_555
Fe1 O3 2.552999 1_555
Fe2 O10 2.067769 1_555
Fe2 O19 2.146959 1_455
Fe2 O18 2.152783 1_555
Fe2 O16 2.178685 1_555
Fe2 O24 2.222954 1_555
Fe2 O22 2.224853 1_555
Fe3 O12 2.094376 1_555
Fe3 O21 2.135402 1_455
Fe3 O20 2.141935 1_555
Fe3 O14 2.148469 1_554
Fe3 O23 2.177574 1_555
Fe3 O25 2.345050 1_555
C0 O2 1.296838 1_555
C0 O26 1.300685 1_565
C0 O4 1.304870 1_555
C1 O27 1.299193 1_565
C1 O3 1.299528 1_555
C1 O5 1.304247 1_555
C2 O0 1.297095 1_545
C2 O22 1.299734 1_555
C2 O24 1.301953 1_555
C3 O1 1.289322 1_545
C3 O25 1.299878 1_555
C3 O23 1.308262 1_555
O6 P0 1.559670 1_555
O7 P0 1.549157 1_555
O8 P1 1.550934 1_555
O9 P1 1.561667 1_555
O10 P0 1.569216 1_555
O11 P2 1.555439 1_555
O12 P1 1.567504 1_555
O13 P3 1.550940 1_555
O14 P0 1.552888 1_555
O15 P2 1.567716 1_555
O16 P1 1.549103 1_555
O17 P3 1.565357 1_555
O18 P2 1.550259 1_555
O19 P2 1.555809 1_555
O20 P3 1.558610 1_555
O21 P3 1.559498 1_555
