# generated using pymatgen
data_KMn2O4
_symmetry_space_group_name_H-M   'P 1'
_cell_length_a   10.84024700
_cell_length_b   10.84024700
_cell_length_c   5.90639800
_cell_angle_alpha   90.00000000
_cell_angle_beta   90.00000000
_cell_angle_gamma   90.00000000
_symmetry_Int_Tables_number   1
_chemical_formula_structural   KMn2O4
_chemical_formula_sum   'K8 Mn16 O32'
_cell_volume   694.06646971
_cell_formula_units_Z   8
loop_
 _symmetry_equiv_pos_site_id
 _symmetry_equiv_pos_as_xyz
  1  'x, y, z'
loop_
 _atom_site_type_symbol
 _atom_site_label
 _atom_site_symmetry_multiplicity
 _atom_site_fract_x
 _atom_site_fract_y
 _atom_site_fract_z
 _atom_site_occupancy
  K  K0  1  0.52476200  0.87573600  0.38943400  1
  K  K1  1  0.37573600  0.97523800  0.88943400  1
  K  K2  1  0.02476200  0.37573600  0.11056600  1
  K  K3  1  0.87573600  0.47523800  0.61056600  1
  K  K4  1  0.47523800  0.12426400  0.38943400  1
  K  K5  1  0.62426400  0.02476200  0.88943400  1
  K  K6  1  0.12426400  0.52476200  0.61056600  1
  K  K7  1  0.97523800  0.62426400  0.11056600  1
  Mn  Mn0  1  0.35133200  0.65854100  0.37191600  1
  Mn  Mn1  1  0.35193300  0.66459700  0.87827200  1
  Mn  Mn2  1  0.83540300  0.85193300  0.37827200  1
  Mn  Mn3  1  0.84145900  0.85133200  0.87191600  1
  Mn  Mn4  1  0.15854100  0.14866800  0.87191600  1
  Mn  Mn5  1  0.16459700  0.14806700  0.37827200  1
  Mn  Mn6  1  0.64806700  0.33540300  0.87827200  1
  Mn  Mn7  1  0.64866800  0.34145900  0.37191600  1
  Mn  Mn8  1  0.85193300  0.16459700  0.62172800  1
  Mn  Mn9  1  0.85133200  0.15854100  0.12808400  1
  Mn  Mn10  1  0.34145900  0.35133200  0.62808400  1
  Mn  Mn11  1  0.33540300  0.35193300  0.12172800  1
  Mn  Mn12  1  0.65854100  0.64866800  0.62808400  1
  Mn  Mn13  1  0.66459700  0.64806700  0.12172800  1
  Mn  Mn14  1  0.14806700  0.83540300  0.62172800  1
  Mn  Mn15  1  0.14866800  0.84145900  0.12808400  1
  O  O0  1  0.65449300  0.45070300  0.62803900  1
  O  O1  1  0.67105800  0.46061300  0.11993100  1
  O  O2  1  0.03938700  0.17105800  0.61993100  1
  O  O3  1  0.04929700  0.15449300  0.12803900  1
  O  O4  1  0.96061300  0.82894200  0.61993100  1
  O  O5  1  0.95070300  0.84550700  0.12803900  1
  O  O6  1  0.34550700  0.54929700  0.62803900  1
  O  O7  1  0.32894200  0.53938700  0.11993100  1
  O  O8  1  0.15449300  0.95070300  0.87196100  1
  O  O9  1  0.17105800  0.96061300  0.38006900  1
  O  O10  1  0.53938700  0.67105800  0.88006900  1
  O  O11  1  0.54929700  0.65449300  0.37196100  1
  O  O12  1  0.45070300  0.34550700  0.37196100  1
  O  O13  1  0.46061300  0.32894200  0.88006900  1
  O  O14  1  0.82894200  0.03938700  0.38006900  1
  O  O15  1  0.84550700  0.04929700  0.87196100  1
  O  O16  1  0.85171500  0.28076200  0.37074700  1
  O  O17  1  0.83900600  0.28889800  0.87170900  1
  O  O18  1  0.21923800  0.35171500  0.87074700  1
  O  O19  1  0.21110200  0.33900600  0.37170900  1
  O  O20  1  0.16099400  0.71110200  0.87170900  1
  O  O21  1  0.14828500  0.71923800  0.37074700  1
  O  O22  1  0.78889800  0.66099400  0.37170900  1
  O  O23  1  0.78076200  0.64828500  0.87074700  1
  O  O24  1  0.33900600  0.78889800  0.62829100  1
  O  O25  1  0.35171500  0.78076200  0.12925300  1
  O  O26  1  0.71923800  0.85171500  0.62925300  1
  O  O27  1  0.71110200  0.83900600  0.12829100  1
  O  O28  1  0.66099400  0.21110200  0.62829100  1
  O  O29  1  0.64828500  0.21923800  0.12925300  1
  O  O30  1  0.28076200  0.14828500  0.62925300  1
  O  O31  1  0.28889800  0.16099400  0.12829100  1
loop_
_geom_bond_atom_site_label_1
_geom_bond_atom_site_label_2
_geom_bond_distance
_geom_bond_site_symmetry_2
K0 O11 2.415237 1_555
K0 O26 2.553146 1_555
K0 O27 2.572520 1_555
K0 O24 2.632716 1_555
K0 O25 2.634464 1_555
K1 O8 2.415237 1_555
K1 O25 2.553146 1_556
K1 O24 2.572520 1_555
K1 O31 2.632716 1_566
K1 O30 2.634464 1_565
K2 O3 2.415237 1_555
K2 O18 2.553146 1_554
K2 O19 2.572520 1_555
K2 O17 2.632716 1_454
K2 O16 2.634464 1_455
K3 O0 2.415237 1_555
K3 O16 2.553146 1_555
K3 O17 2.572520 1_555
K3 O22 2.632716 1_555
K3 O23 2.634464 1_555
K4 O12 2.415237 1_555
K4 O30 2.553146 1_555
K4 O31 2.572520 1_555
K4 O28 2.632716 1_555
K4 O29 2.634464 1_555
K5 O15 2.415237 1_555
K5 O29 2.553146 1_556
K5 O28 2.572520 1_555
K5 O27 2.632716 1_546
K5 O26 2.634464 1_545
K6 O6 2.415237 1_555
K6 O21 2.553146 1_555
K6 O20 2.572520 1_555
K6 O19 2.632716 1_555
K6 O18 2.634464 1_555
K7 O5 2.415237 1_555
K7 O23 2.553146 1_554
K7 O22 2.572520 1_555
K7 O20 2.632716 1_654
K7 O21 2.634464 1_655
Mn0 O6 1.922199 1_555
Mn0 O25 1.951830 1_555
Mn0 O7 1.985548 1_555
Mn0 O24 2.075493 1_555
Mn0 O11 2.146438 1_555
Mn0 O21 2.297330 1_555
Mn1 O6 1.936870 1_555
Mn1 O25 1.945052 1_556
Mn1 O7 1.985367 1_556
Mn1 O24 2.003817 1_555
Mn1 O10 2.033282 1_555
Mn1 O20 2.130686 1_555
Mn2 O5 1.936870 1_555
Mn2 O26 1.945052 1_555
Mn2 O4 1.985367 1_555
Mn2 O27 2.003817 1_555
Mn2 O14 2.033282 1_565
Mn2 O22 2.130686 1_555
Mn3 O5 1.922199 1_556
Mn3 O26 1.951830 1_555
Mn3 O4 1.985548 1_555
Mn3 O27 2.075493 1_556
Mn3 O15 2.146438 1_565
Mn3 O23 2.297330 1_555
Mn4 O3 1.922199 1_556
Mn4 O30 1.951830 1_555
Mn4 O2 1.985548 1_555
Mn4 O31 2.075493 1_556
Mn4 O8 2.146438 1_545
Mn4 O18 2.297330 1_555
Mn5 O3 1.936870 1_555
Mn5 O30 1.945052 1_555
Mn5 O2 1.985367 1_555
Mn5 O31 2.003817 1_555
Mn5 O9 2.033282 1_545
Mn5 O19 2.130686 1_555
Mn6 O0 1.936870 1_555
Mn6 O29 1.945052 1_556
Mn6 O1 1.985367 1_556
Mn6 O28 2.003817 1_555
Mn6 O13 2.033282 1_555
Mn6 O17 2.130686 1_555
Mn7 O0 1.922199 1_555
Mn7 O29 1.951830 1_555
Mn7 O1 1.985548 1_555
Mn7 O28 2.075493 1_555
Mn7 O12 2.146438 1_555
Mn7 O16 2.297330 1_555
Mn8 O15 1.936870 1_555
Mn8 O16 1.945052 1_555
Mn8 O14 1.985367 1_555
Mn8 O17 2.003817 1_555
Mn8 O2 2.033282 1_655
Mn8 O28 2.130686 1_555
Mn9 O15 1.922199 1_554
Mn9 O16 1.951830 1_555
Mn9 O14 1.985548 1_555
Mn9 O17 2.075493 1_554
Mn9 O3 2.146438 1_655
Mn9 O29 2.297330 1_555
Mn10 O12 1.922199 1_555
Mn10 O18 1.951830 1_555
Mn10 O13 1.985548 1_555
Mn10 O19 2.075493 1_555
Mn10 O6 2.146438 1_555
Mn10 O30 2.297330 1_555
Mn11 O12 1.936870 1_555
Mn11 O18 1.945052 1_554
Mn11 O13 1.985367 1_554
Mn11 O19 2.003817 1_555
Mn11 O7 2.033282 1_555
Mn11 O31 2.130686 1_555
Mn12 O11 1.922199 1_555
Mn12 O23 1.951830 1_555
Mn12 O10 1.985548 1_555
Mn12 O22 2.075493 1_555
Mn12 O0 2.146438 1_555
Mn12 O26 2.297330 1_555
Mn13 O11 1.936870 1_555
Mn13 O23 1.945052 1_554
Mn13 O10 1.985367 1_554
Mn13 O22 2.003817 1_555
Mn13 O1 2.033282 1_555
Mn13 O27 2.130686 1_555
Mn14 O8 1.936870 1_555
Mn14 O21 1.945052 1_555
Mn14 O9 1.985367 1_555
Mn14 O20 2.003817 1_555
Mn14 O4 2.033282 1_455
Mn14 O24 2.130686 1_555
Mn15 O8 1.922199 1_554
Mn15 O21 1.951830 1_555
Mn15 O9 1.985548 1_555
Mn15 O20 2.075493 1_554
Mn15 O5 2.146438 1_455
Mn15 O25 2.297330 1_555
