# generated using pymatgen
data_CoS2(NO7)2
_symmetry_space_group_name_H-M   'P 1'
_cell_length_a   12.00640100
_cell_length_b   6.44812300
_cell_length_c   9.85734658
_cell_angle_alpha   77.42462383
_cell_angle_beta   90.00000000
_cell_angle_gamma   90.00000000
_symmetry_Int_Tables_number   1
_chemical_formula_structural   CoS2(NO7)2
_chemical_formula_sum   'Co2 S4 N4 O28'
_cell_volume   744.83596576
_cell_formula_units_Z   2
loop_
 _symmetry_equiv_pos_site_id
 _symmetry_equiv_pos_as_xyz
  1  'x, y, z'
loop_
 _atom_site_type_symbol
 _atom_site_label
 _atom_site_symmetry_multiplicity
 _atom_site_fract_x
 _atom_site_fract_y
 _atom_site_fract_z
 _atom_site_occupancy
  Co  Co0  1  0.50000000  0.00000000  0.50000000  1
  Co  Co1  1  0.00000000  0.00000000  0.00000000  1
  S  S0  1  0.33206200  0.76099300  0.05890100  1
  S  S1  1  0.83206200  0.23900700  0.44109900  1
  S  S2  1  0.66793800  0.23900700  0.94109900  1
  S  S3  1  0.16793800  0.76099300  0.55890100  1
  N  N0  1  0.38852900  0.38620000  0.82455300  1
  N  N1  1  0.88852900  0.61380000  0.67544700  1
  N  N2  1  0.61147100  0.61380000  0.17544700  1
  N  N3  1  0.11147100  0.38620000  0.32455300  1
  O  O0  1  0.53256500  0.60799300  0.23917400  1
  O  O1  1  0.03256500  0.39200700  0.26082600  1
  O  O2  1  0.46743500  0.39200700  0.76082600  1
  O  O3  1  0.96743500  0.60799300  0.73917400  1
  O  O4  1  0.45943100  0.73664500  0.48436500  1
  O  O5  1  0.95943100  0.26335500  0.01563500  1
  O  O6  1  0.54056900  0.26335500  0.51563500  1
  O  O7  1  0.04056900  0.73664500  0.98436500  1
  O  O8  1  0.32047500  0.94006500  0.12236100  1
  O  O9  1  0.82047500  0.05993500  0.37763900  1
  O  O10  1  0.67952500  0.05993500  0.87763900  1
  O  O11  1  0.17952500  0.94006500  0.62236100  1
  O  O12  1  0.26870500  0.56965000  0.10756300  1
  O  O13  1  0.76870500  0.43035000  0.39243700  1
  O  O14  1  0.73129500  0.43035000  0.89243700  1
  O  O15  1  0.23129500  0.56965000  0.60756300  1
  O  O16  1  0.40972600  0.77064000  0.94569400  1
  O  O17  1  0.90972600  0.22936000  0.55430600  1
  O  O18  1  0.59027400  0.22936000  0.05430600  1
  O  O19  1  0.09027400  0.77064000  0.44569400  1
  O  O20  1  0.42905500  0.15849100  0.35787600  1
  O  O21  1  0.92905500  0.84150900  0.14212400  1
  O  O22  1  0.57094500  0.84150900  0.64212400  1
  O  O23  1  0.07094500  0.15849100  0.85787600  1
  O  O24  1  0.42356600  0.05953800  0.64455100  1
  O  O25  1  0.92356600  0.94046200  0.85544900  1
  O  O26  1  0.57643400  0.94046200  0.35544900  1
  O  O27  1  0.07643400  0.05953800  0.14455100  1
loop_
_geom_bond_atom_site_label_1
_geom_bond_atom_site_label_2
_geom_bond_distance
_geom_bond_site_symmetry_2
Co0 O22 1.763301 1_545
Co0 O20 1.763301 1_555
Co0 O24 1.805011 1_555
Co0 O26 1.805011 1_545
Co0 O6 1.805179 1_555
Co0 O4 1.805179 1_545
Co1 O23 1.763301 1_554
Co1 O21 1.763301 1_445
Co1 O27 1.805011 1_555
Co1 O25 1.805011 1_444
Co1 O7 1.805179 1_544
Co1 O5 1.805179 1_455
N0 O2 1.132825 1_555
N1 O3 1.132825 1_555
N2 O0 1.132825 1_555
N3 O1 1.132825 1_555
O8 S0 1.434737 1_555
O9 S1 1.434737 1_555
O10 S2 1.434737 1_555
O11 S3 1.434737 1_555
O12 S0 1.439896 1_555
O13 S1 1.439896 1_555
O14 S2 1.439896 1_555
O15 S3 1.439896 1_555
O16 S0 1.445134 1_556
O17 S1 1.445134 1_555
O18 S2 1.445134 1_554
O19 S3 1.445134 1_555
