# generated using pymatgen
data_Ba3TiNb4O15
_symmetry_space_group_name_H-M   'P 1'
_cell_length_a   12.73975800
_cell_length_b   4.12425300
_cell_length_c   12.67461555
_cell_angle_alpha   89.87014812
_cell_angle_beta   90.00000000
_cell_angle_gamma   90.00000000
_symmetry_Int_Tables_number   1
_chemical_formula_structural   Ba3TiNb4O15
_chemical_formula_sum   'Ba6 Ti2 Nb8 O30'
_cell_volume   665.94775178
_cell_formula_units_Z   2
loop_
 _symmetry_equiv_pos_site_id
 _symmetry_equiv_pos_as_xyz
  1  'x, y, z'
loop_
 _atom_site_type_symbol
 _atom_site_label
 _atom_site_symmetry_multiplicity
 _atom_site_fract_x
 _atom_site_fract_y
 _atom_site_fract_z
 _atom_site_occupancy
  Ba  Ba0  1  0.75281000  0.96799100  0.50479400  1
  Ba  Ba1  1  0.24719000  0.96799100  0.00479400  1
  Ba  Ba2  1  0.92784300  0.95825400  0.16979800  1
  Ba  Ba3  1  0.58379300  0.94870500  0.82443500  1
  Ba  Ba4  1  0.41620700  0.94870500  0.32443500  1
  Ba  Ba5  1  0.07215700  0.95825400  0.66979800  1
  Ti  Ti0  1  0.83103600  0.49861000  0.71337800  1
  Ti  Ti1  1  0.16896400  0.49861000  0.21337800  1
  Nb  Nb0  1  0.67614300  0.48922700  0.28420900  1
  Nb  Nb1  1  0.32385700  0.48922700  0.78420900  1
  Nb  Nb2  1  0.54128800  0.48496800  0.57586400  1
  Nb  Nb3  1  0.96425400  0.48596000  0.42513400  1
  Nb  Nb4  1  0.45871200  0.48496800  0.07586400  1
  Nb  Nb5  1  0.03574600  0.48596000  0.92513400  1
  Nb  Nb6  1  0.74883800  0.39897800  0.99355500  1
  Nb  Nb7  1  0.25116200  0.39897800  0.49355500  1
  O  O0  1  0.82957500  0.92590500  0.70647200  1
  O  O1  1  0.67200400  0.94332700  0.29454100  1
  O  O2  1  0.32799600  0.94332700  0.79454100  1
  O  O3  1  0.17042500  0.92590500  0.20647200  1
  O  O4  1  0.54151200  0.94321900  0.57834400  1
  O  O5  1  0.95637400  0.94406600  0.42214200  1
  O  O6  1  0.45848800  0.94321900  0.07834400  1
  O  O7  1  0.04362600  0.94406600  0.92214200  1
  O  O8  1  0.75106700  0.94798700  0.99934000  1
  O  O9  1  0.24893300  0.94798700  0.49934000  1
  O  O10  1  0.09319600  0.45178400  0.50883200  1
  O  O11  1  0.40517400  0.45100700  0.49254400  1
  O  O12  1  0.59482600  0.45100700  0.99254400  1
  O  O13  1  0.90680400  0.45178400  0.00883200  1
  O  O14  1  0.74617200  0.44763800  0.84192200  1
  O  O15  1  0.75697300  0.45064300  0.15639300  1
  O  O16  1  0.25382800  0.44763800  0.34192200  1
  O  O17  1  0.24302700  0.45064300  0.65639300  1
  O  O18  1  0.89059700  0.44337900  0.56929300  1
  O  O19  1  0.60924300  0.44234300  0.43309500  1
  O  O20  1  0.39075700  0.44234300  0.93309500  1
  O  O21  1  0.10940300  0.44337900  0.06929300  1
  O  O22  1  0.67902200  0.44558000  0.64245800  1
  O  O23  1  0.81740400  0.44345500  0.36131000  1
  O  O24  1  0.32097800  0.44558000  0.14245800  1
  O  O25  1  0.18259600  0.44345500  0.86131000  1
  O  O26  1  0.03105800  0.44579500  0.28296000  1
  O  O27  1  0.46683000  0.44017700  0.71918700  1
  O  O28  1  0.53317000  0.44017700  0.21918700  1
  O  O29  1  0.96894200  0.44579500  0.78296000  1
loop_
_geom_bond_atom_site_label_1
_geom_bond_atom_site_label_2
_geom_bond_distance
_geom_bond_site_symmetry_2
Ba0 O0 2.742016 1_555
Ba0 O18 2.756980 1_565
Ba0 O23 2.795282 1_565
Ba0 O22 2.797039 1_565
Ba0 O5 2.798773 1_555
Ba0 O19 2.826721 1_565
Ba0 O4 2.850488 1_555
Ba0 O1 2.858829 1_555
Ba0 O18 2.902228 1_555
Ba0 O22 2.924586 1_555
Ba0 O23 2.946572 1_555
Ba0 O19 2.979909 1_555
Ba1 O3 2.742016 1_555
Ba1 O21 2.756980 1_565
Ba1 O25 2.795282 1_564
Ba1 O24 2.797039 1_565
Ba1 O7 2.798773 1_554
Ba1 O20 2.826721 1_564
Ba1 O6 2.850488 1_555
Ba1 O2 2.858829 1_554
Ba1 O21 2.902228 1_555
Ba1 O24 2.924586 1_555
Ba1 O25 2.946572 1_554
Ba1 O20 2.979909 1_554
Ba2 O26 2.800425 1_665
Ba2 O26 2.870437 1_655
Ba2 O13 2.891088 1_565
Ba2 O13 2.935410 1_555
Ba2 O15 2.981583 1_565
Ba2 O15 3.025216 1_555
Ba3 O27 2.845369 1_565
Ba3 O27 2.900203 1_555
Ba3 O14 2.926571 1_565
Ba3 O14 2.932060 1_555
Ba3 O12 2.958579 1_555
Ba3 O12 2.978478 1_565
Ba4 O28 2.845369 1_565
Ba4 O28 2.900203 1_555
Ba4 O16 2.926571 1_565
Ba4 O16 2.932060 1_555
Ba4 O11 2.958579 1_555
Ba4 O11 2.978478 1_565
Ba5 O29 2.800425 1_465
Ba5 O29 2.870437 1_455
Ba5 O10 2.891088 1_565
Ba5 O10 2.935410 1_555
Ba5 O17 2.981583 1_565
Ba5 O17 3.025216 1_555
Nb0 O1 1.878432 1_555
Nb0 O15 1.926485 1_555
Nb0 O28 2.009606 1_555
Nb0 O23 2.056317 1_555
Nb0 O19 2.079225 1_555
Nb0 O1 2.255555 1_545
Nb1 O2 1.878432 1_555
Nb1 O17 1.926485 1_555
Nb1 O27 2.009606 1_555
Nb1 O25 2.056317 1_555
Nb1 O20 2.079225 1_555
Nb1 O2 2.255555 1_545
Nb2 O4 1.890278 1_555
Nb2 O22 1.953755 1_555
Nb2 O19 2.014020 1_555
Nb2 O11 2.035311 1_555
Nb2 O27 2.057257 1_555
Nb2 O4 2.234462 1_545
Nb3 O5 1.892304 1_555
Nb3 O10 1.960357 1_655
Nb3 O26 2.000079 1_655
Nb3 O23 2.045919 1_555
Nb3 O18 2.061175 1_555
Nb3 O5 2.237569 1_545
Nb4 O6 1.890278 1_555
Nb4 O24 1.953755 1_555
Nb4 O20 2.014020 1_554
Nb4 O12 2.035311 1_554
Nb4 O28 2.057257 1_555
Nb4 O6 2.234462 1_545
Nb5 O7 1.892304 1_555
Nb5 O13 1.960357 1_456
Nb5 O29 2.000079 1_455
Nb5 O25 2.045919 1_555
Nb5 O21 2.061175 1_556
Nb5 O7 2.237569 1_545
Nb6 O8 1.861496 1_545
Nb6 O14 1.932186 1_555
Nb6 O12 1.973813 1_555
Nb6 O13 2.033486 1_556
Nb6 O15 2.077946 1_556
Nb6 O8 2.265783 1_555
Nb7 O9 1.861496 1_545
Nb7 O16 1.932186 1_555
Nb7 O11 1.973813 1_555
Nb7 O10 2.033486 1_555
Nb7 O17 2.077946 1_555
Nb7 O9 2.265783 1_555
O0 Ti0 1.764345 1_555
O0 Ti0 2.363873 1_565
O3 Ti1 1.764345 1_555
O3 Ti1 2.363873 1_565
O14 Ti0 1.966205 1_555
O16 Ti1 1.966205 1_555
O18 Ti0 1.991137 1_555
O21 Ti1 1.991137 1_555
O22 Ti0 2.146444 1_555
O24 Ti1 2.146444 1_555
O26 Ti1 1.977632 1_555
O29 Ti0 1.977632 1_555
