# generated using pymatgen
data_Li48P16S61
_symmetry_space_group_name_H-M   'P 1'
_cell_length_a   16.23034600
_cell_length_b   12.48874200
_cell_length_c   13.08833877
_cell_angle_alpha   89.84359180
_cell_angle_beta   90.00000000
_cell_angle_gamma   90.00000000
_symmetry_Int_Tables_number   1
_chemical_formula_structural   Li48P16S61
_chemical_formula_sum   'Li48 P16 S61'
_cell_volume   2652.95193209
_cell_formula_units_Z   1
loop_
 _symmetry_equiv_pos_site_id
 _symmetry_equiv_pos_as_xyz
  1  'x, y, z'
loop_
 _atom_site_type_symbol
 _atom_site_label
 _atom_site_symmetry_multiplicity
 _atom_site_fract_x
 _atom_site_fract_y
 _atom_site_fract_z
 _atom_site_occupancy
  Li  Li0  1  0.10729700  0.19450800  0.66758500  1
  Li  Li1  1  0.10543500  0.69263200  0.66832800  1
  Li  Li2  1  0.60722900  0.19528900  0.66816200  1
  Li  Li3  1  0.60599800  0.69295900  0.66544200  1
  Li  Li4  1  0.64136200  0.30550000  0.33279900  1
  Li  Li5  1  0.65224500  0.79255100  0.32990200  1
  Li  Li6  1  0.14042500  0.30619700  0.33165400  1
  Li  Li7  1  0.15162000  0.79245000  0.32994700  1
  Li  Li8  1  0.64085200  0.44454500  0.83310600  1
  Li  Li9  1  0.64120900  0.94321700  0.83176000  1
  Li  Li10  1  0.15284300  0.45878900  0.82835700  1
  Li  Li11  1  0.14045000  0.94345900  0.83179500  1
  Li  Li12  1  0.10774700  0.05462700  0.16749700  1
  Li  Li13  1  0.10545400  0.55758100  0.16871000  1
  Li  Li14  1  0.60878000  0.05674500  0.16655000  1
  Li  Li15  1  0.60895800  0.55431400  0.16951200  1
  Li  Li16  1  0.85957500  0.30619700  0.33165400  1
  Li  Li17  1  0.84838000  0.79245000  0.32994700  1
  Li  Li18  1  0.35863800  0.30550000  0.33279900  1
  Li  Li19  1  0.34775500  0.79255100  0.32990200  1
  Li  Li20  1  0.89270300  0.19450800  0.66758500  1
  Li  Li21  1  0.89456500  0.69263200  0.66832800  1
  Li  Li22  1  0.39277100  0.19528900  0.66816200  1
  Li  Li23  1  0.39400200  0.69295900  0.66544200  1
  Li  Li24  1  0.89225300  0.05462700  0.16749700  1
  Li  Li25  1  0.89454600  0.55758100  0.16871000  1
  Li  Li26  1  0.39122000  0.05674500  0.16655000  1
  Li  Li27  1  0.39104200  0.55431400  0.16951200  1
  Li  Li28  1  0.84715700  0.45878900  0.82835700  1
  Li  Li29  1  0.85955000  0.94345900  0.83179500  1
  Li  Li30  1  0.35914800  0.44454500  0.83310600  1
  Li  Li31  1  0.35879100  0.94321700  0.83176000  1
  Li  Li32  1  0.13804200  0.23276300  0.00705700  1
  Li  Li33  1  0.12311400  0.74361100  0.00012400  1
  Li  Li34  1  0.62454700  0.25163300  0.99871000  1
  Li  Li35  1  0.62585900  0.74787400  0.00137500  1
  Li  Li36  1  0.13856000  0.01828400  0.50740600  1
  Li  Li37  1  0.12276400  0.50542300  0.49968400  1
  Li  Li38  1  0.63844100  0.01848000  0.50768100  1
  Li  Li39  1  0.62356600  0.50450300  0.49924000  1
  Li  Li40  1  0.86195800  0.23276300  0.00705700  1
  Li  Li41  1  0.87688600  0.74361100  0.00012400  1
  Li  Li42  1  0.37545300  0.25163300  0.99871000  1
  Li  Li43  1  0.37414100  0.74787400  0.00137500  1
  Li  Li44  1  0.86144000  0.01828400  0.50740600  1
  Li  Li45  1  0.87723600  0.50542300  0.49968400  1
  Li  Li46  1  0.36155900  0.01848000  0.50768100  1
  Li  Li47  1  0.37643400  0.50450300  0.49924000  1
  P  P0  1  0.00000000  0.07820000  0.91049000  1
  P  P1  1  0.00000000  0.56284500  0.91104600  1
  P  P2  1  0.50000000  0.07603400  0.91036700  1
  P  P3  1  0.50000000  0.57687400  0.91048500  1
  P  P4  1  0.75154400  0.42415700  0.08884900  1
  P  P5  1  0.75073700  0.92348800  0.09033100  1
  P  P6  1  0.24845600  0.42415700  0.08884900  1
  P  P7  1  0.24926300  0.92348800  0.09033100  1
  P  P8  1  0.75054200  0.32653500  0.58876500  1
  P  P9  1  0.75000900  0.82472800  0.58926400  1
  P  P10  1  0.24945800  0.32653500  0.58876500  1
  P  P11  1  0.24999100  0.82472800  0.58926400  1
  P  P12  1  0.00000000  0.17126900  0.41033500  1
  P  P13  1  0.00000000  0.68751000  0.41080500  1
  P  P14  1  0.50000000  0.17134300  0.41035700  1
  P  P15  1  0.50000000  0.68739000  0.41083900  1
  S  S0  1  0.00000000  0.91544800  0.89979700  1
  S  S1  1  0.50000000  0.41342600  0.89942600  1
  S  S2  1  0.50000000  0.91326100  0.89989400  1
  S  S3  1  0.75060700  0.08726300  0.10167300  1
  S  S4  1  0.75051800  0.58659000  0.09956400  1
  S  S5  1  0.24939300  0.08726300  0.10167300  1
  S  S6  1  0.24948200  0.58659000  0.09956400  1
  S  S7  1  0.75028300  0.16161000  0.60163000  1
  S  S8  1  0.74973600  0.66262600  0.60115100  1
  S  S9  1  0.24971700  0.16161000  0.60163000  1
  S  S10  1  0.25026400  0.66262600  0.60115100  1
  S  S11  1  0.00000000  0.33397500  0.39927100  1
  S  S12  1  0.50000000  0.33412200  0.39873800  1
  S  S13  1  0.00000000  0.13895400  0.05950000  1
  S  S14  1  0.00000000  0.63696700  0.05949000  1
  S  S15  1  0.50000000  0.13697000  0.05939200  1
  S  S16  1  0.50000000  0.63585600  0.05991300  1
  S  S17  1  0.75126900  0.36328700  0.93908600  1
  S  S18  1  0.75017700  0.86364900  0.94182200  1
  S  S19  1  0.24873100  0.36328700  0.93908600  1
  S  S20  1  0.24982300  0.86364900  0.94182200  1
  S  S21  1  0.75070500  0.38620800  0.44032400  1
  S  S22  1  0.74989300  0.88651500  0.43917800  1
  S  S23  1  0.24929500  0.38620800  0.44032400  1
  S  S24  1  0.25010700  0.88651500  0.43917800  1
  S  S25  1  0.00000000  0.11016100  0.55957200  1
  S  S26  1  0.00000000  0.61312400  0.55943700  1
  S  S27  1  0.50000000  0.11069400  0.55974900  1
  S  S28  1  0.50000000  0.61202900  0.55927000  1
  S  S29  1  0.10664700  0.13706800  0.84619200  1
  S  S30  1  0.10542900  0.63613000  0.84518200  1
  S  S31  1  0.60681600  0.13456800  0.84630400  1
  S  S32  1  0.60679300  0.63516500  0.84625100  1
  S  S33  1  0.64528200  0.36349700  0.15270800  1
  S  S34  1  0.64376300  0.86568800  0.15541600  1
  S  S35  1  0.14125900  0.36476100  0.15065400  1
  S  S36  1  0.14299100  0.86408900  0.15478600  1
  S  S37  1  0.64408400  0.38393400  0.65343500  1
  S  S38  1  0.64288200  0.88511600  0.65087400  1
  S  S39  1  0.14284900  0.38393100  0.65390300  1
  S  S40  1  0.14319500  0.88552200  0.65064600  1
  S  S41  1  0.10659600  0.11244100  0.34607500  1
  S  S42  1  0.10554600  0.61463400  0.34534800  1
  S  S43  1  0.60654800  0.11228000  0.34623300  1
  S  S44  1  0.60545500  0.61481900  0.34493600  1
  S  S45  1  0.85874100  0.36476100  0.15065400  1
  S  S46  1  0.85700900  0.86408900  0.15478600  1
  S  S47  1  0.35471800  0.36349700  0.15270800  1
  S  S48  1  0.35623700  0.86568800  0.15541600  1
  S  S49  1  0.89335300  0.13706800  0.84619200  1
  S  S50  1  0.89457100  0.63613000  0.84518200  1
  S  S51  1  0.39318400  0.13456800  0.84630400  1
  S  S52  1  0.39320700  0.63516500  0.84625100  1
  S  S53  1  0.89340400  0.11244100  0.34607500  1
  S  S54  1  0.89445400  0.61463400  0.34534800  1
  S  S55  1  0.39345200  0.11228000  0.34623300  1
  S  S56  1  0.39454500  0.61481900  0.34493600  1
  S  S57  1  0.85715100  0.38393100  0.65390300  1
  S  S58  1  0.85680500  0.88552200  0.65064600  1
  S  S59  1  0.35591600  0.38393400  0.65343500  1
  S  S60  1  0.35711800  0.88511600  0.65087400  1
loop_
_geom_bond_atom_site_label_1
_geom_bond_atom_site_label_2
_geom_bond_distance
_geom_bond_site_symmetry_2
Li0 S39 2.441113 1_555
Li0 S29 2.443409 1_555
Li0 S25 2.479726 1_555
Li0 S9 2.501814 1_555
Li1 S30 2.418049 1_555
Li1 S26 2.439929 1_555
Li1 S40 2.495830 1_555
Li1 S10 2.537857 1_555
Li2 S37 2.437812 1_555
Li2 S31 2.449843 1_555
Li2 S27 2.483268 1_555
Li2 S7 2.515556 1_555
Li3 S28 2.433097 1_555
Li3 S32 2.472260 1_555
Li3 S38 2.480174 1_555
Li3 S8 2.509145 1_555
Li4 S33 2.464799 1_555
Li4 S12 2.477568 1_555
Li4 S21 2.480669 1_555
Li4 S43 2.484110 1_555
Li5 S44 2.353697 1_555
Li5 S22 2.437954 1_555
Li5 S34 2.461153 1_555
Li6 S11 2.469767 1_555
Li6 S35 2.477452 1_555
Li6 S23 2.480218 1_555
Li6 S41 2.487946 1_555
Li7 S42 2.351359 1_555
Li7 S24 2.447091 1_555
Li7 S36 2.462668 1_555
Li8 S32 2.450446 1_555
Li8 S37 2.472944 1_555
Li8 S1 2.475641 1_555
Li8 S17 2.481502 1_555
Li9 S31 2.461939 1_565
Li9 S38 2.478239 1_555
Li9 S18 2.486496 1_555
Li9 S2 2.487177 1_555
Li10 S30 2.355535 1_555
Li10 S19 2.436289 1_555
Li10 S39 2.474972 1_555
Li11 S0 2.471678 1_555
Li11 S40 2.481178 1_555
Li11 S29 2.487045 1_565
Li11 S20 2.492113 1_555
Li12 S41 2.448224 1_555
Li12 S36 2.453457 1_545
Li12 S13 2.481362 1_555
Li12 S5 2.488306 1_555
Li13 S42 2.421064 1_555
Li13 S14 2.438875 1_555
Li13 S35 2.489078 1_555
Li13 S6 2.532387 1_555
Li14 S43 2.453973 1_555
Li14 S34 2.457398 1_545
Li14 S15 2.465833 1_555
Li14 S3 2.482593 1_555
Li15 S44 2.419781 1_555
Li15 S33 2.465319 1_555
Li15 S16 2.492811 1_555
Li15 S4 2.505480 1_555
Li16 S11 2.469767 1_655
Li16 S45 2.477452 1_555
Li16 S21 2.480218 1_555
Li16 S53 2.487946 1_555
Li17 S54 2.351359 1_555
Li17 S22 2.447091 1_555
Li17 S46 2.462668 1_555
Li18 S47 2.464799 1_555
Li18 S12 2.477568 1_555
Li18 S23 2.480669 1_555
Li18 S55 2.484110 1_555
Li19 S56 2.353697 1_555
Li19 S24 2.437954 1_555
Li19 S48 2.461153 1_555
Li20 S57 2.441113 1_555
Li20 S49 2.443409 1_555
Li20 S25 2.479726 1_655
Li20 S7 2.501814 1_555
Li21 S50 2.418049 1_555
Li21 S26 2.439929 1_655
Li21 S58 2.495830 1_555
Li21 S8 2.537857 1_555
Li22 S59 2.437812 1_555
Li22 S51 2.449843 1_555
Li22 S27 2.483268 1_555
Li22 S9 2.515556 1_555
Li23 S28 2.433097 1_555
Li23 S52 2.472260 1_555
Li23 S60 2.480174 1_555
Li23 S10 2.509145 1_555
Li24 S53 2.448224 1_555
Li24 S46 2.453457 1_545
Li24 S13 2.481362 1_655
Li24 S3 2.488306 1_555
Li25 S54 2.421064 1_555
Li25 S14 2.438875 1_655
Li25 S45 2.489078 1_555
Li25 S4 2.532387 1_555
Li26 S55 2.453973 1_555
Li26 S48 2.457398 1_545
Li26 S15 2.465833 1_555
Li26 S5 2.482593 1_555
Li27 S56 2.419781 1_555
Li27 S47 2.465319 1_555
Li27 S16 2.492811 1_555
Li27 S6 2.505480 1_555
Li28 S50 2.355535 1_555
Li28 S17 2.436289 1_555
Li28 S57 2.474972 1_555
Li29 S0 2.471678 1_655
Li29 S58 2.481178 1_555
Li29 S49 2.487045 1_565
Li29 S18 2.492113 1_555
Li30 S52 2.450446 1_555
Li30 S59 2.472944 1_555
Li30 S1 2.475641 1_555
Li30 S19 2.481502 1_555
Li31 S51 2.461939 1_565
Li31 S60 2.478239 1_555
Li31 S20 2.486496 1_555
Li31 S2 2.487177 1_555
Li32 S29 2.476815 1_554
Li32 S35 2.503892 1_555
Li32 S19 2.582280 1_554
Li32 S13 2.618968 1_555
Li32 S5 2.844182 1_555
Li33 S30 2.451844 1_554
Li33 S14 2.522824 1_555
Li33 S36 2.546026 1_555
Li33 S20 2.655698 1_554
Li34 S33 2.478489 1_556
Li34 S31 2.493022 1_555
Li34 S15 2.600274 1_556
Li34 S17 2.603390 1_555
Li35 S32 2.492962 1_554
Li35 S34 2.516014 1_555
Li35 S16 2.590564 1_555
Li35 S18 2.600612 1_554
Li36 S41 2.469209 1_555
Li36 S40 2.500506 1_545
Li36 S24 2.606006 1_545
Li36 S25 2.616197 1_555
Li36 S9 2.826963 1_555
Li37 S42 2.450246 1_555
Li37 S26 2.529150 1_555
Li37 S39 2.542816 1_555
Li37 S23 2.654059 1_555
Li38 S43 2.468166 1_555
Li38 S38 2.504930 1_545
Li38 S22 2.607726 1_545
Li38 S27 2.616053 1_555
Li38 S7 2.830952 1_555
Li39 S44 2.459270 1_555
Li39 S37 2.536644 1_555
Li39 S28 2.539383 1_555
Li39 S21 2.653580 1_555
Li40 S49 2.476815 1_554
Li40 S45 2.503892 1_555
Li40 S17 2.582280 1_554
Li40 S13 2.618968 1_655
Li40 S3 2.844182 1_555
Li41 S50 2.451844 1_554
Li41 S14 2.522824 1_655
Li41 S46 2.546026 1_555
Li41 S18 2.655698 1_554
Li42 S47 2.478489 1_556
Li42 S51 2.493022 1_555
Li42 S15 2.600274 1_556
Li42 S19 2.603390 1_555
Li43 S52 2.492962 1_554
Li43 S48 2.516014 1_555
Li43 S16 2.590564 1_555
Li43 S20 2.600612 1_554
Li44 S53 2.469209 1_555
Li44 S58 2.500506 1_545
Li44 S22 2.606006 1_545
Li44 S25 2.616197 1_655
Li44 S7 2.826963 1_555
Li45 S54 2.450246 1_555
Li45 S26 2.529150 1_655
Li45 S57 2.542816 1_555
Li45 S21 2.654059 1_555
Li46 S55 2.468166 1_555
Li46 S60 2.504930 1_545
Li46 S24 2.607726 1_545
Li46 S27 2.616053 1_555
Li46 S9 2.830952 1_555
Li47 S56 2.459270 1_555
Li47 S59 2.536644 1_555
Li47 S28 2.539383 1_555
Li47 S23 2.653580 1_555
P0 S0 2.037761 1_545
P0 S29 2.059469 1_555
P0 S49 2.059469 1_455
P0 S13 2.094615 1_556
P1 S30 2.122384 1_555
P1 S50 2.122384 1_455
P1 S14 2.154420 1_556
P2 S2 2.037820 1_545
P2 S51 2.059044 1_555
P2 S31 2.059044 1_555
P2 S15 2.095628 1_556
P3 S1 2.046779 1_555
P3 S32 2.058568 1_555
P3 S52 2.058568 1_555
P3 S16 2.091764 1_556
P4 S4 2.033876 1_555
P4 S45 2.056303 1_555
P4 S33 2.059978 1_555
P4 S17 2.104335 1_554
P5 S3 2.051129 1_565
P5 S46 2.057571 1_555
P5 S34 2.063454 1_555
P5 S18 2.084371 1_554
P6 S6 2.033876 1_555
P6 S35 2.056303 1_555
P6 S47 2.059978 1_555
P6 S19 2.104335 1_554
P7 S5 2.051129 1_565
P7 S36 2.057571 1_555
P7 S48 2.063454 1_555
P7 S20 2.084371 1_554
P8 S37 2.054038 1_555
P8 S57 2.058622 1_555
P8 S7 2.066123 1_555
P8 S21 2.078975 1_555
P9 S8 2.030001 1_555
P9 S58 2.056615 1_555
P9 S38 2.060446 1_555
P9 S22 2.108538 1_555
P10 S59 2.054038 1_555
P10 S39 2.058622 1_555
P10 S9 2.066123 1_555
P10 S23 2.078975 1_555
P11 S10 2.030001 1_555
P11 S40 2.056615 1_555
P11 S60 2.060446 1_555
P11 S24 2.108538 1_555
P12 S11 2.036752 1_555
P12 S41 2.060031 1_555
P12 S53 2.060031 1_455
P12 S25 2.095118 1_555
P13 S42 2.121580 1_555
P13 S54 2.121580 1_455
P13 S26 2.153491 1_555
P14 S12 2.038171 1_555
P14 S43 2.059701 1_555
P14 S55 2.059701 1_555
P14 S27 2.094943 1_555
P15 S44 2.121125 1_555
P15 S56 2.121125 1_555
P15 S28 2.156374 1_555
