# generated using pymatgen
data_FeAs2H18(C2I)3
_symmetry_space_group_name_H-M   'P 1'
_cell_length_a   11.21595100
_cell_length_b   12.17456000
_cell_length_c   15.89853800
_cell_angle_alpha   90.00000000
_cell_angle_beta   90.00000000
_cell_angle_gamma   90.00000000
_symmetry_Int_Tables_number   1
_chemical_formula_structural   FeAs2H18(C2I)3
_chemical_formula_sum   'Fe4 As8 H72 C24 I12'
_cell_volume   2170.93373263
_cell_formula_units_Z   4
loop_
 _symmetry_equiv_pos_site_id
 _symmetry_equiv_pos_as_xyz
  1  'x, y, z'
loop_
 _atom_site_type_symbol
 _atom_site_label
 _atom_site_symmetry_multiplicity
 _atom_site_fract_x
 _atom_site_fract_y
 _atom_site_fract_z
 _atom_site_occupancy
  Fe  Fe0  1  0.30111600  0.25000000  0.02783000  1
  Fe  Fe1  1  0.80111600  0.25000000  0.47217000  1
  Fe  Fe2  1  0.69888400  0.75000000  0.97217000  1
  Fe  Fe3  1  0.19888400  0.75000000  0.52783000  1
  As  As0  1  0.12042300  0.25000000  0.91698200  1
  As  As1  1  0.62042300  0.25000000  0.58301800  1
  As  As2  1  0.87957700  0.75000000  0.08301800  1
  As  As3  1  0.37957700  0.75000000  0.41698200  1
  As  As4  1  0.48217800  0.25000000  0.13514100  1
  As  As5  1  0.98217800  0.25000000  0.36485900  1
  As  As6  1  0.51782200  0.75000000  0.86485900  1
  As  As7  1  0.01782200  0.75000000  0.63514100  1
  H  H0  1  0.12363400  0.04888400  0.87941300  1
  H  H1  1  0.62363400  0.45111600  0.62058700  1
  H  H2  1  0.87636600  0.54888400  0.12058700  1
  H  H3  1  0.37636600  0.95111600  0.37941300  1
  H  H4  1  0.87636600  0.95111600  0.12058700  1
  H  H5  1  0.37636600  0.54888400  0.37941300  1
  H  H6  1  0.12363400  0.45111600  0.87941300  1
  H  H7  1  0.62363400  0.04888400  0.62058700  1
  H  H8  1  0.04063100  0.12166600  0.80036600  1
  H  H9  1  0.54063100  0.37833400  0.69963400  1
  H  H10  1  0.95936900  0.62166600  0.19963400  1
  H  H11  1  0.45936900  0.87833400  0.30036600  1
  H  H12  1  0.95936900  0.87833400  0.19963400  1
  H  H13  1  0.45936900  0.62166600  0.30036600  1
  H  H14  1  0.04063100  0.37833400  0.80036600  1
  H  H15  1  0.54063100  0.12166600  0.69963400  1
  H  H16  1  0.20071100  0.12684400  0.80147100  1
  H  H17  1  0.70071100  0.37315600  0.69852900  1
  H  H18  1  0.79928900  0.62684400  0.19852900  1
  H  H19  1  0.29928900  0.87315600  0.30147100  1
  H  H20  1  0.79928900  0.87315600  0.19852900  1
  H  H21  1  0.29928900  0.62684400  0.30147100  1
  H  H22  1  0.20071100  0.37315600  0.80147100  1
  H  H23  1  0.70071100  0.12684400  0.69852900  1
  H  H24  1  0.94546000  0.17650600  0.99983400  1
  H  H25  1  0.44546000  0.32349400  0.50016600  1
  H  H26  1  0.05454000  0.67650600  0.00016600  1
  H  H27  1  0.55454000  0.82349400  0.49983400  1
  H  H28  1  0.05454000  0.82349400  0.00016600  1
  H  H29  1  0.55454000  0.67650600  0.49983400  1
  H  H30  1  0.94546000  0.32349400  0.99983400  1
  H  H31  1  0.44546000  0.17650600  0.50016600  1
  H  H32  1  0.88815800  0.25000000  0.91105300  1
  H  H33  1  0.38815800  0.25000000  0.58894700  1
  H  H34  1  0.11184200  0.75000000  0.08894700  1
  H  H35  1  0.61184200  0.75000000  0.41105300  1
  H  H36  1  0.53892500  0.04847900  0.13047600  1
  H  H37  1  0.03892500  0.45152100  0.36952400  1
  H  H38  1  0.46107500  0.54847900  0.86952400  1
  H  H39  1  0.96107500  0.95152100  0.63047600  1
  H  H40  1  0.46107500  0.95152100  0.86952400  1
  H  H41  1  0.96107500  0.54847900  0.63047600  1
  H  H42  1  0.53892500  0.45152100  0.13047600  1
  H  H43  1  0.03892500  0.04847900  0.36952400  1
  H  H44  1  0.63658900  0.12803400  0.06652400  1
  H  H45  1  0.13658900  0.37196600  0.43347600  1
  H  H46  1  0.36341100  0.62803400  0.93347600  1
  H  H47  1  0.86341100  0.87196600  0.56652400  1
  H  H48  1  0.36341100  0.87196600  0.93347600  1
  H  H49  1  0.86341100  0.62803400  0.56652400  1
  H  H50  1  0.63658900  0.37196600  0.06652400  1
  H  H51  1  0.13658900  0.12803400  0.43347600  1
  H  H52  1  0.65672500  0.12564100  0.17893300  1
  H  H53  1  0.15672500  0.37435900  0.32106700  1
  H  H54  1  0.34327500  0.62564100  0.82106700  1
  H  H55  1  0.84327500  0.87435900  0.67893300  1
  H  H56  1  0.34327500  0.87435900  0.82106700  1
  H  H57  1  0.84327500  0.62564100  0.67893300  1
  H  H58  1  0.65672500  0.37435900  0.17893300  1
  H  H59  1  0.15672500  0.12564100  0.32106700  1
  H  H60  1  0.38319800  0.17651000  0.26617100  1
  H  H61  1  0.88319800  0.32349000  0.23382900  1
  H  H62  1  0.61680200  0.67651000  0.73382900  1
  H  H63  1  0.11680200  0.82349000  0.76617100  1
  H  H64  1  0.61680200  0.82349000  0.73382900  1
  H  H65  1  0.11680200  0.67651000  0.76617100  1
  H  H66  1  0.38319800  0.32349000  0.26617100  1
  H  H67  1  0.88319800  0.17651000  0.23382900  1
  H  H68  1  0.51554500  0.25000000  0.29600800  1
  H  H69  1  0.01554500  0.25000000  0.20399200  1
  H  H70  1  0.48445500  0.75000000  0.70399200  1
  H  H71  1  0.98445500  0.75000000  0.79600800  1
  C  C0  1  0.12025100  0.12278500  0.84049100  1
  C  C1  1  0.62025100  0.37721500  0.65950900  1
  C  C2  1  0.87974900  0.62278500  0.15950900  1
  C  C3  1  0.37974900  0.87721500  0.34049100  1
  C  C4  1  0.87974900  0.87721500  0.15950900  1
  C  C5  1  0.37974900  0.62278500  0.34049100  1
  C  C6  1  0.12025100  0.37721500  0.84049100  1
  C  C7  1  0.62025100  0.12278500  0.65950900  1
  C  C8  1  0.95559000  0.25000000  0.96095400  1
  C  C9  1  0.45559000  0.25000000  0.53904600  1
  C  C10  1  0.04441000  0.75000000  0.03904600  1
  C  C11  1  0.54441000  0.75000000  0.46095400  1
  C  C12  1  0.59144300  0.12392900  0.12752900  1
  C  C13  1  0.09144300  0.37607100  0.37247100  1
  C  C14  1  0.40855700  0.62392900  0.87247100  1
  C  C15  1  0.90855700  0.87607100  0.62752900  1
  C  C16  1  0.40855700  0.87607100  0.87247100  1
  C  C17  1  0.90855700  0.62392900  0.62752900  1
  C  C18  1  0.59144300  0.37607100  0.12752900  1
  C  C19  1  0.09144300  0.12392900  0.37247100  1
  C  C20  1  0.43690700  0.25000000  0.25482600  1
  C  C21  1  0.93690700  0.25000000  0.24517400  1
  C  C22  1  0.56309300  0.75000000  0.74517400  1
  C  C23  1  0.06309300  0.75000000  0.75482600  1
  I  I0  1  0.22644100  0.06805300  0.09248300  1
  I  I1  1  0.72644100  0.43194700  0.40751700  1
  I  I2  1  0.77355900  0.56805300  0.90751700  1
  I  I3  1  0.27355900  0.93194700  0.59248300  1
  I  I4  1  0.77355900  0.93194700  0.90751700  1
  I  I5  1  0.27355900  0.56805300  0.59248300  1
  I  I6  1  0.22644100  0.43194700  0.09248300  1
  I  I7  1  0.72644100  0.06805300  0.40751700  1
  I  I8  1  0.44988700  0.25000000  0.90411900  1
  I  I9  1  0.94988700  0.25000000  0.59588100  1
  I  I10  1  0.55011300  0.75000000  0.09588100  1
  I  I11  1  0.05011300  0.75000000  0.40411900  1
loop_
_geom_bond_atom_site_label_1
_geom_bond_atom_site_label_2
_geom_bond_distance
_geom_bond_site_symmetry_2
Fe0 I8 2.579273 1_554
Fe0 I6 2.581632 1_555
Fe0 I0 2.581632 1_555
Fe1 I9 2.579273 1_555
Fe1 I7 2.581632 1_555
Fe1 I1 2.581632 1_555
Fe2 I10 2.579273 1_556
Fe2 I4 2.581632 1_555
Fe2 I2 2.581632 1_555
Fe3 I11 2.579273 1_555
Fe3 I3 2.581632 1_555
Fe3 I5 2.581632 1_555
As0 C0 1.969170 1_555
As0 C6 1.969170 1_555
As0 C8 1.976521 1_455
As0 Fe0 2.685714 1_556
As1 C7 1.969170 1_555
As1 C1 1.969170 1_555
As1 C9 1.976521 1_555
As1 Fe1 2.685714 1_555
As2 C2 1.969170 1_555
As2 C4 1.969170 1_555
As2 C10 1.976521 1_655
As2 Fe2 2.685714 1_554
As3 C5 1.969170 1_555
As3 C3 1.969170 1_555
As3 C11 1.976521 1_555
As3 Fe3 2.685714 1_555
As4 C18 1.967820 1_555
As4 C12 1.967820 1_555
As4 C20 1.969398 1_555
As4 Fe0 2.652322 1_555
As5 C19 1.967820 1_655
As5 C13 1.967820 1_655
As5 C21 1.969398 1_555
As5 Fe1 2.652322 1_555
As6 C14 1.967820 1_555
As6 C16 1.967820 1_555
As6 C22 1.969398 1_555
As6 Fe2 2.652322 1_555
As7 C17 1.967820 1_455
As7 C15 1.967820 1_455
As7 C23 1.969398 1_555
As7 Fe3 2.652322 1_555
C0 H0 1.092629 1_555
C0 H16 1.096211 1_555
C0 H8 1.097549 1_555
C1 H1 1.092629 1_555
C1 H17 1.096211 1_555
C1 H9 1.097549 1_555
C2 H2 1.092629 1_555
C2 H18 1.096211 1_555
C2 H10 1.097549 1_555
C3 H3 1.092629 1_555
C3 H19 1.096211 1_555
C3 H11 1.097549 1_555
C4 H4 1.092629 1_555
C4 H20 1.096211 1_555
C4 H12 1.097549 1_555
C5 H5 1.092629 1_555
C5 H21 1.096211 1_555
C5 H13 1.097549 1_555
C6 H6 1.092629 1_555
C6 H22 1.096211 1_555
C6 H14 1.097549 1_555
C7 H7 1.092629 1_555
C7 H23 1.096211 1_555
C7 H15 1.097549 1_555
C8 H30 1.093431 1_555
C8 H24 1.093431 1_555
C8 H32 1.096093 1_555
C9 H31 1.093431 1_555
C9 H25 1.093431 1_555
C9 H33 1.096093 1_555
C10 H26 1.093431 1_555
C10 H28 1.093431 1_555
C10 H34 1.096093 1_555
C11 H29 1.093431 1_555
C11 H27 1.093431 1_555
C11 H35 1.096093 1_555
C12 H36 1.092215 1_555
C12 H44 1.095254 1_555
C12 H52 1.097472 1_555
C13 H37 1.092215 1_555
C13 H45 1.095254 1_555
C13 H53 1.097472 1_555
C14 H38 1.092215 1_555
C14 H46 1.095254 1_555
C14 H54 1.097472 1_555
C15 H39 1.092215 1_555
C15 H47 1.095254 1_555
C15 H55 1.097472 1_555
C16 H40 1.092215 1_555
C16 H48 1.095254 1_555
C16 H56 1.097472 1_555
C17 H41 1.092215 1_555
C17 H49 1.095254 1_555
C17 H57 1.097472 1_555
C18 H42 1.092215 1_555
C18 H50 1.095254 1_555
C18 H58 1.097472 1_555
C19 H43 1.092215 1_555
C19 H51 1.095254 1_555
C19 H59 1.097472 1_555
C20 H60 1.093581 1_555
C20 H66 1.093581 1_555
C20 H68 1.098453 1_555
C21 H67 1.093581 1_555
C21 H61 1.093581 1_555
C21 H69 1.098453 1_655
C22 H62 1.093581 1_555
C22 H64 1.093581 1_555
C22 H70 1.098453 1_555
C23 H65 1.093581 1_555
C23 H63 1.093581 1_555
C23 H71 1.098453 1_455
