# generated using pymatgen
data_SnSb
_symmetry_space_group_name_H-M   'P 1'
_cell_length_a   6.19969288
_cell_length_b   6.19969288
_cell_length_c   12.12431398
_cell_angle_alpha   90.00000000
_cell_angle_beta   90.00000000
_cell_angle_gamma   90.00000000
_symmetry_Int_Tables_number   1
_chemical_formula_structural   SnSb
_chemical_formula_sum   'Sn8 Sb8'
_cell_volume   466.01245766
_cell_formula_units_Z   8
loop_
 _symmetry_equiv_pos_site_id
 _symmetry_equiv_pos_as_xyz
  1  'x, y, z'
loop_
 _atom_site_type_symbol
 _atom_site_label
 _atom_site_symmetry_multiplicity
 _atom_site_fract_x
 _atom_site_fract_y
 _atom_site_fract_z
 _atom_site_occupancy
  Sn  Sn0_0  1  0.00000000  0.00000000  0.00000000  1
  Sn  Sn0_1  1  0.00000000  0.00000000  0.50000000  1
  Sn  Sn0_2  1  0.00000000  0.50000000  0.00000000  1
  Sn  Sn0_3  1  0.00000000  0.50000000  0.50000000  1
  Sn  Sn0_4  1  0.50000000  0.00000000  0.00000000  1
  Sn  Sn0_5  1  0.50000000  0.00000000  0.50000000  1
  Sn  Sn0_6  1  0.50000000  0.50000000  0.00000000  1
  Sn  Sn0_7  1  0.50000000  0.50000000  0.50000000  1
  Sb  Sb0_0  1  0.00000000  0.00000000  0.25000000  1
  Sb  Sb0_1  1  0.00000000  0.00000000  0.75000000  1
  Sb  Sb0_2  1  0.00000000  0.50000000  0.25000000  1
  Sb  Sb0_3  1  0.00000000  0.50000000  0.75000000  1
  Sb  Sb0_4  1  0.50000000  0.00000000  0.25000000  1
  Sb  Sb0_5  1  0.50000000  0.00000000  0.75000000  1
  Sb  Sb0_6  1  0.50000000  0.50000000  0.25000000  1
  Sb  Sb0_7  1  0.50000000  0.50000000  0.75000000  1
loop_
_geom_bond_atom_site_label_1
_geom_bond_atom_site_label_2
_geom_bond_distance
_geom_bond_site_symmetry_2
Sn0_0 Sn0_2 3.099846 1_555
Sn0_0 Sn0_2 3.099846 1_545
Sn0_0 Sn0_4 3.099846 1_455
Sn0_0 Sn0_4 3.099846 1_555
Sn0_1 Sn0_5 3.099846 1_555
Sn0_1 Sn0_5 3.099846 1_455
Sn0_1 Sn0_3 3.099846 1_545
Sn0_1 Sn0_3 3.099846 1_555
Sn0_2 Sn0_6 3.099846 1_455
Sn0_2 Sn0_6 3.099846 1_555
Sn0_3 Sn0_7 3.099846 1_455
Sn0_3 Sn0_7 3.099846 1_555
Sn0_4 Sn0_6 3.099846 1_555
Sn0_4 Sn0_6 3.099846 1_545
Sn0_5 Sn0_7 3.099846 1_555
Sn0_5 Sn0_7 3.099846 1_545
Sb0_0 Sn0_0 3.031078 1_555
Sb0_0 Sn0_1 3.031078 1_555
Sb0_0 Sb0_4 3.099846 1_555
Sb0_0 Sb0_2 3.099846 1_555
Sb0_0 Sb0_4 3.099846 1_455
Sb0_0 Sb0_2 3.099846 1_545
Sb0_1 Sn0_0 3.031078 1_556
Sb0_1 Sn0_1 3.031078 1_555
Sb0_1 Sb0_3 3.099846 1_545
Sb0_1 Sb0_5 3.099846 1_455
Sb0_1 Sb0_5 3.099846 1_555
Sb0_1 Sb0_3 3.099846 1_555
Sb0_2 Sn0_3 3.031078 1_555
Sb0_2 Sn0_2 3.031078 1_555
Sb0_2 Sb0_6 3.099846 1_455
Sb0_2 Sb0_6 3.099846 1_555
Sb0_3 Sn0_2 3.031078 1_556
Sb0_3 Sn0_3 3.031078 1_555
Sb0_3 Sb0_7 3.099846 1_455
Sb0_3 Sb0_7 3.099846 1_555
Sb0_4 Sn0_4 3.031078 1_555
Sb0_4 Sn0_5 3.031078 1_555
Sb0_4 Sb0_6 3.099846 1_545
Sb0_4 Sb0_6 3.099846 1_555
Sb0_5 Sn0_4 3.031078 1_556
Sb0_5 Sn0_5 3.031078 1_555
Sb0_5 Sb0_7 3.099846 1_555
Sb0_5 Sb0_7 3.099846 1_545
Sb0_6 Sn0_7 3.031078 1_555
Sb0_6 Sn0_6 3.031078 1_555
Sb0_7 Sn0_6 3.031078 1_556
Sb0_7 Sn0_7 3.031078 1_555
