# generated using pymatgen
data_Li9Mn2Co5O16
_symmetry_space_group_name_H-M   'P 1'
_cell_length_a   6.45392800
_cell_length_b   6.45487093
_cell_length_c   7.85316943
_cell_angle_alpha   113.94158669
_cell_angle_beta   87.72891298
_cell_angle_gamma   108.25910420
_symmetry_Int_Tables_number   1
_chemical_formula_structural   Li9Mn2Co5O16
_chemical_formula_sum   'Li9 Mn2 Co5 O16'
_cell_volume   282.50611044
_cell_formula_units_Z   1
loop_
 _symmetry_equiv_pos_site_id
 _symmetry_equiv_pos_as_xyz
  1  'x, y, z'
loop_
 _atom_site_type_symbol
 _atom_site_label
 _atom_site_symmetry_multiplicity
 _atom_site_fract_x
 _atom_site_fract_y
 _atom_site_fract_z
 _atom_site_occupancy
  Li  Li0  1  0.93736400  0.43867000  0.68371100  1
  Li  Li1  1  0.43904400  0.93434400  0.18934800  1
  Li  Li2  1  0.06128600  0.55403500  0.31561100  1
  Li  Li3  1  0.55682600  0.06229800  0.80518000  1
  Li  Li4  1  0.18500400  0.69333800  0.92975600  1
  Li  Li5  1  0.69175500  0.18594400  0.44112200  1
  Li  Li6  1  0.31188900  0.82075200  0.56722800  1
  Li  Li7  1  0.81450700  0.31423600  0.06339900  1
  Li  Li8  1  0.12763700  0.12202300  0.62415500  1
  Mn  Mn0  1  0.99587400  0.99856200  0.99724800  1
  Mn  Mn1  1  0.37371300  0.37791900  0.86746300  1
  Co  Co0  1  0.50231200  0.49749400  0.50118900  1
  Co  Co1  1  0.62260400  0.62689900  0.12451800  1
  Co  Co2  1  0.24922800  0.24812400  0.25795200  1
  Co  Co3  1  0.75491100  0.75196300  0.74841000  1
  Co  Co4  1  0.87632300  0.87383700  0.38070200  1
  O  O0  1  0.09888000  0.32985300  0.95961800  1
  O  O1  1  0.60119000  0.82898800  0.46562200  1
  O  O2  1  0.24836100  0.46460800  0.61206400  1
  O  O3  1  0.72586100  0.95365900  0.09204200  1
  O  O4  1  0.35073700  0.57938900  0.21369400  1
  O  O5  1  0.85366400  0.06764900  0.74689700  1
  O  O6  1  0.48006200  0.70502900  0.84127300  1
  O  O7  1  0.97271100  0.20478200  0.33486200  1
  O  O8  1  0.77191600  0.54672500  0.40470500  1
  O  O9  1  0.27571800  0.04457500  0.91745500  1
  O  O10  1  0.90123700  0.66886100  0.04214500  1
  O  O11  1  0.41296100  0.17946900  0.52023400  1
  O  O12  1  0.01156700  0.77895800  0.66028400  1
  O  O13  1  0.50916600  0.30472700  0.13638400  1
  O  O14  1  0.13784900  0.92585300  0.26727200  1
  O  O15  1  0.64783800  0.41643800  0.78845600  1
loop_
_geom_bond_atom_site_label_1
_geom_bond_atom_site_label_2
_geom_bond_distance
_geom_bond_site_symmetry_2
Li0 O15 1.998694 1_555
Li0 O2 2.037068 1_655
Li0 O12 2.179382 1_655
Li1 O3 1.961285 1_555
Li1 O14 2.005587 1_555
Li1 O4 2.267059 1_555
Li1 O11 2.465642 1_565
Li2 O8 1.961532 1_455
Li2 O4 1.988314 1_555
Li2 O7 2.212260 1_455
Li2 O14 2.475862 1_555
Li3 O5 1.944926 1_555
Li3 O9 1.976624 1_555
Li3 O15 2.232465 1_555
Li3 O6 2.333978 1_545
Li4 O10 1.990422 1_456
Li4 O6 1.990596 1_555
Li4 O9 2.198581 1_565
Li4 O0 2.342618 1_555
Li5 O11 1.873667 1_555
Li5 O7 1.955339 1_555
Li5 O1 2.279152 1_545
Li5 O8 2.355116 1_555
Li6 O1 1.994952 1_555
Li6 O12 2.020829 1_555
Li6 O2 2.373128 1_555
Li6 O11 2.377208 1_565
Li7 O0 1.968504 1_654
Li7 O13 2.019648 1_555
Li7 O10 2.254053 1_555
Li7 O3 2.318484 1_545
Li8 O11 1.973102 1_555
Li8 O5 1.982287 1_455
Li8 O2 2.142665 1_555
Li8 Mn1 2.221863 1_555
Li8 O12 2.235846 1_545
Li8 O0 2.454249 1_555
Li8 O14 2.572937 1_545
Mn0 O3 1.852241 1_556
Mn0 O9 1.862274 1_665
Mn0 O0 2.169953 1_665
Mn0 O10 2.191784 1_556
Mn1 O15 1.827391 1_555
Mn1 O0 1.871326 1_555
Mn1 O6 2.098756 1_555
Mn1 O9 2.235417 1_555
Mn1 O11 2.540545 1_555
Co0 O2 1.818892 1_555
Co0 O8 1.856653 1_555
Co0 O11 2.017300 1_555
Co0 O1 2.163117 1_555
Co1 O4 1.844690 1_555
Co1 O10 1.862907 1_555
Co1 O13 2.016720 1_555
Co1 O3 2.121363 1_555
Co2 O7 1.834882 1_455
Co2 O13 1.905628 1_555
Co2 O14 2.007926 1_545
Co2 O4 2.197619 1_555
Co2 O11 2.600459 1_555
Co3 O12 1.754783 1_655
Co3 O6 1.873557 1_555
Co3 O5 1.940065 1_565
Co3 O15 2.205615 1_555
Co4 O1 1.849956 1_555
Co4 O14 1.877124 1_655
Co4 O8 2.090282 1_555
Co4 O7 2.203094 1_565
Co4 Li8 2.232526 1_665
