# generated using pymatgen
data_BiPt2Pb
_symmetry_space_group_name_H-M   'P 1'
_cell_length_a   4.36272083
_cell_length_b   4.36250256
_cell_length_c   5.52422409
_cell_angle_alpha   90.00000024
_cell_angle_beta   89.99999921
_cell_angle_gamma   60.00166802
_symmetry_Int_Tables_number   1
_chemical_formula_structural   BiPt2Pb
_chemical_formula_sum   'Bi1 Pt2 Pb1'
_cell_volume   91.05469345
_cell_formula_units_Z   1
loop_
 _symmetry_equiv_pos_site_id
 _symmetry_equiv_pos_as_xyz
  1  'x, y, z'
loop_
 _atom_site_type_symbol
 _atom_site_label
 _atom_site_symmetry_multiplicity
 _atom_site_fract_x
 _atom_site_fract_y
 _atom_site_fract_z
 _atom_site_occupancy
  Bi  Bi0  1  0.33336946  0.33331573  0.74999961  1
  Pt  Pt0  1  0.99999460  0.00000271  0.49981149  1
  Pt  Pt1  1  0.99999462  0.00000270  0.00018830  1
  Pb  Pb0  1  0.66664232  0.66667886  0.25000060  1
loop_
_geom_bond_atom_site_label_1
_geom_bond_atom_site_label_2
_geom_bond_distance
_geom_bond_site_symmetry_2
Bi0 Pt0 2.872987 1_555
Bi0 Pt1 2.872989 1_556
Bi0 Pt0 2.873081 1_465
Bi0 Pt1 2.873083 1_466
Bi0 Pt0 2.873084 1_455
Bi0 Pt1 2.873085 1_456
Pt0 Pt1 2.760030 1_555
Pt0 Pt1 2.764194 1_556
Pb0 Pt0 2.872043 1_565
Pb0 Pt0 2.872044 1_555
Pb0 Pt1 2.872047 1_565
Pb0 Pt1 2.872047 1_555
Pb0 Pt0 2.872060 1_465
Pb0 Pt1 2.872064 1_465
