# generated using pymatgen
data_Ta3Ge
_symmetry_space_group_name_H-M   'P 1'
_cell_length_a   5.16276376
_cell_length_b   7.76695316
_cell_length_c   7.76640006
_cell_angle_alpha   83.64589810
_cell_angle_beta   70.59544670
_cell_angle_gamma   70.59385505
_symmetry_Int_Tables_number   1
_chemical_formula_structural   Ta3Ge
_chemical_formula_sum   'Ta12 Ge4'
_cell_volume   277.04643325
_cell_formula_units_Z   4
loop_
 _symmetry_equiv_pos_site_id
 _symmetry_equiv_pos_as_xyz
  1  'x, y, z'
loop_
 _atom_site_type_symbol
 _atom_site_label
 _atom_site_symmetry_multiplicity
 _atom_site_fract_x
 _atom_site_fract_y
 _atom_site_fract_z
 _atom_site_occupancy
  Ta  Ta0  1  0.34566077  0.65929260  0.62922194  1
  Ta  Ta1  1  0.02496766  0.62911410  0.34064769  1
  Ta  Ta2  1  -0.00528344  0.37075340  0.65935340  1
  Ta  Ta3  1  0.63466164  0.34049635  0.37090256  1
  Ta  Ta4  1  0.94894242  0.02589339  0.59577625  1
  Ta  Ta5  1  0.45503143  0.59586020  0.97412783  1
  Ta  Ta6  1  0.02511722  0.40444414  0.02595389  1
  Ta  Ta7  1  0.57069271  0.97404131  0.40425958  1
  Ta  Ta8  1  0.14546667  0.98535060  0.18257023  1
  Ta  Ta9  1  0.67205879  0.18272698  0.01454288  1
  Ta  Ta10  1  0.86901272  0.81757660  0.98537596  1
  Ta  Ta11  1  0.31359358  0.01463378  0.81737063  1
  Ge  Ge0  1  0.19610180  0.26361534  0.31774769  1
  Ge  Ge1  1  0.48620971  0.31778519  0.73633924  1
  Ge  Ge2  1  0.54054796  0.68213557  0.26363837  1
  Ge  Ge3  1  0.77721634  0.73627945  0.68216987  1
loop_
_geom_bond_atom_site_label_1
_geom_bond_atom_site_label_2
_geom_bond_distance
_geom_bond_site_symmetry_2
Ge0 Ta7 2.624591 1_545
Ge0 Ta2 2.625444 1_555
Ge0 Ta8 2.627097 1_545
Ge0 Ta3 2.652932 1_455
Ge0 Ta1 2.685462 1_555
Ge0 Ta3 2.688419 1_555
Ge0 Ta6 2.692626 1_555
Ge0 Ta9 2.726652 1_555
Ge0 Ta4 2.924412 1_455
Ge1 Ta0 2.624481 1_555
Ge1 Ta6 2.625178 1_556
Ge1 Ta9 2.626098 1_556
Ge1 Ta2 2.653152 1_655
Ge1 Ta3 2.684614 1_555
Ge1 Ta2 2.688013 1_555
Ge1 Ta4 2.693422 1_555
Ge1 Ta11 2.725427 1_555
Ge1 Ta5 2.924974 1_555
Ge2 Ta5 2.624732 1_554
Ge2 Ta3 2.625645 1_555
Ge2 Ta10 2.626742 1_554
Ge2 Ta1 2.652733 1_655
Ge2 Ta0 2.685920 1_555
Ge2 Ta1 2.688617 1_555
Ge2 Ta7 2.693085 1_555
Ge2 Ta8 2.726923 1_555
Ge2 Ta6 2.923196 1_655
Ge3 Ta1 2.625061 1_655
Ge3 Ta4 2.625264 1_565
Ge3 Ta11 2.626690 1_565
Ge3 Ta0 2.653157 1_555
Ge3 Ta2 2.685709 1_655
Ge3 Ta0 2.688079 1_655
Ge3 Ta5 2.692518 1_555
Ge3 Ta10 2.727273 1_555
Ge3 Ta7 2.923029 1_555
