# generated using pymatgen
data_Li9Mn2Co5O16
_symmetry_space_group_name_H-M   'P 1'
_cell_length_a   2.91262800
_cell_length_b   8.38254600
_cell_length_c   11.84784822
_cell_angle_alpha   89.56197820
_cell_angle_beta   90.00000000
_cell_angle_gamma   90.00000000
_symmetry_Int_Tables_number   1
_chemical_formula_structural   Li9Mn2Co5O16
_chemical_formula_sum   'Li9 Mn2 Co5 O16'
_cell_volume   289.25958330
_cell_formula_units_Z   1
loop_
 _symmetry_equiv_pos_site_id
 _symmetry_equiv_pos_as_xyz
  1  'x, y, z'
loop_
 _atom_site_type_symbol
 _atom_site_label
 _atom_site_symmetry_multiplicity
 _atom_site_fract_x
 _atom_site_fract_y
 _atom_site_fract_z
 _atom_site_occupancy
  Li  Li0  1  0.50000000  0.74423300  0.88140400  1
  Li  Li1  1  0.50000000  0.25072800  0.62196500  1
  Li  Li2  1  0.50000000  0.73557300  0.36429300  1
  Li  Li3  1  0.00000000  0.50048300  0.00572300  1
  Li  Li4  1  0.00000000  0.00459600  0.74556500  1
  Li  Li5  1  0.00000000  0.49517700  0.49341600  1
  Li  Li6  1  0.50000000  0.26566600  0.13224700  1
  Li  Li7  1  0.00000000  0.00012400  0.25528500  1
  Li  Li8  1  0.00000000  0.50011500  0.25096700  1
  Mn  Mn0  1  0.00000000  0.99635600  0.00138500  1
  Mn  Mn1  1  0.50000000  0.75186500  0.62535000  1
  Co  Co0  1  0.00000000  0.49871300  0.75174000  1
  Co  Co1  1  0.00000000  0.00833600  0.49302200  1
  Co  Co2  1  0.50000000  0.72598400  0.13183900  1
  Co  Co3  1  0.50000000  0.25276600  0.87390600  1
  Co  Co4  1  0.50000000  0.27432000  0.36919900  1
  O  O0  1  0.50000000  0.00024000  0.88892400  1
  O  O1  1  0.50000000  0.52000800  0.63599100  1
  O  O2  1  0.50000000  0.99981000  0.38614400  1
  O  O3  1  0.00000000  0.76885400  0.00413400  1
  O  O4  1  0.00000000  0.24583600  0.75893500  1
  O  O5  1  0.00000000  0.74962300  0.51617200  1
  O  O6  1  0.50000000  0.51313300  0.12026300  1
  O  O7  1  0.00000000  0.24519500  0.25959400  1
  O  O8  1  0.50000000  0.49334700  0.86727900  1
  O  O9  1  0.50000000  0.98399500  0.61657100  1
  O  O10  1  0.50000000  0.48874700  0.37787600  1
  O  O11  1  0.00000000  0.23313400  0.99122700  1
  O  O12  1  0.00000000  0.75787000  0.73566900  1
  O  O13  1  0.00000000  0.24276900  0.49462300  1
  O  O14  1  0.50000000  0.99655800  0.10849700  1
  O  O15  1  0.00000000  0.75584600  0.24079400  1
loop_
_geom_bond_atom_site_label_1
_geom_bond_atom_site_label_2
_geom_bond_distance
_geom_bond_site_symmetry_2
Li0 O3 2.069396 1_556
Li0 O3 2.069396 1_656
Li0 O8 2.110986 1_555
Li0 O0 2.148520 1_565
Li0 O12 2.261019 1_655
Li0 O12 2.261019 1_555
Li1 O13 2.098357 1_555
Li1 O13 2.098357 1_655
Li1 O4 2.180595 1_555
Li1 O4 2.180595 1_655
Li1 O9 2.237303 1_545
Li1 O1 2.264627 1_555
Li2 O15 2.070477 1_655
Li2 O15 2.070477 1_555
Li2 O10 2.074052 1_555
Li2 O2 2.232022 1_555
Li2 O5 2.318608 1_655
Li2 O5 2.318608 1_555
Li3 O6 1.993963 1_455
Li3 O6 1.993963 1_555
Li3 O8 2.194628 1_454
Li3 O8 2.194628 1_554
Li3 O11 2.248945 1_554
Li3 O3 2.249567 1_555
Li4 O4 2.029607 1_555
Li4 O12 2.072407 1_545
Li4 O9 2.119059 1_445
Li4 O9 2.119059 1_545
Li4 O0 2.237437 1_455
Li4 O0 2.237437 1_555
Li5 O10 1.999693 1_455
Li5 O10 1.999693 1_555
Li5 O13 2.115761 1_555
Li5 O5 2.151922 1_555
Li5 O1 2.241199 1_555
Li5 O1 2.241199 1_455
Li6 O6 2.078174 1_555
Li6 O7 2.103040 1_655
Li6 O7 2.103040 1_555
Li6 O11 2.234659 1_654
Li6 O11 2.234659 1_554
Li6 O14 2.275426 1_545
Li7 O7 2.055343 1_555
Li7 O15 2.056164 1_545
Li7 O2 2.127094 1_545
Li7 O2 2.127094 1_445
Li7 O14 2.268719 1_445
Li7 O14 2.268719 1_545
Li8 O10 2.094886 1_455
Li8 O10 2.094886 1_555
Li8 O6 2.127961 1_455
Li8 O6 2.127961 1_555
Li8 O7 2.138541 1_555
Li8 O15 2.146142 1_555
Mn0 O3 1.907075 1_555
Mn0 O14 1.931674 1_555
Mn0 O14 1.931674 1_455
Mn0 O0 1.973979 1_464
Mn0 O0 1.973979 1_564
Mn0 O11 1.987529 1_564
Mn1 O1 1.946675 1_555
Mn1 O9 1.947824 1_555
Mn1 O5 1.948020 1_555
Mn1 O5 1.948020 1_655
Mn1 O12 1.957741 1_555
Mn1 O12 1.957741 1_655
Co0 O8 1.998947 1_455
Co0 O8 1.998947 1_555
Co0 O1 2.007398 1_555
Co0 O1 2.007398 1_455
Co0 O4 2.120815 1_555
Co0 O12 2.179273 1_555
Co1 O2 1.931526 1_445
Co1 O2 1.931526 1_545
Co1 O13 1.965382 1_555
Co1 O9 2.073788 1_445
Co1 O9 2.073788 1_545
Co1 O5 2.183868 1_545
Co2 O6 1.790542 1_555
Co2 O15 1.963372 1_555
Co2 O15 1.963372 1_655
Co2 O3 2.128599 1_555
Co2 O3 2.128599 1_655
Co2 O14 2.282797 1_555
Co3 O4 1.995222 1_555
Co3 O4 1.995222 1_655
Co3 O8 2.017609 1_555
Co3 O11 2.019044 1_655
Co3 O11 2.019044 1_555
Co3 O0 2.122920 1_555
Co4 O10 1.801166 1_555
Co4 O7 1.967644 1_555
Co4 O7 1.967644 1_655
Co4 O13 2.095948 1_655
Co4 O13 2.095948 1_555
Co4 O2 2.308304 1_545
