# generated using pymatgen
data_Mn3ZnO7
_symmetry_space_group_name_H-M   'P 1'
_cell_length_a   5.55235900
_cell_length_b   9.34438700
_cell_length_c   10.44742100
_cell_angle_alpha   90.00000000
_cell_angle_beta   90.00000000
_cell_angle_gamma   90.00000000
_symmetry_Int_Tables_number   1
_chemical_formula_structural   Mn3ZnO7
_chemical_formula_sum   'Mn12 Zn4 O28'
_cell_volume   542.04763139
_cell_formula_units_Z   4
loop_
 _symmetry_equiv_pos_site_id
 _symmetry_equiv_pos_as_xyz
  1  'x, y, z'
loop_
 _atom_site_type_symbol
 _atom_site_label
 _atom_site_symmetry_multiplicity
 _atom_site_fract_x
 _atom_site_fract_y
 _atom_site_fract_z
 _atom_site_occupancy
  Mn  Mn0  1  0.72733200  0.70634300  0.97721900  1
  Mn  Mn1  1  0.22733200  0.79365700  0.02278100  1
  Mn  Mn2  1  0.27266800  0.29365700  0.47721900  1
  Mn  Mn3  1  0.77266800  0.20634300  0.52278100  1
  Mn  Mn4  1  0.72748400  0.76015300  0.25000000  1
  Mn  Mn5  1  0.22748400  0.73984700  0.75000000  1
  Mn  Mn6  1  0.27251600  0.23984700  0.75000000  1
  Mn  Mn7  1  0.77251600  0.26015300  0.25000000  1
  Mn  Mn8  1  0.22733200  0.79365700  0.47721900  1
  Mn  Mn9  1  0.72733200  0.70634300  0.52278100  1
  Mn  Mn10  1  0.77266800  0.20634300  0.97721900  1
  Mn  Mn11  1  0.27266800  0.29365700  0.02278100  1
  Zn  Zn0  1  0.38246700  0.00968900  0.25000000  1
  Zn  Zn1  1  0.88246700  0.49031100  0.75000000  1
  Zn  Zn2  1  0.61753300  0.99031100  0.75000000  1
  Zn  Zn3  1  0.11753300  0.50968900  0.25000000  1
  O  O0  1  0.04019400  0.28952700  0.88103100  1
  O  O1  1  0.54019400  0.21047300  0.11896900  1
  O  O2  1  0.95980600  0.71047300  0.38103100  1
  O  O3  1  0.45980600  0.78952700  0.61896900  1
  O  O4  1  0.95980600  0.71047300  0.11896900  1
  O  O5  1  0.45980600  0.78952700  0.88103100  1
  O  O6  1  0.04019400  0.28952700  0.61896900  1
  O  O7  1  0.54019400  0.21047300  0.38103100  1
  O  O8  1  0.50101200  0.27708800  0.88425700  1
  O  O9  1  0.00101200  0.22291200  0.11574300  1
  O  O10  1  0.49898800  0.72291200  0.38425700  1
  O  O11  1  0.99898800  0.77708800  0.61574300  1
  O  O12  1  0.49898800  0.72291200  0.11574300  1
  O  O13  1  0.99898800  0.77708800  0.88425700  1
  O  O14  1  0.50101200  0.27708800  0.61574300  1
  O  O15  1  0.00101200  0.22291200  0.38425700  1
  O  O16  1  0.78088300  0.44716400  0.25000000  1
  O  O17  1  0.28088300  0.05283600  0.75000000  1
  O  O18  1  0.21911700  0.55283600  0.75000000  1
  O  O19  1  0.71911700  0.94716400  0.25000000  1
  O  O20  1  0.77239600  0.03341800  0.58790200  1
  O  O21  1  0.27239600  0.46658200  0.41209800  1
  O  O22  1  0.22760400  0.96658200  0.08790200  1
  O  O23  1  0.72760400  0.53341800  0.91209800  1
  O  O24  1  0.22760400  0.96658200  0.41209800  1
  O  O25  1  0.72760400  0.53341800  0.58790200  1
  O  O26  1  0.77239600  0.03341800  0.91209800  1
  O  O27  1  0.27239600  0.46658200  0.08790200  1
loop_
_geom_bond_atom_site_label_1
_geom_bond_atom_site_label_2
_geom_bond_distance
_geom_bond_site_symmetry_2
Mn0 O23 1.753264 1_555
Mn0 O13 1.911892 1_555
Mn0 O12 1.930246 1_556
Mn0 O5 1.954603 1_555
Mn0 O4 1.964874 1_556
Mn1 O22 1.753264 1_555
Mn1 O12 1.911892 1_555
Mn1 O13 1.930246 1_454
Mn1 O4 1.954603 1_455
Mn1 O5 1.964874 1_554
Mn2 O21 1.753264 1_555
Mn2 O15 1.911892 1_555
Mn2 O14 1.930246 1_555
Mn2 O7 1.954603 1_555
Mn2 O6 1.964874 1_555
Mn3 O20 1.753264 1_555
Mn3 O14 1.911892 1_555
Mn3 O15 1.930246 1_655
Mn3 O6 1.954603 1_655
Mn3 O7 1.964874 1_555
Mn4 O19 1.748121 1_555
Mn4 O10 1.923038 1_555
Mn4 O12 1.923038 1_555
Mn4 O2 1.937376 1_555
Mn4 O4 1.937376 1_555
Mn5 O18 1.748121 1_555
Mn5 O13 1.923038 1_455
Mn5 O11 1.923038 1_455
Mn5 O5 1.937376 1_555
Mn5 O3 1.937376 1_555
Mn6 O17 1.748121 1_555
Mn6 O14 1.923038 1_555
Mn6 O8 1.923038 1_555
Mn6 O6 1.937376 1_555
Mn6 O0 1.937376 1_555
Mn7 O16 1.748121 1_555
Mn7 O15 1.923038 1_655
Mn7 O9 1.923038 1_655
Mn7 O7 1.937376 1_555
Mn7 O1 1.937376 1_555
Mn8 O24 1.753264 1_555
Mn8 O10 1.911892 1_555
Mn8 O11 1.930246 1_455
Mn8 O2 1.954603 1_455
Mn8 O3 1.964874 1_555
Mn9 O25 1.753264 1_555
Mn9 O11 1.911892 1_555
Mn9 O10 1.930246 1_555
Mn9 O3 1.954603 1_555
Mn9 O2 1.964874 1_555
Mn10 O26 1.753264 1_555
Mn10 O8 1.911892 1_555
Mn10 O9 1.930246 1_656
Mn10 O0 1.954603 1_655
Mn10 O1 1.964874 1_556
Mn11 O27 1.753264 1_555
Mn11 O9 1.911892 1_555
Mn11 O8 1.930246 1_554
Mn11 O1 1.954603 1_555
Mn11 O0 1.964874 1_554
O0 Zn1 2.482151 1_455
O1 Zn0 2.482151 1_555
O2 Zn3 2.482151 1_655
O3 Zn2 2.482151 1_555
O4 Zn3 2.482151 1_655
O5 Zn2 2.482151 1_555
O6 Zn1 2.482151 1_455
O7 Zn0 2.482151 1_555
O16 Zn3 1.958385 1_655
O17 Zn2 1.958385 1_545
O18 Zn1 1.958385 1_455
O19 Zn0 1.958385 1_565
O20 Zn2 1.941538 1_545
O21 Zn3 1.941538 1_555
O22 Zn0 1.941538 1_565
O23 Zn1 1.941538 1_555
O24 Zn0 1.941538 1_565
O25 Zn1 1.941538 1_555
O26 Zn2 1.941538 1_545
O27 Zn3 1.941538 1_555
