# generated using pymatgen
data_K4NiP6O25
_symmetry_space_group_name_H-M   'P 1'
_cell_length_a   12.86688590
_cell_length_b   11.82285455
_cell_length_c   7.43352209
_cell_angle_alpha   80.34468814
_cell_angle_beta   64.93706522
_cell_angle_gamma   34.71824663
_symmetry_Int_Tables_number   1
_chemical_formula_structural   K4NiP6O25
_chemical_formula_sum   'K4 Ni1 P6 O25'
_cell_volume   546.54319548
_cell_formula_units_Z   1
loop_
 _symmetry_equiv_pos_site_id
 _symmetry_equiv_pos_as_xyz
  1  'x, y, z'
loop_
 _atom_site_type_symbol
 _atom_site_label
 _atom_site_symmetry_multiplicity
 _atom_site_fract_x
 _atom_site_fract_y
 _atom_site_fract_z
 _atom_site_occupancy
  K  K0  1  0.52148500  0.97851500  0.52148500  1
  K  K1  1  0.02148500  0.47851500  0.02148500  1
  K  K2  1  0.70118500  0.50950400  0.49049600  1
  K  K3  1  0.49049600  0.29881500  0.70118500  1
  Ni  Ni0  1  0.00297500  0.99702500  0.00297500  1
  P  P0  1  0.49226000  0.95575300  0.04424700  1
  P  P1  1  0.04424700  0.50774000  0.49226000  1
  P  P2  1  0.63769700  0.59613900  0.01263200  1
  P  P3  1  0.01263200  0.75353200  0.63769700  1
  P  P4  1  0.40386100  0.36230300  0.24646800  1
  P  P5  1  0.24646800  0.98736800  0.40386100  1
  O  O0  1  0.59712200  0.75659800  0.91542500  1
  O  O1  1  0.91542500  0.73085500  0.59712200  1
  O  O2  1  0.24340200  0.40287800  0.26914500  1
  O  O3  1  0.26914500  0.08457500  0.24340200  1
  O  O4  1  0.42228700  0.75611500  0.24388500  1
  O  O5  1  0.24388500  0.57771300  0.42228700  1
  O  O6  1  0.43389400  0.09023800  0.90976200  1
  O  O7  1  0.90976200  0.56610600  0.43389400  1
  O  O8  1  0.62574300  0.87226900  0.12773100  1
  O  O9  1  0.12773100  0.37425700  0.62574300  1
  O  O10  1  0.64602900  0.50548200  0.87811100  1
  O  O11  1  0.87811100  0.97037900  0.64602900  1
  O  O12  1  0.49451800  0.35397100  0.02962200  1
  O  O13  1  0.02962200  0.12188900  0.49451800  1
  O  O14  1  0.82157100  0.44459800  0.05022700  1
  O  O15  1  0.05022700  0.68360400  0.82157100  1
  O  O16  1  0.55540200  0.17842900  0.31639600  1
  O  O17  1  0.31639600  0.94977300  0.55540200  1
  O  O18  1  0.10195700  0.06136100  0.93863900  1
  O  O19  1  0.93863900  0.89804300  0.10195700  1
  O  O20  1  0.28252400  0.71747600  0.89084900  1
  O  O21  1  0.89084900  0.10915100  0.28252400  1
  O  O22  1  0.10455100  0.89544900  0.72762300  1
  O  O23  1  0.72762300  0.27237700  0.10455100  1
  O  O24  1  0.48615500  0.51384500  0.48615500  1
loop_
_geom_bond_atom_site_label_1
_geom_bond_atom_site_label_2
_geom_bond_distance
_geom_bond_site_symmetry_2
K0 O8 2.661051 1_555
K0 O9 2.661051 1_565
K0 O6 2.724169 1_565
K0 O7 2.724169 1_555
K0 O16 2.832724 1_565
K0 O17 2.832724 1_555
K1 O8 2.661051 1_455
K1 O9 2.661051 1_554
K1 O6 2.724169 1_554
K1 O7 2.724169 1_455
K1 O15 2.832724 1_554
K1 O14 2.832724 1_455
K2 O13 2.661790 1_655
K2 O10 2.661790 1_555
K2 O24 2.738672 1_555
K2 O14 2.879672 1_555
K2 O17 2.879672 1_555
K2 O7 3.119067 1_555
K3 O12 2.661790 1_556
K3 O11 2.661791 1_545
K3 O24 2.738672 1_555
K3 O15 2.879672 1_555
K3 O16 2.879672 1_555
K3 O6 3.119067 1_555
Ni0 O23 1.821468 1_465
Ni0 O22 1.821468 1_554
Ni0 O18 1.839508 1_564
Ni0 O19 1.839508 1_455
Ni0 O21 1.843094 1_465
Ni0 O20 1.843094 1_554
O0 P2 1.620258 1_556
O0 P0 1.649423 1_556
O1 P3 1.620258 1_655
O1 P1 1.649423 1_655
O2 P4 1.620258 1_555
O2 P1 1.649423 1_555
O3 P5 1.620258 1_545
O3 P0 1.649423 1_545
O4 P2 1.628049 1_555
O4 P5 1.628049 1_555
O5 P3 1.628049 1_555
O5 P4 1.628049 1_555
O6 P0 1.493782 1_546
O7 P1 1.493782 1_655
O8 P0 1.489938 1_555
O9 P1 1.489938 1_555
O10 P2 1.496672 1_556
O11 P3 1.496681 1_655
O12 P4 1.496672 1_555
O13 P5 1.496672 1_545
O14 P2 1.519672 1_555
O15 P3 1.519672 1_555
O16 P4 1.519672 1_555
O17 P5 1.519672 1_555
