# generated using pymatgen
data_BaNa4Ti2(Si2O5)6
_symmetry_space_group_name_H-M   'P 1'
_cell_length_a   10.10518043
_cell_length_b   10.10518043
_cell_length_c   7.38506089
_cell_angle_alpha   88.09737089
_cell_angle_beta   88.09737089
_cell_angle_gamma   119.35232640
_symmetry_Int_Tables_number   1
_chemical_formula_structural   BaNa4Ti2(Si2O5)6
_chemical_formula_sum   'Ba1 Na4 Ti2 Si12 O30'
_cell_volume   655.88749302
_cell_formula_units_Z   1
loop_
 _symmetry_equiv_pos_site_id
 _symmetry_equiv_pos_as_xyz
  1  'x, y, z'
loop_
 _atom_site_type_symbol
 _atom_site_label
 _atom_site_symmetry_multiplicity
 _atom_site_fract_x
 _atom_site_fract_y
 _atom_site_fract_z
 _atom_site_occupancy
  Ba  Ba0  1  0.50000000  0.50000000  0.50000000  1
  Na  Na0  1  0.76724700  0.23275300  0.00000000  1
  Na  Na1  1  0.23275300  0.76724700  0.00000000  1
  Na  Na2  1  0.77563600  0.77563600  0.01581000  1
  Na  Na3  1  0.22436400  0.22436400  0.98419000  1
  Ti  Ti0  1  0.58362900  0.41637100  0.00000000  1
  Ti  Ti1  1  0.41637100  0.58362900  0.00000000  1
  Si  Si0  1  0.42607000  0.08566400  0.26381700  1
  Si  Si1  1  0.57393000  0.91433600  0.73618300  1
  Si  Si2  1  0.91433600  0.57393000  0.73618300  1
  Si  Si3  1  0.08566400  0.42607000  0.26381700  1
  Si  Si4  1  0.56357700  0.87223200  0.31334100  1
  Si  Si5  1  0.43642300  0.12776800  0.68665900  1
  Si  Si6  1  0.12776800  0.43642300  0.68665900  1
  Si  Si7  1  0.87223200  0.56357700  0.31334100  1
  Si  Si8  1  0.90603900  0.08018300  0.28385900  1
  Si  Si9  1  0.09396100  0.91981700  0.71614100  1
  Si  Si10  1  0.91981700  0.09396100  0.71614100  1
  Si  Si11  1  0.08018300  0.90603900  0.28385900  1
  O  O0  1  0.91741500  0.08258500  0.50000000  1
  O  O1  1  0.08258500  0.91741500  0.50000000  1
  O  O2  1  0.55038700  0.21016100  0.12427500  1
  O  O3  1  0.44961300  0.78983900  0.87572500  1
  O  O4  1  0.78983900  0.44961300  0.87572500  1
  O  O5  1  0.21016100  0.55038700  0.12427500  1
  O  O6  1  0.73173000  0.02003600  0.23036300  1
  O  O7  1  0.26827000  0.97996400  0.76963700  1
  O  O8  1  0.97996400  0.26827000  0.76963700  1
  O  O9  1  0.02003600  0.73173000  0.23036300  1
  O  O10  1  0.53443700  0.71982000  0.22351300  1
  O  O11  1  0.46556300  0.28018000  0.77648700  1
  O  O12  1  0.28018000  0.46556300  0.77648700  1
  O  O13  1  0.71982000  0.53443700  0.22351300  1
  O  O14  1  0.43779400  0.92837800  0.28676300  1
  O  O15  1  0.56220600  0.07162200  0.71323700  1
  O  O16  1  0.07162200  0.56220600  0.71323700  1
  O  O17  1  0.92837800  0.43779400  0.28676300  1
  O  O18  1  0.57844400  0.85087000  0.53389800  1
  O  O19  1  0.42155600  0.14913000  0.46610200  1
  O  O20  1  0.14913000  0.42155600  0.46610200  1
  O  O21  1  0.85087000  0.57844400  0.53389800  1
  O  O22  1  0.24871100  0.01889800  0.18886300  1
  O  O23  1  0.75128900  0.98110200  0.81113700  1
  O  O24  1  0.98110200  0.75128900  0.81113700  1
  O  O25  1  0.01889800  0.24871100  0.18886300  1
  O  O26  1  0.40953000  0.40953000  0.12789600  1
  O  O27  1  0.59047000  0.59047000  0.87210400  1
  O  O28  1  0.96292700  0.96292700  0.20720500  1
  O  O29  1  0.03707300  0.03707300  0.79279500  1
loop_
_geom_bond_atom_site_label_1
_geom_bond_atom_site_label_2
_geom_bond_distance
_geom_bond_site_symmetry_2
Ba0 O11 2.849286 1_555
Ba0 O12 2.849286 1_555
Ba0 O13 2.849286 1_555
Ba0 O10 2.849286 1_555
Ba0 O27 2.955911 1_555
Ba0 O26 2.955911 1_555
Ba0 O18 3.252552 1_555
Ba0 O21 3.252552 1_555
Ba0 O19 3.252552 1_555
Ba0 O20 3.252552 1_555
Na0 O4 2.249174 1_554
Na0 O2 2.249174 1_555
Na0 O8 2.569803 1_554
Na0 O6 2.569803 1_555
Na0 O25 2.878636 1_655
Na0 O23 2.878636 1_544
Na0 O17 2.939749 1_555
Na0 O15 2.939749 1_554
Na1 O5 2.249174 1_555
Na1 O3 2.249174 1_554
Na1 O7 2.569803 1_554
Na1 O9 2.569803 1_555
Na1 O22 2.878636 1_565
Na1 O24 2.878636 1_454
Na1 O14 2.939749 1_555
Na1 O16 2.939749 1_554
Na2 O27 2.227095 1_554
Na2 O28 2.450608 1_555
Na2 O10 2.637850 1_555
Na2 O13 2.637850 1_555
Na2 O24 2.640687 1_554
Na2 O23 2.640687 1_554
Na3 O26 2.227095 1_556
Na3 O29 2.450608 1_555
Na3 O11 2.637850 1_555
Na3 O12 2.637850 1_555
Na3 O25 2.640687 1_556
Na3 O22 2.640687 1_556
O0 Si10 1.604284 1_555
O0 Si8 1.604284 1_555
O1 Si9 1.604284 1_555
O1 Si11 1.604284 1_555
O2 Si0 1.581587 1_555
O2 Ti0 2.112733 1_555
O3 Si1 1.581587 1_555
O3 Ti1 2.112733 1_556
O4 Si2 1.581587 1_555
O4 Ti0 2.112733 1_556
O5 Si3 1.581587 1_555
O5 Ti1 2.112733 1_555
O6 Si8 1.625025 1_555
O6 Si4 1.695778 1_545
O7 Si9 1.625025 1_555
O7 Si5 1.695778 1_565
O8 Si10 1.625025 1_555
O8 Si6 1.695778 1_655
O9 Si11 1.625025 1_555
O9 Si7 1.695778 1_455
O10 Si4 1.592186 1_555
O10 Ti1 2.171184 1_555
O11 Si5 1.592186 1_555
O11 Ti0 2.171184 1_556
O12 Si6 1.592186 1_555
O12 Ti1 2.171184 1_556
O13 Si7 1.592186 1_555
O13 Ti0 2.171184 1_555
O14 Si4 1.640788 1_555
O14 Si0 1.654390 1_565
O15 Si5 1.640788 1_555
O15 Si1 1.654390 1_545
O16 Si6 1.640788 1_555
O16 Si2 1.654390 1_455
O17 Si7 1.640788 1_555
O17 Si3 1.654390 1_655
O18 Si1 1.653138 1_555
O18 Si4 1.657390 1_555
O19 Si0 1.653138 1_555
O19 Si5 1.657390 1_555
O20 Si3 1.653138 1_555
O20 Si6 1.657390 1_555
O21 Si2 1.653138 1_555
O21 Si7 1.657390 1_555
O22 Si11 1.629887 1_545
O22 Si0 1.696754 1_555
O23 Si10 1.629887 1_565
O23 Si1 1.696754 1_555
O24 Si9 1.629887 1_655
O24 Si2 1.696754 1_555
O25 Si8 1.629887 1_455
O25 Si3 1.696754 1_555
O26 Ti1 1.938590 1_555
O26 Ti0 1.938590 1_555
O27 Ti0 1.938590 1_556
O27 Ti1 1.938590 1_556
O28 Si8 1.656987 1_565
O28 Si11 1.656987 1_655
O29 Si10 1.656987 1_455
O29 Si9 1.656987 1_545
