# generated using pymatgen
data_Li5V3P8O29
_symmetry_space_group_name_H-M   'P 1'
_cell_length_a   9.76978400
_cell_length_b   9.80377540
_cell_length_c   14.10939122
_cell_angle_alpha   89.81173997
_cell_angle_beta   90.38177730
_cell_angle_gamma   119.70706809
_symmetry_Int_Tables_number   1
_chemical_formula_structural   Li5V3P8O29
_chemical_formula_sum   'Li10 V6 P16 O58'
_cell_volume   1173.76719758
_cell_formula_units_Z   2
loop_
 _symmetry_equiv_pos_site_id
 _symmetry_equiv_pos_as_xyz
  1  'x, y, z'
loop_
 _atom_site_type_symbol
 _atom_site_label
 _atom_site_symmetry_multiplicity
 _atom_site_fract_x
 _atom_site_fract_y
 _atom_site_fract_z
 _atom_site_occupancy
  Li  Li0  1  0.90232800  0.66103200  0.44327400  1
  Li  Li1  1  0.33326700  0.23122600  0.44292800  1
  Li  Li2  1  0.32078600  0.09254800  0.93712500  1
  Li  Li3  1  0.91423300  0.22539200  0.94223200  1
  Li  Li4  1  0.77064300  0.09141000  0.44080400  1
  Li  Li5  1  0.07922700  0.78459200  0.05921200  1
  Li  Li6  1  0.69439000  0.92180000  0.05633200  1
  Li  Li7  1  0.34891000  0.66132700  0.89115400  1
  Li  Li8  1  0.10586900  0.33801800  0.55524000  1
  Li  Li9  1  0.98825000  0.95846000  0.50734500  1
  V  V0  1  0.42876400  0.99706300  0.74290500  1
  V  V1  1  0.56630100  0.00230200  0.25515800  1
  V  V2  1  0.99825500  0.56777500  0.24800500  1
  V  V3  1  0.99816000  0.43324400  0.74816600  1
  V  V4  1  0.56542400  0.56732900  0.75166800  1
  V  V5  1  0.43595200  0.43417300  0.24799400  1
  P  P0  1  0.76819600  0.68805100  0.15588400  1
  P  P1  1  0.91317400  0.69127100  0.65996100  1
  P  P2  1  0.31400800  0.23232400  0.65669800  1
  P  P3  1  0.66403200  0.32977000  0.86900000  1
  P  P4  1  0.66696800  0.33557600  0.37211000  1
  P  P5  1  0.32148400  0.09116200  0.15739600  1
  P  P6  1  0.22084700  0.91621900  0.33951900  1
  P  P7  1  0.91000000  0.23111800  0.15916800  1
  P  P8  1  0.09270000  0.77051200  0.84246200  1
  P  P9  1  0.77555800  0.08571200  0.65607800  1
  P  P10  1  0.68195200  0.91140000  0.83939300  1
  P  P11  1  0.32796500  0.65874100  0.63009900  1
  P  P12  1  0.33605400  0.67114400  0.13147300  1
  P  P13  1  0.69285300  0.77309900  0.34302400  1
  P  P14  1  0.09126300  0.31924300  0.33977700  1
  P  P15  1  0.22443600  0.31445500  0.84065300  1
  O  O0  1  0.79676300  0.78576700  0.42476200  1
  O  O1  1  0.74621400  0.66165100  0.66763900  1
  O  O2  1  0.00821500  0.75672100  0.93198700  1
  O  O3  1  0.91483500  0.66680300  0.15813700  1
  O  O4  1  0.61866600  0.52539300  0.17693900  1
  O  O5  1  0.65460400  0.47258900  0.82619700  1
  O  O6  1  0.47044800  0.38342300  0.66749600  1
  O  O7  1  0.22788700  0.22039300  0.92184800  1
  O  O8  1  0.33983100  0.25765600  0.16619900  1
  O  O9  1  0.81121200  0.49013400  0.33496500  1
  O  O10  1  0.91886000  0.53516700  0.67441600  1
  O  O11  1  0.51233000  0.32442900  0.32487700  1
  O  O12  1  0.68083900  0.33005700  0.97364800  1
  O  O13  1  0.65136500  0.33352700  0.47738300  1
  O  O14  1  0.51682300  0.17856100  0.83071100  1
  O  O15  1  0.89807700  0.38094300  0.18085800  1
  O  O16  1  0.81712100  0.33794900  0.82154400  1
  O  O17  1  0.33693500  0.08692300  0.66687500  1
  O  O18  1  0.20116500  0.99003800  0.24027600  1
  O  O19  1  0.20180300  0.00512900  0.41962100  1
  O  O20  1  0.25031200  0.01000200  0.06565000  1
  O  O21  1  0.48210600  0.10369200  0.17934300  1
  O  O22  1  0.68097600  0.19142400  0.33507000  1
  O  O23  1  0.25985000  0.91687500  0.84059000  1
  O  O24  1  0.62002600  0.08577100  0.66592200  1
  O  O25  1  0.91939200  0.25812700  0.66320500  1
  O  O26  1  0.00724200  0.79495300  0.75117400  1
  O  O27  1  0.99069800  0.77143400  0.56920200  1
  O  O28  1  0.00592200  0.23094500  0.42790200  1
  O  O29  1  0.08169000  0.74400500  0.33654500  1
  O  O30  1  0.37956600  0.91920200  0.33366100  1
  O  O31  1  0.74430500  0.08242300  0.16543900  1
  O  O32  1  0.32068100  0.80312700  0.66753400  1
  O  O33  1  0.51617800  0.89405900  0.82045400  1
  O  O34  1  0.75639700  0.00728300  0.92702100  1
  O  O35  1  0.79759000  0.01583500  0.56705000  1
  O  O36  1  0.79366500  0.99988200  0.74920400  1
  O  O37  1  0.65856300  0.91232600  0.34330900  1
  O  O38  1  0.18347400  0.67080500  0.16496900  1
  O  O39  1  0.11022600  0.62212600  0.82314200  1
  O  O40  1  0.48490900  0.81809200  0.17213300  1
  O  O41  1  0.34218600  0.66682000  0.02551500  1
  O  O42  1  0.30887800  0.62677700  0.52639300  1
  O  O43  1  0.47694200  0.66463800  0.67688400  1
  O  O44  1  0.09772300  0.47667600  0.32643400  1
  O  O45  1  0.18106400  0.50440000  0.67680900  1
  O  O46  1  0.65956500  0.74651500  0.84202200  1
  O  O47  1  0.79021600  0.79619000  0.24697400  1
  O  O48  1  0.75471100  0.76674100  0.06949900  1
  O  O49  1  0.53802900  0.61447900  0.33122400  1
  O  O50  1  0.33894600  0.52540300  0.17963700  1
  O  O51  1  0.36889100  0.48150300  0.83079800  1
  O  O52  1  0.07462900  0.33445700  0.84105900  1
  O  O53  1  0.98892400  0.24076200  0.06813200  1
  O  O54  1  0.00550700  0.21209800  0.24780000  1
  O  O55  1  0.26038500  0.34013700  0.33866900  1
  O  O56  1  0.22507400  0.22126400  0.56615300  1
  O  O57  1  0.20076900  0.21823000  0.74290600  1
loop_
_geom_bond_atom_site_label_1
_geom_bond_atom_site_label_2
_geom_bond_distance
_geom_bond_site_symmetry_2
Li0 O0 1.967652 1_555
Li0 O27 2.034651 1_555
Li0 O9 2.110765 1_555
Li0 O29 2.148106 1_655
Li1 O19 1.961773 1_555
Li1 O56 2.017604 1_555
Li1 O55 2.130787 1_555
Li1 O11 2.261452 1_555
Li2 O7 1.887912 1_555
Li2 O20 1.967781 1_556
Li2 O23 2.040628 1_545
Li2 O14 2.250072 1_555
Li3 O53 1.893724 1_556
Li3 O34 1.930477 1_555
Li3 O52 1.998926 1_655
Li3 O16 2.453824 1_555
Li4 O35 1.992372 1_555
Li4 O28 2.018795 1_655
Li4 O37 2.064975 1_545
Li4 O22 2.186032 1_555
Li5 O2 1.891293 1_554
Li5 O20 2.005966 1_565
Li5 O3 2.010531 1_455
Li5 O38 2.367099 1_555
Li6 O48 1.891381 1_555
Li6 O34 1.974745 1_564
Li6 O31 2.081393 1_565
Li6 O40 2.421382 1_555
Li7 O41 1.899191 1_556
Li7 O51 2.055356 1_555
Li7 O33 2.276566 1_555
Li7 O39 2.364451 1_555
Li8 O56 2.001967 1_555
Li8 O28 2.063122 1_555
Li8 O25 2.206339 1_455
Li8 O45 2.226308 1_555
Li8 O42 2.559640 1_555
Li9 O27 2.038849 1_555
Li9 O0 2.137428 1_555
Li9 O19 2.275702 1_665
Li9 O35 2.357584 1_565
Li9 O56 2.600015 1_665
O0 P13 1.495469 1_555
O1 P1 1.513087 1_555
O1 V4 1.944830 1_555
O2 P8 1.482316 1_555
O3 P0 1.546600 1_555
O3 V2 1.994217 1_555
O4 P0 1.568147 1_555
O4 V5 1.851238 1_555
O5 P3 1.566907 1_555
O5 V4 1.873770 1_555
O6 P2 1.519191 1_555
O6 V4 1.965549 1_555
O7 P15 1.478954 1_555
O8 P5 1.556571 1_555
O8 V5 1.896443 1_555
O9 P4 1.563591 1_555
O9 V2 2.017228 1_555
O10 P1 1.571271 1_555
O10 V3 1.852343 1_555
O11 P4 1.600609 1_555
O11 V5 1.915300 1_555
O12 P3 1.484392 1_555
O13 P4 1.493203 1_555
O14 P3 1.561935 1_555
O14 V0 1.980953 1_545
O15 P7 1.561332 1_555
O15 V2 1.852756 1_555
O16 P3 1.608057 1_555
O16 V3 1.858314 1_555
O17 P2 1.554822 1_555
O17 V0 1.869775 1_545
O18 P5 1.608654 1_565
O18 P6 1.627614 1_555
O19 P6 1.497245 1_545
O20 P5 1.496224 1_555
O21 P5 1.541498 1_555
O21 V1 1.897524 1_555
O22 P4 1.576890 1_555
O22 V1 1.975414 1_555
O23 P8 1.550576 1_555
O23 V0 1.994583 1_555
O24 P9 1.527056 1_555
O24 V0 1.959066 1_545
O25 P9 1.577012 1_555
O25 V3 1.915310 1_555
O26 P8 1.611023 1_555
O26 P1 1.612776 1_455
O27 P1 1.499152 1_555
O28 P14 1.510606 1_555
O29 P6 1.557339 1_555
O29 V2 1.953164 1_455
O30 P6 1.539139 1_555
O30 V1 1.940811 1_565
O31 P7 1.554219 1_555
O31 V1 1.978050 1_555
O32 P11 1.546938 1_555
O32 V0 1.967063 1_555
O33 P10 1.563639 1_555
O33 V0 1.944569 1_555
O34 P10 1.503088 1_545
O35 P9 1.499636 1_555
O36 P9 1.613377 1_565
O36 P10 1.623529 1_555
O37 P13 1.558396 1_555
O37 V1 1.975711 1_565
O38 P12 1.565230 1_555
O38 V2 1.968818 1_455
O39 P8 1.571627 1_555
O39 V3 1.932564 1_455
O40 P12 1.561185 1_555
O40 V1 1.960663 1_565
O41 P12 1.498181 1_555
O42 P11 1.488446 1_555
O43 P11 1.568928 1_555
O43 V4 1.889268 1_555
O44 P14 1.524247 1_555
O44 V2 1.950880 1_455
O45 P11 1.623993 1_555
O45 V3 1.864747 1_455
O46 P10 1.520384 1_555
O46 V4 1.988679 1_555
O47 P13 1.610708 1_555
O47 P0 1.612843 1_555
O48 P0 1.480031 1_555
O49 P13 1.549494 1_555
O49 V5 1.936257 1_555
O50 P12 1.592949 1_555
O50 V5 1.857587 1_555
O51 P15 1.550319 1_555
O51 V4 2.015529 1_555
O52 P15 1.570074 1_555
O52 V3 1.977290 1_455
O53 P7 1.481039 1_555
O54 P14 1.616066 1_555
O54 P7 1.620073 1_455
O55 P14 1.561128 1_555
O55 V5 1.970533 1_555
O56 P2 1.513778 1_555
O57 P2 1.608678 1_555
O57 P15 1.622828 1_555
