# generated using pymatgen
data_LaP5
_symmetry_space_group_name_H-M   'P 1'
_cell_length_a   9.73411100
_cell_length_b   5.64307800
_cell_length_c   9.67303791
_cell_angle_alpha   73.28340865
_cell_angle_beta   90.00000000
_cell_angle_gamma   90.00000000
_symmetry_Int_Tables_number   1
_chemical_formula_structural   LaP5
_chemical_formula_sum   'La4 P20'
_cell_volume   508.88836320
_cell_formula_units_Z   4
loop_
 _symmetry_equiv_pos_site_id
 _symmetry_equiv_pos_as_xyz
  1  'x, y, z'
loop_
 _atom_site_type_symbol
 _atom_site_label
 _atom_site_symmetry_multiplicity
 _atom_site_fract_x
 _atom_site_fract_y
 _atom_site_fract_z
 _atom_site_occupancy
  La  La0  1  0.25000000  0.09274500  0.04838500  1
  La  La1  1  0.75000000  0.90725500  0.95161500  1
  La  La2  1  0.25000000  0.12779300  0.52204200  1
  La  La3  1  0.75000000  0.87220700  0.47795800  1
  P  P0  1  0.58604400  0.45467800  0.68915900  1
  P  P1  1  0.08604400  0.54532200  0.31084100  1
  P  P2  1  0.41395600  0.54532200  0.31084100  1
  P  P3  1  0.91395600  0.45467800  0.68915900  1
  P  P4  1  0.54902300  0.13520800  0.13635900  1
  P  P5  1  0.04902300  0.86479200  0.86364100  1
  P  P6  1  0.45097700  0.86479200  0.86364100  1
  P  P7  1  0.95097700  0.13520800  0.13635900  1
  P  P8  1  0.59547600  0.48035600  0.18759200  1
  P  P9  1  0.09547600  0.51964400  0.81240800  1
  P  P10  1  0.40452400  0.51964400  0.81240800  1
  P  P11  1  0.90452400  0.48035600  0.18759200  1
  P  P12  1  0.25000000  0.57594000  0.63647000  1
  P  P13  1  0.75000000  0.42406000  0.36353000  1
  P  P14  1  0.54513400  0.09098400  0.65823600  1
  P  P15  1  0.04513400  0.90901600  0.34176400  1
  P  P16  1  0.45486600  0.90901600  0.34176400  1
  P  P17  1  0.95486600  0.09098400  0.65823600  1
  P  P18  1  0.25000000  0.54523300  0.15039800  1
  P  P19  1  0.75000000  0.45476700  0.84960200  1
loop_
_geom_bond_atom_site_label_1
_geom_bond_atom_site_label_2
_geom_bond_distance
_geom_bond_site_symmetry_2
La0 P18 2.960707 1_545
La0 P18 2.990519 1_555
La0 P4 3.061240 1_555
La0 P7 3.061240 1_455
La0 P5 3.161941 1_544
La0 P6 3.161941 1_544
La0 P9 3.180069 1_554
La0 P10 3.180069 1_554
La0 P16 3.378253 1_545
La0 P15 3.378253 1_545
La1 P19 2.960707 1_565
La1 P19 2.990519 1_555
La1 P6 3.061240 1_555
La1 P5 3.061240 1_655
La1 P4 3.161941 1_566
La1 P7 3.161941 1_566
La1 P11 3.180069 1_556
La1 P8 3.180069 1_556
La1 P14 3.378253 1_565
La1 P17 3.378253 1_565
La2 P12 2.990006 1_545
La2 P12 3.038246 1_555
La2 P1 3.082713 1_555
La2 P2 3.082713 1_555
La2 P16 3.127369 1_545
La2 P15 3.127369 1_545
La2 P14 3.142397 1_555
La2 P17 3.142397 1_455
La3 P13 2.990006 1_565
La3 P13 3.038246 1_555
La3 P3 3.082713 1_555
La3 P0 3.082713 1_555
La3 P17 3.127369 1_565
La3 P14 3.127369 1_565
La3 P16 3.142397 1_555
La3 P15 3.142397 1_655
P0 P14 2.193939 1_555
P0 P10 2.220185 1_555
P0 P19 2.226246 1_555
P1 P15 2.193939 1_555
P1 P11 2.220185 1_455
P1 P18 2.226246 1_555
P2 P8 2.220185 1_555
P3 P9 2.220185 1_655
P4 P8 2.190631 1_555
P5 P9 2.190631 1_555
P10 P6 2.190631 1_555
P10 P12 2.224565 1_555
P11 P7 2.190631 1_555
P11 P13 2.224565 1_555
P12 P9 2.224565 1_555
P13 P8 2.224565 1_555
P14 P6 2.226669 1_545
P15 P7 2.226669 1_465
P16 P2 2.193939 1_555
P16 P4 2.226669 1_565
P17 P3 2.193939 1_555
P17 P5 2.226669 1_645
P18 P2 2.226246 1_555
P19 P3 2.226246 1_555
