# generated using pymatgen
data_Ca4RuN4
_symmetry_space_group_name_H-M   'P 1'
_cell_length_a   11.52758600
_cell_length_b   3.52632100
_cell_length_c   15.15927400
_cell_angle_alpha   90.00000000
_cell_angle_beta   90.00000000
_cell_angle_gamma   90.00000000
_symmetry_Int_Tables_number   1
_chemical_formula_structural   Ca4RuN4
_chemical_formula_sum   'Ca16 Ru4 N16'
_cell_volume   616.22401196
_cell_formula_units_Z   4
loop_
 _symmetry_equiv_pos_site_id
 _symmetry_equiv_pos_as_xyz
  1  'x, y, z'
loop_
 _atom_site_type_symbol
 _atom_site_label
 _atom_site_symmetry_multiplicity
 _atom_site_fract_x
 _atom_site_fract_y
 _atom_site_fract_z
 _atom_site_occupancy
  Ca  Ca0  1  0.98638600  0.25000000  0.18401700  1
  Ca  Ca1  1  0.48638600  0.25000000  0.31598300  1
  Ca  Ca2  1  0.01361400  0.75000000  0.81598300  1
  Ca  Ca3  1  0.51361400  0.75000000  0.68401700  1
  Ca  Ca4  1  0.87248300  0.25000000  0.98191400  1
  Ca  Ca5  1  0.37248300  0.25000000  0.51808600  1
  Ca  Ca6  1  0.12751700  0.75000000  0.01808600  1
  Ca  Ca7  1  0.62751700  0.75000000  0.48191400  1
  Ca  Ca8  1  0.37799500  0.25000000  0.94235800  1
  Ca  Ca9  1  0.87799500  0.25000000  0.55764200  1
  Ca  Ca10  1  0.62200500  0.75000000  0.05764200  1
  Ca  Ca11  1  0.12200500  0.75000000  0.44235800  1
  Ca  Ca12  1  0.24175100  0.25000000  0.73105700  1
  Ca  Ca13  1  0.74175100  0.25000000  0.76894300  1
  Ca  Ca14  1  0.75824900  0.75000000  0.26894300  1
  Ca  Ca15  1  0.25824900  0.75000000  0.23105700  1
  Ru  Ru0  1  0.43067900  0.25000000  0.13094900  1
  Ru  Ru1  1  0.93067900  0.25000000  0.36905100  1
  Ru  Ru2  1  0.56932100  0.75000000  0.86905100  1
  Ru  Ru3  1  0.06932100  0.75000000  0.63094900  1
  N  N0  1  0.67874700  0.25000000  0.36707900  1
  N  N1  1  0.17874700  0.25000000  0.13292100  1
  N  N2  1  0.32125300  0.75000000  0.63292100  1
  N  N3  1  0.82125300  0.75000000  0.86707900  1
  N  N4  1  0.16048300  0.25000000  0.87972900  1
  N  N5  1  0.66048300  0.25000000  0.62027100  1
  N  N6  1  0.83951700  0.75000000  0.12027100  1
  N  N7  1  0.33951700  0.75000000  0.37972900  1
  N  N8  1  0.05562700  0.25000000  0.92016700  1
  N  N9  1  0.55562700  0.25000000  0.57983300  1
  N  N10  1  0.94437300  0.75000000  0.07983300  1
  N  N11  1  0.44437300  0.75000000  0.42016700  1
  N  N12  1  0.77538800  0.25000000  0.41395100  1
  N  N13  1  0.27538800  0.25000000  0.08604900  1
  N  N14  1  0.22461200  0.75000000  0.58604900  1
  N  N15  1  0.72461200  0.75000000  0.91395100  1
loop_
_geom_bond_atom_site_label_1
_geom_bond_atom_site_label_2
_geom_bond_distance
_geom_bond_site_symmetry_2
Ca0 N1 2.348849 1_655
Ca0 N10 2.416123 1_545
Ca0 N10 2.416123 1_555
Ca0 N6 2.628489 1_555
Ca0 N6 2.628489 1_545
Ca0 Ru1 2.877551 1_555
Ca1 N0 2.348849 1_555
Ca1 N11 2.416123 1_555
Ca1 N11 2.416123 1_545
Ca1 N7 2.628489 1_545
Ca1 N7 2.628489 1_555
Ca1 Ru0 2.877551 1_555
Ca2 N3 2.348849 1_455
Ca2 N8 2.416123 1_565
Ca2 N8 2.416123 1_555
Ca2 N4 2.628489 1_565
Ca2 N4 2.628489 1_555
Ca2 Ru3 2.877551 1_555
Ca3 N2 2.348849 1_555
Ca3 N9 2.416123 1_565
Ca3 N9 2.416123 1_555
Ca3 N5 2.628489 1_565
Ca3 N5 2.628489 1_555
Ca3 Ru2 2.877551 1_555
Ca4 N8 2.309409 1_655
Ca4 N10 2.449264 1_546
Ca4 N10 2.449264 1_556
Ca4 N3 2.547142 1_545
Ca4 N3 2.547142 1_555
Ca4 N15 2.660045 1_555
Ca4 N15 2.660045 1_545
Ca4 N6 2.766261 1_556
Ca4 N6 2.766261 1_546
Ca5 N9 2.309409 1_555
Ca5 N11 2.449264 1_545
Ca5 N11 2.449264 1_555
Ca5 N2 2.547142 1_545
Ca5 N2 2.547142 1_555
Ca5 N14 2.660045 1_545
Ca5 N14 2.660045 1_555
Ca5 N7 2.766261 1_555
Ca5 N7 2.766261 1_545
Ca6 N10 2.309409 1_455
Ca6 N8 2.449264 1_554
Ca6 N8 2.449264 1_564
Ca6 N1 2.547142 1_555
Ca6 N1 2.547142 1_565
Ca6 N13 2.660045 1_565
Ca6 N13 2.660045 1_555
Ca6 N4 2.766261 1_564
Ca6 N4 2.766261 1_554
Ca7 N11 2.309409 1_555
Ca7 N9 2.449264 1_565
Ca7 N9 2.449264 1_555
Ca7 N0 2.547142 1_555
Ca7 N0 2.547142 1_565
Ca7 N12 2.660045 1_555
Ca7 N12 2.660045 1_565
Ca7 N5 2.766261 1_565
Ca7 N5 2.766261 1_555
Ca8 N13 2.478673 1_556
Ca8 N4 2.681115 1_555
Ca8 Ru0 2.922698 1_556
Ca8 Ru2 3.034473 1_545
Ca8 Ru2 3.034473 1_555
Ca9 N12 2.478673 1_555
Ca9 N5 2.681115 1_555
Ca9 Ru1 2.922698 1_555
Ca9 Ru3 3.034473 1_645
Ca9 Ru3 3.034473 1_655
Ca10 N15 2.478673 1_554
Ca10 N6 2.681115 1_555
Ca10 Ru2 2.922698 1_554
Ca10 Ru0 3.034473 1_565
Ca10 Ru0 3.034473 1_555
Ca11 N14 2.478673 1_555
Ca11 N7 2.681115 1_555
Ca11 Ru3 2.922698 1_555
Ca11 Ru1 3.034473 1_455
Ca11 Ru1 3.034473 1_465
Ca12 N4 2.440711 1_555
Ca12 N2 2.482299 1_545
Ca12 N2 2.482299 1_555
Ca13 N5 2.440711 1_555
Ca13 N3 2.482299 1_545
Ca13 N3 2.482299 1_555
Ca14 N6 2.440711 1_555
Ca14 N0 2.482299 1_555
Ca14 N0 2.482299 1_565
Ca15 N7 2.440711 1_555
Ca15 N1 2.482299 1_565
Ca15 N1 2.482299 1_555
N0 N12 1.321346 1_555
N1 N13 1.321346 1_555
N4 N8 1.355296 1_555
N5 N9 1.355296 1_555
N10 N6 1.355296 1_555
N11 N7 1.355296 1_555
N12 Ru1 1.915164 1_555
N13 Ru0 1.915164 1_555
N14 N2 1.321346 1_555
N14 Ru3 1.915164 1_555
N15 N3 1.321346 1_555
N15 Ru2 1.915164 1_555
