# generated using pymatgen
data_Ca(NiO2)2
_symmetry_space_group_name_H-M   'P 1'
_cell_length_a   6.10834330
_cell_length_b   6.10834330
_cell_length_c   6.10834330
_cell_angle_alpha   118.90148836
_cell_angle_beta   118.73475066
_cell_angle_gamma   92.05962322
_symmetry_Int_Tables_number   1
_chemical_formula_structural   Ca(NiO2)2
_chemical_formula_sum   'Ca2 Ni4 O8'
_cell_volume   163.92324021
_cell_formula_units_Z   2
loop_
 _symmetry_equiv_pos_site_id
 _symmetry_equiv_pos_as_xyz
  1  'x, y, z'
loop_
 _atom_site_type_symbol
 _atom_site_label
 _atom_site_symmetry_multiplicity
 _atom_site_fract_x
 _atom_site_fract_y
 _atom_site_fract_z
 _atom_site_occupancy
  Ca  Ca0  1  0.50000000  0.00000000  0.00000000  1
  Ca  Ca1  1  0.50000000  0.50000000  0.50000000  1
  Ni  Ni0  1  0.88926100  0.13926100  0.75000000  1
  Ni  Ni1  1  0.11073900  0.86073900  0.25000000  1
  Ni  Ni2  1  0.50000000  0.50000000  0.00000000  1
  Ni  Ni3  1  0.00000000  0.50000000  0.50000000  1
  O  O0  1  0.73801400  0.72778100  0.01023300  1
  O  O1  1  0.23262300  0.72371200  0.99108900  1
  O  O2  1  0.21754800  0.72778100  0.48976700  1
  O  O3  1  0.23262300  0.24153400  0.50891100  1
  O  O4  1  0.76737700  0.75846600  0.49108900  1
  O  O5  1  0.76737700  0.27628800  0.00891100  1
  O  O6  1  0.78245200  0.27221900  0.51023300  1
  O  O7  1  0.26198600  0.27221900  0.98976700  1
loop_
_geom_bond_atom_site_label_1
_geom_bond_atom_site_label_2
_geom_bond_distance
_geom_bond_site_symmetry_2
Ca0 O6 2.251540 1_555
Ca0 O0 2.251540 1_545
Ca0 O7 2.251540 1_554
Ca0 O2 2.251540 1_544
Ca0 O1 2.268527 1_544
Ca0 O5 2.268527 1_555
Ca1 O6 2.251540 1_555
Ca1 O0 2.251540 1_556
Ca1 O2 2.251540 1_555
Ca1 O7 2.251540 1_554
Ca1 O4 2.268527 1_555
Ca1 O3 2.268527 1_555
Ni0 O7 1.870648 1_655
Ni0 O6 1.870648 1_555
Ni0 O5 1.911402 1_556
Ni0 O4 1.911402 1_545
Ni1 O2 1.870648 1_555
Ni1 O0 1.870648 1_455
Ni1 O3 1.911402 1_565
Ni1 O1 1.911402 1_554
Ni2 O7 1.933054 1_554
Ni2 O0 1.933054 1_555
Ni2 O4 2.164392 1_555
Ni2 O1 2.164392 1_554
Ni2 O5 2.164392 1_555
Ni2 O3 2.164392 1_554
Ni3 O6 1.933054 1_455
Ni3 O2 1.933054 1_555
Ni3 O1 2.164392 1_555
Ni3 O3 2.164392 1_555
Ni3 O4 2.164392 1_455
Ni3 O5 2.164392 1_455
