# generated using pymatgen
data_LaIr2
_symmetry_space_group_name_H-M   'P 1'
_cell_length_a   5.45143271
_cell_length_b   5.45143343
_cell_length_c   5.45143376
_cell_angle_alpha   59.99999797
_cell_angle_beta   59.99999362
_cell_angle_gamma   60.00000010
_symmetry_Int_Tables_number   1
_chemical_formula_structural   LaIr2
_chemical_formula_sum   'La2 Ir4'
_cell_volume   114.55580004
_cell_formula_units_Z   2
loop_
 _symmetry_equiv_pos_site_id
 _symmetry_equiv_pos_as_xyz
  1  'x, y, z'
loop_
 _atom_site_type_symbol
 _atom_site_label
 _atom_site_symmetry_multiplicity
 _atom_site_fract_x
 _atom_site_fract_y
 _atom_site_fract_z
 _atom_site_occupancy
  La  La0  1  0.87500000  0.87500000  0.87500000  1
  La  La1  1  0.12500000  0.12500000  0.12500000  1
  Ir  Ir0  1  0.50000000  0.50000000  0.50000000  1
  Ir  Ir1  1  0.50000000  0.50000000  0.00000000  1
  Ir  Ir2  1  0.00000000  0.50000000  0.50000000  1
  Ir  Ir3  1  0.50000000  -0.00000000  0.50000000  1
loop_
_geom_bond_atom_site_label_1
_geom_bond_atom_site_label_2
_geom_bond_distance
_geom_bond_site_symmetry_2
Ir0 Ir2 2.725716 1_555
Ir0 Ir2 2.725716 1_655
Ir0 Ir3 2.725717 1_555
Ir0 Ir3 2.725717 1_565
Ir0 Ir1 2.725717 1_555
Ir0 Ir1 2.725717 1_556
Ir0 La0 3.196186 1_554
Ir0 La1 3.196186 1_556
Ir0 La1 3.196186 1_655
Ir0 La0 3.196186 1_455
Ir0 La1 3.196186 1_565
Ir0 La0 3.196186 1_545
Ir1 Ir2 2.725716 1_555
Ir1 Ir2 2.725716 1_654
Ir1 Ir3 2.725717 1_555
Ir1 Ir3 2.725717 1_564
Ir1 La0 3.196186 1_454
Ir1 La0 3.196186 1_554
Ir1 La1 3.196186 1_555
Ir1 La1 3.196186 1_655
Ir1 La0 3.196186 1_544
Ir1 La1 3.196186 1_565
Ir2 Ir3 2.725717 1_555
Ir2 Ir3 2.725717 1_465
Ir2 La1 3.196186 1_565
Ir2 La0 3.196186 1_445
Ir2 La0 3.196186 1_455
Ir2 La0 3.196186 1_454
Ir2 La1 3.196186 1_555
Ir2 La1 3.196186 1_556
Ir3 La0 3.196186 1_445
Ir3 La1 3.196186 1_655
Ir3 La1 3.196186 1_556
Ir3 La0 3.196186 1_544
Ir3 La1 3.196186 1_555
Ir3 La0 3.196186 1_545
