# generated using pymatgen
data_Gd6Mo10O39
_symmetry_space_group_name_H-M   'P 1'
_cell_length_a   11.76088688
_cell_length_b   11.76088688
_cell_length_c   14.02230548
_cell_angle_alpha   84.02864353
_cell_angle_beta   84.02864353
_cell_angle_gamma   115.89579174
_symmetry_Int_Tables_number   1
_chemical_formula_structural   Gd6Mo10O39
_chemical_formula_sum   'Gd12 Mo20 O78'
_cell_volume   1710.94114143
_cell_formula_units_Z   2
loop_
 _symmetry_equiv_pos_site_id
 _symmetry_equiv_pos_as_xyz
  1  'x, y, z'
loop_
 _atom_site_type_symbol
 _atom_site_label
 _atom_site_symmetry_multiplicity
 _atom_site_fract_x
 _atom_site_fract_y
 _atom_site_fract_z
 _atom_site_occupancy
  Gd  Gd0  1  0.64302700  0.52773100  0.41633500  1
  Gd  Gd1  1  0.47226900  0.35697300  0.08366500  1
  Gd  Gd2  1  0.35697300  0.47226900  0.58366500  1
  Gd  Gd3  1  0.52773100  0.64302700  0.91633500  1
  Gd  Gd4  1  0.97182400  0.28324400  0.35357100  1
  Gd  Gd5  1  0.71675600  0.02817600  0.14642900  1
  Gd  Gd6  1  0.02817600  0.71675600  0.64642900  1
  Gd  Gd7  1  0.28324400  0.97182400  0.85357100  1
  Gd  Gd8  1  0.06131500  0.76464100  0.08456600  1
  Gd  Gd9  1  0.23535900  0.93868500  0.41543400  1
  Gd  Gd10  1  0.93868500  0.23535900  0.91543400  1
  Gd  Gd11  1  0.76464100  0.06131500  0.58456600  1
  Mo  Mo0  1  0.31520700  0.31469000  0.36086800  1
  Mo  Mo1  1  0.68531000  0.68479300  0.13913200  1
  Mo  Mo2  1  0.68479300  0.68531000  0.63913200  1
  Mo  Mo3  1  0.31469000  0.31520700  0.86086800  1
  Mo  Mo4  1  0.07271200  0.11513500  0.13843100  1
  Mo  Mo5  1  0.88486500  0.92728800  0.36156900  1
  Mo  Mo6  1  0.92728800  0.88486500  0.86156900  1
  Mo  Mo7  1  0.11513500  0.07271200  0.63843100  1
  Mo  Mo8  1  0.81986400  0.38634900  0.13902700  1
  Mo  Mo9  1  0.61365100  0.18013600  0.36097300  1
  Mo  Mo10  1  0.18013600  0.61365100  0.86097300  1
  Mo  Mo11  1  0.38634900  0.81986400  0.63902700  1
  Mo  Mo12  1  0.99630200  0.61613300  0.38186200  1
  Mo  Mo13  1  0.38386700  0.00369800  0.11813800  1
  Mo  Mo14  1  0.00369800  0.38386700  0.61813800  1
  Mo  Mo15  1  0.61613300  0.99630200  0.88186200  1
  Mo  Mo16  1  0.25875600  0.56947800  0.16035300  1
  Mo  Mo17  1  0.43052200  0.74124400  0.33964700  1
  Mo  Mo18  1  0.74124400  0.43052200  0.83964700  1
  Mo  Mo19  1  0.56947800  0.25875600  0.66035300  1
  O  O0  1  0.84693900  0.71569100  0.11147900  1
  O  O1  1  0.28430900  0.15306100  0.38852100  1
  O  O2  1  0.15306100  0.28430900  0.88852200  1
  O  O3  1  0.71569100  0.84693900  0.61147900  1
  O  O4  1  0.17052000  0.32605500  0.38798400  1
  O  O5  1  0.67394500  0.82948000  0.11201600  1
  O  O6  1  0.82948000  0.67394500  0.61201600  1
  O  O7  1  0.32605500  0.17052000  0.88798400  1
  O  O8  1  0.63137700  0.61928100  0.26606400  1
  O  O9  1  0.38071900  0.36862300  0.23393600  1
  O  O10  1  0.36862300  0.38071900  0.73393600  1
  O  O11  1  0.61928100  0.63137700  0.76606400  1
  O  O12  1  0.57899000  0.57765000  0.06502900  1
  O  O13  1  0.42235000  0.42101000  0.43497100  1
  O  O14  1  0.42101000  0.42235000  0.93497100  1
  O  O15  1  0.57765000  0.57899000  0.56502900  1
  O  O16  1  0.03890600  0.93286700  0.36024600  1
  O  O17  1  0.06713300  0.96109400  0.13975400  1
  O  O18  1  0.96109400  0.06713300  0.63975400  1
  O  O19  1  0.93286700  0.03890600  0.86024600  1
  O  O20  1  0.77452100  0.76462000  0.41356400  1
  O  O21  1  0.23538000  0.22547900  0.08643600  1
  O  O22  1  0.22547900  0.23538000  0.58643600  1
  O  O23  1  0.76462000  0.77452100  0.91356400  1
  O  O24  1  0.04549500  0.16037300  0.25615500  1
  O  O25  1  0.83962700  0.95450500  0.24384500  1
  O  O26  1  0.95450500  0.83962700  0.74384500  1
  O  O27  1  0.16037300  0.04549500  0.75615500  1
  O  O28  1  0.95757600  0.12925300  0.06390700  1
  O  O29  1  0.87074700  0.04242400  0.43609300  1
  O  O30  1  0.04242400  0.87074700  0.93609300  1
  O  O31  1  0.12925300  0.95757600  0.56390700  1
  O  O32  1  0.67143700  0.39655600  0.14457200  1
  O  O33  1  0.60344400  0.32856300  0.35542800  1
  O  O34  1  0.32856300  0.60344400  0.85542800  1
  O  O35  1  0.39655600  0.67143700  0.64457200  1
  O  O36  1  0.94253600  0.54070900  0.08328600  1
  O  O37  1  0.45929100  0.05746400  0.41671400  1
  O  O38  1  0.05746400  0.45929100  0.91671400  1
  O  O39  1  0.54070900  0.94253600  0.58328600  1
  O  O40  1  0.85779300  0.35703600  0.25899800  1
  O  O41  1  0.64296400  0.14220700  0.24100200  1
  O  O42  1  0.14220700  0.64296400  0.74100200  1
  O  O43  1  0.35703600  0.85779300  0.75899800  1
  O  O44  1  0.82505600  0.26551500  0.06970500  1
  O  O45  1  0.73448500  0.17494400  0.43029500  1
  O  O46  1  0.17494400  0.73448500  0.93029500  1
  O  O47  1  0.26551500  0.82505600  0.56970500  1
  O  O48  1  0.02078800  0.70171800  0.26353800  1
  O  O49  1  0.29828200  0.97921200  0.23646200  1
  O  O50  1  0.97921200  0.29828200  0.73646200  1
  O  O51  1  0.70171800  0.02078800  0.76353800  1
  O  O52  1  0.05969400  0.50323400  0.37667600  1
  O  O53  1  0.49676600  0.94030600  0.12332400  1
  O  O54  1  0.94030600  0.49676600  0.62332400  1
  O  O55  1  0.50323400  0.05969400  0.87667600  1
  O  O56  1  0.82800600  0.52377200  0.42310500  1
  O  O57  1  0.47622800  0.17199400  0.07689500  1
  O  O58  1  0.17199400  0.47622800  0.57689500  1
  O  O59  1  0.52377200  0.82800600  0.92310500  1
  O  O60  1  0.06442600  0.72578300  0.46783500  1
  O  O61  1  0.27421700  0.93557400  0.03216500  1
  O  O62  1  0.93557400  0.27421700  0.53216500  1
  O  O63  1  0.72578300  0.06442600  0.96783500  1
  O  O64  1  0.34599200  0.56242400  0.05302300  1
  O  O65  1  0.43757600  0.65400800  0.44697700  1
  O  O66  1  0.65400800  0.43757600  0.94697700  1
  O  O67  1  0.56242400  0.34599200  0.55302300  1
  O  O68  1  0.20532100  0.68636000  0.13446800  1
  O  O69  1  0.31364000  0.79467900  0.36553200  1
  O  O70  1  0.79467900  0.31364000  0.86553200  1
  O  O71  1  0.68636000  0.20532100  0.63446800  1
  O  O72  1  0.12546000  0.41951600  0.20288500  1
  O  O73  1  0.58048400  0.87454000  0.29711500  1
  O  O74  1  0.87454000  0.58048400  0.79711500  1
  O  O75  1  0.41951600  0.12546000  0.70288500  1
  O  O76  1  0.37539400  0.62460600  0.25000000  1
  O  O77  1  0.62460600  0.37539400  0.75000000  1
loop_
_geom_bond_atom_site_label_1
_geom_bond_atom_site_label_2
_geom_bond_distance
_geom_bond_site_symmetry_2
Gd0 O56 2.207846 1_555
Gd0 O13 2.307558 1_555
Gd0 O8 2.309766 1_555
Gd0 O15 2.373780 1_555
Gd0 O33 2.445283 1_555
Gd0 O67 2.478023 1_555
Gd0 O20 2.521238 1_555
Gd1 O57 2.207846 1_555
Gd1 O12 2.307558 1_555
Gd1 O9 2.309766 1_555
Gd1 O14 2.373780 1_554
Gd1 O32 2.445283 1_555
Gd1 O66 2.478023 1_554
Gd1 O21 2.521238 1_555
Gd2 O58 2.207846 1_555
Gd2 O15 2.307558 1_555
Gd2 O10 2.309766 1_555
Gd2 O13 2.373780 1_555
Gd2 O35 2.445283 1_555
Gd2 O65 2.478023 1_555
Gd2 O22 2.521238 1_555
Gd3 O59 2.207846 1_555
Gd3 O14 2.307558 1_555
Gd3 O11 2.309766 1_555
Gd3 O12 2.373780 1_556
Gd3 O34 2.445283 1_555
Gd3 O64 2.478023 1_556
Gd3 O23 2.521238 1_555
Gd4 O4 2.281369 1_655
Gd4 O40 2.336145 1_555
Gd4 O52 2.403239 1_655
Gd4 O24 2.441923 1_655
Gd4 O62 2.479426 1_555
Gd4 O72 2.503930 1_655
Gd4 O45 2.560435 1_555
Gd4 O29 2.620088 1_555
Gd5 O5 2.281369 1_545
Gd5 O41 2.336145 1_555
Gd5 O53 2.403239 1_545
Gd5 O25 2.441923 1_545
Gd5 O63 2.479426 1_554
Gd5 O73 2.503930 1_545
Gd5 O44 2.560435 1_555
Gd5 O28 2.620088 1_555
Gd6 O6 2.281369 1_455
Gd6 O42 2.336145 1_555
Gd6 O54 2.403239 1_455
Gd6 O26 2.441923 1_455
Gd6 O60 2.479426 1_555
Gd6 O74 2.503930 1_455
Gd6 O47 2.560435 1_555
Gd6 O31 2.620088 1_555
Gd7 O7 2.281369 1_565
Gd7 O43 2.336145 1_555
Gd7 O55 2.403239 1_565
Gd7 O27 2.441923 1_565
Gd7 O61 2.479426 1_556
Gd7 O75 2.503930 1_565
Gd7 O46 2.560435 1_555
Gd7 O30 2.620088 1_555
Gd8 O0 2.306418 1_455
Gd8 O68 2.383308 1_555
Gd8 O36 2.385234 1_455
Gd8 O30 2.395605 1_554
Gd8 O61 2.400830 1_555
Gd8 O48 2.475790 1_555
Gd8 O17 2.487311 1_555
Gd8 O46 2.561915 1_554
Gd9 O1 2.306418 1_565
Gd9 O69 2.383308 1_555
Gd9 O37 2.385234 1_565
Gd9 O31 2.395605 1_555
Gd9 O60 2.400830 1_555
Gd9 O49 2.475790 1_555
Gd9 O16 2.487311 1_555
Gd9 O47 2.561915 1_555
Gd10 O2 2.306418 1_655
Gd10 O70 2.383308 1_555
Gd10 O38 2.385234 1_655
Gd10 O28 2.395605 1_556
Gd10 O63 2.400830 1_555
Gd10 O50 2.475790 1_555
Gd10 O19 2.487311 1_555
Gd10 O44 2.561915 1_556
Gd11 O3 2.306418 1_545
Gd11 O71 2.383308 1_555
Gd11 O39 2.385234 1_545
Gd11 O29 2.395605 1_555
Gd11 O62 2.400830 1_555
Gd11 O51 2.475790 1_555
Gd11 O18 2.487311 1_555
Gd11 O45 2.561915 1_555
Mo0 O1 1.763459 1_555
Mo0 O4 1.769934 1_555
Mo0 O9 1.793555 1_555
Mo0 O13 1.843255 1_555
Mo1 O0 1.763459 1_555
Mo1 O5 1.769934 1_555
Mo1 O8 1.793555 1_555
Mo1 O12 1.843255 1_555
Mo2 O3 1.763459 1_555
Mo2 O6 1.769934 1_555
Mo2 O11 1.793555 1_555
Mo2 O15 1.843255 1_555
Mo3 O2 1.763461 1_555
Mo3 O7 1.769934 1_555
Mo3 O10 1.793555 1_555
Mo3 O14 1.843255 1_555
Mo4 O17 1.782044 1_545
Mo4 O21 1.794453 1_555
Mo4 O24 1.825402 1_555
Mo4 O28 1.846045 1_455
Mo5 O16 1.782044 1_655
Mo5 O20 1.794453 1_555
Mo5 O25 1.825402 1_555
Mo5 O29 1.846045 1_565
Mo6 O19 1.782044 1_565
Mo6 O23 1.794453 1_555
Mo6 O26 1.825402 1_555
Mo6 O30 1.846045 1_655
Mo7 O18 1.782044 1_455
Mo7 O22 1.794453 1_555
Mo7 O27 1.825402 1_555
Mo7 O31 1.846045 1_545
Mo8 O36 1.780592 1_555
Mo8 O32 1.795670 1_555
Mo8 O40 1.821445 1_555
Mo8 O44 1.821826 1_555
Mo9 O37 1.780592 1_555
Mo9 O33 1.795670 1_555
Mo9 O41 1.821445 1_555
Mo9 O45 1.821826 1_555
Mo10 O38 1.780592 1_555
Mo10 O34 1.795670 1_555
Mo10 O42 1.821445 1_555
Mo10 O46 1.821826 1_555
Mo11 O39 1.780592 1_555
Mo11 O35 1.795670 1_555
Mo11 O43 1.821445 1_555
Mo11 O47 1.821826 1_555
Mo12 O48 1.774506 1_655
Mo12 O56 1.784715 1_555
Mo12 O52 1.788196 1_655
Mo12 O60 1.838535 1_655
Mo13 O49 1.774506 1_545
Mo13 O57 1.784715 1_555
Mo13 O53 1.788196 1_545
Mo13 O61 1.838535 1_545
Mo14 O50 1.774506 1_455
Mo14 O58 1.784715 1_555
Mo14 O54 1.788196 1_455
Mo14 O62 1.838535 1_455
Mo15 O51 1.774506 1_565
Mo15 O59 1.784715 1_555
Mo15 O55 1.788196 1_565
Mo15 O63 1.838535 1_565
Mo16 O72 1.759391 1_555
Mo16 O64 1.761711 1_555
Mo16 O68 1.764804 1_555
Mo16 O76 1.906252 1_555
Mo17 O73 1.759391 1_555
Mo17 O65 1.761711 1_555
Mo17 O69 1.764804 1_555
Mo17 O76 1.906252 1_555
Mo18 O74 1.759391 1_555
Mo18 O66 1.761711 1_555
Mo18 O70 1.764804 1_555
Mo18 O77 1.906252 1_555
Mo19 O75 1.759391 1_555
Mo19 O67 1.761711 1_555
Mo19 O71 1.764804 1_555
Mo19 O77 1.906252 1_555
