# generated using pymatgen
data_V5P3
_symmetry_space_group_name_H-M   'P 1'
_cell_length_a   6.91726089
_cell_length_b   6.91726089
_cell_length_c   4.78630856
_cell_angle_alpha   90.00000000
_cell_angle_beta   90.00000000
_cell_angle_gamma   119.99999744
_symmetry_Int_Tables_number   1
_chemical_formula_structural   V5P3
_chemical_formula_sum   'V10 P6'
_cell_volume   198.33513111
_cell_formula_units_Z   2
loop_
 _symmetry_equiv_pos_site_id
 _symmetry_equiv_pos_as_xyz
  1  'x, y, z'
loop_
 _atom_site_type_symbol
 _atom_site_label
 _atom_site_symmetry_multiplicity
 _atom_site_fract_x
 _atom_site_fract_y
 _atom_site_fract_z
 _atom_site_occupancy
  V  V0  1  0.66666700  0.33333300  -0.00000000  1
  V  V1  1  0.33333300  0.66666700  -0.00000000  1
  V  V2  1  0.33333300  0.66666700  0.50000000  1
  V  V3  1  0.66666700  0.33333300  0.50000000  1
  V  V4  1  0.74530072  0.74530072  0.75000000  1
  V  V5  1  0.25469928  -0.00000000  0.75000000  1
  V  V6  1  -0.00000000  0.25469928  0.75000000  1
  V  V7  1  0.25469928  0.25469928  0.25000000  1
  V  V8  1  0.74530072  0.00000000  0.25000000  1
  V  V9  1  0.00000000  0.74530072  0.25000000  1
  P  P0  1  0.38615339  0.38615339  0.75000000  1
  P  P1  1  0.61384661  0.00000000  0.75000000  1
  P  P2  1  0.00000000  0.61384661  0.75000000  1
  P  P3  1  0.61384661  0.61384661  0.25000000  1
  P  P4  1  0.38615339  -0.00000000  0.25000000  1
  P  P5  1  -0.00000000  0.38615339  0.25000000  1
loop_
_geom_bond_atom_site_label_1
_geom_bond_atom_site_label_2
_geom_bond_distance
_geom_bond_site_symmetry_2
P0 V5 2.352206 1_555
P0 V6 2.352206 1_555
P0 V3 2.457510 1_555
P0 V0 2.457510 1_556
P0 V1 2.457510 1_556
P0 V2 2.457510 1_555
P0 V4 2.484316 1_555
P0 V7 2.560082 1_556
P0 V7 2.560082 1_555
P1 V4 2.352206 1_545
P1 V6 2.352206 1_655
P1 V3 2.457504 1_555
P1 V0 2.457504 1_556
P1 V2 2.457506 1_545
P1 V1 2.457506 1_546
P1 V5 2.484316 1_555
P1 V8 2.560082 1_555
P1 V8 2.560082 1_556
P2 V4 2.352206 1_455
P2 V5 2.352206 1_565
P2 V1 2.457504 1_556
P2 V2 2.457504 1_555
P2 V3 2.457506 1_455
P2 V0 2.457506 1_456
P2 V6 2.484316 1_555
P2 V9 2.560082 1_555
P2 V9 2.560082 1_556
P3 V8 2.352206 1_565
P3 V9 2.352206 1_655
P3 V0 2.457510 1_555
P3 V3 2.457510 1_555
P3 V1 2.457510 1_555
P3 V2 2.457510 1_555
P3 V7 2.484316 1_555
P3 V4 2.560082 1_555
P3 V4 2.560082 1_554
P4 V7 2.352206 1_555
P4 V9 2.352206 1_545
P4 V1 2.457504 1_545
P4 V2 2.457504 1_545
P4 V0 2.457506 1_555
P4 V3 2.457506 1_555
P4 V8 2.484316 1_555
P4 V5 2.560082 1_554
P4 V5 2.560082 1_555
P5 V7 2.352206 1_555
P5 V8 2.352206 1_455
P5 V3 2.457504 1_455
P5 V0 2.457504 1_455
P5 V2 2.457506 1_555
P5 V1 2.457506 1_555
P5 V9 2.484316 1_555
P5 V6 2.560082 1_555
P5 V6 2.560082 1_554
