# generated using pymatgen
data_CaMn3Zn(SiO3)5
_symmetry_space_group_name_H-M   'P 1'
_cell_length_a   6.79726500
_cell_length_b   7.81338908
_cell_length_c   11.86004773
_cell_angle_alpha   105.37353375
_cell_angle_beta   92.00057670
_cell_angle_gamma   93.59884821
_symmetry_Int_Tables_number   1
_chemical_formula_structural   CaMn3Zn(SiO3)5
_chemical_formula_sum   'Ca2 Mn6 Zn2 Si10 O30'
_cell_volume   605.27675203
_cell_formula_units_Z   2
loop_
 _symmetry_equiv_pos_site_id
 _symmetry_equiv_pos_as_xyz
  1  'x, y, z'
loop_
 _atom_site_type_symbol
 _atom_site_label
 _atom_site_symmetry_multiplicity
 _atom_site_fract_x
 _atom_site_fract_y
 _atom_site_fract_z
 _atom_site_occupancy
  Ca  Ca0  1  0.63229700  0.04566500  0.69555400  1
  Ca  Ca1  1  0.36770300  0.95433500  0.30444600  1
  Mn  Mn0  1  0.96577500  0.88310100  0.85435000  1
  Mn  Mn1  1  0.03422500  0.11689900  0.14565000  1
  Mn  Mn2  1  0.87378400  0.68279400  0.55622900  1
  Mn  Mn3  1  0.12621600  0.31720600  0.44377100  1
  Mn  Mn4  1  0.81273000  0.49086600  0.27086700  1
  Mn  Mn5  1  0.18727000  0.50913400  0.72913300  1
  Zn  Zn0  1  0.80756300  0.31482800  0.98026500  1
  Zn  Zn1  1  0.19243700  0.68517200  0.01973500  1
  Si  Si0  1  0.75923600  0.74134600  0.08845900  1
  Si  Si1  1  0.24076400  0.25865400  0.91154100  1
  Si  Si2  1  0.84825700  0.92574200  0.34584400  1
  Si  Si3  1  0.15174300  0.07425800  0.65415600  1
  Si  Si4  1  0.63913100  0.26840400  0.47198500  1
  Si  Si5  1  0.36086900  0.73159600  0.52801500  1
  Si  Si6  1  0.70843500  0.45988400  0.74247700  1
  Si  Si7  1  0.29156500  0.54011600  0.25752300  1
  Si  Si8  1  0.50139000  0.77632100  0.87755300  1
  Si  Si9  1  0.49861000  0.22367900  0.12244700  1
  O  O0  1  0.05003900  0.16383700  0.96076400  1
  O  O1  1  0.94996100  0.83616300  0.03923600  1
  O  O2  1  0.96059600  0.95462200  0.67849500  1
  O  O3  1  0.03940400  0.04537800  0.32150500  1
  O  O4  1  0.19105500  0.60005400  0.56318000  1
  O  O5  1  0.80894500  0.39994600  0.43682000  1
  O  O6  1  0.10707700  0.40130300  0.26694500  1
  O  O7  1  0.89292300  0.59869700  0.73305500  1
  O  O8  1  0.34535900  0.07492100  0.14803500  1
  O  O9  1  0.65464100  0.92507900  0.85196500  1
  O  O10  1  0.26328500  0.79633100  0.87559400  1
  O  O11  1  0.73671500  0.20366900  0.12440600  1
  O  O12  1  0.81157900  0.54691100  0.09895800  1
  O  O13  1  0.18842100  0.45308900  0.90104200  1
  O  O14  1  0.88902700  0.75134500  0.38938600  1
  O  O15  1  0.11097300  0.24865500  0.61061400  1
  O  O16  1  0.42040900  0.25522700  0.41411200  1
  O  O17  1  0.57959100  0.74477300  0.58588800  1
  O  O18  1  0.74496400  0.32595900  0.82274900  1
  O  O19  1  0.25503600  0.67404100  0.17725100  1
  O  O20  1  0.70513200  0.86004900  0.22130400  1
  O  O21  1  0.29486800  0.13995100  0.77869600  1
  O  O22  1  0.70063900  0.05487800  0.43518800  1
  O  O23  1  0.29936100  0.94512200  0.56481200  1
  O  O24  1  0.63458700  0.31379500  0.61645600  1
  O  O25  1  0.36541300  0.68620500  0.38354400  1
  O  O26  1  0.51381200  0.57711100  0.77981800  1
  O  O27  1  0.48618800  0.42288900  0.22018200  1
  O  O28  1  0.55984100  0.73925400  0.00575100  1
  O  O29  1  0.44015900  0.26074600  0.99424900  1
loop_
_geom_bond_atom_site_label_1
_geom_bond_atom_site_label_2
_geom_bond_distance
_geom_bond_site_symmetry_2
Ca0 O9 2.297166 1_545
Ca0 O17 2.363806 1_545
Ca0 O18 2.369712 1_555
Ca0 O2 2.383528 1_545
Ca0 O24 2.511636 1_555
Ca0 O21 2.600093 1_555
Ca0 O23 2.651201 1_545
Ca1 O8 2.297166 1_565
Ca1 O16 2.363806 1_565
Ca1 O19 2.369712 1_555
Ca1 O3 2.383528 1_565
Ca1 O25 2.511636 1_555
Ca1 O20 2.600093 1_555
Ca1 O22 2.651201 1_565
Mn0 O9 2.160749 1_555
Mn0 O10 2.199943 1_655
Mn0 O0 2.248620 1_665
Mn0 O2 2.297557 1_555
Mn0 O7 2.317288 1_555
Mn0 O1 2.322098 1_556
Mn1 O8 2.160749 1_555
Mn1 O11 2.199943 1_455
Mn1 O1 2.248620 1_445
Mn1 O3 2.297557 1_555
Mn1 O6 2.317288 1_555
Mn1 O0 2.322098 1_554
Mn2 O17 2.106524 1_555
Mn2 O14 2.186879 1_555
Mn2 O2 2.260931 1_555
Mn2 O5 2.293168 1_555
Mn2 O4 2.294868 1_655
Mn2 O7 2.359897 1_555
Mn3 O16 2.106524 1_555
Mn3 O15 2.186879 1_555
Mn3 O3 2.260931 1_555
Mn3 O4 2.293168 1_555
Mn3 O5 2.294868 1_455
Mn3 O6 2.359897 1_555
Mn4 O6 2.158680 1_655
Mn4 O14 2.164870 1_555
Mn4 O12 2.195775 1_555
Mn4 O5 2.263133 1_555
Mn4 O27 2.271475 1_555
Mn4 O11 2.458609 1_555
Mn5 O7 2.158680 1_455
Mn5 O15 2.164870 1_555
Mn5 O13 2.195775 1_555
Mn5 O4 2.263133 1_555
Mn5 O26 2.271475 1_555
Mn5 O10 2.458609 1_555
O0 Si1 1.652850 1_555
O0 Zn0 2.070707 1_455
O1 Si0 1.652850 1_555
O1 Zn1 2.070707 1_655
O2 Si3 1.631567 1_665
O3 Si2 1.631567 1_445
O4 Si5 1.635415 1_555
O5 Si4 1.635415 1_555
O6 Si7 1.632389 1_555
O7 Si6 1.632389 1_555
O8 Si9 1.607874 1_555
O9 Si8 1.607874 1_555
O10 Si8 1.635687 1_555
O10 Zn1 2.168164 1_556
O11 Si9 1.635687 1_555
O11 Zn0 2.168164 1_554
O12 Si0 1.617131 1_555
O12 Zn0 1.976931 1_554
O13 Si1 1.617131 1_555
O13 Zn1 1.976931 1_556
O14 Si2 1.615785 1_555
O15 Si3 1.615785 1_555
O16 Si4 1.601278 1_555
O17 Si5 1.601278 1_555
O18 Si6 1.614716 1_555
O18 Zn0 1.927144 1_555
O19 Si7 1.614716 1_555
O19 Zn1 1.927144 1_555
O20 Si0 1.669215 1_555
O20 Si2 1.681247 1_555
O21 Si1 1.669215 1_555
O21 Si3 1.681247 1_555
O22 Si2 1.667969 1_545
O22 Si4 1.692022 1_555
O23 Si3 1.667969 1_565
O23 Si5 1.692022 1_555
O24 Si4 1.656941 1_555
O24 Si6 1.661284 1_555
O25 Si5 1.656941 1_555
O25 Si7 1.661284 1_555
O26 Si6 1.662256 1_555
O26 Si8 1.685274 1_555
O27 Si7 1.662256 1_555
O27 Si9 1.685274 1_555
O28 Si0 1.641742 1_555
O28 Si8 1.661085 1_554
O28 Zn1 2.525150 1_555
O29 Si1 1.641742 1_555
O29 Si9 1.661085 1_556
O29 Zn0 2.525150 1_555
