# generated using pymatgen
data_Zn(C4N3)2
_symmetry_space_group_name_H-M   'P 1'
_cell_length_a   12.84039102
_cell_length_b   12.83929728
_cell_length_c   5.50795901
_cell_angle_alpha   89.99489673
_cell_angle_beta   90.00271910
_cell_angle_gamma   119.99737721
_symmetry_Int_Tables_number   1
_chemical_formula_structural   Zn(C4N3)2
_chemical_formula_sum   'Zn3 C24 N18'
_cell_volume   786.41594491
_cell_formula_units_Z   3
loop_
 _symmetry_equiv_pos_site_id
 _symmetry_equiv_pos_as_xyz
  1  'x, y, z'
loop_
 _atom_site_type_symbol
 _atom_site_label
 _atom_site_symmetry_multiplicity
 _atom_site_fract_x
 _atom_site_fract_y
 _atom_site_fract_z
 _atom_site_occupancy
  Zn  Zn0  1  0.00000000  0.99998600  0.94133300  1
  Zn  Zn1  1  0.33332500  0.66666900  0.86653000  1
  Zn  Zn2  1  0.66667600  0.33334500  0.86653100  1
  C  C0  1  0.00000200  0.64635900  0.24443600  1
  C  C1  1  0.64634100  0.99997900  0.24447200  1
  C  C2  1  0.35366100  0.35363800  0.24446900  1
  C  C3  1  0.00000200  0.73500300  0.39519300  1
  C  C4  1  0.73499600  0.99996800  0.39518700  1
  C  C5  1  0.26500500  0.26497100  0.39518800  1
  C  C6  1  0.10636100  0.65495200  0.15754300  1
  C  C7  1  0.54856500  0.89362100  0.15758200  1
  C  C8  1  0.34505600  0.45141700  0.15756700  1
  C  C9  1  0.89364200  0.54859400  0.15753900  1
  C  C10  1  0.65494500  0.10636200  0.15756800  1
  C  C11  1  0.45143400  0.34505500  0.15758200  1
  C  C12  1  0.67645800  0.67650200  0.72815400  1
  C  C13  1  0.99999900  0.32352700  0.72816100  1
  C  C14  1  0.32354000  0.00004300  0.72816100  1
  C  C15  1  0.77201600  0.77201900  0.84578500  1
  C  C16  1  0.00000000  0.22796300  0.84580800  1
  C  C17  1  0.22798000  0.00000300  0.84579100  1
  C  C18  1  0.57105000  0.68034300  0.68035800  1
  C  C19  1  0.10927000  0.42895900  0.68033300  1
  C  C20  1  0.31968100  0.89074000  0.68035200  1
  C  C21  1  0.42894600  0.10928900  0.68036400  1
  C  C22  1  0.68031700  0.57105400  0.68034800  1
  C  C23  1  0.89073000  0.31968700  0.68033400  1
  N  N0  1  0.00000200  0.80964800  0.51837400  1
  N  N1  1  0.80964200  0.99995700  0.51830900  1
  N  N2  1  0.19035600  0.19031200  0.51831100  1
  N  N3  1  0.19121700  0.65603300  0.07697200  1
  N  N4  1  0.46478500  0.80876900  0.07701800  1
  N  N5  1  0.34396400  0.53519700  0.07699800  1
  N  N6  1  0.80878200  0.46481400  0.07696400  1
  N  N7  1  0.65603600  0.19123200  0.07699800  1
  N  N8  1  0.53521300  0.34398300  0.07702200  1
  N  N9  1  0.85059500  0.85057700  0.95476800  1
  N  N10  1  0.00000000  0.14939900  0.95476300  1
  N  N11  1  0.14940600  0.99998100  0.95476800  1
  N  N12  1  0.48217700  0.68260400  0.64645300  1
  N  N13  1  0.20041700  0.51783700  0.64642100  1
  N  N14  1  0.31741600  0.79959000  0.64644000  1
  N  N15  1  0.51782500  0.20042900  0.64645000  1
  N  N16  1  0.68258500  0.48217400  0.64644000  1
  N  N17  1  0.79958100  0.31741800  0.64642300  1
loop_
_geom_bond_atom_site_label_1
_geom_bond_atom_site_label_2
_geom_bond_distance
_geom_bond_site_symmetry_2
C0 C6 1.398476 1_555
C0 C9 1.398479 1_455
C0 C3 1.408902 1_555
C1 C7 1.398498 1_555
C1 C10 1.398556 1_565
C1 C4 1.408923 1_555
C2 C8 1.398560 1_555
C2 C5 1.408948 1_555
C3 N0 1.174289 1_555
C4 N1 1.174161 1_555
C5 N2 1.174191 1_555
C6 N3 1.170150 1_555
C7 N4 1.170134 1_555
C8 N5 1.170130 1_555
C9 N6 1.170207 1_555
C10 N7 1.170114 1_555
C11 N8 1.170119 1_555
C11 C2 1.398469 1_555
C12 C15 1.387346 1_555
C12 C18 1.403692 1_555
C12 C22 1.404251 1_555
C13 C16 1.387530 1_655
C13 C23 1.403991 1_555
C13 C19 1.404021 1_655
C14 C17 1.387378 1_555
C14 C21 1.403659 1_555
C14 C20 1.404203 1_545
C15 N9 1.173947 1_555
C16 N10 1.173680 1_555
C17 N11 1.173875 1_545
C18 N12 1.170930 1_555
C19 N13 1.171055 1_555
C20 N14 1.171045 1_555
C21 N15 1.171011 1_555
C22 N16 1.170998 1_555
C23 N17 1.171082 1_555
N3 Zn1 2.107794 1_554
N4 Zn1 2.107810 1_554
N5 Zn1 2.107631 1_554
N6 Zn2 2.107731 1_554
N7 Zn2 2.107644 1_554
N8 Zn2 2.107849 1_554
N9 Zn0 1.919862 1_655
N10 Zn0 1.919790 1_545
N11 Zn0 1.919887 1_555
N12 Zn1 2.184840 1_555
N13 Zn1 2.184750 1_555
N14 Zn1 2.184491 1_555
N15 Zn2 2.184831 1_555
N16 Zn2 2.184483 1_555
N17 Zn2 2.184744 1_555
