# generated using pymatgen
data_H5NO2
_symmetry_space_group_name_H-M   'P 1'
_cell_length_a   6.16762279
_cell_length_b   6.36380425
_cell_length_c   6.87797800
_cell_angle_alpha   90.00000000
_cell_angle_beta   90.00000000
_cell_angle_gamma   117.61982389
_symmetry_Int_Tables_number   1
_chemical_formula_structural   H5NO2
_chemical_formula_sum   'H20 N4 O8'
_cell_volume   239.19401617
_cell_formula_units_Z   4
loop_
 _symmetry_equiv_pos_site_id
 _symmetry_equiv_pos_as_xyz
  1  'x, y, z'
loop_
 _atom_site_type_symbol
 _atom_site_label
 _atom_site_symmetry_multiplicity
 _atom_site_fract_x
 _atom_site_fract_y
 _atom_site_fract_z
 _atom_site_occupancy
  H  H0  1  0.14227800  0.29061500  0.98812000  1
  H  H1  1  0.35772200  0.70938500  0.48812000  1
  H  H2  1  0.85772200  0.70938500  0.01188000  1
  H  H3  1  0.64227800  0.29061500  0.51188000  1
  H  H4  1  0.37658100  0.22484100  0.96843000  1
  H  H5  1  0.12341900  0.77515900  0.46843000  1
  H  H6  1  0.62341900  0.77515900  0.03157000  1
  H  H7  1  0.87658100  0.22484100  0.53157000  1
  H  H8  1  0.14655200  0.10849200  0.80218500  1
  H  H9  1  0.35344800  0.89150800  0.30218500  1
  H  H10  1  0.85344800  0.89150800  0.19781500  1
  H  H11  1  0.64655200  0.10849200  0.69781500  1
  H  H12  1  0.35051300  0.41080400  0.79634700  1
  H  H13  1  0.14948700  0.58919600  0.29634700  1
  H  H14  1  0.64948700  0.58919600  0.20365300  1
  H  H15  1  0.85051300  0.41080400  0.70365300  1
  H  H16  1  0.27170200  0.75671500  0.82155300  1
  H  H17  1  0.22829800  0.24328500  0.32155300  1
  H  H18  1  0.72829800  0.24328500  0.17844700  1
  H  H19  1  0.77170200  0.75671500  0.67844700  1
  N  N0  1  0.25396700  0.25779400  0.88616600  1
  N  N1  1  0.24603300  0.74220600  0.38616600  1
  N  N2  1  0.74603300  0.74220600  0.11383400  1
  N  N3  1  0.75396700  0.25779400  0.61383400  1
  O  O0  1  0.50340600  0.67031700  0.67783600  1
  O  O1  1  0.99659400  0.32968300  0.17783600  1
  O  O2  1  0.49659400  0.32968300  0.32216400  1
  O  O3  1  0.00340600  0.67031700  0.82216400  1
  O  O4  1  0.46474500  0.82477600  0.82205000  1
  O  O5  1  0.03525500  0.17522400  0.32205000  1
  O  O6  1  0.53525500  0.17522400  0.17795000  1
  O  O7  1  0.96474500  0.82477600  0.67795000  1
loop_
_geom_bond_atom_site_label_1
_geom_bond_atom_site_label_2
_geom_bond_distance
_geom_bond_site_symmetry_2
H0 N0 1.069246 1_555
H0 O1 1.667020 1_456
H1 N1 1.069246 1_555
H1 O0 1.667020 1_555
H2 N2 1.069246 1_555
H2 O3 1.667020 1_654
H3 N3 1.069246 1_555
H3 O2 1.667020 1_555
H4 N0 1.040699 1_555
H5 N1 1.040699 1_555
H6 N2 1.040699 1_555
H7 N3 1.040699 1_555
H8 N0 1.044823 1_555
H9 N1 1.044823 1_555
H10 N2 1.044823 1_555
H11 N3 1.044823 1_555
H12 N0 1.070864 1_555
H12 O0 1.684366 1_555
H13 N1 1.070864 1_555
H13 O1 1.684366 1_455
H14 N2 1.070864 1_555
H14 O2 1.684366 1_555
H15 N3 1.070864 1_555
H15 O3 1.684366 1_655
H16 O4 1.061616 1_555
H16 O3 1.482204 1_555
H17 O5 1.061616 1_555
H17 O2 1.482204 1_555
H18 O6 1.061616 1_555
H18 O1 1.482204 1_555
H19 O7 1.061616 1_555
H19 O0 1.482204 1_555
O0 O4 1.491384 1_555
O1 O5 1.491384 1_655
O2 O6 1.491384 1_555
O3 O7 1.491384 1_455
