# generated using pymatgen
data_AlNF4
_symmetry_space_group_name_H-M   'P 1'
_cell_length_a   3.63027200
_cell_length_b   3.63027200
_cell_length_c   6.18283500
_cell_angle_alpha   90.00000000
_cell_angle_beta   90.00000000
_cell_angle_gamma   90.00000000
_symmetry_Int_Tables_number   1
_chemical_formula_structural   AlNF4
_chemical_formula_sum   'Al1 N1 F4'
_cell_volume   81.48280834
_cell_formula_units_Z   1
loop_
 _symmetry_equiv_pos_site_id
 _symmetry_equiv_pos_as_xyz
  1  'x, y, z'
loop_
 _atom_site_type_symbol
 _atom_site_label
 _atom_site_symmetry_multiplicity
 _atom_site_fract_x
 _atom_site_fract_y
 _atom_site_fract_z
 _atom_site_occupancy
  Al  Al0  1  0.50000000  0.50000000  0.50000000  1
  N  N0  1  0.00000000  0.00000000  0.00000000  1
  F  F0  1  0.00000000  0.50000000  0.50000000  1
  F  F1  1  0.50000000  0.00000000  0.50000000  1
  F  F2  1  0.50000000  0.50000000  0.79127600  1
  F  F3  1  0.50000000  0.50000000  0.20872400  1
loop_
_geom_bond_atom_site_label_1
_geom_bond_atom_site_label_2
_geom_bond_distance
_geom_bond_site_symmetry_2
Al0 F2 1.800911 1_555
Al0 F3 1.800911 1_555
Al0 F1 1.815136 1_555
Al0 F0 1.815136 1_655
Al0 F1 1.815136 1_565
Al0 F0 1.815136 1_555
