# generated using pymatgen
data_Li9Mn2Co5O16
_symmetry_space_group_name_H-M   'P 1'
_cell_length_a   5.06982600
_cell_length_b   7.76633557
_cell_length_c   7.81630593
_cell_angle_alpha   97.43204877
_cell_angle_beta   101.86376709
_cell_angle_gamma   103.47653405
_symmetry_Int_Tables_number   1
_chemical_formula_structural   Li9Mn2Co5O16
_chemical_formula_sum   'Li9 Mn2 Co5 O16'
_cell_volume   287.76660827
_cell_formula_units_Z   1
loop_
 _symmetry_equiv_pos_site_id
 _symmetry_equiv_pos_as_xyz
  1  'x, y, z'
loop_
 _atom_site_type_symbol
 _atom_site_label
 _atom_site_symmetry_multiplicity
 _atom_site_fract_x
 _atom_site_fract_y
 _atom_site_fract_z
 _atom_site_occupancy
  Li  Li0  1  0.49653100  0.74816700  0.74251000  1
  Li  Li1  1  0.01256800  0.37994200  0.13416400  1
  Li  Li2  1  0.50076800  0.99187400  0.49678300  1
  Li  Li3  1  0.98995000  0.86943800  0.61858000  1
  Li  Li4  1  0.50241800  0.50235000  0.00807200  1
  Li  Li5  1  0.99941600  0.12458900  0.37329100  1
  Li  Li6  1  0.99757700  0.62498500  0.87577200  1
  Li  Li7  1  0.50042700  0.25683300  0.25389500  1
  Li  Li8  1  0.50089000  0.62388700  0.37578800  1
  Mn  Mn0  1  0.99970500  0.00000500  0.00051100  1
  Mn  Mn1  1  0.00169400  0.50084300  0.49651900  1
  Co  Co0  1  0.00295200  0.25020600  0.74809700  1
  Co  Co1  1  0.49429400  0.86457600  0.12994400  1
  Co  Co2  1  0.50229300  0.12657600  0.87584300  1
  Co  Co3  1  0.99204200  0.74941100  0.25857100  1
  Co  Co4  1  0.49994700  0.38303600  0.61776000  1
  O  O0  1  0.76611800  0.76598200  0.00458500  1
  O  O1  1  0.23651000  0.38202600  0.39031200  1
  O  O2  1  0.76523300  0.00469900  0.76801000  1
  O  O3  1  0.24982100  0.89700800  0.88314000  1
  O  O4  1  0.77506900  0.50203400  0.26531800  1
  O  O5  1  0.25483600  0.14166800  0.63596200  1
  O  O6  1  0.25427000  0.64528100  0.12623400  1
  O  O7  1  0.75995500  0.26295800  0.50643300  1
  O  O8  1  0.22651400  0.73524900  0.49588800  1
  O  O9  1  0.74324500  0.35614500  0.86728400  1
  O  O10  1  0.23713300  0.99785000  0.22869100  1
  O  O11  1  0.75905900  0.87079500  0.36192200  1
  O  O12  1  0.23480500  0.49486700  0.73342000  1
  O  O13  1  0.75193400  0.10581600  0.11123400  1
  O  O14  1  0.75558200  0.60409900  0.62102200  1
  O  O15  1  0.23644200  0.23680200  0.99444600  1
loop_
_geom_bond_atom_site_label_1
_geom_bond_atom_site_label_2
_geom_bond_distance
_geom_bond_site_symmetry_2
Li0 O12 2.084246 1_555
Li0 O2 2.094144 1_565
Li0 O8 2.097835 1_555
Li0 O0 2.184198 1_556
Li0 O14 2.191191 1_555
Li0 O3 2.240403 1_555
Li1 O4 2.046466 1_455
Li1 O1 2.084759 1_555
Li1 O15 2.121405 1_554
Li1 O6 2.153893 1_555
Li1 O13 2.191646 1_455
Li1 O9 2.204882 1_454
Li2 O11 2.143648 1_555
Li2 O8 2.146225 1_555
Li2 O7 2.189409 1_565
Li2 O5 2.235576 1_565
Li2 O2 2.239733 1_565
Li2 O10 2.254363 1_555
Li3 O8 2.059396 1_655
Li3 O11 2.107257 1_555
Li3 O14 2.130018 1_555
Li3 O2 2.133822 1_565
Li3 O3 2.165999 1_655
Li3 O5 2.195264 1_665
Li4 O6 2.128708 1_555
Li4 O15 2.161210 1_554
Li4 O0 2.175717 1_555
Li4 O4 2.194028 1_555
Li4 O9 2.205984 1_554
Li4 O12 2.277309 1_554
Li5 O11 2.041693 1_545
Li5 O1 2.050664 1_655
Li5 O10 2.126953 1_645
Li5 O7 2.133053 1_555
Li5 O13 2.138195 1_555
Li5 O5 2.160109 1_655
Li6 O14 2.077411 1_555
Li6 O6 2.080388 1_656
Li6 O0 2.095068 1_556
Li6 O12 2.128744 1_655
Li6 O9 2.168068 1_555
Li6 O3 2.186527 1_655
Li7 O4 2.059648 1_555
Li7 O10 2.098605 1_545
Li7 O7 2.123316 1_555
Li7 O15 2.152510 1_554
Li7 O1 2.190285 1_555
Li7 O13 2.277757 1_555
Li8 O1 2.069296 1_555
Li8 O11 2.084282 1_555
Li8 O8 2.109941 1_555
Li8 O4 2.113909 1_555
Li8 O14 2.125125 1_555
Li8 O6 2.138596 1_555
Mn0 O0 1.932365 1_545
Mn0 O13 1.935552 1_555
Mn0 O10 1.940249 1_645
Mn0 O15 1.960105 1_654
Mn0 O3 1.962313 1_644
Mn0 O2 1.966235 1_554
Mn1 O8 1.910706 1_555
Mn1 O1 1.917833 1_555
Mn1 O4 1.934290 1_455
Mn1 O14 1.977554 1_455
Mn1 O7 1.985450 1_455
Mn1 O12 1.993900 1_555
Co0 O5 1.969854 1_555
Co0 O12 2.018941 1_555
Co0 O9 2.022228 1_455
Co0 O2 2.048178 1_455
Co0 O7 2.060092 1_455
Co0 O15 2.071689 1_555
Co1 O6 1.840921 1_555
Co1 O11 2.009540 1_555
Co1 O10 2.050101 1_555
Co1 O13 2.060705 1_565
Co1 O0 2.073289 1_555
Co1 O3 2.146895 1_554
Co2 O9 1.929982 1_555
Co2 O3 1.952695 1_545
Co2 O2 2.055990 1_555
Co2 O13 2.056066 1_556
Co2 O15 2.062781 1_555
Co2 O5 2.064323 1_555
Co3 O11 1.910706 1_555
Co3 O4 1.992212 1_555
Co3 O8 2.018184 1_655
Co3 O6 2.083636 1_655
Co3 O10 2.107080 1_655
Co3 O0 2.114117 1_555
Co4 O14 1.888358 1_555
Co4 O1 1.989886 1_555
Co4 O5 2.033307 1_555
Co4 O7 2.049190 1_555
Co4 O12 2.054077 1_555
Co4 O9 2.145985 1_555
