# generated using pymatgen
data_ZnH8C3(NO3)2
_symmetry_space_group_name_H-M   'P 1'
_cell_length_a   7.82985300
_cell_length_b   8.78818600
_cell_length_c   11.67517500
_cell_angle_alpha   90.00000000
_cell_angle_beta   90.00000000
_cell_angle_gamma   90.00000000
_symmetry_Int_Tables_number   1
_chemical_formula_structural   ZnH8C3(NO3)2
_chemical_formula_sum   'Zn4 H32 C12 N8 O24'
_cell_volume   803.37117952
_cell_formula_units_Z   4
loop_
 _symmetry_equiv_pos_site_id
 _symmetry_equiv_pos_as_xyz
  1  'x, y, z'
loop_
 _atom_site_type_symbol
 _atom_site_label
 _atom_site_symmetry_multiplicity
 _atom_site_fract_x
 _atom_site_fract_y
 _atom_site_fract_z
 _atom_site_occupancy
  Zn  Zn0  1  0.99952600  0.97113600  0.88853000  1
  Zn  Zn1  1  0.00047400  0.02886400  0.38853000  1
  Zn  Zn2  1  0.49952600  0.52886400  0.38853000  1
  Zn  Zn3  1  0.50047400  0.47113600  0.88853000  1
  H  H0  1  0.68438700  0.16840200  0.89530200  1
  H  H1  1  0.31561300  0.83159800  0.39530200  1
  H  H2  1  0.18438700  0.33159800  0.39530200  1
  H  H3  1  0.81561300  0.66840200  0.89530200  1
  H  H4  1  0.23260500  0.23655300  0.83933500  1
  H  H5  1  0.76739500  0.76344700  0.33933500  1
  H  H6  1  0.73260500  0.26344700  0.33933500  1
  H  H7  1  0.26739500  0.73655300  0.83933500  1
  H  H8  1  0.92311500  0.97190000  0.64124500  1
  H  H9  1  0.07688500  0.02810000  0.14124500  1
  H  H10  1  0.42311500  0.52810000  0.14124500  1
  H  H11  1  0.57688500  0.47190000  0.64124500  1
  H  H12  1  0.12892400  0.42564500  0.68997300  1
  H  H13  1  0.87107600  0.57435500  0.18997300  1
  H  H14  1  0.62892400  0.07435500  0.18997300  1
  H  H15  1  0.37107600  0.92564500  0.68997300  1
  H  H16  1  0.91524000  0.42231300  0.72156000  1
  H  H17  1  0.08476000  0.57768700  0.22156000  1
  H  H18  1  0.41524000  0.07768700  0.22156000  1
  H  H19  1  0.58476000  0.92231300  0.72156000  1
  H  H20  1  0.98289800  0.35642300  0.59219200  1
  H  H21  1  0.01710200  0.64357700  0.09219200  1
  H  H22  1  0.48289800  0.14357700  0.09219200  1
  H  H23  1  0.51710200  0.85642300  0.59219200  1
  H  H24  1  0.10228200  0.60382500  0.56324200  1
  H  H25  1  0.89771800  0.39617500  0.06324200  1
  H  H26  1  0.60228200  0.89617500  0.06324200  1
  H  H27  1  0.39771800  0.10382500  0.56324200  1
  H  H28  1  0.89220100  0.58826800  0.55554400  1
  H  H29  1  0.10779900  0.41173200  0.05554400  1
  H  H30  1  0.39220100  0.91173200  0.05554400  1
  H  H31  1  0.60779900  0.08826800  0.55554400  1
  C  C0  1  0.77664500  0.24022000  0.84850000  1
  C  C1  1  0.22335500  0.75978000  0.34850000  1
  C  C2  1  0.27664500  0.25978000  0.34850000  1
  C  C3  1  0.72335500  0.74022000  0.84850000  1
  C  C4  1  0.28975000  0.18797000  0.91765200  1
  C  C5  1  0.71025000  0.81203000  0.41765200  1
  C  C6  1  0.78975000  0.31203000  0.41765200  1
  C  C7  1  0.21025000  0.68797000  0.91765200  1
  C  C8  1  0.06397100  0.97038200  0.63847900  1
  C  C9  1  0.93602900  0.02961800  0.13847900  1
  C  C10  1  0.56397100  0.52961800  0.13847900  1
  C  C11  1  0.43602900  0.47038200  0.63847900  1
  N  N0  1  0.00526900  0.43781800  0.65629600  1
  N  N1  1  0.99473100  0.56218200  0.15629600  1
  N  N2  1  0.50526900  0.06218200  0.15629600  1
  N  N3  1  0.49473100  0.93781800  0.65629600  1
  N  N4  1  0.99340500  0.59145100  0.61156500  1
  N  N5  1  0.00659500  0.40854900  0.11156500  1
  N  N6  1  0.49340500  0.90854900  0.11156500  1
  N  N7  1  0.50659500  0.09145100  0.61156500  1
  O  O0  1  0.92197800  0.18532800  0.82430000  1
  O  O1  1  0.07802200  0.81467200  0.32430000  1
  O  O2  1  0.42197800  0.31467200  0.32430000  1
  O  O3  1  0.57802200  0.68532800  0.82430000  1
  O  O4  1  0.73238700  0.37535000  0.82143700  1
  O  O5  1  0.26761300  0.62465000  0.32143700  1
  O  O6  1  0.23238700  0.12465000  0.32143700  1
  O  O7  1  0.76761300  0.87535000  0.82143700  1
  O  O8  1  0.22593800  0.06755600  0.95965700  1
  O  O9  1  0.77406200  0.93244400  0.45965700  1
  O  O10  1  0.72593800  0.43244400  0.45965700  1
  O  O11  1  0.27406200  0.56755600  0.95965700  1
  O  O12  1  0.41763500  0.25688800  0.96135200  1
  O  O13  1  0.58236500  0.74311200  0.46135200  1
  O  O14  1  0.91763500  0.24311200  0.46135200  1
  O  O15  1  0.08236500  0.75688800  0.96135200  1
  O  O16  1  0.14471500  0.94891600  0.73198300  1
  O  O17  1  0.85528500  0.05108400  0.23198300  1
  O  O18  1  0.64471500  0.55108400  0.23198300  1
  O  O19  1  0.35528500  0.44891600  0.73198300  1
  O  O20  1  0.13788900  0.98972700  0.54276600  1
  O  O21  1  0.86211100  0.01027300  0.04276600  1
  O  O22  1  0.63788900  0.51027300  0.04276600  1
  O  O23  1  0.36211100  0.48972700  0.54276600  1
loop_
_geom_bond_atom_site_label_1
_geom_bond_atom_site_label_2
_geom_bond_distance
_geom_bond_site_symmetry_2
H12 N0 1.050453 1_555
H13 N1 1.050453 1_555
H14 N2 1.050453 1_555
H15 N3 1.050453 1_555
H16 N0 1.046932 1_655
H17 N1 1.046932 1_455
H18 N2 1.046932 1_555
H19 N3 1.046932 1_555
H20 N0 1.049999 1_655
H21 N1 1.049999 1_455
H22 N2 1.049999 1_555
H23 N3 1.049999 1_555
H24 N4 1.028039 1_455
H25 N5 1.028039 1_655
H26 N6 1.028039 1_555
H27 N7 1.028039 1_555
H28 N4 1.027856 1_555
H29 N5 1.027856 1_555
H30 N6 1.027856 1_555
H31 N7 1.027856 1_555
C0 H0 1.103966 1_555
C0 O0 1.267848 1_555
C0 O4 1.276788 1_555
C1 H1 1.103966 1_555
C1 O1 1.267848 1_555
C1 O5 1.276788 1_555
C2 H2 1.103966 1_555
C2 O2 1.267848 1_555
C2 O6 1.276788 1_555
C3 H3 1.103966 1_555
C3 O3 1.267848 1_555
C3 O7 1.276788 1_555
C4 H4 1.103882 1_555
C4 O8 1.268849 1_555
C4 O12 1.276629 1_555
C5 H5 1.103882 1_555
C5 O9 1.268849 1_555
C5 O13 1.276629 1_555
C6 H6 1.103882 1_555
C6 O10 1.268849 1_555
C6 O14 1.276629 1_555
C7 H7 1.103882 1_555
C7 O11 1.268849 1_555
C7 O15 1.276629 1_555
C8 H8 1.103435 1_455
C8 O20 1.269884 1_555
C8 O16 1.275554 1_555
C9 H9 1.103435 1_655
C9 O21 1.269884 1_555
C9 O17 1.275554 1_555
C10 H10 1.103435 1_555
C10 O22 1.269884 1_555
C10 O18 1.275554 1_555
C11 H11 1.103435 1_555
C11 O23 1.269884 1_555
C11 O19 1.275554 1_555
O0 Zn0 2.115254 1_545
O1 Zn1 2.115254 1_565
O2 Zn2 2.115254 1_555
O3 Zn3 2.115254 1_555
O4 Zn3 2.149300 1_555
O5 Zn2 2.149300 1_555
O6 Zn1 2.149300 1_555
O7 Zn0 2.149300 1_555
O8 Zn0 2.133151 1_445
O9 Zn1 2.133151 1_665
O10 Zn2 2.133151 1_555
O11 Zn3 2.133151 1_555
O12 Zn3 2.165338 1_555
O13 Zn2 2.165338 1_555
O14 Zn1 2.165338 1_655
O15 Zn0 2.165338 1_455
O16 Zn0 2.161250 1_455
O17 Zn1 2.161250 1_655
O18 Zn2 2.161250 1_555
O19 Zn3 2.161250 1_555
O20 Zn1 2.125695 1_565
O21 Zn0 2.125695 1_544
O22 Zn3 2.125695 1_554
O23 Zn2 2.125695 1_555
