# generated using pymatgen
data_Mg14AlSiO16
_symmetry_space_group_name_H-M   'P 1'
_cell_length_a   4.21541200
_cell_length_b   8.46354700
_cell_length_c   8.90968300
_cell_angle_alpha   90.00000000
_cell_angle_beta   90.00000000
_cell_angle_gamma   90.00000000
_symmetry_Int_Tables_number   1
_chemical_formula_structural   Mg14AlSiO16
_chemical_formula_sum   'Mg14 Al1 Si1 O16'
_cell_volume   317.87376818
_cell_formula_units_Z   1
loop_
 _symmetry_equiv_pos_site_id
 _symmetry_equiv_pos_as_xyz
  1  'x, y, z'
loop_
 _atom_site_type_symbol
 _atom_site_label
 _atom_site_symmetry_multiplicity
 _atom_site_fract_x
 _atom_site_fract_y
 _atom_site_fract_z
 _atom_site_occupancy
  Mg  Mg0  1  0.00000000  0.50000000  0.00000000  1
  Mg  Mg1  1  0.00000000  0.50000000  0.50000000  1
  Mg  Mg2  1  0.50000000  0.00000000  0.24929900  1
  Mg  Mg3  1  0.50000000  0.00000000  0.75070100  1
  Mg  Mg4  1  0.50000000  0.50000000  0.25038400  1
  Mg  Mg5  1  0.50000000  0.50000000  0.74961600  1
  Mg  Mg6  1  0.50000000  0.25035000  0.00000000  1
  Mg  Mg7  1  0.50000000  0.25212800  0.50000000  1
  Mg  Mg8  1  0.50000000  0.74965000  0.00000000  1
  Mg  Mg9  1  0.50000000  0.74787200  0.50000000  1
  Mg  Mg10  1  0.00000000  0.24661200  0.25104800  1
  Mg  Mg11  1  0.00000000  0.24661200  0.74895200  1
  Mg  Mg12  1  0.00000000  0.75338800  0.25104800  1
  Mg  Mg13  1  0.00000000  0.75338800  0.74895200  1
  Al  Al0  1  0.00000000  0.00000000  0.00000000  1
  Si  Si0  1  0.00000000  0.00000000  0.50000000  1
  O  O0  1  0.00000000  0.24380800  0.00000000  1
  O  O1  1  0.00000000  0.26268700  0.50000000  1
  O  O2  1  0.00000000  0.75619200  0.00000000  1
  O  O3  1  0.00000000  0.73731300  0.50000000  1
  O  O4  1  0.50000000  0.24890800  0.25106800  1
  O  O5  1  0.50000000  0.24890800  0.74893200  1
  O  O6  1  0.50000000  0.75109200  0.25106800  1
  O  O7  1  0.50000000  0.75109200  0.74893200  1
  O  O8  1  0.50000000  0.00000000  0.00000000  1
  O  O9  1  0.50000000  0.00000000  0.50000000  1
  O  O10  1  0.50000000  0.50000000  0.00000000  1
  O  O11  1  0.50000000  0.50000000  0.50000000  1
  O  O12  1  0.00000000  0.00000000  0.19895200  1
  O  O13  1  0.00000000  0.00000000  0.80104800  1
  O  O14  1  0.00000000  0.50000000  0.24465300  1
  O  O15  1  0.00000000  0.50000000  0.75534700  1
loop_
_geom_bond_atom_site_label_1
_geom_bond_atom_site_label_2
_geom_bond_distance
_geom_bond_site_symmetry_2
Mg0 O10 2.107706 1_455
Mg0 O10 2.107706 1_555
Mg0 O0 2.168293 1_555
Mg0 O2 2.168293 1_555
Mg0 O15 2.179781 1_554
Mg0 O14 2.179781 1_555
Mg1 O1 2.008510 1_555
Mg1 O3 2.008510 1_555
Mg1 O11 2.107706 1_555
Mg1 O11 2.107706 1_455
Mg1 O14 2.275061 1_555
Mg1 O15 2.275061 1_555
Mg2 O4 2.106704 1_555
Mg2 O6 2.106704 1_545
Mg2 O12 2.154912 1_555
Mg2 O12 2.154912 1_655
Mg2 O8 2.221175 1_555
Mg2 O9 2.233666 1_555
Mg3 O5 2.106704 1_555
Mg3 O7 2.106704 1_545
Mg3 O13 2.154912 1_555
Mg3 O13 2.154912 1_655
Mg3 O8 2.221175 1_556
Mg3 O9 2.233666 1_555
Mg4 O14 2.108324 1_555
Mg4 O14 2.108324 1_655
Mg4 O4 2.125138 1_555
Mg4 O6 2.125138 1_555
Mg4 O11 2.223999 1_555
Mg4 O10 2.230842 1_555
Mg5 O15 2.108324 1_555
Mg5 O15 2.108324 1_655
Mg5 O5 2.125138 1_555
Mg5 O7 2.125138 1_555
Mg5 O11 2.223999 1_555
Mg5 O10 2.230842 1_556
Mg6 O0 2.108433 1_555
Mg6 O0 2.108433 1_655
Mg6 O10 2.112925 1_555
Mg6 O8 2.118849 1_555
Mg6 O5 2.236970 1_554
Mg6 O4 2.236970 1_555
Mg7 O11 2.097876 1_555
Mg7 O1 2.109600 1_655
Mg7 O1 2.109600 1_555
Mg7 O9 2.133897 1_555
Mg7 O4 2.218073 1_555
Mg7 O5 2.218073 1_555
Mg8 O2 2.108433 1_555
Mg8 O2 2.108433 1_655
Mg8 O10 2.112925 1_555
Mg8 O8 2.118849 1_565
Mg8 O7 2.236970 1_554
Mg8 O6 2.236970 1_555
Mg9 O11 2.097876 1_555
Mg9 O3 2.109600 1_655
Mg9 O3 2.109600 1_555
Mg9 O9 2.133897 1_565
Mg9 O6 2.218073 1_555
Mg9 O7 2.218073 1_555
Mg10 O4 2.107796 1_555
Mg10 O4 2.107796 1_455
Mg10 O12 2.138200 1_555
Mg10 O14 2.145318 1_555
Mg10 O1 2.222252 1_555
Mg10 O0 2.236884 1_555
Mg11 O5 2.107796 1_555
Mg11 O5 2.107796 1_455
Mg11 O13 2.138200 1_555
Mg11 O15 2.145318 1_555
Mg11 O1 2.222252 1_555
Mg11 O0 2.236884 1_556
Mg12 O6 2.107796 1_455
Mg12 O6 2.107796 1_555
Mg12 O12 2.138200 1_565
Mg12 O14 2.145318 1_555
Mg12 O3 2.222252 1_555
Mg12 O2 2.236884 1_555
Mg13 O7 2.107796 1_555
Mg13 O7 2.107796 1_455
Mg13 O13 2.138200 1_565
Mg13 O15 2.145318 1_555
Mg13 O3 2.222252 1_555
Mg13 O2 2.236884 1_556
Al0 O12 1.772599 1_555
Al0 O13 1.772599 1_554
Al0 O0 2.063480 1_555
Al0 O2 2.063480 1_545
Al0 O8 2.107706 1_555
Al0 O8 2.107706 1_455
O1 Si0 2.223264 1_555
O3 Si0 2.223264 1_565
O9 Si0 2.107706 1_655
O9 Si0 2.107706 1_555
