# generated using pymatgen
data_Yb3InS6
_symmetry_space_group_name_H-M   'P 1'
_cell_length_a   3.87799500
_cell_length_b   14.38086900
_cell_length_c   16.13845700
_cell_angle_alpha   90.00000000
_cell_angle_beta   90.00000000
_cell_angle_gamma   90.00000000
_symmetry_Int_Tables_number   1
_chemical_formula_structural   Yb3InS6
_chemical_formula_sum   'Yb12 In4 S24'
_cell_volume   900.02460910
_cell_formula_units_Z   4
loop_
 _symmetry_equiv_pos_site_id
 _symmetry_equiv_pos_as_xyz
  1  'x, y, z'
loop_
 _atom_site_type_symbol
 _atom_site_label
 _atom_site_symmetry_multiplicity
 _atom_site_fract_x
 _atom_site_fract_y
 _atom_site_fract_z
 _atom_site_occupancy
  Yb  Yb0  1  0.25316900  0.99358800  0.78222500  1
  Yb  Yb1  1  0.25316900  0.00641200  0.21777500  1
  Yb  Yb2  1  0.74683100  0.50641200  0.28222500  1
  Yb  Yb3  1  0.74683100  0.49358800  0.71777500  1
  Yb  Yb4  1  0.23521500  0.23384600  0.62127000  1
  Yb  Yb5  1  0.23521500  0.76615400  0.37873000  1
  Yb  Yb6  1  0.76478500  0.26615400  0.12127000  1
  Yb  Yb7  1  0.76478500  0.73384600  0.87873000  1
  Yb  Yb8  1  0.75470100  0.32420900  0.87232600  1
  Yb  Yb9  1  0.75470100  0.67579100  0.12767400  1
  Yb  Yb10  1  0.24529900  0.17579100  0.37232600  1
  Yb  Yb11  1  0.24529900  0.82420900  0.62767400  1
  In  In0  1  0.75439300  0.00000000  0.50000000  1
  In  In1  1  0.24560700  0.50000000  0.00000000  1
  In  In2  1  0.28282600  0.50000000  0.50000000  1
  In  In3  1  0.71717400  0.00000000  0.00000000  1
  S  S0  1  0.78002600  0.40004700  0.56311400  1
  S  S1  1  0.78002600  0.59995300  0.43688600  1
  S  S2  1  0.21997400  0.09995300  0.06311400  1
  S  S3  1  0.21997400  0.90004700  0.93688600  1
  S  S4  1  0.26199900  0.31452500  0.00059700  1
  S  S5  1  0.26199900  0.68547500  0.99940300  1
  S  S6  1  0.73800100  0.18547500  0.50059700  1
  S  S7  1  0.73800100  0.81452500  0.49940300  1
  S  S8  1  0.82250700  0.13214600  0.86239600  1
  S  S9  1  0.82250700  0.86785400  0.13760400  1
  S  S10  1  0.17749300  0.36785400  0.36239600  1
  S  S11  1  0.17749300  0.63214600  0.63760400  1
  S  S12  1  0.74529800  0.13225600  0.73481200  1
  S  S13  1  0.74529800  0.86774400  0.26518800  1
  S  S14  1  0.25470200  0.36774400  0.23481200  1
  S  S15  1  0.25470200  0.63225600  0.76518800  1
  S  S16  1  0.25108700  0.36096900  0.75346000  1
  S  S17  1  0.25108700  0.63903100  0.24654000  1
  S  S18  1  0.74891300  0.13903100  0.25346000  1
  S  S19  1  0.74891300  0.86096900  0.74654000  1
  S  S20  1  0.24989300  0.01894300  0.60830900  1
  S  S21  1  0.24989300  0.98105700  0.39169100  1
  S  S22  1  0.75010700  0.48105700  0.10830900  1
  S  S23  1  0.75010700  0.51894300  0.89169100  1
loop_
_geom_bond_atom_site_label_1
_geom_bond_atom_site_label_2
_geom_bond_distance
_geom_bond_site_symmetry_2
In0 S20 2.611867 1_655
In0 S21 2.611867 1_645
In0 S21 2.637650 1_545
In0 S20 2.637650 1_555
In0 S7 2.668066 1_545
In0 S6 2.668066 1_555
In1 S22 2.611867 1_455
In1 S23 2.611867 1_454
In1 S23 2.637650 1_554
In1 S22 2.637650 1_555
In1 S5 2.668066 1_554
In1 S4 2.668066 1_555
In2 S1 2.611770 1_555
In2 S0 2.611770 1_555
In2 S1 2.627843 1_455
In2 S0 2.627843 1_455
In2 S11 2.951247 1_555
In2 S10 2.951247 1_555
In3 S2 2.611770 1_555
In3 S3 2.611770 1_544
In3 S3 2.627843 1_644
In3 S2 2.627843 1_655
In3 S8 2.951247 1_554
In3 S9 2.951247 1_545
S0 Yb3 2.838327 1_555
S0 Yb4 3.116011 1_655
S0 Yb4 3.325257 1_555
S1 Yb2 2.838327 1_555
S1 Yb5 3.116011 1_655
S1 Yb5 3.325257 1_555
S2 Yb1 2.838327 1_555
S2 Yb6 3.116011 1_455
S2 Yb6 3.325257 1_555
S3 Yb0 2.838327 1_555
S3 Yb7 3.116011 1_455
S3 Yb7 3.325257 1_555
S4 Yb8 2.820541 1_554
S4 Yb6 2.827450 1_455
S4 Yb6 2.842230 1_555
S4 Yb8 2.859188 1_454
S5 Yb9 2.820541 1_556
S5 Yb7 2.827450 1_455
S5 Yb7 2.842230 1_555
S5 Yb9 2.859188 1_456
S6 Yb10 2.820541 1_555
S6 Yb4 2.827450 1_655
S6 Yb4 2.842230 1_555
S6 Yb10 2.859188 1_655
S7 Yb11 2.820541 1_555
S7 Yb5 2.827450 1_655
S7 Yb5 2.842230 1_555
S7 Yb11 2.859188 1_655
S8 Yb8 2.779146 1_555
S8 Yb0 2.904076 1_645
S8 Yb0 3.243329 1_545
S9 Yb9 2.779146 1_555
S9 Yb1 2.904076 1_665
S9 Yb1 3.243329 1_565
S10 S14 2.080666 1_555
S10 Yb10 2.779146 1_555
S10 Yb2 2.904076 1_455
S10 Yb2 3.243329 1_555
S11 S15 2.080666 1_555
S11 Yb11 2.779146 1_555
S11 Yb3 2.904076 1_455
S11 Yb3 3.243329 1_555
S12 S8 2.080666 1_555
S12 Yb0 2.864343 1_545
S12 Yb0 2.905375 1_645
S12 Yb4 3.016894 1_655
S12 Yb4 3.066745 1_555
S13 S9 2.080666 1_555
S13 Yb1 2.864343 1_565
S13 Yb1 2.905375 1_665
S13 Yb5 3.016894 1_655
S13 Yb5 3.066745 1_555
S14 Yb2 2.864343 1_555
S14 Yb2 2.905375 1_455
S14 Yb6 3.016894 1_455
S14 Yb6 3.066745 1_555
S15 Yb3 2.864343 1_555
S15 Yb3 2.905375 1_455
S15 Yb7 3.016894 1_455
S15 Yb7 3.066745 1_555
S16 Yb8 2.768564 1_455
S16 Yb3 2.768567 1_555
S16 Yb8 2.788126 1_555
S16 Yb3 2.791590 1_455
S16 Yb4 2.810166 1_555
S17 Yb9 2.768564 1_455
S17 Yb2 2.768567 1_555
S17 Yb9 2.788126 1_555
S17 Yb2 2.791590 1_455
S17 Yb5 2.810166 1_555
S18 Yb10 2.768564 1_655
S18 Yb1 2.768567 1_555
S18 Yb10 2.788126 1_555
S18 Yb1 2.791590 1_655
S18 Yb6 2.810166 1_555
S19 Yb11 2.768564 1_655
S19 Yb0 2.768567 1_555
S19 Yb11 2.788126 1_555
S19 Yb0 2.791590 1_655
S19 Yb7 2.810166 1_555
S20 Yb11 2.817885 1_545
S20 Yb0 2.830350 1_545
S20 Yb4 3.098085 1_555
S21 Yb10 2.817885 1_565
S21 Yb1 2.830350 1_565
S21 Yb5 3.098085 1_555
S22 Yb9 2.817885 1_555
S22 Yb2 2.830350 1_555
S22 Yb6 3.098085 1_555
S23 Yb8 2.817885 1_555
S23 Yb3 2.830350 1_555
S23 Yb7 3.098085 1_555
