# generated using pymatgen
data_Sm2Ag2O5
_symmetry_space_group_name_H-M   'P 1'
_cell_length_a   9.09207578
_cell_length_b   9.09207578
_cell_length_c   9.09207578
_cell_angle_alpha   143.41509584
_cell_angle_beta   141.86354720
_cell_angle_gamma   53.87727171
_symmetry_Int_Tables_number   1
_chemical_formula_structural   Sm2Ag2O5
_chemical_formula_sum   'Sm4 Ag4 O10'
_cell_volume   274.82346063
_cell_formula_units_Z   2
loop_
 _symmetry_equiv_pos_site_id
 _symmetry_equiv_pos_as_xyz
  1  'x, y, z'
loop_
 _atom_site_type_symbol
 _atom_site_label
 _atom_site_symmetry_multiplicity
 _atom_site_fract_x
 _atom_site_fract_y
 _atom_site_fract_z
 _atom_site_occupancy
  Sm  Sm0  1  0.87477000  0.39979700  0.51696800  1
  Sm  Sm1  1  0.12523000  0.64219800  0.52502600  1
  Sm  Sm2  1  0.38282800  0.89979700  0.52502600  1
  Sm  Sm3  1  0.61717200  0.14219800  0.51696800  1
  Ag  Ag0  1  0.00000000  0.98919900  0.98919900  1
  Ag  Ag1  1  0.50000000  0.48919900  0.98919900  1
  Ag  Ag2  1  0.76521100  0.77564600  0.04085700  1
  Ag  Ag3  1  0.23478900  0.27564600  0.01043500  1
  O  O0  1  0.77853400  0.79603900  0.48648600  1
  O  O1  1  0.22146600  0.70795300  0.01750600  1
  O  O2  1  0.80955300  0.29603900  0.01750600  1
  O  O3  1  0.19044700  0.20795300  0.48648600  1
  O  O4  1  0.74673400  0.78558300  0.78652900  1
  O  O5  1  0.25326600  0.03979500  0.03884900  1
  O  O6  1  0.49905400  0.28558300  0.03884900  1
  O  O7  1  0.50094600  0.53979500  0.78652900  1
  O  O8  1  0.83798700  0.19979000  0.53777700  1
  O  O9  1  0.16201300  0.69979000  0.36180400  1
loop_
_geom_bond_atom_site_label_1
_geom_bond_atom_site_label_2
_geom_bond_distance
_geom_bond_site_symmetry_2
Ag0 O2 2.167938 1_466
Ag0 O3 2.167938 1_566
Ag0 O1 2.197831 1_556
Ag0 O0 2.197835 1_455
Ag0 O5 2.235650 1_566
Ag0 O4 2.235650 1_455
Ag1 O0 2.167941 1_556
Ag1 O1 2.167945 1_556
Ag1 O2 2.197833 1_556
Ag1 O3 2.197833 1_555
Ag1 O7 2.235650 1_555
Ag1 O6 2.235650 1_556
Ag2 O7 2.256095 1_554
Ag2 O4 2.256095 1_554
Ag2 O9 2.396692 1_655
Ag2 O8 2.459068 1_565
Ag3 O6 2.256095 1_555
Ag3 O5 2.256095 1_555
Ag3 O8 2.396690 1_454
Ag3 O9 2.459070 1_555
O0 Sm1 2.422116 1_655
O0 Sm3 2.435044 1_565
O1 Sm0 2.422115 1_454
O1 Sm2 2.435036 1_555
O2 Sm3 2.422124 1_554
O2 Sm1 2.435044 1_655
O3 Sm2 2.422116 1_545
O3 Sm0 2.435044 1_455
O4 Sm2 2.284239 1_555
O4 Sm0 2.352281 1_555
O5 Sm3 2.284235 1_555
O5 Sm1 2.352284 1_544
O6 Sm0 2.284234 1_555
O6 Sm2 2.352283 1_544
O7 Sm1 2.284235 1_555
O7 Sm3 2.352284 1_555
O8 Sm3 2.196263 1_555
O8 Sm0 2.196272 1_555
O9 Sm1 2.196254 1_555
O9 Sm2 2.196277 1_555
