# generated using pymatgen
data_Yb6Mn4Al43
_symmetry_space_group_name_H-M   'P 1'
_cell_length_a   10.96452955
_cell_length_b   10.96452955
_cell_length_c   17.57057600
_cell_angle_alpha   90.00000000
_cell_angle_beta   90.00000000
_cell_angle_gamma   119.99999728
_symmetry_Int_Tables_number   1
_chemical_formula_structural   Yb6Mn4Al43
_chemical_formula_sum   'Yb12 Mn8 Al86'
_cell_volume   1829.34933571
_cell_formula_units_Z   2
loop_
 _symmetry_equiv_pos_site_id
 _symmetry_equiv_pos_as_xyz
  1  'x, y, z'
loop_
 _atom_site_type_symbol
 _atom_site_label
 _atom_site_symmetry_multiplicity
 _atom_site_fract_x
 _atom_site_fract_y
 _atom_site_fract_z
 _atom_site_occupancy
  Yb  Yb0  1  0.53326200  0.00000000  0.59395900  1
  Yb  Yb1  1  0.46673800  0.00000000  0.40604100  1
  Yb  Yb2  1  0.00000000  0.53326200  0.59395900  1
  Yb  Yb3  1  0.46673800  0.00000000  0.09395900  1
  Yb  Yb4  1  0.00000000  0.53326200  0.90604100  1
  Yb  Yb5  1  0.00000000  0.46673800  0.40604100  1
  Yb  Yb6  1  0.53326200  0.00000000  0.90604100  1
  Yb  Yb7  1  0.00000000  0.46673800  0.09395900  1
  Yb  Yb8  1  0.46673800  0.46673800  0.59395900  1
  Yb  Yb9  1  0.53326200  0.53326200  0.40604100  1
  Yb  Yb10  1  0.53326200  0.53326200  0.09395900  1
  Yb  Yb11  1  0.46673800  0.46673800  0.90604100  1
  Mn  Mn0  1  0.00000000  0.00000000  0.50000000  1
  Mn  Mn1  1  0.00000000  0.00000000  0.00000000  1
  Mn  Mn2  1  0.73105500  0.00000000  0.75000000  1
  Mn  Mn3  1  0.26894500  0.00000000  0.25000000  1
  Mn  Mn4  1  0.00000000  0.73105500  0.75000000  1
  Mn  Mn5  1  0.00000000  0.26894500  0.25000000  1
  Mn  Mn6  1  0.26894500  0.26894500  0.75000000  1
  Mn  Mn7  1  0.73105500  0.73105500  0.25000000  1
  Al  Al0  1  0.14586300  0.60021500  0.75000000  1
  Al  Al1  1  0.85413700  0.39978500  0.25000000  1
  Al  Al2  1  0.39978500  0.54564800  0.75000000  1
  Al  Al3  1  0.60021500  0.14586300  0.75000000  1
  Al  Al4  1  0.60021500  0.45435200  0.25000000  1
  Al  Al5  1  0.39978500  0.85413700  0.25000000  1
  Al  Al6  1  0.45435200  0.85413700  0.75000000  1
  Al  Al7  1  0.54564800  0.39978500  0.75000000  1
  Al  Al8  1  0.54564800  0.14586300  0.25000000  1
  Al  Al9  1  0.45435200  0.60021500  0.25000000  1
  Al  Al10  1  0.85413700  0.45435200  0.75000000  1
  Al  Al11  1  0.14586300  0.54564800  0.25000000  1
  Al  Al12  1  0.15447600  0.00000000  0.11590400  1
  Al  Al13  1  0.84552400  0.00000000  0.88409600  1
  Al  Al14  1  0.00000000  0.15447600  0.11590400  1
  Al  Al15  1  0.84552400  0.00000000  0.61590400  1
  Al  Al16  1  0.00000000  0.15447600  0.38409600  1
  Al  Al17  1  0.00000000  0.84552400  0.88409600  1
  Al  Al18  1  0.15447600  0.00000000  0.38409600  1
  Al  Al19  1  0.00000000  0.84552400  0.61590400  1
  Al  Al20  1  0.84552400  0.84552400  0.11590400  1
  Al  Al21  1  0.15447600  0.15447600  0.88409600  1
  Al  Al22  1  0.15447600  0.15447600  0.61590400  1
  Al  Al23  1  0.84552400  0.84552400  0.38409600  1
  Al  Al24  1  0.24686100  0.49372200  0.50000000  1
  Al  Al25  1  0.75313900  0.50627800  0.50000000  1
  Al  Al26  1  0.50627800  0.75313900  0.50000000  1
  Al  Al27  1  0.75313900  0.50627800  0.00000000  1
  Al  Al28  1  0.49372200  0.24686100  0.00000000  1
  Al  Al29  1  0.49372200  0.24686100  0.50000000  1
  Al  Al30  1  0.24686100  0.49372200  0.00000000  1
  Al  Al31  1  0.50627800  0.75313900  0.00000000  1
  Al  Al32  1  0.24686100  0.75313900  0.50000000  1
  Al  Al33  1  0.75313900  0.24686100  0.50000000  1
  Al  Al34  1  0.75313900  0.24686100  0.00000000  1
  Al  Al35  1  0.24686100  0.75313900  0.00000000  1
  Al  Al36  1  0.14422900  0.00000000  0.75000000  1
  Al  Al37  1  0.85577100  0.00000000  0.25000000  1
  Al  Al38  1  0.00000000  0.14422900  0.75000000  1
  Al  Al39  1  0.00000000  0.85577100  0.25000000  1
  Al  Al40  1  0.85577100  0.85577100  0.75000000  1
  Al  Al41  1  0.14422900  0.14422900  0.25000000  1
  Al  Al42  1  0.33333300  0.66666700  0.62721600  1
  Al  Al43  1  0.66666700  0.33333300  0.37278400  1
  Al  Al44  1  0.66666700  0.33333300  0.12721600  1
  Al  Al45  1  0.66666700  0.33333300  0.87278400  1
  Al  Al46  1  0.33333300  0.66666700  0.87278400  1
  Al  Al47  1  0.33333300  0.66666700  0.12721600  1
  Al  Al48  1  0.33333300  0.66666700  0.37278400  1
  Al  Al49  1  0.66666700  0.33333300  0.62721600  1
  Al  Al50  1  0.24853000  0.00000000  0.53208100  1
  Al  Al51  1  0.75147000  0.00000000  0.46791900  1
  Al  Al52  1  0.00000000  0.24853000  0.53208100  1
  Al  Al53  1  0.75147000  0.00000000  0.03208100  1
  Al  Al54  1  0.00000000  0.24853000  0.96791900  1
  Al  Al55  1  0.00000000  0.75147000  0.46791900  1
  Al  Al56  1  0.24853000  0.00000000  0.96791900  1
  Al  Al57  1  0.00000000  0.75147000  0.03208100  1
  Al  Al58  1  0.75147000  0.75147000  0.53208100  1
  Al  Al59  1  0.24853000  0.24853000  0.46791900  1
  Al  Al60  1  0.24853000  0.24853000  0.03208100  1
  Al  Al61  1  0.75147000  0.75147000  0.96791900  1
  Al  Al62  1  0.15668600  0.38892900  0.66618200  1
  Al  Al63  1  0.84331400  0.61107100  0.33381800  1
  Al  Al64  1  0.61107100  0.76775700  0.66618200  1
  Al  Al65  1  0.84331400  0.61107100  0.16618200  1
  Al  Al66  1  0.38892900  0.15668600  0.83381800  1
  Al  Al67  1  0.38892900  0.23224300  0.33381800  1
  Al  Al68  1  0.15668600  0.38892900  0.83381800  1
  Al  Al69  1  0.61107100  0.84331400  0.16618200  1
  Al  Al70  1  0.23224300  0.84331400  0.66618200  1
  Al  Al71  1  0.38892900  0.23224300  0.16618200  1
  Al  Al72  1  0.76775700  0.61107100  0.83381800  1
  Al  Al73  1  0.76775700  0.15668600  0.33381800  1
  Al  Al74  1  0.61107100  0.76775700  0.83381800  1
  Al  Al75  1  0.23224300  0.38892900  0.16618200  1
  Al  Al76  1  0.61107100  0.84331400  0.33381800  1
  Al  Al77  1  0.38892900  0.15668600  0.66618200  1
  Al  Al78  1  0.76775700  0.15668600  0.16618200  1
  Al  Al79  1  0.23224300  0.38892900  0.33381800  1
  Al  Al80  1  0.23224300  0.84331400  0.83381800  1
  Al  Al81  1  0.76775700  0.61107100  0.66618200  1
  Al  Al82  1  0.84331400  0.23224300  0.83381800  1
  Al  Al83  1  0.15668600  0.76775700  0.16618200  1
  Al  Al84  1  0.15668600  0.76775700  0.33381800  1
  Al  Al85  1  0.84331400  0.23224300  0.66618200  1
loop_
_geom_bond_atom_site_label_1
_geom_bond_atom_site_label_2
_geom_bond_distance
_geom_bond_site_symmetry_2
Yb0 Yb1 3.381434 1_555
Yb2 Yb5 3.381434 1_555
Yb3 Yb6 3.381434 1_554
Yb4 Yb7 3.381434 1_556
Yb8 Yb9 3.381434 1_555
Yb10 Yb11 3.381434 1_554
Mn2 Yb6 3.495765 1_555
Mn2 Yb0 3.495765 1_555
Mn3 Yb3 3.495765 1_555
Mn3 Yb1 3.495765 1_555
Mn4 Yb2 3.495765 1_555
Mn4 Yb4 3.495765 1_555
Mn5 Yb5 3.495765 1_555
Mn5 Yb7 3.495765 1_555
Mn6 Yb11 3.495765 1_555
Mn6 Yb8 3.495765 1_555
Mn7 Yb10 3.495765 1_555
Mn7 Yb9 3.495765 1_555
Al0 Mn4 2.628741 1_555
Al0 Al70 2.765171 1_555
Al0 Al80 2.765171 1_555
Al0 Al10 2.770102 1_455
Al0 Al68 2.797286 1_555
Al0 Al62 2.797286 1_555
Al0 Al46 2.812947 1_555
Al0 Al42 2.812947 1_555
Al0 Yb2 3.072417 1_555
Al0 Yb4 3.072417 1_555
Al1 Mn5 2.628741 1_655
Al1 Al73 2.765171 1_555
Al1 Al78 2.765171 1_555
Al1 Al11 2.770102 1_655
Al1 Al65 2.797286 1_555
Al1 Al63 2.797286 1_555
Al1 Al43 2.812947 1_555
Al1 Al44 2.812947 1_555
Al1 Yb5 3.072417 1_655
Al1 Yb7 3.072417 1_655
Al2 Mn6 2.628741 1_555
Al2 Al68 2.765171 1_555
Al2 Al62 2.765171 1_555
Al2 Al7 2.770102 1_555
Al2 Al74 2.797286 1_555
Al2 Al64 2.797286 1_555
Al2 Al46 2.812954 1_555
Al2 Al42 2.812954 1_555
Al2 Yb11 3.072417 1_555
Al2 Yb8 3.072417 1_555
Al3 Mn2 2.628741 1_555
Al3 Al85 2.765171 1_555
Al3 Al82 2.765171 1_555
Al3 Al6 2.770102 1_545
Al3 Al66 2.797286 1_555
Al3 Al77 2.797286 1_555
Al3 Al49 2.812947 1_555
Al3 Al45 2.812947 1_555
Al3 Yb6 3.072417 1_555
Al3 Yb0 3.072417 1_555
Al4 Mn7 2.628741 1_555
Al4 Al65 2.765171 1_555
Al4 Al63 2.765171 1_555
Al4 Al9 2.770102 1_555
Al4 Al67 2.797286 1_555
Al4 Al71 2.797286 1_555
Al4 Al44 2.812954 1_555
Al4 Al43 2.812954 1_555
Al4 Yb9 3.072417 1_555
Al4 Yb10 3.072417 1_555
Al5 Mn3 2.628741 1_565
Al5 Al83 2.765171 1_555
Al5 Al84 2.765171 1_555
Al5 Al8 2.770102 1_565
Al5 Al69 2.797286 1_555
Al5 Al76 2.797286 1_555
Al5 Yb3 3.072417 1_565
Al5 Yb1 3.072417 1_565
Al6 Mn2 2.628741 1_565
Al6 Al74 2.765171 1_555
Al6 Al64 2.765171 1_555
Al6 Al70 2.797286 1_555
Al6 Al80 2.797286 1_555
Al6 Yb0 3.072417 1_565
Al6 Yb6 3.072417 1_565
Al7 Mn6 2.628741 1_555
Al7 Al77 2.765171 1_555
Al7 Al81 2.797286 1_555
Al7 Al72 2.797286 1_555
Al7 Yb11 3.072417 1_555
Al7 Yb8 3.072417 1_555
Al8 Mn3 2.628741 1_555
Al8 Yb3 3.072417 1_555
Al8 Yb1 3.072417 1_555
Al9 Mn7 2.628741 1_555
Al9 Yb9 3.072417 1_555
Al9 Yb10 3.072417 1_555
Al10 Mn4 2.628741 1_655
Al10 Al72 2.765171 1_555
Al10 Al81 2.765171 1_555
Al10 Al85 2.797286 1_555
Al10 Al82 2.797286 1_555
Al10 Al49 2.812949 1_555
Al10 Al45 2.812949 1_555
Al10 Yb4 3.072417 1_655
Al10 Yb2 3.072417 1_655
Al11 Mn5 2.628741 1_555
Al11 Al75 2.765171 1_555
Al11 Al79 2.765171 1_555
Al11 Al84 2.797286 1_555
Al11 Al83 2.797286 1_555
Al11 Al48 2.812949 1_555
Al11 Al47 2.812949 1_555
Al11 Yb7 3.072417 1_555
Al11 Yb5 3.072417 1_555
Al12 Mn1 2.648800 1_555
Al12 Mn3 2.669586 1_555
Al12 Al83 2.706851 1_545
Al12 Al71 2.706851 1_555
Al12 Al56 2.797220 1_554
Al12 Al60 2.801464 1_555
Al12 Al57 2.801464 1_545
Al12 Al41 2.870984 1_555
Al12 Al39 2.870984 1_545
Al12 Al14 2.933673 1_555
Al12 Al20 2.933673 1_445
Al12 Yb3 3.445450 1_555
Al13 Mn1 2.648800 1_656
Al13 Mn2 2.669586 1_555
Al13 Al82 2.706851 1_555
Al13 Al74 2.706851 1_545
Al13 Al53 2.797220 1_556
Al13 Al61 2.801464 1_545
Al13 Al54 2.801464 1_655
Al13 Al40 2.870984 1_545
Al13 Al38 2.870984 1_655
Al13 Al17 2.933673 1_645
Al13 Al21 2.933673 1_655
Al13 Yb6 3.445450 1_555
Al14 Mn1 2.648800 1_555
Al14 Mn5 2.669586 1_555
Al14 Al78 2.706851 1_455
Al14 Al75 2.706851 1_555
Al14 Al54 2.797220 1_554
Al14 Al60 2.801464 1_555
Al14 Al53 2.801464 1_455
Al14 Al41 2.870984 1_555
Al14 Al37 2.870984 1_455
Al14 Al20 2.933673 1_445
Al14 Yb7 3.445450 1_555
Al15 Mn0 2.648800 1_655
Al15 Mn2 2.669586 1_555
Al15 Al85 2.706851 1_555
Al15 Al64 2.706851 1_545
Al15 Al51 2.797220 1_555
Al15 Al58 2.801464 1_545
Al15 Al52 2.801464 1_655
Al15 Al40 2.870984 1_545
Al15 Al38 2.870984 1_655
Al15 Al19 2.933673 1_645
Al15 Al22 2.933673 1_655
Al15 Yb0 3.445450 1_555
Al16 Mn0 2.648800 1_555
Al16 Mn5 2.669586 1_555
Al16 Al73 2.706851 1_455
Al16 Al79 2.706851 1_555
Al16 Al52 2.797220 1_555
Al16 Al59 2.801464 1_555
Al16 Al51 2.801464 1_455
Al16 Al41 2.870984 1_555
Al16 Al37 2.870984 1_455
Al16 Al18 2.933673 1_555
Al16 Al23 2.933673 1_445
Al16 Yb5 3.445450 1_555
Al17 Mn1 2.648800 1_566
Al17 Mn4 2.669586 1_555
Al17 Al80 2.706851 1_555
Al17 Al72 2.706851 1_455
Al17 Al57 2.797220 1_556
Al17 Al61 2.801464 1_455
Al17 Al56 2.801464 1_565
Al17 Al40 2.870984 1_455
Al17 Al36 2.870984 1_565
Al17 Al21 2.933673 1_565
Al17 Yb4 3.445450 1_555
Al18 Mn0 2.648800 1_555
Al18 Mn3 2.669586 1_555
Al18 Al84 2.706851 1_545
Al18 Al67 2.706851 1_555
Al18 Al50 2.797220 1_555
Al18 Al59 2.801464 1_555
Al18 Al55 2.801464 1_545
Al18 Al41 2.870984 1_555
Al18 Al39 2.870984 1_545
Al18 Al23 2.933673 1_445
Al18 Yb1 3.445450 1_555
Al19 Mn0 2.648800 1_565
Al19 Mn4 2.669586 1_555
Al19 Al70 2.706851 1_555
Al19 Al81 2.706851 1_455
Al19 Al55 2.797220 1_555
Al19 Al58 2.801464 1_455
Al19 Al50 2.801464 1_565
Al19 Al40 2.870984 1_455
Al19 Al36 2.870984 1_565
Al19 Al22 2.933673 1_565
Al19 Yb2 3.445450 1_555
Al20 Mn1 2.648801 1_665
Al20 Mn7 2.669586 1_555
Al20 Al69 2.706851 1_555
Al20 Al65 2.706851 1_555
Al20 Al61 2.797220 1_554
Al20 Al57 2.801464 1_655
Al20 Al53 2.801464 1_565
Al20 Al37 2.870984 1_565
Al20 Al39 2.870984 1_655
Al20 Yb10 3.445450 1_555
Al21 Mn1 2.648801 1_556
Al21 Mn6 2.669586 1_555
Al21 Al68 2.706851 1_555
Al21 Al66 2.706851 1_555
Al21 Al60 2.797220 1_556
Al21 Al56 2.801464 1_555
Al21 Al54 2.801464 1_555
Al21 Al38 2.870984 1_555
Al21 Al36 2.870984 1_555
Al21 Yb11 3.445450 1_555
Al22 Mn0 2.648801 1_555
Al22 Mn6 2.669586 1_555
Al22 Al77 2.706851 1_555
Al22 Al62 2.706851 1_555
Al22 Al59 2.797220 1_555
Al22 Al50 2.801464 1_555
Al22 Al52 2.801464 1_555
Al22 Al38 2.870984 1_555
Al22 Al36 2.870984 1_555
Al22 Yb8 3.445450 1_555
Al23 Mn0 2.648801 1_665
Al23 Mn7 2.669586 1_555
Al23 Al76 2.706851 1_555
Al23 Al63 2.706851 1_555
Al23 Al58 2.797220 1_555
Al23 Al55 2.801464 1_655
Al23 Al51 2.801464 1_565
Al23 Al37 2.870984 1_565
Al23 Al39 2.870984 1_655
Al23 Yb9 3.445450 1_555
Al24 Al59 2.755874 1_555
Al24 Al52 2.755875 1_555
Al24 Al42 2.773668 1_555
Al24 Al48 2.773668 1_555
Al24 Al32 2.844385 1_555
Al24 Al26 2.844385 1_555
Al24 Yb8 3.055901 1_555
Al24 Yb5 3.055901 1_555
Al24 Al79 3.112497 1_555
Al24 Al62 3.112497 1_555
Al24 Yb2 3.378348 1_555
Al24 Yb9 3.378348 1_555
Al25 Al58 2.755874 1_555
Al25 Al55 2.755875 1_655
Al25 Al49 2.773668 1_555
Al25 Al43 2.773668 1_555
Al25 Al33 2.844385 1_555
Al25 Al29 2.844385 1_555
Al25 Yb9 3.055901 1_555
Al25 Yb2 3.055901 1_655
Al25 Al81 3.112497 1_555
Al25 Al63 3.112497 1_555
Al25 Yb5 3.378348 1_655
Al25 Yb8 3.378348 1_555
Al26 Al58 2.755874 1_555
Al26 Al51 2.755875 1_565
Al26 Al42 2.773668 1_555
Al26 Al48 2.773668 1_555
Al26 Al32 2.844385 1_555
Al26 Yb9 3.055901 1_555
Al26 Yb0 3.055901 1_565
Al26 Al64 3.112497 1_555
Al26 Al76 3.112497 1_555
Al26 Yb1 3.378348 1_565
Al26 Yb8 3.378348 1_555
Al27 Al61 2.755874 1_554
Al27 Al57 2.755875 1_655
Al27 Al44 2.773668 1_555
Al27 Al45 2.773668 1_554
Al27 Al34 2.844385 1_555
Al27 Al28 2.844385 1_555
Al27 Yb10 3.055901 1_555
Al27 Yb4 3.055901 1_654
Al27 Al72 3.112497 1_554
Al27 Al65 3.112497 1_555
Al27 Yb7 3.378348 1_655
Al27 Yb11 3.378348 1_554
Al28 Al60 2.755874 1_555
Al28 Al56 2.755875 1_554
Al28 Al44 2.773668 1_555
Al28 Al45 2.773668 1_554
Al28 Al34 2.844385 1_555
Al28 Yb11 3.055901 1_554
Al28 Yb3 3.055901 1_555
Al28 Al71 3.112497 1_555
Al28 Al66 3.112497 1_554
Al28 Yb6 3.378348 1_554
Al28 Yb10 3.378348 1_555
Al29 Al59 2.755874 1_555
Al29 Al50 2.755875 1_555
Al29 Al49 2.773668 1_555
Al29 Al43 2.773668 1_555
Al29 Al33 2.844385 1_555
Al29 Yb8 3.055901 1_555
Al29 Yb1 3.055901 1_555
Al29 Al67 3.112497 1_555
Al29 Al77 3.112497 1_555
Al29 Yb0 3.378348 1_555
Al29 Yb9 3.378348 1_555
Al30 Al60 2.755874 1_555
Al30 Al54 2.755875 1_554
Al30 Al47 2.773668 1_555
Al30 Al46 2.773668 1_554
Al30 Al35 2.844385 1_555
Al30 Al31 2.844385 1_555
Al30 Yb11 3.055901 1_554
Al30 Yb7 3.055901 1_555
Al30 Al75 3.112497 1_555
Al30 Al68 3.112497 1_554
Al30 Yb4 3.378348 1_554
Al30 Yb10 3.378348 1_555
Al31 Al61 2.755874 1_554
Al31 Al53 2.755875 1_565
Al31 Al47 2.773668 1_555
Al31 Al46 2.773668 1_554
Al31 Al35 2.844385 1_555
Al31 Yb10 3.055901 1_555
Al31 Yb6 3.055901 1_564
Al31 Al74 3.112497 1_554
Al31 Al69 3.112497 1_555
Al31 Yb3 3.378348 1_565
Al31 Yb11 3.378348 1_554
Al32 Al55 2.755874 1_555
Al32 Al50 2.755874 1_565
Al32 Al42 2.773662 1_555
Al32 Al48 2.773662 1_555
Al32 Yb1 3.055901 1_565
Al32 Yb2 3.055901 1_555
Al32 Al84 3.112497 1_555
Al32 Al70 3.112497 1_555
Al32 Yb0 3.378349 1_565
Al32 Yb5 3.378349 1_555
Al33 Al51 2.755874 1_555
Al33 Al52 2.755874 1_655
Al33 Al43 2.773662 1_555
Al33 Al49 2.773662 1_555
Al33 Yb0 3.055901 1_555
Al33 Yb5 3.055901 1_655
Al33 Al73 3.112497 1_555
Al33 Al85 3.112497 1_555
Al33 Yb1 3.378349 1_555
Al33 Yb2 3.378349 1_655
Al34 Al53 2.755874 1_555
Al34 Al54 2.755874 1_654
Al34 Al44 2.773662 1_555
Al34 Al45 2.773662 1_554
Al34 Yb7 3.055901 1_655
Al34 Yb6 3.055901 1_554
Al34 Al78 3.112497 1_555
Al34 Al82 3.112497 1_554
Al34 Yb3 3.378349 1_555
Al34 Yb4 3.378349 1_654
Al35 Al57 2.755874 1_555
Al35 Al56 2.755874 1_564
Al35 Al47 2.773662 1_555
Al35 Al46 2.773662 1_554
Al35 Yb3 3.055901 1_565
Al35 Yb4 3.055901 1_554
Al35 Al83 3.112497 1_555
Al35 Al80 3.112497 1_554
Al35 Yb6 3.378349 1_564
Al35 Yb7 3.378349 1_555
Al36 Mn6 2.556023 1_555
Al36 Mn4 2.556023 1_545
Al36 Al38 2.739071 1_555
Al36 Al40 2.739071 1_445
Al36 Al70 2.776620 1_545
Al36 Al80 2.776620 1_545
Al36 Al77 2.776620 1_555
Al36 Al66 2.776620 1_555
Al37 Mn7 2.556023 1_545
Al37 Mn5 2.556023 1_655
Al37 Al39 2.739071 1_645
Al37 Al41 2.739071 1_655
Al37 Al78 2.776620 1_555
Al37 Al73 2.776620 1_555
Al37 Al76 2.776620 1_545
Al37 Al69 2.776620 1_545
Al38 Mn6 2.556023 1_555
Al38 Mn2 2.556023 1_455
Al38 Al40 2.739071 1_445
Al38 Al82 2.776620 1_455
Al38 Al85 2.776620 1_455
Al38 Al68 2.776620 1_555
Al38 Al62 2.776620 1_555
Al39 Mn7 2.556023 1_455
Al39 Mn3 2.556023 1_565
Al39 Al41 2.739071 1_565
Al39 Al83 2.776620 1_555
Al39 Al84 2.776620 1_555
Al39 Al63 2.776620 1_455
Al39 Al65 2.776620 1_455
Al40 Mn4 2.556023 1_655
Al40 Mn2 2.556023 1_565
Al40 Al64 2.776620 1_555
Al40 Al72 2.776620 1_555
Al40 Al81 2.776620 1_555
Al40 Al74 2.776620 1_555
Al41 Mn5 2.556023 1_555
Al41 Mn3 2.556023 1_555
Al41 Al75 2.776620 1_555
Al41 Al79 2.776620 1_555
Al41 Al67 2.776620 1_555
Al41 Al71 2.776620 1_555
Al42 Al70 2.755997 1_555
Al42 Al62 2.756005 1_555
Al42 Al64 2.756007 1_555
Al42 Al6 2.812949 1_555
Al42 Yb2 3.239267 1_555
Al42 Yb0 3.239268 1_565
Al42 Yb8 3.239277 1_555
Al43 Al73 2.755997 1_555
Al43 Al63 2.756005 1_555
Al43 Al67 2.756007 1_555
Al43 Al8 2.812949 1_555
Al43 Yb5 3.239267 1_655
Al43 Yb1 3.239268 1_555
Al43 Yb9 3.239277 1_555
Al44 Al78 2.755997 1_555
Al44 Al65 2.756005 1_555
Al44 Al71 2.756007 1_555
Al44 Al8 2.812949 1_555
Al44 Yb7 3.239267 1_655
Al44 Yb3 3.239268 1_555
Al44 Yb10 3.239277 1_555
Al45 Al82 2.755997 1_555
Al45 Al66 2.756005 1_555
Al45 Al72 2.756007 1_555
Al45 Al7 2.812954 1_555
Al45 Yb6 3.239267 1_555
Al45 Yb4 3.239268 1_655
Al45 Yb11 3.239277 1_555
Al46 Al80 2.755997 1_555
Al46 Al68 2.756005 1_555
Al46 Al74 2.756007 1_555
Al46 Al6 2.812949 1_555
Al46 Yb4 3.239267 1_555
Al46 Yb6 3.239268 1_565
Al46 Yb11 3.239277 1_555
Al47 Al83 2.755997 1_555
Al47 Al69 2.756005 1_555
Al47 Al75 2.756007 1_555
Al47 Al5 2.812947 1_555
Al47 Al9 2.812954 1_555
Al47 Yb3 3.239267 1_565
Al47 Yb7 3.239268 1_555
Al47 Yb10 3.239277 1_555
Al48 Al84 2.755997 1_555
Al48 Al76 2.756005 1_555
Al48 Al79 2.756007 1_555
Al48 Al5 2.812947 1_555
Al48 Al9 2.812954 1_555
Al48 Yb1 3.239267 1_565
Al48 Yb5 3.239268 1_555
Al48 Yb9 3.239277 1_555
Al49 Al85 2.755997 1_555
Al49 Al77 2.756005 1_555
Al49 Al81 2.756007 1_555
Al49 Al7 2.812954 1_555
Al49 Yb0 3.239267 1_555
Al49 Yb2 3.239268 1_655
Al49 Yb8 3.239277 1_555
Al50 Mn0 2.782704 1_555
Al50 Al70 2.868520 1_545
Al50 Al77 2.868520 1_555
Al50 Al59 2.949009 1_555
Al50 Al55 2.949009 1_545
Al50 Yb1 3.260172 1_555
Al50 Yb0 3.305852 1_555
Al51 Mn0 2.782704 1_655
Al51 Al73 2.868520 1_555
Al51 Al76 2.868520 1_545
Al51 Al58 2.949009 1_545
Al51 Al52 2.949009 1_655
Al51 Yb0 3.260172 1_555
Al51 Yb1 3.305852 1_555
Al52 Mn0 2.782704 1_555
Al52 Al85 2.868520 1_455
Al52 Al62 2.868520 1_555
Al52 Al59 2.949009 1_555
Al52 Yb5 3.260172 1_555
Al52 Yb2 3.305852 1_555
Al53 Mn1 2.782704 1_655
Al53 Al78 2.868520 1_555
Al53 Al69 2.868520 1_545
Al53 Al61 2.949009 1_544
Al53 Al54 2.949009 1_654
Al53 Yb6 3.260172 1_554
Al53 Yb3 3.305852 1_555
Al54 Mn1 2.782704 1_556
Al54 Al82 2.868520 1_455
Al54 Al68 2.868520 1_555
Al54 Al60 2.949009 1_556
Al54 Yb7 3.260172 1_556
Al54 Yb4 3.305852 1_555
Al55 Mn0 2.782704 1_565
Al55 Al84 2.868520 1_555
Al55 Al63 2.868520 1_455
Al55 Al58 2.949009 1_455
Al55 Yb2 3.260172 1_555
Al55 Yb5 3.305852 1_555
Al56 Mn1 2.782704 1_556
Al56 Al80 2.868520 1_545
Al56 Al66 2.868520 1_555
Al56 Al60 2.949009 1_556
Al56 Al57 2.949009 1_546
Al56 Yb3 3.260172 1_556
Al56 Yb6 3.305852 1_555
Al57 Mn1 2.782704 1_565
Al57 Al83 2.868520 1_555
Al57 Al65 2.868520 1_455
Al57 Al61 2.949009 1_454
Al57 Yb4 3.260172 1_554
Al57 Yb7 3.305852 1_555
Al58 Mn0 2.782704 1_665
Al58 Al64 2.868520 1_555
Al58 Al81 2.868520 1_555
Al58 Yb9 3.260172 1_555
Al58 Yb8 3.305853 1_555
Al59 Mn0 2.782704 1_555
Al59 Al79 2.868520 1_555
Al59 Al67 2.868520 1_555
Al59 Yb8 3.260172 1_555
Al59 Yb9 3.305853 1_555
Al60 Mn1 2.782704 1_555
Al60 Al71 2.868520 1_555
Al60 Al75 2.868520 1_555
Al60 Yb11 3.260172 1_554
Al60 Yb10 3.305853 1_555
Al61 Mn1 2.782704 1_666
Al61 Al72 2.868520 1_555
Al61 Al74 2.868520 1_555
Al61 Yb10 3.260172 1_556
Al61 Yb11 3.305853 1_555
Al62 Mn6 2.652165 1_555
Al62 Al68 2.945461 1_555
Al62 Al85 2.975643 1_455
Al62 Yb2 3.128111 1_555
Al62 Yb8 3.315871 1_555
Al63 Mn7 2.652165 1_555
Al63 Al65 2.945461 1_555
Al63 Al84 2.975643 1_655
Al63 Yb5 3.128111 1_655
Al63 Yb9 3.315871 1_555
Al64 Mn2 2.652165 1_565
Al64 Al74 2.945461 1_555
Al64 Al81 2.975643 1_555
Al64 Yb8 3.128111 1_555
Al64 Yb0 3.315871 1_565
Al65 Mn7 2.652165 1_555
Al65 Al83 2.975643 1_655
Al65 Yb7 3.128111 1_655
Al65 Yb10 3.315871 1_555
Al66 Mn6 2.652165 1_555
Al66 Al7 2.765171 1_555
Al66 Al77 2.945461 1_555
Al66 Al80 2.975643 1_545
Al66 Yb6 3.128111 1_555
Al66 Yb11 3.315871 1_555
Al67 Mn3 2.652165 1_555
Al67 Al8 2.765171 1_555
Al67 Al71 2.945461 1_555
Al67 Al79 2.975643 1_555
Al67 Yb9 3.128111 1_555
Al67 Yb1 3.315871 1_555
Al68 Mn6 2.652165 1_555
Al68 Al82 2.975643 1_455
Al68 Yb4 3.128111 1_555
Al68 Yb11 3.315871 1_555
Al69 Mn7 2.652165 1_555
Al69 Al9 2.765171 1_555
Al69 Al76 2.945461 1_555
Al69 Al78 2.975643 1_565
Al69 Yb3 3.128111 1_565
Al69 Yb10 3.315871 1_555
Al70 Mn4 2.652165 1_555
Al70 Al80 2.945461 1_555
Al70 Al77 2.975643 1_565
Al70 Yb0 3.128111 1_565
Al70 Yb2 3.315871 1_555
Al71 Mn3 2.652165 1_555
Al71 Al8 2.765171 1_555
Al71 Al75 2.975643 1_555
Al71 Yb10 3.128111 1_555
Al71 Yb3 3.315871 1_555
Al72 Mn4 2.652165 1_655
Al72 Al81 2.945461 1_555
Al72 Al74 2.975643 1_555
Al72 Yb11 3.128111 1_555
Al72 Yb4 3.315871 1_655
Al73 Mn5 2.652165 1_655
Al73 Al8 2.797286 1_555
Al73 Al78 2.945461 1_555
Al73 Al76 2.975643 1_545
Al73 Yb1 3.128111 1_555
Al73 Yb5 3.315871 1_655
Al74 Mn2 2.652165 1_565
Al74 Yb11 3.128111 1_555
Al74 Yb6 3.315871 1_565
Al75 Mn5 2.652165 1_555
Al75 Al9 2.797286 1_555
Al75 Al79 2.945461 1_555
Al75 Yb10 3.128111 1_555
Al75 Yb7 3.315871 1_555
Al76 Mn7 2.652165 1_555
Al76 Al9 2.765171 1_555
Al76 Yb1 3.128111 1_565
Al76 Yb9 3.315871 1_555
Al77 Mn6 2.652165 1_555
Al77 Yb0 3.128111 1_555
Al77 Yb8 3.315871 1_555
Al78 Mn5 2.652165 1_655
Al78 Al8 2.797286 1_555
Al78 Yb3 3.128111 1_555
Al78 Yb7 3.315871 1_655
Al79 Mn5 2.652165 1_555
Al79 Al9 2.797286 1_555
Al79 Yb9 3.128111 1_555
Al79 Yb5 3.315871 1_555
Al80 Mn4 2.652165 1_555
Al80 Yb6 3.128111 1_565
Al80 Yb4 3.315871 1_555
Al81 Mn4 2.652165 1_655
Al81 Yb8 3.128111 1_555
Al81 Yb2 3.315871 1_655
Al82 Mn2 2.652165 1_555
Al82 Al85 2.945461 1_555
Al82 Yb4 3.128111 1_655
Al82 Yb6 3.315871 1_555
Al83 Mn3 2.652165 1_565
Al83 Al84 2.945461 1_555
Al83 Yb7 3.128111 1_555
Al83 Yb3 3.315871 1_565
Al84 Mn3 2.652165 1_565
Al84 Yb5 3.128111 1_555
Al84 Yb1 3.315871 1_565
Al85 Mn2 2.652165 1_555
Al85 Yb2 3.128111 1_655
Al85 Yb0 3.315871 1_555
