# generated using pymatgen
data_UCoB4
_symmetry_space_group_name_H-M   'P 1'
_cell_length_a   3.36241300
_cell_length_b   5.88441000
_cell_length_c   11.41261600
_cell_angle_alpha   90.00000000
_cell_angle_beta   90.00000000
_cell_angle_gamma   90.00000000
_symmetry_Int_Tables_number   1
_chemical_formula_structural   UCoB4
_chemical_formula_sum   'U4 Co4 B16'
_cell_volume   225.80792803
_cell_formula_units_Z   4
loop_
 _symmetry_equiv_pos_site_id
 _symmetry_equiv_pos_as_xyz
  1  'x, y, z'
loop_
 _atom_site_type_symbol
 _atom_site_label
 _atom_site_symmetry_multiplicity
 _atom_site_fract_x
 _atom_site_fract_y
 _atom_site_fract_z
 _atom_site_occupancy
  U  U0  1  0.00000000  0.62647300  0.34918400  1
  U  U1  1  0.00000000  0.37352700  0.65081600  1
  U  U2  1  0.00000000  0.12647300  0.15081600  1
  U  U3  1  0.00000000  0.87352700  0.84918400  1
  Co  Co0  1  0.00000000  0.63114400  0.08648200  1
  Co  Co1  1  0.00000000  0.36885600  0.91351800  1
  Co  Co2  1  0.00000000  0.13114400  0.41351800  1
  Co  Co3  1  0.00000000  0.86885600  0.58648200  1
  B  B0  1  0.50000000  0.78339500  0.18742900  1
  B  B1  1  0.50000000  0.21660500  0.81257100  1
  B  B2  1  0.50000000  0.28339500  0.31257100  1
  B  B3  1  0.50000000  0.71660500  0.68742900  1
  B  B4  1  0.50000000  0.86583300  0.03441100  1
  B  B5  1  0.50000000  0.13416700  0.96558900  1
  B  B6  1  0.50000000  0.36583300  0.46558900  1
  B  B7  1  0.50000000  0.63416700  0.53441100  1
  B  B8  1  0.50000000  0.88564200  0.45391300  1
  B  B9  1  0.50000000  0.11435800  0.54608700  1
  B  B10  1  0.50000000  0.38564200  0.04608700  1
  B  B11  1  0.50000000  0.61435800  0.95391300  1
  B  B12  1  0.50000000  0.97405500  0.30771700  1
  B  B13  1  0.50000000  0.02594500  0.69228300  1
  B  B14  1  0.50000000  0.47405500  0.19228300  1
  B  B15  1  0.50000000  0.52594500  0.80771700  1
loop_
_geom_bond_atom_site_label_1
_geom_bond_atom_site_label_2
_geom_bond_distance
_geom_bond_site_symmetry_2
B0 B12 1.772933 1_555
B0 B4 1.812459 1_555
B0 B14 1.821126 1_555
B0 Co0 2.226290 1_555
B0 Co0 2.226290 1_655
B0 U2 2.660198 1_565
B0 U2 2.660198 1_665
B0 U0 2.662143 1_655
B0 U0 2.662143 1_555
B1 B13 1.772933 1_555
B1 B5 1.812459 1_555
B1 B15 1.821126 1_555
B1 Co1 2.226290 1_555
B1 Co1 2.226290 1_655
B1 U3 2.660198 1_545
B1 U3 2.660198 1_645
B1 U1 2.662143 1_555
B1 U1 2.662143 1_655
B2 B6 1.812459 1_555
B2 Co2 2.226290 1_655
B2 Co2 2.226290 1_555
B2 U0 2.660198 1_655
B2 U0 2.660198 1_555
B2 U2 2.662143 1_555
B2 U2 2.662143 1_655
B3 B7 1.812459 1_555
B3 Co3 2.226290 1_555
B3 Co3 2.226290 1_655
B3 U1 2.660198 1_555
B3 U1 2.660198 1_655
B3 U3 2.662143 1_655
B3 U3 2.662143 1_555
B4 B5 1.763552 1_564
B4 Co0 2.255390 1_555
B4 Co0 2.255390 1_655
B4 U2 2.635072 1_665
B4 U2 2.635072 1_565
B4 U3 2.701330 1_654
B4 U3 2.701330 1_554
B5 Co1 2.255390 1_555
B5 Co1 2.255390 1_655
B5 U3 2.635072 1_545
B5 U3 2.635072 1_645
B5 U2 2.701330 1_656
B5 U2 2.701330 1_556
B6 B9 1.741767 1_555
B6 B7 1.763552 1_555
B6 Co2 2.255390 1_655
B6 Co2 2.255390 1_555
B6 U0 2.635072 1_655
B6 U0 2.635072 1_555
B6 U1 2.701330 1_555
B6 U1 2.701330 1_655
B7 B8 1.741767 1_555
B7 Co3 2.255390 1_555
B7 Co3 2.255390 1_655
B7 U1 2.635072 1_555
B7 U1 2.635072 1_655
B7 U0 2.701330 1_555
B7 U0 2.701330 1_655
B8 B9 1.708194 1_565
B8 Co3 2.263903 1_555
B8 Co3 2.263903 1_655
B8 Co2 2.264058 1_665
B8 Co2 2.264058 1_565
B8 U0 2.565313 1_655
B8 U0 2.565313 1_555
B9 Co2 2.263903 1_655
B9 Co2 2.263903 1_555
B9 Co3 2.264058 1_645
B9 Co3 2.264058 1_545
B9 U1 2.565313 1_555
B9 U1 2.565313 1_655
B10 B11 1.708194 1_554
B10 B5 1.741767 1_554
B10 B14 1.747710 1_555
B10 Co1 2.263903 1_654
B10 Co1 2.263903 1_554
B10 Co0 2.264058 1_655
B10 Co0 2.264058 1_555
B10 U2 2.565313 1_555
B10 U2 2.565313 1_655
B11 B4 1.741767 1_556
B11 B15 1.747710 1_555
B11 Co0 2.263903 1_656
B11 Co0 2.263903 1_556
B11 Co1 2.264058 1_655
B11 Co1 2.264058 1_555
B11 U3 2.565313 1_555
B11 U3 2.565313 1_655
B12 B8 1.747710 1_555
B12 B2 1.821126 1_565
B12 Co2 2.266914 1_665
B12 Co2 2.266914 1_565
B12 U2 2.614823 1_665
B12 U2 2.614823 1_565
B12 U0 2.689560 1_655
B12 U0 2.689560 1_555
B13 B9 1.747710 1_555
B13 B3 1.821126 1_545
B13 Co3 2.266914 1_645
B13 Co3 2.266914 1_545
B13 U3 2.614823 1_645
B13 U3 2.614823 1_545
B13 U1 2.689560 1_555
B13 U1 2.689560 1_655
B14 B2 1.772933 1_555
B14 Co0 2.266914 1_555
B14 Co0 2.266914 1_655
B14 U0 2.614823 1_655
B14 U0 2.614823 1_555
B14 U2 2.689560 1_555
B14 U2 2.689560 1_655
B15 B3 1.772933 1_555
B15 Co1 2.266914 1_655
B15 Co1 2.266914 1_555
B15 U1 2.614823 1_655
B15 U1 2.614823 1_555
B15 U3 2.689560 1_555
B15 U3 2.689560 1_655
