# generated using pymatgen
data_Cs2Sn4Se9O
_symmetry_space_group_name_H-M   'P 1'
_cell_length_a   12.81323500
_cell_length_b   12.82548100
_cell_length_c   14.11045700
_cell_angle_alpha   90.00000000
_cell_angle_beta   90.00000000
_cell_angle_gamma   90.00000000
_symmetry_Int_Tables_number   1
_chemical_formula_structural   Cs2Sn4Se9O
_chemical_formula_sum   'Cs8 Sn16 Se36 O4'
_cell_volume   2318.85467931
_cell_formula_units_Z   4
loop_
 _symmetry_equiv_pos_site_id
 _symmetry_equiv_pos_as_xyz
  1  'x, y, z'
loop_
 _atom_site_type_symbol
 _atom_site_label
 _atom_site_symmetry_multiplicity
 _atom_site_fract_x
 _atom_site_fract_y
 _atom_site_fract_z
 _atom_site_occupancy
  Cs  Cs0  1  0.24960600  0.43439900  0.43370300  1
  Cs  Cs1  1  0.24960600  0.06560100  0.93370300  1
  Cs  Cs2  1  0.74960600  0.56560100  0.56629700  1
  Cs  Cs3  1  0.74960600  0.93439900  0.06629700  1
  Cs  Cs4  1  0.82466000  0.46020700  0.93980500  1
  Cs  Cs5  1  0.32466000  0.53979300  0.06019500  1
  Cs  Cs6  1  0.32466000  0.96020700  0.56019500  1
  Cs  Cs7  1  0.82466000  0.03979300  0.43980500  1
  Sn  Sn0  1  0.10511800  0.17754400  0.23552500  1
  Sn  Sn1  1  0.39628800  0.32133800  0.73542000  1
  Sn  Sn2  1  0.60511800  0.82245600  0.76447500  1
  Sn  Sn3  1  0.89628800  0.67866200  0.26458000  1
  Sn  Sn4  1  0.89628800  0.82133800  0.76458000  1
  Sn  Sn5  1  0.60511800  0.67754400  0.26447500  1
  Sn  Sn6  1  0.39628800  0.17866200  0.23542000  1
  Sn  Sn7  1  0.10511800  0.32245600  0.73552500  1
  Sn  Sn8  1  0.91167600  0.36939400  0.32374300  1
  Sn  Sn9  1  0.58721200  0.13308000  0.82375000  1
  Sn  Sn10  1  0.41167600  0.63060600  0.67625700  1
  Sn  Sn11  1  0.08721200  0.86692000  0.17625000  1
  Sn  Sn12  1  0.08721200  0.63308000  0.67625000  1
  Sn  Sn13  1  0.41167600  0.86939400  0.17625700  1
  Sn  Sn14  1  0.58721200  0.36692000  0.32375000  1
  Sn  Sn15  1  0.91167600  0.13060600  0.82374300  1
  Se  Se0  1  0.94756600  0.31305400  0.15499700  1
  Se  Se1  1  0.55023100  0.18360400  0.65405300  1
  Se  Se2  1  0.44756600  0.68694600  0.84500300  1
  Se  Se3  1  0.05023100  0.81639600  0.34594700  1
  Se  Se4  1  0.05023100  0.68360400  0.84594700  1
  Se  Se5  1  0.44756600  0.81305400  0.34500300  1
  Se  Se6  1  0.55023100  0.31639600  0.15405300  1
  Se  Se7  1  0.94756600  0.18694600  0.65499700  1
  Se  Se8  1  0.00934400  0.04519400  0.12530400  1
  Se  Se9  1  0.49020300  0.45411800  0.62417700  1
  Se  Se10  1  0.50934400  0.95480600  0.87469600  1
  Se  Se11  1  0.99020300  0.54588200  0.37582300  1
  Se  Se12  1  0.99020300  0.95411800  0.87582300  1
  Se  Se13  1  0.50934400  0.54519400  0.37469600  1
  Se  Se14  1  0.49020300  0.04588200  0.12417700  1
  Se  Se15  1  0.00934400  0.45480600  0.62530400  1
  Se  Se16  1  0.24943500  0.28866900  0.15460100  1
  Se  Se17  1  0.24943500  0.21133100  0.65460100  1
  Se  Se18  1  0.74943500  0.71133100  0.84539900  1
  Se  Se19  1  0.74943500  0.78866900  0.34539900  1
  Se  Se20  1  0.04044100  0.23514700  0.40307900  1
  Se  Se21  1  0.45950600  0.26616000  0.90371400  1
  Se  Se22  1  0.54044100  0.76485300  0.59692100  1
  Se  Se23  1  0.95950600  0.73384000  0.09628600  1
  Se  Se24  1  0.95950600  0.76616000  0.59628600  1
  Se  Se25  1  0.54044100  0.73514700  0.09692100  1
  Se  Se26  1  0.45950600  0.23384000  0.40371400  1
  Se  Se27  1  0.04044100  0.26485300  0.90307900  1
  Se  Se28  1  0.74981200  0.32233900  0.42383100  1
  Se  Se29  1  0.74981200  0.17766100  0.92383100  1
  Se  Se30  1  0.24981200  0.67766100  0.57616900  1
  Se  Se31  1  0.24981200  0.82233900  0.07616900  1
  Se  Se32  1  0.25048900  0.04398400  0.30345400  1
  Se  Se33  1  0.25048900  0.45601600  0.80345400  1
  Se  Se34  1  0.75048900  0.95601600  0.69654600  1
  Se  Se35  1  0.75048900  0.54398400  0.19654600  1
  O  O0  1  0.25521100  0.61645600  0.27965500  1
  O  O1  1  0.25521100  0.88354400  0.77965500  1
  O  O2  1  0.75521100  0.38354400  0.72034500  1
  O  O3  1  0.75521100  0.11645600  0.22034500  1
loop_
_geom_bond_atom_site_label_1
_geom_bond_atom_site_label_2
_geom_bond_distance
_geom_bond_site_symmetry_2
Cs0 O0 3.190949 1_555
Cs0 Se11 3.709313 1_455
Cs0 Se30 3.711503 1_555
Cs0 Se13 3.713305 1_555
Cs0 Se20 3.728291 1_555
Cs0 Se26 3.745532 1_555
Cs0 Se9 4.097728 1_555
Cs0 Se15 4.105509 1_555
Cs1 O1 3.190949 1_545
Cs1 Se12 3.709313 1_445
Cs1 Se31 3.711503 1_546
Cs1 Se10 3.713305 1_545
Cs1 Se27 3.728291 1_555
Cs1 Se21 3.745532 1_555
Cs1 Se14 4.097728 1_556
Cs1 Se8 4.105509 1_556
Cs2 O2 3.190949 1_555
Cs2 Se9 3.709313 1_555
Cs2 Se28 3.711503 1_555
Cs2 Se15 3.713305 1_655
Cs2 Se22 3.728291 1_555
Cs2 Se24 3.745532 1_555
Cs2 Se11 4.097728 1_555
Cs2 Se13 4.105509 1_555
Cs3 O3 3.190949 1_565
Cs3 Se14 3.709313 1_565
Cs3 Se29 3.711503 1_564
Cs3 Se8 3.713305 1_665
Cs3 Se25 3.728291 1_555
Cs3 Se23 3.745532 1_555
Cs3 Se12 4.097728 1_554
Cs3 Se10 4.105509 1_554
Cs4 O2 3.368687 1_555
Cs4 Se18 3.616219 1_555
Cs4 Se29 3.755318 1_555
Cs4 Se27 3.767033 1_655
Cs4 Se35 3.896396 1_556
Cs4 Se0 3.906670 1_556
Cs4 Se4 4.279837 1_655
Cs5 O0 3.368687 1_555
Cs5 Se16 3.616219 1_555
Cs5 Se31 3.755318 1_555
Cs5 Se25 3.767033 1_555
Cs5 Se33 3.896396 1_554
Cs5 Se2 3.906670 1_554
Cs5 Se6 4.279837 1_555
Cs6 O1 3.368687 1_555
Cs6 Se17 3.616219 1_565
Cs6 Se30 3.755318 1_555
Cs6 Se22 3.767033 1_555
Cs6 Se32 3.896396 1_565
Cs6 Se5 3.906670 1_555
Cs6 Se1 4.279837 1_565
Cs7 O3 3.368687 1_555
Cs7 Se19 3.616219 1_545
Cs7 Se28 3.755318 1_555
Cs7 Se20 3.767033 1_655
Cs7 Se34 3.896396 1_545
Cs7 Se7 3.906670 1_555
Cs7 Se3 4.279837 1_645
Se0 Sn8 2.530448 1_555
Se0 Sn0 2.896046 1_655
Se1 Sn9 2.525484 1_555
Se1 Sn1 2.886091 1_555
Se2 Sn10 2.530448 1_555
Se2 Sn2 2.896046 1_555
Se3 Sn11 2.525484 1_555
Se3 Sn3 2.886091 1_455
Se4 Sn12 2.525484 1_555
Se4 Sn4 2.886091 1_455
Se5 Sn13 2.530448 1_555
Se5 Sn5 2.896046 1_555
Se6 Sn14 2.525484 1_555
Se6 Sn6 2.886091 1_555
Se7 Sn15 2.530448 1_555
Se7 Sn7 2.896046 1_655
Se8 Sn11 2.596173 1_545
Se8 Sn0 2.608862 1_555
Se9 Sn10 2.583810 1_555
Se9 Sn1 2.609997 1_555
Se10 Sn9 2.596173 1_565
Se10 Sn2 2.608862 1_555
Se11 Sn8 2.583810 1_555
Se11 Sn3 2.609997 1_555
Se12 Sn15 2.583810 1_565
Se12 Sn4 2.609997 1_555
Se13 Sn14 2.596173 1_555
Se13 Sn5 2.608862 1_555
Se14 Sn13 2.583810 1_545
Se14 Sn6 2.609997 1_555
Se15 Sn12 2.596173 1_555
Se15 Sn7 2.608862 1_555
Se16 Sn0 2.598958 1_555
Se16 Sn6 2.613765 1_555
Se17 Sn7 2.598958 1_555
Se17 Sn1 2.613765 1_555
Se18 Sn2 2.598958 1_555
Se18 Sn4 2.613765 1_555
Se19 Sn5 2.598958 1_555
Se19 Sn3 2.613765 1_555
Se20 Sn0 2.611958 1_555
Se20 Sn8 2.634369 1_455
Se21 Sn1 2.606950 1_555
Se21 Sn9 2.619906 1_555
Se22 Sn2 2.611958 1_555
Se22 Sn10 2.634369 1_555
Se23 Sn3 2.606950 1_555
Se23 Sn11 2.619906 1_655
Se24 Sn4 2.606950 1_555
Se24 Sn12 2.619906 1_655
Se25 Sn5 2.611958 1_555
Se25 Sn13 2.634369 1_555
Se26 Sn6 2.606950 1_555
Se26 Sn14 2.619906 1_555
Se27 Sn7 2.611958 1_555
Se27 Sn15 2.634369 1_455
Se28 Sn8 2.580747 1_555
Se28 Sn14 2.581064 1_555
Se29 Sn15 2.580747 1_555
Se29 Sn9 2.581064 1_555
Se30 Sn10 2.580747 1_555
Se30 Sn12 2.581064 1_555
Se31 Sn13 2.580747 1_555
Se31 Sn11 2.581064 1_555
Se32 Sn0 2.706023 1_555
Se32 Sn6 2.719410 1_555
Se33 Sn7 2.706023 1_555
Se33 Sn1 2.719410 1_555
Se34 Sn2 2.706023 1_555
Se34 Sn4 2.719410 1_555
Se35 Sn5 2.706023 1_555
Se35 Sn3 2.719410 1_555
