# generated using pymatgen
data_Li6MnV3(PO4)6
_symmetry_space_group_name_H-M   'P 1'
_cell_length_a   8.54965244
_cell_length_b   12.15408545
_cell_length_c   8.74650648
_cell_angle_alpha   90.00000000
_cell_angle_beta   90.00000000
_cell_angle_gamma   91.00180581
_symmetry_Int_Tables_number   1
_chemical_formula_structural   Li6MnV3(PO4)6
_chemical_formula_sum   'Li12 Mn2 V6 P12 O48'
_cell_volume   908.73860594
_cell_formula_units_Z   2
loop_
 _symmetry_equiv_pos_site_id
 _symmetry_equiv_pos_as_xyz
  1  'x, y, z'
loop_
 _atom_site_type_symbol
 _atom_site_label
 _atom_site_symmetry_multiplicity
 _atom_site_fract_x
 _atom_site_fract_y
 _atom_site_fract_z
 _atom_site_occupancy
  Li  Li0  1  0.06519291  0.34670289  0.51432544  1
  Li  Li1  1  0.08027039  0.69163782  0.08601628  1
  Li  Li2  1  0.18133834  0.17805438  0.77930728  1
  Li  Li3  1  0.31933089  0.32230057  0.27998899  1
  Li  Li4  1  0.41971367  0.80876610  0.58571165  1
  Li  Li5  1  0.43475903  0.15408300  0.01211460  1
  Li  Li6  1  0.56519291  0.84670289  0.98567456  1
  Li  Li7  1  0.58027039  0.19163782  0.41398372  1
  Li  Li8  1  0.68133834  0.67805438  0.72069272  1
  Li  Li9  1  0.81933089  0.82230057  0.22001101  1
  Li  Li10  1  0.91971367  0.30876610  0.91428835  1
  Li  Li11  1  0.93475903  0.65408300  0.48788540  1
  Mn  Mn0  1  0.25315038  0.60586780  0.52911384  1
  Mn  Mn1  1  0.75315038  0.10586780  0.97088616  1
  V  V0  1  0.24331628  0.89567686  0.02712908  1
  V  V1  1  0.24504166  0.10883639  0.46439563  1
  V  V2  1  0.25590724  0.39070776  0.96446230  1
  V  V3  1  0.74504166  0.60883639  0.03560437  1
  V  V4  1  0.74331628  0.39567686  0.47287092  1
  V  V5  1  0.75590724  0.89070776  0.53553770  1
  P  P0  1  0.04117348  0.49012921  0.25033460  1
  P  P1  1  0.11384546  0.84969711  0.38234542  1
  P  P2  1  0.11559683  0.14673163  0.11039916  1
  P  P3  1  0.38519832  0.65162981  0.88202981  1
  P  P4  1  0.38402035  0.35179168  0.60934071  1
  P  P5  1  0.45920850  0.00868861  0.74820527  1
  P  P6  1  0.54117348  0.99012921  0.24966540  1
  P  P7  1  0.61559683  0.64673163  0.38960084  1
  P  P8  1  0.61384546  0.34969711  0.11765458  1
  P  P9  1  0.88402035  0.85179168  0.89065929  1
  P  P10  1  0.88519832  0.15162981  0.61797019  1
  P  P11  1  0.95920850  0.50868861  0.75179473  1
  O  O0  1  0.05184302  0.89599550  0.89165253  1
  O  O1  1  0.05050712  0.44429976  0.87245709  1
  O  O2  1  0.05322998  0.60047117  0.66796868  1
  O  O3  1  0.05809346  0.18840088  0.57952478  1
  O  O4  1  0.10133596  0.58306309  0.36214394  1
  O  O5  1  0.12375782  0.83159400  0.20516708  1
  O  O6  1  0.13817147  0.97160706  0.41970326  1
  O  O7  1  0.13027856  0.24557136  0.99372861  1
  O  O8  1  0.17465728  0.18714110  0.26929428  1
  O  O9  1  0.18413476  0.43371083  0.17684492  1
  O  O10  1  0.22977776  0.77909281  0.47141941  1
  O  O11  1  0.23638889  0.06188063  0.04958315  1
  O  O12  1  0.26241112  0.43412026  0.54798976  1
  O  O13  1  0.27084836  0.72483347  0.97047749  1
  O  O14  1  0.31434293  0.06483946  0.67557929  1
  O  O15  1  0.32909406  0.31236293  0.77008818  1
  O  O16  1  0.35908765  0.53056224  0.92107446  1
  O  O17  1  0.37298812  0.25170217  0.49426369  1
  O  O18  1  0.37748793  0.66766498  0.70300849  1
  O  O19  1  0.40035210  0.91788989  0.86021865  1
  O  O20  1  0.44490027  0.90111650  0.16420753  1
  O  O21  1  0.44117956  0.31245073  0.07923429  1
  O  O22  1  0.44817045  0.60236134  0.38805339  1
  O  O23  1  0.44989665  0.05596621  0.36918536  1
  O  O24  1  0.55050712  0.94429976  0.62754291  1
  O  O25  1  0.55184302  0.39599550  0.60834747  1
  O  O26  1  0.55809446  0.68840088  0.92047522  1
  O  O27  1  0.55322998  0.10047117  0.83203132  1
  O  O28  1  0.60133596  0.08306309  0.13785606  1
  O  O29  1  0.62375782  0.33159400  0.29483292  1
  O  O30  1  0.63027856  0.74557136  0.50627139  1
  O  O31  1  0.63817147  0.47160706  0.08029674  1
  O  O32  1  0.67465728  0.68714110  0.23070572  1
  O  O33  1  0.68413476  0.93371083  0.32315508  1
  O  O34  1  0.72977776  0.27909281  0.02858059  1
  O  O35  1  0.73638889  0.56188063  0.45041685  1
  O  O36  1  0.76241112  0.93412026  0.95201024  1
  O  O37  1  0.77084836  0.22483347  0.52952251  1
  O  O38  1  0.81434293  0.56483946  0.82442071  1
  O  O39  1  0.82909406  0.81236293  0.72991182  1
  O  O40  1  0.87298812  0.75170217  0.00573631  1
  O  O41  1  0.85908765  0.03056224  0.57892554  1
  O  O42  1  0.87748793  0.16766498  0.79699151  1
  O  O43  1  0.90035210  0.41788989  0.63978135  1
  O  O44  1  0.94117956  0.81245073  0.42076571  1
  O  O45  1  0.94490027  0.40111650  0.33579247  1
  O  O46  1  0.94989665  0.55596621  0.13081464  1
  O  O47  1  0.94817045  0.10236134  0.11194661  1
loop_
_geom_bond_atom_site_label_1
_geom_bond_atom_site_label_2
_geom_bond_distance
_geom_bond_site_symmetry_2
Li0 O45 1.989297 1_455
Li0 O43 1.995374 1_455
Li0 O12 1.999001 1_555
Li0 O3 2.006650 1_555
Li1 O13 1.953431 1_554
Li1 O46 2.012657 1_455
Li1 O5 2.023793 1_555
Li1 O40 2.052287 1_455
Li2 O14 2.016028 1_555
Li2 O3 2.045516 1_555
Li2 O15 2.048156 1_555
Li2 O7 2.096129 1_555
Li3 O9 2.009533 1_555
Li3 O8 2.041136 1_555
Li3 O21 2.046255 1_555
Li3 O17 2.114932 1_555
Li4 O10 1.935436 1_555
Li4 O24 2.008349 1_555
Li4 O18 2.025414 1_555
Li4 O30 2.088539 1_555
Li5 O27 1.988603 1_554
Li5 O28 2.006465 1_555
Li5 O21 2.012181 1_555
Li5 O11 2.042833 1_555
Li6 O20 1.989297 1_556
Li6 O19 1.995374 1_555
Li6 O36 1.999001 1_555
Li6 O26 2.006649 1_555
Li7 O37 1.953431 1_555
Li7 O23 2.012657 1_555
Li7 O29 2.023793 1_555
Li7 O17 2.052287 1_555
Li8 O38 2.016028 1_555
Li8 O26 2.045512 1_555
Li8 O39 2.048156 1_555
Li8 O30 2.096129 1_555
Li9 O33 2.009533 1_555
Li9 O32 2.041136 1_555
Li9 O44 2.046255 1_555
Li9 O40 2.114932 1_555
Li10 O34 1.935436 1_556
Li10 O1 2.008349 1_655
Li10 O42 2.025414 1_555
Li10 O7 2.088539 1_655
Li11 O2 1.988603 1_655
Li11 O4 2.006465 1_655
Li11 O44 2.012181 1_555
Li11 O35 2.042833 1_555
Mn0 O4 1.970209 1_555
Mn0 O18 1.994900 1_555
Mn0 O22 2.075234 1_555
Mn0 O12 2.096828 1_555
Mn0 O2 2.096882 1_555
Mn0 O10 2.177605 1_555
Mn1 O28 1.970209 1_556
Mn1 O42 1.994900 1_555
Mn1 O47 2.075234 1_556
Mn1 O36 2.096828 1_545
Mn1 O27 2.096882 1_555
Mn1 O34 2.177605 1_556
O0 P9 1.523315 1_455
O0 V0 2.020941 1_556
O1 P11 1.535223 1_455
O1 V2 2.048350 1_555
O2 P11 1.548158 1_455
O3 P10 1.573138 1_455
O3 V1 2.134925 1_555
O4 P0 1.573676 1_555
O5 P1 1.567734 1_555
O5 V0 2.012103 1_555
O6 P1 1.527970 1_555
O6 V1 1.927757 1_565
O7 P2 1.579544 1_556
O7 V2 2.065096 1_555
O8 P2 1.555313 1_555
O8 V1 2.049368 1_555
O9 P0 1.551327 1_555
O9 V2 2.027716 1_554
O10 P1 1.534779 1_555
O11 P2 1.565335 1_555
O11 V0 2.031473 1_545
O12 P4 1.551320 1_555
O13 P3 1.541525 1_555
O13 V0 2.151662 1_556
O14 P5 1.559752 1_555
O14 V1 2.014928 1_555
O15 P4 1.555341 1_555
O15 V2 2.051679 1_555
O16 P3 1.523215 1_555
O16 V2 1.938843 1_555
O17 P4 1.580454 1_555
O17 V1 2.052690 1_555
O18 P3 1.579412 1_555
O19 P5 1.552912 1_565
O19 V0 1.998512 1_556
O20 P6 1.541263 1_555
O20 V0 2.099582 1_555
O21 P8 1.572818 1_555
O21 V2 2.115225 1_554
O22 P7 1.520864 1_555
O23 P6 1.537518 1_545
O23 V1 2.052632 1_555
O24 P5 1.535223 1_565
O24 V5 2.048350 1_555
O25 P4 1.523315 1_555
O25 V4 2.020941 1_555
O26 P3 1.573146 1_555
O26 V3 2.134918 1_556
O27 P5 1.548158 1_555
O28 P6 1.573676 1_545
O29 P8 1.567734 1_555
O29 V4 2.012103 1_555
O30 P7 1.579544 1_555
O30 V5 2.065096 1_555
O31 P8 1.527970 1_555
O31 V3 1.927757 1_555
O32 P7 1.555313 1_555
O32 V3 2.049368 1_555
O33 P6 1.551327 1_555
O33 V5 2.027716 1_555
O34 P8 1.534779 1_555
O35 P7 1.565335 1_555
O35 V4 2.031473 1_555
O36 P9 1.551320 1_555
O37 P10 1.541525 1_555
O37 V4 2.151662 1_555
O38 P11 1.559752 1_555
O38 V3 2.014928 1_556
O39 P9 1.555341 1_555
O39 V5 2.051679 1_555
O40 P9 1.580454 1_554
O40 V3 2.052690 1_555
O41 P10 1.523215 1_555
O41 V5 1.938843 1_545
O42 P10 1.579412 1_555
O43 P11 1.552912 1_555
O43 V4 1.998512 1_555
O44 P1 1.572818 1_655
O44 V5 2.115225 1_555
O45 P0 1.541263 1_655
O45 V4 2.099582 1_555
O46 P0 1.537518 1_655
O46 V3 2.052632 1_555
O47 P2 1.520864 1_655
