# generated using pymatgen
data_Ca2Co2O5
_symmetry_space_group_name_H-M   'P 1'
_cell_length_a   15.10223900
_cell_length_b   5.33269200
_cell_length_c   11.12037042
_cell_angle_alpha   89.59601303
_cell_angle_beta   90.00000000
_cell_angle_gamma   90.00000000
_symmetry_Int_Tables_number   1
_chemical_formula_structural   Ca2Co2O5
_chemical_formula_sum   'Ca16 Co16 O40'
_cell_volume   895.56332111
_cell_formula_units_Z   8
loop_
 _symmetry_equiv_pos_site_id
 _symmetry_equiv_pos_as_xyz
  1  'x, y, z'
loop_
 _atom_site_type_symbol
 _atom_site_label
 _atom_site_symmetry_multiplicity
 _atom_site_fract_x
 _atom_site_fract_y
 _atom_site_fract_z
 _atom_site_occupancy
  Ca  Ca0  1  0.38970100  0.02076800  0.26026800  1
  Ca  Ca1  1  0.88970100  0.97923200  0.73973200  1
  Ca  Ca2  1  0.61029900  0.97923200  0.73973200  1
  Ca  Ca3  1  0.11029900  0.02076800  0.26026800  1
  Ca  Ca4  1  0.89043500  0.02031700  0.23763600  1
  Ca  Ca5  1  0.39043500  0.97968300  0.76236400  1
  Ca  Ca6  1  0.10956500  0.97968300  0.76236400  1
  Ca  Ca7  1  0.60956500  0.02031700  0.23763600  1
  Ca  Ca8  1  0.89060700  0.48854400  0.01057400  1
  Ca  Ca9  1  0.39060700  0.51145600  0.98942600  1
  Ca  Ca10  1  0.10939300  0.51145600  0.98942600  1
  Ca  Ca11  1  0.60939300  0.48854400  0.01057400  1
  Ca  Ca12  1  0.38972500  0.48824400  0.48899800  1
  Ca  Ca13  1  0.88972500  0.51175600  0.51100200  1
  Ca  Ca14  1  0.61027500  0.51175600  0.51100200  1
  Ca  Ca15  1  0.11027500  0.48824400  0.48899800  1
  Co  Co0  1  0.25000000  0.44698700  0.71967700  1
  Co  Co1  1  0.75000000  0.55301300  0.28032300  1
  Co  Co2  1  0.25000000  0.55243000  0.21879000  1
  Co  Co3  1  0.75000000  0.44757000  0.78121000  1
  Co  Co4  1  0.25000000  0.04379800  0.02892700  1
  Co  Co5  1  0.75000000  0.95620200  0.97107300  1
  Co  Co6  1  0.25000000  0.95563600  0.53023100  1
  Co  Co7  1  0.75000000  0.04436400  0.46976900  1
  Co  Co8  1  0.50000000  0.00000000  0.50000000  1
  Co  Co9  1  0.00000000  0.00000000  0.50000000  1
  Co  Co10  1  0.50000000  0.00000000  0.00000000  1
  Co  Co11  1  0.00000000  0.00000000  0.00000000  1
  Co  Co12  1  0.49972600  0.50872100  0.24895800  1
  Co  Co13  1  0.99972600  0.49127900  0.75104200  1
  Co  Co14  1  0.50027400  0.49127900  0.75104200  1
  Co  Co15  1  0.00027400  0.50872100  0.24895800  1
  O  O0  1  0.25000000  0.08266800  0.69345500  1
  O  O1  1  0.75000000  0.91733200  0.30654500  1
  O  O2  1  0.25000000  0.91627000  0.19337900  1
  O  O3  1  0.75000000  0.08373000  0.80662100  1
  O  O4  1  0.25000000  0.59003900  0.55816400  1
  O  O5  1  0.75000000  0.40996100  0.44183600  1
  O  O6  1  0.25000000  0.41058200  0.05829400  1
  O  O7  1  0.75000000  0.58941800  0.94170600  1
  O  O8  1  0.35834800  0.02588500  0.46750700  1
  O  O9  1  0.85834800  0.97411500  0.53249300  1
  O  O10  1  0.64165200  0.97411500  0.53249300  1
  O  O11  1  0.14165200  0.02588500  0.46750700  1
  O  O12  1  0.85783500  0.02550800  0.03241300  1
  O  O13  1  0.35783500  0.97449200  0.96758700  1
  O  O14  1  0.14216500  0.97449200  0.96758700  1
  O  O15  1  0.64216500  0.02550800  0.03241300  1
  O  O16  1  0.85910500  0.49234300  0.21764500  1
  O  O17  1  0.35910500  0.50765700  0.78235500  1
  O  O18  1  0.14089500  0.50765700  0.78235500  1
  O  O19  1  0.64089500  0.49234300  0.21764500  1
  O  O20  1  0.35907500  0.49238200  0.28274200  1
  O  O21  1  0.85907500  0.50761800  0.71725800  1
  O  O22  1  0.64092500  0.50761800  0.71725800  1
  O  O23  1  0.14092500  0.49238200  0.28274200  1
  O  O24  1  0.49015600  0.23006300  0.62149600  1
  O  O25  1  0.99015600  0.76993700  0.37850400  1
  O  O26  1  0.50984400  0.76993700  0.37850400  1
  O  O27  1  0.00984400  0.23006300  0.62149600  1
  O  O28  1  0.48974200  0.75390300  0.13274800  1
  O  O29  1  0.98974200  0.24609700  0.86725200  1
  O  O30  1  0.51025800  0.24609700  0.86725200  1
  O  O31  1  0.01025800  0.75390300  0.13274800  1
  O  O32  1  0.98519000  0.27202400  0.37188200  1
  O  O33  1  0.48519000  0.72797600  0.62811800  1
  O  O34  1  0.01481000  0.72797600  0.62811800  1
  O  O35  1  0.51481000  0.27202400  0.37188200  1
  O  O36  1  0.48420100  0.25437700  0.12069900  1
  O  O37  1  0.98420100  0.74562300  0.87930100  1
  O  O38  1  0.51579900  0.74562300  0.87930100  1
  O  O39  1  0.01579900  0.25437700  0.12069900  1
loop_
_geom_bond_atom_site_label_1
_geom_bond_atom_site_label_2
_geom_bond_distance
_geom_bond_site_symmetry_2
Ca0 O2 2.306710 1_545
Ca0 O8 2.353061 1_555
Ca0 O36 2.443428 1_555
Ca0 O28 2.519378 1_545
Ca0 O20 2.571057 1_555
Ca0 O26 2.604862 1_545
Ca0 O35 2.632335 1_555
Ca0 O20 2.864612 1_545
Ca1 O3 2.306710 1_565
Ca1 O9 2.353061 1_555
Ca1 O37 2.443428 1_555
Ca1 O29 2.519378 1_565
Ca1 O21 2.571057 1_555
Ca1 O27 2.604862 1_665
Ca1 O34 2.632335 1_655
Ca1 O21 2.864612 1_565
Ca2 O3 2.306710 1_565
Ca2 O10 2.353061 1_555
Ca2 O38 2.443428 1_555
Ca2 O30 2.519378 1_565
Ca2 O22 2.571057 1_555
Ca2 O24 2.604862 1_565
Ca2 O33 2.632335 1_555
Ca2 O22 2.864612 1_565
Ca3 O2 2.306710 1_545
Ca3 O11 2.353061 1_555
Ca3 O39 2.443428 1_555
Ca3 O31 2.519378 1_545
Ca3 O23 2.571057 1_555
Ca3 O25 2.604862 1_445
Ca3 O32 2.632335 1_455
Ca3 O23 2.864612 1_545
Ca4 O1 2.319703 1_545
Ca4 O12 2.334631 1_555
Ca4 O32 2.471114 1_555
Ca4 O25 2.544654 1_545
Ca4 O16 2.569347 1_555
Ca4 O31 2.583965 1_645
Ca4 O39 2.609700 1_655
Ca4 O16 2.865186 1_545
Ca5 O0 2.319703 1_565
Ca5 O13 2.334631 1_555
Ca5 O33 2.471114 1_555
Ca5 O24 2.544654 1_565
Ca5 O17 2.569347 1_555
Ca5 O30 2.583965 1_565
Ca5 O38 2.609700 1_555
Ca5 O17 2.865186 1_565
Ca6 O0 2.319703 1_565
Ca6 O14 2.334631 1_555
Ca6 O34 2.471114 1_555
Ca6 O27 2.544654 1_565
Ca6 O18 2.569347 1_555
Ca6 O29 2.583965 1_465
Ca6 O37 2.609700 1_455
Ca6 O18 2.865186 1_565
Ca7 O1 2.319703 1_545
Ca7 O15 2.334631 1_555
Ca7 O35 2.471114 1_555
Ca7 O26 2.544654 1_545
Ca7 O19 2.569347 1_555
Ca7 O28 2.583965 1_545
Ca7 O36 2.609700 1_555
Ca7 O19 2.865186 1_545
Ca8 O7 2.319318 1_554
Ca8 O16 2.351566 1_555
Ca8 O37 2.445437 1_554
Ca8 O12 2.528353 1_555
Ca8 O29 2.546037 1_554
Ca8 O39 2.571415 1_655
Ca8 O31 2.672199 1_655
Ca8 O12 2.917733 1_565
Ca9 O6 2.319318 1_556
Ca9 O17 2.351566 1_555
Ca9 O36 2.445437 1_556
Ca9 O13 2.528353 1_555
Ca9 O28 2.546037 1_556
Ca9 O38 2.571415 1_555
Ca9 O30 2.672199 1_555
Ca9 O13 2.917733 1_545
Ca10 O6 2.319318 1_556
Ca10 O18 2.351566 1_555
Ca10 O39 2.445437 1_556
Ca10 O14 2.528353 1_555
Ca10 O31 2.546037 1_556
Ca10 O37 2.571415 1_455
Ca10 O29 2.672199 1_455
Ca10 O14 2.917733 1_545
Ca11 O7 2.319318 1_554
Ca11 O19 2.351566 1_555
Ca11 O38 2.445437 1_554
Ca11 O15 2.528353 1_555
Ca11 O30 2.546037 1_554
Ca11 O36 2.571415 1_555
Ca11 O28 2.672199 1_555
Ca11 O15 2.917733 1_565
Ca12 O4 2.311912 1_555
Ca12 O20 2.339836 1_555
Ca12 O33 2.476743 1_555
Ca12 O24 2.517625 1_555
Ca12 O8 2.523736 1_555
Ca12 O35 2.572042 1_555
Ca12 O26 2.651631 1_555
Ca12 O8 2.914123 1_565
Ca13 O5 2.311912 1_555
Ca13 O21 2.339836 1_555
Ca13 O32 2.476743 1_555
Ca13 O25 2.517625 1_555
Ca13 O9 2.523736 1_555
Ca13 O34 2.572042 1_655
Ca13 O27 2.651631 1_655
Ca13 O9 2.914123 1_545
Ca14 O5 2.311912 1_555
Ca14 O22 2.339836 1_555
Ca14 O35 2.476743 1_555
Ca14 O26 2.517625 1_555
Ca14 O10 2.523736 1_555
Ca14 O33 2.572042 1_555
Ca14 O24 2.651631 1_555
Ca14 O10 2.914123 1_545
Ca15 O4 2.311912 1_555
Ca15 O23 2.339836 1_555
Ca15 O34 2.476743 1_555
Ca15 O27 2.517625 1_555
Ca15 O11 2.523736 1_555
Ca15 O32 2.572042 1_455
Ca15 O25 2.651631 1_455
Ca15 O11 2.914123 1_565
Co0 O17 1.818978 1_555
Co0 O18 1.818978 1_555
Co0 O4 1.946418 1_555
Co0 O0 1.966595 1_555
Co1 O19 1.818978 1_555
Co1 O16 1.818978 1_555
Co1 O5 1.946418 1_555
Co1 O1 1.966595 1_555
Co2 O20 1.821706 1_555
Co2 O23 1.821706 1_555
Co2 O6 1.943360 1_555
Co2 O2 1.958744 1_555
Co3 O22 1.821706 1_555
Co3 O21 1.821706 1_555
Co3 O7 1.943360 1_555
Co3 O3 1.958744 1_555
Co4 O14 1.804887 1_544
Co4 O13 1.804887 1_544
Co4 O2 1.946624 1_545
Co4 O6 1.985291 1_555
Co5 O12 1.804887 1_566
Co5 O15 1.804887 1_566
Co5 O3 1.946624 1_565
Co5 O7 1.985291 1_555
Co6 O11 1.816768 1_565
Co6 O8 1.816768 1_565
Co6 O0 1.941873 1_565
Co6 O4 1.972042 1_555
Co7 O9 1.816768 1_545
Co7 O10 1.816768 1_545
Co7 O1 1.941873 1_545
Co7 O5 1.972042 1_555
Co8 O26 1.837408 1_545
Co8 O24 1.837408 1_555
Co8 O33 2.038383 1_545
Co8 O35 2.038383 1_555
Co8 O8 2.173789 1_555
Co8 O10 2.173789 1_545
Co9 O25 1.837408 1_445
Co9 O27 1.837408 1_555
Co9 O34 2.038383 1_545
Co9 O32 2.038383 1_455
Co9 O11 2.173789 1_555
Co9 O9 2.173789 1_445
Co10 O38 1.929841 1_544
Co10 O36 1.929841 1_555
Co10 O30 1.974375 1_554
Co10 O28 1.974375 1_545
Co10 O13 2.181460 1_544
Co10 O15 2.181460 1_555
Co11 O37 1.929841 1_444
Co11 O39 1.929841 1_555
Co11 O29 1.974375 1_454
Co11 O31 1.974375 1_545
Co11 O12 2.181460 1_455
Co11 O14 2.181460 1_544
Co12 O28 1.838055 1_555
Co12 O35 1.867986 1_555
Co12 O36 1.989020 1_555
Co12 O26 2.016775 1_555
Co12 O20 2.158765 1_555
Co12 O19 2.162081 1_555
Co13 O29 1.838055 1_555
Co13 O34 1.867986 1_655
Co13 O37 1.989020 1_555
Co13 O27 2.016775 1_655
Co13 O21 2.158765 1_555
Co13 O18 2.162081 1_655
Co14 O30 1.838055 1_555
Co14 O33 1.867986 1_555
Co14 O38 1.989020 1_555
Co14 O24 2.016775 1_555
Co14 O22 2.158765 1_555
Co14 O17 2.162081 1_555
Co15 O31 1.838055 1_555
Co15 O32 1.867986 1_455
Co15 O39 1.989020 1_555
Co15 O25 2.016775 1_455
Co15 O23 2.158765 1_555
Co15 O16 2.162081 1_455
