# generated using pymatgen
data_KBaPSe4
_symmetry_space_group_name_H-M   'P 1'
_cell_length_a   7.12018500
_cell_length_b   10.31586400
_cell_length_c   12.71452300
_cell_angle_alpha   90.00000000
_cell_angle_beta   90.00000000
_cell_angle_gamma   90.00000000
_symmetry_Int_Tables_number   1
_chemical_formula_structural   KBaPSe4
_chemical_formula_sum   'K4 Ba4 P4 Se16'
_cell_volume   933.89265030
_cell_formula_units_Z   4
loop_
 _symmetry_equiv_pos_site_id
 _symmetry_equiv_pos_as_xyz
  1  'x, y, z'
loop_
 _atom_site_type_symbol
 _atom_site_label
 _atom_site_symmetry_multiplicity
 _atom_site_fract_x
 _atom_site_fract_y
 _atom_site_fract_z
 _atom_site_occupancy
  K  K0  1  0.25000000  0.33337600  0.13041800  1
  K  K1  1  0.75000000  0.66662400  0.86958200  1
  K  K2  1  0.75000000  0.83337600  0.36958200  1
  K  K3  1  0.25000000  0.16662400  0.63041800  1
  Ba  Ba0  1  0.25000000  0.61932600  0.64209100  1
  Ba  Ba1  1  0.75000000  0.38067400  0.35790900  1
  Ba  Ba2  1  0.75000000  0.11932600  0.85790900  1
  Ba  Ba3  1  0.25000000  0.88067400  0.14209100  1
  P  P0  1  0.25000000  0.60435100  0.32646000  1
  P  P1  1  0.75000000  0.39564900  0.67354000  1
  P  P2  1  0.75000000  0.10435100  0.17354000  1
  P  P3  1  0.25000000  0.89564900  0.82646000  1
  Se  Se0  1  0.25000000  0.07569500  0.92378000  1
  Se  Se1  1  0.75000000  0.92430500  0.07622000  1
  Se  Se2  1  0.75000000  0.57569500  0.57622000  1
  Se  Se3  1  0.25000000  0.42430500  0.42378000  1
  Se  Se4  1  0.25000000  0.78679000  0.41949300  1
  Se  Se5  1  0.75000000  0.21321000  0.58050700  1
  Se  Se6  1  0.75000000  0.28679000  0.08050700  1
  Se  Se7  1  0.25000000  0.71321000  0.91949300  1
  Se  Se8  1  0.00135900  0.10597400  0.27702900  1
  Se  Se9  1  0.50135900  0.89402600  0.72297100  1
  Se  Se10  1  0.99864100  0.60597400  0.22297100  1
  Se  Se11  1  0.49864100  0.39402600  0.77702900  1
  Se  Se12  1  0.99864100  0.89402600  0.72297100  1
  Se  Se13  1  0.49864100  0.10597400  0.27702900  1
  Se  Se14  1  0.00135900  0.39402600  0.77702900  1
  Se  Se15  1  0.50135900  0.60597400  0.22297100  1
loop_
_geom_bond_atom_site_label_1
_geom_bond_atom_site_label_2
_geom_bond_distance
_geom_bond_site_symmetry_2
K0 Se13 3.480236 1_555
K0 Se8 3.480236 1_555
K0 Se15 3.534926 1_555
K0 Se10 3.534926 1_455
K0 Se6 3.648002 1_455
K0 Se6 3.648002 1_555
K0 Se0 3.737481 1_554
K0 Se3 3.846096 1_555
K1 Se12 3.480236 1_555
K1 Se9 3.480236 1_555
K1 Se11 3.534926 1_555
K1 Se14 3.534926 1_655
K1 Se7 3.648002 1_555
K1 Se7 3.648002 1_655
K1 Se1 3.737481 1_556
K1 Se2 3.846096 1_555
K2 Se10 3.480236 1_555
K2 Se15 3.480236 1_555
K2 Se13 3.534926 1_565
K2 Se8 3.534926 1_665
K2 Se4 3.648002 1_655
K2 Se4 3.648002 1_555
K2 Se2 3.737481 1_555
K2 Se1 3.846096 1_555
K3 Se14 3.480236 1_555
K3 Se11 3.480236 1_555
K3 Se12 3.534926 1_445
K3 Se9 3.534926 1_545
K3 Se5 3.648002 1_455
K3 Se5 3.648002 1_555
K3 Se3 3.737481 1_555
K3 Se0 3.846096 1_555
Ba0 Se4 3.315806 1_555
Ba0 Se14 3.388138 1_555
Ba0 Se11 3.388138 1_555
Ba0 Se3 3.428119 1_555
Ba0 Se12 3.505831 1_455
Ba0 Se9 3.505831 1_555
Ba0 Se7 3.657588 1_555
Ba0 Se2 3.684871 1_555
Ba0 Se2 3.684871 1_455
Ba1 Se5 3.315806 1_555
Ba1 Se15 3.388138 1_555
Ba1 Se10 3.388138 1_555
Ba1 Se2 3.428119 1_555
Ba1 Se13 3.505831 1_555
Ba1 Se8 3.505831 1_655
Ba1 Se6 3.657588 1_555
Ba1 Se3 3.684871 1_555
Ba1 Se3 3.684871 1_655
Ba2 Se6 3.315806 1_556
Ba2 Se12 3.388138 1_545
Ba2 Se9 3.388138 1_545
Ba2 Se1 3.428119 1_546
Ba2 Se11 3.505831 1_555
Ba2 Se14 3.505831 1_655
Ba2 Se5 3.657588 1_555
Ba2 Se0 3.684871 1_655
Ba2 Se0 3.684871 1_555
Ba3 Se7 3.315806 1_554
Ba3 Se8 3.388138 1_565
Ba3 Se13 3.388138 1_565
Ba3 Se0 3.428119 1_564
Ba3 Se15 3.505831 1_555
Ba3 Se10 3.505831 1_455
Ba3 Se4 3.657588 1_555
Ba3 Se1 3.684871 1_555
Ba3 Se1 3.684871 1_455
P0 Se10 2.221430 1_455
P0 Se15 2.221430 1_555
P0 Se4 2.222873 1_555
P0 Se3 2.231766 1_555
P1 Se11 2.221430 1_555
P1 Se14 2.221430 1_655
P1 Se5 2.222873 1_555
P1 Se2 2.231766 1_555
P2 Se13 2.221430 1_555
P2 Se8 2.221430 1_655
P2 Se6 2.222873 1_555
P2 Se1 2.231766 1_545
P3 Se12 2.221430 1_455
P3 Se9 2.221430 1_555
P3 Se7 2.222873 1_555
P3 Se0 2.231766 1_565
