# generated using pymatgen
data_Li9Mn7O16
_symmetry_space_group_name_H-M   'P 1'
_cell_length_a   6.06109912
_cell_length_b   6.06109912
_cell_length_c   9.73266956
_cell_angle_alpha   84.23478706
_cell_angle_beta   84.23478706
_cell_angle_gamma   56.59683010
_symmetry_Int_Tables_number   1
_chemical_formula_structural   Li9Mn7O16
_chemical_formula_sum   'Li9 Mn7 O16'
_cell_volume   296.53868233
_cell_formula_units_Z   1
loop_
 _symmetry_equiv_pos_site_id
 _symmetry_equiv_pos_as_xyz
  1  'x, y, z'
loop_
 _atom_site_type_symbol
 _atom_site_label
 _atom_site_symmetry_multiplicity
 _atom_site_fract_x
 _atom_site_fract_y
 _atom_site_fract_z
 _atom_site_occupancy
  Li  Li0  1  0.38191500  0.86976500  0.75041000  1
  Li  Li1  1  0.61808500  0.13023500  0.24959000  1
  Li  Li2  1  0.86976500  0.38191500  0.75041000  1
  Li  Li3  1  0.87135400  0.87135400  0.75639500  1
  Li  Li4  1  0.12864600  0.12864600  0.24360500  1
  Li  Li5  1  0.37705700  0.37705700  0.75920900  1
  Li  Li6  1  0.62294300  0.62294300  0.24079100  1
  Li  Li7  1  0.13023500  0.61808500  0.24959000  1
  Li  Li8  1  0.50000000  0.50000000  0.00000000  1
  Mn  Mn0  1  0.00000000  0.00000000  0.00000000  1
  Mn  Mn1  1  0.50000000  0.00000000  0.00000000  1
  Mn  Mn2  1  0.24963100  0.24963100  0.50082000  1
  Mn  Mn3  1  0.75036900  0.75036900  0.49918000  1
  Mn  Mn4  1  0.75008100  0.24991900  0.50000000  1
  Mn  Mn5  1  0.00000000  0.50000000  0.00000000  1
  Mn  Mn6  1  0.24991900  0.75008100  0.50000000  1
  O  O0  1  0.15839000  0.68061700  0.89657000  1
  O  O1  1  0.44666900  0.94768500  0.38336500  1
  O  O2  1  0.68061700  0.15839000  0.89657000  1
  O  O3  1  0.69386500  0.69386500  0.88635400  1
  O  O4  1  0.94863700  0.94863700  0.38061600  1
  O  O5  1  0.19949500  0.19949500  0.88213500  1
  O  O6  1  0.44936100  0.44936100  0.37973100  1
  O  O7  1  0.94768500  0.44666900  0.38336500  1
  O  O8  1  0.55333100  0.05231500  0.61663500  1
  O  O9  1  0.84161000  0.31938300  0.10343000  1
  O  O10  1  0.05231500  0.55333100  0.61663500  1
  O  O11  1  0.05136300  0.05136300  0.61938400  1
  O  O12  1  0.30613500  0.30613500  0.11364600  1
  O  O13  1  0.55063900  0.55063900  0.62026900  1
  O  O14  1  0.80050500  0.80050500  0.11786500  1
  O  O15  1  0.31938300  0.84161000  0.10343000  1
loop_
_geom_bond_atom_site_label_1
_geom_bond_atom_site_label_2
_geom_bond_distance
_geom_bond_site_symmetry_2
Li0 O13 2.108434 1_555
Li0 O3 2.112319 1_555
Li0 O11 2.157544 1_565
Li0 O5 2.158052 1_565
Li0 O8 2.168737 1_565
Li0 O0 2.483697 1_555
Li1 O6 2.108434 1_555
Li1 O12 2.112319 1_555
Li1 O4 2.157544 1_545
Li1 O14 2.158052 1_545
Li1 O1 2.168737 1_545
Li1 O9 2.483697 1_555
Li2 O13 2.108434 1_555
Li2 O3 2.112319 1_555
Li2 O11 2.157544 1_655
Li2 O5 2.158052 1_655
Li2 O10 2.168737 1_655
Li2 O2 2.483697 1_555
Li3 O2 2.042046 1_565
Li3 O0 2.042046 1_655
Li3 O3 2.154518 1_555
Li3 O10 2.160547 1_655
Li3 O8 2.160547 1_565
Li3 O11 2.210218 1_665
Li4 O9 2.042046 1_455
Li4 O15 2.042046 1_545
Li4 O12 2.154518 1_555
Li4 O7 2.160547 1_455
Li4 O1 2.160547 1_545
Li4 O4 2.210218 1_445
Li5 O2 2.093406 1_555
Li5 O0 2.093406 1_555
Li5 O5 2.122688 1_555
Li5 O13 2.165532 1_555
Li5 O10 2.208302 1_555
Li5 O8 2.208302 1_555
Li6 O15 2.093406 1_555
Li6 O9 2.093406 1_555
Li6 O14 2.122688 1_555
Li6 O6 2.165532 1_555
Li6 O1 2.208302 1_555
Li6 O7 2.208302 1_555
Li7 O6 2.108434 1_555
Li7 O12 2.112319 1_555
Li7 O4 2.157544 1_455
Li7 O14 2.158052 1_455
Li7 O7 2.168737 1_455
Li7 O15 2.483697 1_555
Li8 O2 2.049511 1_554
Li8 O0 2.049511 1_554
Li8 O15 2.049511 1_555
Li8 O9 2.049511 1_555
Li8 O3 2.232226 1_554
Li8 O12 2.232226 1_555
Mn0 O15 1.957927 1_545
Mn0 O9 1.957927 1_455
Mn0 O0 1.957927 1_544
Mn0 O2 1.957927 1_454
Mn0 O5 2.300551 1_554
Mn0 O14 2.300551 1_445
Mn1 O12 1.948755 1_555
Mn1 O3 1.948755 1_544
Mn1 O14 1.952346 1_545
Mn1 O5 1.952346 1_554
Mn1 O2 1.968513 1_554
Mn1 O15 1.968513 1_545
Mn2 O8 1.952265 1_555
Mn2 O10 1.952265 1_555
Mn2 O7 1.954976 1_455
Mn2 O1 1.954976 1_545
Mn2 O11 2.291884 1_555
Mn2 O6 2.315228 1_555
Mn3 O7 1.952265 1_555
Mn3 O1 1.952265 1_555
Mn3 O10 1.954976 1_655
Mn3 O8 1.954976 1_565
Mn3 O4 2.291884 1_555
Mn3 O13 2.315228 1_555
Mn4 O11 1.964346 1_655
Mn4 O4 1.964346 1_545
Mn4 O13 1.967746 1_555
Mn4 O6 1.967746 1_555
Mn4 O8 2.274356 1_555
Mn4 O7 2.274356 1_555
Mn5 O12 1.948755 1_555
Mn5 O3 1.948755 1_454
Mn5 O14 1.952346 1_455
Mn5 O5 1.952346 1_554
Mn5 O0 1.968513 1_554
Mn5 O9 1.968513 1_455
Mn6 O11 1.964346 1_565
Mn6 O4 1.964346 1_455
Mn6 O13 1.967746 1_555
Mn6 O6 1.967746 1_555
Mn6 O10 2.274356 1_555
Mn6 O1 2.274356 1_555
