# generated using pymatgen
data_Ba2AlTlSn2O7
_symmetry_space_group_name_H-M   'P 1'
_cell_length_a   4.15619600
_cell_length_b   4.15619600
_cell_length_c   12.96619500
_cell_angle_alpha   90.00000000
_cell_angle_beta   90.00000000
_cell_angle_gamma   90.00000000
_symmetry_Int_Tables_number   1
_chemical_formula_structural   Ba2AlTlSn2O7
_chemical_formula_sum   'Ba2 Al1 Tl1 Sn2 O7'
_cell_volume   223.97760108
_cell_formula_units_Z   1
loop_
 _symmetry_equiv_pos_site_id
 _symmetry_equiv_pos_as_xyz
  1  'x, y, z'
loop_
 _atom_site_type_symbol
 _atom_site_label
 _atom_site_symmetry_multiplicity
 _atom_site_fract_x
 _atom_site_fract_y
 _atom_site_fract_z
 _atom_site_occupancy
  Ba  Ba0  1  0.50000000  0.50000000  0.19108300  1
  Ba  Ba1  1  0.50000000  0.50000000  0.80891700  1
  Al  Al0  1  0.50000000  0.50000000  0.50000000  1
  Tl  Tl0  1  0.00000000  0.00000000  0.00000000  1
  Sn  Sn0  1  0.00000000  0.00000000  0.37376800  1
  Sn  Sn1  1  0.00000000  0.00000000  0.62623200  1
  O  O0  1  0.00000000  0.00000000  0.21612400  1
  O  O1  1  0.00000000  0.50000000  0.40098300  1
  O  O2  1  0.50000000  0.00000000  0.40098300  1
  O  O3  1  0.50000000  0.00000000  0.59901700  1
  O  O4  1  0.50000000  0.50000000  0.00000000  1
  O  O5  1  0.00000000  0.50000000  0.59901700  1
  O  O6  1  0.00000000  0.00000000  0.78387600  1
loop_
_geom_bond_atom_site_label_1
_geom_bond_atom_site_label_2
_geom_bond_distance
_geom_bond_site_symmetry_2
Ba0 O4 2.477619 1_555
Ba0 O0 2.956756 1_555
Ba0 O0 2.956756 1_565
Ba0 O0 2.956756 1_665
Ba0 O0 2.956756 1_655
Ba1 O4 2.477619 1_556
Ba1 O6 2.956756 1_665
Ba1 O6 2.956756 1_555
Ba1 O6 2.956756 1_655
Ba1 O6 2.956756 1_565
Al0 O5 2.442708 1_555
Al0 O1 2.442708 1_655
Al0 O5 2.442708 1_655
Al0 O2 2.442708 1_555
Al0 O3 2.442708 1_555
Al0 O2 2.442708 1_565
Al0 O3 2.442708 1_565
Al0 O1 2.442708 1_555
O0 Sn0 2.044043 1_555
O0 Tl0 2.802306 1_555
O1 Sn0 2.107845 1_555
O1 Sn0 2.107845 1_565
O2 Sn0 2.107845 1_555
O2 Sn0 2.107845 1_655
O3 Sn1 2.107845 1_555
O3 Sn1 2.107845 1_655
O5 Sn1 2.107845 1_565
O5 Sn1 2.107845 1_555
O6 Sn1 2.044043 1_555
O6 Tl0 2.802306 1_556
