# generated using pymatgen
data_Ca3Mn2(SbO6)2
_symmetry_space_group_name_H-M   'P 1'
_cell_length_a   7.77199100
_cell_length_b   5.40681100
_cell_length_c   5.43479417
_cell_angle_alpha   89.70678292
_cell_angle_beta   90.00000000
_cell_angle_gamma   90.00000000
_symmetry_Int_Tables_number   1
_chemical_formula_structural   Ca3Mn2(SbO6)2
_chemical_formula_sum   'Ca3 Mn2 Sb2 O12'
_cell_volume   228.37622574
_cell_formula_units_Z   1
loop_
 _symmetry_equiv_pos_site_id
 _symmetry_equiv_pos_as_xyz
  1  'x, y, z'
loop_
 _atom_site_type_symbol
 _atom_site_label
 _atom_site_symmetry_multiplicity
 _atom_site_fract_x
 _atom_site_fract_y
 _atom_site_fract_z
 _atom_site_occupancy
  Ca  Ca0  1  0.00000000  0.55757000  0.51178400  1
  Ca  Ca1  1  0.50000000  0.44758500  0.49084000  1
  Ca  Ca2  1  0.50000000  0.95854200  0.00880900  1
  Mn  Mn0  1  0.75663400  0.99955700  0.50177800  1
  Mn  Mn1  1  0.24336600  0.99955700  0.50177800  1
  Sb  Sb0  1  0.75733100  0.49189100  0.99907400  1
  Sb  Sb1  1  0.24266900  0.49189100  0.99907400  1
  O  O0  1  0.70797200  0.70836300  0.29215300  1
  O  O1  1  0.30605400  0.21051000  0.21609800  1
  O  O2  1  0.21864900  0.30538400  0.68574000  1
  O  O3  1  0.79242700  0.79136200  0.78794900  1
  O  O4  1  0.69394600  0.21051000  0.21609800  1
  O  O5  1  0.20757300  0.79136200  0.78794900  1
  O  O6  1  0.50000000  0.51765800  0.91935100  1
  O  O7  1  0.29202800  0.70836300  0.29215300  1
  O  O8  1  0.00000000  0.98596600  0.41917700  1
  O  O9  1  0.78135100  0.30538400  0.68574000  1
  O  O10  1  0.00000000  0.46995400  0.09595200  1
  O  O11  1  0.50000000  0.00965600  0.58205000  1
loop_
_geom_bond_atom_site_label_1
_geom_bond_atom_site_label_2
_geom_bond_distance
_geom_bond_site_symmetry_2
Ca0 O10 2.311449 1_555
Ca0 O8 2.367788 1_555
Ca0 O2 2.372247 1_555
Ca0 O9 2.372247 1_455
Ca0 O5 2.544127 1_555
Ca0 O3 2.544127 1_455
Ca0 O7 2.689020 1_555
Ca0 O0 2.689020 1_455
Ca1 O6 2.361399 1_555
Ca1 O0 2.398141 1_555
Ca1 O7 2.398141 1_555
Ca1 O11 2.416648 1_555
Ca1 O4 2.482799 1_555
Ca1 O1 2.482799 1_555
Ca1 O9 2.546814 1_555
Ca1 O2 2.546814 1_555
Ca2 O4 2.326574 1_565
Ca2 O1 2.326574 1_565
Ca2 O11 2.334350 1_564
Ca2 O6 2.435288 1_554
Ca2 O0 2.606213 1_555
Ca2 O7 2.606213 1_555
Ca2 O3 2.726590 1_554
Ca2 O5 2.726590 1_554
Mn0 O3 1.935329 1_555
Mn0 O8 1.945458 1_655
Mn0 O9 1.946186 1_565
Mn0 O4 1.982620 1_565
Mn0 O0 1.984480 1_555
Mn0 O11 2.042500 1_565
Mn1 O5 1.935329 1_555
Mn1 O8 1.945458 1_555
Mn1 O2 1.946186 1_565
Mn1 O1 1.982620 1_565
Mn1 O7 1.984480 1_555
Mn1 O11 2.042500 1_565
O0 Sb0 2.018223 1_554
O1 Sb1 1.982440 1_554
O2 Sb1 1.992286 1_555
O3 Sb0 1.998428 1_555
O4 Sb0 1.982440 1_554
O5 Sb1 1.998428 1_555
O6 Sb0 2.050955 1_555
O6 Sb1 2.050955 1_555
O7 Sb1 2.018223 1_554
O9 Sb0 1.992286 1_555
O10 Sb1 1.961561 1_554
O10 Sb0 1.961561 1_454
