# generated using pymatgen
data_CsSc3F10
_symmetry_space_group_name_H-M   'P 1'
_cell_length_a   6.83059454
_cell_length_b   7.59303647
_cell_length_c   8.12680261
_cell_angle_alpha   90.00029361
_cell_angle_beta   89.99996007
_cell_angle_gamma   89.99979413
_symmetry_Int_Tables_number   1
_chemical_formula_structural   CsSc3F10
_chemical_formula_sum   'Cs2 Sc6 F20'
_cell_volume   421.49623909
_cell_formula_units_Z   2
loop_
 _symmetry_equiv_pos_site_id
 _symmetry_equiv_pos_as_xyz
  1  'x, y, z'
loop_
 _atom_site_type_symbol
 _atom_site_label
 _atom_site_symmetry_multiplicity
 _atom_site_fract_x
 _atom_site_fract_y
 _atom_site_fract_z
 _atom_site_occupancy
  Cs  Cs0  1  0.00057407  0.50000051  -0.00000288  1
  Cs  Cs1  1  -0.00057893  0.50000145  0.50000049  1
  Sc  Sc0  1  0.00000207  -0.00042868  0.24999997  1
  Sc  Sc1  1  -0.00000017  0.00041453  0.75000012  1
  Sc  Sc2  1  0.49999932  0.73007784  0.25000017  1
  Sc  Sc3  1  0.49999531  0.26992579  0.75000158  1
  Sc  Sc4  1  0.49999726  0.26889185  0.25000177  1
  Sc  Sc5  1  0.49999934  0.73111034  0.75000022  1
  F  F0  1  0.32808358  0.49951092  0.25131704  1
  F  F1  1  0.67190914  0.50046954  0.75132912  1
  F  F2  1  0.67191826  0.49951167  0.24868297  1
  F  F3  1  0.32807655  0.50047680  0.74866854  1
  F  F4  1  0.50000019  -0.00057611  0.24999934  1
  F  F5  1  0.49999560  0.00059071  0.74999863  1
  F  F6  1  0.20007745  0.19581626  0.74324252  1
  F  F7  1  0.79993112  0.80419050  0.24324301  1
  F  F8  1  0.79993421  0.19581244  0.75676000  1
  F  F9  1  0.20006787  0.80418907  0.25675626  1
  F  F10  1  0.49234350  0.27648859  0.00000938  1
  F  F11  1  0.50766184  0.72351352  0.50001024  1
  F  F12  1  0.50765662  0.27648611  0.49999286  1
  F  F13  1  0.49233971  0.72351453  -0.00000865  1
  F  F14  1  0.01129957  0.00000296  -0.00000065  1
  F  F15  1  0.98871288  0.00000553  0.50000053  1
  F  F16  1  0.20025195  0.19476319  0.25692174  1
  F  F17  1  0.79975318  0.80524032  0.75691882  1
  F  F18  1  0.79974730  0.19476452  0.24307837  1
  F  F19  1  0.20024820  0.80523630  0.74307949  1
loop_
_geom_bond_atom_site_label_1
_geom_bond_atom_site_label_2
_geom_bond_distance
_geom_bond_site_symmetry_2
Cs0 F1 3.020576 1_454
Cs0 F2 3.020625 1_455
Cs0 F0 3.029204 1_555
Cs0 F3 3.029214 1_554
Cs0 F8 3.334740 1_454
Cs0 F7 3.334793 1_455
Cs0 F17 3.340027 1_454
Cs0 F18 3.340043 1_455
Cs0 F6 3.397860 1_554
Cs0 F9 3.397887 1_555
Cs0 F19 3.404593 1_554
Cs0 F16 3.404641 1_555
Cs1 F3 3.020528 1_555
Cs1 F0 3.020646 1_555
Cs1 F2 3.029157 1_455
Cs1 F1 3.029262 1_455
Cs1 F6 3.334802 1_555
Cs1 F9 3.334804 1_555
Cs1 F19 3.340014 1_555
Cs1 F16 3.340034 1_555
Cs1 F7 3.397878 1_455
Cs1 F8 3.397885 1_455
Cs1 F17 3.404574 1_455
Cs1 F18 3.404607 1_455
F0 Sc2 2.108089 1_555
F0 Sc4 2.108403 1_555
F1 Sc3 2.107936 1_555
F1 Sc5 2.108526 1_555
F2 Sc2 2.108090 1_555
F2 Sc4 2.108443 1_555
F3 Sc3 2.107994 1_555
F3 Sc5 2.108537 1_555
F4 Sc2 2.045154 1_545
F4 Sc4 2.046080 1_555
F5 Sc3 2.045071 1_555
F5 Sc5 2.046174 1_545
F6 Sc1 2.017946 1_555
F6 Sc3 2.125208 1_555
F7 Sc0 2.017797 1_665
F7 Sc2 2.125305 1_555
F8 Sc1 2.017862 1_655
F8 Sc3 2.125350 1_555
F9 Sc0 2.017775 1_565
F9 Sc2 2.125296 1_555
F10 Sc3 2.033047 1_554
F10 Sc4 2.033130 1_555
F11 Sc2 2.033068 1_555
F11 Sc5 2.033111 1_555
F12 Sc3 2.033056 1_555
F12 Sc4 2.033119 1_555
F13 Sc2 2.033057 1_555
F13 Sc5 2.033121 1_554
F14 Sc1 2.033162 1_554
F14 Sc0 2.033173 1_555
F15 Sc1 2.033162 1_655
F15 Sc0 2.033171 1_655
F16 Sc0 2.017608 1_555
F16 Sc4 2.124144 1_555
F17 Sc1 2.017494 1_665
F17 Sc5 2.124203 1_555
F18 Sc0 2.017631 1_655
F18 Sc4 2.124170 1_555
F19 Sc1 2.017518 1_565
F19 Sc5 2.124174 1_555
