# generated using pymatgen
data_MgSi
_symmetry_space_group_name_H-M   'P 1'
_cell_length_a   4.95230200
_cell_length_b   5.62808641
_cell_length_c   9.05071617
_cell_angle_alpha   95.16655393
_cell_angle_beta   97.75926082
_cell_angle_gamma   105.15906863
_symmetry_Int_Tables_number   1
_chemical_formula_structural   MgSi
_chemical_formula_sum   'Mg6 Si6'
_cell_volume   239.17283547
_cell_formula_units_Z   6
loop_
 _symmetry_equiv_pos_site_id
 _symmetry_equiv_pos_as_xyz
  1  'x, y, z'
loop_
 _atom_site_type_symbol
 _atom_site_label
 _atom_site_symmetry_multiplicity
 _atom_site_fract_x
 _atom_site_fract_y
 _atom_site_fract_z
 _atom_site_occupancy
  Mg  Mg0  1  0.11626100  0.56260100  0.24785300  1
  Mg  Mg1  1  0.07586100  0.83692400  0.81277300  1
  Mg  Mg2  1  0.32492000  0.09656200  0.52718900  1
  Mg  Mg3  1  0.71141800  0.71038100  0.45988100  1
  Mg  Mg4  1  0.25879100  0.38426800  0.83077800  1
  Mg  Mg5  1  0.46181100  0.19668400  0.15545400  1
  Si  Si0  1  0.92992200  0.97949900  0.22028900  1
  Si  Si1  1  0.20158300  0.57700800  0.56363100  1
  Si  Si2  1  0.80958600  0.48341700  0.97905700  1
  Si  Si3  1  0.60641700  0.83041200  0.98088200  1
  Si  Si4  1  0.82016400  0.22658800  0.42576800  1
  Si  Si5  1  0.68323800  0.11556500  0.79656600  1
loop_
_geom_bond_atom_site_label_1
_geom_bond_atom_site_label_2
_geom_bond_distance
_geom_bond_site_symmetry_2
Mg0 Si2 2.622360 1_454
Mg0 Si0 2.755863 1_455
Mg0 Si1 2.822700 1_555
Mg0 Si4 2.838163 1_455
Mg0 Si0 3.144870 1_445
Mg1 Si2 2.768628 1_455
Mg1 Si5 2.796536 1_465
Mg1 Si1 2.805977 1_555
Mg1 Si3 2.863717 1_555
Mg1 Si3 2.939688 1_455
Mg1 Si5 3.036760 1_565
Mg2 Si4 2.680218 1_555
Mg2 Si5 2.791052 1_555
Mg2 Si4 2.843371 1_455
Mg2 Si1 2.885514 1_545
Mg2 Si1 2.924209 1_555
Mg2 Si0 3.083052 1_445
Mg3 Si1 2.756088 1_555
Mg3 Si1 2.793226 1_655
Mg3 Si4 2.866014 1_565
Mg3 Si4 2.908530 1_555
Mg3 Si0 2.921519 1_555
Mg4 Si1 2.747945 1_555
Mg4 Si3 2.758173 1_555
Mg4 Si2 2.762861 1_555
Mg4 Si5 2.816049 1_455
Mg4 Si2 2.895130 1_455
Mg4 Si5 2.924922 1_555
Mg5 Si0 2.763952 1_445
Mg5 Si3 2.783822 1_544
Mg5 Si4 2.785780 1_555
Mg5 Si2 2.805752 1_554
Mg5 Si0 2.908002 1_545
Si0 Si4 2.427021 1_565
Si0 Si3 2.449068 1_554
Si1 Si4 2.446726 1_455
Si2 Si5 2.415219 1_555
Si2 Si3 2.419266 1_555
Si3 Si5 2.416075 1_565
