# generated using pymatgen
data_HfMg6CuO8
_symmetry_space_group_name_H-M   'P 1'
_cell_length_a   9.09302504
_cell_length_b   4.30796521
_cell_length_c   4.30796521
_cell_angle_alpha   90.00000000
_cell_angle_beta   90.00000000
_cell_angle_gamma   90.00000000
_symmetry_Int_Tables_number   1
_chemical_formula_structural   HfMg6CuO8
_chemical_formula_sum   'Hf1 Mg6 Cu1 O8'
_cell_volume   168.75348944
_cell_formula_units_Z   1
loop_
 _symmetry_equiv_pos_site_id
 _symmetry_equiv_pos_as_xyz
  1  'x, y, z'
loop_
 _atom_site_type_symbol
 _atom_site_label
 _atom_site_symmetry_multiplicity
 _atom_site_fract_x
 _atom_site_fract_y
 _atom_site_fract_z
 _atom_site_occupancy
  Hf  Hf0  1  0.50000000  0.00000000  -0.00000000  1
  Mg  Mg0  1  -0.00000000  0.50000000  0.50000000  1
  Mg  Mg1  1  0.50000000  0.50000000  0.50000000  1
  Mg  Mg2  1  0.22790871  -0.00000000  0.50000000  1
  Mg  Mg3  1  0.77209129  0.00000000  0.50000000  1
  Mg  Mg4  1  0.22790871  0.50000000  -0.00000000  1
  Mg  Mg5  1  0.77209129  0.50000000  0.00000000  1
  Cu  Cu0  1  -0.00000000  -0.00000000  -0.00000000  1
  O  O0  1  0.27299726  0.00000000  0.00000000  1
  O  O1  1  0.72700274  -0.00000000  -0.00000000  1
  O  O2  1  0.24778972  0.50000000  0.50000000  1
  O  O3  1  0.75221028  0.50000000  0.50000000  1
  O  O4  1  0.00000000  0.00000000  0.50000000  1
  O  O5  1  0.50000000  0.00000000  0.50000000  1
  O  O6  1  0.00000000  0.50000000  -0.00000000  1
  O  O7  1  0.50000000  0.50000000  -0.00000000  1
loop_
_geom_bond_atom_site_label_1
_geom_bond_atom_site_label_2
_geom_bond_distance
_geom_bond_site_symmetry_2
Hf0 O0 2.064142 1_555
Hf0 O1 2.064142 1_555
Hf0 O7 2.153983 1_555
Hf0 O5 2.153983 1_554
Hf0 O5 2.153983 1_555
Hf0 O7 2.153983 1_545
Mg0 O6 2.153983 1_556
Mg0 O6 2.153983 1_555
Mg0 O4 2.153983 1_555
Mg0 O4 2.153983 1_565
Mg0 O2 2.253158 1_555
Mg0 O3 2.253158 1_455
Mg1 O5 2.153983 1_565
Mg1 O7 2.153983 1_555
Mg1 O7 2.153983 1_556
Mg1 O5 2.153983 1_555
Mg1 O2 2.293354 1_555
Mg1 O3 2.293354 1_555
Mg2 O4 2.072380 1_555
Mg2 O2 2.161555 1_545
Mg2 O2 2.161555 1_555
Mg2 O0 2.192655 1_555
Mg2 O0 2.192655 1_556
Mg2 O5 2.474133 1_555
Mg3 O4 2.072380 1_655
Mg3 O3 2.161555 1_555
Mg3 O3 2.161555 1_545
Mg3 O1 2.192655 1_555
Mg3 O1 2.192655 1_556
Mg3 O5 2.474133 1_555
Mg4 O6 2.072380 1_555
Mg4 O2 2.161555 1_554
Mg4 O2 2.161555 1_555
Mg4 O0 2.192655 1_555
Mg4 O0 2.192655 1_565
Mg4 O7 2.474133 1_555
Mg5 O6 2.072380 1_655
Mg5 O3 2.161555 1_555
Mg5 O3 2.161555 1_554
Mg5 O1 2.192655 1_555
Mg5 O1 2.192655 1_565
Mg5 O7 2.474133 1_555
Cu0 O6 2.153983 1_555
Cu0 O4 2.153983 1_555
Cu0 O4 2.153983 1_554
Cu0 O6 2.153983 1_545
Cu0 O0 2.482371 1_555
Cu0 O1 2.482371 1_455
