# generated using pymatgen
data_Sr7CaTi3Mn5O24
_symmetry_space_group_name_H-M   'P 1'
_cell_length_a   7.80978441
_cell_length_b   7.80978441
_cell_length_c   7.77178508
_cell_angle_alpha   89.99403586
_cell_angle_beta   89.99403586
_cell_angle_gamma   89.99085940
_symmetry_Int_Tables_number   1
_chemical_formula_structural   Sr7CaTi3Mn5O24
_chemical_formula_sum   'Sr7 Ca1 Ti3 Mn5 O24'
_cell_volume   474.02239804
_cell_formula_units_Z   1
loop_
 _symmetry_equiv_pos_site_id
 _symmetry_equiv_pos_as_xyz
  1  'x, y, z'
loop_
 _atom_site_type_symbol
 _atom_site_label
 _atom_site_symmetry_multiplicity
 _atom_site_fract_x
 _atom_site_fract_y
 _atom_site_fract_z
 _atom_site_occupancy
  Sr  Sr0  1  0.75120800  0.24871100  0.24645900  1
  Sr  Sr1  1  0.75118800  0.24880900  0.75349900  1
  Sr  Sr2  1  0.75116700  0.75116700  0.75377400  1
  Sr  Sr3  1  0.24884300  0.24884300  0.24646400  1
  Sr  Sr4  1  0.24884000  0.24884000  0.75345200  1
  Sr  Sr5  1  0.24871100  0.75120800  0.24645900  1
  Sr  Sr6  1  0.24880900  0.75118800  0.75349900  1
  Ca  Ca0  1  0.75143000  0.75143000  0.24571400  1
  Ti  Ti0  1  0.99941200  0.50079000  0.49926200  1
  Ti  Ti1  1  0.50079000  0.99941200  0.49926200  1
  Ti  Ti2  1  0.50056200  0.50056200  0.49920000  1
  Mn  Mn0  1  0.99973400  0.99973400  0.00035300  1
  Mn  Mn1  1  0.99966700  0.99966700  0.49947800  1
  Mn  Mn2  1  0.99949800  0.50055800  0.00032300  1
  Mn  Mn3  1  0.50055800  0.99949800  0.00032300  1
  Mn  Mn4  1  0.50039600  0.50039600  0.00030000  1
  O  O0  1  0.74984800  0.99785300  0.00218700  1
  O  O1  1  0.75274300  0.99836600  0.49840400  1
  O  O2  1  0.75008600  0.50212300  0.00220100  1
  O  O3  1  0.75028700  0.50136300  0.49865500  1
  O  O4  1  0.25015400  0.99977300  0.00016600  1
  O  O5  1  0.24730100  0.99970000  0.49971000  1
  O  O6  1  0.24989600  0.50020400  0.00015600  1
  O  O7  1  0.24966100  0.50033600  0.49965800  1
  O  O8  1  0.99977300  0.25015400  0.00016600  1
  O  O9  1  0.99970000  0.24730100  0.49971000  1
  O  O10  1  0.99785300  0.74984800  0.00218700  1
  O  O11  1  0.99836600  0.75274300  0.49840400  1
  O  O12  1  0.50020400  0.24989600  0.00015600  1
  O  O13  1  0.50033600  0.24966100  0.49965800  1
  O  O14  1  0.50212300  0.75008600  0.00220100  1
  O  O15  1  0.50136300  0.75028700  0.49865500  1
  O  O16  1  0.99770400  0.99770400  0.25075000  1
  O  O17  1  0.99996600  0.99996600  0.74928600  1
  O  O18  1  0.99837500  0.50159400  0.24731400  1
  O  O19  1  0.99969900  0.50028900  0.75265200  1
  O  O20  1  0.50159400  0.99837500  0.24731400  1
  O  O21  1  0.50028900  0.99969900  0.75265200  1
  O  O22  1  0.50159100  0.50159100  0.24718400  1
  O  O23  1  0.50027800  0.50027800  0.75274900  1
loop_
_geom_bond_atom_site_label_1
_geom_bond_atom_site_label_2
_geom_bond_distance
_geom_bond_site_symmetry_2
Ca0 O10 2.699114 1_555
Ca0 O0 2.699114 1_555
Ca0 O2 2.715419 1_555
Ca0 O14 2.715419 1_555
Ca0 O16 2.720527 1_555
Ca0 O20 2.743255 1_555
Ca0 O18 2.743255 1_555
Ca0 O11 2.752598 1_555
Ca0 O1 2.752598 1_555
Ca0 O22 2.759640 1_555
Ca0 O15 2.770876 1_555
Ca0 O3 2.770876 1_555
Mn0 O16 1.946158 1_555
Mn0 O17 1.951240 1_554
Mn0 O0 1.951664 1_555
Mn0 O10 1.951664 1_555
Mn0 O4 1.955727 1_655
Mn0 O8 1.955727 1_565
Mn1 O1 1.928471 1_555
Mn1 O11 1.928471 1_555
Mn1 O16 1.933185 1_555
Mn1 O5 1.933969 1_655
Mn1 O9 1.933969 1_565
Mn1 O17 1.941457 1_555
Mn2 O18 1.919598 1_555
Mn2 O19 1.924848 1_554
Mn2 O10 1.946997 1_555
Mn2 O2 1.947944 1_555
Mn2 O6 1.955556 1_655
Mn2 O8 1.955603 1_555
Mn3 O20 1.919598 1_555
Mn3 O21 1.924848 1_554
Mn3 O0 1.946997 1_555
Mn3 O14 1.947944 1_555
Mn3 O12 1.955556 1_565
Mn3 O4 1.955603 1_555
Mn4 O22 1.918777 1_555
Mn4 O23 1.923914 1_554
Mn4 O14 1.950131 1_555
Mn4 O2 1.950131 1_555
Mn4 O6 1.956352 1_555
Mn4 O12 1.956352 1_555
O0 Sr2 2.727597 1_554
O0 Sr0 2.728221 1_565
O0 Sr1 2.752472 1_564
O1 Ti1 1.967725 1_555
O1 Sr0 2.766935 1_565
O1 Sr2 2.768649 1_555
O1 Sr1 2.785137 1_565
O2 Sr2 2.740424 1_554
O2 Sr0 2.742211 1_555
O2 Sr1 2.765969 1_554
O3 Ti0 1.945623 1_555
O3 Ti2 1.950314 1_555
O3 Sr0 2.781340 1_555
O3 Sr2 2.781753 1_555
O3 Sr1 2.795052 1_555
O4 Sr5 2.726111 1_555
O4 Sr6 2.728546 1_554
O4 Sr3 2.729226 1_565
O4 Sr4 2.731195 1_564
O5 Ti1 1.979698 1_555
O5 Sr5 2.764229 1_555
O5 Sr6 2.767034 1_555
O5 Sr3 2.767492 1_565
O5 Sr4 2.770508 1_565
O6 Sr5 2.740036 1_555
O6 Sr6 2.741561 1_554
O6 Sr3 2.741772 1_555
O6 Sr4 2.744225 1_554
O7 Ti0 1.954396 1_455
O7 Ti2 1.959487 1_555
O7 Sr5 2.776726 1_555
O7 Sr3 2.780410 1_555
O7 Sr6 2.780440 1_555
O7 Sr4 2.783439 1_555
O8 Sr0 2.726111 1_555
O8 Sr1 2.728546 1_554
O8 Sr3 2.729226 1_655
O8 Sr4 2.731195 1_654
O9 Ti0 1.979698 1_555
O9 Sr0 2.764229 1_555
O9 Sr1 2.767034 1_555
O9 Sr3 2.767492 1_655
O9 Sr4 2.770508 1_655
O10 Sr2 2.727597 1_554
O10 Sr5 2.728221 1_655
O10 Sr6 2.752472 1_654
O11 Ti0 1.967725 1_555
O11 Sr5 2.766935 1_655
O11 Sr2 2.768649 1_555
O11 Sr6 2.785137 1_655
O12 Sr0 2.740036 1_555
O12 Sr1 2.741561 1_554
O12 Sr3 2.741772 1_555
O12 Sr4 2.744225 1_554
O13 Ti1 1.954396 1_545
O13 Ti2 1.959487 1_555
O13 Sr0 2.776726 1_555
O13 Sr3 2.780410 1_555
O13 Sr1 2.780440 1_555
O13 Sr4 2.783439 1_555
O14 Sr2 2.740424 1_554
O14 Sr5 2.742211 1_555
O14 Sr6 2.765969 1_554
O15 Ti1 1.945623 1_555
O15 Ti2 1.950314 1_555
O15 Sr5 2.781340 1_555
O15 Sr2 2.781753 1_555
O15 Sr6 2.795052 1_555
O16 Sr5 2.747483 1_655
O16 Sr0 2.747483 1_565
O16 Sr3 2.774172 1_665
O17 Sr1 2.748014 1_565
O17 Sr6 2.748014 1_655
O17 Sr2 2.748346 1_555
O17 Sr4 2.749154 1_665
O18 Ti0 1.958113 1_555
O18 Sr5 2.761130 1_655
O18 Sr0 2.761861 1_555
O18 Sr3 2.778767 1_655
O19 Ti0 1.969298 1_555
O19 Sr2 2.757742 1_555
O19 Sr1 2.761402 1_555
O19 Sr6 2.761472 1_655
O19 Sr4 2.764250 1_655
O20 Ti1 1.958113 1_555
O20 Sr0 2.761130 1_565
O20 Sr5 2.761861 1_555
O20 Sr3 2.778767 1_565
O21 Ti1 1.969298 1_555
O21 Sr2 2.757742 1_555
O21 Sr6 2.761402 1_555
O21 Sr1 2.761472 1_565
O21 Sr4 2.764250 1_565
O22 Ti2 1.958645 1_555
O22 Sr5 2.774808 1_555
O22 Sr0 2.774808 1_555
O22 Sr3 2.791756 1_555
O23 Ti2 1.970530 1_555
O23 Sr2 2.771228 1_555
O23 Sr6 2.774100 1_555
O23 Sr1 2.774100 1_555
O23 Sr4 2.777284 1_555
