# generated using pymatgen
data_BaH(BrO3)2
_symmetry_space_group_name_H-M   'P 1'
_cell_length_a   7.57435031
_cell_length_b   7.57435031
_cell_length_c   8.03802279
_cell_angle_alpha   102.12167333
_cell_angle_beta   112.37810172
_cell_angle_gamma   111.90902277
_symmetry_Int_Tables_number   1
_chemical_formula_structural   BaH(BrO3)2
_chemical_formula_sum   'Ba2 H2 Br4 O12'
_cell_volume   360.77821410
_cell_formula_units_Z   2
loop_
 _symmetry_equiv_pos_site_id
 _symmetry_equiv_pos_as_xyz
  1  'x, y, z'
loop_
 _atom_site_type_symbol
 _atom_site_label
 _atom_site_symmetry_multiplicity
 _atom_site_fract_x
 _atom_site_fract_y
 _atom_site_fract_z
 _atom_site_occupancy
  Ba  Ba0  1  0.58792100  0.33792100  0.25000000  1
  Ba  Ba1  1  0.41207900  0.66207900  0.75000000  1
  H  H0  1  0.94791200  0.69791200  0.25000000  1
  H  H1  1  0.05208800  0.30208800  0.75000000  1
  Br  Br0  1  0.98806300  0.17474900  0.19778400  1
  Br  Br1  1  0.01193700  0.82525100  0.80221600  1
  Br  Br2  1  0.47696500  0.79027900  0.30221600  1
  Br  Br3  1  0.52303500  0.20972100  0.69778400  1
  O  O0  1  0.65264400  0.04834300  0.39738200  1
  O  O1  1  0.34735600  0.95165700  0.60261800  1
  O  O2  1  0.15096100  0.25526200  0.10261800  1
  O  O3  1  0.84903900  0.74473800  0.89738200  1
  O  O4  1  0.73108100  0.09752200  0.01769700  1
  O  O5  1  0.26891900  0.90247800  0.98230300  1
  O  O6  1  0.57982400  0.71338400  0.48230300  1
  O  O7  1  0.42017600  0.28661600  0.51769700  1
  O  O8  1  0.52888700  0.67949600  0.13415100  1
  O  O9  1  0.47111300  0.32050400  0.86584900  1
  O  O10  1  0.04534500  0.39473600  0.36584900  1
  O  O11  1  0.95465500  0.60526400  0.63415100  1
loop_
_geom_bond_atom_site_label_1
_geom_bond_atom_site_label_2
_geom_bond_distance
_geom_bond_site_symmetry_2
Ba0 O2 2.811777 1_555
Ba0 O0 2.811777 1_555
Ba0 O9 2.827793 1_554
Ba0 O11 2.827793 1_555
Ba0 O7 2.908574 1_555
Ba0 O5 2.908579 1_544
Ba0 O10 3.052671 1_655
Ba0 O8 3.052671 1_555
Ba0 H0 3.053089 1_555
Ba0 O4 3.092774 1_555
Ba0 O6 3.092778 1_555
Ba1 O1 2.811777 1_555
Ba1 O3 2.811777 1_555
Ba1 O8 2.827793 1_556
Ba1 O10 2.827793 1_555
Ba1 O6 2.908574 1_555
Ba1 O4 2.908579 1_566
Ba1 O9 3.052671 1_555
Ba1 O11 3.052671 1_455
Ba1 H1 3.053089 1_555
Ba1 O5 3.092774 1_555
Ba1 O7 3.092778 1_555
Br0 O2 1.682995 1_655
Br0 O10 1.690699 1_655
Br0 O4 1.695755 1_555
Br1 O3 1.682995 1_455
Br1 O11 1.690699 1_455
Br1 O5 1.695755 1_555
Br2 O0 1.682995 1_565
Br2 O8 1.690699 1_555
Br2 O6 1.695753 1_555
Br3 O1 1.682995 1_545
Br3 O9 1.690699 1_555
Br3 O7 1.695753 1_555
