# generated using pymatgen
data_NaDy(WO4)2
_symmetry_space_group_name_H-M   'P 1'
_cell_length_a   5.27290600
_cell_length_b   5.27290600
_cell_length_c   6.80707617
_cell_angle_alpha   67.21273751
_cell_angle_beta   67.21273751
_cell_angle_gamma   90.00000000
_symmetry_Int_Tables_number   1
_chemical_formula_structural   NaDy(WO4)2
_chemical_formula_sum   'Na1 Dy1 W2 O8'
_cell_volume   158.34478938
_cell_formula_units_Z   1
loop_
 _symmetry_equiv_pos_site_id
 _symmetry_equiv_pos_as_xyz
  1  'x, y, z'
loop_
 _atom_site_type_symbol
 _atom_site_label
 _atom_site_symmetry_multiplicity
 _atom_site_fract_x
 _atom_site_fract_y
 _atom_site_fract_z
 _atom_site_occupancy
  Na  Na0  1  0.37500000  0.62500000  0.25000000  1
  Dy  Dy0  1  0.62500000  0.37500000  0.75000000  1
  W  W0  1  0.87500000  0.12500000  0.25000000  1
  W  W1  1  0.12500000  0.87500000  0.75000000  1
  O  O0  1  0.93222700  0.28037800  0.43065500  1
  O  O1  1  0.63711800  0.78896700  0.43065500  1
  O  O2  1  0.28939300  0.62830800  0.91577500  1
  O  O3  1  0.79483300  0.95591700  0.91577500  1
  O  O4  1  0.04408300  0.71060700  0.58422500  1
  O  O5  1  0.37169200  0.20516700  0.58422500  1
  O  O6  1  0.71962200  0.36288200  0.06934500  1
  O  O7  1  0.21103300  0.06777300  0.06934500  1
loop_
_geom_bond_atom_site_label_1
_geom_bond_atom_site_label_2
_geom_bond_distance
_geom_bond_site_symmetry_2
Na0 O2 2.478890 1_554
Na0 O4 2.478890 1_555
Na0 O5 2.478893 1_555
Na0 O3 2.478893 1_554
Na0 O0 2.512005 1_455
Na0 O6 2.512005 1_555
Na0 O1 2.512005 1_555
Na0 O7 2.512005 1_565
Dy0 O6 2.389769 1_556
Dy0 O7 2.389769 1_556
Dy0 O1 2.389769 1_555
Dy0 O0 2.389769 1_555
Dy0 O2 2.410319 1_555
Dy0 O4 2.410319 1_655
Dy0 O3 2.410322 1_545
Dy0 O5 2.410322 1_555
O0 W0 1.828229 1_555
O1 W0 1.828229 1_565
O2 W1 1.826879 1_555
O3 W1 1.826875 1_655
O4 W1 1.826879 1_555
O5 W1 1.826875 1_545
O6 W0 1.828229 1_555
O7 W0 1.828229 1_455
