# generated using pymatgen
data_TbGa3Ni
_symmetry_space_group_name_H-M   'P 1'
_cell_length_a   4.12611569
_cell_length_b   4.12611569
_cell_length_c   5.86016664
_cell_angle_alpha   69.35508967
_cell_angle_beta   69.35508967
_cell_angle_gamma   90.09319725
_symmetry_Int_Tables_number   1
_chemical_formula_structural   TbGa3Ni
_chemical_formula_sum   'Tb1 Ga3 Ni1'
_cell_volume   86.45802559
_cell_formula_units_Z   1
loop_
 _symmetry_equiv_pos_site_id
 _symmetry_equiv_pos_as_xyz
  1  'x, y, z'
loop_
 _atom_site_type_symbol
 _atom_site_label
 _atom_site_symmetry_multiplicity
 _atom_site_fract_x
 _atom_site_fract_y
 _atom_site_fract_z
 _atom_site_occupancy
  Tb  Tb0  1  0.98990643  0.98990643  0.02140344  1
  Ga  Ga0  1  0.73942577  0.23840554  0.52227529  1
  Ga  Ga1  1  0.23840554  0.73942577  0.52227529  1
  Ga  Ga2  1  0.40444541  0.40444541  0.19154497  1
  Ni  Ni0  1  0.62781784  0.62781784  0.74250101  1
loop_
_geom_bond_atom_site_label_1
_geom_bond_atom_site_label_2
_geom_bond_distance
_geom_bond_site_symmetry_2
Ga0 Ni0 2.346238 1_555
Ga0 Ni0 2.347168 1_545
Ga0 Ga2 2.657530 1_655
Ga0 Ga2 2.663055 1_555
Ga0 Tb0 3.266072 1_446
Ga0 Tb0 3.270359 1_546
Ga0 Tb0 3.274346 1_545
Ga0 Tb0 3.275813 1_555
Ga1 Ni0 2.346238 1_555
Ga1 Ni0 2.347168 1_455
Ga1 Ga2 2.657530 1_565
Ga1 Ga2 2.663055 1_555
Ga1 Tb0 3.266072 1_446
Ga1 Tb0 3.270359 1_456
Ga1 Tb0 3.274346 1_455
Ga1 Tb0 3.275813 1_555
Ga2 Ni0 2.280430 1_554
Ga2 Tb0 3.039888 1_445
Ga2 Tb0 3.041274 1_555
Ga2 Tb0 3.045131 1_545
Ga2 Tb0 3.045131 1_455
Ni0 Tb0 3.230729 1_446
Ni0 Tb0 3.245379 1_456
Ni0 Tb0 3.245379 1_546
Ni0 Tb0 3.251458 1_556
