# generated using pymatgen
data_LiErSn2
_symmetry_space_group_name_H-M   'P 1'
_cell_length_a   9.71097848
_cell_length_b   9.71097848
_cell_length_c   4.59334300
_cell_angle_alpha   90.00000000
_cell_angle_beta   90.00000000
_cell_angle_gamma   154.61036338
_symmetry_Int_Tables_number   1
_chemical_formula_structural   LiErSn2
_chemical_formula_sum   'Li2 Er2 Sn4'
_cell_volume   185.72955119
_cell_formula_units_Z   2
loop_
 _symmetry_equiv_pos_site_id
 _symmetry_equiv_pos_as_xyz
  1  'x, y, z'
loop_
 _atom_site_type_symbol
 _atom_site_label
 _atom_site_symmetry_multiplicity
 _atom_site_fract_x
 _atom_site_fract_y
 _atom_site_fract_z
 _atom_site_occupancy
  Li  Li0  1  0.67182600  0.32817400  0.75000000  1
  Li  Li1  1  0.32817400  0.67182600  0.25000000  1
  Er  Er0  1  0.89336300  0.10663700  0.75000000  1
  Er  Er1  1  0.10663700  0.89336300  0.25000000  1
  Sn  Sn0  1  0.54229400  0.45770600  0.75000000  1
  Sn  Sn1  1  0.45770600  0.54229400  0.25000000  1
  Sn  Sn2  1  0.25406700  0.74593300  0.75000000  1
  Sn  Sn3  1  0.74593300  0.25406700  0.25000000  1
loop_
_geom_bond_atom_site_label_1
_geom_bond_atom_site_label_2
_geom_bond_distance
_geom_bond_site_symmetry_2
Li0 Sn0 2.454266 1_555
Li0 Sn2 2.642410 1_545
Li0 Sn2 2.642410 1_655
Li0 Sn3 2.691886 1_555
Li0 Sn3 2.691886 1_556
Li1 Sn1 2.454266 1_555
Li1 Sn3 2.642410 1_455
Li1 Sn3 2.642410 1_565
Li1 Sn2 2.691886 1_554
Li1 Sn2 2.691886 1_555
Er0 Sn1 3.363805 1_545
Er0 Sn1 3.363805 1_546
Er0 Sn1 3.363805 1_655
Er0 Sn1 3.363805 1_656
Er0 Li1 3.369647 1_545
Er0 Li1 3.369647 1_655
Er0 Li1 3.369647 1_656
Er0 Li1 3.369647 1_546
Er0 Sn2 3.394106 1_655
Er0 Sn2 3.394106 1_545
Er0 Sn0 3.537925 1_655
Er0 Sn0 3.537925 1_545
Er0 Sn3 3.616308 1_555
Er0 Sn3 3.616308 1_556
Er1 Sn0 3.363805 1_565
Er1 Sn0 3.363805 1_455
Er1 Sn0 3.363805 1_564
Er1 Sn0 3.363805 1_454
Er1 Li0 3.369647 1_455
Er1 Li0 3.369647 1_454
Er1 Li0 3.369647 1_565
Er1 Li0 3.369647 1_564
Er1 Sn3 3.394106 1_565
Er1 Sn3 3.394106 1_455
Er1 Sn1 3.537925 1_565
Er1 Sn1 3.537925 1_455
Er1 Sn2 3.616308 1_555
Er1 Sn2 3.616308 1_554
