# generated using pymatgen
data_TiV3Cu2(PO4)6
_symmetry_space_group_name_H-M   'P 1'
_cell_length_a   8.63560408
_cell_length_b   8.63560408
_cell_length_c   8.63560423
_cell_angle_alpha   59.96624980
_cell_angle_beta   59.96624980
_cell_angle_gamma   59.96624684
_symmetry_Int_Tables_number   1
_chemical_formula_structural   TiV3Cu2(PO4)6
_chemical_formula_sum   'Ti1 V3 Cu2 P6 O24'
_cell_volume   455.02016937
_cell_formula_units_Z   1
loop_
 _symmetry_equiv_pos_site_id
 _symmetry_equiv_pos_as_xyz
  1  'x, y, z'
loop_
 _atom_site_type_symbol
 _atom_site_label
 _atom_site_symmetry_multiplicity
 _atom_site_fract_x
 _atom_site_fract_y
 _atom_site_fract_z
 _atom_site_occupancy
  Ti  Ti0  1  0.85759700  0.85759700  0.85759700  1
  V  V0  1  0.35751000  0.35751000  0.35751000  1
  V  V1  1  0.14269200  0.14269200  0.14269200  1
  V  V2  1  0.64258100  0.64258100  0.64258100  1
  Cu  Cu0  1  0.99906300  0.99906300  0.99906300  1
  Cu  Cu1  1  0.50007800  0.50007800  0.50007800  1
  P  P0  1  0.74996900  0.04008100  0.45903800  1
  P  P1  1  0.04008100  0.45903800  0.74996900  1
  P  P2  1  0.45903800  0.74996900  0.04008100  1
  P  P3  1  0.53854900  0.25170800  0.96056600  1
  P  P4  1  0.96056600  0.53854900  0.25170800  1
  P  P5  1  0.25170800  0.96056600  0.53854900  1
  O  O0  1  0.87696600  0.49487100  0.69717400  1
  O  O1  1  0.49487100  0.69717400  0.87696600  1
  O  O2  1  0.69717400  0.87696600  0.49487100  1
  O  O3  1  0.91767500  0.05907600  0.26879300  1
  O  O4  1  0.80262400  0.99994100  0.62520200  1
  O  O5  1  0.58285200  0.23144300  0.44168700  1
  O  O6  1  0.05907600  0.26879300  0.91767500  1
  O  O7  1  0.23144300  0.44168700  0.58285200  1
  O  O8  1  0.37644500  0.19787500  0.99561300  1
  O  O9  1  0.44168700  0.58285200  0.23144300  1
  O  O10  1  0.72941200  0.08425400  0.94180400  1
  O  O11  1  0.99561300  0.37644500  0.19787500  1
  O  O12  1  0.99994100  0.62520200  0.80262400  1
  O  O13  1  0.26879300  0.91767500  0.05907600  1
  O  O14  1  0.55751300  0.41888200  0.76886000  1
  O  O15  1  0.62520200  0.80262400  0.99994100  1
  O  O16  1  0.76886000  0.55751300  0.41888200  1
  O  O17  1  0.94180400  0.72941200  0.08425400  1
  O  O18  1  0.41888200  0.76886000  0.55751300  1
  O  O19  1  0.19787500  0.99561300  0.37644500  1
  O  O20  1  0.08425400  0.94180400  0.72941200  1
  O  O21  1  0.30515200  0.12319700  0.50325700  1
  O  O22  1  0.50325700  0.30515200  0.12319700  1
  O  O23  1  0.12319700  0.50325700  0.30515200  1
loop_
_geom_bond_atom_site_label_1
_geom_bond_atom_site_label_2
_geom_bond_distance
_geom_bond_site_symmetry_2
Cu0 O10 2.298195 1_565
Cu0 O17 2.298195 1_556
Cu0 O20 2.298195 1_655
Cu0 O13 2.322306 1_656
Cu0 O6 2.322306 1_665
Cu0 O3 2.322306 1_566
Cu1 O5 2.301527 1_555
Cu1 O7 2.301527 1_555
Cu1 O9 2.301527 1_555
Cu1 O18 2.302227 1_555
Cu1 O16 2.302227 1_555
Cu1 O14 2.302227 1_555
O0 P1 1.533973 1_655
O0 V2 1.927410 1_555
O1 P2 1.533973 1_556
O1 V2 1.927410 1_555
O2 P0 1.533973 1_565
O2 V2 1.927410 1_555
O3 P0 1.552319 1_555
O3 V1 1.995578 1_655
O4 P0 1.543822 1_565
O4 Ti0 1.914164 1_555
O5 P0 1.554768 1_555
O5 V0 2.000885 1_555
O6 P1 1.552319 1_555
O6 V1 1.995578 1_556
O7 P1 1.554768 1_555
O7 V0 2.000885 1_555
O8 P3 1.534218 1_555
O8 V1 1.924993 1_556
O9 P2 1.554768 1_555
O9 V0 2.000885 1_555
O10 P3 1.554133 1_555
O10 Ti0 2.008821 1_545
O11 P4 1.534218 1_555
O11 V1 1.924993 1_655
O12 P1 1.543822 1_655
O12 Ti0 1.914163 1_555
O13 P2 1.552319 1_555
O13 V1 1.995578 1_565
O14 P3 1.557077 1_555
O14 V2 1.992612 1_555
O15 P2 1.543822 1_556
O15 Ti0 1.914164 1_555
O16 P4 1.557077 1_555
O16 V2 1.992612 1_555
O17 P4 1.554133 1_555
O17 Ti0 2.008821 1_554
O18 P5 1.557077 1_555
O18 V2 1.992611 1_555
O19 P5 1.534218 1_555
O19 V1 1.924993 1_565
O20 P5 1.554133 1_555
O20 Ti0 2.008821 1_455
O21 P5 1.535527 1_545
O21 V0 1.918246 1_555
O22 P3 1.535527 1_554
O22 V0 1.918246 1_555
O23 P4 1.535527 1_455
O23 V0 1.918246 1_555
