# generated using pymatgen
data_Sr2CuGe2O7
_symmetry_space_group_name_H-M   'P 1'
_cell_length_a   8.38505800
_cell_length_b   8.38505800
_cell_length_c   5.28056600
_cell_angle_alpha   90.00000000
_cell_angle_beta   90.00000000
_cell_angle_gamma   90.00000000
_symmetry_Int_Tables_number   1
_chemical_formula_structural   Sr2CuGe2O7
_chemical_formula_sum   'Sr4 Cu2 Ge4 O14'
_cell_volume   371.27235867
_cell_formula_units_Z   2
loop_
 _symmetry_equiv_pos_site_id
 _symmetry_equiv_pos_as_xyz
  1  'x, y, z'
loop_
 _atom_site_type_symbol
 _atom_site_label
 _atom_site_symmetry_multiplicity
 _atom_site_fract_x
 _atom_site_fract_y
 _atom_site_fract_z
 _atom_site_occupancy
  Sr  Sr0  1  0.66526600  0.16526600  0.98909200  1
  Sr  Sr1  1  0.83473400  0.66526600  0.01090800  1
  Sr  Sr2  1  0.16526600  0.33473400  0.01090800  1
  Sr  Sr3  1  0.33473400  0.83473400  0.98909200  1
  Cu  Cu0  1  0.00000000  0.00000000  0.50000000  1
  Cu  Cu1  1  0.50000000  0.50000000  0.50000000  1
  Ge  Ge0  1  0.85928400  0.35928400  0.53249500  1
  Ge  Ge1  1  0.14071600  0.64071600  0.53249500  1
  Ge  Ge2  1  0.64071600  0.85928400  0.46750500  1
  Ge  Ge3  1  0.35928400  0.14071600  0.46750500  1
  O  O0  1  0.68055500  0.41364200  0.68757500  1
  O  O1  1  0.31944500  0.58635800  0.68757500  1
  O  O2  1  0.41364200  0.31944500  0.31242500  1
  O  O3  1  0.58635800  0.68055500  0.31242500  1
  O  O4  1  0.91364200  0.18055500  0.68757500  1
  O  O5  1  0.81944500  0.91364200  0.31242500  1
  O  O6  1  0.18055500  0.08635800  0.31242500  1
  O  O7  1  0.08635800  0.81944500  0.68757500  1
  O  O8  1  0.86551300  0.36551300  0.20314700  1
  O  O9  1  0.63448700  0.86551300  0.79685300  1
  O  O10  1  0.00000000  0.50000000  0.67436800  1
  O  O11  1  0.50000000  0.00000000  0.32563200  1
  O  O12  1  0.13448700  0.63448700  0.20314700  1
  O  O13  1  0.36551300  0.13448700  0.79685300  1
loop_
_geom_bond_atom_site_label_1
_geom_bond_atom_site_label_2
_geom_bond_distance
_geom_bond_site_symmetry_2
Cu0 O7 1.948725 1_545
Cu0 O6 1.948725 1_555
Cu0 O4 1.948725 1_455
Cu0 O5 1.948725 1_445
Cu1 O1 1.948725 1_555
Cu1 O3 1.948725 1_555
Cu1 O0 1.948725 1_555
Cu1 O2 1.948725 1_555
Ge0 O8 1.740712 1_555
Ge0 O0 1.767576 1_555
Ge0 O4 1.767576 1_555
Ge0 O10 1.829109 1_655
Ge1 O12 1.740712 1_555
Ge1 O7 1.767576 1_555
Ge1 O1 1.767576 1_555
Ge1 O10 1.829109 1_555
Ge2 O9 1.740712 1_555
Ge2 O3 1.767576 1_555
Ge2 O5 1.767576 1_555
Ge2 O11 1.829109 1_565
Ge3 O13 1.740712 1_555
Ge3 O6 1.767576 1_555
Ge3 O2 1.767576 1_555
Ge3 O11 1.829109 1_555
O0 Sr0 2.624670 1_555
O0 Sr1 3.006341 1_556
O1 Sr3 2.624670 1_555
O1 Sr2 3.006341 1_556
O2 Sr2 2.624670 1_555
O2 Sr0 3.006341 1_554
O3 Sr1 2.624670 1_555
O3 Sr3 3.006341 1_554
O4 Sr0 2.624670 1_555
O4 Sr2 3.006341 1_656
O5 Sr1 2.624670 1_555
O5 Sr0 3.006341 1_564
O6 Sr2 2.624670 1_555
O6 Sr3 3.006341 1_544
O7 Sr3 2.624670 1_555
O7 Sr1 3.006341 1_456
O8 Sr0 2.629883 1_554
O8 Sr2 2.722960 1_655
O8 Sr1 2.722960 1_555
O9 Sr1 2.629883 1_556
O9 Sr0 2.722960 1_565
O9 Sr3 2.722960 1_555
O10 Sr1 2.645534 1_456
O10 Sr2 2.645534 1_556
O11 Sr0 2.645534 1_554
O11 Sr3 2.645534 1_544
O12 Sr3 2.629883 1_554
O12 Sr2 2.722960 1_555
O12 Sr1 2.722960 1_455
O13 Sr2 2.629883 1_556
O13 Sr0 2.722960 1_555
O13 Sr3 2.722960 1_545
