# generated using pymatgen
data_Sr32Mn32O79
_symmetry_space_group_name_H-M   'P 1'
_cell_length_a   11.46131340
_cell_length_b   10.97197749
_cell_length_c   18.87255347
_cell_angle_alpha   90.00000000
_cell_angle_beta   90.00000000
_cell_angle_gamma   121.48661204
_symmetry_Int_Tables_number   1
_chemical_formula_structural   Sr32Mn32O79
_chemical_formula_sum   'Sr32 Mn32 O79'
_cell_volume   2023.84811740
_cell_formula_units_Z   1
loop_
 _symmetry_equiv_pos_site_id
 _symmetry_equiv_pos_as_xyz
  1  'x, y, z'
loop_
 _atom_site_type_symbol
 _atom_site_label
 _atom_site_symmetry_multiplicity
 _atom_site_fract_x
 _atom_site_fract_y
 _atom_site_fract_z
 _atom_site_occupancy
  Sr  Sr0  1  0.99993904  0.99987808  0.00579895  1
  Sr  Sr1  1  0.00000698  0.00001395  0.49718573  1
  Sr  Sr2  1  0.00125984  0.50244306  0.00024722  1
  Sr  Sr3  1  0.00012514  0.50007685  0.49875363  1
  Sr  Sr4  1  0.49801801  0.99603601  0.01976632  1
  Sr  Sr5  1  0.49980451  -0.00039098  0.49719257  1
  Sr  Sr6  1  0.50118322  0.50244306  0.00024722  1
  Sr  Sr7  1  0.49995171  0.50007685  0.49875363  1
  Sr  Sr8  1  0.00000698  0.00001395  0.25281427  1
  Sr  Sr9  1  0.99993904  0.99987808  0.74420105  1
  Sr  Sr10  1  0.00012514  0.50007685  0.25124637  1
  Sr  Sr11  1  0.00125984  0.50244306  0.74975278  1
  Sr  Sr12  1  0.49980451  -0.00039098  0.25280743  1
  Sr  Sr13  1  0.49801801  0.99603601  0.73023368  1
  Sr  Sr14  1  0.49995171  0.50007685  0.25124637  1
  Sr  Sr15  1  0.50118322  0.50244306  0.74975278  1
  Sr  Sr16  1  0.34145930  0.18329379  0.37500000  1
  Sr  Sr17  1  0.32467845  0.17996189  0.87500000  1
  Sr  Sr18  1  0.34054004  0.68108107  0.37500000  1
  Sr  Sr19  1  0.34609158  0.69218416  0.87500000  1
  Sr  Sr20  1  0.84183349  0.18329379  0.37500000  1
  Sr  Sr21  1  0.85528244  0.17996189  0.87500000  1
  Sr  Sr22  1  0.84098211  0.68196523  0.37500000  1
  Sr  Sr23  1  0.84499314  0.68998727  0.87500000  1
  Sr  Sr24  1  0.15851984  0.31703867  0.12483974  1
  Sr  Sr25  1  0.15851984  0.31703867  0.62516026  1
  Sr  Sr26  1  0.15553369  0.81565962  0.12549054  1
  Sr  Sr27  1  0.15553369  0.81565962  0.62450946  1
  Sr  Sr28  1  0.66081019  0.32161938  0.12645310  1
  Sr  Sr29  1  0.66081019  0.32161938  0.62354690  1
  Sr  Sr30  1  0.66012694  0.81565962  0.12549054  1
  Sr  Sr31  1  0.66012694  0.81565962  0.62450946  1
  Mn  Mn0  1  0.34019687  0.17874798  0.18946393  1
  Mn  Mn1  1  0.33906124  0.17637618  0.69302001  1
  Mn  Mn2  1  0.33821476  0.67643052  0.19135843  1
  Mn  Mn3  1  0.33691384  0.67382868  0.69102666  1
  Mn  Mn4  1  0.83855011  0.17874798  0.18946393  1
  Mn  Mn5  1  0.83731394  0.17637618  0.69302001  1
  Mn  Mn6  1  0.83935811  0.67871723  0.19076305  1
  Mn  Mn7  1  0.83787683  0.67575467  0.69186741  1
  Mn  Mn8  1  0.16126742  0.32253385  0.44132774  1
  Mn  Mn9  1  0.16283055  0.32566011  0.94131567  1
  Mn  Mn10  1  0.16136243  0.82250982  0.44100750  1
  Mn  Mn11  1  0.16466992  0.82597000  0.94105727  1
  Mn  Mn12  1  0.66127953  0.32255805  0.44113630  1
  Mn  Mn13  1  0.66281175  0.32562249  0.94196303  1
  Mn  Mn14  1  0.66114838  0.82250982  0.44100750  1
  Mn  Mn15  1  0.66130108  0.82597000  0.94105727  1
  Mn  Mn16  1  0.33906124  0.17637618  0.05697999  1
  Mn  Mn17  1  0.34019687  0.17874798  0.56053607  1
  Mn  Mn18  1  0.33691384  0.67382868  0.05897334  1
  Mn  Mn19  1  0.33821476  0.67643052  0.55864157  1
  Mn  Mn20  1  0.83731394  0.17637618  0.05697999  1
  Mn  Mn21  1  0.83855011  0.17874798  0.56053607  1
  Mn  Mn22  1  0.83787683  0.67575467  0.05813259  1
  Mn  Mn23  1  0.83935811  0.67871723  0.55923695  1
  Mn  Mn24  1  0.16126742  0.32253385  0.30867226  1
  Mn  Mn25  1  0.16283055  0.32566011  0.80868433  1
  Mn  Mn26  1  0.16136243  0.82250982  0.30899250  1
  Mn  Mn27  1  0.16466992  0.82597000  0.80894273  1
  Mn  Mn28  1  0.66127953  0.32255805  0.30886370  1
  Mn  Mn29  1  0.66281175  0.32562249  0.80803697  1
  Mn  Mn30  1  0.66114838  0.82250982  0.30899250  1
  Mn  Mn31  1  0.66130108  0.82597000  0.80894273  1
  O  O0  1  0.09718999  0.41561401  0.37500000  1
  O  O1  1  0.09900739  0.41661429  0.87500000  1
  O  O2  1  0.09788397  0.91484420  0.37500000  1
  O  O3  1  0.09861562  0.91483352  0.87500000  1
  O  O4  1  0.59778747  0.41492916  0.37500000  1
  O  O5  1  0.59053028  0.40208243  0.87500000  1
  O  O6  1  0.59749891  0.91461613  0.37500000  1
  O  O7  1  0.60191396  0.92515207  0.87500000  1
  O  O8  1  0.42903024  0.34738492  0.12197529  1
  O  O9  1  0.42903024  0.34738492  0.62802471  1
  O  O10  1  0.42252548  0.84505096  0.12585584  1
  O  O11  1  0.42252548  0.84505096  0.62414416  1
  O  O12  1  0.91835468  0.34738492  0.12197529  1
  O  O13  1  0.91835468  0.34738492  0.62802471  1
  O  O14  1  0.92399155  0.84798310  0.12484319  1
  O  O15  1  0.92399155  0.84798310  0.62515681  1
  O  O16  1  0.31842402  0.41561401  0.37500000  1
  O  O17  1  0.31760689  0.41661429  0.87500000  1
  O  O18  1  0.31711722  0.91461613  0.37500000  1
  O  O19  1  0.32323811  0.92515207  0.87500000  1
  O  O20  1  0.81714169  0.41492916  0.37500000  1
  O  O21  1  0.81155215  0.40208243  0.87500000  1
  O  O22  1  0.81696023  0.91484420  0.37500000  1
  O  O23  1  0.81621791  0.91483352  0.87500000  1
  O  O24  1  0.40314494  0.08473871  0.12271441  1
  O  O25  1  0.40314494  0.08473871  0.62728559  1
  O  O26  1  0.40127128  0.58334211  0.12533542  1
  O  O27  1  0.40127128  0.58334211  0.62466458  1
  O  O28  1  0.90186509  0.08591769  0.12258750  1
  O  O29  1  0.90186509  0.08591769  0.62741250  1
  O  O30  1  0.90221745  0.58568973  0.12536691  1
  O  O31  1  0.90221745  0.58568973  0.62463309  1
  O  O32  1  0.07629608  0.15259217  0.37500000  1
  O  O33  1  0.07745374  0.15490749  0.87500000  1
  O  O34  1  0.07606573  0.65272917  0.37500000  1
  O  O35  1  0.07956724  0.65526466  0.87500000  1
  O  O36  1  0.57629802  0.15259604  0.37500000  1
  O  O37  1  0.57666345  0.65272917  0.37500000  1
  O  O38  1  0.57569742  0.65526466  0.87500000  1
  O  O39  1  0.18405260  0.08591769  0.12258750  1
  O  O40  1  0.18405260  0.08591769  0.62741250  1
  O  O41  1  0.18207083  0.58334211  0.12533542  1
  O  O42  1  0.18207083  0.58334211  0.62466458  1
  O  O43  1  0.68159377  0.08473871  0.12271441  1
  O  O44  1  0.68159377  0.08473871  0.62728559  1
  O  O45  1  0.68347228  0.58568973  0.12536691  1
  O  O46  1  0.68347228  0.58568973  0.62463309  1
  O  O47  1  0.25099483  0.25128026  0.99925258  1
  O  O48  1  0.25051647  0.24985842  0.50139461  1
  O  O49  1  0.24961488  0.74968047  0.00072710  1
  O  O50  1  0.24994612  0.75022744  0.49999567  1
  O  O51  1  0.73904505  0.23221608  0.99292031  1
  O  O52  1  0.74959998  0.24973346  0.50054828  1
  O  O53  1  0.74978495  0.75104215  0.99991905  1
  O  O54  1  0.75066143  0.75146666  0.50014633  1
  O  O55  1  0.99934195  0.24985842  0.50139461  1
  O  O56  1  0.00028543  0.25128026  0.99925258  1
  O  O57  1  0.00080523  0.75146666  0.50014633  1
  O  O58  1  0.00125720  0.75104215  0.99991905  1
  O  O59  1  0.50013349  0.24973346  0.50054828  1
  O  O60  1  0.49317103  0.23221608  0.99292031  1
  O  O61  1  0.50028132  0.75022744  0.49999567  1
  O  O62  1  0.50006558  0.74968047  0.00072710  1
  O  O63  1  0.25051647  0.24985842  0.24860539  1
  O  O64  1  0.25099483  0.25128026  0.75074742  1
  O  O65  1  0.24994612  0.75022744  0.25000433  1
  O  O66  1  0.24961488  0.74968047  0.74927290  1
  O  O67  1  0.74959998  0.24973346  0.24945172  1
  O  O68  1  0.73904505  0.23221608  0.75707969  1
  O  O69  1  0.75066143  0.75146666  0.24985367  1
  O  O70  1  0.74978495  0.75104215  0.75008095  1
  O  O71  1  0.99934195  0.24985842  0.24860539  1
  O  O72  1  0.00028543  0.25128026  0.75074742  1
  O  O73  1  0.00080523  0.75146666  0.24985367  1
  O  O74  1  0.00125720  0.75104215  0.75008095  1
  O  O75  1  0.50013349  0.24973346  0.24945172  1
  O  O76  1  0.49317103  0.23221608  0.75707969  1
  O  O77  1  0.50028132  0.75022744  0.25000433  1
  O  O78  1  0.50006558  0.74968047  0.74927290  1
loop_
_geom_bond_atom_site_label_1
_geom_bond_atom_site_label_2
_geom_bond_distance
_geom_bond_site_symmetry_2
Mn0 O63 1.936168 1_555
Mn0 O75 1.938333 1_555
Mn0 O39 1.982179 1_555
Mn0 O24 1.987141 1_555
Mn0 O8 2.028437 1_555
Mn1 O64 1.935896 1_555
Mn1 O76 1.956110 1_555
Mn1 O40 1.957690 1_555
Mn1 O25 1.964900 1_555
Mn1 O9 2.016771 1_555
Mn2 O65 1.939016 1_555
Mn2 O77 1.939024 1_555
Mn2 O41 1.972083 1_555
Mn2 O26 1.972090 1_555
Mn2 O10 2.004324 1_555
Mn3 O66 1.942154 1_555
Mn3 O78 1.942163 1_555
Mn3 O42 1.965524 1_555
Mn3 O27 1.965531 1_555
Mn3 O11 2.039556 1_555
Mn4 O71 1.936176 1_555
Mn4 O67 1.938324 1_555
Mn4 O28 1.982186 1_555
Mn4 O43 1.987134 1_555
Mn4 O12 2.028436 1_555
Mn5 O72 1.935905 1_655
Mn5 O68 1.956101 1_555
Mn5 O29 1.957697 1_555
Mn5 O44 1.964892 1_555
Mn5 O13 2.016771 1_555
Mn6 O69 1.939548 1_555
Mn6 O73 1.939557 1_655
Mn6 O45 1.962709 1_555
Mn6 O30 1.962716 1_555
Mn6 O14 2.013936 1_555
Mn7 O70 1.944217 1_555
Mn7 O74 1.944225 1_655
Mn7 O46 1.972708 1_555
Mn7 O31 1.972715 1_555
Mn7 O15 2.044960 1_555
Mn8 O48 1.954305 1_555
Mn8 O55 1.954313 1_455
Mn8 O16 1.983117 1_555
Mn8 O0 1.983125 1_555
Mn8 O32 2.023665 1_555
Mn9 O47 1.934958 1_555
Mn9 O56 1.934966 1_555
Mn9 O17 1.964657 1_555
Mn9 O1 1.964665 1_555
Mn9 O33 2.029492 1_555
Mn10 O50 1.933969 1_555
Mn10 O57 1.934224 1_555
Mn10 O18 1.968602 1_555
Mn10 O2 1.969128 1_555
Mn10 O34 2.018752 1_555
Mn11 O49 1.941117 1_556
Mn11 O58 1.951750 1_555
Mn11 O3 1.961899 1_555
Mn11 O19 1.993844 1_555
Mn11 O35 2.026141 1_555
Mn12 O52 1.940427 1_555
Mn12 O59 1.940435 1_555
Mn12 O20 1.971043 1_555
Mn12 O4 1.971051 1_555
Mn12 O36 2.021582 1_555
Mn13 O51 1.916761 1_555
Mn13 O60 1.916770 1_555
Mn13 O21 1.926954 1_555
Mn13 O5 1.926962 1_555
Mn14 O61 1.933978 1_555
Mn14 O54 1.934216 1_555
Mn14 O6 1.968609 1_555
Mn14 O22 1.969120 1_555
Mn14 O37 2.018752 1_555
Mn15 O62 1.941126 1_556
Mn15 O53 1.951741 1_555
Mn15 O23 1.961892 1_555
Mn15 O7 1.993851 1_555
Mn15 O38 2.026141 1_555
Mn16 O47 1.935896 1_554
Mn16 O60 1.956110 1_554
Mn16 O39 1.957690 1_555
Mn16 O24 1.964900 1_555
Mn16 O8 2.016771 1_555
Mn17 O48 1.936168 1_555
Mn17 O59 1.938333 1_555
Mn17 O40 1.982179 1_555
Mn17 O25 1.987141 1_555
Mn17 O9 2.028437 1_555
Mn18 O49 1.942154 1_555
Mn18 O62 1.942163 1_555
Mn18 O41 1.965524 1_555
Mn18 O26 1.965531 1_555
Mn18 O10 2.039556 1_555
Mn19 O50 1.939016 1_555
Mn19 O61 1.939024 1_555
Mn19 O42 1.972083 1_555
Mn19 O27 1.972090 1_555
Mn19 O11 2.004324 1_555
Mn20 O56 1.935905 1_654
Mn20 O51 1.956101 1_554
Mn20 O28 1.957697 1_555
Mn20 O43 1.964892 1_555
Mn20 O12 2.016771 1_555
Mn21 O55 1.936176 1_555
Mn21 O52 1.938324 1_555
Mn21 O29 1.982186 1_555
Mn21 O44 1.987134 1_555
Mn21 O13 2.028436 1_555
Mn22 O53 1.944217 1_554
Mn22 O58 1.944225 1_654
Mn22 O45 1.972708 1_555
Mn22 O30 1.972715 1_555
Mn22 O14 2.044960 1_555
Mn23 O54 1.939548 1_555
Mn23 O57 1.939557 1_655
Mn23 O46 1.962709 1_555
Mn23 O31 1.962716 1_555
Mn23 O15 2.013936 1_555
Mn24 O63 1.954305 1_555
Mn24 O71 1.954313 1_455
Mn24 O16 1.983117 1_555
Mn24 O0 1.983125 1_555
Mn24 O32 2.023665 1_555
Mn25 O64 1.934958 1_555
Mn25 O72 1.934966 1_555
Mn25 O17 1.964657 1_555
Mn25 O1 1.964665 1_555
Mn25 O33 2.029492 1_555
Mn26 O65 1.933969 1_555
Mn26 O73 1.934224 1_555
Mn26 O18 1.968602 1_555
Mn26 O2 1.969128 1_555
Mn26 O34 2.018752 1_555
Mn27 O66 1.941117 1_555
Mn27 O74 1.951750 1_555
Mn27 O3 1.961899 1_555
Mn27 O19 1.993844 1_555
Mn27 O35 2.026141 1_555
Mn28 O67 1.940427 1_555
Mn28 O75 1.940435 1_555
Mn28 O20 1.971043 1_555
Mn28 O4 1.971051 1_555
Mn28 O36 2.021582 1_555
Mn29 O68 1.916761 1_555
Mn29 O76 1.916770 1_555
Mn29 O21 1.926954 1_555
Mn29 O5 1.926962 1_555
Mn30 O77 1.933978 1_555
Mn30 O69 1.934216 1_555
Mn30 O6 1.968609 1_555
Mn30 O22 1.969120 1_555
Mn30 O37 2.018752 1_555
Mn31 O78 1.941126 1_555
Mn31 O70 1.951741 1_555
Mn31 O23 1.961892 1_555
Mn31 O7 1.993851 1_555
Mn31 O38 2.026141 1_555
O0 Sr20 2.696330 1_455
O0 Sr18 2.788692 1_555
O0 Sr3 2.937377 1_555
O0 Sr10 2.937377 1_555
O1 Sr21 2.639788 1_455
O1 Sr19 2.866577 1_555
O1 Sr11 2.971739 1_555
O1 Sr2 2.971739 1_556
O2 Sr22 2.709143 1_455
O2 Sr16 2.807067 1_565
O2 Sr8 2.923042 1_565
O2 Sr1 2.923042 1_565
O3 Sr23 2.654213 1_455
O3 Sr17 2.702238 1_565
O3 Sr9 3.057071 1_455
O3 Sr0 3.057071 1_456
O4 Sr16 2.700123 1_555
O4 Sr22 2.796917 1_555
O4 Sr7 2.946059 1_555
O4 Sr14 2.946059 1_555
O5 Sr17 2.732523 1_555
O5 Sr23 2.976693 1_555
O5 Sr15 3.004387 1_555
O5 Sr6 3.004387 1_556
O6 Sr18 2.712242 1_555
O6 Sr20 2.812284 1_565
O6 Sr5 2.920983 1_565
O6 Sr12 2.920983 1_565
O7 Sr19 2.702179 1_555
O7 Sr21 2.787175 1_565
O7 Sr13 3.233371 1_555
O7 Sr4 3.233371 1_556
O8 Sr6 2.717774 1_555
O8 Sr28 2.815768 1_555
O8 Sr14 2.827888 1_555
O8 Sr24 2.940739 1_555
O9 Sr15 2.717774 1_555
O9 Sr29 2.815768 1_555
O9 Sr7 2.827888 1_555
O9 Sr25 2.940739 1_555
O10 Sr4 2.450391 1_555
O10 Sr12 2.798500 1_565
O10 Sr26 2.904700 1_555
O10 Sr30 2.904712 1_555
O11 Sr13 2.450391 1_555
O11 Sr5 2.798500 1_565
O11 Sr27 2.904700 1_555
O11 Sr31 2.904712 1_555
O12 Sr2 2.717774 1_655
O12 Sr28 2.815757 1_555
O12 Sr10 2.827888 1_655
O12 Sr24 2.940751 1_655
O13 Sr11 2.717774 1_655
O13 Sr29 2.815757 1_555
O13 Sr3 2.827888 1_655
O13 Sr25 2.940751 1_655
O14 Sr0 2.658447 1_555
O14 Sr8 2.802917 1_665
O14 Sr30 2.855090 1_555
O14 Sr26 2.855101 1_655
O15 Sr9 2.658447 1_555
O15 Sr1 2.802917 1_665
O15 Sr31 2.855090 1_555
O15 Sr27 2.855101 1_655
O16 Sr16 2.696323 1_555
O16 Sr18 2.788697 1_555
O16 Sr14 2.937377 1_555
O16 Sr7 2.937377 1_555
O17 Sr17 2.639782 1_555
O17 Sr19 2.866582 1_555
O17 Sr15 2.971739 1_555
O17 Sr6 2.971739 1_556
O18 Sr18 2.712235 1_555
O18 Sr16 2.812289 1_565
O18 Sr12 2.920983 1_565
O18 Sr5 2.920983 1_565
O19 Sr19 2.702173 1_555
O19 Sr17 2.787181 1_565
O19 Sr13 3.233371 1_555
O19 Sr4 3.233371 1_556
O20 Sr20 2.700116 1_555
O20 Sr22 2.796922 1_555
O20 Sr3 2.946059 1_655
O20 Sr10 2.946059 1_655
O21 Sr21 2.732515 1_555
O21 Sr23 2.976698 1_555
O21 Sr11 3.004387 1_655
O21 Sr2 3.004387 1_656
O22 Sr22 2.709136 1_555
O22 Sr20 2.807073 1_565
O22 Sr8 2.923042 1_665
O22 Sr1 2.923042 1_665
O23 Sr23 2.654206 1_555
O23 Sr21 2.702242 1_565
O23 Sr9 3.057071 1_555
O23 Sr0 3.057071 1_556
O24 Sr4 2.647619 1_545
O24 Sr28 2.731948 1_555
O24 Sr26 2.832088 1_545
O24 Sr12 3.034571 1_555
O25 Sr13 2.647619 1_545
O25 Sr29 2.731948 1_555
O25 Sr27 2.832088 1_545
O25 Sr5 3.034571 1_555
O26 Sr30 2.720242 1_555
O26 Sr24 2.790414 1_555
O26 Sr6 2.955336 1_555
O26 Sr14 2.973178 1_555
O27 Sr31 2.720242 1_555
O27 Sr25 2.790414 1_555
O27 Sr15 2.955336 1_555
O27 Sr7 2.973178 1_555
O28 Sr24 2.700597 1_655
O28 Sr30 2.808941 1_545
O28 Sr0 2.849771 1_545
O28 Sr8 3.049828 1_655
O29 Sr25 2.700597 1_655
O29 Sr31 2.808941 1_545
O29 Sr9 2.849771 1_545
O29 Sr1 3.049828 1_655
O30 Sr26 2.672741 1_655
O30 Sr28 2.770652 1_555
O30 Sr2 2.963407 1_655
O30 Sr10 2.981019 1_655
O31 Sr27 2.672741 1_655
O31 Sr29 2.770652 1_555
O31 Sr11 2.963407 1_655
O31 Sr3 2.981019 1_655
O32 Sr1 2.712097 1_555
O32 Sr8 2.712097 1_555
O32 Sr16 2.877552 1_555
O32 Sr20 2.877564 1_455
O33 Sr17 2.700137 1_555
O33 Sr21 2.700148 1_455
O33 Sr9 2.863142 1_445
O33 Sr0 2.863142 1_446
O34 Sr3 2.737665 1_555
O34 Sr10 2.737665 1_555
O34 Sr22 2.874952 1_455
O34 Sr18 2.880987 1_555
O35 Sr11 2.762653 1_555
O35 Sr2 2.762653 1_556
O35 Sr19 2.864054 1_555
O35 Sr23 2.905730 1_455
O36 Sr5 2.714222 1_555
O36 Sr12 2.714222 1_555
O36 Sr20 2.881816 1_555
O36 Sr16 2.881827 1_555
O37 Sr7 2.737665 1_555
O37 Sr14 2.737665 1_555
O37 Sr22 2.874941 1_555
O37 Sr18 2.880998 1_555
O38 Sr15 2.762653 1_555
O38 Sr6 2.762653 1_556
O38 Sr19 2.864065 1_555
O38 Sr23 2.905719 1_555
O39 Sr24 2.700590 1_555
O39 Sr26 2.808946 1_545
O39 Sr0 2.849771 1_445
O39 Sr8 3.049828 1_555
O40 Sr25 2.700590 1_555
O40 Sr27 2.808946 1_545
O40 Sr9 2.849771 1_445
O40 Sr1 3.049828 1_555
O41 Sr26 2.720235 1_555
O41 Sr24 2.790419 1_555
O41 Sr2 2.955336 1_555
O41 Sr10 2.973178 1_555
O42 Sr27 2.720235 1_555
O42 Sr25 2.790419 1_555
O42 Sr11 2.955336 1_555
O42 Sr3 2.973178 1_555
O43 Sr4 2.647619 1_545
O43 Sr28 2.731941 1_555
O43 Sr30 2.832093 1_545
O43 Sr12 3.034571 1_555
O44 Sr13 2.647619 1_545
O44 Sr29 2.731941 1_555
O44 Sr31 2.832093 1_545
O44 Sr5 3.034571 1_555
O45 Sr30 2.672734 1_555
O45 Sr28 2.770657 1_555
O45 Sr6 2.963407 1_555
O45 Sr14 2.981019 1_555
O46 Sr31 2.672734 1_555
O46 Sr29 2.770657 1_555
O46 Sr15 2.963407 1_555
O46 Sr7 2.981019 1_555
O47 Sr17 2.741290 1_555
O47 Sr6 2.750000 1_556
O47 Sr0 2.759075 1_446
O47 Sr24 2.839074 1_556
O48 Sr7 2.741167 1_555
O48 Sr1 2.746426 1_555
O48 Sr25 2.814744 1_555
O48 Sr16 2.846952 1_555
O49 Sr2 2.719411 1_555
O49 Sr4 2.739010 1_555
O49 Sr19 2.824794 1_554
O49 Sr26 2.836610 1_555
O50 Sr5 2.739578 1_565
O50 Sr3 2.742776 1_555
O50 Sr27 2.831930 1_555
O50 Sr18 2.835737 1_555
O51 Sr4 2.669330 1_546
O51 Sr21 2.802515 1_555
O51 Sr2 2.921287 1_656
O51 Sr28 3.005991 1_556
O52 Sr5 2.743124 1_555
O52 Sr3 2.748060 1_655
O52 Sr29 2.807948 1_555
O52 Sr20 2.840425 1_555
O53 Sr6 2.727647 1_556
O53 Sr0 2.740391 1_556
O53 Sr30 2.817067 1_556
O53 Sr23 2.821541 1_555
O54 Sr1 2.732416 1_665
O54 Sr7 2.754306 1_555
O54 Sr31 2.800866 1_555
O54 Sr22 2.838308 1_555
O55 Sr3 2.741166 1_655
O55 Sr1 2.746426 1_655
O55 Sr25 2.814750 1_655
O55 Sr20 2.846957 1_555
O56 Sr21 2.741295 1_455
O56 Sr2 2.750000 1_556
O56 Sr0 2.759075 1_446
O56 Sr24 2.839080 1_556
O57 Sr1 2.732416 1_565
O57 Sr3 2.754306 1_555
O57 Sr27 2.800872 1_555
O57 Sr22 2.838314 1_455
O58 Sr2 2.727646 1_556
O58 Sr0 2.740391 1_456
O58 Sr26 2.817073 1_556
O58 Sr23 2.821547 1_455
O59 Sr5 2.743123 1_555
O59 Sr7 2.748060 1_555
O59 Sr29 2.807954 1_555
O59 Sr16 2.840431 1_555
O60 Sr4 2.669329 1_546
O60 Sr17 2.802522 1_555
O60 Sr6 2.921287 1_556
O60 Sr28 3.005996 1_556
O61 Sr5 2.739578 1_565
O61 Sr7 2.742776 1_555
O61 Sr31 2.831936 1_555
O61 Sr18 2.835743 1_555
O62 Sr6 2.719411 1_555
O62 Sr4 2.739009 1_555
O62 Sr19 2.824800 1_554
O62 Sr30 2.836616 1_555
O63 Sr14 2.741167 1_555
O63 Sr8 2.746426 1_555
O63 Sr24 2.814744 1_555
O63 Sr16 2.846952 1_555
O64 Sr17 2.741290 1_555
O64 Sr15 2.750000 1_555
O64 Sr9 2.759075 1_445
O64 Sr25 2.839074 1_555
O65 Sr12 2.739578 1_565
O65 Sr10 2.742776 1_555
O65 Sr26 2.831930 1_555
O65 Sr18 2.835737 1_555
O66 Sr11 2.719411 1_555
O66 Sr13 2.739010 1_555
O66 Sr19 2.824794 1_555
O66 Sr27 2.836610 1_555
O67 Sr12 2.743124 1_555
O67 Sr10 2.748060 1_655
O67 Sr28 2.807948 1_555
O67 Sr20 2.840425 1_555
O68 Sr13 2.669330 1_545
O68 Sr21 2.802515 1_555
O68 Sr11 2.921287 1_655
O68 Sr29 3.005991 1_555
O69 Sr8 2.732416 1_665
O69 Sr14 2.754306 1_555
O69 Sr30 2.800866 1_555
O69 Sr22 2.838308 1_555
O70 Sr15 2.727647 1_555
O70 Sr9 2.740391 1_555
O70 Sr31 2.817067 1_555
O70 Sr23 2.821541 1_555
O71 Sr10 2.741166 1_655
O71 Sr8 2.746426 1_655
O71 Sr24 2.814750 1_655
O71 Sr20 2.846957 1_555
O72 Sr21 2.741295 1_455
O72 Sr11 2.750000 1_555
O72 Sr9 2.759075 1_445
O72 Sr25 2.839080 1_555
O73 Sr8 2.732416 1_565
O73 Sr10 2.754306 1_555
O73 Sr26 2.800872 1_555
O73 Sr22 2.838314 1_455
O74 Sr11 2.727646 1_555
O74 Sr9 2.740391 1_455
O74 Sr27 2.817073 1_555
O74 Sr23 2.821547 1_455
O75 Sr12 2.743123 1_555
O75 Sr14 2.748060 1_555
O75 Sr28 2.807954 1_555
O75 Sr16 2.840431 1_555
O76 Sr13 2.669329 1_545
O76 Sr17 2.802522 1_555
O76 Sr15 2.921287 1_555
O76 Sr29 3.005996 1_555
O77 Sr12 2.739578 1_565
O77 Sr14 2.742776 1_555
O77 Sr30 2.831936 1_555
O77 Sr18 2.835743 1_555
O78 Sr15 2.719411 1_555
O78 Sr13 2.739009 1_555
O78 Sr19 2.824800 1_555
O78 Sr31 2.836616 1_555
