# generated using pymatgen
data_Ca6Te5N2O21
_symmetry_space_group_name_H-M   'P 1'
_cell_length_a   5.66654200
_cell_length_b   15.72121600
_cell_length_c   24.38648080
_cell_angle_alpha   89.73400395
_cell_angle_beta   90.00000000
_cell_angle_gamma   90.00000000
_symmetry_Int_Tables_number   1
_chemical_formula_structural   Ca6Te5N2O21
_chemical_formula_sum   'Ca24 Te20 N8 O84'
_cell_volume   2172.44454191
_cell_formula_units_Z   4
loop_
 _symmetry_equiv_pos_site_id
 _symmetry_equiv_pos_as_xyz
  1  'x, y, z'
loop_
 _atom_site_type_symbol
 _atom_site_label
 _atom_site_symmetry_multiplicity
 _atom_site_fract_x
 _atom_site_fract_y
 _atom_site_fract_z
 _atom_site_occupancy
  Ca  Ca0  1  0.76278200  0.46764900  0.04510500  1
  Ca  Ca1  1  0.26278200  0.53235100  0.45489500  1
  Ca  Ca2  1  0.23721800  0.53235100  0.95489500  1
  Ca  Ca3  1  0.73721800  0.46764900  0.54510500  1
  Ca  Ca4  1  0.23528500  0.08315800  0.53387800  1
  Ca  Ca5  1  0.73528500  0.91684200  0.96612200  1
  Ca  Ca6  1  0.76471500  0.91684200  0.46612200  1
  Ca  Ca7  1  0.26471500  0.08315800  0.03387800  1
  Ca  Ca8  1  0.76282400  0.97646000  0.12770700  1
  Ca  Ca9  1  0.26282400  0.02354000  0.37229300  1
  Ca  Ca10  1  0.23717600  0.02354000  0.87229300  1
  Ca  Ca11  1  0.73717600  0.97646000  0.62770700  1
  Ca  Ca12  1  0.78959700  0.21894700  0.09559000  1
  Ca  Ca13  1  0.28959700  0.78105300  0.40441000  1
  Ca  Ca14  1  0.21040300  0.78105300  0.90441000  1
  Ca  Ca15  1  0.71040300  0.21894700  0.59559000  1
  Ca  Ca16  1  0.33706200  0.36960100  0.15005600  1
  Ca  Ca17  1  0.83706200  0.63039900  0.34994400  1
  Ca  Ca18  1  0.66293800  0.63039900  0.84994400  1
  Ca  Ca19  1  0.16293800  0.36960100  0.65005600  1
  Ca  Ca20  1  0.82565700  0.52941300  0.20374100  1
  Ca  Ca21  1  0.32565700  0.47058700  0.29625900  1
  Ca  Ca22  1  0.17434300  0.47058700  0.79625900  1
  Ca  Ca23  1  0.67434300  0.52941300  0.70374100  1
  Te  Te0  1  0.29493400  0.57767200  0.11166300  1
  Te  Te1  1  0.79493400  0.42232800  0.38833700  1
  Te  Te2  1  0.70506600  0.42232800  0.88833700  1
  Te  Te3  1  0.20506600  0.57767200  0.61166300  1
  Te  Te4  1  0.31101400  0.31226000  0.00088200  1
  Te  Te5  1  0.81101400  0.68774000  0.49911800  1
  Te  Te6  1  0.68898600  0.68774000  0.99911800  1
  Te  Te7  1  0.18898600  0.31226000  0.50088200  1
  Te  Te8  1  0.26839700  0.86436600  0.05631200  1
  Te  Te9  1  0.76839700  0.13563400  0.44368800  1
  Te  Te10  1  0.73160300  0.13563400  0.94368800  1
  Te  Te11  1  0.23160300  0.86436600  0.55631200  1
  Te  Te12  1  0.24208400  0.12374900  0.17295800  1
  Te  Te13  1  0.74208400  0.87625100  0.32704200  1
  Te  Te14  1  0.75791600  0.87625100  0.82704200  1
  Te  Te15  1  0.25791600  0.12374900  0.67295800  1
  Te  Te16  1  0.35318600  0.67867400  0.26209200  1
  Te  Te17  1  0.85318600  0.32132600  0.23790800  1
  Te  Te18  1  0.64681400  0.32132600  0.73790800  1
  Te  Te19  1  0.14681400  0.67867400  0.76209200  1
  N  N0  1  0.27367700  0.92044400  0.21615700  1
  N  N1  1  0.77367700  0.07955600  0.28384300  1
  N  N2  1  0.72632300  0.07955600  0.78384300  1
  N  N3  1  0.22632300  0.92044400  0.71615700  1
  N  N4  1  0.80461900  0.74992200  0.15899400  1
  N  N5  1  0.30461900  0.25007800  0.34100600  1
  N  N6  1  0.19538100  0.25007800  0.84100600  1
  N  N7  1  0.69538100  0.74992200  0.65899400  1
  O  O0  1  0.41294000  0.55916000  0.04039100  1
  O  O1  1  0.91294000  0.44084000  0.45960900  1
  O  O2  1  0.58706000  0.44084000  0.95960900  1
  O  O3  1  0.08706000  0.55916000  0.54039100  1
  O  O4  1  0.04681500  0.49713100  0.11736300  1
  O  O5  1  0.54681500  0.50286900  0.38263700  1
  O  O6  1  0.95318500  0.50286900  0.88263700  1
  O  O7  1  0.45318500  0.49713100  0.61736300  1
  O  O8  1  0.52229900  0.50407600  0.14329700  1
  O  O9  1  0.02229900  0.49592400  0.35670300  1
  O  O10  1  0.47770100  0.49592400  0.85670300  1
  O  O11  1  0.97770100  0.50407600  0.64329700  1
  O  O12  1  0.09438000  0.40435900  0.00043900  1
  O  O13  1  0.59438000  0.59564100  0.49956100  1
  O  O14  1  0.90562000  0.59564100  0.99956100  1
  O  O15  1  0.40562000  0.40435900  0.50043900  1
  O  O16  1  0.11702500  0.22930400  0.03546500  1
  O  O17  1  0.61702500  0.77069600  0.46453500  1
  O  O18  1  0.88297500  0.77069600  0.96453500  1
  O  O19  1  0.38297500  0.22930400  0.53546500  1
  O  O20  1  0.50468800  0.34148900  0.06294200  1
  O  O21  1  0.00468800  0.65851100  0.43705800  1
  O  O22  1  0.49531200  0.65851100  0.93705800  1
  O  O23  1  0.99531200  0.34148900  0.56294200  1
  O  O24  1  0.37094500  0.83829300  0.98492900  1
  O  O25  1  0.87094500  0.16170700  0.51507100  1
  O  O26  1  0.62905500  0.16170700  0.01507100  1
  O  O27  1  0.12905500  0.83829300  0.48492900  1
  O  O28  1  0.00528400  0.93563200  0.04410700  1
  O  O29  1  0.50528400  0.06436800  0.45589300  1
  O  O30  1  0.99471600  0.06436800  0.95589300  1
  O  O31  1  0.49471600  0.93563200  0.54410700  1
  O  O32  1  0.48804500  0.95515700  0.06066300  1
  O  O33  1  0.98804500  0.04484300  0.43933700  1
  O  O34  1  0.51195500  0.04484300  0.93933700  1
  O  O35  1  0.01195500  0.95515700  0.56066300  1
  O  O36  1  0.15962000  0.23983500  0.16805800  1
  O  O37  1  0.65962000  0.76016500  0.33194200  1
  O  O38  1  0.84038000  0.76016500  0.83194200  1
  O  O39  1  0.34038000  0.23983500  0.66805800  1
  O  O40  1  0.50336300  0.11674700  0.12488200  1
  O  O41  1  0.00336300  0.88325300  0.37511800  1
  O  O42  1  0.49663700  0.88325300  0.87511800  1
  O  O43  1  0.99663700  0.11674700  0.62488200  1
  O  O44  1  0.02075100  0.09078200  0.11747800  1
  O  O45  1  0.52075100  0.90921800  0.38252200  1
  O  O46  1  0.97924900  0.90921800  0.88252200  1
  O  O47  1  0.47924900  0.09078200  0.61747800  1
  O  O48  1  0.21471100  0.68145200  0.33245000  1
  O  O49  1  0.71471100  0.31854800  0.16755000  1
  O  O50  1  0.78528900  0.31854800  0.66755000  1
  O  O51  1  0.28528900  0.68145200  0.83245000  1
  O  O52  1  0.15712100  0.58912500  0.23670600  1
  O  O53  1  0.65712100  0.41087500  0.26329400  1
  O  O54  1  0.84287900  0.41087500  0.76329400  1
  O  O55  1  0.34287900  0.58912500  0.73670600  1
  O  O56  1  0.59764200  0.59742400  0.27445100  1
  O  O57  1  0.09764200  0.40257600  0.22554900  1
  O  O58  1  0.40235800  0.40257600  0.72554900  1
  O  O59  1  0.90235800  0.59742400  0.77445100  1
  O  O60  1  0.09750700  0.93889600  0.18641800  1
  O  O61  1  0.59750700  0.06110400  0.31358200  1
  O  O62  1  0.90249300  0.06110400  0.81358200  1
  O  O63  1  0.40249300  0.93889600  0.68641800  1
  O  O64  1  0.24616400  0.89903700  0.26559900  1
  O  O65  1  0.74616400  0.10096300  0.23440100  1
  O  O66  1  0.75383600  0.10096300  0.73440100  1
  O  O67  1  0.25383600  0.89903700  0.76559900  1
  O  O68  1  0.48004000  0.92434900  0.19590300  1
  O  O69  1  0.98004000  0.07565100  0.30409700  1
  O  O70  1  0.51996000  0.07565100  0.80409700  1
  O  O71  1  0.01996000  0.92434900  0.69590300  1
  O  O72  1  0.75977900  0.80762700  0.12347500  1
  O  O73  1  0.25977900  0.19237300  0.37652500  1
  O  O74  1  0.24022100  0.19237300  0.87652500  1
  O  O75  1  0.74022100  0.80762700  0.62347500  1
  O  O76  1  0.90300000  0.76734300  0.20351500  1
  O  O77  1  0.40300000  0.23265700  0.29648500  1
  O  O78  1  0.09700000  0.23265700  0.79648500  1
  O  O79  1  0.59700000  0.76734300  0.70351500  1
  O  O80  1  0.74692200  0.67271500  0.14794400  1
  O  O81  1  0.24692200  0.32728500  0.35205600  1
  O  O82  1  0.25307800  0.32728500  0.85205600  1
  O  O83  1  0.75307800  0.67271500  0.64794400  1
loop_
_geom_bond_atom_site_label_1
_geom_bond_atom_site_label_2
_geom_bond_distance
_geom_bond_site_symmetry_2
Ca0 O2 2.350381 1_554
Ca0 O12 2.391073 1_655
Ca0 O14 2.432456 1_554
Ca0 O4 2.432676 1_655
Ca0 O0 2.451800 1_555
Ca0 O20 2.500787 1_555
Ca0 O8 2.816304 1_555
Ca1 O3 2.350381 1_555
Ca1 O13 2.391073 1_555
Ca1 O15 2.432456 1_555
Ca1 O5 2.432676 1_555
Ca1 O1 2.451800 1_455
Ca1 O21 2.500787 1_555
Ca1 O9 2.816304 1_555
Ca2 O0 2.350381 1_556
Ca2 O14 2.391073 1_455
Ca2 O12 2.432456 1_556
Ca2 O6 2.432676 1_455
Ca2 O2 2.451800 1_555
Ca2 O22 2.500787 1_555
Ca2 O10 2.816304 1_555
Ca3 O1 2.350381 1_555
Ca3 O15 2.391073 1_555
Ca3 O13 2.432456 1_555
Ca3 O7 2.432676 1_555
Ca3 O3 2.451800 1_655
Ca3 O23 2.500787 1_555
Ca3 O11 2.816304 1_555
Ca4 O19 2.445740 1_555
Ca4 O25 2.447936 1_455
Ca4 O29 2.459680 1_555
Ca4 O35 2.462812 1_545
Ca4 O47 2.466595 1_555
Ca4 O43 2.653981 1_455
Ca4 O31 2.756279 1_545
Ca4 O33 2.766578 1_455
Ca5 O18 2.445740 1_555
Ca5 O24 2.447936 1_555
Ca5 O28 2.459680 1_656
Ca5 O34 2.462812 1_565
Ca5 O46 2.466595 1_555
Ca5 O42 2.653981 1_555
Ca5 O30 2.756279 1_565
Ca5 O32 2.766578 1_556
Ca6 O17 2.445740 1_555
Ca6 O27 2.447936 1_655
Ca6 O31 2.459680 1_555
Ca6 O33 2.462812 1_565
Ca6 O45 2.466595 1_555
Ca6 O41 2.653981 1_655
Ca6 O29 2.756279 1_565
Ca6 O35 2.766578 1_655
Ca7 O16 2.445740 1_555
Ca7 O26 2.447936 1_555
Ca7 O30 2.459680 1_454
Ca7 O32 2.462812 1_545
Ca7 O44 2.466595 1_555
Ca7 O40 2.653981 1_555
Ca7 O28 2.756279 1_545
Ca7 O34 2.766578 1_554
Ca8 O32 2.283585 1_555
Ca8 O44 2.329039 1_665
Ca8 O60 2.446940 1_655
Ca8 O68 2.447856 1_555
Ca8 O28 2.543247 1_655
Ca8 O40 2.651247 1_565
Ca8 O72 2.656800 1_555
Ca9 O33 2.283585 1_455
Ca9 O45 2.329039 1_545
Ca9 O61 2.446940 1_555
Ca9 O69 2.447856 1_455
Ca9 O29 2.543247 1_555
Ca9 O41 2.651247 1_545
Ca9 O73 2.656800 1_555
Ca10 O34 2.283585 1_555
Ca10 O46 2.329039 1_445
Ca10 O62 2.446940 1_455
Ca10 O70 2.447856 1_555
Ca10 O30 2.543247 1_455
Ca10 O42 2.651247 1_545
Ca10 O74 2.656800 1_555
Ca11 O35 2.283585 1_655
Ca11 O47 2.329039 1_565
Ca11 O63 2.446940 1_555
Ca11 O71 2.447856 1_655
Ca11 O31 2.543247 1_555
Ca11 O43 2.651247 1_565
Ca11 O75 2.656800 1_555
Ca12 O26 2.347213 1_555
Ca12 O16 2.369936 1_655
Ca12 O40 2.389951 1_555
Ca12 O49 2.395197 1_555
Ca12 O44 2.459772 1_655
Ca12 O20 2.633919 1_555
Ca12 O36 2.762739 1_655
Ca13 O27 2.347213 1_555
Ca13 O17 2.369936 1_555
Ca13 O41 2.389951 1_555
Ca13 O48 2.395197 1_555
Ca13 O45 2.459772 1_555
Ca13 O21 2.633919 1_555
Ca13 O37 2.762739 1_555
Ca14 O24 2.347213 1_555
Ca14 O18 2.369936 1_455
Ca14 O42 2.389951 1_555
Ca14 O51 2.395197 1_555
Ca14 O46 2.459772 1_455
Ca14 O22 2.633919 1_555
Ca14 O38 2.762739 1_455
Ca15 O25 2.347213 1_555
Ca15 O19 2.369936 1_555
Ca15 O43 2.389951 1_555
Ca15 O50 2.395197 1_555
Ca15 O47 2.459772 1_555
Ca15 O23 2.633919 1_555
Ca15 O39 2.762739 1_555
Ca16 O36 2.314590 1_555
Ca16 O49 2.324319 1_555
Ca16 O57 2.346809 1_555
Ca16 O8 2.365411 1_555
Ca16 O20 2.370520 1_555
Ca16 O4 2.710268 1_555
Ca17 O37 2.314590 1_555
Ca17 O48 2.324319 1_655
Ca17 O56 2.346809 1_555
Ca17 O9 2.365411 1_655
Ca17 O21 2.370520 1_655
Ca17 O5 2.710268 1_555
Ca18 O38 2.314590 1_555
Ca18 O51 2.324319 1_555
Ca18 O59 2.346809 1_555
Ca18 O10 2.365411 1_555
Ca18 O22 2.370520 1_555
Ca18 O6 2.710268 1_555
Ca19 O39 2.314590 1_555
Ca19 O50 2.324319 1_455
Ca19 O58 2.346809 1_555
Ca19 O11 2.365411 1_455
Ca19 O23 2.370520 1_455
Ca19 O7 2.710268 1_555
Ca20 O52 2.249966 1_655
Ca20 O8 2.300385 1_555
Ca20 O56 2.408982 1_555
Ca20 O4 2.505027 1_655
Ca20 O53 2.543409 1_555
Ca20 O57 2.573809 1_655
Ca20 O80 2.664123 1_555
Ca21 O53 2.249966 1_555
Ca21 O9 2.300385 1_555
Ca21 O57 2.408982 1_555
Ca21 O5 2.505027 1_555
Ca21 O52 2.543409 1_555
Ca21 O56 2.573809 1_555
Ca21 O81 2.664123 1_555
Ca22 O54 2.249966 1_455
Ca22 O10 2.300385 1_555
Ca22 O58 2.408982 1_555
Ca22 O6 2.505027 1_455
Ca22 O55 2.543409 1_555
Ca22 O59 2.573809 1_455
Ca22 O82 2.664123 1_555
Ca23 O55 2.249966 1_555
Ca23 O11 2.300385 1_555
Ca23 O59 2.408982 1_555
Ca23 O7 2.505027 1_555
Ca23 O54 2.543409 1_555
Ca23 O58 2.573809 1_555
Ca23 O83 2.664123 1_555
N0 O64 1.259981 1_555
N0 O60 1.266771 1_555
N0 O68 1.270772 1_555
N1 O65 1.259981 1_555
N1 O61 1.266771 1_555
N1 O69 1.270772 1_555
N2 O66 1.259981 1_555
N2 O62 1.266771 1_555
N2 O70 1.270772 1_555
N3 O67 1.259981 1_555
N3 O63 1.266771 1_555
N3 O71 1.270772 1_555
N4 O76 1.251927 1_555
N4 O72 1.276925 1_555
N4 O80 1.286788 1_555
N5 O77 1.251927 1_555
N5 O73 1.276925 1_555
N5 O81 1.286788 1_555
N6 O78 1.251927 1_555
N6 O74 1.276925 1_555
N6 O82 1.286788 1_555
N7 O79 1.251927 1_555
N7 O75 1.276925 1_555
N7 O83 1.286788 1_555
O0 Te0 1.886116 1_555
O1 Te1 1.886116 1_555
O2 Te2 1.886116 1_555
O3 Te3 1.886116 1_555
O4 Te0 1.896767 1_555
O5 Te1 1.896767 1_555
O6 Te2 1.896767 1_555
O7 Te3 1.896767 1_555
O8 Te0 1.893524 1_555
O9 Te1 1.893524 1_455
O10 Te2 1.893524 1_555
O11 Te3 1.893524 1_655
O12 Te4 1.898243 1_555
O13 Te5 1.898243 1_555
O14 Te6 1.898243 1_555
O15 Te7 1.898243 1_555
O16 Te4 1.900063 1_555
O17 Te5 1.900063 1_555
O18 Te6 1.900063 1_555
O19 Te7 1.900063 1_555
O20 Te4 1.926782 1_555
O21 Te5 1.926782 1_455
O22 Te6 1.926782 1_555
O23 Te7 1.926782 1_655
O24 Te8 1.882187 1_556
O25 Te9 1.882187 1_555
O26 Te10 1.882187 1_554
O27 Te11 1.882187 1_555
O28 Te8 1.887767 1_555
O29 Te9 1.887767 1_555
O30 Te10 1.887767 1_555
O31 Te11 1.887767 1_555
O32 Te8 1.897134 1_555
O33 Te9 1.897134 1_555
O34 Te10 1.897134 1_555
O35 Te11 1.897134 1_555
O36 Te12 1.887136 1_555
O37 Te13 1.887136 1_555
O38 Te14 1.887136 1_555
O39 Te15 1.887136 1_555
O40 Te12 1.892055 1_555
O41 Te13 1.892055 1_455
O42 Te14 1.892055 1_555
O43 Te15 1.892055 1_655
O44 Te12 1.917976 1_555
O45 Te13 1.917976 1_555
O46 Te14 1.917976 1_555
O47 Te15 1.917976 1_555
O48 Te16 1.887388 1_555
O49 Te17 1.887388 1_555
O50 Te18 1.887388 1_555
O51 Te19 1.887388 1_555
O52 Te16 1.899380 1_555
O53 Te17 1.899380 1_555
O54 Te18 1.899380 1_555
O55 Te19 1.899380 1_555
O56 Te16 1.907280 1_555
O57 Te17 1.907280 1_455
O58 Te18 1.907280 1_555
O59 Te19 1.907280 1_655
