# generated using pymatgen
data_Li2TiV3O8
_symmetry_space_group_name_H-M   'P 1'
_cell_length_a   5.93051581
_cell_length_b   6.03617665
_cell_length_c   8.58264717
_cell_angle_alpha   89.15478215
_cell_angle_beta   89.87119432
_cell_angle_gamma   90.42405833
_symmetry_Int_Tables_number   1
_chemical_formula_structural   Li2TiV3O8
_chemical_formula_sum   'Li4 Ti2 V6 O16'
_cell_volume   307.19582559
_cell_formula_units_Z   2
loop_
 _symmetry_equiv_pos_site_id
 _symmetry_equiv_pos_as_xyz
  1  'x, y, z'
loop_
 _atom_site_type_symbol
 _atom_site_label
 _atom_site_symmetry_multiplicity
 _atom_site_fract_x
 _atom_site_fract_y
 _atom_site_fract_z
 _atom_site_occupancy
  Li  Li0  1  0.75000600  0.74992600  0.75002900  1
  Li  Li1  1  0.25001900  0.24995200  0.25003800  1
  Li  Li2  1  0.25002900  0.75003800  0.75001500  1
  Li  Li3  1  0.75004100  0.25000900  0.25000000  1
  Ti  Ti0  1  0.99799100  0.00485400  0.00121600  1
  Ti  Ti1  1  0.50211500  0.49488900  0.49871400  1
  V  V0  1  0.49815500  0.99887000  0.00128700  1
  V  V1  1  0.00198800  0.50134200  0.49883600  1
  V  V2  1  0.25012800  0.75005100  0.24999800  1
  V  V3  1  0.75022400  0.24998100  0.74994900  1
  V  V4  1  0.74978200  0.75001200  0.25000300  1
  V  V5  1  0.24980700  0.25006800  0.75000200  1
  O  O0  1  0.00072400  0.51545600  0.26805400  1
  O  O1  1  0.50083900  0.01734000  0.76861500  1
  O  O2  1  0.99912900  0.48263100  0.73134900  1
  O  O3  1  0.49918900  0.98451300  0.23190700  1
  O  O4  1  0.49769000  0.51478200  0.26987200  1
  O  O5  1  0.99825000  0.01629600  0.77028900  1
  O  O6  1  0.50178100  0.48369400  0.72972500  1
  O  O7  1  0.00222700  0.98524100  0.23015100  1
  O  O8  1  0.25631600  0.78842200  0.00696600  1
  O  O9  1  0.75613200  0.28774400  0.50518800  1
  O  O10  1  0.75153000  0.78455700  0.01046100  1
  O  O11  1  0.25124600  0.28359700  0.50809200  1
  O  O12  1  0.24869500  0.21642300  0.99191300  1
  O  O13  1  0.74843100  0.71543900  0.48953400  1
  O  O14  1  0.74386600  0.21225800  0.99478700  1
  O  O15  1  0.24366100  0.71162600  0.49305600  1
loop_
_geom_bond_atom_site_label_1
_geom_bond_atom_site_label_2
_geom_bond_distance
_geom_bond_site_symmetry_2
Li0 O6 2.180453 1_555
Li0 O5 2.181104 1_565
Li0 O2 2.203074 1_555
Li0 O1 2.203715 1_565
Li0 O10 2.248050 1_556
Li0 O13 2.248496 1_555
Li1 O7 2.171677 1_545
Li1 O4 2.171680 1_555
Li1 O3 2.194621 1_545
Li1 O0 2.195334 1_555
Li1 O11 2.227083 1_555
Li1 O12 2.227618 1_554
Li2 O1 2.194176 1_565
Li2 O2 2.195046 1_455
Li2 O5 2.210316 1_465
Li2 O6 2.210600 1_555
Li2 O8 2.221221 1_556
Li2 O15 2.221318 1_555
Li3 O0 2.185096 1_655
Li3 O3 2.186016 1_545
Li3 O7 2.205060 1_645
Li3 O9 2.205689 1_555
Li3 O4 2.205768 1_555
Li3 O14 2.205923 1_554
O0 V1 1.981329 1_555
O0 V2 2.044124 1_555
O0 V4 2.066178 1_455
O1 V0 1.998430 1_546
O1 V3 2.036310 1_555
O1 V5 2.059303 1_555
O2 V1 1.997133 1_655
O2 V3 2.034258 1_555
O2 V5 2.057114 1_655
O3 V0 1.979974 1_555
O3 V2 2.042132 1_555
O3 V4 2.064474 1_555
O4 Ti1 1.966214 1_555
O4 V2 2.055776 1_555
O4 V4 2.059268 1_555
O5 Ti0 1.982146 1_556
O5 V5 2.051235 1_655
O5 V3 2.051434 1_555
O6 Ti1 1.982837 1_555
O6 V5 2.052415 1_555
O6 V3 2.053261 1_555
O7 Ti0 1.966916 1_465
O7 V2 2.056875 1_555
O7 V4 2.060763 1_455
O8 V0 1.908913 1_555
O8 Ti0 2.020956 1_465
O8 V2 2.095488 1_555
O9 V1 1.939321 1_655
O9 Ti1 1.965223 1_555
O9 V3 2.109867 1_555
O10 Ti0 1.969397 1_565
O10 V0 1.990960 1_555
O10 V4 2.063385 1_555
O11 Ti1 1.953191 1_555
O11 V1 1.986249 1_555
O11 V5 2.083088 1_555
O12 Ti0 1.953514 1_456
O12 V0 1.986407 1_546
O12 V5 2.083153 1_555
O13 Ti1 1.969770 1_555
O13 V1 1.990962 1_655
O13 V4 2.063302 1_555
O14 V0 1.937865 1_546
O14 Ti0 1.966712 1_556
O14 V3 2.110539 1_555
O15 V1 1.907537 1_555
O15 Ti1 2.022727 1_555
O15 V2 2.095766 1_555
