# generated using pymatgen
data_Co2Mo3O8
_symmetry_space_group_name_H-M   'P 1'
_cell_length_a   5.87136231
_cell_length_b   5.87136231
_cell_length_c   10.02093700
_cell_angle_alpha   90.00000000
_cell_angle_beta   90.00000000
_cell_angle_gamma   120.00000345
_symmetry_Int_Tables_number   1
_chemical_formula_structural   Co2Mo3O8
_chemical_formula_sum   'Co4 Mo6 O16'
_cell_volume   299.16908220
_cell_formula_units_Z   2
loop_
 _symmetry_equiv_pos_site_id
 _symmetry_equiv_pos_as_xyz
  1  'x, y, z'
loop_
 _atom_site_type_symbol
 _atom_site_label
 _atom_site_symmetry_multiplicity
 _atom_site_fract_x
 _atom_site_fract_y
 _atom_site_fract_z
 _atom_site_occupancy
  Co  Co0  1  0.33333300  0.66666700  0.94695900  1
  Co  Co1  1  0.66666700  0.33333300  0.44695900  1
  Co  Co2  1  0.33333300  0.66666700  0.51568900  1
  Co  Co3  1  0.66666700  0.33333300  0.01568900  1
  Mo  Mo0  1  0.14598100  0.85401900  0.24921800  1
  Mo  Mo1  1  0.29196200  0.14598100  0.74921800  1
  Mo  Mo2  1  0.85401900  0.70803800  0.74921800  1
  Mo  Mo3  1  0.14598100  0.29196200  0.24921800  1
  Mo  Mo4  1  0.70803800  0.85401900  0.24921800  1
  Mo  Mo5  1  0.85401900  0.14598100  0.74921800  1
  O  O0  1  0.83195800  0.16804200  0.13240300  1
  O  O1  1  0.66391700  0.83195800  0.63240300  1
  O  O2  1  0.16804200  0.33608300  0.63240300  1
  O  O3  1  0.83195800  0.66391700  0.13240300  1
  O  O4  1  0.33608300  0.16804200  0.13240300  1
  O  O5  1  0.16804200  0.83195800  0.63240300  1
  O  O6  1  0.51215900  0.48784100  0.86505300  1
  O  O7  1  0.02431700  0.51215900  0.36505300  1
  O  O8  1  0.48784100  0.97568300  0.36505300  1
  O  O9  1  0.51215900  0.02431700  0.86505300  1
  O  O10  1  0.00000000  0.00000000  0.39239800  1
  O  O11  1  0.00000000  0.00000000  0.89239800  1
  O  O12  1  0.33333300  0.66666700  0.14393100  1
  O  O13  1  0.97568300  0.48784100  0.86505300  1
  O  O14  1  0.48784100  0.51215900  0.36505300  1
  O  O15  1  0.66666700  0.33333300  0.64393100  1
loop_
_geom_bond_atom_site_label_1
_geom_bond_atom_site_label_2
_geom_bond_distance
_geom_bond_site_symmetry_2
Co0 O12 1.973844 1_556
Co0 O9 1.995203 1_565
Co0 O13 1.995203 1_455
Co0 O6 1.995212 1_555
Co1 O15 1.973844 1_555
Co1 O7 1.995203 1_655
Co1 O8 1.995203 1_545
Co1 O14 1.995212 1_555
Co2 O5 2.047789 1_555
Co2 O1 2.047797 1_555
Co2 O2 2.047797 1_555
Co2 O8 2.178880 1_555
Co2 O7 2.178880 1_555
Co2 O14 2.178880 1_555
Co3 O0 2.047789 1_555
Co3 O3 2.047797 1_555
Co3 O4 2.047797 1_555
Co3 O9 2.178880 1_554
Co3 O13 2.178880 1_554
Co3 O6 2.178880 1_554
Mo0 O4 1.989367 1_565
Mo0 O3 1.989367 1_455
Mo0 O10 2.064593 1_565
Mo0 O8 2.110133 1_555
Mo0 O7 2.110133 1_555
Mo0 O12 2.177902 1_555
Mo1 O2 1.989364 1_555
Mo1 O5 1.989368 1_545
Mo1 O11 2.064593 1_555
Mo1 O6 2.110133 1_555
Mo1 O9 2.110137 1_555
Mo1 O15 2.177907 1_555
Mo2 O1 1.989364 1_555
Mo2 O5 1.989368 1_655
Mo2 O11 2.064593 1_665
Mo2 O6 2.110133 1_555
Mo2 O13 2.110137 1_555
Mo2 O15 2.177907 1_555
Mo3 O4 1.989364 1_555
Mo3 O0 1.989368 1_455
Mo3 O10 2.064593 1_555
Mo3 O14 2.110133 1_555
Mo3 O7 2.110137 1_555
Mo3 O12 2.177907 1_555
Mo4 O3 1.989364 1_555
Mo4 O0 1.989368 1_565
Mo4 O10 2.064593 1_665
Mo4 O14 2.110133 1_555
Mo4 O8 2.110137 1_555
Mo4 O12 2.177907 1_555
Mo5 O2 1.989367 1_655
Mo5 O1 1.989367 1_545
Mo5 O11 2.064593 1_655
Mo5 O13 2.110133 1_555
Mo5 O9 2.110133 1_555
Mo5 O15 2.177902 1_555
