# generated using pymatgen
data_Ce6Ni20As13
_symmetry_space_group_name_H-M   'P 1'
_cell_length_a   13.20881805
_cell_length_b   13.20881805
_cell_length_c   3.94616600
_cell_angle_alpha   90.00000000
_cell_angle_beta   90.00000000
_cell_angle_gamma   120.00000025
_symmetry_Int_Tables_number   1
_chemical_formula_structural   Ce6Ni20As13
_chemical_formula_sum   'Ce6 Ni20 As13'
_cell_volume   596.25755752
_cell_formula_units_Z   1
loop_
 _symmetry_equiv_pos_site_id
 _symmetry_equiv_pos_as_xyz
  1  'x, y, z'
loop_
 _atom_site_type_symbol
 _atom_site_label
 _atom_site_symmetry_multiplicity
 _atom_site_fract_x
 _atom_site_fract_y
 _atom_site_fract_z
 _atom_site_occupancy
  Ce  Ce0  1  0.71904800  0.53021400  0.00000000  1
  Ce  Ce1  1  0.81116600  0.28095200  0.00000000  1
  Ce  Ce2  1  0.46978600  0.18883400  0.00000000  1
  Ce  Ce3  1  0.53205500  0.81241700  0.50000000  1
  Ce  Ce4  1  0.28036100  0.46794500  0.50000000  1
  Ce  Ce5  1  0.18758300  0.71963900  0.50000000  1
  Ni  Ni0  1  0.89121200  0.80224600  0.00000000  1
  Ni  Ni1  1  0.91103500  0.10878800  0.00000000  1
  Ni  Ni2  1  0.19775400  0.08896500  0.00000000  1
  Ni  Ni3  1  0.66666700  0.33333300  0.50000000  1
  Ni  Ni4  1  0.84299300  0.92891100  0.50000000  1
  Ni  Ni5  1  0.08591900  0.15700700  0.50000000  1
  Ni  Ni6  1  0.07108900  0.91408100  0.50000000  1
  Ni  Ni7  1  0.33333300  0.66666700  0.00000000  1
  Ni  Ni8  1  0.97799100  0.56350400  0.00000000  1
  Ni  Ni9  1  0.58551300  0.02200900  0.00000000  1
  Ni  Ni10  1  0.43649600  0.41448700  0.00000000  1
  Ni  Ni11  1  0.93098600  0.68386600  0.50000000  1
  Ni  Ni12  1  0.75288000  0.06901400  0.50000000  1
  Ni  Ni13  1  0.31613400  0.24712000  0.50000000  1
  Ni  Ni14  1  0.41184400  0.97766600  0.50000000  1
  Ni  Ni15  1  0.56582100  0.58815600  0.50000000  1
  Ni  Ni16  1  0.02233400  0.43417900  0.50000000  1
  Ni  Ni17  1  0.68044600  0.75531600  0.00000000  1
  Ni  Ni18  1  0.07487000  0.31955400  0.00000000  1
  Ni  Ni19  1  0.24468400  0.92513000  0.00000000  1
  As  As0  1  0.86657100  0.47846400  0.50000000  1
  As  As1  1  0.61189300  0.13342900  0.50000000  1
  As  As2  1  0.52153600  0.38810700  0.50000000  1
  As  As3  1  0.76948000  0.72297200  0.50000000  1
  As  As4  1  0.95349100  0.23052000  0.50000000  1
  As  As5  1  0.27702800  0.04650900  0.50000000  1
  As  As6  1  0.38735400  0.86578000  0.00000000  1
  As  As7  1  0.47842700  0.61264600  0.00000000  1
  As  As8  1  0.13422000  0.52157300  0.00000000  1
  As  As9  1  0.72105500  0.95183600  0.00000000  1
  As  As10  1  0.23078200  0.27894500  0.00000000  1
  As  As11  1  0.04816400  0.76921800  0.00000000  1
  As  As12  1  0.00000000  0.00000000  0.00000000  1
loop_
_geom_bond_atom_site_label_1
_geom_bond_atom_site_label_2
_geom_bond_distance
_geom_bond_site_symmetry_2
Ce0 Ni3 3.055389 1_555
Ce0 Ni3 3.055389 1_554
Ce0 Ni0 3.148239 1_555
Ce0 Ni15 3.181854 1_555
Ce0 Ni15 3.181854 1_554
Ce0 Ni11 3.188643 1_555
Ce0 Ni11 3.188643 1_554
Ce0 Ni8 3.223046 1_555
Ce0 Ni10 3.249731 1_555
Ce0 Ni17 3.258335 1_555
Ce1 Ni3 3.055379 1_554
Ce1 Ni3 3.055379 1_555
Ce1 Ni1 3.148249 1_555
Ce1 Ni16 3.181846 1_654
Ce1 Ni16 3.181846 1_655
Ce1 Ni12 3.188643 1_554
Ce1 Ni12 3.188643 1_555
Ce1 Ni9 3.223046 1_555
Ce1 Ni8 3.249731 1_555
Ce1 Ni18 3.258335 1_655
Ce2 Ni3 3.055386 1_554
Ce2 Ni3 3.055386 1_555
Ce2 Ni2 3.148237 1_555
Ce2 Ni14 3.181844 1_544
Ce2 Ni14 3.181844 1_545
Ce2 Ni13 3.188643 1_554
Ce2 Ni13 3.188643 1_555
Ce2 Ni10 3.223046 1_555
Ce2 Ni9 3.249731 1_555
Ce2 Ni19 3.258335 1_545
Ce3 Ni7 3.071810 1_555
Ce3 Ni7 3.071810 1_556
Ce3 Ni17 3.127644 1_556
Ce3 Ni17 3.127644 1_555
Ce3 Ni9 3.178236 1_566
Ce3 Ni9 3.178236 1_565
Ce3 Ni12 3.179532 1_565
Ce3 Ni15 3.208561 1_555
Ce3 Ni14 3.278945 1_555
Ce4 Ni7 3.071810 1_556
Ce4 Ni7 3.071810 1_555
Ce4 Ni18 3.127637 1_556
Ce4 Ni18 3.127637 1_555
Ce4 Ni10 3.178246 1_555
Ce4 Ni10 3.178246 1_556
Ce4 Ni13 3.179540 1_555
Ce4 Ni16 3.208561 1_555
Ce4 Ni15 3.278945 1_555
Ce5 Ni7 3.071810 1_555
Ce5 Ni7 3.071810 1_556
Ce5 Ni19 3.127635 1_555
Ce5 Ni19 3.127635 1_556
Ce5 Ni8 3.178239 1_456
Ce5 Ni8 3.178239 1_455
Ce5 Ni11 3.179527 1_455
Ce5 Ni14 3.208561 1_555
Ce5 Ni16 3.278945 1_555
As0 Ni3 2.363321 1_555
As0 Ni8 2.380679 1_555
As0 Ni8 2.380679 1_556
As0 Ni11 2.403435 1_555
As0 Ni16 2.403905 1_655
As0 Ce1 3.053803 1_555
As0 Ce1 3.053803 1_556
As0 Ce0 3.080478 1_556
As0 Ce0 3.080478 1_555
As1 Ni3 2.363318 1_555
As1 Ni9 2.380679 1_556
As1 Ni9 2.380679 1_555
As1 Ni12 2.403435 1_555
As1 Ni14 2.403914 1_545
As1 Ce2 3.053803 1_556
As1 Ce2 3.053803 1_555
As1 Ce1 3.080478 1_555
As1 Ce1 3.080478 1_556
As2 Ni3 2.363330 1_555
As2 Ni10 2.380679 1_555
As2 Ni10 2.380679 1_556
As2 Ni13 2.403435 1_555
As2 Ni15 2.403918 1_555
As2 Ce0 3.053803 1_556
As2 Ce0 3.053803 1_555
As2 Ce2 3.080478 1_556
As2 Ce2 3.080478 1_555
As3 Ni15 2.370085 1_555
As3 Ni4 2.387687 1_555
As3 Ni0 2.427194 1_556
As3 Ni0 2.427194 1_555
As3 Ni11 2.433053 1_555
As3 Ni17 2.441530 1_555
As3 Ni17 2.441530 1_556
As3 Ce0 3.020493 1_556
As3 Ce0 3.020493 1_555
As4 Ni16 2.370085 1_655
As4 Ni5 2.387711 1_655
As4 Ni1 2.427197 1_555
As4 Ni1 2.427197 1_556
As4 Ni12 2.433044 1_555
As4 Ni18 2.441535 1_656
As4 Ni18 2.441535 1_655
As4 Ce1 3.020484 1_555
As4 Ce1 3.020484 1_556
As5 Ni14 2.370085 1_545
As5 Ni6 2.387691 1_545
As5 Ni2 2.427182 1_556
As5 Ni2 2.427182 1_555
As5 Ni13 2.433040 1_555
As5 Ni19 2.441537 1_546
As5 Ni19 2.441537 1_545
As5 Ce2 3.020491 1_556
As5 Ce2 3.020491 1_555
As6 Ni7 2.355765 1_555
As6 Ni19 2.375554 1_555
As6 Ni14 2.388255 1_554
As6 Ni14 2.388255 1_555
As6 Ni9 2.389165 1_565
As6 Ce3 3.064358 1_555
As6 Ce3 3.064358 1_554
As6 Ce5 3.080351 1_555
As6 Ce5 3.080351 1_554
As7 Ni7 2.355790 1_555
As7 Ni17 2.375545 1_555
As7 Ni15 2.388240 1_554
As7 Ni15 2.388240 1_555
As7 Ni10 2.389161 1_555
As7 Ce4 3.064372 1_554
As7 Ce4 3.064372 1_555
As7 Ce3 3.080356 1_554
As7 Ce3 3.080356 1_555
As8 Ni7 2.355772 1_555
As8 Ni18 2.375542 1_555
As8 Ni16 2.388250 1_554
As8 Ni16 2.388250 1_555
As8 Ni8 2.389174 1_455
As8 Ce5 3.064378 1_554
As8 Ce5 3.064378 1_555
As8 Ce4 3.080336 1_554
As8 Ce4 3.080336 1_555
As9 Ni1 2.322221 1_565
As9 Ni17 2.373501 1_555
As9 Ni9 2.392484 1_565
As9 Ni12 2.411381 1_565
As9 Ni12 2.411381 1_564
As9 Ni4 2.658325 1_555
As9 Ni4 2.658325 1_554
As9 Ce3 2.986528 1_554
As9 Ce3 2.986528 1_555
As10 Ni2 2.322221 1_555
As10 Ni18 2.373514 1_555
As10 Ni10 2.392474 1_555
As10 Ni13 2.411373 1_555
As10 Ni13 2.411373 1_554
As10 Ni5 2.658325 1_554
As10 Ni5 2.658325 1_555
As10 Ce4 2.986534 1_554
As10 Ce4 2.986534 1_555
As11 Ni0 2.322221 1_455
As11 Ni19 2.373505 1_555
As11 Ni8 2.392471 1_455
As11 Ni11 2.411379 1_455
As11 Ni11 2.411379 1_454
As11 Ni6 2.658325 1_554
As11 Ni6 2.658325 1_555
As11 Ce5 2.986515 1_555
As11 Ce5 2.986515 1_554
As12 Ni1 2.265916 1_455
As12 Ni0 2.265927 1_445
As12 Ni2 2.265928 1_555
As12 Ni4 2.669901 1_444
As12 Ni4 2.669901 1_445
As12 Ni5 2.669902 1_554
As12 Ni5 2.669902 1_555
As12 Ni6 2.669909 1_545
As12 Ni6 2.669909 1_544
