# generated using pymatgen
data_Yb5(ReO6)2
_symmetry_space_group_name_H-M   'P 1'
_cell_length_a   6.83575446
_cell_length_b   6.83575446
_cell_length_c   7.69495621
_cell_angle_alpha   73.44084476
_cell_angle_beta   73.44084476
_cell_angle_gamma   49.01191615
_symmetry_Int_Tables_number   1
_chemical_formula_structural   Yb5(ReO6)2
_chemical_formula_sum   'Yb5 Re2 O12'
_cell_volume   257.75962641
_cell_formula_units_Z   1
loop_
 _symmetry_equiv_pos_site_id
 _symmetry_equiv_pos_as_xyz
  1  'x, y, z'
loop_
 _atom_site_type_symbol
 _atom_site_label
 _atom_site_symmetry_multiplicity
 _atom_site_fract_x
 _atom_site_fract_y
 _atom_site_fract_z
 _atom_site_occupancy
  Yb  Yb0  1  0.69501500  0.69501500  0.63515200  1
  Yb  Yb1  1  0.30498500  0.30498500  0.36484800  1
  Yb  Yb2  1  0.68550200  0.68550200  0.17876000  1
  Yb  Yb3  1  0.31449800  0.31449800  0.82124000  1
  Yb  Yb4  1  0.00000000  0.00000000  0.50000000  1
  Re  Re0  1  0.77340200  0.22659800  0.00000000  1
  Re  Re1  1  0.22659800  0.77340200  0.00000000  1
  O  O0  1  0.99989000  0.99989000  0.19513600  1
  O  O1  1  0.00011000  0.00011000  0.80486400  1
  O  O2  1  0.59226100  0.09771700  0.07693600  1
  O  O3  1  0.40773900  0.90228300  0.92306400  1
  O  O4  1  0.90228300  0.40773900  0.92306400  1
  O  O5  1  0.09771700  0.59226100  0.07693600  1
  O  O6  1  0.49917200  0.49917200  0.17129400  1
  O  O7  1  0.50082800  0.50082800  0.82870600  1
  O  O8  1  0.41083300  0.89508800  0.42470200  1
  O  O9  1  0.58916700  0.10491200  0.57529800  1
  O  O10  1  0.10491200  0.58916700  0.57529800  1
  O  O11  1  0.89508800  0.41083300  0.42470200  1
loop_
_geom_bond_atom_site_label_1
_geom_bond_atom_site_label_2
_geom_bond_distance
_geom_bond_site_symmetry_2
O0 Re0 1.976005 1_565
O0 Re1 1.976005 1_655
O0 Yb4 2.346344 1_665
O1 Re1 1.976005 1_546
O1 Re0 1.976005 1_456
O1 Yb4 2.346344 1_555
O2 Re0 1.837321 1_555
O2 Yb2 2.372837 1_545
O2 Yb1 2.536046 1_555
O2 Yb3 2.539480 1_554
O3 Re1 1.837321 1_556
O3 Yb3 2.372837 1_565
O3 Yb0 2.536046 1_555
O3 Yb2 2.539480 1_556
O4 Re0 1.837321 1_556
O4 Yb3 2.372837 1_655
O4 Yb0 2.536046 1_555
O4 Yb2 2.539480 1_556
O5 Re1 1.837321 1_555
O5 Yb2 2.372837 1_455
O5 Yb1 2.536046 1_555
O5 Yb3 2.539480 1_554
O6 Re0 2.032912 1_555
O6 Re1 2.032912 1_555
O6 Yb2 2.336568 1_555
O6 Yb1 2.408301 1_555
O7 Re0 2.032912 1_556
O7 Re1 2.032912 1_556
O7 Yb3 2.336568 1_555
O7 Yb0 2.408301 1_555
O8 Yb2 2.269542 1_555
O8 Yb0 2.304810 1_555
O8 Yb1 2.319798 1_565
O8 Yb4 2.324697 1_565
O9 Yb3 2.269542 1_555
O9 Yb1 2.304810 1_555
O9 Yb0 2.319798 1_545
O9 Yb4 2.324697 1_655
O10 Yb3 2.269542 1_555
O10 Yb1 2.304810 1_555
O10 Yb0 2.319798 1_455
O10 Yb4 2.324697 1_565
O11 Yb2 2.269542 1_555
O11 Yb0 2.304810 1_555
O11 Yb1 2.319798 1_655
O11 Yb4 2.324697 1_655
