# generated using pymatgen
data_CeThC2
_symmetry_space_group_name_H-M   'P 1'
_cell_length_a   6.46341051
_cell_length_b   6.46341051
_cell_length_c   6.46341020
_cell_angle_alpha   33.59060500
_cell_angle_beta   33.59060500
_cell_angle_gamma   33.59060776
_symmetry_Int_Tables_number   1
_chemical_formula_structural   CeThC2
_chemical_formula_sum   'Ce1 Th1 C2'
_cell_volume   73.62114744
_cell_formula_units_Z   1
loop_
 _symmetry_equiv_pos_site_id
 _symmetry_equiv_pos_as_xyz
  1  'x, y, z'
loop_
 _atom_site_type_symbol
 _atom_site_label
 _atom_site_symmetry_multiplicity
 _atom_site_fract_x
 _atom_site_fract_y
 _atom_site_fract_z
 _atom_site_occupancy
  Ce  Ce0  1  0.50000000  0.50000000  0.50000000  1
  Th  Th0  1  0.00000000  0.00000000  0.00000000  1
  C  C0  1  0.24897100  0.24897100  0.24897100  1
  C  C1  1  0.75102900  0.75102900  0.75102900  1
loop_
_geom_bond_atom_site_label_1
_geom_bond_atom_site_label_2
_geom_bond_distance
_geom_bond_site_symmetry_2
C0 Ce0 2.629459 1_554
C0 Ce0 2.629459 1_455
C0 Ce0 2.629459 1_545
C0 Th0 2.651162 1_556
C0 Th0 2.651162 1_565
C0 Th0 2.651162 1_655
C1 Ce0 2.629459 1_556
C1 Ce0 2.629459 1_655
C1 Ce0 2.629459 1_565
C1 Th0 2.651162 1_665
C1 Th0 2.651162 1_566
C1 Th0 2.651162 1_656
