# generated using pymatgen
data_Na2LiBe2F7
_symmetry_space_group_name_H-M   'P 1'
_cell_length_a   7.69856600
_cell_length_b   7.69856600
_cell_length_c   4.89643200
_cell_angle_alpha   90.00000000
_cell_angle_beta   90.00000000
_cell_angle_gamma   90.00000000
_symmetry_Int_Tables_number   1
_chemical_formula_structural   Na2LiBe2F7
_chemical_formula_sum   'Na4 Li2 Be4 F14'
_cell_volume   290.20133250
_cell_formula_units_Z   2
loop_
 _symmetry_equiv_pos_site_id
 _symmetry_equiv_pos_as_xyz
  1  'x, y, z'
loop_
 _atom_site_type_symbol
 _atom_site_label
 _atom_site_symmetry_multiplicity
 _atom_site_fract_x
 _atom_site_fract_y
 _atom_site_fract_z
 _atom_site_occupancy
  Na  Na0  1  0.83223700  0.66776300  0.49500000  1
  Na  Na1  1  0.33223700  0.83223700  0.50500000  1
  Na  Na2  1  0.66776300  0.16776300  0.50500000  1
  Na  Na3  1  0.16776300  0.33223700  0.49500000  1
  Li  Li0  1  0.50000000  0.50000000  0.00000000  1
  Li  Li1  1  0.00000000  0.00000000  0.00000000  1
  Be  Be0  1  0.85950200  0.35950200  0.92932900  1
  Be  Be1  1  0.35950200  0.14049800  0.07067100  1
  Be  Be2  1  0.14049800  0.64049800  0.92932900  1
  Be  Be3  1  0.64049800  0.85950200  0.07067100  1
  F  F0  1  0.58316100  0.68629100  0.20707300  1
  F  F1  1  0.41683900  0.31370900  0.20707300  1
  F  F2  1  0.31370900  0.58316100  0.79292700  1
  F  F3  1  0.68629100  0.41683900  0.79292700  1
  F  F4  1  0.00000000  0.50000000  0.81857600  1
  F  F5  1  0.50000000  0.00000000  0.18142400  1
  F  F6  1  0.35778000  0.14222000  0.75909500  1
  F  F7  1  0.85778000  0.35778000  0.24090500  1
  F  F8  1  0.14222000  0.64222000  0.24090500  1
  F  F9  1  0.64222000  0.85778000  0.75909500  1
  F  F10  1  0.08316100  0.81370900  0.79292700  1
  F  F11  1  0.18629100  0.08316100  0.20707300  1
  F  F12  1  0.81370900  0.91683900  0.20707300  1
  F  F13  1  0.91683900  0.18629100  0.79292700  1
loop_
_geom_bond_atom_site_label_1
_geom_bond_atom_site_label_2
_geom_bond_distance
_geom_bond_site_symmetry_2
Be0 F7 1.525726 1_556
Be0 F13 1.555337 1_555
Be0 F3 1.555337 1_555
Be0 F4 1.622943 1_655
Be1 F6 1.525726 1_554
Be1 F11 1.555337 1_555
Be1 F1 1.555337 1_555
Be1 F5 1.622943 1_555
Be2 F8 1.525726 1_556
Be2 F10 1.555337 1_555
Be2 F2 1.555337 1_555
Be2 F4 1.622943 1_555
Be3 F9 1.525726 1_554
Be3 F12 1.555337 1_555
Be3 F0 1.555337 1_555
Be3 F5 1.622943 1_565
F0 Li0 1.869430 1_555
F0 Na0 2.384290 1_555
F0 Na1 2.668733 1_555
F1 Li0 1.869430 1_555
F1 Na3 2.384290 1_555
F1 Na2 2.668733 1_555
F2 Li0 1.869430 1_556
F2 Na1 2.384290 1_555
F2 Na3 2.668733 1_555
F3 Li0 1.869430 1_556
F3 Na2 2.384290 1_555
F3 Na0 2.668733 1_555
F4 Na0 2.417922 1_455
F4 Na3 2.417922 1_555
F5 Na1 2.417922 1_545
F5 Na2 2.417922 1_555
F6 Na3 2.439688 1_555
F6 Na1 2.698448 1_545
F6 Na2 2.698448 1_555
F7 Na2 2.439688 1_555
F7 Na3 2.698448 1_655
F7 Na0 2.698448 1_555
F8 Na1 2.439688 1_555
F8 Na3 2.698448 1_555
F8 Na0 2.698448 1_455
F9 Na0 2.439688 1_555
F9 Na2 2.698448 1_565
F9 Na1 2.698448 1_555
F10 Li1 1.869430 1_566
F10 Na1 2.384290 1_555
F10 Na0 2.668733 1_455
F11 Li1 1.869430 1_555
F11 Na3 2.384290 1_555
F11 Na1 2.668733 1_545
F12 Li1 1.869430 1_665
F12 Na0 2.384290 1_555
F12 Na2 2.668733 1_565
F13 Li1 1.869430 1_656
F13 Na2 2.384290 1_555
F13 Na3 2.668733 1_655
