# generated using pymatgen
data_Cr8Co3NiS16
_symmetry_space_group_name_H-M   'P 1'
_cell_length_a   6.89893539
_cell_length_b   9.74433300
_cell_length_c   6.89893539
_cell_angle_alpha   90.00000000
_cell_angle_beta   90.00000000
_cell_angle_gamma   90.00000000
_symmetry_Int_Tables_number   1
_chemical_formula_structural   Cr8Co3NiS16
_chemical_formula_sum   'Cr8 Co3 Ni1 S16'
_cell_volume   463.78454568
_cell_formula_units_Z   1
loop_
 _symmetry_equiv_pos_site_id
 _symmetry_equiv_pos_as_xyz
  1  'x, y, z'
loop_
 _atom_site_type_symbol
 _atom_site_label
 _atom_site_symmetry_multiplicity
 _atom_site_fract_x
 _atom_site_fract_y
 _atom_site_fract_z
 _atom_site_occupancy
  Cr  Cr0  1  0.25000000  0.25044200  0.24890500  1
  Cr  Cr1  1  0.75000000  0.74955800  0.75130200  1
  Cr  Cr2  1  0.25000000  0.25044200  0.75109500  1
  Cr  Cr3  1  0.75000000  0.74955800  0.24869800  1
  Cr  Cr4  1  0.99890500  0.49955800  0.50000000  1
  Cr  Cr5  1  0.50130200  0.00044200  0.00000000  1
  Cr  Cr6  1  0.99869800  0.00044200  0.00000000  1
  Cr  Cr7  1  0.50109500  0.49955800  0.50000000  1
  Co  Co0  1  0.25000000  0.87500000  0.50000000  1
  Co  Co1  1  0.25000000  0.62534600  0.00000000  1
  Co  Co2  1  0.75000000  0.12465400  0.50000000  1
  Ni  Ni0  1  0.75000000  0.37500000  0.00000000  1
  S  S0  1  0.75000000  0.50552500  0.26098100  1
  S  S1  1  0.25000000  0.00502600  0.76039700  1
  S  S2  1  0.75000000  0.50552500  0.73901900  1
  S  S3  1  0.25000000  0.00502600  0.23960300  1
  S  S4  1  0.01098100  0.24447500  0.00000000  1
  S  S5  1  0.51039700  0.74497400  0.50000000  1
  S  S6  1  0.48901900  0.24447500  0.00000000  1
  S  S7  1  0.98960300  0.74497400  0.50000000  1
  S  S8  1  0.25000000  0.49553900  0.74164100  1
  S  S9  1  0.75000000  0.99616700  0.24096400  1
  S  S10  1  0.25000000  0.49553900  0.25835900  1
  S  S11  1  0.75000000  0.99616700  0.75903600  1
  S  S12  1  0.99096400  0.75383300  0.00000000  1
  S  S13  1  0.49164100  0.25446100  0.50000000  1
  S  S14  1  0.50903600  0.75383300  0.00000000  1
  S  S15  1  0.00835900  0.25446100  0.50000000  1
loop_
_geom_bond_atom_site_label_1
_geom_bond_atom_site_label_2
_geom_bond_distance
_geom_bond_site_symmetry_2
Cr0 S6 2.381430 1_555
Cr0 S4 2.381430 1_555
Cr0 S10 2.389197 1_555
Cr0 S3 2.392276 1_555
Cr0 S15 2.404467 1_555
Cr0 S13 2.404467 1_555
Cr1 S2 2.379448 1_555
Cr1 S14 2.389371 1_556
Cr1 S12 2.389371 1_556
Cr1 S7 2.395870 1_555
Cr1 S5 2.395870 1_555
Cr1 S11 2.403632 1_555
Cr2 S6 2.381430 1_556
Cr2 S4 2.381430 1_556
Cr2 S8 2.389197 1_555
Cr2 S1 2.392276 1_555
Cr2 S15 2.404467 1_555
Cr2 S13 2.404467 1_555
Cr3 S0 2.379448 1_555
Cr3 S12 2.389371 1_555
Cr3 S14 2.389371 1_555
Cr3 S7 2.395870 1_555
Cr3 S5 2.395870 1_555
Cr3 S9 2.403632 1_555
Cr4 S2 2.381430 1_555
Cr4 S0 2.381430 1_555
Cr4 S15 2.389197 1_655
Cr4 S7 2.392276 1_555
Cr4 S8 2.404467 1_655
Cr4 S10 2.404467 1_655
Cr5 S6 2.379448 1_555
Cr5 S11 2.389371 1_544
Cr5 S9 2.389371 1_545
Cr5 S3 2.395870 1_555
Cr5 S1 2.395870 1_554
Cr5 S14 2.403632 1_545
Cr6 S4 2.379448 1_655
Cr6 S11 2.389371 1_544
Cr6 S9 2.389371 1_545
Cr6 S1 2.395870 1_654
Cr6 S3 2.395870 1_655
Cr6 S12 2.403632 1_545
Cr7 S2 2.381430 1_555
Cr7 S0 2.381430 1_555
Cr7 S13 2.389197 1_555
Cr7 S5 2.392276 1_555
Cr7 S10 2.404467 1_555
Cr7 S8 2.404467 1_555
Co0 S3 2.198319 1_565
Co0 S7 2.198319 1_455
Co0 S5 2.198319 1_555
Co0 S1 2.198319 1_565
Co1 S14 2.182014 1_555
Co1 S12 2.182014 1_455
Co1 S10 2.185609 1_555
Co1 S8 2.185609 1_554
Co2 S9 2.182014 1_545
Co2 S11 2.182014 1_545
Co2 S15 2.185609 1_655
Co2 S13 2.185609 1_555
Ni0 S4 2.204415 1_655
Ni0 S0 2.204415 1_555
Ni0 S6 2.204415 1_555
Ni0 S2 2.204415 1_554
