# generated using pymatgen
data_RbMg14MnO16
_symmetry_space_group_name_H-M   'P 1'
_cell_length_a   4.40148000
_cell_length_b   8.65364400
_cell_length_c   8.78758000
_cell_angle_alpha   90.00000000
_cell_angle_beta   90.00000000
_cell_angle_gamma   90.00000000
_symmetry_Int_Tables_number   1
_chemical_formula_structural   RbMg14MnO16
_chemical_formula_sum   'Rb1 Mg14 Mn1 O16'
_cell_volume   334.70873733
_cell_formula_units_Z   1
loop_
 _symmetry_equiv_pos_site_id
 _symmetry_equiv_pos_as_xyz
  1  'x, y, z'
loop_
 _atom_site_type_symbol
 _atom_site_label
 _atom_site_symmetry_multiplicity
 _atom_site_fract_x
 _atom_site_fract_y
 _atom_site_fract_z
 _atom_site_occupancy
  Rb  Rb0  1  0.00000000  0.50000000  0.00000000  1
  Mg  Mg0  1  0.00000000  0.00000000  0.50000000  1
  Mg  Mg1  1  0.00000000  0.50000000  0.50000000  1
  Mg  Mg2  1  0.50000000  0.75344400  0.00000000  1
  Mg  Mg3  1  0.50000000  0.24655600  0.00000000  1
  Mg  Mg4  1  0.50000000  0.74974300  0.50000000  1
  Mg  Mg5  1  0.50000000  0.25025700  0.50000000  1
  Mg  Mg6  1  0.50000000  0.00000000  0.74598200  1
  Mg  Mg7  1  0.50000000  0.50000000  0.74120300  1
  Mg  Mg8  1  0.50000000  0.00000000  0.25401800  1
  Mg  Mg9  1  0.50000000  0.50000000  0.25879700  1
  Mg  Mg10  1  0.00000000  0.75032100  0.74242700  1
  Mg  Mg11  1  0.00000000  0.24967900  0.74242700  1
  Mg  Mg12  1  0.00000000  0.75032100  0.25757300  1
  Mg  Mg13  1  0.00000000  0.24967900  0.25757300  1
  Mn  Mn0  1  0.00000000  0.00000000  0.00000000  1
  O  O0  1  0.00000000  0.00000000  0.74311100  1
  O  O1  1  0.00000000  0.50000000  0.71983500  1
  O  O2  1  0.00000000  0.00000000  0.25688900  1
  O  O3  1  0.00000000  0.50000000  0.28016500  1
  O  O4  1  0.50000000  0.75041400  0.75179700  1
  O  O5  1  0.50000000  0.24958600  0.75179700  1
  O  O6  1  0.50000000  0.75041400  0.24820300  1
  O  O7  1  0.50000000  0.24958600  0.24820300  1
  O  O8  1  0.50000000  0.00000000  0.00000000  1
  O  O9  1  0.50000000  0.50000000  0.00000000  1
  O  O10  1  0.50000000  0.00000000  0.50000000  1
  O  O11  1  0.50000000  0.50000000  0.50000000  1
  O  O12  1  0.00000000  0.78163300  0.00000000  1
  O  O13  1  0.00000000  0.21836700  0.00000000  1
  O  O14  1  0.00000000  0.75662900  0.50000000  1
  O  O15  1  0.00000000  0.24337100  0.50000000  1
loop_
_geom_bond_atom_site_label_1
_geom_bond_atom_site_label_2
_geom_bond_distance
_geom_bond_site_symmetry_2
Mg0 O15 2.106046 1_555
Mg0 O14 2.106046 1_545
Mg0 O0 2.136357 1_555
Mg0 O2 2.136357 1_555
Mg0 O10 2.200740 1_455
Mg0 O10 2.200740 1_555
Mg1 O1 1.931818 1_555
Mg1 O3 1.931818 1_555
Mg1 O11 2.200740 1_555
Mg1 O11 2.200740 1_455
Mg1 O14 2.220776 1_555
Mg1 O15 2.220776 1_555
Mg2 O8 2.133608 1_565
Mg2 O6 2.181261 1_555
Mg2 O4 2.181261 1_554
Mg2 O9 2.193214 1_555
Mg2 O12 2.214218 1_655
Mg2 O12 2.214218 1_555
Mg3 O8 2.133608 1_555
Mg3 O7 2.181261 1_555
Mg3 O5 2.181261 1_554
Mg3 O9 2.193214 1_555
Mg3 O13 2.214218 1_655
Mg3 O13 2.214218 1_555
Mg4 O11 2.161187 1_555
Mg4 O10 2.165635 1_565
Mg4 O14 2.201547 1_655
Mg4 O14 2.201547 1_555
Mg4 O4 2.212694 1_555
Mg4 O6 2.212694 1_555
Mg5 O11 2.161187 1_555
Mg5 O10 2.165635 1_555
Mg5 O15 2.201547 1_555
Mg5 O15 2.201547 1_655
Mg5 O5 2.212694 1_555
Mg5 O7 2.212694 1_555
Mg6 O5 2.160433 1_555
Mg6 O4 2.160433 1_545
Mg6 O10 2.161587 1_555
Mg6 O0 2.200885 1_655
Mg6 O0 2.200885 1_555
Mg6 O8 2.232203 1_556
Mg7 O11 2.119591 1_555
Mg7 O4 2.168992 1_555
Mg7 O5 2.168992 1_555
Mg7 O1 2.208736 1_655
Mg7 O1 2.208736 1_555
Mg7 O9 2.274199 1_556
Mg8 O7 2.160433 1_555
Mg8 O6 2.160433 1_545
Mg8 O10 2.161587 1_555
Mg8 O2 2.200885 1_655
Mg8 O2 2.200885 1_555
Mg8 O8 2.232203 1_555
Mg9 O11 2.119591 1_555
Mg9 O6 2.168992 1_555
Mg9 O7 2.168992 1_555
Mg9 O3 2.208736 1_555
Mg9 O3 2.208736 1_655
Mg9 O9 2.274199 1_555
Mg10 O14 2.131046 1_555
Mg10 O0 2.160642 1_565
Mg10 O1 2.175267 1_555
Mg10 O4 2.202280 1_455
Mg10 O4 2.202280 1_555
Mg10 O12 2.279604 1_556
Mg11 O15 2.131046 1_555
Mg11 O0 2.160642 1_555
Mg11 O1 2.175267 1_555
Mg11 O5 2.202280 1_555
Mg11 O5 2.202280 1_455
Mg11 O13 2.279604 1_556
Mg12 O14 2.131046 1_555
Mg12 O2 2.160642 1_565
Mg12 O3 2.175267 1_555
Mg12 O6 2.202280 1_455
Mg12 O6 2.202280 1_555
Mg12 O12 2.279604 1_555
Mg13 O15 2.131046 1_555
Mg13 O2 2.160642 1_555
Mg13 O3 2.175267 1_555
Mg13 O7 2.202280 1_555
Mg13 O7 2.202280 1_455
Mg13 O13 2.279604 1_555
Mn0 O13 1.889670 1_555
Mn0 O12 1.889670 1_545
Mn0 O8 2.200740 1_555
Mn0 O8 2.200740 1_455
Mn0 O2 2.257433 1_555
Mn0 O0 2.257433 1_554
O1 Rb0 2.461972 1_556
O3 Rb0 2.461972 1_555
O9 Rb0 2.200740 1_555
O9 Rb0 2.200740 1_655
O12 Rb0 2.437152 1_555
O13 Rb0 2.437152 1_555
