# generated using pymatgen
data_Bi4Te2Br2O9
_symmetry_space_group_name_H-M   'P 1'
_cell_length_a   5.57048800
_cell_length_b   5.57048800
_cell_length_c   9.81697700
_cell_angle_alpha   90.00000000
_cell_angle_beta   90.00000000
_cell_angle_gamma   90.00000000
_symmetry_Int_Tables_number   1
_chemical_formula_structural   Bi4Te2Br2O9
_chemical_formula_sum   'Bi4 Te2 Br2 O9'
_cell_volume   304.62410029
_cell_formula_units_Z   1
loop_
 _symmetry_equiv_pos_site_id
 _symmetry_equiv_pos_as_xyz
  1  'x, y, z'
loop_
 _atom_site_type_symbol
 _atom_site_label
 _atom_site_symmetry_multiplicity
 _atom_site_fract_x
 _atom_site_fract_y
 _atom_site_fract_z
 _atom_site_occupancy
  Bi  Bi0  1  0.00000000  0.50000000  0.54661100  1
  Bi  Bi1  1  0.50000000  0.00000000  0.54661100  1
  Bi  Bi2  1  0.00000000  0.00000000  0.79778800  1
  Bi  Bi3  1  0.50000000  0.50000000  0.80978500  1
  Te  Te0  1  0.50000000  0.50000000  0.25211100  1
  Te  Te1  1  0.00000000  0.00000000  0.30078700  1
  Br  Br0  1  0.50000000  0.00000000  0.98435800  1
  Br  Br1  1  0.00000000  0.50000000  0.98435800  1
  O  O0  1  0.74383700  0.74383700  0.68222800  1
  O  O1  1  0.25616300  0.25616300  0.68222800  1
  O  O2  1  0.74383700  0.25616300  0.68222800  1
  O  O3  1  0.25616300  0.74383700  0.68222800  1
  O  O4  1  0.73062200  0.73062200  0.34253800  1
  O  O5  1  0.26937800  0.26937800  0.34253800  1
  O  O6  1  0.73062200  0.26937800  0.34253800  1
  O  O7  1  0.26937800  0.73062200  0.34253800  1
  O  O8  1  0.00000000  0.00000000  0.49181600  1
loop_
_geom_bond_atom_site_label_1
_geom_bond_atom_site_label_2
_geom_bond_distance
_geom_bond_site_symmetry_2
Bi0 O0 2.377738 1_455
Bi0 O3 2.377738 1_555
Bi0 O2 2.377738 1_455
Bi0 O1 2.377738 1_555
Bi1 O2 2.377738 1_555
Bi1 O1 2.377738 1_555
Bi1 O0 2.377738 1_545
Bi1 O3 2.377738 1_545
Bi2 O0 2.315030 1_445
Bi2 O1 2.315030 1_555
Bi2 O3 2.315030 1_545
Bi2 O2 2.315030 1_455
Bi2 Br1 3.333492 1_555
Bi2 Br0 3.333492 1_555
Bi2 Br1 3.333492 1_545
Bi2 Br0 3.333492 1_455
Bi3 O0 2.293027 1_555
Bi3 O2 2.293027 1_555
Bi3 O3 2.293027 1_555
Bi3 O1 2.293027 1_555
Bi3 Br0 3.270263 1_555
Bi3 Br0 3.270263 1_565
Bi3 Br1 3.270263 1_555
Bi3 Br1 3.270263 1_655
O4 Te0 2.022087 1_555
O4 Te1 2.161341 1_665
O5 Te0 2.022087 1_555
O5 Te1 2.161341 1_555
O6 Te0 2.022087 1_555
O6 Te1 2.161341 1_655
O7 Te0 2.022087 1_555
O7 Te1 2.161341 1_565
O8 Te1 1.875327 1_555
