# generated using pymatgen
data_Sn(CN)2
_symmetry_space_group_name_H-M   'P 1'
_cell_length_a   8.17675400
_cell_length_b   7.83780100
_cell_length_c   14.40950500
_cell_angle_alpha   90.00000000
_cell_angle_beta   90.00000000
_cell_angle_gamma   90.00000000
_symmetry_Int_Tables_number   1
_chemical_formula_structural   Sn(CN)2
_chemical_formula_sum   'Sn8 C16 N16'
_cell_volume   923.47305202
_cell_formula_units_Z   8
loop_
 _symmetry_equiv_pos_site_id
 _symmetry_equiv_pos_as_xyz
  1  'x, y, z'
loop_
 _atom_site_type_symbol
 _atom_site_label
 _atom_site_symmetry_multiplicity
 _atom_site_fract_x
 _atom_site_fract_y
 _atom_site_fract_z
 _atom_site_occupancy
  Sn  Sn0  1  0.47315900  0.27001800  0.38051400  1
  Sn  Sn1  1  0.97315900  0.22998200  0.61948600  1
  Sn  Sn2  1  0.52684100  0.77001800  0.11948600  1
  Sn  Sn3  1  0.02684100  0.72998200  0.88051400  1
  Sn  Sn4  1  0.52684100  0.72998200  0.61948600  1
  Sn  Sn5  1  0.02684100  0.77001800  0.38051400  1
  Sn  Sn6  1  0.47315900  0.22998200  0.88051400  1
  Sn  Sn7  1  0.97315900  0.27001800  0.11948600  1
  C  C0  1  0.70648700  0.35697800  0.29803700  1
  C  C1  1  0.20648700  0.14302200  0.70196300  1
  C  C2  1  0.29351300  0.85697800  0.20196300  1
  C  C3  1  0.79351300  0.64302200  0.79803700  1
  C  C4  1  0.29351300  0.64302200  0.70196300  1
  C  C5  1  0.79351300  0.85697800  0.29803700  1
  C  C6  1  0.70648700  0.14302200  0.79803700  1
  C  C7  1  0.20648700  0.35697800  0.20196300  1
  C  C8  1  0.41260400  0.54644300  0.41645300  1
  C  C9  1  0.91260400  0.95355700  0.58354700  1
  C  C10  1  0.58739600  0.04644300  0.08354700  1
  C  C11  1  0.08739600  0.45355700  0.91645300  1
  C  C12  1  0.58739600  0.45355700  0.58354700  1
  C  C13  1  0.08739600  0.04644300  0.41645300  1
  C  C14  1  0.41260400  0.95355700  0.91645300  1
  C  C15  1  0.91260400  0.54644300  0.08354700  1
  N  N0  1  0.82452100  0.34740100  0.25215700  1
  N  N1  1  0.32452100  0.15259900  0.74784300  1
  N  N2  1  0.17547900  0.84740100  0.24784300  1
  N  N3  1  0.67547900  0.65259900  0.75215700  1
  N  N4  1  0.17547900  0.65259900  0.74784300  1
  N  N5  1  0.67547900  0.84740100  0.25215700  1
  N  N6  1  0.82452100  0.15259900  0.75215700  1
  N  N7  1  0.32452100  0.34740100  0.24784300  1
  N  N8  1  0.36516100  0.67563700  0.44792800  1
  N  N9  1  0.86516100  0.82436300  0.55207200  1
  N  N10  1  0.63483900  0.17563700  0.05207200  1
  N  N11  1  0.13483900  0.32436300  0.94792800  1
  N  N12  1  0.63483900  0.32436300  0.55207200  1
  N  N13  1  0.13483900  0.17563700  0.44792800  1
  N  N14  1  0.36516100  0.82436300  0.94792800  1
  N  N15  1  0.86516100  0.67563700  0.05207200  1
loop_
_geom_bond_atom_site_label_1
_geom_bond_atom_site_label_2
_geom_bond_distance
_geom_bond_site_symmetry_2
C0 N0 1.172256 1_555
C0 Sn0 2.348812 1_555
C1 N1 1.172256 1_555
C1 Sn1 2.348812 1_455
C2 N2 1.172256 1_555
C2 Sn2 2.348812 1_555
C3 N3 1.172256 1_555
C3 Sn3 2.348812 1_655
C4 N4 1.172256 1_555
C4 Sn4 2.348812 1_555
C5 N5 1.172256 1_555
C5 Sn5 2.348812 1_655
C6 N6 1.172256 1_555
C6 Sn6 2.348812 1_555
C7 N7 1.172256 1_555
C7 Sn7 2.348812 1_455
C8 N8 1.175389 1_555
C8 Sn0 2.281962 1_555
C9 N9 1.175389 1_555
C9 Sn1 2.281962 1_565
C10 N10 1.175389 1_555
C10 Sn2 2.281962 1_545
C11 N11 1.175389 1_555
C11 Sn3 2.281962 1_555
C12 N12 1.175389 1_555
C12 Sn4 2.281962 1_555
C13 N13 1.175389 1_555
C13 Sn5 2.281962 1_545
C14 N14 1.175389 1_555
C14 Sn6 2.281962 1_565
C15 N15 1.175389 1_555
C15 Sn7 2.281962 1_555
N0 Sn7 2.345140 1_555
N1 Sn6 2.345140 1_555
N2 Sn5 2.345140 1_555
N3 Sn4 2.345140 1_555
N4 Sn3 2.345140 1_555
N5 Sn2 2.345140 1_555
N6 Sn1 2.345140 1_555
N7 Sn0 2.345140 1_555
