# generated using pymatgen
data_Li7Mn2(CoO4)3
_symmetry_space_group_name_H-M   'P 1'
_cell_length_a   2.98327100
_cell_length_b   7.64921936
_cell_length_c   10.14436009
_cell_angle_alpha   107.12123538
_cell_angle_beta   88.90933661
_cell_angle_gamma   99.85967735
_symmetry_Int_Tables_number   1
_chemical_formula_structural   Li7Mn2(CoO4)3
_chemical_formula_sum   'Li7 Mn2 Co3 O12'
_cell_volume   217.84378608
_cell_formula_units_Z   1
loop_
 _symmetry_equiv_pos_site_id
 _symmetry_equiv_pos_as_xyz
  1  'x, y, z'
loop_
 _atom_site_type_symbol
 _atom_site_label
 _atom_site_symmetry_multiplicity
 _atom_site_fract_x
 _atom_site_fract_y
 _atom_site_fract_z
 _atom_site_occupancy
  Li  Li0  1  0.81899800  0.66317900  0.75063600  1
  Li  Li1  1  0.15728400  0.33014900  0.24723200  1
  Li  Li2  1  0.51644000  0.00630500  0.74443900  1
  Li  Li3  1  0.16569100  0.33448400  0.74725700  1
  Li  Li4  1  0.50429000  0.99740900  0.26229700  1
  Li  Li5  1  0.85447700  0.68065300  0.25665300  1
  Li  Li6  1  0.98362000  0.99144200  0.48981100  1
  Mn  Mn0  1  0.00120400  0.00006600  0.99934100  1
  Mn  Mn1  1  0.34003000  0.67275300  0.49997900  1
  Co  Co0  1  0.66919600  0.33404900  0.99738400  1
  Co  Co1  1  0.32425600  0.66543100  0.00264000  1
  Co  Co2  1  0.66404900  0.32123200  0.50448000  1
  O  O0  1  0.37189900  0.82739300  0.88283000  1
  O  O1  1  0.76954300  0.51046700  0.39867700  1
  O  O2  1  0.09466200  0.16466900  0.88112500  1
  O  O3  1  0.75089900  0.49805800  0.88435200  1
  O  O4  1  0.06498600  0.18882200  0.38704200  1
  O  O5  1  0.40736300  0.81635800  0.38184100  1
  O  O6  1  0.28046000  0.49425600  0.61088100  1
  O  O7  1  0.62465000  0.17280400  0.11553700  1
  O  O8  1  0.89472600  0.81015000  0.60930700  1
  O  O9  1  0.59803500  0.18549600  0.61608900  1
  O  O10  1  0.90056000  0.83529900  0.11603900  1
  O  O11  1  0.24268200  0.49907600  0.11413100  1
loop_
_geom_bond_atom_site_label_1
_geom_bond_atom_site_label_2
_geom_bond_distance
_geom_bond_site_symmetry_2
Li0 O8 2.054277 1_555
Li0 O3 2.094503 1_555
Li0 O0 2.116529 1_655
Li0 O6 2.134921 1_555
Li0 O0 2.160813 1_555
Li0 O6 2.243002 1_655
Li1 O4 2.010455 1_555
Li1 O7 2.058491 1_455
Li1 O11 2.111662 1_555
Li1 O7 2.175879 1_555
Li1 O1 2.198144 1_455
Li1 O1 2.365439 1_555
Li2 O2 2.107110 1_555
Li2 O9 2.134883 1_555
Li2 O8 2.171177 1_545
Li2 O2 2.179930 1_655
Li2 O0 2.221669 1_545
Li2 O8 2.345893 1_445
Li3 O9 2.068361 1_555
Li3 O6 2.087803 1_555
Li3 O9 2.114035 1_455
Li3 O3 2.114502 1_455
Li3 O2 2.123618 1_555
Li3 O3 2.206220 1_555
Li4 O5 2.076186 1_555
Li4 O10 2.118618 1_555
Li4 O4 2.166565 1_665
Li4 O4 2.228412 1_565
Li4 O7 2.266300 1_565
Li4 O10 2.288344 1_455
Li5 O5 2.025589 1_555
Li5 O5 2.031761 1_655
Li5 O10 2.093627 1_555
Li5 O11 2.159968 1_655
Li5 O1 2.193636 1_555
Li5 O11 2.323908 1_555
Li6 O4 2.053509 1_665
Li6 O5 2.062700 1_655
Li6 O8 2.077118 1_555
Li6 O5 2.090020 1_555
Li6 O9 2.139300 1_565
Li6 O9 2.289565 1_665
Mn0 O10 1.953307 1_446
Mn0 O2 1.963988 1_555
Mn0 O0 1.973778 1_545
Mn0 O7 1.984470 1_456
Mn0 O7 2.217959 1_556
Mn0 O0 2.232080 1_445
Mn1 O5 1.836735 1_555
Mn1 O8 1.958357 1_455
Mn1 O8 1.964924 1_555
Mn1 O6 1.993791 1_555
Mn1 O1 1.995597 1_555
Mn1 O1 2.021260 1_455
Co0 O3 1.918247 1_555
Co0 O7 1.945192 1_556
Co0 O11 2.056108 1_556
Co0 O2 2.070547 1_655
Co0 O11 2.092945 1_656
Co0 O2 2.103349 1_555
Co1 O11 1.920537 1_555
Co1 O0 1.962625 1_554
Co1 O10 2.058250 1_455
Co1 O3 2.072287 1_554
Co1 O10 2.097069 1_555
Co1 O3 2.104366 1_454
Co2 O9 1.735600 1_555
Co2 O4 1.877756 1_655
Co2 O6 1.963869 1_555
Co2 O1 2.022908 1_555
Co2 O4 2.095178 1_555
Co2 O6 2.167777 1_655
