# generated using pymatgen
data_Cd3Ni
_symmetry_space_group_name_H-M   'P 1'
_cell_length_a   4.18010700
_cell_length_b   4.18010700
_cell_length_c   4.18010700
_cell_angle_alpha   90.00000000
_cell_angle_beta   90.00000000
_cell_angle_gamma   90.00000000
_symmetry_Int_Tables_number   1
_chemical_formula_structural   Cd3Ni
_chemical_formula_sum   'Cd3 Ni1'
_cell_volume   73.04024078
_cell_formula_units_Z   1
loop_
 _symmetry_equiv_pos_site_id
 _symmetry_equiv_pos_as_xyz
  1  'x, y, z'
loop_
 _atom_site_type_symbol
 _atom_site_label
 _atom_site_symmetry_multiplicity
 _atom_site_fract_x
 _atom_site_fract_y
 _atom_site_fract_z
 _atom_site_occupancy
  Cd  Cd0  1  0.00000000  0.50000000  0.50000000  1
  Cd  Cd1  1  0.50000000  0.00000000  0.50000000  1
  Cd  Cd2  1  0.50000000  0.50000000  0.00000000  1
  Ni  Ni0  1  0.00000000  0.00000000  0.00000000  1
loop_
_geom_bond_atom_site_label_1
_geom_bond_atom_site_label_2
_geom_bond_distance
_geom_bond_site_symmetry_2
Cd0 Cd2 2.955782 1_455
Cd0 Cd1 2.955782 1_555
Cd0 Ni0 2.955782 1_566
Cd0 Cd2 2.955782 1_456
Cd0 Cd2 2.955782 1_555
Cd0 Cd2 2.955782 1_556
Cd0 Cd1 2.955782 1_455
Cd0 Cd1 2.955782 1_565
Cd0 Cd1 2.955782 1_465
Cd0 Ni0 2.955782 1_556
Cd0 Ni0 2.955782 1_555
Cd0 Ni0 2.955782 1_565
Cd1 Ni0 2.955782 1_656
Cd1 Cd2 2.955782 1_555
Cd1 Cd2 2.955782 1_556
Cd1 Ni0 2.955782 1_655
Cd1 Ni0 2.955782 1_556
Cd1 Ni0 2.955782 1_555
Cd1 Cd2 2.955782 1_545
Cd1 Cd2 2.955782 1_546
Cd2 Ni0 2.955782 1_655
Cd2 Ni0 2.955782 1_665
Cd2 Ni0 2.955782 1_555
Cd2 Ni0 2.955782 1_565
