# generated using pymatgen
data_CsYb2Cl7
_symmetry_space_group_name_H-M   'P 1'
_cell_length_a   5.75092200
_cell_length_b   16.02326500
_cell_length_c   14.17324100
_cell_angle_alpha   90.00000000
_cell_angle_beta   90.00000000
_cell_angle_gamma   90.00000000
_symmetry_Int_Tables_number   1
_chemical_formula_structural   CsYb2Cl7
_chemical_formula_sum   'Cs4 Yb8 Cl28'
_cell_volume   1306.04356727
_cell_formula_units_Z   4
loop_
 _symmetry_equiv_pos_site_id
 _symmetry_equiv_pos_as_xyz
  1  'x, y, z'
loop_
 _atom_site_type_symbol
 _atom_site_label
 _atom_site_symmetry_multiplicity
 _atom_site_fract_x
 _atom_site_fract_y
 _atom_site_fract_z
 _atom_site_occupancy
  Cs  Cs0  1  0.75000000  0.97807900  0.19967200  1
  Cs  Cs1  1  0.25000000  0.02192100  0.80032800  1
  Cs  Cs2  1  0.25000000  0.52192100  0.69967200  1
  Cs  Cs3  1  0.75000000  0.47807900  0.30032800  1
  Yb  Yb0  1  0.75000000  0.76419100  0.55308200  1
  Yb  Yb1  1  0.25000000  0.23580900  0.44691800  1
  Yb  Yb2  1  0.25000000  0.73580900  0.05308200  1
  Yb  Yb3  1  0.75000000  0.26419100  0.94691800  1
  Yb  Yb4  1  0.75000000  0.75109400  0.83186200  1
  Yb  Yb5  1  0.25000000  0.24890600  0.16813800  1
  Yb  Yb6  1  0.25000000  0.74890600  0.33186200  1
  Yb  Yb7  1  0.75000000  0.25109400  0.66813800  1
  Cl  Cl0  1  0.00245300  0.83924100  0.69643200  1
  Cl  Cl1  1  0.99754700  0.16075900  0.30356800  1
  Cl  Cl2  1  0.99754700  0.66075900  0.19643200  1
  Cl  Cl3  1  0.50245300  0.16075900  0.30356800  1
  Cl  Cl4  1  0.00245300  0.33924100  0.80356800  1
  Cl  Cl5  1  0.49754700  0.83924100  0.69643200  1
  Cl  Cl6  1  0.49754700  0.33924100  0.80356800  1
  Cl  Cl7  1  0.50245300  0.66075900  0.19643200  1
  Cl  Cl8  1  0.99929400  0.86530000  0.43197800  1
  Cl  Cl9  1  0.00070600  0.13470000  0.56802200  1
  Cl  Cl10  1  0.00070600  0.63470000  0.93197800  1
  Cl  Cl11  1  0.49929400  0.13470000  0.56802200  1
  Cl  Cl12  1  0.99929400  0.36530000  0.06802200  1
  Cl  Cl13  1  0.50070600  0.86530000  0.43197800  1
  Cl  Cl14  1  0.50070600  0.36530000  0.06802200  1
  Cl  Cl15  1  0.49929400  0.63470000  0.93197800  1
  Cl  Cl16  1  0.99840800  0.85506800  0.95285300  1
  Cl  Cl17  1  0.00159200  0.14493200  0.04714700  1
  Cl  Cl18  1  0.00159200  0.64493200  0.45285300  1
  Cl  Cl19  1  0.49840800  0.14493200  0.04714700  1
  Cl  Cl20  1  0.99840800  0.35506800  0.54714700  1
  Cl  Cl21  1  0.50159200  0.85506800  0.95285300  1
  Cl  Cl22  1  0.50159200  0.35506800  0.54714700  1
  Cl  Cl23  1  0.49840800  0.64493200  0.45285300  1
  Cl  Cl24  1  0.75000000  0.64001300  0.68772300  1
  Cl  Cl25  1  0.25000000  0.35998700  0.31227700  1
  Cl  Cl26  1  0.25000000  0.85998700  0.18772300  1
  Cl  Cl27  1  0.75000000  0.14001300  0.81227700  1
loop_
_geom_bond_atom_site_label_1
_geom_bond_atom_site_label_2
_geom_bond_distance
_geom_bond_site_symmetry_2
Cl0 Yb0 2.771623 1_455
Cl0 Yb4 2.790542 1_455
Cl0 Cs1 3.572559 1_565
Cl1 Yb1 2.771623 1_655
Cl1 Yb5 2.790542 1_655
Cl1 Cs0 3.572559 1_545
Cl2 Yb2 2.771623 1_655
Cl2 Yb6 2.790542 1_655
Cl2 Cs3 3.572559 1_555
Cl3 Yb1 2.771623 1_555
Cl3 Yb5 2.790542 1_555
Cl3 Cs0 3.572559 1_545
Cl4 Yb3 2.771623 1_455
Cl4 Yb7 2.790542 1_455
Cl4 Cs2 3.572559 1_555
Cl5 Yb0 2.771623 1_555
Cl5 Yb4 2.790542 1_555
Cl5 Cs1 3.572559 1_565
Cl6 Yb3 2.771623 1_555
Cl6 Yb7 2.790542 1_555
Cl6 Cs2 3.572559 1_555
Cl7 Yb2 2.771623 1_555
Cl7 Yb6 2.790542 1_555
Cl7 Cs3 3.572559 1_555
Cl8 Yb6 2.751454 1_655
Cl8 Yb0 2.761571 1_555
Cl8 Cs0 4.020165 1_555
Cl9 Yb7 2.751454 1_455
Cl9 Yb1 2.761571 1_555
Cl9 Cs1 4.020165 1_555
Cl10 Yb4 2.751454 1_455
Cl10 Yb2 2.761571 1_556
Cl10 Cs2 4.020165 1_555
Cl11 Yb7 2.751454 1_555
Cl11 Yb1 2.761571 1_555
Cl11 Cs1 4.020165 1_555
Cl12 Yb5 2.751454 1_655
Cl12 Yb3 2.761571 1_554
Cl12 Cs3 4.020165 1_555
Cl13 Yb6 2.751454 1_555
Cl13 Yb0 2.761571 1_555
Cl13 Cs0 4.020165 1_555
Cl14 Yb5 2.751454 1_555
Cl14 Yb3 2.761571 1_554
Cl14 Cs3 4.020165 1_555
Cl15 Yb4 2.751454 1_555
Cl15 Yb2 2.761571 1_556
Cl15 Cs2 4.020165 1_555
Cl16 Yb4 2.785148 1_555
Cl16 Yb2 2.786235 1_656
Cl16 Cs1 3.730215 1_665
Cl17 Yb5 2.785148 1_555
Cl17 Yb3 2.786235 1_454
Cl17 Cs0 3.730215 1_445
Cl18 Yb6 2.785148 1_555
Cl18 Yb0 2.786235 1_455
Cl18 Cs3 3.730215 1_455
Cl19 Yb5 2.785148 1_555
Cl19 Yb3 2.786235 1_554
Cl19 Cs0 3.730215 1_545
Cl20 Yb7 2.785148 1_555
Cl20 Yb1 2.786235 1_655
Cl20 Cs2 3.730215 1_655
Cl21 Yb4 2.785148 1_555
Cl21 Yb2 2.786235 1_556
Cl21 Cs1 3.730215 1_565
Cl22 Yb7 2.785148 1_555
Cl22 Yb1 2.786235 1_555
Cl22 Cs2 3.730215 1_555
Cl23 Yb6 2.785148 1_555
Cl23 Yb0 2.786235 1_555
Cl23 Cs3 3.730215 1_555
Cl24 Yb4 2.709517 1_555
Cl24 Yb0 2.756929 1_555
Cl24 Cs2 3.446368 1_555
Cl24 Cs2 3.446368 1_655
Cl25 Yb5 2.709517 1_555
Cl25 Yb1 2.756929 1_555
Cl25 Cs3 3.446368 1_455
Cl25 Cs3 3.446368 1_555
Cl26 Yb6 2.709517 1_555
Cl26 Yb2 2.756929 1_555
Cl26 Cs0 3.446368 1_555
Cl26 Cs0 3.446368 1_455
Cl27 Yb7 2.709517 1_555
Cl27 Yb3 2.756929 1_555
Cl27 Cs1 3.446368 1_555
Cl27 Cs1 3.446368 1_655
