# generated using pymatgen
data_Y2Ni7
_symmetry_space_group_name_H-M   'P 1'
_cell_length_a   4.92529201
_cell_length_b   4.92529201
_cell_length_c   24.10924900
_cell_angle_alpha   90.00000000
_cell_angle_beta   90.00000000
_cell_angle_gamma   120.00000008
_symmetry_Int_Tables_number   1
_chemical_formula_structural   Y2Ni7
_chemical_formula_sum   'Y8 Ni28'
_cell_volume   506.49863698
_cell_formula_units_Z   4
loop_
 _symmetry_equiv_pos_site_id
 _symmetry_equiv_pos_as_xyz
  1  'x, y, z'
loop_
 _atom_site_type_symbol
 _atom_site_label
 _atom_site_symmetry_multiplicity
 _atom_site_fract_x
 _atom_site_fract_y
 _atom_site_fract_z
 _atom_site_occupancy
  Y  Y0  1  0.33333300  0.66666700  0.47001100  1
  Y  Y1  1  0.66666700  0.33333300  0.52998900  1
  Y  Y2  1  0.66666700  0.33333300  0.97001100  1
  Y  Y3  1  0.33333300  0.66666700  0.02998900  1
  Y  Y4  1  0.33333300  0.66666700  0.32569500  1
  Y  Y5  1  0.66666700  0.33333300  0.67430500  1
  Y  Y6  1  0.66666700  0.33333300  0.82569500  1
  Y  Y7  1  0.33333300  0.66666700  0.17430500  1
  Ni  Ni0  1  0.00000000  0.00000000  0.50000000  1
  Ni  Ni1  1  0.00000000  0.00000000  0.00000000  1
  Ni  Ni2  1  0.83246300  0.16753700  0.25000000  1
  Ni  Ni3  1  0.83246300  0.66492700  0.25000000  1
  Ni  Ni4  1  0.33507300  0.16753700  0.25000000  1
  Ni  Ni5  1  0.16753700  0.83246300  0.75000000  1
  Ni  Ni6  1  0.16753700  0.33507300  0.75000000  1
  Ni  Ni7  1  0.66492700  0.83246300  0.75000000  1
  Ni  Ni8  1  0.83359400  0.16640600  0.41347100  1
  Ni  Ni9  1  0.83359400  0.66718800  0.41347100  1
  Ni  Ni10  1  0.33281200  0.16640600  0.41347100  1
  Ni  Ni11  1  0.16640600  0.83359400  0.58652900  1
  Ni  Ni12  1  0.16640600  0.33281200  0.58652900  1
  Ni  Ni13  1  0.66718800  0.83359400  0.58652900  1
  Ni  Ni14  1  0.16640600  0.83359400  0.91347100  1
  Ni  Ni15  1  0.16640600  0.33281200  0.91347100  1
  Ni  Ni16  1  0.66718800  0.83359400  0.91347100  1
  Ni  Ni17  1  0.83359400  0.16640600  0.08652900  1
  Ni  Ni18  1  0.83359400  0.66718800  0.08652900  1
  Ni  Ni19  1  0.33281200  0.16640600  0.08652900  1
  Ni  Ni20  1  0.00000000  0.00000000  0.33140600  1
  Ni  Ni21  1  0.00000000  0.00000000  0.66859400  1
  Ni  Ni22  1  0.00000000  0.00000000  0.83140600  1
  Ni  Ni23  1  0.00000000  0.00000000  0.16859400  1
  Ni  Ni24  1  0.33333300  0.66666700  0.66733900  1
  Ni  Ni25  1  0.66666700  0.33333300  0.33266100  1
  Ni  Ni26  1  0.66666700  0.33333300  0.16733900  1
  Ni  Ni27  1  0.33333300  0.66666700  0.83266100  1
loop_
_geom_bond_atom_site_label_1
_geom_bond_atom_site_label_2
_geom_bond_distance
_geom_bond_site_symmetry_2
Ni0 Ni13 2.523339 1_445
Ni0 Ni12 2.523339 1_555
Ni0 Ni9 2.523339 1_445
Ni0 Ni10 2.523339 1_555
Ni0 Ni11 2.523339 1_545
Ni0 Ni8 2.523339 1_455
Ni0 Y1 2.934092 1_455
Ni0 Y0 2.934092 1_545
Ni0 Y1 2.934096 1_445
Ni0 Y1 2.934096 1_555
Ni0 Y0 2.934096 1_555
Ni0 Y0 2.934096 1_445
Ni1 Ni18 2.523339 1_445
Ni1 Ni19 2.523339 1_555
Ni1 Ni16 2.523339 1_444
Ni1 Ni15 2.523339 1_554
Ni1 Ni17 2.523339 1_455
Ni1 Ni14 2.523339 1_544
Ni1 Y3 2.934092 1_545
Ni1 Y2 2.934092 1_454
Ni1 Y2 2.934096 1_444
Ni1 Y3 2.934096 1_555
Ni1 Y2 2.934096 1_554
Ni1 Y3 2.934096 1_445
Ni2 Ni20 2.427891 1_655
Ni2 Ni23 2.427891 1_655
Ni2 Ni25 2.443789 1_555
Ni2 Ni26 2.443789 1_555
Ni2 Ni3 2.449791 1_555
Ni2 Ni4 2.449791 1_555
Ni2 Ni4 2.475501 1_655
Ni2 Ni3 2.475501 1_545
Ni2 Y4 3.065146 1_545
Ni2 Y7 3.065146 1_545
Ni2 Y4 3.065146 1_655
Ni2 Y7 3.065146 1_655
Ni3 Ni4 2.449791 1_555
Ni3 Ni4 2.475501 1_665
Ni3 Y4 3.065146 1_655
Ni3 Y7 3.065146 1_655
Ni3 Y4 3.065146 1_555
Ni3 Y7 3.065146 1_555
Ni4 Y7 3.065146 1_545
Ni4 Y4 3.065146 1_545
Ni4 Y4 3.065146 1_555
Ni4 Y7 3.065146 1_555
Ni5 Ni7 2.449791 1_555
Ni5 Ni6 2.449791 1_555
Ni5 Ni6 2.475501 1_565
Ni5 Ni7 2.475501 1_455
Ni5 Y6 3.065146 1_455
Ni5 Y6 3.065146 1_565
Ni5 Y5 3.065146 1_455
Ni5 Y5 3.065146 1_565
Ni6 Ni7 2.449791 1_555
Ni6 Ni7 2.475501 1_445
Ni6 Y6 3.065146 1_455
Ni6 Y5 3.065146 1_455
Ni6 Y6 3.065146 1_555
Ni6 Y5 3.065146 1_555
Ni7 Y6 3.065146 1_565
Ni7 Y5 3.065146 1_565
Ni7 Y6 3.065146 1_555
Ni7 Y5 3.065146 1_555
Ni8 Ni9 2.458794 1_545
Ni8 Ni9 2.466498 1_555
Ni8 Y0 2.814742 1_545
Ni8 Y0 2.814742 1_655
Ni8 Y1 3.149484 1_555
Ni8 Y4 3.246997 1_545
Ni8 Y4 3.246997 1_655
Ni9 Y0 2.814740 1_655
Ni9 Y0 2.814744 1_555
Ni9 Y1 3.149486 1_555
Ni9 Y4 3.246995 1_655
Ni9 Y4 3.246999 1_555
Ni10 Ni25 2.413219 1_555
Ni10 Ni20 2.435115 1_555
Ni10 Ni9 2.458794 1_445
Ni10 Ni8 2.458794 1_455
Ni10 Ni9 2.466498 1_555
Ni10 Ni8 2.466498 1_555
Ni10 Y0 2.814740 1_545
Ni10 Y0 2.814744 1_555
Ni10 Y1 3.149486 1_555
Ni10 Y4 3.246995 1_545
Ni10 Y4 3.246999 1_555
Ni11 Ni24 2.413216 1_555
Ni11 Ni21 2.435115 1_565
Ni11 Ni13 2.458794 1_455
Ni11 Ni12 2.458794 1_565
Ni11 Ni12 2.466498 1_555
Ni11 Ni13 2.466498 1_555
Ni11 Y1 2.814742 1_455
Ni11 Y1 2.814742 1_565
Ni11 Y0 3.149484 1_555
Ni11 Y5 3.246997 1_455
Ni11 Y5 3.246997 1_565
Ni12 Ni24 2.413219 1_555
Ni12 Ni21 2.435115 1_555
Ni12 Ni13 2.458794 1_445
Ni12 Ni13 2.466498 1_555
Ni12 Y1 2.814740 1_455
Ni12 Y1 2.814744 1_555
Ni12 Y0 3.149486 1_555
Ni12 Y5 3.246995 1_455
Ni12 Y5 3.246999 1_555
Ni13 Ni24 2.413219 1_555
Ni13 Ni21 2.435115 1_665
Ni13 Y1 2.814740 1_565
Ni13 Y1 2.814744 1_555
Ni13 Y0 3.149486 1_555
Ni13 Y5 3.246995 1_565
Ni13 Y5 3.246999 1_555
Ni14 Ni27 2.413216 1_555
Ni14 Ni22 2.435115 1_565
Ni14 Ni16 2.458794 1_455
Ni14 Ni15 2.458794 1_565
Ni14 Ni15 2.466498 1_555
Ni14 Ni16 2.466498 1_555
Ni14 Y2 2.814742 1_455
Ni14 Y2 2.814742 1_565
Ni14 Y3 3.149484 1_556
Ni14 Y6 3.246997 1_455
Ni14 Y6 3.246997 1_565
Ni15 Ni27 2.413219 1_555
Ni15 Ni22 2.435115 1_555
Ni15 Ni16 2.458794 1_445
Ni15 Ni16 2.466498 1_555
Ni15 Y2 2.814740 1_455
Ni15 Y2 2.814744 1_555
Ni15 Y3 3.149486 1_556
Ni15 Y6 3.246995 1_455
Ni15 Y6 3.246999 1_555
Ni16 Ni27 2.413219 1_555
Ni16 Ni22 2.435115 1_665
Ni16 Y2 2.814740 1_565
Ni16 Y2 2.814744 1_555
Ni16 Y3 3.149486 1_556
Ni16 Y6 3.246995 1_565
Ni16 Y6 3.246999 1_555
Ni17 Ni26 2.413216 1_555
Ni17 Ni23 2.435115 1_655
Ni17 Ni18 2.458794 1_545
Ni17 Ni19 2.458794 1_655
Ni17 Ni19 2.466498 1_555
Ni17 Ni18 2.466498 1_555
Ni17 Y3 2.814742 1_545
Ni17 Y3 2.814742 1_655
Ni17 Y2 3.149484 1_554
Ni17 Y7 3.246997 1_545
Ni17 Y7 3.246997 1_655
Ni18 Ni26 2.413219 1_555
Ni18 Ni23 2.435115 1_665
Ni18 Ni19 2.458794 1_665
Ni18 Ni19 2.466498 1_555
Ni18 Y3 2.814740 1_655
Ni18 Y3 2.814744 1_555
Ni18 Y2 3.149486 1_554
Ni18 Y7 3.246995 1_655
Ni18 Y7 3.246999 1_555
Ni19 Ni26 2.413219 1_555
Ni19 Ni23 2.435115 1_555
Ni19 Y3 2.814740 1_545
Ni19 Y3 2.814744 1_555
Ni19 Y2 3.149486 1_554
Ni19 Y7 3.246995 1_545
Ni19 Y7 3.246999 1_555
Ni20 Ni4 2.427889 1_555
Ni20 Ni3 2.427889 1_445
Ni20 Ni9 2.435115 1_445
Ni20 Ni8 2.435115 1_455
Ni20 Y4 2.846947 1_545
Ni20 Y4 2.846952 1_445
Ni20 Y4 2.846952 1_555
Ni21 Ni6 2.427889 1_555
Ni21 Ni7 2.427889 1_445
Ni21 Ni5 2.427891 1_545
Ni21 Y5 2.846947 1_455
Ni21 Y5 2.846952 1_555
Ni21 Y5 2.846952 1_445
Ni22 Ni6 2.427889 1_555
Ni22 Ni7 2.427889 1_445
Ni22 Ni5 2.427891 1_545
Ni22 Y6 2.846947 1_455
Ni22 Y6 2.846952 1_445
Ni22 Y6 2.846952 1_555
Ni23 Ni4 2.427889 1_555
Ni23 Ni3 2.427889 1_445
Ni23 Y7 2.846947 1_545
Ni23 Y7 2.846952 1_445
Ni23 Y7 2.846952 1_555
Ni24 Ni5 2.443789 1_555
Ni24 Ni7 2.443794 1_555
Ni24 Ni6 2.443794 1_555
Ni24 Y5 2.848571 1_455
Ni24 Y5 2.848571 1_565
Ni24 Y5 2.848579 1_555
Ni25 Ni8 2.413216 1_555
Ni25 Ni9 2.413219 1_555
Ni25 Ni3 2.443794 1_555
Ni25 Ni4 2.443794 1_555
Ni25 Y4 2.848571 1_545
Ni25 Y4 2.848571 1_655
Ni25 Y4 2.848579 1_555
Ni26 Ni3 2.443794 1_555
Ni26 Ni4 2.443794 1_555
Ni26 Y7 2.848571 1_545
Ni26 Y7 2.848571 1_655
Ni26 Y7 2.848579 1_555
Ni27 Ni5 2.443789 1_555
Ni27 Ni7 2.443794 1_555
Ni27 Ni6 2.443794 1_555
Ni27 Y6 2.848571 1_455
Ni27 Y6 2.848571 1_565
Ni27 Y6 2.848579 1_555
