# generated using pymatgen
data_Li4MnO3
_symmetry_space_group_name_H-M   'P 1'
_cell_length_a   5.09826200
_cell_length_b   5.83226803
_cell_length_c   12.97168779
_cell_angle_alpha   96.31352299
_cell_angle_beta   101.22538101
_cell_angle_gamma   63.93458720
_symmetry_Int_Tables_number   1
_chemical_formula_structural   Li4MnO3
_chemical_formula_sum   'Li16 Mn4 O12'
_cell_volume   339.71765082
_cell_formula_units_Z   4
loop_
 _symmetry_equiv_pos_site_id
 _symmetry_equiv_pos_as_xyz
  1  'x, y, z'
loop_
 _atom_site_type_symbol
 _atom_site_label
 _atom_site_symmetry_multiplicity
 _atom_site_fract_x
 _atom_site_fract_y
 _atom_site_fract_z
 _atom_site_occupancy
  Li  Li0  1  0.97272700  0.22199800  0.46111700  1
  Li  Li1  1  0.97264100  0.72203200  0.96110600  1
  Li  Li2  1  0.26551200  0.97139600  0.21093000  1
  Li  Li3  1  0.26548100  0.47139100  0.71089200  1
  Li  Li4  1  0.88296000  0.87079700  0.32028200  1
  Li  Li5  1  0.88296200  0.37074300  0.82026600  1
  Li  Li6  1  0.56484200  0.62132700  0.06994900  1
  Li  Li7  1  0.56481300  0.12129700  0.56995600  1
  Li  Li8  1  0.51186400  0.82609600  0.41539500  1
  Li  Li9  1  0.51181000  0.32604600  0.91537800  1
  Li  Li10  1  0.07544300  0.57706900  0.16474900  1
  Li  Li11  1  0.07541600  0.07708300  0.66471000  1
  Li  Li12  1  0.71265300  0.54029200  0.26670700  1
  Li  Li13  1  0.71256900  0.04029900  0.76667300  1
  Li  Li14  1  0.01414700  0.28915800  0.01627400  1
  Li  Li15  1  0.01412700  0.78921300  0.51628000  1
  Mn  Mn0  1  0.33356000  0.90023600  0.86854100  1
  Mn  Mn1  1  0.63273600  0.15393900  0.12238600  1
  Mn  Mn2  1  0.33361900  0.40014000  0.36873600  1
  Mn  Mn3  1  0.63291700  0.65392100  0.62232600  1
  O  O0  1  0.67374400  0.09497100  0.42947200  1
  O  O1  1  0.67379800  0.59484900  0.92943100  1
  O  O2  1  0.66063400  0.84393100  0.17944300  1
  O  O3  1  0.66055200  0.34389300  0.67938400  1
  O  O4  1  0.29358500  0.69802000  0.29109700  1
  O  O5  1  0.29350200  0.19791300  0.79102800  1
  O  O6  1  0.29957800  0.44694900  0.04129700  1
  O  O7  1  0.29968200  0.94682100  0.54129500  1
  O  O8  1  0.93039300  0.53983100  0.41443900  1
  O  O9  1  0.93025100  0.03989200  0.91436100  1
  O  O10  1  0.94431800  0.29010900  0.16477700  1
  O  O11  1  0.94428600  0.79013200  0.66472800  1
loop_
_geom_bond_atom_site_label_1
_geom_bond_atom_site_label_2
_geom_bond_distance
_geom_bond_site_symmetry_2
Li0 O8 1.921913 1_555
Li0 O0 1.929442 1_555
Li0 O7 1.943489 1_645
Li1 O9 1.922303 1_565
Li1 O1 1.929438 1_555
Li1 O6 1.943252 1_656
Li2 O10 1.919183 1_465
Li2 O2 1.927420 1_555
Li2 O4 1.936537 1_555
Li3 O11 1.919324 1_455
Li3 O3 1.927265 1_555
Li3 O5 1.936900 1_555
Li4 O0 1.951569 1_565
Li4 O4 1.977922 1_655
Li4 O2 1.983392 1_555
Li4 O8 2.295549 1_555
Li5 O1 1.951080 1_555
Li5 O5 1.977787 1_655
Li5 O3 1.984000 1_555
Li5 O9 2.294761 1_555
Li6 O2 1.955235 1_555
Li6 O1 1.977819 1_554
Li6 O6 1.982744 1_555
Li6 O10 2.302056 1_555
Li7 O3 1.954576 1_555
Li7 O0 1.977468 1_555
Li7 O7 1.982606 1_545
Li7 O11 2.301550 1_545
Li8 O7 2.024516 1_555
Li8 O4 2.040370 1_555
Li8 O0 2.046768 1_565
Li8 O8 2.053208 1_555
Li9 O6 2.024894 1_556
Li9 O5 2.041059 1_555
Li9 O1 2.046797 1_555
Li9 O9 2.052766 1_555
Li10 O6 2.032040 1_555
Li10 O2 2.032310 1_455
Li10 O4 2.036203 1_555
Li10 O10 2.057034 1_455
Li11 O7 2.032030 1_545
Li11 O3 2.032367 1_455
Li11 O5 2.035440 1_555
Li11 O11 2.056981 1_445
Li12 O10 1.985313 1_555
Li12 O4 1.995750 1_555
Li12 O8 2.018643 1_555
Li12 O2 2.097391 1_555
Li13 O11 1.985519 1_545
Li13 O5 1.995620 1_555
Li13 O9 2.018097 1_555
Li13 O3 2.097369 1_555
Li14 O9 1.986879 1_454
Li14 O6 1.999290 1_555
Li14 O10 2.024958 1_455
Li14 O1 2.102510 1_454
Li15 O8 1.986546 1_455
Li15 O7 1.999048 1_555
Li15 O11 2.024310 1_455
Li15 O0 2.102571 1_465
Mn0 O1 1.966215 1_555
Mn0 O5 2.014755 1_565
Mn0 O9 2.035217 1_465
Mn1 O2 1.965808 1_545
Mn1 O6 2.015123 1_555
Mn1 O10 2.032004 1_555
Mn2 O0 1.964609 1_555
Mn2 O4 2.016771 1_555
Mn2 O8 2.034149 1_455
Mn3 O3 1.966466 1_555
Mn3 O7 2.014585 1_555
Mn3 O11 2.031205 1_555
