# generated using pymatgen
data_LiBC2(O2F)2
_symmetry_space_group_name_H-M   'P 1'
_cell_length_a   6.52580200
_cell_length_b   6.47505100
_cell_length_c   6.63725851
_cell_angle_alpha   90.00000000
_cell_angle_beta   119.44604430
_cell_angle_gamma   90.00000000
_symmetry_Int_Tables_number   1
_chemical_formula_structural   LiBC2(O2F)2
_chemical_formula_sum   'Li2 B2 C4 O8 F4'
_cell_volume   244.22703045
_cell_formula_units_Z   2
loop_
 _symmetry_equiv_pos_site_id
 _symmetry_equiv_pos_as_xyz
  1  'x, y, z'
loop_
 _atom_site_type_symbol
 _atom_site_label
 _atom_site_symmetry_multiplicity
 _atom_site_fract_x
 _atom_site_fract_y
 _atom_site_fract_z
 _atom_site_occupancy
  Li  Li0  1  0.03334600  0.25000000  0.06669200  1
  Li  Li1  1  0.96665400  0.75000000  0.93330800  1
  B  B0  1  0.60128900  0.25000000  0.20257700  1
  B  B1  1  0.39871100  0.75000000  0.79742300  1
  C  C0  1  0.79015400  0.13200000  0.58030700  1
  C  C1  1  0.20984600  0.86800000  0.41969300  1
  C  C2  1  0.79015400  0.36799900  0.58030700  1
  C  C3  1  0.20984600  0.63200000  0.41969300  1
  O  O0  1  0.87991000  0.03038600  0.75981900  1
  O  O1  1  0.12009000  0.96961400  0.24018100  1
  O  O2  1  0.87991000  0.46961400  0.75981900  1
  O  O3  1  0.12009000  0.53038600  0.24018100  1
  O  O4  1  0.68303400  0.06465300  0.36606800  1
  O  O5  1  0.31696600  0.93534700  0.63393200  1
  O  O6  1  0.68303400  0.43534700  0.36606800  1
  O  O7  1  0.31696600  0.56465300  0.63393200  1
  F  F0  1  0.71128000  0.25000000  0.06872500  1
  F  F1  1  0.64255500  0.75000000  0.93127500  1
  F  F2  1  0.28872000  0.75000000  0.93127500  1
  F  F3  1  0.35744600  0.25000000  0.06872500  1
loop_
_geom_bond_atom_site_label_1
_geom_bond_atom_site_label_2
_geom_bond_distance
_geom_bond_site_symmetry_2
Li0 O1 2.074025 1_545
Li0 O3 2.074025 1_555
Li0 O2 2.273337 1_454
Li0 O0 2.273337 1_454
Li1 O2 2.074025 1_555
Li1 O0 2.074025 1_565
Li1 O3 2.273337 1_656
Li1 O1 2.273337 1_656
B0 F0 1.389768 1_555
B0 F3 1.389768 1_555
B0 O6 1.527499 1_555
B0 O4 1.527499 1_555
B1 F2 1.389768 1_555
B1 F1 1.389773 1_555
B1 O5 1.527499 1_555
B1 O7 1.527499 1_555
C0 O0 1.228585 1_555
C0 O4 1.312811 1_555
C1 O1 1.228585 1_555
C1 O5 1.312811 1_555
C2 O2 1.228589 1_555
C2 O6 1.312813 1_555
C3 O3 1.228585 1_555
C3 O7 1.312811 1_555
F0 Li0 2.108405 1_655
F1 Li1 2.108405 1_555
F2 Li1 2.108405 1_455
F3 Li0 2.108412 1_555
