# generated using pymatgen
data_Tb5(SiB4)2
_symmetry_space_group_name_H-M   'P 1'
_cell_length_a   7.24996584
_cell_length_b   7.24996608
_cell_length_c   8.15227292
_cell_angle_alpha   89.99999993
_cell_angle_beta   90.00000186
_cell_angle_gamma   90.00003446
_symmetry_Int_Tables_number   1
_chemical_formula_structural   Tb5(SiB4)2
_chemical_formula_sum   'Tb10 Si4 B16'
_cell_volume   428.49982157
_cell_formula_units_Z   2
loop_
 _symmetry_equiv_pos_site_id
 _symmetry_equiv_pos_as_xyz
  1  'x, y, z'
loop_
 _atom_site_type_symbol
 _atom_site_label
 _atom_site_symmetry_multiplicity
 _atom_site_fract_x
 _atom_site_fract_y
 _atom_site_fract_z
 _atom_site_occupancy
  Tb  Tb0  1  0.68082184  0.18082156  0.22383899  1
  Tb  Tb1  1  0.31917783  0.81917741  0.77616166  1
  Tb  Tb2  1  0.31917852  0.81917809  0.22383908  1
  Tb  Tb3  1  0.81917804  0.68082186  0.22383943  1
  Tb  Tb4  1  0.81917742  0.68082240  0.77616124  1
  Tb  Tb5  1  0.68082252  0.18082218  0.77616172  1
  Tb  Tb6  1  0.18082224  0.31917787  0.77616130  1
  Tb  Tb7  1  0.18082158  0.31917847  0.22383948  1
  Tb  Tb8  1  0.00000007  0.00000040  0.49999751  1
  Tb  Tb9  1  0.49999972  0.49999937  0.49999754  1
  Si  Si0  1  0.11446679  0.61446739  0.50000131  1
  Si  Si1  1  0.88553234  0.38553305  0.50000132  1
  Si  Si2  1  0.38553353  0.11446633  0.50000128  1
  Si  Si3  1  0.61446760  0.88553221  0.50000130  1
  B  B0  1  0.17182132  0.03925640  0.00000028  1
  B  B1  1  0.82817908  0.96074385  0.00000023  1
  B  B2  1  0.96074391  0.17182134  0.00000029  1
  B  B3  1  0.32817885  0.53925605  0.00000029  1
  B  B4  1  0.03925615  0.82817915  0.00000029  1
  B  B5  1  0.67182100  0.46074383  0.00000025  1
  B  B6  1  0.53925633  0.67182096  0.00000024  1
  B  B7  1  0.46074383  0.32817869  0.00000030  1
  B  B8  1  0.09102688  0.59102729  0.00000006  1
  B  B9  1  0.90897281  0.40897323  0.00000006  1
  B  B10  1  0.40897365  0.09102644  0.00000006  1
  B  B11  1  0.59102693  0.90897316  0.00000014  1
  B  B12  1  0.00000013  0.00000019  0.16010827  1
  B  B13  1  0.00000011  0.00000021  0.83989191  1
  B  B14  1  0.49999999  0.49999980  0.83989189  1
  B  B15  1  0.49999999  0.49999982  0.16010829  1
loop_
_geom_bond_atom_site_label_1
_geom_bond_atom_site_label_2
_geom_bond_distance
_geom_bond_site_symmetry_2
Si0 Si1 2.347264 1_455
Si0 Tb8 2.915698 1_565
Si0 Tb9 2.915700 1_555
Si0 Tb1 3.077966 1_555
Si0 Tb2 3.077982 1_555
Si0 Tb4 3.143741 1_455
Si0 Tb6 3.143743 1_555
Si0 Tb3 3.143749 1_455
Si0 Tb7 3.143750 1_555
Si1 Tb9 2.915694 1_555
Si1 Tb8 2.915697 1_655
Si1 Tb5 3.077965 1_555
Si1 Tb0 3.077981 1_555
Si1 Tb4 3.143741 1_555
Si1 Tb6 3.143744 1_655
Si1 Tb3 3.143749 1_555
Si1 Tb7 3.143751 1_655
Si2 Si3 2.347262 1_545
Si2 Tb9 2.915696 1_555
Si2 Tb8 2.915698 1_555
Si2 Tb6 3.077971 1_555
Si2 Tb7 3.077986 1_555
Si2 Tb1 3.143742 1_545
Si2 Tb5 3.143743 1_555
Si2 Tb2 3.143749 1_545
Si2 Tb0 3.143750 1_555
Si3 Tb8 2.915696 1_665
Si3 Tb9 2.915698 1_555
Si3 Tb4 3.077959 1_555
Si3 Tb3 3.077975 1_555
Si3 Tb1 3.143745 1_555
Si3 Tb5 3.143747 1_565
Si3 Tb2 3.143752 1_555
Si3 Tb0 3.143754 1_565
B0 B10 1.759836 1_555
B0 B4 1.807076 1_545
B0 B2 1.807077 1_455
B0 B12 1.826588 1_555
B0 B13 1.826591 1_554
B0 Tb1 2.648968 1_544
B0 Tb2 2.648968 1_545
B0 Tb6 2.729962 1_554
B0 Tb7 2.729966 1_555
B1 B11 1.759836 1_555
B1 B4 1.807074 1_655
B1 B2 1.807076 1_565
B1 B12 1.826588 1_665
B1 B13 1.826590 1_664
B1 Tb5 2.648964 1_564
B1 Tb0 2.648965 1_565
B1 Tb4 2.729962 1_554
B1 Tb3 2.729966 1_555
B2 B9 1.759835 1_555
B2 Tb7 2.648966 1_655
B2 Tb6 2.648966 1_654
B2 Tb5 2.729959 1_554
B2 Tb0 2.729963 1_555
B3 B8 1.759836 1_555
B3 B6 1.807077 1_555
B3 B7 1.807077 1_555
B3 Tb6 2.648966 1_554
B3 Tb7 2.648966 1_555
B3 Tb1 2.729959 1_554
B3 Tb2 2.729964 1_555
B4 B8 1.759835 1_555
B4 Tb3 2.648968 1_455
B4 Tb4 2.648969 1_454
B4 Tb1 2.729961 1_554
B4 Tb2 2.729965 1_555
B5 B9 1.759834 1_555
B5 B6 1.807075 1_555
B5 B7 1.807076 1_555
B5 Tb4 2.648967 1_554
B5 Tb3 2.648967 1_555
B5 Tb5 2.729960 1_554
B5 Tb0 2.729965 1_555
B6 Tb1 2.648965 1_554
B6 Tb2 2.648966 1_555
B6 Tb4 2.729960 1_554
B6 Tb3 2.729964 1_555
B7 Tb0 2.648966 1_555
B7 Tb5 2.648966 1_554
B7 Tb6 2.729962 1_554
B7 Tb7 2.729967 1_555
B8 B9 1.866600 1_455
B8 Tb3 2.763717 1_455
B8 Tb7 2.763718 1_555
B8 Tb6 2.763718 1_554
B8 Tb4 2.763718 1_454
B8 Tb1 2.966791 1_554
B8 Tb2 2.966799 1_555
B9 Tb3 2.763716 1_555
B9 Tb4 2.763717 1_554
B9 Tb7 2.763717 1_655
B9 Tb6 2.763718 1_654
B9 Tb5 2.966791 1_554
B9 Tb0 2.966800 1_555
B10 B7 1.759836 1_555
B10 B11 1.866593 1_545
B10 Tb0 2.763712 1_555
B10 Tb2 2.763713 1_545
B10 Tb5 2.763713 1_554
B10 Tb1 2.763715 1_544
B10 Tb6 2.966801 1_554
B10 Tb7 2.966809 1_555
B11 B6 1.759836 1_555
B11 Tb0 2.763712 1_565
B11 Tb2 2.763713 1_555
B11 Tb5 2.763714 1_564
B11 Tb1 2.763715 1_554
B11 Tb4 2.966795 1_554
B11 Tb3 2.966802 1_555
B12 B4 1.826588 1_545
B12 B2 1.826588 1_455
B12 Tb7 2.709846 1_555
B12 Tb0 2.709846 1_455
B12 Tb3 2.709848 1_445
B12 Tb2 2.709849 1_545
B12 Tb8 2.770870 1_555
B13 B4 1.826590 1_546
B13 B2 1.826591 1_456
B13 Tb5 2.709843 1_455
B13 Tb6 2.709843 1_555
B13 Tb4 2.709846 1_445
B13 Tb1 2.709847 1_545
B13 Tb8 2.770912 1_555
B14 B5 1.826590 1_556
B14 B7 1.826590 1_556
B14 B6 1.826591 1_556
B14 B3 1.826591 1_556
B14 Tb6 2.709843 1_555
B14 Tb4 2.709844 1_555
B14 Tb1 2.709844 1_555
B14 Tb5 2.709845 1_555
B14 Tb9 2.770912 1_555
B15 B5 1.826588 1_555
B15 B7 1.826588 1_555
B15 B3 1.826588 1_555
B15 B6 1.826589 1_555
B15 Tb7 2.709846 1_555
B15 Tb3 2.709846 1_555
B15 Tb2 2.709846 1_555
B15 Tb0 2.709848 1_555
B15 Tb9 2.770870 1_555
