# generated using pymatgen
data_Nb3Te4ClO15
_symmetry_space_group_name_H-M   'P 1'
_cell_length_a   10.45851151
_cell_length_b   10.45851151
_cell_length_c   21.56382277
_cell_angle_alpha   65.59478135
_cell_angle_beta   65.59478135
_cell_angle_gamma   45.07489021
_symmetry_Int_Tables_number   1
_chemical_formula_structural   Nb3Te4ClO15
_chemical_formula_sum   'Nb12 Te16 Cl4 O60'
_cell_volume   1493.58112707
_cell_formula_units_Z   4
loop_
 _symmetry_equiv_pos_site_id
 _symmetry_equiv_pos_as_xyz
  1  'x, y, z'
loop_
 _atom_site_type_symbol
 _atom_site_label
 _atom_site_symmetry_multiplicity
 _atom_site_fract_x
 _atom_site_fract_y
 _atom_site_fract_z
 _atom_site_occupancy
  Nb  Nb0  1  0.13244800  0.37455100  0.25276700  1
  Nb  Nb1  1  0.62544900  0.86755200  0.24723300  1
  Nb  Nb2  1  0.86755200  0.62544900  0.74723300  1
  Nb  Nb3  1  0.37455100  0.13244800  0.75276700  1
  Nb  Nb4  1  0.74170400  0.01394500  0.48999700  1
  Nb  Nb5  1  0.98605500  0.25829600  0.01000300  1
  Nb  Nb6  1  0.25829600  0.98605500  0.51000300  1
  Nb  Nb7  1  0.01394500  0.74170400  0.98999700  1
  Nb  Nb8  1  0.48128900  0.76173300  0.00539900  1
  Nb  Nb9  1  0.23826700  0.51871100  0.49460100  1
  Nb  Nb10  1  0.51871100  0.23826700  0.99460100  1
  Nb  Nb11  1  0.76173300  0.48128900  0.50539900  1
  Te  Te0  1  0.22786900  0.12519800  0.14385800  1
  Te  Te1  1  0.87480200  0.77213100  0.35614200  1
  Te  Te2  1  0.77213100  0.87480200  0.85614200  1
  Te  Te3  1  0.12519800  0.22786900  0.64385800  1
  Te  Te4  1  0.39046800  0.26816100  0.37530700  1
  Te  Te5  1  0.73183900  0.60953200  0.12469300  1
  Te  Te6  1  0.60953200  0.73183900  0.62469300  1
  Te  Te7  1  0.26816100  0.39046800  0.87530700  1
  Te  Te8  1  0.12409900  0.01092700  0.36355600  1
  Te  Te9  1  0.98907300  0.87590100  0.13644400  1
  Te  Te10  1  0.87590100  0.98907300  0.63644400  1
  Te  Te11  1  0.01092700  0.12409900  0.86355600  1
  Te  Te12  1  0.50759600  0.39809300  0.12902500  1
  Te  Te13  1  0.60190700  0.49240400  0.37097500  1
  Te  Te14  1  0.49240400  0.60190700  0.87097500  1
  Te  Te15  1  0.39809300  0.50759600  0.62902500  1
  Cl  Cl0  1  0.45585800  0.54414200  0.25000000  1
  Cl  Cl1  1  0.54414200  0.45585800  0.75000000  1
  Cl  Cl2  1  0.95838400  0.04161600  0.25000000  1
  Cl  Cl3  1  0.04161600  0.95838400  0.75000000  1
  O  O0  1  0.36274300  0.19124500  0.07033900  1
  O  O1  1  0.80875500  0.63725700  0.42966100  1
  O  O2  1  0.63725700  0.80875500  0.92966100  1
  O  O3  1  0.19124500  0.36274300  0.57033900  1
  O  O4  1  0.07806000  0.34116300  0.18212100  1
  O  O5  1  0.65883700  0.92194000  0.31787900  1
  O  O6  1  0.92194000  0.65883700  0.81787900  1
  O  O7  1  0.34116300  0.07806000  0.68212100  1
  O  O8  1  0.05213300  0.23726000  0.09233500  1
  O  O9  1  0.76274000  0.94786700  0.40766500  1
  O  O10  1  0.94786700  0.76274000  0.90766500  1
  O  O11  1  0.23726000  0.05213300  0.59233500  1
  O  O12  1  0.22217900  0.34593700  0.32657700  1
  O  O13  1  0.65406300  0.77782100  0.17342300  1
  O  O14  1  0.77782100  0.65406300  0.67342300  1
  O  O15  1  0.34593700  0.22217900  0.82657700  1
  O  O16  1  0.36717800  0.09982700  0.44841600  1
  O  O17  1  0.90017300  0.63282200  0.05158400  1
  O  O18  1  0.63282200  0.90017300  0.55158400  1
  O  O19  1  0.09982700  0.36717800  0.94841600  1
  O  O20  1  0.19940900  0.47289600  0.42152400  1
  O  O21  1  0.52710400  0.80059100  0.07847600  1
  O  O22  1  0.80059100  0.52710400  0.57847600  1
  O  O23  1  0.47289600  0.19940900  0.92152400  1
  O  O24  1  0.01848500  0.26386400  0.32730000  1
  O  O25  1  0.73613600  0.98151500  0.17270000  1
  O  O26  1  0.98151500  0.73613600  0.67270000  1
  O  O27  1  0.26386400  0.01848500  0.82730000  1
  O  O28  1  0.23754500  0.96552400  0.42875600  1
  O  O29  1  0.03447600  0.76245500  0.07124400  1
  O  O30  1  0.76245500  0.03447600  0.57124400  1
  O  O31  1  0.96552400  0.23754500  0.92875600  1
  O  O32  1  0.90104800  0.08306500  0.42513800  1
  O  O33  1  0.91693500  0.09895200  0.07486200  1
  O  O34  1  0.09895200  0.91693500  0.57486200  1
  O  O35  1  0.08306500  0.90104800  0.92513800  1
  O  O36  1  0.29010600  0.42996000  0.18082600  1
  O  O37  1  0.57004000  0.70989400  0.31917400  1
  O  O38  1  0.70989400  0.57004000  0.81917400  1
  O  O39  1  0.42996000  0.29010600  0.68082600  1
  O  O40  1  0.52163400  0.33599400  0.05413400  1
  O  O41  1  0.66400600  0.47836600  0.44586600  1
  O  O42  1  0.47836600  0.66400600  0.94586600  1
  O  O43  1  0.33599400  0.52163400  0.55413400  1
  O  O44  1  0.36912900  0.65409000  0.08981200  1
  O  O45  1  0.34591000  0.63087100  0.41018800  1
  O  O46  1  0.63087100  0.34591000  0.91018800  1
  O  O47  1  0.65409000  0.36912900  0.58981200  1
  O  O48  1  0.00841000  0.74150400  0.49759700  1
  O  O49  1  0.25849600  0.99159000  0.00240300  1
  O  O50  1  0.99159000  0.25849600  0.50240300  1
  O  O51  1  0.74150400  0.00841000  0.99759700  1
  O  O52  1  0.92073800  0.61789900  0.25298800  1
  O  O53  1  0.38210100  0.07926200  0.24701200  1
  O  O54  1  0.07926200  0.38210100  0.74701200  1
  O  O55  1  0.61789900  0.92073800  0.75298800  1
  O  O56  1  0.52759700  0.25633100  0.46563800  1
  O  O57  1  0.74366900  0.47240300  0.03436200  1
  O  O58  1  0.47240300  0.74366900  0.53436200  1
  O  O59  1  0.25633100  0.52759700  0.96563800  1
loop_
_geom_bond_atom_site_label_1
_geom_bond_atom_site_label_2
_geom_bond_distance
_geom_bond_site_symmetry_2
Nb0 O52 1.849934 1_455
Nb0 O12 1.986854 1_555
Nb0 O36 1.988469 1_555
Nb0 O24 2.042548 1_555
Nb0 O4 2.049984 1_555
Nb0 O53 2.242890 1_555
Nb1 O53 1.849934 1_565
Nb1 O13 1.986854 1_555
Nb1 O37 1.988469 1_555
Nb1 O25 2.042548 1_555
Nb1 O5 2.049984 1_555
Nb1 O52 2.242890 1_555
Nb2 O54 1.849934 1_655
Nb2 O14 1.986854 1_555
Nb2 O38 1.988469 1_555
Nb2 O26 2.042548 1_555
Nb2 O6 2.049984 1_555
Nb2 O55 2.242890 1_555
Nb3 O55 1.849934 1_545
Nb3 O15 1.986854 1_555
Nb3 O39 1.988469 1_555
Nb3 O27 2.042548 1_555
Nb3 O7 2.049984 1_555
Nb3 O54 2.242890 1_555
Nb4 O56 1.889630 1_555
Nb4 O18 1.958164 1_545
Nb4 O30 1.963059 1_555
Nb4 O9 2.038235 1_545
Nb4 O32 2.048360 1_555
Nb4 O48 2.166270 1_645
Nb5 O57 1.889630 1_555
Nb5 O19 1.958164 1_654
Nb5 O31 1.963059 1_554
Nb5 O8 2.038235 1_655
Nb5 O33 2.048360 1_555
Nb5 O49 2.166270 1_645
Nb6 O58 1.889630 1_555
Nb6 O16 1.958164 1_565
Nb6 O28 1.963059 1_555
Nb6 O11 2.038235 1_565
Nb6 O34 2.048360 1_555
Nb6 O50 2.166270 1_465
Nb7 O59 1.889630 1_555
Nb7 O17 1.958164 1_456
Nb7 O29 1.963059 1_556
Nb7 O10 2.038235 1_455
Nb7 O35 2.048360 1_555
Nb7 O51 2.166270 1_465
Nb8 O49 1.815845 1_555
Nb8 O2 1.959011 1_554
Nb8 O42 1.963280 1_554
Nb8 O21 2.075130 1_555
Nb8 O44 2.089011 1_555
Nb8 O57 2.281120 1_555
Nb9 O48 1.815845 1_555
Nb9 O3 1.959011 1_555
Nb9 O43 1.963280 1_555
Nb9 O20 2.075130 1_555
Nb9 O45 2.089011 1_555
Nb9 O56 2.281120 1_555
Nb10 O51 1.815845 1_555
Nb10 O0 1.959011 1_556
Nb10 O40 1.963280 1_556
Nb10 O23 2.075130 1_555
Nb10 O46 2.089011 1_555
Nb10 O59 2.281120 1_555
Nb11 O50 1.815845 1_555
Nb11 O1 1.959011 1_555
Nb11 O41 1.963280 1_555
Nb11 O22 2.075130 1_555
Nb11 O47 2.089011 1_555
Nb11 O58 2.281120 1_555
O0 Te0 1.898270 1_555
O1 Te1 1.898270 1_555
O2 Te2 1.898270 1_555
O3 Te3 1.898270 1_555
O4 Te0 1.926347 1_555
O5 Te1 1.926347 1_555
O6 Te2 1.926347 1_555
O7 Te3 1.926347 1_555
O8 Te0 1.885493 1_555
O9 Te1 1.885493 1_555
O10 Te2 1.885493 1_555
O11 Te3 1.885493 1_555
O12 Te4 1.914057 1_555
O13 Te5 1.914057 1_555
O14 Te6 1.914057 1_555
O15 Te7 1.914057 1_555
O16 Te4 1.907588 1_555
O17 Te5 1.907588 1_555
O18 Te6 1.907588 1_555
O19 Te7 1.907588 1_555
O20 Te4 1.909383 1_555
O21 Te5 1.909383 1_555
O22 Te6 1.909383 1_555
O23 Te7 1.909383 1_555
O24 Te8 1.925313 1_555
O25 Te9 1.925313 1_555
O26 Te10 1.925313 1_555
O27 Te11 1.925313 1_555
O28 Te8 1.908146 1_565
O29 Te9 1.908146 1_455
O30 Te10 1.908146 1_545
O31 Te11 1.908146 1_655
O32 Te8 1.885935 1_655
O33 Te9 1.885935 1_545
O34 Te10 1.885935 1_455
O35 Te11 1.885935 1_565
O36 Te12 1.915728 1_555
O37 Te13 1.915728 1_555
O38 Te14 1.915728 1_555
O39 Te15 1.915728 1_555
O40 Te12 1.894072 1_555
O41 Te13 1.894072 1_555
O42 Te14 1.894072 1_555
O43 Te15 1.894072 1_555
O44 Te12 1.909291 1_555
O45 Te13 1.909291 1_555
O46 Te14 1.909291 1_555
O47 Te15 1.909291 1_555
