# generated using pymatgen
data_Er3(CoGe2)2
_symmetry_space_group_name_H-M   'P 1'
_cell_length_a   5.64891059
_cell_length_b   5.64891059
_cell_length_c   7.90147571
_cell_angle_alpha   73.63075765
_cell_angle_beta   73.63075765
_cell_angle_gamma   42.45508483
_symmetry_Int_Tables_number   1
_chemical_formula_structural   Er3(CoGe2)2
_chemical_formula_sum   'Er3 Co2 Ge4'
_cell_volume   162.23075571
_cell_formula_units_Z   1
loop_
 _symmetry_equiv_pos_site_id
 _symmetry_equiv_pos_as_xyz
  1  'x, y, z'
loop_
 _atom_site_type_symbol
 _atom_site_label
 _atom_site_symmetry_multiplicity
 _atom_site_fract_x
 _atom_site_fract_y
 _atom_site_fract_z
 _atom_site_occupancy
  Er  Er0  1  0.37564835  0.37564835  0.69212085  1
  Er  Er1  1  0.62435165  0.62435165  0.30787915  1
  Er  Er2  1  0.00000000  0.00000000  -0.00000000  1
  Co  Co0  1  0.30652016  0.30652016  0.37399722  1
  Co  Co1  1  0.69347984  0.69347984  0.62600278  1
  Ge  Ge0  1  0.09644326  0.09644326  0.60125885  1
  Ge  Ge1  1  0.90355674  0.90355674  0.39874115  1
  Ge  Ge2  1  0.70767186  0.70767186  0.91975235  1
  Ge  Ge3  1  0.29232814  0.29232814  0.08024765  1
loop_
_geom_bond_atom_site_label_1
_geom_bond_atom_site_label_2
_geom_bond_distance
_geom_bond_site_symmetry_2
Er0 Ge3 2.923673 1_556
Er0 Ge2 2.936629 1_545
Er0 Ge2 2.936629 1_455
Er0 Ge0 3.015973 1_565
Er0 Ge0 3.015973 1_655
Er0 Ge1 3.038331 1_545
Er0 Ge1 3.038331 1_455
Er0 Ge0 3.230757 1_555
Er1 Ge2 2.923673 1_554
Er1 Ge3 2.936629 1_565
Er1 Ge3 2.936629 1_655
Er1 Ge1 3.015973 1_545
Er1 Ge1 3.015973 1_455
Er1 Ge0 3.038331 1_565
Er1 Ge0 3.038331 1_655
Er1 Ge1 3.230757 1_555
Er2 Ge3 2.920617 1_545
Er2 Ge3 2.920617 1_455
Er2 Ge2 2.920617 1_454
Er2 Ge2 2.920617 1_544
Er2 Ge1 3.003856 1_445
Er2 Ge0 3.003856 1_554
Er2 Ge2 3.325673 1_444
Er2 Ge3 3.325673 1_555
Co0 Ge1 2.320921 1_545
Co0 Ge1 2.320921 1_455
Co0 Ge3 2.370528 1_555
Co0 Ge0 2.391003 1_555
Co0 Er0 2.820452 1_555
Co0 Er1 2.956824 1_545
Co0 Er1 2.956824 1_455
Co0 Er1 3.227860 1_555
Co1 Ge0 2.320921 1_655
Co1 Ge0 2.320921 1_565
Co1 Ge2 2.370528 1_555
Co1 Ge1 2.391003 1_555
Co1 Er1 2.820452 1_555
Co1 Er0 2.956824 1_655
Co1 Er0 2.956824 1_565
Co1 Er0 3.227860 1_555
Ge0 Ge1 2.941508 1_445
Ge2 Ge3 2.696297 1_566
Ge2 Ge3 2.696297 1_656
