# generated using pymatgen
data_K2RbScV2O8
_symmetry_space_group_name_H-M   'P 1'
_cell_length_a   5.78301589
_cell_length_b   5.78301589
_cell_length_c   7.52274963
_cell_angle_alpha   90.00000000
_cell_angle_beta   90.00000000
_cell_angle_gamma   119.99999671
_symmetry_Int_Tables_number   1
_chemical_formula_structural   K2RbScV2O8
_chemical_formula_sum   'K2 Rb1 Sc1 V2 O8'
_cell_volume   217.87932727
_cell_formula_units_Z   1
loop_
 _symmetry_equiv_pos_site_id
 _symmetry_equiv_pos_as_xyz
  1  'x, y, z'
loop_
 _atom_site_type_symbol
 _atom_site_label
 _atom_site_symmetry_multiplicity
 _atom_site_fract_x
 _atom_site_fract_y
 _atom_site_fract_z
 _atom_site_occupancy
  K  K0  1  0.33333300  0.66666700  0.68701649  1
  K  K1  1  0.66666700  0.33333300  0.31298351  1
  Rb  Rb0  1  0.00000000  0.00000000  0.00000000  1
  Sc  Sc0  1  0.00000000  0.00000000  0.50000000  1
  V  V0  1  0.33333300  0.66666700  0.25393205  1
  V  V1  1  0.66666700  0.33333300  0.74606795  1
  O  O0  1  0.33333300  0.66666700  0.03307708  1
  O  O1  1  0.66666700  0.33333300  0.96692292  1
  O  O2  1  0.17062095  0.82937905  0.33531361  1
  O  O3  1  0.82937905  0.17062095  0.66468639  1
  O  O4  1  0.17062095  0.34124191  0.33531361  1
  O  O5  1  0.82937905  0.65875809  0.66468639  1
  O  O6  1  0.65875809  0.82937905  0.33531361  1
  O  O7  1  0.34124191  0.17062095  0.66468639  1
loop_
_geom_bond_atom_site_label_1
_geom_bond_atom_site_label_2
_geom_bond_distance
_geom_bond_site_symmetry_2
K0 O0 2.603327 1_556
K0 O7 2.896651 1_565
K0 O5 2.896651 1_455
K0 O3 2.896654 1_565
K0 O3 2.896654 1_455
K0 O7 2.896657 1_555
K0 O5 2.896657 1_555
K0 O2 3.107469 1_555
K0 O6 3.107472 1_555
K0 O4 3.107472 1_555
K1 O1 2.603327 1_554
K1 O6 2.896651 1_545
K1 O4 2.896651 1_655
K1 O2 2.896654 1_545
K1 O2 2.896654 1_655
K1 O4 2.896657 1_555
K1 O6 2.896657 1_555
K1 O3 3.107469 1_555
K1 O7 3.107472 1_555
K1 O5 3.107472 1_555
O0 V0 1.661437 1_555
O0 Rb0 3.348082 1_565
O0 Rb0 3.348087 1_555
O0 Rb0 3.348087 1_665
O1 V1 1.661437 1_555
O1 Rb0 3.348082 1_656
O1 Rb0 3.348087 1_666
O1 Rb0 3.348087 1_556
O2 V0 1.740993 1_555
O2 Sc0 2.110832 1_565
O2 Rb0 3.046910 1_565
O3 V1 1.740993 1_555
O3 Sc0 2.110832 1_655
O3 Rb0 3.046910 1_656
O4 V0 1.740998 1_555
O4 Sc0 2.110832 1_555
O4 Rb0 3.046910 1_555
O5 V1 1.740998 1_555
O5 Sc0 2.110832 1_665
O5 Rb0 3.046910 1_666
O6 V0 1.740998 1_555
O6 Sc0 2.110832 1_665
O6 Rb0 3.046910 1_665
O7 V1 1.740998 1_555
O7 Sc0 2.110832 1_555
O7 Rb0 3.046910 1_556
