# generated using pymatgen
data_LiTmSn
_symmetry_space_group_name_H-M   'P 1'
_cell_length_a   9.24468539
_cell_length_b   9.24468798
_cell_length_c   7.19732071
_cell_angle_alpha   89.99998076
_cell_angle_beta   90.00000054
_cell_angle_gamma   120.00119609
_symmetry_Int_Tables_number   1
_chemical_formula_structural   LiTmSn
_chemical_formula_sum   'Li8 Tm8 Sn8'
_cell_volume   532.69748460
_cell_formula_units_Z   8
loop_
 _symmetry_equiv_pos_site_id
 _symmetry_equiv_pos_as_xyz
  1  'x, y, z'
loop_
 _atom_site_type_symbol
 _atom_site_label
 _atom_site_symmetry_multiplicity
 _atom_site_fract_x
 _atom_site_fract_y
 _atom_site_fract_z
 _atom_site_occupancy
  Li  Li0  1  0.83311977  0.66622419  0.71133697  1
  Li  Li1  1  0.83309785  0.16690524  0.71134962  1
  Li  Li2  1  0.33333237  0.66666791  0.82315142  1
  Li  Li3  1  0.66666836  0.33333220  0.32315022  1
  Li  Li4  1  0.66622449  0.83311842  0.21133635  1
  Li  Li5  1  0.16687714  0.33377720  0.21133988  1
  Li  Li6  1  0.16690201  0.83309492  0.21134717  1
  Li  Li7  1  0.33377678  0.16687860  0.71133661  1
  Tm  Tm0  1  0.00000059  0.00000028  0.00085440  1
  Tm  Tm1  1  -0.00000046  -0.00000008  0.50085459  1
  Tm  Tm2  1  0.51120403  0.48879598  0.00665794  1
  Tm  Tm3  1  0.02240857  0.51120487  0.50665849  1
  Tm  Tm4  1  0.48879610  0.97759202  0.50665838  1
  Tm  Tm5  1  0.51120461  0.02240838  0.00665866  1
  Tm  Tm6  1  0.97759113  0.48879516  0.00665806  1
  Tm  Tm7  1  0.48879570  0.51120392  0.50665804  1
  Sn  Sn0  1  0.16668825  0.83331155  0.76984709  1
  Sn  Sn1  1  0.66666645  0.33333379  0.74145477  1
  Sn  Sn2  1  0.33333385  0.66666658  0.24145494  1
  Sn  Sn3  1  0.83331161  0.16668791  0.26984686  1
  Sn  Sn4  1  0.16668733  0.33337408  0.76984750  1
  Sn  Sn5  1  0.33337350  0.16668691  0.26984718  1
  Sn  Sn6  1  0.83331299  0.66662574  0.26984725  1
  Sn  Sn7  1  0.66662596  0.83331321  0.76984760  1
loop_
_geom_bond_atom_site_label_1
_geom_bond_atom_site_label_2
_geom_bond_distance
_geom_bond_site_symmetry_2
Li0 Sn1 2.673934 1_555
Li0 Sn0 2.703561 1_655
Li0 Sn7 2.703723 1_555
Li0 Tm1 3.071761 1_665
Li0 Tm3 3.129542 1_655
Li0 Tm7 3.129618 1_555
Li0 Sn6 3.177545 1_555
Li0 Tm6 3.344094 1_556
Li0 Tm2 3.344146 1_556
Li0 Tm0 3.388628 1_666
Li1 Sn1 2.673731 1_555
Li1 Sn4 2.703714 1_655
Li1 Sn7 2.703735 1_545
Li1 Tm1 3.072066 1_655
Li1 Tm3 3.129490 1_655
Li1 Tm4 3.129506 1_545
Li1 Sn3 3.177639 1_555
Li1 Tm6 3.343928 1_556
Li1 Tm5 3.343949 1_556
Li1 Tm0 3.388808 1_656
Li2 Sn7 2.695799 1_555
Li2 Sn0 2.695801 1_555
Li2 Sn4 2.695802 1_555
Li2 Sn2 3.010665 1_556
Li2 Tm5 3.139415 1_566
Li2 Tm6 3.139417 1_456
Li2 Tm2 3.139481 1_556
Li2 Tm3 3.374209 1_555
Li2 Tm4 3.374211 1_555
Li2 Tm7 3.374265 1_555
Li3 Sn6 2.695798 1_555
Li3 Sn3 2.695798 1_555
Li3 Sn5 2.695808 1_555
Li3 Sn1 3.010672 1_555
Li3 Tm4 3.139414 1_545
Li3 Tm3 3.139415 1_655
Li3 Tm7 3.139491 1_555
Li3 Tm6 3.374199 1_555
Li3 Tm5 3.374203 1_555
Li3 Tm2 3.374264 1_555
Li4 Sn2 2.673936 1_555
Li4 Sn3 2.703571 1_565
Li4 Sn6 2.703711 1_555
Li4 Tm0 3.071761 1_665
Li4 Tm5 3.129551 1_565
Li4 Tm2 3.129605 1_555
Li4 Sn7 3.177538 1_554
Li4 Tm4 3.344108 1_555
Li4 Tm7 3.344143 1_555
Li4 Tm1 3.388624 1_665
Li5 Sn2 2.673924 1_555
Li5 Sn3 2.703534 1_455
Li5 Sn5 2.703750 1_555
Li5 Tm0 3.071781 1_555
Li5 Tm6 3.129523 1_455
Li5 Tm2 3.129649 1_555
Li5 Sn4 3.177564 1_554
Li5 Tm3 3.344058 1_555
Li5 Tm7 3.344150 1_555
Li5 Tm1 3.388622 1_555
Li6 Sn2 2.673735 1_555
Li6 Sn6 2.703713 1_455
Li6 Sn5 2.703737 1_565
Li6 Tm0 3.072056 1_565
Li6 Tm6 3.129485 1_455
Li6 Tm5 3.129502 1_565
Li6 Sn0 3.177620 1_554
Li6 Tm3 3.343941 1_555
Li6 Tm4 3.343965 1_555
Li6 Tm1 3.388819 1_565
Li7 Sn1 2.673928 1_555
Li7 Sn0 2.703551 1_545
Li7 Sn4 2.703740 1_555
Li7 Tm1 3.071770 1_555
Li7 Tm4 3.129525 1_545
Li7 Tm7 3.129626 1_555
Li7 Sn5 3.177543 1_555
Li7 Tm5 3.344084 1_556
Li7 Tm2 3.344159 1_556
Li7 Tm0 3.388629 1_556
Tm0 Tm1 3.598659 1_554
Tm0 Tm1 3.598662 1_555
Tm2 Tm7 3.616503 1_554
Tm2 Tm7 3.616504 1_555
Tm3 Tm6 3.616501 1_456
Tm3 Tm6 3.616507 1_455
Tm4 Tm5 3.616501 1_565
Tm4 Tm5 3.616505 1_566
Sn0 Tm0 3.144566 1_566
Sn0 Tm3 3.203508 1_555
Sn0 Tm4 3.203514 1_555
Sn0 Tm6 3.246065 1_456
Sn0 Tm5 3.246067 1_566
Sn0 Tm1 3.297297 1_565
Sn1 Tm6 3.136850 1_556
Sn1 Tm5 3.136857 1_556
Sn1 Tm2 3.136885 1_556
Sn1 Tm4 3.311700 1_545
Sn1 Tm3 3.311700 1_655
Sn1 Tm7 3.311738 1_555
Sn2 Tm3 3.136854 1_555
Sn2 Tm4 3.136856 1_555
Sn2 Tm7 3.136883 1_555
Sn2 Tm5 3.311698 1_565
Sn2 Tm6 3.311707 1_455
Sn2 Tm2 3.311739 1_555
Sn3 Tm1 3.144564 1_655
Sn3 Tm5 3.203507 1_555
Sn3 Tm6 3.203511 1_555
Sn3 Tm4 3.246060 1_545
Sn3 Tm3 3.246072 1_655
Sn3 Tm0 3.297294 1_655
Sn4 Tm0 3.144506 1_556
Sn4 Tm7 3.203516 1_555
Sn4 Tm3 3.203562 1_555
Sn4 Tm2 3.246069 1_556
Sn4 Tm6 3.246114 1_456
Sn4 Tm1 3.297242 1_555
Sn5 Tm1 3.144508 1_555
Sn5 Tm2 3.203520 1_555
Sn5 Tm5 3.203562 1_555
Sn5 Tm7 3.246074 1_555
Sn5 Tm4 3.246117 1_545
Sn5 Tm0 3.297232 1_555
Sn6 Tm1 3.144511 1_665
Sn6 Tm2 3.203520 1_555
Sn6 Tm6 3.203559 1_555
Sn6 Tm7 3.246074 1_555
Sn6 Tm3 3.246110 1_655
Sn6 Tm0 3.297243 1_665
Sn7 Tm0 3.144511 1_666
Sn7 Tm7 3.203524 1_555
Sn7 Tm4 3.203557 1_555
Sn7 Tm2 3.246073 1_556
Sn7 Tm5 3.246111 1_566
Sn7 Tm1 3.297237 1_665
