# generated using pymatgen
data_Na2RhAuF6
_symmetry_space_group_name_H-M   'P 1'
_cell_length_a   6.17441682
_cell_length_b   6.17441682
_cell_length_c   6.17441682
_cell_angle_alpha   60.00000000
_cell_angle_beta   60.00000000
_cell_angle_gamma   60.00000000
_symmetry_Int_Tables_number   1
_chemical_formula_structural   Na2RhAuF6
_chemical_formula_sum   'Na2 Rh1 Au1 F6'
_cell_volume   166.44579740
_cell_formula_units_Z   1
loop_
 _symmetry_equiv_pos_site_id
 _symmetry_equiv_pos_as_xyz
  1  'x, y, z'
loop_
 _atom_site_type_symbol
 _atom_site_label
 _atom_site_symmetry_multiplicity
 _atom_site_fract_x
 _atom_site_fract_y
 _atom_site_fract_z
 _atom_site_occupancy
  Na  Na0  1  0.75000000  0.75000000  0.75000000  1
  Na  Na1  1  0.25000000  0.25000000  0.25000000  1
  Rh  Rh0  1  0.00000000  0.00000000  0.00000000  1
  Au  Au0  1  0.50000000  0.50000000  0.50000000  1
  F  F0  1  0.76781500  0.23218500  0.23218500  1
  F  F1  1  0.23218500  0.23218500  0.76781500  1
  F  F2  1  0.23218500  0.76781500  0.76781500  1
  F  F3  1  0.23218500  0.76781500  0.23218500  1
  F  F4  1  0.76781500  0.23218500  0.76781500  1
  F  F5  1  0.76781500  0.76781500  0.23218500  1
loop_
_geom_bond_atom_site_label_1
_geom_bond_atom_site_label_2
_geom_bond_distance
_geom_bond_site_symmetry_2
Au0 F5 2.338546 1_555
Au0 F2 2.338546 1_555
Au0 F4 2.338546 1_555
Au0 F0 2.338546 1_555
Au0 F1 2.338546 1_555
Au0 F3 2.338546 1_555
F0 Rh0 2.027426 1_655
F1 Rh0 2.027426 1_556
F2 Rh0 2.027426 1_566
F3 Rh0 2.027426 1_565
F4 Rh0 2.027426 1_656
F5 Rh0 2.027426 1_665
