# generated using pymatgen
data_SrRu7N10
_symmetry_space_group_name_H-M   'P 1'
_cell_length_a   7.39882742
_cell_length_b   6.94359100
_cell_length_c   10.47275647
_cell_angle_alpha   90.00000000
_cell_angle_beta   104.47032359
_cell_angle_gamma   90.00000000
_symmetry_Int_Tables_number   1
_chemical_formula_structural   SrRu7N10
_chemical_formula_sum   'Sr2 Ru14 N20'
_cell_volume   520.96402844
_cell_formula_units_Z   2
loop_
 _symmetry_equiv_pos_site_id
 _symmetry_equiv_pos_as_xyz
  1  'x, y, z'
loop_
 _atom_site_type_symbol
 _atom_site_label
 _atom_site_symmetry_multiplicity
 _atom_site_fract_x
 _atom_site_fract_y
 _atom_site_fract_z
 _atom_site_occupancy
  Sr  Sr0  1  0.85339300  0.06629700  0.64831600  1
  Sr  Sr1  1  0.85339300  0.93370300  0.14831600  1
  Ru  Ru0  1  0.54217600  0.92618300  0.85676100  1
  Ru  Ru1  1  0.54217600  0.07381700  0.35676100  1
  Ru  Ru2  1  0.35287300  0.02949400  0.04138400  1
  Ru  Ru3  1  0.35287300  0.97050600  0.54138400  1
  Ru  Ru4  1  0.14658800  0.36661300  0.07453200  1
  Ru  Ru5  1  0.14658800  0.63338700  0.57453200  1
  Ru  Ru6  1  0.65424700  0.40028700  0.99529900  1
  Ru  Ru7  1  0.65424700  0.59971300  0.49529900  1
  Ru  Ru8  1  0.85747100  0.59979600  0.78268800  1
  Ru  Ru9  1  0.85747100  0.40020400  0.28268800  1
  Ru  Ru10  1  0.28842700  0.62767000  0.88684100  1
  Ru  Ru11  1  0.28842700  0.37233000  0.38684100  1
  Ru  Ru12  1  0.48702300  0.36152700  0.66445000  1
  Ru  Ru13  1  0.48702300  0.63847300  0.16444900  1
  N  N0  1  0.76662400  0.83366200  0.82052700  1
  N  N1  1  0.76662400  0.16633800  0.32052700  1
  N  N2  1  0.58145700  0.13404100  0.99119800  1
  N  N3  1  0.58145700  0.86595900  0.49119800  1
  N  N4  1  0.27158700  0.90083500  0.87238300  1
  N  N5  1  0.27158700  0.09916500  0.37238300  1
  N  N6  1  0.12417700  0.09835700  0.07643200  1
  N  N7  1  0.12417700  0.90164300  0.57643200  1
  N  N8  1  0.31362500  0.51792200  0.72432500  1
  N  N9  1  0.31362500  0.48207800  0.22432500  1
  N  N10  1  0.48016000  0.09414300  0.70264200  1
  N  N11  1  0.48016000  0.90585700  0.20264200  1
  N  N12  1  0.89774400  0.42165600  0.10742400  1
  N  N13  1  0.89774400  0.57834400  0.60742400  1
  N  N14  1  0.06982200  0.49897300  0.91092900  1
  N  N15  1  0.06982200  0.50102700  0.41092900  1
  N  N16  1  0.69213800  0.41233300  0.81908700  1
  N  N17  1  0.69213800  0.58766700  0.31908700  1
  N  N18  1  0.56276800  0.66987900  0.99408100  1
  N  N19  1  0.56276800  0.33012100  0.49408100  1
loop_
_geom_bond_atom_site_label_1
_geom_bond_atom_site_label_2
_geom_bond_distance
_geom_bond_site_symmetry_2
N0 Ru8 1.838181 1_555
N0 Ru0 1.905100 1_555
N0 Sr0 2.617777 1_565
N1 Ru9 1.838181 1_555
N1 Ru1 1.905100 1_555
N1 Sr1 2.617777 1_545
N2 Ru6 1.923028 1_555
N2 Ru0 1.986275 1_545
N2 Ru2 2.026768 1_556
N2 Sr1 2.652591 1_546
N3 Ru7 1.923028 1_555
N3 Ru1 1.986275 1_565
N3 Ru3 2.026768 1_555
N3 Sr0 2.652591 1_565
N4 Ru10 1.904381 1_555
N4 Ru2 1.939172 1_566
N4 Ru0 2.056601 1_555
N5 Ru11 1.904381 1_555
N5 Ru3 1.939172 1_545
N5 Ru1 2.056601 1_555
N6 Ru4 1.870573 1_555
N6 Ru2 1.880662 1_555
N6 Sr1 2.577125 1_445
N7 Ru5 1.870573 1_555
N7 Ru3 1.880662 1_555
N7 Sr0 2.577125 1_465
N8 Ru12 1.902749 1_555
N8 Ru5 1.913695 1_555
N8 Ru10 1.915939 1_555
N9 Ru13 1.902754 1_555
N9 Ru4 1.913695 1_555
N9 Ru11 1.915939 1_555
N10 Ru12 1.902549 1_555
N10 Ru3 1.918640 1_545
N10 Ru0 1.950822 1_545
N10 Sr0 2.961768 1_555
N11 Ru13 1.902551 1_555
N11 Ru2 1.918640 1_565
N11 Ru1 1.950822 1_565
N11 Sr1 2.961768 1_555
N12 Ru6 1.894566 1_554
N12 Ru9 1.937358 1_555
N12 Ru4 1.992872 1_655
N13 Ru7 1.894566 1_555
N13 Ru8 1.937358 1_555
N13 Ru5 1.992872 1_655
N14 Ru4 1.901728 1_556
N14 Ru10 1.918895 1_555
N14 Ru8 1.925569 1_455
N15 Ru5 1.901728 1_555
N15 Ru11 1.918895 1_555
N15 Ru9 1.925569 1_455
N16 Ru8 1.889200 1_555
N16 Ru6 1.936425 1_555
N16 Ru12 1.955000 1_555
N17 Ru9 1.889200 1_555
N17 Ru7 1.936425 1_555
N17 Ru13 1.955007 1_555
N18 Ru6 1.989498 1_555
N18 Ru13 2.011168 1_556
N18 Ru10 2.080400 1_555
N18 Ru0 2.269168 1_555
N18 Sr1 2.975368 1_556
N19 Ru7 1.989498 1_555
N19 Ru12 2.011178 1_555
N19 Ru11 2.080400 1_555
N19 Ru1 2.269168 1_555
N19 Sr0 2.975368 1_555
