# generated using pymatgen
data_Cr4GaCuSe8
_symmetry_space_group_name_H-M   'P 1'
_cell_length_a   7.46837131
_cell_length_b   7.46837131
_cell_length_c   7.46837131
_cell_angle_alpha   60.00000000
_cell_angle_beta   60.00000000
_cell_angle_gamma   60.00000000
_symmetry_Int_Tables_number   1
_chemical_formula_structural   Cr4GaCuSe8
_chemical_formula_sum   'Cr4 Ga1 Cu1 Se8'
_cell_volume   294.55249685
_cell_formula_units_Z   1
loop_
 _symmetry_equiv_pos_site_id
 _symmetry_equiv_pos_as_xyz
  1  'x, y, z'
loop_
 _atom_site_type_symbol
 _atom_site_label
 _atom_site_symmetry_multiplicity
 _atom_site_fract_x
 _atom_site_fract_y
 _atom_site_fract_z
 _atom_site_occupancy
  Cr  Cr0  1  0.63692400  0.12102500  0.12102500  1
  Cr  Cr1  1  0.12102500  0.63692400  0.12102500  1
  Cr  Cr2  1  0.12102500  0.12102500  0.63692400  1
  Cr  Cr3  1  0.12102500  0.12102500  0.12102500  1
  Ga  Ga0  1  0.50000000  0.50000000  0.50000000  1
  Cu  Cu0  1  0.75000000  0.75000000  0.75000000  1
  Se  Se0  1  0.34954800  0.88348400  0.88348400  1
  Se  Se1  1  0.88348400  0.34954800  0.88348400  1
  Se  Se2  1  0.88348400  0.88348400  0.34954800  1
  Se  Se3  1  0.88348400  0.88348400  0.88348400  1
  Se  Se4  1  0.90576800  0.36474400  0.36474400  1
  Se  Se5  1  0.36474400  0.90576800  0.36474400  1
  Se  Se6  1  0.36474400  0.36474400  0.90576800  1
  Se  Se7  1  0.36474400  0.36474400  0.36474400  1
loop_
_geom_bond_atom_site_label_1
_geom_bond_atom_site_label_2
_geom_bond_distance
_geom_bond_site_symmetry_2
Cr0 Se3 2.509782 1_544
Cr0 Se1 2.509787 1_554
Cr0 Se2 2.509787 1_545
Cr0 Se6 2.582885 1_554
Cr0 Se5 2.582885 1_545
Cr0 Se7 2.582890 1_555
Cr1 Se3 2.509782 1_454
Cr1 Se0 2.509787 1_554
Cr1 Se2 2.509787 1_455
Cr1 Se6 2.582885 1_554
Cr1 Se4 2.582885 1_455
Cr1 Se7 2.582890 1_555
Cr2 Se3 2.509782 1_445
Cr2 Se1 2.509787 1_455
Cr2 Se0 2.509787 1_545
Cr2 Se5 2.582885 1_545
Cr2 Se4 2.582885 1_455
Cr2 Se7 2.582890 1_555
Cr3 Se2 2.509781 1_445
Cr3 Se1 2.509781 1_454
Cr3 Se0 2.509781 1_544
Cr3 Se4 2.582890 1_455
Cr3 Se6 2.582890 1_554
Cr3 Se5 2.582890 1_545
Ga0 Se7 2.474333 1_555
Ga0 Se6 2.474333 1_555
Ga0 Se5 2.474333 1_555
Ga0 Se4 2.474333 1_555
Cu0 Se1 2.441916 1_555
Cu0 Se0 2.441916 1_555
Cu0 Se2 2.441916 1_555
Cu0 Se3 2.441916 1_555
