# generated using pymatgen
data_Eu2MnP3Pt7
_symmetry_space_group_name_H-M   'P 1'
_cell_length_a   13.89640209
_cell_length_b   13.89640209
_cell_length_c   13.89640209
_cell_angle_alpha   163.02711384
_cell_angle_beta   163.02711384
_cell_angle_gamma   24.09272546
_symmetry_Int_Tables_number   1
_chemical_formula_structural   Eu2MnP3Pt7
_chemical_formula_sum   'Eu2 Mn1 P3 Pt7'
_cell_volume   228.62543868
_cell_formula_units_Z   1
loop_
 _symmetry_equiv_pos_site_id
 _symmetry_equiv_pos_as_xyz
  1  'x, y, z'
loop_
 _atom_site_type_symbol
 _atom_site_label
 _atom_site_symmetry_multiplicity
 _atom_site_fract_x
 _atom_site_fract_y
 _atom_site_fract_z
 _atom_site_occupancy
  Eu  Eu0  1  0.66493000  0.66493000  0.00000000  1
  Eu  Eu1  1  0.33507000  0.33507000  0.00000000  1
  Mn  Mn0  1  0.50000000  0.50000000  0.00000000  1
  P  P0  1  0.87974400  0.87974400  0.00000000  1
  P  P1  1  0.12025600  0.12025600  0.00000000  1
  P  P2  1  0.25000000  0.75000000  0.50000000  1
  Pt  Pt0  1  0.42863700  0.92863700  0.50000000  1
  Pt  Pt1  1  0.92778600  0.42778600  0.50000000  1
  Pt  Pt2  1  0.57221400  0.07221400  0.50000000  1
  Pt  Pt3  1  0.07136300  0.57136300  0.50000000  1
  Pt  Pt4  1  0.79300400  0.79300400  0.00000000  1
  Pt  Pt5  1  0.20699600  0.20699600  0.00000000  1
  Pt  Pt6  1  0.00000000  0.00000000  0.00000000  1
loop_
_geom_bond_atom_site_label_1
_geom_bond_atom_site_label_2
_geom_bond_distance
_geom_bond_site_symmetry_2
Eu0 P2 3.090669 1_655
Eu0 P2 3.090669 1_554
Eu0 Pt5 3.117471 1_666
Eu0 Pt5 3.117471 1_565
Eu0 Pt5 3.117471 1_655
Eu0 Pt5 3.117471 1_554
Eu0 P1 3.144162 1_565
Eu0 P1 3.144162 1_554
Eu0 P1 3.144162 1_655
Eu0 P1 3.144162 1_666
Eu0 Pt2 3.249079 1_554
Eu0 Pt2 3.249079 1_565
Eu0 Pt3 3.267053 1_554
Eu0 Pt3 3.267053 1_655
Eu0 Pt4 3.481151 1_555
Eu1 P2 3.090669 1_544
Eu1 P2 3.090669 1_555
Eu1 Pt4 3.117471 1_455
Eu1 Pt4 3.117471 1_556
Eu1 Pt4 3.117471 1_444
Eu1 Pt4 3.117471 1_545
Eu1 P0 3.144162 1_545
Eu1 P0 3.144162 1_455
Eu1 P0 3.144162 1_556
Eu1 P0 3.144162 1_444
Eu1 Pt1 3.249079 1_454
Eu1 Pt1 3.249079 1_555
Eu1 Pt0 3.267053 1_555
Eu1 Pt0 3.267053 1_544
Eu1 Pt5 3.481151 1_555
Mn0 Pt0 2.822780 1_544
Mn0 Pt0 2.822780 1_555
Mn0 Pt3 2.822780 1_554
Mn0 Pt3 2.822780 1_655
Mn0 Pt2 2.838725 1_554
Mn0 Pt1 2.838725 1_555
Mn0 Pt1 2.838725 1_454
Mn0 Pt2 2.838725 1_565
Mn0 Pt6 2.900223 1_655
Mn0 Pt6 2.900223 1_565
Mn0 Pt6 2.900223 1_666
Mn0 Pt6 2.900223 1_554
P0 Pt4 2.357661 1_555
P0 Pt1 2.431215 1_554
P0 Pt1 2.431215 1_565
P0 Pt0 2.443717 1_655
P0 Pt0 2.443717 1_554
P1 Pt5 2.357661 1_555
P1 Pt2 2.431215 1_555
P1 Pt2 2.431215 1_454
P1 Pt3 2.443717 1_555
P1 Pt3 2.443717 1_544
P2 Pt4 2.360494 1_556
P2 Pt5 2.360494 1_566
P2 Pt4 2.360494 1_455
P2 Pt5 2.360494 1_555
Pt0 Pt6 2.822780 1_565
Pt0 Pt6 2.822780 1_666
Pt0 Pt1 2.900315 1_454
Pt0 Pt1 2.900315 1_555
Pt0 Pt1 2.900315 1_465
Pt0 Pt1 2.900315 1_566
Pt1 Pt6 2.838725 1_655
Pt1 Pt6 2.838725 1_666
Pt2 Pt6 2.838725 1_656
Pt2 Pt6 2.838725 1_555
Pt2 Pt3 2.900315 1_555
Pt2 Pt3 2.900315 1_544
Pt2 Pt3 2.900315 1_656
Pt2 Pt3 2.900315 1_645
Pt3 Pt6 2.822780 1_555
Pt3 Pt6 2.822780 1_566
