# generated using pymatgen
data_SrGd(CoO3)2
_symmetry_space_group_name_H-M   'P 1'
_cell_length_a   5.39691331
_cell_length_b   5.39691331
_cell_length_c   5.39691331
_cell_angle_alpha   60.00000000
_cell_angle_beta   90.00000000
_cell_angle_gamma   120.00000000
_symmetry_Int_Tables_number   1
_chemical_formula_structural   SrGd(CoO3)2
_chemical_formula_sum   'Sr1 Gd1 Co2 O6'
_cell_volume   111.15303585
_cell_formula_units_Z   1
loop_
 _symmetry_equiv_pos_site_id
 _symmetry_equiv_pos_as_xyz
  1  'x, y, z'
loop_
 _atom_site_type_symbol
 _atom_site_label
 _atom_site_symmetry_multiplicity
 _atom_site_fract_x
 _atom_site_fract_y
 _atom_site_fract_z
 _atom_site_occupancy
  Sr  Sr0  1  0.75000000  0.50000000  0.75000000  1
  Gd  Gd0  1  0.25000000  0.50000000  0.25000000  1
  Co  Co0  1  0.00000000  0.00000000  0.00000000  1
  Co  Co1  1  0.50000000  0.00000000  0.50000000  1
  O  O0  1  0.25000000  0.00000000  0.75000000  1
  O  O1  1  0.75000000  0.00000000  0.25000000  1
  O  O2  1  0.25000000  0.00000000  0.25000000  1
  O  O3  1  0.75000000  0.00000000  0.75000000  1
  O  O4  1  0.25000000  0.50000000  0.75000000  1
  O  O5  1  0.75000000  0.50000000  0.25000000  1
loop_
_geom_bond_atom_site_label_1
_geom_bond_atom_site_label_2
_geom_bond_distance
_geom_bond_site_symmetry_2
Gd0 O0 2.698457 1_564
Gd0 O5 2.698457 1_555
Gd0 O3 2.698457 1_455
Gd0 O1 2.698457 1_565
Gd0 O2 2.698457 1_555
Gd0 O2 2.698457 1_565
Gd0 O0 2.698457 1_555
Gd0 O4 2.698457 1_554
Gd0 O4 2.698457 1_555
Gd0 O1 2.698457 1_455
Gd0 O5 2.698457 1_455
Gd0 O3 2.698457 1_564
Co0 O5 1.908097 1_445
Co0 O0 1.908097 1_554
Co0 O2 1.908097 1_555
Co0 O1 1.908097 1_455
Co0 O4 1.908097 1_554
Co0 O3 1.908097 1_454
Co1 O4 1.908097 1_545
Co1 O3 1.908097 1_555
Co1 O0 1.908097 1_555
Co1 O2 1.908097 1_555
Co1 O1 1.908097 1_555
Co1 O5 1.908097 1_555
O0 Sr0 2.698457 1_555
O0 Sr0 2.698457 1_445
O1 Sr0 2.698457 1_545
O1 Sr0 2.698457 1_554
O2 Sr0 2.698457 1_554
O2 Sr0 2.698457 1_445
O3 Sr0 2.698457 1_545
O3 Sr0 2.698457 1_555
O4 Sr0 2.698457 1_455
O4 Sr0 2.698457 1_555
O5 Sr0 2.698457 1_554
O5 Sr0 2.698457 1_555
