# generated using pymatgen
data_Na5SbO5
_symmetry_space_group_name_H-M   'P 1'
_cell_length_a   5.77564190
_cell_length_b   5.77564190
_cell_length_c   6.36062800
_cell_angle_alpha   72.89064708
_cell_angle_beta   72.89064708
_cell_angle_gamma   44.65283902
_symmetry_Int_Tables_number   1
_chemical_formula_structural   Na5SbO5
_chemical_formula_sum   'Na5 Sb1 O5'
_cell_volume   141.37808552
_cell_formula_units_Z   1
loop_
 _symmetry_equiv_pos_site_id
 _symmetry_equiv_pos_as_xyz
  1  'x, y, z'
loop_
 _atom_site_type_symbol
 _atom_site_label
 _atom_site_symmetry_multiplicity
 _atom_site_fract_x
 _atom_site_fract_y
 _atom_site_fract_z
 _atom_site_occupancy
  Na  Na0  1  0.32122460  0.32122460  0.85670302  1
  Na  Na1  1  0.30063212  0.30063212  0.32449672  1
  Na  Na2  1  0.69936788  0.69936788  0.67550328  1
  Na  Na3  1  0.67877540  0.67877540  0.14329698  1
  Na  Na4  1  -0.00000000  -0.00000000  0.50000000  1
  Sb  Sb0  1  -0.00000000  -0.00000000  0.00000000  1
  O  O0  1  0.86697238  0.86697238  0.84403663  1
  O  O1  1  0.85624104  0.85624104  0.29400164  1
  O  O2  1  0.14375896  0.14375896  0.70599836  1
  O  O3  1  0.13302762  0.13302762  0.15596337  1
  O  O4  1  0.50000000  0.50000000  0.00000000  1
loop_
_geom_bond_atom_site_label_1
_geom_bond_atom_site_label_2
_geom_bond_distance
_geom_bond_site_symmetry_2
Na0 O0 2.243730 1_545
Na0 O0 2.243730 1_455
Na0 O3 2.287441 1_556
Na0 O4 2.363769 1_556
Na0 O2 2.381378 1_555
Na1 O1 2.265240 1_455
Na1 O1 2.265240 1_545
Na1 O3 2.361704 1_555
Na1 O4 2.449802 1_555
Na1 O2 2.472014 1_555
Na2 O2 2.265240 1_565
Na2 O2 2.265240 1_655
Na2 O0 2.361704 1_555
Na2 O4 2.449802 1_556
Na2 O1 2.472014 1_555
Na3 O3 2.243730 1_655
Na3 O3 2.243730 1_565
Na3 O0 2.287441 1_554
Na3 O4 2.363769 1_555
Na3 O1 2.381378 1_555
Na4 O0 2.197858 1_445
Na4 O3 2.197858 1_555
Na4 O1 2.314461 1_445
Na4 O2 2.314461 1_555
O0 Sb0 1.975236 1_666
O1 Sb0 2.007359 1_665
O2 Sb0 2.007359 1_556
O3 Sb0 1.975236 1_555
O4 Sb0 2.194067 1_655
O4 Sb0 2.194067 1_565
