# generated using pymatgen
data_TbF3
_symmetry_space_group_name_H-M   'P 1'
_cell_length_a   4.34191520
_cell_length_b   6.44254512
_cell_length_c   6.86929759
_cell_angle_alpha   90.00000000
_cell_angle_beta   90.00000000
_cell_angle_gamma   90.00000000
_symmetry_Int_Tables_number   1
_chemical_formula_structural   TbF3
_chemical_formula_sum   'Tb4 F12'
_cell_volume   192.15475558
_cell_formula_units_Z   4
loop_
 _symmetry_equiv_pos_site_id
 _symmetry_equiv_pos_as_xyz
  1  'x, y, z'
loop_
 _atom_site_type_symbol
 _atom_site_label
 _atom_site_symmetry_multiplicity
 _atom_site_fract_x
 _atom_site_fract_y
 _atom_site_fract_z
 _atom_site_occupancy
  Tb  Tb0  1  0.93430325  0.63037236  0.75000000  1
  Tb  Tb1  1  0.43430325  0.86962764  0.25000000  1
  Tb  Tb2  1  0.56569675  0.13037236  0.75000000  1
  Tb  Tb3  1  0.06569675  0.36962764  0.25000000  1
  F  F0  1  0.38488809  0.16585071  0.43705840  1
  F  F1  1  0.88488809  0.33414929  0.56294160  1
  F  F2  1  0.11511191  0.66585071  0.06294160  1
  F  F3  1  0.61511191  0.83414929  0.93705840  1
  F  F4  1  0.58234139  0.52071591  0.25000000  1
  F  F5  1  0.08234139  0.97928409  0.75000000  1
  F  F6  1  0.91765861  0.02071691  0.25000000  1
  F  F7  1  0.41765861  0.47928309  0.75000000  1
  F  F8  1  0.38488809  0.16585071  0.06294160  1
  F  F9  1  0.88488809  0.33414929  0.93705840  1
  F  F10  1  0.11511191  0.66585071  0.43705840  1
  F  F11  1  0.61511191  0.83414929  0.56294160  1
loop_
_geom_bond_atom_site_label_1
_geom_bond_atom_site_label_2
_geom_bond_distance
_geom_bond_site_symmetry_2
F0 Tb2 2.299939 1_555
F0 Tb3 2.301174 1_555
F0 Tb1 2.310685 1_545
F1 Tb3 2.299939 1_655
F1 Tb2 2.301174 1_555
F1 Tb0 2.310685 1_555
F2 Tb0 2.299939 1_454
F2 Tb1 2.301174 1_555
F2 Tb3 2.310685 1_555
F3 Tb1 2.299939 1_556
F3 Tb0 2.301174 1_555
F3 Tb2 2.310685 1_565
F4 Tb3 2.313436 1_655
F4 Tb1 2.337972 1_555
F4 Tb3 2.445314 1_555
F5 Tb2 2.313436 1_565
F5 Tb0 2.337972 1_455
F5 Tb2 2.445314 1_465
F6 Tb1 2.313439 1_545
F6 Tb3 2.337966 1_655
F6 Tb1 2.445317 1_645
F7 Tb0 2.313439 1_455
F7 Tb2 2.337966 1_555
F7 Tb0 2.445317 1_555
F8 Tb2 2.299939 1_554
F8 Tb3 2.301174 1_555
F8 Tb1 2.310685 1_545
F9 Tb3 2.299939 1_656
F9 Tb2 2.301174 1_555
F9 Tb0 2.310685 1_555
F10 Tb0 2.299939 1_455
F10 Tb1 2.301174 1_555
F10 Tb3 2.310685 1_555
F11 Tb1 2.299939 1_555
F11 Tb0 2.301174 1_555
F11 Tb2 2.310685 1_565
