# generated using pymatgen
data_BaTb2Mn2O7
_symmetry_space_group_name_H-M   'P 1'
_cell_length_a   10.43078322
_cell_length_b   10.43078322
_cell_length_c   10.43078322
_cell_angle_alpha   158.22612923
_cell_angle_beta   158.22612923
_cell_angle_gamma   30.98410177
_symmetry_Int_Tables_number   1
_chemical_formula_structural   BaTb2Mn2O7
_chemical_formula_sum   'Ba1 Tb2 Mn2 O7'
_cell_volume   156.05258788
_cell_formula_units_Z   1
loop_
 _symmetry_equiv_pos_site_id
 _symmetry_equiv_pos_as_xyz
  1  'x, y, z'
loop_
 _atom_site_type_symbol
 _atom_site_label
 _atom_site_symmetry_multiplicity
 _atom_site_fract_x
 _atom_site_fract_y
 _atom_site_fract_z
 _atom_site_occupancy
  Ba  Ba0  1  0.50000000  0.50000000  0.00000000  1
  Tb  Tb0  1  0.68258800  0.68258800  0.00000000  1
  Tb  Tb1  1  0.31741200  0.31741200  0.00000000  1
  Mn  Mn0  1  0.89692700  0.89692700  0.00000000  1
  Mn  Mn1  1  0.10307300  0.10307300  0.00000000  1
  O  O0  1  0.88786100  0.38786100  0.50000000  1
  O  O1  1  0.38786100  0.88786100  0.50000000  1
  O  O2  1  0.11213900  0.61213900  0.50000000  1
  O  O3  1  0.61213900  0.11213900  0.50000000  1
  O  O4  1  0.79052600  0.79052600  0.00000000  1
  O  O5  1  0.20947400  0.20947400  0.00000000  1
  O  O6  1  0.00000000  0.00000000  0.00000000  1
loop_
_geom_bond_atom_site_label_1
_geom_bond_atom_site_label_2
_geom_bond_distance
_geom_bond_site_symmetry_2
Ba0 O6 2.786111 1_666
Ba0 O6 2.786111 1_554
Ba0 O6 2.786111 1_655
Ba0 O6 2.786111 1_565
Ba0 O2 2.993914 1_554
Ba0 O1 2.993914 1_544
Ba0 O1 2.993914 1_555
Ba0 O3 2.993914 1_554
Ba0 O0 2.993914 1_555
Ba0 O2 2.993914 1_655
Ba0 O0 2.993914 1_454
Ba0 O3 2.993914 1_565
Mn0 O1 1.978491 1_554
Mn0 O1 1.978491 1_655
Mn0 O0 1.978491 1_565
Mn0 O0 1.978491 1_554
Mn0 O6 2.072140 1_665
Mn0 O4 2.139045 1_555
Mn1 O3 1.978491 1_555
Mn1 O2 1.978491 1_555
Mn1 O3 1.978491 1_454
Mn1 O2 1.978491 1_544
Mn1 O6 2.072140 1_555
Mn1 O5 2.139045 1_555
O0 Tb1 2.426325 1_555
O0 Tb1 2.426325 1_656
O1 Tb1 2.426325 1_566
O1 Tb1 2.426325 1_555
O2 Tb0 2.426325 1_556
O2 Tb0 2.426325 1_455
O3 Tb0 2.426325 1_556
O3 Tb0 2.426325 1_545
O4 Tb0 2.169944 1_555
O4 Tb1 2.838056 1_554
O4 Tb1 2.838056 1_666
O4 Tb1 2.838056 1_655
O4 Tb1 2.838056 1_565
O5 Tb1 2.169944 1_555
O5 Tb0 2.838056 1_545
O5 Tb0 2.838056 1_444
O5 Tb0 2.838056 1_455
O5 Tb0 2.838056 1_556
