# generated using pymatgen
data_V12Ga(GeS12)2
_symmetry_space_group_name_H-M   'P 1'
_cell_length_a   11.89055278
_cell_length_b   11.89055278
_cell_length_c   11.89055278
_cell_angle_alpha   146.40768934
_cell_angle_beta   131.82598993
_cell_angle_gamma   60.00886116
_symmetry_Int_Tables_number   1
_chemical_formula_structural   V12Ga(GeS12)2
_chemical_formula_sum   'V12 Ga1 Ge2 S24'
_cell_volume   686.78051656
_cell_formula_units_Z   1
loop_
 _symmetry_equiv_pos_site_id
 _symmetry_equiv_pos_as_xyz
  1  'x, y, z'
loop_
 _atom_site_type_symbol
 _atom_site_label
 _atom_site_symmetry_multiplicity
 _atom_site_fract_x
 _atom_site_fract_y
 _atom_site_fract_z
 _atom_site_occupancy
  V  V0  1  0.72963400  0.12509400  0.18779800  1
  V  V1  1  0.39494700  0.79252700  0.18747300  1
  V  V2  1  0.06270400  0.45816400  0.18779800  1
  V  V3  1  0.86770300  0.26406600  0.60363700  1
  V  V4  1  0.53560400  0.93070900  0.60489500  1
  V  V5  1  0.20089600  0.59665800  0.60423800  1
  V  V6  1  0.00758000  0.40334200  0.60423800  1
  V  V7  1  0.67418700  0.06929100  0.60489500  1
  V  V8  1  0.33957100  0.73593400  0.60363700  1
  V  V9  1  0.72963400  0.54183600  0.60454000  1
  V  V10  1  0.39494700  0.20747300  0.60242000  1
  V  V11  1  0.06270400  0.87490600  0.60454000  1
  Ga  Ga0  1  0.00044300  0.00000000  0.00044300  1
  Ge  Ge0  1  0.66643100  0.66662400  0.99980700  1
  Ge  Ge1  1  0.33318400  0.33337600  0.99980700  1
  S  S0  1  0.46953300  0.60555600  0.40866300  1
  S  S1  1  0.13760900  0.27449500  0.41210400  1
  S  S2  1  0.80310700  0.93913000  0.40866300  1
  S  S3  1  0.62100600  0.75748000  0.86352500  1
  S  S4  1  0.28837800  0.42411700  0.86426100  1
  S  S5  1  0.95396200  0.09174400  0.86221700  1
  S  S6  1  0.77047300  0.90825600  0.86221700  1
  S  S7  1  0.44014300  0.57588300  0.86426100  1
  S  S8  1  0.10604500  0.24252000  0.86352500  1
  S  S9  1  0.46953300  0.06087000  0.86397700  1
  S  S10  1  0.13760900  0.72550500  0.86311400  1
  S  S11  1  0.80310700  0.39444400  0.86397700  1
  S  S12  1  0.62835600  0.25883000  0.88718600  1
  S  S13  1  0.29548000  0.92479100  0.88732100  1
  S  S14  1  0.96253000  0.59184100  0.88732100  1
  S  S15  1  0.45787700  0.08636300  0.37151400  1
  S  S16  1  0.12343500  0.75270300  0.37073200  1
  S  S17  1  0.79060500  0.41955400  0.37105000  1
  S  S18  1  0.28515200  0.91363700  0.37151400  1
  S  S19  1  0.95149600  0.58044600  0.37105000  1
  S  S20  1  0.61802900  0.24729700  0.37073200  1
  S  S21  1  0.62835600  0.74117000  0.36952600  1
  S  S22  1  0.29548000  0.40815900  0.37068900  1
  S  S23  1  0.96253000  0.07520900  0.37068900  1
loop_
_geom_bond_atom_site_label_1
_geom_bond_atom_site_label_2
_geom_bond_distance
_geom_bond_site_symmetry_2
Ga0 S1 2.308791 1_555
Ga0 S10 2.308791 1_544
Ga0 S6 2.317238 1_444
Ga0 S5 2.317244 1_454
Ge0 S7 2.285367 1_555
Ge0 S3 2.291414 1_555
Ge0 S11 2.293059 1_555
Ge0 S2 2.293059 1_556
Ge1 S4 2.285350 1_555
Ge1 S8 2.291420 1_555
Ge1 S9 2.293054 1_555
Ge1 S0 2.293059 1_556
S0 V9 2.560031 1_555
S0 V8 2.561571 1_555
S0 V4 2.563586 1_555
S1 V10 2.539737 1_555
S1 V5 2.543382 1_555
S1 V6 2.543382 1_555
S2 V11 2.560031 1_655
S2 V3 2.561571 1_565
S2 V7 2.563575 1_565
S3 V8 2.561113 1_555
S3 V9 2.562293 1_555
S3 V0 2.562299 1_566
S4 V6 2.559695 1_555
S4 V10 2.563575 1_555
S4 V1 2.563578 1_556
S5 V7 2.539916 1_555
S5 V11 2.548961 1_645
S5 V2 2.548966 1_656
S6 V4 2.539916 1_555
S6 V0 2.548970 1_566
S6 V9 2.548970 1_555
S7 V5 2.559692 1_555
S7 V1 2.563557 1_556
S7 V10 2.563572 1_555
S8 V3 2.561107 1_455
S8 V2 2.562303 1_556
S8 V11 2.562303 1_545
S9 V0 2.560031 1_556
S9 V8 2.561571 1_545
S9 V4 2.563586 1_545
S10 V1 2.539732 1_556
S10 V6 2.543382 1_555
S10 V5 2.543382 1_555
S11 V2 2.560031 1_656
S11 V3 2.561571 1_555
S11 V7 2.563579 1_555
S12 V4 2.291684 1_545
S12 V7 2.291692 1_555
S12 V10 2.292707 1_555
S13 V11 2.285735 1_555
S13 V8 2.293015 1_555
S13 V5 2.297004 1_555
S14 V9 2.285735 1_555
S14 V3 2.293015 1_555
S14 V6 2.297004 1_655
S15 V1 2.290800 1_545
S15 V10 2.290806 1_555
S15 V7 2.292235 1_555
S16 V8 2.286716 1_555
S16 V2 2.293553 1_555
S16 V11 2.293553 1_555
S17 V6 2.287726 1_655
S17 V0 2.291969 1_555
S17 V9 2.291974 1_555
S18 V10 2.290800 1_565
S18 V1 2.290805 1_555
S18 V4 2.292226 1_555
S19 V5 2.287729 1_655
S19 V11 2.291964 1_655
S19 V2 2.291964 1_655
S20 V3 2.286716 1_555
S20 V0 2.293553 1_555
S20 V9 2.293553 1_555
S21 V4 2.291684 1_555
S21 V7 2.291687 1_565
S21 V1 2.292711 1_555
S22 V2 2.285735 1_555
S22 V8 2.293015 1_555
S22 V5 2.297004 1_555
S23 V0 2.285735 1_555
S23 V3 2.293015 1_555
S23 V6 2.297004 1_655
