# generated using pymatgen
data_KSn2F5
_symmetry_space_group_name_H-M   'P 1'
_cell_length_a   5.35398293
_cell_length_b   4.38631546
_cell_length_c   8.81536410
_cell_angle_alpha   88.01521337
_cell_angle_beta   90.00321893
_cell_angle_gamma   127.60823627
_symmetry_Int_Tables_number   1
_chemical_formula_structural   KSn2F5
_chemical_formula_sum   'K1 Sn2 F5'
_cell_volume   163.84695630
_cell_formula_units_Z   1
loop_
 _symmetry_equiv_pos_site_id
 _symmetry_equiv_pos_as_xyz
  1  'x, y, z'
loop_
 _atom_site_type_symbol
 _atom_site_label
 _atom_site_symmetry_multiplicity
 _atom_site_fract_x
 _atom_site_fract_y
 _atom_site_fract_z
 _atom_site_occupancy
  K  K0  1  0.98991400  0.97972900  0.99334200  1
  Sn  Sn0  1  0.34360400  0.68720300  0.31101100  1
  Sn  Sn1  1  0.70302200  0.40647500  0.60621100  1
  F  F0  1  0.64828200  0.29659400  0.83405700  1
  F  F1  1  0.35190700  0.70365700  0.07746000  1
  F  F2  1  0.34040300  0.18495800  0.26299200  1
  F  F3  1  0.84465400  0.18511700  0.26300000  1
  F  F4  1  0.99621400  0.99226700  0.65832700  1
loop_
_geom_bond_atom_site_label_1
_geom_bond_atom_site_label_2
_geom_bond_distance
_geom_bond_site_symmetry_2
F0 Sn1 2.028066 1_555
F0 K0 2.810282 1_555
F0 K0 3.195955 1_445
F0 K0 3.196294 1_545
F1 Sn0 2.057133 1_555
F1 K0 2.653441 1_444
F1 K0 2.928135 1_554
F1 K0 2.928241 1_454
F2 Sn0 2.219904 1_545
F2 Sn0 2.247493 1_555
F2 K0 2.840434 1_444
F3 Sn0 2.220518 1_545
F3 Sn0 2.247090 1_655
F3 K0 2.840937 1_544
F4 Sn1 2.106223 1_555
F4 K0 2.951697 1_555
