# generated using pymatgen
data_Mn2FeSe3
_symmetry_space_group_name_H-M   'P 1'
_cell_length_a   3.52574908
_cell_length_b   3.52574908
_cell_length_c   8.56452300
_cell_angle_alpha   90.00000000
_cell_angle_beta   90.00000000
_cell_angle_gamma   119.99998265
_symmetry_Int_Tables_number   1
_chemical_formula_structural   Mn2FeSe3
_chemical_formula_sum   'Mn2 Fe1 Se3'
_cell_volume   92.20122454
_cell_formula_units_Z   1
loop_
 _symmetry_equiv_pos_site_id
 _symmetry_equiv_pos_as_xyz
  1  'x, y, z'
loop_
 _atom_site_type_symbol
 _atom_site_label
 _atom_site_symmetry_multiplicity
 _atom_site_fract_x
 _atom_site_fract_y
 _atom_site_fract_z
 _atom_site_occupancy
  Mn  Mn0  1  0.33333300  0.66666700  0.66678400  1
  Mn  Mn1  1  0.66666700  0.33333300  0.33321600  1
  Fe  Fe0  1  0.00000000  0.00000000  0.00000000  1
  Se  Se0  1  0.33333300  0.66666700  0.16059800  1
  Se  Se1  1  0.66666700  0.33333300  0.83940200  1
  Se  Se2  1  0.00000000  0.00000000  0.50000000  1
loop_
_geom_bond_atom_site_label_1
_geom_bond_atom_site_label_2
_geom_bond_distance
_geom_bond_site_symmetry_2
Mn0 Se2 2.486770 1_565
Mn0 Se2 2.486773 1_555
Mn0 Se2 2.486773 1_665
Mn0 Se1 2.515804 1_455
Mn0 Se1 2.515804 1_565
Mn0 Se1 2.515808 1_555
Mn1 Se2 2.486770 1_655
Mn1 Se2 2.486773 1_665
Mn1 Se2 2.486773 1_555
Mn1 Se0 2.515804 1_545
Mn1 Se0 2.515804 1_655
Mn1 Se0 2.515808 1_555
Fe0 Se0 2.456721 1_545
Fe0 Se1 2.456721 1_454
Fe0 Se0 2.456724 1_555
Fe0 Se1 2.456724 1_444
Fe0 Se1 2.456724 1_554
Fe0 Se0 2.456724 1_445
