# generated using pymatgen
data_HfCrP
_symmetry_space_group_name_H-M   'P 1'
_cell_length_a   3.62532566
_cell_length_b   6.33776737
_cell_length_c   7.52767871
_cell_angle_alpha   90.00112417
_cell_angle_beta   90.00000365
_cell_angle_gamma   89.99999239
_symmetry_Int_Tables_number   1
_chemical_formula_structural   HfCrP
_chemical_formula_sum   'Hf4 Cr4 P4'
_cell_volume   172.95948910
_cell_formula_units_Z   4
loop_
 _symmetry_equiv_pos_site_id
 _symmetry_equiv_pos_as_xyz
  1  'x, y, z'
loop_
 _atom_site_type_symbol
 _atom_site_label
 _atom_site_symmetry_multiplicity
 _atom_site_fract_x
 _atom_site_fract_y
 _atom_site_fract_z
 _atom_site_occupancy
  Hf  Hf0  1  0.24999987  0.53044934  0.17543497  1
  Hf  Hf1  1  0.74999984  0.46960514  0.82455744  1
  Hf  Hf2  1  0.74999986  0.96956104  0.67546262  1
  Hf  Hf3  1  0.24999986  0.03037468  0.32453450  1
  Cr  Cr0  1  0.25000020  0.64354010  0.56167590  1
  Cr  Cr1  1  0.75000021  0.35652065  0.43834278  1
  Cr  Cr2  1  0.75000016  0.85647511  0.06165441  1
  Cr  Cr3  1  0.25000017  0.14347965  0.93834665  1
  P  P0  1  0.24999993  0.77260194  0.87065688  1
  P  P1  1  0.74999995  0.22737788  0.12934539  1
  P  P2  1  0.75000000  0.72739905  0.37064168  1
  P  P3  1  0.24999996  0.27261644  0.62934779  1
loop_
_geom_bond_atom_site_label_1
_geom_bond_atom_site_label_2
_geom_bond_distance
_geom_bond_site_symmetry_2
Hf0 P2 2.646322 1_455
Hf0 P2 2.646323 1_555
Hf0 P1 2.663748 1_455
Hf0 P1 2.663748 1_555
Hf0 P0 2.760280 1_554
Hf1 P3 2.646451 1_555
Hf1 P3 2.646452 1_655
Hf1 P0 2.663416 1_555
Hf1 P0 2.663417 1_655
Hf1 P1 2.760605 1_556
Hf2 P0 2.646326 1_655
Hf2 P0 2.646326 1_555
Hf2 P3 2.663708 1_565
Hf2 P3 2.663709 1_665
Hf2 P2 2.760531 1_555
Hf3 P1 2.646436 1_455
Hf3 P1 2.646437 1_555
Hf3 P2 2.663337 1_445
Hf3 P2 2.663337 1_545
Hf3 P3 2.760764 1_555
Cr0 P2 2.374071 1_555
Cr0 P2 2.374072 1_455
Cr0 P3 2.405398 1_555
Cr0 P0 2.465531 1_555
Cr1 P3 2.374002 1_655
Cr1 P3 2.374004 1_555
Cr1 P2 2.405164 1_555
Cr1 P1 2.465818 1_555
Cr2 P0 2.373911 1_654
Cr2 P0 2.373913 1_554
Cr2 P1 2.405279 1_565
Cr2 P2 2.465636 1_555
Cr3 P1 2.373953 1_556
Cr3 P1 2.373954 1_456
Cr3 P0 2.405122 1_545
Cr3 P3 2.465846 1_555
