# generated using pymatgen
data_ZnC4S4(NO6)2
_symmetry_space_group_name_H-M   'P 1'
_cell_length_a   9.60246546
_cell_length_b   7.80603367
_cell_length_c   9.06523912
_cell_angle_alpha   55.25110556
_cell_angle_beta   74.28614073
_cell_angle_gamma   86.30542490
_symmetry_Int_Tables_number   1
_chemical_formula_structural   ZnC4S4(NO6)2
_chemical_formula_sum   'Zn1 C4 S4 N2 O12'
_cell_volume   533.96847549
_cell_formula_units_Z   1
loop_
 _symmetry_equiv_pos_site_id
 _symmetry_equiv_pos_as_xyz
  1  'x, y, z'
loop_
 _atom_site_type_symbol
 _atom_site_label
 _atom_site_symmetry_multiplicity
 _atom_site_fract_x
 _atom_site_fract_y
 _atom_site_fract_z
 _atom_site_occupancy
  Zn  Zn0  1  0.50000000  0.00000000  0.50000000  1
  C  C0  1  0.26500100  0.38874000  0.73591600  1
  C  C1  1  0.73499900  0.61126000  0.26408400  1
  C  C2  1  0.89310400  0.15018300  0.79962500  1
  C  C3  1  0.10689600  0.84981700  0.20037500  1
  S  S0  1  0.20944900  0.59084500  0.89593500  1
  S  S1  1  0.79055100  0.40915500  0.10406500  1
  S  S2  1  0.49524000  0.13366800  0.76353500  1
  S  S3  1  0.50476000  0.86633200  0.23646500  1
  N  N0  1  0.36325700  0.28779300  0.73518500  1
  N  N1  1  0.63674300  0.71220700  0.26481500  1
  O  O0  1  0.35280800  0.70652400  0.82877200  1
  O  O1  1  0.64719200  0.29347600  0.17122800  1
  O  O2  1  0.17489800  0.39695800  0.08284100  1
  O  O3  1  0.82510200  0.60304200  0.91715900  1
  O  O4  1  0.91487400  0.15917900  0.66466600  1
  O  O5  1  0.08512600  0.84082100  0.33533400  1
  O  O6  1  0.56056000  0.16276800  0.56998000  1
  O  O7  1  0.43944000  0.83723200  0.43002000  1
  O  O8  1  0.26203000  0.11107300  0.52941600  1
  O  O9  1  0.73797000  0.88892700  0.47058400  1
  O  O10  1  0.22737000  0.29073200  0.43245200  1
  O  O11  1  0.77263000  0.70926800  0.56754800  1
loop_
_geom_bond_atom_site_label_1
_geom_bond_atom_site_label_2
_geom_bond_distance
_geom_bond_site_symmetry_2
C0 N0 1.190766 1_555
C1 N1 1.190766 1_555
C2 O4 1.144922 1_555
C3 O5 1.144922 1_555
N0 S2 1.657457 1_555
N1 S3 1.657457 1_555
O0 S0 1.469896 1_555
O0 Zn0 2.545738 1_565
O1 S1 1.469896 1_555
O1 Zn0 2.545738 1_555
O2 S0 1.452056 1_554
O3 S1 1.452056 1_556
O6 S2 1.578477 1_555
O6 Zn0 1.889144 1_555
O7 S3 1.578477 1_555
O7 Zn0 1.889144 1_565
O8 Zn0 2.392218 1_555
O9 Zn0 2.392218 1_565
O10 O8 1.242276 1_555
O11 O9 1.242276 1_555
