# generated using pymatgen
data_YMg30BiO32
_symmetry_space_group_name_H-M   'P 1'
_cell_length_a   8.71989400
_cell_length_b   8.71989400
_cell_length_c   8.73024400
_cell_angle_alpha   90.00000000
_cell_angle_beta   90.00000000
_cell_angle_gamma   90.00000000
_symmetry_Int_Tables_number   1
_chemical_formula_structural   YMg30BiO32
_chemical_formula_sum   'Y1 Mg30 Bi1 O32'
_cell_volume   663.81764639
_cell_formula_units_Z   1
loop_
 _symmetry_equiv_pos_site_id
 _symmetry_equiv_pos_as_xyz
  1  'x, y, z'
loop_
 _atom_site_type_symbol
 _atom_site_label
 _atom_site_symmetry_multiplicity
 _atom_site_fract_x
 _atom_site_fract_y
 _atom_site_fract_z
 _atom_site_occupancy
  Y  Y0  1  0.00000000  0.00000000  0.00000000  1
  Mg  Mg0  1  0.00000000  0.50000000  0.00000000  1
  Mg  Mg1  1  0.00000000  0.50000000  0.50000000  1
  Mg  Mg2  1  0.50000000  0.00000000  0.00000000  1
  Mg  Mg3  1  0.50000000  0.00000000  0.50000000  1
  Mg  Mg4  1  0.50000000  0.50000000  0.00000000  1
  Mg  Mg5  1  0.50000000  0.50000000  0.50000000  1
  Mg  Mg6  1  0.00000000  0.26265300  0.25180600  1
  Mg  Mg7  1  0.00000000  0.26265300  0.74819400  1
  Mg  Mg8  1  0.00000000  0.73734700  0.25180600  1
  Mg  Mg9  1  0.00000000  0.73734700  0.74819400  1
  Mg  Mg10  1  0.50000000  0.25203000  0.25062900  1
  Mg  Mg11  1  0.50000000  0.25203000  0.74937100  1
  Mg  Mg12  1  0.50000000  0.74797000  0.25062900  1
  Mg  Mg13  1  0.50000000  0.74797000  0.74937100  1
  Mg  Mg14  1  0.26265300  0.00000000  0.25180600  1
  Mg  Mg15  1  0.26265300  0.00000000  0.74819400  1
  Mg  Mg16  1  0.25203000  0.50000000  0.25062900  1
  Mg  Mg17  1  0.25203000  0.50000000  0.74937100  1
  Mg  Mg18  1  0.73734700  0.00000000  0.25180600  1
  Mg  Mg19  1  0.73734700  0.00000000  0.74819400  1
  Mg  Mg20  1  0.74797000  0.50000000  0.25062900  1
  Mg  Mg21  1  0.74797000  0.50000000  0.74937100  1
  Mg  Mg22  1  0.25708700  0.25708700  0.00000000  1
  Mg  Mg23  1  0.25583600  0.25583600  0.50000000  1
  Mg  Mg24  1  0.25708700  0.74291300  0.00000000  1
  Mg  Mg25  1  0.25583600  0.74416400  0.50000000  1
  Mg  Mg26  1  0.74291300  0.25708700  0.00000000  1
  Mg  Mg27  1  0.74416400  0.25583600  0.50000000  1
  Mg  Mg28  1  0.74291300  0.74291300  0.00000000  1
  Mg  Mg29  1  0.74416400  0.74416400  0.50000000  1
  Bi  Bi0  1  0.00000000  0.00000000  0.50000000  1
  O  O0  1  0.26014000  0.00000000  0.00000000  1
  O  O1  1  0.27857600  0.00000000  0.50000000  1
  O  O2  1  0.25224100  0.50000000  0.00000000  1
  O  O3  1  0.25571000  0.50000000  0.50000000  1
  O  O4  1  0.73986000  0.00000000  0.00000000  1
  O  O5  1  0.72142400  0.00000000  0.50000000  1
  O  O6  1  0.74775900  0.50000000  0.00000000  1
  O  O7  1  0.74429000  0.50000000  0.50000000  1
  O  O8  1  0.24938700  0.24938700  0.24885400  1
  O  O9  1  0.24938700  0.24938700  0.75114600  1
  O  O10  1  0.24938700  0.75061300  0.24885400  1
  O  O11  1  0.24938700  0.75061300  0.75114600  1
  O  O12  1  0.75061300  0.24938700  0.24885400  1
  O  O13  1  0.75061300  0.24938700  0.75114600  1
  O  O14  1  0.75061300  0.75061300  0.24885400  1
  O  O15  1  0.75061300  0.75061300  0.75114600  1
  O  O16  1  0.00000000  0.00000000  0.24116700  1
  O  O17  1  0.00000000  0.00000000  0.75883300  1
  O  O18  1  0.00000000  0.50000000  0.24487500  1
  O  O19  1  0.00000000  0.50000000  0.75512500  1
  O  O20  1  0.50000000  0.00000000  0.24487500  1
  O  O21  1  0.50000000  0.00000000  0.75512500  1
  O  O22  1  0.50000000  0.50000000  0.24836100  1
  O  O23  1  0.50000000  0.50000000  0.75163900  1
  O  O24  1  0.00000000  0.26014000  0.00000000  1
  O  O25  1  0.00000000  0.27857600  0.50000000  1
  O  O26  1  0.00000000  0.73986000  0.00000000  1
  O  O27  1  0.00000000  0.72142400  0.50000000  1
  O  O28  1  0.50000000  0.25224100  0.00000000  1
  O  O29  1  0.50000000  0.25571000  0.50000000  1
  O  O30  1  0.50000000  0.74775900  0.00000000  1
  O  O31  1  0.50000000  0.74429000  0.50000000  1
loop_
_geom_bond_atom_site_label_1
_geom_bond_atom_site_label_2
_geom_bond_distance
_geom_bond_site_symmetry_2
Mg0 O26 2.091554 1_555
Mg0 O24 2.091554 1_555
Mg0 O19 2.137818 1_554
Mg0 O18 2.137818 1_555
Mg0 O2 2.199515 1_555
Mg0 O6 2.199515 1_455
Mg1 O27 1.930794 1_555
Mg1 O25 1.930794 1_555
Mg1 O18 2.227304 1_555
Mg1 O19 2.227304 1_555
Mg1 O3 2.229764 1_555
Mg1 O7 2.229764 1_455
Mg2 O4 2.091554 1_555
Mg2 O0 2.091554 1_555
Mg2 O21 2.137818 1_554
Mg2 O20 2.137818 1_555
Mg2 O28 2.199515 1_555
Mg2 O30 2.199515 1_545
Mg3 O5 1.930794 1_555
Mg3 O1 1.930794 1_555
Mg3 O20 2.227304 1_555
Mg3 O21 2.227304 1_555
Mg3 O29 2.229764 1_555
Mg3 O31 2.229764 1_545
Mg4 O6 2.160432 1_555
Mg4 O30 2.160432 1_555
Mg4 O2 2.160432 1_555
Mg4 O28 2.160432 1_555
Mg4 O22 2.168252 1_555
Mg4 O23 2.168252 1_554
Mg5 O31 2.130183 1_555
Mg5 O3 2.130183 1_555
Mg5 O29 2.130183 1_555
Mg5 O7 2.130183 1_555
Mg5 O23 2.196870 1_555
Mg5 O22 2.196870 1_555
Mg6 O18 2.070525 1_555
Mg6 O25 2.171238 1_555
Mg6 O12 2.177855 1_455
Mg6 O8 2.177855 1_555
Mg6 O24 2.198437 1_555
Mg6 O16 2.292189 1_555
Mg7 O19 2.070525 1_555
Mg7 O25 2.171238 1_555
Mg7 O9 2.177855 1_555
Mg7 O13 2.177855 1_455
Mg7 O24 2.198437 1_556
Mg7 O17 2.292189 1_555
Mg8 O18 2.070525 1_555
Mg8 O27 2.171238 1_555
Mg8 O10 2.177855 1_555
Mg8 O14 2.177855 1_455
Mg8 O26 2.198437 1_555
Mg8 O16 2.292189 1_565
Mg9 O19 2.070525 1_555
Mg9 O27 2.171238 1_555
Mg9 O11 2.177855 1_555
Mg9 O15 2.177855 1_455
Mg9 O26 2.198437 1_556
Mg9 O17 2.292189 1_565
Mg10 O22 2.162363 1_555
Mg10 O29 2.177306 1_555
Mg10 O12 2.185495 1_555
Mg10 O8 2.185495 1_555
Mg10 O28 2.188053 1_555
Mg10 O20 2.198249 1_555
Mg11 O23 2.162363 1_555
Mg11 O29 2.177306 1_555
Mg11 O9 2.185495 1_555
Mg11 O13 2.185495 1_555
Mg11 O28 2.188053 1_556
Mg11 O21 2.198249 1_555
Mg12 O22 2.162363 1_555
Mg12 O31 2.177306 1_555
Mg12 O14 2.185495 1_555
Mg12 O10 2.185495 1_555
Mg12 O30 2.188053 1_555
Mg12 O20 2.198249 1_565
Mg13 O23 2.162363 1_555
Mg13 O31 2.177306 1_555
Mg13 O11 2.185495 1_555
Mg13 O15 2.185495 1_555
Mg13 O30 2.188053 1_556
Mg13 O21 2.198249 1_565
Mg14 O20 2.070525 1_555
Mg14 O1 2.171238 1_555
Mg14 O10 2.177855 1_545
Mg14 O8 2.177855 1_555
Mg14 O0 2.198437 1_555
Mg14 O16 2.292189 1_555
Mg15 O21 2.070525 1_555
Mg15 O1 2.171238 1_555
Mg15 O9 2.177855 1_555
Mg15 O11 2.177855 1_545
Mg15 O0 2.198437 1_556
Mg15 O17 2.292189 1_555
Mg16 O22 2.162363 1_555
Mg16 O3 2.177306 1_555
Mg16 O10 2.185495 1_555
Mg16 O8 2.185495 1_555
Mg16 O2 2.188053 1_555
Mg16 O18 2.198249 1_555
Mg17 O23 2.162363 1_555
Mg17 O3 2.177306 1_555
Mg17 O9 2.185495 1_555
Mg17 O11 2.185495 1_555
Mg17 O2 2.188053 1_556
Mg17 O19 2.198249 1_555
Mg18 O20 2.070525 1_555
Mg18 O5 2.171238 1_555
Mg18 O14 2.177855 1_545
Mg18 O12 2.177855 1_555
Mg18 O4 2.198437 1_555
Mg18 O16 2.292189 1_655
Mg19 O21 2.070525 1_555
Mg19 O5 2.171238 1_555
Mg19 O15 2.177855 1_545
Mg19 O13 2.177855 1_555
Mg19 O4 2.198437 1_556
Mg19 O17 2.292189 1_655
Mg20 O22 2.162363 1_555
Mg20 O7 2.177306 1_555
Mg20 O12 2.185495 1_555
Mg20 O14 2.185495 1_555
Mg20 O6 2.188053 1_555
Mg20 O18 2.198249 1_655
Mg21 O23 2.162363 1_555
Mg21 O7 2.177306 1_555
Mg21 O15 2.185495 1_555
Mg21 O13 2.185495 1_555
Mg21 O6 2.188053 1_556
Mg21 O19 2.198249 1_655
Mg22 O2 2.118597 1_555
Mg22 O28 2.118597 1_555
Mg22 O8 2.174630 1_555
Mg22 O9 2.174630 1_554
Mg22 O24 2.241929 1_555
Mg22 O0 2.241929 1_555
Mg23 O3 2.129084 1_555
Mg23 O29 2.129084 1_555
Mg23 O8 2.194008 1_555
Mg23 O9 2.194008 1_555
Mg23 O1 2.239658 1_555
Mg23 O25 2.239658 1_555
Mg24 O30 2.118597 1_555
Mg24 O2 2.118597 1_555
Mg24 O10 2.174630 1_555
Mg24 O11 2.174630 1_554
Mg24 O0 2.241929 1_565
Mg24 O26 2.241929 1_555
Mg25 O31 2.129084 1_555
Mg25 O3 2.129084 1_555
Mg25 O11 2.194008 1_555
Mg25 O10 2.194008 1_555
Mg25 O1 2.239658 1_565
Mg25 O27 2.239658 1_555
Mg26 O6 2.118597 1_555
Mg26 O28 2.118597 1_555
Mg26 O13 2.174630 1_554
Mg26 O12 2.174630 1_555
Mg26 O24 2.241929 1_655
Mg26 O4 2.241929 1_555
Mg27 O7 2.129084 1_555
Mg27 O29 2.129084 1_555
Mg27 O12 2.194008 1_555
Mg27 O13 2.194008 1_555
Mg27 O25 2.239658 1_655
Mg27 O5 2.239658 1_555
Mg28 O6 2.118597 1_555
Mg28 O30 2.118597 1_555
Mg28 O14 2.174630 1_555
Mg28 O15 2.174630 1_554
Mg28 O26 2.241929 1_655
Mg28 O4 2.241929 1_565
Mg29 O31 2.129084 1_555
Mg29 O7 2.129084 1_555
Mg29 O14 2.194008 1_555
Mg29 O15 2.194008 1_555
Mg29 O27 2.239658 1_655
Mg29 O5 2.239658 1_565
Bi0 O16 2.259675 1_555
Bi0 O17 2.259675 1_555
Bi0 O1 2.429153 1_555
Bi0 O25 2.429153 1_555
Bi0 O27 2.429153 1_545
Bi0 O5 2.429153 1_455
O0 Y0 2.268393 1_555
O4 Y0 2.268393 1_655
O16 Y0 2.105447 1_555
O17 Y0 2.105447 1_556
O24 Y0 2.268393 1_555
O26 Y0 2.268393 1_565
