# generated using pymatgen
data_LiFe2C2O7
_symmetry_space_group_name_H-M   'P 1'
_cell_length_a   4.87200690
_cell_length_b   4.87200690
_cell_length_c   15.96618900
_cell_angle_alpha   90.00000000
_cell_angle_beta   90.00000000
_cell_angle_gamma   120.00001219
_symmetry_Int_Tables_number   1
_chemical_formula_structural   LiFe2C2O7
_chemical_formula_sum   'Li2 Fe4 C4 O14'
_cell_volume   328.20684418
_cell_formula_units_Z   2
loop_
 _symmetry_equiv_pos_site_id
 _symmetry_equiv_pos_as_xyz
  1  'x, y, z'
loop_
 _atom_site_type_symbol
 _atom_site_label
 _atom_site_symmetry_multiplicity
 _atom_site_fract_x
 _atom_site_fract_y
 _atom_site_fract_z
 _atom_site_occupancy
  Li  Li0  1  0.00000000  0.00000000  0.98858100  1
  Li  Li1  1  0.00000000  0.00000000  0.48858100  1
  Fe  Fe0  1  0.33333300  0.66666700  0.86528700  1
  Fe  Fe1  1  0.33333300  0.66666700  0.63458500  1
  Fe  Fe2  1  0.66666700  0.33333300  0.36528700  1
  Fe  Fe3  1  0.66666700  0.33333300  0.13458500  1
  C  C0  1  0.66666700  0.33333300  0.91796500  1
  C  C1  1  0.66666700  0.33333300  0.58687000  1
  C  C2  1  0.33333300  0.66666700  0.41796500  1
  C  C3  1  0.33333300  0.66666700  0.08687000  1
  O  O0  1  0.91777500  0.60014600  0.58616200  1
  O  O1  1  0.60014600  0.91777500  0.08616200  1
  O  O2  1  0.68278100  0.60534200  0.91655000  1
  O  O3  1  0.60534200  0.68278100  0.41655000  1
  O  O4  1  0.92256100  0.31721900  0.91655000  1
  O  O5  1  0.31721900  0.92256100  0.41655000  1
  O  O6  1  0.66666700  0.33333300  0.24370300  1
  O  O7  1  0.33333300  0.66666700  0.74370300  1
  O  O8  1  0.68237100  0.08222500  0.58616200  1
  O  O9  1  0.08222500  0.68237100  0.08616200  1
  O  O10  1  0.39985400  0.31762900  0.58616200  1
  O  O11  1  0.31762900  0.39985400  0.08616200  1
  O  O12  1  0.39465800  0.07743900  0.91655000  1
  O  O13  1  0.07743900  0.39465800  0.41655000  1
loop_
_geom_bond_atom_site_label_1
_geom_bond_atom_site_label_2
_geom_bond_distance
_geom_bond_site_symmetry_2
Li0 O2 2.106328 1_445
Li0 O12 2.106328 1_555
Li0 O4 2.106329 1_455
Li0 O11 2.366957 1_556
Li0 O1 2.366957 1_446
Li0 O9 2.366958 1_546
Li1 O3 2.106328 1_445
Li1 O13 2.106328 1_555
Li1 O5 2.106329 1_545
Li1 O10 2.366957 1_555
Li1 O0 2.366957 1_445
Li1 O8 2.366958 1_455
Fe0 O7 1.941233 1_555
Fe0 O12 2.041169 1_565
Fe0 O4 2.041170 1_455
Fe0 O2 2.041173 1_555
Fe1 O7 1.742199 1_555
Fe1 O0 2.036080 1_455
Fe1 O8 2.036081 1_565
Fe1 O10 2.036085 1_555
Fe2 O6 1.941233 1_555
Fe2 O13 2.041169 1_655
Fe2 O5 2.041170 1_545
Fe2 O3 2.041173 1_555
Fe3 O6 1.742199 1_555
Fe3 O1 2.036080 1_545
Fe3 O9 2.036081 1_655
Fe3 O11 2.036085 1_555
C0 O4 1.287965 1_555
C0 O12 1.287968 1_555
C0 O2 1.287970 1_555
C1 O8 1.263444 1_555
C1 O0 1.263447 1_555
C1 O10 1.263449 1_555
C2 O5 1.287965 1_555
C2 O13 1.287968 1_555
C2 O3 1.287970 1_555
C3 O9 1.263444 1_555
C3 O1 1.263447 1_555
C3 O11 1.263449 1_555
