# generated using pymatgen
data_NaH4IO7
_symmetry_space_group_name_H-M   'P 1'
_cell_length_a   5.54238400
_cell_length_b   5.72092474
_cell_length_c   5.73069137
_cell_angle_alpha   62.43892766
_cell_angle_beta   64.98406738
_cell_angle_gamma   64.05934676
_symmetry_Int_Tables_number   1
_chemical_formula_structural   NaH4IO7
_chemical_formula_sum   'Na1 H4 I1 O7'
_cell_volume   139.20643614
_cell_formula_units_Z   1
loop_
 _symmetry_equiv_pos_site_id
 _symmetry_equiv_pos_as_xyz
  1  'x, y, z'
loop_
 _atom_site_type_symbol
 _atom_site_label
 _atom_site_symmetry_multiplicity
 _atom_site_fract_x
 _atom_site_fract_y
 _atom_site_fract_z
 _atom_site_occupancy
  Na  Na0  1  0.36857800  0.35395300  0.37144000  1
  H  H0  1  0.96063300  0.44970900  0.01726900  1
  H  H1  1  0.00722300  0.96134500  0.44364500  1
  H  H2  1  0.45258700  0.00573700  0.97316700  1
  H  H3  1  0.33703200  0.62937400  0.80901600  1
  I  I0  1  0.98229000  0.01131500  0.99408200  1
  O  O0  1  0.55221700  0.55200100  0.54773100  1
  O  O1  1  0.16624500  0.63174700  0.98067900  1
  O  O2  1  0.95809000  0.16356900  0.63804200  1
  O  O3  1  0.63294100  0.96212500  0.16352900  1
  O  O4  1  0.81984900  0.36023400  0.05785500  1
  O  O5  1  0.07034500  0.82779700  0.34760400  1
  O  O6  1  0.34937000  0.06849400  0.83334100  1
loop_
_geom_bond_atom_site_label_1
_geom_bond_atom_site_label_2
_geom_bond_distance
_geom_bond_site_symmetry_2
Na0 O6 2.366113 1_555
Na0 O4 2.388275 1_555
Na0 O5 2.455103 1_555
Na0 O1 2.463568 1_554
Na0 O0 2.505606 1_555
Na0 O2 2.526820 1_455
Na0 O3 2.590927 1_545
H0 O4 1.005350 1_555
H1 O5 1.000735 1_555
H2 O6 1.019812 1_555
H2 O3 1.644289 1_546
H3 O1 1.038032 1_555
H3 O0 1.581620 1_555
I0 O3 1.845208 1_546
I0 O2 1.850503 1_555
I0 O4 1.937323 1_556
I0 O6 1.952723 1_655
I0 O5 1.965821 1_646
I0 O1 1.977851 1_645
