# generated using pymatgen
data_Mg3Co2(GeO4)3
_symmetry_space_group_name_H-M   'P 1'
_cell_length_a   10.15253102
_cell_length_b   10.15253102
_cell_length_c   10.15253102
_cell_angle_alpha   109.47122063
_cell_angle_beta   109.47122063
_cell_angle_gamma   109.47122063
_symmetry_Int_Tables_number   1
_chemical_formula_structural   Mg3Co2(GeO4)3
_chemical_formula_sum   'Mg12 Co8 Ge12 O48'
_cell_volume   805.56592062
_cell_formula_units_Z   4
loop_
 _symmetry_equiv_pos_site_id
 _symmetry_equiv_pos_as_xyz
  1  'x, y, z'
loop_
 _atom_site_type_symbol
 _atom_site_label
 _atom_site_symmetry_multiplicity
 _atom_site_fract_x
 _atom_site_fract_y
 _atom_site_fract_z
 _atom_site_occupancy
  Mg  Mg0  1  0.25000000  0.87500000  0.62500000  1
  Mg  Mg1  1  0.75000000  0.62500000  0.87500000  1
  Mg  Mg2  1  0.62500000  0.87500000  0.75000000  1
  Mg  Mg3  1  0.87500000  0.62500000  0.25000000  1
  Mg  Mg4  1  0.62500000  0.25000000  0.87500000  1
  Mg  Mg5  1  0.87500000  0.75000000  0.62500000  1
  Mg  Mg6  1  0.75000000  0.12500000  0.37500000  1
  Mg  Mg7  1  0.25000000  0.37500000  0.12500000  1
  Mg  Mg8  1  0.37500000  0.12500000  0.25000000  1
  Mg  Mg9  1  0.12500000  0.37500000  0.75000000  1
  Mg  Mg10  1  0.37500000  0.75000000  0.12500000  1
  Mg  Mg11  1  0.12500000  0.25000000  0.37500000  1
  Co  Co0  1  0.50000000  0.50000000  0.50000000  1
  Co  Co1  1  0.50000000  -0.00000000  0.50000000  1
  Co  Co2  1  0.00000000  0.50000000  0.50000000  1
  Co  Co3  1  0.50000000  0.50000000  -0.00000000  1
  Co  Co4  1  0.00000000  -0.00000000  0.50000000  1
  Co  Co5  1  0.00000000  0.50000000  -0.00000000  1
  Co  Co6  1  0.50000000  -0.00000000  -0.00000000  1
  Co  Co7  1  0.00000000  -0.00000000  -0.00000000  1
  Ge  Ge0  1  0.12500000  0.75000000  0.87500000  1
  Ge  Ge1  1  0.87500000  0.25000000  0.12500000  1
  Ge  Ge2  1  0.62500000  0.37500000  0.25000000  1
  Ge  Ge3  1  0.75000000  0.87500000  0.12500000  1
  Ge  Ge4  1  0.87500000  0.12500000  0.75000000  1
  Ge  Ge5  1  0.25000000  0.62500000  0.37500000  1
  Ge  Ge6  1  0.75000000  0.37500000  0.62500000  1
  Ge  Ge7  1  0.25000000  0.12500000  0.87500000  1
  Ge  Ge8  1  0.12500000  0.87500000  0.25000000  1
  Ge  Ge9  1  0.37500000  0.62500000  0.75000000  1
  Ge  Ge10  1  0.62500000  0.75000000  0.37500000  1
  Ge  Ge11  1  0.37500000  0.25000000  0.62500000  1
  O  O0  1  0.41930733  0.82272703  0.79493140  1
  O  O1  1  0.87562407  0.40342070  0.08069267  1
  O  O2  1  0.09657930  0.97220337  0.67727297  1
  O  O3  1  0.52779663  0.62437593  0.70506860  1
  O  O4  1  0.67727297  0.08069267  0.70506860  1
  O  O5  1  0.62437593  0.70506860  0.52779663  1
  O  O6  1  0.62437593  0.41930733  0.09657930  1
  O  O7  1  0.70506860  0.52779663  0.62437593  1
  O  O8  1  0.82272703  0.52779663  0.40342070  1
  O  O9  1  0.97220337  0.79493140  0.87562407  1
  O  O10  1  0.79493140  0.87562407  0.97220337  1
  O  O11  1  0.70506860  0.67727297  0.08069267  1
  O  O12  1  0.41930733  0.09657930  0.62437593  1
  O  O13  1  0.40342070  0.82272703  0.52779663  1
  O  O14  1  0.08069267  0.70506860  0.67727297  1
  O  O15  1  0.09657930  0.62437593  0.41930733  1
  O  O16  1  0.52779663  0.40342070  0.82272703  1
  O  O17  1  0.08069267  0.87562407  0.40342070  1
  O  O18  1  0.97220337  0.67727297  0.09657930  1
  O  O19  1  0.17727297  0.47220337  0.59657930  1
  O  O20  1  0.67727297  0.09657930  0.97220337  1
  O  O21  1  0.79493140  0.41930733  0.82272703  1
  O  O22  1  0.40342070  0.08069267  0.87562407  1
  O  O23  1  0.87562407  0.97220337  0.79493140  1
  O  O24  1  0.58069267  0.17727297  0.20506860  1
  O  O25  1  0.12437593  0.59657930  0.91930733  1
  O  O26  1  0.90342070  0.02779663  0.32272703  1
  O  O27  1  0.47220337  0.37562407  0.29493140  1
  O  O28  1  0.32272703  0.91930733  0.29493140  1
  O  O29  1  0.37562407  0.29493140  0.47220337  1
  O  O30  1  0.37562407  0.58069267  0.90342070  1
  O  O31  1  0.29493140  0.47220337  0.37562407  1
  O  O32  1  0.12437593  0.02779663  0.20506860  1
  O  O33  1  0.59657930  0.91930733  0.12437593  1
  O  O34  1  0.20506860  0.58069267  0.17727297  1
  O  O35  1  0.17727297  0.20506860  0.58069267  1
  O  O36  1  0.32272703  0.90342070  0.02779663  1
  O  O37  1  0.02779663  0.32272703  0.90342070  1
  O  O38  1  0.91930733  0.12437593  0.59657930  1
  O  O39  1  0.47220337  0.59657930  0.17727297  1
  O  O40  1  0.90342070  0.37562407  0.58069267  1
  O  O41  1  0.91930733  0.29493140  0.32272703  1
  O  O42  1  0.59657930  0.17727297  0.47220337  1
  O  O43  1  0.58069267  0.90342070  0.37562407  1
  O  O44  1  0.29493140  0.32272703  0.91930733  1
  O  O45  1  0.20506860  0.12437593  0.02779663  1
  O  O46  1  0.02779663  0.20506860  0.12437593  1
  O  O47  1  0.82272703  0.79493140  0.41930733  1
loop_
_geom_bond_atom_site_label_1
_geom_bond_atom_site_label_2
_geom_bond_distance
_geom_bond_site_symmetry_2
Mg0 O22 2.215482 1_565
Mg0 O15 2.215482 1_555
Mg0 O13 2.215485 1_555
Mg0 O2 2.215485 1_555
Mg0 O12 2.335421 1_565
Mg0 O17 2.335421 1_555
Mg0 O0 2.335429 1_555
Mg0 O14 2.335429 1_555
Mg1 O21 2.215482 1_555
Mg1 O11 2.215482 1_556
Mg1 O7 2.215482 1_555
Mg1 O10 2.215482 1_555
Mg1 O18 2.335417 1_556
Mg1 O16 2.335417 1_555
Mg1 O9 2.335421 1_555
Mg1 O3 2.335421 1_555
Mg2 O0 2.215482 1_555
Mg2 O4 2.215482 1_565
Mg2 O3 2.215482 1_555
Mg2 O23 2.215482 1_555
Mg2 O20 2.335417 1_565
Mg2 O13 2.335417 1_555
Mg2 O10 2.335421 1_555
Mg2 O5 2.335421 1_555
Mg3 O17 2.215482 1_655
Mg3 O6 2.215482 1_555
Mg3 O8 2.215485 1_555
Mg3 O18 2.215485 1_555
Mg3 O15 2.335421 1_655
Mg3 O1 2.335421 1_555
Mg3 O47 2.335429 1_555
Mg3 O11 2.335429 1_555
Mg4 O1 2.215482 1_556
Mg4 O12 2.215482 1_555
Mg4 O16 2.215485 1_555
Mg4 O20 2.215485 1_555
Mg4 O6 2.335421 1_556
Mg4 O22 2.335421 1_555
Mg4 O21 2.335429 1_555
Mg4 O4 2.335429 1_555
Mg5 O47 2.215482 1_555
Mg5 O14 2.215482 1_655
Mg5 O5 2.215482 1_555
Mg5 O9 2.215482 1_555
Mg5 O2 2.335417 1_655
Mg5 O8 2.335417 1_555
Mg5 O23 2.335421 1_555
Mg5 O7 2.335421 1_555
Mg6 O40 2.215482 1_555
Mg6 O33 2.215482 1_545
Mg6 O26 2.215485 1_555
Mg6 O42 2.215485 1_555
Mg6 O38 2.335421 1_555
Mg6 O43 2.335421 1_545
Mg6 O41 2.335429 1_555
Mg6 O24 2.335429 1_555
Mg7 O34 2.215482 1_555
Mg7 O44 2.215482 1_554
Mg7 O45 2.215482 1_555
Mg7 O31 2.215482 1_555
Mg7 O39 2.335417 1_555
Mg7 O37 2.335417 1_554
Mg7 O27 2.335421 1_555
Mg7 O46 2.335421 1_555
Mg8 O24 2.215482 1_555
Mg8 O28 2.215482 1_545
Mg8 O32 2.215482 1_555
Mg8 O27 2.215482 1_555
Mg8 O42 2.335417 1_555
Mg8 O36 2.335417 1_545
Mg8 O29 2.335421 1_555
Mg8 O45 2.335421 1_555
Mg9 O38 2.215482 1_455
Mg9 O30 2.215482 1_555
Mg9 O37 2.215485 1_555
Mg9 O19 2.215485 1_555
Mg9 O25 2.335421 1_555
Mg9 O40 2.335421 1_455
Mg9 O35 2.335429 1_555
Mg9 O44 2.335429 1_555
Mg10 O43 2.215482 1_555
Mg10 O25 2.215482 1_554
Mg10 O36 2.215485 1_555
Mg10 O39 2.215485 1_555
Mg10 O33 2.335421 1_555
Mg10 O30 2.335421 1_554
Mg10 O34 2.335429 1_555
Mg10 O28 2.335429 1_555
Mg11 O41 2.215482 1_455
Mg11 O35 2.215482 1_555
Mg11 O46 2.215482 1_555
Mg11 O29 2.215482 1_555
Mg11 O19 2.335417 1_555
Mg11 O26 2.335417 1_455
Mg11 O31 2.335421 1_555
Mg11 O32 2.335421 1_555
Co0 O3 1.904417 1_555
Co0 O7 1.904417 1_555
Co0 O5 1.904417 1_555
Co0 O31 1.904417 1_555
Co0 O27 1.904417 1_555
Co0 O29 1.904417 1_555
Co1 O12 1.904417 1_555
Co1 O43 1.904417 1_545
Co1 O4 1.904422 1_555
Co1 O28 1.904422 1_545
Co1 O42 1.904426 1_555
Co1 O13 1.904426 1_545
Co2 O15 1.904417 1_555
Co2 O40 1.904417 1_455
Co2 O14 1.904422 1_555
Co2 O41 1.904422 1_455
Co2 O19 1.904426 1_555
Co2 O8 1.904426 1_455
Co3 O6 1.904417 1_555
Co3 O30 1.904417 1_554
Co3 O11 1.904422 1_555
Co3 O44 1.904422 1_554
Co3 O39 1.904426 1_555
Co3 O16 1.904426 1_554
Co4 O38 1.904417 1_455
Co4 O17 1.904417 1_545
Co4 O35 1.904422 1_555
Co4 O47 1.904422 1_445
Co4 O2 1.904426 1_545
Co4 O26 1.904426 1_455
Co5 O25 1.904417 1_554
Co5 O1 1.904417 1_455
Co5 O34 1.904422 1_555
Co5 O21 1.904422 1_454
Co5 O18 1.904426 1_455
Co5 O37 1.904426 1_554
Co6 O33 1.904417 1_545
Co6 O22 1.904417 1_554
Co6 O24 1.904422 1_555
Co6 O0 1.904422 1_544
Co6 O20 1.904426 1_554
Co6 O36 1.904426 1_545
Co7 O46 1.904417 1_555
Co7 O45 1.904417 1_555
Co7 O32 1.904417 1_555
Co7 O23 1.904417 1_444
Co7 O10 1.904417 1_444
Co7 O9 1.904417 1_444
Ge0 O14 1.758103 1_555
Ge0 O36 1.758107 1_556
Ge0 O9 1.758113 1_455
Ge0 O25 1.758113 1_555
Ge1 O41 1.758103 1_555
Ge1 O20 1.758107 1_554
Ge1 O1 1.758113 1_555
Ge1 O46 1.758113 1_655
Ge2 O24 1.758103 1_555
Ge2 O8 1.758107 1_555
Ge2 O27 1.758113 1_555
Ge2 O6 1.758113 1_555
Ge3 O11 1.758103 1_555
Ge3 O26 1.758107 1_565
Ge3 O10 1.758113 1_554
Ge3 O33 1.758113 1_555
Ge4 O4 1.758103 1_555
Ge4 O37 1.758107 1_655
Ge4 O23 1.758113 1_545
Ge4 O38 1.758113 1_555
Ge5 O34 1.758103 1_555
Ge5 O13 1.758107 1_555
Ge5 O31 1.758113 1_555
Ge5 O15 1.758113 1_555
Ge6 O21 1.758103 1_555
Ge6 O42 1.758107 1_555
Ge6 O40 1.758113 1_555
Ge6 O7 1.758113 1_555
Ge7 O44 1.758103 1_555
Ge7 O2 1.758107 1_545
Ge7 O22 1.758113 1_555
Ge7 O45 1.758113 1_556
Ge8 O28 1.758103 1_555
Ge8 O18 1.758107 1_455
Ge8 O17 1.758113 1_555
Ge8 O32 1.758113 1_565
Ge9 O0 1.758103 1_555
Ge9 O19 1.758107 1_555
Ge9 O30 1.758113 1_555
Ge9 O3 1.758113 1_555
Ge10 O47 1.758103 1_555
Ge10 O39 1.758107 1_555
Ge10 O43 1.758113 1_555
Ge10 O5 1.758113 1_555
Ge11 O35 1.758103 1_555
Ge11 O16 1.758107 1_555
Ge11 O29 1.758113 1_555
Ge11 O12 1.758113 1_555
