# generated using pymatgen
data_BaCaMg14
_symmetry_space_group_name_H-M   'P 1'
_cell_length_a   6.82358588
_cell_length_b   6.82358525
_cell_length_c   10.48723279
_cell_angle_alpha   90.00000000
_cell_angle_beta   90.00000000
_cell_angle_gamma   120.00000305
_symmetry_Int_Tables_number   1
_chemical_formula_structural   BaCaMg14
_chemical_formula_sum   'Ba1 Ca1 Mg14'
_cell_volume   422.87967334
_cell_formula_units_Z   1
loop_
 _symmetry_equiv_pos_site_id
 _symmetry_equiv_pos_as_xyz
  1  'x, y, z'
loop_
 _atom_site_type_symbol
 _atom_site_label
 _atom_site_symmetry_multiplicity
 _atom_site_fract_x
 _atom_site_fract_y
 _atom_site_fract_z
 _atom_site_occupancy
  Ba  Ba0  1  0.16666700  0.33333300  0.62500000  1
  Ca  Ca0  1  0.16666700  0.33333300  0.12500000  1
  Mg  Mg0  1  0.17224684  0.83612292  0.12500000  1
  Mg  Mg1  1  0.17994101  0.83997001  0.62500000  1
  Mg  Mg2  1  0.66387708  0.32775316  0.12500000  1
  Mg  Mg3  1  0.66002999  0.32005899  0.62500000  1
  Mg  Mg4  1  0.66387708  0.83612292  0.12500000  1
  Mg  Mg5  1  0.66002999  0.83997001  0.62500000  1
  Mg  Mg6  1  0.34363024  0.15636976  0.36880796  1
  Mg  Mg7  1  0.34363024  0.15636976  0.88119204  1
  Mg  Mg8  1  0.34363024  0.68726148  0.36880796  1
  Mg  Mg9  1  0.34363024  0.68726148  0.88119204  1
  Mg  Mg10  1  0.81273852  0.15636976  0.36880796  1
  Mg  Mg11  1  0.81273852  0.15636976  0.88119204  1
  Mg  Mg12  1  0.83333300  0.66666700  0.37732368  1
  Mg  Mg13  1  0.83333300  0.66666700  0.87267632  1
loop_
_geom_bond_atom_site_label_1
_geom_bond_atom_site_label_2
_geom_bond_distance
_geom_bond_site_symmetry_2
Ba0 Mg6 3.404841 1_555
Ba0 Mg7 3.404841 1_555
Ba0 Mg8 3.404848 1_555
Ba0 Mg9 3.404848 1_555
Ba0 Mg10 3.404848 1_455
Ba0 Mg11 3.404848 1_455
Ba0 Mg1 3.412694 1_545
Ba0 Mg5 3.412694 1_555
Ba0 Mg5 3.412694 1_445
Ba0 Mg1 3.412694 1_555
Ba0 Mg3 3.412695 1_555
Ba0 Mg3 3.412695 1_455
Ca0 Mg7 3.303321 1_554
Ca0 Mg6 3.303321 1_555
Ca0 Mg9 3.303328 1_554
Ca0 Mg8 3.303328 1_555
Ca0 Mg11 3.303329 1_454
Ca0 Mg10 3.303329 1_455
Ca0 Mg0 3.411952 1_555
Ca0 Mg4 3.411952 1_555
Ca0 Mg4 3.411952 1_445
Ca0 Mg0 3.411952 1_545
Ca0 Mg2 3.411952 1_455
Ca0 Mg2 3.411952 1_555
Mg0 Mg9 3.181961 1_554
Mg0 Mg8 3.181961 1_555
Mg0 Mg7 3.181968 1_564
Mg0 Mg6 3.181968 1_565
Mg0 Mg13 3.318640 1_454
Mg0 Mg12 3.318640 1_455
Mg0 Mg2 3.354681 1_565
Mg0 Mg4 3.354681 1_555
Mg0 Mg2 3.468904 1_455
Mg0 Mg4 3.468905 1_455
Mg1 Mg8 3.273509 1_555
Mg1 Mg9 3.273509 1_555
Mg1 Mg6 3.273515 1_565
Mg1 Mg7 3.273515 1_565
Mg1 Mg3 3.275928 1_565
Mg1 Mg5 3.275928 1_555
Mg1 Mg12 3.307869 1_455
Mg1 Mg13 3.307869 1_455
Mg2 Mg7 3.181968 1_554
Mg2 Mg6 3.181968 1_555
Mg2 Mg4 3.354681 1_545
Mg2 Mg4 3.468904 1_555
Mg3 Mg6 3.273515 1_555
Mg3 Mg7 3.273515 1_555
Mg3 Mg5 3.275928 1_545
Mg4 Mg9 3.181968 1_554
Mg4 Mg8 3.181968 1_555
Mg5 Mg8 3.273516 1_555
Mg5 Mg9 3.273516 1_555
Mg6 Mg8 3.201000 1_545
Mg7 Mg9 3.201000 1_545
Mg10 Mg2 3.181961 1_555
Mg10 Mg4 3.181968 1_545
Mg10 Mg8 3.201000 1_545
Mg10 Mg6 3.201001 1_555
Mg10 Mg3 3.273509 1_555
Mg10 Mg5 3.273515 1_545
Mg10 Mg12 3.415130 1_555
Mg10 Mg12 3.415130 1_545
Mg11 Mg2 3.181961 1_556
Mg11 Mg4 3.181968 1_546
Mg11 Mg9 3.201000 1_545
Mg11 Mg7 3.201001 1_555
Mg11 Mg3 3.273509 1_555
Mg11 Mg5 3.273515 1_545
Mg11 Mg13 3.415130 1_555
Mg11 Mg13 3.415130 1_545
Mg12 Mg5 3.307862 1_555
Mg12 Mg3 3.307869 1_555
Mg12 Mg4 3.318633 1_555
Mg12 Mg2 3.318640 1_555
Mg12 Mg6 3.415130 1_555
Mg12 Mg6 3.415130 1_665
Mg12 Mg8 3.415131 1_555
Mg12 Mg8 3.415131 1_655
Mg13 Mg5 3.307862 1_555
Mg13 Mg3 3.307869 1_555
Mg13 Mg4 3.318633 1_556
Mg13 Mg2 3.318640 1_556
Mg13 Mg7 3.415130 1_555
Mg13 Mg7 3.415130 1_665
Mg13 Mg9 3.415131 1_555
Mg13 Mg9 3.415131 1_655
