# generated using pymatgen
data_ThSbRh
_symmetry_space_group_name_H-M   'P 1'
_cell_length_a   4.74270964
_cell_length_b   4.74270940
_cell_length_c   4.74271076
_cell_angle_alpha   60.00000488
_cell_angle_beta   60.00000656
_cell_angle_gamma   60.00000262
_symmetry_Int_Tables_number   1
_chemical_formula_structural   ThSbRh
_chemical_formula_sum   'Th1 Sb1 Rh1'
_cell_volume   75.43358354
_cell_formula_units_Z   1
loop_
 _symmetry_equiv_pos_site_id
 _symmetry_equiv_pos_as_xyz
  1  'x, y, z'
loop_
 _atom_site_type_symbol
 _atom_site_label
 _atom_site_symmetry_multiplicity
 _atom_site_fract_x
 _atom_site_fract_y
 _atom_site_fract_z
 _atom_site_occupancy
  Th  Th0  1  0.00000000  -0.00000000  0.00000000  1
  Sb  Sb0  1  0.50000000  0.50000000  0.50000000  1
  Rh  Rh0  1  0.25000000  0.25000000  0.25000000  1
loop_
_geom_bond_atom_site_label_1
_geom_bond_atom_site_label_2
_geom_bond_distance
_geom_bond_site_symmetry_2
Sb0 Th0 3.353602 1_665
Sb0 Th0 3.353602 1_556
Sb0 Th0 3.353603 1_566
Sb0 Th0 3.353603 1_655
Sb0 Th0 3.353603 1_565
Sb0 Th0 3.353603 1_656
Rh0 Th0 2.904305 1_565
Rh0 Sb0 2.904305 1_545
Rh0 Th0 2.904305 1_555
Rh0 Sb0 2.904305 1_555
Rh0 Sb0 2.904305 1_455
Rh0 Th0 2.904305 1_655
Rh0 Sb0 2.904306 1_554
Rh0 Th0 2.904306 1_556
