# generated using pymatgen
data_Sr3(CoO3)2
_symmetry_space_group_name_H-M   'P 1'
_cell_length_a   6.58022737
_cell_length_b   6.51591989
_cell_length_c   6.52214088
_cell_angle_alpha   93.91470879
_cell_angle_beta   93.52592243
_cell_angle_gamma   93.57178352
_symmetry_Int_Tables_number   1
_chemical_formula_structural   Sr3(CoO3)2
_chemical_formula_sum   'Sr6 Co4 O12'
_cell_volume   277.84265638
_cell_formula_units_Z   2
loop_
 _symmetry_equiv_pos_site_id
 _symmetry_equiv_pos_as_xyz
  1  'x, y, z'
loop_
 _atom_site_type_symbol
 _atom_site_label
 _atom_site_symmetry_multiplicity
 _atom_site_fract_x
 _atom_site_fract_y
 _atom_site_fract_z
 _atom_site_occupancy
  Sr  Sr0  1  0.61754640  0.88133057  0.25415568  1
  Sr  Sr1  1  0.88290849  0.24654073  0.61818623  1
  Sr  Sr2  1  0.24922494  0.62158875  0.87837286  1
  Sr  Sr3  1  0.11706479  0.75352064  0.38180029  1
  Sr  Sr4  1  0.75066662  0.37846268  0.12162874  1
  Sr  Sr5  1  0.38241668  0.11863556  0.74591748  1
  Co  Co0  1  0.50000493  0.50000757  0.49990241  1
  Co  Co1  1  0.00008613  -0.00005037  0.00003528  1
  Co  Co2  1  0.25075797  0.25584577  0.24348630  1
  Co  Co3  1  0.74900517  0.74436257  0.75666889  1
  O  O0  1  0.53852009  0.21937388  0.41125386  1
  O  O1  1  0.22017524  0.40402887  0.52789208  1
  O  O2  1  0.40797961  0.52909395  0.21733215  1
  O  O3  1  0.03804781  0.91061650  0.71971911  1
  O  O4  1  0.90894576  0.71728068  0.03060480  1
  O  O5  1  0.71992886  0.02676437  0.90359687  1
  O  O6  1  0.46147693  0.78061637  0.58871677  1
  O  O7  1  0.77985674  0.59582209  0.47201426  1
  O  O8  1  0.59222905  0.47110305  0.78256348  1
  O  O9  1  0.96186168  0.08928301  0.28034487  1
  O  O10  1  0.09121717  0.28265960  0.96953154  1
  O  O11  1  0.28007293  0.97311214  0.09627504  1
loop_
_geom_bond_atom_site_label_1
_geom_bond_atom_site_label_2
_geom_bond_distance
_geom_bond_site_symmetry_2
Co0 O0 1.916679 1_555
Co0 O6 1.916809 1_555
Co0 O2 1.929726 1_555
Co0 O8 1.930410 1_555
Co0 O7 1.930647 1_555
Co0 O1 1.930915 1_555
Co1 O3 1.916441 1_544
Co1 O9 1.916761 1_455
Co1 O4 1.928482 1_445
Co1 O10 1.928638 1_554
Co1 O11 1.931790 1_545
Co1 O5 1.933172 1_454
Co2 O2 2.025616 1_555
Co2 O10 2.039595 1_554
Co2 O11 2.044153 1_545
Co2 O1 2.058917 1_555
Co2 O0 2.162402 1_555
Co2 O9 2.164317 1_455
Co3 O8 2.024032 1_555
Co3 O4 2.041029 1_556
Co3 O5 2.041215 1_565
Co3 O7 2.061623 1_555
Co3 O6 2.161363 1_555
Co3 O3 2.164345 1_655
O0 Sr0 2.464156 1_545
O0 Sr1 2.555293 1_555
O0 Sr5 2.576368 1_555
O0 Sr4 2.646307 1_555
O1 Sr1 2.506917 1_455
O1 Sr2 2.596427 1_555
O1 Sr3 2.638830 1_555
O1 Sr5 2.653604 1_555
O2 Sr2 2.513602 1_554
O2 Sr0 2.591651 1_555
O2 Sr4 2.608263 1_555
O2 Sr3 2.709387 1_555
O3 Sr3 2.464709 1_555
O3 Sr5 2.557211 1_565
O3 Sr1 2.581653 1_465
O3 Sr2 2.638892 1_555
O4 Sr4 2.505933 1_555
O4 Sr3 2.584151 1_655
O4 Sr2 2.598287 1_654
O4 Sr0 2.707699 1_555
O5 Sr5 2.513400 1_555
O5 Sr4 2.603191 1_556
O5 Sr0 2.642961 1_546
O5 Sr1 2.661618 1_555
O6 Sr5 2.464329 1_565
O6 Sr3 2.555388 1_555
O6 Sr0 2.575632 1_555
O6 Sr2 2.646680 1_555
O7 Sr3 2.506922 1_655
O7 Sr4 2.595264 1_555
O7 Sr1 2.637692 1_555
O7 Sr0 2.653756 1_555
O8 Sr4 2.513728 1_556
O8 Sr5 2.593686 1_555
O8 Sr2 2.609939 1_555
O8 Sr1 2.708457 1_555
O9 Sr1 2.464530 1_555
O9 Sr0 2.556709 1_545
O9 Sr3 2.580749 1_645
O9 Sr4 2.639888 1_555
O10 Sr2 2.506178 1_555
O10 Sr1 2.585567 1_455
O10 Sr4 2.599720 1_456
O10 Sr5 2.706853 1_555
O11 Sr0 2.513478 1_555
O11 Sr2 2.601821 1_554
O11 Sr5 2.641934 1_564
O11 Sr3 2.661589 1_555
