# generated using pymatgen
data_K3Ge4Au
_symmetry_space_group_name_H-M   'P 1'
_cell_length_a   6.10032551
_cell_length_b   6.69389591
_cell_length_c   11.91253685
_cell_angle_alpha   90.00000000
_cell_angle_beta   90.00000000
_cell_angle_gamma   90.00000000
_symmetry_Int_Tables_number   1
_chemical_formula_structural   K3Ge4Au
_chemical_formula_sum   'K6 Ge8 Au2'
_cell_volume   486.44777494
_cell_formula_units_Z   2
loop_
 _symmetry_equiv_pos_site_id
 _symmetry_equiv_pos_as_xyz
  1  'x, y, z'
loop_
 _atom_site_type_symbol
 _atom_site_label
 _atom_site_symmetry_multiplicity
 _atom_site_fract_x
 _atom_site_fract_y
 _atom_site_fract_z
 _atom_site_occupancy
  K  K0  1  0.42287836  0.75000000  0.75000000  1
  K  K1  1  0.57712164  0.25000000  0.25000000  1
  K  K2  1  0.16582605  0.25000000  0.48582328  1
  K  K3  1  0.16582605  0.25000000  0.01417672  1
  K  K4  1  0.83417395  0.75000000  0.51417672  1
  K  K5  1  0.83417395  0.75000000  0.98582328  1
  Ge  Ge0  1  0.94321368  0.45390334  0.75000000  1
  Ge  Ge1  1  0.67371243  0.25000000  0.86561784  1
  Ge  Ge2  1  0.32628757  0.75000000  0.36561784  1
  Ge  Ge3  1  0.32628757  0.75000000  0.13438216  1
  Ge  Ge4  1  0.05678632  0.95390334  0.25000000  1
  Ge  Ge5  1  0.05678632  0.54609666  0.25000000  1
  Ge  Ge6  1  0.67371243  0.25000000  0.63438216  1
  Ge  Ge7  1  0.94321368  0.04609666  0.75000000  1
  Au  Au0  1  0.68906555  0.75000000  0.25000000  1
  Au  Au1  1  0.31093445  0.25000000  0.75000000  1
loop_
_geom_bond_atom_site_label_1
_geom_bond_atom_site_label_2
_geom_bond_distance
_geom_bond_site_symmetry_2
Ge0 Ge6 2.542207 1_555
Ge0 Ge1 2.542207 1_555
Ge0 Ge7 2.729815 1_555
Ge0 K5 3.501835 1_555
Ge0 K4 3.501835 1_555
Ge0 K0 3.534205 1_655
Ge0 K2 3.689290 1_655
Ge0 K3 3.689290 1_656
Ge0 K0 3.742208 1_555
Ge1 Ge7 2.542207 1_555
Ge1 K3 3.484854 1_656
Ge1 K3 3.568077 1_556
Ge1 K5 3.769712 1_545
Ge1 K5 3.769712 1_555
Ge2 Ge4 2.542207 1_555
Ge2 Ge5 2.542207 1_555
Ge2 K4 3.484854 1_455
Ge2 K4 3.568077 1_555
Ge2 K2 3.769712 1_555
Ge2 K2 3.769712 1_565
Ge3 Ge4 2.542207 1_555
Ge3 Ge5 2.542207 1_555
Ge3 K5 3.484854 1_454
Ge3 K5 3.568077 1_554
Ge3 K3 3.769712 1_555
Ge3 K3 3.769712 1_565
Ge4 Ge5 2.729815 1_555
Ge4 K3 3.501835 1_565
Ge4 K2 3.501835 1_565
Ge4 K1 3.534205 1_465
Ge4 K4 3.689290 1_455
Ge4 K5 3.689290 1_454
Ge4 K1 3.742208 1_565
Ge5 K2 3.501835 1_555
Ge5 K3 3.501835 1_555
Ge5 K1 3.534205 1_455
Ge5 K4 3.689290 1_455
Ge5 K5 3.689290 1_454
Ge5 K1 3.742208 1_555
Ge6 Ge7 2.542207 1_555
Ge6 K2 3.484854 1_655
Ge6 K2 3.568077 1_555
Ge6 K4 3.769712 1_545
Ge6 K4 3.769712 1_555
Ge7 K4 3.501835 1_545
Ge7 K5 3.501835 1_545
Ge7 K0 3.534205 1_645
Ge7 K2 3.689290 1_655
Ge7 K3 3.689290 1_656
Ge7 K0 3.742208 1_545
Au0 Ge3 2.606648 1_555
Au0 Ge2 2.606648 1_555
Au0 Ge4 2.625832 1_655
Au0 Ge5 2.625832 1_655
Au0 K4 3.269143 1_555
Au0 K5 3.269143 1_554
Au0 K1 3.415905 1_555
Au0 K1 3.415905 1_565
Au1 Ge6 2.606648 1_555
Au1 Ge1 2.606648 1_555
Au1 Ge0 2.625832 1_455
Au1 Ge7 2.625832 1_455
Au1 K2 3.269143 1_555
Au1 K3 3.269143 1_556
Au1 K0 3.415905 1_555
Au1 K0 3.415905 1_545
