# generated using pymatgen
data_LiYbGe2
_symmetry_space_group_name_H-M   'P 1'
_cell_length_a   3.91768900
_cell_length_b   7.96165600
_cell_length_c   10.61510100
_cell_angle_alpha   90.00000000
_cell_angle_beta   90.00000000
_cell_angle_gamma   90.00000000
_symmetry_Int_Tables_number   1
_chemical_formula_structural   LiYbGe2
_chemical_formula_sum   'Li4 Yb4 Ge8'
_cell_volume   331.09871631
_cell_formula_units_Z   4
loop_
 _symmetry_equiv_pos_site_id
 _symmetry_equiv_pos_as_xyz
  1  'x, y, z'
loop_
 _atom_site_type_symbol
 _atom_site_label
 _atom_site_symmetry_multiplicity
 _atom_site_fract_x
 _atom_site_fract_y
 _atom_site_fract_z
 _atom_site_occupancy
  Li  Li0  1  0.25000000  0.48930800  0.39111900  1
  Li  Li1  1  0.75000000  0.51069200  0.60888100  1
  Li  Li2  1  0.25000000  0.98930800  0.10888100  1
  Li  Li3  1  0.75000000  0.01069200  0.89111900  1
  Yb  Yb0  1  0.25000000  0.13463000  0.63667900  1
  Yb  Yb1  1  0.75000000  0.86537000  0.36332100  1
  Yb  Yb2  1  0.25000000  0.63463000  0.86332100  1
  Yb  Yb3  1  0.75000000  0.36537000  0.13667900  1
  Ge  Ge0  1  0.75000000  0.34503200  0.81985200  1
  Ge  Ge1  1  0.25000000  0.65496800  0.18014800  1
  Ge  Ge2  1  0.75000000  0.84503200  0.68014800  1
  Ge  Ge3  1  0.25000000  0.15496800  0.31985200  1
  Ge  Ge4  1  0.75000000  0.26692400  0.43952800  1
  Ge  Ge5  1  0.25000000  0.73307600  0.56047200  1
  Ge  Ge6  1  0.75000000  0.76692400  0.06047200  1
  Ge  Ge7  1  0.25000000  0.23307600  0.93952800  1
loop_
_geom_bond_atom_site_label_1
_geom_bond_atom_site_label_2
_geom_bond_distance
_geom_bond_site_symmetry_2
Ge0 Ge7 2.499086 1_655
Ge0 Ge7 2.499086 1_555
Ge0 Li1 2.599006 1_555
Ge0 Li3 2.767312 1_555
Ge0 Yb2 3.060416 1_555
Ge0 Yb2 3.060416 1_655
Ge0 Yb0 3.228604 1_555
Ge0 Yb0 3.228604 1_655
Ge0 Yb3 3.367046 1_556
Ge1 Ge6 2.499086 1_455
Ge1 Ge6 2.499086 1_555
Ge1 Li0 2.599006 1_555
Ge1 Li2 2.767312 1_555
Ge1 Yb3 3.060416 1_455
Ge1 Yb3 3.060416 1_555
Ge1 Yb1 3.228604 1_455
Ge1 Yb1 3.228604 1_555
Ge1 Yb2 3.367046 1_554
Ge2 Ge5 2.499086 1_655
Ge2 Ge5 2.499086 1_555
Ge2 Li3 2.599006 1_565
Ge2 Li1 2.767312 1_555
Ge2 Yb0 3.060416 1_665
Ge2 Yb0 3.060416 1_565
Ge2 Yb2 3.228604 1_555
Ge2 Yb2 3.228604 1_655
Ge2 Yb1 3.367046 1_555
Ge3 Ge4 2.499086 1_455
Ge3 Ge4 2.499086 1_555
Ge3 Li2 2.599006 1_545
Ge3 Li0 2.767312 1_555
Ge3 Yb1 3.060416 1_545
Ge3 Yb1 3.060416 1_445
Ge3 Yb3 3.228604 1_455
Ge3 Yb3 3.228604 1_555
Ge3 Yb0 3.367046 1_555
Ge4 Li1 2.645452 1_555
Ge4 Li0 2.689974 1_555
Ge4 Li0 2.689974 1_655
Ge4 Yb0 3.053881 1_655
Ge4 Yb0 3.053881 1_555
Ge4 Yb1 3.297791 1_545
Ge4 Yb3 3.308942 1_555
Ge5 Li0 2.645452 1_555
Ge5 Li1 2.689974 1_555
Ge5 Li1 2.689974 1_455
Ge5 Yb1 3.053881 1_455
Ge5 Yb1 3.053881 1_555
Ge5 Yb0 3.297791 1_565
Ge5 Yb2 3.308942 1_555
Ge6 Li3 2.645452 1_564
Ge6 Li2 2.689974 1_655
Ge6 Li2 2.689974 1_555
Ge6 Yb2 3.053881 1_554
Ge6 Yb2 3.053881 1_654
Ge6 Yb3 3.297791 1_555
Ge6 Yb1 3.308942 1_555
Ge7 Li2 2.645452 1_546
Ge7 Li3 2.689974 1_455
Ge7 Li3 2.689974 1_555
Ge7 Yb3 3.053881 1_456
Ge7 Yb3 3.053881 1_556
Ge7 Yb2 3.297791 1_555
Ge7 Yb0 3.308942 1_555
