# generated using pymatgen
data_Na2MnSb2
_symmetry_space_group_name_H-M   'P 1'
_cell_length_a   7.17021200
_cell_length_b   7.17021200
_cell_length_c   14.56434700
_cell_angle_alpha   90.00000000
_cell_angle_beta   90.00000000
_cell_angle_gamma   90.00000000
_symmetry_Int_Tables_number   1
_chemical_formula_structural   Na2MnSb2
_chemical_formula_sum   'Na2 Mn1 Sb2'
_cell_volume   748.78133592
_cell_formula_units_Z   1
loop_
 _symmetry_equiv_pos_site_id
 _symmetry_equiv_pos_as_xyz
  1  'x, y, z'
loop_
 _atom_site_type_symbol
 _atom_site_label
 _atom_site_symmetry_multiplicity
 _atom_site_fract_x
 _atom_site_fract_y
 _atom_site_fract_z
 _atom_site_occupancy
  Na  Na0  1  0.50000000  0.50000000  0.62362000  1
  Na  Na1  1  0.50000000  0.50000000  0.37638000  1
  Mn  Mn0  1  0.50000000  0.50000000  0.00000000  1
  Sb  Sb0  1  0.50000000  0.50000000  0.17258300  1
  Sb  Sb1  1  0.50000000  0.50000000  0.82741700  1
loop_
_geom_bond_atom_site_label_1
_geom_bond_atom_site_label_2
_geom_bond_distance
_geom_bond_site_symmetry_2
Na0 Sb1 2.968170 1_555
Na1 Sb0 2.968170 1_555
Mn0 Sb0 2.513559 1_555
Mn0 Sb1 2.513559 1_554
