# generated using pymatgen
data_Sc3Sn
_symmetry_space_group_name_H-M   'P 1'
_cell_length_a   4.51995080
_cell_length_b   4.51995601
_cell_length_c   4.51993828
_cell_angle_alpha   90.00000000
_cell_angle_beta   90.00000000
_cell_angle_gamma   90.00000000
_symmetry_Int_Tables_number   1
_chemical_formula_structural   Sc3Sn
_chemical_formula_sum   'Sc3 Sn1'
_cell_volume   92.34224316
_cell_formula_units_Z   1
loop_
 _symmetry_equiv_pos_site_id
 _symmetry_equiv_pos_as_xyz
  1  'x, y, z'
loop_
 _atom_site_type_symbol
 _atom_site_label
 _atom_site_symmetry_multiplicity
 _atom_site_fract_x
 _atom_site_fract_y
 _atom_site_fract_z
 _atom_site_occupancy
  Sc  Sc0  1  -0.00000000  0.50000000  0.50000000  1
  Sc  Sc1  1  0.50000000  0.00000000  0.50000000  1
  Sc  Sc2  1  0.50000000  0.50000000  -0.00000000  1
  Sn  Sn0  1  0.00000000  -0.00000000  0.00000000  1
loop_
_geom_bond_atom_site_label_1
_geom_bond_atom_site_label_2
_geom_bond_distance
_geom_bond_site_symmetry_2
Sc0 Sc2 3.196083 1_455
Sc0 Sc2 3.196083 1_555
Sc0 Sc2 3.196083 1_456
Sc0 Sc2 3.196083 1_556
Sc0 Sn0 3.196085 1_566
Sc0 Sn0 3.196085 1_556
Sc0 Sn0 3.196085 1_565
Sc0 Sn0 3.196085 1_555
Sc0 Sc1 3.196090 1_455
Sc0 Sc1 3.196090 1_555
Sc0 Sc1 3.196090 1_565
Sc0 Sc1 3.196090 1_465
Sc1 Sn0 3.196083 1_556
Sc1 Sn0 3.196083 1_656
Sc1 Sn0 3.196083 1_555
Sc1 Sn0 3.196083 1_655
Sc1 Sc2 3.196085 1_556
Sc1 Sc2 3.196085 1_555
Sc1 Sc2 3.196085 1_546
Sc1 Sc2 3.196085 1_545
Sc2 Sn0 3.196090 1_555
Sc2 Sn0 3.196090 1_655
Sc2 Sn0 3.196090 1_665
Sc2 Sn0 3.196090 1_565
