# generated using pymatgen
data_BaTmCo4O7
_symmetry_space_group_name_H-M   'P 1'
_cell_length_a   6.37052500
_cell_length_b   10.24844800
_cell_length_c   11.04359300
_cell_angle_alpha   90.00000000
_cell_angle_beta   90.00000000
_cell_angle_gamma   90.00000000
_symmetry_Int_Tables_number   1
_chemical_formula_structural   BaTmCo4O7
_chemical_formula_sum   'Ba4 Tm4 Co16 O28'
_cell_volume   721.01403568
_cell_formula_units_Z   4
loop_
 _symmetry_equiv_pos_site_id
 _symmetry_equiv_pos_as_xyz
  1  'x, y, z'
loop_
 _atom_site_type_symbol
 _atom_site_label
 _atom_site_symmetry_multiplicity
 _atom_site_fract_x
 _atom_site_fract_y
 _atom_site_fract_z
 _atom_site_occupancy
  Ba  Ba0  1  0.50112200  0.50009200  0.16490700  1
  Ba  Ba1  1  0.49887800  0.00009200  0.83509300  1
  Ba  Ba2  1  0.00112200  0.00009200  0.33509300  1
  Ba  Ba3  1  0.99887800  0.50009200  0.66490700  1
  Tm  Tm0  1  0.51050600  0.87014000  0.16911400  1
  Tm  Tm1  1  0.48949400  0.37014000  0.83088600  1
  Tm  Tm2  1  0.01050600  0.37014000  0.33088600  1
  Tm  Tm3  1  0.98949400  0.87014000  0.66911400  1
  Co  Co0  1  0.49227300  0.68873100  0.67139400  1
  Co  Co1  1  0.50772700  0.18873100  0.32860600  1
  Co  Co2  1  0.99227300  0.18873100  0.82860600  1
  Co  Co3  1  0.00772700  0.68873100  0.17139400  1
  Co  Co4  1  0.75590600  0.19246200  0.58594800  1
  Co  Co5  1  0.24409400  0.69246200  0.41405200  1
  Co  Co6  1  0.25590600  0.69246200  0.91405200  1
  Co  Co7  1  0.74409400  0.19246200  0.08594800  1
  Co  Co8  1  0.75418600  0.68513900  0.41887900  1
  Co  Co9  1  0.24581400  0.18513900  0.58112100  1
  Co  Co10  1  0.25418600  0.18513900  0.08112100  1
  Co  Co11  1  0.74581400  0.68513900  0.91887900  1
  Co  Co12  1  0.49721300  0.94539300  0.50102100  1
  Co  Co13  1  0.50278700  0.44539300  0.49897900  1
  Co  Co14  1  0.99721300  0.44539300  0.99897900  1
  Co  Co15  1  0.00278700  0.94539300  0.00102100  1
  O  O0  1  0.50163800  0.25556900  0.49825100  1
  O  O1  1  0.49836200  0.75556900  0.50174900  1
  O  O2  1  0.00163800  0.75556900  0.00174900  1
  O  O3  1  0.99836200  0.25556900  0.99825100  1
  O  O4  1  0.44325900  0.49687000  0.66008600  1
  O  O5  1  0.55674100  0.99687000  0.33991400  1
  O  O6  1  0.94325900  0.99687000  0.83991400  1
  O  O7  1  0.05674100  0.49687000  0.16008600  1
  O  O8  1  0.72790400  0.99921600  0.59613200  1
  O  O9  1  0.27209600  0.49921600  0.40386800  1
  O  O10  1  0.22790400  0.49921600  0.90386800  1
  O  O11  1  0.77209600  0.99921600  0.09613200  1
  O  O12  1  0.76654400  0.49197700  0.43945100  1
  O  O13  1  0.23345600  0.99197700  0.56054900  1
  O  O14  1  0.26654400  0.99197700  0.06054900  1
  O  O15  1  0.73345600  0.49197700  0.93945100  1
  O  O16  1  0.49930800  0.24447800  0.99177900  1
  O  O17  1  0.50069200  0.74447800  0.00822100  1
  O  O18  1  0.99930800  0.74447800  0.50822100  1
  O  O19  1  0.00069200  0.24447800  0.49177900  1
  O  O20  1  0.26616300  0.78091500  0.75701300  1
  O  O21  1  0.73383700  0.28091500  0.24298700  1
  O  O22  1  0.76616300  0.28091500  0.74298700  1
  O  O23  1  0.23383700  0.78091500  0.25701300  1
  O  O24  1  0.23682200  0.22861900  0.25263900  1
  O  O25  1  0.76317800  0.72861900  0.74736100  1
  O  O26  1  0.73682200  0.72861900  0.24736100  1
  O  O27  1  0.26317800  0.22861900  0.75263900  1
loop_
_geom_bond_atom_site_label_1
_geom_bond_atom_site_label_2
_geom_bond_distance
_geom_bond_site_symmetry_2
Ba0 O21 2.826112 1_555
Ba0 O7 2.831633 1_555
Ba0 O15 2.897742 1_554
Ba0 O26 2.927278 1_555
Ba0 O9 3.015471 1_555
Ba0 O17 3.044194 1_555
Ba1 O20 2.826112 1_545
Ba1 O6 2.831633 1_545
Ba1 O14 2.897742 1_546
Ba1 O27 2.927278 1_555
Ba1 O8 3.015471 1_545
Ba1 O16 3.044194 1_555
Ba2 O23 2.826112 1_545
Ba2 O5 2.831633 1_445
Ba2 O13 2.897742 1_545
Ba2 O24 2.927278 1_555
Ba2 O11 3.015471 1_445
Ba2 O19 3.044194 1_555
Ba3 O22 2.826112 1_555
Ba3 O4 2.831633 1_655
Ba3 O12 2.897742 1_555
Ba3 O25 2.927278 1_555
Ba3 O10 3.015471 1_655
Ba3 O18 3.044194 1_555
Co0 O25 1.961977 1_555
Co0 O20 1.965058 1_555
Co0 O4 1.994828 1_555
Co0 O1 1.995163 1_555
Co1 O24 1.961977 1_555
Co1 O21 1.965058 1_555
Co1 O5 1.994828 1_545
Co1 O0 1.995163 1_555
Co2 O27 1.961977 1_655
Co2 O22 1.965058 1_555
Co2 O6 1.994828 1_545
Co2 O3 1.995163 1_555
Co3 O26 1.961977 1_455
Co3 O23 1.965058 1_555
Co3 O7 1.994828 1_555
Co3 O2 1.995163 1_555
Co4 O19 1.948712 1_655
Co4 O22 1.957992 1_555
Co4 O8 1.991667 1_545
Co4 O0 1.995013 1_555
Co5 O18 1.948712 1_455
Co5 O23 1.957992 1_555
Co5 O9 1.991667 1_555
Co5 O1 1.995013 1_555
Co6 O17 1.948712 1_556
Co6 O20 1.957992 1_555
Co6 O10 1.991667 1_555
Co6 O2 1.995013 1_556
Co7 O16 1.948712 1_554
Co7 O21 1.957992 1_555
Co7 O11 1.991667 1_545
Co7 O3 1.995013 1_554
Co8 O18 1.944678 1_555
Co8 O26 1.949025 1_555
Co8 O12 1.994159 1_555
Co8 O1 2.003642 1_555
Co9 O19 1.944678 1_555
Co9 O27 1.949025 1_555
Co9 O13 1.994159 1_545
Co9 O0 2.003642 1_555
Co10 O16 1.944678 1_554
Co10 O24 1.949025 1_555
Co10 O14 1.994159 1_545
Co10 O3 2.003642 1_454
Co11 O17 1.944678 1_556
Co11 O25 1.949025 1_555
Co11 O15 1.994159 1_555
Co11 O2 2.003642 1_656
Co12 O13 1.866390 1_555
Co12 O8 1.888737 1_555
Co12 O5 1.894118 1_555
Co12 O1 1.945432 1_555
Co13 O12 1.866390 1_555
Co13 O9 1.888737 1_555
Co13 O4 1.894118 1_555
Co13 O0 1.945432 1_555
Co14 O15 1.866390 1_555
Co14 O10 1.888737 1_655
Co14 O7 1.894118 1_656
Co14 O3 1.945432 1_555
Co15 O14 1.866390 1_555
Co15 O11 1.888737 1_455
Co15 O6 1.894118 1_454
Co15 O2 1.945432 1_555
O4 Tm1 2.309009 1_555
O5 Tm0 2.309009 1_555
O6 Tm3 2.309009 1_555
O7 Tm2 2.309009 1_555
O8 Tm3 2.275213 1_555
O9 Tm2 2.275213 1_555
O10 Tm1 2.275213 1_555
O11 Tm0 2.275213 1_555
O12 Tm2 2.326373 1_655
O13 Tm3 2.326373 1_455
O14 Tm0 2.326373 1_555
O15 Tm1 2.326373 1_555
O16 Tm1 2.195357 1_555
O17 Tm0 2.195357 1_555
O18 Tm3 2.195357 1_555
O19 Tm2 2.195357 1_555
O20 Tm3 2.210194 1_455
O21 Tm2 2.210194 1_655
O22 Tm1 2.210194 1_555
O23 Tm0 2.210194 1_555
O24 Tm2 2.220122 1_555
O25 Tm3 2.220122 1_555
O26 Tm0 2.220122 1_555
O27 Tm1 2.220122 1_555
