# generated using pymatgen
data_LiP5Pb2O15
_symmetry_space_group_name_H-M   'P 1'
_cell_length_a   5.60401686
_cell_length_b   9.80989900
_cell_length_c   12.47711679
_cell_angle_alpha   90.00000000
_cell_angle_beta   91.27313797
_cell_angle_gamma   90.00000000
_symmetry_Int_Tables_number   1
_chemical_formula_structural   LiP5Pb2O15
_chemical_formula_sum   'Li2 P10 Pb4 O30'
_cell_volume   685.75816069
_cell_formula_units_Z   2
loop_
 _symmetry_equiv_pos_site_id
 _symmetry_equiv_pos_as_xyz
  1  'x, y, z'
loop_
 _atom_site_type_symbol
 _atom_site_label
 _atom_site_symmetry_multiplicity
 _atom_site_fract_x
 _atom_site_fract_y
 _atom_site_fract_z
 _atom_site_occupancy
  Li  Li0  1  0.55688900  0.01518400  0.47538400  1
  Li  Li1  1  0.05688900  0.98481600  0.97538400  1
  P  P0  1  0.89103200  0.45918300  0.34945100  1
  P  P1  1  0.10782600  0.54089600  0.65054400  1
  P  P2  1  0.60782600  0.45910400  0.15054400  1
  P  P3  1  0.39103200  0.54081700  0.84945100  1
  P  P4  1  0.25054800  0.00256900  0.24932300  1
  P  P5  1  0.75054800  0.99743100  0.74932300  1
  P  P6  1  0.07852200  0.19080800  0.41816100  1
  P  P7  1  0.92359000  0.80806900  0.58110900  1
  P  P8  1  0.42359000  0.19193100  0.08110900  1
  P  P9  1  0.57852200  0.80919200  0.91816100  1
  Pb  Pb0  1  0.09506500  0.68501700  0.09207800  1
  Pb  Pb1  1  0.90240700  0.31238500  0.91090000  1
  Pb  Pb2  1  0.40240700  0.68761500  0.41090000  1
  Pb  Pb3  1  0.59506500  0.31498300  0.59207800  1
  O  O0  1  0.74978400  0.38786300  0.24996300  1
  O  O1  1  0.24978400  0.61213700  0.74996300  1
  O  O2  1  0.30989500  0.16683200  0.47832100  1
  O  O3  1  0.69265900  0.83447000  0.52036100  1
  O  O4  1  0.19265900  0.16553000  0.02036100  1
  O  O5  1  0.80989500  0.83316800  0.97832100  1
  O  O6  1  0.40187800  0.92873400  0.33231500  1
  O  O7  1  0.60387400  0.07552800  0.66845100  1
  O  O8  1  0.10387400  0.92447200  0.16845100  1
  O  O9  1  0.90187800  0.07126600  0.83231500  1
  O  O10  1  0.84358300  0.16880300  0.47233500  1
  O  O11  1  0.15557600  0.82712300  0.52597900  1
  O  O12  1  0.65557600  0.17287700  0.02597900  1
  O  O13  1  0.34358300  0.83119700  0.97233500  1
  O  O14  1  0.09279100  0.34573500  0.37294300  1
  O  O15  1  0.90488900  0.65364700  0.62775600  1
  O  O16  1  0.40488900  0.34635300  0.12775600  1
  O  O17  1  0.59279100  0.65426500  0.87294300  1
  O  O18  1  0.72185700  0.47008500  0.44167600  1
  O  O19  1  0.27807700  0.52952000  0.55866600  1
  O  O20  1  0.77807700  0.47048000  0.05866600  1
  O  O21  1  0.22185700  0.52991500  0.94167600  1
  O  O22  1  0.01403100  0.58719800  0.31403400  1
  O  O23  1  0.98586100  0.41247600  0.68567000  1
  O  O24  1  0.48586100  0.58752400  0.18567000  1
  O  O25  1  0.51403100  0.41280200  0.81403400  1
  O  O26  1  0.43191500  0.10591600  0.19098300  1
  O  O27  1  0.56745300  0.89545200  0.80859600  1
  O  O28  1  0.06745300  0.10454800  0.30859600  1
  O  O29  1  0.93191500  0.89408400  0.69098300  1
loop_
_geom_bond_atom_site_label_1
_geom_bond_atom_site_label_2
_geom_bond_distance
_geom_bond_site_symmetry_2
Li0 O3 2.004402 1_545
Li0 O2 2.032879 1_555
Li0 O6 2.142770 1_545
Li0 O10 2.203737 1_555
Li0 O7 2.488868 1_555
Li1 O4 2.004402 1_566
Li1 O5 2.032879 1_455
Li1 O9 2.142770 1_465
Li1 O13 2.203737 1_555
Li1 O8 2.488868 1_556
O0 P0 1.616565 1_555
O0 P2 1.617463 1_555
O1 P3 1.616565 1_555
O1 P1 1.617463 1_555
O2 P6 1.502240 1_555
O2 Pb3 2.565135 1_555
O3 P7 1.507578 1_555
O3 Pb2 2.547107 1_555
O4 P8 1.507578 1_555
O4 Pb1 2.547107 1_454
O5 P9 1.502240 1_555
O5 Pb0 2.565135 1_656
O6 P4 1.508996 1_565
O6 Pb2 2.560504 1_555
O7 P5 1.497963 1_545
O7 Pb3 2.535021 1_555
O8 P4 1.497963 1_565
O8 Pb0 2.535021 1_555
O9 P5 1.508996 1_545
O9 Pb1 2.560504 1_555
O10 P6 1.508799 1_655
O10 Pb3 2.514088 1_555
O11 P7 1.495985 1_455
O11 Pb2 2.436444 1_555
O12 P8 1.495985 1_555
O12 Pb1 2.436444 1_554
O13 P9 1.508799 1_555
O13 Pb0 2.514088 1_556
O14 P0 1.608775 1_455
O14 P6 1.623748 1_555
O15 P1 1.607247 1_655
O15 P7 1.627039 1_555
O16 P2 1.607247 1_555
O16 P8 1.627039 1_555
O17 P3 1.608775 1_555
O17 P9 1.623748 1_555
O18 P0 1.510910 1_555
O18 Pb3 2.529972 1_555
O18 Pb2 2.806326 1_555
O19 P1 1.511792 1_555
O19 Pb2 2.519330 1_555
O19 Pb3 2.779530 1_555
O20 P2 1.511792 1_555
O20 Pb1 2.519330 1_554
O20 Pb0 2.779530 1_655
O21 P3 1.510910 1_555
O21 Pb0 2.529972 1_556
O21 Pb1 2.806326 1_455
O22 P0 1.503662 1_455
O22 Pb2 2.655415 1_555
O23 P1 1.503204 1_655
O23 Pb3 2.638357 1_555
O24 P2 1.503204 1_555
O24 Pb0 2.638357 1_555
O25 P3 1.503662 1_555
O25 Pb1 2.655415 1_555
O26 P8 1.609573 1_555
O26 P4 1.619756 1_555
O27 P9 1.607786 1_555
O27 P5 1.623048 1_555
O28 P6 1.607786 1_555
O28 P4 1.623048 1_555
O29 P7 1.609573 1_555
O29 P5 1.619756 1_555
