# generated using pymatgen
data_Cs2Mo(SO)2
_symmetry_space_group_name_H-M   'P 1'
_cell_length_a   8.00929000
_cell_length_b   9.60557900
_cell_length_c   11.28449900
_cell_angle_alpha   90.00000000
_cell_angle_beta   90.00000000
_cell_angle_gamma   90.00000000
_symmetry_Int_Tables_number   1
_chemical_formula_structural   Cs2Mo(SO)2
_chemical_formula_sum   'Cs8 Mo4 S8 O8'
_cell_volume   868.16015458
_cell_formula_units_Z   4
loop_
 _symmetry_equiv_pos_site_id
 _symmetry_equiv_pos_as_xyz
  1  'x, y, z'
loop_
 _atom_site_type_symbol
 _atom_site_label
 _atom_site_symmetry_multiplicity
 _atom_site_fract_x
 _atom_site_fract_y
 _atom_site_fract_z
 _atom_site_occupancy
  Cs  Cs0  1  0.21003500  0.88577900  0.08779700  1
  Cs  Cs1  1  0.28996500  0.61422100  0.58779700  1
  Cs  Cs2  1  0.28996500  0.38577900  0.91220300  1
  Cs  Cs3  1  0.21003500  0.11422100  0.41220300  1
  Cs  Cs4  1  0.78996400  0.11422100  0.91220300  1
  Cs  Cs5  1  0.71003600  0.38577900  0.41220300  1
  Cs  Cs6  1  0.71003600  0.61422100  0.08779700  1
  Cs  Cs7  1  0.78996400  0.88577900  0.58779700  1
  Mo  Mo0  1  0.19479900  0.50000000  0.25000000  1
  Mo  Mo1  1  0.30520100  0.00000000  0.75000000  1
  Mo  Mo2  1  0.80520100  0.50000000  0.75000000  1
  Mo  Mo3  1  0.69479900  0.00000000  0.25000000  1
  S  S0  1  0.03203500  0.66765900  0.32532300  1
  S  S1  1  0.46796500  0.83234100  0.82532300  1
  S  S2  1  0.46796500  0.16765900  0.67467700  1
  S  S3  1  0.03203500  0.33234100  0.17467700  1
  S  S4  1  0.96796500  0.33234100  0.67467700  1
  S  S5  1  0.53203500  0.16765900  0.17467700  1
  S  S6  1  0.53203500  0.83234100  0.32532300  1
  S  S7  1  0.96796500  0.66765900  0.82532300  1
  O  O0  1  0.31985700  0.57204600  0.13405000  1
  O  O1  1  0.18014300  0.92795400  0.63405000  1
  O  O2  1  0.18014300  0.07204600  0.86595000  1
  O  O3  1  0.31985700  0.42795400  0.36595000  1
  O  O4  1  0.68014300  0.42795400  0.86595000  1
  O  O5  1  0.81985700  0.07204600  0.36595000  1
  O  O6  1  0.81985700  0.92795400  0.13405000  1
  O  O7  1  0.68014300  0.57204600  0.63405000  1
loop_
_geom_bond_atom_site_label_1
_geom_bond_atom_site_label_2
_geom_bond_distance
_geom_bond_site_symmetry_2
Cs0 O2 3.086379 1_564
Cs0 O0 3.182424 1_555
Cs0 O6 3.194131 1_455
Cs1 O3 3.086379 1_555
Cs1 O1 3.182424 1_555
Cs1 O7 3.194131 1_555
Cs2 O0 3.086379 1_556
Cs2 O2 3.182424 1_555
Cs2 O4 3.194131 1_555
Cs3 O1 3.086379 1_545
Cs3 O3 3.182424 1_555
Cs3 O5 3.194131 1_455
Cs4 O6 3.086380 1_546
Cs4 O4 3.182421 1_555
Cs4 O2 3.194139 1_655
Cs5 O7 3.086380 1_555
Cs5 O5 3.182421 1_555
Cs5 O3 3.194139 1_555
Cs6 O4 3.086380 1_554
Cs6 O6 3.182421 1_555
Cs6 O0 3.194139 1_555
Cs7 O5 3.086380 1_565
Cs7 O7 3.182421 1_555
Cs7 O1 3.194139 1_655
Mo0 O3 1.787229 1_555
Mo0 O0 1.787229 1_555
Mo0 S0 2.239530 1_555
Mo0 S3 2.239530 1_555
Mo1 O2 1.787229 1_555
Mo1 O1 1.787229 1_545
Mo1 S1 2.239530 1_545
Mo1 S2 2.239530 1_555
Mo2 O4 1.787229 1_555
Mo2 O7 1.787229 1_555
Mo2 S7 2.239530 1_555
Mo2 S4 2.239530 1_555
Mo3 O5 1.787229 1_555
Mo3 O6 1.787229 1_545
Mo3 S6 2.239530 1_545
Mo3 S5 2.239530 1_555
