# generated using pymatgen
data_Si10(H3C)19
_symmetry_space_group_name_H-M   'P 1'
_cell_length_a   10.37661900
_cell_length_b   14.22913857
_cell_length_c   15.99254538
_cell_angle_alpha   106.20883236
_cell_angle_beta   99.51982542
_cell_angle_gamma   110.88977030
_symmetry_Int_Tables_number   1
_chemical_formula_structural   Si10(H3C)19
_chemical_formula_sum   'Si20 H114 C38'
_cell_volume   2023.93111700
_cell_formula_units_Z   2
loop_
 _symmetry_equiv_pos_site_id
 _symmetry_equiv_pos_as_xyz
  1  'x, y, z'
loop_
 _atom_site_type_symbol
 _atom_site_label
 _atom_site_symmetry_multiplicity
 _atom_site_fract_x
 _atom_site_fract_y
 _atom_site_fract_z
 _atom_site_occupancy
  Si  Si0  1  0.62118800  0.39513200  0.69936200  1
  Si  Si1  1  0.37881200  0.60486800  0.30063800  1
  Si  Si2  1  0.87734500  0.49241300  0.72953900  1
  Si  Si3  1  0.12265500  0.50758700  0.27046100  1
  Si  Si4  1  0.95263800  0.66772200  0.72176100  1
  Si  Si5  1  0.04736200  0.33227800  0.27823900  1
  Si  Si6  1  0.88395100  0.78047400  0.82444100  1
  Si  Si7  1  0.11604900  0.21952600  0.17555900  1
  Si  Si8  1  0.63771500  0.69018000  0.80774800  1
  Si  Si9  1  0.36228500  0.30982000  0.19225200  1
  Si  Si10  1  0.56610500  0.51401900  0.81359600  1
  Si  Si11  1  0.43389500  0.48598100  0.18640400  1
  Si  Si12  1  0.52716800  0.19985800  0.67436100  1
  Si  Si13  1  0.47283200  0.80014200  0.32563900  1
  Si  Si14  1  0.50447700  0.09032100  0.51790200  1
  Si  Si15  1  0.49552300  0.90967900  0.48209800  1
  Si  Si16  1  0.66531100  0.17174900  0.79274900  1
  Si  Si17  1  0.33468900  0.82825100  0.20725100  1
  Si  Si18  1  0.28581900  0.14439500  0.68722500  1
  Si  Si19  1  0.71418100  0.85560500  0.31277500  1
  H  H0  1  0.56280100  0.36227700  0.53100600  1
  H  H1  1  0.43719900  0.63772300  0.46899400  1
  H  H2  1  0.41457900  0.36610700  0.57187900  1
  H  H3  1  0.58542100  0.63389300  0.42812100  1
  H  H4  1  0.56675600  0.48810700  0.59380100  1
  H  H5  1  0.43324400  0.51189300  0.40619900  1
  H  H6  1  0.94016900  0.34263700  0.65371900  1
  H  H7  1  0.05983100  0.65736300  0.34628100  1
  H  H8  1  0.90073400  0.40228500  0.57456900  1
  H  H9  1  0.09926600  0.59771500  0.42543100  1
  H  H10  1  0.06855600  0.46945400  0.66173100  1
  H  H11  1  0.93144400  0.53054600  0.33826900  1
  H  H12  1  0.10006800  0.55284000  0.85662500  1
  H  H13  1  0.89993200  0.44716000  0.14337500  1
  H  H14  1  0.95871900  0.56238100  0.90250500  1
  H  H15  1  0.04128100  0.43761900  0.09749500  1
  H  H16  1  0.96175000  0.43486300  0.85551300  1
  H  H17  1  0.03825000  0.56513700  0.14448700  1
  H  H18  1  0.91607300  0.60663000  0.55358000  1
  H  H19  1  0.08392700  0.39337000  0.44642000  1
  H  H20  1  0.76733200  0.63134600  0.57740800  1
  H  H21  1  0.23266800  0.36865400  0.42259200  1
  H  H22  1  0.93446800  0.74123100  0.59706500  1
  H  H23  1  0.06553200  0.25876900  0.40293500  1
  H  H24  1  0.19991700  0.81319800  0.75520800  1
  H  H25  1  0.80008300  0.18680200  0.24479200  1
  H  H26  1  0.21149800  0.72964000  0.81760900  1
  H  H27  1  0.78850200  0.27036000  0.18239100  1
  H  H28  1  0.19217600  0.68437200  0.69877200  1
  H  H29  1  0.80782400  0.31562800  0.30122800  1
  H  H30  1  0.95698100  0.86841500  0.99421900  1
  H  H31  1  0.04301900  0.13158500  0.00578100  1
  H  H32  1  0.98647100  0.74946000  0.96435300  1
  H  H33  1  0.01352900  0.25054000  0.03564700  1
  H  H34  1  0.10907300  0.86898400  0.95613800  1
  H  H35  1  0.89092700  0.13101600  0.04386200  1
  H  H36  1  0.03621000  0.95767100  0.81701500  1
  H  H37  1  0.96379000  0.04232900  0.18298500  1
  H  H38  1  0.86466800  0.89925900  0.73424400  1
  H  H39  1  0.13533200  0.10074100  0.26575600  1
  H  H40  1  0.88285600  0.96130700  0.85121000  1
  H  H41  1  0.11714400  0.03869300  0.14879000  1
  H  H42  1  0.47187900  0.73469300  0.89349600  1
  H  H43  1  0.52812100  0.26530700  0.10650400  1
  H  H44  1  0.64203400  0.77577300  0.97227800  1
  H  H45  1  0.35796600  0.22422700  0.02772200  1
  H  H46  1  0.62038600  0.85375300  0.90609000  1
  H  H47  1  0.37961400  0.14624700  0.09391000  1
  H  H48  1  0.52685700  0.76629100  0.70873000  1
  H  H49  1  0.47314300  0.23370900  0.29127000  1
  H  H50  1  0.57104400  0.66694200  0.64105000  1
  H  H51  1  0.42895600  0.33305800  0.35895000  1
  H  H52  1  0.41454700  0.62715000  0.67826500  1
  H  H53  1  0.58545300  0.37285000  0.32173500  1
  H  H54  1  0.35215400  0.53046200  0.85483000  1
  H  H55  1  0.64784600  0.46953800  0.14517000  1
  H  H56  1  0.30505600  0.46693000  0.73483200  1
  H  H57  1  0.69494400  0.53307000  0.26516800  1
  H  H58  1  0.31492100  0.39213600  0.80611400  1
  H  H59  1  0.68507900  0.60786400  0.19388600  1
  H  H60  1  0.59751800  0.45857700  0.94861400  1
  H  H61  1  0.40248200  0.54142300  0.05138600  1
  H  H62  1  0.76731400  0.54956000  0.94894100  1
  H  H63  1  0.23268600  0.45044000  0.05105900  1
  H  H64  1  0.64282800  0.59897700  0.98422500  1
  H  H65  1  0.35717200  0.40102300  0.01577500  1
  H  H66  1  0.32188500  0.04055800  0.37047900  1
  H  H67  1  0.67811500  0.95944200  0.62952100  1
  H  H68  1  0.23471200  0.03109000  0.45652200  1
  H  H69  1  0.76528800  0.96891000  0.54347800  1
  H  H70  1  0.33698000  0.15976600  0.45319200  1
  H  H71  1  0.66302000  0.84023400  0.54680800  1
  H  H72  1  0.66266300  0.25063600  0.48993200  1
  H  H73  1  0.33733700  0.74936400  0.51006800  1
  H  H74  1  0.76180100  0.17709100  0.51409900  1
  H  H75  1  0.23819900  0.82290900  0.48590100  1
  H  H76  1  0.63439200  0.12780900  0.40547700  1
  H  H77  1  0.36560800  0.87219100  0.59452300  1
  H  H78  1  0.47046100  0.02411400  0.81647000  1
  H  H79  1  0.52953900  0.97588600  0.18353000  1
  H  H80  1  0.54518700  0.96725200  0.73435000  1
  H  H81  1  0.45481300  0.03274800  0.26565000  1
  H  H82  1  0.64273300  0.02565300  0.85196500  1
  H  H83  1  0.35726700  0.97434700  0.14803500  1
  H  H84  1  0.90415200  0.16889300  0.83324700  1
  H  H85  1  0.09584800  0.83110700  0.16675300  1
  H  H86  1  0.84011400  0.13016800  0.71304200  1
  H  H87  1  0.15988600  0.86983200  0.28695800  1
  H  H88  1  0.91468600  0.26862800  0.78476000  1
  H  H89  1  0.08531400  0.73137200  0.21524000  1
  H  H90  1  0.76335000  0.35461400  0.91672500  1
  H  H91  1  0.23665000  0.64538600  0.08327500  1
  H  H92  1  0.60025600  0.26472800  0.92652400  1
  H  H93  1  0.39974400  0.73527200  0.07347600  1
  H  H94  1  0.76397000  0.25309000  0.96072600  1
  H  H95  1  0.23603000  0.74691000  0.03927400  1
  H  H96  1  0.18476300  0.18418400  0.81729300  1
  H  H97  1  0.81523700  0.81581600  0.18270700  1
  H  H98  1  0.31912600  0.13883500  0.84478500  1
  H  H99  1  0.68087400  0.86116500  0.15521500  1
  H  H100  1  0.37090700  0.27392000  0.85075000  1
  H  H101  1  0.62909300  0.72608000  0.14925000  1
  H  H102  1  0.23471600  0.28529500  0.63820500  1
  H  H103  1  0.76528400  0.71470500  0.36179500  1
  H  H104  1  0.14378300  0.15588500  0.54998400  1
  H  H105  1  0.85621700  0.84411500  0.45001600  1
  H  H106  1  0.07749500  0.18668300  0.64475700  1
  H  H107  1  0.92250500  0.81331700  0.35524300  1
  H  H108  1  0.15676100  0.95673500  0.56662100  1
  H  H109  1  0.84323900  0.04326500  0.43337900  1
  H  H110  1  0.21699900  0.95071200  0.67488900  1
  H  H111  1  0.78300100  0.04928800  0.32511100  1
  H  H112  1  0.06479300  0.97893000  0.64897500  1
  H  H113  1  0.93520700  0.02107000  0.35102500  1
  C  C0  1  0.53279100  0.40367800  0.58831600  1
  C  C1  1  0.46720900  0.59632200  0.41168400  1
  C  C2  1  0.95261100  0.41937200  0.64611800  1
  C  C3  1  0.04738900  0.58062800  0.35388200  1
  C  C4  1  0.98361000  0.51249900  0.84715700  1
  C  C5  1  0.01639000  0.48750100  0.15284300  1
  C  C6  1  0.88526900  0.66097300  0.60123900  1
  C  C7  1  0.11473100  0.33902700  0.39876100  1
  C  C8  1  0.15840400  0.72921500  0.75193600  1
  C  C9  1  0.84159600  0.27078500  0.24806400  1
  C  C10  1  0.99449200  0.81990400  0.94627000  1
  C  C11  1  0.00550800  0.18009600  0.05373000  1
  C  C12  1  0.91977600  0.91165200  0.80387500  1
  C  C13  1  0.08022400  0.08834800  0.19612500  1
  C  C14  1  0.58915200  0.77091600  0.90471100  1
  C  C15  1  0.41084800  0.22908400  0.09528900  1
  C  C16  1  0.52727400  0.68678900  0.69837500  1
  C  C17  1  0.47272600  0.31321100  0.30162500  1
  C  C18  1  0.36519300  0.47098000  0.80002700  1
  C  C19  1  0.63480700  0.52902000  0.19997300  1
  C  C20  1  0.65213500  0.53194000  0.93503200  1
  C  C21  1  0.34786500  0.46806000  0.06496800  1
  C  C22  1  0.33259500  0.07893900  0.44271100  1
  C  C23  1  0.66740500  0.92106100  0.55728900  1
  C  C24  1  0.65617600  0.16931700  0.47884300  1
  C  C25  1  0.34382400  0.83068300  0.52115700  1
  C  C26  1  0.57074800  0.03377500  0.79842000  1
  C  C27  1  0.42925200  0.96622500  0.20158000  1
  C  C28  1  0.84817900  0.18628500  0.77892700  1
  C  C29  1  0.15182100  0.81371500  0.22107300  1
  C  C30  1  0.70103900  0.27103000  0.90995300  1
  C  C31  1  0.29896100  0.72897000  0.09004700  1
  C  C32  1  0.29147600  0.19014300  0.81177700  1
  C  C33  1  0.70852400  0.80985700  0.18822300  1
  C  C34  1  0.17648900  0.19887400  0.62409200  1
  C  C35  1  0.82351100  0.80112600  0.37590800  1
  C  C36  1  0.17213800  0.99317100  0.63978100  1
  C  C37  1  0.82786200  0.00682900  0.36021900  1
loop_
_geom_bond_atom_site_label_1
_geom_bond_atom_site_label_2
_geom_bond_distance
_geom_bond_site_symmetry_2
Si0 Si12 2.479867 1_555
Si1 Si13 2.479867 1_555
Si12 Si16 2.394443 1_555
Si12 Si18 2.405968 1_555
Si12 Si14 2.472201 1_555
Si13 Si17 2.394443 1_555
Si13 Si19 2.405968 1_555
Si13 Si15 2.472201 1_555
C0 H4 1.097337 1_555
C0 H2 1.098536 1_555
C0 H0 1.099019 1_555
C0 Si0 1.916060 1_555
C1 H5 1.097337 1_555
C1 H3 1.098536 1_555
C1 H1 1.099019 1_555
C1 Si1 1.916060 1_555
C2 H6 1.096536 1_555
C2 H8 1.098090 1_555
C2 H10 1.098880 1_655
C2 Si2 1.902480 1_555
C3 H7 1.096536 1_555
C3 H9 1.098090 1_555
C3 H11 1.098880 1_455
C3 Si3 1.902480 1_555
C4 H16 1.096996 1_555
C4 H12 1.099554 1_655
C4 H14 1.099822 1_555
C4 Si2 1.903894 1_555
C5 H17 1.096996 1_555
C5 H13 1.099554 1_455
C5 H15 1.099822 1_555
C5 Si3 1.903894 1_555
C6 H22 1.098778 1_555
C6 H20 1.099425 1_555
C6 H18 1.099474 1_555
C6 Si4 1.901600 1_555
C7 H23 1.098778 1_555
C7 H21 1.099425 1_555
C7 H19 1.099474 1_555
C7 Si5 1.901600 1_555
C8 H24 1.098575 1_555
C8 H28 1.099084 1_555
C8 H26 1.099695 1_555
C8 Si4 1.910104 1_455
C9 H25 1.098575 1_555
C9 H29 1.099084 1_555
C9 H27 1.099695 1_555
C9 Si5 1.910104 1_655
C10 H32 1.097988 1_555
C10 H34 1.100234 1_655
C10 H30 1.100378 1_555
C10 Si6 1.902136 1_555
C11 H33 1.097988 1_555
C11 H35 1.100234 1_455
C11 H31 1.100378 1_555
C11 Si7 1.902136 1_555
C12 H38 1.098167 1_555
C12 H36 1.098939 1_655
C12 H40 1.099728 1_555
C12 Si6 1.902294 1_555
C13 H39 1.098167 1_555
C13 H37 1.098939 1_455
C13 H41 1.099728 1_555
C13 Si7 1.902294 1_555
C14 H46 1.097975 1_555
C14 H42 1.098894 1_555
C14 H44 1.099384 1_555
C14 Si8 1.911830 1_555
C15 H47 1.097975 1_555
C15 H43 1.098894 1_555
C15 H45 1.099384 1_555
C15 Si9 1.911830 1_555
C16 H48 1.098317 1_555
C16 H52 1.098696 1_555
C16 H50 1.100532 1_555
C16 Si8 1.904096 1_555
C17 H49 1.098317 1_555
C17 H53 1.098696 1_555
C17 H51 1.100532 1_555
C17 Si9 1.904096 1_555
C18 H58 1.095733 1_555
C18 H56 1.097909 1_555
C18 H54 1.099804 1_555
C18 Si10 1.906341 1_555
C19 H59 1.095733 1_555
C19 H57 1.097909 1_555
C19 H55 1.099804 1_555
C19 Si11 1.906341 1_555
C20 H60 1.097035 1_555
C20 H62 1.099091 1_555
C20 H64 1.100007 1_555
C20 Si10 1.902971 1_555
C21 H61 1.097035 1_555
C21 H63 1.099091 1_555
C21 H65 1.100007 1_555
C21 Si11 1.902971 1_555
C22 H70 1.097920 1_555
C22 H66 1.098673 1_555
C22 H68 1.099534 1_555
C22 Si14 1.905031 1_555
C23 H71 1.097920 1_555
C23 H67 1.098673 1_555
C23 H69 1.099534 1_555
C23 Si15 1.905031 1_555
C24 H72 1.095813 1_555
C24 H74 1.098058 1_555
C24 H76 1.098531 1_555
C24 Si14 1.893923 1_555
C25 H73 1.095813 1_555
C25 H75 1.098058 1_555
C25 H77 1.098531 1_555
C25 Si15 1.893923 1_555
C26 H78 1.097569 1_555
C26 H80 1.098098 1_545
C26 H82 1.099921 1_555
C26 Si16 1.892206 1_555
C27 H79 1.097569 1_555
C27 H81 1.098098 1_565
C27 H83 1.099921 1_555
C27 Si17 1.892206 1_555
C28 H88 1.094907 1_555
C28 H86 1.099221 1_555
C28 H84 1.099489 1_555
C28 Si16 1.891222 1_555
C29 H89 1.094907 1_555
C29 H87 1.099221 1_555
C29 H85 1.099489 1_555
C29 Si17 1.891222 1_555
C30 H90 1.095819 1_555
C30 H92 1.100003 1_555
C30 H94 1.100054 1_555
C30 Si16 1.888075 1_555
C31 H91 1.095819 1_555
C31 H93 1.100003 1_555
C31 H95 1.100054 1_555
C31 Si17 1.888075 1_555
C32 H100 1.097019 1_555
C32 H98 1.099279 1_555
C32 H96 1.100299 1_555
C32 Si18 1.898698 1_555
C33 H101 1.097019 1_555
C33 H99 1.099279 1_555
C33 H97 1.100299 1_555
C33 Si19 1.898698 1_555
C34 H102 1.094643 1_555
C34 H104 1.099166 1_555
C34 H106 1.100783 1_555
C34 Si18 1.895413 1_555
C35 H103 1.094643 1_555
C35 H105 1.099166 1_555
C35 H107 1.100783 1_555
C35 Si19 1.895413 1_555
C36 H110 1.095640 1_555
C36 H108 1.097174 1_555
C36 H112 1.101476 1_555
C36 Si18 1.892007 1_565
C37 H111 1.095640 1_555
C37 H109 1.097174 1_555
C37 H113 1.101476 1_555
C37 Si19 1.892007 1_545
