# generated using pymatgen
data_Sr3LaZnRuO8
_symmetry_space_group_name_H-M   'P 1'
_cell_length_a   6.91550772
_cell_length_b   6.91550772
_cell_length_c   5.63253200
_cell_angle_alpha   90.00000000
_cell_angle_beta   90.00000000
_cell_angle_gamma   131.99598045
_symmetry_Int_Tables_number   1
_chemical_formula_structural   Sr3LaZnRuO8
_chemical_formula_sum   'Sr3 La1 Zn1 Ru1 O8'
_cell_volume   200.19475668
_cell_formula_units_Z   1
loop_
 _symmetry_equiv_pos_site_id
 _symmetry_equiv_pos_as_xyz
  1  'x, y, z'
loop_
 _atom_site_type_symbol
 _atom_site_label
 _atom_site_symmetry_multiplicity
 _atom_site_fract_x
 _atom_site_fract_y
 _atom_site_fract_z
 _atom_site_occupancy
  Sr  Sr0  1  0.85640500  0.14359500  0.50000000  1
  Sr  Sr1  1  0.35864500  0.64135500  0.00000000  1
  Sr  Sr2  1  0.64275300  0.35724700  0.00000000  1
  La  La0  1  0.14288400  0.85711600  0.50000000  1
  Zn  Zn0  1  0.49995000  0.50005000  0.50000000  1
  Ru  Ru0  1  0.99837000  0.00163000  0.00000000  1
  O  O0  1  0.24427600  0.23967800  0.24640600  1
  O  O1  1  0.76032200  0.75572400  0.75359400  1
  O  O2  1  0.24427600  0.23967800  0.75359400  1
  O  O3  1  0.76032200  0.75572400  0.24640600  1
  O  O4  1  0.16238700  0.83761300  0.00000000  1
  O  O5  1  0.66807900  0.33192100  0.50000000  1
  O  O6  1  0.32117700  0.67882300  0.50000000  1
  O  O7  1  0.84015300  0.15984700  0.00000000  1
loop_
_geom_bond_atom_site_label_1
_geom_bond_atom_site_label_2
_geom_bond_distance
_geom_bond_site_symmetry_2
La0 O6 2.252743 1_555
La0 O2 2.654963 1_565
La0 O0 2.654963 1_565
La0 O3 2.654963 1_455
La0 O1 2.654963 1_455
La0 O4 2.827026 1_556
La0 O4 2.827026 1_555
La0 O5 2.830968 1_565
La0 O5 2.830968 1_455
O0 Ru0 1.944743 1_455
O0 Zn0 2.036764 1_555
O0 Sr2 2.680088 1_555
O0 Sr0 2.700302 1_455
O0 Sr1 2.707030 1_555
O1 Ru0 1.944743 1_566
O1 Zn0 2.036764 1_555
O1 Sr2 2.680088 1_556
O1 Sr0 2.700302 1_565
O1 Sr1 2.707030 1_556
O2 Ru0 1.944743 1_456
O2 Zn0 2.036764 1_555
O2 Sr2 2.680088 1_556
O2 Sr0 2.700302 1_455
O2 Sr1 2.707030 1_556
O3 Ru0 1.944743 1_565
O3 Zn0 2.036764 1_555
O3 Sr2 2.680088 1_555
O3 Sr0 2.700302 1_565
O3 Sr1 2.707030 1_555
O4 Ru0 2.072365 1_465
O4 Sr1 2.479732 1_555
O4 Sr2 2.823930 1_455
O4 Sr2 2.823930 1_565
O5 Zn0 2.124321 1_555
O5 Sr0 2.379511 1_555
O5 Sr2 2.834387 1_556
O5 Sr2 2.834387 1_555
O6 Zn0 2.258808 1_555
O6 Sr0 2.848009 1_565
O6 Sr0 2.848009 1_455
O6 Sr1 2.855779 1_556
O6 Sr1 2.855779 1_555
O7 Ru0 1.999082 1_555
O7 Sr2 2.494162 1_555
O7 Sr1 2.822699 1_545
O7 Sr1 2.822699 1_655
O7 Sr0 2.823742 1_555
O7 Sr0 2.823742 1_554
