# generated using pymatgen
data_Sm6MnS10
_symmetry_space_group_name_H-M   'P 1'
_cell_length_a   7.32106152
_cell_length_b   7.30997540
_cell_length_c   36.70499246
_cell_angle_alpha   109.34250458
_cell_angle_beta   110.16245756
_cell_angle_gamma   108.87374907
_symmetry_Int_Tables_number   1
_chemical_formula_structural   Sm6MnS10
_chemical_formula_sum   'Sm24 Mn4 S40'
_cell_volume   1512.64885795
_cell_formula_units_Z   4
loop_
 _symmetry_equiv_pos_site_id
 _symmetry_equiv_pos_as_xyz
  1  'x, y, z'
loop_
 _atom_site_type_symbol
 _atom_site_label
 _atom_site_symmetry_multiplicity
 _atom_site_fract_x
 _atom_site_fract_y
 _atom_site_fract_z
 _atom_site_occupancy
  Sm  Sm0  1  0.12119347  0.74696952  0.97492415  1
  Sm  Sm1  1  0.11970643  0.75028090  0.77560658  1
  Sm  Sm2  1  0.25571211  0.62654310  0.87445409  1
  Sm  Sm3  1  0.36281723  0.23983218  0.92418542  1
  Sm  Sm4  1  0.25777419  0.62485661  0.67409088  1
  Sm  Sm5  1  0.09154742  0.73071741  0.56883306  1
  Sm  Sm6  1  0.38251429  0.25549227  0.72728543  1
  Sm  Sm7  1  0.62736081  0.37143756  0.84951634  1
  Sm  Sm8  1  0.25356136  0.61368089  0.47518285  1
  Sm  Sm9  1  0.13562950  0.76118410  0.37621972  1
  Sm  Sm10  1  0.75544030  0.88599604  0.62546167  1
  Sm  Sm11  1  0.38660040  0.25609345  0.52609867  1
  Sm  Sm12  1  0.62424996  0.37389252  0.65007850  1
  Sm  Sm13  1  0.25625629  0.63004738  0.27566348  1
  Sm  Sm14  1  0.11956376  0.74601373  0.17369154  1
  Sm  Sm15  1  0.38708061  0.25873367  0.32998597  1
  Sm  Sm16  1  0.74767891  0.88749006  0.42977273  1
  Sm  Sm17  1  0.24846324  0.62866939  0.07599053  1
  Sm  Sm18  1  0.73876038  0.85229123  0.22090574  1
  Sm  Sm19  1  0.61517798  0.36842399  0.24650464  1
  Sm  Sm20  1  0.87788009  0.13380594  0.35160375  1
  Sm  Sm21  1  0.76405517  0.88516960  0.02688439  1
  Sm  Sm22  1  0.61153886  0.36920756  0.05119859  1
  Sm  Sm23  1  0.87130835  0.12452610  0.14759870  1
  Mn  Mn0  1  0.74491965  0.88306719  0.82654730  1
  Mn  Mn1  1  0.88139551  0.13250636  0.94963512  1
  Mn  Mn2  1  0.86693269  0.11881497  0.75099215  1
  Mn  Mn3  1  0.86739611  0.10287740  0.54326109  1
  S  S0  1  0.97313929  0.85789232  0.89423742  1
  S  S1  1  0.00850166  0.36906602  0.89997241  1
  S  S2  1  0.48485546  0.99227625  0.97029781  1
  S  S3  1  0.99823903  0.86949244  0.70222583  1
  S  S4  1  0.11971841  0.13552267  0.82397115  1
  S  S5  1  0.01137913  0.36705235  0.69996863  1
  S  S6  1  0.39427913  0.53302755  0.80391419  1
  S  S7  1  0.50018077  0.98314134  0.77398691  1
  S  S8  1  0.00590735  0.88130490  0.50400263  1
  S  S9  1  0.63634595  0.62622605  0.92741888  1
  S  S10  1  0.01176147  0.35263816  0.50118994  1
  S  S11  1  0.14727639  0.14703950  0.62755491  1
  S  S12  1  0.52640154  0.01717983  0.67791380  1
  S  S13  1  0.51565134  0.01595235  0.87624592  1
  S  S14  1  0.37563918  0.51821570  0.60310497  1
  S  S15  1  0.64354104  0.63290973  0.72819242  1
  S  S16  1  0.48212221  0.99703853  0.57300101  1
  S  S17  1  0.86229716  0.46317945  0.79689694  1
  S  S18  1  0.51309685  0.99678341  0.47639563  1
  S  S19  1  0.12729094  0.13293041  0.42827928  1
  S  S20  1  0.34343808  0.50214398  0.39959039  1
  S  S21  1  0.64922369  0.65835870  0.53284480  1
  S  S22  1  0.99448277  0.84023056  0.09884913  1
  S  S23  1  0.50251697  0.99541813  0.36832583  1
  S  S24  1  0.85856209  0.48366219  0.59956169  1
  S  S25  1  0.50172787  0.00801617  0.27162900  1
  S  S26  1  0.14358383  0.14439815  0.22893558  1
  S  S27  1  0.34499893  0.50502178  0.20116507  1
  S  S28  1  0.64740636  0.63633131  0.32725049  1
  S  S29  1  0.49853491  0.99028130  0.17152590  1
  S  S30  1  0.86521392  0.51121988  0.39953396  1
  S  S31  1  0.49420039  0.99300338  0.06821031  1
  S  S32  1  0.11625917  0.13960853  0.01858290  1
  S  S33  1  0.37027946  0.51019185  0.00018753  1
  S  S34  1  0.65287377  0.65739049  0.13024691  1
  S  S35  1  0.99930495  0.85956554  0.30039383  1
  S  S36  1  0.86448580  0.50499316  0.20176013  1
  S  S37  1  0.99689632  0.35556083  0.29862975  1
  S  S38  1  0.85641226  0.47942630  0.99807663  1
  S  S39  1  0.98945909  0.35268769  0.09875638  1
loop_
_geom_bond_atom_site_label_1
_geom_bond_atom_site_label_2
_geom_bond_distance
_geom_bond_site_symmetry_2
Mn0 S0 2.576552 1_555
Mn0 S6 2.588322 1_555
Mn0 S7 2.620573 1_555
Mn0 S4 2.821718 1_665
Mn0 S13 3.013364 1_565
Mn0 S1 3.040627 1_665
Mn0 S15 3.135195 1_555
Mn1 S32 2.493843 1_656
Mn1 S38 2.676454 1_555
Mn1 S13 2.680171 1_555
Mn1 S0 2.779452 1_545
Mn1 S1 3.065201 1_655
Mn1 S33 3.083972 1_656
Mn1 S2 3.187706 1_545
Mn1 S9 3.205767 1_545
Mn2 S17 2.542036 1_555
Mn2 S12 2.614162 1_555
Mn2 S4 2.614360 1_655
Mn2 S3 2.758332 1_545
Mn2 S7 3.049461 1_545
Mn2 S15 3.052964 1_545
Mn2 S5 3.208361 1_655
Mn3 S8 2.500395 1_645
Mn3 S18 2.530253 1_545
Mn3 S11 2.900966 1_655
Mn3 S24 2.901873 1_555
Mn3 S10 2.929050 1_655
Mn3 S21 2.941823 1_545
Mn3 S14 3.244529 1_655
S0 Sm3 2.791809 1_665
S0 Sm7 3.031934 1_555
S0 Sm2 3.186298 1_655
S0 Sm0 3.248054 1_655
S1 Sm7 2.776035 1_455
S1 Sm0 2.794088 1_555
S1 Sm2 2.797842 1_555
S1 Sm3 2.993877 1_555
S2 Sm0 2.785197 1_555
S2 Sm21 2.879409 1_556
S2 Sm22 2.880638 1_566
S2 Sm3 2.995038 1_565
S2 Sm2 3.022825 1_555
S3 Sm10 2.832754 1_555
S3 Sm6 2.843160 1_665
S3 Sm1 3.034771 1_655
S3 Sm12 3.108280 1_555
S3 Sm4 3.194108 1_655
S4 Sm1 2.787469 1_545
S4 Sm2 3.052637 1_555
S4 Sm3 3.167075 1_555
S4 Sm7 3.169462 1_555
S5 Sm4 2.806284 1_555
S5 Sm12 2.821885 1_455
S5 Sm1 2.842060 1_555
S5 Sm6 3.024923 1_555
S5 Sm10 3.031480 1_445
S6 Sm7 2.784526 1_555
S6 Sm6 2.823890 1_555
S6 Sm2 3.047474 1_555
S6 Sm1 3.059587 1_555
S7 Sm1 2.788106 1_555
S7 Sm7 2.812009 1_565
S7 Sm4 3.098242 1_555
S7 Sm6 3.161704 1_565
S8 Sm16 2.754197 1_455
S8 Sm11 2.821571 1_565
S8 Sm5 2.901818 1_555
S8 Sm8 3.237220 1_555
S9 Sm2 2.795956 1_555
S9 Sm7 2.812947 1_555
S9 Sm3 2.820793 1_555
S9 Sm0 3.017603 1_655
S9 Sm21 3.116109 1_556
S10 Sm5 2.748499 1_555
S10 Sm8 2.805777 1_555
S10 Sm16 2.918863 1_445
S10 Sm11 2.969093 1_555
S11 Sm10 2.843557 1_445
S11 Sm5 2.884288 1_545
S11 Sm12 2.997077 1_555
S11 Sm4 3.006521 1_555
S11 Sm6 3.137325 1_555
S12 Sm6 2.800078 1_555
S12 Sm4 2.829540 1_545
S12 Sm12 3.068753 1_555
S12 Sm10 3.079068 1_545
S12 Sm5 3.449173 1_545
S13 Sm3 2.767830 1_555
S13 Sm2 2.830870 1_545
S13 Sm7 3.041569 1_555
S13 Sm1 3.169183 1_545
S14 Sm12 2.771721 1_555
S14 Sm10 2.786030 1_555
S14 Sm11 2.887090 1_555
S14 Sm4 2.963229 1_555
S14 Sm5 3.146787 1_555
S15 Sm6 2.783688 1_555
S15 Sm12 2.788784 1_555
S15 Sm4 2.805689 1_555
S15 Sm1 2.968312 1_655
S16 Sm12 2.762058 1_565
S16 Sm10 2.792970 1_555
S16 Sm5 2.808805 1_555
S16 Sm11 3.037307 1_565
S16 Sm8 3.115076 1_555
S17 Sm2 2.774195 1_655
S17 Sm1 2.847714 1_655
S17 Sm6 2.994086 1_555
S17 Sm7 3.088718 1_555
S18 Sm11 2.790812 1_565
S18 Sm8 2.805607 1_555
S18 Sm16 2.919636 1_555
S18 Sm9 3.137526 1_555
S19 Sm20 2.780602 1_455
S19 Sm9 2.790630 1_545
S19 Sm16 2.808912 1_445
S19 Sm8 2.993635 1_555
S19 Sm11 3.059410 1_555
S20 Sm15 2.777490 1_555
S20 Sm16 2.863520 1_555
S20 Sm9 2.945547 1_555
S20 Sm20 2.958335 1_455
S20 Sm8 2.983843 1_555
S21 Sm8 2.771384 1_555
S21 Sm11 2.817184 1_555
S21 Sm5 2.826888 1_655
S21 Sm10 2.919504 1_555
S22 Sm21 2.791524 1_555
S22 Sm23 2.862749 1_565
S22 Sm17 2.937581 1_655
S22 Sm14 2.964216 1_655
S22 Sm22 3.026483 1_555
S23 Sm9 2.849568 1_555
S23 Sm16 2.869672 1_555
S23 Sm15 2.902843 1_565
S23 Sm13 2.931184 1_555
S23 Sm20 2.954222 1_565
S24 Sm4 2.785155 1_655
S24 Sm5 2.850561 1_655
S24 Sm11 2.977265 1_555
S24 Sm12 3.051624 1_555
S24 Sm10 3.194161 1_555
S25 Sm20 2.836743 1_555
S25 Sm13 2.850875 1_545
S25 Sm15 2.878481 1_555
S25 Sm19 3.033644 1_555
S25 Sm14 3.075329 1_545
S25 Sm18 3.142420 1_545
S26 Sm14 2.852114 1_545
S26 Sm18 2.883871 1_445
S26 Sm23 2.886255 1_455
S26 Sm19 3.020850 1_555
S26 Sm13 3.053177 1_555
S26 Sm15 3.171429 1_555
S27 Sm19 2.790774 1_555
S27 Sm18 2.808299 1_555
S27 Sm13 2.947546 1_555
S27 Sm14 2.958834 1_555
S27 Sm23 3.010810 1_455
S28 Sm13 2.811972 1_555
S28 Sm19 2.837082 1_555
S28 Sm15 2.858900 1_555
S28 Sm9 3.035346 1_655
S28 Sm20 3.115695 1_565
S28 Sm16 3.273752 1_555
S29 Sm18 2.749003 1_555
S29 Sm19 2.785229 1_565
S29 Sm14 2.816607 1_555
S29 Sm17 2.989772 1_555
S29 Sm23 3.110117 1_565
S30 Sm20 2.788887 1_555
S30 Sm9 2.802455 1_655
S30 Sm8 2.856008 1_655
S30 Sm15 2.952158 1_555
S30 Sm16 3.115293 1_555
S31 Sm23 2.814007 1_565
S31 Sm17 2.858198 1_555
S31 Sm22 2.944395 1_565
S31 Sm0 2.951847 1_554
S31 Sm21 3.017726 1_555
S32 Sm0 2.804891 1_544
S32 Sm21 2.831113 1_445
S32 Sm22 3.022760 1_555
S32 Sm17 3.085927 1_555
S33 Sm22 2.804230 1_555
S33 Sm3 2.804276 1_554
S33 Sm21 2.818769 1_555
S33 Sm0 3.020035 1_554
S33 Sm17 3.146570 1_555
S34 Sm22 2.807354 1_555
S34 Sm17 2.834101 1_555
S34 Sm18 2.887181 1_555
S34 Sm14 2.960390 1_655
S34 Sm23 2.991280 1_565
S35 Sm18 2.854612 1_555
S35 Sm20 2.854974 1_565
S35 Sm15 2.858143 1_665
S35 Sm9 3.022385 1_655
S35 Sm13 3.063962 1_655
S35 Sm19 3.104807 1_555
S36 Sm13 2.778130 1_655
S36 Sm14 2.837779 1_655
S36 Sm23 2.861025 1_555
S36 Sm18 2.926116 1_555
S36 Sm19 2.999831 1_555
S37 Sm19 2.842953 1_555
S37 Sm13 2.846226 1_655
S37 Sm9 2.897911 1_655
S37 Sm20 3.083783 1_555
S37 Sm15 3.093037 1_655
S37 Sm18 3.174487 1_545
S38 Sm17 2.802829 1_656
S38 Sm0 2.844048 1_655
S38 Sm3 3.079626 1_555
S38 Sm21 3.175701 1_556
S38 Sm22 3.190739 1_556
S39 Sm22 2.782652 1_555
S39 Sm14 2.814744 1_655
S39 Sm17 2.845675 1_655
S39 Sm21 2.956381 1_545
S39 Sm23 2.976621 1_555
