# generated using pymatgen
data_SbSI
_symmetry_space_group_name_H-M   'P 1'
_cell_length_a   4.14322000
_cell_length_b   9.15054900
_cell_length_c   10.70290200
_cell_angle_alpha   90.00000000
_cell_angle_beta   90.00000000
_cell_angle_gamma   90.00000000
_symmetry_Int_Tables_number   1
_chemical_formula_structural   SbSI
_chemical_formula_sum   'Sb4 S4 I4'
_cell_volume   405.77631538
_cell_formula_units_Z   4
loop_
 _symmetry_equiv_pos_site_id
 _symmetry_equiv_pos_as_xyz
  1  'x, y, z'
loop_
 _atom_site_type_symbol
 _atom_site_label
 _atom_site_symmetry_multiplicity
 _atom_site_fract_x
 _atom_site_fract_y
 _atom_site_fract_z
 _atom_site_occupancy
  Sb  Sb0  1  0.28101600  0.60437600  0.37781600  1
  Sb  Sb1  1  0.78101600  0.39562400  0.62218400  1
  Sb  Sb2  1  0.78101600  0.89562400  0.87781600  1
  Sb  Sb3  1  0.28101600  0.10437600  0.12218400  1
  S  S0  1  0.26732600  0.35002300  0.45980300  1
  S  S1  1  0.76732600  0.64997700  0.54019700  1
  S  S2  1  0.76732600  0.14997700  0.95980300  1
  S  S3  1  0.26732600  0.85002300  0.04019700  1
  I  I0  1  0.26095800  0.00984800  0.68223000  1
  I  I1  1  0.76095800  0.99015200  0.31777000  1
  I  I2  1  0.76095800  0.49015200  0.18223000  1
  I  I3  1  0.26095800  0.50984800  0.81777000  1
loop_
_geom_bond_atom_site_label_1
_geom_bond_atom_site_label_2
_geom_bond_distance
_geom_bond_site_symmetry_2
S0 Sb0 2.488039 1_555
S0 Sb1 2.693392 1_455
S0 Sb1 2.779275 1_555
S1 Sb1 2.488039 1_555
S1 Sb0 2.693392 1_555
S1 Sb0 2.779275 1_655
S2 Sb2 2.488039 1_545
S2 Sb3 2.693392 1_556
S2 Sb3 2.779275 1_656
S3 Sb3 2.488039 1_565
S3 Sb2 2.693392 1_454
S3 Sb2 2.779275 1_554
I0 Sb2 3.070616 1_445
I0 Sb2 3.180775 1_545
I1 Sb3 3.070616 1_565
I1 Sb3 3.180775 1_665
I2 Sb0 3.070616 1_555
I2 Sb0 3.180775 1_655
I3 Sb1 3.070616 1_455
I3 Sb1 3.180775 1_555
