# generated using pymatgen
data_FeH5CN(ClO)2
_symmetry_space_group_name_H-M   'P 1'
_cell_length_a   6.93238632
_cell_length_b   6.98146663
_cell_length_c   13.53936814
_cell_angle_alpha   78.53133340
_cell_angle_beta   103.60211973
_cell_angle_gamma   98.78883423
_symmetry_Int_Tables_number   1
_chemical_formula_structural   FeH5CN(ClO)2
_chemical_formula_sum   'Fe4 H20 C4 N4 Cl8 O8'
_cell_volume   620.30639926
_cell_formula_units_Z   4
loop_
 _symmetry_equiv_pos_site_id
 _symmetry_equiv_pos_as_xyz
  1  'x, y, z'
loop_
 _atom_site_type_symbol
 _atom_site_label
 _atom_site_symmetry_multiplicity
 _atom_site_fract_x
 _atom_site_fract_y
 _atom_site_fract_z
 _atom_site_occupancy
  Fe  Fe0  1  0.49996700  0.50001500  0.50001200  1
  Fe  Fe1  1  0.00000800  0.99990700  0.00004400  1
  Fe  Fe2  1  0.49999900  0.99991100  0.00005900  1
  Fe  Fe3  1  0.99989600  0.50005000  0.49994100  1
  H  H0  1  0.24943800  0.50737400  0.16410000  1
  H  H1  1  0.25027700  0.00757900  0.66405700  1
  H  H2  1  0.75003600  0.99252800  0.33592400  1
  H  H3  1  0.75054200  0.49227000  0.83599300  1
  H  H4  1  0.26887700  0.12741700  0.36051000  1
  H  H5  1  0.26909200  0.62743700  0.86044500  1
  H  H6  1  0.23103600  0.02319400  0.25601100  1
  H  H7  1  0.23134700  0.52323500  0.75595200  1
  H  H8  1  0.73091200  0.37264900  0.13950500  1
  H  H9  1  0.73112000  0.87269500  0.63946000  1
  H  H10  1  0.76865400  0.47685000  0.24402200  1
  H  H11  1  0.76896300  0.97694300  0.74395900  1
  H  H12  1  0.37593600  0.91879600  0.36713400  1
  H  H13  1  0.37602400  0.41871900  0.86712200  1
  H  H14  1  0.12404200  0.90853900  0.35722400  1
  H  H15  1  0.12413800  0.40866500  0.85711600  1
  H  H16  1  0.62397300  0.58134300  0.13284500  1
  H  H17  1  0.62406800  0.08135800  0.63282000  1
  H  H18  1  0.87587700  0.59140700  0.14286400  1
  H  H19  1  0.87595300  0.09154000  0.64275200  1
  C  C0  1  0.24963400  0.65399300  0.11530500  1
  C  C1  1  0.25019800  0.15422300  0.61529200  1
  C  C2  1  0.74989400  0.84586100  0.38466200  1
  C  C3  1  0.75036500  0.34566300  0.88483200  1
  N  N0  1  0.24993900  0.99392500  0.33541700  1
  N  N1  1  0.25014000  0.49396100  0.83533600  1
  N  N2  1  0.74986500  0.50610400  0.16463600  1
  N  N3  1  0.75002200  0.00618700  0.66455300  1
  Cl  Cl0  1  0.31874400  0.17683100  0.09086800  1
  Cl  Cl1  1  0.31864300  0.67679900  0.59088900  1
  Cl  Cl2  1  0.18134500  0.45223000  0.36600500  1
  Cl  Cl3  1  0.18138000  0.95231700  0.86612200  1
  Cl  Cl4  1  0.68121900  0.32323500  0.40902900  1
  Cl  Cl5  1  0.68126500  0.82316900  0.90920000  1
  Cl  Cl6  1  0.81866500  0.04765500  0.13392900  1
  Cl  Cl7  1  0.81860200  0.54783200  0.63390100  1
  O  O0  1  0.41256700  0.72750200  0.08811300  1
  O  O1  1  0.41302200  0.22793000  0.58803300  1
  O  O2  1  0.08687600  0.73160300  0.09219000  1
  O  O3  1  0.08730400  0.23162200  0.59227300  1
  O  O4  1  0.58691100  0.77244800  0.41181400  1
  O  O5  1  0.58743200  0.27221400  0.91202700  1
  O  O6  1  0.91262400  0.76814300  0.40775800  1
  O  O7  1  0.91316800  0.26813000  0.90794300  1
loop_
_geom_bond_atom_site_label_1
_geom_bond_atom_site_label_2
_geom_bond_distance
_geom_bond_site_symmetry_2
Fe0 O1 2.116510 1_555
Fe0 O4 2.119393 1_555
Fe1 O7 2.118207 1_464
Fe1 O2 2.118931 1_555
Fe2 O5 2.118656 1_564
Fe2 O0 2.119337 1_555
Fe3 O6 2.118699 1_555
Fe3 O3 2.121558 1_655
H4 N0 1.033815 1_545
H5 N1 1.033804 1_555
H6 N0 1.034088 1_545
H7 N1 1.033866 1_555
H8 N2 1.033807 1_555
H9 N3 1.033837 1_565
H10 N2 1.033893 1_555
H11 N3 1.034063 1_565
H12 N0 1.047119 1_555
H13 N1 1.047020 1_555
H14 N0 1.047129 1_555
H15 N1 1.047345 1_555
H16 N2 1.047062 1_555
H17 N3 1.047062 1_555
H18 N2 1.047381 1_555
H19 N3 1.047202 1_555
C0 H0 1.102419 1_555
C0 O2 1.271962 1_555
C0 O0 1.272023 1_555
C1 H1 1.102394 1_555
C1 O1 1.272018 1_555
C1 O3 1.272113 1_555
C2 H2 1.102371 1_555
C2 O4 1.271966 1_555
C2 O6 1.272187 1_555
C3 H3 1.102599 1_555
C3 O5 1.271952 1_555
C3 O7 1.271968 1_555
Cl0 Fe1 2.532222 1_545
Cl0 Fe2 2.533966 1_545
Cl1 Fe3 2.532358 1_455
Cl1 Fe0 2.534310 1_555
Cl2 Fe0 2.532312 1_555
Cl2 Fe3 2.534589 1_455
Cl3 Fe2 2.531600 1_556
Cl3 Fe1 2.533499 1_556
Cl4 Fe3 2.532050 1_555
Cl4 Fe0 2.534954 1_555
Cl5 Fe1 2.531772 1_656
Cl5 Fe2 2.533671 1_556
Cl6 Fe2 2.531483 1_545
Cl6 Fe1 2.533317 1_645
Cl7 Fe0 2.531546 1_555
Cl7 Fe3 2.534039 1_555
