# generated using pymatgen
data_Sr2TiCu2O7
_symmetry_space_group_name_H-M   'P 1'
_cell_length_a   13.14983174
_cell_length_b   13.14983174
_cell_length_c   13.14983174
_cell_angle_alpha   157.39465762
_cell_angle_beta   156.85069448
_cell_angle_gamma   32.57813768
_symmetry_Int_Tables_number   1
_chemical_formula_structural   Sr2TiCu2O7
_chemical_formula_sum   'Sr4 Ti2 Cu4 O14'
_cell_volume   343.31543795
_cell_formula_units_Z   2
loop_
 _symmetry_equiv_pos_site_id
 _symmetry_equiv_pos_as_xyz
  1  'x, y, z'
loop_
 _atom_site_type_symbol
 _atom_site_label
 _atom_site_symmetry_multiplicity
 _atom_site_fract_x
 _atom_site_fract_y
 _atom_site_fract_z
 _atom_site_occupancy
  Sr  Sr0  1  0.63258800  0.62430400  0.96951000  1
  Sr  Sr1  1  0.36741200  0.33692200  0.99171600  1
  Sr  Sr2  1  0.15479400  0.12430400  0.99171600  1
  Sr  Sr3  1  0.84520600  0.83692200  0.96951000  1
  Ti  Ti0  1  0.17919900  0.79513900  0.47433900  1
  Ti  Ti1  1  0.82080100  0.29513900  0.61594000  1
  Cu  Cu0  1  0.56274200  0.03833300  0.48057600  1
  Cu  Cu1  1  0.43725800  0.91783500  0.47559100  1
  Cu  Cu2  1  0.05775600  0.53833300  0.47559100  1
  Cu  Cu3  1  0.94224400  0.41783500  0.48057600  1
  O  O0  1  0.84914600  0.65987200  0.00901800  1
  O  O1  1  0.15085400  0.15987200  0.81072600  1
  O  O2  1  0.32567900  0.30329800  0.47921100  1
  O  O3  1  0.67432100  0.15353200  0.97762000  1
  O  O4  1  0.32408700  0.80329800  0.97762000  1
  O  O5  1  0.67591300  0.65353200  0.47921100  1
  O  O6  1  0.82757000  0.80524100  0.47839300  1
  O  O7  1  0.17243000  0.65082400  0.97767100  1
  O  O8  1  0.82684800  0.30524100  0.97767100  1
  O  O9  1  0.17315200  0.15082400  0.47839300  1
  O  O10  1  0.23087800  0.64212000  0.50143100  1
  O  O11  1  0.76912200  0.27055400  0.41124200  1
  O  O12  1  0.64068900  0.14212000  0.41124200  1
  O  O13  1  0.35931100  0.77055400  0.50143100  1
loop_
_geom_bond_atom_site_label_1
_geom_bond_atom_site_label_2
_geom_bond_distance
_geom_bond_site_symmetry_2
Cu0 O8 1.882556 1_555
Cu0 O6 1.885560 1_545
Cu0 O2 1.888248 1_555
Cu0 O4 1.891834 1_544
Cu1 O9 1.882556 1_565
Cu1 O7 1.885560 1_554
Cu1 O3 1.888257 1_565
Cu1 O5 1.891846 1_555
Cu2 O6 1.882555 1_455
Cu2 O8 1.885563 1_454
Cu2 O4 1.888252 1_555
Cu2 O2 1.891846 1_555
Cu3 O7 1.882559 1_655
Cu3 O9 1.885559 1_655
Cu3 O5 1.888253 1_555
Cu3 O3 1.891844 1_554
O0 Ti0 1.876033 1_655
O0 Ti1 1.885964 1_554
O0 Sr0 2.770099 1_554
O0 Sr3 2.770099 1_554
O1 Ti1 1.876030 1_455
O1 Ti0 1.885962 1_545
O1 Sr1 2.770099 1_555
O1 Sr2 2.770099 1_555
O2 Sr2 2.499684 1_554
O2 Sr0 2.507117 1_555
O3 Sr3 2.499675 1_545
O3 Sr1 2.507109 1_555
O4 Sr0 2.499693 1_555
O4 Sr2 2.507126 1_565
O5 Sr1 2.499684 1_554
O5 Sr3 2.507117 1_555
O6 Sr0 2.519258 1_554
O6 Sr2 2.530758 1_665
O7 Sr1 2.519269 1_555
O7 Sr3 2.530763 1_455
O8 Sr2 2.519258 1_655
O8 Sr0 2.530758 1_555
O9 Sr3 2.519266 1_444
O9 Sr1 2.530766 1_555
O10 Ti0 1.792035 1_555
O10 Sr0 2.574725 1_555
O10 Sr2 2.678465 1_554
O10 Sr2 2.909327 1_565
O10 Sr0 3.123924 1_454
O11 Ti1 1.792059 1_555
O11 Sr1 2.574717 1_554
O11 Sr3 2.678463 1_544
O11 Sr3 2.909320 1_555
O11 Sr1 3.123922 1_655
O12 Ti1 1.792047 1_555
O12 Sr2 2.574725 1_554
O12 Sr0 2.678465 1_544
O12 Sr0 2.909327 1_555
O12 Sr2 3.123924 1_655
O13 Ti0 1.792068 1_555
O13 Sr3 2.574722 1_555
O13 Sr1 2.678462 1_554
O13 Sr1 2.909320 1_565
O13 Sr3 3.123917 1_454
