# generated using pymatgen
data_BeH12S2(NO5)2
_symmetry_space_group_name_H-M   'P 1'
_cell_length_a   11.65784200
_cell_length_b   11.90523200
_cell_length_c   7.55566418
_cell_angle_alpha   90.00000000
_cell_angle_beta   95.46471098
_cell_angle_gamma   90.00000000
_symmetry_Int_Tables_number   1
_chemical_formula_structural   BeH12S2(NO5)2
_chemical_formula_sum   'Be4 H48 S8 N8 O40'
_cell_volume   1043.87939554
_cell_formula_units_Z   4
loop_
 _symmetry_equiv_pos_site_id
 _symmetry_equiv_pos_as_xyz
  1  'x, y, z'
loop_
 _atom_site_type_symbol
 _atom_site_label
 _atom_site_symmetry_multiplicity
 _atom_site_fract_x
 _atom_site_fract_y
 _atom_site_fract_z
 _atom_site_occupancy
  Be  Be0  1  0.23381700  0.41991900  0.43221800  1
  Be  Be1  1  0.76618300  0.91991900  0.06778200  1
  Be  Be2  1  0.76618300  0.58008100  0.56778200  1
  Be  Be3  1  0.23381700  0.08008100  0.93221800  1
  H  H0  1  0.39929100  0.31766600  0.47221600  1
  H  H1  1  0.60070900  0.81766600  0.02778400  1
  H  H2  1  0.60070900  0.68233400  0.52778400  1
  H  H3  1  0.39929100  0.18233400  0.97221600  1
  H  H4  1  0.28731100  0.23560100  0.41320300  1
  H  H5  1  0.71268900  0.73560100  0.08679700  1
  H  H6  1  0.71268900  0.76439900  0.58679700  1
  H  H7  1  0.28731100  0.26439900  0.91320300  1
  H  H8  1  0.18198300  0.41590200  0.12621900  1
  H  H9  1  0.81801700  0.91590200  0.37378100  1
  H  H10  1  0.81801700  0.58409800  0.87378100  1
  H  H11  1  0.18198300  0.08409800  0.62621900  1
  H  H12  1  0.08835200  0.48272800  0.22991700  1
  H  H13  1  0.91164800  0.98272800  0.27008300  1
  H  H14  1  0.91164800  0.51727200  0.77008300  1
  H  H15  1  0.08835200  0.01727200  0.72991700  1
  H  H16  1  0.88927300  0.33053200  0.40181900  1
  H  H17  1  0.11072700  0.83053200  0.09818100  1
  H  H18  1  0.11072700  0.66946800  0.59818100  1
  H  H19  1  0.88927300  0.16946800  0.90181900  1
  H  H20  1  0.82987700  0.27267400  0.57596600  1
  H  H21  1  0.17012300  0.77267400  0.92403400  1
  H  H22  1  0.17012300  0.72732600  0.42403400  1
  H  H23  1  0.82987700  0.22732600  0.07596600  1
  H  H24  1  0.92436700  0.19621100  0.46316100  1
  H  H25  1  0.07563300  0.69621100  0.03683900  1
  H  H26  1  0.07563300  0.80378900  0.53683900  1
  H  H27  1  0.92436700  0.30378900  0.96316100  1
  H  H28  1  0.96917100  0.30650100  0.59437600  1
  H  H29  1  0.03082900  0.80650100  0.90562400  1
  H  H30  1  0.03082900  0.69349900  0.40562400  1
  H  H31  1  0.96917100  0.19349900  0.09437600  1
  H  H32  1  0.53321300  0.44603000  0.19864200  1
  H  H33  1  0.46678700  0.94603000  0.30135800  1
  H  H34  1  0.46678700  0.55397000  0.80135800  1
  H  H35  1  0.53321300  0.05397000  0.69864200  1
  H  H36  1  0.61492200  0.42955300  0.02649800  1
  H  H37  1  0.38507800  0.92955300  0.47350200  1
  H  H38  1  0.38507800  0.57044700  0.97350200  1
  H  H39  1  0.61492200  0.07044700  0.52649800  1
  H  H40  1  0.67423800  0.41310200  0.23934200  1
  H  H41  1  0.32576200  0.91310200  0.26065800  1
  H  H42  1  0.32576200  0.58689800  0.76065800  1
  H  H43  1  0.67423800  0.08689800  0.73934200  1
  H  H44  1  0.58239800  0.31664200  0.14311600  1
  H  H45  1  0.41760200  0.81664200  0.35688400  1
  H  H46  1  0.41760200  0.68335800  0.85688400  1
  H  H47  1  0.58239800  0.18335800  0.64311600  1
  S  S0  1  0.12634400  0.44418200  0.76468600  1
  S  S1  1  0.87365600  0.94418200  0.73531400  1
  S  S2  1  0.87365600  0.55581800  0.23531400  1
  S  S3  1  0.12634400  0.05581800  0.26468600  1
  S  S4  1  0.63547300  0.39300900  0.65316600  1
  S  S5  1  0.36452700  0.89300900  0.84683400  1
  S  S6  1  0.36452700  0.60699100  0.34683400  1
  S  S7  1  0.63547300  0.10699100  0.15316600  1
  N  N0  1  0.90343300  0.27452500  0.50782300  1
  N  N1  1  0.09656700  0.77452500  0.99217700  1
  N  N2  1  0.09656700  0.72547500  0.49217700  1
  N  N3  1  0.90343300  0.22547500  0.00782300  1
  N  N4  1  0.60141100  0.40163400  0.15326600  1
  N  N5  1  0.39858900  0.90163400  0.34673400  1
  N  N6  1  0.39858900  0.59836600  0.84673400  1
  N  N7  1  0.60141100  0.09836600  0.65326600  1
  O  O0  1  0.14192900  0.56726400  0.76602600  1
  O  O1  1  0.85807100  0.06726400  0.73397400  1
  O  O2  1  0.85807100  0.43273600  0.23397400  1
  O  O3  1  0.14192900  0.93273600  0.26602600  1
  O  O4  1  0.00547400  0.41419000  0.79602200  1
  O  O5  1  0.99452600  0.91419000  0.70397800  1
  O  O6  1  0.99452600  0.58581000  0.20397800  1
  O  O7  1  0.00547400  0.08581000  0.29602200  1
  O  O8  1  0.20884800  0.39051200  0.90135700  1
  O  O9  1  0.79115200  0.89051200  0.59864300  1
  O  O10  1  0.79115200  0.60948800  0.09864300  1
  O  O11  1  0.20884800  0.10948800  0.40135700  1
  O  O12  1  0.14444100  0.39700200  0.58325000  1
  O  O13  1  0.85555900  0.89700200  0.91675000  1
  O  O14  1  0.85555900  0.60299800  0.41675000  1
  O  O15  1  0.14444100  0.10299800  0.08325000  1
  O  O16  1  0.59086800  0.46368300  0.79225800  1
  O  O17  1  0.40913200  0.96368300  0.70774200  1
  O  O18  1  0.40913200  0.53631700  0.20774200  1
  O  O19  1  0.59086800  0.03631700  0.29225800  1
  O  O20  1  0.72826600  0.31765600  0.72924300  1
  O  O21  1  0.27173400  0.81765600  0.77075700  1
  O  O22  1  0.27173400  0.68234400  0.27075700  1
  O  O23  1  0.72826600  0.18234400  0.22924300  1
  O  O24  1  0.54308300  0.32570000  0.55436600  1
  O  O25  1  0.45691700  0.82570000  0.94563400  1
  O  O26  1  0.45691700  0.67430000  0.44563400  1
  O  O27  1  0.54308300  0.17430000  0.05436600  1
  O  O28  1  0.68563000  0.47081000  0.51825500  1
  O  O29  1  0.31437000  0.97081000  0.98174500  1
  O  O30  1  0.31437000  0.52919000  0.48174500  1
  O  O31  1  0.68563000  0.02919000  0.01825500  1
  O  O32  1  0.31983100  0.31275200  0.41146000  1
  O  O33  1  0.68016900  0.81275200  0.08854000  1
  O  O34  1  0.68016900  0.68724800  0.58854000  1
  O  O35  1  0.31983100  0.18724800  0.91146000  1
  O  O36  1  0.15085800  0.42430600  0.24356400  1
  O  O37  1  0.84914200  0.92430600  0.25643600  1
  O  O38  1  0.84914200  0.57569400  0.75643600  1
  O  O39  1  0.15085800  0.07569400  0.74356400  1
loop_
_geom_bond_atom_site_label_1
_geom_bond_atom_site_label_2
_geom_bond_distance
_geom_bond_site_symmetry_2
Be0 O30 1.627051 1_555
Be0 O32 1.639459 1_555
Be0 O12 1.639737 1_555
Be0 O36 1.645379 1_555
Be1 O31 1.627051 1_565
Be1 O33 1.639459 1_555
Be1 O13 1.639737 1_554
Be1 O37 1.645379 1_555
Be2 O28 1.627051 1_555
Be2 O34 1.639459 1_555
Be2 O14 1.639737 1_555
Be2 O38 1.645379 1_555
Be3 O29 1.627051 1_545
Be3 O35 1.639459 1_555
Be3 O15 1.639737 1_556
Be3 O39 1.645379 1_555
H0 O32 0.995615 1_555
H1 O33 0.995615 1_555
H2 O34 0.995615 1_555
H3 O35 0.995615 1_555
H4 O32 0.994231 1_555
H5 O33 0.994231 1_555
H6 O34 0.994231 1_555
H7 O35 0.994231 1_555
H8 O36 0.994505 1_555
H9 O37 0.994505 1_555
H10 O38 0.994505 1_555
H11 O39 0.994505 1_555
H12 O36 1.005516 1_555
H12 O6 1.643184 1_455
H13 O37 1.005516 1_555
H13 O7 1.643184 1_665
H14 O38 1.005516 1_555
H14 O4 1.643184 1_655
H15 O39 1.005516 1_555
H15 O5 1.643184 1_445
H16 N0 1.043143 1_555
H17 N1 1.043143 1_554
H18 N2 1.043143 1_555
H19 N3 1.043143 1_556
H20 N0 1.041622 1_555
H21 N1 1.041622 1_555
H22 N2 1.041622 1_555
H23 N3 1.041622 1_555
H24 N0 1.028779 1_555
H25 N1 1.028779 1_554
H26 N2 1.028779 1_555
H27 N3 1.028779 1_556
H28 N0 1.031720 1_555
H29 N1 1.031720 1_555
H30 N2 1.031720 1_555
H31 N3 1.031720 1_555
H32 N4 1.039668 1_555
H33 N5 1.039668 1_555
H34 N6 1.039668 1_555
H35 N7 1.039668 1_555
H36 N4 1.039920 1_555
H37 N5 1.039920 1_555
H38 N6 1.039920 1_555
H39 N7 1.039920 1_555
H40 N4 1.028228 1_555
H41 N5 1.028228 1_555
H42 N6 1.028228 1_555
H43 N7 1.028228 1_555
H44 N4 1.037117 1_555
H45 N5 1.037117 1_555
H46 N6 1.037117 1_555
H47 N7 1.037117 1_555
O0 S0 1.476457 1_555
O1 S1 1.476457 1_545
O2 S2 1.476457 1_555
O3 S3 1.476457 1_565
O4 S0 1.494192 1_555
O5 S1 1.494192 1_555
O6 S2 1.494192 1_555
O7 S3 1.494192 1_555
O8 S0 1.486785 1_555
O9 S1 1.486785 1_555
O10 S2 1.486785 1_555
O11 S3 1.486785 1_555
O12 S0 1.514718 1_555
O13 S1 1.514718 1_555
O14 S2 1.514718 1_555
O15 S3 1.514718 1_555
O16 S4 1.478811 1_555
O17 S5 1.478811 1_555
O18 S6 1.478811 1_555
O19 S7 1.478811 1_555
O20 S4 1.478842 1_555
O21 S5 1.478842 1_555
O22 S6 1.478842 1_555
O23 S7 1.478842 1_555
O24 S4 1.485371 1_555
O25 S5 1.485371 1_555
O26 S6 1.485371 1_555
O27 S7 1.485371 1_555
O28 S4 1.533754 1_555
O29 S5 1.533754 1_555
O30 S6 1.533754 1_555
O31 S7 1.533754 1_555
