# generated using pymatgen
data_Na2SnO6
_symmetry_space_group_name_H-M   'P 1'
_cell_length_a   5.31955368
_cell_length_b   5.31955368
_cell_length_c   5.31955409
_cell_angle_alpha   74.93237730
_cell_angle_beta   74.93237730
_cell_angle_gamma   74.93237559
_symmetry_Int_Tables_number   1
_chemical_formula_structural   Na2SnO6
_chemical_formula_sum   'Na2 Sn1 O6'
_cell_volume   137.33825091
_cell_formula_units_Z   1
loop_
 _symmetry_equiv_pos_site_id
 _symmetry_equiv_pos_as_xyz
  1  'x, y, z'
loop_
 _atom_site_type_symbol
 _atom_site_label
 _atom_site_symmetry_multiplicity
 _atom_site_fract_x
 _atom_site_fract_y
 _atom_site_fract_z
 _atom_site_occupancy
  Na  Na0  1  0.67833800  0.67833800  0.67833800  1
  Na  Na1  1  0.32166200  0.32166200  0.32166200  1
  Sn  Sn0  1  0.00000000  0.00000000  0.00000000  1
  O  O0  1  0.21996600  0.91212300  0.64208100  1
  O  O1  1  0.91212300  0.64208100  0.21996600  1
  O  O2  1  0.64208100  0.21996600  0.91212300  1
  O  O3  1  0.78003400  0.08787700  0.35791900  1
  O  O4  1  0.08787700  0.35791900  0.78003400  1
  O  O5  1  0.35791900  0.78003400  0.08787700  1
loop_
_geom_bond_atom_site_label_1
_geom_bond_atom_site_label_2
_geom_bond_distance
_geom_bond_site_symmetry_2
Na0 O0 2.464245 1_555
Na0 O2 2.464245 1_555
Na0 O1 2.464245 1_555
Na0 O4 2.479271 1_655
Na0 O3 2.479271 1_565
Na0 O5 2.479271 1_556
Na1 O3 2.464245 1_555
Na1 O5 2.464245 1_555
Na1 O4 2.464245 1_555
Na1 O1 2.479271 1_455
Na1 O0 2.479271 1_545
Na1 O2 2.479271 1_554
O0 Sn0 2.057390 1_566
O1 Sn0 2.057390 1_665
O2 Sn0 2.057390 1_656
O3 Sn0 2.057390 1_655
O4 Sn0 2.057390 1_556
O5 Sn0 2.057390 1_565
