# generated using pymatgen
data_CsKMg30O31
_symmetry_space_group_name_H-M   'P 1'
_cell_length_a   8.84952172
_cell_length_b   8.65071728
_cell_length_c   8.78644545
_cell_angle_alpha   90.00000000
_cell_angle_beta   90.00000000
_cell_angle_gamma   90.00000000
_symmetry_Int_Tables_number   1
_chemical_formula_structural   CsKMg30O31
_chemical_formula_sum   'Cs1 K1 Mg30 O31'
_cell_volume   672.64378742
_cell_formula_units_Z   1
loop_
 _symmetry_equiv_pos_site_id
 _symmetry_equiv_pos_as_xyz
  1  'x, y, z'
loop_
 _atom_site_type_symbol
 _atom_site_label
 _atom_site_symmetry_multiplicity
 _atom_site_fract_x
 _atom_site_fract_y
 _atom_site_fract_z
 _atom_site_occupancy
  Cs  Cs0  1  0.97271828  0.50000000  0.50000000  1
  K  K0  1  0.99753544  -0.00000000  0.00000000  1
  Mg  Mg0  1  0.97922551  -0.00000000  0.50000000  1
  Mg  Mg1  1  0.99889042  0.50000000  0.00000000  1
  Mg  Mg2  1  0.50182388  -0.00000000  0.00000000  1
  Mg  Mg3  1  0.51796930  -0.00000000  0.50000000  1
  Mg  Mg4  1  0.50021079  0.50000000  0.00000000  1
  Mg  Mg5  1  0.48757550  0.50000000  0.50000000  1
  Mg  Mg6  1  0.00795626  0.24818264  0.24740793  1
  Mg  Mg7  1  0.00795626  0.24818264  0.75259207  1
  Mg  Mg8  1  0.00795626  0.75181736  0.24740793  1
  Mg  Mg9  1  0.00795626  0.75181736  0.75259207  1
  Mg  Mg10  1  0.49610724  0.24825760  0.24516012  1
  Mg  Mg11  1  0.49610724  0.24825760  0.75483988  1
  Mg  Mg12  1  0.49610724  0.75174240  0.24516012  1
  Mg  Mg13  1  0.49610724  0.75174240  0.75483988  1
  Mg  Mg14  1  0.24805269  -0.00000000  0.22736227  1
  Mg  Mg15  1  0.24805269  -0.00000000  0.77263773  1
  Mg  Mg16  1  0.25222100  0.50000000  0.23866793  1
  Mg  Mg17  1  0.25222100  0.50000000  0.76133207  1
  Mg  Mg18  1  0.75231975  -0.00000000  0.24874164  1
  Mg  Mg19  1  0.75231975  -0.00000000  0.75125836  1
  Mg  Mg20  1  0.73694637  0.50000000  0.24350132  1
  Mg  Mg21  1  0.73694637  0.50000000  0.75649868  1
  Mg  Mg22  1  0.25182199  0.25645127  0.00000000  1
  Mg  Mg23  1  0.25616292  0.27028937  0.50000000  1
  Mg  Mg24  1  0.25182199  0.74354873  0.00000000  1
  Mg  Mg25  1  0.25616292  0.72971063  0.50000000  1
  Mg  Mg26  1  0.75136013  0.25216037  0.00000000  1
  Mg  Mg27  1  0.72604302  0.25309317  0.50000000  1
  Mg  Mg28  1  0.75136013  0.74783963  0.00000000  1
  Mg  Mg29  1  0.72604302  0.74690683  0.50000000  1
  O  O0  1  0.27511093  -0.00000000  0.00000000  1
  O  O1  1  0.26629738  0.50000000  0.00000000  1
  O  O2  1  0.27323668  0.50000000  0.50000000  1
  O  O3  1  0.72521984  -0.00000000  0.00000000  1
  O  O4  1  0.74468491  -0.00000000  0.50000000  1
  O  O5  1  0.73944032  0.50000000  0.00000000  1
  O  O6  1  0.69672335  0.50000000  0.50000000  1
  O  O7  1  0.25544178  0.24455565  0.24722768  1
  O  O8  1  0.25544178  0.24455565  0.75277232  1
  O  O9  1  0.25544178  0.75544435  0.24722768  1
  O  O10  1  0.25544178  0.75544435  0.75277232  1
  O  O11  1  0.74991140  0.25160601  0.25736844  1
  O  O12  1  0.74991140  0.25160601  0.74263156  1
  O  O13  1  0.74991140  0.74839399  0.25736844  1
  O  O14  1  0.74991140  0.74839399  0.74263156  1
  O  O15  1  0.00260296  -0.00000000  0.26976760  1
  O  O16  1  0.00260296  -0.00000000  0.73023240  1
  O  O17  1  0.01729450  0.50000000  0.21945752  1
  O  O18  1  0.01729450  0.50000000  0.78054248  1
  O  O19  1  0.49458360  -0.00000000  0.25949280  1
  O  O20  1  0.49458360  -0.00000000  0.74050720  1
  O  O21  1  0.49564567  0.50000000  0.24515422  1
  O  O22  1  0.49564567  0.50000000  0.75484578  1
  O  O23  1  -0.00066850  0.26954637  0.00000000  1
  O  O24  1  0.04219097  0.21312609  0.50000000  1
  O  O25  1  -0.00066850  0.73045363  0.00000000  1
  O  O26  1  0.04219097  0.78687391  0.50000000  1
  O  O27  1  0.50337529  0.25033997  0.00000000  1
  O  O28  1  0.48788301  0.23661995  0.50000000  1
  O  O29  1  0.50337529  0.74966003  0.00000000  1
  O  O30  1  0.48788301  0.76338005  0.50000000  1
loop_
_geom_bond_atom_site_label_1
_geom_bond_atom_site_label_2
_geom_bond_distance
_geom_bond_site_symmetry_2
Cs0 O6 2.442423 1_555
Cs0 O18 2.496337 1_655
Cs0 O17 2.496337 1_655
Cs0 O24 2.556686 1_655
Cs0 O26 2.556686 1_655
Cs0 O2 2.659444 1_655
K0 O23 2.331824 1_655
K0 O25 2.331824 1_645
K0 O15 2.370722 1_655
K0 O16 2.370722 1_654
K0 O3 2.409863 1_555
K0 O0 2.456410 1_655
Mg0 O26 1.926056 1_645
Mg0 O24 1.926056 1_655
Mg0 O15 2.033475 1_655
Mg0 O16 2.033475 1_655
Mg0 O4 2.075572 1_555
Mg1 O18 1.935117 1_654
Mg1 O17 1.935117 1_655
Mg1 O25 1.993593 1_655
Mg1 O23 1.993593 1_655
Mg1 O5 2.296009 1_555
Mg1 O1 2.366424 1_655
Mg2 O3 1.976947 1_555
Mg2 O0 2.006301 1_555
Mg2 O29 2.165664 1_545
Mg2 O27 2.165664 1_555
Mg2 O19 2.280919 1_555
Mg2 O20 2.280919 1_554
Mg3 O4 2.006325 1_555
Mg3 O28 2.064175 1_555
Mg3 O30 2.064175 1_545
Mg3 O20 2.123313 1_555
Mg3 O19 2.123313 1_555
Mg4 O1 2.070022 1_555
Mg4 O5 2.117067 1_555
Mg4 O22 2.154413 1_554
Mg4 O21 2.154413 1_555
Mg4 O27 2.159920 1_555
Mg4 O29 2.159920 1_555
Mg5 O6 1.850858 1_555
Mg5 O2 1.896796 1_555
Mg5 O21 2.240327 1_555
Mg5 O22 2.240327 1_555
Mg5 O30 2.278428 1_555
Mg5 O28 2.278428 1_555
Mg6 O15 2.156448 1_555
Mg6 O23 2.183013 1_555
Mg6 O7 2.190354 1_555
Mg6 O17 2.193757 1_555
Mg6 O24 2.260405 1_555
Mg6 O11 2.285442 1_455
Mg7 O16 2.156448 1_555
Mg7 O23 2.183013 1_556
Mg7 O8 2.190354 1_555
Mg7 O18 2.193757 1_555
Mg7 O24 2.260405 1_555
Mg7 O12 2.285442 1_455
Mg8 O15 2.156448 1_565
Mg8 O25 2.183013 1_555
Mg8 O9 2.190354 1_555
Mg8 O17 2.193757 1_555
Mg8 O26 2.260405 1_555
Mg8 O13 2.285442 1_455
Mg9 O16 2.156448 1_565
Mg9 O25 2.183013 1_556
Mg9 O10 2.190354 1_555
Mg9 O18 2.193757 1_555
Mg9 O26 2.260405 1_555
Mg9 O14 2.285442 1_455
Mg10 O7 2.130092 1_555
Mg10 O19 2.151338 1_555
Mg10 O27 2.155121 1_555
Mg10 O21 2.177756 1_555
Mg10 O28 2.242580 1_555
Mg10 O11 2.248792 1_555
Mg11 O8 2.130092 1_555
Mg11 O20 2.151338 1_555
Mg11 O27 2.155121 1_556
Mg11 O22 2.177756 1_555
Mg11 O28 2.242580 1_555
Mg11 O12 2.248792 1_555
Mg12 O9 2.130092 1_555
Mg12 O19 2.151338 1_565
Mg12 O29 2.155121 1_555
Mg12 O21 2.177756 1_555
Mg12 O30 2.242580 1_555
Mg12 O13 2.248792 1_555
Mg13 O10 2.130092 1_555
Mg13 O20 2.151338 1_565
Mg13 O29 2.155121 1_556
Mg13 O22 2.177756 1_555
Mg13 O30 2.242580 1_555
Mg13 O14 2.248792 1_555
Mg14 O0 2.012006 1_555
Mg14 O7 2.123777 1_555
Mg14 O9 2.123777 1_545
Mg14 O19 2.199871 1_555
Mg14 O15 2.203837 1_555
Mg15 O0 2.012006 1_556
Mg15 O10 2.123777 1_545
Mg15 O8 2.123777 1_555
Mg15 O20 2.199871 1_555
Mg15 O16 2.203837 1_555
Mg16 O17 2.085828 1_555
Mg16 O1 2.100739 1_555
Mg16 O21 2.154946 1_555
Mg16 O9 2.211240 1_555
Mg16 O7 2.211240 1_555
Mg16 O2 2.303699 1_555
Mg17 O18 2.085828 1_555
Mg17 O1 2.100739 1_556
Mg17 O22 2.154946 1_555
Mg17 O8 2.211240 1_555
Mg17 O10 2.211240 1_555
Mg17 O2 2.303699 1_555
Mg18 O13 2.177996 1_545
Mg18 O11 2.177996 1_555
Mg18 O3 2.198673 1_555
Mg18 O4 2.208702 1_555
Mg18 O15 2.222578 1_655
Mg18 O19 2.282797 1_555
Mg19 O14 2.177996 1_545
Mg19 O12 2.177996 1_555
Mg19 O3 2.198673 1_556
Mg19 O4 2.208702 1_555
Mg19 O16 2.222578 1_655
Mg19 O20 2.282797 1_555
Mg20 O21 2.135445 1_555
Mg20 O5 2.139625 1_555
Mg20 O11 2.155294 1_555
Mg20 O13 2.155294 1_555
Mg20 O6 2.281648 1_555
Mg20 O17 2.489925 1_655
Mg21 O22 2.135445 1_555
Mg21 O5 2.139625 1_556
Mg21 O12 2.155294 1_555
Mg21 O14 2.155294 1_555
Mg21 O6 2.281648 1_555
Mg21 O18 2.489925 1_655
Mg22 O1 2.110762 1_555
Mg22 O8 2.174925 1_554
Mg22 O7 2.174925 1_555
Mg22 O27 2.226754 1_555
Mg22 O0 2.228040 1_555
Mg22 O23 2.237290 1_555
Mg23 O24 1.957055 1_555
Mg23 O2 1.992898 1_555
Mg23 O28 2.071194 1_555
Mg23 O7 2.232108 1_555
Mg23 O8 2.232108 1_555
Mg24 O1 2.110762 1_555
Mg24 O10 2.174925 1_554
Mg24 O9 2.174925 1_555
Mg24 O29 2.226754 1_555
Mg24 O0 2.228040 1_565
Mg24 O25 2.237290 1_555
Mg25 O26 1.957055 1_555
Mg25 O2 1.992898 1_555
Mg25 O30 2.071194 1_555
Mg25 O9 2.232108 1_555
Mg25 O10 2.232108 1_555
Mg26 O5 2.146584 1_555
Mg26 O3 2.193600 1_555
Mg26 O27 2.194604 1_555
Mg26 O23 2.199576 1_655
Mg26 O12 2.261395 1_554
Mg26 O11 2.261395 1_555
Mg27 O28 2.112414 1_555
Mg27 O11 2.142346 1_555
Mg27 O12 2.142346 1_555
Mg27 O6 2.151623 1_555
Mg27 O4 2.195644 1_555
Mg28 O5 2.146584 1_555
Mg28 O3 2.193600 1_565
Mg28 O29 2.194604 1_555
Mg28 O25 2.199576 1_655
Mg28 O13 2.261395 1_555
Mg28 O14 2.261395 1_554
Mg29 O30 2.112414 1_555
Mg29 O13 2.142346 1_555
Mg29 O14 2.142346 1_555
Mg29 O6 2.151623 1_555
Mg29 O4 2.195644 1_565
