# generated using pymatgen
data_Ce3Cr10N11
_symmetry_space_group_name_H-M   'P 1'
_cell_length_a   8.98979923
_cell_length_b   8.98979923
_cell_length_c   8.98979923
_cell_angle_alpha   60.00000000
_cell_angle_beta   60.00000000
_cell_angle_gamma   60.00000000
_symmetry_Int_Tables_number   1
_chemical_formula_structural   Ce3Cr10N11
_chemical_formula_sum   'Ce6 Cr20 N22'
_cell_volume   513.73006290
_cell_formula_units_Z   2
loop_
 _symmetry_equiv_pos_site_id
 _symmetry_equiv_pos_as_xyz
  1  'x, y, z'
loop_
 _atom_site_type_symbol
 _atom_site_label
 _atom_site_symmetry_multiplicity
 _atom_site_fract_x
 _atom_site_fract_y
 _atom_site_fract_z
 _atom_site_occupancy
  Ce  Ce0  1  0.69403000  0.30597000  0.30597000  1
  Ce  Ce1  1  0.30597000  0.69403000  0.69403000  1
  Ce  Ce2  1  0.30597000  0.69403000  0.30597000  1
  Ce  Ce3  1  0.69403000  0.30597000  0.69403000  1
  Ce  Ce4  1  0.30597000  0.30597000  0.69403000  1
  Ce  Ce5  1  0.69403000  0.69403000  0.30597000  1
  Cr  Cr0  1  0.09842100  0.09842100  0.09842100  1
  Cr  Cr1  1  0.90157900  0.90157900  0.90157900  1
  Cr  Cr2  1  0.09842100  0.09842100  0.70473800  1
  Cr  Cr3  1  0.09842100  0.70473800  0.09842100  1
  Cr  Cr4  1  0.90157900  0.90157900  0.29526200  1
  Cr  Cr5  1  0.90157900  0.29526200  0.90157900  1
  Cr  Cr6  1  0.70473800  0.09842100  0.09842100  1
  Cr  Cr7  1  0.29526200  0.90157900  0.90157900  1
  Cr  Cr8  1  0.39039100  0.10960900  0.10960900  1
  Cr  Cr9  1  0.60960900  0.89039100  0.89039100  1
  Cr  Cr10  1  0.10960900  0.39039100  0.39039100  1
  Cr  Cr11  1  0.10960900  0.39039100  0.10960900  1
  Cr  Cr12  1  0.60960900  0.89039100  0.60960900  1
  Cr  Cr13  1  0.89039100  0.60960900  0.60960900  1
  Cr  Cr14  1  0.89039100  0.60960900  0.89039100  1
  Cr  Cr15  1  0.39039100  0.10960900  0.39039100  1
  Cr  Cr16  1  0.10960900  0.10960900  0.39039100  1
  Cr  Cr17  1  0.89039100  0.89039100  0.60960900  1
  Cr  Cr18  1  0.39039100  0.39039100  0.10960900  1
  Cr  Cr19  1  0.60960900  0.60960900  0.89039100  1
  N  N0  1  0.34580200  0.00000000  0.00000000  1
  N  N1  1  0.65419800  0.00000000  0.00000000  1
  N  N2  1  0.00000000  0.34580200  0.65419800  1
  N  N3  1  0.00000000  0.65419800  0.34580200  1
  N  N4  1  0.00000000  0.34580200  0.00000000  1
  N  N5  1  0.65419800  0.00000000  0.34580200  1
  N  N6  1  0.00000000  0.65419800  0.00000000  1
  N  N7  1  0.34580200  0.00000000  0.65419800  1
  N  N8  1  0.00000000  0.00000000  0.34580200  1
  N  N9  1  0.00000000  0.00000000  0.65419800  1
  N  N10  1  0.65419800  0.34580200  0.00000000  1
  N  N11  1  0.34580200  0.65419800  0.00000000  1
  N  N12  1  0.36194600  0.36194600  0.36194600  1
  N  N13  1  0.63805400  0.63805400  0.63805400  1
  N  N14  1  0.36194600  0.36194600  0.91416200  1
  N  N15  1  0.36194600  0.91416200  0.36194600  1
  N  N16  1  0.63805400  0.63805400  0.08583800  1
  N  N17  1  0.63805400  0.08583800  0.63805400  1
  N  N18  1  0.91416200  0.36194600  0.36194600  1
  N  N19  1  0.08583800  0.63805400  0.63805400  1
  N  N20  1  0.50000000  0.50000000  0.50000000  1
  N  N21  1  0.00000000  0.00000000  0.00000000  1
loop_
_geom_bond_atom_site_label_1
_geom_bond_atom_site_label_2
_geom_bond_distance
_geom_bond_site_symmetry_2
Ce0 N20 2.466800 1_555
Ce0 N18 2.582158 1_555
Ce0 N17 2.582158 1_555
Ce0 N16 2.582158 1_555
Ce0 N12 2.582158 1_555
Ce0 N8 2.773819 1_655
Ce0 N4 2.773819 1_655
Ce0 N5 2.773819 1_555
Ce0 N10 2.773819 1_555
Ce1 N20 2.466800 1_555
Ce1 N14 2.582158 1_555
Ce1 N15 2.582158 1_555
Ce1 N13 2.582158 1_555
Ce1 N19 2.582158 1_555
Ce1 N7 2.773819 1_565
Ce1 N11 2.773819 1_556
Ce1 N9 2.773819 1_565
Ce1 N6 2.773819 1_556
Ce2 N20 2.466800 1_555
Ce2 N15 2.582158 1_555
Ce2 N19 2.582158 1_555
Ce2 N16 2.582158 1_555
Ce2 N12 2.582158 1_555
Ce2 N8 2.773819 1_565
Ce2 N0 2.773819 1_565
Ce2 N3 2.773819 1_555
Ce2 N11 2.773819 1_555
Ce3 N20 2.466800 1_555
Ce3 N14 2.582158 1_555
Ce3 N18 2.582158 1_555
Ce3 N13 2.582158 1_555
Ce3 N17 2.582158 1_555
Ce3 N2 2.773819 1_655
Ce3 N10 2.773819 1_556
Ce3 N9 2.773819 1_655
Ce3 N1 2.773819 1_556
Ce4 N20 2.466800 1_555
Ce4 N14 2.582158 1_555
Ce4 N19 2.582158 1_555
Ce4 N17 2.582158 1_555
Ce4 N12 2.582158 1_555
Ce4 N0 2.773819 1_556
Ce4 N4 2.773819 1_556
Ce4 N7 2.773819 1_555
Ce4 N2 2.773819 1_555
Ce5 N20 2.466800 1_555
Ce5 N15 2.582158 1_555
Ce5 N18 2.582158 1_555
Ce5 N13 2.582158 1_555
Ce5 N16 2.582158 1_555
Ce5 N3 2.773819 1_655
Ce5 N5 2.773819 1_565
Ce5 N6 2.773819 1_655
Ce5 N1 2.773819 1_565
Cr0 N8 1.832739 1_555
Cr0 N0 1.832739 1_555
Cr0 N4 1.832739 1_555
Cr0 N21 2.167272 1_555
Cr1 N9 1.832739 1_665
Cr1 N6 1.832739 1_656
Cr1 N1 1.832739 1_566
Cr1 N21 2.167272 1_666
Cr2 N2 1.832738 1_555
Cr2 N7 1.832738 1_555
Cr2 N9 1.832746 1_555
Cr2 N21 2.167265 1_556
Cr3 N3 1.832738 1_555
Cr3 N11 1.832738 1_555
Cr3 N6 1.832746 1_555
Cr3 N21 2.167265 1_565
Cr4 N3 1.832738 1_655
Cr4 N5 1.832738 1_565
Cr4 N8 1.832746 1_665
Cr4 N21 2.167265 1_665
Cr5 N2 1.832738 1_655
Cr5 N10 1.832738 1_556
Cr5 N4 1.832746 1_656
Cr5 N21 2.167265 1_656
Cr6 N5 1.832738 1_555
Cr6 N10 1.832738 1_555
Cr6 N1 1.832746 1_555
Cr6 N21 2.167265 1_655
Cr7 N7 1.832738 1_565
Cr7 N11 1.832738 1_556
Cr7 N0 1.832746 1_566
Cr7 N21 2.167265 1_566
Cr8 N1 1.965568 1_555
Cr8 N0 1.965568 1_555
Cr8 N14 2.044974 1_554
Cr8 N15 2.044974 1_545
Cr9 N0 1.965568 1_566
Cr9 N1 1.965568 1_566
Cr9 N16 2.044974 1_556
Cr9 N17 2.044974 1_565
Cr10 N2 1.965568 1_555
Cr10 N3 1.965568 1_555
Cr10 N12 2.044974 1_555
Cr10 N18 2.044974 1_455
Cr11 N6 1.965568 1_555
Cr11 N4 1.965568 1_555
Cr11 N18 2.044974 1_455
Cr11 N14 2.044974 1_554
Cr12 N5 1.965568 1_565
Cr12 N7 1.965568 1_565
Cr12 N13 2.044974 1_555
Cr12 N17 2.044974 1_565
Cr13 N2 1.965568 1_655
Cr13 N3 1.965568 1_655
Cr13 N13 2.044974 1_555
Cr13 N19 2.044974 1_655
Cr14 N4 1.965568 1_656
Cr14 N6 1.965568 1_656
Cr14 N16 2.044974 1_556
Cr14 N19 2.044974 1_655
Cr15 N7 1.965568 1_555
Cr15 N5 1.965568 1_555
Cr15 N12 2.044974 1_555
Cr15 N15 2.044974 1_545
Cr16 N9 1.965568 1_555
Cr16 N8 1.965568 1_555
Cr16 N18 2.044974 1_455
Cr16 N15 2.044974 1_545
Cr17 N8 1.965568 1_665
Cr17 N9 1.965568 1_665
Cr17 N17 2.044974 1_565
Cr17 N19 2.044974 1_655
Cr18 N11 1.965568 1_555
Cr18 N10 1.965568 1_555
Cr18 N12 2.044974 1_555
Cr18 N14 2.044974 1_554
Cr19 N11 1.965568 1_556
Cr19 N10 1.965568 1_556
Cr19 N13 2.044974 1_555
Cr19 N16 2.044974 1_556
