# generated using pymatgen
data_Ca2S2O7
_symmetry_space_group_name_H-M   'P 1'
_cell_length_a   5.69994700
_cell_length_b   9.90696300
_cell_length_c   11.04431000
_cell_angle_alpha   90.00000000
_cell_angle_beta   90.00000000
_cell_angle_gamma   90.00000000
_symmetry_Int_Tables_number   1
_chemical_formula_structural   Ca2S2O7
_chemical_formula_sum   'Ca8 S8 O28'
_cell_volume   623.66295300
_cell_formula_units_Z   4
loop_
 _symmetry_equiv_pos_site_id
 _symmetry_equiv_pos_as_xyz
  1  'x, y, z'
loop_
 _atom_site_type_symbol
 _atom_site_label
 _atom_site_symmetry_multiplicity
 _atom_site_fract_x
 _atom_site_fract_y
 _atom_site_fract_z
 _atom_site_occupancy
  Ca  Ca0  1  0.42991300  0.62877800  0.13067100  1
  Ca  Ca1  1  0.07008700  0.12877800  0.36932900  1
  Ca  Ca2  1  0.07008700  0.37122200  0.63067100  1
  Ca  Ca3  1  0.42991300  0.87122200  0.86932900  1
  Ca  Ca4  1  0.57008700  0.37122200  0.86932900  1
  Ca  Ca5  1  0.92991300  0.87122200  0.63067100  1
  Ca  Ca6  1  0.92991300  0.62877800  0.36932900  1
  Ca  Ca7  1  0.57008700  0.12877800  0.13067100  1
  S  S0  1  0.87677000  0.86702000  0.12500300  1
  S  S1  1  0.62323000  0.36702000  0.37499700  1
  S  S2  1  0.62323000  0.13298000  0.62500300  1
  S  S3  1  0.87677000  0.63298000  0.87499700  1
  S  S4  1  0.12323000  0.13298000  0.87499700  1
  S  S5  1  0.37677000  0.63298000  0.62500300  1
  S  S6  1  0.37677000  0.86702000  0.37499700  1
  S  S7  1  0.12323000  0.36702000  0.12500300  1
  O  O0  1  0.67349200  0.90467000  0.04177000  1
  O  O1  1  0.82650800  0.40467000  0.45823000  1
  O  O2  1  0.82650800  0.09533000  0.54177000  1
  O  O3  1  0.67349200  0.59533000  0.95823000  1
  O  O4  1  0.32650800  0.09533000  0.95823000  1
  O  O5  1  0.17349200  0.59533000  0.54177000  1
  O  O6  1  0.17349200  0.90467000  0.45823000  1
  O  O7  1  0.32650800  0.40467000  0.04177000  1
  O  O8  1  0.90460200  0.98834000  0.20796600  1
  O  O9  1  0.59539800  0.48834000  0.29203400  1
  O  O10  1  0.59539800  0.01166000  0.70796600  1
  O  O11  1  0.90460200  0.51166000  0.79203400  1
  O  O12  1  0.09539800  0.01166000  0.79203400  1
  O  O13  1  0.40460200  0.51166000  0.70796600  1
  O  O14  1  0.40460200  0.98834000  0.29203400  1
  O  O15  1  0.09539800  0.48834000  0.20796600  1
  O  O16  1  0.79293600  0.74752600  0.19925800  1
  O  O17  1  0.70706400  0.24752600  0.30074200  1
  O  O18  1  0.70706400  0.25247400  0.69925800  1
  O  O19  1  0.79293600  0.75247400  0.80074200  1
  O  O20  1  0.20706400  0.25247400  0.80074200  1
  O  O21  1  0.29293600  0.75247400  0.69925800  1
  O  O22  1  0.29293600  0.74752600  0.30074200  1
  O  O23  1  0.20706400  0.24752600  0.19925800  1
  O  O24  1  0.18857300  0.75000000  0.00000000  1
  O  O25  1  0.31142700  0.25000000  0.50000000  1
  O  O26  1  0.81142700  0.25000000  0.00000000  1
  O  O27  1  0.68857300  0.75000000  0.50000000  1
loop_
_geom_bond_atom_site_label_1
_geom_bond_atom_site_label_2
_geom_bond_distance
_geom_bond_site_symmetry_2
Ca0 O24 2.327520 1_555
Ca0 O22 2.349820 1_555
Ca0 O3 2.380024 1_554
Ca0 O9 2.449800 1_555
Ca0 O16 2.497885 1_555
Ca0 O7 2.498168 1_555
Ca0 O15 2.509996 1_555
Ca1 O25 2.327520 1_555
Ca1 O23 2.349820 1_555
Ca1 O2 2.380024 1_455
Ca1 O8 2.449800 1_445
Ca1 O17 2.497885 1_455
Ca1 O6 2.498168 1_545
Ca1 O14 2.509996 1_545
Ca2 O25 2.327520 1_555
Ca2 O20 2.349820 1_555
Ca2 O1 2.380024 1_455
Ca2 O11 2.449800 1_455
Ca2 O18 2.497885 1_455
Ca2 O5 2.498168 1_555
Ca2 O13 2.509996 1_555
Ca3 O24 2.327520 1_556
Ca3 O21 2.349820 1_555
Ca3 O0 2.380024 1_556
Ca3 O10 2.449800 1_565
Ca3 O19 2.497885 1_555
Ca3 O4 2.498168 1_565
Ca3 O12 2.509996 1_565
Ca4 O26 2.327520 1_556
Ca4 O18 2.349820 1_555
Ca4 O7 2.380024 1_556
Ca4 O13 2.449800 1_555
Ca4 O20 2.497885 1_555
Ca4 O3 2.498168 1_555
Ca4 O11 2.509996 1_555
Ca5 O27 2.327520 1_555
Ca5 O19 2.349820 1_555
Ca5 O6 2.380024 1_655
Ca5 O12 2.449800 1_665
Ca5 O21 2.497885 1_655
Ca5 O2 2.498168 1_565
Ca5 O10 2.509996 1_565
Ca6 O27 2.327520 1_555
Ca6 O16 2.349820 1_555
Ca6 O5 2.380024 1_655
Ca6 O15 2.449800 1_655
Ca6 O22 2.497885 1_655
Ca6 O1 2.498168 1_555
Ca6 O9 2.509996 1_555
Ca7 O26 2.327520 1_555
Ca7 O17 2.349820 1_555
Ca7 O4 2.380024 1_554
Ca7 O14 2.449800 1_545
Ca7 O23 2.497885 1_555
Ca7 O0 2.498168 1_545
Ca7 O8 2.509996 1_545
O0 S0 1.525344 1_555
O1 S1 1.525344 1_555
O2 S2 1.525344 1_555
O3 S3 1.525344 1_555
O4 S4 1.525344 1_555
O5 S5 1.525344 1_555
O6 S6 1.525344 1_555
O7 S7 1.525344 1_555
O8 S0 1.519641 1_555
O9 S1 1.519641 1_555
O10 S2 1.519641 1_555
O11 S3 1.519641 1_555
O12 S4 1.519641 1_555
O13 S5 1.519641 1_555
O14 S6 1.519641 1_555
O15 S7 1.519641 1_555
O16 S0 1.517344 1_555
O17 S1 1.517344 1_555
O18 S2 1.517344 1_555
O19 S3 1.517344 1_555
O20 S4 1.517344 1_555
O21 S5 1.517344 1_555
O22 S6 1.517344 1_555
O23 S7 1.517344 1_555
