# generated using pymatgen
data_PrH3(SO4)3
_symmetry_space_group_name_H-M   'P 1'
_cell_length_a   9.65469600
_cell_length_b   9.65469600
_cell_length_c   5.92048200
_cell_angle_alpha   90.00000000
_cell_angle_beta   90.00000000
_cell_angle_gamma   119.99999999
_symmetry_Int_Tables_number   1
_chemical_formula_structural   PrH3(SO4)3
_chemical_formula_sum   'Pr2 H6 S6 O24'
_cell_volume   477.93067294
_cell_formula_units_Z   2
loop_
 _symmetry_equiv_pos_site_id
 _symmetry_equiv_pos_as_xyz
  1  'x, y, z'
loop_
 _atom_site_type_symbol
 _atom_site_label
 _atom_site_symmetry_multiplicity
 _atom_site_fract_x
 _atom_site_fract_y
 _atom_site_fract_z
 _atom_site_occupancy
  Pr  Pr0  1  0.33333300  0.66666700  0.75240300  1
  Pr  Pr1  1  0.66666700  0.33333300  0.25240300  1
  H  H0  1  0.16452700  0.22265700  0.63428200  1
  H  H1  1  0.77734300  0.94187000  0.63428200  1
  H  H2  1  0.05813000  0.83547300  0.63428200  1
  H  H3  1  0.83547300  0.77734300  0.13428200  1
  H  H4  1  0.22265700  0.05813000  0.13428200  1
  H  H5  1  0.94187000  0.16452700  0.13428200  1
  S  S0  1  0.40130400  0.30399300  0.74934300  1
  S  S1  1  0.69600700  0.09731100  0.74934300  1
  S  S2  1  0.90268900  0.59869600  0.74934300  1
  S  S3  1  0.59869600  0.69600700  0.24934300  1
  S  S4  1  0.30399300  0.90268900  0.24934300  1
  S  S5  1  0.09731100  0.40130400  0.24934300  1
  O  O0  1  0.25540200  0.80631200  0.45624900  1
  O  O1  1  0.19368800  0.44908900  0.45624900  1
  O  O2  1  0.55091100  0.74459800  0.45624900  1
  O  O3  1  0.74459800  0.19368800  0.95624900  1
  O  O4  1  0.80631200  0.55091100  0.95624900  1
  O  O5  1  0.44908900  0.25540200  0.95624900  1
  O  O6  1  0.73740800  0.19596800  0.54575000  1
  O  O7  1  0.80403200  0.54144000  0.54575000  1
  O  O8  1  0.45856000  0.26259200  0.54575000  1
  O  O9  1  0.26259200  0.80403200  0.04575000  1
  O  O10  1  0.19596800  0.45856000  0.04575000  1
  O  O11  1  0.54144000  0.73740800  0.04575000  1
  O  O12  1  0.21113600  0.18780700  0.75365400  1
  O  O13  1  0.81219300  0.02332900  0.75365400  1
  O  O14  1  0.97667100  0.78886400  0.75365400  1
  O  O15  1  0.78886400  0.81219300  0.25365400  1
  O  O16  1  0.18780700  0.97667100  0.25365400  1
  O  O17  1  0.02332900  0.21113600  0.25365400  1
  O  O18  1  0.43316800  0.46816400  0.74892100  1
  O  O19  1  0.53183600  0.96500400  0.74892100  1
  O  O20  1  0.03499600  0.56683200  0.74892100  1
  O  O21  1  0.56683200  0.53183600  0.24892100  1
  O  O22  1  0.46816400  0.03499600  0.24892100  1
  O  O23  1  0.96500400  0.43316800  0.24892100  1
loop_
_geom_bond_atom_site_label_1
_geom_bond_atom_site_label_2
_geom_bond_distance
_geom_bond_site_symmetry_2
H0 O12 0.983156 1_555
H1 O13 0.983156 1_565
H2 O14 0.983156 1_455
H3 O15 0.983156 1_555
H4 O16 0.983156 1_545
H5 O17 0.983156 1_655
O0 S4 1.466274 1_555
O0 Pr0 2.544123 1_555
O1 S5 1.466274 1_555
O1 Pr0 2.544134 1_555
O2 S3 1.466269 1_555
O2 Pr0 2.544136 1_555
O3 S1 1.466274 1_555
O3 Pr1 2.544123 1_556
O4 S2 1.466274 1_555
O4 Pr1 2.544134 1_556
O5 S0 1.466269 1_555
O5 Pr1 2.544136 1_556
O6 S1 1.462607 1_555
O6 Pr1 2.479399 1_555
O7 S2 1.462607 1_555
O7 Pr1 2.479405 1_555
O8 S0 1.462607 1_555
O8 Pr1 2.479406 1_555
O9 S4 1.462607 1_555
O9 Pr0 2.479399 1_554
O10 S5 1.462607 1_555
O10 Pr0 2.479405 1_554
O11 S3 1.462607 1_555
O11 Pr0 2.479406 1_554
O12 S0 1.603237 1_555
O13 S1 1.603237 1_555
O14 S2 1.603237 1_555
O15 S3 1.603237 1_555
O16 S4 1.603237 1_555
O17 S5 1.603237 1_555
O18 S0 1.455791 1_555
O18 Pr0 2.539618 1_555
O19 S1 1.455791 1_565
O19 Pr0 2.539610 1_555
O20 S2 1.455791 1_455
O20 Pr0 2.539609 1_555
O21 S3 1.455791 1_555
O21 Pr1 2.539618 1_555
O22 S4 1.455791 1_545
O22 Pr1 2.539610 1_555
O23 S5 1.455791 1_655
O23 Pr1 2.539609 1_555
