# generated using pymatgen
data_Sm5Si3O13
_symmetry_space_group_name_H-M   'P 1'
_cell_length_a   9.61256346
_cell_length_b   9.61256346
_cell_length_c   6.99588900
_cell_angle_alpha   90.00000000
_cell_angle_beta   90.00000000
_cell_angle_gamma   119.99999631
_symmetry_Int_Tables_number   1
_chemical_formula_structural   Sm5Si3O13
_chemical_formula_sum   'Sm10 Si6 O26'
_cell_volume   559.82462542
_cell_formula_units_Z   2
loop_
 _symmetry_equiv_pos_site_id
 _symmetry_equiv_pos_as_xyz
  1  'x, y, z'
loop_
 _atom_site_type_symbol
 _atom_site_label
 _atom_site_symmetry_multiplicity
 _atom_site_fract_x
 _atom_site_fract_y
 _atom_site_fract_z
 _atom_site_occupancy
  Sm  Sm0  1  0.33333300  0.66666700  0.50208300  1
  Sm  Sm1  1  0.66666700  0.33333300  0.00208300  1
  Sm  Sm2  1  0.66666700  0.33333300  0.49791700  1
  Sm  Sm3  1  0.33333300  0.66666700  0.99791700  1
  Sm  Sm4  1  0.76102100  0.76787100  0.75000000  1
  Sm  Sm5  1  0.99315000  0.76102100  0.25000000  1
  Sm  Sm6  1  0.76787100  0.00685000  0.25000000  1
  Sm  Sm7  1  0.23212900  0.99315000  0.75000000  1
  Sm  Sm8  1  0.00685000  0.23897900  0.75000000  1
  Sm  Sm9  1  0.23897900  0.23212900  0.25000000  1
  Si  Si0  1  0.97220500  0.60230000  0.75000000  1
  Si  Si1  1  0.36990400  0.97220500  0.25000000  1
  Si  Si2  1  0.60230000  0.63009600  0.25000000  1
  Si  Si3  1  0.39770000  0.36990400  0.75000000  1
  Si  Si4  1  0.63009600  0.02779500  0.75000000  1
  Si  Si5  1  0.02779500  0.39770000  0.25000000  1
  O  O0  1  0.00000000  0.00000000  0.75000000  1
  O  O1  1  0.00000000  0.00000000  0.25000000  1
  O  O2  1  0.51692600  0.83185600  0.75000000  1
  O  O3  1  0.68507100  0.51692600  0.25000000  1
  O  O4  1  0.83185600  0.31492900  0.25000000  1
  O  O5  1  0.16814400  0.68507100  0.75000000  1
  O  O6  1  0.31492900  0.48307400  0.75000000  1
  O  O7  1  0.48307400  0.16814400  0.25000000  1
  O  O8  1  0.87711400  0.40431500  0.75000000  1
  O  O9  1  0.47279800  0.87711400  0.25000000  1
  O  O10  1  0.40431500  0.52720200  0.25000000  1
  O  O11  1  0.59568500  0.47279800  0.75000000  1
  O  O12  1  0.52720200  0.12288600  0.75000000  1
  O  O13  1  0.12288600  0.59568500  0.25000000  1
  O  O14  1  0.09212600  0.34112800  0.43647700  1
  O  O15  1  0.75099800  0.09212600  0.93647700  1
  O  O16  1  0.09212600  0.34112800  0.06352300  1
  O  O17  1  0.75099800  0.09212600  0.56352300  1
  O  O18  1  0.34112800  0.24900200  0.56352300  1
  O  O19  1  0.65887200  0.75099800  0.06352300  1
  O  O20  1  0.24900200  0.90787400  0.06352300  1
  O  O21  1  0.90787400  0.65887200  0.56352300  1
  O  O22  1  0.90787400  0.65887200  0.93647700  1
  O  O23  1  0.24900200  0.90787400  0.43647700  1
  O  O24  1  0.65887200  0.75099800  0.43647700  1
  O  O25  1  0.34112800  0.24900200  0.93647700  1
loop_
_geom_bond_atom_site_label_1
_geom_bond_atom_site_label_2
_geom_bond_distance
_geom_bond_site_symmetry_2
O0 Sm7 2.264996 1_545
O0 Sm8 2.264996 1_555
O0 Sm4 2.264996 1_445
O1 Sm6 2.264996 1_455
O1 Sm5 2.264996 1_445
O1 Sm9 2.264996 1_555
O2 Si4 1.637670 1_565
O2 Sm3 2.416971 1_555
O2 Sm0 2.416971 1_555
O2 Sm4 2.706835 1_555
O3 Si2 1.637685 1_555
O3 Sm2 2.416971 1_555
O3 Sm1 2.416971 1_555
O3 Sm5 2.706829 1_555
O4 Si5 1.637668 1_655
O4 Sm2 2.416971 1_555
O4 Sm1 2.416971 1_555
O4 Sm6 2.706825 1_555
O5 Si0 1.637668 1_455
O5 Sm3 2.416971 1_555
O5 Sm0 2.416971 1_555
O5 Sm7 2.706825 1_555
O6 Si3 1.637685 1_555
O6 Sm3 2.416971 1_555
O6 Sm0 2.416971 1_555
O6 Sm8 2.706829 1_555
O7 Si1 1.637670 1_545
O7 Sm2 2.416971 1_555
O7 Sm1 2.416971 1_555
O7 Sm9 2.706835 1_555
O8 Si0 1.648597 1_555
O8 Sm8 2.462345 1_655
O8 Sm1 2.507514 1_556
O8 Sm2 2.507514 1_555
O9 Si1 1.648597 1_555
O9 Sm6 2.462354 1_565
O9 Sm0 2.507514 1_555
O9 Sm3 2.507514 1_554
O10 Si2 1.648597 1_555
O10 Sm9 2.462353 1_555
O10 Sm0 2.507514 1_555
O10 Sm3 2.507514 1_554
O11 Si3 1.648597 1_555
O11 Sm4 2.462353 1_555
O11 Sm1 2.507514 1_556
O11 Sm2 2.507514 1_555
O12 Si4 1.648597 1_555
O12 Sm7 2.462354 1_545
O12 Sm1 2.507514 1_556
O12 Sm2 2.507514 1_555
O13 Si5 1.648597 1_555
O13 Sm5 2.462345 1_455
O13 Sm0 2.507514 1_555
O13 Sm3 2.507514 1_554
O14 Si5 1.648123 1_555
O14 Sm8 2.375307 1_555
O14 Sm9 2.504291 1_555
O14 Sm0 2.850153 1_555
O15 Si4 1.648118 1_555
O15 Sm6 2.375307 1_556
O15 Sm8 2.504291 1_655
O15 Sm1 2.850146 1_556
O16 Si5 1.648123 1_555
O16 Sm8 2.375307 1_554
O16 Sm9 2.504291 1_555
O16 Sm3 2.850153 1_554
O17 Si4 1.648118 1_555
O17 Sm6 2.375307 1_555
O17 Sm8 2.504291 1_655
O17 Sm2 2.850146 1_555
O18 Si3 1.648118 1_555
O18 Sm9 2.375307 1_555
O18 Sm7 2.504291 1_545
O18 Sm2 2.850155 1_555
O19 Si2 1.648118 1_555
O19 Sm4 2.375307 1_554
O19 Sm6 2.504291 1_565
O19 Sm3 2.850155 1_554
O20 Si1 1.648118 1_555
O20 Sm7 2.375307 1_554
O20 Sm5 2.504291 1_455
O20 Sm3 2.850146 1_554
O21 Si0 1.648123 1_555
O21 Sm5 2.375307 1_555
O21 Sm4 2.504291 1_555
O21 Sm2 2.850153 1_555
O22 Si0 1.648123 1_555
O22 Sm5 2.375307 1_556
O22 Sm4 2.504291 1_555
O22 Sm1 2.850153 1_556
O23 Si1 1.648118 1_555
O23 Sm7 2.375307 1_555
O23 Sm5 2.504291 1_455
O23 Sm0 2.850146 1_555
O24 Si2 1.648118 1_555
O24 Sm4 2.375307 1_555
O24 Sm6 2.504291 1_565
O24 Sm0 2.850155 1_555
O25 Si3 1.648118 1_555
O25 Sm9 2.375307 1_556
O25 Sm7 2.504291 1_545
O25 Sm1 2.850155 1_556
