# generated using pymatgen
data_LiVMoO6
_symmetry_space_group_name_H-M   'P 1'
_cell_length_a   3.71803800
_cell_length_b   5.08450838
_cell_length_c   6.78209470
_cell_angle_alpha   110.69625603
_cell_angle_beta   90.00000000
_cell_angle_gamma   68.55400166
_symmetry_Int_Tables_number   1
_chemical_formula_structural   LiVMoO6
_chemical_formula_sum   'Li1 V1 Mo1 O6'
_cell_volume   110.39721715
_cell_formula_units_Z   1
loop_
 _symmetry_equiv_pos_site_id
 _symmetry_equiv_pos_as_xyz
  1  'x, y, z'
loop_
 _atom_site_type_symbol
 _atom_site_label
 _atom_site_symmetry_multiplicity
 _atom_site_fract_x
 _atom_site_fract_y
 _atom_site_fract_z
 _atom_site_occupancy
  Li  Li0  1  0.00858200  0.98283700  0.98209700  1
  V  V0  1  0.81065900  0.37868100  0.65575200  1
  Mo  Mo0  1  0.18295900  0.63408200  0.35901000  1
  O  O0  1  0.68968200  0.62063600  0.44074400  1
  O  O1  1  0.30361300  0.39277500  0.57118300  1
  O  O2  1  0.97623600  0.04752900  0.70222200  1
  O  O3  1  0.02391900  0.95216100  0.28282400  1
  O  O4  1  0.66664900  0.66670200  0.88985400  1
  O  O5  1  0.33770100  0.32459700  0.11631500  1
loop_
_geom_bond_atom_site_label_1
_geom_bond_atom_site_label_2
_geom_bond_distance
_geom_bond_site_symmetry_2
Li0 O2 2.034199 1_465
Li0 O3 2.098983 1_556
Li0 O4 2.318374 1_555
Li0 O4 2.318377 1_455
Li0 O5 2.404659 1_566
Li0 O5 2.404665 1_466
Mo0 O5 1.738864 1_555
Mo0 O3 1.767361 1_555
Mo0 O0 1.947836 1_555
Mo0 O0 1.947836 1_455
Mo0 O1 2.150044 1_555
Mo0 O2 2.405803 1_465
O0 V0 2.169211 1_555
O1 V0 1.954074 1_555
O1 V0 1.954081 1_455
O2 V0 1.711848 1_555
O3 V0 2.567953 1_465
O4 V0 1.653862 1_555
