# generated using pymatgen
data_Ba2AlCu3O7
_symmetry_space_group_name_H-M   'P 1'
_cell_length_a   3.69489200
_cell_length_b   3.84180300
_cell_length_c   11.86076500
_cell_angle_alpha   90.00000000
_cell_angle_beta   90.00000000
_cell_angle_gamma   90.00000000
_symmetry_Int_Tables_number   1
_chemical_formula_structural   Ba2AlCu3O7
_chemical_formula_sum   'Ba2 Al1 Cu3 O7'
_cell_volume   168.36411865
_cell_formula_units_Z   1
loop_
 _symmetry_equiv_pos_site_id
 _symmetry_equiv_pos_as_xyz
  1  'x, y, z'
loop_
 _atom_site_type_symbol
 _atom_site_label
 _atom_site_symmetry_multiplicity
 _atom_site_fract_x
 _atom_site_fract_y
 _atom_site_fract_z
 _atom_site_occupancy
  Ba  Ba0  1  0.00000000  0.00000000  0.31652100  1
  Ba  Ba1  1  0.00000000  0.00000000  0.68347900  1
  Al  Al0  1  0.00000000  0.00000000  0.00000000  1
  Cu  Cu0  1  0.50000000  0.50000000  0.13350900  1
  Cu  Cu1  1  0.50000000  0.50000000  0.86649100  1
  Cu  Cu2  1  0.50000000  0.50000000  0.50000000  1
  O  O0  1  0.50000000  0.00000000  0.50000000  1
  O  O1  1  0.00000000  0.50000000  0.10280300  1
  O  O2  1  0.00000000  0.50000000  0.89719700  1
  O  O3  1  0.50000000  0.00000000  0.10358200  1
  O  O4  1  0.50000000  0.00000000  0.89641800  1
  O  O5  1  0.50000000  0.50000000  0.34106300  1
  O  O6  1  0.50000000  0.50000000  0.65893700  1
loop_
_geom_bond_atom_site_label_1
_geom_bond_atom_site_label_2
_geom_bond_distance
_geom_bond_site_symmetry_2
Ba0 O5 2.680979 1_545
Ba0 O5 2.680979 1_455
Ba0 O5 2.680979 1_555
Ba0 O5 2.680979 1_445
Ba0 O0 2.854629 1_555
Ba0 O0 2.854629 1_455
Ba0 O3 3.129187 1_455
Ba0 O3 3.129187 1_555
Ba0 O1 3.180467 1_555
Ba0 O1 3.180467 1_545
Ba1 O6 2.680979 1_555
Ba1 O6 2.680979 1_545
Ba1 O6 2.680979 1_445
Ba1 O6 2.680979 1_455
Ba1 O0 2.854629 1_455
Ba1 O0 2.854629 1_555
Ba1 O4 3.129187 1_555
Ba1 O4 3.129187 1_455
Ba1 O2 3.180467 1_555
Ba1 O2 3.180467 1_545
Al0 O3 2.218653 1_455
Al0 O3 2.218653 1_555
Al0 O4 2.218653 1_554
Al0 O4 2.218653 1_454
Al0 O1 2.275216 1_555
Al0 O1 2.275216 1_545
Al0 O2 2.275216 1_544
Al0 O2 2.275216 1_554
Cu0 O1 1.883002 1_555
Cu0 O1 1.883002 1_655
Cu0 O3 1.953422 1_565
Cu0 O3 1.953422 1_555
Cu0 O5 2.461749 1_555
Cu1 O2 1.883002 1_555
Cu1 O2 1.883002 1_655
Cu1 O4 1.953422 1_555
Cu1 O4 1.953422 1_565
Cu1 O6 2.461749 1_555
Cu2 O5 1.885114 1_555
Cu2 O6 1.885114 1_555
Cu2 O0 1.920902 1_555
Cu2 O0 1.920902 1_565
