# generated using pymatgen
data_LiHf8(N2O)4
_symmetry_space_group_name_H-M   'P 1'
_cell_length_a   5.48385853
_cell_length_b   5.46012683
_cell_length_c   10.54578251
_cell_angle_alpha   90.83258408
_cell_angle_beta   76.22910146
_cell_angle_gamma   58.97351025
_symmetry_Int_Tables_number   1
_chemical_formula_structural   LiHf8(N2O)4
_chemical_formula_sum   'Li1 Hf8 N8 O4'
_cell_volume   259.21580953
_cell_formula_units_Z   1
loop_
 _symmetry_equiv_pos_site_id
 _symmetry_equiv_pos_as_xyz
  1  'x, y, z'
loop_
 _atom_site_type_symbol
 _atom_site_label
 _atom_site_symmetry_multiplicity
 _atom_site_fract_x
 _atom_site_fract_y
 _atom_site_fract_z
 _atom_site_occupancy
  Li  Li0  1  0.04249700  0.47296700  0.50076900  1
  Hf  Hf0  1  0.14319900  0.42188000  0.25922300  1
  Hf  Hf1  1  0.12037200  0.92112000  0.77963500  1
  Hf  Hf2  1  0.35640500  0.35187400  0.96002800  1
  Hf  Hf3  1  0.64354000  0.19907100  0.53746600  1
  Hf  Hf4  1  0.36323400  0.83016800  0.46419900  1
  Hf  Hf5  1  0.81824800  0.09044700  0.22437000  1
  Hf  Hf6  1  0.63245600  0.68545700  0.03865500  1
  Hf  Hf7  1  0.82802000  0.58642700  0.74142800  1
  N  N0  1  0.45189200  0.12770400  0.37552000  1
  N  N1  1  0.54865500  0.36755000  0.12035900  1
  N  N2  1  0.24543000  0.57308600  0.62860800  1
  N  N3  1  0.77111600  0.41256500  0.38309900  1
  N  N4  1  0.44335900  0.64067100  0.87541300  1
  N  N5  1  0.94870200  0.67569900  0.12210600  1
  N  N6  1  0.97308900  0.18244300  0.62095800  1
  N  N7  1  0.74342300  0.93424200  0.88130900  1
  O  O0  1  0.23557400  0.05849000  0.13383300  1
  O  O1  1  0.07268200  0.78819000  0.37901400  1
  O  O2  1  0.04735700  0.31857200  0.87982900  1
  O  O3  1  0.59213600  0.85652100  0.61319900  1
loop_
_geom_bond_atom_site_label_1
_geom_bond_atom_site_label_2
_geom_bond_distance
_geom_bond_site_symmetry_2
Li0 N0 2.119371 1_555
Li0 N2 2.162132 1_555
Li0 N6 2.172306 1_455
Li0 O1 2.212506 1_555
Li0 O3 2.256784 1_455
Li0 N3 2.288388 1_455
Hf0 N5 2.101886 1_455
Hf0 O0 2.123855 1_555
Hf0 O1 2.154648 1_555
Hf0 N3 2.170831 1_455
Hf0 N1 2.221171 1_555
Hf0 N0 2.278701 1_555
Hf1 N7 2.053715 1_455
Hf1 N4 2.145450 1_555
Hf1 N2 2.160267 1_555
Hf1 O2 2.196011 1_565
Hf1 N6 2.239031 1_465
Hf1 O3 2.603395 1_555
Hf2 N4 2.030664 1_555
Hf2 N7 2.123807 1_545
Hf2 O2 2.148546 1_555
Hf2 N1 2.217012 1_556
Hf2 N5 2.250369 1_456
Hf2 O0 2.639336 1_556
Hf3 N2 2.051455 1_555
Hf3 N6 2.154113 1_555
Hf3 O3 2.166874 1_545
Hf3 N3 2.202747 1_555
Hf3 N0 2.330338 1_555
Hf3 O1 2.437189 1_645
Hf4 N0 2.095747 1_565
Hf4 O1 2.109561 1_555
Hf4 N3 2.169952 1_555
Hf4 N6 2.234172 1_465
Hf4 O3 2.276864 1_555
Hf4 N2 2.422013 1_555
Hf5 N1 2.047537 1_555
Hf5 N0 2.159427 1_555
Hf5 N5 2.166751 1_545
Hf5 O0 2.173196 1_655
Hf5 N3 2.280801 1_555
Hf5 O1 2.473434 1_645
Hf6 O0 2.055161 1_565
Hf6 N5 2.101827 1_555
Hf6 N1 2.154976 1_555
Hf6 N4 2.279869 1_554
Hf6 O2 2.320518 1_654
Hf6 N7 2.325053 1_554
Hf7 N4 2.111563 1_555
Hf7 O3 2.144993 1_555
Hf7 N7 2.163905 1_555
Hf7 N6 2.177364 1_555
Hf7 O2 2.190979 1_655
Hf7 N2 2.278048 1_655
