# generated using pymatgen
data_Ho11(In3Ge2)2
_symmetry_space_group_name_H-M   'P 1'
_cell_length_a   11.47535996
_cell_length_b   11.47535996
_cell_length_c   11.47535996
_cell_angle_alpha   119.97031754
_cell_angle_beta   119.97031754
_cell_angle_gamma   90.05141922
_symmetry_Int_Tables_number   1
_chemical_formula_structural   Ho11(In3Ge2)2
_chemical_formula_sum   'Ho22 In12 Ge8'
_cell_volume   1069.00212331
_cell_formula_units_Z   2
loop_
 _symmetry_equiv_pos_site_id
 _symmetry_equiv_pos_as_xyz
  1  'x, y, z'
loop_
 _atom_site_type_symbol
 _atom_site_label
 _atom_site_symmetry_multiplicity
 _atom_site_fract_x
 _atom_site_fract_y
 _atom_site_fract_z
 _atom_site_occupancy
  Ho  Ho0  1  0.68525200  0.93535200  0.25010000  1
  Ho  Ho1  1  0.68525200  0.43515200  0.74990000  1
  Ho  Ho2  1  0.93535200  0.68525200  0.25010000  1
  Ho  Ho3  1  0.43515200  0.68525200  0.74990000  1
  Ho  Ho4  1  0.31474800  0.06464800  0.74990000  1
  Ho  Ho5  1  0.31474800  0.56484800  0.25010000  1
  Ho  Ho6  1  0.06464800  0.31474800  0.74990000  1
  Ho  Ho7  1  0.56484800  0.31474800  0.25010000  1
  Ho  Ho8  1  0.89840600  0.24338500  0.34497800  1
  Ho  Ho9  1  0.89840600  0.55342800  0.65502200  1
  Ho  Ho10  1  0.24338500  0.89840600  0.34497800  1
  Ho  Ho11  1  0.55342800  0.89840600  0.65502200  1
  Ho  Ho12  1  0.10159400  0.75661500  0.65502200  1
  Ho  Ho13  1  0.10159400  0.44657200  0.34497800  1
  Ho  Ho14  1  0.75661500  0.10159400  0.65502200  1
  Ho  Ho15  1  0.44657200  0.10159400  0.34497800  1
  Ho  Ho16  1  0.32999100  0.32999100  0.65998200  1
  Ho  Ho17  1  0.67000900  0.67000900  0.34001800  1
  Ho  Ho18  1  0.32999100  0.67000900  0.00000000  1
  Ho  Ho19  1  0.67000900  0.32999100  0.00000000  1
  Ho  Ho20  1  0.83206800  0.83206800  0.00000000  1
  Ho  Ho21  1  0.16793200  0.16793200  0.00000000  1
  In  In0  1  0.03377400  0.03377400  0.41078300  1
  In  In1  1  0.62299100  0.62299100  0.58921700  1
  In  In2  1  0.03377400  0.62299100  0.00000000  1
  In  In3  1  0.62299100  0.03377400  0.00000000  1
  In  In4  1  0.96622600  0.96622600  0.58921700  1
  In  In5  1  0.37700900  0.37700900  0.41078300  1
  In  In6  1  0.96622600  0.37700900  0.00000000  1
  In  In7  1  0.37700900  0.96622600  0.00000000  1
  In  In8  1  0.12876400  0.12876400  0.25752700  1
  In  In9  1  0.87123600  0.87123600  0.74247300  1
  In  In10  1  0.12876400  0.87123600  0.00000000  1
  In  In11  1  0.87123600  0.12876400  0.00000000  1
  Ge  Ge0  1  0.15240300  0.50000000  0.65240300  1
  Ge  Ge1  1  0.84759700  0.50000000  0.34759700  1
  Ge  Ge2  1  0.50000000  0.84759700  0.34759700  1
  Ge  Ge3  1  0.50000000  0.15240300  0.65240300  1
  Ge  Ge4  1  0.61524900  0.61524900  0.00000000  1
  Ge  Ge5  1  0.38475100  0.38475100  0.00000000  1
  Ge  Ge6  1  0.75000000  0.25000000  0.50000000  1
  Ge  Ge7  1  0.25000000  0.75000000  0.50000000  1
loop_
_geom_bond_atom_site_label_1
_geom_bond_atom_site_label_2
_geom_bond_distance
_geom_bond_site_symmetry_2
Ho0 In3 3.348763 1_565
Ho0 In0 3.348763 1_665
Ho0 In7 3.427779 1_555
Ho0 In4 3.427779 1_555
Ho1 In1 3.348763 1_555
Ho1 In2 3.348763 1_656
Ho1 In6 3.427779 1_556
Ho1 In5 3.427779 1_555
Ho2 In2 3.348763 1_655
Ho2 In0 3.348763 1_665
Ho2 In6 3.427779 1_555
Ho2 In4 3.427779 1_555
Ho3 In1 3.348763 1_555
Ho3 In3 3.348763 1_566
Ho3 In7 3.427779 1_556
Ho3 In5 3.427779 1_555
Ho4 In4 3.348763 1_445
Ho4 In7 3.348763 1_546
Ho4 In0 3.427779 1_555
Ho4 In3 3.427779 1_556
Ho5 In5 3.348763 1_555
Ho5 In6 3.348763 1_455
Ho5 In2 3.427779 1_555
Ho5 In1 3.427779 1_555
Ho6 In4 3.348763 1_445
Ho6 In6 3.348763 1_456
Ho6 In0 3.427779 1_555
Ho6 In2 3.427779 1_556
Ho7 In5 3.348763 1_555
Ho7 In7 3.348763 1_545
Ho7 In3 3.427779 1_555
Ho7 In1 3.427779 1_555
Ho8 In3 3.068951 1_555
Ho8 In0 3.068960 1_655
Ho8 In11 3.326064 1_555
Ho8 In8 3.326075 1_655
Ho9 In1 3.068949 1_555
Ho9 In2 3.068949 1_656
Ho9 In9 3.326064 1_555
Ho9 In10 3.326066 1_656
Ho10 In2 3.068951 1_555
Ho10 In0 3.068960 1_565
Ho10 In10 3.326064 1_555
Ho10 In8 3.326075 1_565
Ho11 In3 3.068949 1_566
Ho11 In1 3.068949 1_555
Ho11 In9 3.326064 1_555
Ho11 In11 3.326066 1_566
Ho12 In7 3.068951 1_556
Ho12 In4 3.068960 1_455
Ho12 In10 3.326064 1_556
Ho12 In9 3.326075 1_455
Ho13 In6 3.068949 1_455
Ho13 In5 3.068949 1_555
Ho13 In8 3.326064 1_555
Ho13 In11 3.326066 1_455
Ho14 In6 3.068951 1_556
Ho14 In4 3.068960 1_545
Ho14 In11 3.326064 1_556
Ho14 In9 3.326075 1_545
Ho15 In7 3.068949 1_545
Ho15 In5 3.068949 1_555
Ho15 In8 3.326064 1_555
Ho15 In10 3.326066 1_545
Ho16 In8 3.267108 1_555
Ho16 In0 3.441273 1_555
Ho16 In5 3.441273 1_555
Ho17 In9 3.267108 1_555
Ho17 In4 3.441273 1_555
Ho17 In1 3.441273 1_555
Ho18 In10 3.267099 1_555
Ho18 In7 3.441273 1_555
Ho18 In2 3.441273 1_555
Ho19 In11 3.267099 1_555
Ho19 In6 3.441273 1_555
Ho19 In3 3.441273 1_555
Ho20 In0 3.335250 1_665
Ho20 In2 3.335250 1_655
Ho20 In3 3.335250 1_565
Ho20 In1 3.335250 1_554
Ho20 In9 3.433822 1_554
Ho20 In11 3.433833 1_565
Ho20 In10 3.433833 1_655
Ho20 In8 3.433835 1_665
Ho21 In5 3.335250 1_555
Ho21 In4 3.335250 1_444
Ho21 In6 3.335250 1_455
Ho21 In7 3.335250 1_545
Ho21 In8 3.433822 1_555
Ho21 In10 3.433833 1_545
Ho21 In11 3.433833 1_455
Ho21 In9 3.433835 1_444
In0 In4 2.926555 1_445
In0 In8 3.049227 1_555
In1 In5 2.926555 1_555
In1 In9 3.049212 1_555
In2 In6 2.926555 1_455
In3 In7 2.926555 1_545
In4 In9 3.049227 1_555
In5 In8 3.049212 1_555
In10 In8 2.956547 1_565
In10 In9 2.956547 1_454
In10 In7 3.049216 1_555
In10 In2 3.049216 1_555
In11 In8 2.956547 1_655
In11 In9 2.956547 1_544
In11 In6 3.049216 1_555
In11 In3 3.049216 1_555
Ge0 Ho18 2.822444 1_556
Ge0 Ho16 2.822444 1_555
Ge0 Ho12 2.990747 1_555
Ge0 Ho8 2.990754 1_455
Ge0 Ho13 2.990758 1_555
Ge0 Ho9 2.990758 1_455
Ge0 Ho6 3.206726 1_555
Ge0 Ho3 3.206726 1_555
Ge1 Ho17 2.822444 1_555
Ge1 Ho19 2.822444 1_555
Ge1 Ho8 2.990747 1_555
Ge1 Ho12 2.990754 1_655
Ge1 Ho13 2.990758 1_655
Ge1 Ho9 2.990758 1_555
Ge1 Ho7 3.206726 1_555
Ge1 Ho2 3.206726 1_555
Ge2 Ho17 2.822444 1_555
Ge2 Ho18 2.822444 1_555
Ge2 Ho10 2.990747 1_555
Ge2 Ho14 2.990754 1_565
Ge2 Ho15 2.990758 1_565
Ge2 Ho11 2.990758 1_555
Ge2 Ho5 3.206726 1_555
Ge2 Ho0 3.206726 1_555
Ge3 Ho19 2.822444 1_556
Ge3 Ho16 2.822444 1_555
Ge3 Ho14 2.990747 1_555
Ge3 Ho10 2.990754 1_545
Ge3 Ho15 2.990758 1_555
Ge3 Ho11 2.990758 1_545
Ge3 Ho4 3.206726 1_555
Ge3 Ho1 3.206726 1_555
Ge4 Ho0 3.087665 1_555
Ge4 Ho2 3.087665 1_555
Ge4 Ho1 3.087665 1_554
Ge4 Ho3 3.087665 1_554
Ge4 Ho18 3.333761 1_555
Ge4 Ho17 3.333761 1_555
Ge4 Ho19 3.333761 1_555
Ge4 Ho16 3.333761 1_554
Ge4 Ho20 3.517092 1_555
Ge5 Ho4 3.087665 1_554
Ge5 Ho6 3.087665 1_554
Ge5 Ho5 3.087665 1_555
Ge5 Ho7 3.087665 1_555
Ge5 Ho17 3.333761 1_555
Ge5 Ho19 3.333761 1_555
Ge5 Ho18 3.333761 1_555
Ge5 Ho16 3.333761 1_554
Ge5 Ho21 3.517092 1_555
Ge6 Ho9 2.993783 1_555
Ge6 Ho15 2.993783 1_555
Ge6 Ho8 2.993787 1_555
Ge6 Ho14 2.993787 1_555
Ge6 Ho7 3.055187 1_555
Ge6 Ho0 3.055187 1_545
Ge6 Ho1 3.055187 1_555
Ge6 Ho6 3.055187 1_655
Ge7 Ho11 2.993783 1_555
Ge7 Ho13 2.993783 1_555
Ge7 Ho10 2.993787 1_555
Ge7 Ho12 2.993787 1_555
Ge7 Ho5 3.055187 1_555
Ge7 Ho2 3.055187 1_455
Ge7 Ho3 3.055187 1_555
Ge7 Ho4 3.055187 1_565
