# generated using pymatgen
data_PbC7N10
_symmetry_space_group_name_H-M   'P 1'
_cell_length_a   5.87313214
_cell_length_b   5.70645200
_cell_length_c   8.18294052
_cell_angle_alpha   90.00000000
_cell_angle_beta   106.42498810
_cell_angle_gamma   90.00000000
_symmetry_Int_Tables_number   1
_chemical_formula_structural   PbC7N10
_chemical_formula_sum   'Pb2 C14 N20'
_cell_volume   263.05727418
_cell_formula_units_Z   2
loop_
 _symmetry_equiv_pos_site_id
 _symmetry_equiv_pos_as_xyz
  1  'x, y, z'
loop_
 _atom_site_type_symbol
 _atom_site_label
 _atom_site_symmetry_multiplicity
 _atom_site_fract_x
 _atom_site_fract_y
 _atom_site_fract_z
 _atom_site_occupancy
  Pb  Pb0  1  0.96321600  0.10872100  0.67463500  1
  Pb  Pb1  1  0.96321600  0.89127900  0.17463500  1
  C  C0  1  0.53935000  0.97472300  0.82728700  1
  C  C1  1  0.53935000  0.02527700  0.32728600  1
  C  C2  1  0.36019600  0.02930500  0.02102400  1
  C  C3  1  0.36019600  0.97069500  0.52102400  1
  C  C4  1  0.11051900  0.39061100  0.07367300  1
  C  C5  1  0.11051900  0.60938900  0.57367300  1
  C  C6  1  0.66280800  0.36753500  0.98936400  1
  C  C7  1  0.66280800  0.63246500  0.48936400  1
  C  C8  1  0.84063500  0.62919100  0.80880100  1
  C  C9  1  0.84063500  0.37080900  0.30880100  1
  C  C10  1  0.29704100  0.62146600  0.88631100  1
  C  C11  1  0.29704100  0.37853400  0.38631100  1
  C  C12  1  0.48340300  0.37720200  0.68638100  1
  C  C13  1  0.48340300  0.62279800  0.18638100  1
  N  N0  1  0.74744800  0.84445000  0.83435600  1
  N  N1  1  0.74744800  0.15555000  0.33435600  1
  N  N2  1  0.57168300  0.12807500  0.97724400  1
  N  N3  1  0.57168300  0.87192500  0.47724400  1
  N  N4  1  0.32028200  0.87343900  0.86831500  1
  N  N5  1  0.32028200  0.12656100  0.36831500  1
  N  N6  1  0.15655200  0.16768000  0.01343400  1
  N  N7  1  0.15655200  0.83232000  0.51343400  1
  N  N8  1  0.28541900  0.50528300  0.72549900  1
  N  N9  1  0.28541900  0.49471700  0.22549900  1
  N  N10  1  0.44267500  0.11699400  0.67514300  1
  N  N11  1  0.44267500  0.88300600  0.17514300  1
  N  N12  1  0.88247200  0.39720000  0.12422900  1
  N  N13  1  0.88247200  0.60280000  0.62422900  1
  N  N14  1  0.07973100  0.58780900  0.93921900  1
  N  N15  1  0.07973100  0.41219100  0.43921900  1
  N  N16  1  0.70219300  0.41391700  0.82221700  1
  N  N17  1  0.70219300  0.58608300  0.32221700  1
  N  N18  1  0.49667700  0.53940300  0.02217100  1
  N  N19  1  0.49667700  0.46059700  0.52217100  1
loop_
_geom_bond_atom_site_label_1
_geom_bond_atom_site_label_2
_geom_bond_distance
_geom_bond_site_symmetry_2
C0 N0 1.417655 1_555
C0 N10 1.460045 1_565
C0 N2 1.475068 1_565
C0 N4 1.531804 1_555
C1 N1 1.417653 1_555
C1 N11 1.460039 1_545
C1 N3 1.475074 1_545
C1 N5 1.531808 1_555
C2 N6 1.419806 1_555
C2 N11 1.475342 1_545
C2 N2 1.496814 1_554
C2 N4 1.497305 1_544
C3 N7 1.419806 1_555
C3 N10 1.475342 1_565
C3 N3 1.496814 1_555
C3 N5 1.497305 1_565
C4 N6 1.417672 1_555
C4 N9 1.493283 1_555
C4 N12 1.509889 1_455
C4 N14 1.548223 1_554
C5 N7 1.417672 1_555
C5 N8 1.493283 1_555
C5 N13 1.509889 1_455
C5 N15 1.548223 1_555
C6 N12 1.451139 1_556
C6 N2 1.460643 1_555
C6 N18 1.460853 1_556
C6 N16 1.474188 1_555
C7 N13 1.451139 1_555
C7 N3 1.460643 1_555
C7 N19 1.460853 1_555
C7 N17 1.474188 1_555
C8 N0 1.384511 1_555
C8 N16 1.494234 1_555
C8 N14 1.522855 1_655
C8 N13 1.604387 1_555
C9 N1 1.384511 1_555
C9 N17 1.494234 1_555
C9 N15 1.522855 1_655
C9 N12 1.604387 1_555
C10 N18 1.446660 1_556
C10 N4 1.455733 1_555
C10 N8 1.457757 1_555
C10 N14 1.471641 1_555
C11 N19 1.446660 1_555
C11 N5 1.455733 1_555
C11 N9 1.457757 1_555
C11 N15 1.471641 1_555
C12 N19 1.448232 1_555
C12 N16 1.457003 1_555
C12 N8 1.482978 1_555
C12 N10 1.502683 1_555
C13 N18 1.448232 1_555
C13 N17 1.457003 1_555
C13 N9 1.482978 1_555
C13 N11 1.502683 1_555
N0 Pb0 2.554400 1_565
N0 Pb1 2.726747 1_556
N1 Pb1 2.554400 1_545
N1 Pb0 2.726747 1_555
N2 Pb1 2.760839 1_546
N3 Pb0 2.760839 1_565
N4 Pb0 2.613943 1_465
N5 Pb1 2.613943 1_445
N6 Pb1 2.522732 1_445
N6 Pb0 2.703391 1_454
N7 Pb0 2.522732 1_465
N7 Pb1 2.703391 1_455
N8 Pb0 2.903407 1_455
N9 Pb1 2.903407 1_455
N10 Pb0 2.815149 1_455
N11 Pb1 2.815149 1_455
N12 Pb1 2.869430 1_555
N12 Pb1 2.935856 1_545
N13 Pb0 2.869430 1_555
N13 Pb0 2.935856 1_565
N14 Pb1 2.814904 1_456
N15 Pb0 2.814904 1_455
N16 Pb0 2.808682 1_555
N17 Pb1 2.808682 1_555
