# generated using pymatgen
data_VPH11O9
_symmetry_space_group_name_H-M   'P 1'
_cell_length_a   12.20234000
_cell_length_b   12.20234000
_cell_length_c   6.42486000
_cell_angle_alpha   90.00000000
_cell_angle_beta   90.00000000
_cell_angle_gamma   90.00000000
_symmetry_Int_Tables_number   1
_chemical_formula_structural   VPH11O9
_chemical_formula_sum   'V4 P4 H44 O36'
_cell_volume   956.64303139
_cell_formula_units_Z   4
loop_
 _symmetry_equiv_pos_site_id
 _symmetry_equiv_pos_as_xyz
  1  'x, y, z'
loop_
 _atom_site_type_symbol
 _atom_site_label
 _atom_site_symmetry_multiplicity
 _atom_site_fract_x
 _atom_site_fract_y
 _atom_site_fract_z
 _atom_site_occupancy
  V  V0  1  0.82337400  0.45402300  0.77719300  1
  V  V1  1  0.17662600  0.54597700  0.27719300  1
  V  V2  1  0.54597700  0.82337400  0.52719300  1
  V  V3  1  0.45402300  0.17662600  0.02719300  1
  P  P0  1  0.08982000  0.57358400  0.77526700  1
  P  P1  1  0.91018000  0.42641600  0.27526700  1
  P  P2  1  0.42641600  0.08982000  0.52526700  1
  P  P3  1  0.57358400  0.91018000  0.02526700  1
  H  H0  1  0.89783500  0.13620300  0.82601700  1
  H  H1  1  0.10216500  0.86379700  0.32601700  1
  H  H2  1  0.86379700  0.89783500  0.57601700  1
  H  H3  1  0.13620300  0.10216500  0.07601700  1
  H  H4  1  0.76952400  0.14240800  0.42385300  1
  H  H5  1  0.23047600  0.85759200  0.92385300  1
  H  H6  1  0.85759200  0.76952400  0.17385300  1
  H  H7  1  0.14240800  0.23047600  0.67385300  1
  H  H8  1  0.63597600  0.29947400  0.91819700  1
  H  H9  1  0.36402400  0.70052600  0.41819700  1
  H  H10  1  0.70052600  0.63597600  0.66819700  1
  H  H11  1  0.29947400  0.36402400  0.16819700  1
  H  H12  1  0.61048500  0.34713300  0.43383900  1
  H  H13  1  0.38951500  0.65286700  0.93383900  1
  H  H14  1  0.65286700  0.61048500  0.18383900  1
  H  H15  1  0.34713300  0.38951500  0.68383900  1
  H  H16  1  0.66071800  0.17317100  0.92120100  1
  H  H17  1  0.33928200  0.82682900  0.42120100  1
  H  H18  1  0.82682900  0.66071800  0.67120100  1
  H  H19  1  0.17317100  0.33928200  0.17120100  1
  H  H20  1  0.50010300  0.50175700  0.82930900  1
  H  H21  1  0.49989700  0.49824300  0.32930900  1
  H  H22  1  0.49824300  0.50010300  0.57930900  1
  H  H23  1  0.50175700  0.49989700  0.07930900  1
  H  H24  1  0.86239500  0.71819600  0.10965300  1
  H  H25  1  0.13760500  0.28180400  0.60965300  1
  H  H26  1  0.28180400  0.86239500  0.85965300  1
  H  H27  1  0.71819600  0.13760500  0.35965300  1
  H  H28  1  0.89730900  0.97207500  0.96069700  1
  H  H29  1  0.10269100  0.02792500  0.46069700  1
  H  H30  1  0.02792500  0.89730900  0.71069700  1
  H  H31  1  0.97207500  0.10269100  0.21069700  1
  H  H32  1  0.70774500  0.95674600  0.40662600  1
  H  H33  1  0.29225500  0.04325400  0.90662600  1
  H  H34  1  0.04325400  0.70774500  0.15662600  1
  H  H35  1  0.95674600  0.29225500  0.65662600  1
  H  H36  1  0.64114100  0.29583100  0.40922300  1
  H  H37  1  0.35885900  0.70416900  0.90922300  1
  H  H38  1  0.70416900  0.64114100  0.15922300  1
  H  H39  1  0.29583100  0.35885900  0.65922300  1
  H  H40  1  0.05084500  0.72648400  0.62377100  1
  H  H41  1  0.94915500  0.27351600  0.12377100  1
  H  H42  1  0.27351600  0.05084500  0.37377100  1
  H  H43  1  0.72648400  0.94915500  0.87377100  1
  O  O0  1  0.97996300  0.51413400  0.77804900  1
  O  O1  1  0.02003700  0.48586600  0.27804900  1
  O  O2  1  0.48586600  0.97996300  0.52804900  1
  O  O3  1  0.51413400  0.02003700  0.02804900  1
  O  O4  1  0.15983300  0.54680100  0.58648400  1
  O  O5  1  0.84016700  0.45319900  0.08648400  1
  O  O6  1  0.45319900  0.15983300  0.33648400  1
  O  O7  1  0.54680100  0.84016700  0.83648400  1
  O  O8  1  0.15575200  0.56066900  0.97443000  1
  O  O9  1  0.84424800  0.43933100  0.47443000  1
  O  O10  1  0.43933100  0.15575200  0.72443000  1
  O  O11  1  0.56066900  0.84424800  0.22443000  1
  O  O12  1  0.77179800  0.61501700  0.73894700  1
  O  O13  1  0.22820200  0.38498300  0.23894700  1
  O  O14  1  0.38498300  0.77179800  0.48894700  1
  O  O15  1  0.61501700  0.22820200  0.98894700  1
  O  O16  1  0.91952800  0.29575600  0.79293700  1
  O  O17  1  0.08047200  0.70424400  0.29293700  1
  O  O18  1  0.70424400  0.91952800  0.54293700  1
  O  O19  1  0.29575600  0.08047200  0.04293700  1
  O  O20  1  0.70091100  0.39727600  0.79235900  1
  O  O21  1  0.29908900  0.60272400  0.29235900  1
  O  O22  1  0.60272400  0.70091100  0.54235900  1
  O  O23  1  0.39727600  0.29908900  0.04235900  1
  O  O24  1  0.19923200  0.15253800  0.03536800  1
  O  O25  1  0.80076800  0.84746200  0.53536800  1
  O  O26  1  0.84746200  0.19923200  0.78536800  1
  O  O27  1  0.15253800  0.80076800  0.28536800  1
  O  O28  1  0.94982100  0.02112700  0.89134700  1
  O  O29  1  0.05017900  0.97887300  0.39134700  1
  O  O30  1  0.97887300  0.94982100  0.64134700  1
  O  O31  1  0.02112700  0.05017900  0.14134700  1
  O  O32  1  0.93926400  0.29470300  0.26913200  1
  O  O33  1  0.06073600  0.70529700  0.76913200  1
  O  O34  1  0.70529700  0.93926400  0.01913200  1
  O  O35  1  0.29470300  0.06073600  0.51913200  1
loop_
_geom_bond_atom_site_label_1
_geom_bond_atom_site_label_2
_geom_bond_distance
_geom_bond_site_symmetry_2
H0 O26 1.018597 1_555
H0 O28 1.596981 1_555
H1 O27 1.018597 1_555
H1 O29 1.596981 1_555
H2 O25 1.018597 1_555
H2 O30 1.596981 1_555
H3 O24 1.018597 1_555
H3 O31 1.596981 1_555
H8 O15 1.014092 1_555
H8 O20 1.644909 1_555
H9 O14 1.014092 1_555
H9 O21 1.644909 1_555
H10 O12 1.014092 1_555
H10 O22 1.644909 1_555
H11 O13 1.014092 1_555
H11 O23 1.644909 1_555
H12 H36 0.746208 1_555
H13 H37 0.746208 1_555
H14 H38 0.746208 1_555
H15 H39 0.746208 1_555
H16 O15 0.975374 1_555
H17 O14 0.975374 1_555
H18 O12 0.975374 1_555
H19 O13 0.975374 1_555
H24 H6 0.752230 1_555
H25 H7 0.752230 1_555
H26 H5 0.752230 1_555
H27 H4 0.752230 1_555
H28 O28 0.983552 1_565
H29 O29 0.983552 1_545
H30 O30 0.983552 1_455
H31 O31 0.983552 1_655
H32 O18 0.987453 1_555
H33 O19 0.987453 1_556
H34 O17 0.987453 1_555
H35 O16 0.987453 1_555
H40 O33 0.976534 1_555
H41 O32 0.976534 1_555
H42 O35 0.976534 1_555
H43 O34 0.976534 1_556
O0 P0 1.524316 1_655
O0 V0 2.046709 1_555
O1 P1 1.524316 1_455
O1 V1 2.046709 1_555
O2 P2 1.524316 1_565
O2 V2 2.046709 1_555
O3 P3 1.524316 1_545
O3 V3 2.046709 1_555
O4 P0 1.519148 1_555
O4 V1 1.997714 1_555
O5 P1 1.519148 1_555
O5 V0 1.997714 1_554
O6 P2 1.519148 1_555
O6 V3 1.997714 1_555
O7 P3 1.519148 1_556
O7 V2 1.997714 1_555
O8 P0 1.519690 1_555
O8 V1 1.969990 1_556
O9 P1 1.519690 1_555
O9 V0 1.969990 1_555
O10 P2 1.519690 1_555
O10 V3 1.969990 1_556
O11 P3 1.519690 1_555
O11 V2 1.969990 1_555
O12 V0 2.077434 1_555
O13 V1 2.077434 1_555
O14 V2 2.077434 1_555
O15 V3 2.077434 1_556
O16 V0 2.261971 1_555
O17 V1 2.261971 1_555
O18 V2 2.261971 1_555
O19 V3 2.261971 1_555
O20 V0 1.649853 1_555
O21 V1 1.649853 1_555
O22 V2 1.649853 1_555
O23 V3 1.649853 1_555
O32 P1 1.646395 1_555
O33 P0 1.646395 1_555
O34 P3 1.646395 1_555
O35 P2 1.646395 1_555
