# generated using pymatgen
data_NaSr4(FeAs)10
_symmetry_space_group_name_H-M   'P 1'
_cell_length_a   8.85812068
_cell_length_b   8.55280907
_cell_length_c   8.85812068
_cell_angle_alpha   58.81194873
_cell_angle_beta   90.00000000
_cell_angle_gamma   58.81194873
_symmetry_Int_Tables_number   1
_chemical_formula_structural   NaSr4(FeAs)10
_chemical_formula_sum   'Na1 Sr4 Fe10 As10'
_cell_volume   456.97707163
_cell_formula_units_Z   1
loop_
 _symmetry_equiv_pos_site_id
 _symmetry_equiv_pos_as_xyz
  1  'x, y, z'
loop_
 _atom_site_type_symbol
 _atom_site_label
 _atom_site_symmetry_multiplicity
 _atom_site_fract_x
 _atom_site_fract_y
 _atom_site_fract_z
 _atom_site_occupancy
  Na  Na0  1  0.00000000  0.00000000  0.00000000  1
  Sr  Sr0  1  0.19802600  0.00000000  0.60498300  1
  Sr  Sr1  1  0.39501700  0.00000000  0.19802600  1
  Sr  Sr2  1  0.60498300  0.00000000  0.80197400  1
  Sr  Sr3  1  0.80197400  0.00000000  0.39501700  1
  Fe  Fe0  1  0.94952600  0.50091400  0.84947700  1
  Fe  Fe1  1  0.15052300  0.49908600  0.45044000  1
  Fe  Fe2  1  0.35039100  0.49908600  0.05047400  1
  Fe  Fe3  1  0.54956000  0.50091400  0.64960900  1
  Fe  Fe4  1  0.75000000  0.50000000  0.25000000  1
  Fe  Fe5  1  0.84947700  0.50091400  0.54956000  1
  Fe  Fe6  1  0.05047400  0.49908600  0.15052300  1
  Fe  Fe7  1  0.25000000  0.50000000  0.75000000  1
  Fe  Fe8  1  0.45044000  0.49908600  0.35039100  1
  Fe  Fe9  1  0.64960900  0.50091400  0.94952600  1
  As  As0  1  0.15275800  0.29327000  0.75345600  1
  As  As1  1  0.35347800  0.29304400  0.35347800  1
  As  As2  1  0.55397100  0.29327000  0.95327300  1
  As  As3  1  0.75345600  0.29327000  0.55397100  1
  As  As4  1  0.95327300  0.29327000  0.15275800  1
  As  As5  1  0.64652200  0.70695600  0.64652200  1
  As  As6  1  0.84724200  0.70673000  0.24654400  1
  As  As7  1  0.04672600  0.70673000  0.84724200  1
  As  As8  1  0.24654400  0.70673000  0.44602900  1
  As  As9  1  0.44602900  0.70673000  0.04672600  1
loop_
_geom_bond_atom_site_label_1
_geom_bond_atom_site_label_2
_geom_bond_distance
_geom_bond_site_symmetry_2
As0 Fe5 2.317305 1_455
As0 Fe0 2.317659 1_455
As0 Fe1 2.318200 1_555
As0 Fe7 2.321746 1_555
As0 Sr0 3.249144 1_555
As0 Sr1 3.255721 1_556
As0 Na0 3.276247 1_556
As0 Sr2 3.316644 1_555
As1 Fe6 2.315524 1_555
As1 Fe2 2.315524 1_555
As1 Fe1 2.315524 1_555
As1 Fe8 2.315524 1_555
As1 Sr1 3.306459 1_555
As1 Sr0 3.306459 1_555
As1 Sr3 3.306459 1_555
As1 Sr2 3.306459 1_555
As2 Fe9 2.317315 1_555
As2 Fe3 2.317655 1_555
As2 Fe2 2.318203 1_556
As2 Fe7 2.321736 1_555
As2 Sr3 3.249153 1_556
As2 Sr2 3.255711 1_555
As2 Na0 3.276252 1_656
As2 Sr1 3.316639 1_556
As3 Fe3 2.317312 1_555
As3 Fe5 2.317662 1_555
As3 Fe8 2.318197 1_555
As3 Fe4 2.321739 1_555
As3 Sr2 3.249146 1_555
As3 Sr0 3.255718 1_655
As3 Na0 3.276255 1_656
As3 Sr3 3.316637 1_555
As4 Fe0 2.317309 1_554
As4 Fe9 2.317652 1_554
As4 Fe6 2.318207 1_655
As4 Fe4 2.321743 1_555
As4 Sr1 3.249151 1_655
As4 Sr3 3.255713 1_555
As4 Na0 3.276245 1_655
As4 Sr0 3.316647 1_655
As5 Fe3 2.315524 1_555
As5 Fe5 2.315524 1_555
As5 Fe9 2.315524 1_555
As5 Fe0 2.315524 1_555
As5 Sr1 3.306459 1_565
As5 Sr0 3.306459 1_565
As5 Sr3 3.306459 1_565
As5 Sr2 3.306459 1_565
As6 Fe1 2.317305 1_655
As6 Fe6 2.317659 1_655
As6 Fe5 2.318200 1_555
As6 Fe4 2.321746 1_555
As6 Sr3 3.249144 1_565
As6 Sr2 3.255721 1_564
As6 Na0 3.276247 1_665
As6 Sr1 3.316644 1_565
As7 Fe6 2.317305 1_556
As7 Fe2 2.317659 1_556
As7 Fe0 2.318200 1_455
As7 Fe7 2.321746 1_555
As7 Sr2 3.249144 1_465
As7 Sr0 3.255721 1_565
As7 Na0 3.276247 1_566
As7 Sr3 3.316644 1_465
As8 Fe8 2.317312 1_555
As8 Fe1 2.317662 1_555
As8 Fe3 2.318197 1_555
As8 Fe7 2.321739 1_555
As8 Sr1 3.249146 1_565
As8 Sr3 3.255718 1_465
As8 Na0 3.276255 1_565
As8 Sr0 3.316637 1_565
As9 Fe2 2.317312 1_555
As9 Fe8 2.317662 1_555
As9 Fe9 2.318197 1_554
As9 Fe4 2.321739 1_555
As9 Sr0 3.249146 1_564
As9 Sr1 3.255718 1_565
As9 Na0 3.276255 1_565
As9 Sr2 3.316637 1_564
