# generated using pymatgen
data_K4LiMn4O8
_symmetry_space_group_name_H-M   'P 1'
_cell_length_a   3.01756601
_cell_length_b   6.42206743
_cell_length_c   13.33921436
_cell_angle_alpha   84.12710934
_cell_angle_beta   89.98396283
_cell_angle_gamma   89.99014371
_symmetry_Int_Tables_number   1
_chemical_formula_structural   K4LiMn4O8
_chemical_formula_sum   'K4 Li1 Mn4 O8'
_cell_volume   257.14400503
_cell_formula_units_Z   1
loop_
 _symmetry_equiv_pos_site_id
 _symmetry_equiv_pos_as_xyz
  1  'x, y, z'
loop_
 _atom_site_type_symbol
 _atom_site_label
 _atom_site_symmetry_multiplicity
 _atom_site_fract_x
 _atom_site_fract_y
 _atom_site_fract_z
 _atom_site_occupancy
  K  K0  1  0.25050800  0.46559000  0.10962100  1
  K  K1  1  0.24955600  0.01865900  0.65029600  1
  K  K2  1  0.75014300  0.48409800  0.85580300  1
  K  K3  1  0.74981300  0.04873900  0.36912100  1
  Li  Li0  1  0.24994500  0.70167700  0.26779100  1
  Mn  Mn0  1  0.25019400  0.97126700  0.10409600  1
  Mn  Mn1  1  0.75048400  0.98976500  0.90703000  1
  Mn  Mn2  1  0.74983600  0.51991000  0.40347700  1
  Mn  Mn3  1  0.24960400  0.53122900  0.59925200  1
  O  O0  1  0.75001500  0.81371800  0.19639500  1
  O  O1  1  0.25050500  0.13624200  0.83438600  1
  O  O2  1  0.24991100  0.39811200  0.32922800  1
  O  O3  1  0.74952300  0.66595200  0.66290800  1
  O  O4  1  0.75028900  0.16190700  0.04270600  1
  O  O5  1  0.25050600  0.80146700  0.95964200  1
  O  O6  1  0.74970500  0.35350900  0.55421900  1
  O  O7  1  0.24967800  0.70899000  0.43974800  1
loop_
_geom_bond_atom_site_label_1
_geom_bond_atom_site_label_2
_geom_bond_distance
_geom_bond_site_symmetry_2
K0 O4 2.688717 1_555
K0 O4 2.690115 1_455
K0 O5 2.787841 1_554
K0 O2 2.917071 1_555
K1 O1 2.641921 1_555
K1 O3 2.712218 1_545
K1 O3 2.712710 1_445
K1 O6 2.824512 1_455
K1 O6 2.825004 1_555
K2 O3 2.714712 1_555
K2 O1 2.734466 1_555
K2 O1 2.735159 1_655
K2 O5 2.986860 1_555
K2 O5 2.988712 1_655
K2 O4 3.072681 1_556
K3 O2 2.710688 1_555
K3 O2 2.711281 1_655
K3 O7 2.739054 1_645
K3 O7 2.739626 1_545
K3 O0 2.880669 1_545
Li0 O0 1.886986 1_455
Li0 O0 1.887096 1_555
Li0 O2 2.035994 1_555
Li0 O7 2.299051 1_555
Mn0 O4 2.059114 1_465
Mn0 O4 2.059507 1_565
Mn0 O0 2.135403 1_555
Mn0 O0 2.135926 1_455
Mn0 O5 2.309129 1_554
Mn1 O1 1.978288 1_665
Mn1 O1 1.978358 1_565
Mn1 O5 2.014306 1_555
Mn1 O5 2.014388 1_655
Mn1 O4 2.215176 1_566
Mn2 O2 2.006782 1_655
Mn2 O2 2.007060 1_555
Mn2 O7 2.026038 1_655
Mn2 O7 2.026235 1_555
Mn2 O6 2.178414 1_555
Mn3 O3 1.973808 1_455
Mn3 O3 1.974025 1_555
Mn3 O6 2.019908 1_555
Mn3 O6 2.019998 1_455
Mn3 O7 2.309351 1_555
