# generated using pymatgen
data_K2BiBr5O2
_symmetry_space_group_name_H-M   'P 1'
_cell_length_a   9.13872300
_cell_length_b   13.52786300
_cell_length_c   19.44994300
_cell_angle_alpha   90.00000000
_cell_angle_beta   90.00000000
_cell_angle_gamma   90.00000000
_symmetry_Int_Tables_number   1
_chemical_formula_structural   K2BiBr5O2
_chemical_formula_sum   'K16 Bi8 Br40 O16'
_cell_volume   2404.54574201
_cell_formula_units_Z   8
loop_
 _symmetry_equiv_pos_site_id
 _symmetry_equiv_pos_as_xyz
  1  'x, y, z'
loop_
 _atom_site_type_symbol
 _atom_site_label
 _atom_site_symmetry_multiplicity
 _atom_site_fract_x
 _atom_site_fract_y
 _atom_site_fract_z
 _atom_site_occupancy
  K  K0  1  0.97191400  0.38512700  0.25000000  1
  K  K1  1  0.47191400  0.11487300  0.25000000  1
  K  K2  1  0.02808600  0.61487300  0.75000000  1
  K  K3  1  0.52808600  0.88512700  0.75000000  1
  K  K4  1  0.84962700  0.66221600  0.25000000  1
  K  K5  1  0.34962700  0.83778400  0.25000000  1
  K  K6  1  0.15037300  0.33778400  0.75000000  1
  K  K7  1  0.65037300  0.16221600  0.75000000  1
  K  K8  1  0.02396700  0.28577400  0.01671000  1
  K  K9  1  0.52396700  0.21422600  0.48329000  1
  K  K10  1  0.97603300  0.71422600  0.51671000  1
  K  K11  1  0.47603300  0.78577400  0.98329000  1
  K  K12  1  0.97603300  0.71422600  0.98329000  1
  K  K13  1  0.47603300  0.78577400  0.51671000  1
  K  K14  1  0.02396700  0.28577400  0.48329000  1
  K  K15  1  0.52396700  0.21422600  0.01671000  1
  Bi  Bi0  1  0.90289500  0.00333400  0.11805100  1
  Bi  Bi1  1  0.40289500  0.49666600  0.38194900  1
  Bi  Bi2  1  0.09710500  0.99666600  0.61805100  1
  Bi  Bi3  1  0.59710500  0.50333400  0.88194900  1
  Bi  Bi4  1  0.09710500  0.99666600  0.88194900  1
  Bi  Bi5  1  0.59710500  0.50333400  0.61805100  1
  Bi  Bi6  1  0.90289500  0.00333400  0.38194900  1
  Bi  Bi7  1  0.40289500  0.49666600  0.11805100  1
  Br  Br0  1  0.57400700  0.97312900  0.09039400  1
  Br  Br1  1  0.07400700  0.52687100  0.40960600  1
  Br  Br2  1  0.42599300  0.02687100  0.59039400  1
  Br  Br3  1  0.92599300  0.47312900  0.90960600  1
  Br  Br4  1  0.42599300  0.02687100  0.90960600  1
  Br  Br5  1  0.92599300  0.47312900  0.59039400  1
  Br  Br6  1  0.57400700  0.97312900  0.40960600  1
  Br  Br7  1  0.07400700  0.52687100  0.09039400  1
  Br  Br8  1  0.17529800  0.05787000  0.02225800  1
  Br  Br9  1  0.67529800  0.44213000  0.47774200  1
  Br  Br10  1  0.82470200  0.94213000  0.52225800  1
  Br  Br11  1  0.32470200  0.55787000  0.97774200  1
  Br  Br12  1  0.82470200  0.94213000  0.97774200  1
  Br  Br13  1  0.32470200  0.55787000  0.52225800  1
  Br  Br14  1  0.17529800  0.05787000  0.47774200  1
  Br  Br15  1  0.67529800  0.44213000  0.02225800  1
  Br  Br16  1  0.74174600  0.24050600  0.15505700  1
  Br  Br17  1  0.24174600  0.25949400  0.34494300  1
  Br  Br18  1  0.25825400  0.75949400  0.65505700  1
  Br  Br19  1  0.75825400  0.74050600  0.84494300  1
  Br  Br20  1  0.25825400  0.75949400  0.84494300  1
  Br  Br21  1  0.75825400  0.74050600  0.65505700  1
  Br  Br22  1  0.74174600  0.24050600  0.34494300  1
  Br  Br23  1  0.24174600  0.25949400  0.15505700  1
  Br  Br24  1  0.04628700  0.81070500  0.13404300  1
  Br  Br25  1  0.54628700  0.68929500  0.36595700  1
  Br  Br26  1  0.95371300  0.18929500  0.63404300  1
  Br  Br27  1  0.45371300  0.31070500  0.86595700  1
  Br  Br28  1  0.95371300  0.18929500  0.86595700  1
  Br  Br29  1  0.45371300  0.31070500  0.63404300  1
  Br  Br30  1  0.04628700  0.81070500  0.36595700  1
  Br  Br31  1  0.54628700  0.68929500  0.13404300  1
  Br  Br32  1  0.76403800  0.95418400  0.25000000  1
  Br  Br33  1  0.26403800  0.54581600  0.25000000  1
  Br  Br34  1  0.23596200  0.04581600  0.75000000  1
  Br  Br35  1  0.73596200  0.45418400  0.75000000  1
  Br  Br36  1  0.08843500  0.10959700  0.25000000  1
  Br  Br37  1  0.58843500  0.39040300  0.25000000  1
  Br  Br38  1  0.91156500  0.89040300  0.75000000  1
  Br  Br39  1  0.41156500  0.60959700  0.75000000  1
  O  O0  1  0.94509200  0.52469800  0.15904700  1
  O  O1  1  0.44509200  0.97530200  0.34095300  1
  O  O2  1  0.05490800  0.47530200  0.65904700  1
  O  O3  1  0.55490800  0.02469800  0.84095300  1
  O  O4  1  0.05490800  0.47530200  0.84095300  1
  O  O5  1  0.55490800  0.02469800  0.65904700  1
  O  O6  1  0.94509200  0.52469800  0.34095300  1
  O  O7  1  0.44509200  0.97530200  0.15904700  1
  O  O8  1  0.65806200  0.66192600  0.90918700  1
  O  O9  1  0.15806200  0.83807400  0.59081300  1
  O  O10  1  0.34193800  0.33807400  0.40918700  1
  O  O11  1  0.84193800  0.16192600  0.09081300  1
  O  O12  1  0.34193800  0.33807400  0.09081300  1
  O  O13  1  0.84193800  0.16192600  0.40918700  1
  O  O14  1  0.65806200  0.66192600  0.59081300  1
  O  O15  1  0.15806200  0.83807400  0.90918700  1
loop_
_geom_bond_atom_site_label_1
_geom_bond_atom_site_label_2
_geom_bond_distance
_geom_bond_site_symmetry_2
K0 O6 2.598935 1_555
K0 O0 2.598935 1_555
K1 O7 2.598935 1_545
K1 O1 2.598935 1_545
K2 O4 2.598935 1_555
K2 O2 2.598935 1_555
K3 O3 2.598935 1_565
K3 O5 2.598935 1_565
K4 O6 2.711348 1_555
K4 O0 2.711348 1_555
K5 O7 2.711348 1_555
K5 O1 2.711348 1_555
K6 O4 2.711348 1_555
K6 O2 2.711348 1_555
K7 O3 2.711348 1_555
K7 O5 2.711348 1_555
K8 O11 2.766149 1_455
K9 O10 2.766149 1_555
K10 O9 2.766149 1_655
K11 O8 2.766149 1_555
K12 O15 2.766149 1_655
K13 O14 2.766149 1_555
K14 O13 2.766149 1_455
K15 O12 2.766149 1_555
Bi0 O11 2.278986 1_555
Bi0 Br24 2.933334 1_645
Bi0 Br32 2.939183 1_545
Bi0 Br12 2.940000 1_544
Bi0 Br8 3.195758 1_655
Bi0 Br36 3.395277 1_655
Bi1 O10 2.278986 1_555
Bi1 Br25 2.933334 1_555
Bi1 Br33 2.939183 1_555
Bi1 Br13 2.940000 1_555
Bi1 Br9 3.195758 1_555
Bi1 Br37 3.395277 1_555
Bi2 O9 2.278986 1_555
Bi2 Br26 2.933334 1_465
Bi2 Br34 2.939183 1_565
Bi2 Br14 2.940000 1_565
Bi2 Br10 3.195758 1_455
Bi2 Br38 3.395277 1_455
Bi3 O8 2.278986 1_555
Bi3 Br27 2.933334 1_555
Bi3 Br35 2.939183 1_555
Bi3 Br15 2.940000 1_556
Bi3 Br11 3.195758 1_555
Bi3 Br39 3.395277 1_555
Bi4 O15 2.278986 1_555
Bi4 Br28 2.933334 1_465
Bi4 Br34 2.939183 1_565
Bi4 Br8 2.940000 1_566
Bi4 Br12 3.195758 1_455
Bi4 Br38 3.395277 1_455
Bi5 O14 2.278986 1_555
Bi5 Br29 2.933334 1_555
Bi5 Br35 2.939183 1_555
Bi5 Br9 2.940000 1_555
Bi5 Br13 3.195758 1_555
Bi5 Br39 3.395277 1_555
Bi6 O13 2.278986 1_555
Bi6 Br30 2.933334 1_645
Bi6 Br32 2.939183 1_545
Bi6 Br10 2.940000 1_545
Bi6 Br14 3.195758 1_655
Bi6 Br36 3.395277 1_655
Bi7 O12 2.278986 1_555
Bi7 Br31 2.933334 1_555
Bi7 Br33 2.939183 1_555
Bi7 Br11 2.940000 1_554
Bi7 Br15 3.195758 1_555
Bi7 Br37 3.395277 1_555
Br0 O7 1.780967 1_555
Br1 O6 1.780967 1_455
Br2 O5 1.780967 1_555
Br3 O4 1.780967 1_655
Br4 O3 1.780967 1_555
Br5 O2 1.780967 1_655
Br6 O1 1.780967 1_555
Br7 O0 1.780967 1_455
Br8 K8 3.380751 1_555
Br8 K15 3.826047 1_555
Br9 K9 3.380751 1_555
Br9 K14 3.826047 1_655
Br10 K10 3.380751 1_555
Br10 K13 3.826047 1_555
Br11 K11 3.380751 1_555
Br11 K12 3.826047 1_455
Br12 K12 3.380751 1_555
Br12 K11 3.826047 1_555
Br13 K13 3.380751 1_555
Br13 K10 3.826047 1_455
Br14 K14 3.380751 1_555
Br14 K9 3.826047 1_555
Br15 K15 3.380751 1_555
Br15 K8 3.826047 1_655
Br16 O11 1.878760 1_555
Br16 Br37 3.079768 1_555
Br17 O10 1.878760 1_555
Br17 Br36 3.079768 1_555
Br18 O9 1.878760 1_555
Br18 Br39 3.079768 1_555
Br19 O8 1.878760 1_555
Br19 Br38 3.079768 1_555
Br20 O15 1.878760 1_555
Br20 Br39 3.079768 1_555
Br21 O14 1.878760 1_555
Br21 Br38 3.079768 1_555
Br22 O13 1.878760 1_555
Br22 Br37 3.079768 1_555
Br23 O12 1.878760 1_555
Br23 Br36 3.079768 1_555
Br24 K12 3.273082 1_454
Br24 K4 3.514494 1_455
Br24 K5 3.592435 1_555
Br25 K13 3.273082 1_555
Br25 K5 3.514494 1_555
Br25 K4 3.592435 1_555
Br26 K14 3.273082 1_655
Br26 K6 3.514494 1_655
Br26 K7 3.592435 1_555
Br27 K15 3.273082 1_556
Br27 K7 3.514494 1_555
Br27 K6 3.592435 1_555
Br28 K8 3.273082 1_656
Br28 K6 3.514494 1_655
Br28 K7 3.592435 1_555
Br29 K9 3.273082 1_555
Br29 K7 3.514494 1_555
Br29 K6 3.592435 1_555
Br30 K10 3.273082 1_455
Br30 K4 3.514494 1_455
Br30 K5 3.592435 1_555
Br31 K11 3.273082 1_554
Br31 K5 3.514494 1_555
Br31 K4 3.592435 1_555
Br32 K1 3.442716 1_565
Br33 K0 3.442716 1_455
Br34 K3 3.442716 1_545
Br35 K2 3.442716 1_655
Br36 K1 3.505235 1_555
Br36 K0 3.876457 1_455
Br37 K0 3.505235 1_555
Br37 K1 3.876457 1_555
Br38 K3 3.505235 1_555
Br38 K2 3.876457 1_655
Br39 K2 3.505235 1_555
Br39 K3 3.876457 1_555
