# generated using pymatgen
data_Mg14AlSb
_symmetry_space_group_name_H-M   'P 1'
_cell_length_a   6.36128533
_cell_length_b   6.36128482
_cell_length_c   10.29153421
_cell_angle_alpha   90.00000000
_cell_angle_beta   90.00000000
_cell_angle_gamma   120.00000273
_symmetry_Int_Tables_number   1
_chemical_formula_structural   Mg14AlSb
_chemical_formula_sum   'Mg14 Al1 Sb1'
_cell_volume   360.66205967
_cell_formula_units_Z   1
loop_
 _symmetry_equiv_pos_site_id
 _symmetry_equiv_pos_as_xyz
  1  'x, y, z'
loop_
 _atom_site_type_symbol
 _atom_site_label
 _atom_site_symmetry_multiplicity
 _atom_site_fract_x
 _atom_site_fract_y
 _atom_site_fract_z
 _atom_site_occupancy
  Mg  Mg0  1  0.16697342  0.83348621  0.12500000  1
  Mg  Mg1  1  0.16586315  0.83293108  0.62500000  1
  Mg  Mg2  1  0.66651379  0.33302658  0.12500000  1
  Mg  Mg3  1  0.66706892  0.33413685  0.62500000  1
  Mg  Mg4  1  0.66651379  0.83348621  0.12500000  1
  Mg  Mg5  1  0.66706892  0.83293108  0.62500000  1
  Mg  Mg6  1  0.33391151  0.16608849  0.37232034  1
  Mg  Mg7  1  0.33391151  0.16608849  0.87767966  1
  Mg  Mg8  1  0.33391151  0.66782402  0.37232034  1
  Mg  Mg9  1  0.33391151  0.66782402  0.87767966  1
  Mg  Mg10  1  0.83217598  0.16608849  0.37232034  1
  Mg  Mg11  1  0.83217598  0.16608849  0.87767966  1
  Mg  Mg12  1  0.83333300  0.66666700  0.37529296  1
  Mg  Mg13  1  0.83333300  0.66666700  0.87470704  1
  Al  Al0  1  0.16666700  0.33333300  0.12500000  1
  Sb  Sb0  1  0.16666700  0.33333300  0.62500000  1
loop_
_geom_bond_atom_site_label_1
_geom_bond_atom_site_label_2
_geom_bond_distance
_geom_bond_site_symmetry_2
Mg0 Mg9 3.136231 1_554
Mg0 Mg8 3.136231 1_555
Mg0 Mg7 3.136237 1_564
Mg0 Mg6 3.136237 1_565
Mg0 Mg13 3.164432 1_454
Mg0 Mg12 3.164432 1_455
Mg0 Mg2 3.177719 1_565
Mg0 Mg4 3.177719 1_555
Mg0 Mg2 3.183566 1_455
Mg0 Mg4 3.183567 1_455
Mg1 Mg13 3.155971 1_455
Mg1 Mg12 3.155971 1_455
Mg1 Mg3 3.172972 1_455
Mg1 Mg5 3.172972 1_455
Mg1 Sb0 3.180645 1_565
Mg1 Sb0 3.180646 1_555
Mg1 Mg8 3.182931 1_555
Mg1 Mg9 3.182931 1_555
Mg1 Mg6 3.182937 1_565
Mg1 Mg7 3.182937 1_565
Mg1 Mg3 3.188313 1_565
Mg1 Mg5 3.188313 1_555
Mg2 Mg7 3.136237 1_554
Mg2 Mg6 3.136237 1_555
Mg2 Mg4 3.177719 1_545
Mg2 Mg4 3.183566 1_555
Mg3 Mg5 3.172972 1_555
Mg3 Sb0 3.180646 1_555
Mg3 Sb0 3.180646 1_655
Mg3 Mg6 3.182937 1_555
Mg3 Mg7 3.182937 1_555
Mg3 Mg5 3.188313 1_545
Mg4 Mg8 3.136237 1_555
Mg4 Mg9 3.136237 1_554
Mg5 Sb0 3.180645 1_665
Mg5 Sb0 3.180645 1_555
Mg5 Mg9 3.182937 1_555
Mg5 Mg8 3.182937 1_555
Mg6 Mg8 3.169602 1_545
Mg6 Sb0 3.187159 1_555
Mg6 Mg8 3.191683 1_555
Mg7 Mg9 3.169602 1_545
Mg7 Sb0 3.187159 1_555
Mg7 Mg9 3.191683 1_555
Mg8 Sb0 3.187166 1_555
Mg9 Sb0 3.187166 1_555
Mg10 Mg2 3.136231 1_555
Mg10 Mg4 3.136237 1_545
Mg10 Mg8 3.169602 1_545
Mg10 Mg6 3.169602 1_555
Mg10 Mg12 3.180796 1_555
Mg10 Mg12 3.180796 1_545
Mg10 Mg3 3.182931 1_555
Mg10 Mg5 3.182937 1_545
Mg10 Sb0 3.187166 1_655
Mg10 Mg8 3.191683 1_655
Mg10 Mg6 3.191683 1_655
Mg11 Mg2 3.136231 1_556
Mg11 Mg4 3.136237 1_546
Mg11 Mg9 3.169602 1_545
Mg11 Mg7 3.169602 1_555
Mg11 Mg13 3.180796 1_555
Mg11 Mg13 3.180796 1_545
Mg11 Mg3 3.182931 1_555
Mg11 Mg5 3.182937 1_545
Mg11 Sb0 3.187166 1_655
Mg11 Mg9 3.191683 1_655
Mg11 Mg7 3.191683 1_655
Mg12 Mg5 3.155965 1_555
Mg12 Mg3 3.155971 1_555
Mg12 Mg4 3.164426 1_555
Mg12 Mg2 3.164432 1_555
Mg12 Mg6 3.180796 1_555
Mg12 Mg6 3.180796 1_665
Mg12 Mg8 3.180796 1_655
Mg12 Mg8 3.180796 1_555
Mg13 Mg5 3.155965 1_555
Mg13 Mg3 3.155971 1_555
Mg13 Mg4 3.164426 1_556
Mg13 Mg2 3.164432 1_556
Mg13 Mg7 3.180796 1_555
Mg13 Mg7 3.180796 1_665
Mg13 Mg9 3.180796 1_655
Mg13 Mg9 3.180796 1_555
Al0 Mg7 3.142319 1_554
Al0 Mg6 3.142319 1_555
Al0 Mg8 3.142325 1_555
Al0 Mg9 3.142325 1_554
Al0 Mg11 3.142325 1_454
Al0 Mg10 3.142325 1_455
Al0 Mg4 3.180643 1_555
Al0 Mg4 3.180643 1_445
Al0 Mg0 3.180643 1_555
Al0 Mg0 3.180643 1_545
Al0 Mg2 3.180643 1_455
Al0 Mg2 3.180643 1_555
