# generated using pymatgen
data_YSe2NO11
_symmetry_space_group_name_H-M   'P 1'
_cell_length_a   6.31869700
_cell_length_b   7.23595600
_cell_length_c   21.62533200
_cell_angle_alpha   90.00000000
_cell_angle_beta   90.00000000
_cell_angle_gamma   90.00000000
_symmetry_Int_Tables_number   1
_chemical_formula_structural   YSe2NO11
_chemical_formula_sum   'Y4 Se8 N4 O44'
_cell_volume   988.74939592
_cell_formula_units_Z   4
loop_
 _symmetry_equiv_pos_site_id
 _symmetry_equiv_pos_as_xyz
  1  'x, y, z'
loop_
 _atom_site_type_symbol
 _atom_site_label
 _atom_site_symmetry_multiplicity
 _atom_site_fract_x
 _atom_site_fract_y
 _atom_site_fract_z
 _atom_site_occupancy
  Y  Y0  1  0.23795800  0.67480600  0.64123500  1
  Y  Y1  1  0.26204200  0.32519400  0.14123500  1
  Y  Y2  1  0.73795800  0.82519400  0.35876500  1
  Y  Y3  1  0.76204200  0.17480600  0.85876500  1
  Se  Se0  1  0.03158500  0.57581800  0.79854000  1
  Se  Se1  1  0.46841500  0.42418200  0.29854000  1
  Se  Se2  1  0.53158500  0.92418200  0.20146000  1
  Se  Se3  1  0.96841500  0.07581800  0.70146000  1
  Se  Se4  1  0.46882400  0.81780900  0.78625000  1
  Se  Se5  1  0.03117600  0.18219100  0.28625000  1
  Se  Se6  1  0.96882400  0.68219100  0.21375000  1
  Se  Se7  1  0.53117600  0.31780900  0.71375000  1
  N  N0  1  0.64440400  0.81024400  0.94556400  1
  N  N1  1  0.85559600  0.18975600  0.44556400  1
  N  N2  1  0.14440400  0.68975600  0.05443600  1
  N  N3  1  0.35559600  0.31024400  0.55443600  1
  O  O0  1  0.87647900  0.00598200  0.77167400  1
  O  O1  1  0.62352100  0.99401900  0.27167400  1
  O  O2  1  0.37647900  0.49401800  0.22832600  1
  O  O3  1  0.12352100  0.50598100  0.72832600  1
  O  O4  1  0.96276300  0.88572300  0.65565400  1
  O  O5  1  0.53723700  0.11427700  0.15565400  1
  O  O6  1  0.46276300  0.61427700  0.34434600  1
  O  O7  1  0.03723700  0.38572300  0.84434600  1
  O  O8  1  0.73050500  0.18908300  0.66850700  1
  O  O9  1  0.76949500  0.81091700  0.16850700  1
  O  O10  1  0.23050500  0.31091700  0.33149300  1
  O  O11  1  0.26949500  0.68908300  0.83149300  1
  O  O12  1  0.66415900  0.37522900  0.77949100  1
  O  O13  1  0.83584100  0.62477100  0.27949100  1
  O  O14  1  0.16415900  0.12477100  0.22050900  1
  O  O15  1  0.33584100  0.87522900  0.72050900  1
  O  O16  1  0.46473700  0.01629000  0.82736800  1
  O  O17  1  0.03526300  0.98371000  0.32736800  1
  O  O18  1  0.96473700  0.48371000  0.17263200  1
  O  O19  1  0.53526300  0.51629000  0.67263200  1
  O  O20  1  0.96699700  0.66274500  0.42421900  1
  O  O21  1  0.53300300  0.33725500  0.92421900  1
  O  O22  1  0.46699700  0.83725500  0.57578100  1
  O  O23  1  0.03300300  0.16274500  0.07578100  1
  O  O24  1  0.55054500  0.41950400  0.08372400  1
  O  O25  1  0.94945500  0.58049600  0.58372400  1
  O  O26  1  0.05054500  0.08049600  0.91627600  1
  O  O27  1  0.44945500  0.91950400  0.41627600  1
  O  O28  1  0.64147300  0.69969100  0.46347900  1
  O  O29  1  0.85852700  0.30030900  0.96347900  1
  O  O30  1  0.14147300  0.80030900  0.53652100  1
  O  O31  1  0.35852700  0.19969100  0.03652100  1
  O  O32  1  0.54586400  0.70036100  0.97896000  1
  O  O33  1  0.95413600  0.29963900  0.47896000  1
  O  O34  1  0.04586400  0.79963900  0.02104000  1
  O  O35  1  0.45413600  0.20036100  0.52104000  1
  O  O36  1  0.85380000  0.01809700  0.45847400  1
  O  O37  1  0.64620000  0.98190300  0.95847400  1
  O  O38  1  0.35380000  0.48190300  0.54152600  1
  O  O39  1  0.14620000  0.51809700  0.04152600  1
  O  O40  1  0.74227700  0.75533800  0.89815300  1
  O  O41  1  0.75772300  0.24466200  0.39815300  1
  O  O42  1  0.24227700  0.74466200  0.10184700  1
  O  O43  1  0.25772300  0.25533800  0.60184700  1
loop_
_geom_bond_atom_site_label_1
_geom_bond_atom_site_label_2
_geom_bond_distance
_geom_bond_site_symmetry_2
N0 O32 1.241554 1_555
N0 O40 1.261545 1_555
N0 O37 1.273156 1_555
N1 O33 1.241554 1_555
N1 O41 1.261545 1_555
N1 O36 1.273156 1_555
N2 O34 1.241554 1_555
N2 O42 1.261545 1_555
N2 O39 1.273156 1_555
N3 O35 1.241554 1_555
N3 O43 1.261545 1_555
N3 O38 1.273156 1_555
O0 Se3 1.702458 1_555
O0 Y3 2.358446 1_555
O1 Se2 1.702460 1_555
O1 Y2 2.358450 1_555
O2 Se1 1.702458 1_555
O2 Y1 2.358446 1_555
O3 Se0 1.702460 1_555
O3 Y0 2.358450 1_555
O4 Se3 1.695452 1_565
O4 Y0 2.334557 1_655
O5 Se2 1.695452 1_545
O5 Y1 2.334557 1_555
O6 Se1 1.695452 1_555
O6 Y2 2.334557 1_555
O7 Se0 1.695452 1_555
O7 Y3 2.334557 1_455
O8 Se7 1.846945 1_555
O8 Se3 1.854560 1_555
O9 Se6 1.846945 1_555
O9 Se2 1.854560 1_555
O10 Se5 1.846945 1_555
O10 Se1 1.854560 1_555
O11 Se4 1.846945 1_555
O11 Se0 1.854560 1_555
O12 Se7 1.702894 1_555
O12 Y3 2.329094 1_555
O13 Se6 1.702894 1_555
O13 Y2 2.329094 1_555
O14 Se5 1.702894 1_555
O14 Y1 2.329094 1_555
O15 Se4 1.702894 1_555
O15 Y0 2.329094 1_555
O16 Se4 1.689377 1_545
O16 Y3 2.303412 1_555
O17 Se5 1.689377 1_565
O17 Y2 2.303412 1_455
O18 Se6 1.689377 1_555
O18 Y1 2.303412 1_655
O19 Se7 1.689377 1_555
O19 Y0 2.303412 1_555
O20 Y2 2.340886 1_555
O21 Y3 2.340886 1_555
O22 Y0 2.340886 1_555
O23 Y1 2.340886 1_555
O24 Y1 2.309907 1_555
O25 Y0 2.309907 1_655
O26 Y3 2.309907 1_455
O27 Y2 2.309907 1_555
O28 Y2 2.514804 1_555
O29 Y3 2.514804 1_555
O30 Y0 2.514804 1_555
O31 Y1 2.514804 1_555
O36 Y2 2.670864 1_545
O37 Y3 2.670864 1_565
O38 Y0 2.670864 1_555
O39 Y1 2.670864 1_555
