# generated using pymatgen
data_NdPOs2C
_symmetry_space_group_name_H-M   'P 1'
_cell_length_a   5.87563440
_cell_length_b   5.87563440
_cell_length_c   7.12123000
_cell_angle_alpha   90.00000000
_cell_angle_beta   90.00000000
_cell_angle_gamma   140.77726350
_symmetry_Int_Tables_number   1
_chemical_formula_structural   NdPOs2C
_chemical_formula_sum   'Nd2 P2 Os4 C2'
_cell_volume   155.45796579
_cell_formula_units_Z   2
loop_
 _symmetry_equiv_pos_site_id
 _symmetry_equiv_pos_as_xyz
  1  'x, y, z'
loop_
 _atom_site_type_symbol
 _atom_site_label
 _atom_site_symmetry_multiplicity
 _atom_site_fract_x
 _atom_site_fract_y
 _atom_site_fract_z
 _atom_site_occupancy
  Nd  Nd0  1  0.54570100  0.45429900  0.25000000  1
  Nd  Nd1  1  0.45429900  0.54570100  0.75000000  1
  P  P0  1  0.26939300  0.73060700  0.25000000  1
  P  P1  1  0.73060700  0.26939300  0.75000000  1
  Os  Os0  1  0.83258100  0.16741900  0.05331000  1
  Os  Os1  1  0.16741900  0.83258100  0.94669000  1
  Os  Os2  1  0.16741900  0.83258100  0.55331000  1
  Os  Os3  1  0.83258100  0.16741900  0.44669000  1
  C  C0  1  0.00000000  0.00000000  0.00000000  1
  C  C1  1  0.00000000  0.00000000  0.50000000  1
loop_
_geom_bond_atom_site_label_1
_geom_bond_atom_site_label_2
_geom_bond_distance
_geom_bond_site_symmetry_2
Nd0 P0 3.058616 1_555
Nd0 P0 3.165532 1_545
Nd0 P0 3.165532 1_655
Nd1 P1 3.058616 1_555
Nd1 P1 3.165532 1_565
Nd1 P1 3.165532 1_455
Os0 P1 2.437120 1_554
Os0 P0 2.517991 1_545
Os0 P0 2.517991 1_655
Os1 P0 2.437120 1_556
Os1 P1 2.517991 1_455
Os1 P1 2.517991 1_565
Os2 P0 2.437120 1_555
Os2 P1 2.517991 1_455
Os2 P1 2.517991 1_565
Os3 P1 2.437120 1_555
Os3 P0 2.517991 1_655
Os3 P0 2.517991 1_545
C0 Os1 1.891743 1_544
C0 Os0 1.891743 1_455
C0 Nd1 2.704544 1_444
C0 Nd0 2.704544 1_445
C0 Nd1 2.704544 1_554
C0 Nd0 2.704544 1_555
C1 Os3 1.891743 1_455
C1 Os2 1.891743 1_545
C1 Nd1 2.704544 1_555
C1 Nd0 2.704544 1_445
C1 Nd1 2.704544 1_445
C1 Nd0 2.704544 1_555
