# generated using pymatgen
data_Ta2V3Si
_symmetry_space_group_name_H-M   'P 1'
_cell_length_a   4.91604769
_cell_length_b   4.91604769
_cell_length_c   8.36186301
_cell_angle_alpha   90.00000000
_cell_angle_beta   90.00000000
_cell_angle_gamma   120.00001894
_symmetry_Int_Tables_number   1
_chemical_formula_structural   Ta2V3Si
_chemical_formula_sum   'Ta4 V6 Si2'
_cell_volume   175.01117124
_cell_formula_units_Z   2
loop_
 _symmetry_equiv_pos_site_id
 _symmetry_equiv_pos_as_xyz
  1  'x, y, z'
loop_
 _atom_site_type_symbol
 _atom_site_label
 _atom_site_symmetry_multiplicity
 _atom_site_fract_x
 _atom_site_fract_y
 _atom_site_fract_z
 _atom_site_occupancy
  Ta  Ta0  1  0.33333300  0.66666700  0.93835556  1
  Ta  Ta1  1  0.66666700  0.33333300  0.06164444  1
  Ta  Ta2  1  0.66666700  0.33333300  0.43835556  1
  Ta  Ta3  1  0.33333300  0.66666700  0.56164444  1
  V  V0  1  0.17060173  0.82939827  0.25000000  1
  V  V1  1  0.17060173  0.34120247  0.25000000  1
  V  V2  1  0.65879753  0.82939827  0.25000000  1
  V  V3  1  0.82939827  0.17060173  0.75000000  1
  V  V4  1  0.82939827  0.65879753  0.75000000  1
  V  V5  1  0.34120247  0.17060173  0.75000000  1
  Si  Si0  1  -0.00000000  0.00000000  0.50000000  1
  Si  Si1  1  -0.00000000  0.00000000  -0.00000000  1
loop_
_geom_bond_atom_site_label_1
_geom_bond_atom_site_label_2
_geom_bond_distance
_geom_bond_site_symmetry_2
Ta0 V3 2.919527 1_565
Ta0 V3 2.919527 1_455
Ta0 V4 2.919527 1_455
Ta0 V5 2.919527 1_565
Ta0 V4 2.919527 1_555
Ta0 V5 2.919527 1_555
Ta0 V0 2.951413 1_556
Ta0 V2 2.951416 1_556
Ta0 V1 2.951416 1_556
Ta0 Ta1 3.019707 1_456
Ta0 Ta1 3.019707 1_566
Ta0 Ta1 3.019715 1_556
Ta0 Ta3 3.150007 1_555
Ta1 V0 2.919527 1_545
Ta1 V0 2.919527 1_655
Ta1 V2 2.919527 1_545
Ta1 V1 2.919527 1_655
Ta1 V1 2.919527 1_555
Ta1 V2 2.919527 1_555
Ta1 V3 2.951413 1_554
Ta1 V4 2.951416 1_554
Ta1 V5 2.951416 1_554
Ta1 Ta2 3.150007 1_555
Ta2 V0 2.919527 1_545
Ta2 V0 2.919527 1_655
Ta2 V2 2.919527 1_545
Ta2 V1 2.919527 1_655
Ta2 V1 2.919527 1_555
Ta2 V2 2.919527 1_555
Ta2 V3 2.951413 1_555
Ta2 V4 2.951416 1_555
Ta2 V5 2.951416 1_555
Ta2 Ta3 3.019707 1_545
Ta2 Ta3 3.019707 1_655
Ta2 Ta3 3.019715 1_555
Ta3 V3 2.919527 1_565
Ta3 V3 2.919527 1_455
Ta3 V4 2.919527 1_455
Ta3 V5 2.919527 1_565
Ta3 V4 2.919527 1_555
Ta3 V5 2.919527 1_555
Ta3 V0 2.951413 1_555
Ta3 V2 2.951416 1_555
Ta3 V1 2.951416 1_555
V0 V1 2.399994 1_555
V0 V2 2.399994 1_555
V0 V2 2.516054 1_455
V0 V1 2.516054 1_565
V1 V2 2.399993 1_555
V1 V2 2.516053 1_445
V3 V4 2.399994 1_555
V3 V5 2.399994 1_555
V3 V4 2.516054 1_545
V3 V5 2.516054 1_655
V4 V5 2.399993 1_555
V4 V5 2.516053 1_665
Si0 V4 2.545627 1_445
Si0 V5 2.545627 1_555
Si0 V2 2.545627 1_445
Si0 V1 2.545627 1_555
Si0 V0 2.545630 1_545
Si0 V3 2.545630 1_455
Si0 Ta3 2.884706 1_545
Si0 Ta2 2.884706 1_455
Si0 Ta3 2.884709 1_445
Si0 Ta2 2.884709 1_555
Si0 Ta2 2.884709 1_445
Si0 Ta3 2.884709 1_555
Si1 V2 2.545627 1_445
Si1 V4 2.545627 1_444
Si1 V5 2.545627 1_554
Si1 V1 2.545627 1_555
Si1 V0 2.545630 1_545
Si1 V3 2.545630 1_454
Si1 Ta0 2.884706 1_544
Si1 Ta1 2.884706 1_455
Si1 Ta1 2.884709 1_555
Si1 Ta0 2.884709 1_444
Si1 Ta1 2.884709 1_445
Si1 Ta0 2.884709 1_554
