# generated using pymatgen
data_Li2CuSnO4
_symmetry_space_group_name_H-M   'P 1'
_cell_length_a   5.46100551
_cell_length_b   5.46100551
_cell_length_c   5.46100551
_cell_angle_alpha   135.05498902
_cell_angle_beta   135.05498902
_cell_angle_gamma   65.44477097
_symmetry_Int_Tables_number   1
_chemical_formula_structural   Li2CuSnO4
_chemical_formula_sum   'Li2 Cu1 Sn1 O4'
_cell_volume   80.07573099
_cell_formula_units_Z   1
loop_
 _symmetry_equiv_pos_site_id
 _symmetry_equiv_pos_as_xyz
  1  'x, y, z'
loop_
 _atom_site_type_symbol
 _atom_site_label
 _atom_site_symmetry_multiplicity
 _atom_site_fract_x
 _atom_site_fract_y
 _atom_site_fract_z
 _atom_site_occupancy
  Li  Li0  1  0.25000000  0.75000000  0.50000000  1
  Li  Li1  1  0.50000000  0.50000000  0.00000000  1
  Cu  Cu0  1  0.75000000  0.25000000  0.50000000  1
  Sn  Sn0  1  0.00000000  0.00000000  0.00000000  1
  O  O0  1  0.99866000  0.49866000  0.50000000  1
  O  O1  1  0.77417700  0.77417700  0.00000000  1
  O  O2  1  0.50134000  0.00134000  0.50000000  1
  O  O3  1  0.22582300  0.22582300  0.00000000  1
loop_
_geom_bond_atom_site_label_1
_geom_bond_atom_site_label_2
_geom_bond_distance
_geom_bond_site_symmetry_2
Li0 O3 2.099203 1_566
Li0 O3 2.099203 1_555
Li0 O1 2.099203 1_455
Li0 O1 2.099203 1_556
Li0 O0 2.309484 1_455
Li0 O2 2.309484 1_565
Li1 O2 2.087451 1_554
Li1 O0 2.087451 1_555
Li1 O2 2.087451 1_565
Li1 O0 2.087451 1_454
Li1 O3 2.519326 1_555
Li1 O1 2.519326 1_555
Cu0 O3 2.099203 1_656
Cu0 O3 2.099203 1_555
Cu0 O1 2.099203 1_556
Cu0 O1 2.099203 1_545
Cu0 O2 2.284858 1_555
Cu0 O0 2.284858 1_555
O0 Sn0 2.087451 1_655
O0 Sn0 2.087451 1_666
O1 Sn0 2.075016 1_665
O2 Sn0 2.087451 1_656
O2 Sn0 2.087451 1_555
O3 Sn0 2.075016 1_555
