# generated using pymatgen
data_BaAlV4O7
_symmetry_space_group_name_H-M   'P 1'
_cell_length_a   5.99272244
_cell_length_b   5.99272244
_cell_length_c   10.67229300
_cell_angle_alpha   90.00000000
_cell_angle_beta   90.00000000
_cell_angle_gamma   120.00000488
_symmetry_Int_Tables_number   1
_chemical_formula_structural   BaAlV4O7
_chemical_formula_sum   'Ba2 Al2 V8 O14'
_cell_volume   331.92248800
_cell_formula_units_Z   2
loop_
 _symmetry_equiv_pos_site_id
 _symmetry_equiv_pos_as_xyz
  1  'x, y, z'
loop_
 _atom_site_type_symbol
 _atom_site_label
 _atom_site_symmetry_multiplicity
 _atom_site_fract_x
 _atom_site_fract_y
 _atom_site_fract_z
 _atom_site_occupancy
  Ba  Ba0  1  0.66666700  0.33333300  0.47027000  1
  Ba  Ba1  1  0.33333300  0.66666700  0.97027000  1
  Al  Al0  1  0.66666700  0.33333300  0.86928000  1
  Al  Al1  1  0.33333300  0.66666700  0.36928000  1
  V  V0  1  0.83419000  0.16581000  0.17830300  1
  V  V1  1  0.66838100  0.83419000  0.67830300  1
  V  V2  1  0.16581000  0.33161900  0.67830300  1
  V  V3  1  0.83419000  0.66838100  0.17830300  1
  V  V4  1  0.33161900  0.16581000  0.17830300  1
  V  V5  1  0.16581000  0.83419000  0.67830300  1
  V  V6  1  0.00000000  0.00000000  0.46600800  1
  V  V7  1  0.00000000  0.00000000  0.96600800  1
  O  O0  1  0.81594400  0.18405600  0.99303000  1
  O  O1  1  0.63188800  0.81594400  0.49303000  1
  O  O2  1  0.18405600  0.36811200  0.49303000  1
  O  O3  1  0.81594400  0.63188800  0.99303000  1
  O  O4  1  0.36811200  0.18405600  0.99303000  1
  O  O5  1  0.18405600  0.81594400  0.49303000  1
  O  O6  1  0.00000000  0.00000000  0.78324200  1
  O  O7  1  0.00000000  0.00000000  0.28324200  1
  O  O8  1  0.49314700  0.50685300  0.27706600  1
  O  O9  1  0.98629500  0.49314700  0.77706600  1
  O  O10  1  0.50685300  0.01370500  0.77706600  1
  O  O11  1  0.49314700  0.98629500  0.27706600  1
  O  O12  1  0.50685300  0.49314700  0.77706600  1
  O  O13  1  0.01370500  0.50685300  0.27706600  1
loop_
_geom_bond_atom_site_label_1
_geom_bond_atom_site_label_2
_geom_bond_distance
_geom_bond_site_symmetry_2
Ba0 O11 2.737777 1_545
Ba0 O13 2.737777 1_655
Ba0 O8 2.737784 1_555
Ba0 O1 3.011601 1_545
Ba0 O2 3.011601 1_655
Ba0 O5 3.011604 1_545
Ba0 O5 3.011604 1_655
Ba0 O2 3.011607 1_555
Ba0 O1 3.011607 1_555
Ba1 O9 2.737777 1_455
Ba1 O10 2.737777 1_565
Ba1 O12 2.737784 1_555
Ba1 O4 3.011601 1_565
Ba1 O3 3.011601 1_455
Ba1 O0 3.011604 1_565
Ba1 O0 3.011604 1_455
Ba1 O3 3.011607 1_555
Ba1 O4 3.011607 1_555
Al0 O10 1.928784 1_555
Al0 O9 1.928784 1_555
Al0 O12 1.928785 1_555
Al0 O0 2.035936 1_555
Al0 O3 2.035940 1_555
Al0 O4 2.035940 1_555
Al1 O13 1.928784 1_555
Al1 O11 1.928784 1_555
Al1 O8 1.928785 1_555
Al1 O5 2.035936 1_555
Al1 O1 2.035940 1_555
Al1 O2 2.035940 1_555
O0 V7 1.932090 1_655
O0 V0 1.986337 1_556
O1 V6 1.932090 1_665
O1 V1 1.986337 1_555
O2 V6 1.932090 1_555
O2 V2 1.986337 1_555
O3 V7 1.932090 1_665
O3 V3 1.986337 1_556
O4 V7 1.932090 1_555
O4 V4 1.986337 1_556
O5 V6 1.932090 1_565
O5 V5 1.986337 1_555
O6 V7 1.950532 1_555
O6 V1 2.053360 1_445
O6 V2 2.053360 1_555
O6 V5 2.053365 1_545
O7 V6 1.950532 1_555
O7 V3 2.053360 1_445
O7 V4 2.053360 1_555
O7 V0 2.053365 1_455
O8 V4 2.060739 1_555
O8 V3 2.060739 1_555
O9 V5 2.060739 1_655
O9 V2 2.060739 1_655
O10 V5 2.060739 1_545
O10 V1 2.060739 1_545
O11 V0 2.060739 1_565
O11 V4 2.060739 1_565
O12 V1 2.060739 1_555
O12 V2 2.060739 1_555
O13 V0 2.060739 1_455
O13 V3 2.060739 1_455
