# generated using pymatgen
data_Tb3Mn3Ga2Si
_symmetry_space_group_name_H-M   'P 1'
_cell_length_a   7.01142684
_cell_length_b   7.01142684
_cell_length_c   4.18060000
_cell_angle_alpha   90.00000000
_cell_angle_beta   90.00000000
_cell_angle_gamma   120.00000790
_symmetry_Int_Tables_number   1
_chemical_formula_structural   Tb3Mn3Ga2Si
_chemical_formula_sum   'Tb3 Mn3 Ga2 Si1'
_cell_volume   177.98443596
_cell_formula_units_Z   1
loop_
 _symmetry_equiv_pos_site_id
 _symmetry_equiv_pos_as_xyz
  1  'x, y, z'
loop_
 _atom_site_type_symbol
 _atom_site_label
 _atom_site_symmetry_multiplicity
 _atom_site_fract_x
 _atom_site_fract_y
 _atom_site_fract_z
 _atom_site_occupancy
  Tb  Tb0  1  0.33628600  0.24906500  0.50000000  1
  Tb  Tb1  1  0.91277900  0.66371400  0.50000000  1
  Tb  Tb2  1  0.75093500  0.08722100  0.50000000  1
  Mn  Mn0  1  0.34476300  0.90816800  0.00000000  1
  Mn  Mn1  1  0.56340600  0.65523700  0.00000000  1
  Mn  Mn2  1  0.09183200  0.43659400  0.00000000  1
  Ga  Ga0  1  0.33333300  0.66666700  0.50000000  1
  Ga  Ga1  1  0.00000000  0.00000000  0.00000000  1
  Si  Si0  1  0.66666700  0.33333300  0.00000000  1
loop_
_geom_bond_atom_site_label_1
_geom_bond_atom_site_label_2
_geom_bond_distance
_geom_bond_site_symmetry_2
Mn0 Si0 2.693019 1_565
Mn0 Mn2 2.865954 1_555
Mn0 Mn1 2.865954 1_555
Mn0 Tb0 3.198106 1_564
Mn0 Tb0 3.198106 1_565
Mn0 Tb2 3.237347 1_565
Mn0 Tb2 3.237347 1_564
Mn0 Tb1 3.359986 1_454
Mn0 Tb1 3.359986 1_455
Mn1 Si0 2.693019 1_555
Mn1 Mn2 2.865954 1_555
Mn1 Tb1 3.198101 1_554
Mn1 Tb1 3.198101 1_555
Mn1 Tb0 3.237347 1_555
Mn1 Tb0 3.237347 1_554
Mn1 Tb2 3.359987 1_565
Mn1 Tb2 3.359987 1_564
Mn2 Si0 2.693019 1_455
Mn2 Tb2 3.198103 1_454
Mn2 Tb2 3.198103 1_455
Mn2 Tb1 3.237352 1_455
Mn2 Tb1 3.237352 1_454
Mn2 Tb0 3.359982 1_555
Mn2 Tb0 3.359982 1_554
Ga0 Mn0 2.665939 1_556
Ga0 Mn0 2.665939 1_555
Ga0 Mn2 2.665943 1_555
Ga0 Mn2 2.665943 1_556
Ga0 Mn1 2.665947 1_555
Ga0 Mn1 2.665947 1_556
Ga0 Tb1 2.938386 1_455
Ga0 Tb2 2.938389 1_565
Ga0 Tb0 2.938393 1_555
Ga1 Mn2 2.795389 1_555
Ga1 Mn1 2.795391 1_445
Ga1 Mn0 2.795396 1_545
Ga1 Tb0 2.976717 1_555
Ga1 Tb0 2.976717 1_554
Ga1 Tb1 2.976717 1_445
Ga1 Tb1 2.976717 1_444
Ga1 Tb2 2.976717 1_454
Ga1 Tb2 2.976717 1_455
Si0 Tb2 2.952233 1_555
Si0 Tb2 2.952233 1_554
Si0 Tb1 2.952236 1_554
Si0 Tb1 2.952236 1_555
Si0 Tb0 2.952237 1_555
Si0 Tb0 2.952237 1_554
