# generated using pymatgen
data_PuRh2
_symmetry_space_group_name_H-M   'P 1'
_cell_length_a   5.23797551
_cell_length_b   5.23797551
_cell_length_c   5.23797551
_cell_angle_alpha   60.00000000
_cell_angle_beta   60.00000000
_cell_angle_gamma   60.00000000
_symmetry_Int_Tables_number   1
_chemical_formula_structural   PuRh2
_chemical_formula_sum   'Pu2 Rh4'
_cell_volume   101.61911115
_cell_formula_units_Z   2
loop_
 _symmetry_equiv_pos_site_id
 _symmetry_equiv_pos_as_xyz
  1  'x, y, z'
loop_
 _atom_site_type_symbol
 _atom_site_label
 _atom_site_symmetry_multiplicity
 _atom_site_fract_x
 _atom_site_fract_y
 _atom_site_fract_z
 _atom_site_occupancy
  Pu  Pu0  1  0.50000000  0.50000000  0.50000000  1
  Pu  Pu1  1  0.25000000  0.25000000  0.25000000  1
  Rh  Rh0  1  0.87500000  0.87500000  0.87500000  1
  Rh  Rh1  1  0.87500000  0.87500000  0.37500000  1
  Rh  Rh2  1  0.87500000  0.37500000  0.87500000  1
  Rh  Rh3  1  0.37500000  0.87500000  0.87500000  1
loop_
_geom_bond_atom_site_label_1
_geom_bond_atom_site_label_2
_geom_bond_distance
_geom_bond_site_symmetry_2
Pu0 Rh2 3.071035 1_555
Pu0 Rh0 3.071035 1_554
Pu0 Rh1 3.071035 1_555
Pu0 Rh3 3.071035 1_545
Pu0 Rh2 3.071035 1_455
Pu0 Rh3 3.071035 1_554
Pu0 Rh2 3.071035 1_554
Pu0 Rh0 3.071035 1_545
Pu0 Rh1 3.071035 1_545
Pu0 Rh0 3.071035 1_455
Pu0 Rh1 3.071035 1_455
Pu0 Rh3 3.071035 1_555
Pu0 Pu1 3.207592 1_555
Pu0 Pu1 3.207592 1_556
Pu0 Pu1 3.207592 1_565
Pu0 Pu1 3.207592 1_655
Pu1 Rh2 3.071035 1_454
Pu1 Rh0 3.071035 1_445
Pu1 Rh3 3.071035 1_545
Pu1 Rh1 3.071035 1_445
Pu1 Rh2 3.071035 1_554
Pu1 Rh3 3.071035 1_554
Pu1 Rh1 3.071035 1_545
Pu1 Rh1 3.071035 1_455
Pu1 Rh3 3.071035 1_544
Pu1 Rh0 3.071035 1_544
Pu1 Rh0 3.071035 1_454
Pu1 Rh2 3.071035 1_455
Rh0 Rh1 2.618988 1_555
Rh0 Rh1 2.618988 1_556
Rh0 Rh3 2.618988 1_655
Rh0 Rh3 2.618988 1_555
Rh0 Rh2 2.618988 1_565
Rh0 Rh2 2.618988 1_555
Rh1 Rh3 2.618988 1_555
Rh1 Rh3 2.618988 1_654
Rh1 Rh2 2.618988 1_555
Rh1 Rh2 2.618988 1_564
Rh2 Rh3 2.618988 1_555
Rh2 Rh3 2.618988 1_645
