# generated using pymatgen
data_Mg30VCdO32
_symmetry_space_group_name_H-M   'P 1'
_cell_length_a   8.57130400
_cell_length_b   8.57130400
_cell_length_c   8.56959300
_cell_angle_alpha   90.00000000
_cell_angle_beta   90.00000000
_cell_angle_gamma   90.00000000
_symmetry_Int_Tables_number   1
_chemical_formula_structural   Mg30VCdO32
_chemical_formula_sum   'Mg30 V1 Cd1 O32'
_cell_volume   629.58445070
_cell_formula_units_Z   1
loop_
 _symmetry_equiv_pos_site_id
 _symmetry_equiv_pos_as_xyz
  1  'x, y, z'
loop_
 _atom_site_type_symbol
 _atom_site_label
 _atom_site_symmetry_multiplicity
 _atom_site_fract_x
 _atom_site_fract_y
 _atom_site_fract_z
 _atom_site_occupancy
  Mg  Mg0  1  0.50000000  0.00000000  0.00000000  1
  Mg  Mg1  1  0.00000000  0.50000000  0.00000000  1
  Mg  Mg2  1  0.00000000  0.00000000  0.50000000  1
  Mg  Mg3  1  0.50000000  0.00000000  0.50000000  1
  Mg  Mg4  1  0.00000000  0.50000000  0.50000000  1
  Mg  Mg5  1  0.50000000  0.50000000  0.50000000  1
  Mg  Mg6  1  0.24815900  0.24815900  0.00000000  1
  Mg  Mg7  1  0.75184100  0.24815900  0.00000000  1
  Mg  Mg8  1  0.24815900  0.75184100  0.00000000  1
  Mg  Mg9  1  0.75184100  0.75184100  0.00000000  1
  Mg  Mg10  1  0.24983400  0.24983400  0.50000000  1
  Mg  Mg11  1  0.75016600  0.24983400  0.50000000  1
  Mg  Mg12  1  0.24983400  0.75016600  0.50000000  1
  Mg  Mg13  1  0.75016600  0.75016600  0.50000000  1
  Mg  Mg14  1  0.25036600  0.00000000  0.25049700  1
  Mg  Mg15  1  0.74963400  0.00000000  0.25049700  1
  Mg  Mg16  1  0.24762900  0.50000000  0.25221100  1
  Mg  Mg17  1  0.75237100  0.50000000  0.25221100  1
  Mg  Mg18  1  0.25036600  0.00000000  0.74950300  1
  Mg  Mg19  1  0.74963400  0.00000000  0.74950300  1
  Mg  Mg20  1  0.24762900  0.50000000  0.74778900  1
  Mg  Mg21  1  0.75237100  0.50000000  0.74778900  1
  Mg  Mg22  1  0.00000000  0.25036600  0.25049700  1
  Mg  Mg23  1  0.50000000  0.24762900  0.25221100  1
  Mg  Mg24  1  0.00000000  0.74963400  0.25049700  1
  Mg  Mg25  1  0.50000000  0.75237100  0.25221100  1
  Mg  Mg26  1  0.00000000  0.25036600  0.74950300  1
  Mg  Mg27  1  0.50000000  0.24762900  0.74778900  1
  Mg  Mg28  1  0.00000000  0.74963400  0.74950300  1
  Mg  Mg29  1  0.50000000  0.75237100  0.74778900  1
  V  V0  1  0.00000000  0.00000000  0.00000000  1
  Cd  Cd0  1  0.50000000  0.50000000  0.00000000  1
  O  O0  1  0.00000000  0.00000000  0.25511900  1
  O  O1  1  0.50000000  0.00000000  0.25219100  1
  O  O2  1  0.00000000  0.50000000  0.25219100  1
  O  O3  1  0.50000000  0.50000000  0.26389700  1
  O  O4  1  0.00000000  0.00000000  0.74488100  1
  O  O5  1  0.50000000  0.00000000  0.74780900  1
  O  O6  1  0.00000000  0.50000000  0.74780900  1
  O  O7  1  0.50000000  0.50000000  0.73610300  1
  O  O8  1  0.25020100  0.25020100  0.24935800  1
  O  O9  1  0.74979900  0.25020100  0.24935800  1
  O  O10  1  0.25020100  0.74979900  0.24935800  1
  O  O11  1  0.74979900  0.74979900  0.24935800  1
  O  O12  1  0.25020100  0.25020100  0.75064200  1
  O  O13  1  0.74979900  0.25020100  0.75064200  1
  O  O14  1  0.25020100  0.74979900  0.75064200  1
  O  O15  1  0.74979900  0.74979900  0.75064200  1
  O  O16  1  0.25340800  0.00000000  0.00000000  1
  O  O17  1  0.74659200  0.00000000  0.00000000  1
  O  O18  1  0.23651300  0.50000000  0.00000000  1
  O  O19  1  0.76348700  0.50000000  0.00000000  1
  O  O20  1  0.24984300  0.00000000  0.50000000  1
  O  O21  1  0.75015700  0.00000000  0.50000000  1
  O  O22  1  0.24820100  0.50000000  0.50000000  1
  O  O23  1  0.75179900  0.50000000  0.50000000  1
  O  O24  1  0.00000000  0.25340800  0.00000000  1
  O  O25  1  0.50000000  0.23651300  0.00000000  1
  O  O26  1  0.00000000  0.74659200  0.00000000  1
  O  O27  1  0.50000000  0.76348700  0.00000000  1
  O  O28  1  0.00000000  0.24984300  0.50000000  1
  O  O29  1  0.50000000  0.24820100  0.50000000  1
  O  O30  1  0.00000000  0.75015700  0.50000000  1
  O  O31  1  0.50000000  0.75179900  0.50000000  1
loop_
_geom_bond_atom_site_label_1
_geom_bond_atom_site_label_2
_geom_bond_distance
_geom_bond_site_symmetry_2
Mg0 O25 2.027225 1_555
Mg0 O27 2.027225 1_545
Mg0 O16 2.113615 1_555
Mg0 O17 2.113615 1_555
Mg0 O1 2.161174 1_555
Mg0 O5 2.161174 1_554
Mg1 O19 2.027225 1_455
Mg1 O18 2.027225 1_555
Mg1 O24 2.113615 1_555
Mg1 O26 2.113615 1_555
Mg1 O2 2.161174 1_555
Mg1 O6 2.161174 1_554
Mg2 O0 2.098531 1_555
Mg2 O4 2.098531 1_555
Mg2 O21 2.141480 1_455
Mg2 O20 2.141480 1_555
Mg2 O28 2.141480 1_555
Mg2 O30 2.141480 1_545
Mg3 O5 2.123622 1_555
Mg3 O1 2.123622 1_555
Mg3 O29 2.127406 1_555
Mg3 O31 2.127406 1_545
Mg3 O21 2.144172 1_555
Mg3 O20 2.144172 1_555
Mg4 O6 2.123622 1_555
Mg4 O2 2.123622 1_555
Mg4 O23 2.127406 1_455
Mg4 O22 2.127406 1_555
Mg4 O30 2.144172 1_555
Mg4 O28 2.144172 1_555
Mg5 O7 2.023307 1_555
Mg5 O3 2.023307 1_555
Mg5 O23 2.158246 1_555
Mg5 O22 2.158246 1_555
Mg5 O29 2.158246 1_555
Mg5 O31 2.158246 1_555
Mg6 O16 2.127522 1_555
Mg6 O24 2.127522 1_555
Mg6 O12 2.137040 1_554
Mg6 O8 2.137040 1_555
Mg6 O25 2.160913 1_555
Mg6 O18 2.160913 1_555
Mg7 O17 2.127522 1_555
Mg7 O24 2.127522 1_655
Mg7 O13 2.137040 1_554
Mg7 O9 2.137040 1_555
Mg7 O19 2.160913 1_555
Mg7 O25 2.160913 1_555
Mg8 O16 2.127522 1_565
Mg8 O26 2.127522 1_555
Mg8 O14 2.137040 1_554
Mg8 O10 2.137040 1_555
Mg8 O27 2.160913 1_555
Mg8 O18 2.160913 1_555
Mg9 O17 2.127522 1_565
Mg9 O26 2.127522 1_655
Mg9 O15 2.137040 1_554
Mg9 O11 2.137040 1_555
Mg9 O19 2.160913 1_555
Mg9 O27 2.160913 1_555
Mg10 O20 2.141403 1_555
Mg10 O28 2.141403 1_555
Mg10 O22 2.144295 1_555
Mg10 O29 2.144295 1_555
Mg10 O8 2.147905 1_555
Mg10 O12 2.147905 1_555
Mg11 O28 2.141403 1_655
Mg11 O21 2.141403 1_555
Mg11 O23 2.144295 1_555
Mg11 O29 2.144295 1_555
Mg11 O9 2.147905 1_555
Mg11 O13 2.147905 1_555
Mg12 O30 2.141403 1_555
Mg12 O20 2.141403 1_565
Mg12 O31 2.144295 1_555
Mg12 O22 2.144295 1_555
Mg12 O14 2.147905 1_555
Mg12 O10 2.147905 1_555
Mg13 O21 2.141403 1_565
Mg13 O30 2.141403 1_655
Mg13 O31 2.144295 1_555
Mg13 O23 2.144295 1_555
Mg13 O11 2.147905 1_555
Mg13 O15 2.147905 1_555
Mg14 O20 2.138144 1_555
Mg14 O1 2.139738 1_555
Mg14 O8 2.144572 1_555
Mg14 O10 2.144572 1_545
Mg14 O0 2.146329 1_555
Mg14 O16 2.146816 1_555
Mg15 O21 2.138144 1_555
Mg15 O1 2.139738 1_555
Mg15 O9 2.144572 1_555
Mg15 O11 2.144572 1_545
Mg15 O0 2.146329 1_655
Mg15 O17 2.146816 1_555
Mg16 O2 2.122503 1_555
Mg16 O22 2.123457 1_555
Mg16 O10 2.141356 1_555
Mg16 O8 2.141356 1_555
Mg16 O18 2.163445 1_555
Mg16 O3 2.165465 1_555
Mg17 O2 2.122503 1_655
Mg17 O23 2.123457 1_555
Mg17 O11 2.141356 1_555
Mg17 O9 2.141356 1_555
Mg17 O19 2.163445 1_555
Mg17 O3 2.165465 1_555
Mg18 O20 2.138144 1_555
Mg18 O5 2.139738 1_555
Mg18 O12 2.144572 1_555
Mg18 O14 2.144572 1_545
Mg18 O4 2.146329 1_555
Mg18 O16 2.146816 1_556
Mg19 O21 2.138144 1_555
Mg19 O5 2.139738 1_555
Mg19 O15 2.144572 1_545
Mg19 O13 2.144572 1_555
Mg19 O4 2.146329 1_655
Mg19 O17 2.146816 1_556
Mg20 O6 2.122503 1_555
Mg20 O22 2.123457 1_555
Mg20 O12 2.141356 1_555
Mg20 O14 2.141356 1_555
Mg20 O18 2.163445 1_556
Mg20 O7 2.165465 1_555
Mg21 O6 2.122503 1_655
Mg21 O23 2.123457 1_555
Mg21 O15 2.141356 1_555
Mg21 O13 2.141356 1_555
Mg21 O19 2.163445 1_556
Mg21 O7 2.165465 1_555
Mg22 O28 2.138144 1_555
Mg22 O2 2.139738 1_555
Mg22 O8 2.144572 1_555
Mg22 O9 2.144572 1_455
Mg22 O0 2.146329 1_555
Mg22 O24 2.146816 1_555
Mg23 O1 2.122503 1_555
Mg23 O29 2.123457 1_555
Mg23 O8 2.141356 1_555
Mg23 O9 2.141356 1_555
Mg23 O25 2.163445 1_555
Mg23 O3 2.165465 1_555
Mg24 O30 2.138144 1_555
Mg24 O2 2.139738 1_555
Mg24 O11 2.144572 1_455
Mg24 O10 2.144572 1_555
Mg24 O0 2.146329 1_565
Mg24 O26 2.146816 1_555
Mg25 O1 2.122503 1_565
Mg25 O31 2.123457 1_555
Mg25 O10 2.141356 1_555
Mg25 O11 2.141356 1_555
Mg25 O27 2.163445 1_555
Mg25 O3 2.165465 1_555
Mg26 O28 2.138144 1_555
Mg26 O6 2.139738 1_555
Mg26 O12 2.144572 1_555
Mg26 O13 2.144572 1_455
Mg26 O4 2.146329 1_555
Mg26 O24 2.146816 1_556
Mg27 O5 2.122503 1_555
Mg27 O29 2.123457 1_555
Mg27 O13 2.141356 1_555
Mg27 O12 2.141356 1_555
Mg27 O25 2.163445 1_556
Mg27 O7 2.165465 1_555
Mg28 O30 2.138144 1_555
Mg28 O6 2.139738 1_555
Mg28 O14 2.144572 1_555
Mg28 O15 2.144572 1_455
Mg28 O4 2.146329 1_565
Mg28 O26 2.146816 1_556
Mg29 O5 2.122503 1_565
Mg29 O31 2.123457 1_555
Mg29 O15 2.141356 1_555
Mg29 O14 2.141356 1_555
Mg29 O27 2.163445 1_556
Mg29 O7 2.165465 1_555
Cd0 O19 2.258427 1_555
Cd0 O27 2.258427 1_555
Cd0 O25 2.258427 1_555
Cd0 O18 2.258427 1_555
Cd0 O3 2.261490 1_555
Cd0 O7 2.261490 1_554
O0 V0 2.186266 1_555
O4 V0 2.186266 1_556
O16 V0 2.172037 1_555
O17 V0 2.172037 1_655
O24 V0 2.172037 1_555
O26 V0 2.172037 1_565
