# generated using pymatgen
data_Li2SeO4
_symmetry_space_group_name_H-M   'P 1'
_cell_length_a   8.58722806
_cell_length_b   8.58722806
_cell_length_c   8.58722728
_cell_angle_alpha   100.85301685
_cell_angle_beta   100.85301685
_cell_angle_gamma   100.85302324
_symmetry_Int_Tables_number   1
_chemical_formula_structural   Li2SeO4
_chemical_formula_sum   'Li12 Se6 O24'
_cell_volume   594.11660923
_cell_formula_units_Z   6
loop_
 _symmetry_equiv_pos_site_id
 _symmetry_equiv_pos_as_xyz
  1  'x, y, z'
loop_
 _atom_site_type_symbol
 _atom_site_label
 _atom_site_symmetry_multiplicity
 _atom_site_fract_x
 _atom_site_fract_y
 _atom_site_fract_z
 _atom_site_occupancy
  Li  Li0  1  0.54219900  0.80942400  0.42420000  1
  Li  Li1  1  0.45780100  0.19057600  0.57580000  1
  Li  Li2  1  0.10682500  0.68208000  0.87801000  1
  Li  Li3  1  0.42420000  0.54219900  0.80942400  1
  Li  Li4  1  0.80942400  0.42420000  0.54219900  1
  Li  Li5  1  0.57580000  0.45780100  0.19057600  1
  Li  Li6  1  0.68208000  0.87801000  0.10682500  1
  Li  Li7  1  0.87801000  0.10682500  0.68208000  1
  Li  Li8  1  0.19057600  0.57580000  0.45780100  1
  Li  Li9  1  0.89317500  0.31792000  0.12199000  1
  Li  Li10  1  0.31792000  0.12199000  0.89317500  1
  Li  Li11  1  0.12199000  0.89317500  0.31792000  1
  Se  Se0  1  0.13631700  0.24790300  0.58029000  1
  Se  Se1  1  0.86368300  0.75209700  0.41971000  1
  Se  Se2  1  0.75209700  0.41971000  0.86368300  1
  Se  Se3  1  0.41971000  0.86368300  0.75209700  1
  Se  Se4  1  0.24790300  0.58029000  0.13631700  1
  Se  Se5  1  0.58029000  0.13631700  0.24790300  1
  O  O0  1  0.39085300  0.75375000  0.56064400  1
  O  O1  1  0.56064400  0.39085300  0.75375000  1
  O  O2  1  0.12878400  0.45060900  0.21377000  1
  O  O3  1  0.17550900  0.74850500  0.14275100  1
  O  O4  1  0.60914700  0.24625000  0.43935600  1
  O  O5  1  0.93996400  0.24559600  0.51519900  1
  O  O6  1  0.75375000  0.56064400  0.39085300  1
  O  O7  1  0.45060900  0.21377000  0.12878400  1
  O  O8  1  0.25149500  0.85724900  0.82449100  1
  O  O9  1  0.24559600  0.51519900  0.93996400  1
  O  O10  1  0.54939100  0.78623000  0.87121600  1
  O  O11  1  0.85724900  0.82449100  0.25149500  1
  O  O12  1  0.43935600  0.60914700  0.24625000  1
  O  O13  1  0.24625000  0.43935600  0.60914700  1
  O  O14  1  0.48480100  0.06003600  0.75440400  1
  O  O15  1  0.21377000  0.12878400  0.45060900  1
  O  O16  1  0.78623000  0.87121600  0.54939100  1
  O  O17  1  0.51519900  0.93996400  0.24559600  1
  O  O18  1  0.06003600  0.75440400  0.48480100  1
  O  O19  1  0.75440400  0.48480100  0.06003600  1
  O  O20  1  0.82449100  0.25149500  0.85724900  1
  O  O21  1  0.87121600  0.54939100  0.78623000  1
  O  O22  1  0.14275100  0.17550900  0.74850500  1
  O  O23  1  0.74850500  0.14275100  0.17550900  1
loop_
_geom_bond_atom_site_label_1
_geom_bond_atom_site_label_2
_geom_bond_distance
_geom_bond_site_symmetry_2
Li0 O0 1.959812 1_555
Li0 O12 2.000741 1_555
Li0 O17 2.067371 1_555
Li0 O16 2.084872 1_555
Li1 O4 1.959812 1_555
Li1 O1 2.000741 1_555
Li1 O14 2.067371 1_555
Li1 O15 2.084872 1_555
Li2 O8 1.946495 1_555
Li2 O21 2.050879 1_455
Li2 O9 2.109065 1_555
Li2 O3 2.172918 1_556
Li3 O1 1.959812 1_555
Li3 O13 2.000741 1_555
Li3 O9 2.067371 1_555
Li3 O10 2.084872 1_555
Li4 O6 1.959812 1_555
Li4 O4 2.000741 1_555
Li4 O5 2.067371 1_555
Li4 O21 2.084872 1_555
Li5 O12 1.959812 1_555
Li5 O6 2.000741 1_555
Li5 O19 2.067371 1_555
Li5 O7 2.084872 1_555
Li6 O11 1.946495 1_555
Li6 O10 2.050879 1_554
Li6 O17 2.109064 1_555
Li6 O23 2.172919 1_565
Li7 O20 1.946495 1_555
Li7 O16 2.050879 1_545
Li7 O5 2.109064 1_555
Li7 O22 2.172919 1_655
Li8 O13 1.959812 1_555
Li8 O0 2.000741 1_555
Li8 O18 2.067371 1_555
Li8 O2 2.084872 1_555
Li9 O23 1.946495 1_555
Li9 O2 2.050879 1_655
Li9 O19 2.109065 1_555
Li9 O20 2.172918 1_554
Li10 O22 1.946495 1_555
Li10 O7 2.050879 1_556
Li10 O14 2.109064 1_555
Li10 O8 2.172919 1_545
Li11 O3 1.946495 1_555
Li11 O15 2.050879 1_565
Li11 O18 2.109064 1_555
Li11 O11 2.172919 1_455
O0 Se3 1.682115 1_555
O1 Se2 1.682115 1_555
O2 Se4 1.683733 1_555
O3 Se4 1.672467 1_555
O4 Se5 1.682115 1_555
O5 Se0 1.668588 1_655
O6 Se1 1.682115 1_555
O7 Se5 1.683733 1_555
O8 Se3 1.672467 1_555
O9 Se4 1.668587 1_556
O10 Se3 1.683733 1_555
O11 Se1 1.672467 1_555
O12 Se4 1.682115 1_555
O13 Se0 1.682115 1_555
O14 Se3 1.668587 1_545
O15 Se0 1.683733 1_555
O16 Se1 1.683733 1_555
O17 Se5 1.668587 1_565
O18 Se1 1.668588 1_455
O19 Se2 1.668587 1_554
O20 Se2 1.672467 1_555
O21 Se2 1.683733 1_555
O22 Se0 1.672467 1_555
O23 Se5 1.672467 1_555
