# generated using pymatgen
data_Ba2Na2SrAl4F20
_symmetry_space_group_name_H-M   'P 1'
_cell_length_a   20.40078000
_cell_length_b   5.37969300
_cell_length_c   8.93534902
_cell_angle_alpha   53.42732219
_cell_angle_beta   90.00000000
_cell_angle_gamma   90.00000000
_symmetry_Int_Tables_number   1
_chemical_formula_structural   Ba2Na2SrAl4F20
_chemical_formula_sum   'Ba4 Na4 Sr2 Al8 F40'
_cell_volume   787.56486330
_cell_formula_units_Z   2
loop_
 _symmetry_equiv_pos_site_id
 _symmetry_equiv_pos_as_xyz
  1  'x, y, z'
loop_
 _atom_site_type_symbol
 _atom_site_label
 _atom_site_symmetry_multiplicity
 _atom_site_fract_x
 _atom_site_fract_y
 _atom_site_fract_z
 _atom_site_occupancy
  Ba  Ba0  1  0.72238200  0.96898500  0.51426800  1
  Ba  Ba1  1  0.77761800  0.96898500  0.01426800  1
  Ba  Ba2  1  0.27761800  0.03101500  0.48573200  1
  Ba  Ba3  1  0.22238200  0.03101500  0.98573200  1
  Na  Na0  1  0.90660400  0.74286000  0.75283600  1
  Na  Na1  1  0.59339600  0.74286000  0.25283600  1
  Na  Na2  1  0.09339600  0.25714000  0.24716400  1
  Na  Na3  1  0.40660400  0.25714000  0.74716400  1
  Sr  Sr0  1  0.50000000  0.00000000  0.50000000  1
  Sr  Sr1  1  0.00000000  0.00000000  0.00000000  1
  Al  Al0  1  0.63589600  0.46421500  0.04435100  1
  Al  Al1  1  0.86410400  0.46421500  0.54435100  1
  Al  Al2  1  0.36410400  0.53578500  0.95564900  1
  Al  Al3  1  0.13589600  0.53578500  0.45564900  1
  Al  Al4  1  0.90058600  0.28045700  0.22585100  1
  Al  Al5  1  0.59941400  0.28045700  0.72585100  1
  Al  Al6  1  0.09941400  0.71954300  0.77414900  1
  Al  Al7  1  0.40058600  0.71954300  0.27414900  1
  F  F0  1  0.56665300  0.30616300  0.20188100  1
  F  F1  1  0.93334700  0.30616300  0.70188100  1
  F  F2  1  0.43334700  0.69383700  0.79811900  1
  F  F3  1  0.06665300  0.69383700  0.29811900  1
  F  F4  1  0.81241200  0.28637100  0.23628200  1
  F  F5  1  0.68758800  0.28637100  0.73628200  1
  F  F6  1  0.18758800  0.71362900  0.76371800  1
  F  F7  1  0.31241200  0.71362900  0.26371800  1
  F  F8  1  0.67801100  0.53778400  0.19621000  1
  F  F9  1  0.82198900  0.53778400  0.69621000  1
  F  F10  1  0.32198900  0.46221600  0.80379000  1
  F  F11  1  0.17801100  0.46221600  0.30379000  1
  F  F12  1  0.67597200  0.08563800  0.17330900  1
  F  F13  1  0.82402800  0.08563800  0.67330900  1
  F  F14  1  0.32402800  0.91436200  0.82669100  1
  F  F15  1  0.17597200  0.91436200  0.32669100  1
  F  F16  1  0.48793100  0.70887900  0.29478400  1
  F  F17  1  0.01206900  0.70887900  0.79478400  1
  F  F18  1  0.51206900  0.29112100  0.70521600  1
  F  F19  1  0.98793100  0.29112100  0.20521600  1
  F  F20  1  0.60091600  0.69789300  0.53497900  1
  F  F21  1  0.89908400  0.69789300  0.03497900  1
  F  F22  1  0.39908400  0.30210700  0.46502100  1
  F  F23  1  0.10091600  0.30210700  0.96502100  1
  F  F24  1  0.60454900  0.19545100  0.55606200  1
  F  F25  1  0.89545100  0.19545100  0.05606200  1
  F  F26  1  0.39545100  0.80454900  0.44393800  1
  F  F27  1  0.10454900  0.80454900  0.94393800  1
  F  F28  1  0.70507900  0.63700900  0.88643700  1
  F  F29  1  0.79492100  0.63700900  0.38643700  1
  F  F30  1  0.29492100  0.36299100  0.11356300  1
  F  F31  1  0.20507900  0.36299100  0.61356300  1
  F  F32  1  0.59735100  0.85869700  0.92173800  1
  F  F33  1  0.90264900  0.85869700  0.42173800  1
  F  F34  1  0.40264900  0.14130300  0.07826200  1
  F  F35  1  0.09735100  0.14130300  0.57826200  1
  F  F36  1  0.59382300  0.37889300  0.89490700  1
  F  F37  1  0.90617700  0.37889300  0.39490700  1
  F  F38  1  0.40617700  0.62110700  0.10509300  1
  F  F39  1  0.09382300  0.62110700  0.60509300  1
loop_
_geom_bond_atom_site_label_1
_geom_bond_atom_site_label_2
_geom_bond_distance
_geom_bond_site_symmetry_2
Ba0 F28 2.700996 1_555
Ba0 F4 2.721113 1_565
Ba0 F9 2.767537 1_555
Ba0 F13 2.788572 1_565
Ba0 F8 2.810031 1_565
Ba0 F24 2.818618 1_565
Ba0 F20 2.824893 1_555
Ba0 F12 2.879855 1_565
Ba0 F29 3.019121 1_555
Ba0 F5 3.040285 1_555
Ba1 F29 2.700996 1_555
Ba1 F5 2.721113 1_564
Ba1 F8 2.767537 1_555
Ba1 F12 2.788572 1_565
Ba1 F9 2.810031 1_564
Ba1 F25 2.818618 1_565
Ba1 F21 2.824893 1_555
Ba1 F13 2.879855 1_564
Ba1 F28 3.019121 1_554
Ba1 F4 3.040285 1_555
Ba2 F30 2.700996 1_555
Ba2 F6 2.721113 1_545
Ba2 F11 2.767537 1_555
Ba2 F15 2.788572 1_545
Ba2 F10 2.810031 1_545
Ba2 F26 2.818618 1_545
Ba2 F22 2.824893 1_555
Ba2 F14 2.879855 1_545
Ba2 F31 3.019121 1_555
Ba2 F7 3.040285 1_555
Ba3 F31 2.700996 1_555
Ba3 F7 2.721113 1_546
Ba3 F10 2.767537 1_555
Ba3 F14 2.788572 1_545
Ba3 F11 2.810031 1_546
Ba3 F27 2.818618 1_545
Ba3 F23 2.824893 1_555
Ba3 F15 2.879855 1_546
Ba3 F30 3.019121 1_556
Ba3 F6 3.040285 1_555
Al0 F0 1.809278 1_555
Al0 F28 1.812188 1_554
Al0 F12 1.829601 1_555
Al0 F8 1.837395 1_555
Al0 F36 1.860359 1_554
Al0 F32 1.884577 1_554
Al1 F1 1.809278 1_555
Al1 F29 1.812188 1_555
Al1 F13 1.829601 1_555
Al1 F9 1.837395 1_555
Al1 F37 1.860359 1_555
Al1 F33 1.884577 1_555
Al2 F2 1.809278 1_555
Al2 F30 1.812188 1_556
Al2 F14 1.829601 1_555
Al2 F10 1.837395 1_555
Al2 F38 1.860359 1_556
Al2 F34 1.884577 1_556
Al3 F3 1.809278 1_555
Al3 F31 1.812188 1_555
Al3 F15 1.829601 1_555
Al3 F11 1.837395 1_555
Al3 F39 1.860359 1_555
Al3 F35 1.884577 1_555
Al4 F19 1.788819 1_555
Al4 F4 1.802493 1_555
Al4 F25 1.829904 1_555
Al4 F21 1.840812 1_555
Al4 F33 1.865706 1_545
Al4 F37 1.878441 1_555
Al5 F18 1.788819 1_555
Al5 F5 1.802493 1_555
Al5 F24 1.829904 1_555
Al5 F20 1.840812 1_555
Al5 F32 1.865706 1_545
Al5 F36 1.878441 1_555
Al6 F17 1.788819 1_555
Al6 F6 1.802493 1_555
Al6 F27 1.829904 1_555
Al6 F23 1.840812 1_555
Al6 F35 1.865706 1_565
Al6 F39 1.878441 1_555
Al7 F16 1.788819 1_555
Al7 F7 1.802493 1_555
Al7 F26 1.829904 1_555
Al7 F22 1.840812 1_555
Al7 F34 1.865706 1_565
Al7 F38 1.878441 1_555
F0 Sr0 2.535581 1_555
F0 Na1 2.701632 1_555
F0 Na1 2.836203 1_545
F1 Sr1 2.535581 1_656
F1 Na0 2.701632 1_555
F1 Na0 2.836203 1_545
F2 Sr0 2.535581 1_565
F2 Na3 2.701632 1_555
F2 Na3 2.836203 1_565
F3 Sr1 2.535581 1_565
F3 Na2 2.701632 1_555
F3 Na2 2.836203 1_565
F8 Na1 2.262340 1_555
F9 Na0 2.262340 1_555
F10 Na3 2.262340 1_555
F11 Na2 2.262340 1_555
F12 Na1 2.276359 1_545
F13 Na0 2.276359 1_545
F14 Na3 2.276359 1_565
F15 Na2 2.276359 1_565
F16 Na1 2.172901 1_555
F17 Na0 2.172901 1_455
F18 Na3 2.172901 1_555
F19 Na2 2.172901 1_655
F20 Na1 2.389763 1_555
F20 Sr0 2.524337 1_565
F21 Na0 2.389763 1_554
F21 Sr1 2.524337 1_665
F22 Na3 2.389763 1_555
F22 Sr0 2.524337 1_555
F23 Na2 2.389763 1_556
F23 Sr1 2.524337 1_556
F24 Sr0 2.556047 1_555
F24 Na1 2.560615 1_555
F25 Sr1 2.556047 1_655
F25 Na0 2.560615 1_554
F26 Sr0 2.556047 1_565
F26 Na3 2.560615 1_555
F27 Sr1 2.556047 1_566
F27 Na2 2.560615 1_556
F32 Na1 2.636363 1_556
F33 Na0 2.636363 1_555
F34 Na3 2.636363 1_554
F35 Na2 2.636363 1_555
