# generated using pymatgen
data_ZrTaFe4
_symmetry_space_group_name_H-M   'P 1'
_cell_length_a   4.91258771
_cell_length_b   4.91621200
_cell_length_c   7.98884800
_cell_angle_alpha   90.00000000
_cell_angle_beta   90.00047225
_cell_angle_gamma   59.97559224
_symmetry_Int_Tables_number   1
_chemical_formula_structural   ZrTaFe4
_chemical_formula_sum   'Zr2 Ta2 Fe8'
_cell_volume   167.05090900
_cell_formula_units_Z   2
loop_
 _symmetry_equiv_pos_site_id
 _symmetry_equiv_pos_as_xyz
  1  'x, y, z'
loop_
 _atom_site_type_symbol
 _atom_site_label
 _atom_site_symmetry_multiplicity
 _atom_site_fract_x
 _atom_site_fract_y
 _atom_site_fract_z
 _atom_site_occupancy
  Zr  Zr0  1  0.66660100  0.66669900  0.06624100  1
  Zr  Zr1  1  0.33339900  0.33330100  0.93375900  1
  Ta  Ta0  1  0.33341200  0.33329400  0.55694500  1
  Ta  Ta1  1  0.66658800  0.66670600  0.44305500  1
  Fe  Fe0  1  0.00000000  0.00000000  0.50000000  1
  Fe  Fe1  1  0.00000000  0.00000000  0.00000000  1
  Fe  Fe2  1  0.83198600  0.33591000  0.74256300  1
  Fe  Fe3  1  0.33593800  0.83203100  0.74243800  1
  Fe  Fe4  1  0.83198600  0.83210400  0.74256300  1
  Fe  Fe5  1  0.16801400  0.66409000  0.25743700  1
  Fe  Fe6  1  0.66406200  0.16796900  0.25756200  1
  Fe  Fe7  1  0.16801400  0.16789600  0.25743700  1
loop_
_geom_bond_atom_site_label_1
_geom_bond_atom_site_label_2
_geom_bond_distance
_geom_bond_site_symmetry_2
Zr0 Zr1 3.027200 1_654
Zr0 Zr1 3.028358 1_554
Zr0 Zr1 3.028366 1_564
Ta0 Ta1 2.978611 1_455
Ta0 Ta1 2.979660 1_555
Ta0 Ta1 2.979660 1_545
Ta0 Zr1 3.010310 1_555
Ta1 Zr0 3.010310 1_555
Fe0 Fe3 2.406827 1_545
Fe0 Fe6 2.406827 1_455
Fe0 Fe4 2.408202 1_445
Fe0 Fe2 2.408202 1_455
Fe0 Fe5 2.408202 1_545
Fe0 Fe7 2.408202 1_555
Fe0 Ta0 2.871521 1_455
Fe0 Ta1 2.871521 1_545
Fe0 Ta1 2.874076 1_455
Fe0 Ta1 2.874076 1_445
Fe0 Ta0 2.874076 1_555
Fe0 Ta0 2.874076 1_545
Fe1 Fe7 2.504801 1_555
Fe1 Fe5 2.504801 1_545
Fe1 Fe2 2.504801 1_454
Fe1 Fe4 2.504801 1_444
Fe1 Fe6 2.505104 1_455
Fe1 Fe3 2.505104 1_544
Fe1 Zr0 2.884264 1_545
Fe1 Zr1 2.884264 1_454
Fe1 Zr0 2.886738 1_455
Fe1 Zr1 2.886738 1_544
Fe1 Zr1 2.886742 1_554
Fe1 Zr0 2.886742 1_445
Fe2 Fe3 2.437059 1_555
Fe2 Fe4 2.439395 1_555
Fe2 Fe3 2.475529 1_645
Fe2 Fe4 2.476817 1_545
Fe2 Ta1 2.776269 1_555
Fe2 Ta0 2.868721 1_555
Fe2 Ta0 2.869718 1_655
Fe2 Zr1 2.892067 1_555
Fe2 Zr1 2.892935 1_655
Fe2 Zr0 2.944310 1_556
Fe3 Fe4 2.437059 1_555
Fe3 Fe4 2.475529 1_455
Fe3 Ta1 2.774584 1_555
Fe3 Ta0 2.870253 1_555
Fe3 Ta0 2.870253 1_565
Fe3 Zr1 2.894564 1_555
Fe3 Zr1 2.894568 1_565
Fe3 Zr0 2.944417 1_556
Fe4 Ta1 2.776269 1_555
Fe4 Ta0 2.868721 1_565
Fe4 Ta0 2.869718 1_655
Fe4 Zr1 2.892069 1_565
Fe4 Zr1 2.892933 1_655
Fe4 Zr0 2.944312 1_556
Fe5 Fe6 2.437059 1_555
Fe5 Fe7 2.439395 1_555
Fe5 Fe6 2.475529 1_465
Fe5 Fe7 2.476817 1_565
Fe5 Ta0 2.776269 1_555
Fe5 Ta1 2.868721 1_555
Fe5 Ta1 2.869718 1_455
Fe5 Zr0 2.892067 1_555
Fe5 Zr0 2.892935 1_455
Fe5 Zr1 2.944310 1_554
Fe6 Fe7 2.437059 1_555
Fe6 Fe7 2.475529 1_655
Fe6 Ta0 2.774584 1_555
Fe6 Ta1 2.870253 1_545
Fe6 Ta1 2.870253 1_555
Fe6 Zr0 2.894564 1_555
Fe6 Zr0 2.894568 1_545
Fe6 Zr1 2.944417 1_554
Fe7 Ta0 2.776269 1_555
Fe7 Ta1 2.868721 1_545
Fe7 Ta1 2.869718 1_455
Fe7 Zr0 2.892069 1_545
Fe7 Zr0 2.892933 1_455
Fe7 Zr1 2.944312 1_554
