# generated using pymatgen
data_Mg14CuSn
_symmetry_space_group_name_H-M   'P 1'
_cell_length_a   6.26569243
_cell_length_b   6.26569194
_cell_length_c   10.32713592
_cell_angle_alpha   90.00000000
_cell_angle_beta   90.00000000
_cell_angle_gamma   120.00000255
_symmetry_Int_Tables_number   1
_chemical_formula_structural   Mg14CuSn
_chemical_formula_sum   'Mg14 Cu1 Sn1'
_cell_volume   351.11438625
_cell_formula_units_Z   1
loop_
 _symmetry_equiv_pos_site_id
 _symmetry_equiv_pos_as_xyz
  1  'x, y, z'
loop_
 _atom_site_type_symbol
 _atom_site_label
 _atom_site_symmetry_multiplicity
 _atom_site_fract_x
 _atom_site_fract_y
 _atom_site_fract_z
 _atom_site_occupancy
  Mg  Mg0  1  0.16378229  0.83189064  0.12500000  1
  Mg  Mg1  1  0.16755989  0.83377945  0.62500000  1
  Mg  Mg2  1  0.66810936  0.33621771  0.12500000  1
  Mg  Mg3  1  0.66622055  0.33244011  0.62500000  1
  Mg  Mg4  1  0.66810936  0.83189064  0.12500000  1
  Mg  Mg5  1  0.66622055  0.83377945  0.62500000  1
  Mg  Mg6  1  0.33085196  0.16914804  0.36493650  1
  Mg  Mg7  1  0.33085196  0.16914804  0.88506350  1
  Mg  Mg8  1  0.33085196  0.66170491  0.36493650  1
  Mg  Mg9  1  0.33085196  0.66170491  0.88506350  1
  Mg  Mg10  1  0.83829509  0.16914804  0.36493650  1
  Mg  Mg11  1  0.83829509  0.16914804  0.88506350  1
  Mg  Mg12  1  0.83333300  0.66666700  0.37319768  1
  Mg  Mg13  1  0.83333300  0.66666700  0.87680232  1
  Cu  Cu0  1  0.16666700  0.33333300  0.12500000  1
  Sn  Sn0  1  0.16666700  0.33333300  0.62500000  1
loop_
_geom_bond_atom_site_label_1
_geom_bond_atom_site_label_2
_geom_bond_distance
_geom_bond_site_symmetry_2
Mg0 Mg8 3.080404 1_555
Mg0 Mg9 3.080404 1_554
Mg0 Mg6 3.080410 1_565
Mg0 Mg7 3.080410 1_564
Mg0 Mg2 3.105734 1_455
Mg0 Mg4 3.105734 1_455
Mg0 Mg12 3.128107 1_455
Mg0 Mg13 3.128107 1_454
Mg0 Mg2 3.159958 1_565
Mg0 Mg4 3.159958 1_555
Mg1 Sn0 3.132850 1_565
Mg1 Sn0 3.132850 1_555
Mg1 Mg13 3.170363 1_455
Mg1 Mg12 3.170363 1_455
Mg1 Mg9 3.244289 1_555
Mg1 Mg8 3.244289 1_555
Mg1 Mg7 3.244295 1_565
Mg1 Mg6 3.244295 1_565
Mg2 Mg7 3.080410 1_554
Mg2 Mg6 3.080410 1_555
Mg2 Mg4 3.105734 1_555
Mg2 Mg4 3.159958 1_545
Mg3 Sn0 3.132850 1_555
Mg3 Sn0 3.132850 1_655
Mg3 Mg6 3.244295 1_555
Mg3 Mg7 3.244295 1_555
Mg4 Mg8 3.080410 1_555
Mg4 Mg9 3.080410 1_554
Mg5 Sn0 3.132850 1_555
Mg5 Sn0 3.132850 1_665
Mg5 Mg9 3.244295 1_555
Mg5 Mg8 3.244295 1_555
Mg6 Mg8 3.086210 1_555
Mg6 Mg8 3.179482 1_545
Mg6 Sn0 3.223029 1_555
Mg7 Mg9 3.086210 1_555
Mg7 Mg9 3.179482 1_545
Mg7 Sn0 3.223029 1_555
Mg8 Sn0 3.223035 1_555
Mg9 Sn0 3.223035 1_555
Mg10 Mg2 3.080404 1_555
Mg10 Mg4 3.080410 1_545
Mg10 Mg8 3.086210 1_655
Mg10 Mg6 3.086210 1_655
Mg10 Mg12 3.134123 1_545
Mg10 Mg12 3.134123 1_555
Mg10 Mg8 3.179482 1_545
Mg10 Mg6 3.179483 1_555
Mg10 Sn0 3.223035 1_655
Mg10 Mg3 3.244289 1_555
Mg10 Mg5 3.244295 1_545
Mg11 Mg2 3.080404 1_556
Mg11 Mg4 3.080410 1_546
Mg11 Mg9 3.086210 1_655
Mg11 Mg7 3.086210 1_655
Mg11 Mg13 3.134123 1_545
Mg11 Mg13 3.134123 1_555
Mg11 Mg9 3.179482 1_545
Mg11 Mg7 3.179483 1_555
Mg11 Sn0 3.223035 1_655
Mg11 Mg3 3.244289 1_555
Mg11 Mg5 3.244295 1_545
Mg12 Mg4 3.128101 1_555
Mg12 Mg2 3.128107 1_555
Mg12 Mg6 3.134123 1_665
Mg12 Mg6 3.134123 1_555
Mg12 Mg8 3.134123 1_555
Mg12 Mg8 3.134123 1_655
Mg12 Mg5 3.170357 1_555
Mg12 Mg3 3.170363 1_555
Mg13 Mg4 3.128101 1_556
Mg13 Mg2 3.128107 1_556
Mg13 Mg7 3.134123 1_665
Mg13 Mg7 3.134123 1_555
Mg13 Mg9 3.134123 1_555
Mg13 Mg9 3.134123 1_655
Mg13 Mg5 3.170357 1_555
Mg13 Mg3 3.170363 1_555
Cu0 Mg6 3.051990 1_555
Cu0 Mg7 3.051990 1_554
Cu0 Mg9 3.051997 1_554
Cu0 Mg8 3.051997 1_555
Cu0 Mg10 3.051997 1_455
Cu0 Mg11 3.051997 1_454
Cu0 Mg0 3.132885 1_555
Cu0 Mg4 3.132885 1_445
Cu0 Mg4 3.132885 1_555
Cu0 Mg0 3.132885 1_545
Cu0 Mg2 3.132885 1_455
Cu0 Mg2 3.132885 1_555
