# generated using pymatgen
data_Y2Fe17CN
_symmetry_space_group_name_H-M   'P 1'
_cell_length_a   6.50434019
_cell_length_b   6.43821848
_cell_length_c   6.46713623
_cell_angle_alpha   82.84766672
_cell_angle_beta   83.55705211
_cell_angle_gamma   83.48842816
_symmetry_Int_Tables_number   1
_chemical_formula_structural   Y2Fe17CN
_chemical_formula_sum   'Y2 Fe17 C1 N1'
_cell_volume   265.65430873
_cell_formula_units_Z   1
loop_
 _symmetry_equiv_pos_site_id
 _symmetry_equiv_pos_as_xyz
  1  'x, y, z'
loop_
 _atom_site_type_symbol
 _atom_site_label
 _atom_site_symmetry_multiplicity
 _atom_site_fract_x
 _atom_site_fract_y
 _atom_site_fract_z
 _atom_site_occupancy
  Y  Y0  1  0.65997400  0.66146700  0.65222800  1
  Y  Y1  1  0.34002600  0.33853300  0.34777200  1
  Fe  Fe0  1  0.34088100  0.34582900  0.85345100  1
  Fe  Fe1  1  0.34138200  0.85112000  0.34420900  1
  Fe  Fe2  1  0.85287800  0.34470900  0.34296600  1
  Fe  Fe3  1  0.65911900  0.65417100  0.14654900  1
  Fe  Fe4  1  0.65861800  0.14888000  0.65579100  1
  Fe  Fe5  1  0.14712200  0.65529100  0.65703400  1
  Fe  Fe6  1  0.90449800  0.90397200  0.90472100  1
  Fe  Fe7  1  0.09550200  0.09602800  0.09527900  1
  Fe  Fe8  1  0.00000000  0.00000000  0.50000000  1
  Fe  Fe9  1  0.00000000  0.50000000  0.00000000  1
  Fe  Fe10  1  0.50000000  0.00000000  0.00000000  1
  Fe  Fe11  1  0.28519000  0.71298800  0.00225800  1
  Fe  Fe12  1  0.71677600  0.00076100  0.28271000  1
  Fe  Fe13  1  0.99805600  0.29164100  0.71057700  1
  Fe  Fe14  1  0.28322400  0.99923900  0.71729000  1
  Fe  Fe15  1  0.00194400  0.70835900  0.28942300  1
  Fe  Fe16  1  0.71481000  0.28701200  0.99774200  1
  C  C0  1  0.50000000  0.50000000  0.00000000  1
  N  N0  1  0.50000000  0.00000000  0.50000000  1
loop_
_geom_bond_atom_site_label_1
_geom_bond_atom_site_label_2
_geom_bond_distance
_geom_bond_site_symmetry_2
Fe0 Fe9 2.462309 1_556
Fe0 Fe10 2.469576 1_556
Fe0 Fe5 2.516147 1_555
Fe0 Fe13 2.582016 1_455
Fe0 Fe7 2.641098 1_556
Fe1 N0 1.922587 1_565
Fe1 Fe10 2.473055 1_565
Fe1 Fe8 2.473863 1_565
Fe1 Fe5 2.536027 1_555
Fe1 Fe15 2.561582 1_555
Fe1 Fe7 2.647521 1_565
Fe2 Fe9 2.454245 1_655
Fe2 Fe8 2.459189 1_655
Fe2 Fe3 2.516147 1_555
Fe2 Fe4 2.536027 1_555
Fe2 Fe7 2.667943 1_655
Fe2 Y0 3.099286 1_555
Fe2 Y1 3.167908 1_655
Fe2 Y1 3.337121 1_555
Fe3 Fe9 2.462309 1_655
Fe3 Fe6 2.641098 1_554
Fe4 N0 1.922587 1_555
Fe4 Fe8 2.473863 1_655
Fe4 Fe6 2.647521 1_545
Fe5 Fe9 2.454245 1_556
Fe5 Fe8 2.459189 1_565
Fe5 Fe6 2.667943 1_455
Fe5 Y1 3.099286 1_555
Fe5 Y0 3.167908 1_455
Fe5 Y0 3.337121 1_555
Fe6 Fe7 2.379616 1_666
Fe6 Fe9 2.617329 1_656
Fe6 Fe8 2.634020 1_665
Fe6 Y0 3.068314 1_555
Fe7 Fe9 2.617329 1_555
Fe7 Fe8 2.634020 1_555
Fe7 Y1 3.068314 1_555
Fe8 Y1 3.268232 1_555
Fe8 Y0 3.268232 1_445
Fe9 Y1 3.323120 1_555
Fe9 Y0 3.323120 1_454
Fe10 Fe14 2.431708 1_544
Fe10 Fe12 2.431708 1_555
Fe10 Fe16 2.437454 1_554
Fe10 Fe11 2.437454 1_545
Fe10 Fe3 2.469576 1_545
Fe10 Fe4 2.473055 1_554
Fe10 Fe6 2.654456 1_544
Fe10 Fe7 2.654456 1_555
Fe10 Y1 3.327555 1_555
Fe10 Y0 3.327555 1_544
Fe11 Fe9 2.430944 1_555
Fe11 Fe15 2.464714 1_555
Fe11 Fe5 2.580924 1_554
Fe11 Fe7 2.734690 1_565
Fe11 Fe6 2.740066 1_454
Fe12 N0 1.875625 1_555
Fe12 Fe8 2.438360 1_655
Fe12 Fe15 2.488376 1_645
Fe12 Fe2 2.564384 1_555
Fe12 Fe6 2.718763 1_544
Fe12 Fe7 2.720489 1_655
Fe13 Fe9 2.436695 1_656
Fe13 Fe8 2.451081 1_655
Fe13 Fe16 2.464714 1_555
Fe13 Fe14 2.488376 1_645
Fe13 Fe4 2.561582 1_555
Fe13 Fe5 2.603671 1_655
Fe13 Fe2 2.624649 1_555
Fe13 Fe6 2.751163 1_545
Fe13 Fe7 2.751396 1_656
Fe13 Y1 3.057520 1_655
Fe13 Y0 3.069562 1_555
Fe14 N0 1.875625 1_565
Fe14 Fe8 2.438360 1_565
Fe14 Fe5 2.564384 1_555
Fe14 Fe7 2.718763 1_566
Fe14 Fe6 2.720489 1_455
Fe15 Fe9 2.436695 1_555
Fe15 Fe8 2.451081 1_565
Fe15 Fe3 2.582016 1_455
Fe15 Fe2 2.603671 1_455
Fe15 Fe5 2.624649 1_555
Fe15 Fe7 2.751163 1_565
Fe15 Fe6 2.751396 1_454
Fe15 Y0 3.057520 1_455
Fe15 Y1 3.069562 1_555
Fe16 Fe9 2.430944 1_656
Fe16 Fe2 2.580924 1_556
Fe16 Fe6 2.734690 1_545
Fe16 Fe7 2.740066 1_656
C0 Fe11 1.843528 1_555
C0 Fe16 1.843528 1_554
C0 Fe3 1.908404 1_555
C0 Fe0 1.908404 1_554
C0 Y1 2.521842 1_555
C0 Y0 2.521842 1_554
N0 Y0 2.446127 1_545
N0 Y1 2.446127 1_555
