# generated using pymatgen
data_La5Mg
_symmetry_space_group_name_H-M   'P 1'
_cell_length_a   6.90425950
_cell_length_b   6.90425903
_cell_length_c   6.90425802
_cell_angle_alpha   55.68947709
_cell_angle_beta   55.68946134
_cell_angle_gamma   55.68946982
_symmetry_Int_Tables_number   1
_chemical_formula_structural   La5Mg
_chemical_formula_sum   'La5 Mg1'
_cell_volume   209.44909865
_cell_formula_units_Z   1
loop_
 _symmetry_equiv_pos_site_id
 _symmetry_equiv_pos_as_xyz
  1  'x, y, z'
loop_
 _atom_site_type_symbol
 _atom_site_label
 _atom_site_symmetry_multiplicity
 _atom_site_fract_x
 _atom_site_fract_y
 _atom_site_fract_z
 _atom_site_occupancy
  La  La0  1  0.00000000  0.61957281  0.38042719  1
  La  La1  1  0.15254025  0.15254025  0.15254025  1
  La  La2  1  0.38042719  -0.00000000  0.61957281  1
  La  La3  1  0.61957281  0.38042719  -0.00000000  1
  La  La4  1  0.84745975  0.84745975  0.84745975  1
  Mg  Mg0  1  0.50000000  0.50000000  0.50000000  1
loop_
_geom_bond_atom_site_label_1
_geom_bond_atom_site_label_2
_geom_bond_distance
_geom_bond_site_symmetry_2
La0 La3 3.490520 1_555
La0 La3 3.490520 1_456
La0 La2 3.490520 1_465
La0 La2 3.490521 1_555
La0 Mg0 3.537224 1_455
La0 Mg0 3.537224 1_555
La0 La4 3.619272 1_454
La0 La1 3.619272 1_565
La0 La4 3.742351 1_455
La0 La1 3.742352 1_555
La1 La2 3.619271 1_554
La1 La3 3.619272 1_455
La1 Mg0 3.731846 1_455
La1 Mg0 3.731846 1_554
La1 Mg0 3.731847 1_545
La1 La2 3.742352 1_555
La1 La3 3.742352 1_555
La1 La4 3.756169 1_445
La1 La4 3.756169 1_544
La1 La4 3.756169 1_454
La2 La3 3.490520 1_555
La2 La3 3.490521 1_546
La2 Mg0 3.537223 1_545
La2 Mg0 3.537224 1_555
La2 La4 3.619272 1_445
La2 La4 3.742352 1_545
La3 Mg0 3.537223 1_555
La3 Mg0 3.537223 1_554
La3 La4 3.619271 1_544
La3 La4 3.742352 1_554
La4 Mg0 3.731846 1_655
La4 Mg0 3.731846 1_556
La4 Mg0 3.731847 1_565
