# generated using pymatgen
data_KIn(GeO3)4
_symmetry_space_group_name_H-M   'P 1'
_cell_length_a   5.30636427
_cell_length_b   5.30636427
_cell_length_c   7.51045763
_cell_angle_alpha   90.00000000
_cell_angle_beta   90.00000000
_cell_angle_gamma   88.83898129
_symmetry_Int_Tables_number   1
_chemical_formula_structural   KIn(GeO3)4
_chemical_formula_sum   'K1 In1 Ge4 O12'
_cell_volume   211.43230817
_cell_formula_units_Z   1
loop_
 _symmetry_equiv_pos_site_id
 _symmetry_equiv_pos_as_xyz
  1  'x, y, z'
loop_
 _atom_site_type_symbol
 _atom_site_label
 _atom_site_symmetry_multiplicity
 _atom_site_fract_x
 _atom_site_fract_y
 _atom_site_fract_z
 _atom_site_occupancy
  K  K0  1  0.98437107  0.01562893  0.00000000  1
  In  In0  1  0.51847272  0.48152728  0.50000000  1
  Ge  Ge0  1  0.49443810  0.99045623  0.24517745  1
  Ge  Ge1  1  0.49443810  0.99045623  0.75482255  1
  Ge  Ge2  1  0.00954377  0.50556190  0.75482255  1
  Ge  Ge3  1  0.00954377  0.50556190  0.24517745  1
  O  O0  1  0.22106656  0.22028859  0.26523258  1
  O  O1  1  0.77971141  0.77893344  0.26523258  1
  O  O2  1  0.77971141  0.77893344  0.73476742  1
  O  O3  1  0.22106656  0.22028859  0.73476742  1
  O  O4  1  0.29604529  0.70395471  0.30576398  1
  O  O5  1  0.71082553  0.28917447  0.23709025  1
  O  O6  1  0.71082553  0.28917447  0.76290975  1
  O  O7  1  0.29604529  0.70395471  0.69423602  1
  O  O8  1  0.47458730  0.95794779  -0.00000000  1
  O  O9  1  0.52123773  0.06818234  0.50000000  1
  O  O10  1  0.04205221  0.52541270  0.00000000  1
  O  O11  1  0.93181766  0.47876227  0.50000000  1
loop_
_geom_bond_atom_site_label_1
_geom_bond_atom_site_label_2
_geom_bond_distance
_geom_bond_site_symmetry_2
K0 O3 2.603905 1_654
K0 O2 2.603905 1_544
K0 O0 2.603905 1_655
K0 O1 2.603905 1_545
K0 O10 2.613045 1_645
K0 O8 2.613045 1_645
K0 O5 2.701712 1_555
K0 O6 2.701712 1_554
K0 O10 2.728515 1_655
K0 O8 2.728515 1_545
In0 O9 2.193111 1_555
In0 O11 2.193111 1_555
In0 O4 2.204036 1_555
In0 O7 2.204036 1_555
In0 O5 2.437283 1_555
In0 O6 2.437283 1_555
Ge0 O8 1.852653 1_555
Ge0 O1 1.872201 1_555
Ge0 O0 1.882185 1_565
Ge0 O4 1.921312 1_555
Ge0 O9 1.963535 1_565
Ge0 O5 1.976979 1_565
Ge1 O8 1.852653 1_556
Ge1 O2 1.872201 1_555
Ge1 O3 1.882185 1_565
Ge1 O7 1.921312 1_555
Ge1 O9 1.963535 1_565
Ge1 O6 1.976979 1_565
Ge2 O10 1.852653 1_556
Ge2 O3 1.872201 1_555
Ge2 O2 1.882185 1_455
Ge2 O7 1.921312 1_555
Ge2 O11 1.963535 1_455
Ge2 O6 1.976979 1_455
Ge3 O10 1.852653 1_555
Ge3 O0 1.872201 1_555
Ge3 O1 1.882185 1_455
Ge3 O4 1.921312 1_555
Ge3 O11 1.963535 1_455
Ge3 O5 1.976979 1_455
