# generated using pymatgen
data_Fe9B4Ir3
_symmetry_space_group_name_H-M   'P 1'
_cell_length_a   6.94478200
_cell_length_b   4.46856300
_cell_length_c   5.43959162
_cell_angle_alpha   89.95576096
_cell_angle_beta   90.00000000
_cell_angle_gamma   90.00000000
_symmetry_Int_Tables_number   1
_chemical_formula_structural   Fe9B4Ir3
_chemical_formula_sum   'Fe9 B4 Ir3'
_cell_volume   168.80786202
_cell_formula_units_Z   1
loop_
 _symmetry_equiv_pos_site_id
 _symmetry_equiv_pos_as_xyz
  1  'x, y, z'
loop_
 _atom_site_type_symbol
 _atom_site_label
 _atom_site_symmetry_multiplicity
 _atom_site_fract_x
 _atom_site_fract_y
 _atom_site_fract_z
 _atom_site_occupancy
  Fe  Fe0  1  0.18455900  0.64645500  0.32496300  1
  Fe  Fe1  1  0.81147500  0.85879400  0.81800100  1
  Fe  Fe2  1  0.69377800  0.35924200  0.67677300  1
  Fe  Fe3  1  0.30553200  0.14271500  0.17851000  1
  Fe  Fe4  1  0.30622200  0.35924200  0.67677300  1
  Fe  Fe5  1  0.69446800  0.14271500  0.17851000  1
  Fe  Fe6  1  0.81544100  0.64645500  0.32496300  1
  Fe  Fe7  1  0.18852500  0.85879400  0.81800100  1
  Fe  Fe8  1  0.00000000  0.12603400  0.47254800  1
  B  B0  1  0.00000000  0.91555500  0.11849900  1
  B  B1  1  0.00000000  0.57593700  0.61927900  1
  B  B2  1  0.50000000  0.08555000  0.88386200  1
  B  B3  1  0.50000000  0.41455000  0.38071600  1
  Ir  Ir0  1  0.00000000  0.36468700  0.97249100  1
  Ir  Ir1  1  0.50000000  0.87145600  0.52599000  1
  Ir  Ir2  1  0.50000000  0.63182100  0.03012000  1
loop_
_geom_bond_atom_site_label_1
_geom_bond_atom_site_label_2
_geom_bond_distance
_geom_bond_site_symmetry_2
B0 Fe6 2.085190 1_455
B0 Fe0 2.085190 1_555
B0 Fe1 2.109744 1_454
B0 Fe7 2.109744 1_554
B0 Fe8 2.143929 1_565
B0 Ir0 2.157841 1_564
B0 Fe5 2.374809 1_465
B0 Fe3 2.374809 1_565
B0 Ir0 2.587127 1_554
B1 Fe6 2.074704 1_455
B1 Fe0 2.074704 1_555
B1 Fe7 2.117163 1_555
B1 Fe1 2.117163 1_455
B1 Ir0 2.140049 1_555
B1 Fe8 2.163636 1_555
B1 Fe2 2.357455 1_455
B1 Fe4 2.357455 1_555
B1 Fe8 2.583891 1_565
B2 Fe5 2.111562 1_556
B2 Fe3 2.111562 1_556
B2 Fe2 2.138601 1_555
B2 Fe4 2.138601 1_555
B2 Ir1 2.169721 1_545
B2 Ir2 2.177449 1_546
B2 Fe7 2.415522 1_545
B2 Fe1 2.415522 1_545
B2 Ir2 2.568007 1_556
B3 Fe2 2.113050 1_555
B3 Fe4 2.113050 1_555
B3 Fe5 2.123996 1_555
B3 Fe3 2.123996 1_555
B3 Ir2 2.139344 1_555
B3 Ir1 2.189874 1_555
B3 Fe0 2.442212 1_555
B3 Fe6 2.442212 1_555
B3 Ir1 2.551686 1_545
