# generated using pymatgen
data_Li7Mn2(CoO4)3
_symmetry_space_group_name_H-M   'P 1'
_cell_length_a   14.79823776
_cell_length_b   14.79823776
_cell_length_c   5.08819724
_cell_angle_alpha   81.17998992
_cell_angle_beta   81.17998992
_cell_angle_gamma   11.33117530
_symmetry_Int_Tables_number   1
_chemical_formula_structural   Li7Mn2(CoO4)3
_chemical_formula_sum   'Li7 Mn2 Co3 O12'
_cell_volume   216.31365370
_cell_formula_units_Z   1
loop_
 _symmetry_equiv_pos_site_id
 _symmetry_equiv_pos_as_xyz
  1  'x, y, z'
loop_
 _atom_site_type_symbol
 _atom_site_label
 _atom_site_symmetry_multiplicity
 _atom_site_fract_x
 _atom_site_fract_y
 _atom_site_fract_z
 _atom_site_occupancy
  Li  Li0  1  0.74772100  0.74772100  0.25192700  1
  Li  Li1  1  0.58110900  0.58110900  0.08704200  1
  Li  Li2  1  0.42033300  0.42033300  0.91278400  1
  Li  Li3  1  0.07852200  0.07852200  0.57414700  1
  Li  Li4  1  0.92448400  0.92448400  0.42202200  1
  Li  Li5  1  0.24835400  0.24835400  0.74631200  1
  Li  Li6  1  0.50017700  0.50017700  0.50092700  1
  Mn  Mn0  1  0.99995300  0.99995300  0.00075900  1
  Mn  Mn1  1  0.83341400  0.83341400  0.83311000  1
  Co  Co0  1  0.66626600  0.66626600  0.66614800  1
  Co  Co1  1  0.33341000  0.33341000  0.33358200  1
  Co  Co2  1  0.16627000  0.16627000  0.16578500  1
  O  O0  1  0.62835300  0.62835300  0.38749800  1
  O  O1  1  0.46251400  0.46251400  0.18826300  1
  O  O2  1  0.29565900  0.29565900  0.00737500  1
  O  O3  1  0.96071300  0.96071300  0.73228900  1
  O  O4  1  0.79678300  0.79678300  0.54563500  1
  O  O5  1  0.12921500  0.12921500  0.88433300  1
  O  O6  1  0.86874900  0.86874900  0.12196400  1
  O  O7  1  0.70572800  0.70572800  0.94832700  1
  O  O8  1  0.53650600  0.53650600  0.81643400  1
  O  O9  1  0.20629300  0.20629300  0.44624700  1
  O  O10  1  0.03882700  0.03882700  0.26828000  1
  O  O11  1  0.37064700  0.37064700  0.65881300  1
loop_
_geom_bond_atom_site_label_1
_geom_bond_atom_site_label_2
_geom_bond_distance
_geom_bond_site_symmetry_2
Li0 O9 2.056411 1_655
Li0 O9 2.056411 1_565
Li0 O7 2.122430 1_554
Li0 O4 2.233106 1_555
Li0 O2 2.265963 1_655
Li0 O2 2.265963 1_565
Li1 O8 2.044244 1_554
Li1 O10 2.044876 1_655
Li1 O10 2.044876 1_565
Li1 O5 2.180625 1_564
Li1 O5 2.180625 1_654
Li1 O0 2.220081 1_555
Li2 O1 2.011143 1_556
Li2 O3 2.013824 1_545
Li2 O3 2.013824 1_455
Li2 O11 2.096200 1_555
Li2 O6 2.253199 1_456
Li2 O6 2.253199 1_546
Li3 O10 2.085566 1_555
Li3 O8 2.171460 1_545
Li3 O8 2.171460 1_455
Li3 O0 2.181877 1_455
Li3 O0 2.181877 1_545
Li3 O5 2.333713 1_555
Li4 O3 2.037134 1_555
Li4 O1 2.095936 1_565
Li4 O1 2.095936 1_655
Li4 O11 2.347619 1_565
Li4 O11 2.347619 1_655
Li4 O6 2.407867 1_555
Li5 O2 2.067818 1_556
Li5 O7 2.090270 1_545
Li5 O7 2.090270 1_455
Li5 O9 2.109148 1_555
Li5 O4 2.182309 1_545
Li5 O4 2.182309 1_455
Li6 O8 2.061874 1_555
Li6 O1 2.074898 1_555
Li6 O10 2.101440 1_655
Li6 O10 2.101440 1_565
Li6 O3 2.109352 1_545
Li6 O3 2.109352 1_455
Mn0 O10 1.908915 1_665
Mn0 O3 1.920460 1_554
Mn0 O8 1.965123 1_654
Mn0 O8 1.965123 1_564
Mn0 O1 1.983971 1_565
Mn0 O1 1.983971 1_655
Mn1 O6 1.927311 1_556
Mn1 O4 1.946743 1_555
Mn1 O11 1.955398 1_655
Mn1 O11 1.955398 1_565
Mn1 O2 1.962931 1_656
Mn1 O2 1.962931 1_566
Co0 O0 1.935181 1_555
Co0 O7 1.981538 1_555
Co0 O5 2.045527 1_655
Co0 O5 2.045527 1_565
Co0 O9 2.090324 1_565
Co0 O9 2.090324 1_655
Co1 O6 2.007878 1_455
Co1 O6 2.007878 1_545
Co1 O4 2.025691 1_455
Co1 O4 2.025691 1_545
Co1 O11 2.121444 1_555
Co1 O2 2.135379 1_555
Co2 O5 1.929642 1_554
Co2 O9 1.986026 1_555
Co2 O0 2.065374 1_545
Co2 O0 2.065374 1_455
Co2 O7 2.076726 1_544
Co2 O7 2.076726 1_454
