# generated using pymatgen
data_NaPO4
_symmetry_space_group_name_H-M   'P 1'
_cell_length_a   6.65667700
_cell_length_b   6.74676467
_cell_length_c   9.25994004
_cell_angle_alpha   100.85292596
_cell_angle_beta   98.74555245
_cell_angle_gamma   109.45773198
_symmetry_Int_Tables_number   1
_chemical_formula_structural   NaPO4
_chemical_formula_sum   'Na4 P4 O16'
_cell_volume   374.60782184
_cell_formula_units_Z   4
loop_
 _symmetry_equiv_pos_site_id
 _symmetry_equiv_pos_as_xyz
  1  'x, y, z'
loop_
 _atom_site_type_symbol
 _atom_site_label
 _atom_site_symmetry_multiplicity
 _atom_site_fract_x
 _atom_site_fract_y
 _atom_site_fract_z
 _atom_site_occupancy
  Na  Na0  1  0.87123600  0.46274000  0.14551000  1
  Na  Na1  1  0.12876400  0.53726000  0.85449000  1
  Na  Na2  1  0.64915600  0.31481600  0.39787400  1
  Na  Na3  1  0.35084400  0.68518400  0.60212600  1
  P  P0  1  0.27816200  0.24724200  0.08703600  1
  P  P1  1  0.72183800  0.75275800  0.91296400  1
  P  P2  1  0.93125400  0.99767300  0.23000600  1
  P  P3  1  0.06874600  0.00232700  0.76999400  1
  O  O0  1  0.93151400  0.81001000  0.29724300  1
  O  O1  1  0.06848600  0.18999000  0.70275700  1
  O  O2  1  0.90548000  0.19606900  0.31781400  1
  O  O3  1  0.09452000  0.80393100  0.68218600  1
  O  O4  1  0.15706200  0.06572500  0.17258500  1
  O  O5  1  0.84293800  0.93427500  0.82741500  1
  O  O6  1  0.15307000  0.39124000  0.06537600  1
  O  O7  1  0.84693000  0.60876000  0.93462400  1
  O  O8  1  0.51417300  0.34061500  0.16817600  1
  O  O9  1  0.48582700  0.65938500  0.83182400  1
  O  O10  1  0.73986100  0.91073100  0.07503600  1
  O  O11  1  0.26013900  0.08926900  0.92496400  1
  O  O12  1  0.46779200  0.93669600  0.43598700  1
  O  O13  1  0.53220800  0.06330400  0.56401300  1
  O  O14  1  0.26752600  0.30566500  0.52940300  1
  O  O15  1  0.73247400  0.69433500  0.47059700  1
loop_
_geom_bond_atom_site_label_1
_geom_bond_atom_site_label_2
_geom_bond_distance
_geom_bond_site_symmetry_2
Na0 O6 2.279136 1_655
Na0 O8 2.298797 1_555
Na0 O7 2.354718 1_554
Na0 O0 2.363708 1_555
Na0 O2 2.660508 1_555
Na1 O7 2.279136 1_455
Na1 O9 2.298797 1_555
Na1 O6 2.354718 1_556
Na1 O1 2.363708 1_555
Na1 O3 2.660508 1_555
Na2 O8 2.241470 1_555
Na2 O2 2.274756 1_555
Na2 O15 2.368197 1_555
Na2 O13 2.513854 1_555
Na2 O12 2.550854 1_545
Na2 O14 2.967405 1_555
Na3 O9 2.241470 1_555
Na3 O3 2.274756 1_555
Na3 O14 2.368197 1_555
Na3 O12 2.513854 1_555
Na3 O13 2.550854 1_565
Na3 O15 2.967405 1_555
O0 P2 1.512842 1_555
O1 P3 1.512842 1_555
O2 P2 1.505921 1_545
O3 P3 1.505921 1_565
O4 P2 1.621147 1_445
O4 P0 1.636757 1_555
O5 P3 1.621147 1_665
O5 P1 1.636757 1_555
O6 P0 1.496335 1_555
O7 P1 1.496335 1_555
O8 P0 1.494328 1_555
O9 P1 1.494328 1_555
O10 P2 1.629628 1_555
O10 P1 1.631066 1_554
O11 P3 1.629628 1_555
O11 P0 1.631066 1_556
O12 O13 1.240567 1_565
