# generated using pymatgen
data_K4Zr6FeBr18
_symmetry_space_group_name_H-M   'P 1'
_cell_length_a   10.66217600
_cell_length_b   10.79986007
_cell_length_c   10.90768697
_cell_angle_alpha   118.52822734
_cell_angle_beta   100.03339696
_cell_angle_gamma   103.75204065
_symmetry_Int_Tables_number   1
_chemical_formula_structural   K4Zr6FeBr18
_chemical_formula_sum   'K4 Zr6 Fe1 Br18'
_cell_volume   1009.11027826
_cell_formula_units_Z   1
loop_
 _symmetry_equiv_pos_site_id
 _symmetry_equiv_pos_as_xyz
  1  'x, y, z'
loop_
 _atom_site_type_symbol
 _atom_site_label
 _atom_site_symmetry_multiplicity
 _atom_site_fract_x
 _atom_site_fract_y
 _atom_site_fract_z
 _atom_site_occupancy
  K  K0  1  0.65360300  0.31077000  0.22787900  1
  K  K1  1  0.34639700  0.68923000  0.77212000  1
  K  K2  1  0.68693500  0.66057600  0.56334400  1
  K  K3  1  0.31306500  0.33942400  0.43665600  1
  Zr  Zr0  1  0.15244300  0.82291200  0.23438700  1
  Zr  Zr1  1  0.84755700  0.17708800  0.76561300  1
  Zr  Zr2  1  0.85851600  0.99340700  0.13501000  1
  Zr  Zr3  1  0.14148400  0.00659300  0.86499000  1
  Zr  Zr4  1  0.14764200  0.19697700  0.04599000  1
  Zr  Zr5  1  0.85235800  0.80302300  0.95401000  1
  Fe  Fe0  1  0.00000000  0.00000000  0.00000000  1
  Br  Br0  1  0.00707600  0.21178300  0.19672100  1
  Br  Br1  1  0.99292400  0.78821700  0.80327900  1
  Br  Br2  1  0.32761600  0.02241300  0.31060500  1
  Br  Br3  1  0.67238400  0.97758700  0.68939500  1
  Br  Br4  1  0.32208000  0.42380000  0.10039700  1
  Br  Br5  1  0.67792000  0.57620000  0.89960300  1
  Br  Br6  1  0.00390900  0.58756200  0.20872400  1
  Br  Br7  1  0.99609100  0.41243800  0.79127600  1
  Br  Br8  1  0.70091600  0.98737800  0.28891600  1
  Br  Br9  1  0.29908400  0.01262200  0.71108400  1
  Br  Br10  1  0.31643300  0.22395000  0.90336500  1
  Br  Br11  1  0.68356700  0.77605000  0.09663500  1
  Br  Br12  1  0.01359700  0.79694200  0.40737200  1
  Br  Br13  1  0.98640300  0.20305800  0.59262800  1
  Br  Br14  1  0.32012000  0.81311300  0.10984300  1
  Br  Br15  1  0.67988000  0.18688700  0.89015700  1
  Br  Br16  1  0.33287600  0.61753900  0.50355700  1
  Br  Br17  1  0.66712400  0.38246100  0.49644300  1
loop_
_geom_bond_atom_site_label_1
_geom_bond_atom_site_label_2
_geom_bond_distance
_geom_bond_site_symmetry_2
Zr2 Zr5 2.035427 1_554
Zr3 Zr4 2.035427 1_556
Fe0 Zr4 2.090110 1_555
Fe0 Zr5 2.090110 1_444
Fe0 Zr3 2.296210 1_554
Fe0 Zr2 2.296210 1_445
Br0 Zr2 2.204603 1_445
Br0 Fe0 2.239435 1_555
Br0 Zr4 2.386707 1_555
Br0 K3 3.291532 1_555
Br1 Zr3 2.204603 1_665
Br1 Fe0 2.239435 1_666
Br1 Zr5 2.386707 1_555
Br1 K2 3.291532 1_555
Br2 Zr0 2.157898 1_545
Br2 K3 3.076779 1_555
Br3 Zr1 2.157898 1_565
Br3 K2 3.076779 1_555
Br4 Zr4 2.423393 1_555
Br5 Zr5 2.423393 1_555
Br6 Zr0 2.509787 1_555
Br7 Zr1 2.509787 1_555
Br8 Zr2 2.584840 1_555
Br9 Zr3 2.584840 1_555
Br10 Br9 2.175740 1_555
Br10 Br4 2.177929 1_556
Br10 Zr3 2.423355 1_555
Br10 Zr4 2.627380 1_556
Br11 Br8 2.175740 1_555
Br11 Br5 2.177929 1_554
Br11 Zr2 2.423355 1_555
Br11 Zr5 2.627380 1_554
Br12 Br6 2.224826 1_555
Br12 Zr0 2.666818 1_555
Br13 Br7 2.224826 1_555
Br13 Zr1 2.666818 1_555
Br14 Br2 2.244167 1_565
Br14 Zr0 2.419054 1_555
Br14 K1 3.356913 1_554
Br15 Br3 2.244167 1_545
Br15 Zr1 2.419054 1_555
Br15 K0 3.356903 1_556
Br16 K1 2.614378 1_555
Br16 K3 2.673912 1_555
Br16 K2 3.593144 1_555
Br17 K0 2.614389 1_555
Br17 K2 2.673912 1_555
Br17 K3 3.593144 1_555
