# generated using pymatgen
data_CeNiSb
_symmetry_space_group_name_H-M   'P 1'
_cell_length_a   4.20787790
_cell_length_b   4.35612740
_cell_length_c   4.35616936
_cell_angle_alpha   119.99012478
_cell_angle_beta   89.99864337
_cell_angle_gamma   90.00015324
_symmetry_Int_Tables_number   1
_chemical_formula_structural   CeNiSb
_chemical_formula_sum   'Ce1 Ni1 Sb1'
_cell_volume   69.15797966
_cell_formula_units_Z   1
loop_
 _symmetry_equiv_pos_site_id
 _symmetry_equiv_pos_as_xyz
  1  'x, y, z'
loop_
 _atom_site_type_symbol
 _atom_site_label
 _atom_site_symmetry_multiplicity
 _atom_site_fract_x
 _atom_site_fract_y
 _atom_site_fract_z
 _atom_site_occupancy
  Ce  Ce0  1  0.00039498  0.99996247  -0.00000086  1
  Ni  Ni0  1  0.49983721  0.33328711  0.66669645  1
  Sb  Sb0  1  0.49976781  0.66665043  0.33330441  1
loop_
_geom_bond_atom_site_label_1
_geom_bond_atom_site_label_2
_geom_bond_distance
_geom_bond_site_symmetry_2
Ce0 Sb0 3.277102 1_555
Ce0 Ni0 3.277269 1_564
Ce0 Sb0 3.277558 1_554
Ce0 Sb0 3.277578 1_565
Ce0 Ni0 3.277695 1_554
Ce0 Ni0 3.277836 1_565
Ce0 Ni0 3.280331 1_464
Ce0 Sb0 3.280440 1_455
Ce0 Ni0 3.280741 1_454
Ce0 Ni0 3.280764 1_465
Ce0 Sb0 3.280930 1_465
Ce0 Sb0 3.281027 1_454
Ni0 Sb0 2.515064 1_556
Ni0 Sb0 2.515149 1_545
Ni0 Sb0 2.515233 1_555
