# generated using pymatgen
data_Ti2Al2O7
_symmetry_space_group_name_H-M   'P 1'
_cell_length_a   6.77887856
_cell_length_b   6.77887856
_cell_length_c   6.77887856
_cell_angle_alpha   60.00000000
_cell_angle_beta   60.00000000
_cell_angle_gamma   60.00000000
_symmetry_Int_Tables_number   1
_chemical_formula_structural   Ti2Al2O7
_chemical_formula_sum   'Ti4 Al4 O14'
_cell_volume   220.27162921
_cell_formula_units_Z   2
loop_
 _symmetry_equiv_pos_site_id
 _symmetry_equiv_pos_as_xyz
  1  'x, y, z'
loop_
 _atom_site_type_symbol
 _atom_site_label
 _atom_site_symmetry_multiplicity
 _atom_site_fract_x
 _atom_site_fract_y
 _atom_site_fract_z
 _atom_site_occupancy
  Ti  Ti0  1  0.62500000  0.62500000  0.62500000  1
  Ti  Ti1  1  0.12500000  0.62500000  0.62500000  1
  Ti  Ti2  1  0.62500000  0.62500000  0.12500000  1
  Ti  Ti3  1  0.62500000  0.12500000  0.62500000  1
  Al  Al0  1  0.12500000  0.12500000  0.12500000  1
  Al  Al1  1  0.62500000  0.12500000  0.12500000  1
  Al  Al2  1  0.12500000  0.12500000  0.62500000  1
  Al  Al3  1  0.12500000  0.62500000  0.12500000  1
  O  O0  1  0.00000000  0.00000000  0.00000000  1
  O  O1  1  0.25000000  0.25000000  0.25000000  1
  O  O2  1  0.27656200  0.27656200  0.72343800  1
  O  O3  1  0.52656200  0.52656200  0.97343800  1
  O  O4  1  0.72343800  0.27656200  0.72343800  1
  O  O5  1  0.72343800  0.27656200  0.27656200  1
  O  O6  1  0.27656200  0.72343800  0.72343800  1
  O  O7  1  0.27656200  0.72343800  0.27656200  1
  O  O8  1  0.72343800  0.72343800  0.27656200  1
  O  O9  1  0.97343800  0.52656200  0.52656200  1
  O  O10  1  0.52656200  0.97343800  0.97343800  1
  O  O11  1  0.97343800  0.97343800  0.52656200  1
  O  O12  1  0.97343800  0.52656200  0.97343800  1
  O  O13  1  0.52656200  0.97343800  0.52656200  1
loop_
_geom_bond_atom_site_label_1
_geom_bond_atom_site_label_2
_geom_bond_distance
_geom_bond_site_symmetry_2
Al0 O0 2.075599 1_555
Al0 O1 2.075599 1_555
Al0 O2 2.232322 1_554
Al0 O12 2.232322 1_454
Al0 O10 2.232322 1_544
Al0 O7 2.232322 1_545
Al0 O11 2.232322 1_445
Al0 O5 2.232322 1_455
Al1 O0 2.075599 1_655
Al1 O1 2.075599 1_555
Al1 O4 2.232322 1_554
Al1 O13 2.232322 1_545
Al1 O5 2.232322 1_555
Al1 O10 2.232322 1_544
Al1 O3 2.232322 1_554
Al1 O8 2.232322 1_545
Al2 O0 2.075599 1_556
Al2 O1 2.075599 1_555
Al2 O2 2.232322 1_555
Al2 O11 2.232322 1_445
Al2 O4 2.232322 1_455
Al2 O6 2.232322 1_545
Al2 O13 2.232322 1_545
Al2 O9 2.232322 1_455
Al3 O1 2.075599 1_555
Al3 O0 2.075599 1_565
Al3 O9 2.232322 1_455
Al3 O12 2.232322 1_454
Al3 O6 2.232322 1_554
Al3 O7 2.232322 1_555
Al3 O3 2.232322 1_554
Al3 O8 2.232322 1_455
O2 Ti3 1.939755 1_555
O2 Ti1 1.939755 1_555
O3 Ti0 1.939755 1_555
O3 Ti2 1.939755 1_556
O4 Ti0 1.939755 1_555
O4 Ti3 1.939755 1_555
O5 Ti2 1.939755 1_555
O5 Ti3 1.939755 1_555
O6 Ti0 1.939755 1_555
O6 Ti1 1.939755 1_555
O7 Ti2 1.939755 1_555
O7 Ti1 1.939755 1_555
O8 Ti2 1.939755 1_555
O8 Ti0 1.939755 1_555
O9 Ti0 1.939755 1_555
O9 Ti1 1.939755 1_655
O10 Ti3 1.939755 1_565
O10 Ti2 1.939755 1_556
O11 Ti3 1.939755 1_565
O11 Ti1 1.939755 1_655
O12 Ti2 1.939755 1_556
O12 Ti1 1.939755 1_655
O13 Ti3 1.939755 1_565
O13 Ti0 1.939755 1_555
