# generated using pymatgen
data_CaFe4O9
_symmetry_space_group_name_H-M   'P 1'
_cell_length_a   8.36357500
_cell_length_b   8.36357500
_cell_length_c   5.43764000
_cell_angle_alpha   90.00000000
_cell_angle_beta   90.00000000
_cell_angle_gamma   90.00000000
_symmetry_Int_Tables_number   1
_chemical_formula_structural   CaFe4O9
_chemical_formula_sum   'Ca2 Fe8 O18'
_cell_volume   380.35958353
_cell_formula_units_Z   2
loop_
 _symmetry_equiv_pos_site_id
 _symmetry_equiv_pos_as_xyz
  1  'x, y, z'
loop_
 _atom_site_type_symbol
 _atom_site_label
 _atom_site_symmetry_multiplicity
 _atom_site_fract_x
 _atom_site_fract_y
 _atom_site_fract_z
 _atom_site_occupancy
  Ca  Ca0  1  0.50000000  0.00000000  0.83245700  1
  Ca  Ca1  1  0.00000000  0.50000000  0.16754300  1
  Fe  Fe0  1  0.21449000  0.90837100  0.37640400  1
  Fe  Fe1  1  0.90837100  0.78551000  0.62359600  1
  Fe  Fe2  1  0.40837100  0.28551000  0.37640400  1
  Fe  Fe3  1  0.71449000  0.40837100  0.62359600  1
  Fe  Fe4  1  0.78551000  0.09162900  0.37640400  1
  Fe  Fe5  1  0.59162900  0.71449000  0.37640400  1
  Fe  Fe6  1  0.28551000  0.59162900  0.62359600  1
  Fe  Fe7  1  0.09162900  0.21449000  0.62359600  1
  O  O0  1  0.00000000  0.00000000  0.50000000  1
  O  O1  1  0.50000000  0.50000000  0.50000000  1
  O  O2  1  0.07605400  0.26951200  0.94357700  1
  O  O3  1  0.23048800  0.57605400  0.94357700  1
  O  O4  1  0.76951200  0.42394600  0.94357700  1
  O  O5  1  0.92394600  0.73048800  0.94357700  1
  O  O6  1  0.42394600  0.23048800  0.05642300  1
  O  O7  1  0.26951200  0.92394600  0.05642300  1
  O  O8  1  0.73048800  0.07605400  0.05642300  1
  O  O9  1  0.57605400  0.76951200  0.05642300  1
  O  O10  1  0.70620200  0.89546900  0.53540900  1
  O  O11  1  0.60453100  0.20620200  0.53540900  1
  O  O12  1  0.39546900  0.79379800  0.53540900  1
  O  O13  1  0.29379800  0.10453100  0.53540900  1
  O  O14  1  0.20620200  0.39546900  0.46459100  1
  O  O15  1  0.89546900  0.29379800  0.46459100  1
  O  O16  1  0.10453100  0.70620200  0.46459100  1
  O  O17  1  0.79379800  0.60453100  0.46459100  1
loop_
_geom_bond_atom_site_label_1
_geom_bond_atom_site_label_2
_geom_bond_distance
_geom_bond_site_symmetry_2
Ca0 O8 2.367233 1_556
Ca0 O6 2.367233 1_556
Ca0 O9 2.367233 1_546
Ca0 O7 2.367233 1_546
Ca0 O11 2.519428 1_555
Ca0 O13 2.519428 1_555
Ca0 O10 2.519428 1_545
Ca0 O12 2.519428 1_545
Ca1 O5 2.367233 1_454
Ca1 O2 2.367233 1_554
Ca1 O3 2.367233 1_554
Ca1 O4 2.367233 1_454
Ca1 O17 2.519428 1_455
Ca1 O16 2.519428 1_555
Ca1 O15 2.519428 1_455
Ca1 O14 2.519428 1_555
Fe0 O7 1.804475 1_555
Fe0 O13 1.969539 1_565
Fe0 O16 1.983607 1_555
Fe0 O12 1.989185 1_555
Fe0 O0 2.063263 1_565
Fe1 O5 1.804475 1_555
Fe1 O16 1.969539 1_655
Fe1 O10 1.983607 1_555
Fe1 O17 1.989185 1_555
Fe1 O0 2.063263 1_665
Fe2 O6 1.804475 1_555
Fe2 O11 1.969539 1_555
Fe2 O14 1.983607 1_555
Fe2 O13 1.989185 1_555
Fe2 O1 2.063263 1_555
Fe3 O4 1.804475 1_555
Fe3 O17 1.969539 1_555
Fe3 O11 1.983607 1_555
Fe3 O15 1.989185 1_555
Fe3 O1 2.063263 1_555
Fe4 O8 1.804475 1_555
Fe4 O10 1.969539 1_545
Fe4 O15 1.983607 1_555
Fe4 O11 1.989185 1_555
Fe4 O0 2.063263 1_655
Fe5 O9 1.804475 1_555
Fe5 O12 1.969539 1_555
Fe5 O17 1.983607 1_555
Fe5 O10 1.989185 1_555
Fe5 O1 2.063263 1_555
Fe6 O3 1.804475 1_555
Fe6 O14 1.969539 1_555
Fe6 O12 1.983607 1_555
Fe6 O16 1.989185 1_555
Fe6 O1 2.063263 1_555
Fe7 O2 1.804475 1_555
Fe7 O15 1.969539 1_455
Fe7 O13 1.983607 1_555
Fe7 O14 1.989185 1_555
Fe7 O0 2.063263 1_555
