# generated using pymatgen
data_CaSm3
_symmetry_space_group_name_H-M   'P 1'
_cell_length_a   7.41269819
_cell_length_b   7.41269819
_cell_length_c   5.93849900
_cell_angle_alpha   90.00000000
_cell_angle_beta   90.00000000
_cell_angle_gamma   120.00000171
_symmetry_Int_Tables_number   1
_chemical_formula_structural   CaSm3
_chemical_formula_sum   'Ca2 Sm6'
_cell_volume   282.59205539
_cell_formula_units_Z   2
loop_
 _symmetry_equiv_pos_site_id
 _symmetry_equiv_pos_as_xyz
  1  'x, y, z'
loop_
 _atom_site_type_symbol
 _atom_site_label
 _atom_site_symmetry_multiplicity
 _atom_site_fract_x
 _atom_site_fract_y
 _atom_site_fract_z
 _atom_site_occupancy
  Ca  Ca0  1  0.33333300  0.66666700  0.75000000  1
  Ca  Ca1  1  0.66666700  0.33333300  0.25000000  1
  Sm  Sm0  1  0.16449100  0.32898200  0.25000000  1
  Sm  Sm1  1  0.67101800  0.83550900  0.25000000  1
  Sm  Sm2  1  0.16449100  0.83550900  0.25000000  1
  Sm  Sm3  1  0.83550900  0.67101800  0.75000000  1
  Sm  Sm4  1  0.32898200  0.16449100  0.75000000  1
  Sm  Sm5  1  0.83550900  0.16449100  0.75000000  1
loop_
_geom_bond_atom_site_label_1
_geom_bond_atom_site_label_2
_geom_bond_distance
_geom_bond_site_symmetry_2
Ca0 Sm2 3.676379 1_556
Ca0 Sm2 3.676379 1_555
Ca0 Sm0 3.676383 1_556
Ca0 Sm1 3.676383 1_555
Ca0 Sm0 3.676383 1_555
Ca0 Sm1 3.676383 1_556
Ca0 Sm4 3.706451 1_565
Ca0 Sm3 3.706451 1_455
Ca0 Sm5 3.706454 1_565
Ca0 Sm5 3.706454 1_455
Ca0 Sm3 3.706458 1_555
Ca0 Sm4 3.706458 1_555
Ca1 Sm5 3.676379 1_554
Ca1 Sm5 3.676379 1_555
Ca1 Sm4 3.676383 1_555
Ca1 Sm4 3.676383 1_554
Ca1 Sm3 3.676383 1_554
Ca1 Sm3 3.676383 1_555
Ca1 Sm0 3.706451 1_655
Ca1 Sm1 3.706451 1_545
Ca1 Sm2 3.706454 1_655
Ca1 Sm2 3.706454 1_545
Ca1 Sm1 3.706458 1_555
Ca1 Sm0 3.706458 1_555
Sm0 Sm5 3.643718 1_455
Sm0 Sm5 3.643718 1_454
Sm0 Sm4 3.643718 1_555
Sm0 Sm4 3.643718 1_554
Sm0 Sm1 3.657966 1_445
Sm0 Sm2 3.657966 1_545
Sm0 Sm1 3.754732 1_555
Sm0 Sm2 3.754732 1_555
Sm1 Sm5 3.643718 1_565
Sm1 Sm5 3.643718 1_564
Sm1 Sm3 3.643718 1_555
Sm1 Sm3 3.643718 1_554
Sm1 Sm2 3.657966 1_655
Sm1 Sm2 3.754732 1_555
Sm2 Sm3 3.643718 1_454
Sm2 Sm4 3.643718 1_565
Sm2 Sm4 3.643718 1_564
Sm2 Sm3 3.643718 1_455
Sm3 Sm4 3.657966 1_665
Sm3 Sm5 3.657966 1_565
Sm3 Sm4 3.754732 1_555
Sm3 Sm5 3.754732 1_555
Sm4 Sm5 3.657966 1_455
Sm4 Sm5 3.754732 1_555
