# generated using pymatgen
data_Ho6Fe16O
_symmetry_space_group_name_H-M   'P 1'
_cell_length_a   8.14231542
_cell_length_b   8.14231542
_cell_length_c   8.14231542
_cell_angle_alpha   109.47122063
_cell_angle_beta   109.47122063
_cell_angle_gamma   109.47122063
_symmetry_Int_Tables_number   1
_chemical_formula_structural   Ho6Fe16O
_chemical_formula_sum   'Ho6 Fe16 O1'
_cell_volume   415.54865029
_cell_formula_units_Z   1
loop_
 _symmetry_equiv_pos_site_id
 _symmetry_equiv_pos_as_xyz
  1  'x, y, z'
loop_
 _atom_site_type_symbol
 _atom_site_label
 _atom_site_symmetry_multiplicity
 _atom_site_fract_x
 _atom_site_fract_y
 _atom_site_fract_z
 _atom_site_occupancy
  Ho  Ho0  1  0.73734100  0.73734100  0.00000000  1
  Ho  Ho1  1  0.26265800  0.00000000  0.26265900  1
  Ho  Ho2  1  0.73734100  0.00000000  0.73734100  1
  Ho  Ho3  1  0.00000000  0.73734100  0.73734200  1
  Ho  Ho4  1  0.00000000  0.26265800  0.26265900  1
  Ho  Ho5  1  0.26265800  0.26265800  0.00000000  1
  Fe  Fe0  1  0.00000000  0.50000000  0.00000000  1
  Fe  Fe1  1  0.50000000  0.00000000  0.00000000  1
  Fe  Fe2  1  0.00000000  0.00000000  0.50000000  1
  Fe  Fe3  1  0.50000000  0.50000000  0.50000000  1
  Fe  Fe4  1  0.33765400  0.33765400  0.67530900  1
  Fe  Fe5  1  0.66234600  0.66234600  0.32469100  1
  Fe  Fe6  1  0.00000000  0.33765400  0.66234600  1
  Fe  Fe7  1  0.32469100  0.66234600  0.66234600  1
  Fe  Fe8  1  0.66234600  0.32469100  0.66234600  1
  Fe  Fe9  1  0.33765400  0.00000000  0.66234600  1
  Fe  Fe10  1  0.66234600  0.33765400  0.00000000  1
  Fe  Fe11  1  0.33765400  0.66234600  0.00000000  1
  Fe  Fe12  1  0.33765400  0.67530900  0.33765400  1
  Fe  Fe13  1  0.00000000  0.66234600  0.33765400  1
  Fe  Fe14  1  0.66234600  0.00000000  0.33765400  1
  Fe  Fe15  1  0.67530900  0.33765400  0.33765400  1
  O  O0  1  0.00000000  0.00000000  0.00000000  1
loop_
_geom_bond_atom_site_label_1
_geom_bond_atom_site_label_2
_geom_bond_distance
_geom_bond_site_symmetry_2
Ho0 O0 2.469503 1_665
Ho1 O0 2.469498 1_555
Ho2 O0 2.469503 1_656
Ho3 O0 2.469498 1_566
Ho4 O0 2.469498 1_555
Ho5 O0 2.469494 1_555
Fe0 Fe8 2.623568 1_454
Fe0 Fe12 2.623568 1_555
Fe0 Fe13 2.623569 1_555
Fe0 Fe11 2.623569 1_555
Fe0 Fe6 2.623569 1_554
Fe0 Fe10 2.623569 1_455
Fe0 Ho3 3.326210 1_554
Fe0 Ho5 3.326216 1_555
Fe0 Ho1 3.326216 1_565
Fe0 Ho0 3.326216 1_455
Fe0 Ho2 3.326216 1_454
Fe0 Ho4 3.326223 1_555
Fe1 Fe7 2.623568 1_544
Fe1 Fe15 2.623568 1_555
Fe1 Fe10 2.623569 1_555
Fe1 Fe11 2.623569 1_545
Fe1 Fe14 2.623569 1_555
Fe1 Fe9 2.623569 1_554
Fe1 Ho5 3.326216 1_555
Fe1 Ho4 3.326216 1_655
Fe1 Ho3 3.326216 1_544
Fe1 Ho2 3.326216 1_554
Fe1 Ho0 3.326216 1_545
Fe1 Ho1 3.326223 1_555
Fe2 Fe5 2.623568 1_445
Fe2 Fe4 2.623568 1_555
Fe2 Fe6 2.623569 1_555
Fe2 Fe9 2.623569 1_555
Fe2 Ho1 3.326210 1_555
Fe2 Ho4 3.326210 1_555
Fe2 Ho5 3.326216 1_556
Fe2 Ho0 3.326216 1_445
Fe2 Ho2 3.326216 1_455
Fe2 Ho3 3.326223 1_545
Fe3 Fe4 2.623576 1_555
Fe3 Fe5 2.623576 1_555
Fe3 Fe8 2.623576 1_555
Fe3 Fe7 2.623576 1_555
Fe3 Ho5 3.326216 1_555
Fe3 Ho1 3.326216 1_555
Fe3 Ho3 3.326216 1_655
Fe3 Ho4 3.326216 1_555
Fe3 Ho2 3.326216 1_565
Fe3 Ho0 3.326216 1_556
Fe4 Fe9 2.715926 1_555
Fe4 Fe6 2.715926 1_555
Fe4 Fe7 2.715934 1_555
Fe4 Fe8 2.715934 1_555
Fe4 Ho0 3.104677 1_556
Fe4 Ho5 3.104677 1_556
Fe4 Ho1 3.251964 1_555
Fe4 Ho4 3.251964 1_555
Fe5 Ho0 3.104670 1_555
Fe5 Ho5 3.104684 1_555
Fe5 Ho2 3.251968 1_565
Fe5 Ho3 3.251973 1_655
Fe6 Fe8 2.715926 1_455
Fe6 Fe7 3.052729 1_555
Fe6 Ho3 3.104677 1_555
Fe6 Ho4 3.104677 1_555
Fe6 Ho2 3.251962 1_455
Fe6 Ho5 3.251964 1_556
Fe7 Fe9 2.715926 1_565
Fe7 Ho3 3.104673 1_555
Fe7 Ho4 3.104680 1_555
Fe7 Ho2 3.251968 1_565
Fe7 Ho0 3.251968 1_556
Fe8 Fe9 3.052729 1_555
Fe8 Ho2 3.104670 1_555
Fe8 Ho1 3.104680 1_555
Fe8 Ho3 3.251964 1_655
Fe8 Ho0 3.251968 1_556
Fe9 Ho1 3.104677 1_555
Fe9 Ho2 3.104678 1_555
Fe9 Ho5 3.251964 1_556
Fe9 Ho3 3.251968 1_545
Fe10 Fe8 2.715926 1_554
Fe10 Fe15 2.715926 1_555
Fe10 Fe13 2.715929 1_655
Fe10 Fe9 2.715929 1_554
Fe10 Fe5 3.052729 1_555
Fe10 Fe4 3.052729 1_554
Fe10 Ho0 3.104678 1_555
Fe10 Ho5 3.104685 1_555
Fe10 Ho2 3.251962 1_554
Fe10 Ho4 3.251968 1_655
Fe11 Fe7 2.715926 1_554
Fe11 Fe12 2.715926 1_555
Fe11 Fe6 2.715929 1_554
Fe11 Fe14 2.715929 1_565
Fe11 Fe5 3.052729 1_555
Fe11 Fe4 3.052729 1_554
Fe11 Ho0 3.104678 1_555
Fe11 Ho5 3.104685 1_555
Fe11 Ho3 3.251958 1_554
Fe11 Ho1 3.251968 1_565
Fe12 Fe3 2.623576 1_555
Fe12 Fe13 2.715926 1_555
Fe12 Fe5 2.715934 1_555
Fe12 Fe7 2.715934 1_555
Fe12 Fe9 3.052729 1_565
Fe12 Fe14 3.052729 1_565
Fe12 Ho1 3.104673 1_565
Fe12 Ho2 3.104677 1_565
Fe12 Ho5 3.251970 1_555
Fe12 Ho4 3.251973 1_555
Fe13 Fe2 2.623569 1_565
Fe13 Fe5 2.715926 1_455
Fe13 Fe9 2.715929 1_565
Fe13 Fe7 3.052729 1_555
Fe13 Fe15 3.052729 1_455
Fe13 Ho3 3.104686 1_555
Fe13 Ho4 3.104686 1_555
Fe13 Ho1 3.251958 1_565
Fe13 Ho0 3.251962 1_455
Fe14 Fe2 2.623569 1_655
Fe14 Fe5 2.715926 1_545
Fe14 Fe15 2.715926 1_555
Fe14 Fe6 2.715929 1_655
Fe14 Fe8 3.052729 1_555
Fe14 Ho2 3.104678 1_555
Fe14 Ho1 3.104686 1_555
Fe14 Ho4 3.251958 1_655
Fe14 Ho0 3.251962 1_545
Fe15 Fe3 2.623576 1_555
Fe15 Fe5 2.715934 1_555
Fe15 Fe8 2.715934 1_555
Fe15 Fe6 3.052729 1_655
Fe15 Ho4 3.104673 1_655
Fe15 Ho3 3.104680 1_655
Fe15 Ho5 3.251970 1_555
Fe15 Ho1 3.251973 1_555
