# generated using pymatgen
data_Er(AlFe2)4
_symmetry_space_group_name_H-M   'P 1'
_cell_length_a   4.94866200
_cell_length_b   6.49106786
_cell_length_c   6.49106786
_cell_angle_alpha   81.64500555
_cell_angle_beta   67.59257846
_cell_angle_gamma   67.59257846
_symmetry_Int_Tables_number   1
_chemical_formula_structural   Er(AlFe2)4
_chemical_formula_sum   'Er1 Al4 Fe8'
_cell_volume   178.20947430
_cell_formula_units_Z   1
loop_
 _symmetry_equiv_pos_site_id
 _symmetry_equiv_pos_as_xyz
  1  'x, y, z'
loop_
 _atom_site_type_symbol
 _atom_site_label
 _atom_site_symmetry_multiplicity
 _atom_site_fract_x
 _atom_site_fract_y
 _atom_site_fract_z
 _atom_site_occupancy
  Er  Er0  1  0.00000000  0.00000000  0.00000000  1
  Al  Al0  1  0.34454300  0.65545700  0.65545700  1
  Al  Al1  1  0.65545700  0.34454300  0.34454300  1
  Al  Al2  1  0.00000000  0.34454300  0.65545700  1
  Al  Al3  1  0.00000000  0.65545700  0.34454300  1
  Fe  Fe0  1  0.50000000  0.00000000  0.50000000  1
  Fe  Fe1  1  0.00000000  0.00000000  0.50000000  1
  Fe  Fe2  1  0.00000000  0.50000000  0.00000000  1
  Fe  Fe3  1  0.50000000  0.50000000  0.00000000  1
  Fe  Fe4  1  0.27031700  0.22968300  0.22968300  1
  Fe  Fe5  1  0.72968300  0.77031700  0.77031700  1
  Fe  Fe6  1  0.50000000  0.77031700  0.22968300  1
  Fe  Fe7  1  0.50000000  0.22968300  0.77031700  1
loop_
_geom_bond_atom_site_label_1
_geom_bond_atom_site_label_2
_geom_bond_distance
_geom_bond_site_symmetry_2
Er0 Fe4 3.149897 1_555
Er0 Fe6 3.149897 1_545
Er0 Fe7 3.149897 1_554
Er0 Fe4 3.149897 1_455
Er0 Fe5 3.149897 1_544
Er0 Fe7 3.149897 1_454
Er0 Fe6 3.149897 1_445
Er0 Fe5 3.149897 1_444
Er0 Fe1 3.245534 1_554
Er0 Fe2 3.245534 1_555
Er0 Fe1 3.245534 1_555
Er0 Fe3 3.245534 1_545
Er0 Fe3 3.245534 1_455
Er0 Fe0 3.245534 1_554
Er0 Fe0 3.245534 1_455
Er0 Fe2 3.245534 1_545
Al0 Fe2 2.583758 1_556
Al0 Fe1 2.583758 1_565
Al0 Fe0 2.583758 1_565
Al0 Fe3 2.583758 1_556
Al0 Al1 2.638620 1_555
Al0 Fe7 2.646396 1_555
Al0 Fe6 2.646396 1_555
Al0 Fe5 2.659418 1_555
Al0 Fe5 2.659418 1_455
Al0 Er0 2.924017 1_566
Al1 Fe1 2.583758 1_655
Al1 Fe3 2.583758 1_555
Al1 Fe0 2.583758 1_555
Al1 Fe2 2.583758 1_655
Al1 Fe6 2.646396 1_555
Al1 Fe7 2.646396 1_555
Al1 Fe4 2.659418 1_555
Al1 Fe4 2.659418 1_655
Al1 Er0 2.924017 1_655
Al2 Fe1 2.583758 1_555
Al2 Fe3 2.583758 1_456
Al2 Fe0 2.583758 1_555
Al2 Fe2 2.583758 1_556
Al2 Al3 2.638620 1_555
Al2 Fe5 2.646396 1_455
Al2 Fe4 2.646396 1_555
Al2 Fe7 2.659418 1_555
Al2 Fe7 2.659418 1_455
Al2 Er0 2.924017 1_556
Al3 Fe1 2.583758 1_565
Al3 Fe0 2.583758 1_465
Al3 Fe3 2.583758 1_555
Al3 Fe2 2.583758 1_555
Al3 Fe5 2.646396 1_455
Al3 Fe4 2.646396 1_555
Al3 Fe6 2.659418 1_555
Al3 Fe6 2.659418 1_455
Al3 Er0 2.924017 1_565
Fe0 Fe7 2.462065 1_555
Fe0 Fe5 2.462065 1_545
Fe0 Fe4 2.462065 1_555
Fe0 Fe6 2.462065 1_545
Fe0 Fe1 2.474331 1_555
Fe0 Fe1 2.474331 1_655
Fe1 Fe7 2.462065 1_455
Fe1 Fe4 2.462065 1_555
Fe1 Fe5 2.462065 1_445
Fe1 Fe6 2.462065 1_545
Fe2 Fe6 2.462065 1_455
Fe2 Fe4 2.462065 1_555
Fe2 Fe7 2.462065 1_554
Fe2 Fe5 2.462065 1_454
Fe2 Fe3 2.474331 1_555
Fe2 Fe3 2.474331 1_455
Fe3 Fe6 2.462065 1_555
Fe3 Fe5 2.462065 1_554
Fe3 Fe4 2.462065 1_555
Fe3 Fe7 2.462065 1_554
Fe4 Fe7 2.756642 1_554
Fe4 Fe6 2.756642 1_545
Fe5 Fe6 2.756642 1_556
Fe5 Fe7 2.756642 1_565
