# generated using pymatgen
data_Li2V2F7
_symmetry_space_group_name_H-M   'P 1'
_cell_length_a   6.33317200
_cell_length_b   6.67913113
_cell_length_c   7.61072390
_cell_angle_alpha   111.36950342
_cell_angle_beta   97.45040511
_cell_angle_gamma   108.11507577
_symmetry_Int_Tables_number   1
_chemical_formula_structural   Li2V2F7
_chemical_formula_sum   'Li4 V4 F14'
_cell_volume   273.99531614
_cell_formula_units_Z   2
loop_
 _symmetry_equiv_pos_site_id
 _symmetry_equiv_pos_as_xyz
  1  'x, y, z'
loop_
 _atom_site_type_symbol
 _atom_site_label
 _atom_site_symmetry_multiplicity
 _atom_site_fract_x
 _atom_site_fract_y
 _atom_site_fract_z
 _atom_site_occupancy
  Li  Li0  1  0.08590900  0.35790100  0.81797300  1
  Li  Li1  1  0.33262100  0.64813700  0.11032400  1
  Li  Li2  1  0.66737900  0.35186300  0.88967600  1
  Li  Li3  1  0.91409100  0.64209900  0.18202700  1
  V  V0  1  0.23050800  0.15548300  0.57781400  1
  V  V1  1  0.36193800  0.07087500  0.26201800  1
  V  V2  1  0.63806200  0.92912500  0.73798200  1
  V  V3  1  0.76949200  0.84451700  0.42218600  1
  F  F0  1  0.12065700  0.42524700  0.34401400  1
  F  F1  1  0.19587500  0.87203500  0.11522100  1
  F  F2  1  0.09622600  0.97657000  0.38665700  1
  F  F3  1  0.34375300  0.85652100  0.81295100  1
  F  F4  1  0.25692500  0.36705400  0.06512900  1
  F  F5  1  0.33472900  0.31295900  0.75847400  1
  F  F6  1  0.51516200  0.21358500  0.48420400  1
  F  F7  1  0.48483800  0.78641500  0.51579600  1
  F  F8  1  0.66527100  0.68704100  0.24152600  1
  F  F9  1  0.74307500  0.63294600  0.93487100  1
  F  F10  1  0.65624700  0.14347900  0.18704900  1
  F  F11  1  0.90377400  0.02343000  0.61334300  1
  F  F12  1  0.80412500  0.12796500  0.88477900  1
  F  F13  1  0.87934300  0.57475300  0.65598600  1
loop_
_geom_bond_atom_site_label_1
_geom_bond_atom_site_label_2
_geom_bond_distance
_geom_bond_site_symmetry_2
F1 V1 1.365092 1_565
F1 Li1 1.939299 1_555
F1 Li3 2.214024 1_455
F2 V0 1.431085 1_565
F2 Li3 2.035397 1_455
F2 V3 2.077706 1_455
F2 V1 2.078138 1_565
F3 V2 1.987519 1_555
F4 Li1 1.673225 1_555
F4 Li0 2.015381 1_554
F5 V0 1.308226 1_555
F5 Li0 1.777221 1_555
F5 Li2 2.104247 1_555
F6 V1 1.591951 1_555
F6 V0 2.001910 1_555
F7 V2 1.591951 1_555
F7 V3 2.001910 1_555
F8 V3 1.308226 1_555
F8 Li3 1.777221 1_555
F8 Li1 2.104247 1_555
F9 Li2 1.673225 1_555
F9 Li3 2.015381 1_556
F10 V1 1.987519 1_555
F11 V3 1.431085 1_545
F11 Li0 2.035397 1_655
F11 V0 2.077706 1_655
F11 V2 2.078138 1_545
F12 V2 1.365092 1_545
F12 Li2 1.939299 1_555
F12 Li0 2.214024 1_655
