# generated using pymatgen
data_Pu3Se4
_symmetry_space_group_name_H-M   'P 1'
_cell_length_a   7.66656318
_cell_length_b   7.66640359
_cell_length_c   7.66649561
_cell_angle_alpha   109.50129975
_cell_angle_beta   109.55311020
_cell_angle_gamma   109.36005356
_symmetry_Int_Tables_number   1
_chemical_formula_structural   Pu3Se4
_chemical_formula_sum   'Pu6 Se8'
_cell_volume   346.86630306
_cell_formula_units_Z   2
loop_
 _symmetry_equiv_pos_site_id
 _symmetry_equiv_pos_as_xyz
  1  'x, y, z'
loop_
 _atom_site_type_symbol
 _atom_site_label
 _atom_site_symmetry_multiplicity
 _atom_site_fract_x
 _atom_site_fract_y
 _atom_site_fract_z
 _atom_site_occupancy
  Pu  Pu0  1  0.12435202  0.87436189  0.25000466  1
  Pu  Pu1  1  0.37562846  0.62563086  0.74999509  1
  Pu  Pu2  1  0.87516662  0.24999127  0.12518393  1
  Pu  Pu3  1  0.62481952  0.75000071  0.37482963  1
  Pu  Pu4  1  0.24999662  0.12520935  0.87521258  1
  Pu  Pu5  1  0.75000844  0.37480870  0.62480407  1
  Se  Se0  1  0.35219159  0.35169203  0.35206984  1
  Se  Se1  1  0.14780077  0.49986088  0.99952093  1
  Se  Se2  1  0.00040989  0.14832630  0.50051356  1
  Se  Se3  1  0.85194806  0.85215414  0.85225662  1
  Se  Se4  1  0.49963444  0.00012770  0.14791907  1
  Se  Se5  1  0.64800998  0.50030155  0.00018199  1
  Se  Se6  1  0.49988713  -0.00030846  0.64771088  1
  Se  Se7  1  0.00014846  0.64784308  0.49979714  1
loop_
_geom_bond_atom_site_label_1
_geom_bond_atom_site_label_2
_geom_bond_distance
_geom_bond_site_symmetry_2
Pu0 Se6 2.973686 1_565
Pu0 Se3 2.973859 1_454
Pu0 Se2 2.975608 1_565
Pu0 Se1 2.975782 1_554
Pu0 Se7 3.151889 1_555
Pu0 Se5 3.152170 1_455
Pu0 Se0 3.160698 1_565
Pu0 Se4 3.160988 1_565
Pu1 Se7 2.973542 1_555
Pu1 Se5 2.973637 1_556
Pu1 Se4 2.975669 1_566
Pu1 Se0 2.975714 1_555
Pu1 Se3 3.152102 1_555
Pu1 Se6 3.152188 1_565
Pu1 Se2 3.160462 1_555
Pu1 Se1 3.160931 1_555
Pu2 Se7 2.973417 1_655
Pu2 Se3 2.973565 1_544
Pu2 Se4 2.981772 1_555
Pu2 Se1 2.981918 1_654
Pu2 Se2 3.154898 1_655
Pu2 Se0 3.155027 1_655
Pu2 Se6 3.155914 1_554
Pu2 Se5 3.155972 1_555
Pu3 Se6 2.973451 1_565
Pu3 Se5 2.973609 1_555
Pu3 Se0 2.981958 1_555
Pu3 Se2 2.982195 1_665
Pu3 Se1 3.154932 1_554
Pu3 Se4 3.155036 1_565
Pu3 Se3 3.155681 1_555
Pu3 Se7 3.156102 1_655
Pu4 Se2 2.971572 1_555
Pu4 Se4 2.971608 1_556
Pu4 Se5 2.980625 1_556
Pu4 Se3 2.980748 1_445
Pu4 Se1 3.152149 1_555
Pu4 Se0 3.152213 1_556
Pu4 Se7 3.158418 1_545
Pu4 Se6 3.158579 1_555
Pu5 Se0 2.971672 1_555
Pu5 Se1 2.971694 1_655
Pu5 Se6 2.980697 1_555
Pu5 Se7 2.980886 1_655
Pu5 Se4 3.152374 1_555
Pu5 Se2 3.152426 1_655
Pu5 Se3 3.158266 1_555
Pu5 Se5 3.158416 1_556
