# generated using pymatgen
data_LiTaS2
_symmetry_space_group_name_H-M   'P 1'
_cell_length_a   3.34861410
_cell_length_b   3.34861410
_cell_length_c   12.88805856
_cell_angle_alpha   90.00000000
_cell_angle_beta   90.00000000
_cell_angle_gamma   120.00002839
_symmetry_Int_Tables_number   1
_chemical_formula_structural   LiTaS2
_chemical_formula_sum   'Li2 Ta2 S4'
_cell_volume   125.15500172
_cell_formula_units_Z   2
loop_
 _symmetry_equiv_pos_site_id
 _symmetry_equiv_pos_as_xyz
  1  'x, y, z'
loop_
 _atom_site_type_symbol
 _atom_site_label
 _atom_site_symmetry_multiplicity
 _atom_site_fract_x
 _atom_site_fract_y
 _atom_site_fract_z
 _atom_site_occupancy
  Li  Li0  1  0.00000000  0.00000000  0.00000000  1
  Li  Li1  1  0.00000000  0.00000000  0.50000000  1
  Ta  Ta0  1  0.00000000  0.00000000  0.25000000  1
  Ta  Ta1  1  0.00000000  0.00000000  0.75000000  1
  S  S0  1  0.33333300  0.66666700  0.12787625  1
  S  S1  1  0.66666700  0.33333300  0.87212375  1
  S  S2  1  0.66666700  0.33333300  0.62787625  1
  S  S3  1  0.33333300  0.66666700  0.37212375  1
loop_
_geom_bond_atom_site_label_1
_geom_bond_atom_site_label_2
_geom_bond_distance
_geom_bond_site_symmetry_2
Li0 S1 2.540451 1_454
Li0 S0 2.540451 1_545
Li0 S0 2.540452 1_555
Li0 S0 2.540452 1_445
Li0 S1 2.540452 1_554
Li0 S1 2.540452 1_444
Li1 S3 2.540451 1_545
Li1 S2 2.540451 1_455
Li1 S3 2.540452 1_555
Li1 S3 2.540452 1_445
Li1 S2 2.540452 1_555
Li1 S2 2.540452 1_445
S0 Ta0 2.492993 1_565
S0 Ta0 2.492994 1_665
S0 Ta0 2.492994 1_555
S1 Ta1 2.492993 1_655
S1 Ta1 2.492994 1_665
S1 Ta1 2.492994 1_555
S2 Ta1 2.492993 1_655
S2 Ta1 2.492994 1_665
S2 Ta1 2.492994 1_555
S3 Ta0 2.492993 1_565
S3 Ta0 2.492994 1_665
S3 Ta0 2.492994 1_555
