# generated using pymatgen
data_BaLaMnInO6
_symmetry_space_group_name_H-M   'P 1'
_cell_length_a   5.73568251
_cell_length_b   5.73568251
_cell_length_c   5.73568251
_cell_angle_alpha   60.00000000
_cell_angle_beta   60.00000000
_cell_angle_gamma   60.00000000
_symmetry_Int_Tables_number   1
_chemical_formula_structural   BaLaMnInO6
_chemical_formula_sum   'Ba1 La1 Mn1 In1 O6'
_cell_volume   133.42595310
_cell_formula_units_Z   1
loop_
 _symmetry_equiv_pos_site_id
 _symmetry_equiv_pos_as_xyz
  1  'x, y, z'
loop_
 _atom_site_type_symbol
 _atom_site_label
 _atom_site_symmetry_multiplicity
 _atom_site_fract_x
 _atom_site_fract_y
 _atom_site_fract_z
 _atom_site_occupancy
  Ba  Ba0  1  0.00000000  0.00000000  0.00000000  1
  La  La0  1  0.50000000  0.50000000  0.50000000  1
  Mn  Mn0  1  0.25000000  0.25000000  0.25000000  1
  In  In0  1  0.75000000  0.75000000  0.75000000  1
  O  O0  1  0.48734900  0.48734900  0.01265100  1
  O  O1  1  0.01265100  0.01265100  0.48734900  1
  O  O2  1  0.01265100  0.48734900  0.48734900  1
  O  O3  1  0.48734900  0.01265100  0.01265100  1
  O  O4  1  0.48734900  0.01265100  0.48734900  1
  O  O5  1  0.01265100  0.48734900  0.01265100  1
loop_
_geom_bond_atom_site_label_1
_geom_bond_atom_site_label_2
_geom_bond_distance
_geom_bond_site_symmetry_2
Ba0 O3 2.869677 1_455
Ba0 O0 2.869677 1_455
Ba0 O2 2.869677 1_545
Ba0 O3 2.869677 1_555
Ba0 O4 2.869677 1_554
Ba0 O5 2.869677 1_545
Ba0 O4 2.869677 1_455
Ba0 O1 2.869677 1_555
Ba0 O1 2.869677 1_554
Ba0 O5 2.869677 1_555
Ba0 O0 2.869677 1_545
Ba0 O2 2.869677 1_554
La0 O0 2.869677 1_556
La0 O1 2.869677 1_655
La0 O4 2.869677 1_565
La0 O2 2.869677 1_655
La0 O1 2.869677 1_565
La0 O5 2.869677 1_655
La0 O0 2.869677 1_555
La0 O5 2.869677 1_556
La0 O2 2.869677 1_555
La0 O3 2.869677 1_556
La0 O3 2.869677 1_565
La0 O4 2.869677 1_555
Mn0 O2 1.925252 1_555
Mn0 O0 1.925252 1_555
Mn0 O4 1.925252 1_555
Mn0 O3 1.925252 1_555
Mn0 O1 1.925252 1_555
Mn0 O5 1.925252 1_555
In0 O1 2.130488 1_665
In0 O3 2.130488 1_566
In0 O5 2.130488 1_656
In0 O4 2.130488 1_565
In0 O2 2.130488 1_655
In0 O0 2.130488 1_556
