# generated using pymatgen
data_Li6IrN4
_symmetry_space_group_name_H-M   'P 1'
_cell_length_a   6.74537100
_cell_length_b   6.74537100
_cell_length_c   4.87732400
_cell_angle_alpha   90.00000000
_cell_angle_beta   90.00000000
_cell_angle_gamma   90.00000000
_symmetry_Int_Tables_number   1
_chemical_formula_structural   Li6IrN4
_chemical_formula_sum   'Li12 Ir2 N8'
_cell_volume   221.91838797
_cell_formula_units_Z   2
loop_
 _symmetry_equiv_pos_site_id
 _symmetry_equiv_pos_as_xyz
  1  'x, y, z'
loop_
 _atom_site_type_symbol
 _atom_site_label
 _atom_site_symmetry_multiplicity
 _atom_site_fract_x
 _atom_site_fract_y
 _atom_site_fract_z
 _atom_site_occupancy
  Li  Li0  1  0.00000000  0.50000000  0.60095900  1
  Li  Li1  1  0.50000000  0.00000000  0.89904100  1
  Li  Li2  1  0.50000000  0.00000000  0.39904100  1
  Li  Li3  1  0.00000000  0.50000000  0.10095900  1
  Li  Li4  1  0.21241400  0.21241400  0.50000000  1
  Li  Li5  1  0.78758600  0.78758600  0.50000000  1
  Li  Li6  1  0.71241400  0.71241400  0.00000000  1
  Li  Li7  1  0.28758600  0.28758600  0.00000000  1
  Li  Li8  1  0.78758600  0.21241400  0.50000000  1
  Li  Li9  1  0.21241400  0.78758600  0.50000000  1
  Li  Li10  1  0.28758600  0.71241400  0.00000000  1
  Li  Li11  1  0.71241400  0.28758600  0.00000000  1
  Ir  Ir0  1  0.50000000  0.50000000  0.50000000  1
  Ir  Ir1  1  0.00000000  0.00000000  0.00000000  1
  N  N0  1  0.24812200  0.50000000  0.31781900  1
  N  N1  1  0.75187800  0.50000000  0.31781900  1
  N  N2  1  0.74812200  0.00000000  0.18218100  1
  N  N3  1  0.25187800  0.00000000  0.18218100  1
  N  N4  1  0.50000000  0.24812200  0.68218100  1
  N  N5  1  0.50000000  0.75187800  0.68218100  1
  N  N6  1  0.00000000  0.74812200  0.81781900  1
  N  N7  1  0.00000000  0.25187800  0.81781900  1
loop_
_geom_bond_atom_site_label_1
_geom_bond_atom_site_label_2
_geom_bond_distance
_geom_bond_site_symmetry_2
Li0 N6 1.979876 1_555
Li0 N7 1.979876 1_555
Li0 N0 2.169851 1_555
Li0 N1 2.169851 1_455
Li1 N4 1.979876 1_555
Li1 N5 1.979876 1_545
Li1 N2 2.169851 1_556
Li1 N3 2.169851 1_556
Li2 N2 1.979876 1_555
Li2 N3 1.979876 1_555
Li2 N4 2.169851 1_555
Li2 N5 2.169851 1_545
Li3 N0 1.979876 1_555
Li3 N1 1.979876 1_455
Li3 N6 2.169851 1_554
Li3 N7 2.169851 1_554
Li4 N7 2.127590 1_555
Li4 N3 2.127590 1_555
Li4 N4 2.147244 1_555
Li4 N0 2.147244 1_555
Li5 N6 2.127590 1_655
Li5 N2 2.127590 1_565
Li5 N5 2.147244 1_555
Li5 N1 2.147244 1_555
Li6 N1 2.127590 1_555
Li6 N5 2.127590 1_554
Li6 N2 2.147244 1_565
Li6 N6 2.147244 1_654
Li7 N0 2.127590 1_555
Li7 N4 2.127590 1_554
Li7 N3 2.147244 1_555
Li7 N7 2.147244 1_554
Li8 N7 2.127590 1_655
Li8 N2 2.127590 1_555
Li8 N4 2.147244 1_555
Li8 N1 2.147244 1_555
Li9 N6 2.127590 1_555
Li9 N3 2.127590 1_565
Li9 N5 2.147244 1_555
Li9 N0 2.147244 1_555
Li10 N0 2.127590 1_555
Li10 N5 2.127590 1_554
Li10 N3 2.147244 1_565
Li10 N6 2.147244 1_554
Li11 N1 2.127590 1_555
Li11 N4 2.127590 1_554
Li11 N2 2.147244 1_555
Li11 N7 2.147244 1_654
Ir0 N5 1.917334 1_555
Ir0 N1 1.917334 1_555
Ir0 N4 1.917334 1_555
Ir0 N0 1.917334 1_555
Ir1 N3 1.917334 1_555
Ir1 N2 1.917334 1_455
Ir1 N7 1.917334 1_554
Ir1 N6 1.917334 1_544
