# generated using pymatgen
data_Al4CrNi15
_symmetry_space_group_name_H-M   'P 1'
_cell_length_a   3.51980664
_cell_length_b   3.51980664
_cell_length_c   17.63574771
_cell_angle_alpha   90.00000000
_cell_angle_beta   90.00000000
_cell_angle_gamma   90.00000000
_symmetry_Int_Tables_number   1
_chemical_formula_structural   Al4CrNi15
_chemical_formula_sum   'Al4 Cr1 Ni15'
_cell_volume   218.48996235
_cell_formula_units_Z   1
loop_
 _symmetry_equiv_pos_site_id
 _symmetry_equiv_pos_as_xyz
  1  'x, y, z'
loop_
 _atom_site_type_symbol
 _atom_site_label
 _atom_site_symmetry_multiplicity
 _atom_site_fract_x
 _atom_site_fract_y
 _atom_site_fract_z
 _atom_site_occupancy
  Al  Al0  1  -0.00000000  -0.00000000  0.20073421  1
  Al  Al1  1  0.00000000  0.00000000  0.39995199  1
  Al  Al2  1  -0.00000000  -0.00000000  0.60004801  1
  Al  Al3  1  0.00000000  0.00000000  0.79926579  1
  Cr  Cr0  1  -0.00000000  -0.00000000  0.00000000  1
  Ni  Ni0  1  0.50000000  0.50000000  0.00000000  1
  Ni  Ni1  1  0.50000000  0.50000000  0.19932041  1
  Ni  Ni2  1  0.50000000  0.50000000  0.39934170  1
  Ni  Ni3  1  0.50000000  0.50000000  0.60065830  1
  Ni  Ni4  1  0.50000000  0.50000000  0.80067959  1
  Ni  Ni5  1  0.50000000  -0.00000000  0.09914381  1
  Ni  Ni6  1  0.50000000  -0.00000000  0.29957437  1
  Ni  Ni7  1  0.50000000  -0.00000000  0.50000000  1
  Ni  Ni8  1  0.50000000  0.00000000  0.70042563  1
  Ni  Ni9  1  0.50000000  0.00000000  0.90085619  1
  Ni  Ni10  1  -0.00000000  0.50000000  0.09914381  1
  Ni  Ni11  1  0.00000000  0.50000000  0.29957437  1
  Ni  Ni12  1  -0.00000000  0.50000000  0.50000000  1
  Ni  Ni13  1  -0.00000000  0.50000000  0.70042563  1
  Ni  Ni14  1  0.00000000  0.50000000  0.90085619  1
loop_
_geom_bond_atom_site_label_1
_geom_bond_atom_site_label_2
_geom_bond_distance
_geom_bond_site_symmetry_2
Al0 Ni11 2.477040 1_555
Al0 Ni11 2.477040 1_545
Al0 Ni6 2.477040 1_555
Al0 Ni6 2.477040 1_455
Al0 Ni1 2.489004 1_545
Al0 Ni1 2.489004 1_555
Al0 Ni1 2.489004 1_445
Al0 Ni1 2.489004 1_455
Al0 Ni5 2.511408 1_455
Al0 Ni10 2.511408 1_555
Al0 Ni10 2.511408 1_545
Al0 Ni5 2.511408 1_555
Al1 Ni2 2.488902 1_445
Al1 Ni2 2.488902 1_545
Al1 Ni2 2.488902 1_455
Al1 Ni2 2.488902 1_555
Al1 Ni12 2.492076 1_545
Al1 Ni12 2.492076 1_555
Al1 Ni7 2.492076 1_455
Al1 Ni7 2.492076 1_555
Al1 Ni11 2.496195 1_555
Al1 Ni11 2.496195 1_545
Al1 Ni6 2.496195 1_455
Al1 Ni6 2.496195 1_555
Al2 Ni3 2.488902 1_455
Al2 Ni3 2.488902 1_545
Al2 Ni3 2.488902 1_445
Al2 Ni3 2.488902 1_555
Al2 Ni12 2.492076 1_555
Al2 Ni12 2.492076 1_545
Al2 Ni7 2.492076 1_555
Al2 Ni7 2.492076 1_455
Al2 Ni13 2.496195 1_545
Al2 Ni8 2.496195 1_455
Al2 Ni13 2.496195 1_555
Al2 Ni8 2.496195 1_555
Al3 Ni8 2.477040 1_455
Al3 Ni13 2.477040 1_555
Al3 Ni13 2.477040 1_545
Al3 Ni8 2.477040 1_555
Al3 Ni4 2.489004 1_555
Al3 Ni4 2.489004 1_545
Al3 Ni4 2.489004 1_455
Al3 Ni4 2.489004 1_445
Al3 Ni9 2.511408 1_455
Al3 Ni14 2.511408 1_545
Al3 Ni14 2.511408 1_555
Al3 Ni9 2.511408 1_555
Cr0 Ni5 2.480811 1_455
Cr0 Ni10 2.480811 1_555
Cr0 Ni10 2.480811 1_545
Cr0 Ni5 2.480811 1_555
Cr0 Ni14 2.480811 1_544
Cr0 Ni9 2.480811 1_554
Cr0 Ni9 2.480811 1_454
Cr0 Ni14 2.480811 1_554
Cr0 Ni0 2.488879 1_445
Cr0 Ni0 2.488879 1_555
Cr0 Ni0 2.488879 1_455
Cr0 Ni0 2.488879 1_545
Ni0 Ni10 2.480811 1_555
Ni0 Ni5 2.480811 1_565
Ni0 Ni5 2.480811 1_555
Ni0 Ni10 2.480811 1_655
Ni0 Ni9 2.480811 1_564
Ni0 Ni14 2.480811 1_554
Ni0 Ni9 2.480811 1_554
Ni0 Ni14 2.480811 1_654
Ni1 Ni5 2.493682 1_565
Ni1 Ni10 2.493682 1_655
Ni1 Ni5 2.493682 1_555
Ni1 Ni10 2.493682 1_555
Ni1 Ni6 2.494649 1_565
Ni1 Ni11 2.494649 1_555
Ni1 Ni11 2.494649 1_655
Ni1 Ni6 2.494649 1_555
Ni2 Ni6 2.488574 1_555
Ni2 Ni6 2.488574 1_565
Ni2 Ni7 2.499708 1_555
Ni2 Ni7 2.499708 1_565
Ni3 Ni8 2.488574 1_565
Ni3 Ni8 2.488574 1_555
Ni3 Ni7 2.499708 1_555
Ni3 Ni7 2.499708 1_565
Ni4 Ni9 2.493682 1_565
Ni4 Ni9 2.493682 1_555
Ni4 Ni8 2.494649 1_565
Ni4 Ni8 2.494649 1_555
Ni10 Ni5 2.488879 1_565
Ni10 Ni5 2.488879 1_555
Ni10 Ni5 2.488879 1_455
Ni10 Ni5 2.488879 1_465
Ni11 Ni2 2.488574 1_455
Ni11 Ni2 2.488574 1_555
Ni11 Ni6 2.488879 1_555
Ni11 Ni6 2.488879 1_465
Ni11 Ni6 2.488879 1_565
Ni11 Ni6 2.488879 1_455
Ni12 Ni7 2.488879 1_455
Ni12 Ni7 2.488879 1_555
Ni12 Ni7 2.488879 1_565
Ni12 Ni7 2.488879 1_465
Ni12 Ni3 2.499708 1_555
Ni12 Ni3 2.499708 1_455
Ni12 Ni2 2.499708 1_555
Ni12 Ni2 2.499708 1_455
Ni13 Ni3 2.488574 1_455
Ni13 Ni3 2.488574 1_555
Ni13 Ni8 2.488879 1_465
Ni13 Ni8 2.488879 1_455
Ni13 Ni8 2.488879 1_565
Ni13 Ni8 2.488879 1_555
Ni13 Ni4 2.494649 1_455
Ni13 Ni4 2.494649 1_555
Ni14 Ni9 2.488879 1_555
Ni14 Ni9 2.488879 1_465
Ni14 Ni9 2.488879 1_455
Ni14 Ni9 2.488879 1_565
Ni14 Ni4 2.493682 1_555
Ni14 Ni4 2.493682 1_455
