# generated using pymatgen
data_RbLa2Ti3O9
_symmetry_space_group_name_H-M   'P 1'
_cell_length_a   5.62593420
_cell_length_b   5.62593420
_cell_length_c   6.83441600
_cell_angle_alpha   90.00000000
_cell_angle_beta   90.00000000
_cell_angle_gamma   120.00000240
_symmetry_Int_Tables_number   1
_chemical_formula_structural   RbLa2Ti3O9
_chemical_formula_sum   'Rb1 La2 Ti3 O9'
_cell_volume   187.33603703
_cell_formula_units_Z   1
loop_
 _symmetry_equiv_pos_site_id
 _symmetry_equiv_pos_as_xyz
  1  'x, y, z'
loop_
 _atom_site_type_symbol
 _atom_site_label
 _atom_site_symmetry_multiplicity
 _atom_site_fract_x
 _atom_site_fract_y
 _atom_site_fract_z
 _atom_site_occupancy
  Rb  Rb0  1  0.00000000  0.00000000  0.00000000  1
  La  La0  1  0.66666700  0.33333300  0.33175000  1
  La  La1  1  0.33333300  0.66666700  0.66825000  1
  Ti  Ti0  1  0.00000000  0.00000000  0.50000000  1
  Ti  Ti1  1  0.66666700  0.33333300  0.83788200  1
  Ti  Ti2  1  0.33333300  0.66666700  0.16211800  1
  O  O0  1  0.82764200  0.17235800  0.65420700  1
  O  O1  1  0.50000000  0.50000000  0.00000000  1
  O  O2  1  0.17235800  0.82764200  0.34579300  1
  O  O3  1  0.65528300  0.82764200  0.34579300  1
  O  O4  1  0.34471700  0.17235800  0.65420700  1
  O  O5  1  0.00000000  0.50000000  0.00000000  1
  O  O6  1  0.82764200  0.65528300  0.65420700  1
  O  O7  1  0.50000000  0.00000000  0.00000000  1
  O  O8  1  0.17235800  0.34471700  0.34579300  1
loop_
_geom_bond_atom_site_label_1
_geom_bond_atom_site_label_2
_geom_bond_distance
_geom_bond_site_symmetry_2
La0 O6 2.705047 1_555
La0 O4 2.705047 1_555
La0 O0 2.705047 1_555
La0 O5 2.788964 1_655
La0 O7 2.788964 1_555
La0 O1 2.788966 1_555
La0 O3 2.815145 1_545
La0 O8 2.815145 1_655
La0 O2 2.815150 1_545
La0 O2 2.815150 1_655
La0 O8 2.815156 1_555
La0 O3 2.815156 1_555
La1 O3 2.705047 1_555
La1 O8 2.705047 1_555
La1 O2 2.705047 1_555
La1 O5 2.788964 1_556
La1 O7 2.788964 1_566
La1 O1 2.788966 1_556
La1 O6 2.815145 1_455
La1 O4 2.815145 1_565
La1 O0 2.815150 1_565
La1 O0 2.815150 1_455
La1 O6 2.815156 1_555
La1 O4 2.815156 1_555
O0 Ti0 1.982812 1_655
O0 Ti1 2.009062 1_555
O0 Rb0 2.899304 1_656
O1 Ti2 1.966019 1_555
O1 Ti1 1.966019 1_554
O1 Rb0 2.812967 1_665
O1 Rb0 2.812967 1_555
O2 Ti0 1.982812 1_565
O2 Ti2 2.009062 1_555
O2 Rb0 2.899304 1_565
O3 Ti0 1.982816 1_665
O3 Ti2 2.009062 1_555
O3 Rb0 2.899307 1_665
O4 Ti0 1.982816 1_555
O4 Ti1 2.009062 1_555
O4 Rb0 2.899307 1_556
O5 Ti1 1.966015 1_454
O5 Ti2 1.966015 1_555
O5 Rb0 2.812967 1_565
O5 Rb0 2.812967 1_555
O6 Ti0 1.982816 1_665
O6 Ti1 2.009062 1_555
O6 Rb0 2.899307 1_666
O7 Ti2 1.966015 1_545
O7 Ti1 1.966015 1_554
O7 Rb0 2.812967 1_655
O7 Rb0 2.812967 1_555
O8 Ti0 1.982816 1_555
O8 Ti2 2.009062 1_555
O8 Rb0 2.899307 1_555
