# generated using pymatgen
data_Na3GaP8O23
_symmetry_space_group_name_H-M   'P 1'
_cell_length_a   12.12027400
_cell_length_b   12.12027400
_cell_length_c   12.12027400
_cell_angle_alpha   90.00000000
_cell_angle_beta   90.00000000
_cell_angle_gamma   90.00000000
_symmetry_Int_Tables_number   1
_chemical_formula_structural   Na3GaP8O23
_chemical_formula_sum   'Na12 Ga4 P32 O92'
_cell_volume   1780.48087793
_cell_formula_units_Z   4
loop_
 _symmetry_equiv_pos_site_id
 _symmetry_equiv_pos_as_xyz
  1  'x, y, z'
loop_
 _atom_site_type_symbol
 _atom_site_label
 _atom_site_symmetry_multiplicity
 _atom_site_fract_x
 _atom_site_fract_y
 _atom_site_fract_z
 _atom_site_occupancy
  Na  Na0  1  0.12500000  0.04405200  0.29405200  1
  Na  Na1  1  0.62500000  0.45594800  0.70594800  1
  Na  Na2  1  0.95594800  0.79405200  0.37500000  1
  Na  Na3  1  0.04405200  0.29405200  0.12500000  1
  Na  Na4  1  0.70594800  0.62500000  0.45594800  1
  Na  Na5  1  0.79405200  0.37500000  0.95594800  1
  Na  Na6  1  0.20594800  0.87500000  0.54405200  1
  Na  Na7  1  0.54405200  0.20594800  0.87500000  1
  Na  Na8  1  0.45594800  0.70594800  0.62500000  1
  Na  Na9  1  0.29405200  0.12500000  0.04405200  1
  Na  Na10  1  0.37500000  0.95594800  0.79405200  1
  Na  Na11  1  0.87500000  0.54405200  0.20594800  1
  Ga  Ga0  1  0.12500000  0.62500000  0.87500000  1
  Ga  Ga1  1  0.37500000  0.37500000  0.37500000  1
  Ga  Ga2  1  0.87500000  0.12500000  0.62500000  1
  Ga  Ga3  1  0.62500000  0.87500000  0.12500000  1
  P  P0  1  0.06894500  0.36156600  0.85440500  1
  P  P1  1  0.89559500  0.38843400  0.68105500  1
  P  P2  1  0.36156600  0.85440500  0.06894500  1
  P  P3  1  0.86156600  0.64559500  0.93105500  1
  P  P4  1  0.63843400  0.35440500  0.43105500  1
  P  P5  1  0.64559500  0.93105500  0.86156600  1
  P  P6  1  0.43105500  0.63843400  0.35440500  1
  P  P7  1  0.93105500  0.86156600  0.64559500  1
  P  P8  1  0.85440500  0.06894500  0.36156600  1
  P  P9  1  0.60440500  0.61156600  0.18105500  1
  P  P10  1  0.35440500  0.43105500  0.63843400  1
  P  P11  1  0.14559500  0.56894500  0.13843400  1
  P  P12  1  0.81894500  0.10440500  0.88843400  1
  P  P13  1  0.39559500  0.11156600  0.31894500  1
  P  P14  1  0.10440500  0.88843400  0.81894500  1
  P  P15  1  0.68105500  0.89559500  0.38843400  1
  P  P16  1  0.31894500  0.39559500  0.11156600  1
  P  P17  1  0.88843400  0.81894500  0.10440500  1
  P  P18  1  0.38843400  0.68105500  0.89559500  1
  P  P19  1  0.13843400  0.14559500  0.56894500  1
  P  P20  1  0.18105500  0.60440500  0.61156600  1
  P  P21  1  0.11156600  0.31894500  0.39559500  1
  P  P22  1  0.61156600  0.18105500  0.60440500  1
  P  P23  1  0.01771900  0.01771900  0.01771900  1
  P  P24  1  0.26771900  0.23228100  0.76771900  1
  P  P25  1  0.76771900  0.26771900  0.23228100  1
  P  P26  1  0.23228100  0.76771900  0.26771900  1
  P  P27  1  0.48228100  0.98228100  0.51771900  1
  P  P28  1  0.51771900  0.48228100  0.98228100  1
  P  P29  1  0.98228100  0.51771900  0.48228100  1
  P  P30  1  0.73228100  0.73228100  0.73228100  1
  P  P31  1  0.56894500  0.13843400  0.14559500  1
  O  O0  1  0.66165900  0.66165900  0.66165900  1
  O  O1  1  0.91165900  0.58834100  0.41165900  1
  O  O2  1  0.58834100  0.41165900  0.91165900  1
  O  O3  1  0.41165900  0.91165900  0.58834100  1
  O  O4  1  0.16165900  0.83834100  0.33834100  1
  O  O5  1  0.83834100  0.33834100  0.16165900  1
  O  O6  1  0.33834100  0.16165900  0.83834100  1
  O  O7  1  0.08834100  0.08834100  0.08834100  1
  O  O8  1  0.43728300  0.51142500  0.67950000  1
  O  O9  1  0.93728300  0.98857500  0.32050000  1
  O  O10  1  0.51142500  0.67950000  0.43728300  1
  O  O11  1  0.48857500  0.17950000  0.06271700  1
  O  O12  1  0.67950000  0.43728300  0.51142500  1
  O  O13  1  0.82050000  0.56271700  0.01142500  1
  O  O14  1  0.18728300  0.92950000  0.73857500  1
  O  O15  1  0.68728300  0.57050000  0.26142500  1
  O  O16  1  0.81271700  0.42950000  0.76142500  1
  O  O17  1  0.57050000  0.26142500  0.68728300  1
  O  O18  1  0.76142500  0.81271700  0.42950000  1
  O  O19  1  0.26142500  0.68728300  0.57050000  1
  O  O20  1  0.92950000  0.73857500  0.18728300  1
  O  O21  1  0.73857500  0.18728300  0.92950000  1
  O  O22  1  0.42950000  0.76142500  0.81271700  1
  O  O23  1  0.07050000  0.23857500  0.31271700  1
  O  O24  1  0.23857500  0.31271700  0.07050000  1
  O  O25  1  0.32050000  0.93728300  0.98857500  1
  O  O26  1  0.17950000  0.06271700  0.48857500  1
  O  O27  1  0.01142500  0.82050000  0.56271700  1
  O  O28  1  0.98857500  0.32050000  0.93728300  1
  O  O29  1  0.06271700  0.48857500  0.17950000  1
  O  O30  1  0.56271700  0.01142500  0.82050000  1
  O  O31  1  0.31271700  0.07050000  0.23857500  1
  O  O32  1  0.37500000  0.73323800  0.01676200  1
  O  O33  1  0.51676200  0.12500000  0.26676200  1
  O  O34  1  0.73830800  0.32750300  0.34411400  1
  O  O35  1  0.23323800  0.48323800  0.62500000  1
  O  O36  1  0.98323800  0.87500000  0.76676200  1
  O  O37  1  0.01676200  0.37500000  0.73323800  1
  O  O38  1  0.48323800  0.62500000  0.23323800  1
  O  O39  1  0.26676200  0.51676200  0.12500000  1
  O  O40  1  0.73323800  0.01676200  0.37500000  1
  O  O41  1  0.62500000  0.23323800  0.48323800  1
  O  O42  1  0.12500000  0.26676200  0.51676200  1
  O  O43  1  0.87500000  0.76676200  0.98323800  1
  O  O44  1  0.32750300  0.34411400  0.73830800  1
  O  O45  1  0.82750300  0.15588600  0.26169200  1
  O  O46  1  0.34411400  0.73830800  0.32750300  1
  O  O47  1  0.65588600  0.23830800  0.17249700  1
  O  O48  1  0.03736500  0.12127700  0.63654500  1
  O  O49  1  0.28736500  0.61345500  0.87127700  1
  O  O50  1  0.78736500  0.88654500  0.12872300  1
  O  O51  1  0.38654500  0.37127700  0.21263500  1
  O  O52  1  0.61345500  0.87127700  0.28736500  1
  O  O53  1  0.12872300  0.78736500  0.88654500  1
  O  O54  1  0.37127700  0.21263500  0.38654500  1
  O  O55  1  0.63654500  0.03736500  0.12127700  1
  O  O56  1  0.12127700  0.63654500  0.03736500  1
  O  O57  1  0.37872300  0.36345500  0.53736500  1
  O  O58  1  0.13654500  0.46263500  0.87872300  1
  O  O59  1  0.87872300  0.13654500  0.46263500  1
  O  O60  1  0.86345500  0.96263500  0.62127700  1
  O  O61  1  0.36345500  0.53736500  0.37872300  1
  O  O62  1  0.62127700  0.86345500  0.96263500  1
  O  O63  1  0.53736500  0.37872300  0.36345500  1
  O  O64  1  0.96263500  0.62127700  0.86345500  1
  O  O65  1  0.46263500  0.87872300  0.13654500  1
  O  O66  1  0.87127700  0.28736500  0.61345500  1
  O  O67  1  0.62872300  0.71263500  0.11345500  1
  O  O68  1  0.88654500  0.12872300  0.78736500  1
  O  O69  1  0.11345500  0.62872300  0.71263500  1
  O  O70  1  0.21263500  0.38654500  0.37127700  1
  O  O71  1  0.71263500  0.11345500  0.62872300  1
  O  O72  1  0.42249700  0.01169200  0.40588600  1
  O  O73  1  0.67249700  0.84411400  0.76169200  1
  O  O74  1  0.17249700  0.65588600  0.23830800  1
  O  O75  1  0.15588600  0.26169200  0.82750300  1
  O  O76  1  0.84411400  0.76169200  0.67249700  1
  O  O77  1  0.23830800  0.17249700  0.65588600  1
  O  O78  1  0.26169200  0.82750300  0.15588600  1
  O  O79  1  0.40588600  0.42249700  0.01169200  1
  O  O80  1  0.01169200  0.40588600  0.42249700  1
  O  O81  1  0.48830800  0.59411400  0.92249700  1
  O  O82  1  0.90588600  0.07750300  0.98830800  1
  O  O83  1  0.98830800  0.90588600  0.07750300  1
  O  O84  1  0.09411400  0.57750300  0.51169200  1
  O  O85  1  0.59411400  0.92249700  0.48830800  1
  O  O86  1  0.51169200  0.09411400  0.57750300  1
  O  O87  1  0.92249700  0.48830800  0.59411400  1
  O  O88  1  0.57750300  0.51169200  0.09411400  1
  O  O89  1  0.07750300  0.98830800  0.90588600  1
  O  O90  1  0.76169200  0.67249700  0.84411400  1
  O  O91  1  0.76676200  0.98323800  0.87500000  1
loop_
_geom_bond_atom_site_label_1
_geom_bond_atom_site_label_2
_geom_bond_distance
_geom_bond_site_symmetry_2
Na0 O31 2.394018 1_555
Na0 O9 2.394018 1_445
Na0 O23 2.458888 1_555
Na0 O26 2.458888 1_555
Na0 O7 2.588818 1_555
Na0 O4 2.588818 1_545
Na1 O16 2.394018 1_555
Na1 O8 2.394018 1_555
Na1 O12 2.458888 1_555
Na1 O17 2.458888 1_555
Na1 O2 2.588818 1_555
Na1 O0 2.588818 1_555
Na2 O20 2.394018 1_555
Na2 O27 2.394018 1_655
Na2 O18 2.458888 1_555
Na2 O9 2.458888 1_555
Na2 O1 2.588818 1_555
Na2 O4 2.588818 1_655
Na3 O23 2.394018 1_555
Na3 O28 2.394018 1_454
Na3 O24 2.458888 1_555
Na3 O29 2.458888 1_555
Na3 O7 2.588818 1_555
Na3 O5 2.588818 1_455
Na4 O18 2.394018 1_555
Na4 O12 2.394018 1_555
Na4 O10 2.458888 1_555
Na4 O15 2.458888 1_555
Na4 O1 2.588818 1_555
Na4 O0 2.588818 1_555
Na5 O21 2.394018 1_555
Na5 O13 2.394018 1_556
Na5 O16 2.458888 1_555
Na5 O28 2.458888 1_555
Na5 O2 2.588818 1_555
Na5 O5 2.588818 1_556
Na6 O19 2.394018 1_555
Na6 O26 2.394018 1_565
Na6 O14 2.458888 1_555
Na6 O27 2.458888 1_555
Na6 O4 2.588818 1_555
Na6 O3 2.588818 1_555
Na7 O17 2.394018 1_555
Na7 O11 2.394018 1_556
Na7 O30 2.458888 1_555
Na7 O21 2.458888 1_555
Na7 O6 2.588818 1_555
Na7 O2 2.588818 1_555
Na8 O22 2.394018 1_555
Na8 O10 2.394018 1_555
Na8 O8 2.458888 1_555
Na8 O19 2.458888 1_555
Na8 O3 2.588818 1_555
Na8 O0 2.588818 1_555
Na9 O24 2.394018 1_555
Na9 O25 2.394018 1_544
Na9 O31 2.458888 1_555
Na9 O11 2.458888 1_555
Na9 O6 2.588818 1_554
Na9 O7 2.588818 1_555
Na10 O14 2.394018 1_555
Na10 O30 2.394018 1_565
Na10 O22 2.458888 1_555
Na10 O25 2.458888 1_555
Na10 O3 2.588818 1_555
Na10 O6 2.588818 1_565
Na11 O15 2.394018 1_555
Na11 O29 2.394018 1_655
Na11 O20 2.458888 1_555
Na11 O13 2.458888 1_555
Na11 O5 2.588818 1_555
Na11 O1 2.588818 1_555
Ga0 O56 1.973393 1_556
Ga0 O53 1.973393 1_555
Ga0 O69 1.973393 1_555
Ga0 O49 1.973393 1_555
Ga0 O64 1.973393 1_455
Ga0 O58 1.973393 1_555
Ga1 O70 1.973393 1_555
Ga1 O51 1.973393 1_555
Ga1 O54 1.973393 1_555
Ga1 O61 1.973393 1_555
Ga1 O63 1.973393 1_555
Ga1 O57 1.973393 1_555
Ga2 O48 1.973393 1_655
Ga2 O68 1.973393 1_555
Ga2 O71 1.973393 1_555
Ga2 O66 1.973393 1_555
Ga2 O60 1.973393 1_545
Ga2 O59 1.973393 1_555
Ga3 O55 1.973393 1_565
Ga3 O50 1.973393 1_555
Ga3 O67 1.973393 1_555
Ga3 O52 1.973393 1_555
Ga3 O62 1.973393 1_554
Ga3 O65 1.973393 1_555
O0 P30 1.482563 1_555
O1 P29 1.482563 1_555
O2 P28 1.482563 1_555
O3 P27 1.482563 1_555
O4 P26 1.482563 1_555
O5 P25 1.482563 1_555
O6 P24 1.482563 1_555
O7 P23 1.482563 1_555
O8 P10 1.485142 1_555
O9 P8 1.485142 1_565
O10 P6 1.485142 1_555
O11 P31 1.485142 1_555
O12 P4 1.485142 1_555
O13 P3 1.485142 1_554
O14 P14 1.485142 1_555
O15 P9 1.485142 1_555
O16 P1 1.485142 1_555
O17 P22 1.485142 1_555
O18 P15 1.485142 1_555
O19 P20 1.485142 1_555
O20 P17 1.485142 1_555
O21 P12 1.485142 1_555
O22 P18 1.485142 1_555
O23 P21 1.485142 1_555
O24 P16 1.485142 1_555
O25 P2 1.485142 1_556
O26 P19 1.485142 1_555
O27 P7 1.485142 1_455
O28 P0 1.485142 1_655
O29 P11 1.485142 1_555
O30 P5 1.485142 1_545
O31 P13 1.485142 1_555
O32 P2 1.607250 1_555
O32 P18 1.607250 1_554
O33 P13 1.607250 1_555
O33 P31 1.607250 1_555
O34 P25 1.577767 1_555
O34 P4 1.637685 1_555
O35 P10 1.607250 1_555
O35 P20 1.607250 1_555
O36 P7 1.607250 1_555
O36 P14 1.607250 1_655
O37 P0 1.607250 1_555
O37 P1 1.607250 1_455
O38 P6 1.607250 1_555
O38 P9 1.607250 1_555
O39 P16 1.607250 1_555
O39 P11 1.607250 1_555
O40 P8 1.607250 1_555
O40 P15 1.607250 1_545
O41 P4 1.607250 1_555
O41 P22 1.607250 1_555
O42 P21 1.607250 1_555
O42 P19 1.607250 1_555
O43 P17 1.607250 1_556
O43 P3 1.607250 1_555
O44 P24 1.577767 1_555
O44 P10 1.637685 1_555
O45 P25 1.577767 1_555
O45 P8 1.637685 1_555
O46 P26 1.577767 1_555
O46 P6 1.637685 1_555
O47 P25 1.577767 1_555
O47 P31 1.637685 1_555
O48 P19 1.502917 1_555
O49 P18 1.502917 1_555
O50 P17 1.502917 1_555
O51 P16 1.502917 1_555
O52 P15 1.502917 1_555
O53 P14 1.502917 1_555
O54 P13 1.502917 1_555
O55 P31 1.502917 1_555
O56 P11 1.502917 1_555
O57 P10 1.502917 1_555
O58 P0 1.502917 1_555
O59 P8 1.502917 1_555
O60 P7 1.502917 1_555
O61 P6 1.502917 1_555
O62 P5 1.502917 1_555
O63 P4 1.502917 1_555
O64 P3 1.502917 1_555
O65 P2 1.502917 1_555
O66 P1 1.502917 1_555
O67 P9 1.502917 1_555
O68 P12 1.502917 1_555
O69 P20 1.502917 1_555
O70 P21 1.502917 1_555
O71 P22 1.502917 1_555
O72 P27 1.577767 1_545
O72 P13 1.637685 1_555
O73 P30 1.577767 1_555
O73 P5 1.637685 1_555
O74 P26 1.577767 1_555
O74 P11 1.637685 1_555
O75 P24 1.577767 1_555
O75 P0 1.637685 1_555
O76 P30 1.577767 1_555
O76 P7 1.637685 1_555
O77 P24 1.577767 1_555
O77 P19 1.637685 1_555
O78 P26 1.577767 1_555
O78 P2 1.637685 1_555
O79 P28 1.577767 1_554
O79 P16 1.637685 1_555
O80 P29 1.577767 1_455
O80 P21 1.637685 1_555
O81 P28 1.577767 1_555
O81 P18 1.637685 1_555
O82 P23 1.577767 1_656
O82 P12 1.637685 1_555
O83 P23 1.577767 1_665
O83 P17 1.637685 1_555
O84 P29 1.577767 1_455
O84 P20 1.637685 1_555
O85 P27 1.577767 1_555
O85 P15 1.637685 1_555
O86 P27 1.577767 1_545
O86 P22 1.637685 1_555
O87 P29 1.577767 1_555
O87 P1 1.637685 1_555
O88 P28 1.577767 1_554
O88 P9 1.637685 1_555
O89 P23 1.577767 1_566
O89 P14 1.637685 1_555
O90 P30 1.577767 1_555
O90 P3 1.637685 1_555
O91 P5 1.607250 1_555
O91 P12 1.607250 1_565
