# generated using pymatgen
data_Li3Gd(NO3)6
_symmetry_space_group_name_H-M   'P 1'
_cell_length_a   7.66791322
_cell_length_b   7.90715801
_cell_length_c   24.27590868
_cell_angle_alpha   91.34175410
_cell_angle_beta   90.00000000
_cell_angle_gamma   90.00000000
_symmetry_Int_Tables_number   1
_chemical_formula_structural   Li3Gd(NO3)6
_chemical_formula_sum   'Li12 Gd4 N24 O72'
_cell_volume   1471.47878988
_cell_formula_units_Z   4
loop_
 _symmetry_equiv_pos_site_id
 _symmetry_equiv_pos_as_xyz
  1  'x, y, z'
loop_
 _atom_site_type_symbol
 _atom_site_label
 _atom_site_symmetry_multiplicity
 _atom_site_fract_x
 _atom_site_fract_y
 _atom_site_fract_z
 _atom_site_occupancy
  Li  Li0  1  0.81544849  0.70656768  0.63414847  1
  Li  Li1  1  0.18455151  0.29343232  0.36585153  1
  Li  Li2  1  0.31544849  0.79343232  0.86585153  1
  Li  Li3  1  0.68455151  0.20656768  0.13414847  1
  Li  Li4  1  0.55692660  0.99873729  0.74557034  1
  Li  Li5  1  0.44307340  0.00126271  0.25442966  1
  Li  Li6  1  0.05692660  0.50126271  0.75442966  1
  Li  Li7  1  0.94307340  0.49873729  0.24557034  1
  Li  Li8  1  0.28951985  0.74208010  0.52599305  1
  Li  Li9  1  0.71048015  0.25791990  0.47400695  1
  Li  Li10  1  0.78951985  0.75791990  0.97400695  1
  Li  Li11  1  0.21048015  0.24208010  0.02599305  1
  Gd  Gd0  1  0.30551137  0.24320321  0.60942516  1
  Gd  Gd1  1  0.69448863  0.75679679  0.39057484  1
  Gd  Gd2  1  0.80551137  0.25679679  0.89057484  1
  Gd  Gd3  1  0.19448863  0.74320321  0.10942516  1
  N  N0  1  0.79822781  0.73564271  0.73517548  1
  N  N1  1  0.20177219  0.26435729  0.26482452  1
  N  N2  1  0.29822781  0.76435729  0.76482452  1
  N  N3  1  0.70177219  0.23564271  0.23517548  1
  N  N4  1  0.30207305  0.26096704  0.73106002  1
  N  N5  1  0.69792695  0.73903296  0.26893998  1
  N  N6  1  0.80207305  0.23903296  0.76893998  1
  N  N7  1  0.19792695  0.76096704  0.23106002  1
  N  N8  1  0.48968760  0.14447590  0.94666342  1
  N  N9  1  0.51031240  0.85552410  0.05333658  1
  N  N10  1  0.98968760  0.35552410  0.55333658  1
  N  N11  1  0.01031240  0.64447590  0.44666342  1
  N  N12  1  0.13117766  0.40208076  0.93649317  1
  N  N13  1  0.86882234  0.59791924  0.06350683  1
  N  N14  1  0.63117766  0.09791924  0.56350683  1
  N  N15  1  0.36882234  0.90208076  0.43649317  1
  N  N16  1  0.11239745  0.92213233  0.60650016  1
  N  N17  1  0.88760255  0.07786767  0.39349984  1
  N  N18  1  0.61239745  0.57786767  0.89349984  1
  N  N19  1  0.38760255  0.42213233  0.10650016  1
  N  N20  1  0.00962286  0.94292293  0.90269185  1
  N  N21  1  0.99037714  0.05707707  0.09730815  1
  N  N22  1  0.50962286  0.55707707  0.59730815  1
  N  N23  1  0.49037714  0.44292293  0.40269185  1
  O  O0  1  0.39742841  0.15508888  0.70309748  1
  O  O1  1  0.60257159  0.84491112  0.29690252  1
  O  O2  1  0.89742841  0.34491112  0.79690252  1
  O  O3  1  0.10257159  0.65508888  0.20309748  1
  O  O4  1  0.52097510  0.09119933  0.89765970  1
  O  O5  1  0.47902490  0.90880067  0.10234030  1
  O  O6  1  0.02097510  0.40880067  0.60234030  1
  O  O7  1  0.97902490  0.59119933  0.39765970  1
  O  O8  1  0.60209664  0.24435180  0.96913125  1
  O  O9  1  0.39790336  0.75564820  0.03086875  1
  O  O10  1  0.10209664  0.25564820  0.53086875  1
  O  O11  1  0.89790336  0.74435180  0.46913125  1
  O  O12  1  0.30034022  0.26889242  0.78131454  1
  O  O13  1  0.69965978  0.73110758  0.21868546  1
  O  O14  1  0.80034022  0.23110758  0.71868546  1
  O  O15  1  0.19965978  0.76889242  0.28131454  1
  O  O16  1  0.26558417  0.45838554  0.95774933  1
  O  O17  1  0.73441583  0.54161446  0.04225067  1
  O  O18  1  0.76558417  0.04161446  0.54225067  1
  O  O19  1  0.23441583  0.95838554  0.45774933  1
  O  O20  1  0.05168722  0.05246712  0.86754572  1
  O  O21  1  0.94831278  0.94753288  0.13245428  1
  O  O22  1  0.55168722  0.44753288  0.63245428  1
  O  O23  1  0.44831278  0.55246712  0.36754572  1
  O  O24  1  0.35520148  0.10092800  0.97146383  1
  O  O25  1  0.64479852  0.89907200  0.02853617  1
  O  O26  1  0.85520148  0.39907200  0.52853617  1
  O  O27  1  0.14479852  0.60092800  0.47146383  1
  O  O28  1  0.29665314  0.75488991  0.71392175  1
  O  O29  1  0.70334686  0.24511009  0.28607825  1
  O  O30  1  0.79665314  0.74511009  0.78607825  1
  O  O31  1  0.20334686  0.25488991  0.21392175  1
  O  O32  1  0.63428835  0.46803210  0.42928474  1
  O  O33  1  0.36571165  0.53196790  0.57071526  1
  O  O34  1  0.13428835  0.03196790  0.07071526  1
  O  O35  1  0.86571165  0.96803210  0.92928474  1
  O  O36  1  0.03084573  0.78788249  0.59914832  1
  O  O37  1  0.96915427  0.21211751  0.40085168  1
  O  O38  1  0.53084573  0.71211751  0.90085168  1
  O  O39  1  0.46915427  0.28788249  0.09914832  1
  O  O40  1  0.02640928  0.30625974  0.96527271  1
  O  O41  1  0.97359072  0.69374026  0.03472729  1
  O  O42  1  0.52640928  0.19374026  0.53472729  1
  O  O43  1  0.47359072  0.80625974  0.46527271  1
  O  O44  1  0.08531179  0.42865246  0.88752333  1
  O  O45  1  0.91468821  0.57134754  0.11247667  1
  O  O46  1  0.58531179  0.07134754  0.61247667  1
  O  O47  1  0.41468821  0.92865246  0.38752333  1
  O  O48  1  0.20781468  0.35940537  0.70122221  1
  O  O49  1  0.79218532  0.64059463  0.29877779  1
  O  O50  1  0.70781468  0.14059463  0.79877779  1
  O  O51  1  0.29218532  0.85940537  0.20122221  1
  O  O52  1  0.60062544  0.68295206  0.58794002  1
  O  O53  1  0.39937456  0.31704794  0.41205998  1
  O  O54  1  0.10062544  0.81704794  0.91205998  1
  O  O55  1  0.89937456  0.18295206  0.08794002  1
  O  O56  1  0.06148563  0.04295705  0.63753627  1
  O  O57  1  0.93851437  0.95704295  0.36246373  1
  O  O58  1  0.56148563  0.45704295  0.86246373  1
  O  O59  1  0.43851437  0.54295705  0.13753627  1
  O  O60  1  0.25849573  0.94249097  0.58080442  1
  O  O61  1  0.74150427  0.05750903  0.41919558  1
  O  O62  1  0.75849573  0.55750903  0.91919558  1
  O  O63  1  0.24150427  0.44249097  0.08080442  1
  O  O64  1  0.39088699  0.87507940  0.79128207  1
  O  O65  1  0.60911301  0.12492060  0.20871793  1
  O  O66  1  0.89088699  0.62492060  0.70871793  1
  O  O67  1  0.10911301  0.37507940  0.29128207  1
  O  O68  1  0.70858449  0.83464115  0.70508403  1
  O  O69  1  0.29141551  0.16535885  0.29491597  1
  O  O70  1  0.20858449  0.66535885  0.79491597  1
  O  O71  1  0.79141551  0.33464115  0.20508403  1
loop_
_geom_bond_atom_site_label_1
_geom_bond_atom_site_label_2
_geom_bond_distance
_geom_bond_site_symmetry_2
Li0 O36 1.972018 1_655
Li0 O52 1.999200 1_555
Li0 O66 2.020671 1_555
Li0 O68 2.140260 1_555
Li1 O37 1.972018 1_455
Li1 O53 1.999200 1_555
Li1 O67 2.020671 1_555
Li1 O69 2.140260 1_555
Li2 O38 1.972018 1_555
Li2 O54 1.999200 1_555
Li2 O64 2.020671 1_555
Li2 O70 2.140260 1_555
Li3 O39 1.972018 1_555
Li3 O55 1.999200 1_555
Li3 O65 2.020671 1_555
Li3 O71 2.140260 1_555
Li4 O64 1.964503 1_555
Li4 O68 1.985494 1_555
Li4 O0 2.036418 1_565
Li4 O50 2.048745 1_565
Li5 O65 1.964503 1_555
Li5 O69 1.985494 1_555
Li5 O1 2.036418 1_545
Li5 O51 2.048745 1_545
Li6 O66 1.964503 1_455
Li6 O70 1.985494 1_555
Li6 O2 2.036418 1_455
Li6 O48 2.048745 1_555
Li7 O67 1.964503 1_655
Li7 O71 1.985494 1_555
Li7 O3 2.036418 1_655
Li7 O49 2.048745 1_555
Li8 O27 2.039676 1_555
Li8 O60 2.059015 1_555
Li8 O33 2.089187 1_555
Li8 O43 2.111285 1_555
Li8 O19 2.445639 1_555
Li9 O26 2.039676 1_555
Li9 O61 2.059015 1_555
Li9 O32 2.089187 1_555
Li9 O42 2.111285 1_555
Li9 O18 2.445639 1_555
Li10 O25 2.039676 1_556
Li10 O62 2.059015 1_555
Li10 O35 2.089187 1_555
Li10 O41 2.111285 1_556
Li10 O17 2.445639 1_556
Li11 O24 2.039676 1_554
Li11 O63 2.059015 1_555
Li11 O34 2.089187 1_555
Li11 O40 2.111285 1_554
Li11 O16 2.445639 1_554
Gd0 O10 2.467408 1_555
Gd0 O60 2.487805 1_545
Gd0 O0 2.495473 1_555
Gd0 O48 2.505109 1_555
Gd0 O42 2.505408 1_555
Gd0 O33 2.531824 1_555
Gd0 O22 2.538476 1_555
Gd0 O46 2.541632 1_555
Gd0 O6 2.552434 1_555
Gd0 O56 2.554341 1_555
Gd1 O11 2.467408 1_555
Gd1 O61 2.487805 1_565
Gd1 O1 2.495473 1_555
Gd1 O49 2.505109 1_555
Gd1 O43 2.505408 1_555
Gd1 O32 2.531824 1_555
Gd1 O23 2.538476 1_555
Gd1 O47 2.541632 1_555
Gd1 O7 2.552434 1_555
Gd1 O57 2.554341 1_555
Gd2 O8 2.467408 1_555
Gd2 O62 2.487805 1_555
Gd2 O2 2.495473 1_555
Gd2 O50 2.505109 1_555
Gd2 O40 2.505408 1_655
Gd2 O35 2.531824 1_545
Gd2 O20 2.538476 1_655
Gd2 O44 2.541632 1_655
Gd2 O4 2.552434 1_555
Gd2 O58 2.554341 1_555
Gd3 O9 2.467408 1_555
Gd3 O63 2.487805 1_555
Gd3 O3 2.495473 1_555
Gd3 O51 2.505109 1_555
Gd3 O41 2.505408 1_455
Gd3 O34 2.531824 1_565
Gd3 O21 2.538476 1_455
Gd3 O45 2.541632 1_455
Gd3 O5 2.552434 1_555
Gd3 O59 2.554341 1_555
N0 O30 1.236284 1_555
N0 O68 1.282834 1_555
N0 O66 1.287439 1_555
N1 O31 1.236284 1_555
N1 O69 1.282834 1_555
N1 O67 1.287439 1_555
N2 O28 1.236284 1_555
N2 O70 1.282834 1_555
N2 O64 1.287439 1_555
N3 O29 1.236284 1_555
N3 O71 1.282834 1_555
N3 O65 1.287439 1_555
N4 O12 1.220189 1_555
N4 O0 1.292166 1_555
N4 O48 1.295885 1_555
N5 O13 1.220189 1_555
N5 O1 1.292166 1_555
N5 O49 1.295885 1_555
N6 O14 1.220189 1_555
N6 O2 1.292166 1_555
N6 O50 1.295885 1_555
N7 O15 1.220189 1_555
N7 O3 1.292166 1_555
N7 O51 1.295885 1_555
N8 O24 1.246666 1_555
N8 O4 1.275431 1_555
N8 O8 1.282164 1_555
N9 O25 1.246666 1_555
N9 O5 1.275431 1_555
N9 O9 1.282164 1_555
N10 O26 1.246666 1_555
N10 O6 1.275431 1_655
N10 O10 1.282164 1_655
N11 O27 1.246666 1_555
N11 O7 1.275431 1_455
N11 O11 1.282164 1_455
N12 O16 1.231217 1_555
N12 O44 1.262041 1_555
N12 O40 1.316187 1_555
N13 O17 1.231217 1_555
N13 O45 1.262041 1_555
N13 O41 1.316187 1_555
N14 O18 1.231217 1_555
N14 O46 1.262041 1_555
N14 O42 1.316187 1_555
N15 O19 1.231217 1_555
N15 O47 1.262041 1_555
N15 O43 1.316187 1_555
N16 O36 1.241320 1_555
N16 O56 1.264555 1_565
N16 O60 1.294114 1_555
N17 O37 1.241320 1_555
N17 O57 1.264555 1_545
N17 O61 1.294114 1_555
N18 O38 1.241320 1_555
N18 O58 1.264555 1_555
N18 O62 1.294114 1_555
N19 O39 1.241320 1_555
N19 O59 1.264555 1_555
N19 O63 1.294114 1_555
N20 O54 1.240925 1_555
N20 O20 1.271565 1_565
N20 O35 1.291465 1_455
N21 O55 1.240925 1_555
N21 O21 1.271565 1_545
N21 O34 1.291465 1_655
N22 O52 1.240925 1_555
N22 O22 1.271565 1_555
N22 O33 1.291465 1_555
N23 O53 1.240925 1_555
N23 O23 1.271565 1_555
N23 O32 1.291465 1_555
