# generated using pymatgen
data_Mg(WO2)2
_symmetry_space_group_name_H-M   'P 1'
_cell_length_a   3.17600500
_cell_length_b   9.65437400
_cell_length_c   11.08450900
_cell_angle_alpha   90.00000000
_cell_angle_beta   90.00000000
_cell_angle_gamma   90.00000000
_symmetry_Int_Tables_number   1
_chemical_formula_structural   Mg(WO2)2
_chemical_formula_sum   'Mg4 W8 O16'
_cell_volume   339.87698475
_cell_formula_units_Z   4
loop_
 _symmetry_equiv_pos_site_id
 _symmetry_equiv_pos_as_xyz
  1  'x, y, z'
loop_
 _atom_site_type_symbol
 _atom_site_label
 _atom_site_symmetry_multiplicity
 _atom_site_fract_x
 _atom_site_fract_y
 _atom_site_fract_z
 _atom_site_occupancy
  Mg  Mg0  1  0.25000000  0.74721800  0.34509000  1
  Mg  Mg1  1  0.75000000  0.25278200  0.65491000  1
  Mg  Mg2  1  0.25000000  0.24721800  0.15491000  1
  Mg  Mg3  1  0.75000000  0.75278200  0.84509000  1
  W  W0  1  0.75000000  0.89532400  0.09927800  1
  W  W1  1  0.25000000  0.60467600  0.59927800  1
  W  W2  1  0.75000000  0.39532400  0.40072200  1
  W  W3  1  0.25000000  0.10467600  0.90072200  1
  W  W4  1  0.25000000  0.04853000  0.37669700  1
  W  W5  1  0.75000000  0.95147000  0.62330300  1
  W  W6  1  0.25000000  0.54853000  0.12330300  1
  W  W7  1  0.75000000  0.45147000  0.87669700  1
  O  O0  1  0.75000000  0.39859500  0.07075300  1
  O  O1  1  0.25000000  0.60140500  0.92924700  1
  O  O2  1  0.75000000  0.89859500  0.42924700  1
  O  O3  1  0.25000000  0.10140500  0.57075300  1
  O  O4  1  0.75000000  0.58083600  0.72240500  1
  O  O5  1  0.25000000  0.41916400  0.27759500  1
  O  O6  1  0.75000000  0.08083600  0.77759500  1
  O  O7  1  0.25000000  0.91916400  0.22240500  1
  O  O8  1  0.75000000  0.11621700  0.04442100  1
  O  O9  1  0.25000000  0.88378300  0.95557900  1
  O  O10  1  0.75000000  0.61621700  0.45557900  1
  O  O11  1  0.25000000  0.38378300  0.54442100  1
  O  O12  1  0.25000000  0.31221400  0.81240300  1
  O  O13  1  0.75000000  0.68778600  0.18759700  1
  O  O14  1  0.75000000  0.18778600  0.31240300  1
  O  O15  1  0.25000000  0.81221400  0.68759700  1
loop_
_geom_bond_atom_site_label_1
_geom_bond_atom_site_label_2
_geom_bond_distance
_geom_bond_site_symmetry_2
Mg0 O7 2.145935 1_555
Mg0 O2 2.351123 1_455
Mg0 O2 2.351123 1_555
Mg0 O10 2.370913 1_555
Mg0 O10 2.370913 1_455
Mg0 O13 2.428694 1_455
Mg0 O13 2.428694 1_555
Mg1 O6 2.145935 1_555
Mg1 O3 2.351123 1_555
Mg1 O3 2.351123 1_655
Mg1 O11 2.370913 1_655
Mg1 O11 2.370913 1_555
Mg1 O12 2.428694 1_655
Mg1 O12 2.428694 1_555
Mg2 O5 2.145935 1_555
Mg2 O0 2.351123 1_555
Mg2 O0 2.351123 1_455
Mg2 O8 2.370913 1_555
Mg2 O8 2.370913 1_455
Mg2 O14 2.428694 1_555
Mg2 O14 2.428694 1_455
Mg3 O4 2.145935 1_555
Mg3 O1 2.351123 1_555
Mg3 O1 2.351123 1_655
Mg3 O9 2.370913 1_655
Mg3 O9 2.370913 1_555
Mg3 O15 2.428694 1_555
Mg3 O15 2.428694 1_655
O0 W7 2.210758 1_554
O0 W6 2.226294 1_555
O0 W6 2.226294 1_655
O1 W6 2.210758 1_556
O1 W7 2.226294 1_455
O1 W7 2.226294 1_555
O2 W5 2.210758 1_555
O2 W4 2.226294 1_565
O2 W4 2.226294 1_665
O3 W4 2.210758 1_555
O3 W5 2.226294 1_445
O3 W5 2.226294 1_545
O4 W1 2.106516 1_655
O4 W1 2.106516 1_555
O4 W7 2.117742 1_555
O5 W2 2.106516 1_555
O5 W2 2.106516 1_455
O5 W6 2.117742 1_555
O6 W3 2.106516 1_555
O6 W3 2.106516 1_655
O6 W5 2.117742 1_545
O7 W0 2.106516 1_555
O7 W0 2.106516 1_455
O7 W4 2.117742 1_565
O8 W0 2.217578 1_545
O8 W3 2.251951 1_554
O8 W3 2.251951 1_654
O9 W3 2.217578 1_565
O9 W0 2.251951 1_456
O9 W0 2.251951 1_556
O10 W2 2.217578 1_555
O10 W1 2.251951 1_655
O10 W1 2.251951 1_555
O11 W1 2.217578 1_555
O11 W2 2.251951 1_455
O11 W2 2.251951 1_555
O12 W7 2.199349 1_555
O12 W7 2.199349 1_455
O12 W3 2.230022 1_555
O13 W6 2.199349 1_555
O13 W6 2.199349 1_655
O13 W0 2.230022 1_555
O14 W4 2.199349 1_655
O14 W4 2.199349 1_555
O14 W2 2.230022 1_555
O15 W5 2.199349 1_555
O15 W5 2.199349 1_455
O15 W1 2.230022 1_555
