# generated using pymatgen
data_HgNCl
_symmetry_space_group_name_H-M   'P 1'
_cell_length_a   13.02544200
_cell_length_b   7.95141300
_cell_length_c   4.01419300
_cell_angle_alpha   90.00000000
_cell_angle_beta   90.00000000
_cell_angle_gamma   90.00000000
_symmetry_Int_Tables_number   1
_chemical_formula_structural   HgNCl
_chemical_formula_sum   'Hg4 N4 Cl4'
_cell_volume   415.75265390
_cell_formula_units_Z   4
loop_
 _symmetry_equiv_pos_site_id
 _symmetry_equiv_pos_as_xyz
  1  'x, y, z'
loop_
 _atom_site_type_symbol
 _atom_site_label
 _atom_site_symmetry_multiplicity
 _atom_site_fract_x
 _atom_site_fract_y
 _atom_site_fract_z
 _atom_site_occupancy
  Hg  Hg0  1  0.50000000  0.50000000  0.00000000  1
  Hg  Hg1  1  0.00000000  0.50000000  0.00000000  1
  Hg  Hg2  1  0.50000000  0.00000000  0.00000000  1
  Hg  Hg3  1  0.00000000  0.00000000  0.00000000  1
  N  N0  1  0.70715000  0.75000000  0.97504300  1
  N  N1  1  0.79285000  0.75000000  0.97504300  1
  N  N2  1  0.29285000  0.25000000  0.02495700  1
  N  N3  1  0.20715000  0.25000000  0.02495700  1
  Cl  Cl0  1  0.04149400  0.75000000  0.48725100  1
  Cl  Cl1  1  0.45850600  0.75000000  0.48725100  1
  Cl  Cl2  1  0.95850600  0.25000000  0.51274900  1
  Cl  Cl3  1  0.54149400  0.25000000  0.51274900  1
loop_
_geom_bond_atom_site_label_1
_geom_bond_atom_site_label_2
_geom_bond_distance
_geom_bond_site_symmetry_2
N0 N1 1.116280 1_555
N2 N3 1.116280 1_555
Cl0 Hg3 2.840651 1_565
Cl0 Hg1 2.840651 1_555
Cl0 Hg3 2.912073 1_566
Cl0 Hg1 2.912073 1_556
Cl1 Hg2 2.840651 1_565
Cl1 Hg0 2.840651 1_555
Cl1 Hg2 2.912073 1_566
Cl1 Hg0 2.912073 1_556
Cl2 Hg1 2.840651 1_656
Cl2 Hg3 2.840651 1_656
Cl2 Hg3 2.912073 1_655
Cl2 Hg1 2.912073 1_655
Cl3 Hg2 2.840651 1_556
Cl3 Hg0 2.840651 1_556
Cl3 Hg0 2.912073 1_555
Cl3 Hg2 2.912073 1_555
