# generated using pymatgen
data_NdP2(HO2)3
_symmetry_space_group_name_H-M   'P 1'
_cell_length_a   8.34552821
_cell_length_b   8.87424563
_cell_length_c   9.22386504
_cell_angle_alpha   90.00000000
_cell_angle_beta   90.00000000
_cell_angle_gamma   114.85559309
_symmetry_Int_Tables_number   1
_chemical_formula_structural   NdP2(HO2)3
_chemical_formula_sum   'Nd4 P8 H12 O24'
_cell_volume   619.84437148
_cell_formula_units_Z   4
loop_
 _symmetry_equiv_pos_site_id
 _symmetry_equiv_pos_as_xyz
  1  'x, y, z'
loop_
 _atom_site_type_symbol
 _atom_site_label
 _atom_site_symmetry_multiplicity
 _atom_site_fract_x
 _atom_site_fract_y
 _atom_site_fract_z
 _atom_site_occupancy
  Nd  Nd0  1  0.75084951  0.00626207  0.53329524  1
  Nd  Nd1  1  0.24915049  0.49373793  0.03329524  1
  Nd  Nd2  1  0.24915049  0.99373793  0.46670476  1
  Nd  Nd3  1  0.75084951  0.50626207  0.96670476  1
  P  P0  1  0.44613934  0.68713022  0.39603947  1
  P  P1  1  0.55386066  0.81286978  0.89603947  1
  P  P2  1  0.55386066  0.31286978  0.60396053  1
  P  P3  1  0.44613934  0.18713022  0.10396053  1
  P  P4  1  0.94658570  0.08937994  0.22010665  1
  P  P5  1  0.05341430  0.41062006  0.72010665  1
  P  P6  1  0.05341430  0.91062006  0.77989335  1
  P  P7  1  0.94658570  0.58937994  0.27989335  1
  H  H0  1  0.90018532  0.94576030  0.13673042  1
  H  H1  1  0.09981468  0.55423970  0.63673042  1
  H  H2  1  0.09981468  0.05423970  0.86326958  1
  H  H3  1  0.90018532  0.44576030  0.36326958  1
  H  H4  1  0.36098337  0.55924886  0.49503088  1
  H  H5  1  0.63901663  0.94075114  0.99503088  1
  H  H6  1  0.63901663  0.44075114  0.50496912  1
  H  H7  1  0.36098337  0.05924886  0.00496912  1
  H  H8  1  0.71277159  0.15645097  0.18941896  1
  H  H9  1  0.28722841  0.34354903  0.68941896  1
  H  H10  1  0.28722841  0.84354903  0.81058104  1
  H  H11  1  0.71277159  0.65645097  0.31058104  1
  O  O0  1  0.36876267  0.62541044  0.24935205  1
  O  O1  1  0.63123733  0.87458956  0.74935205  1
  O  O2  1  0.63123733  0.37458956  0.75064795  1
  O  O3  1  0.36876267  0.12541044  0.25064795  1
  O  O4  1  0.06172997  0.23437850  0.13062784  1
  O  O5  1  0.93827003  0.26562150  0.63062784  1
  O  O6  1  0.93827003  0.76562150  0.86937216  1
  O  O7  1  0.06172997  0.73437850  0.36937216  1
  O  O8  1  0.76861639  0.09817801  0.26438356  1
  O  O9  1  0.23138361  0.40182199  0.76438356  1
  O  O10  1  0.23138361  0.90182199  0.73561644  1
  O  O11  1  0.76861639  0.59817801  0.23561644  1
  O  O12  1  0.64592085  0.73143428  0.40574350  1
  O  O13  1  0.35407915  0.76856572  0.90574350  1
  O  O14  1  0.35407915  0.26856572  0.59425650  1
  O  O15  1  0.64592085  0.23143428  0.09425650  1
  O  O16  1  0.01436236  0.06126280  0.36558857  1
  O  O17  1  0.98563764  0.43873720  0.86558857  1
  O  O18  1  0.98563764  0.93873720  0.63441143  1
  O  O19  1  0.01436236  0.56126280  0.13441143  1
  O  O20  1  0.43065102  0.84259277  0.45186668  1
  O  O21  1  0.56934898  0.65740723  0.95186668  1
  O  O22  1  0.56934898  0.15740723  0.54813332  1
  O  O23  1  0.43065102  0.34259277  0.04813332  1
loop_
_geom_bond_atom_site_label_1
_geom_bond_atom_site_label_2
_geom_bond_distance
_geom_bond_site_symmetry_2
Nd0 O1 2.313619 1_545
Nd0 O5 2.350221 1_555
Nd0 O22 2.412500 1_555
Nd0 O18 2.460775 1_545
Nd0 O12 2.510736 1_545
Nd0 O20 2.559623 1_545
Nd0 O16 2.562238 1_655
Nd0 O8 2.595778 1_555
Nd1 O0 2.313619 1_555
Nd1 O4 2.350221 1_555
Nd1 O23 2.412500 1_555
Nd1 O19 2.460775 1_555
Nd1 O13 2.510736 1_554
Nd1 O21 2.559623 1_554
Nd1 O17 2.562238 1_454
Nd1 O9 2.595778 1_554
Nd2 O3 2.313619 1_565
Nd2 O7 2.350221 1_555
Nd2 O20 2.412500 1_555
Nd2 O16 2.460775 1_565
Nd2 O14 2.510736 1_565
Nd2 O22 2.559623 1_565
Nd2 O18 2.562238 1_455
Nd2 O10 2.595778 1_555
Nd3 O2 2.313619 1_555
Nd3 O6 2.350221 1_555
Nd3 O21 2.412500 1_555
Nd3 O17 2.460775 1_555
Nd3 O15 2.510736 1_556
Nd3 O23 2.559623 1_556
Nd3 O19 2.562238 1_656
Nd3 O11 2.595778 1_556
H0 P4 1.396740 1_565
H1 P5 1.396740 1_555
H2 P6 1.396740 1_545
H3 P7 1.396740 1_555
H4 P0 1.395944 1_555
H5 P1 1.395944 1_555
H6 P2 1.395944 1_555
H7 P3 1.395944 1_555
H8 O8 1.079518 1_555
H8 O15 1.355214 1_555
H9 O9 1.079518 1_555
H9 O14 1.355214 1_555
H10 O10 1.079518 1_555
H10 O13 1.355214 1_555
H11 O11 1.079518 1_555
H11 O12 1.355214 1_555
O0 P0 1.500110 1_555
O1 P1 1.500110 1_555
O2 P2 1.500110 1_555
O3 P3 1.500110 1_555
O4 P4 1.490251 1_455
O5 P5 1.490251 1_655
O6 P6 1.490251 1_655
O7 P7 1.490251 1_455
O8 P4 1.573638 1_555
O9 P5 1.573638 1_555
O10 P6 1.573638 1_555
O11 P7 1.573638 1_555
O12 P0 1.546399 1_555
O13 P1 1.546399 1_555
O14 P2 1.546399 1_555
O15 P3 1.546399 1_555
O16 P4 1.517088 1_455
O17 P5 1.517088 1_655
O18 P6 1.517088 1_655
O19 P7 1.517088 1_455
O20 P0 1.528109 1_555
O21 P1 1.528109 1_555
O22 P2 1.528109 1_555
O23 P3 1.528109 1_555
