# generated using pymatgen
data_RbBaSc(SiO3)3
_symmetry_space_group_name_H-M   'P 1'
_cell_length_a   10.24022953
_cell_length_b   6.98204933
_cell_length_c   13.78002575
_cell_angle_alpha   59.65398549
_cell_angle_beta   90.00000000
_cell_angle_gamma   90.00000000
_symmetry_Int_Tables_number   1
_chemical_formula_structural   RbBaSc(SiO3)3
_chemical_formula_sum   'Rb4 Ba4 Sc4 Si12 O36'
_cell_volume   850.25352011
_cell_formula_units_Z   4
loop_
 _symmetry_equiv_pos_site_id
 _symmetry_equiv_pos_as_xyz
  1  'x, y, z'
loop_
 _atom_site_type_symbol
 _atom_site_label
 _atom_site_symmetry_multiplicity
 _atom_site_fract_x
 _atom_site_fract_y
 _atom_site_fract_z
 _atom_site_occupancy
  Rb  Rb0  1  0.05377167  0.66571357  0.07880961  1
  Rb  Rb1  1  0.44622833  0.66571357  0.57880961  1
  Rb  Rb2  1  0.94622833  0.33428643  0.92119039  1
  Rb  Rb3  1  0.55377167  0.33428643  0.42119039  1
  Ba  Ba0  1  0.94044186  0.32857461  0.41206937  1
  Ba  Ba1  1  0.55955814  0.32857461  0.91206937  1
  Ba  Ba2  1  0.05955814  0.67142539  0.58793063  1
  Ba  Ba3  1  0.44044186  0.67142539  0.08793063  1
  Sc  Sc0  1  0.00382564  0.02253348  0.73417861  1
  Sc  Sc1  1  0.49617436  0.02253348  0.23417861  1
  Sc  Sc2  1  0.99617436  0.97746652  0.26582139  1
  Sc  Sc3  1  0.50382564  0.97746652  0.76582139  1
  Si  Si0  1  0.76453018  0.86938860  0.94191492  1
  Si  Si1  1  0.73546982  0.86938860  0.44191492  1
  Si  Si2  1  0.23546982  0.13061140  0.05808508  1
  Si  Si3  1  0.26453018  0.13061140  0.55808508  1
  Si  Si4  1  0.75213495  0.38482919  0.12297186  1
  Si  Si5  1  0.74786505  0.38482919  0.62297186  1
  Si  Si6  1  0.24786505  0.61517081  0.87702814  1
  Si  Si7  1  0.25213495  0.61517081  0.37702814  1
  Si  Si8  1  0.75360672  0.75072871  0.18382737  1
  Si  Si9  1  0.74639328  0.75072871  0.68382737  1
  Si  Si10  1  0.24639328  0.24927129  0.81617263  1
  Si  Si11  1  0.25360672  0.24927129  0.31617263  1
  O  O0  1  0.87493401  0.00550434  0.85231072  1
  O  O1  1  0.62506599  0.00550434  0.35231072  1
  O  O2  1  0.12506599  0.99449566  0.14768928  1
  O  O3  1  0.37493401  0.99449566  0.64768928  1
  O  O4  1  0.61352761  0.93915968  0.90998613  1
  O  O5  1  0.88647239  0.93915968  0.40998613  1
  O  O6  1  0.38647239  0.06084032  0.09001387  1
  O  O7  1  0.11352761  0.06084032  0.59001387  1
  O  O8  1  0.78541992  0.59969406  0.99525258  1
  O  O9  1  0.71458008  0.59969406  0.49525258  1
  O  O10  1  0.21458008  0.40030594  0.00474742  1
  O  O11  1  0.28541992  0.40030594  0.50474742  1
  O  O12  1  0.79380117  0.90931692  0.05005704  1
  O  O13  1  0.70619883  0.90931692  0.55005704  1
  O  O14  1  0.20619883  0.09068308  0.94994296  1
  O  O15  1  0.29380117  0.09068308  0.44994296  1
  O  O16  1  0.87267021  0.22110692  0.15341263  1
  O  O17  1  0.62732979  0.22110692  0.65341263  1
  O  O18  1  0.12732979  0.77889308  0.84658737  1
  O  O19  1  0.37267021  0.77889308  0.34658737  1
  O  O20  1  0.60755069  0.30656841  0.11113120  1
  O  O21  1  0.89244931  0.30656841  0.61113120  1
  O  O22  1  0.39244931  0.69343159  0.88886880  1
  O  O23  1  0.10755069  0.69343159  0.38886880  1
  O  O24  1  0.74845213  0.49144268  0.20648301  1
  O  O25  1  0.75154787  0.49144268  0.70648301  1
  O  O26  1  0.25154787  0.50855732  0.79351699  1
  O  O27  1  0.24845213  0.50855732  0.29351699  1
  O  O28  1  0.87012948  0.74189942  0.26320894  1
  O  O29  1  0.62987052  0.74189942  0.76320894  1
  O  O30  1  0.12987052  0.25810058  0.73679106  1
  O  O31  1  0.37012948  0.25810058  0.23679106  1
  O  O32  1  0.60713236  0.80142459  0.20497137  1
  O  O33  1  0.89286764  0.80142459  0.70497137  1
  O  O34  1  0.39286764  0.19857541  0.79502863  1
  O  O35  1  0.10713236  0.19857541  0.29502863  1
loop_
_geom_bond_atom_site_label_1
_geom_bond_atom_site_label_2
_geom_bond_distance
_geom_bond_site_symmetry_2
Ba0 O28 2.659482 1_555
Ba0 O21 2.713621 1_555
Ba0 O5 2.788838 1_545
Ba0 O35 2.796052 1_655
Ba0 O7 2.831435 1_655
Ba0 O23 2.949083 1_655
Ba0 O24 3.151028 1_555
Ba1 O29 2.659482 1_555
Ba1 O20 2.713621 1_556
Ba1 O4 2.788838 1_545
Ba1 O34 2.796052 1_555
Ba1 O6 2.831435 1_556
Ba1 O22 2.949083 1_555
Ba1 O25 3.151028 1_555
Ba2 O30 2.659482 1_555
Ba2 O23 2.713621 1_555
Ba2 O7 2.788838 1_565
Ba2 O33 2.796052 1_455
Ba2 O5 2.831435 1_455
Ba2 O21 2.949083 1_455
Ba2 O26 3.151028 1_555
Ba3 O31 2.659482 1_555
Ba3 O22 2.713621 1_554
Ba3 O6 2.788838 1_565
Ba3 O32 2.796052 1_555
Ba3 O4 2.831435 1_554
Ba3 O20 2.949083 1_555
Ba3 O27 3.151028 1_555
O0 Si0 1.587530 1_545
O0 Sc0 2.051972 1_655
O0 Rb2 2.984157 1_555
O0 Rb0 3.352883 1_646
O1 Si1 1.587530 1_545
O1 Sc1 2.051972 1_555
O1 Rb3 2.984157 1_555
O1 Rb1 3.352883 1_545
O2 Si2 1.587530 1_565
O2 Sc2 2.051972 1_455
O2 Rb0 2.984157 1_555
O2 Rb2 3.352883 1_464
O3 Si3 1.587530 1_565
O3 Sc3 2.051972 1_555
O3 Rb1 2.984157 1_555
O3 Rb3 3.352883 1_565
O4 Si0 1.614115 1_555
O4 Sc3 2.177883 1_555
O5 Si1 1.614115 1_555
O5 Sc2 2.177883 1_555
O6 Si2 1.614115 1_555
O6 Sc1 2.177883 1_555
O7 Si3 1.614115 1_555
O7 Sc0 2.177883 1_555
O8 Si0 1.653264 1_555
O8 Si4 1.672244 1_556
O8 Rb2 3.016316 1_555
O8 Rb0 3.102570 1_656
O9 Si1 1.653264 1_555
O9 Si5 1.672244 1_555
O9 Rb3 3.016316 1_555
O9 Rb1 3.102570 1_555
O10 Si2 1.653264 1_555
O10 Si6 1.672244 1_554
O10 Rb0 3.016316 1_555
O10 Rb2 3.102570 1_454
O11 Si3 1.653264 1_555
O11 Si7 1.672244 1_555
O11 Rb1 3.016316 1_555
O11 Rb3 3.102570 1_555
O12 Si8 1.652581 1_555
O12 Si0 1.675721 1_554
O12 Rb2 3.011605 1_564
O12 Rb0 3.075065 1_655
O13 Si9 1.652581 1_555
O13 Si1 1.675721 1_555
O13 Rb3 3.011605 1_565
O13 Rb1 3.075065 1_555
O14 Si10 1.652581 1_555
O14 Si2 1.675721 1_556
O14 Rb0 3.011605 1_546
O14 Rb2 3.075065 1_455
O15 Si11 1.652581 1_555
O15 Si3 1.675721 1_555
O15 Rb1 3.011605 1_545
O15 Rb3 3.075065 1_555
O16 Si4 1.587979 1_555
O16 Sc2 2.056728 1_545
O16 Rb2 2.979409 1_554
O16 Rb0 3.302719 1_655
O17 Si5 1.587979 1_555
O17 Sc3 2.056728 1_545
O17 Rb3 2.979409 1_555
O17 Rb1 3.302719 1_555
O18 Si6 1.587979 1_555
O18 Sc0 2.056728 1_565
O18 Rb0 2.979409 1_556
O18 Rb2 3.302719 1_455
O19 Si7 1.587979 1_555
O19 Sc1 2.056728 1_565
O19 Rb1 2.979409 1_555
O19 Rb3 3.302719 1_555
O20 Si4 1.614742 1_555
O20 Sc1 2.170477 1_555
O21 Si5 1.614742 1_555
O21 Sc0 2.170477 1_655
O22 Si6 1.614742 1_555
O22 Sc3 2.170477 1_555
O23 Si7 1.614742 1_555
O23 Sc2 2.170477 1_455
O24 Si4 1.656925 1_555
O24 Si8 1.675269 1_555
O24 Rb3 3.263697 1_555
O25 Si5 1.656925 1_555
O25 Si9 1.675269 1_555
O25 Rb2 3.263697 1_555
O26 Si6 1.656925 1_555
O26 Si10 1.675269 1_555
O26 Rb1 3.263697 1_555
O27 Si7 1.656925 1_555
O27 Si11 1.675269 1_555
O27 Rb0 3.263697 1_555
O28 Si8 1.598752 1_555
O28 Sc2 2.105298 1_555
O28 Rb0 3.412033 1_655
O29 Si9 1.598752 1_555
O29 Sc3 2.105298 1_555
O29 Rb1 3.412033 1_555
O30 Si10 1.598752 1_555
O30 Sc0 2.105298 1_555
O30 Rb2 3.412033 1_455
O31 Si11 1.598752 1_555
O31 Sc1 2.105298 1_555
O31 Rb3 3.412033 1_555
O32 Si8 1.601307 1_555
O32 Sc1 2.112852 1_565
O32 Rb3 3.161419 1_555
O33 Si9 1.601307 1_555
O33 Sc0 2.112852 1_665
O33 Rb2 3.161419 1_555
O34 Si10 1.601307 1_555
O34 Sc3 2.112852 1_545
O34 Rb1 3.161419 1_555
O35 Si11 1.601307 1_555
O35 Sc2 2.112852 1_445
O35 Rb0 3.161419 1_555
