# generated using pymatgen
data_CoRe
_symmetry_space_group_name_H-M   'P 1'
_cell_length_a   5.36668788
_cell_length_b   5.36668788
_cell_length_c   8.30398600
_cell_angle_alpha   90.00000000
_cell_angle_beta   90.00000000
_cell_angle_gamma   119.99999848
_symmetry_Int_Tables_number   1
_chemical_formula_structural   CoRe
_chemical_formula_sum   'Co8 Re8'
_cell_volume   207.12376033
_cell_formula_units_Z   8
loop_
 _symmetry_equiv_pos_site_id
 _symmetry_equiv_pos_as_xyz
  1  'x, y, z'
loop_
 _atom_site_type_symbol
 _atom_site_label
 _atom_site_symmetry_multiplicity
 _atom_site_fract_x
 _atom_site_fract_y
 _atom_site_fract_z
 _atom_site_occupancy
  Co  Co0_0  1  0.00000000  0.00000000  0.00000000  1
  Co  Co0_1  1  0.00000000  0.00000000  0.50000000  1
  Co  Co0_2  1  0.00000000  0.50000000  0.00000000  1
  Co  Co0_3  1  0.00000000  0.50000000  0.50000000  1
  Co  Co0_4  1  0.50000000  0.00000000  0.00000000  1
  Co  Co0_5  1  0.50000000  0.00000000  0.50000000  1
  Co  Co0_6  1  0.50000000  0.50000000  0.00000000  1
  Co  Co0_7  1  0.50000000  0.50000000  0.50000000  1
  Re  Re0_0  1  0.16666650  0.33333350  0.25000000  1
  Re  Re0_1  1  0.16666650  0.33333350  0.75000000  1
  Re  Re0_2  1  0.16666650  0.83333350  0.25000000  1
  Re  Re0_3  1  0.16666650  0.83333350  0.75000000  1
  Re  Re0_4  1  0.66666650  0.33333350  0.25000000  1
  Re  Re0_5  1  0.66666650  0.33333350  0.75000000  1
  Re  Re0_6  1  0.66666650  0.83333350  0.25000000  1
  Re  Re0_7  1  0.66666650  0.83333350  0.75000000  1
loop_
_geom_bond_atom_site_label_1
_geom_bond_atom_site_label_2
_geom_bond_distance
_geom_bond_site_symmetry_2
Co0_0 Re0_2 2.590341 1_545
Co0_0 Re0_3 2.590341 1_544
Co0_0 Re0_6 2.590343 1_445
Co0_0 Re0_0 2.590343 1_555
Co0_0 Re0_7 2.590343 1_444
Co0_0 Re0_1 2.590343 1_554
Co0_0 Co0_2 2.683344 1_555
Co0_0 Co0_4 2.683344 1_455
Co0_0 Co0_2 2.683344 1_545
Co0_0 Co0_4 2.683344 1_555
Co0_0 Co0_6 2.683344 1_445
Co0_0 Co0_6 2.683344 1_555
Co0_1 Re0_3 2.590341 1_545
Co0_1 Re0_2 2.590341 1_545
Co0_1 Re0_7 2.590343 1_445
Co0_1 Re0_1 2.590343 1_555
Co0_1 Re0_6 2.590343 1_445
Co0_1 Re0_0 2.590343 1_555
Co0_1 Co0_3 2.683344 1_555
Co0_1 Co0_3 2.683344 1_545
Co0_1 Co0_5 2.683344 1_455
Co0_1 Co0_5 2.683344 1_555
Co0_1 Co0_7 2.683344 1_445
Co0_1 Co0_7 2.683344 1_555
Co0_2 Re0_0 2.590341 1_555
Co0_2 Re0_1 2.590341 1_554
Co0_2 Re0_4 2.590343 1_455
Co0_2 Re0_5 2.590343 1_454
Co0_2 Re0_2 2.590343 1_555
Co0_2 Re0_3 2.590343 1_554
Co0_2 Co0_6 2.683344 1_555
Co0_2 Co0_6 2.683344 1_455
Co0_2 Co0_4 2.683344 1_565
Co0_2 Co0_4 2.683344 1_455
Co0_3 Re0_1 2.590341 1_555
Co0_3 Re0_0 2.590341 1_555
Co0_3 Re0_5 2.590343 1_455
Co0_3 Re0_3 2.590343 1_555
Co0_3 Re0_4 2.590343 1_455
Co0_3 Re0_2 2.590343 1_555
Co0_3 Co0_7 2.683344 1_455
Co0_3 Co0_7 2.683344 1_555
Co0_3 Co0_5 2.683344 1_455
Co0_3 Co0_5 2.683344 1_565
Co0_4 Re0_6 2.590341 1_545
Co0_4 Re0_7 2.590341 1_544
Co0_4 Re0_4 2.590343 1_555
Co0_4 Re0_2 2.590343 1_545
Co0_4 Re0_5 2.590343 1_554
Co0_4 Re0_3 2.590343 1_544
Co0_4 Co0_6 2.683344 1_555
Co0_4 Co0_6 2.683344 1_545
Co0_5 Re0_7 2.590341 1_545
Co0_5 Re0_6 2.590341 1_545
Co0_5 Re0_3 2.590343 1_545
Co0_5 Re0_5 2.590343 1_555
Co0_5 Re0_4 2.590343 1_555
Co0_5 Re0_2 2.590343 1_545
Co0_5 Co0_7 2.683344 1_545
Co0_5 Co0_7 2.683344 1_555
Co0_6 Re0_4 2.590341 1_555
Co0_6 Re0_5 2.590341 1_554
Co0_6 Re0_6 2.590343 1_555
Co0_6 Re0_0 2.590343 1_555
Co0_6 Re0_1 2.590343 1_554
Co0_6 Re0_7 2.590343 1_554
Co0_7 Re0_5 2.590341 1_555
Co0_7 Re0_4 2.590341 1_555
Co0_7 Re0_7 2.590343 1_555
Co0_7 Re0_1 2.590343 1_555
Co0_7 Re0_6 2.590343 1_555
Co0_7 Re0_0 2.590343 1_555
Re0_0 Re0_4 2.683344 1_455
Re0_0 Re0_2 2.683344 1_545
Re0_0 Re0_4 2.683344 1_555
Re0_0 Re0_2 2.683344 1_555
Re0_0 Re0_6 2.683344 1_445
Re0_0 Re0_6 2.683344 1_555
Re0_1 Re0_3 2.683344 1_545
Re0_1 Re0_5 2.683344 1_455
Re0_1 Re0_3 2.683344 1_555
Re0_1 Re0_5 2.683344 1_555
Re0_1 Re0_7 2.683344 1_445
Re0_1 Re0_7 2.683344 1_555
Re0_2 Re0_6 2.683344 1_455
Re0_2 Re0_6 2.683344 1_555
Re0_2 Re0_4 2.683344 1_565
Re0_2 Re0_4 2.683344 1_455
Re0_3 Re0_7 2.683344 1_455
Re0_3 Re0_7 2.683344 1_555
Re0_3 Re0_5 2.683344 1_455
Re0_3 Re0_5 2.683344 1_565
Re0_4 Re0_6 2.683344 1_555
Re0_4 Re0_6 2.683344 1_545
Re0_5 Re0_7 2.683344 1_555
Re0_5 Re0_7 2.683344 1_545
