# generated using pymatgen
data_P4N7
_symmetry_space_group_name_H-M   'P 1'
_cell_length_a   4.94341900
_cell_length_b   7.22410714
_cell_length_c   15.24184287
_cell_angle_alpha   91.85679896
_cell_angle_beta   90.00000000
_cell_angle_gamma   90.00000000
_symmetry_Int_Tables_number   1
_chemical_formula_structural   P4N7
_chemical_formula_sum   'P16 N28'
_cell_volume   544.02766638
_cell_formula_units_Z   4
loop_
 _symmetry_equiv_pos_site_id
 _symmetry_equiv_pos_as_xyz
  1  'x, y, z'
loop_
 _atom_site_type_symbol
 _atom_site_label
 _atom_site_symmetry_multiplicity
 _atom_site_fract_x
 _atom_site_fract_y
 _atom_site_fract_z
 _atom_site_occupancy
  P  P0  1  0.29861500  0.76623600  0.95211200  1
  P  P1  1  0.79861500  0.23376400  0.54788800  1
  P  P2  1  0.70138500  0.23376400  0.04788800  1
  P  P3  1  0.20138500  0.76623600  0.45211200  1
  P  P4  1  0.62974300  0.95209800  0.20121600  1
  P  P5  1  0.12974300  0.04790200  0.29878400  1
  P  P6  1  0.37025700  0.04790200  0.79878400  1
  P  P7  1  0.87025700  0.95209800  0.70121600  1
  P  P8  1  0.31007900  0.48189300  0.80477300  1
  P  P9  1  0.81007900  0.51810700  0.69522700  1
  P  P10  1  0.68992100  0.51810700  0.19522700  1
  P  P11  1  0.18992100  0.48189300  0.30477300  1
  P  P12  1  0.79961600  0.81233000  0.05532500  1
  P  P13  1  0.29961600  0.18767000  0.44467500  1
  P  P14  1  0.20038400  0.18767000  0.94467500  1
  P  P15  1  0.70038400  0.81233000  0.55532500  1
  N  N0  1  0.70814400  0.73752300  0.15662900  1
  N  N1  1  0.20814400  0.26247700  0.34337100  1
  N  N2  1  0.29185600  0.26247700  0.84337100  1
  N  N3  1  0.79185600  0.73752300  0.65662900  1
  N  N4  1  0.11140000  0.79671000  0.03688200  1
  N  N5  1  0.61140000  0.20329000  0.46311800  1
  N  N6  1  0.88860000  0.20329000  0.96311800  1
  N  N7  1  0.38860000  0.79671000  0.53688200  1
  N  N8  1  0.61060700  0.74344800  0.97754000  1
  N  N9  1  0.11060700  0.25655200  0.52246000  1
  N  N10  1  0.38939300  0.25655200  0.02246000  1
  N  N11  1  0.88939300  0.74344800  0.47754000  1
  N  N12  1  0.20383700  0.60803100  0.88517200  1
  N  N13  1  0.70383700  0.39196900  0.61482800  1
  N  N14  1  0.79616300  0.39196900  0.11482800  1
  N  N15  1  0.29616300  0.60803100  0.38517200  1
  N  N16  1  0.62000500  0.51643100  0.78013600  1
  N  N17  1  0.12000600  0.48356900  0.71986400  1
  N  N18  1  0.37999500  0.48356900  0.21986400  1
  N  N19  1  0.87999500  0.51643100  0.28013600  1
  N  N20  1  0.81863000  0.02722000  0.27768500  1
  N  N21  1  0.31863000  0.97278000  0.22231500  1
  N  N22  1  0.18137000  0.97278000  0.72231500  1
  N  N23  1  0.68137000  0.02722000  0.77768500  1
  N  N24  1  0.28431200  0.97353500  0.90040400  1
  N  N25  1  0.78431200  0.02646500  0.59959600  1
  N  N26  1  0.71568800  0.02646500  0.09959600  1
  N  N27  1  0.21568800  0.97353500  0.40040400  1
loop_
_geom_bond_atom_site_label_1
_geom_bond_atom_site_label_2
_geom_bond_distance
_geom_bond_site_symmetry_2
N0 P10 1.710889 1_555
N0 P12 1.713100 1_555
N0 P4 1.716576 1_555
N1 P11 1.710889 1_555
N1 P13 1.713100 1_555
N1 P5 1.716576 1_555
N2 P8 1.710889 1_555
N2 P14 1.713100 1_555
N2 P6 1.716576 1_555
N3 P9 1.710889 1_555
N3 P15 1.713100 1_555
N3 P7 1.716576 1_555
N4 P12 1.570108 1_455
N4 P0 1.598732 1_554
N5 P13 1.570108 1_555
N5 P1 1.598732 1_555
N6 P14 1.570108 1_655
N6 P2 1.598732 1_556
N7 P15 1.570108 1_555
N7 P3 1.598732 1_555
N8 P12 1.577343 1_556
N8 P0 1.600049 1_555
N9 P13 1.577343 1_555
N9 P1 1.600049 1_455
N10 P14 1.577343 1_554
N10 P2 1.600049 1_555
N11 P15 1.577343 1_555
N11 P3 1.600049 1_655
N12 P0 1.578334 1_555
N12 P8 1.592324 1_555
N13 P1 1.578334 1_555
N13 P9 1.592324 1_555
N14 P2 1.578334 1_555
N14 P10 1.592324 1_555
N15 P3 1.578334 1_555
N15 P11 1.592324 1_555
N16 P8 1.598952 1_555
N16 P9 1.599661 1_555
N17 P9 1.598957 1_455
N17 P8 1.599658 1_555
N18 P10 1.598952 1_555
N18 P11 1.599661 1_555
N19 P11 1.598952 1_655
N19 P10 1.599661 1_555
N20 P4 1.576028 1_545
N20 P5 1.577325 1_655
N21 P5 1.576028 1_565
N21 P4 1.577325 1_555
N22 P6 1.576028 1_565
N22 P7 1.577325 1_455
N23 P7 1.576028 1_545
N23 P6 1.577325 1_555
N24 P6 1.709406 1_565
N24 P0 1.716182 1_555
N24 P14 1.718375 1_565
N25 P7 1.709406 1_545
N25 P1 1.716182 1_555
N25 P15 1.718375 1_545
N26 P4 1.709406 1_545
N26 P2 1.716182 1_555
N26 P12 1.718375 1_545
N27 P5 1.709406 1_565
N27 P3 1.716182 1_555
N27 P13 1.718375 1_565
