# generated using pymatgen
data_LiCa7(GeH)3
_symmetry_space_group_name_H-M   'P 1'
_cell_length_a   8.74082700
_cell_length_b   9.85921900
_cell_length_c   13.73153800
_cell_angle_alpha   90.00000000
_cell_angle_beta   90.00000000
_cell_angle_gamma   90.00000000
_symmetry_Int_Tables_number   1
_chemical_formula_structural   LiCa7(GeH)3
_chemical_formula_sum   'Li4 Ca28 Ge12 H12'
_cell_volume   1183.35274176
_cell_formula_units_Z   4
loop_
 _symmetry_equiv_pos_site_id
 _symmetry_equiv_pos_as_xyz
  1  'x, y, z'
loop_
 _atom_site_type_symbol
 _atom_site_label
 _atom_site_symmetry_multiplicity
 _atom_site_fract_x
 _atom_site_fract_y
 _atom_site_fract_z
 _atom_site_occupancy
  Li  Li0  1  0.74476300  0.63544800  0.25000000  1
  Li  Li1  1  0.75523700  0.13544800  0.25000000  1
  Li  Li2  1  0.25523700  0.36455200  0.75000000  1
  Li  Li3  1  0.24476300  0.86455200  0.75000000  1
  Ca  Ca0  1  0.44490800  0.59001100  0.10949300  1
  Ca  Ca1  1  0.05509200  0.09001100  0.39050700  1
  Ca  Ca2  1  0.55509200  0.40998900  0.60949300  1
  Ca  Ca3  1  0.94490800  0.90998900  0.89050700  1
  Ca  Ca4  1  0.55509200  0.40998900  0.89050700  1
  Ca  Ca5  1  0.94490800  0.90998900  0.60949300  1
  Ca  Ca6  1  0.44490800  0.59001100  0.39050700  1
  Ca  Ca7  1  0.05509200  0.09001100  0.10949300  1
  Ca  Ca8  1  0.17054400  0.61265600  0.61043300  1
  Ca  Ca9  1  0.32945600  0.11265600  0.88956700  1
  Ca  Ca10  1  0.82945600  0.38734400  0.11043200  1
  Ca  Ca11  1  0.67054400  0.88734400  0.38956700  1
  Ca  Ca12  1  0.82945600  0.38734400  0.38956700  1
  Ca  Ca13  1  0.67054400  0.88734400  0.11043200  1
  Ca  Ca14  1  0.17054400  0.61265600  0.88956700  1
  Ca  Ca15  1  0.32945600  0.11265600  0.61043300  1
  Ca  Ca16  1  0.04556200  0.68581500  0.11910300  1
  Ca  Ca17  1  0.45443800  0.18581500  0.38089700  1
  Ca  Ca18  1  0.95443800  0.31418500  0.61910300  1
  Ca  Ca19  1  0.54556200  0.81418500  0.88089700  1
  Ca  Ca20  1  0.95443800  0.31418500  0.88089700  1
  Ca  Ca21  1  0.54556200  0.81418500  0.61910300  1
  Ca  Ca22  1  0.04556200  0.68581500  0.38089700  1
  Ca  Ca23  1  0.45443800  0.18581500  0.11910300  1
  Ca  Ca24  1  0.30443800  0.88440500  0.25000000  1
  Ca  Ca25  1  0.19556200  0.38440500  0.25000000  1
  Ca  Ca26  1  0.69556200  0.11559500  0.75000000  1
  Ca  Ca27  1  0.80443800  0.61559500  0.75000000  1
  Ge  Ge0  1  0.28855500  0.86822600  0.02500000  1
  Ge  Ge1  1  0.21144500  0.36822600  0.47500000  1
  Ge  Ge2  1  0.71144500  0.13177400  0.52500000  1
  Ge  Ge3  1  0.78855500  0.63177400  0.97500000  1
  Ge  Ge4  1  0.71144500  0.13177400  0.97500000  1
  Ge  Ge5  1  0.78855500  0.63177400  0.52500000  1
  Ge  Ge6  1  0.28855500  0.86822600  0.47500000  1
  Ge  Ge7  1  0.21144500  0.36822600  0.02500000  1
  Ge  Ge8  1  0.92414700  0.89406100  0.25000000  1
  Ge  Ge9  1  0.57585300  0.39406100  0.25000000  1
  Ge  Ge10  1  0.07585300  0.10593900  0.75000000  1
  Ge  Ge11  1  0.42414700  0.60593900  0.75000000  1
  H  H0  1  0.95531000  0.53011100  0.25000000  1
  H  H1  1  0.54469000  0.03011100  0.25000000  1
  H  H2  1  0.04469000  0.46988900  0.75000000  1
  H  H3  1  0.45531000  0.96988900  0.75000000  1
  H  H4  1  0.24878300  0.62866300  0.25000000  1
  H  H5  1  0.25121700  0.12866300  0.25000000  1
  H  H6  1  0.75121700  0.37133700  0.75000000  1
  H  H7  1  0.74878300  0.87133700  0.75000000  1
  H  H8  1  0.96519100  0.24546200  0.25000000  1
  H  H9  1  0.53480900  0.74546200  0.25000000  1
  H  H10  1  0.03480900  0.75453800  0.75000000  1
  H  H11  1  0.46519100  0.25453800  0.75000000  1
loop_
_geom_bond_atom_site_label_1
_geom_bond_atom_site_label_2
_geom_bond_distance
_geom_bond_site_symmetry_2
Ca0 H9 2.586297 1_555
Ca0 H4 2.608931 1_555
Ca0 Ge9 2.960544 1_555
Ca0 Ge7 3.208074 1_555
Ca0 Ge0 3.276859 1_555
Ca0 Ge3 3.550037 1_554
Ca1 H8 2.586297 1_455
Ca1 H5 2.608931 1_555
Ca1 Ge8 2.960544 1_445
Ca1 Ge6 3.208074 1_545
Ca1 Ge1 3.276859 1_555
Ca1 Ge2 3.550037 1_455
Ca2 H11 2.586297 1_555
Ca2 H6 2.608931 1_555
Ca2 Ge11 2.960544 1_555
Ca2 Ge5 3.208074 1_555
Ca2 Ge2 3.276859 1_555
Ca2 Ge1 3.550037 1_555
Ca3 H10 2.586297 1_655
Ca3 H7 2.608931 1_555
Ca3 Ge10 2.960544 1_665
Ca3 Ge4 3.208074 1_565
Ca3 Ge3 3.276859 1_555
Ca3 Ge0 3.550037 1_656
Ca4 H11 2.586297 1_555
Ca4 H6 2.608931 1_555
Ca4 Ge11 2.960544 1_555
Ca4 Ge3 3.208074 1_555
Ca4 Ge4 3.276859 1_555
Ca4 Ge7 3.550037 1_556
Ca5 H10 2.586297 1_655
Ca5 H7 2.608931 1_555
Ca5 Ge10 2.960544 1_665
Ca5 Ge2 3.208074 1_565
Ca5 Ge5 3.276859 1_555
Ca5 Ge6 3.550037 1_655
Ca6 H9 2.586297 1_555
Ca6 H4 2.608931 1_555
Ca6 Ge9 2.960544 1_555
Ca6 Ge1 3.208074 1_555
Ca6 Ge6 3.276859 1_555
Ca6 Ge5 3.550037 1_555
Ca7 H8 2.586297 1_455
Ca7 H5 2.608931 1_555
Ca7 Ge8 2.960544 1_445
Ca7 Ge0 3.208074 1_545
Ca7 Ge7 3.276859 1_555
Ca7 Ge4 3.550037 1_454
Ca8 H2 2.619974 1_555
Ca8 H10 2.652783 1_555
Ca8 Ge11 2.931041 1_555
Ca8 Ge1 3.064943 1_555
Ca8 Ge6 3.297197 1_555
Ca8 Ge5 3.544010 1_455
Ca9 H3 2.619974 1_545
Ca9 H11 2.652783 1_555
Ca9 Ge10 2.931041 1_555
Ca9 Ge0 3.064943 1_546
Ca9 Ge7 3.297197 1_556
Ca9 Ge4 3.544010 1_555
Ca10 H0 2.619984 1_555
Ca10 H8 2.652793 1_555
Ca10 Ge9 2.931050 1_555
Ca10 Ge3 3.064934 1_554
Ca10 Ge4 3.297189 1_554
Ca10 Ge7 3.544005 1_655
Ca11 H1 2.619974 1_565
Ca11 H9 2.652783 1_555
Ca11 Ge8 2.931041 1_555
Ca11 Ge2 3.064943 1_565
Ca11 Ge5 3.297197 1_555
Ca11 Ge6 3.544010 1_555
Ca12 H0 2.619974 1_555
Ca12 H8 2.652783 1_555
Ca12 Ge9 2.931041 1_555
Ca12 Ge5 3.064943 1_555
Ca12 Ge2 3.297197 1_555
Ca12 Ge1 3.544010 1_655
Ca13 H1 2.619984 1_565
Ca13 H9 2.652793 1_555
Ca13 Ge8 2.931050 1_555
Ca13 Ge4 3.064934 1_564
Ca13 Ge3 3.297189 1_554
Ca13 Ge0 3.544005 1_555
Ca14 H2 2.619974 1_555
Ca14 H10 2.652783 1_555
Ca14 Ge11 2.931041 1_555
Ca14 Ge7 3.064943 1_556
Ca14 Ge0 3.297197 1_556
Ca14 Ge3 3.544010 1_455
Ca15 H3 2.619974 1_545
Ca15 H11 2.652783 1_555
Ca15 Ge10 2.931041 1_555
Ca15 Ge6 3.064943 1_545
Ca15 Ge1 3.297197 1_555
Ca15 Ge2 3.544010 1_555
Ca16 H0 2.491913 1_455
Ca16 H4 2.589116 1_555
Ca16 Ge8 2.927865 1_455
Ca16 Ge3 3.040708 1_454
Ca16 Ge0 3.068433 1_555
Ca16 Ge7 3.684614 1_555
Ca17 H1 2.491913 1_555
Ca17 H5 2.589116 1_555
Ca17 Ge9 2.927865 1_555
Ca17 Ge2 3.040708 1_555
Ca17 Ge1 3.068433 1_555
Ca17 Ge6 3.684614 1_545
Ca18 H2 2.491913 1_655
Ca18 H6 2.589116 1_555
Ca18 Ge10 2.927865 1_655
Ca18 Ge1 3.040708 1_655
Ca18 Ge2 3.068433 1_555
Ca18 Ge5 3.684614 1_555
Ca19 H3 2.491913 1_555
Ca19 H7 2.589116 1_555
Ca19 Ge11 2.927865 1_555
Ca19 Ge0 3.040708 1_556
Ca19 Ge3 3.068433 1_555
Ca19 Ge4 3.684614 1_565
Ca20 H2 2.491913 1_655
Ca20 H6 2.589116 1_555
Ca20 Ge10 2.927865 1_655
Ca20 Ge7 3.040708 1_656
Ca20 Ge4 3.068433 1_555
Ca20 Ge3 3.684614 1_555
Ca21 H3 2.491913 1_555
Ca21 H7 2.589116 1_555
Ca21 Ge11 2.927865 1_555
Ca21 Ge6 3.040708 1_555
Ca21 Ge5 3.068433 1_555
Ca21 Ge2 3.684614 1_565
Ca22 H0 2.491913 1_455
Ca22 H4 2.589116 1_555
Ca22 Ge8 2.927865 1_455
Ca22 Ge5 3.040708 1_455
Ca22 Ge6 3.068433 1_555
Ca22 Ge1 3.684614 1_555
Ca23 H1 2.491913 1_555
Ca23 H5 2.589116 1_555
Ca23 Ge9 2.927865 1_555
Ca23 Ge4 3.040708 1_554
Ca23 Ge7 3.068433 1_555
Ca23 Ge0 3.684614 1_545
Ca24 H9 2.435418 1_555
Ca24 H5 2.452713 1_565
Ca24 H1 2.544341 1_565
Ca24 H4 2.567916 1_555
Ca24 Ge6 3.096824 1_555
Ca24 Ge0 3.096824 1_555
Ca24 Ge8 3.325421 1_455
Ca25 H8 2.435418 1_455
Ca25 H4 2.452713 1_555
Ca25 H0 2.544341 1_455
Ca25 H5 2.567916 1_555
Ca25 Ge1 3.096824 1_555
Ca25 Ge7 3.096824 1_555
Ca25 Ge9 3.325421 1_555
Ca26 H11 2.435418 1_555
Ca26 H7 2.452713 1_545
Ca26 H3 2.544341 1_545
Ca26 H6 2.567916 1_555
Ca26 Ge2 3.096824 1_555
Ca26 Ge4 3.096824 1_555
Ca26 Ge10 3.325421 1_655
Ca27 H10 2.435418 1_655
Ca27 H6 2.452713 1_555
Ca27 H2 2.544341 1_655
Ca27 H7 2.567916 1_555
Ca27 Ge3 3.096824 1_555
Ca27 Ge5 3.096824 1_555
Ca27 Ge11 3.325421 1_555
Ge8 Li1 2.800653 1_565
Ge8 Li0 2.993258 1_555
Ge9 Li0 2.800653 1_555
Ge9 Li1 2.993258 1_555
Ge10 Li3 2.800653 1_545
Ge10 Li2 2.993258 1_555
Ge11 Li2 2.800653 1_555
Ge11 Li3 2.993258 1_555
H0 Li0 2.113166 1_555
H1 Li1 2.113166 1_555
H2 Li2 2.113166 1_555
H3 Li3 2.113166 1_555
H8 Li1 2.131742 1_555
H9 Li0 2.131742 1_555
H10 Li3 2.131742 1_555
H11 Li2 2.131742 1_555
