# generated using pymatgen
data_Tm2Co7
_symmetry_space_group_name_H-M   'P 1'
_cell_length_a   4.92900788
_cell_length_b   4.92900800
_cell_length_c   12.36152562
_cell_angle_alpha   78.49994243
_cell_angle_beta   78.49994253
_cell_angle_gamma   59.99999917
_symmetry_Int_Tables_number   1
_chemical_formula_structural   Tm2Co7
_chemical_formula_sum   'Tm4 Co14'
_cell_volume   253.10303213
_cell_formula_units_Z   2
loop_
 _symmetry_equiv_pos_site_id
 _symmetry_equiv_pos_as_xyz
  1  'x, y, z'
loop_
 _atom_site_type_symbol
 _atom_site_label
 _atom_site_symmetry_multiplicity
 _atom_site_fract_x
 _atom_site_fract_y
 _atom_site_fract_z
 _atom_site_occupancy
  Tm  Tm0  1  0.94817200  0.94817200  0.15548300  1
  Tm  Tm1  1  0.05182800  0.05182800  0.84451700  1
  Tm  Tm2  1  0.85133500  0.85133500  0.44599400  1
  Tm  Tm3  1  0.14866500  0.14866500  0.55400600  1
  Co  Co0  1  0.50000000  0.50000000  0.50000000  1
  Co  Co1  1  0.72157900  0.72157900  0.83526300  1
  Co  Co2  1  0.27842100  0.27842100  0.16473700  1
  Co  Co3  1  0.61092700  0.61092700  0.16721900  1
  Co  Co4  1  0.38907300  0.38907300  0.83278100  1
  Co  Co5  1  0.00000000  0.50000000  0.00000000  1
  Co  Co6  1  0.50000000  0.00000000  0.00000000  1
  Co  Co7  1  0.50000000  0.50000000  0.00000000  1
  Co  Co8  1  0.38997300  0.38997300  0.32905700  1
  Co  Co9  1  0.89099700  0.38997300  0.32905700  1
  Co  Co10  1  0.38997300  0.89099700  0.32905700  1
  Co  Co11  1  0.61002700  0.61002700  0.67094300  1
  Co  Co12  1  0.10900300  0.61002700  0.67094300  1
  Co  Co13  1  0.61002700  0.10900300  0.67094300  1
loop_
_geom_bond_atom_site_label_1
_geom_bond_atom_site_label_2
_geom_bond_distance
_geom_bond_site_symmetry_2
Co0 Co9 2.502301 1_555
Co0 Co12 2.502301 1_555
Co0 Co10 2.502301 1_555
Co0 Co11 2.502301 1_555
Co0 Co13 2.502301 1_555
Co0 Co8 2.502301 1_555
Co0 Tm2 2.918976 1_555
Co0 Tm3 2.918976 1_555
Co0 Tm3 2.918980 1_655
Co0 Tm2 2.918980 1_455
Co0 Tm3 2.918980 1_565
Co0 Tm2 2.918980 1_545
Co1 Co12 2.433846 1_655
Co1 Co13 2.433846 1_565
Co1 Co11 2.433846 1_555
Co1 Co5 2.439620 1_656
Co1 Co7 2.439620 1_556
Co1 Co6 2.439620 1_566
Co1 Tm1 2.847939 1_565
Co1 Tm1 2.847939 1_655
Co1 Tm1 2.847943 1_665
Co2 Co9 2.433846 1_455
Co2 Co8 2.433846 1_555
Co2 Co5 2.439620 1_555
Co2 Co7 2.439620 1_555
Co2 Co6 2.439620 1_555
Co2 Tm0 2.847939 1_545
Co2 Tm0 2.847939 1_455
Co2 Tm0 2.847943 1_445
Co3 Co9 2.413098 1_555
Co3 Co8 2.413098 1_555
Co3 Co5 2.463934 1_655
Co3 Co7 2.463934 1_555
Co3 Co6 2.463934 1_565
Co3 Tm0 2.849261 1_555
Co3 Tm0 2.849265 1_455
Co3 Tm0 2.849265 1_545
Co4 Co5 2.463934 1_556
Co4 Co6 2.463934 1_556
Co4 Co7 2.463934 1_556
Co4 Tm1 2.849261 1_555
Co4 Tm1 2.849265 1_655
Co4 Tm1 2.849265 1_565
Co5 Co6 2.464504 1_555
Co5 Co7 2.464504 1_455
Co5 Co7 2.464504 1_555
Co5 Co6 2.464504 1_465
Co5 Tm0 3.093881 1_455
Co5 Tm1 3.093881 1_554
Co5 Tm0 3.093885 1_445
Co5 Tm1 3.093885 1_564
Co6 Co7 2.464504 1_555
Co6 Co7 2.464504 1_545
Co6 Tm0 3.093881 1_545
Co6 Tm1 3.093881 1_554
Co6 Tm0 3.093885 1_445
Co6 Tm1 3.093885 1_654
Co7 Tm0 3.093883 1_455
Co7 Tm1 3.093883 1_654
Co7 Tm0 3.093883 1_545
Co7 Tm1 3.093883 1_564
Co8 Co9 2.459457 1_455
Co8 Co9 2.469551 1_555
Co8 Tm2 2.837706 1_545
Co8 Tm2 2.837706 1_455
Co8 Tm3 3.055957 1_555
Co8 Tm0 3.230104 1_545
Co8 Tm0 3.230104 1_455
Co9 Tm2 2.837704 1_555
Co9 Tm2 2.837708 1_545
Co9 Tm3 3.055959 1_655
Co9 Tm0 3.230102 1_555
Co9 Tm0 3.230106 1_545
Co10 Co3 2.413098 1_555
Co10 Co2 2.433846 1_565
Co10 Co9 2.459457 1_465
Co10 Co8 2.459457 1_565
Co10 Co9 2.469551 1_555
Co10 Co8 2.469551 1_555
Co10 Tm2 2.837704 1_555
Co10 Tm2 2.837708 1_455
Co10 Tm3 3.055959 1_565
Co10 Tm0 3.230102 1_555
Co10 Tm0 3.230106 1_455
Co11 Co4 2.413098 1_555
Co11 Co12 2.459457 1_655
Co11 Co13 2.459457 1_565
Co11 Co12 2.469551 1_555
Co11 Co13 2.469551 1_555
Co11 Tm3 2.837706 1_565
Co11 Tm3 2.837706 1_655
Co11 Tm2 3.055957 1_555
Co11 Tm1 3.230104 1_565
Co11 Tm1 3.230104 1_655
Co12 Co4 2.413098 1_555
Co12 Co13 2.459457 1_465
Co12 Co13 2.469551 1_555
Co12 Tm3 2.837704 1_555
Co12 Tm3 2.837708 1_565
Co12 Tm2 3.055959 1_455
Co12 Tm1 3.230102 1_555
Co12 Tm1 3.230106 1_565
Co13 Co4 2.413098 1_555
Co13 Tm3 2.837704 1_555
Co13 Tm3 2.837708 1_655
Co13 Tm2 3.055959 1_545
Co13 Tm1 3.230102 1_555
Co13 Tm1 3.230106 1_655
