# generated using pymatgen
data_CsBi
_symmetry_space_group_name_H-M   'P 1'
_cell_length_a   7.76519058
_cell_length_b   14.66135381
_cell_length_c   15.57700482
_cell_angle_alpha   113.30331338
_cell_angle_beta   90.00000000
_cell_angle_gamma   90.00000000
_symmetry_Int_Tables_number   1
_chemical_formula_structural   CsBi
_chemical_formula_sum   'Cs16 Bi16'
_cell_volume   1628.74515877
_cell_formula_units_Z   16
loop_
 _symmetry_equiv_pos_site_id
 _symmetry_equiv_pos_as_xyz
  1  'x, y, z'
loop_
 _atom_site_type_symbol
 _atom_site_label
 _atom_site_symmetry_multiplicity
 _atom_site_fract_x
 _atom_site_fract_y
 _atom_site_fract_z
 _atom_site_occupancy
  Cs  Cs0  1  0.37192560  0.63657203  0.12350090  1
  Cs  Cs1  1  0.87192560  0.86342797  0.87649910  1
  Cs  Cs2  1  0.62807440  0.36342797  0.87649910  1
  Cs  Cs3  1  0.12807440  0.13657203  0.12350090  1
  Cs  Cs4  1  0.19831731  0.53002469  0.39501892  1
  Cs  Cs5  1  0.69831731  0.96997531  0.60498108  1
  Cs  Cs6  1  0.80168269  0.46997531  0.60498108  1
  Cs  Cs7  1  0.30168269  0.03002469  0.39501892  1
  Cs  Cs8  1  0.42267081  0.68521456  0.65840456  1
  Cs  Cs9  1  0.92267081  0.81478544  0.34159544  1
  Cs  Cs10  1  0.57732919  0.31478644  0.34159544  1
  Cs  Cs11  1  0.07732919  0.18521356  0.65840456  1
  Cs  Cs12  1  0.13394155  0.54805824  0.84942463  1
  Cs  Cs13  1  0.63394155  0.95194176  0.15057537  1
  Cs  Cs14  1  0.86605845  0.45194176  0.15057537  1
  Cs  Cs15  1  0.36605845  0.04805824  0.84942463  1
  Bi  Bi0  1  0.85085888  0.68729699  0.06656091  1
  Bi  Bi1  1  0.35085888  0.81270301  0.93343909  1
  Bi  Bi2  1  0.14914112  0.31270301  0.93343909  1
  Bi  Bi3  1  0.64914112  0.18729699  0.06656091  1
  Bi  Bi4  1  0.11386173  0.85297047  0.09943551  1
  Bi  Bi5  1  0.61386173  0.64702953  0.90056449  1
  Bi  Bi6  1  0.88613827  0.14702953  0.90056449  1
  Bi  Bi7  1  0.38613827  0.35297047  0.09943551  1
  Bi  Bi8  1  0.43509956  0.76781049  0.40301680  1
  Bi  Bi9  1  0.93509956  0.73218951  0.59698320  1
  Bi  Bi10  1  0.56490044  0.23218951  0.59698320  1
  Bi  Bi11  1  0.06490044  0.26781049  0.40301680  1
  Bi  Bi12  1  0.20270364  0.87303027  0.57078795  1
  Bi  Bi13  1  0.70270364  0.62696973  0.42921205  1
  Bi  Bi14  1  0.79729636  0.12696973  0.42921205  1
  Bi  Bi15  1  0.29729636  0.37303027  0.57078795  1
loop_
_geom_bond_atom_site_label_1
_geom_bond_atom_site_label_2
_geom_bond_distance
_geom_bond_site_symmetry_2
Bi0 Bi5 3.035380 1_554
Bi0 Bi4 3.057610 1_655
Bi0 Cs12 3.869961 1_654
Bi0 Cs13 3.948057 1_555
Bi0 Cs0 3.961400 1_555
Bi0 Cs9 3.977862 1_555
Bi0 Cs14 4.148051 1_555
Bi0 Cs0 4.270042 1_655
Bi1 Bi4 3.035380 1_556
Bi1 Bi5 3.057610 1_555
Bi1 Cs13 3.869961 1_556
Bi1 Cs12 3.948057 1_555
Bi1 Cs1 3.961400 1_455
Bi1 Cs8 3.977862 1_555
Bi1 Cs15 4.148051 1_565
Bi1 Cs1 4.270042 1_555
Bi2 Bi7 3.035380 1_556
Bi2 Bi6 3.057610 1_455
Bi2 Cs14 3.869961 1_456
Bi2 Cs15 3.948057 1_555
Bi2 Cs2 3.961400 1_555
Bi2 Cs11 3.977863 1_555
Bi2 Cs12 4.148051 1_555
Bi2 Cs2 4.270042 1_455
Bi3 Bi6 3.035380 1_554
Bi3 Bi7 3.057610 1_555
Bi3 Cs15 3.869961 1_554
Bi3 Cs14 3.948057 1_555
Bi3 Cs3 3.961400 1_655
Bi3 Cs10 3.977863 1_555
Bi3 Cs13 4.148051 1_545
Bi3 Cs3 4.270042 1_555
Bi4 Cs0 3.893994 1_555
Bi4 Cs13 3.964046 1_455
Bi4 Cs1 4.004213 1_454
Bi4 Cs3 4.025953 1_565
Bi4 Cs13 4.258546 1_555
Bi4 Cs9 4.291544 1_455
Bi4 Cs7 4.539684 1_565
Bi5 Cs1 3.893994 1_555
Bi5 Cs12 3.964046 1_555
Bi5 Cs0 4.004213 1_556
Bi5 Cs2 4.025953 1_555
Bi5 Cs12 4.258546 1_655
Bi5 Cs8 4.291544 1_555
Bi5 Cs6 4.539684 1_555
Bi6 Cs2 3.893994 1_555
Bi6 Cs15 3.964046 1_655
Bi6 Cs3 4.004213 1_656
Bi6 Cs1 4.025953 1_545
Bi6 Cs15 4.258546 1_555
Bi6 Cs11 4.291537 1_655
Bi6 Cs5 4.539684 1_545
Bi7 Cs3 3.893994 1_555
Bi7 Cs14 3.964046 1_555
Bi7 Cs2 4.004213 1_554
Bi7 Cs0 4.025953 1_555
Bi7 Cs14 4.258546 1_455
Bi7 Cs10 4.291537 1_555
Bi7 Cs4 4.539684 1_555
Bi8 Cs4 3.899560 1_555
Bi8 Cs5 3.934794 1_555
Bi8 Cs9 4.030571 1_555
Bi8 Cs7 4.030794 1_565
Bi8 Cs0 4.033857 1_555
Bi8 Cs9 4.212406 1_455
Bi9 Cs5 3.899560 1_555
Bi9 Cs4 3.934794 1_655
Bi9 Cs8 4.030571 1_655
Bi9 Cs6 4.030794 1_555
Bi9 Cs1 4.033857 1_555
Bi9 Cs8 4.212406 1_555
Bi10 Bi14 3.045710 1_555
Bi10 Bi15 3.068402 1_555
Bi10 Cs6 3.899560 1_555
Bi10 Cs7 3.934794 1_555
Bi10 Cs11 4.030575 1_555
Bi10 Cs5 4.030794 1_545
Bi10 Cs2 4.033857 1_555
Bi10 Cs11 4.212409 1_655
Bi11 Bi15 3.045710 1_555
Bi11 Bi14 3.068402 1_455
Bi11 Cs7 3.899560 1_555
Bi11 Cs6 3.934794 1_455
Bi11 Cs10 4.030575 1_455
Bi11 Cs4 4.030794 1_555
Bi11 Cs3 4.033857 1_555
Bi11 Cs10 4.212409 1_555
Bi12 Bi8 3.045710 1_555
Bi12 Bi9 3.068402 1_455
Bi12 Cs8 3.916146 1_555
Bi12 Cs9 3.973844 1_455
Bi12 Cs5 4.064008 1_555
Bi12 Cs5 4.128575 1_455
Bi12 Cs15 4.268523 1_565
Bi12 Cs7 4.286185 1_565
Bi12 Cs11 4.337890 1_565
Bi13 Bi9 3.045710 1_555
Bi13 Bi8 3.068402 1_555
Bi13 Cs9 3.916146 1_555
Bi13 Cs8 3.973844 1_555
Bi13 Cs4 4.064008 1_655
Bi13 Cs4 4.128575 1_555
Bi13 Cs14 4.268523 1_555
Bi13 Cs6 4.286185 1_555
Bi13 Cs10 4.337890 1_555
Bi14 Cs10 3.916158 1_555
Bi14 Cs11 3.973846 1_655
Bi14 Cs7 4.064008 1_555
Bi14 Cs7 4.128575 1_655
Bi14 Cs13 4.268523 1_545
Bi14 Cs5 4.286185 1_545
Bi14 Cs9 4.337904 1_545
Bi15 Cs11 3.916158 1_555
Bi15 Cs10 3.973846 1_555
Bi15 Cs6 4.064008 1_455
Bi15 Cs6 4.128575 1_555
Bi15 Cs12 4.268523 1_555
Bi15 Cs4 4.286185 1_555
Bi15 Cs8 4.337904 1_555
