# generated using pymatgen
data_CaYb3(InGe2)2
_symmetry_space_group_name_H-M   'P 1'
_cell_length_a   7.31836591
_cell_length_b   7.31836591
_cell_length_c   4.15776981
_cell_angle_alpha   90.00000000
_cell_angle_beta   90.00000000
_cell_angle_gamma   91.91292496
_symmetry_Int_Tables_number   1
_chemical_formula_structural   CaYb3(InGe2)2
_chemical_formula_sum   'Ca1 Yb3 In2 Ge4'
_cell_volume   222.55973031
_cell_formula_units_Z   1
loop_
 _symmetry_equiv_pos_site_id
 _symmetry_equiv_pos_as_xyz
  1  'x, y, z'
loop_
 _atom_site_type_symbol
 _atom_site_label
 _atom_site_symmetry_multiplicity
 _atom_site_fract_x
 _atom_site_fract_y
 _atom_site_fract_z
 _atom_site_occupancy
  Ca  Ca0  1  0.82068607  0.17931393  0.00000000  1
  Yb  Yb0  1  0.17693309  0.82306691  0.00000000  1
  Yb  Yb1  1  0.67515618  0.67886385  0.00000000  1
  Yb  Yb2  1  0.32113615  0.32484382  0.00000000  1
  In  In0  1  0.50086205  0.99812614  0.50000000  1
  In  In1  1  0.00187386  0.49913795  0.50000000  1
  Ge  Ge0  1  0.37371157  0.62628843  0.50000000  1
  Ge  Ge1  1  0.60984338  0.39015662  0.50000000  1
  Ge  Ge2  1  0.13429449  0.11449783  0.50000000  1
  Ge  Ge3  1  0.88550217  0.86570551  0.50000000  1
loop_
_geom_bond_atom_site_label_1
_geom_bond_atom_site_label_2
_geom_bond_distance
_geom_bond_site_symmetry_2
Ca0 Ge1 3.040158 1_555
Ca0 Ge1 3.040158 1_554
Ca0 Ge2 3.144350 1_655
Ca0 Ge2 3.144350 1_654
Ca0 Ge3 3.144350 1_544
Ca0 Ge3 3.144350 1_545
Ca0 In1 3.369153 1_654
Ca0 In1 3.369153 1_655
Ca0 In0 3.369153 1_544
Ca0 In0 3.369153 1_545
In0 Yb0 3.373459 1_556
In0 Yb0 3.373459 1_555
In0 Yb1 3.406888 1_556
In0 Yb1 3.406888 1_555
In0 Yb2 3.461041 1_565
In0 Yb2 3.461041 1_566
In1 Yb0 3.373459 1_556
In1 Yb0 3.373459 1_555
In1 Yb2 3.406888 1_555
In1 Yb2 3.406888 1_556
In1 Yb1 3.461041 1_455
In1 Yb1 3.461041 1_456
Ge0 Ge1 2.484356 1_555
Ge0 In0 2.846403 1_555
Ge0 In1 2.846403 1_555
Ge0 Yb0 2.933935 1_555
Ge0 Yb0 2.933935 1_556
Ge0 Yb1 3.046299 1_556
Ge0 Yb1 3.046299 1_555
Ge0 Yb2 3.046299 1_555
Ge0 Yb2 3.046299 1_556
Ge1 In1 2.952056 1_655
Ge1 In0 2.952056 1_545
Ge1 Yb1 2.991155 1_556
Ge1 Yb1 2.991155 1_555
Ge1 Yb2 2.991155 1_555
Ge1 Yb2 2.991155 1_556
Ge2 Ge3 2.531593 1_445
Ge2 In0 2.841582 1_545
Ge2 Yb2 2.901839 1_556
Ge2 Yb2 2.901839 1_555
Ge2 Yb0 3.002065 1_545
Ge2 Yb0 3.002065 1_546
Ge2 In1 3.007516 1_555
Ge3 In1 2.841582 1_655
Ge3 Yb1 2.901839 1_556
Ge3 Yb1 2.901839 1_555
Ge3 Yb0 3.002065 1_655
Ge3 Yb0 3.002065 1_656
Ge3 In0 3.007516 1_555
