# generated using pymatgen
data_ThReB4
_symmetry_space_group_name_H-M   'P 1'
_cell_length_a   6.08596008
_cell_length_b   6.08596008
_cell_length_c   3.74787000
_cell_angle_alpha   90.00000000
_cell_angle_beta   90.00000000
_cell_angle_gamma   104.06519655
_symmetry_Int_Tables_number   1
_chemical_formula_structural   ThReB4
_chemical_formula_sum   'Th2 Re2 B8'
_cell_volume   134.65526047
_cell_formula_units_Z   2
loop_
 _symmetry_equiv_pos_site_id
 _symmetry_equiv_pos_as_xyz
  1  'x, y, z'
loop_
 _atom_site_type_symbol
 _atom_site_label
 _atom_site_symmetry_multiplicity
 _atom_site_fract_x
 _atom_site_fract_y
 _atom_site_fract_z
 _atom_site_occupancy
  Th  Th0  1  0.30062900  0.69937100  0.00000000  1
  Th  Th1  1  0.69937100  0.30062900  0.00000000  1
  Re  Re0  1  0.18243900  0.18243900  0.00000000  1
  Re  Re1  1  0.81756100  0.81756100  0.00000000  1
  B  B0  1  0.37454100  0.06429200  0.50000000  1
  B  B1  1  0.62545900  0.93570800  0.50000000  1
  B  B2  1  0.06429200  0.37454100  0.50000000  1
  B  B3  1  0.93570800  0.62545900  0.50000000  1
  B  B4  1  0.37193100  0.37193100  0.50000000  1
  B  B5  1  0.62806900  0.62806900  0.50000000  1
  B  B6  1  0.08907800  0.91092200  0.50000000  1
  B  B7  1  0.91092200  0.08907800  0.50000000  1
loop_
_geom_bond_atom_site_label_1
_geom_bond_atom_site_label_2
_geom_bond_distance
_geom_bond_site_symmetry_2
Re0 Re1 2.732325 1_445
Re0 Th0 3.052045 1_555
Re0 Th1 3.052045 1_555
Re0 Th0 3.191934 1_545
Re0 Th1 3.191934 1_455
Re1 Th0 3.052045 1_555
Re1 Th1 3.052045 1_555
Re1 Th0 3.191934 1_655
Re1 Th1 3.191934 1_565
B0 B6 1.761057 1_545
B0 B4 1.876202 1_555
B0 B1 1.877553 1_545
B0 Re0 2.409170 1_555
B0 Re0 2.409170 1_556
B0 Th1 2.847196 1_556
B0 Th1 2.847196 1_555
B0 Th0 2.856707 1_545
B0 Th0 2.856707 1_546
B1 B7 1.761057 1_565
B1 B5 1.876202 1_555
B1 Re1 2.409170 1_555
B1 Re1 2.409170 1_556
B1 Th0 2.847196 1_555
B1 Th0 2.847196 1_556
B1 Th1 2.856707 1_566
B1 Th1 2.856707 1_565
B2 B7 1.761057 1_455
B2 B4 1.876202 1_555
B2 B3 1.877553 1_455
B2 Re0 2.409170 1_555
B2 Re0 2.409170 1_556
B2 Th0 2.847196 1_555
B2 Th0 2.847196 1_556
B2 Th1 2.856707 1_455
B2 Th1 2.856707 1_456
B3 B6 1.761057 1_655
B3 B5 1.876202 1_555
B3 Re1 2.409170 1_555
B3 Re1 2.409170 1_556
B3 Th1 2.847196 1_556
B3 Th1 2.847196 1_555
B3 Th0 2.856707 1_656
B3 Th0 2.856707 1_655
B4 B5 1.918044 1_555
B4 Re0 2.350559 1_556
B4 Re0 2.350559 1_555
B4 Th1 2.844548 1_555
B4 Th0 2.844548 1_555
B4 Th0 2.844548 1_556
B4 Th1 2.844548 1_556
B5 Re1 2.350559 1_556
B5 Re1 2.350559 1_555
B5 Th1 2.844548 1_555
B5 Th0 2.844548 1_555
B5 Th0 2.844548 1_556
B5 Th1 2.844548 1_556
B6 B7 1.709561 1_465
B6 Re1 2.471575 1_455
B6 Re1 2.471575 1_456
B6 Re0 2.471575 1_565
B6 Re0 2.471575 1_566
B6 Th0 2.762715 1_555
B6 Th0 2.762715 1_556
B7 Re1 2.471575 1_546
B7 Re1 2.471575 1_545
B7 Re0 2.471575 1_655
B7 Re0 2.471575 1_656
B7 Th1 2.762715 1_556
B7 Th1 2.762715 1_555
