# generated using pymatgen
data_Zr2VRe3
_symmetry_space_group_name_H-M   'P 1'
_cell_length_a   5.30159437
_cell_length_b   5.30159547
_cell_length_c   8.48098269
_cell_angle_alpha   90.00003483
_cell_angle_beta   89.99996650
_cell_angle_gamma   120.00004855
_symmetry_Int_Tables_number   1
_chemical_formula_structural   Zr2VRe3
_chemical_formula_sum   'Zr4 V2 Re6'
_cell_volume   206.43801716
_cell_formula_units_Z   2
loop_
 _symmetry_equiv_pos_site_id
 _symmetry_equiv_pos_as_xyz
  1  'x, y, z'
loop_
 _atom_site_type_symbol
 _atom_site_label
 _atom_site_symmetry_multiplicity
 _atom_site_fract_x
 _atom_site_fract_y
 _atom_site_fract_z
 _atom_site_occupancy
  Zr  Zr0  1  0.33333167  0.66666462  0.43763071  1
  Zr  Zr1  1  0.66666618  0.33333157  0.56239524  1
  Zr  Zr2  1  0.66666318  0.33333143  0.93758157  1
  Zr  Zr3  1  0.33333065  0.66666390  0.06239240  1
  V  V0  1  0.00000564  0.00000416  0.50002240  1
  V  V1  1  0.00000203  0.00000400  -0.00002262  1
  Re  Re0  1  0.83092278  0.16907435  0.25001605  1
  Re  Re1  1  0.83092483  0.66184823  0.25001573  1
  Re  Re2  1  0.33815440  0.16907467  0.25001517  1
  Re  Re3  1  0.16907970  0.83091846  0.74998443  1
  Re  Re4  1  0.16908063  0.33816475  0.74998429  1
  Re  Re5  1  0.66183832  0.83091885  0.74998362  1
loop_
_geom_bond_atom_site_label_1
_geom_bond_atom_site_label_2
_geom_bond_distance
_geom_bond_site_symmetry_2
Zr0 Zr3 3.182390 1_555
Zr0 Zr1 3.238604 1_455
Zr0 Zr1 3.238611 1_565
Zr0 Zr1 3.238616 1_555
Zr1 Zr2 3.181949 1_555
Zr2 Zr3 3.238732 1_556
Zr2 Zr3 3.238741 1_656
Zr2 Zr3 3.238742 1_546
V0 Zr1 3.106221 1_555
V0 Zr0 3.106249 1_555
V0 Zr1 3.106252 1_455
V0 Zr0 3.106273 1_545
V0 Zr1 3.106276 1_445
V0 Zr0 3.106309 1_445
V1 Zr2 3.106257 1_554
V1 Zr3 3.106280 1_555
V1 Zr2 3.106283 1_454
V1 Zr2 3.106309 1_444
V1 Zr3 3.106322 1_545
V1 Zr3 3.106331 1_445
Re0 Re2 2.612459 1_555
Re0 Re1 2.612482 1_555
Re0 V0 2.627954 1_655
Re0 V1 2.628164 1_655
Re0 Re1 2.689113 1_545
Re0 Re2 2.689135 1_655
Re0 Zr1 3.048556 1_555
Re0 Zr2 3.048972 1_554
Re0 Zr0 3.091759 1_655
Re0 Zr0 3.091763 1_545
Re0 Zr3 3.091794 1_655
Re0 Zr3 3.091806 1_545
Re1 Re2 2.612476 1_555
Re1 V0 2.627962 1_665
Re1 V1 2.628179 1_665
Re1 Re2 2.689115 1_665
Re1 Zr1 3.048566 1_555
Re1 Zr2 3.048968 1_554
Re1 Zr0 3.091758 1_655
Re1 Zr0 3.091769 1_555
Re1 Zr3 3.091790 1_655
Re1 Zr3 3.091810 1_555
Re2 V0 2.627946 1_555
Re2 V1 2.628166 1_555
Re2 Zr1 3.048559 1_555
Re2 Zr2 3.048946 1_554
Re2 Zr0 3.091762 1_545
Re2 Zr0 3.091772 1_555
Re2 Zr3 3.091793 1_545
Re2 Zr3 3.091804 1_555
Re3 Re4 2.612383 1_555
Re3 Re5 2.612405 1_555
Re3 V0 2.627669 1_565
Re3 V1 2.627888 1_566
Re3 Re5 2.689189 1_455
Re3 Re4 2.689212 1_565
Re3 Zr0 3.048350 1_555
Re3 Zr3 3.048751 1_556
Re3 Zr1 3.091649 1_565
Re3 Zr1 3.091651 1_455
Re3 Zr2 3.091677 1_565
Re3 Zr2 3.091693 1_455
Re4 Re5 2.612390 1_555
Re4 V0 2.627668 1_555
Re4 V1 2.627883 1_556
Re4 Re5 2.689201 1_445
Re4 Zr0 3.048337 1_555
Re4 Zr3 3.048736 1_556
Re4 Zr1 3.091642 1_455
Re4 Zr1 3.091660 1_555
Re4 Zr2 3.091684 1_555
Re4 Zr2 3.091690 1_455
Re5 V0 2.627682 1_665
Re5 V1 2.627895 1_666
Re5 Zr0 3.048347 1_555
Re5 Zr3 3.048760 1_556
Re5 Zr1 3.091644 1_565
Re5 Zr1 3.091653 1_555
Re5 Zr2 3.091690 1_565
Re5 Zr2 3.091690 1_555
