# generated using pymatgen
data_U(Fe5Si)2
_symmetry_space_group_name_H-M   'P 1'
_cell_length_a   4.75987300
_cell_length_b   6.27456650
_cell_length_c   6.28407422
_cell_angle_alpha   98.25910946
_cell_angle_beta   112.25472847
_cell_angle_gamma   67.70974003
_symmetry_Int_Tables_number   1
_chemical_formula_structural   U(Fe5Si)2
_chemical_formula_sum   'U1 Fe10 Si2'
_cell_volume   160.72062780
_cell_formula_units_Z   1
loop_
 _symmetry_equiv_pos_site_id
 _symmetry_equiv_pos_as_xyz
  1  'x, y, z'
loop_
 _atom_site_type_symbol
 _atom_site_label
 _atom_site_symmetry_multiplicity
 _atom_site_fract_x
 _atom_site_fract_y
 _atom_site_fract_z
 _atom_site_occupancy
  U  U0  1  0.00000000  0.00000000  0.00000000  1
  Fe  Fe0  1  0.64436800  0.35302200  0.64175800  1
  Fe  Fe1  1  0.35563200  0.64697800  0.35824200  1
  Fe  Fe2  1  0.00261000  0.35302200  0.35824200  1
  Fe  Fe3  1  0.99739000  0.64697800  0.64175800  1
  Fe  Fe4  1  0.50000000  0.50000000  0.00000000  1
  Fe  Fe5  1  0.00000000  0.50000000  0.00000000  1
  Fe  Fe6  1  0.71959400  0.78304100  0.22222900  1
  Fe  Fe7  1  0.28040600  0.21695900  0.77777100  1
  Fe  Fe8  1  0.49736500  0.78304100  0.77777100  1
  Fe  Fe9  1  0.50263500  0.21695900  0.22222900  1
  Si  Si0  1  0.50000000  0.00000000  0.50000000  1
  Si  Si1  1  0.00000000  0.00000000  0.50000000  1
loop_
_geom_bond_atom_site_label_1
_geom_bond_atom_site_label_2
_geom_bond_distance
_geom_bond_site_symmetry_2
Fe0 Fe1 2.373075 1_555
Fe0 Si0 2.509256 1_555
Fe0 Si1 2.509256 1_655
Fe0 Fe4 2.546612 1_556
Fe0 Fe5 2.546612 1_656
Fe0 Fe9 2.564653 1_555
Fe0 Fe8 2.618886 1_555
Fe0 Fe7 2.629422 1_555
Fe0 Fe7 2.629422 1_655
Fe0 Fe2 2.895347 1_655
Fe0 Fe2 2.895347 1_555
Fe0 U0 2.922615 1_656
Fe0 Fe3 2.928591 1_555
Fe0 Fe3 2.928591 1_455
Fe1 Si0 2.509256 1_565
Fe1 Si1 2.509256 1_565
Fe1 Fe4 2.546612 1_555
Fe1 Fe5 2.546612 1_555
Fe1 Fe8 2.564653 1_555
Fe1 Fe9 2.618886 1_555
Fe1 Fe6 2.629422 1_555
Fe1 Fe6 2.629422 1_455
Fe1 Fe3 2.895347 1_455
Fe1 Fe3 2.895347 1_555
Fe1 U0 2.922615 1_565
Fe1 Fe2 2.928591 1_555
Fe1 Fe2 2.928591 1_655
Fe2 Fe3 2.373075 1_455
Fe2 Si1 2.509256 1_555
Fe2 Si0 2.509256 1_555
Fe2 Fe5 2.546612 1_555
Fe2 Fe4 2.546613 1_455
Fe2 Fe7 2.564653 1_555
Fe2 Fe6 2.618886 1_455
Fe2 Fe9 2.629422 1_455
Fe2 Fe9 2.629422 1_555
Fe2 U0 2.922615 1_555
Fe3 Si1 2.509256 1_665
Fe3 Si0 2.509256 1_565
Fe3 Fe5 2.546612 1_656
Fe3 Fe4 2.546613 1_656
Fe3 Fe6 2.564653 1_555
Fe3 Fe7 2.618886 1_655
Fe3 Fe8 2.629422 1_655
Fe3 Fe8 2.629422 1_555
Fe3 U0 2.922615 1_666
Fe4 Fe5 2.379936 1_655
Fe4 Fe5 2.379936 1_555
Fe4 Fe9 2.405575 1_555
Fe4 Fe8 2.405575 1_554
Fe4 Fe6 2.405575 1_555
Fe4 Fe7 2.405575 1_554
Fe4 U0 3.137283 1_655
Fe4 U0 3.137283 1_565
Fe5 Fe7 2.405575 1_554
Fe5 Fe6 2.405575 1_455
Fe5 Fe8 2.405575 1_454
Fe5 Fe9 2.405575 1_555
Fe5 U0 3.137283 1_565
Fe5 U0 3.137283 1_555
Fe6 Si0 2.369066 1_565
Fe6 Si1 2.369066 1_665
Fe6 Fe9 2.519195 1_565
Fe6 Fe8 2.584954 1_554
Fe6 U0 2.986834 1_665
Fe6 U0 2.986835 1_565
Fe7 Si0 2.369066 1_555
Fe7 Si1 2.369066 1_555
Fe7 Fe8 2.519195 1_545
Fe7 Fe9 2.584954 1_556
Fe7 U0 2.986834 1_556
Fe7 U0 2.986835 1_656
Fe8 Si0 2.369066 1_565
Fe8 Si1 2.369066 1_565
Fe8 U0 2.986835 1_566
Fe8 U0 2.986835 1_666
Fe9 Si0 2.369066 1_555
Fe9 Si1 2.369066 1_655
Fe9 U0 2.986835 1_655
Fe9 U0 2.986835 1_555
Si0 Si1 2.379936 1_555
Si0 Si1 2.379936 1_655
Si0 U0 3.142037 1_555
Si0 U0 3.142037 1_656
Si1 U0 3.142037 1_556
Si1 U0 3.142037 1_555
