# generated using pymatgen
data_La3Gd(ClO)4
_symmetry_space_group_name_H-M   'P 1'
_cell_length_a   4.09587100
_cell_length_b   6.95072900
_cell_length_c   8.18975500
_cell_angle_alpha   90.00000000
_cell_angle_beta   90.00000000
_cell_angle_gamma   90.00000000
_symmetry_Int_Tables_number   1
_chemical_formula_structural   La3Gd(ClO)4
_chemical_formula_sum   'La3 Gd1 Cl4 O4'
_cell_volume   233.15650472
_cell_formula_units_Z   1
loop_
 _symmetry_equiv_pos_site_id
 _symmetry_equiv_pos_as_xyz
  1  'x, y, z'
loop_
 _atom_site_type_symbol
 _atom_site_label
 _atom_site_symmetry_multiplicity
 _atom_site_fract_x
 _atom_site_fract_y
 _atom_site_fract_z
 _atom_site_occupancy
  La  La0  1  0.00000000  0.17773500  0.50000000  1
  La  La1  1  0.50000000  0.82574700  0.75163200  1
  La  La2  1  0.50000000  0.82574700  0.24836800  1
  Gd  Gd0  1  0.00000000  0.16245700  0.00000000  1
  Cl  Cl0  1  0.00000000  0.62750900  0.00000000  1
  Cl  Cl1  1  0.00000000  0.63225600  0.50000000  1
  Cl  Cl2  1  0.50000000  0.36813900  0.75278300  1
  Cl  Cl3  1  0.50000000  0.36813900  0.24721700  1
  O  O0  1  0.50000000  0.00617600  0.00000000  1
  O  O1  1  0.50000000  0.00016000  0.50000000  1
  O  O2  1  0.00000000  0.00296800  0.75521400  1
  O  O3  1  0.00000000  0.00296800  0.24478600  1
loop_
_geom_bond_atom_site_label_1
_geom_bond_atom_site_label_2
_geom_bond_distance
_geom_bond_site_symmetry_2
La0 O1 2.391124 1_455
La0 O1 2.391124 1_555
La0 O2 2.417503 1_555
La0 O3 2.417503 1_555
La1 O0 2.389614 1_566
La1 O2 2.390035 1_665
La1 O2 2.390035 1_565
La1 O1 2.390937 1_565
La2 O0 2.389614 1_565
La2 O3 2.390035 1_565
La2 O3 2.390035 1_665
La2 O1 2.390937 1_565
Gd0 O3 2.290827 1_555
Gd0 O2 2.290827 1_554
Gd0 O0 2.318192 1_455
Gd0 O0 2.318192 1_555
Cl0 La2 3.198452 1_455
Cl0 La2 3.198452 1_555
Cl0 La1 3.198452 1_454
Cl0 La1 3.198452 1_554
Cl0 Gd0 3.232450 1_555
Cl1 La0 3.159252 1_555
Cl1 La1 3.201518 1_455
Cl1 La1 3.201518 1_555
Cl1 La2 3.201518 1_455
Cl1 La2 3.201518 1_555
Cl2 La1 3.180723 1_555
Cl2 La0 3.198657 1_555
Cl2 La0 3.198657 1_655
Cl2 Gd0 3.215137 1_656
Cl2 Gd0 3.215137 1_556
Cl3 La2 3.180723 1_555
Cl3 La0 3.198657 1_555
Cl3 La0 3.198657 1_655
Cl3 Gd0 3.215137 1_555
Cl3 Gd0 3.215137 1_655
