# generated using pymatgen
data_MgTi3(P2O7)2
_symmetry_space_group_name_H-M   'P 1'
_cell_length_a   7.39175800
_cell_length_b   7.37116400
_cell_length_c   9.67073997
_cell_angle_alpha   71.68934378
_cell_angle_beta   90.00000000
_cell_angle_gamma   90.00000000
_symmetry_Int_Tables_number   1
_chemical_formula_structural   MgTi3(P2O7)2
_chemical_formula_sum   'Mg2 Ti6 P8 O28'
_cell_volume   500.23915278
_cell_formula_units_Z   2
loop_
 _symmetry_equiv_pos_site_id
 _symmetry_equiv_pos_as_xyz
  1  'x, y, z'
loop_
 _atom_site_type_symbol
 _atom_site_label
 _atom_site_symmetry_multiplicity
 _atom_site_fract_x
 _atom_site_fract_y
 _atom_site_fract_z
 _atom_site_occupancy
  Mg  Mg0  1  0.00000000  0.50000000  0.00000000  1
  Mg  Mg1  1  0.50000000  0.50000000  0.50000000  1
  Ti  Ti0  1  0.16440600  0.82675700  0.51323400  1
  Ti  Ti1  1  0.66440600  0.17324300  0.98676600  1
  Ti  Ti2  1  0.83559400  0.17324300  0.48676600  1
  Ti  Ti3  1  0.33559400  0.82675700  0.01323400  1
  Ti  Ti4  1  0.00000000  0.00000000  0.00000000  1
  Ti  Ti5  1  0.50000000  0.00000000  0.50000000  1
  P  P0  1  0.92945900  0.43319300  0.69725600  1
  P  P1  1  0.42945900  0.56680700  0.80274400  1
  P  P2  1  0.07054100  0.56680700  0.30274400  1
  P  P3  1  0.57054100  0.43319300  0.19725600  1
  P  P4  1  0.20714000  0.14245900  0.67857300  1
  P  P5  1  0.70714000  0.85754100  0.82142700  1
  P  P6  1  0.79286000  0.85754100  0.32142700  1
  P  P7  1  0.29286000  0.14245900  0.17857300  1
  O  O0  1  0.38770400  0.20285100  0.59833200  1
  O  O1  1  0.88770400  0.79714900  0.90166800  1
  O  O2  1  0.61229600  0.79714900  0.40166800  1
  O  O3  1  0.11229600  0.20285100  0.09833200  1
  O  O4  1  0.39902300  0.65355200  0.63476100  1
  O  O5  1  0.89902300  0.34644800  0.86523900  1
  O  O6  1  0.60097700  0.34644800  0.36523900  1
  O  O7  1  0.10097700  0.65355200  0.13476100  1
  O  O8  1  0.78056400  0.37600400  0.60762000  1
  O  O9  1  0.28056400  0.62399600  0.89238000  1
  O  O10  1  0.21943600  0.62399600  0.39238000  1
  O  O11  1  0.71943600  0.37600400  0.10762000  1
  O  O12  1  0.11769000  0.34378000  0.66562900  1
  O  O13  1  0.61769000  0.65622000  0.83437100  1
  O  O14  1  0.88231000  0.65622000  0.33437100  1
  O  O15  1  0.38231000  0.34378000  0.16562900  1
  O  O16  1  0.52496100  0.64303700  0.15527900  1
  O  O17  1  0.02496100  0.35696300  0.34472100  1
  O  O18  1  0.47503900  0.35696300  0.84472100  1
  O  O19  1  0.97503900  0.64303700  0.65527900  1
  O  O20  1  0.78913600  0.96361400  0.15649500  1
  O  O21  1  0.28913600  0.03638600  0.34350500  1
  O  O22  1  0.21086400  0.03638600  0.84350500  1
  O  O23  1  0.71086400  0.96361400  0.65649500  1
  O  O24  1  0.42121000  0.04113700  0.10189100  1
  O  O25  1  0.92121000  0.95886300  0.39810900  1
  O  O26  1  0.57879000  0.95886300  0.89810900  1
  O  O27  1  0.07879000  0.04113700  0.60189100  1
loop_
_geom_bond_atom_site_label_1
_geom_bond_atom_site_label_2
_geom_bond_distance
_geom_bond_site_symmetry_2
Mg0 O7 2.112697 1_555
Mg0 O5 2.112697 1_454
Mg0 O3 2.254353 1_555
Mg0 O1 2.254353 1_454
Mg0 O9 2.371027 1_554
Mg0 O11 2.371027 1_455
Mg1 O6 2.112697 1_555
Mg1 O4 2.112697 1_555
Mg1 O0 2.254353 1_555
Mg1 O2 2.254353 1_555
Mg1 O8 2.371027 1_555
Mg1 O10 2.371027 1_555
O0 P4 1.537745 1_555
O0 Ti5 2.173131 1_555
O1 P5 1.537745 1_555
O1 Ti4 2.173131 1_666
O2 P6 1.537745 1_555
O2 Ti5 2.173131 1_565
O3 P7 1.537745 1_555
O3 Ti4 2.173131 1_555
O4 P1 1.563921 1_555
O4 Ti0 2.252998 1_555
O4 Ti5 2.585705 1_565
O5 P0 1.563921 1_555
O5 Ti1 2.252998 1_555
O5 Ti4 2.585705 1_656
O6 P3 1.563921 1_555
O6 Ti2 2.252998 1_555
O6 Ti5 2.585705 1_555
O7 P2 1.563921 1_555
O7 Ti3 2.252998 1_555
O7 Ti4 2.585705 1_565
O8 P0 1.539495 1_555
O8 Ti2 2.205174 1_555
O9 P1 1.539495 1_555
O9 Ti3 2.205174 1_556
O10 P2 1.539495 1_555
O10 Ti0 2.205174 1_555
O11 P3 1.539495 1_555
O11 Ti1 2.205174 1_554
O12 P4 1.593202 1_555
O12 P0 1.609494 1_455
O13 P5 1.593202 1_555
O13 P1 1.609494 1_555
O14 P6 1.593202 1_555
O14 P2 1.609494 1_655
O15 P7 1.593202 1_555
O15 P3 1.609494 1_555
O16 P3 1.508753 1_555
O16 Ti3 2.123998 1_555
O17 P2 1.508753 1_555
O17 Ti2 2.123998 1_455
O18 P1 1.508753 1_555
O18 Ti1 2.123998 1_555
O19 P0 1.508753 1_555
O19 Ti0 2.123998 1_655
O20 P6 1.540311 1_555
O20 Ti1 2.082848 1_564
O20 Ti4 2.129963 1_665
O21 P7 1.540311 1_555
O21 Ti0 2.082848 1_545
O21 Ti5 2.129963 1_555
O22 P4 1.540311 1_555
O22 Ti3 2.082848 1_546
O22 Ti4 2.129963 1_556
O23 P5 1.540311 1_555
O23 Ti2 2.082848 1_565
O23 Ti5 2.129963 1_565
O24 P7 1.534871 1_555
O24 Ti3 2.117554 1_545
O24 Ti1 2.176716 1_554
O25 P6 1.534871 1_555
O25 Ti2 2.117554 1_565
O25 Ti0 2.176716 1_655
O26 P5 1.534871 1_555
O26 Ti1 2.117554 1_565
O26 Ti3 2.176716 1_556
O27 P4 1.534871 1_555
O27 Ti0 2.117554 1_545
O27 Ti2 2.176716 1_455
