# generated using pymatgen
data_Na4Co9(MoO4)12
_symmetry_space_group_name_H-M   'P 1'
_cell_length_a   5.28321400
_cell_length_b   10.96020798
_cell_length_c   17.99822580
_cell_angle_alpha   91.06485596
_cell_angle_beta   90.19595216
_cell_angle_gamma   90.20909473
_symmetry_Int_Tables_number   1
_chemical_formula_structural   Na4Co9(MoO4)12
_chemical_formula_sum   'Na4 Co9 Mo12 O48'
_cell_volume   1041.99623567
_cell_formula_units_Z   1
loop_
 _symmetry_equiv_pos_site_id
 _symmetry_equiv_pos_as_xyz
  1  'x, y, z'
loop_
 _atom_site_type_symbol
 _atom_site_label
 _atom_site_symmetry_multiplicity
 _atom_site_fract_x
 _atom_site_fract_y
 _atom_site_fract_z
 _atom_site_occupancy
  Na  Na0  1  0.23908000  0.74813300  0.19050400  1
  Na  Na1  1  0.74032400  0.75228700  0.30802100  1
  Na  Na2  1  0.76891200  0.25174500  0.80684600  1
  Na  Na3  1  0.26441300  0.24860600  0.69386600  1
  Co  Co0  1  0.60766000  0.74991200  0.75024100  1
  Co  Co1  1  0.89645300  0.24949200  0.25055900  1
  Co  Co2  1  0.39671600  0.24939700  0.24914700  1
  Co  Co3  1  0.75547800  0.07037200  0.97170100  1
  Co  Co4  1  0.25190300  0.42846700  0.52840800  1
  Co  Co5  1  0.76168700  0.44589900  0.97251000  1
  Co  Co6  1  0.25641900  0.05643200  0.52750100  1
  Co  Co7  1  0.24477100  0.93192200  0.02244900  1
  Co  Co8  1  0.74920300  0.57700100  0.47678700  1
  Mo  Mo0  1  0.72015100  0.51176500  0.15446600  1
  Mo  Mo1  1  0.22092900  0.98758500  0.34541600  1
  Mo  Mo2  1  0.28920900  0.01676200  0.84725900  1
  Mo  Mo3  1  0.78198100  0.47923500  0.65284200  1
  Mo  Mo4  1  0.29490000  0.48267200  0.85019600  1
  Mo  Mo5  1  0.78805400  0.01947200  0.64990200  1
  Mo  Mo6  1  0.71059700  0.98057300  0.15089000  1
  Mo  Mo7  1  0.21379600  0.51894500  0.34754400  1
  Mo  Mo8  1  0.77503000  0.75418600  0.94585500  1
  Mo  Mo9  1  0.28502400  0.74707900  0.55660700  1
  Mo  Mo10  1  0.22148500  0.25019900  0.05502300  1
  Mo  Mo11  1  0.72205100  0.24848300  0.44519400  1
  O  O0  1  0.89635800  0.47001300  0.06887900  1
  O  O1  1  0.39540200  0.02976400  0.43145400  1
  O  O2  1  0.07948000  0.98747300  0.92858100  1
  O  O3  1  0.57603600  0.50715300  0.57146500  1
  O  O4  1  0.06730300  0.51319900  0.92286500  1
  O  O5  1  0.56789600  0.99274700  0.57518000  1
  O  O6  1  0.91536600  0.01726800  0.07221500  1
  O  O7  1  0.41255800  0.48298700  0.42758800  1
  O  O8  1  0.56989400  0.88728100  0.96581200  1
  O  O9  1  0.07340600  0.61479500  0.53846000  1
  O  O10  1  0.43153000  0.36993500  0.03536400  1
  O  O11  1  0.93109600  0.12877300  0.46569100  1
  O  O12  1  0.40962400  0.11429800  0.03517000  1
  O  O13  1  0.91180700  0.38373500  0.46571800  1
  O  O14  1  0.61097400  0.61259200  0.96649500  1
  O  O15  1  0.11470800  0.88644300  0.53705100  1
  O  O16  1  0.45464800  0.59506300  0.13018000  1
  O  O17  1  0.95478500  0.90429200  0.36972800  1
  O  O18  1  0.56180600  0.10539500  0.87945500  1
  O  O19  1  0.06622200  0.39795000  0.62241700  1
  O  O20  1  0.57868400  0.39784400  0.88743400  1
  O  O21  1  0.08331900  0.09938600  0.61411600  1
  O  O22  1  0.42982100  0.90089700  0.11847200  1
  O  O23  1  0.93371700  0.59822000  0.37897000  1
  O  O24  1  0.91164700  0.60869200  0.21046100  1
  O  O25  1  0.41085100  0.89090100  0.28948400  1
  O  O26  1  0.11192700  0.10991600  0.78800200  1
  O  O27  1  0.61060900  0.38271300  0.71119100  1
  O  O28  1  0.13024200  0.38194800  0.78995400  1
  O  O29  1  0.62745800  0.12201900  0.70884100  1
  O  O30  1  0.89018800  0.88260000  0.20527800  1
  O  O31  1  0.39555700  0.61695000  0.29390700  1
  O  O32  1  0.05060500  0.77183800  0.00375500  1
  O  O33  1  0.54347700  0.73069600  0.49271700  1
  O  O34  1  0.94784900  0.25043100  0.99143100  1
  O  O35  1  0.44733800  0.24881600  0.50786900  1
  O  O36  1  0.83750900  0.75459900  0.84922600  1
  O  O37  1  0.39081400  0.74691800  0.64996600  1
  O  O38  1  0.14712000  0.25331000  0.15447400  1
  O  O39  1  0.64947200  0.24579000  0.34542200  1
  O  O40  1  0.64491800  0.37292400  0.20840200  1
  O  O41  1  0.14542100  0.12638100  0.29147000  1
  O  O42  1  0.38412700  0.88366900  0.79778600  1
  O  O43  1  0.83772000  0.61802200  0.70261400  1
  O  O44  1  0.38446500  0.61471900  0.80163200  1
  O  O45  1  0.83320600  0.88320000  0.69942100  1
  O  O46  1  0.64502800  0.12136300  0.20379700  1
  O  O47  1  0.14718900  0.37746600  0.29520500  1
loop_
_geom_bond_atom_site_label_1
_geom_bond_atom_site_label_2
_geom_bond_distance
_geom_bond_site_symmetry_2
Na0 O16 2.290236 1_555
Na0 O24 2.337228 1_455
Na0 O22 2.361558 1_555
Na0 O30 2.376766 1_455
Na0 O31 2.512345 1_555
Na0 O25 2.514088 1_555
Na1 O17 2.280718 1_555
Na1 O25 2.341691 1_555
Na1 O31 2.354923 1_555
Na1 O23 2.368495 1_555
Na1 O30 2.487217 1_555
Na1 O24 2.509577 1_555
Na2 O18 2.356446 1_555
Na2 O29 2.362520 1_555
Na2 O20 2.369242 1_555
Na2 O28 2.402778 1_655
Na2 O27 2.411369 1_555
Na2 O26 2.412621 1_655
Na3 O19 2.347521 1_555
Na3 O21 2.354225 1_555
Na3 O28 2.356099 1_555
Na3 O27 2.358484 1_555
Na3 O29 2.388777 1_555
Na3 O26 2.434408 1_555
Co0 O42 2.061323 1_555
Co0 O43 2.067756 1_555
Co0 O45 2.105965 1_555
Co0 O44 2.118306 1_555
Co0 O37 2.134048 1_555
Co0 O36 2.152335 1_555
Co1 O41 2.033778 1_655
Co1 O40 2.053355 1_555
Co1 O47 2.074877 1_655
Co1 O46 2.092782 1_555
Co1 O39 2.153326 1_555
Co1 O38 2.182711 1_655
Co2 O40 2.029981 1_555
Co2 O41 2.047627 1_555
Co2 O46 2.081980 1_555
Co2 O47 2.091198 1_555
Co2 O38 2.152189 1_555
Co2 O39 2.185037 1_555
Co3 O18 1.991412 1_555
Co3 O2 2.086201 1_645
Co3 O6 2.087423 1_556
Co3 O12 2.208097 1_556
Co3 O8 2.230808 1_545
Co3 O34 2.238420 1_555
Co4 O19 1.991748 1_555
Co4 O3 2.057217 1_555
Co4 O7 2.101743 1_555
Co4 O13 2.168197 1_455
Co4 O35 2.251703 1_555
Co4 O9 2.257011 1_555
Co5 O20 1.874300 1_555
Co5 O0 1.886164 1_556
Co5 O4 1.993787 1_655
Co5 O14 2.000251 1_555
Co5 O10 2.247976 1_556
Co5 O34 2.390243 1_555
Co6 O21 1.863821 1_555
Co6 O1 1.898521 1_555
Co6 O5 1.988112 1_545
Co6 O15 2.015906 1_545
Co6 O11 2.202270 1_455
Co6 O35 2.367050 1_555
Co7 O2 2.004890 1_554
Co7 O22 2.017668 1_555
Co7 O32 2.050983 1_555
Co7 O8 2.056342 1_554
Co7 O6 2.167343 1_465
Co7 O12 2.185273 1_565
Co8 O33 2.024531 1_555
Co8 O23 2.032031 1_555
Co8 O9 2.074180 1_655
Co8 O3 2.093047 1_555
Co8 O7 2.225105 1_555
Co8 O13 2.294206 1_555
Mo0 O16 1.735552 1_555
Mo0 O24 1.764427 1_555
Mo0 O0 1.853550 1_555
Mo0 O40 1.862559 1_555
Mo1 O17 1.735415 1_455
Mo1 O25 1.765826 1_555
Mo1 O1 1.849826 1_565
Mo1 O41 1.863512 1_565
Mo2 O26 1.760044 1_555
Mo2 O42 1.769840 1_545
Mo2 O18 1.821201 1_555
Mo2 O2 1.870574 1_545
Mo3 O27 1.755727 1_555
Mo3 O43 1.774069 1_555
Mo3 O19 1.829192 1_655
Mo3 O3 1.852254 1_555
Mo4 O28 1.758730 1_555
Mo4 O44 1.768423 1_555
Mo4 O4 1.807175 1_555
Mo4 O20 1.894184 1_555
Mo5 O29 1.754199 1_555
Mo5 O45 1.769919 1_545
Mo5 O5 1.794304 1_545
Mo5 O21 1.906123 1_655
Mo6 O30 1.746907 1_555
Mo6 O22 1.808089 1_555
Mo6 O46 1.832870 1_565
Mo6 O6 1.834580 1_565
Mo7 O31 1.745063 1_555
Mo7 O23 1.805896 1_455
Mo7 O7 1.829558 1_555
Mo7 O47 1.831708 1_555
Mo8 O36 1.771393 1_555
Mo8 O32 1.795321 1_656
Mo8 O14 1.819739 1_555
Mo8 O8 1.851018 1_555
Mo9 O37 1.769032 1_555
Mo9 O33 1.795514 1_555
Mo9 O15 1.815084 1_555
Mo9 O9 1.851166 1_555
Mo10 O10 1.757323 1_555
Mo10 O12 1.824210 1_555
Mo10 O38 1.833590 1_555
Mo10 O34 1.840866 1_454
Mo11 O11 1.761563 1_555
Mo11 O13 1.818035 1_555
Mo11 O39 1.834598 1_555
Mo11 O35 1.841205 1_555
