# generated using pymatgen
data_Ba3ZrNb4O15
_symmetry_space_group_name_H-M   'P 1'
_cell_length_a   4.15073700
_cell_length_b   12.84301100
_cell_length_c   12.84301100
_cell_angle_alpha   90.00000000
_cell_angle_beta   90.00000000
_cell_angle_gamma   90.00000000
_symmetry_Int_Tables_number   1
_chemical_formula_structural   Ba3ZrNb4O15
_chemical_formula_sum   'Ba6 Zr2 Nb8 O30'
_cell_volume   684.63472886
_cell_formula_units_Z   2
loop_
 _symmetry_equiv_pos_site_id
 _symmetry_equiv_pos_as_xyz
  1  'x, y, z'
loop_
 _atom_site_type_symbol
 _atom_site_label
 _atom_site_symmetry_multiplicity
 _atom_site_fract_x
 _atom_site_fract_y
 _atom_site_fract_z
 _atom_site_occupancy
  Ba  Ba0  1  0.33784400  0.50000000  0.50000000  1
  Ba  Ba1  1  0.33784400  0.00000000  0.00000000  1
  Ba  Ba2  1  0.33996900  0.83064900  0.33064900  1
  Ba  Ba3  1  0.33996900  0.16935100  0.66935100  1
  Ba  Ba4  1  0.33996900  0.66935100  0.83064900  1
  Ba  Ba5  1  0.33996900  0.33064900  0.16935100  1
  Zr  Zr0  1  0.82023400  0.00000000  0.50000000  1
  Zr  Zr1  1  0.82023400  0.50000000  0.00000000  1
  Nb  Nb0  1  0.85768900  0.28727400  0.42409600  1
  Nb  Nb1  1  0.85768900  0.71272600  0.57590400  1
  Nb  Nb2  1  0.85768900  0.21272600  0.92409600  1
  Nb  Nb3  1  0.85768900  0.78727400  0.07590400  1
  Nb  Nb4  1  0.85768900  0.42409600  0.71272600  1
  Nb  Nb5  1  0.85768900  0.57590400  0.28727400  1
  Nb  Nb6  1  0.85768900  0.92409600  0.78727400  1
  Nb  Nb7  1  0.85768900  0.07590400  0.21272600  1
  O  O0  1  0.81150800  0.48932500  0.16508300  1
  O  O1  1  0.81150800  0.51067500  0.83491700  1
  O  O2  1  0.81150800  0.01067500  0.66508300  1
  O  O3  1  0.81150800  0.98932500  0.33491700  1
  O  O4  1  0.81150800  0.16508300  0.51067500  1
  O  O5  1  0.81150800  0.83491700  0.48932500  1
  O  O6  1  0.81150800  0.66508300  0.98932500  1
  O  O7  1  0.81150800  0.33491700  0.01067500  1
  O  O8  1  0.81122800  0.71870400  0.21870400  1
  O  O9  1  0.81122800  0.28129600  0.78129600  1
  O  O10  1  0.81122800  0.78129600  0.71870400  1
  O  O11  1  0.81122800  0.21870400  0.28129600  1
  O  O12  1  0.31523700  0.00000000  0.50000000  1
  O  O13  1  0.31523700  0.50000000  0.00000000  1
  O  O14  1  0.30931100  0.29558100  0.41847100  1
  O  O15  1  0.30931100  0.70441900  0.58152900  1
  O  O16  1  0.30931100  0.20441900  0.91847100  1
  O  O17  1  0.30931100  0.79558100  0.08152900  1
  O  O18  1  0.30931100  0.41847100  0.70441900  1
  O  O19  1  0.30931100  0.58152900  0.29558100  1
  O  O20  1  0.30931100  0.91847100  0.79558100  1
  O  O21  1  0.30931100  0.08152900  0.20441900  1
  O  O22  1  0.81056500  0.43366200  0.36324300  1
  O  O23  1  0.81056500  0.56633800  0.63675700  1
  O  O24  1  0.81056500  0.06633800  0.86324300  1
  O  O25  1  0.81056500  0.93366200  0.13675700  1
  O  O26  1  0.81056500  0.36324300  0.56633800  1
  O  O27  1  0.81056500  0.63675700  0.43366200  1
  O  O28  1  0.81056500  0.86324300  0.93366200  1
  O  O29  1  0.81056500  0.13675700  0.06633800  1
loop_
_geom_bond_atom_site_label_1
_geom_bond_atom_site_label_2
_geom_bond_distance
_geom_bond_site_symmetry_2
Ba0 O23 2.767798 1_555
Ba0 O27 2.767798 1_555
Ba0 O22 2.767798 1_555
Ba0 O26 2.767798 1_555
Ba0 O15 2.828938 1_555
Ba0 O19 2.828938 1_555
Ba0 O18 2.828938 1_555
Ba0 O14 2.828938 1_555
Ba0 O22 2.932689 1_455
Ba0 O26 2.932689 1_455
Ba0 O23 2.932689 1_455
Ba0 O27 2.932689 1_455
Ba1 O25 2.767798 1_545
Ba1 O24 2.767798 1_554
Ba1 O28 2.767798 1_544
Ba1 O29 2.767798 1_555
Ba1 O16 2.828938 1_554
Ba1 O21 2.828938 1_555
Ba1 O20 2.828938 1_544
Ba1 O17 2.828938 1_545
Ba1 O24 2.932689 1_454
Ba1 O28 2.932689 1_444
Ba1 O29 2.932689 1_455
Ba1 O25 2.932689 1_445
Ba2 O8 2.821390 1_555
Ba2 O5 2.826078 1_555
Ba2 O3 2.826078 1_555
Ba2 O8 2.991752 1_455
Ba2 O5 2.994562 1_455
Ba2 O3 2.994562 1_455
Ba2 O12 3.077594 1_565
Ba2 O19 3.233500 1_555
Ba2 O17 3.233500 1_555
Ba3 O9 2.821390 1_555
Ba3 O2 2.826078 1_555
Ba3 O4 2.826078 1_555
Ba3 O9 2.991752 1_455
Ba3 O2 2.994562 1_455
Ba3 O4 2.994562 1_455
Ba3 O12 3.077594 1_555
Ba3 O18 3.233500 1_555
Ba3 O16 3.233500 1_555
Ba4 O10 2.821390 1_555
Ba4 O1 2.826078 1_555
Ba4 O6 2.826078 1_555
Ba4 O10 2.991752 1_455
Ba4 O1 2.994562 1_455
Ba4 O6 2.994562 1_455
Ba4 O13 3.077594 1_556
Ba4 O20 3.233500 1_555
Ba4 O15 3.233500 1_555
Ba5 O11 2.821390 1_555
Ba5 O0 2.826078 1_555
Ba5 O7 2.826078 1_555
Ba5 O11 2.991752 1_455
Ba5 O0 2.994562 1_455
Ba5 O7 2.994562 1_455
Ba5 O13 3.077594 1_555
Ba5 O21 3.233500 1_555
Ba5 O14 3.233500 1_555
Nb0 O14 1.878987 1_655
Nb0 O4 1.932834 1_555
Nb0 O11 2.043579 1_555
Nb0 O22 2.045408 1_555
Nb0 O26 2.080252 1_555
Nb0 O14 2.279817 1_555
Nb1 O15 1.878987 1_655
Nb1 O5 1.932834 1_555
Nb1 O10 2.043579 1_555
Nb1 O23 2.045408 1_555
Nb1 O27 2.080252 1_555
Nb1 O15 2.279817 1_555
Nb2 O16 1.878987 1_655
Nb2 O7 1.932834 1_556
Nb2 O9 2.043579 1_555
Nb2 O24 2.045408 1_555
Nb2 O29 2.080252 1_556
Nb2 O16 2.279817 1_555
Nb3 O17 1.878987 1_655
Nb3 O6 1.932834 1_554
Nb3 O8 2.043579 1_555
Nb3 O25 2.045408 1_555
Nb3 O28 2.080252 1_554
Nb3 O17 2.279817 1_555
Nb4 O18 1.878987 1_655
Nb4 O1 1.932834 1_555
Nb4 O9 2.043579 1_555
Nb4 O26 2.045408 1_555
Nb4 O23 2.080252 1_555
Nb4 O18 2.279817 1_555
Nb5 O19 1.878987 1_655
Nb5 O0 1.932834 1_555
Nb5 O8 2.043579 1_555
Nb5 O27 2.045408 1_555
Nb5 O22 2.080252 1_555
Nb5 O19 2.279817 1_555
Nb6 O20 1.878987 1_655
Nb6 O2 1.932834 1_565
Nb6 O10 2.043579 1_555
Nb6 O28 2.045408 1_555
Nb6 O24 2.080252 1_565
Nb6 O20 2.279817 1_555
Nb7 O21 1.878987 1_655
Nb7 O3 1.932834 1_545
Nb7 O11 2.043579 1_555
Nb7 O29 2.045408 1_555
Nb7 O25 2.080252 1_545
Nb7 O21 2.279817 1_555
O0 Zr1 2.124900 1_555
O1 Zr1 2.124900 1_556
O2 Zr0 2.124900 1_555
O3 Zr0 2.124900 1_565
O4 Zr0 2.124900 1_555
O5 Zr0 2.124900 1_565
O6 Zr1 2.124900 1_556
O7 Zr1 2.124900 1_555
O12 Zr0 2.054627 1_455
O12 Zr0 2.096110 1_555
O13 Zr1 2.054627 1_455
O13 Zr1 2.096110 1_555
