# generated using pymatgen
data_Nb12Al3Ge
_symmetry_space_group_name_H-M   'P 1'
_cell_length_a   5.19889500
_cell_length_b   5.20215300
_cell_length_c   10.39360800
_cell_angle_alpha   90.00000000
_cell_angle_beta   90.00000000
_cell_angle_gamma   90.00000000
_symmetry_Int_Tables_number   1
_chemical_formula_structural   Nb12Al3Ge
_chemical_formula_sum   'Nb12 Al3 Ge1'
_cell_volume   281.09977660
_cell_formula_units_Z   1
loop_
 _symmetry_equiv_pos_site_id
 _symmetry_equiv_pos_as_xyz
  1  'x, y, z'
loop_
 _atom_site_type_symbol
 _atom_site_label
 _atom_site_symmetry_multiplicity
 _atom_site_fract_x
 _atom_site_fract_y
 _atom_site_fract_z
 _atom_site_occupancy
  Nb  Nb0  1  0.50000000  0.00000000  0.37510100  1
  Nb  Nb1  1  0.50000000  0.00000000  0.87495900  1
  Nb  Nb2  1  0.75068400  0.50000000  0.00000000  1
  Nb  Nb3  1  0.75006400  0.50000000  0.50000000  1
  Nb  Nb4  1  0.00000000  0.74969600  0.25022800  1
  Nb  Nb5  1  0.00000000  0.74969600  0.74977200  1
  Nb  Nb6  1  0.50000000  0.00000000  0.12504100  1
  Nb  Nb7  1  0.50000000  0.00000000  0.62489900  1
  Nb  Nb8  1  0.24931600  0.50000000  0.00000000  1
  Nb  Nb9  1  0.24993600  0.50000000  0.50000000  1
  Nb  Nb10  1  0.00000000  0.25030400  0.25022800  1
  Nb  Nb11  1  0.00000000  0.25030400  0.74977200  1
  Al  Al0  1  0.50000000  0.50000000  0.25013700  1
  Al  Al1  1  0.50000000  0.50000000  0.74986300  1
  Al  Al2  1  0.00000000  0.00000000  0.00000000  1
  Ge  Ge0  1  0.00000000  0.00000000  0.50000000  1
loop_
_geom_bond_atom_site_label_1
_geom_bond_atom_site_label_2
_geom_bond_distance
_geom_bond_site_symmetry_2
Nb0 Nb7 2.596302 1_555
Nb0 Nb6 2.599026 1_555
Nb0 Nb10 3.183887 1_555
Nb0 Nb10 3.183887 1_655
Nb0 Nb4 3.183887 1_545
Nb0 Nb4 3.183887 1_645
Nb0 Nb3 3.184485 1_555
Nb0 Nb3 3.184485 1_545
Nb0 Nb9 3.184485 1_545
Nb0 Nb9 3.184485 1_555
Nb1 Nb7 2.599026 1_555
Nb1 Nb6 2.599254 1_556
Nb1 Nb11 3.185219 1_555
Nb1 Nb11 3.185219 1_655
Nb1 Nb5 3.185219 1_545
Nb1 Nb5 3.185219 1_645
Nb1 Nb2 3.186404 1_556
Nb1 Nb2 3.186404 1_546
Nb1 Nb8 3.186404 1_556
Nb1 Nb8 3.186404 1_546
Nb2 Nb8 2.592335 1_655
Nb2 Nb8 2.606560 1_555
Nb2 Nb5 3.182979 1_654
Nb2 Nb4 3.182979 1_655
Nb2 Nb6 3.186404 1_555
Nb2 Nb6 3.186404 1_565
Nb3 Nb9 2.598782 1_655
Nb3 Nb9 2.600113 1_555
Nb3 Nb5 3.180423 1_655
Nb3 Nb4 3.180423 1_655
Nb3 Nb7 3.184485 1_555
Nb3 Nb7 3.184485 1_565
Nb4 Nb9 3.180423 1_555
Nb4 Nb8 3.182979 1_555
Nb4 Nb6 3.185219 1_565
Nb4 Nb6 3.185219 1_465
Nb5 Nb9 3.180423 1_555
Nb5 Nb8 3.182979 1_556
Nb5 Nb7 3.183887 1_565
Nb5 Nb7 3.183887 1_465
Nb6 Nb8 3.186404 1_555
Nb6 Nb8 3.186404 1_545
Nb7 Nb9 3.184485 1_555
Nb7 Nb9 3.184485 1_545
Nb10 Nb4 2.597914 1_555
Nb10 Nb4 2.604239 1_545
Nb10 Nb9 3.180423 1_555
Nb10 Nb3 3.180423 1_455
Nb10 Nb8 3.182979 1_555
Nb10 Nb2 3.182979 1_455
Nb10 Nb6 3.185219 1_555
Nb10 Nb6 3.185219 1_455
Nb11 Nb5 2.597914 1_555
Nb11 Nb5 2.604239 1_545
Nb11 Nb9 3.180423 1_555
Nb11 Nb3 3.180423 1_455
Nb11 Nb8 3.182979 1_556
Nb11 Nb2 3.182979 1_456
Nb11 Nb7 3.183887 1_455
Nb11 Nb7 3.183887 1_555
Al0 Nb3 2.904211 1_555
Al0 Nb9 2.904211 1_555
Al0 Nb4 2.905928 1_655
Al0 Nb4 2.905928 1_555
Al0 Nb10 2.905928 1_655
Al0 Nb10 2.905928 1_555
Al0 Nb0 2.907327 1_555
Al0 Nb0 2.907327 1_565
Al0 Nb6 2.907940 1_555
Al0 Nb6 2.907940 1_565
Al0 Nb2 2.908201 1_555
Al0 Nb8 2.908201 1_555
Al1 Nb3 2.904211 1_555
Al1 Nb9 2.904211 1_555
Al1 Nb5 2.905928 1_555
Al1 Nb5 2.905928 1_655
Al1 Nb11 2.905928 1_555
Al1 Nb11 2.905928 1_655
Al1 Nb7 2.907327 1_555
Al1 Nb7 2.907327 1_565
Al1 Nb1 2.907940 1_555
Al1 Nb1 2.907940 1_565
Al1 Nb2 2.908201 1_556
Al1 Nb8 2.908201 1_556
Al2 Nb8 2.906140 1_545
Al2 Nb8 2.906140 1_555
Al2 Nb2 2.906140 1_445
Al2 Nb2 2.906140 1_455
Al2 Nb6 2.906227 1_555
Al2 Nb6 2.906227 1_455
Al2 Nb1 2.906227 1_454
Al2 Nb1 2.906227 1_554
Al2 Nb11 2.908527 1_554
Al2 Nb10 2.908527 1_555
Al2 Nb4 2.908527 1_545
Al2 Nb5 2.908527 1_544
Ge0 Nb11 2.904290 1_555
Ge0 Nb10 2.904290 1_555
Ge0 Nb5 2.904290 1_545
Ge0 Nb4 2.904290 1_545
Ge0 Nb7 2.905568 1_555
Ge0 Nb7 2.905568 1_455
Ge0 Nb0 2.905568 1_455
Ge0 Nb0 2.905568 1_555
Ge0 Nb3 2.907579 1_455
Ge0 Nb9 2.907579 1_555
Ge0 Nb9 2.907579 1_545
Ge0 Nb3 2.907579 1_445
