# generated using pymatgen
data_RbBSe3
_symmetry_space_group_name_H-M   'P 1'
_cell_length_a   12.70116300
_cell_length_b   6.28383900
_cell_length_c   7.50395862
_cell_angle_alpha   75.34263111
_cell_angle_beta   90.00000000
_cell_angle_gamma   90.00000000
_symmetry_Int_Tables_number   1
_chemical_formula_structural   RbBSe3
_chemical_formula_sum   'Rb4 B4 Se12'
_cell_volume   579.41578693
_cell_formula_units_Z   4
loop_
 _symmetry_equiv_pos_site_id
 _symmetry_equiv_pos_as_xyz
  1  'x, y, z'
loop_
 _atom_site_type_symbol
 _atom_site_label
 _atom_site_symmetry_multiplicity
 _atom_site_fract_x
 _atom_site_fract_y
 _atom_site_fract_z
 _atom_site_occupancy
  Rb  Rb0  1  0.92218900  0.29013500  0.25809500  1
  Rb  Rb1  1  0.42218900  0.20986500  0.74190500  1
  Rb  Rb2  1  0.07781100  0.70986500  0.74190500  1
  Rb  Rb3  1  0.57781100  0.79013500  0.25809500  1
  B  B0  1  0.76808800  0.30951000  0.70597700  1
  B  B1  1  0.26808800  0.19049000  0.29402300  1
  B  B2  1  0.23191200  0.69049000  0.29402300  1
  B  B3  1  0.73191200  0.80951000  0.70597700  1
  Se  Se0  1  0.82065700  0.81685300  0.93966100  1
  Se  Se1  1  0.32065700  0.68314700  0.06033900  1
  Se  Se2  1  0.17934300  0.18314700  0.06033900  1
  Se  Se3  1  0.67934300  0.31685300  0.93966100  1
  Se  Se4  1  0.59235200  0.65885900  0.80398300  1
  Se  Se5  1  0.09235200  0.84114100  0.19601700  1
  Se  Se6  1  0.40764800  0.34114100  0.19601700  1
  Se  Se7  1  0.90764800  0.15885900  0.80398300  1
  Se  Se8  1  0.80336300  0.62005300  0.54775000  1
  Se  Se9  1  0.30336300  0.87994700  0.45225000  1
  Se  Se10  1  0.19663700  0.37994700  0.45225000  1
  Se  Se11  1  0.69663700  0.12005300  0.54775000  1
loop_
_geom_bond_atom_site_label_1
_geom_bond_atom_site_label_2
_geom_bond_distance
_geom_bond_site_symmetry_2
Rb0 Se11 3.591367 1_555
Rb0 Se5 3.676077 1_645
Rb0 Se8 3.685177 1_555
Rb0 Se7 3.707989 1_554
Rb0 Se2 3.718434 1_655
Rb0 Se0 3.784859 1_554
Rb0 Se10 3.874033 1_655
Rb0 Se3 3.879257 1_554
Rb0 Se7 3.972952 1_555
Rb0 Se5 4.007526 1_655
Rb1 Se10 3.591367 1_555
Rb1 Se4 3.676077 1_555
Rb1 Se9 3.685177 1_545
Rb1 Se6 3.707989 1_556
Rb1 Se3 3.718434 1_555
Rb1 Se1 3.784859 1_546
Rb1 Se11 3.874033 1_555
Rb1 Se2 3.879257 1_556
Rb1 Se6 3.972952 1_555
Rb1 Se4 4.007526 1_545
Rb2 Se9 3.591367 1_555
Rb2 Se7 3.676077 1_465
Rb2 Se10 3.685177 1_555
Rb2 Se5 3.707989 1_556
Rb2 Se0 3.718434 1_455
Rb2 Se2 3.784859 1_556
Rb2 Se8 3.874033 1_455
Rb2 Se1 3.879257 1_556
Rb2 Se5 3.972952 1_555
Rb2 Se7 4.007526 1_455
Rb3 Se8 3.591367 1_555
Rb3 Se6 3.676077 1_555
Rb3 Se11 3.685177 1_565
Rb3 Se4 3.707989 1_554
Rb3 Se1 3.718434 1_555
Rb3 Se3 3.784859 1_564
Rb3 Se9 3.874033 1_555
Rb3 Se0 3.879257 1_554
Rb3 Se4 3.972952 1_555
Rb3 Se6 4.007526 1_565
B0 Se7 2.055900 1_555
B0 Se8 2.060558 1_555
B0 Se11 2.089501 1_555
B0 Se3 2.094883 1_555
B1 Se6 2.055900 1_555
B1 Se9 2.060558 1_545
B1 Se10 2.089501 1_555
B1 Se2 2.094883 1_555
B2 Se5 2.055900 1_555
B2 Se10 2.060558 1_555
B2 Se9 2.089501 1_555
B2 Se1 2.094883 1_555
B3 Se4 2.055900 1_555
B3 Se11 2.060558 1_565
B3 Se8 2.089501 1_555
B3 Se0 2.094883 1_555
