# generated using pymatgen
data_SrU3(SeO9)2
_symmetry_space_group_name_H-M   'P 1'
_cell_length_a   9.35534372
_cell_length_b   9.35534372
_cell_length_c   6.94699109
_cell_angle_alpha   81.67959152
_cell_angle_beta   81.67959152
_cell_angle_gamma   44.85560457
_symmetry_Int_Tables_number   1
_chemical_formula_structural   SrU3(SeO9)2
_chemical_formula_sum   'Sr1 U3 Se2 O18'
_cell_volume   423.56089861
_cell_formula_units_Z   1
loop_
 _symmetry_equiv_pos_site_id
 _symmetry_equiv_pos_as_xyz
  1  'x, y, z'
loop_
 _atom_site_type_symbol
 _atom_site_label
 _atom_site_symmetry_multiplicity
 _atom_site_fract_x
 _atom_site_fract_y
 _atom_site_fract_z
 _atom_site_occupancy
  Sr  Sr0  1  0.33434700  0.66565300  0.50000000  1
  U  U0  1  0.39249100  0.39370600  0.04676900  1
  U  U1  1  0.60629400  0.60750900  0.95323100  1
  U  U2  1  0.00212700  0.99787300  0.00000000  1
  Se  Se0  1  0.20469100  0.20725900  0.88532000  1
  Se  Se1  1  0.79274100  0.79530900  0.11468000  1
  O  O0  1  0.31743700  0.68256300  0.00000000  1
  O  O1  1  0.68519600  0.31480400  0.00000000  1
  O  O2  1  0.02168100  0.97747200  0.26484400  1
  O  O3  1  0.02252800  0.97831900  0.73515600  1
  O  O4  1  0.38359200  0.40792700  0.77817900  1
  O  O5  1  0.59207300  0.61640800  0.22182100  1
  O  O6  1  0.38398000  0.40868400  0.31317900  1
  O  O7  1  0.59131600  0.61602000  0.68682100  1
  O  O8  1  0.96142800  0.30981400  0.93929600  1
  O  O9  1  0.30661200  0.96422600  0.94240600  1
  O  O10  1  0.03577400  0.69338800  0.05759400  1
  O  O11  1  0.69018600  0.03857200  0.06070400  1
  O  O12  1  0.25253300  0.25707700  0.08153500  1
  O  O13  1  0.74292300  0.74746700  0.91846500  1
  O  O14  1  0.96260200  0.65064100  0.53498200  1
  O  O15  1  0.34935900  0.03739800  0.46501800  1
  O  O16  1  0.49725800  0.00106900  0.50325200  1
  O  O17  1  0.99893100  0.50274200  0.49674800  1
loop_
_geom_bond_atom_site_label_1
_geom_bond_atom_site_label_2
_geom_bond_distance
_geom_bond_site_symmetry_2
O0 U1 2.241214 1_554
O0 U0 2.241214 1_555
O0 U2 2.250835 1_555
O1 U0 2.257245 1_555
O1 U1 2.257245 1_554
O1 U2 2.262406 1_645
O2 U2 1.844258 1_555
O2 Sr0 2.764181 1_555
O3 U2 1.844258 1_556
O3 Sr0 2.764181 1_555
O4 U0 1.861074 1_556
O4 Sr0 2.663562 1_555
O5 U1 1.861074 1_554
O5 Sr0 2.663562 1_555
O6 U0 1.862211 1_555
O6 Sr0 2.612536 1_555
O7 U1 1.862211 1_555
O7 Sr0 2.612536 1_555
O8 Se0 1.732591 1_655
O8 U1 2.381266 1_555
O8 U2 2.637100 1_646
O9 Se0 1.735162 1_565
O9 U1 2.392956 1_555
O9 U2 2.609367 1_556
O10 Se1 1.735162 1_455
O10 U0 2.392956 1_555
O10 U2 2.609367 1_555
O11 Se1 1.732591 1_545
O11 U0 2.381266 1_555
O11 U2 2.637100 1_645
O12 Se0 1.712244 1_554
O12 U0 2.366121 1_555
O13 Se1 1.712244 1_556
O13 U1 2.366121 1_555
O14 O17 1.230469 1_555
O15 O16 1.230469 1_555
