# generated using pymatgen
data_MgSb2
_symmetry_space_group_name_H-M   'P 1'
_cell_length_a   12.97427386
_cell_length_b   12.97427386
_cell_length_c   16.66653196
_cell_angle_alpha   74.42137270
_cell_angle_beta   74.42137270
_cell_angle_gamma   28.71753175
_symmetry_Int_Tables_number   1
_chemical_formula_structural   MgSb2
_chemical_formula_sum   'Mg16 Sb32'
_cell_volume   1295.18938424
_cell_formula_units_Z   16
loop_
 _symmetry_equiv_pos_site_id
 _symmetry_equiv_pos_as_xyz
  1  'x, y, z'
loop_
 _atom_site_type_symbol
 _atom_site_label
 _atom_site_symmetry_multiplicity
 _atom_site_fract_x
 _atom_site_fract_y
 _atom_site_fract_z
 _atom_site_occupancy
  Mg  Mg0_0  1  0.31687500  0.31687500  0.24687800  1
  Mg  Mg0_1  1  0.31687500  0.31687500  0.74687800  1
  Mg  Mg0_2  1  0.31687500  0.81687500  0.24687800  1
  Mg  Mg0_3  1  0.31687500  0.81687500  0.74687800  1
  Mg  Mg0_4  1  0.81687500  0.31687500  0.24687800  1
  Mg  Mg0_5  1  0.81687500  0.31687500  0.74687800  1
  Mg  Mg0_6  1  0.81687500  0.81687500  0.24687800  1
  Mg  Mg0_7  1  0.81687500  0.81687500  0.74687800  1
  Mg  Mg1_0  1  0.18312500  0.18312500  0.25312200  1
  Mg  Mg1_1  1  0.18312500  0.18312500  0.75312200  1
  Mg  Mg1_2  1  0.18312500  0.68312500  0.25312200  1
  Mg  Mg1_3  1  0.18312500  0.68312500  0.75312200  1
  Mg  Mg1_4  1  0.68312500  0.18312500  0.25312200  1
  Mg  Mg1_5  1  0.68312500  0.18312500  0.75312200  1
  Mg  Mg1_6  1  0.68312500  0.68312500  0.25312200  1
  Mg  Mg1_7  1  0.68312500  0.68312500  0.75312200  1
  Sb  Sb0_0  1  0.13728400  0.13728400  0.10251450  1
  Sb  Sb0_1  1  0.13728400  0.13728400  0.60251450  1
  Sb  Sb0_2  1  0.13728400  0.63728400  0.10251450  1
  Sb  Sb0_3  1  0.13728400  0.63728400  0.60251450  1
  Sb  Sb0_4  1  0.63728400  0.13728400  0.10251450  1
  Sb  Sb0_5  1  0.63728400  0.13728400  0.60251450  1
  Sb  Sb0_6  1  0.63728400  0.63728400  0.10251450  1
  Sb  Sb0_7  1  0.63728400  0.63728400  0.60251450  1
  Sb  Sb1_0  1  0.01528250  0.01528250  0.11176000  1
  Sb  Sb1_1  1  0.01528250  0.01528250  0.61176000  1
  Sb  Sb1_2  1  0.01528250  0.51528250  0.11176000  1
  Sb  Sb1_3  1  0.01528250  0.51528250  0.61176000  1
  Sb  Sb1_4  1  0.51528250  0.01528250  0.11176000  1
  Sb  Sb1_5  1  0.51528250  0.01528250  0.61176000  1
  Sb  Sb1_6  1  0.51528250  0.51528250  0.11176000  1
  Sb  Sb1_7  1  0.51528250  0.51528250  0.61176000  1
  Sb  Sb2_0  1  0.48471750  0.48471750  0.38824000  1
  Sb  Sb2_1  1  0.48471750  0.48471750  0.88824000  1
  Sb  Sb2_2  1  0.48471750  0.98471750  0.38824000  1
  Sb  Sb2_3  1  0.48471750  0.98471750  0.88824000  1
  Sb  Sb2_4  1  0.98471750  0.48471750  0.38824000  1
  Sb  Sb2_5  1  0.98471750  0.48471750  0.88824000  1
  Sb  Sb2_6  1  0.98471750  0.98471750  0.38824000  1
  Sb  Sb2_7  1  0.98471750  0.98471750  0.88824000  1
  Sb  Sb3_0  1  0.36271600  0.36271600  0.39748550  1
  Sb  Sb3_1  1  0.36271600  0.36271600  0.89748550  1
  Sb  Sb3_2  1  0.36271600  0.86271600  0.39748550  1
  Sb  Sb3_3  1  0.36271600  0.86271600  0.89748550  1
  Sb  Sb3_4  1  0.86271600  0.36271600  0.39748550  1
  Sb  Sb3_5  1  0.86271600  0.36271600  0.89748550  1
  Sb  Sb3_6  1  0.86271600  0.86271600  0.39748550  1
  Sb  Sb3_7  1  0.86271600  0.86271600  0.89748550  1
loop_
_geom_bond_atom_site_label_1
_geom_bond_atom_site_label_2
_geom_bond_distance
_geom_bond_site_symmetry_2
Mg0_0 Sb0_2 3.024684 1_555
Mg0_0 Sb0_4 3.024684 1_555
Mg0_0 Sb3_0 3.038464 1_555
Mg0_0 Sb2_2 3.115520 1_545
Mg0_0 Sb2_4 3.115520 1_455
Mg0_0 Sb1_4 3.310699 1_555
Mg0_0 Sb1_2 3.310699 1_555
Mg0_1 Sb0_5 3.024684 1_555
Mg0_1 Sb0_3 3.024684 1_555
Mg0_1 Sb3_1 3.038464 1_555
Mg0_1 Sb2_5 3.115520 1_455
Mg0_1 Sb2_3 3.115520 1_545
Mg0_1 Sb1_5 3.310699 1_555
Mg0_1 Sb1_3 3.310699 1_555
Mg0_2 Sb0_6 3.024684 1_555
Mg0_2 Sb0_0 3.024684 1_565
Mg0_2 Sb3_2 3.038464 1_555
Mg0_2 Sb2_0 3.115520 1_555
Mg0_2 Sb2_6 3.115520 1_455
Mg0_2 Sb1_6 3.310699 1_555
Mg0_2 Sb1_0 3.310699 1_565
Mg0_3 Sb0_7 3.024684 1_555
Mg0_3 Sb0_1 3.024684 1_565
Mg0_3 Sb3_3 3.038464 1_555
Mg0_3 Sb2_1 3.115520 1_555
Mg0_3 Sb2_7 3.115520 1_455
Mg0_3 Sb1_1 3.310699 1_565
Mg0_3 Sb1_7 3.310699 1_555
Mg0_4 Sb0_6 3.024684 1_555
Mg0_4 Sb0_0 3.024684 1_655
Mg0_4 Sb3_4 3.038464 1_555
Mg0_4 Sb2_0 3.115520 1_555
Mg0_4 Sb2_6 3.115520 1_545
Mg0_4 Sb1_0 3.310699 1_655
Mg0_4 Sb1_6 3.310699 1_555
Mg0_5 Sb0_7 3.024684 1_555
Mg0_5 Sb0_1 3.024684 1_655
Mg0_5 Sb3_5 3.038464 1_555
Mg0_5 Sb2_1 3.115520 1_555
Mg0_5 Sb2_7 3.115520 1_545
Mg0_5 Sb1_1 3.310699 1_655
Mg0_5 Sb1_7 3.310699 1_555
Mg0_6 Sb0_2 3.024684 1_655
Mg0_6 Sb0_4 3.024684 1_565
Mg0_6 Sb3_6 3.038464 1_555
Mg0_6 Sb2_4 3.115520 1_555
Mg0_6 Sb2_2 3.115520 1_555
Mg0_6 Sb1_4 3.310699 1_565
Mg0_6 Sb1_2 3.310699 1_655
Mg0_7 Sb0_5 3.024684 1_565
Mg0_7 Sb0_3 3.024684 1_655
Mg0_7 Sb3_7 3.038464 1_555
Mg0_7 Sb2_5 3.115520 1_555
Mg0_7 Sb2_3 3.115520 1_555
Mg0_7 Sb1_3 3.310699 1_655
Mg0_7 Sb1_5 3.310699 1_565
Mg1_0 Sb3_2 3.024684 1_545
Mg1_0 Sb3_4 3.024684 1_455
Mg1_0 Sb0_0 3.038464 1_555
Mg1_0 Sb1_2 3.115520 1_555
Mg1_0 Sb1_4 3.115520 1_555
Mg1_0 Sb2_2 3.310699 1_545
Mg1_0 Sb2_4 3.310699 1_455
Mg1_1 Sb3_3 3.024684 1_545
Mg1_1 Sb3_5 3.024684 1_455
Mg1_1 Sb0_1 3.038464 1_555
Mg1_1 Sb1_5 3.115520 1_555
Mg1_1 Sb1_3 3.115520 1_555
Mg1_1 Sb2_3 3.310699 1_545
Mg1_1 Sb2_5 3.310699 1_455
Mg1_2 Sb3_6 3.024684 1_455
Mg1_2 Sb3_0 3.024684 1_555
Mg1_2 Sb0_2 3.038464 1_555
Mg1_2 Sb1_6 3.115520 1_555
Mg1_2 Sb1_0 3.115520 1_565
Mg1_2 Sb2_6 3.310699 1_455
Mg1_2 Sb2_0 3.310699 1_555
Mg1_3 Sb3_1 3.024684 1_555
Mg1_3 Sb3_7 3.024684 1_455
Mg1_3 Sb0_3 3.038464 1_555
Mg1_3 Sb1_7 3.115520 1_555
Mg1_3 Sb1_1 3.115520 1_565
Mg1_3 Sb2_7 3.310699 1_455
Mg1_3 Sb2_1 3.310699 1_555
Mg1_4 Sb3_6 3.024684 1_545
Mg1_4 Sb3_0 3.024684 1_555
Mg1_4 Sb0_4 3.038464 1_555
Mg1_4 Sb1_6 3.115520 1_555
Mg1_4 Sb1_0 3.115520 1_655
Mg1_4 Sb2_0 3.310699 1_555
Mg1_4 Sb2_6 3.310699 1_545
Mg1_5 Sb3_1 3.024684 1_555
Mg1_5 Sb3_7 3.024684 1_545
Mg1_5 Sb0_5 3.038464 1_555
Mg1_5 Sb1_7 3.115520 1_555
Mg1_5 Sb1_1 3.115520 1_655
Mg1_5 Sb2_7 3.310699 1_545
Mg1_5 Sb2_1 3.310699 1_555
Mg1_6 Sb3_4 3.024684 1_555
Mg1_6 Sb3_2 3.024684 1_555
Mg1_6 Sb0_6 3.038464 1_555
Mg1_6 Sb1_2 3.115520 1_655
Mg1_6 Sb1_4 3.115520 1_565
Mg1_6 Sb2_2 3.310699 1_555
Mg1_6 Sb2_4 3.310699 1_555
Mg1_7 Sb3_5 3.024684 1_555
Mg1_7 Sb3_3 3.024684 1_555
Mg1_7 Sb0_7 3.038464 1_555
Mg1_7 Sb1_3 3.115520 1_655
Mg1_7 Sb1_5 3.115520 1_565
Mg1_7 Sb2_5 3.310699 1_555
Mg1_7 Sb2_3 3.310699 1_555
Sb0_0 Sb1_0 3.027774 1_555
Sb0_1 Sb1_1 3.027774 1_555
Sb0_2 Sb1_2 3.027774 1_555
Sb0_3 Sb1_3 3.027774 1_555
Sb0_4 Sb1_4 3.027774 1_555
Sb0_5 Sb1_5 3.027774 1_555
Sb0_6 Sb1_6 3.027774 1_555
Sb0_7 Sb1_7 3.027774 1_555
Sb1_0 Sb1_6 3.217526 1_545
Sb1_0 Sb1_6 3.217526 1_455
Sb1_1 Sb1_7 3.217526 1_545
Sb1_1 Sb1_7 3.217526 1_455
Sb1_2 Sb1_4 3.217526 1_555
Sb1_2 Sb1_4 3.217526 1_465
Sb1_3 Sb1_5 3.217526 1_555
Sb1_3 Sb1_5 3.217526 1_465
Sb2_0 Sb3_0 3.027774 1_555
Sb2_0 Sb2_6 3.217526 1_545
Sb2_0 Sb2_6 3.217526 1_455
Sb2_1 Sb3_1 3.027774 1_555
Sb2_1 Sb2_7 3.217526 1_455
Sb2_1 Sb2_7 3.217526 1_545
Sb2_2 Sb3_2 3.027774 1_555
Sb2_2 Sb2_4 3.217526 1_555
Sb2_2 Sb2_4 3.217526 1_465
Sb2_3 Sb3_3 3.027774 1_555
Sb2_3 Sb2_5 3.217526 1_465
Sb2_3 Sb2_5 3.217526 1_555
Sb2_4 Sb3_4 3.027774 1_555
Sb2_5 Sb3_5 3.027774 1_555
Sb2_6 Sb3_6 3.027774 1_555
Sb2_7 Sb3_7 3.027774 1_555
