# generated using pymatgen
data_PrYIn2
_symmetry_space_group_name_H-M   'P 1'
_cell_length_a   6.27066536
_cell_length_b   6.27066536
_cell_length_c   6.27066536
_cell_angle_alpha   60.00000000
_cell_angle_beta   60.00000000
_cell_angle_gamma   60.00000000
_symmetry_Int_Tables_number   1
_chemical_formula_structural   PrYIn2
_chemical_formula_sum   'Pr1 Y1 In2'
_cell_volume   174.35157590
_cell_formula_units_Z   1
loop_
 _symmetry_equiv_pos_site_id
 _symmetry_equiv_pos_as_xyz
  1  'x, y, z'
loop_
 _atom_site_type_symbol
 _atom_site_label
 _atom_site_symmetry_multiplicity
 _atom_site_fract_x
 _atom_site_fract_y
 _atom_site_fract_z
 _atom_site_occupancy
  Pr  Pr0  1  0.50000000  0.50000000  0.50000000  1
  Y  Y0  1  0.00000000  0.00000000  0.00000000  1
  In  In0  1  0.25000000  0.25000000  0.25000000  1
  In  In1  1  0.75000000  0.75000000  0.75000000  1
loop_
_geom_bond_atom_site_label_1
_geom_bond_atom_site_label_2
_geom_bond_distance
_geom_bond_site_symmetry_2
In0 Pr0 3.839983 1_554
In0 Pr0 3.839983 1_555
In0 Y0 3.839983 1_556
In0 Y0 3.839983 1_565
In0 Pr0 3.839983 1_455
In0 Pr0 3.839983 1_545
In0 Y0 3.839983 1_555
In0 Y0 3.839983 1_655
In1 Y0 3.839983 1_666
In1 Pr0 3.839983 1_555
In1 Pr0 3.839983 1_655
In1 Pr0 3.839983 1_556
In1 Y0 3.839983 1_656
In1 Pr0 3.839983 1_565
In1 Y0 3.839983 1_566
In1 Y0 3.839983 1_665
