# generated using pymatgen
data_Mg2ZnAs2
_symmetry_space_group_name_H-M   'P 1'
_cell_length_a   4.14191813
_cell_length_b   4.14197370
_cell_length_c   13.45936954
_cell_angle_alpha   90.00168914
_cell_angle_beta   89.99853802
_cell_angle_gamma   120.00396627
_symmetry_Int_Tables_number   1
_chemical_formula_structural   Mg2ZnAs2
_chemical_formula_sum   'Mg4 Zn2 As4'
_cell_volume   199.96170761
_cell_formula_units_Z   2
loop_
 _symmetry_equiv_pos_site_id
 _symmetry_equiv_pos_as_xyz
  1  'x, y, z'
loop_
 _atom_site_type_symbol
 _atom_site_label
 _atom_site_symmetry_multiplicity
 _atom_site_fract_x
 _atom_site_fract_y
 _atom_site_fract_z
 _atom_site_occupancy
  Mg  Mg0  1  0.00001218  0.00000964  0.99738919  1
  Mg  Mg1  1  0.00001219  0.00000979  0.49738924  1
  Mg  Mg2  1  0.33333844  0.66667062  0.31522254  1
  Mg  Mg3  1  0.33333847  0.66667096  0.81522162  1
  Zn  Zn0  1  0.66665727  0.33333202  0.18394226  1
  Zn  Zn1  1  0.66665729  0.33333196  0.68394224  1
  As  As0  1  0.33334321  0.66663716  0.11914973  1
  As  As1  1  0.33334337  0.66663714  0.61914983  1
  As  As2  1  0.66664769  0.33335116  0.38429754  1
  As  As3  1  0.66664791  0.33335154  0.88429782  1
loop_
_geom_bond_atom_site_label_1
_geom_bond_atom_site_label_2
_geom_bond_distance
_geom_bond_site_symmetry_2
Mg2 Zn0 2.973277 1_565
Mg2 Zn0 2.973295 1_555
Mg2 Zn0 2.973298 1_455
Mg3 Zn1 2.973269 1_565
Mg3 Zn1 2.973289 1_555
Mg3 Zn1 2.973291 1_455
As0 Zn0 2.545313 1_555
As0 Zn0 2.545352 1_455
As0 Zn0 2.545407 1_565
As0 Mg2 2.639016 1_555
As0 Mg0 2.898810 1_554
As0 Mg0 2.898916 1_664
As0 Mg0 2.899209 1_564
As1 Zn1 2.545312 1_555
As1 Zn1 2.545352 1_455
As1 Zn1 2.545406 1_565
As1 Mg3 2.639003 1_555
As1 Mg1 2.898810 1_555
As1 Mg1 2.898916 1_665
As1 Mg1 2.899210 1_565
As2 Mg2 2.565666 1_555
As2 Mg2 2.565677 1_545
As2 Mg2 2.565687 1_655
As2 Zn0 2.696656 1_555
As2 Mg1 2.834490 1_555
As2 Mg1 2.834578 1_665
As2 Mg1 2.834894 1_655
As3 Mg3 2.565673 1_555
As3 Mg3 2.565683 1_545
As3 Mg3 2.565692 1_655
As3 Zn1 2.696660 1_555
As3 Mg0 2.834488 1_555
As3 Mg0 2.834574 1_665
As3 Mg0 2.834892 1_655
