# generated using pymatgen
data_MnNi
_symmetry_space_group_name_H-M   'P 1'
_cell_length_a   2.70372763
_cell_length_b   2.70372763
_cell_length_c   3.39009200
_cell_angle_alpha   90.00000000
_cell_angle_beta   90.00000000
_cell_angle_gamma   99.13167725
_symmetry_Int_Tables_number   1
_chemical_formula_structural   MnNi
_chemical_formula_sum   'Mn1 Ni1'
_cell_volume   24.46797509
_cell_formula_units_Z   1
loop_
 _symmetry_equiv_pos_site_id
 _symmetry_equiv_pos_as_xyz
  1  'x, y, z'
loop_
 _atom_site_type_symbol
 _atom_site_label
 _atom_site_symmetry_multiplicity
 _atom_site_fract_x
 _atom_site_fract_y
 _atom_site_fract_z
 _atom_site_occupancy
  Mn  Mn0  1  0.00000000  0.00000000  0.00000000  1
  Ni  Ni0  1  0.50000000  0.50000000  0.50000000  1
loop_
_geom_bond_atom_site_label_1
_geom_bond_atom_site_label_2
_geom_bond_distance
_geom_bond_site_symmetry_2
Mn0 Ni0 2.438889 1_445
Mn0 Ni0 2.438889 1_444
Mn0 Ni0 2.438889 1_555
Mn0 Ni0 2.438889 1_554
Mn0 Ni0 2.666145 1_454
Mn0 Ni0 2.666145 1_544
Mn0 Ni0 2.666145 1_545
Mn0 Ni0 2.666145 1_455
