# generated using pymatgen
data_Mg(AlS2)2
_symmetry_space_group_name_H-M   'P 1'
_cell_length_a   7.19599972
_cell_length_b   7.19597300
_cell_length_c   7.19610631
_cell_angle_alpha   60.00046996
_cell_angle_beta   59.99940023
_cell_angle_gamma   60.00076757
_symmetry_Int_Tables_number   1
_chemical_formula_structural   Mg(AlS2)2
_chemical_formula_sum   'Mg2 Al4 S8'
_cell_volume   263.49072290
_cell_formula_units_Z   2
loop_
 _symmetry_equiv_pos_site_id
 _symmetry_equiv_pos_as_xyz
  1  'x, y, z'
loop_
 _atom_site_type_symbol
 _atom_site_label
 _atom_site_symmetry_multiplicity
 _atom_site_fract_x
 _atom_site_fract_y
 _atom_site_fract_z
 _atom_site_occupancy
  Mg  Mg0  1  0.87499514  0.87500401  0.87501105  1
  Mg  Mg1  1  0.12500662  0.12499816  0.12499852  1
  Al  Al0  1  0.50000266  0.50004612  0.49993803  1
  Al  Al1  1  0.49999920  0.49998573  0.99998910  1
  Al  Al2  1  0.99999774  0.49997011  0.50004854  1
  Al  Al3  1  0.49999761  0.99999884  0.50001024  1
  S  S0  1  0.73805167  0.73805222  0.73805715  1
  S  S1  1  0.26195203  0.26194837  0.71416206  1
  S  S2  1  0.26194153  0.71415821  0.26194530  1
  S  S3  1  0.71416159  0.26194994  0.26193865  1
  S  S4  1  0.73804286  0.28584234  0.73804157  1
  S  S5  1  0.28583952  0.73804854  0.73805183  1
  S  S6  1  0.26194382  0.26193752  0.26196634  1
  S  S7  1  0.73807001  0.73805490  0.28584461  1
loop_
_geom_bond_atom_site_label_1
_geom_bond_atom_site_label_2
_geom_bond_distance
_geom_bond_site_symmetry_2
Mg0 S7 2.413885 1_556
Mg0 S4 2.413902 1_565
Mg0 S5 2.413920 1_655
Mg0 S0 2.413953 1_555
Mg1 S1 2.413902 1_554
Mg1 S2 2.413911 1_545
Mg1 S3 2.413924 1_455
Mg1 S6 2.413925 1_555
Al0 S2 2.428480 1_555
Al0 S7 2.428535 1_555
Al0 S3 2.428636 1_555
Al0 S5 2.428744 1_555
Al0 S1 2.428854 1_555
Al0 S4 2.428912 1_555
Al1 S4 2.428620 1_555
Al1 S6 2.428668 1_556
Al1 S5 2.428688 1_555
Al1 S0 2.428719 1_555
Al1 S3 2.428767 1_556
Al1 S2 2.428806 1_556
Al2 S1 2.428552 1_655
Al2 S4 2.428553 1_555
Al2 S0 2.428617 1_555
Al2 S6 2.428733 1_655
Al2 S2 2.428784 1_655
Al2 S7 2.428847 1_555
Al3 S1 2.428669 1_565
Al3 S5 2.428677 1_555
Al3 S6 2.428691 1_565
Al3 S7 2.428706 1_555
Al3 S3 2.428710 1_565
Al3 S0 2.428711 1_555
