# generated using pymatgen
data_VP
_symmetry_space_group_name_H-M   'P 1'
_cell_length_a   3.15250195
_cell_length_b   3.15250233
_cell_length_c   6.18450060
_cell_angle_alpha   90.00000000
_cell_angle_beta   90.00000000
_cell_angle_gamma   120.00000721
_symmetry_Int_Tables_number   1
_chemical_formula_structural   VP
_chemical_formula_sum   'V2 P2'
_cell_volume   53.22871920
_cell_formula_units_Z   2
loop_
 _symmetry_equiv_pos_site_id
 _symmetry_equiv_pos_as_xyz
  1  'x, y, z'
loop_
 _atom_site_type_symbol
 _atom_site_label
 _atom_site_symmetry_multiplicity
 _atom_site_fract_x
 _atom_site_fract_y
 _atom_site_fract_z
 _atom_site_occupancy
  V  V0  1  0.00000000  0.00000000  0.00000000  1
  V  V1  1  0.00000000  0.00000000  0.50000000  1
  P  P0  1  0.33333300  0.66666700  0.25000000  1
  P  P1  1  0.66666700  0.33333300  0.75000000  1
loop_
_geom_bond_atom_site_label_1
_geom_bond_atom_site_label_2
_geom_bond_distance
_geom_bond_site_symmetry_2
P0 V1 2.388148 1_565
P0 V0 2.388148 1_565
P0 V0 2.388150 1_665
P0 V1 2.388150 1_665
P0 V1 2.388150 1_555
P0 V0 2.388150 1_555
P1 V0 2.388148 1_656
P1 V1 2.388148 1_655
P1 V0 2.388150 1_556
P1 V1 2.388150 1_555
P1 V1 2.388150 1_665
P1 V0 2.388150 1_666
