# generated using pymatgen
data_Eu3InO
_symmetry_space_group_name_H-M   'P 1'
_cell_length_a   5.05264029
_cell_length_b   5.05256428
_cell_length_c   5.05271312
_cell_angle_alpha   90.00000000
_cell_angle_beta   90.00000000
_cell_angle_gamma   90.00000000
_symmetry_Int_Tables_number   1
_chemical_formula_structural   Eu3InO
_chemical_formula_sum   'Eu3 In1 O1'
_cell_volume   128.98965141
_cell_formula_units_Z   1
loop_
 _symmetry_equiv_pos_site_id
 _symmetry_equiv_pos_as_xyz
  1  'x, y, z'
loop_
 _atom_site_type_symbol
 _atom_site_label
 _atom_site_symmetry_multiplicity
 _atom_site_fract_x
 _atom_site_fract_y
 _atom_site_fract_z
 _atom_site_occupancy
  Eu  Eu0  1  -0.00000000  0.50000000  0.50000000  1
  Eu  Eu1  1  0.50000000  0.50000000  -0.00000000  1
  Eu  Eu2  1  0.50000000  -0.00000000  0.50000000  1
  In  In0  1  -0.00000000  -0.00000000  0.00000000  1
  O  O0  1  0.50000000  0.50000000  0.50000000  1
loop_
_geom_bond_atom_site_label_1
_geom_bond_atom_site_label_2
_geom_bond_distance
_geom_bond_site_symmetry_2
Eu0 O0 2.526320 1_555
Eu0 O0 2.526320 1_455
Eu0 In0 3.572755 1_556
Eu0 In0 3.572755 1_555
Eu0 In0 3.572755 1_565
Eu0 In0 3.572755 1_566
Eu1 O0 2.526357 1_555
Eu1 O0 2.526357 1_554
Eu1 In0 3.572729 1_665
Eu1 In0 3.572729 1_655
Eu1 In0 3.572729 1_555
Eu1 In0 3.572729 1_565
Eu2 O0 2.526282 1_545
Eu2 O0 2.526282 1_555
Eu2 In0 3.572782 1_556
Eu2 In0 3.572782 1_655
Eu2 In0 3.572782 1_656
Eu2 In0 3.572782 1_555
