# generated using pymatgen
data_Li9Mn7O16
_symmetry_space_group_name_H-M   'P 1'
_cell_length_a   5.09466200
_cell_length_b   5.82910984
_cell_length_c   10.51256641
_cell_angle_alpha   90.06342545
_cell_angle_beta   95.51537060
_cell_angle_gamma   107.23508298
_symmetry_Int_Tables_number   1
_chemical_formula_structural   Li9Mn7O16
_chemical_formula_sum   'Li9 Mn7 O16'
_cell_volume   296.65266438
_cell_formula_units_Z   1
loop_
 _symmetry_equiv_pos_site_id
 _symmetry_equiv_pos_as_xyz
  1  'x, y, z'
loop_
 _atom_site_type_symbol
 _atom_site_label
 _atom_site_symmetry_multiplicity
 _atom_site_fract_x
 _atom_site_fract_y
 _atom_site_fract_z
 _atom_site_occupancy
  Li  Li0  1  0.99269800  0.12444000  0.86854000  1
  Li  Li1  1  0.49740900  0.75258900  0.25435300  1
  Li  Li2  1  0.00730200  0.87556000  0.13146000  1
  Li  Li3  1  0.50000000  0.50000000  0.50000000  1
  Li  Li4  1  0.01413300  0.62671400  0.38232300  1
  Li  Li5  1  0.50259100  0.24741100  0.74564700  1
  Li  Li6  1  0.98586700  0.37328600  0.61767700  1
  Li  Li7  1  0.50000000  0.00000000  0.00000000  1
  Li  Li8  1  0.50000000  0.00000000  0.50000000  1
  Mn  Mn0  1  0.99369900  0.87286100  0.61662200  1
  Mn  Mn1  1  0.00630100  0.12713900  0.38337800  1
  Mn  Mn2  1  0.50000000  0.50000000  0.00000000  1
  Mn  Mn3  1  0.49062400  0.75022700  0.73956600  1
  Mn  Mn4  1  0.00665400  0.37538100  0.12853900  1
  Mn  Mn5  1  0.99334600  0.62461900  0.87146100  1
  Mn  Mn6  1  0.50937600  0.24977300  0.26043400  1
  O  O0  1  0.75005600  0.03742400  0.68938500  1
  O  O1  1  0.25618400  0.67134400  0.06509600  1
  O  O2  1  0.75095200  0.79171100  0.93912100  1
  O  O3  1  0.25957600  0.41910600  0.32026400  1
  O  O4  1  0.75620300  0.53783700  0.18977000  1
  O  O5  1  0.21271600  0.16815700  0.55034600  1
  O  O6  1  0.77134000  0.29653100  0.43413200  1
  O  O7  1  0.22244600  0.91972000  0.79407700  1
  O  O8  1  0.24904800  0.20828900  0.06087900  1
  O  O9  1  0.78728400  0.83184300  0.44965400  1
  O  O10  1  0.24994400  0.96257600  0.31061500  1
  O  O11  1  0.74042400  0.58089400  0.67973600  1
  O  O12  1  0.22866000  0.70346900  0.56586800  1
  O  O13  1  0.74381600  0.32865600  0.93490400  1
  O  O14  1  0.24379700  0.46216300  0.81023000  1
  O  O15  1  0.77755400  0.08028000  0.20592300  1
loop_
_geom_bond_atom_site_label_1
_geom_bond_atom_site_label_2
_geom_bond_distance
_geom_bond_site_symmetry_2
Li0 O7 2.099676 1_645
Li0 O0 2.123986 1_555
Li0 O14 2.132792 1_655
Li0 O13 2.138730 1_555
Li0 O2 2.143001 1_545
Li0 O8 2.268234 1_656
Li1 O15 2.114519 1_565
Li1 O10 2.119858 1_555
Li1 O3 2.120294 1_555
Li1 O1 2.208177 1_555
Li1 O4 2.216886 1_555
Li1 O9 2.370749 1_555
Li2 O15 2.099676 1_465
Li2 O10 2.123986 1_555
Li2 O4 2.132792 1_455
Li2 O1 2.138730 1_555
Li2 O8 2.143001 1_565
Li2 O2 2.268234 1_454
Li3 O3 2.122196 1_555
Li3 O11 2.122196 1_555
Li3 O9 2.153480 1_555
Li3 O5 2.153480 1_555
Li3 O12 2.225069 1_555
Li3 O6 2.225069 1_555
Li4 O9 2.059301 1_455
Li4 O6 2.062059 1_455
Li4 O12 2.102551 1_555
Li4 O3 2.122631 1_555
Li4 O10 2.151288 1_555
Li4 O4 2.274995 1_455
Li5 O7 2.114519 1_545
Li5 O0 2.119858 1_555
Li5 O11 2.120294 1_555
Li5 O13 2.208177 1_555
Li5 O14 2.216886 1_555
Li5 O5 2.370749 1_555
Li6 O5 2.059301 1_655
Li6 O12 2.062059 1_655
Li6 O6 2.102551 1_555
Li6 O11 2.122631 1_555
Li6 O0 2.151288 1_555
Li6 O14 2.274995 1_655
Li7 O13 2.106555 1_554
Li7 O1 2.106555 1_545
Li7 O8 2.143307 1_555
Li7 O2 2.143307 1_544
Li7 O15 2.433514 1_555
Li7 O7 2.433514 1_544
Li8 O12 2.036886 1_545
Li8 O6 2.036886 1_555
Li8 O9 2.093084 1_545
Li8 O5 2.093084 1_555
Li8 O0 2.231841 1_555
Li8 O10 2.231841 1_545
Mn0 O12 1.874725 1_655
Mn0 O5 1.925444 1_665
Mn0 O9 1.933716 1_555
Mn0 O11 1.966579 1_555
Mn0 O0 1.983064 1_565
Mn0 O7 2.074895 1_655
Mn1 O6 1.874725 1_455
Mn1 O9 1.925444 1_445
Mn1 O5 1.933716 1_555
Mn1 O3 1.966579 1_555
Mn1 O10 1.983064 1_545
Mn1 O15 2.074895 1_455
Mn2 O8 1.951158 1_555
Mn2 O2 1.951158 1_554
Mn2 O13 1.976337 1_554
Mn2 O1 1.976337 1_555
Mn2 O4 2.249478 1_555
Mn2 O14 2.249478 1_554
Mn3 O0 1.911184 1_565
Mn3 O14 1.970729 1_555
Mn3 O11 1.971397 1_555
Mn3 O7 2.029875 1_555
Mn3 O12 2.122426 1_555
Mn3 O2 2.343588 1_555
Mn4 O4 1.952368 1_455
Mn4 O8 1.964608 1_555
Mn4 O1 1.975637 1_555
Mn4 O15 1.994734 1_455
Mn4 O3 2.256695 1_555
Mn4 O13 2.295570 1_454
Mn5 O14 1.952368 1_655
Mn5 O2 1.964608 1_555
Mn5 O13 1.975637 1_555
Mn5 O7 1.994734 1_655
Mn5 O11 2.256695 1_555
Mn5 O1 2.295570 1_656
Mn6 O10 1.911184 1_545
Mn6 O4 1.970729 1_555
Mn6 O3 1.971397 1_555
Mn6 O15 2.029875 1_555
Mn6 O6 2.122426 1_555
Mn6 O8 2.343588 1_555
