# generated using pymatgen
data_NiS2
_symmetry_space_group_name_H-M   'P 1'
_cell_length_a   6.63549729
_cell_length_b   6.63549729
_cell_length_c   6.63549729
_cell_angle_alpha   60.00000000
_cell_angle_beta   60.00000000
_cell_angle_gamma   60.00000000
_symmetry_Int_Tables_number   1
_chemical_formula_structural   NiS2
_chemical_formula_sum   'Ni4 S8'
_cell_volume   206.58816139
_cell_formula_units_Z   4
loop_
 _symmetry_equiv_pos_site_id
 _symmetry_equiv_pos_as_xyz
  1  'x, y, z'
loop_
 _atom_site_type_symbol
 _atom_site_label
 _atom_site_symmetry_multiplicity
 _atom_site_fract_x
 _atom_site_fract_y
 _atom_site_fract_z
 _atom_site_occupancy
  Ni  Ni0  1  0.12500000  0.12500000  0.12500000  1
  Ni  Ni1  1  0.12500000  0.62500000  0.12500000  1
  Ni  Ni2  1  0.62500000  0.12500000  0.12500000  1
  Ni  Ni3  1  0.12500000  0.12500000  0.62500000  1
  S  S0  1  0.36426364  0.90720908  0.36426364  1
  S  S1  1  0.36426364  0.36426364  0.36426364  1
  S  S2  1  0.36426364  0.36426364  0.90720908  1
  S  S3  1  0.90720908  0.36426364  0.36426364  1
  S  S4  1  0.88573636  0.88573636  0.88573636  1
  S  S5  1  0.88573636  0.34279092  0.88573636  1
  S  S6  1  0.34279092  0.88573636  0.88573636  1
  S  S7  1  0.88573636  0.88573636  0.34279092  1
loop_
_geom_bond_atom_site_label_1
_geom_bond_atom_site_label_2
_geom_bond_distance
_geom_bond_site_symmetry_2
Ni0 S6 2.249769 1_544
Ni0 S0 2.249769 1_545
Ni0 S2 2.249769 1_554
Ni0 S7 2.249769 1_445
Ni0 S3 2.249769 1_455
Ni0 S5 2.249769 1_454
Ni1 S4 2.249769 1_454
Ni1 S1 2.249769 1_555
Ni1 S3 2.249769 1_455
Ni1 S6 2.249769 1_554
Ni1 S2 2.249769 1_554
Ni1 S7 2.249769 1_455
Ni2 S1 2.249769 1_555
Ni2 S4 2.249769 1_544
Ni2 S2 2.249769 1_554
Ni2 S7 2.249769 1_545
Ni2 S5 2.249769 1_554
Ni2 S0 2.249769 1_545
Ni3 S1 2.249769 1_555
Ni3 S6 2.249769 1_545
Ni3 S5 2.249769 1_455
Ni3 S0 2.249769 1_545
Ni3 S4 2.249769 1_445
Ni3 S3 2.249769 1_455
