# generated using pymatgen
data_CaMg6Ni
_symmetry_space_group_name_H-M   'P 1'
_cell_length_a   6.67812131
_cell_length_b   6.67812131
_cell_length_c   5.08226400
_cell_angle_alpha   90.00000000
_cell_angle_beta   90.00000000
_cell_angle_gamma   124.93429941
_symmetry_Int_Tables_number   1
_chemical_formula_structural   CaMg6Ni
_chemical_formula_sum   'Ca1 Mg6 Ni1'
_cell_volume   185.81408359
_cell_formula_units_Z   1
loop_
 _symmetry_equiv_pos_site_id
 _symmetry_equiv_pos_as_xyz
  1  'x, y, z'
loop_
 _atom_site_type_symbol
 _atom_site_label
 _atom_site_symmetry_multiplicity
 _atom_site_fract_x
 _atom_site_fract_y
 _atom_site_fract_z
 _atom_site_occupancy
  Ca  Ca0  1  0.81688500  0.18311500  0.50000000  1
  Mg  Mg0  1  0.31953300  0.18778200  0.50000000  1
  Mg  Mg1  1  0.81221800  0.68046700  0.50000000  1
  Mg  Mg2  1  0.17791100  0.34245100  0.00000000  1
  Mg  Mg3  1  0.65754900  0.82208900  0.00000000  1
  Mg  Mg4  1  0.65630300  0.34369700  0.00000000  1
  Mg  Mg5  1  0.19187300  0.80812700  0.00000000  1
  Ni  Ni0  1  0.36773700  0.63226300  0.50000000  1
loop_
_geom_bond_atom_site_label_1
_geom_bond_atom_site_label_2
_geom_bond_distance
_geom_bond_site_symmetry_2
Ca0 Ni0 3.145211 1_545
Ca0 Ni0 3.145211 1_655
Ca0 Mg4 3.174028 1_556
Ca0 Mg4 3.174028 1_555
Ca0 Mg2 3.234852 1_655
Ca0 Mg2 3.234852 1_656
Ca0 Mg3 3.234852 1_545
Ca0 Mg3 3.234852 1_546
Ca0 Mg0 3.338995 1_655
Ca0 Mg1 3.338995 1_545
Ca0 Mg1 3.339322 1_555
Ca0 Mg0 3.339322 1_555
Mg0 Ni0 2.796440 1_555
Mg0 Mg2 3.088286 1_555
Mg0 Mg2 3.088286 1_556
Mg0 Mg5 3.337188 1_545
Mg0 Mg5 3.337188 1_546
Mg1 Ni0 2.796440 1_555
Mg1 Mg3 3.088286 1_555
Mg1 Mg3 3.088286 1_556
Mg1 Mg5 3.337188 1_656
Mg1 Mg5 3.337188 1_655
Mg2 Mg3 2.961294 1_555
Mg2 Ni0 3.000041 1_555
Mg2 Ni0 3.000041 1_554
Mg2 Mg5 3.057404 1_555
Mg2 Mg4 3.190002 1_555
Mg2 Mg3 3.212724 1_445
Mg3 Ni0 3.000041 1_554
Mg3 Ni0 3.000041 1_555
Mg3 Mg5 3.057404 1_555
Mg3 Mg4 3.190002 1_555
Mg4 Mg5 3.115622 1_655
Mg4 Mg5 3.115622 1_545
Mg5 Ni0 3.285676 1_554
Mg5 Ni0 3.285676 1_555
