# generated using pymatgen
data_Ca2Mg
_symmetry_space_group_name_H-M   'P 1'
_cell_length_a   6.37206511
_cell_length_b   6.37206511
_cell_length_c   5.96872000
_cell_angle_alpha   90.00000000
_cell_angle_beta   90.00000000
_cell_angle_gamma   119.99999073
_symmetry_Int_Tables_number   1
_chemical_formula_structural   Ca2Mg
_chemical_formula_sum   'Ca4 Mg2'
_cell_volume   209.88059540
_cell_formula_units_Z   2
loop_
 _symmetry_equiv_pos_site_id
 _symmetry_equiv_pos_as_xyz
  1  'x, y, z'
loop_
 _atom_site_type_symbol
 _atom_site_label
 _atom_site_symmetry_multiplicity
 _atom_site_fract_x
 _atom_site_fract_y
 _atom_site_fract_z
 _atom_site_occupancy
  Ca  Ca0  1  0.00000000  0.65313200  0.50000000  1
  Ca  Ca1  1  0.65313200  0.00000000  0.50000000  1
  Ca  Ca2  1  0.34686800  0.34686800  0.50000000  1
  Ca  Ca3  1  0.00000000  0.00000000  0.00000000  1
  Mg  Mg0  1  0.66666700  0.33333300  0.00000000  1
  Mg  Mg1  1  0.33333300  0.66666700  0.00000000  1
loop_
_geom_bond_atom_site_label_1
_geom_bond_atom_site_label_2
_geom_bond_distance
_geom_bond_site_symmetry_2
Ca0 Ca2 3.606545 1_555
Ca0 Ca2 3.606545 1_455
Ca0 Ca1 3.606545 1_565
Ca0 Ca1 3.606545 1_455
Ca0 Mg1 3.638972 1_556
Ca0 Mg1 3.638972 1_555
Ca0 Mg0 3.638973 1_456
Ca0 Mg0 3.638973 1_455
Ca0 Ca3 3.713715 1_566
Ca0 Ca3 3.713715 1_565
Ca0 Ca1 3.828292 1_465
Ca0 Ca2 3.828292 1_565
Ca1 Ca2 3.606545 1_555
Ca1 Ca2 3.606545 1_545
Ca1 Mg0 3.638972 1_555
Ca1 Mg0 3.638972 1_556
Ca1 Mg1 3.638973 1_546
Ca1 Mg1 3.638973 1_545
Ca1 Ca3 3.713715 1_656
Ca1 Ca3 3.713715 1_655
Ca1 Ca2 3.828292 1_655
Ca2 Mg1 3.638975 1_556
Ca2 Mg1 3.638975 1_555
Ca2 Mg0 3.638975 1_555
Ca2 Mg0 3.638975 1_556
Ca2 Ca3 3.713715 1_556
Ca2 Ca3 3.713715 1_555
Ca3 Mg1 3.678910 1_545
Ca3 Mg0 3.678910 1_455
Ca3 Mg1 3.678916 1_555
Ca3 Mg0 3.678916 1_555
Ca3 Mg0 3.678916 1_445
Ca3 Mg1 3.678916 1_445
