# generated using pymatgen
data_Sr(As2Rh3)2
_symmetry_space_group_name_H-M   'P 1'
_cell_length_a   7.25172446
_cell_length_b   7.25172355
_cell_length_c   3.83567994
_cell_angle_alpha   90.00000000
_cell_angle_beta   90.00000000
_cell_angle_gamma   120.00000416
_symmetry_Int_Tables_number   1
_chemical_formula_structural   Sr(As2Rh3)2
_chemical_formula_sum   'Sr1 As4 Rh6'
_cell_volume   174.68495737
_cell_formula_units_Z   1
loop_
 _symmetry_equiv_pos_site_id
 _symmetry_equiv_pos_as_xyz
  1  'x, y, z'
loop_
 _atom_site_type_symbol
 _atom_site_label
 _atom_site_symmetry_multiplicity
 _atom_site_fract_x
 _atom_site_fract_y
 _atom_site_fract_z
 _atom_site_occupancy
  Sr  Sr0  1  0.00000000  0.00000000  0.00000000  1
  As  As0  1  0.80925861  0.61851723  0.50000000  1
  As  As1  1  0.38148277  0.19074139  0.50000000  1
  As  As2  1  0.33333300  0.66666700  0.00000000  1
  As  As3  1  0.80925861  0.19074139  0.50000000  1
  Rh  Rh0  1  0.20225345  0.79774655  0.50000000  1
  Rh  Rh1  1  0.20225345  0.40450889  0.50000000  1
  Rh  Rh2  1  0.53468633  0.06937265  -0.00000000  1
  Rh  Rh3  1  0.93062735  0.46531367  0.00000000  1
  Rh  Rh4  1  0.53468633  0.46531367  -0.00000000  1
  Rh  Rh5  1  0.59549111  0.79774655  0.50000000  1
loop_
_geom_bond_atom_site_label_1
_geom_bond_atom_site_label_2
_geom_bond_distance
_geom_bond_site_symmetry_2
As0 Rh0 2.471252 1_655
As0 Rh5 2.471265 1_555
As0 Rh4 2.581639 1_556
As0 Rh4 2.581639 1_555
As0 Rh3 2.581639 1_556
As0 Rh3 2.581639 1_555
As0 Sr0 3.068854 1_665
As0 Sr0 3.068854 1_666
As1 Rh0 2.471252 1_545
As1 Rh1 2.471265 1_555
As1 Rh4 2.581639 1_555
As1 Rh4 2.581639 1_556
As1 Rh2 2.581639 1_555
As1 Rh2 2.581639 1_556
As1 Sr0 3.068855 1_556
As1 Sr0 3.068855 1_555
As2 Rh1 2.527596 1_554
As2 Rh1 2.527596 1_555
As2 Rh5 2.527596 1_555
As2 Rh5 2.527596 1_554
As2 Rh0 2.527600 1_555
As2 Rh0 2.527600 1_554
As2 Rh2 2.529063 1_565
As2 Rh3 2.529063 1_455
As2 Rh4 2.529069 1_555
As3 Rh5 2.471252 1_545
As3 Rh1 2.471253 1_655
As3 Rh3 2.581639 1_555
As3 Rh3 2.581639 1_556
As3 Rh2 2.581639 1_556
As3 Rh2 2.581639 1_555
As3 Sr0 3.068855 1_656
As3 Sr0 3.068855 1_655
Rh0 Sr0 3.183020 1_566
Rh0 Sr0 3.183020 1_565
Rh1 Sr0 3.183030 1_555
Rh1 Sr0 3.183030 1_556
Rh5 Sr0 3.183030 1_665
Rh5 Sr0 3.183030 1_666
