# generated using pymatgen
data_LiBrO3
_symmetry_space_group_name_H-M   'P 1'
_cell_length_a   7.00645700
_cell_length_b   7.01295600
_cell_length_c   12.61701700
_cell_angle_alpha   90.00000000
_cell_angle_beta   90.00000000
_cell_angle_gamma   90.00000000
_symmetry_Int_Tables_number   1
_chemical_formula_structural   LiBrO3
_chemical_formula_sum   'Li8 Br8 O24'
_cell_volume   619.94942756
_cell_formula_units_Z   8
loop_
 _symmetry_equiv_pos_site_id
 _symmetry_equiv_pos_as_xyz
  1  'x, y, z'
loop_
 _atom_site_type_symbol
 _atom_site_label
 _atom_site_symmetry_multiplicity
 _atom_site_fract_x
 _atom_site_fract_y
 _atom_site_fract_z
 _atom_site_occupancy
  Li  Li0  1  0.24565100  0.63640800  0.96967900  1
  Li  Li1  1  0.74565100  0.86359200  0.03032100  1
  Li  Li2  1  0.75434900  0.13640800  0.53032100  1
  Li  Li3  1  0.25434900  0.36359200  0.46967900  1
  Li  Li4  1  0.75434900  0.36359200  0.03032100  1
  Li  Li5  1  0.25434900  0.13640800  0.96967900  1
  Li  Li6  1  0.24565100  0.86359200  0.46967900  1
  Li  Li7  1  0.74565100  0.63640800  0.53032100  1
  Br  Br0  1  0.48762900  0.88355700  0.78629700  1
  Br  Br1  1  0.98762900  0.61644300  0.21370300  1
  Br  Br2  1  0.51237100  0.38355700  0.71370300  1
  Br  Br3  1  0.01237100  0.11644300  0.28629700  1
  Br  Br4  1  0.51237100  0.11644300  0.21370300  1
  Br  Br5  1  0.01237100  0.38355700  0.78629700  1
  Br  Br6  1  0.48762900  0.61644300  0.28629700  1
  Br  Br7  1  0.98762900  0.88355700  0.71370300  1
  O  O0  1  0.48361300  0.07649400  0.87115600  1
  O  O1  1  0.98361300  0.42350600  0.12884400  1
  O  O2  1  0.51638700  0.57649400  0.62884400  1
  O  O3  1  0.01638700  0.92350600  0.37115600  1
  O  O4  1  0.51638700  0.92350600  0.12884400  1
  O  O5  1  0.01638700  0.57649400  0.87115600  1
  O  O6  1  0.48361300  0.42350600  0.37115600  1
  O  O7  1  0.98361300  0.07649400  0.62884400  1
  O  O8  1  0.45726400  0.67993000  0.86216200  1
  O  O9  1  0.95726400  0.82007000  0.13783800  1
  O  O10  1  0.54273600  0.17993000  0.63783800  1
  O  O11  1  0.04273600  0.32007000  0.36216200  1
  O  O12  1  0.54273600  0.32007000  0.13783800  1
  O  O13  1  0.04273600  0.17993000  0.86216200  1
  O  O14  1  0.45726400  0.82007000  0.36216200  1
  O  O15  1  0.95726400  0.67993000  0.63783800  1
  O  O16  1  0.22301300  0.88629700  0.03027800  1
  O  O17  1  0.72301300  0.61370300  0.96972200  1
  O  O18  1  0.77698700  0.38629700  0.46972200  1
  O  O19  1  0.27698700  0.11370300  0.53027800  1
  O  O20  1  0.77698700  0.11370300  0.96972200  1
  O  O21  1  0.27698700  0.38629700  0.03027800  1
  O  O22  1  0.22301300  0.61370300  0.53027800  1
  O  O23  1  0.72301300  0.88629700  0.46972200  1
loop_
_geom_bond_atom_site_label_1
_geom_bond_atom_site_label_2
_geom_bond_distance
_geom_bond_site_symmetry_2
Li0 O16 1.918556 1_556
Li0 O21 1.925970 1_556
Li0 O8 2.032644 1_555
Li0 O5 2.074139 1_555
Li1 O17 1.918556 1_554
Li1 O20 1.925970 1_564
Li1 O9 2.032644 1_555
Li1 O4 2.074139 1_555
Li2 O18 1.918556 1_555
Li2 O23 1.925970 1_545
Li2 O10 2.032644 1_555
Li2 O7 2.074139 1_555
Li3 O19 1.918556 1_555
Li3 O22 1.925970 1_555
Li3 O11 2.032644 1_555
Li3 O6 2.074139 1_555
Li4 O20 1.918556 1_554
Li4 O17 1.925970 1_554
Li4 O12 2.032644 1_555
Li4 O1 2.074139 1_555
Li5 O21 1.918556 1_556
Li5 O16 1.925970 1_546
Li5 O13 2.032644 1_555
Li5 O0 2.074139 1_555
Li6 O22 1.918556 1_555
Li6 O19 1.925970 1_565
Li6 O14 2.032644 1_555
Li6 O3 2.074139 1_555
Li7 O23 1.918556 1_555
Li7 O18 1.925970 1_555
Li7 O15 2.032644 1_555
Li7 O2 2.074139 1_555
Br0 O0 1.725656 1_565
Br0 O8 1.732264 1_555
Br1 O1 1.725656 1_555
Br1 O9 1.732264 1_555
Br2 O2 1.725656 1_555
Br2 O10 1.732264 1_555
Br3 O3 1.725656 1_545
Br3 O11 1.732264 1_555
Br4 O4 1.725656 1_545
Br4 O12 1.732264 1_555
Br5 O5 1.725656 1_555
Br5 O13 1.732264 1_555
Br6 O6 1.725656 1_555
Br6 O14 1.732264 1_555
Br7 O7 1.725656 1_565
Br7 O15 1.732264 1_555
