# generated using pymatgen
data_Nd2Zn5Sn
_symmetry_space_group_name_H-M   'P 1'
_cell_length_a   8.54527444
_cell_length_b   8.54527444
_cell_length_c   9.02971337
_cell_angle_alpha   90.00000000
_cell_angle_beta   90.00000000
_cell_angle_gamma   149.96056276
_symmetry_Int_Tables_number   1
_chemical_formula_structural   Nd2Zn5Sn
_chemical_formula_sum   'Nd4 Zn10 Sn2'
_cell_volume   330.07554494
_cell_formula_units_Z   2
loop_
 _symmetry_equiv_pos_site_id
 _symmetry_equiv_pos_as_xyz
  1  'x, y, z'
loop_
 _atom_site_type_symbol
 _atom_site_label
 _atom_site_symmetry_multiplicity
 _atom_site_fract_x
 _atom_site_fract_y
 _atom_site_fract_z
 _atom_site_occupancy
  Nd  Nd0  1  0.20536391  0.79463609  0.25000000  1
  Nd  Nd1  1  0.79463609  0.20536391  0.75000000  1
  Nd  Nd2  1  0.00000000  0.00000000  0.50000000  1
  Nd  Nd3  1  0.00000000  0.00000000  -0.00000000  1
  Zn  Zn0  1  0.81414311  0.18585689  0.39074920  1
  Zn  Zn1  1  0.18585689  0.81414311  0.60925080  1
  Zn  Zn2  1  0.81414311  0.18585689  0.10925080  1
  Zn  Zn3  1  0.18585689  0.81414311  0.89074920  1
  Zn  Zn4  1  0.65639502  0.34360498  0.48438710  1
  Zn  Zn5  1  0.34360498  0.65639502  0.51561290  1
  Zn  Zn6  1  0.65639502  0.34360498  0.01561290  1
  Zn  Zn7  1  0.34360498  0.65639502  0.98438710  1
  Zn  Zn8  1  0.39399752  0.60600248  0.25000000  1
  Zn  Zn9  1  0.60600248  0.39399752  0.75000000  1
  Sn  Sn0  1  0.55460151  0.44539849  0.25000000  1
  Sn  Sn1  1  0.44539849  0.55460151  0.75000000  1
loop_
_geom_bond_atom_site_label_1
_geom_bond_atom_site_label_2
_geom_bond_distance
_geom_bond_site_symmetry_2
Nd0 Zn8 3.113714 1_555
Nd0 Zn0 3.121453 1_455
Nd0 Zn0 3.121453 1_565
Nd0 Zn2 3.121453 1_455
Nd0 Zn2 3.121453 1_565
Nd0 Zn4 3.168095 1_455
Nd0 Zn4 3.168095 1_565
Nd0 Zn6 3.168095 1_455
Nd0 Zn6 3.168095 1_565
Nd0 Zn1 3.259873 1_555
Nd0 Zn3 3.259873 1_554
Nd0 Zn5 3.310504 1_555
Nd0 Zn7 3.310504 1_554
Nd0 Sn0 3.331241 1_455
Nd0 Sn0 3.331241 1_565
Nd1 Zn9 3.113714 1_555
Nd1 Zn3 3.121453 1_545
Nd1 Zn3 3.121453 1_655
Nd1 Zn1 3.121453 1_545
Nd1 Zn1 3.121453 1_655
Nd1 Zn7 3.168095 1_545
Nd1 Zn7 3.168095 1_655
Nd1 Zn5 3.168095 1_545
Nd1 Zn5 3.168095 1_655
Nd1 Zn2 3.259873 1_556
Nd1 Zn0 3.259873 1_555
Nd1 Zn6 3.310504 1_556
Nd1 Zn4 3.310504 1_555
Nd1 Sn1 3.331241 1_545
Nd1 Sn1 3.331241 1_655
Nd2 Zn1 3.222589 1_545
Nd2 Zn0 3.222589 1_455
Nd2 Sn0 3.288222 1_445
Nd2 Sn0 3.288222 1_555
Nd2 Sn1 3.288222 1_555
Nd2 Sn1 3.288222 1_445
Nd2 Zn5 3.404180 1_555
Nd2 Zn4 3.404180 1_445
Nd2 Zn5 3.404180 1_445
Nd2 Zn4 3.404180 1_555
Nd2 Zn9 3.614098 1_445
Nd2 Zn8 3.614098 1_555
Nd2 Zn9 3.614098 1_555
Nd2 Zn8 3.614098 1_445
Nd3 Zn2 3.222589 1_455
Nd3 Zn3 3.222589 1_544
Nd3 Sn0 3.288222 1_445
Nd3 Sn1 3.288222 1_554
Nd3 Sn0 3.288222 1_555
Nd3 Sn1 3.288222 1_444
Nd3 Zn6 3.404180 1_445
Nd3 Zn6 3.404180 1_555
Nd3 Zn7 3.404180 1_554
Nd3 Zn7 3.404180 1_444
Nd3 Zn8 3.614098 1_555
Nd3 Zn9 3.614098 1_554
Nd3 Zn8 3.614098 1_445
Nd3 Zn9 3.614098 1_444
Zn0 Zn5 2.532158 1_545
Zn0 Zn5 2.532158 1_655
Zn0 Zn2 2.541850 1_555
Zn0 Zn4 2.737734 1_555
Zn0 Zn8 2.873468 1_655
Zn0 Zn8 2.873468 1_545
Zn1 Zn4 2.532158 1_455
Zn1 Zn4 2.532158 1_565
Zn1 Zn3 2.541850 1_555
Zn1 Zn5 2.737734 1_555
Zn1 Zn9 2.873468 1_565
Zn1 Zn9 2.873468 1_455
Zn2 Zn7 2.532158 1_544
Zn2 Zn7 2.532158 1_654
Zn2 Zn6 2.737734 1_555
Zn2 Zn8 2.873468 1_655
Zn2 Zn8 2.873468 1_545
Zn3 Zn6 2.532158 1_566
Zn3 Zn6 2.532158 1_456
Zn3 Zn7 2.737734 1_555
Zn3 Zn9 2.873468 1_455
Zn3 Zn9 2.873468 1_565
Zn4 Zn9 2.538558 1_555
Zn5 Zn8 2.538558 1_555
Zn6 Zn9 2.538558 1_554
Zn7 Zn8 2.538558 1_556
Sn0 Zn8 2.651039 1_555
Sn0 Zn4 2.702345 1_555
Sn0 Zn6 2.702345 1_555
Sn1 Zn9 2.651039 1_555
Sn1 Zn7 2.702345 1_555
Sn1 Zn5 2.702345 1_555
