# generated using pymatgen
data_Ag4TeSO4
_symmetry_space_group_name_H-M   'P 1'
_cell_length_a   8.97301700
_cell_length_b   8.97301700
_cell_length_c   8.97301700
_cell_angle_alpha   90.00000000
_cell_angle_beta   90.00000000
_cell_angle_gamma   90.00000000
_symmetry_Int_Tables_number   1
_chemical_formula_structural   Ag4TeSO4
_chemical_formula_sum   'Ag16 Te4 S4 O16'
_cell_volume   722.46276958
_cell_formula_units_Z   4
loop_
 _symmetry_equiv_pos_site_id
 _symmetry_equiv_pos_as_xyz
  1  'x, y, z'
loop_
 _atom_site_type_symbol
 _atom_site_label
 _atom_site_symmetry_multiplicity
 _atom_site_fract_x
 _atom_site_fract_y
 _atom_site_fract_z
 _atom_site_occupancy
  Ag  Ag0  1  0.49995400  0.99995400  0.50004600  1
  Ag  Ag1  1  0.99995400  0.50004600  0.49995400  1
  Ag  Ag2  1  0.50004600  0.49995400  0.99995400  1
  Ag  Ag3  1  0.00004600  0.00004600  0.00004600  1
  Ag  Ag4  1  0.20542300  0.99047000  0.61264400  1
  Ag  Ag5  1  0.38735600  0.70542300  0.50953000  1
  Ag  Ag6  1  0.49047000  0.88735600  0.79457700  1
  Ag  Ag7  1  0.70542300  0.50953000  0.38735600  1
  Ag  Ag8  1  0.88735600  0.79457700  0.49047000  1
  Ag  Ag9  1  0.99047000  0.61264400  0.20542300  1
  Ag  Ag10  1  0.79457700  0.49047000  0.88735600  1
  Ag  Ag11  1  0.61264400  0.20542300  0.99047000  1
  Ag  Ag12  1  0.50953000  0.38735600  0.70542300  1
  Ag  Ag13  1  0.29457700  0.00953000  0.11264400  1
  Ag  Ag14  1  0.11264400  0.29457700  0.00953000  1
  Ag  Ag15  1  0.00953000  0.11264400  0.29457700  1
  Te  Te0  1  0.84412400  0.34412400  0.15587600  1
  Te  Te1  1  0.34412400  0.15587600  0.84412400  1
  Te  Te2  1  0.15587600  0.84412400  0.34412400  1
  Te  Te3  1  0.65587600  0.65587600  0.65587600  1
  S  S0  1  0.14319200  0.64319200  0.85680800  1
  S  S1  1  0.64319200  0.85680800  0.14319200  1
  S  S2  1  0.85680800  0.14319200  0.64319200  1
  S  S3  1  0.35680800  0.35680800  0.35680800  1
  O  O0  1  0.06969400  0.73644700  0.97522400  1
  O  O1  1  0.02477600  0.56969400  0.76355300  1
  O  O2  1  0.23644700  0.52477600  0.93030600  1
  O  O3  1  0.56969400  0.76355300  0.02477600  1
  O  O4  1  0.52477600  0.93030600  0.23644700  1
  O  O5  1  0.73644700  0.97522400  0.06969400  1
  O  O6  1  0.93030600  0.23644700  0.52477600  1
  O  O7  1  0.97522400  0.06969400  0.73644700  1
  O  O8  1  0.76355300  0.02477600  0.56969400  1
  O  O9  1  0.43030600  0.26355300  0.47522400  1
  O  O10  1  0.47522400  0.43030600  0.26355300  1
  O  O11  1  0.26355300  0.47522400  0.43030600  1
  O  O12  1  0.23882800  0.73882800  0.76117200  1
  O  O13  1  0.73882800  0.76117200  0.23882800  1
  O  O14  1  0.76117200  0.23882800  0.73882800  1
  O  O15  1  0.26117200  0.26117200  0.26117200  1
loop_
_geom_bond_atom_site_label_1
_geom_bond_atom_site_label_2
_geom_bond_distance
_geom_bond_site_symmetry_2
Ag0 O9 2.456566 1_565
Ag0 O4 2.456566 1_555
Ag0 O8 2.456566 1_565
Ag1 O11 2.456566 1_655
Ag1 O6 2.456566 1_555
Ag1 O1 2.456566 1_655
Ag2 O10 2.456566 1_556
Ag2 O2 2.456566 1_555
Ag2 O3 2.456566 1_556
Ag3 O0 2.456566 1_544
Ag3 O7 2.456566 1_454
Ag3 O5 2.456566 1_445
Ag4 O7 2.450721 1_465
Ag4 O12 2.639046 1_555
Ag4 Te2 2.779826 1_555
Ag4 Te1 2.840071 1_565
Ag5 O11 2.450721 1_555
Ag5 O12 2.639046 1_555
Ag5 Te3 2.779826 1_555
Ag5 Te2 2.840071 1_555
Ag6 O3 2.450721 1_556
Ag6 O12 2.639046 1_555
Ag6 Te1 2.779826 1_565
Ag6 Te3 2.840071 1_555
Ag7 O10 2.450721 1_555
Ag7 O13 2.639046 1_555
Ag7 Te3 2.779826 1_555
Ag7 Te0 2.840071 1_555
Ag8 O8 2.450721 1_565
Ag8 O13 2.639046 1_555
Ag8 Te2 2.779826 1_655
Ag8 Te3 2.840071 1_555
Ag9 O0 2.450721 1_654
Ag9 O13 2.639046 1_555
Ag9 Te0 2.779826 1_555
Ag9 Te2 2.840071 1_655
Ag10 O1 2.450721 1_655
Ag10 O14 2.639046 1_555
Ag10 Te0 2.779826 1_556
Ag10 Te3 2.840071 1_555
Ag11 O5 2.450721 1_546
Ag11 O14 2.639046 1_555
Ag11 Te1 2.779826 1_555
Ag11 Te0 2.840071 1_556
Ag12 O9 2.450721 1_555
Ag12 O14 2.639046 1_555
Ag12 Te3 2.779826 1_555
Ag12 Te1 2.840071 1_555
Ag13 O4 2.450721 1_545
Ag13 O15 2.639046 1_555
Ag13 Te1 2.779826 1_554
Ag13 Te2 2.840071 1_545
Ag14 O2 2.450721 1_554
Ag14 O15 2.639046 1_555
Ag14 Te0 2.779826 1_455
Ag14 Te1 2.840071 1_554
Ag15 O6 2.450721 1_455
Ag15 O15 2.639046 1_555
Ag15 Te2 2.779826 1_545
Ag15 Te0 2.840071 1_455
O0 S0 1.504708 1_555
O1 S0 1.504708 1_555
O2 S0 1.504708 1_555
O3 S1 1.504708 1_555
O4 S1 1.504708 1_555
O5 S1 1.504708 1_555
O6 S2 1.504708 1_555
O7 S2 1.504708 1_555
O8 S2 1.504708 1_555
O9 S3 1.504708 1_555
O10 S3 1.504708 1_555
O11 S3 1.504708 1_555
O12 S0 1.486348 1_555
O13 S1 1.486348 1_555
O14 S2 1.486348 1_555
O15 S3 1.486348 1_555
