# generated using pymatgen
data_KMg30FeO32
_symmetry_space_group_name_H-M   'P 1'
_cell_length_a   8.57913600
_cell_length_b   8.57913600
_cell_length_c   8.58519900
_cell_angle_alpha   90.00000000
_cell_angle_beta   90.00000000
_cell_angle_gamma   90.00000000
_symmetry_Int_Tables_number   1
_chemical_formula_structural   KMg30FeO32
_chemical_formula_sum   'K1 Mg30 Fe1 O32'
_cell_volume   631.88416385
_cell_formula_units_Z   1
loop_
 _symmetry_equiv_pos_site_id
 _symmetry_equiv_pos_as_xyz
  1  'x, y, z'
loop_
 _atom_site_type_symbol
 _atom_site_label
 _atom_site_symmetry_multiplicity
 _atom_site_fract_x
 _atom_site_fract_y
 _atom_site_fract_z
 _atom_site_occupancy
  K  K0  1  0.50000000  0.50000000  0.00000000  1
  Mg  Mg0  1  0.00000000  0.50000000  0.00000000  1
  Mg  Mg1  1  0.50000000  0.00000000  0.00000000  1
  Mg  Mg2  1  0.00000000  0.00000000  0.50000000  1
  Mg  Mg3  1  0.00000000  0.50000000  0.50000000  1
  Mg  Mg4  1  0.50000000  0.00000000  0.50000000  1
  Mg  Mg5  1  0.50000000  0.50000000  0.50000000  1
  Mg  Mg6  1  0.25170400  0.25170400  0.00000000  1
  Mg  Mg7  1  0.25170400  0.74829600  0.00000000  1
  Mg  Mg8  1  0.74829600  0.25170400  0.00000000  1
  Mg  Mg9  1  0.74829600  0.74829600  0.00000000  1
  Mg  Mg10  1  0.25128000  0.25128000  0.50000000  1
  Mg  Mg11  1  0.25128000  0.74872000  0.50000000  1
  Mg  Mg12  1  0.74872000  0.25128000  0.50000000  1
  Mg  Mg13  1  0.74872000  0.74872000  0.50000000  1
  Mg  Mg14  1  0.00000000  0.25282600  0.25157700  1
  Mg  Mg15  1  0.00000000  0.74717400  0.25157700  1
  Mg  Mg16  1  0.50000000  0.25003300  0.25124700  1
  Mg  Mg17  1  0.50000000  0.74996700  0.25124700  1
  Mg  Mg18  1  0.00000000  0.25282600  0.74842300  1
  Mg  Mg19  1  0.00000000  0.74717400  0.74842300  1
  Mg  Mg20  1  0.50000000  0.25003300  0.74875300  1
  Mg  Mg21  1  0.50000000  0.74996700  0.74875300  1
  Mg  Mg22  1  0.25282600  0.00000000  0.25157700  1
  Mg  Mg23  1  0.25003300  0.50000000  0.25124700  1
  Mg  Mg24  1  0.74717400  0.00000000  0.25157700  1
  Mg  Mg25  1  0.74996700  0.50000000  0.25124700  1
  Mg  Mg26  1  0.25282600  0.00000000  0.74842300  1
  Mg  Mg27  1  0.25003300  0.50000000  0.74875300  1
  Mg  Mg28  1  0.74717400  0.00000000  0.74842300  1
  Mg  Mg29  1  0.74996700  0.50000000  0.74875300  1
  Fe  Fe0  1  0.00000000  0.00000000  0.00000000  1
  O  O0  1  0.00000000  0.00000000  0.24476400  1
  O  O1  1  0.00000000  0.50000000  0.25245000  1
  O  O2  1  0.50000000  0.00000000  0.25245000  1
  O  O3  1  0.50000000  0.50000000  0.27307900  1
  O  O4  1  0.00000000  0.00000000  0.75523600  1
  O  O5  1  0.00000000  0.50000000  0.74755000  1
  O  O6  1  0.50000000  0.00000000  0.74755000  1
  O  O7  1  0.50000000  0.50000000  0.72692100  1
  O  O8  1  0.24928800  0.24928800  0.24910000  1
  O  O9  1  0.24928800  0.75071200  0.24910000  1
  O  O10  1  0.75071200  0.24928800  0.24910000  1
  O  O11  1  0.75071200  0.75071200  0.24910000  1
  O  O12  1  0.24928800  0.24928800  0.75090000  1
  O  O13  1  0.24928800  0.75071200  0.75090000  1
  O  O14  1  0.75071200  0.24928800  0.75090000  1
  O  O15  1  0.75071200  0.75071200  0.75090000  1
  O  O16  1  0.00000000  0.24023400  0.00000000  1
  O  O17  1  0.00000000  0.75976600  0.00000000  1
  O  O18  1  0.50000000  0.22593800  0.00000000  1
  O  O19  1  0.50000000  0.77406200  0.00000000  1
  O  O20  1  0.00000000  0.24744400  0.50000000  1
  O  O21  1  0.00000000  0.75255600  0.50000000  1
  O  O22  1  0.50000000  0.24562300  0.50000000  1
  O  O23  1  0.50000000  0.75437700  0.50000000  1
  O  O24  1  0.24023400  0.00000000  0.00000000  1
  O  O25  1  0.22593800  0.50000000  0.00000000  1
  O  O26  1  0.75976600  0.00000000  0.00000000  1
  O  O27  1  0.77406200  0.50000000  0.00000000  1
  O  O28  1  0.24744400  0.00000000  0.50000000  1
  O  O29  1  0.24562300  0.50000000  0.50000000  1
  O  O30  1  0.75255600  0.00000000  0.50000000  1
  O  O31  1  0.75437700  0.50000000  0.50000000  1
loop_
_geom_bond_atom_site_label_1
_geom_bond_atom_site_label_2
_geom_bond_distance
_geom_bond_site_symmetry_2
K0 O7 2.344438 1_554
K0 O3 2.344438 1_555
K0 O27 2.351215 1_555
K0 O25 2.351215 1_555
K0 O18 2.351215 1_555
K0 O19 2.351215 1_555
Mg0 O27 1.938353 1_455
Mg0 O25 1.938353 1_555
Mg0 O5 2.167333 1_554
Mg0 O1 2.167333 1_555
Mg0 O16 2.228568 1_555
Mg0 O17 2.228568 1_555
Mg1 O19 1.938353 1_545
Mg1 O18 1.938353 1_555
Mg1 O6 2.167333 1_554
Mg1 O2 2.167333 1_555
Mg1 O24 2.228568 1_555
Mg1 O26 2.228568 1_555
Mg2 O30 2.122856 1_455
Mg2 O21 2.122856 1_545
Mg2 O20 2.122856 1_555
Mg2 O28 2.122856 1_555
Mg2 O0 2.191252 1_555
Mg2 O4 2.191252 1_555
Mg3 O29 2.107233 1_555
Mg3 O31 2.107233 1_455
Mg3 O1 2.125266 1_555
Mg3 O5 2.125266 1_555
Mg3 O21 2.166712 1_555
Mg3 O20 2.166712 1_555
Mg4 O22 2.107233 1_555
Mg4 O23 2.107233 1_545
Mg4 O2 2.125266 1_555
Mg4 O6 2.125266 1_555
Mg4 O30 2.166712 1_555
Mg4 O28 2.166712 1_555
Mg5 O3 1.948162 1_555
Mg5 O7 1.948162 1_555
Mg5 O22 2.182335 1_555
Mg5 O29 2.182335 1_555
Mg5 O31 2.182335 1_555
Mg5 O23 2.182335 1_555
Mg6 O12 2.138774 1_554
Mg6 O8 2.138774 1_555
Mg6 O25 2.141604 1_555
Mg6 O18 2.141604 1_555
Mg6 O16 2.161644 1_555
Mg6 O24 2.161644 1_555
Mg7 O9 2.138774 1_555
Mg7 O13 2.138774 1_554
Mg7 O25 2.141604 1_555
Mg7 O19 2.141604 1_555
Mg7 O17 2.161644 1_555
Mg7 O24 2.161644 1_565
Mg8 O14 2.138774 1_554
Mg8 O10 2.138774 1_555
Mg8 O18 2.141604 1_555
Mg8 O27 2.141604 1_555
Mg8 O26 2.161644 1_555
Mg8 O16 2.161644 1_655
Mg9 O15 2.138774 1_554
Mg9 O11 2.138774 1_555
Mg9 O19 2.141604 1_555
Mg9 O27 2.141604 1_555
Mg9 O17 2.161644 1_655
Mg9 O26 2.161644 1_565
Mg10 O29 2.134355 1_555
Mg10 O22 2.134355 1_555
Mg10 O8 2.154162 1_555
Mg10 O12 2.154162 1_555
Mg10 O20 2.156016 1_555
Mg10 O28 2.156016 1_555
Mg11 O23 2.134355 1_555
Mg11 O29 2.134355 1_555
Mg11 O9 2.154162 1_555
Mg11 O13 2.154162 1_555
Mg11 O28 2.156016 1_565
Mg11 O21 2.156016 1_555
Mg12 O31 2.134355 1_555
Mg12 O22 2.134355 1_555
Mg12 O14 2.154162 1_555
Mg12 O10 2.154162 1_555
Mg12 O30 2.156016 1_555
Mg12 O20 2.156016 1_655
Mg13 O31 2.134355 1_555
Mg13 O23 2.134355 1_555
Mg13 O11 2.154162 1_555
Mg13 O15 2.154162 1_555
Mg13 O30 2.156016 1_565
Mg13 O21 2.156016 1_655
Mg14 O1 2.120553 1_555
Mg14 O20 2.133261 1_555
Mg14 O10 2.138997 1_455
Mg14 O8 2.138997 1_555
Mg14 O16 2.162539 1_555
Mg14 O0 2.169817 1_555
Mg15 O1 2.120553 1_555
Mg15 O21 2.133261 1_555
Mg15 O11 2.138997 1_455
Mg15 O9 2.138997 1_555
Mg15 O17 2.162539 1_555
Mg15 O0 2.169817 1_565
Mg16 O22 2.135929 1_555
Mg16 O2 2.145092 1_555
Mg16 O8 2.150981 1_555
Mg16 O10 2.150981 1_555
Mg16 O3 2.152676 1_555
Mg16 O18 2.166888 1_555
Mg17 O23 2.135929 1_555
Mg17 O2 2.145092 1_565
Mg17 O9 2.150981 1_555
Mg17 O11 2.150981 1_555
Mg17 O3 2.152676 1_555
Mg17 O19 2.166888 1_555
Mg18 O5 2.120553 1_555
Mg18 O20 2.133261 1_555
Mg18 O14 2.138997 1_455
Mg18 O12 2.138997 1_555
Mg18 O16 2.162539 1_556
Mg18 O4 2.169817 1_555
Mg19 O5 2.120553 1_555
Mg19 O21 2.133261 1_555
Mg19 O15 2.138997 1_455
Mg19 O13 2.138997 1_555
Mg19 O17 2.162539 1_556
Mg19 O4 2.169817 1_565
Mg20 O22 2.135929 1_555
Mg20 O6 2.145092 1_555
Mg20 O12 2.150981 1_555
Mg20 O14 2.150981 1_555
Mg20 O7 2.152676 1_555
Mg20 O18 2.166888 1_556
Mg21 O23 2.135929 1_555
Mg21 O6 2.145092 1_565
Mg21 O13 2.150981 1_555
Mg21 O15 2.150981 1_555
Mg21 O7 2.152676 1_555
Mg21 O19 2.166888 1_556
Mg22 O2 2.120553 1_555
Mg22 O28 2.133261 1_555
Mg22 O9 2.138997 1_545
Mg22 O8 2.138997 1_555
Mg22 O24 2.162539 1_555
Mg22 O0 2.169817 1_555
Mg23 O29 2.135929 1_555
Mg23 O1 2.145092 1_555
Mg23 O8 2.150981 1_555
Mg23 O9 2.150981 1_555
Mg23 O3 2.152676 1_555
Mg23 O25 2.166888 1_555
Mg24 O2 2.120553 1_555
Mg24 O30 2.133261 1_555
Mg24 O11 2.138997 1_545
Mg24 O10 2.138997 1_555
Mg24 O26 2.162539 1_555
Mg24 O0 2.169817 1_655
Mg25 O31 2.135929 1_555
Mg25 O1 2.145092 1_655
Mg25 O10 2.150981 1_555
Mg25 O11 2.150981 1_555
Mg25 O3 2.152676 1_555
Mg25 O27 2.166888 1_555
Mg26 O6 2.120553 1_555
Mg26 O28 2.133261 1_555
Mg26 O13 2.138997 1_545
Mg26 O12 2.138997 1_555
Mg26 O24 2.162539 1_556
Mg26 O4 2.169817 1_555
Mg27 O29 2.135929 1_555
Mg27 O5 2.145092 1_555
Mg27 O12 2.150981 1_555
Mg27 O13 2.150981 1_555
Mg27 O7 2.152676 1_555
Mg27 O25 2.166888 1_556
Mg28 O6 2.120553 1_555
Mg28 O30 2.133261 1_555
Mg28 O15 2.138997 1_545
Mg28 O14 2.138997 1_555
Mg28 O26 2.162539 1_556
Mg28 O4 2.169817 1_655
Mg29 O31 2.135929 1_555
Mg29 O5 2.145092 1_655
Mg29 O14 2.150981 1_555
Mg29 O15 2.150981 1_555
Mg29 O7 2.152676 1_555
Mg29 O27 2.166888 1_556
Fe0 O26 2.061000 1_455
Fe0 O17 2.061000 1_545
Fe0 O24 2.061000 1_555
Fe0 O16 2.061000 1_555
Fe0 O4 2.101348 1_554
Fe0 O0 2.101348 1_555
