# generated using pymatgen
data_YMg14FeO16
_symmetry_space_group_name_H-M   'P 1'
_cell_length_a   4.34347600
_cell_length_b   8.69200500
_cell_length_c   8.70590200
_cell_angle_alpha   90.00000000
_cell_angle_beta   90.00000000
_cell_angle_gamma   90.00000000
_symmetry_Int_Tables_number   1
_chemical_formula_structural   YMg14FeO16
_chemical_formula_sum   'Y1 Mg14 Fe1 O16'
_cell_volume   328.67840270
_cell_formula_units_Z   1
loop_
 _symmetry_equiv_pos_site_id
 _symmetry_equiv_pos_as_xyz
  1  'x, y, z'
loop_
 _atom_site_type_symbol
 _atom_site_label
 _atom_site_symmetry_multiplicity
 _atom_site_fract_x
 _atom_site_fract_y
 _atom_site_fract_z
 _atom_site_occupancy
  Y  Y0  1  0.00000000  0.00000000  0.00000000  1
  Mg  Mg0  1  0.00000000  0.50000000  0.00000000  1
  Mg  Mg1  1  0.00000000  0.50000000  0.50000000  1
  Mg  Mg2  1  0.50000000  0.00000000  0.26514100  1
  Mg  Mg3  1  0.50000000  0.00000000  0.73485900  1
  Mg  Mg4  1  0.50000000  0.50000000  0.25371200  1
  Mg  Mg5  1  0.50000000  0.50000000  0.74628800  1
  Mg  Mg6  1  0.50000000  0.26292100  0.00000000  1
  Mg  Mg7  1  0.50000000  0.25069900  0.50000000  1
  Mg  Mg8  1  0.50000000  0.73707900  0.00000000  1
  Mg  Mg9  1  0.50000000  0.74930100  0.50000000  1
  Mg  Mg10  1  0.00000000  0.25541700  0.26120700  1
  Mg  Mg11  1  0.00000000  0.25541700  0.73879300  1
  Mg  Mg12  1  0.00000000  0.74458300  0.26120700  1
  Mg  Mg13  1  0.00000000  0.74458300  0.73879300  1
  Fe  Fe0  1  0.00000000  0.00000000  0.50000000  1
  O  O0  1  0.00000000  0.26004300  0.00000000  1
  O  O1  1  0.00000000  0.26693000  0.50000000  1
  O  O2  1  0.00000000  0.73995700  0.00000000  1
  O  O3  1  0.00000000  0.73307000  0.50000000  1
  O  O4  1  0.50000000  0.24875900  0.24939200  1
  O  O5  1  0.50000000  0.24875900  0.75060800  1
  O  O6  1  0.50000000  0.75124100  0.24939200  1
  O  O7  1  0.50000000  0.75124100  0.75060800  1
  O  O8  1  0.50000000  0.00000000  0.00000000  1
  O  O9  1  0.50000000  0.00000000  0.50000000  1
  O  O10  1  0.50000000  0.50000000  0.00000000  1
  O  O11  1  0.50000000  0.50000000  0.50000000  1
  O  O12  1  0.00000000  0.00000000  0.25202700  1
  O  O13  1  0.00000000  0.00000000  0.74797300  1
  O  O14  1  0.00000000  0.50000000  0.24804200  1
  O  O15  1  0.00000000  0.50000000  0.75195800  1
loop_
_geom_bond_atom_site_label_1
_geom_bond_atom_site_label_2
_geom_bond_distance
_geom_bond_site_symmetry_2
Mg0 O2 2.085707 1_555
Mg0 O0 2.085707 1_555
Mg0 O14 2.159429 1_555
Mg0 O15 2.159429 1_554
Mg0 O10 2.171738 1_455
Mg0 O10 2.171738 1_555
Mg1 O1 2.025846 1_555
Mg1 O3 2.025846 1_555
Mg1 O11 2.171738 1_455
Mg1 O11 2.171738 1_555
Mg1 O15 2.193522 1_555
Mg1 O14 2.193522 1_555
Mg2 O9 2.044659 1_555
Mg2 O4 2.166557 1_555
Mg2 O6 2.166557 1_545
Mg2 O12 2.174737 1_655
Mg2 O12 2.174737 1_555
Mg2 O8 2.308292 1_555
Mg3 O9 2.044659 1_555
Mg3 O5 2.166557 1_555
Mg3 O7 2.166557 1_545
Mg3 O13 2.174737 1_655
Mg3 O13 2.174737 1_555
Mg3 O8 2.308292 1_556
Mg4 O11 2.144159 1_555
Mg4 O14 2.172299 1_555
Mg4 O14 2.172299 1_655
Mg4 O6 2.184112 1_555
Mg4 O4 2.184112 1_555
Mg4 O10 2.208792 1_555
Mg5 O11 2.144159 1_555
Mg5 O15 2.172299 1_655
Mg5 O15 2.172299 1_555
Mg5 O7 2.184112 1_555
Mg5 O5 2.184112 1_555
Mg5 O10 2.208792 1_556
Mg6 O10 2.060692 1_555
Mg6 O0 2.171882 1_555
Mg6 O0 2.171882 1_655
Mg6 O4 2.174669 1_555
Mg6 O5 2.174669 1_554
Mg6 O8 2.285311 1_555
Mg7 O11 2.166926 1_555
Mg7 O1 2.176316 1_655
Mg7 O1 2.176316 1_555
Mg7 O9 2.179077 1_555
Mg7 O5 2.181834 1_555
Mg7 O4 2.181834 1_555
Mg8 O10 2.060692 1_555
Mg8 O2 2.171882 1_655
Mg8 O2 2.171882 1_555
Mg8 O6 2.174669 1_555
Mg8 O7 2.174669 1_554
Mg8 O8 2.285311 1_565
Mg9 O11 2.166926 1_555
Mg9 O3 2.176316 1_655
Mg9 O3 2.176316 1_555
Mg9 O9 2.179077 1_565
Mg9 O7 2.181834 1_555
Mg9 O6 2.181834 1_555
Mg10 O1 2.081316 1_555
Mg10 O14 2.129004 1_555
Mg10 O4 2.174943 1_555
Mg10 O4 2.174943 1_455
Mg10 O12 2.221524 1_555
Mg10 O0 2.274398 1_555
Mg11 O1 2.081316 1_555
Mg11 O15 2.129004 1_555
Mg11 O5 2.174943 1_455
Mg11 O5 2.174943 1_555
Mg11 O13 2.221524 1_555
Mg11 O0 2.274398 1_556
Mg12 O3 2.081316 1_555
Mg12 O14 2.129004 1_555
Mg12 O6 2.174943 1_555
Mg12 O6 2.174943 1_455
Mg12 O12 2.221524 1_565
Mg12 O2 2.274398 1_555
Mg13 O3 2.081316 1_555
Mg13 O15 2.129004 1_555
Mg13 O7 2.174943 1_555
Mg13 O7 2.174943 1_455
Mg13 O13 2.221524 1_565
Mg13 O2 2.274398 1_556
Fe0 O12 2.158829 1_555
Fe0 O13 2.158829 1_555
Fe0 O9 2.171738 1_555
Fe0 O9 2.171738 1_455
Fe0 O3 2.320157 1_545
Fe0 O1 2.320157 1_555
O0 Y0 2.260295 1_555
O2 Y0 2.260295 1_565
O8 Y0 2.171738 1_655
O8 Y0 2.171738 1_555
O12 Y0 2.194122 1_555
O13 Y0 2.194122 1_556
