# generated using pymatgen
data_ThCu5Sn
_symmetry_space_group_name_H-M   'P 1'
_cell_length_a   5.05406776
_cell_length_b   8.30553472
_cell_length_c   10.56519443
_cell_angle_alpha   90.00000000
_cell_angle_beta   90.00000000
_cell_angle_gamma   90.00000000
_symmetry_Int_Tables_number   1
_chemical_formula_structural   ThCu5Sn
_chemical_formula_sum   'Th4 Cu20 Sn4'
_cell_volume   443.49236954
_cell_formula_units_Z   4
loop_
 _symmetry_equiv_pos_site_id
 _symmetry_equiv_pos_as_xyz
  1  'x, y, z'
loop_
 _atom_site_type_symbol
 _atom_site_label
 _atom_site_symmetry_multiplicity
 _atom_site_fract_x
 _atom_site_fract_y
 _atom_site_fract_z
 _atom_site_occupancy
  Th  Th0  1  0.75000000  0.25053317  0.94356479  1
  Th  Th1  1  0.25000000  0.74946683  0.05643521  1
  Th  Th2  1  0.75000000  0.75053317  0.55643521  1
  Th  Th3  1  0.25000000  0.24946683  0.44356479  1
  Cu  Cu0  1  0.00137004  0.42780838  0.18631977  1
  Cu  Cu1  1  0.50137004  0.57219162  0.81368023  1
  Cu  Cu2  1  0.49862996  0.92780838  0.31368023  1
  Cu  Cu3  1  0.99862996  0.07219162  0.68631977  1
  Cu  Cu4  1  0.99862996  0.57219162  0.81368023  1
  Cu  Cu5  1  0.49862996  0.42780838  0.18631977  1
  Cu  Cu6  1  0.50137004  0.07219162  0.68631977  1
  Cu  Cu7  1  0.00137004  0.92780838  0.31368023  1
  Cu  Cu8  1  0.75000000  0.43179994  0.39225414  1
  Cu  Cu9  1  0.25000000  0.56820006  0.60774586  1
  Cu  Cu10  1  0.75000000  0.93179994  0.10774586  1
  Cu  Cu11  1  0.25000000  0.06820006  0.89225414  1
  Cu  Cu12  1  0.75000000  0.17912198  0.25458644  1
  Cu  Cu13  1  0.25000000  0.82087802  0.74541356  1
  Cu  Cu14  1  0.75000000  0.67912198  0.24541356  1
  Cu  Cu15  1  0.25000000  0.32087802  0.75458644  1
  Cu  Cu16  1  0.75000000  0.07973140  0.48128326  1
  Cu  Cu17  1  0.25000000  0.92026860  0.51871674  1
  Cu  Cu18  1  0.75000000  0.57973140  0.01871674  1
  Cu  Cu19  1  0.25000000  0.42026860  0.98128326  1
  Sn  Sn0  1  0.75000000  0.36522719  0.64143809  1
  Sn  Sn1  1  0.25000000  0.63477281  0.35856191  1
  Sn  Sn2  1  0.75000000  0.86522719  0.85856191  1
  Sn  Sn3  1  0.25000000  0.13477281  0.14143809  1
loop_
_geom_bond_atom_site_label_1
_geom_bond_atom_site_label_2
_geom_bond_distance
_geom_bond_site_symmetry_2
Cu0 Cu19 2.505112 1_554
Cu0 Cu5 2.513185 1_555
Cu0 Cu18 2.518283 1_455
Cu0 Cu8 2.519712 1_455
Cu0 Cu14 2.522026 1_455
Cu0 Cu12 2.529902 1_455
Cu0 Cu5 2.540882 1_455
Cu0 Sn3 2.779810 1_555
Cu0 Sn1 2.800961 1_555
Cu0 Th0 3.218671 1_454
Cu0 Th1 3.255651 1_555
Cu0 Th3 3.340616 1_555
Cu1 Cu18 2.505112 1_556
Cu1 Cu4 2.513185 1_555
Cu1 Cu19 2.518283 1_555
Cu1 Cu9 2.519712 1_555
Cu1 Cu15 2.522026 1_555
Cu1 Cu13 2.529902 1_555
Cu1 Cu4 2.540882 1_455
Cu1 Sn2 2.779810 1_555
Cu1 Sn0 2.800961 1_555
Cu1 Th1 3.218671 1_556
Cu1 Th0 3.255651 1_555
Cu1 Th2 3.340616 1_555
Cu2 Cu7 2.513185 1_555
Cu2 Cu7 2.540882 1_655
Cu2 Sn1 2.779810 1_555
Cu2 Sn3 2.800961 1_565
Cu2 Th2 3.218671 1_555
Cu2 Th3 3.255651 1_565
Cu2 Th1 3.340616 1_555
Cu3 Cu6 2.513185 1_555
Cu3 Cu6 2.540882 1_655
Cu3 Sn0 2.779810 1_555
Cu3 Sn2 2.800961 1_545
Cu3 Th3 3.218671 1_655
Cu3 Th2 3.255651 1_545
Cu3 Th0 3.340616 1_555
Cu4 Cu9 2.519712 1_655
Cu4 Sn2 2.779810 1_555
Cu4 Sn0 2.800961 1_555
Cu4 Th1 3.218671 1_656
Cu4 Th0 3.255651 1_555
Cu4 Th2 3.340616 1_555
Cu5 Cu8 2.519712 1_555
Cu5 Sn3 2.779810 1_555
Cu5 Sn1 2.800961 1_555
Cu5 Th0 3.218671 1_554
Cu5 Th1 3.255651 1_555
Cu5 Th3 3.340616 1_555
Cu6 Sn0 2.779810 1_555
Cu6 Sn2 2.800961 1_545
Cu6 Th3 3.218671 1_555
Cu6 Th2 3.255651 1_545
Cu6 Th0 3.340616 1_555
Cu7 Sn1 2.779810 1_555
Cu7 Sn3 2.800961 1_565
Cu7 Th2 3.218671 1_455
Cu7 Th3 3.255651 1_565
Cu7 Th1 3.340616 1_555
Cu8 Sn0 2.690113 1_555
Cu8 Th3 2.995515 1_655
Cu8 Th3 2.995515 1_555
Cu8 Sn1 3.058517 1_555
Cu8 Sn1 3.058517 1_655
Cu8 Th2 3.164931 1_555
Cu9 Sn1 2.690113 1_555
Cu9 Th2 2.995515 1_455
Cu9 Th2 2.995515 1_555
Cu9 Sn0 3.058517 1_455
Cu9 Sn0 3.058517 1_555
Cu9 Th3 3.164931 1_555
Cu10 Cu2 2.519712 1_555
Cu10 Cu7 2.519712 1_655
Cu10 Cu14 2.553382 1_555
Cu10 Cu12 2.574167 1_565
Cu10 Sn2 2.690113 1_554
Cu10 Th1 2.995515 1_555
Cu10 Th1 2.995515 1_655
Cu10 Sn3 3.058517 1_665
Cu10 Sn3 3.058517 1_565
Cu10 Cu18 3.071679 1_555
Cu10 Th0 3.164931 1_564
Cu11 Cu3 2.519712 1_455
Cu11 Cu6 2.519712 1_555
Cu11 Cu15 2.553382 1_555
Cu11 Cu13 2.574167 1_545
Cu11 Sn3 2.690113 1_556
Cu11 Th0 2.995515 1_555
Cu11 Th0 2.995515 1_455
Cu11 Sn2 3.058517 1_545
Cu11 Sn2 3.058517 1_445
Cu11 Cu19 3.071679 1_555
Cu11 Th1 3.164931 1_546
Cu12 Cu2 2.522026 1_545
Cu12 Cu7 2.522026 1_645
Cu12 Cu5 2.529902 1_555
Cu12 Cu16 2.533362 1_555
Cu12 Cu8 2.553382 1_555
Cu12 Sn3 2.819688 1_555
Cu12 Sn3 2.819688 1_655
Cu12 Th3 3.273169 1_555
Cu12 Th3 3.273169 1_655
Cu12 Th0 3.339102 1_554
Cu13 Cu6 2.522026 1_565
Cu13 Cu3 2.522026 1_465
Cu13 Cu4 2.529902 1_455
Cu13 Cu17 2.533362 1_555
Cu13 Cu9 2.553382 1_555
Cu13 Sn2 2.819688 1_555
Cu13 Sn2 2.819688 1_455
Cu13 Th2 3.273169 1_455
Cu13 Th2 3.273169 1_555
Cu13 Th1 3.339102 1_556
Cu14 Cu5 2.522026 1_555
Cu14 Cu2 2.529902 1_555
Cu14 Cu7 2.529902 1_655
Cu14 Cu18 2.533362 1_555
Cu14 Cu8 2.574167 1_555
Cu14 Sn1 2.819688 1_555
Cu14 Sn1 2.819688 1_655
Cu14 Th1 3.273169 1_555
Cu14 Th1 3.273169 1_655
Cu14 Th2 3.339102 1_555
Cu15 Cu4 2.522026 1_455
Cu15 Cu3 2.529902 1_455
Cu15 Cu6 2.529902 1_555
Cu15 Cu19 2.533362 1_555
Cu15 Cu9 2.574167 1_555
Cu15 Sn0 2.819688 1_555
Cu15 Sn0 2.819688 1_455
Cu15 Th0 3.273169 1_555
Cu15 Th0 3.273169 1_455
Cu15 Th3 3.339102 1_555
Cu16 Cu6 2.505112 1_555
Cu16 Cu3 2.505112 1_555
Cu16 Cu7 2.518283 1_645
Cu16 Cu2 2.518283 1_545
Cu16 Th2 2.847121 1_545
Cu16 Cu17 2.880349 1_545
Cu16 Cu17 2.880349 1_645
Cu16 Sn0 2.913015 1_555
Cu16 Th3 2.920973 1_555
Cu16 Th3 2.920973 1_655
Cu16 Cu8 3.071679 1_555
Cu17 Cu7 2.505112 1_555
Cu17 Cu2 2.505112 1_555
Cu17 Cu3 2.518283 1_465
Cu17 Cu6 2.518283 1_565
Cu17 Th3 2.847121 1_565
Cu17 Sn1 2.913015 1_555
Cu17 Th2 2.920973 1_555
Cu17 Th2 2.920973 1_455
Cu17 Cu9 3.071679 1_555
Cu18 Cu4 2.505112 1_554
Cu18 Cu5 2.518283 1_555
Cu18 Th0 2.847121 1_554
Cu18 Cu19 2.880349 1_554
Cu18 Cu19 2.880349 1_654
Cu18 Sn2 2.913015 1_554
Cu18 Th1 2.920973 1_555
Cu18 Th1 2.920973 1_655
Cu19 Cu5 2.505112 1_556
Cu19 Cu4 2.518283 1_455
Cu19 Th1 2.847121 1_556
Cu19 Sn3 2.913015 1_556
Cu19 Th0 2.920973 1_455
Cu19 Th0 2.920973 1_555
Sn0 Th2 3.323798 1_555
Sn0 Th0 3.331137 1_555
Sn0 Th3 3.417714 1_655
Sn0 Th3 3.417714 1_555
Sn1 Th3 3.323798 1_555
Sn1 Th1 3.331137 1_555
Sn1 Th2 3.417714 1_555
Sn1 Th2 3.417714 1_455
Sn2 Th0 3.323798 1_565
Sn2 Th2 3.331137 1_555
Sn2 Th1 3.417714 1_656
Sn2 Th1 3.417714 1_556
Sn3 Th1 3.323798 1_545
Sn3 Th3 3.331137 1_555
Sn3 Th0 3.417714 1_554
Sn3 Th0 3.417714 1_454
