# generated using pymatgen
data_BaTeS4O9
_symmetry_space_group_name_H-M   'P 1'
_cell_length_a   5.39736100
_cell_length_b   11.06723400
_cell_length_c   21.57982851
_cell_angle_alpha   77.53125294
_cell_angle_beta   90.00000000
_cell_angle_gamma   90.00000000
_symmetry_Int_Tables_number   1
_chemical_formula_structural   BaTeS4O9
_chemical_formula_sum   'Ba4 Te4 S16 O36'
_cell_volume   1258.64284567
_cell_formula_units_Z   4
loop_
 _symmetry_equiv_pos_site_id
 _symmetry_equiv_pos_as_xyz
  1  'x, y, z'
loop_
 _atom_site_type_symbol
 _atom_site_label
 _atom_site_symmetry_multiplicity
 _atom_site_fract_x
 _atom_site_fract_y
 _atom_site_fract_z
 _atom_site_occupancy
  Ba  Ba0  1  0.32952100  0.14538700  0.59264700  1
  Ba  Ba1  1  0.82952100  0.85461300  0.90735300  1
  Ba  Ba2  1  0.67047900  0.85461300  0.40735300  1
  Ba  Ba3  1  0.17047900  0.14538700  0.09264700  1
  Te  Te0  1  0.01346900  0.60386200  0.68781100  1
  Te  Te1  1  0.51346900  0.39613800  0.81218900  1
  Te  Te2  1  0.98653100  0.39613800  0.31218900  1
  Te  Te3  1  0.48653100  0.60386200  0.18781100  1
  S  S0  1  0.29924000  0.67223100  0.60238900  1
  S  S1  1  0.79924000  0.32776900  0.89761100  1
  S  S2  1  0.70076000  0.32776900  0.39761100  1
  S  S3  1  0.20076000  0.67223100  0.10238900  1
  S  S4  1  0.77140000  0.46475000  0.63952500  1
  S  S5  1  0.27140000  0.53525000  0.86047500  1
  S  S6  1  0.22860000  0.53525000  0.36047500  1
  S  S7  1  0.72860000  0.46475000  0.13952500  1
  S  S8  1  0.13779300  0.83182100  0.54314100  1
  S  S9  1  0.63779300  0.16817900  0.95685900  1
  S  S10  1  0.86220700  0.16817900  0.45685900  1
  S  S11  1  0.36220700  0.83182100  0.04314100  1
  S  S12  1  0.90586600  0.28478500  0.68144600  1
  S  S13  1  0.40586600  0.71521500  0.81855400  1
  S  S14  1  0.09413400  0.71521500  0.31855400  1
  S  S15  1  0.59413400  0.28478500  0.18144600  1
  O  O0  1  0.13101900  0.93074000  0.57906500  1
  O  O1  1  0.63101900  0.06926000  0.92093500  1
  O  O2  1  0.86898100  0.06926000  0.42093500  1
  O  O3  1  0.36898100  0.93074000  0.07906500  1
  O  O4  1  0.31649900  0.85727000  0.49027500  1
  O  O5  1  0.81649900  0.14273000  0.00972500  1
  O  O6  1  0.68350100  0.14273000  0.50972500  1
  O  O7  1  0.18350100  0.85727000  0.99027500  1
  O  O8  1  0.89084400  0.79985500  0.52280700  1
  O  O9  1  0.39084400  0.20014500  0.97719300  1
  O  O10  1  0.10915600  0.20014500  0.47719300  1
  O  O11  1  0.60915600  0.79985500  0.02280700  1
  O  O12  1  0.82081400  0.25191200  0.74710900  1
  O  O13  1  0.32081400  0.74808800  0.75289100  1
  O  O14  1  0.17918600  0.74808800  0.25289100  1
  O  O15  1  0.67918600  0.25191200  0.24710900  1
  O  O16  1  0.79198100  0.20958800  0.63919600  1
  O  O17  1  0.29198100  0.79041200  0.86080400  1
  O  O18  1  0.20801900  0.79041200  0.36080400  1
  O  O19  1  0.70801900  0.20958800  0.13919600  1
  O  O20  1  0.17874200  0.28414800  0.67532800  1
  O  O21  1  0.67874200  0.71585200  0.82467200  1
  O  O22  1  0.82125800  0.71585200  0.32467200  1
  O  O23  1  0.32125800  0.28414800  0.17532800  1
  O  O24  1  0.78083100  0.92181000  0.69054300  1
  O  O25  1  0.28083100  0.07819000  0.80945700  1
  O  O26  1  0.21916900  0.07819000  0.30945700  1
  O  O27  1  0.71916900  0.92181000  0.19054300  1
  O  O28  1  0.92869500  0.95756100  0.72636000  1
  O  O29  1  0.42869500  0.04243900  0.77364000  1
  O  O30  1  0.07130500  0.04243900  0.27364000  1
  O  O31  1  0.57130500  0.95756100  0.22636000  1
  O  O32  1  0.42172800  0.46323200  0.51362900  1
  O  O33  1  0.92172800  0.53676800  0.98637100  1
  O  O34  1  0.57827200  0.53676800  0.48637100  1
  O  O35  1  0.07827200  0.46323200  0.01362900  1
loop_
_geom_bond_atom_site_label_1
_geom_bond_atom_site_label_2
_geom_bond_distance
_geom_bond_site_symmetry_2
Ba0 O6 2.622198 1_555
Ba0 O0 2.679116 1_545
Ba0 O10 2.708759 1_555
Ba0 O20 2.717973 1_555
Ba0 O16 2.837683 1_555
Ba0 O16 3.199943 1_455
Ba1 O7 2.622198 1_655
Ba1 O1 2.679116 1_565
Ba1 O11 2.708759 1_556
Ba1 O21 2.717973 1_555
Ba1 O17 2.837683 1_655
Ba1 O17 3.199943 1_555
Ba2 O4 2.622198 1_555
Ba2 O2 2.679116 1_565
Ba2 O8 2.708759 1_555
Ba2 O22 2.717973 1_555
Ba2 O18 2.837683 1_555
Ba2 O18 3.199943 1_655
Ba3 O5 2.622198 1_455
Ba3 O3 2.679116 1_545
Ba3 O9 2.708759 1_554
Ba3 O23 2.717973 1_555
Ba3 O19 2.837683 1_455
Ba3 O19 3.199943 1_555
S0 S8 2.130361 1_555
S0 Te0 2.397363 1_555
S1 S9 2.130361 1_555
S1 Te1 2.397363 1_555
S2 Te2 2.397363 1_555
S3 Te3 2.397363 1_555
S4 Te0 2.419889 1_655
S5 Te1 2.419889 1_555
S6 Te2 2.419889 1_455
S7 Te3 2.419889 1_555
S10 S2 2.130361 1_555
S11 S3 2.130361 1_555
S12 S4 2.129320 1_555
S13 S5 2.129320 1_555
S14 S6 2.129320 1_555
S15 S7 2.129320 1_555
O0 S8 1.472176 1_555
O1 S9 1.472176 1_555
O2 S10 1.472176 1_555
O3 S11 1.472176 1_555
O4 S8 1.473917 1_555
O5 S9 1.473917 1_554
O6 S10 1.473917 1_555
O7 S11 1.473917 1_556
O8 S8 1.470133 1_655
O9 S9 1.470133 1_555
O10 S10 1.470133 1_455
O11 S11 1.470133 1_555
O12 S12 1.458891 1_555
O13 S13 1.458891 1_555
O14 S14 1.458891 1_555
O15 S15 1.458891 1_555
O16 S12 1.493104 1_555
O17 S13 1.493104 1_555
O18 S14 1.493104 1_555
O19 S15 1.493104 1_555
O20 S12 1.478869 1_455
O21 S13 1.478869 1_555
O22 S14 1.478869 1_655
O23 S15 1.478869 1_555
O24 O28 1.234076 1_555
O25 O29 1.234076 1_555
O26 O30 1.234076 1_555
O27 O31 1.234076 1_555
O32 O34 1.231065 1_555
O33 O35 1.231065 1_656
