# generated using pymatgen
data_Sm8Al53Si17Ru12
_symmetry_space_group_name_H-M   'P 1'
_cell_length_a   11.57391526
_cell_length_b   11.48490992
_cell_length_c   11.49661937
_cell_angle_alpha   90.01689049
_cell_angle_beta   89.93285354
_cell_angle_gamma   90.02675136
_symmetry_Int_Tables_number   1
_chemical_formula_structural   Sm8Al53Si17Ru12
_chemical_formula_sum   'Sm8 Al53 Si17 Ru12'
_cell_volume   1528.19114919
_cell_formula_units_Z   1
loop_
 _symmetry_equiv_pos_site_id
 _symmetry_equiv_pos_as_xyz
  1  'x, y, z'
loop_
 _atom_site_type_symbol
 _atom_site_label
 _atom_site_symmetry_multiplicity
 _atom_site_fract_x
 _atom_site_fract_y
 _atom_site_fract_z
 _atom_site_occupancy
  Sm  Sm0  1  0.32268816  0.67828860  0.32214379  1
  Sm  Sm1  1  0.67789401  0.32266957  0.32232236  1
  Sm  Sm2  1  0.32279870  0.32255115  0.67698950  1
  Sm  Sm3  1  0.67726729  0.67781195  0.67693256  1
  Sm  Sm4  1  0.67653355  0.32310818  0.67717487  1
  Sm  Sm5  1  0.32318131  0.67681150  0.67840291  1
  Sm  Sm6  1  0.67760071  0.67734495  0.32308028  1
  Sm  Sm7  1  0.32281391  0.32138303  0.32360820  1
  Al  Al0  1  0.36323594  0.87362087  0.12557108  1
  Al  Al1  1  0.12732485  0.87435082  0.36509292  1
  Al  Al2  1  0.12715349  0.63466797  0.12653677  1
  Al  Al3  1  0.63673138  0.12615622  0.12535515  1
  Al  Al4  1  0.87450174  0.12633308  0.36543891  1
  Al  Al5  1  0.87317153  0.36198898  0.12564425  1
  Al  Al6  1  0.36337111  0.12537674  0.87397635  1
  Al  Al7  1  0.12534883  0.12521469  0.63922030  1
  Al  Al8  1  0.12606635  0.36046872  0.87531235  1
  Al  Al9  1  0.63812936  0.87460449  0.87389282  1
  Al  Al10  1  0.87342416  0.87528981  0.63787292  1
  Al  Al11  1  0.87383174  0.63454768  0.87467189  1
  Al  Al12  1  0.63700871  0.12555085  0.87349747  1
  Al  Al13  1  0.87315060  0.12577974  0.63596449  1
  Al  Al14  1  0.87323019  0.36479362  0.87494251  1
  Al  Al15  1  0.36381629  0.87342611  0.87442386  1
  Al  Al16  1  0.12718819  0.87385126  0.63456014  1
  Al  Al17  1  0.12643797  0.63774864  0.87478799  1
  Al  Al18  1  0.63678833  0.87385426  0.12591072  1
  Al  Al19  1  0.87371992  0.87422499  0.36360912  1
  Al  Al20  1  0.87387854  0.63798317  0.12635010  1
  Al  Al21  1  0.36422555  0.12561994  0.12677926  1
  Al  Al22  1  0.12591568  0.12509018  0.36152412  1
  Al  Al23  1  0.12683164  0.36599748  0.12735144  1
  Al  Al24  1  0.11257711  0.50028151  0.32338540  1
  Al  Al25  1  0.50075160  0.67780450  0.11293686  1
  Al  Al26  1  0.32237824  0.88667871  0.50121946  1
  Al  Al27  1  0.50115950  0.88663706  0.32118636  1
  Al  Al28  1  0.32279545  0.49895813  0.11263300  1
  Al  Al29  1  0.11265238  0.67782864  0.50058597  1
  Al  Al30  1  0.88671583  0.49998796  0.32233759  1
  Al  Al31  1  0.49986332  0.32118292  0.11327399  1
  Al  Al32  1  0.67927942  0.11399147  0.50045365  1
  Al  Al33  1  0.50143795  0.11378050  0.32132215  1
  Al  Al34  1  0.67919597  0.49974257  0.11298957  1
  Al  Al35  1  0.88669975  0.32154326  0.50123796  1
  Al  Al36  1  0.11295109  0.50004352  0.67982254  1
  Al  Al37  1  0.50009974  0.32042434  0.88586808  1
  Al  Al38  1  0.32074817  0.11402359  0.50136737  1
  Al  Al39  1  0.50032724  0.11369809  0.67889899  1
  Al  Al40  1  0.32122600  0.49858261  0.88559842  1
  Al  Al41  1  0.11280548  0.32112983  0.50088277  1
  Al  Al42  1  0.88650448  0.49979339  0.67905261  1
  Al  Al43  1  0.50142725  0.67911403  0.88595277  1
  Al  Al44  1  0.67885214  0.88652701  0.50022180  1
  Al  Al45  1  0.50013731  0.88621060  0.67953003  1
  Al  Al46  1  0.67851626  0.49991692  0.88563239  1
  Al  Al47  1  0.88667775  0.67862651  0.50096329  1
  Al  Al48  1  0.49991705  0.50003810  0.50015052  1
  Al  Al49  1  0.99686395  0.84931536  0.15485889  1
  Al  Al50  1  0.15682609  0.84391593  0.99494885  1
  Al  Al51  1  0.16202150  0.00119280  0.15386977  1
  Al  Al52  1  0.99740310  0.15489937  0.15048883  1
  Si  Si0  1  0.00021539  0.99984630  0.50068034  1
  Si  Si1  1  0.00008353  0.49994902  0.00032402  1
  Si  Si2  1  0.50017898  0.99983499  0.00020975  1
  Si  Si3  1  0.25854996  0.50038942  0.50013776  1
  Si  Si4  1  0.50005997  0.49975696  0.25879483  1
  Si  Si5  1  0.50021707  0.74056176  0.50029405  1
  Si  Si6  1  0.74133326  0.49994360  0.50021772  1
  Si  Si7  1  0.50043531  0.25969434  0.50020371  1
  Si  Si8  1  0.49992435  0.49991101  0.74104303  1
  Si  Si9  1  0.83838333  0.15127061  0.99710152  1
  Si  Si10  1  0.83508424  0.99969291  0.14950944  1
  Si  Si11  1  0.00402329  0.15513307  0.84747673  1
  Si  Si12  1  0.15903642  0.15516187  0.99628591  1
  Si  Si13  1  0.15459504  0.00465730  0.83972010  1
  Si  Si14  1  0.99771114  0.84968375  0.84262129  1
  Si  Si15  1  0.83640649  0.84813226  0.99891161  1
  Si  Si16  1  0.84218873  0.99680127  0.84579562  1
  Ru  Ru0  1  0.99900321  0.69565595  0.30512759  1
  Ru  Ru1  1  0.30724377  0.69248585  0.99866239  1
  Ru  Ru2  1  0.30855475  0.00043562  0.30802954  1
  Ru  Ru3  1  0.99919558  0.30476143  0.30454092  1
  Ru  Ru4  1  0.69579096  0.30327319  0.99870471  1
  Ru  Ru5  1  0.69678224  0.00075227  0.30458657  1
  Ru  Ru6  1  0.99930781  0.30194080  0.69946651  1
  Ru  Ru7  1  0.30487753  0.30323876  0.99916563  1
  Ru  Ru8  1  0.30491578  0.00069869  0.69689122  1
  Ru  Ru9  1  0.99885368  0.69869406  0.69869957  1
  Ru  Ru10  1  0.69655582  0.69539528  0.99936770  1
  Ru  Ru11  1  0.69642147  0.99986920  0.69681897  1
loop_
_geom_bond_atom_site_label_1
_geom_bond_atom_site_label_2
_geom_bond_distance
_geom_bond_site_symmetry_2
Al0 Si2 2.585386 1_555
Al0 Ru1 2.622138 1_554
Al0 Ru2 2.630190 1_565
Al0 Sm0 3.218653 1_555
Al1 Si0 2.582011 1_555
Al1 Ru0 2.625200 1_455
Al1 Ru2 2.630868 1_565
Al1 Al29 2.747840 1_555
Al1 Sm0 3.229297 1_555
Al2 Si1 2.581453 1_555
Al2 Ru0 2.626610 1_455
Al2 Ru1 2.634163 1_554
Al2 Sm0 3.231099 1_555
Al3 Si2 2.583515 1_545
Al3 Ru4 2.592933 1_554
Al3 Ru5 2.609467 1_555
Al3 Si10 2.731631 1_545
Al3 Al33 2.745851 1_555
Al3 Al31 2.747665 1_555
Al3 Si9 2.774158 1_554
Al3 Sm1 3.232184 1_555
Al4 Si0 2.579418 1_645
Al4 Ru3 2.601549 1_555
Al4 Ru5 2.607778 1_555
Al4 Si10 2.913086 1_545
Al4 Sm1 3.242901 1_555
Al5 Si1 2.595782 1_655
Al5 Ru3 2.607343 1_555
Al5 Ru4 2.608530 1_554
Al5 Si9 2.863774 1_554
Al5 Sm1 3.226838 1_555
Al6 Ru8 2.579443 1_555
Al6 Ru7 2.588396 1_555
Al6 Si2 2.588620 1_546
Al6 Si12 2.771271 1_555
Al6 Si13 2.813345 1_555
Al6 Sm2 3.237885 1_555
Al7 Si0 2.590292 1_545
Al7 Ru6 2.593642 1_455
Al7 Ru8 2.609697 1_555
Al7 Si13 2.710934 1_555
Al7 Si11 2.795420 1_555
Al7 Sm2 3.247220 1_555
Al8 Ru6 2.587745 1_455
Al8 Ru7 2.598315 1_555
Al8 Si1 2.598794 1_556
Al8 Si12 2.764734 1_555
Al8 Si11 2.767040 1_555
Al8 Sm2 3.249765 1_555
Al9 Ru11 2.582012 1_555
Al9 Si2 2.592725 1_556
Al9 Ru10 2.603790 1_555
Al9 Si15 2.726388 1_555
Al9 Si16 2.765366 1_555
Al9 Sm3 3.230539 1_555
Al10 Si0 2.584864 1_655
Al10 Ru11 2.588846 1_555
Al10 Ru9 2.591523 1_555
Al10 Al47 2.756847 1_555
Al10 Al44 2.757010 1_555
Al10 Si14 2.775857 1_555
Al10 Si16 2.790838 1_555
Al10 Sm3 3.239324 1_555
Al11 Si1 2.572940 1_656
Al11 Ru9 2.592767 1_555
Al11 Ru10 2.597529 1_555
Al11 Al42 2.733480 1_555
Al11 Al46 2.740988 1_555
Al11 Si15 2.870967 1_555
Al11 Si14 2.879653 1_555
Al11 Sm3 3.256456 1_555
Al12 Ru11 2.584201 1_545
Al12 Ru4 2.588507 1_555
Al12 Si2 2.590074 1_546
Al12 Al39 2.744841 1_555
Al12 Al37 2.746417 1_555
Al12 Si9 2.746922 1_555
Al12 Si16 2.815762 1_545
Al12 Al9 2.882137 1_545
Al12 Al3 2.895516 1_556
Al12 Sm4 3.232830 1_555
Al13 Si0 2.582430 1_645
Al13 Ru6 2.599453 1_555
Al13 Ru11 2.599794 1_545
Al13 Al35 2.734924 1_555
Al13 Al32 2.736435 1_555
Al13 Si16 2.853365 1_545
Al13 Si11 2.885951 1_655
Al13 Al7 2.919215 1_655
Al13 Sm4 3.246648 1_555
Al14 Si1 2.577670 1_656
Al14 Ru6 2.591029 1_555
Al14 Ru4 2.594928 1_555
Al14 Al42 2.738683 1_555
Al14 Al46 2.739464 1_555
Al14 Si9 2.854569 1_555
Al14 Si11 2.862034 1_655
Al14 Sm4 3.254518 1_555
Al15 Si2 2.586850 1_556
Al15 Ru8 2.602512 1_565
Al15 Ru1 2.604907 1_555
Al15 Al45 2.742805 1_555
Al15 Si13 2.881059 1_565
Al15 Sm5 3.224487 1_555
Al16 Si0 2.575112 1_555
Al16 Ru9 2.606197 1_455
Al16 Ru8 2.620530 1_565
Al16 Al29 2.732626 1_555
Al16 Si13 2.814239 1_565
Al16 Si14 2.834780 1_455
Al16 Al7 2.887456 1_565
Al16 Sm5 3.244838 1_555
Al17 Si1 2.592395 1_556
Al17 Ru9 2.603367 1_455
Al17 Ru1 2.609157 1_555
Al17 Al36 2.747394 1_555
Al17 Si14 2.878596 1_455
Al17 Sm5 3.235971 1_555
Al18 Si2 2.586598 1_555
Al18 Ru10 2.606340 1_554
Al18 Ru5 2.612744 1_565
Al18 Si10 2.725394 1_555
Al18 Al27 2.741809 1_555
Al18 Si15 2.747600 1_554
Al18 Al25 2.751006 1_555
Al18 Al9 2.897393 1_554
Al18 Al3 2.897675 1_565
Al18 Sm6 3.234426 1_555
Al19 Si0 2.590440 1_655
Al19 Ru0 2.600049 1_555
Al19 Ru5 2.602394 1_565
Al19 Al44 2.750512 1_555
Al19 Al47 2.750543 1_555
Al19 Si10 2.887954 1_555
Al19 Sm6 3.237169 1_555
Al20 Si1 2.596516 1_655
Al20 Ru0 2.601086 1_555
Al20 Ru10 2.605159 1_554
Al20 Al30 2.759322 1_555
Al20 Al34 2.760206 1_555
Al20 Si15 2.857340 1_554
Al20 Sm6 3.235544 1_555
Al21 Si2 2.583755 1_545
Al21 Ru7 2.605964 1_554
Al21 Ru2 2.611908 1_555
Al21 Si12 2.831093 1_554
Al21 Sm7 3.225013 1_555
Al22 Si0 2.595958 1_545
Al22 Ru3 2.616137 1_455
Al22 Ru2 2.625921 1_555
Al22 Al41 2.767089 1_555
Al22 Al38 2.773937 1_555
Al22 Sm7 3.234057 1_555
Al23 Si1 2.580683 1_555
Al23 Ru3 2.611398 1_455
Al23 Ru7 2.632755 1_554
Al23 Si12 2.875778 1_554
Al23 Sm7 3.242261 1_555
Al24 Ru3 2.609410 1_455
Al24 Ru0 2.609700 1_455
Al24 Al30 2.614142 1_455
Al24 Si3 2.644168 1_555
Al24 Al29 2.881970 1_555
Al24 Al41 2.898293 1_555
Al24 Sm0 3.176277 1_555
Al24 Sm7 3.185432 1_555
Al25 Ru1 2.603422 1_554
Al25 Ru10 2.621854 1_554
Al25 Si4 2.644881 1_555
Al25 Al34 2.907153 1_555
Al25 Sm0 3.165524 1_555
Al25 Sm6 3.168270 1_555
Al26 Ru2 2.582291 1_565
Al26 Ru8 2.610296 1_565
Al26 Al38 2.611112 1_565
Al26 Si5 2.656312 1_555
Al26 Al45 2.906040 1_555
Al26 Sm5 3.156269 1_555
Al26 Sm0 3.156532 1_555
Al27 Ru2 2.589201 1_565
Al27 Ru5 2.622348 1_565
Al27 Si5 2.656438 1_555
Al27 Al44 2.911381 1_555
Al27 Sm6 3.154870 1_555
Al27 Sm0 3.160382 1_555
Al28 Ru1 2.586896 1_554
Al28 Ru7 2.606888 1_554
Al28 Si4 2.653491 1_555
Al28 Sm0 3.168702 1_555
Al28 Sm7 3.169427 1_555
Al29 Ru0 2.613248 1_455
Al29 Al47 2.615430 1_455
Al29 Ru9 2.640595 1_455
Al29 Si3 2.647174 1_555
Al29 Al36 2.901342 1_555
Al29 Sm0 3.179051 1_555
Al29 Sm5 3.182487 1_555
Al30 Ru3 2.601103 1_555
Al30 Ru0 2.602901 1_555
Al30 Si6 2.646760 1_555
Al30 Al5 2.765593 1_555
Al30 Al47 2.902415 1_555
Al30 Al35 2.903934 1_555
Al30 Sm1 3.159750 1_555
Al30 Sm6 3.164089 1_555
Al31 Al37 2.614409 1_554
Al31 Ru7 2.619678 1_554
Al31 Ru4 2.629207 1_554
Al31 Si4 2.646342 1_555
Al31 Al34 2.917122 1_555
Al31 Sm1 3.167592 1_555
Al31 Sm7 3.167774 1_555
Al32 Ru5 2.607785 1_555
Al32 Al44 2.612412 1_545
Al32 Ru11 2.618543 1_545
Al32 Si7 2.662343 1_555
Al32 Al4 2.743419 1_555
Al32 Al33 2.913379 1_555
Al32 Al39 2.913512 1_555
Al32 Sm4 3.145464 1_555
Al32 Sm1 3.152954 1_555
Al33 Ru2 2.588351 1_555
Al33 Ru5 2.614453 1_555
Al33 Si7 2.652494 1_555
Al33 Al38 2.940728 1_555
Al33 Sm1 3.149934 1_555
Al33 Sm7 3.156589 1_555
Al34 Ru10 2.607038 1_554
Al34 Al46 2.613861 1_554
Al34 Ru4 2.617776 1_554
Al34 Si4 2.664643 1_555
Al34 Al5 2.751121 1_555
Al34 Sm1 3.151289 1_555
Al34 Sm6 3.160976 1_555
Al35 Ru3 2.615183 1_555
Al35 Al41 2.616933 1_655
Al35 Ru6 2.636381 1_555
Al35 Si6 2.651816 1_555
Al35 Al4 2.735318 1_555
Al35 Al42 2.892669 1_555
Al35 Sm4 3.161777 1_555
Al35 Sm1 3.175412 1_555
Al36 Al42 2.620899 1_455
Al36 Ru6 2.637105 1_455
Al36 Ru9 2.645369 1_455
Al36 Si3 2.664391 1_555
Al36 Al8 2.765311 1_555
Al36 Al41 2.907203 1_555
Al36 Sm5 3.168208 1_555
Al36 Sm2 3.171710 1_555
Al37 Ru7 2.614130 1_555
Al37 Ru4 2.618954 1_555
Al37 Si8 2.650204 1_555
Al37 Al6 2.745548 1_555
Al37 Al40 2.911470 1_555
Al37 Al46 2.917149 1_555
Al37 Sm4 3.148939 1_555
Al37 Sm2 3.160683 1_555
Al38 Ru2 2.580920 1_555
Al38 Ru8 2.604030 1_555
Al38 Si7 2.668510 1_555
Al38 Al7 2.763067 1_555
Al38 Al39 2.914719 1_555
Al38 Sm2 3.132095 1_555
Al38 Sm7 3.138671 1_555
Al39 Al45 2.612685 1_545
Al39 Ru8 2.615060 1_555
Al39 Ru11 2.628027 1_545
Al39 Si7 2.652179 1_555
Al39 Al6 2.748112 1_555
Al39 Sm4 3.152647 1_555
Al39 Sm2 3.159205 1_555
Al40 Ru1 2.583273 1_555
Al40 Ru7 2.602800 1_555
Al40 Si8 2.651732 1_555
Al40 Sm2 3.136324 1_555
Al40 Sm5 3.141233 1_555
Al41 Ru3 2.620318 1_455
Al41 Ru6 2.641860 1_455
Al41 Si3 2.660976 1_555
Al41 Al7 2.759756 1_555
Al41 Sm2 3.165112 1_555
Al41 Sm7 3.170172 1_555
Al42 Ru6 2.631890 1_555
Al42 Ru9 2.637754 1_555
Al42 Si6 2.656746 1_555
Al42 Al47 2.900492 1_555
Al42 Sm4 3.165355 1_555
Al42 Sm3 3.170185 1_555
Al43 Ru1 2.597518 1_555
Al43 Ru10 2.615689 1_555
Al43 Si8 2.647580 1_555
Al43 Al9 2.749499 1_555
Al43 Al46 2.905248 1_555
Al43 Sm3 3.147248 1_555
Al43 Sm5 3.156218 1_555
Al44 Ru5 2.612106 1_565
Al44 Ru11 2.615999 1_555
Al44 Si5 2.661138 1_555
Al44 Al45 2.918553 1_555
Al44 Sm3 3.142665 1_555
Al44 Sm6 3.149050 1_555
Al45 Ru8 2.622129 1_565
Al45 Ru11 2.627275 1_555
Al45 Si5 2.653716 1_555
Al45 Al9 2.751421 1_555
Al45 Sm3 3.152253 1_555
Al45 Sm5 3.158149 1_555
Al46 Ru10 2.606159 1_555
Al46 Ru4 2.614027 1_555
Al46 Si8 2.654012 1_555
Al46 Sm4 3.140811 1_555
Al46 Sm3 3.151880 1_555
Al47 Ru0 2.605869 1_555
Al47 Ru9 2.629250 1_555
Al47 Si6 2.652930 1_555
Al47 Sm3 3.155256 1_555
Al47 Sm6 3.170116 1_555
Al48 Si7 2.760336 1_555
Al48 Si5 2.762393 1_555
Al48 Si8 2.769450 1_555
Al48 Si4 2.774774 1_555
Al48 Si3 2.793567 1_555
Al48 Si6 2.794132 1_555
Al49 Ru0 2.470118 1_555
Al49 Si10 2.548703 1_555
Al49 Si15 2.582870 1_554
Al50 Ru1 2.461779 1_555
Al50 Si14 2.543706 1_455
Al50 Si13 2.568203 1_565
Al51 Ru2 2.454494 1_555
Al51 Si12 2.532279 1_554
Al52 Ru3 2.469366 1_555
Al52 Si9 2.550746 1_554
Al52 Si12 2.575797 1_654
Al52 Si10 2.589177 1_545
Si3 Sm5 2.977411 1_555
Si3 Sm2 2.977564 1_555
Si3 Sm7 2.982298 1_555
Si3 Sm0 2.985045 1_555
Si4 Sm1 2.985722 1_555
Si4 Sm6 2.987849 1_555
Si4 Sm0 2.991409 1_555
Si4 Sm7 2.992287 1_555
Si5 Sm3 2.975630 1_555
Si5 Sm6 2.980535 1_555
Si5 Sm5 2.986130 1_555
Si5 Sm0 2.989276 1_555
Si6 Sm4 2.970429 1_555
Si6 Sm3 2.974186 1_555
Si6 Sm6 2.974876 1_555
Si6 Sm1 2.977717 1_555
Si7 Sm4 2.971767 1_555
Si7 Sm7 2.976924 1_555
Si7 Sm2 2.978190 1_555
Si7 Sm1 2.985530 1_555
Si8 Sm5 2.973058 1_555
Si8 Sm4 2.973214 1_555
Si8 Sm2 2.982097 1_555
Si8 Sm3 2.987342 1_555
Si10 Si15 2.454780 1_554
Si10 Si9 2.470574 1_564
Si11 Si13 2.456421 1_555
Si11 Si12 2.480497 1_555
Si11 Si9 2.574588 1_455
Si11 Si16 2.610035 1_445
Si12 Si13 2.495733 1_555
Si13 Si14 2.542217 1_445
Si14 Si16 2.469584 1_555
Si14 Si15 2.589669 1_555
Si15 Si16 2.453562 1_555
Si16 Si9 2.484594 1_565
Ru4 Si9 2.402956 1_555
Ru5 Si10 2.394638 1_545
Ru6 Si11 2.396522 1_655
Ru7 Si12 2.395810 1_555
Ru8 Si13 2.391366 1_555
Ru9 Si14 2.396521 1_555
Ru10 Si15 2.386295 1_555
Ru11 Si16 2.405793 1_555
