# generated using pymatgen
data_Ba(AgO)2
_symmetry_space_group_name_H-M   'P 1'
_cell_length_a   6.84897720
_cell_length_b   6.84897720
_cell_length_c   6.84897720
_cell_angle_alpha   129.30366060
_cell_angle_beta   129.30366060
_cell_angle_gamma   74.52245930
_symmetry_Int_Tables_number   1
_chemical_formula_structural   Ba(AgO)2
_chemical_formula_sum   'Ba2 Ag4 O4'
_cell_volume   187.46194929
_cell_formula_units_Z   2
loop_
 _symmetry_equiv_pos_site_id
 _symmetry_equiv_pos_as_xyz
  1  'x, y, z'
loop_
 _atom_site_type_symbol
 _atom_site_label
 _atom_site_symmetry_multiplicity
 _atom_site_fract_x
 _atom_site_fract_y
 _atom_site_fract_z
 _atom_site_occupancy
  Ba  Ba0  1  0.50000000  0.50000000  -0.00000000  1
  Ba  Ba1  1  0.25000000  0.75000000  0.50000000  1
  Ag  Ag0  1  0.37500000  0.12500000  0.25000000  1
  Ag  Ag1  1  0.87500000  0.12500000  0.25000000  1
  Ag  Ag2  1  0.87500000  0.62500000  0.75000000  1
  Ag  Ag3  1  0.87500000  0.12500000  0.75000000  1
  O  O0  1  0.00981408  0.50981408  0.50000000  1
  O  O1  1  0.25981408  0.25981408  0.00000000  1
  O  O2  1  0.74018592  0.74018592  -0.00000000  1
  O  O3  1  0.49018592  0.99018592  0.50000000  1
loop_
_geom_bond_atom_site_label_1
_geom_bond_atom_site_label_2
_geom_bond_distance
_geom_bond_site_symmetry_2
Ba0 O1 2.618501 1_555
Ba0 O2 2.618501 1_555
Ba0 O3 2.934120 1_555
Ba0 O0 2.934120 1_655
Ba0 O0 2.934120 1_554
Ba0 O3 2.934120 1_544
Ba1 O0 2.618501 1_555
Ba1 O3 2.618501 1_555
Ba1 O2 2.934120 1_556
Ba1 O1 2.934120 1_555
Ba1 O1 2.934120 1_566
Ba1 O2 2.934120 1_455
Ag0 O1 2.075943 1_555
Ag0 O3 2.075943 1_545
Ag1 O0 2.075943 1_655
Ag1 O2 2.075943 1_545
Ag2 O0 2.075943 1_655
Ag2 O2 2.075943 1_556
Ag3 O1 2.075943 1_656
Ag3 O3 2.075943 1_545
