# generated using pymatgen
data_In2Bi3Se7I
_symmetry_space_group_name_H-M   'P 1'
_cell_length_a   4.20490200
_cell_length_b   13.71167900
_cell_length_c   27.32682100
_cell_angle_alpha   90.00000000
_cell_angle_beta   90.00000000
_cell_angle_gamma   90.00000000
_symmetry_Int_Tables_number   1
_chemical_formula_structural   In2Bi3Se7I
_chemical_formula_sum   'In8 Bi12 Se28 I4'
_cell_volume   1575.56247282
_cell_formula_units_Z   4
loop_
 _symmetry_equiv_pos_site_id
 _symmetry_equiv_pos_as_xyz
  1  'x, y, z'
loop_
 _atom_site_type_symbol
 _atom_site_label
 _atom_site_symmetry_multiplicity
 _atom_site_fract_x
 _atom_site_fract_y
 _atom_site_fract_z
 _atom_site_occupancy
  In  In0  1  0.25000000  0.91568900  0.53377400  1
  In  In1  1  0.25000000  0.58431100  0.03377400  1
  In  In2  1  0.75000000  0.08431100  0.46622600  1
  In  In3  1  0.75000000  0.41568900  0.96622600  1
  In  In4  1  0.25000000  0.95852800  0.94729900  1
  In  In5  1  0.25000000  0.54147200  0.44729900  1
  In  In6  1  0.75000000  0.04147200  0.05270100  1
  In  In7  1  0.75000000  0.45852800  0.55270100  1
  Bi  Bi0  1  0.25000000  0.07420700  0.68596100  1
  Bi  Bi1  1  0.25000000  0.42579300  0.18596100  1
  Bi  Bi2  1  0.75000000  0.92579300  0.31403900  1
  Bi  Bi3  1  0.75000000  0.57420700  0.81403900  1
  Bi  Bi4  1  0.25000000  0.44942500  0.69203800  1
  Bi  Bi5  1  0.25000000  0.05057500  0.19203800  1
  Bi  Bi6  1  0.75000000  0.55057500  0.30796200  1
  Bi  Bi7  1  0.75000000  0.94942500  0.80796200  1
  Bi  Bi8  1  0.25000000  0.29661400  0.84366300  1
  Bi  Bi9  1  0.25000000  0.20338600  0.34366300  1
  Bi  Bi10  1  0.75000000  0.70338600  0.15633700  1
  Bi  Bi11  1  0.75000000  0.79661400  0.65633700  1
  Se  Se0  1  0.25000000  0.37905800  0.50977600  1
  Se  Se1  1  0.25000000  0.12094200  0.00977600  1
  Se  Se2  1  0.75000000  0.62094200  0.49022400  1
  Se  Se3  1  0.75000000  0.87905800  0.99022400  1
  Se  Se4  1  0.25000000  0.11044000  0.52713400  1
  Se  Se5  1  0.25000000  0.38956000  0.02713400  1
  Se  Se6  1  0.75000000  0.88956000  0.47286600  1
  Se  Se7  1  0.75000000  0.61044000  0.97286600  1
  Se  Se8  1  0.25000000  0.75390700  0.58798100  1
  Se  Se9  1  0.25000000  0.74609300  0.08798100  1
  Se  Se10  1  0.75000000  0.24609300  0.41201900  1
  Se  Se11  1  0.75000000  0.25390700  0.91201900  1
  Se  Se12  1  0.25000000  0.89169300  0.73125400  1
  Se  Se13  1  0.25000000  0.60830700  0.23125400  1
  Se  Se14  1  0.75000000  0.10830700  0.26874600  1
  Se  Se15  1  0.75000000  0.39169300  0.76874600  1
  Se  Se16  1  0.25000000  0.62556800  0.74204800  1
  Se  Se17  1  0.25000000  0.87443200  0.24204800  1
  Se  Se18  1  0.75000000  0.37443200  0.25795200  1
  Se  Se19  1  0.75000000  0.12556800  0.75795200  1
  Se  Se20  1  0.25000000  0.04975100  0.86320500  1
  Se  Se21  1  0.25000000  0.45024900  0.36320500  1
  Se  Se22  1  0.75000000  0.95024900  0.13679500  1
  Se  Se23  1  0.75000000  0.54975100  0.63679500  1
  Se  Se24  1  0.25000000  0.48366300  0.87859500  1
  Se  Se25  1  0.25000000  0.01633700  0.37859500  1
  Se  Se26  1  0.75000000  0.51633700  0.12140500  1
  Se  Se27  1  0.75000000  0.98366300  0.62140500  1
  I  I0  1  0.25000000  0.76649200  0.86612200  1
  I  I1  1  0.25000000  0.73350800  0.36612200  1
  I  I2  1  0.75000000  0.23350800  0.13387800  1
  I  I3  1  0.75000000  0.26649200  0.63387800  1
loop_
_geom_bond_atom_site_label_1
_geom_bond_atom_site_label_2
_geom_bond_distance
_geom_bond_site_symmetry_2
In0 Se8 2.667420 1_555
In0 Se4 2.676521 1_565
In0 Se6 2.705358 1_455
In0 Se6 2.705358 1_555
In0 Se27 3.320161 1_555
In0 Se27 3.320161 1_455
In1 Se9 2.667420 1_555
In1 Se5 2.676521 1_555
In1 Se7 2.705358 1_554
In1 Se7 2.705358 1_454
In1 Se26 3.320161 1_455
In1 Se26 3.320161 1_555
In2 Se10 2.667420 1_555
In2 Se6 2.676521 1_545
In2 Se4 2.705358 1_555
In2 Se4 2.705358 1_655
In2 Se25 3.320161 1_555
In2 Se25 3.320161 1_655
In3 Se11 2.667420 1_555
In3 Se7 2.676521 1_555
In3 Se5 2.705358 1_556
In3 Se5 2.705358 1_656
In3 Se24 3.320161 1_555
In3 Se24 3.320161 1_655
In4 Se20 2.616382 1_565
In4 Se3 2.642653 1_555
In4 Se3 2.642653 1_455
In4 Se1 2.806110 1_566
In5 Se21 2.616382 1_555
In5 Se2 2.642653 1_455
In5 Se2 2.642653 1_555
In5 Se0 2.806110 1_555
In6 Se22 2.616382 1_545
In6 Se1 2.642653 1_555
In6 Se1 2.642653 1_655
In6 Se3 2.806110 1_544
In7 Se23 2.616382 1_555
In7 Se0 2.642653 1_655
In7 Se0 2.642653 1_555
In7 Se2 2.806110 1_555
Bi0 Se12 2.791918 1_545
Bi0 Se19 2.964199 1_555
Bi0 Se19 2.964199 1_455
Bi0 Se27 3.012264 1_445
Bi0 Se27 3.012264 1_545
Bi1 Se13 2.791918 1_555
Bi1 Se18 2.964199 1_555
Bi1 Se18 2.964199 1_455
Bi1 Se26 3.012264 1_455
Bi1 Se26 3.012264 1_555
Bi2 Se14 2.791918 1_565
Bi2 Se17 2.964199 1_655
Bi2 Se17 2.964199 1_555
Bi2 Se25 3.012264 1_565
Bi2 Se25 3.012264 1_665
Bi3 Se15 2.791918 1_555
Bi3 Se16 2.964199 1_655
Bi3 Se16 2.964199 1_555
Bi3 Se24 3.012264 1_555
Bi3 Se24 3.012264 1_655
Bi4 Se16 2.775050 1_555
Bi4 Se23 2.931146 1_555
Bi4 Se23 2.931146 1_455
Bi4 Se15 3.072610 1_455
Bi4 Se15 3.072610 1_555
Bi5 Se17 2.775050 1_545
Bi5 Se22 2.931146 1_445
Bi5 Se22 2.931146 1_545
Bi5 Se14 3.072610 1_455
Bi5 Se14 3.072610 1_555
Bi6 Se18 2.775050 1_555
Bi6 Se21 2.931146 1_655
Bi6 Se21 2.931146 1_555
Bi6 Se13 3.072610 1_555
Bi6 Se13 3.072610 1_655
Bi7 Se19 2.775050 1_565
Bi7 Se20 2.931146 1_565
Bi7 Se20 2.931146 1_665
Bi7 Se12 3.072610 1_555
Bi7 Se12 3.072610 1_655
Bi8 Se24 2.736640 1_555
Bi8 Se11 2.872709 1_455
Bi8 Se11 2.872709 1_555
Bi8 Se15 3.211093 1_455
Bi8 Se15 3.211093 1_555
Bi9 Se25 2.736640 1_555
Bi9 Se10 2.872709 1_455
Bi9 Se10 2.872709 1_555
Bi9 Se14 3.211093 1_555
Bi9 Se14 3.211093 1_455
Bi10 Se26 2.736640 1_555
Bi10 Se9 2.872709 1_655
Bi10 Se9 2.872709 1_555
Bi10 Se13 3.211093 1_555
Bi10 Se13 3.211093 1_655
Bi11 Se27 2.736640 1_555
Bi11 Se8 2.872709 1_555
Bi11 Se8 2.872709 1_655
Bi11 Se12 3.211093 1_555
Bi11 Se12 3.211093 1_655
I0 In4 3.443008 1_555
I1 In5 3.443008 1_555
I2 In6 3.443008 1_555
I3 In7 3.443008 1_555
