# generated using pymatgen
data_Sc4C3
_symmetry_space_group_name_H-M   'P 1'
_cell_length_a   6.24784940
_cell_length_b   6.24784995
_cell_length_c   6.24784912
_cell_angle_alpha   109.47121454
_cell_angle_beta   109.47121638
_cell_angle_gamma   109.47122788
_symmetry_Int_Tables_number   1
_chemical_formula_structural   Sc4C3
_chemical_formula_sum   'Sc8 C6'
_cell_volume   187.74561495
_cell_formula_units_Z   2
loop_
 _symmetry_equiv_pos_site_id
 _symmetry_equiv_pos_as_xyz
  1  'x, y, z'
loop_
 _atom_site_type_symbol
 _atom_site_label
 _atom_site_symmetry_multiplicity
 _atom_site_fract_x
 _atom_site_fract_y
 _atom_site_fract_z
 _atom_site_occupancy
  Sc  Sc0  1  0.40113149  0.50000000  -0.00000000  1
  Sc  Sc1  1  0.59886851  0.59886851  0.59886851  1
  Sc  Sc2  1  0.50000000  -0.00000000  0.40113149  1
  Sc  Sc3  1  0.00000000  0.40113149  0.50000000  1
  Sc  Sc4  1  0.50000000  -0.00000000  0.90113149  1
  Sc  Sc5  1  0.00000000  0.90113149  0.50000000  1
  Sc  Sc6  1  0.90113149  0.50000000  -0.00000000  1
  Sc  Sc7  1  0.09886851  0.09886851  0.09886851  1
  C  C0  1  0.75000000  0.87500000  0.12500000  1
  C  C1  1  0.62500000  0.37500000  0.25000000  1
  C  C2  1  0.87500000  0.12500000  0.75000000  1
  C  C3  1  0.12500000  0.75000000  0.87500000  1
  C  C4  1  0.37500000  0.25000000  0.62500000  1
  C  C5  1  0.25000000  0.62500000  0.37500000  1
loop_
_geom_bond_atom_site_label_1
_geom_bond_atom_site_label_2
_geom_bond_distance
_geom_bond_site_symmetry_2
C0 Sc7 2.256328 1_665
C0 Sc0 2.256328 1_555
C0 Sc5 2.256328 1_655
C0 Sc4 2.256328 1_564
C0 Sc2 2.781647 1_565
C0 Sc1 2.781647 1_554
C0 Sc6 2.781647 1_555
C0 Sc3 2.781647 1_665
C1 Sc3 2.256328 1_655
C1 Sc0 2.256328 1_555
C1 Sc1 2.256328 1_555
C1 Sc4 2.256328 1_554
C1 Sc6 2.781647 1_555
C1 Sc7 2.781647 1_555
C1 Sc2 2.781647 1_555
C1 Sc5 2.781647 1_655
C2 Sc7 2.256328 1_656
C2 Sc2 2.256328 1_555
C2 Sc5 2.256328 1_645
C2 Sc6 2.256328 1_556
C2 Sc4 2.781647 1_555
C2 Sc3 2.781647 1_655
C2 Sc0 2.781647 1_656
C2 Sc1 2.781647 1_545
C3 Sc6 2.256328 1_456
C3 Sc4 2.256328 1_565
C3 Sc3 2.256328 1_555
C3 Sc7 2.256328 1_566
C3 Sc5 2.781647 1_555
C3 Sc1 2.781647 1_455
C3 Sc2 2.781647 1_566
C3 Sc0 2.781647 1_556
C4 Sc1 2.256328 1_555
C4 Sc5 2.256328 1_545
C4 Sc0 2.256328 1_556
C4 Sc2 2.256328 1_555
C4 Sc7 2.781647 1_555
C4 Sc4 2.781647 1_555
C4 Sc6 2.781647 1_556
C4 Sc3 2.781647 1_555
C5 Sc3 2.256328 1_555
C5 Sc2 2.256328 1_565
C5 Sc6 2.256328 1_455
C5 Sc1 2.256328 1_555
C5 Sc0 2.781647 1_555
C5 Sc4 2.781647 1_565
C5 Sc5 2.781647 1_555
C5 Sc7 2.781647 1_555
