# generated using pymatgen
data_Li2H10C8O7F18
_symmetry_space_group_name_H-M   'P 1'
_cell_length_a   7.48262797
_cell_length_b   12.12645211
_cell_length_c   23.24598909
_cell_angle_alpha   90.00000000
_cell_angle_beta   90.00000000
_cell_angle_gamma   92.85284265
_symmetry_Int_Tables_number   1
_chemical_formula_structural   Li2H10C8O7F18
_chemical_formula_sum   'Li8 H40 C32 O28 F72'
_cell_volume   2106.67414864
_cell_formula_units_Z   4
loop_
 _symmetry_equiv_pos_site_id
 _symmetry_equiv_pos_as_xyz
  1  'x, y, z'
loop_
 _atom_site_type_symbol
 _atom_site_label
 _atom_site_symmetry_multiplicity
 _atom_site_fract_x
 _atom_site_fract_y
 _atom_site_fract_z
 _atom_site_occupancy
  Li  Li0  1  0.82841031  0.42106386  0.92342592  1
  Li  Li1  1  0.17158969  0.07893614  0.42342592  1
  Li  Li2  1  0.17158969  0.57893614  0.07657408  1
  Li  Li3  1  0.82841031  0.92106386  0.57657408  1
  Li  Li4  1  0.66335038  0.37058149  0.05250119  1
  Li  Li5  1  0.33664962  0.12941851  0.55250119  1
  Li  Li6  1  0.33664962  0.62941851  0.94749881  1
  Li  Li7  1  0.66335038  0.87058149  0.44749881  1
  H  H0  1  0.49137911  0.51852030  0.11580470  1
  H  H1  1  0.50862089  0.98147970  0.61580470  1
  H  H2  1  0.50862089  0.48147970  0.88419530  1
  H  H3  1  0.49137911  0.01852030  0.38419530  1
  H  H4  1  0.02247275  0.60304938  0.89485205  1
  H  H5  1  0.97752725  0.89695062  0.39485205  1
  H  H6  1  0.97752725  0.39695062  0.10514795  1
  H  H7  1  0.02247275  0.10304938  0.60514795  1
  H  H8  1  0.04834677  0.51372125  0.84654132  1
  H  H9  1  0.95165323  0.98627875  0.34654132  1
  H  H10  1  0.95165323  0.48627875  0.15345868  1
  H  H11  1  0.04834677  0.01372125  0.65345868  1
  H  H12  1  0.44420392  0.39861850  0.13753465  1
  H  H13  1  0.55579608  0.10138150  0.63753465  1
  H  H14  1  0.55579608  0.60138150  0.86246535  1
  H  H15  1  0.44420392  0.89861850  0.36246535  1
  H  H16  1  0.96573870  0.30463971  0.00346944  1
  H  H17  1  0.03426130  0.19536029  0.50346944  1
  H  H18  1  0.03426130  0.69536029  0.99653056  1
  H  H19  1  0.96573870  0.80463971  0.49653056  1
  H  H20  1  0.52294105  0.31689682  0.95365778  1
  H  H21  1  0.47705895  0.18310318  0.45365778  1
  H  H22  1  0.47705895  0.68310318  0.04634222  1
  H  H23  1  0.52294105  0.81689682  0.54634222  1
  H  H24  1  0.43336724  0.23659643  0.00085646  1
  H  H25  1  0.56663276  0.26340357  0.50085646  1
  H  H26  1  0.56663276  0.76340357  0.99914354  1
  H  H27  1  0.43336724  0.73659643  0.49914354  1
  H  H28  1  0.06766553  0.27897890  0.94451672  1
  H  H29  1  0.93233447  0.22102110  0.44451672  1
  H  H30  1  0.93233447  0.72102110  0.05548328  1
  H  H31  1  0.06766553  0.77897890  0.55548328  1
  H  H32  1  0.65675202  0.55609715  0.98839440  1
  H  H33  1  0.34324798  0.94390285  0.48839440  1
  H  H34  1  0.34324798  0.44390285  0.01160560  1
  H  H35  1  0.65675202  0.05609715  0.51160560  1
  H  H36  1  0.84081018  0.55098813  0.01620815  1
  H  H37  1  0.15918982  0.94901187  0.51620815  1
  H  H38  1  0.15918982  0.44901187  0.98379185  1
  H  H39  1  0.84081018  0.05098813  0.48379185  1
  C  C0  1  0.58329287  0.28496420  0.84391356  1
  C  C1  1  0.41670713  0.21503580  0.34391356  1
  C  C2  1  0.41670713  0.71503580  0.15608644  1
  C  C3  1  0.58329287  0.78496420  0.65608644  1
  C  C4  1  0.67583606  0.33748511  0.78870951  1
  C  C5  1  0.32416394  0.16251489  0.28870951  1
  C  C6  1  0.32416394  0.66251489  0.21129049  1
  C  C7  1  0.67583606  0.83748511  0.71129049  1
  C  C8  1  0.37697376  0.26364009  0.83131862  1
  C  C9  1  0.62302624  0.23635991  0.33131862  1
  C  C10  1  0.62302624  0.73635991  0.16868138  1
  C  C11  1  0.37697376  0.76364009  0.66868138  1
  C  C12  1  0.66737579  0.17056566  0.85584993  1
  C  C13  1  0.33262421  0.32943434  0.35584993  1
  C  C14  1  0.33262421  0.82943434  0.14415007  1
  C  C15  1  0.66737579  0.67056566  0.64415007  1
  C  C16  1  0.89168470  0.18379977  0.09280304  1
  C  C17  1  0.10831530  0.31620023  0.59280304  1
  C  C18  1  0.10831530  0.81620023  0.90719696  1
  C  C19  1  0.89168470  0.68379977  0.40719696  1
  C  C20  1  0.79640911  0.08996791  0.05519600  1
  C  C21  1  0.20359089  0.41003209  0.55519600  1
  C  C22  1  0.20359089  0.91003209  0.94480400  1
  C  C23  1  0.79640911  0.58996791  0.44480400  1
  C  C24  1  0.80300624  0.18000077  0.15436444  1
  C  C25  1  0.19699376  0.31999923  0.65436444  1
  C  C26  1  0.19699376  0.81999923  0.84563556  1
  C  C27  1  0.80300624  0.68000077  0.34563556  1
  C  C28  1  0.09585556  0.15868853  0.09932683  1
  C  C29  1  0.90414444  0.34131147  0.59932683  1
  C  C30  1  0.90414444  0.84131147  0.90067317  1
  C  C31  1  0.09585556  0.65868853  0.40067317  1
  O  O0  1  0.60670833  0.35399915  0.88990141  1
  O  O1  1  0.39329167  0.14600085  0.38990141  1
  O  O2  1  0.39329167  0.64600085  0.11009859  1
  O  O3  1  0.60670833  0.85399915  0.61009859  1
  O  O4  1  0.87627376  0.28475284  0.06798159  1
  O  O5  1  0.12372624  0.21524716  0.56798159  1
  O  O6  1  0.12372624  0.71524716  0.93201841  1
  O  O7  1  0.87627376  0.78475284  0.43201841  1
  O  O8  1  0.01256606  0.33754090  0.96596534  1
  O  O9  1  0.98743394  0.16245910  0.46596534  1
  O  O10  1  0.98743394  0.66245910  0.03403466  1
  O  O11  1  0.01256606  0.83754090  0.53403466  1
  O  O12  1  0.98032794  0.52819854  0.88104490  1
  O  O13  1  0.01967206  0.97180146  0.38104490  1
  O  O14  1  0.01967206  0.47180146  0.11895510  1
  O  O15  1  0.98032794  0.02819854  0.61895510  1
  O  O16  1  0.52427609  0.44014420  0.11164056  1
  O  O17  1  0.47572391  0.05985580  0.61164056  1
  O  O18  1  0.47572391  0.55985580  0.88835944  1
  O  O19  1  0.52427609  0.94014420  0.38835944  1
  O  O20  1  0.48735155  0.31068948  0.99554655  1
  O  O21  1  0.51264845  0.18931052  0.49554655  1
  O  O22  1  0.51264845  0.68931052  0.00445345  1
  O  O23  1  0.48735155  0.81068948  0.50445345  1
  O  O24  1  0.74600383  0.50179188  0.99774241  1
  O  O25  1  0.25399617  0.99820812  0.49774241  1
  O  O26  1  0.25399617  0.49820812  0.00225759  1
  O  O27  1  0.74600383  0.00179188  0.50225759  1
  F  F0  1  0.85757668  0.34200546  0.79457583  1
  F  F1  1  0.14242332  0.15799454  0.29457583  1
  F  F2  1  0.14242332  0.65799454  0.20542417  1
  F  F3  1  0.85757668  0.84200546  0.70542417  1
  F  F4  1  0.63541416  0.28096055  0.73962455  1
  F  F5  1  0.36458584  0.21903945  0.23962455  1
  F  F6  1  0.36458584  0.71903945  0.26037545  1
  F  F7  1  0.63541416  0.78096055  0.76037545  1
  F  F8  1  0.62670321  0.44274405  0.78145304  1
  F  F9  1  0.37329679  0.05725595  0.28145304  1
  F  F10  1  0.37329679  0.55725595  0.21854696  1
  F  F11  1  0.62670321  0.94274405  0.71854696  1
  F  F12  1  0.30447415  0.35726740  0.81164381  1
  F  F13  1  0.69552585  0.14273260  0.31164381  1
  F  F14  1  0.69552585  0.64273260  0.18835619  1
  F  F15  1  0.30447415  0.85726740  0.68835619  1
  F  F16  1  0.33792332  0.18217638  0.79292746  1
  F  F17  1  0.66207668  0.31782362  0.29292746  1
  F  F18  1  0.66207668  0.81782362  0.20707254  1
  F  F19  1  0.33792332  0.68217638  0.70707254  1
  F  F20  1  0.28912102  0.23604253  0.88140707  1
  F  F21  1  0.71087898  0.26395747  0.38140707  1
  F  F22  1  0.71087898  0.76395747  0.11859293  1
  F  F23  1  0.28912102  0.73604253  0.61859293  1
  F  F24  1  0.84019975  0.18640292  0.87367851  1
  F  F25  1  0.15980025  0.31359708  0.37367851  1
  F  F26  1  0.15980025  0.81359708  0.12632149  1
  F  F27  1  0.84019975  0.68640292  0.62632149  1
  F  F28  1  0.66744526  0.10297386  0.80942914  1
  F  F29  1  0.33255474  0.39702614  0.30942914  1
  F  F30  1  0.33255474  0.89702614  0.19057086  1
  F  F31  1  0.66744526  0.60297386  0.69057086  1
  F  F32  1  0.57601606  0.11643567  0.89885652  1
  F  F33  1  0.42398394  0.38356433  0.39885652  1
  F  F34  1  0.42398394  0.88356433  0.10114348  1
  F  F35  1  0.57601606  0.61643567  0.60114348  1
  F  F36  1  0.83872081  0.98675472  0.07129794  1
  F  F37  1  0.16127919  0.51324528  0.57129794  1
  F  F38  1  0.16127919  0.01324528  0.92870206  1
  F  F39  1  0.83872081  0.48675472  0.42870206  1
  F  F40  1  0.61466487  0.09429513  0.05831509  1
  F  F41  1  0.38533513  0.40570487  0.55831509  1
  F  F42  1  0.38533513  0.90570487  0.94168491  1
  F  F43  1  0.61466487  0.59429513  0.44168491  1
  F  F44  1  0.84165165  0.10339603  0.99903530  1
  F  F45  1  0.15834835  0.39660397  0.49903530  1
  F  F46  1  0.15834835  0.89660397  0.00096470  1
  F  F47  1  0.84165165  0.60339603  0.50096470  1
  F  F48  1  0.78554479  0.07703038  0.17722589  1
  F  F49  1  0.21445521  0.42296962  0.67722589  1
  F  F50  1  0.21445521  0.92296962  0.82277411  1
  F  F51  1  0.78554479  0.57703038  0.32277411  1
  F  F52  1  0.90092351  0.24482318  0.19171210  1
  F  F53  1  0.09907649  0.25517682  0.69171210  1
  F  F54  1  0.09907649  0.75517682  0.80828790  1
  F  F55  1  0.90092351  0.74482318  0.30828790  1
  F  F56  1  0.63685779  0.22047829  0.15165074  1
  F  F57  1  0.36314221  0.27952171  0.65165074  1
  F  F58  1  0.36314221  0.77952171  0.84834926  1
  F  F59  1  0.63685779  0.72047829  0.34834926  1
  F  F60  1  0.12731659  0.07176843  0.13365838  1
  F  F61  1  0.87268341  0.42823157  0.63365838  1
  F  F62  1  0.87268341  0.92823157  0.86634162  1
  F  F63  1  0.12731659  0.57176843  0.36634162  1
  F  F64  1  0.18880837  0.24858733  0.12092024  1
  F  F65  1  0.81119163  0.25141267  0.62092024  1
  F  F66  1  0.81119163  0.75141267  0.87907976  1
  F  F67  1  0.18880837  0.74858733  0.37907976  1
  F  F68  1  0.16881330  0.13843919  0.04648043  1
  F  F69  1  0.83118670  0.36156081  0.54648043  1
  F  F70  1  0.83118670  0.86156081  0.95351957  1
  F  F71  1  0.16881330  0.63843919  0.45351957  1
loop_
_geom_bond_atom_site_label_1
_geom_bond_atom_site_label_2
_geom_bond_distance
_geom_bond_site_symmetry_2
Li0 O12 1.950283 1_555
Li0 O0 1.971398 1_555
Li0 O8 2.010331 1_655
Li0 O24 2.093586 1_555
Li1 O13 1.950283 1_545
Li1 O1 1.971398 1_555
Li1 O9 2.010331 1_455
Li1 O25 2.093586 1_545
Li2 O14 1.950283 1_555
Li2 O2 1.971398 1_555
Li2 O10 2.010331 1_455
Li2 O26 2.093586 1_555
Li3 O15 1.950283 1_565
Li3 O3 1.971398 1_555
Li3 O11 2.010331 1_655
Li3 O27 2.093586 1_565
Li4 O16 1.942122 1_555
Li4 O4 1.978936 1_555
Li4 O20 1.979766 1_554
Li4 O24 2.106306 1_554
Li5 O17 1.942122 1_555
Li5 O5 1.978936 1_555
Li5 O21 1.979766 1_555
Li5 O25 2.106306 1_545
Li6 O18 1.942122 1_555
Li6 O6 1.978936 1_555
Li6 O22 1.979766 1_556
Li6 O26 2.106306 1_556
Li7 O19 1.942122 1_555
Li7 O7 1.978936 1_555
Li7 O23 1.979766 1_555
Li7 O27 2.106306 1_565
H0 O16 0.998277 1_555
H0 O2 1.748996 1_555
H1 O17 0.998277 1_565
H1 O3 1.748996 1_555
H2 O18 0.998277 1_555
H2 O0 1.748996 1_555
H3 O19 0.998277 1_545
H3 O1 1.748996 1_555
H4 O12 0.998922 1_455
H4 O6 1.751851 1_555
H5 O13 0.998922 1_655
H5 O7 1.751851 1_555
H6 O14 0.998922 1_655
H6 O4 1.751851 1_555
H7 O15 0.998922 1_455
H7 O5 1.751851 1_555
H8 O12 0.970603 1_455
H9 O13 0.970603 1_655
H10 O14 0.970603 1_655
H11 O15 0.970603 1_455
H12 O16 0.972031 1_555
H13 O17 0.972031 1_555
H14 O18 0.972031 1_555
H15 O19 0.972031 1_555
H16 O8 1.013957 1_654
H16 O4 1.655045 1_555
H17 O9 1.013957 1_455
H17 O5 1.655045 1_555
H18 O10 1.013957 1_456
H18 O6 1.655045 1_555
H19 O11 1.013957 1_655
H19 O7 1.655045 1_555
H20 O20 1.011320 1_555
H20 O0 1.662466 1_555
H21 O21 1.011320 1_555
H21 O1 1.662466 1_555
H22 O22 1.011320 1_555
H22 O2 1.662466 1_555
H23 O23 1.011320 1_555
H23 O3 1.662466 1_555
H24 O20 0.974452 1_554
H25 O21 0.974452 1_555
H26 O22 0.974452 1_556
H27 O23 0.974452 1_555
H28 O8 0.975723 1_555
H29 O9 0.975723 1_555
H30 O10 0.975723 1_555
H31 O11 0.975723 1_555
H32 O24 0.985225 1_555
H33 O25 0.985225 1_555
H34 O26 0.985225 1_555
H35 O27 0.985225 1_555
H36 O24 1.000642 1_554
H37 O25 1.000642 1_555
H38 O26 1.000642 1_556
H39 O27 1.000642 1_555
C0 O0 1.363726 1_555
C1 O1 1.363726 1_555
C2 O2 1.363726 1_555
C3 O3 1.363726 1_555
C4 F8 1.356307 1_555
C4 F4 1.357433 1_555
C4 F0 1.365101 1_555
C5 F9 1.356307 1_555
C5 F5 1.357433 1_555
C5 F1 1.365101 1_555
C6 F10 1.356307 1_555
C6 F6 1.357433 1_555
C6 F2 1.365101 1_555
C7 F11 1.356307 1_555
C7 F7 1.357433 1_555
C7 F3 1.365101 1_555
C8 F16 1.352397 1_555
C8 F12 1.361558 1_555
C8 F20 1.370386 1_555
C9 F17 1.352397 1_555
C9 F13 1.361558 1_555
C9 F21 1.370386 1_555
C10 F18 1.352397 1_555
C10 F14 1.361558 1_555
C10 F22 1.370386 1_555
C11 F19 1.352397 1_555
C11 F15 1.361558 1_555
C11 F23 1.370386 1_555
C12 F28 1.355108 1_555
C12 F32 1.361244 1_555
C12 F24 1.362436 1_555
C13 F29 1.355108 1_555
C13 F33 1.361244 1_555
C13 F25 1.362436 1_555
C14 F30 1.355108 1_555
C14 F34 1.361244 1_555
C14 F26 1.362436 1_555
C15 F31 1.355108 1_555
C15 F35 1.361244 1_555
C15 F27 1.362436 1_555
C16 O4 1.363433 1_555
C17 O5 1.363433 1_555
C18 O6 1.363433 1_555
C19 O7 1.363433 1_555
C20 F44 1.356463 1_554
C20 F36 1.358791 1_545
C20 F40 1.365470 1_555
C21 F45 1.356463 1_555
C21 F37 1.358791 1_555
C21 F41 1.365470 1_555
C22 F46 1.356463 1_556
C22 F38 1.358791 1_565
C22 F42 1.365470 1_555
C23 F47 1.356463 1_555
C23 F39 1.358791 1_555
C23 F43 1.365470 1_555
C24 F48 1.357359 1_555
C24 F52 1.360562 1_555
C24 F56 1.360614 1_555
C25 F49 1.357359 1_555
C25 F53 1.360562 1_555
C25 F57 1.360614 1_555
C26 F50 1.357359 1_555
C26 F54 1.360562 1_555
C26 F58 1.360614 1_555
C27 F51 1.357359 1_555
C27 F55 1.360562 1_555
C27 F59 1.360614 1_555
C28 F60 1.352043 1_555
C28 F64 1.359664 1_555
C28 F68 1.371421 1_555
C29 F61 1.352043 1_555
C29 F65 1.359664 1_555
C29 F69 1.371421 1_555
C30 F62 1.352043 1_555
C30 F66 1.359664 1_555
C30 F70 1.371421 1_555
C31 F63 1.352043 1_555
C31 F67 1.359664 1_555
C31 F71 1.371421 1_555
