# generated using pymatgen
data_LaIn6Ni7
_symmetry_space_group_name_H-M   'P 1'
_cell_length_a   8.82938750
_cell_length_b   8.82938750
_cell_length_c   8.82938750
_cell_angle_alpha   125.52724264
_cell_angle_beta   115.76465159
_cell_angle_gamma   89.09666316
_symmetry_Int_Tables_number   1
_chemical_formula_structural   LaIn6Ni7
_chemical_formula_sum   'La2 In12 Ni14'
_cell_volume   477.43331589
_cell_formula_units_Z   2
loop_
 _symmetry_equiv_pos_site_id
 _symmetry_equiv_pos_as_xyz
  1  'x, y, z'
loop_
 _atom_site_type_symbol
 _atom_site_label
 _atom_site_symmetry_multiplicity
 _atom_site_fract_x
 _atom_site_fract_y
 _atom_site_fract_z
 _atom_site_occupancy
  La  La0  1  0.25000000  0.75000000  0.50000000  1
  La  La1  1  0.75000000  0.25000000  0.50000000  1
  In  In0  1  0.55348500  0.53354100  0.36533100  1
  In  In1  1  0.44651500  0.46645900  0.63466900  1
  In  In2  1  0.16821000  0.18815400  0.63466900  1
  In  In3  1  0.33179000  0.96645900  0.01994400  1
  In  In4  1  0.83179000  0.81184600  0.36533100  1
  In  In5  1  0.66821000  0.03354100  0.98005600  1
  In  In6  1  0.94651500  0.31184600  0.98005600  1
  In  In7  1  0.05348500  0.68815400  0.01994400  1
  In  In8  1  0.04439000  0.32383900  0.36822900  1
  In  In9  1  0.95561000  0.67616100  0.63177100  1
  In  In10  1  0.54439000  0.17616100  0.72055000  1
  In  In11  1  0.45561000  0.82383900  0.27945000  1
  Ni  Ni0  1  0.25906700  0.29779500  0.21380800  1
  Ni  Ni1  1  0.74093300  0.70220500  0.78619200  1
  Ni  Ni2  1  0.08398700  0.04525900  0.78619200  1
  Ni  Ni3  1  0.41601300  0.20220500  0.96127200  1
  Ni  Ni4  1  0.91601300  0.95474100  0.21380800  1
  Ni  Ni5  1  0.58398700  0.79779500  0.03872800  1
  Ni  Ni6  1  0.24093300  0.45474100  0.03872800  1
  Ni  Ni7  1  0.75906700  0.54525900  0.96127200  1
  Ni  Ni8  1  0.00000000  0.00000000  0.00000000  1
  Ni  Ni9  1  0.50000000  0.50000000  0.00000000  1
  Ni  Ni10  1  0.26112700  0.07462200  0.33575000  1
  Ni  Ni11  1  0.73887300  0.92537800  0.66425000  1
  Ni  Ni12  1  0.76112700  0.42537800  0.18650500  1
  Ni  Ni13  1  0.23887300  0.57462200  0.81349500  1
loop_
_geom_bond_atom_site_label_1
_geom_bond_atom_site_label_2
_geom_bond_distance
_geom_bond_site_symmetry_2
La0 Ni6 3.282320 1_555
La0 Ni3 3.282320 1_565
La0 Ni0 3.282320 1_555
La0 Ni2 3.282320 1_565
La1 Ni7 3.282320 1_555
La1 Ni4 3.282320 1_545
La1 Ni1 3.282320 1_555
La1 Ni5 3.282320 1_545
In0 Ni0 2.605926 1_555
In0 Ni3 2.641455 1_554
In0 Ni1 2.658014 1_555
In0 Ni6 2.688115 1_555
In0 Ni11 2.724961 1_555
In0 Ni12 2.734065 1_555
In0 Ni9 2.878451 1_555
In0 In9 3.027037 1_555
In0 In11 3.083961 1_555
In0 In1 3.241199 1_555
In0 La0 3.494860 1_555
In0 La1 3.495840 1_555
In1 Ni1 2.605926 1_555
In1 Ni5 2.641455 1_556
In1 Ni0 2.658014 1_555
In1 Ni7 2.688115 1_555
In1 Ni10 2.724961 1_555
In1 Ni13 2.734065 1_555
In1 Ni9 2.878451 1_556
In1 In8 3.027037 1_555
In1 In10 3.083961 1_555
In1 La1 3.494860 1_555
In1 La0 3.495840 1_555
In2 Ni2 2.605926 1_555
In2 Ni6 2.641455 1_556
In2 Ni4 2.658014 1_445
In2 Ni3 2.688115 1_555
In2 Ni10 2.724953 1_555
In2 Ni13 2.734065 1_555
In2 Ni9 2.878451 1_556
In2 In8 3.027037 1_555
In2 In4 3.241199 1_445
In2 La0 3.494860 1_545
In2 La1 3.495840 1_455
In3 Ni3 2.605926 1_564
In3 Ni0 2.641455 1_565
In3 Ni5 2.658014 1_555
In3 Ni2 2.688115 1_564
In3 Ni13 2.724961 1_554
In3 Ni10 2.734073 1_565
In3 Ni8 2.878451 1_565
In3 In9 3.083966 1_454
In3 In5 3.241199 1_564
In3 La0 3.494860 1_554
In3 La1 3.495840 1_565
In4 Ni4 2.605926 1_555
In4 Ni7 2.641455 1_554
In4 Ni2 2.658014 1_665
In4 Ni5 2.688115 1_555
In4 Ni11 2.724953 1_555
In4 Ni12 2.734065 1_555
In4 Ni9 2.878451 1_555
In4 In9 3.027037 1_555
In4 La1 3.494860 1_565
In4 La0 3.495840 1_655
In5 Ni5 2.605926 1_546
In5 Ni1 2.641455 1_545
In5 Ni3 2.658014 1_555
In5 Ni4 2.688115 1_546
In5 Ni12 2.724961 1_556
In5 Ni11 2.734073 1_545
In5 Ni8 2.878451 1_656
In5 In8 3.083966 1_656
In5 La1 3.494860 1_556
In5 La0 3.495840 1_545
In6 Ni6 2.605926 1_656
In6 Ni2 2.641455 1_655
In6 Ni7 2.658014 1_555
In6 Ni0 2.688115 1_656
In6 Ni12 2.724961 1_556
In6 Ni11 2.734065 1_545
In6 Ni8 2.878451 1_656
In6 In8 3.083966 1_656
In6 In7 3.241199 1_656
In6 La0 3.494860 1_656
In6 La1 3.495840 1_555
In7 Ni7 2.605926 1_454
In7 Ni4 2.641455 1_455
In7 Ni6 2.658014 1_555
In7 Ni1 2.688115 1_454
In7 Ni13 2.724961 1_554
In7 Ni10 2.734065 1_565
In7 Ni8 2.878451 1_565
In7 In9 3.083966 1_454
In7 La1 3.494860 1_454
In7 La0 3.495840 1_555
In8 Ni8 2.650163 1_555
In8 Ni0 2.715372 1_555
In8 Ni4 2.715372 1_445
In8 Ni13 2.727945 1_555
In8 Ni12 2.783134 1_455
In8 Ni10 2.863070 1_555
In8 In9 2.966870 1_455
In8 La1 3.478358 1_455
In8 La0 3.478358 1_555
In9 Ni8 2.650163 1_666
In9 Ni2 2.715372 1_665
In9 Ni1 2.715372 1_555
In9 Ni12 2.727945 1_555
In9 Ni13 2.783134 1_655
In9 Ni11 2.863070 1_555
In9 La0 3.478358 1_655
In9 La1 3.478358 1_555
In10 Ni9 2.650166 1_556
In10 Ni7 2.715370 1_555
In10 Ni3 2.715380 1_555
In10 Ni11 2.727945 1_545
In10 Ni10 2.783123 1_555
In10 Ni12 2.863076 1_556
In10 In11 2.966860 1_545
In10 In6 3.027038 1_555
In10 In5 3.027045 1_555
In10 In2 3.083968 1_555
In10 La1 3.478350 1_555
In10 La0 3.478361 1_545
In11 Ni9 2.650166 1_555
In11 Ni6 2.715370 1_555
In11 Ni5 2.715380 1_555
In11 Ni10 2.727945 1_565
In11 Ni11 2.783123 1_555
In11 Ni13 2.863076 1_554
In11 In7 3.027038 1_555
In11 In3 3.027045 1_555
In11 In4 3.083968 1_555
In11 La0 3.478350 1_555
In11 La1 3.478361 1_565
Ni0 Ni8 2.525159 1_555
Ni0 Ni6 2.569618 1_555
Ni0 Ni2 2.620548 1_554
Ni0 Ni10 2.736756 1_555
Ni0 Ni3 2.840158 1_554
Ni1 Ni8 2.525159 1_666
Ni1 Ni7 2.569618 1_555
Ni1 Ni4 2.620548 1_556
Ni1 Ni11 2.736756 1_555
Ni1 Ni5 2.840158 1_556
Ni2 Ni8 2.525159 1_556
Ni2 Ni3 2.569618 1_555
Ni2 Ni6 2.840158 1_556
Ni3 Ni9 2.525159 1_556
Ni3 Ni6 2.620548 1_556
Ni4 Ni8 2.525159 1_665
Ni4 Ni5 2.569618 1_555
Ni4 Ni7 2.840158 1_554
Ni5 Ni9 2.525159 1_555
Ni5 Ni7 2.620548 1_554
Ni6 Ni9 2.525159 1_555
Ni7 Ni9 2.525159 1_556
Ni10 Ni8 2.524674 1_555
Ni10 Ni4 2.736746 1_445
Ni11 Ni8 2.524674 1_666
Ni11 Ni2 2.736746 1_665
Ni12 Ni9 2.524668 1_555
Ni12 Ni7 2.736749 1_554
Ni12 Ni3 2.736749 1_554
Ni13 Ni9 2.524668 1_556
Ni13 Ni5 2.736749 1_556
Ni13 Ni6 2.736749 1_556
