# generated using pymatgen
data_Li3V2(CO3)4
_symmetry_space_group_name_H-M   'P 1'
_cell_length_a   7.66037472
_cell_length_b   7.65804484
_cell_length_c   8.93045906
_cell_angle_alpha   106.18397280
_cell_angle_beta   106.37065208
_cell_angle_gamma   72.72422425
_symmetry_Int_Tables_number   1
_chemical_formula_structural   Li3V2(CO3)4
_chemical_formula_sum   'Li6 V4 C8 O24'
_cell_volume   468.97584873
_cell_formula_units_Z   2
loop_
 _symmetry_equiv_pos_site_id
 _symmetry_equiv_pos_as_xyz
  1  'x, y, z'
loop_
 _atom_site_type_symbol
 _atom_site_label
 _atom_site_symmetry_multiplicity
 _atom_site_fract_x
 _atom_site_fract_y
 _atom_site_fract_z
 _atom_site_occupancy
  Li  Li0  1  0.19369600  0.56007700  0.87340700  1
  Li  Li1  1  0.68247300  0.05451700  0.37902400  1
  Li  Li2  1  0.11643500  0.94183800  0.44365900  1
  Li  Li3  1  0.61717700  0.43143200  0.93400500  1
  Li  Li4  1  0.31722900  0.13814200  0.81706400  1
  Li  Li5  1  0.81368700  0.63038800  0.31099800  1
  V  V0  1  0.70588500  0.04552100  0.87229800  1
  V  V1  1  0.20328900  0.54560000  0.37745800  1
  V  V2  1  0.30731200  0.93676100  0.11999400  1
  V  V3  1  0.81319400  0.44089700  0.62827900  1
  C  C0  1  0.47895900  0.29775800  0.60838400  1
  C  C1  1  0.98741300  0.78484000  0.10986900  1
  C  C2  1  0.45684600  0.26240900  0.14355400  1
  C  C3  1  0.96107500  0.77121100  0.63868100  1
  C  C4  1  0.03606800  0.22985500  0.34845900  1
  C  C5  1  0.52436100  0.73699800  0.85056300  1
  C  C6  1  0.02166900  0.22315500  0.90632800  1
  C  C7  1  0.51159100  0.71727200  0.39341500  1
  O  O0  1  0.35149600  0.74261200  0.43021800  1
  O  O1  1  0.86590300  0.25346200  0.94605500  1
  O  O2  1  0.49324300  0.89183000  0.80769600  1
  O  O3  1  0.01042600  0.39017000  0.31212200  1
  O  O4  1  0.15588400  0.08226200  0.29534800  1
  O  O5  1  0.64537000  0.58872700  0.80451700  1
  O  O6  1  0.16905000  0.09576900  0.95487400  1
  O  O7  1  0.65906800  0.60082500  0.44493700  1
  O  O8  1  0.48284500  0.22963600  0.72788600  1
  O  O9  1  0.98909400  0.69985600  0.21873300  1
  O  O10  1  0.53006100  0.26672600  0.03143500  1
  O  O11  1  0.03395100  0.75993800  0.51653100  1
  O  O12  1  0.32535200  0.41111700  0.55564800  1
  O  O13  1  0.83935800  0.89208000  0.05284700  1
  O  O14  1  0.35044600  0.41077100  0.20700200  1
  O  O15  1  0.85309100  0.92581400  0.68670500  1
  O  O16  1  0.94369200  0.21209100  0.44224800  1
  O  O17  1  0.42993100  0.72077700  0.94828700  1
  O  O18  1  0.04564700  0.31360600  0.81230200  1
  O  O19  1  0.52518400  0.81417000  0.29827200  1
  O  O20  1  0.99952800  0.62530300  0.69823900  1
  O  O21  1  0.49205400  0.10272200  0.18754600  1
  O  O22  1  0.14732300  0.75360000  0.06626000  1
  O  O23  1  0.62465100  0.25646100  0.54885500  1
loop_
_geom_bond_atom_site_label_1
_geom_bond_atom_site_label_2
_geom_bond_distance
_geom_bond_site_symmetry_2
Li0 O20 1.895175 1_455
Li0 O22 1.974360 1_556
Li0 O17 2.327731 1_555
Li0 O18 2.344136 1_555
Li1 O23 1.884799 1_555
Li1 O21 1.952970 1_555
Li1 O19 2.333893 1_545
Li1 O16 2.489291 1_555
Li2 O0 1.993120 1_555
Li2 O11 2.005771 1_555
Li2 O4 2.052955 1_565
Li2 O16 2.100722 1_465
Li2 O9 2.512876 1_455
Li3 O5 1.976527 1_555
Li3 O1 1.980712 1_555
Li3 O10 2.057277 1_556
Li3 O17 2.245305 1_555
Li3 O8 2.264158 1_555
Li4 O2 1.961643 1_545
Li4 O6 2.034028 1_555
Li4 O8 2.035513 1_555
Li4 O18 2.111194 1_555
Li4 O10 2.331529 1_556
Li5 O7 1.998434 1_555
Li5 O3 2.002661 1_655
Li5 O9 2.015054 1_555
Li5 O19 2.231180 1_555
Li5 O11 2.331021 1_655
C0 O23 1.288143 1_555
C0 O12 1.291828 1_555
C0 O8 1.301995 1_555
C1 O13 1.254762 1_555
C1 O9 1.307508 1_555
C1 O22 1.323775 1_655
C2 O14 1.275814 1_555
C2 O10 1.290047 1_555
C2 O21 1.317095 1_555
C3 O15 1.266959 1_555
C3 O20 1.290608 1_555
C3 O11 1.330876 1_655
C4 O4 1.294335 1_555
C4 O16 1.294445 1_455
C4 O3 1.301559 1_555
C5 O2 1.281797 1_555
C5 O5 1.283394 1_555
C5 O17 1.330414 1_555
C6 O1 1.277408 1_455
C6 O18 1.305899 1_555
C6 O6 1.311464 1_555
C7 O7 1.273017 1_555
C7 O0 1.303846 1_555
C7 O19 1.315543 1_555
O0 V1 2.026514 1_555
O1 V0 2.142843 1_555
O2 V0 2.145208 1_565
O3 V1 2.027646 1_555
O4 V2 2.079203 1_545
O5 V3 2.166657 1_555
O6 V2 2.033109 1_546
O7 V3 2.178091 1_555
O8 V0 2.216114 1_555
O9 V1 2.137319 1_655
O10 V0 2.255051 1_554
O11 V1 2.103946 1_555
O12 V1 1.992514 1_555
O13 V0 2.106946 1_564
O14 V1 2.013438 1_555
O15 V0 2.109893 1_565
O16 V3 2.258917 1_555
O17 V2 2.108260 1_556
O18 V3 2.243724 1_455
O19 V2 2.146247 1_555
O20 V3 2.150524 1_555
O21 V2 2.035093 1_545
O22 V2 2.003507 1_555
O23 V3 2.158644 1_555
