# generated using pymatgen
data_Nd2Fe20Mo4N
_symmetry_space_group_name_H-M   'P 1'
_cell_length_a   4.80018400
_cell_length_b   6.56120312
_cell_length_c   12.23416013
_cell_angle_alpha   90.01564273
_cell_angle_beta   90.00000000
_cell_angle_gamma   111.45686094
_symmetry_Int_Tables_number   1
_chemical_formula_structural   Nd2Fe20Mo4N
_chemical_formula_sum   'Nd2 Fe20 Mo4 N1'
_cell_volume   358.60973410
_cell_formula_units_Z   1
loop_
 _symmetry_equiv_pos_site_id
 _symmetry_equiv_pos_as_xyz
  1  'x, y, z'
loop_
 _atom_site_type_symbol
 _atom_site_label
 _atom_site_symmetry_multiplicity
 _atom_site_fract_x
 _atom_site_fract_y
 _atom_site_fract_z
 _atom_site_occupancy
  Nd  Nd0  1  0.00000000  0.00000000  0.00000000  1
  Nd  Nd1  1  0.50000000  0.00000000  0.50000000  1
  Fe  Fe0  1  0.38973800  0.77947600  0.11092400  1
  Fe  Fe1  1  0.88764800  0.77529500  0.61124500  1
  Fe  Fe2  1  0.11235200  0.22470500  0.38875500  1
  Fe  Fe3  1  0.61026200  0.22052400  0.88907600  1
  Fe  Fe4  1  0.88472800  0.76945600  0.38519500  1
  Fe  Fe5  1  0.38917700  0.77835400  0.88794800  1
  Fe  Fe6  1  0.61082300  0.22164600  0.11205200  1
  Fe  Fe7  1  0.11527200  0.23054400  0.61480500  1
  Fe  Fe8  1  0.24946900  0.99999300  0.25284900  1
  Fe  Fe9  1  0.75053100  0.00000700  0.74715100  1
  Fe  Fe10  1  0.75052500  0.99999300  0.25284900  1
  Fe  Fe11  1  0.24947500  0.00000700  0.74715100  1
  Fe  Fe12  1  0.00000000  0.50000000  0.00000000  1
  Fe  Fe13  1  0.50000000  0.50000000  0.50000000  1
  Fe  Fe14  1  0.50000000  0.50000000  0.00000000  1
  Fe  Fe15  1  0.00000000  0.50000000  0.50000000  1
  Fe  Fe16  1  0.68025200  0.36050400  0.31989200  1
  Fe  Fe17  1  0.18048500  0.36097000  0.81960500  1
  Fe  Fe18  1  0.81951500  0.63903000  0.18039500  1
  Fe  Fe19  1  0.31974800  0.63949600  0.68010800  1
  Mo  Mo0  1  0.17947900  0.35895900  0.17972600  1
  Mo  Mo1  1  0.67989500  0.35979000  0.67965800  1
  Mo  Mo2  1  0.32010500  0.64021000  0.32034200  1
  Mo  Mo3  1  0.82052000  0.64104100  0.82027400  1
  N  N0  1  0.50000000  0.00000000  0.00000000  1
loop_
_geom_bond_atom_site_label_1
_geom_bond_atom_site_label_2
_geom_bond_distance
_geom_bond_site_symmetry_2
Fe0 N0 1.912088 1_565
Fe0 Fe14 2.488552 1_555
Fe0 Fe12 2.488552 1_555
Fe0 Fe8 2.504586 1_555
Fe0 Fe10 2.504589 1_555
Fe0 Fe18 2.686775 1_455
Fe0 Fe18 2.686775 1_555
Fe0 Mo2 2.699744 1_555
Fe0 Mo0 2.702547 1_555
Fe1 Fe11 2.465799 1_665
Fe1 Fe9 2.465804 1_565
Fe1 Fe15 2.473274 1_655
Fe1 Fe13 2.473276 1_555
Fe1 Mo1 2.671985 1_555
Fe1 Fe19 2.675495 1_655
Fe1 Fe19 2.675499 1_555
Fe1 Mo3 2.685719 1_555
Fe1 Fe4 2.765751 1_555
Fe1 Fe7 2.780292 1_665
Fe1 Nd1 3.081659 1_665
Fe1 Nd1 3.081663 1_565
Fe2 Fe8 2.465804 1_545
Fe2 Mo2 2.671985 1_555
Fe2 Mo0 2.685719 1_555
Fe2 Fe7 2.765751 1_555
Fe2 Fe4 2.780292 1_445
Fe2 Nd1 3.081659 1_455
Fe2 Nd1 3.081663 1_555
Fe3 N0 1.912088 1_556
Fe3 Fe9 2.504586 1_555
Fe3 Mo1 2.699744 1_555
Fe3 Mo3 2.702547 1_555
Fe4 Fe8 2.457398 1_655
Fe4 Mo2 2.648110 1_655
Fe4 Mo2 2.648110 1_555
Fe4 Nd1 3.116721 1_565
Fe4 Nd1 3.116721 1_665
Fe5 N0 1.926153 1_566
Fe5 Fe9 2.499338 1_565
Fe5 Mo3 2.673682 1_555
Fe5 Mo3 2.673686 1_455
Fe6 N0 1.926153 1_555
Fe6 Fe8 2.499338 1_545
Fe6 Mo0 2.673682 1_655
Fe6 Mo0 2.673686 1_555
Fe7 Fe9 2.457398 1_455
Fe7 Mo1 2.648110 1_555
Fe7 Mo1 2.648110 1_455
Fe7 Nd1 3.116721 1_455
Fe7 Nd1 3.116721 1_555
Fe8 Mo2 2.637403 1_555
Fe8 Mo0 2.653381 1_565
Fe8 Nd1 3.254054 1_565
Fe8 Nd0 3.317097 1_565
Fe9 Mo1 2.637403 1_555
Fe9 Mo3 2.653378 1_545
Fe9 Nd1 3.254054 1_555
Fe9 Nd0 3.317097 1_656
Fe10 Fe8 2.395023 1_655
Fe10 Fe8 2.405161 1_555
Fe10 Fe4 2.457396 1_555
Fe10 Fe2 2.465799 1_665
Fe10 Fe6 2.499340 1_565
Fe10 Mo2 2.637405 1_555
Fe10 Fe16 2.638991 1_565
Fe10 Mo0 2.653376 1_665
Fe10 Fe18 2.660291 1_555
Fe10 Nd1 3.254055 1_565
Fe10 Nd0 3.317095 1_665
Fe11 Fe9 2.395023 1_455
Fe11 Fe9 2.405161 1_555
Fe11 Fe7 2.457396 1_555
Fe11 Fe5 2.499340 1_545
Fe11 Fe3 2.504589 1_555
Fe11 Mo1 2.637405 1_555
Fe11 Fe19 2.638991 1_545
Fe11 Mo3 2.653378 1_445
Fe11 Fe17 2.660291 1_555
Fe11 Nd1 3.254055 1_555
Fe11 Nd0 3.317095 1_556
Fe12 Fe14 2.400092 1_555
Fe12 Fe14 2.400092 1_455
Fe12 Fe3 2.488552 1_454
Fe12 Fe5 2.491972 1_554
Fe12 Fe6 2.491972 1_455
Fe12 Mo0 2.649093 1_555
Fe12 Mo3 2.649095 1_454
Fe12 Fe17 2.651518 1_554
Fe12 Fe18 2.651518 1_455
Fe12 Nd0 3.280602 1_565
Fe12 Nd0 3.280602 1_555
Fe13 Fe15 2.400092 1_555
Fe13 Fe15 2.400092 1_655
Fe13 Fe2 2.473276 1_555
Fe13 Fe4 2.474192 1_555
Fe13 Fe7 2.474192 1_555
Fe13 Mo2 2.646757 1_555
Fe13 Mo1 2.646757 1_555
Fe13 Fe16 2.649509 1_555
Fe13 Fe19 2.649509 1_555
Fe13 Nd1 3.280602 1_555
Fe13 Nd1 3.280602 1_565
Fe14 Fe3 2.488552 1_554
Fe14 Fe6 2.491972 1_555
Fe14 Fe5 2.491972 1_554
Fe14 Mo3 2.649093 1_554
Fe14 Mo0 2.649095 1_555
Fe14 Fe17 2.651518 1_554
Fe14 Fe18 2.651518 1_555
Fe14 Nd0 3.280602 1_665
Fe14 Nd0 3.280602 1_555
Fe15 Fe2 2.473274 1_555
Fe15 Fe4 2.474192 1_455
Fe15 Fe7 2.474192 1_555
Fe15 Mo1 2.646757 1_455
Fe15 Mo2 2.646757 1_555
Fe15 Fe16 2.649509 1_455
Fe15 Fe19 2.649509 1_555
Fe15 Nd1 3.280602 1_455
Fe15 Nd1 3.280602 1_565
Fe16 Fe18 2.409780 1_555
Fe16 Fe4 2.621714 1_555
Fe16 Fe8 2.638989 1_545
Fe16 Fe2 2.675495 1_655
Fe16 Fe2 2.675499 1_555
Fe16 Fe6 2.680166 1_555
Fe16 Mo2 2.945808 1_655
Fe16 Mo2 2.945808 1_555
Fe16 Mo0 2.949762 1_655
Fe16 Mo0 2.949766 1_555
Fe16 Nd1 3.115175 1_555
Fe17 Fe19 2.409780 1_555
Fe17 Fe7 2.628871 1_555
Fe17 Fe9 2.660293 1_455
Fe17 Fe5 2.682150 1_555
Fe17 Fe3 2.686775 1_555
Fe17 Fe3 2.686775 1_455
Fe17 Mo3 2.947104 1_555
Fe17 Mo3 2.947108 1_455
Fe17 Mo1 2.948201 1_455
Fe17 Mo1 2.948201 1_555
Fe17 Nd0 3.119671 1_556
Fe18 Fe4 2.628871 1_555
Fe18 Fe8 2.660293 1_655
Fe18 Fe6 2.682150 1_555
Fe18 Mo0 2.947104 1_655
Fe18 Mo0 2.947108 1_555
Fe18 Mo2 2.948201 1_655
Fe18 Mo2 2.948201 1_555
Fe18 Nd0 3.119671 1_665
Fe19 Fe7 2.621714 1_555
Fe19 Fe9 2.638989 1_565
Fe19 Fe5 2.680166 1_555
Fe19 Mo1 2.945808 1_555
Fe19 Mo1 2.945808 1_455
Fe19 Mo3 2.949762 1_555
Fe19 Mo3 2.949766 1_455
Fe19 Nd1 3.115175 1_565
Mo0 Mo2 2.430514 1_555
Mo0 Nd0 3.104290 1_555
Mo1 Mo3 2.430514 1_555
Mo1 Nd1 3.107286 1_555
Mo2 Nd1 3.107286 1_565
Mo3 Nd0 3.104290 1_666
N0 Nd0 2.400092 1_555
N0 Nd0 2.400092 1_655
