# generated using pymatgen
data_MgFe8(O7F)2
_symmetry_space_group_name_H-M   'P 1'
_cell_length_a   7.43869810
_cell_length_b   7.02580772
_cell_length_c   5.64579026
_cell_angle_alpha   104.99249818
_cell_angle_beta   108.26395251
_cell_angle_gamma   78.52536851
_symmetry_Int_Tables_number   1
_chemical_formula_structural   MgFe8(O7F)2
_chemical_formula_sum   'Mg1 Fe8 O14 F2'
_cell_volume   268.41902366
_cell_formula_units_Z   1
loop_
 _symmetry_equiv_pos_site_id
 _symmetry_equiv_pos_as_xyz
  1  'x, y, z'
loop_
 _atom_site_type_symbol
 _atom_site_label
 _atom_site_symmetry_multiplicity
 _atom_site_fract_x
 _atom_site_fract_y
 _atom_site_fract_z
 _atom_site_occupancy
  Mg  Mg0  1  0.14998800  0.93622900  0.88211100  1
  Fe  Fe0  1  0.74844300  0.23504500  0.54630700  1
  Fe  Fe1  1  0.51279600  0.98946000  0.96367400  1
  Fe  Fe2  1  0.25275000  0.27158000  0.53337400  1
  Fe  Fe3  1  0.76066900  0.74272900  0.46462000  1
  Fe  Fe4  1  0.50712800  0.50066400  0.99839600  1
  Fe  Fe5  1  0.87320700  0.05548800  0.10225000  1
  Fe  Fe6  1  0.25864000  0.74532400  0.44506700  1
  Fe  Fe7  1  0.01333200  0.49289400  0.01459400  1
  O  O0  1  0.99162700  0.20572300  0.41200500  1
  O  O1  1  0.94428300  0.19796200  0.88556800  1
  O  O2  1  0.62004300  0.25270600  0.14312000  1
  O  O3  1  0.30203600  0.02452600  0.66064900  1
  O  O4  1  0.52383500  0.32260100  0.66541500  1
  O  O5  1  0.77778700  0.56801600  0.14192800  1
  O  O6  1  0.71576500  0.91623900  0.78998700  1
  O  O7  1  0.23625800  0.43253100  0.86726200  1
  O  O8  1  0.49556000  0.67676500  0.33316200  1
  O  O9  1  0.71107700  0.97151200  0.30135000  1
  O  O10  1  0.19829900  0.47308400  0.33401400  1
  O  O11  1  0.40163600  0.73825100  0.83780500  1
  O  O12  1  0.06998600  0.80826900  0.11668700  1
  O  O13  1  0.01448500  0.77832700  0.56235700  1
  F  F0  1  0.82192900  0.51614900  0.66936200  1
  F  F1  1  0.32066100  0.08310900  0.18607600  1
loop_
_geom_bond_atom_site_label_1
_geom_bond_atom_site_label_2
_geom_bond_distance
_geom_bond_site_symmetry_2
Mg0 O13 1.942653 1_555
Mg0 O12 2.058939 1_556
Mg0 O11 2.139855 1_555
Mg0 O1 2.145681 1_465
Mg0 O3 2.189583 1_565
Fe0 O4 1.924430 1_555
Fe0 O9 2.014210 1_545
Fe0 O1 2.053558 1_555
Fe0 O0 2.126120 1_555
Fe0 O2 2.201247 1_555
Fe1 O3 1.956719 1_565
Fe1 O6 1.965643 1_555
Fe1 O11 1.966519 1_555
Fe1 O9 2.028257 1_556
Fe1 O2 2.048062 1_566
Fe2 O10 1.935390 1_555
Fe2 O0 1.953431 1_455
Fe2 O7 1.958089 1_555
Fe2 O3 1.972458 1_555
Fe2 O4 1.989394 1_555
Fe3 O13 1.842627 1_655
Fe3 O5 1.941209 1_555
Fe3 O9 1.971548 1_555
Fe3 O8 1.980643 1_555
Fe3 O6 2.008989 1_555
Fe4 O8 1.989995 1_556
Fe4 O4 1.995613 1_555
Fe4 O11 2.010003 1_555
Fe4 O5 2.022921 1_556
Fe4 O7 2.025474 1_555
Fe4 O2 2.032773 1_556
Fe5 O0 1.843299 1_555
Fe5 O6 1.925145 1_544
Fe5 O1 2.006896 1_554
Fe5 O12 2.037907 1_645
Fe5 O9 2.131229 1_545
Fe5 O2 2.142055 1_555
Fe6 O10 1.948781 1_555
Fe6 O8 1.984905 1_555
Fe6 O12 2.036825 1_555
Fe6 O3 2.050356 1_565
Fe6 O13 2.073080 1_555
Fe6 O11 2.146643 1_555
Fe7 O10 1.913923 1_555
Fe7 O7 2.005965 1_554
Fe7 O5 2.022542 1_455
Fe7 O1 2.120420 1_454
Fe7 O12 2.231129 1_555
F0 Fe0 2.040499 1_555
F0 Fe7 2.045894 1_656
F0 Fe3 2.100304 1_555
F1 Mg0 1.964998 1_544
F1 Fe1 2.091767 1_544
F1 Fe2 2.205584 1_555
