# generated using pymatgen
data_Re3Rh
_symmetry_space_group_name_H-M   'P 1'
_cell_length_a   5.52559322
_cell_length_b   5.52559894
_cell_length_c   4.38506311
_cell_angle_alpha   89.99986881
_cell_angle_beta   90.00013273
_cell_angle_gamma   120.00000825
_symmetry_Int_Tables_number   1
_chemical_formula_structural   Re3Rh
_chemical_formula_sum   'Re6 Rh2'
_cell_volume   115.94838756
_cell_formula_units_Z   2
loop_
 _symmetry_equiv_pos_site_id
 _symmetry_equiv_pos_as_xyz
  1  'x, y, z'
loop_
 _atom_site_type_symbol
 _atom_site_label
 _atom_site_symmetry_multiplicity
 _atom_site_fract_x
 _atom_site_fract_y
 _atom_site_fract_z
 _atom_site_occupancy
  Re  Re0  1  0.16123160  0.32246235  0.25000837  1
  Re  Re1  1  0.67753635  0.83876755  0.25000797  1
  Re  Re2  1  0.16123276  0.83876981  0.25001682  1
  Re  Re3  1  0.83876940  0.67753865  0.74999163  1
  Re  Re4  1  0.32246365  0.16123145  0.74999103  1
  Re  Re5  1  0.83876824  0.16123019  0.74998218  1
  Rh  Rh0  1  0.33333220  0.66666578  0.75001596  1
  Rh  Rh1  1  0.66666780  0.33333422  0.24998404  1
loop_
_geom_bond_atom_site_label_1
_geom_bond_atom_site_label_2
_geom_bond_distance
_geom_bond_site_symmetry_2
Re0 Re2 2.672694 1_545
Re0 Re1 2.672703 1_445
Re0 Re5 2.681009 1_455
Re0 Re4 2.681036 1_555
Re0 Re4 2.681167 1_554
Re0 Re5 2.681194 1_454
Re0 Rh0 2.742270 1_554
Re0 Rh0 2.742326 1_555
Re0 Rh1 2.763285 1_455
Re0 Rh1 2.763288 1_555
Re0 Re1 2.852892 1_555
Re0 Re2 2.852905 1_555
Re1 Re2 2.672703 1_655
Re1 Re5 2.681010 1_565
Re1 Re3 2.681036 1_555
Re1 Re3 2.681160 1_554
Re1 Re5 2.681191 1_564
Re1 Rh0 2.742269 1_554
Re1 Rh0 2.742329 1_555
Re1 Rh1 2.763284 1_555
Re1 Rh1 2.763294 1_565
Re1 Re2 2.852890 1_555
Re2 Re4 2.681007 1_565
Re2 Re3 2.681013 1_455
Re2 Re4 2.681189 1_564
Re2 Re3 2.681190 1_454
Re2 Rh0 2.742291 1_555
Re2 Rh0 2.742304 1_554
Re2 Rh1 2.763286 1_565
Re2 Rh1 2.763289 1_455
Re3 Re5 2.672689 1_565
Re3 Re4 2.672695 1_665
Re3 Rh1 2.742272 1_556
Re3 Rh1 2.742329 1_555
Re3 Rh0 2.763282 1_655
Re3 Rh0 2.763291 1_555
Re3 Re4 2.852901 1_555
Re3 Re5 2.852910 1_555
Re4 Re5 2.672701 1_455
Re4 Rh1 2.742273 1_556
Re4 Rh1 2.742325 1_555
Re4 Rh0 2.763289 1_545
Re4 Rh0 2.763289 1_555
Re4 Re5 2.852893 1_555
Re5 Rh1 2.742290 1_555
Re5 Rh1 2.742311 1_556
Re5 Rh0 2.763286 1_655
Re5 Rh0 2.763289 1_545
