# generated using pymatgen
data_Ba8Ta2Ru3(BrO9)2
_symmetry_space_group_name_H-M   'P 1'
_cell_length_a   5.93921965
_cell_length_b   5.93921900
_cell_length_c   20.18111222
_cell_angle_alpha   81.53831590
_cell_angle_beta   98.46168394
_cell_angle_gamma   120.00000192
_symmetry_Int_Tables_number   1
_chemical_formula_structural   Ba8Ta2Ru3(BrO9)2
_chemical_formula_sum   'Ba8 Ta2 Ru3 Br2 O18'
_cell_volume   607.53754827
_cell_formula_units_Z   1
loop_
 _symmetry_equiv_pos_site_id
 _symmetry_equiv_pos_as_xyz
  1  'x, y, z'
loop_
 _atom_site_type_symbol
 _atom_site_label
 _atom_site_symmetry_multiplicity
 _atom_site_fract_x
 _atom_site_fract_y
 _atom_site_fract_z
 _atom_site_occupancy
  Ba  Ba0  1  0.55919200  0.44080800  0.67757500  1
  Ba  Ba1  1  0.44080800  0.55919200  0.32242500  1
  Ba  Ba2  1  0.63104700  0.36895300  0.89314100  1
  Ba  Ba3  1  0.36895300  0.63104700  0.10685900  1
  Ba  Ba4  1  0.81182100  0.18817900  0.43546300  1
  Ba  Ba5  1  0.18817900  0.81182100  0.56453700  1
  Ba  Ba6  1  0.74180500  0.25819500  0.22541600  1
  Ba  Ba7  1  0.25819500  0.74180500  0.77458400  1
  Ta  Ta0  1  0.91864400  0.08135600  0.75593200  1
  Ta  Ta1  1  0.08135600  0.91864400  0.24406800  1
  Ru  Ru0  1  0.50000000  0.50000000  0.50000000  1
  Ru  Ru1  1  0.87051800  0.12948200  0.61155400  1
  Ru  Ru2  1  0.12948200  0.87051800  0.38844600  1
  Br  Br0  1  0.68688600  0.31311400  0.06065700  1
  Br  Br1  1  0.31311400  0.68688600  0.93934300  1
  O  O0  1  0.95742900  0.04257100  0.32135600  1
  O  O1  1  0.40649800  0.04257100  0.32135600  1
  O  O2  1  0.95742900  0.59350200  0.32135600  1
  O  O3  1  0.04257100  0.95742900  0.67864400  1
  O  O4  1  0.59350200  0.95742900  0.67864400  1
  O  O5  1  0.04257100  0.40649800  0.67864400  1
  O  O6  1  0.22986700  0.77013300  0.20032300  1
  O  O7  1  0.74058800  0.77013300  0.20032300  1
  O  O8  1  0.22986700  0.25941200  0.20032300  1
  O  O9  1  0.77013300  0.22986700  0.79967700  1
  O  O10  1  0.25941200  0.22986700  0.79967700  1
  O  O11  1  0.77013300  0.74058800  0.79967700  1
  O  O12  1  0.68339600  0.31660400  0.55810400  1
  O  O13  1  0.19131200  0.31660400  0.55810400  1
  O  O14  1  0.68339600  0.80868800  0.55810400  1
  O  O15  1  0.31660400  0.68339600  0.44189600  1
  O  O16  1  0.80868800  0.68339600  0.44189600  1
  O  O17  1  0.31660400  0.19131200  0.44189600  1
loop_
_geom_bond_atom_site_label_1
_geom_bond_atom_site_label_2
_geom_bond_distance
_geom_bond_site_symmetry_2
Ba0 O12 2.914198 1_555
Ba0 O14 2.914200 1_555
Ba0 O13 2.914200 1_555
Ba0 O4 2.974813 1_545
Ba0 O5 2.974814 1_655
Ba0 O3 2.974817 1_655
Ba0 O3 2.974817 1_545
Ba0 O4 2.974819 1_555
Ba0 O5 2.974820 1_555
Ba0 O11 2.993943 1_555
Ba0 O9 2.993943 1_555
Ba0 O10 2.993943 1_555
Ba1 O15 2.914198 1_555
Ba1 O17 2.914200 1_555
Ba1 O16 2.914200 1_555
Ba1 O1 2.974813 1_565
Ba1 O2 2.974814 1_455
Ba1 O0 2.974817 1_455
Ba1 O0 2.974817 1_565
Ba1 O1 2.974819 1_555
Ba1 O2 2.974820 1_555
Ba1 O8 2.993943 1_555
Ba1 O6 2.993943 1_555
Ba1 O7 2.993943 1_555
Ba2 O11 2.553820 1_555
Ba2 O10 2.553820 1_555
Ba2 O9 2.553824 1_555
Ba2 Br0 3.331502 1_556
Ba2 Br1 3.549983 1_545
Ba2 Br1 3.549984 1_655
Ba2 Br1 3.549988 1_555
Ba3 O8 2.553820 1_555
Ba3 O7 2.553820 1_555
Ba3 O6 2.553824 1_555
Ba3 Br1 3.331502 1_554
Ba3 Br0 3.549983 1_565
Ba3 Br0 3.549984 1_455
Ba3 Br0 3.549988 1_555
Ba4 O2 2.952744 1_555
Ba4 O0 2.952745 1_555
Ba4 O1 2.952745 1_555
Ba4 O16 2.972488 1_545
Ba4 O16 2.972488 1_555
Ba4 O15 2.972488 1_545
Ba4 O15 2.972488 1_655
Ba4 O17 2.972488 1_655
Ba4 O17 2.972488 1_555
Ba4 O14 2.997044 1_545
Ba4 O12 2.997044 1_555
Ba4 O13 2.997044 1_655
Ba5 O5 2.952744 1_555
Ba5 O3 2.952745 1_555
Ba5 O4 2.952745 1_555
Ba5 O13 2.972488 1_565
Ba5 O13 2.972488 1_555
Ba5 O12 2.972488 1_565
Ba5 O12 2.972488 1_455
Ba5 O14 2.972488 1_455
Ba5 O14 2.972488 1_555
Ba5 O17 2.997044 1_565
Ba5 O15 2.997044 1_555
Ba5 O16 2.997044 1_455
Ba6 O2 2.685037 1_555
Ba6 O1 2.685037 1_555
Ba6 O0 2.685040 1_555
Ba6 O7 3.011474 1_555
Ba6 O7 3.011474 1_545
Ba6 O6 3.011474 1_655
Ba6 O6 3.011474 1_545
Ba6 O8 3.011474 1_555
Ba6 O8 3.011474 1_655
Ba6 Br0 3.276672 1_555
Ba7 O5 2.685037 1_555
Ba7 O4 2.685037 1_555
Ba7 O3 2.685040 1_555
Ba7 O10 3.011474 1_555
Ba7 O10 3.011474 1_565
Ba7 O9 3.011474 1_455
Ba7 O9 3.011474 1_565
Ba7 O11 3.011474 1_555
Ba7 O11 3.011474 1_455
Ba7 Br1 3.276672 1_555
O0 Ru2 2.037507 1_645
O0 Ta1 2.175726 1_645
O1 Ru2 2.037507 1_545
O1 Ta1 2.175726 1_545
O2 Ru2 2.037507 1_655
O2 Ta1 2.175726 1_655
O3 Ru1 2.037507 1_465
O3 Ta0 2.175726 1_465
O4 Ru1 2.037507 1_565
O4 Ta0 2.175726 1_565
O5 Ru1 2.037507 1_455
O5 Ta0 2.175726 1_455
O6 Ta1 1.889890 1_555
O7 Ta1 1.889895 1_655
O8 Ta1 1.889894 1_545
O9 Ta0 1.889890 1_555
O10 Ta0 1.889895 1_455
O11 Ta0 1.889894 1_565
O12 Ru1 2.040417 1_555
O12 Ru0 2.045113 1_555
O13 Ru1 2.040417 1_455
O13 Ru0 2.045114 1_555
O14 Ru1 2.040417 1_565
O14 Ru0 2.045113 1_555
O15 Ru2 2.040417 1_555
O15 Ru0 2.045113 1_555
O16 Ru2 2.040417 1_655
O16 Ru0 2.045114 1_555
O17 Ru2 2.040417 1_545
O17 Ru0 2.045113 1_555
