# generated using pymatgen
data_CsI
_symmetry_space_group_name_H-M   'P 1'
_cell_length_a   5.49735623
_cell_length_b   11.01594872
_cell_length_c   7.82524392
_cell_angle_alpha   90.00000000
_cell_angle_beta   90.00000000
_cell_angle_gamma   90.00000000
_symmetry_Int_Tables_number   1
_chemical_formula_structural   CsI
_chemical_formula_sum   'Cs4 I4'
_cell_volume   473.88577205
_cell_formula_units_Z   4
loop_
 _symmetry_equiv_pos_site_id
 _symmetry_equiv_pos_as_xyz
  1  'x, y, z'
loop_
 _atom_site_type_symbol
 _atom_site_label
 _atom_site_symmetry_multiplicity
 _atom_site_fract_x
 _atom_site_fract_y
 _atom_site_fract_z
 _atom_site_occupancy
  Cs  Cs0  1  0.75000000  0.88133893  0.74927155  1
  Cs  Cs1  1  0.75000000  0.38133893  0.75072845  1
  Cs  Cs2  1  0.25000000  0.11866107  0.25072845  1
  Cs  Cs3  1  0.25000000  0.61866107  0.24927155  1
  I  I0  1  0.75000000  0.86868090  0.24912915  1
  I  I1  1  0.75000000  0.36868090  0.25087085  1
  I  I2  1  0.25000000  0.13131910  0.75087085  1
  I  I3  1  0.25000000  0.63131910  0.74912915  1
loop_
_geom_bond_atom_site_label_1
_geom_bond_atom_site_label_2
_geom_bond_distance
_geom_bond_site_symmetry_2
Cs0 I2 3.890839 1_665
Cs0 I2 3.890839 1_565
Cs0 I3 3.891129 1_655
Cs0 I3 3.891129 1_555
Cs0 I0 3.913992 1_556
Cs0 I0 3.916220 1_555
Cs1 I3 3.890839 1_655
Cs1 I3 3.890839 1_555
Cs1 I2 3.891129 1_555
Cs1 I2 3.891129 1_655
Cs1 I1 3.913992 1_555
Cs1 I1 3.916220 1_556
Cs2 I0 3.890839 1_545
Cs2 I0 3.890839 1_445
Cs2 I1 3.891129 1_455
Cs2 I1 3.891129 1_555
Cs2 I2 3.913992 1_554
Cs2 I2 3.916220 1_555
Cs3 I1 3.890839 1_455
Cs3 I1 3.890839 1_555
Cs3 I0 3.891129 1_555
Cs3 I0 3.891129 1_455
Cs3 I3 3.913992 1_555
Cs3 I3 3.916220 1_554
