# generated using pymatgen
data_HfMg30CdO32
_symmetry_space_group_name_H-M   'P 1'
_cell_length_a   8.64320100
_cell_length_b   8.64320100
_cell_length_c   8.71355800
_cell_angle_alpha   90.00000000
_cell_angle_beta   90.00000000
_cell_angle_gamma   90.00000000
_symmetry_Int_Tables_number   1
_chemical_formula_structural   HfMg30CdO32
_chemical_formula_sum   'Hf1 Mg30 Cd1 O32'
_cell_volume   650.94568403
_cell_formula_units_Z   1
loop_
 _symmetry_equiv_pos_site_id
 _symmetry_equiv_pos_as_xyz
  1  'x, y, z'
loop_
 _atom_site_type_symbol
 _atom_site_label
 _atom_site_symmetry_multiplicity
 _atom_site_fract_x
 _atom_site_fract_y
 _atom_site_fract_z
 _atom_site_occupancy
  Hf  Hf0  1  0.00000000  0.00000000  0.50000000  1
  Mg  Mg0  1  0.00000000  0.50000000  0.00000000  1
  Mg  Mg1  1  0.00000000  0.50000000  0.50000000  1
  Mg  Mg2  1  0.50000000  0.00000000  0.00000000  1
  Mg  Mg3  1  0.50000000  0.00000000  0.50000000  1
  Mg  Mg4  1  0.50000000  0.50000000  0.00000000  1
  Mg  Mg5  1  0.50000000  0.50000000  0.50000000  1
  Mg  Mg6  1  0.00000000  0.25728800  0.24172900  1
  Mg  Mg7  1  0.00000000  0.25728800  0.75827100  1
  Mg  Mg8  1  0.00000000  0.74271200  0.24172900  1
  Mg  Mg9  1  0.00000000  0.74271200  0.75827100  1
  Mg  Mg10  1  0.50000000  0.25144200  0.24826700  1
  Mg  Mg11  1  0.50000000  0.25144200  0.75173300  1
  Mg  Mg12  1  0.50000000  0.74855800  0.24826700  1
  Mg  Mg13  1  0.50000000  0.74855800  0.75173300  1
  Mg  Mg14  1  0.25728800  0.00000000  0.24172900  1
  Mg  Mg15  1  0.25728800  0.00000000  0.75827100  1
  Mg  Mg16  1  0.25144200  0.50000000  0.24826700  1
  Mg  Mg17  1  0.25144200  0.50000000  0.75173300  1
  Mg  Mg18  1  0.74271200  0.00000000  0.24172900  1
  Mg  Mg19  1  0.74271200  0.00000000  0.75827100  1
  Mg  Mg20  1  0.74855800  0.50000000  0.24826700  1
  Mg  Mg21  1  0.74855800  0.50000000  0.75173300  1
  Mg  Mg22  1  0.25222600  0.25222600  0.00000000  1
  Mg  Mg23  1  0.25661400  0.25661400  0.50000000  1
  Mg  Mg24  1  0.25222600  0.74777400  0.00000000  1
  Mg  Mg25  1  0.25661400  0.74338600  0.50000000  1
  Mg  Mg26  1  0.74777400  0.25222600  0.00000000  1
  Mg  Mg27  1  0.74338600  0.25661400  0.50000000  1
  Mg  Mg28  1  0.74777400  0.74777400  0.00000000  1
  Mg  Mg29  1  0.74338600  0.74338600  0.50000000  1
  Cd  Cd0  1  0.00000000  0.00000000  0.00000000  1
  O  O0  1  0.27583700  0.00000000  0.00000000  1
  O  O1  1  0.24577900  0.00000000  0.50000000  1
  O  O2  1  0.25480400  0.50000000  0.00000000  1
  O  O3  1  0.24988100  0.50000000  0.50000000  1
  O  O4  1  0.72416300  0.00000000  0.00000000  1
  O  O5  1  0.75422100  0.00000000  0.50000000  1
  O  O6  1  0.74519600  0.50000000  0.00000000  1
  O  O7  1  0.75011900  0.50000000  0.50000000  1
  O  O8  1  0.25030500  0.25030500  0.25226500  1
  O  O9  1  0.25030500  0.25030500  0.74773500  1
  O  O10  1  0.25030500  0.74969500  0.25226500  1
  O  O11  1  0.25030500  0.74969500  0.74773500  1
  O  O12  1  0.74969500  0.25030500  0.25226500  1
  O  O13  1  0.74969500  0.25030500  0.74773500  1
  O  O14  1  0.74969500  0.74969500  0.25226500  1
  O  O15  1  0.74969500  0.74969500  0.74773500  1
  O  O16  1  0.00000000  0.00000000  0.27035800  1
  O  O17  1  0.00000000  0.00000000  0.72964200  1
  O  O18  1  0.00000000  0.50000000  0.25799300  1
  O  O19  1  0.00000000  0.50000000  0.74200700  1
  O  O20  1  0.50000000  0.00000000  0.25799300  1
  O  O21  1  0.50000000  0.00000000  0.74200700  1
  O  O22  1  0.50000000  0.50000000  0.25308200  1
  O  O23  1  0.50000000  0.50000000  0.74691800  1
  O  O24  1  0.00000000  0.27583700  0.00000000  1
  O  O25  1  0.00000000  0.24577900  0.50000000  1
  O  O26  1  0.00000000  0.72416300  0.00000000  1
  O  O27  1  0.00000000  0.75422100  0.50000000  1
  O  O28  1  0.50000000  0.25480400  0.00000000  1
  O  O29  1  0.50000000  0.24988100  0.50000000  1
  O  O30  1  0.50000000  0.74519600  0.00000000  1
  O  O31  1  0.50000000  0.75011900  0.50000000  1
loop_
_geom_bond_atom_site_label_1
_geom_bond_atom_site_label_2
_geom_bond_distance
_geom_bond_site_symmetry_2
Hf0 O16 2.000999 1_555
Hf0 O17 2.000999 1_555
Hf0 O25 2.124317 1_555
Hf0 O27 2.124317 1_545
Hf0 O1 2.124317 1_555
Hf0 O5 2.124317 1_455
Mg0 O24 1.937486 1_555
Mg0 O26 1.937486 1_555
Mg0 O2 2.202322 1_555
Mg0 O6 2.202322 1_455
Mg0 O18 2.248037 1_555
Mg0 O19 2.248037 1_554
Mg1 O19 2.108742 1_555
Mg1 O18 2.108742 1_555
Mg1 O3 2.159772 1_555
Mg1 O7 2.159772 1_455
Mg1 O27 2.197283 1_555
Mg1 O25 2.197283 1_555
Mg2 O0 1.937486 1_555
Mg2 O4 1.937486 1_555
Mg2 O28 2.202322 1_555
Mg2 O30 2.202322 1_545
Mg2 O20 2.248037 1_555
Mg2 O21 2.248037 1_554
Mg3 O21 2.108742 1_555
Mg3 O20 2.108742 1_555
Mg3 O29 2.159772 1_555
Mg3 O31 2.159772 1_545
Mg3 O1 2.197283 1_555
Mg3 O5 2.197283 1_555
Mg4 O6 2.119278 1_555
Mg4 O30 2.119278 1_555
Mg4 O2 2.119278 1_555
Mg4 O28 2.119278 1_555
Mg4 O22 2.205245 1_555
Mg4 O23 2.205245 1_554
Mg5 O23 2.151534 1_555
Mg5 O22 2.151534 1_555
Mg5 O29 2.161829 1_555
Mg5 O7 2.161829 1_555
Mg5 O31 2.161829 1_555
Mg5 O3 2.161829 1_555
Mg6 O18 2.102590 1_555
Mg6 O24 2.112412 1_555
Mg6 O8 2.166224 1_555
Mg6 O12 2.166224 1_455
Mg6 O16 2.237740 1_555
Mg6 O25 2.252657 1_555
Mg7 O19 2.102590 1_555
Mg7 O24 2.112412 1_556
Mg7 O9 2.166224 1_555
Mg7 O13 2.166224 1_455
Mg7 O17 2.237740 1_555
Mg7 O25 2.252657 1_555
Mg8 O18 2.102590 1_555
Mg8 O26 2.112412 1_555
Mg8 O14 2.166224 1_455
Mg8 O10 2.166224 1_555
Mg8 O16 2.237740 1_565
Mg8 O27 2.252657 1_555
Mg9 O19 2.102590 1_555
Mg9 O26 2.112412 1_556
Mg9 O15 2.166224 1_455
Mg9 O11 2.166224 1_555
Mg9 O17 2.237740 1_565
Mg9 O27 2.252657 1_555
Mg10 O22 2.148746 1_555
Mg10 O12 2.158468 1_555
Mg10 O8 2.158468 1_555
Mg10 O28 2.163484 1_555
Mg10 O20 2.174916 1_555
Mg10 O29 2.193532 1_555
Mg11 O23 2.148746 1_555
Mg11 O9 2.158468 1_555
Mg11 O13 2.158468 1_555
Mg11 O28 2.163484 1_556
Mg11 O21 2.174916 1_555
Mg11 O29 2.193532 1_555
Mg12 O22 2.148746 1_555
Mg12 O14 2.158468 1_555
Mg12 O10 2.158468 1_555
Mg12 O30 2.163484 1_555
Mg12 O20 2.174916 1_565
Mg12 O31 2.193532 1_555
Mg13 O23 2.148746 1_555
Mg13 O11 2.158468 1_555
Mg13 O15 2.158468 1_555
Mg13 O30 2.163484 1_556
Mg13 O21 2.174916 1_565
Mg13 O31 2.193532 1_555
Mg14 O20 2.102590 1_555
Mg14 O0 2.112412 1_555
Mg14 O8 2.166224 1_555
Mg14 O10 2.166224 1_545
Mg14 O16 2.237740 1_555
Mg14 O1 2.252657 1_555
Mg15 O21 2.102590 1_555
Mg15 O0 2.112412 1_556
Mg15 O9 2.166224 1_555
Mg15 O11 2.166224 1_545
Mg15 O17 2.237740 1_555
Mg15 O1 2.252657 1_555
Mg16 O22 2.148746 1_555
Mg16 O8 2.158468 1_555
Mg16 O10 2.158468 1_555
Mg16 O2 2.163484 1_555
Mg16 O18 2.174916 1_555
Mg16 O3 2.193532 1_555
Mg17 O23 2.148746 1_555
Mg17 O11 2.158468 1_555
Mg17 O9 2.158468 1_555
Mg17 O2 2.163484 1_556
Mg17 O19 2.174916 1_555
Mg17 O3 2.193532 1_555
Mg18 O20 2.102590 1_555
Mg18 O4 2.112412 1_555
Mg18 O12 2.166224 1_555
Mg18 O14 2.166224 1_545
Mg18 O16 2.237740 1_655
Mg18 O5 2.252657 1_555
Mg19 O21 2.102590 1_555
Mg19 O4 2.112412 1_556
Mg19 O15 2.166224 1_545
Mg19 O13 2.166224 1_555
Mg19 O17 2.237740 1_655
Mg19 O5 2.252657 1_555
Mg20 O22 2.148746 1_555
Mg20 O12 2.158468 1_555
Mg20 O14 2.158468 1_555
Mg20 O6 2.163484 1_555
Mg20 O18 2.174916 1_655
Mg20 O7 2.193532 1_555
Mg21 O23 2.148746 1_555
Mg21 O15 2.158468 1_555
Mg21 O13 2.158468 1_555
Mg21 O6 2.163484 1_556
Mg21 O19 2.174916 1_655
Mg21 O7 2.193532 1_555
Mg22 O2 2.141676 1_555
Mg22 O28 2.141676 1_555
Mg22 O24 2.189571 1_555
Mg22 O0 2.189571 1_555
Mg22 O9 2.198251 1_554
Mg22 O8 2.198251 1_555
Mg23 O29 2.104439 1_555
Mg23 O3 2.104439 1_555
Mg23 O8 2.160030 1_555
Mg23 O9 2.160030 1_555
Mg23 O1 2.219943 1_555
Mg23 O25 2.219943 1_555
Mg24 O30 2.141676 1_555
Mg24 O2 2.141676 1_555
Mg24 O0 2.189571 1_565
Mg24 O26 2.189571 1_555
Mg24 O11 2.198251 1_554
Mg24 O10 2.198251 1_555
Mg25 O31 2.104439 1_555
Mg25 O3 2.104439 1_555
Mg25 O10 2.160030 1_555
Mg25 O11 2.160030 1_555
Mg25 O27 2.219943 1_555
Mg25 O1 2.219943 1_565
Mg26 O6 2.141676 1_555
Mg26 O28 2.141676 1_555
Mg26 O24 2.189571 1_655
Mg26 O4 2.189571 1_555
Mg26 O13 2.198251 1_554
Mg26 O12 2.198251 1_555
Mg27 O29 2.104439 1_555
Mg27 O7 2.104439 1_555
Mg27 O12 2.160030 1_555
Mg27 O13 2.160030 1_555
Mg27 O25 2.219943 1_655
Mg27 O5 2.219943 1_555
Mg28 O6 2.141676 1_555
Mg28 O30 2.141676 1_555
Mg28 O26 2.189571 1_655
Mg28 O4 2.189571 1_565
Mg28 O15 2.198251 1_554
Mg28 O14 2.198251 1_555
Mg29 O7 2.104439 1_555
Mg29 O31 2.104439 1_555
Mg29 O14 2.160030 1_555
Mg29 O15 2.160030 1_555
Mg29 O27 2.219943 1_655
Mg29 O5 2.219943 1_565
Cd0 O17 2.355780 1_554
Cd0 O16 2.355780 1_555
Cd0 O26 2.384115 1_545
Cd0 O24 2.384115 1_555
Cd0 O0 2.384115 1_555
Cd0 O4 2.384115 1_455
