# generated using pymatgen
data_Mg6CdGa
_symmetry_space_group_name_H-M   'P 1'
_cell_length_a   5.00910000
_cell_length_b   6.41897000
_cell_length_c   10.78393100
_cell_angle_alpha   90.00000000
_cell_angle_beta   90.00000000
_cell_angle_gamma   90.00000000
_symmetry_Int_Tables_number   1
_chemical_formula_structural   Mg6CdGa
_chemical_formula_sum   'Mg12 Cd2 Ga2'
_cell_volume   346.73856559
_cell_formula_units_Z   2
loop_
 _symmetry_equiv_pos_site_id
 _symmetry_equiv_pos_as_xyz
  1  'x, y, z'
loop_
 _atom_site_type_symbol
 _atom_site_label
 _atom_site_symmetry_multiplicity
 _atom_site_fract_x
 _atom_site_fract_y
 _atom_site_fract_z
 _atom_site_occupancy
  Mg  Mg0  1  0.50000000  0.25017400  0.58394900  1
  Mg  Mg1  1  0.50000000  0.74982600  0.58394900  1
  Mg  Mg2  1  0.00000000  0.24699300  0.41493500  1
  Mg  Mg3  1  0.00000000  0.75300700  0.41493500  1
  Mg  Mg4  1  0.00000000  0.00000000  0.66704600  1
  Mg  Mg5  1  0.00000000  0.00000000  0.16903100  1
  Mg  Mg6  1  0.50000000  0.75017400  0.08394900  1
  Mg  Mg7  1  0.50000000  0.24982600  0.08394900  1
  Mg  Mg8  1  0.00000000  0.74699300  0.91493500  1
  Mg  Mg9  1  0.00000000  0.25300700  0.91493500  1
  Mg  Mg10  1  0.00000000  0.50000000  0.16704600  1
  Mg  Mg11  1  0.00000000  0.50000000  0.66903100  1
  Cd  Cd0  1  0.50000000  0.00000000  0.83337700  1
  Cd  Cd1  1  0.50000000  0.50000000  0.33337700  1
  Ga  Ga0  1  0.50000000  0.00000000  0.33278300  1
  Ga  Ga1  1  0.50000000  0.50000000  0.83278300  1
loop_
_geom_bond_atom_site_label_1
_geom_bond_atom_site_label_2
_geom_bond_distance
_geom_bond_site_symmetry_2
Mg0 Mg2 3.097610 1_655
Mg0 Mg2 3.097610 1_555
Mg0 Mg4 3.107181 1_555
Mg0 Mg4 3.107181 1_655
Mg0 Mg11 3.112270 1_555
Mg0 Mg11 3.112270 1_655
Mg0 Mg1 3.207251 1_555
Mg0 Mg1 3.211719 1_545
Mg1 Mg3 3.097610 1_555
Mg1 Mg3 3.097610 1_655
Mg1 Mg4 3.107181 1_565
Mg1 Mg4 3.107181 1_665
Mg1 Mg11 3.112270 1_555
Mg1 Mg11 3.112270 1_655
Mg2 Mg5 3.089616 1_555
Mg2 Mg4 3.147254 1_555
Mg2 Mg3 3.170881 1_545
Mg2 Mg3 3.248089 1_555
Mg3 Mg5 3.089616 1_565
Mg3 Mg4 3.147254 1_565
Mg4 Mg8 3.127877 1_545
Mg4 Mg9 3.127877 1_555
Mg5 Mg6 3.112270 1_445
Mg5 Mg7 3.112270 1_455
Mg5 Mg6 3.112270 1_545
Mg5 Mg7 3.112270 1_555
Mg5 Mg8 3.185273 1_544
Mg5 Mg9 3.185273 1_554
Mg6 Mg8 3.097610 1_554
Mg6 Mg8 3.097610 1_654
Mg6 Mg7 3.207251 1_565
Mg6 Mg7 3.211719 1_555
Mg7 Mg9 3.097610 1_654
Mg7 Mg9 3.097610 1_554
Mg8 Mg9 3.170881 1_555
Mg8 Mg9 3.248089 1_565
Mg10 Mg7 3.107181 1_455
Mg10 Mg7 3.107181 1_555
Mg10 Mg6 3.107181 1_455
Mg10 Mg6 3.107181 1_555
Mg10 Mg3 3.127877 1_555
Mg10 Mg2 3.127877 1_555
Mg10 Mg9 3.147254 1_554
Mg10 Mg8 3.147254 1_554
Mg10 Mg5 3.209556 1_555
Mg10 Mg5 3.209556 1_565
Mg11 Mg8 3.089616 1_555
Mg11 Mg9 3.089616 1_555
Mg11 Mg3 3.185273 1_555
Mg11 Mg2 3.185273 1_555
Mg11 Mg4 3.209556 1_565
Mg11 Mg4 3.209556 1_555
Cd0 Mg4 3.080607 1_555
Cd0 Mg4 3.080607 1_655
Cd0 Mg9 3.111887 1_555
Cd0 Mg9 3.111887 1_655
Cd0 Mg8 3.111887 1_645
Cd0 Mg8 3.111887 1_545
Cd0 Mg1 3.132712 1_545
Cd0 Mg0 3.132712 1_555
Cd0 Mg7 3.142171 1_556
Cd0 Mg6 3.142171 1_546
Cd0 Ga1 3.209491 1_555
Cd0 Ga1 3.209491 1_545
Cd1 Mg10 3.080607 1_555
Cd1 Mg10 3.080607 1_655
Cd1 Mg2 3.111887 1_655
Cd1 Mg3 3.111887 1_555
Cd1 Mg3 3.111887 1_655
Cd1 Mg2 3.111887 1_555
Cd1 Mg6 3.132712 1_555
Cd1 Mg7 3.132712 1_555
Cd1 Mg1 3.142171 1_555
Cd1 Mg0 3.142171 1_555
Cd1 Ga0 3.209491 1_565
Cd1 Ga0 3.209491 1_555
Ga0 Mg5 3.064497 1_655
Ga0 Mg5 3.064497 1_555
Ga0 Mg2 3.093744 1_555
Ga0 Mg3 3.093744 1_545
Ga0 Mg3 3.093744 1_645
Ga0 Mg2 3.093744 1_655
Ga0 Mg6 3.126067 1_545
Ga0 Mg7 3.126067 1_555
Ga0 Mg0 3.148820 1_555
Ga0 Mg1 3.148820 1_545
Ga1 Mg11 3.064497 1_555
Ga1 Mg11 3.064497 1_655
Ga1 Mg8 3.093744 1_555
Ga1 Mg9 3.093744 1_655
Ga1 Mg9 3.093744 1_555
Ga1 Mg8 3.093744 1_655
Ga1 Mg0 3.126067 1_555
Ga1 Mg1 3.126067 1_555
Ga1 Mg6 3.148820 1_556
Ga1 Mg7 3.148820 1_556
