# generated using pymatgen
data_Sr2LiCuBrO2
_symmetry_space_group_name_H-M   'P 1'
_cell_length_a   10.26738095
_cell_length_b   10.26738084
_cell_length_c   10.26738170
_cell_angle_alpha   22.87410176
_cell_angle_beta   22.87409985
_cell_angle_gamma   22.87409720
_symmetry_Int_Tables_number   1
_chemical_formula_structural   Sr2LiCuBrO2
_chemical_formula_sum   'Sr2 Li1 Cu1 Br1 O2'
_cell_volume   143.51030382
_cell_formula_units_Z   1
loop_
 _symmetry_equiv_pos_site_id
 _symmetry_equiv_pos_as_xyz
  1  'x, y, z'
loop_
 _atom_site_type_symbol
 _atom_site_label
 _atom_site_symmetry_multiplicity
 _atom_site_fract_x
 _atom_site_fract_y
 _atom_site_fract_z
 _atom_site_occupancy
  Sr  Sr0  1  0.24694800  0.24694800  0.24694800  1
  Sr  Sr1  1  0.73575500  0.73575500  0.73575500  1
  Li  Li0  1  0.13605700  0.13605700  0.13605700  1
  Cu  Cu0  1  0.50004000  0.50004000  0.50004000  1
  Br  Br0  1  0.99726800  0.99726800  0.99726800  1
  O  O0  1  0.43363200  0.43363200  0.43363200  1
  O  O1  1  0.56280000  0.56280000  0.56280000  1
loop_
_geom_bond_atom_site_label_1
_geom_bond_atom_site_label_2
_geom_bond_distance
_geom_bond_site_symmetry_2
Li0 O0 2.583842 1_455
Li0 O0 2.583842 1_545
Li0 O0 2.583843 1_554
Cu0 O1 1.881787 1_555
Cu0 O0 1.991168 1_555
Cu0 Li0 2.524131 1_655
Cu0 Li0 2.524132 1_565
Cu0 Li0 2.524132 1_556
Br0 Sr1 3.188109 1_655
Br0 Sr1 3.188109 1_565
Br0 Sr1 3.188109 1_556
Br0 Sr0 3.437732 1_566
Br0 Sr0 3.437732 1_656
Br0 Sr0 3.437733 1_665
O0 Sr1 2.530300 1_455
O0 Sr1 2.530300 1_545
O0 Sr1 2.530301 1_554
O1 Sr0 2.408615 1_655
O1 Sr0 2.408615 1_565
O1 Sr0 2.408616 1_556
