# generated using pymatgen
data_BaMg30ZnO32
_symmetry_space_group_name_H-M   'P 1'
_cell_length_a   8.65941200
_cell_length_b   8.65941200
_cell_length_c   8.66458800
_cell_angle_alpha   90.00000000
_cell_angle_beta   90.00000000
_cell_angle_gamma   90.00000000
_symmetry_Int_Tables_number   1
_chemical_formula_structural   BaMg30ZnO32
_chemical_formula_sum   'Ba1 Mg30 Zn1 O32'
_cell_volume   649.71773726
_cell_formula_units_Z   1
loop_
 _symmetry_equiv_pos_site_id
 _symmetry_equiv_pos_as_xyz
  1  'x, y, z'
loop_
 _atom_site_type_symbol
 _atom_site_label
 _atom_site_symmetry_multiplicity
 _atom_site_fract_x
 _atom_site_fract_y
 _atom_site_fract_z
 _atom_site_occupancy
  Ba  Ba0  1  0.50000000  0.50000000  0.00000000  1
  Mg  Mg0  1  0.00000000  0.50000000  0.00000000  1
  Mg  Mg1  1  0.50000000  0.00000000  0.00000000  1
  Mg  Mg2  1  0.00000000  0.00000000  0.50000000  1
  Mg  Mg3  1  0.00000000  0.50000000  0.50000000  1
  Mg  Mg4  1  0.50000000  0.00000000  0.50000000  1
  Mg  Mg5  1  0.50000000  0.50000000  0.50000000  1
  Mg  Mg6  1  0.24257700  0.24257700  0.00000000  1
  Mg  Mg7  1  0.24257700  0.75742300  0.00000000  1
  Mg  Mg8  1  0.75742300  0.24257700  0.00000000  1
  Mg  Mg9  1  0.75742300  0.75742300  0.00000000  1
  Mg  Mg10  1  0.24929700  0.24929700  0.50000000  1
  Mg  Mg11  1  0.24929700  0.75070300  0.50000000  1
  Mg  Mg12  1  0.75070300  0.24929700  0.50000000  1
  Mg  Mg13  1  0.75070300  0.75070300  0.50000000  1
  Mg  Mg14  1  0.00000000  0.24932100  0.25073100  1
  Mg  Mg15  1  0.00000000  0.75067900  0.25073100  1
  Mg  Mg16  1  0.50000000  0.24253500  0.25731100  1
  Mg  Mg17  1  0.50000000  0.75746500  0.25731100  1
  Mg  Mg18  1  0.00000000  0.24932100  0.74926900  1
  Mg  Mg19  1  0.00000000  0.75067900  0.74926900  1
  Mg  Mg20  1  0.50000000  0.24253500  0.74268900  1
  Mg  Mg21  1  0.50000000  0.75746500  0.74268900  1
  Mg  Mg22  1  0.24932100  0.00000000  0.25073100  1
  Mg  Mg23  1  0.24253500  0.50000000  0.25731100  1
  Mg  Mg24  1  0.75067900  0.00000000  0.25073100  1
  Mg  Mg25  1  0.75746500  0.50000000  0.25731100  1
  Mg  Mg26  1  0.24932100  0.00000000  0.74926900  1
  Mg  Mg27  1  0.24253500  0.50000000  0.74268900  1
  Mg  Mg28  1  0.75067900  0.00000000  0.74926900  1
  Mg  Mg29  1  0.75746500  0.50000000  0.74268900  1
  Zn  Zn0  1  0.00000000  0.00000000  0.00000000  1
  O  O0  1  0.00000000  0.00000000  0.25515700  1
  O  O1  1  0.00000000  0.50000000  0.25599300  1
  O  O2  1  0.50000000  0.00000000  0.25599300  1
  O  O3  1  0.50000000  0.50000000  0.27884800  1
  O  O4  1  0.00000000  0.00000000  0.74484300  1
  O  O5  1  0.00000000  0.50000000  0.74400700  1
  O  O6  1  0.50000000  0.00000000  0.74400700  1
  O  O7  1  0.50000000  0.50000000  0.72115200  1
  O  O8  1  0.25034700  0.25034700  0.24915100  1
  O  O9  1  0.25034700  0.74965300  0.24915100  1
  O  O10  1  0.74965300  0.25034700  0.24915100  1
  O  O11  1  0.74965300  0.74965300  0.24915100  1
  O  O12  1  0.25034700  0.25034700  0.75084900  1
  O  O13  1  0.25034700  0.74965300  0.75084900  1
  O  O14  1  0.74965300  0.25034700  0.75084900  1
  O  O15  1  0.74965300  0.74965300  0.75084900  1
  O  O16  1  0.00000000  0.24748300  0.00000000  1
  O  O17  1  0.00000000  0.75251700  0.00000000  1
  O  O18  1  0.50000000  0.22122500  0.00000000  1
  O  O19  1  0.50000000  0.77877500  0.00000000  1
  O  O20  1  0.00000000  0.24899300  0.50000000  1
  O  O21  1  0.00000000  0.75100700  0.50000000  1
  O  O22  1  0.50000000  0.24420200  0.50000000  1
  O  O23  1  0.50000000  0.75579800  0.50000000  1
  O  O24  1  0.24748300  0.00000000  0.00000000  1
  O  O25  1  0.22122500  0.50000000  0.00000000  1
  O  O26  1  0.75251700  0.00000000  0.00000000  1
  O  O27  1  0.77877500  0.50000000  0.00000000  1
  O  O28  1  0.24899300  0.00000000  0.50000000  1
  O  O29  1  0.24420200  0.50000000  0.50000000  1
  O  O30  1  0.75100700  0.00000000  0.50000000  1
  O  O31  1  0.75579800  0.50000000  0.50000000  1
loop_
_geom_bond_atom_site_label_1
_geom_bond_atom_site_label_2
_geom_bond_distance
_geom_bond_site_symmetry_2
Ba0 O25 2.414028 1_555
Ba0 O18 2.414028 1_555
Ba0 O19 2.414028 1_555
Ba0 O27 2.414028 1_555
Ba0 O3 2.416103 1_555
Ba0 O7 2.416103 1_554
Mg0 O25 1.915678 1_555
Mg0 O27 1.915678 1_455
Mg0 O17 2.186649 1_555
Mg0 O16 2.186649 1_555
Mg0 O5 2.218074 1_554
Mg0 O1 2.218074 1_555
Mg1 O19 1.915678 1_545
Mg1 O18 1.915678 1_555
Mg1 O26 2.186649 1_555
Mg1 O24 2.186649 1_555
Mg1 O6 2.218074 1_554
Mg1 O2 2.218074 1_555
Mg2 O0 2.121464 1_555
Mg2 O4 2.121464 1_555
Mg2 O28 2.156133 1_555
Mg2 O20 2.156133 1_555
Mg2 O21 2.156133 1_545
Mg2 O30 2.156133 1_455
Mg3 O1 2.114220 1_555
Mg3 O5 2.114220 1_555
Mg3 O29 2.114646 1_555
Mg3 O31 2.114646 1_455
Mg3 O21 2.173573 1_555
Mg3 O20 2.173573 1_555
Mg4 O2 2.114220 1_555
Mg4 O6 2.114220 1_555
Mg4 O22 2.114646 1_555
Mg4 O23 2.114646 1_545
Mg4 O28 2.173573 1_555
Mg4 O30 2.173573 1_555
Mg5 O7 1.916191 1_555
Mg5 O3 1.916191 1_555
Mg5 O29 2.215060 1_555
Mg5 O31 2.215060 1_555
Mg5 O22 2.215060 1_555
Mg5 O23 2.215060 1_555
Mg6 O24 2.101004 1_555
Mg6 O16 2.101004 1_555
Mg6 O8 2.160887 1_555
Mg6 O12 2.160887 1_554
Mg6 O18 2.236787 1_555
Mg6 O25 2.236787 1_555
Mg7 O17 2.101004 1_555
Mg7 O24 2.101004 1_565
Mg7 O9 2.160887 1_555
Mg7 O13 2.160887 1_554
Mg7 O25 2.236787 1_555
Mg7 O19 2.236787 1_555
Mg8 O26 2.101004 1_555
Mg8 O16 2.101004 1_655
Mg8 O14 2.160887 1_554
Mg8 O10 2.160887 1_555
Mg8 O18 2.236787 1_555
Mg8 O27 2.236787 1_555
Mg9 O26 2.101004 1_565
Mg9 O17 2.101004 1_655
Mg9 O11 2.160887 1_555
Mg9 O15 2.160887 1_554
Mg9 O19 2.236787 1_555
Mg9 O27 2.236787 1_555
Mg10 O20 2.158767 1_555
Mg10 O28 2.158767 1_555
Mg10 O22 2.171389 1_555
Mg10 O29 2.171389 1_555
Mg10 O12 2.173541 1_555
Mg10 O8 2.173541 1_555
Mg11 O21 2.158767 1_555
Mg11 O28 2.158767 1_565
Mg11 O23 2.171389 1_555
Mg11 O29 2.171389 1_555
Mg11 O9 2.173541 1_555
Mg11 O13 2.173541 1_555
Mg12 O20 2.158767 1_655
Mg12 O30 2.158767 1_555
Mg12 O31 2.171389 1_555
Mg12 O22 2.171389 1_555
Mg12 O10 2.173541 1_555
Mg12 O14 2.173541 1_555
Mg13 O21 2.158767 1_655
Mg13 O30 2.158767 1_565
Mg13 O31 2.171389 1_555
Mg13 O23 2.171389 1_555
Mg13 O11 2.173541 1_555
Mg13 O15 2.173541 1_555
Mg14 O0 2.159314 1_555
Mg14 O20 2.159815 1_555
Mg14 O8 2.167919 1_555
Mg14 O10 2.167919 1_455
Mg14 O1 2.171211 1_555
Mg14 O16 2.172539 1_555
Mg15 O0 2.159314 1_565
Mg15 O21 2.159815 1_555
Mg15 O9 2.167919 1_555
Mg15 O11 2.167919 1_455
Mg15 O1 2.171211 1_555
Mg15 O17 2.172539 1_555
Mg16 O2 2.100242 1_555
Mg16 O22 2.102850 1_555
Mg16 O10 2.164062 1_555
Mg16 O8 2.164062 1_555
Mg16 O18 2.237117 1_555
Mg16 O3 2.237291 1_555
Mg17 O2 2.100242 1_565
Mg17 O23 2.102850 1_555
Mg17 O9 2.164062 1_555
Mg17 O11 2.164062 1_555
Mg17 O19 2.237117 1_555
Mg17 O3 2.237291 1_555
Mg18 O4 2.159314 1_555
Mg18 O20 2.159815 1_555
Mg18 O14 2.167919 1_455
Mg18 O12 2.167919 1_555
Mg18 O5 2.171211 1_555
Mg18 O16 2.172539 1_556
Mg19 O4 2.159314 1_565
Mg19 O21 2.159815 1_555
Mg19 O15 2.167919 1_455
Mg19 O13 2.167919 1_555
Mg19 O5 2.171211 1_555
Mg19 O17 2.172539 1_556
Mg20 O6 2.100242 1_555
Mg20 O22 2.102850 1_555
Mg20 O12 2.164062 1_555
Mg20 O14 2.164062 1_555
Mg20 O18 2.237117 1_556
Mg20 O7 2.237291 1_555
Mg21 O6 2.100242 1_565
Mg21 O23 2.102850 1_555
Mg21 O13 2.164062 1_555
Mg21 O15 2.164062 1_555
Mg21 O19 2.237117 1_556
Mg21 O7 2.237291 1_555
Mg22 O0 2.159314 1_555
Mg22 O28 2.159815 1_555
Mg22 O8 2.167919 1_555
Mg22 O9 2.167919 1_545
Mg22 O2 2.171211 1_555
Mg22 O24 2.172539 1_555
Mg23 O1 2.100242 1_555
Mg23 O29 2.102850 1_555
Mg23 O9 2.164062 1_555
Mg23 O8 2.164062 1_555
Mg23 O25 2.237117 1_555
Mg23 O3 2.237291 1_555
Mg24 O0 2.159314 1_655
Mg24 O30 2.159815 1_555
Mg24 O11 2.167919 1_545
Mg24 O10 2.167919 1_555
Mg24 O2 2.171211 1_555
Mg24 O26 2.172539 1_555
Mg25 O1 2.100242 1_655
Mg25 O31 2.102850 1_555
Mg25 O10 2.164062 1_555
Mg25 O11 2.164062 1_555
Mg25 O27 2.237117 1_555
Mg25 O3 2.237291 1_555
Mg26 O4 2.159314 1_555
Mg26 O28 2.159815 1_555
Mg26 O13 2.167919 1_545
Mg26 O12 2.167919 1_555
Mg26 O6 2.171211 1_555
Mg26 O24 2.172539 1_556
Mg27 O5 2.100242 1_555
Mg27 O29 2.102850 1_555
Mg27 O13 2.164062 1_555
Mg27 O12 2.164062 1_555
Mg27 O25 2.237117 1_556
Mg27 O7 2.237291 1_555
Mg28 O4 2.159314 1_655
Mg28 O30 2.159815 1_555
Mg28 O14 2.167919 1_555
Mg28 O15 2.167919 1_545
Mg28 O6 2.171211 1_555
Mg28 O26 2.172539 1_556
Mg29 O5 2.100242 1_655
Mg29 O31 2.102850 1_555
Mg29 O14 2.164062 1_555
Mg29 O15 2.164062 1_555
Mg29 O27 2.237117 1_556
Mg29 O7 2.237291 1_555
O0 Zn0 2.210830 1_555
O4 Zn0 2.210830 1_556
O16 Zn0 2.143057 1_555
O17 Zn0 2.143057 1_565
O24 Zn0 2.143057 1_555
O26 Zn0 2.143057 1_655
