# generated using pymatgen
data_TbGa4Ni
_symmetry_space_group_name_H-M   'P 1'
_cell_length_a   4.14235300
_cell_length_b   6.55140300
_cell_length_c   7.90599851
_cell_angle_alpha   90.00000000
_cell_angle_beta   105.18730682
_cell_angle_gamma   90.00000000
_symmetry_Int_Tables_number   1
_chemical_formula_structural   TbGa4Ni
_chemical_formula_sum   'Tb2 Ga8 Ni2'
_cell_volume   207.06133727
_cell_formula_units_Z   2
loop_
 _symmetry_equiv_pos_site_id
 _symmetry_equiv_pos_as_xyz
  1  'x, y, z'
loop_
 _atom_site_type_symbol
 _atom_site_label
 _atom_site_symmetry_multiplicity
 _atom_site_fract_x
 _atom_site_fract_y
 _atom_site_fract_z
 _atom_site_occupancy
  Tb  Tb0  1  0.88156200  0.75000000  0.76312400  1
  Tb  Tb1  1  0.11843800  0.25000000  0.23687600  1
  Ga  Ga0  1  0.50000000  0.50000000  0.00000000  1
  Ga  Ga1  1  0.50000000  0.00000000  0.00000000  1
  Ga  Ga2  1  0.07176500  0.75000000  0.14353000  1
  Ga  Ga3  1  0.92823500  0.25000000  0.85647000  1
  Ga  Ga4  1  0.68528700  0.55148100  0.37057400  1
  Ga  Ga5  1  0.31471300  0.44851900  0.62942600  1
  Ga  Ga6  1  0.68528700  0.94851900  0.37057400  1
  Ga  Ga7  1  0.31471300  0.05148100  0.62942600  1
  Ni  Ni0  1  0.22498700  0.75000000  0.44997400  1
  Ni  Ni1  1  0.77501300  0.25000000  0.55002600  1
loop_
_geom_bond_atom_site_label_1
_geom_bond_atom_site_label_2
_geom_bond_distance
_geom_bond_site_symmetry_2
Ga0 Ga4 2.847479 1_555
Ga0 Ga5 2.847479 1_554
Ga0 Ga2 2.858602 1_655
Ga0 Ga3 2.858602 1_454
Ga0 Ga3 2.858602 1_554
Ga0 Ga2 2.858602 1_555
Ga0 Tb1 3.199810 1_655
Ga0 Tb0 3.199810 1_454
Ga0 Tb1 3.199811 1_555
Ga0 Tb0 3.199811 1_554
Ga1 Ga6 2.847479 1_545
Ga1 Ga7 2.847479 1_554
Ga1 Ga2 2.858602 1_645
Ga1 Ga3 2.858602 1_454
Ga1 Ga3 2.858602 1_554
Ga1 Ga2 2.858602 1_545
Ga1 Tb1 3.199810 1_655
Ga1 Tb0 3.199810 1_444
Ga1 Tb1 3.199811 1_555
Ga1 Tb0 3.199811 1_544
Ga2 Ni0 2.338130 1_555
Ga2 Tb0 2.902451 1_454
Ga2 Ga4 2.997032 1_555
Ga2 Ga6 2.997032 1_555
Ga2 Ga6 2.997032 1_455
Ga2 Ga4 2.997032 1_455
Ga2 Tb1 3.352234 1_555
Ga2 Tb1 3.352234 1_565
Ga3 Ni1 2.338130 1_555
Ga3 Tb1 2.902451 1_656
Ga3 Ga5 2.997032 1_555
Ga3 Ga7 2.997032 1_555
Ga3 Ga5 2.997032 1_655
Ga3 Ga7 2.997032 1_655
Ga3 Tb0 3.352234 1_555
Ga3 Tb0 3.352234 1_545
Ga4 Ni1 2.403292 1_555
Ga4 Ni0 2.519580 1_655
Ga4 Ni0 2.519580 1_555
Ga4 Ga6 2.601156 1_555
Ga4 Ga5 2.940314 1_655
Ga4 Ga5 2.940314 1_555
Ga4 Tb1 3.038336 1_555
Ga4 Tb1 3.038336 1_655
Ga4 Tb0 3.265299 1_555
Ga5 Ni0 2.403292 1_555
Ga5 Ni1 2.519580 1_455
Ga5 Ni1 2.519580 1_555
Ga5 Ga7 2.601156 1_555
Ga5 Tb0 3.038336 1_555
Ga5 Tb0 3.038336 1_455
Ga5 Tb1 3.265299 1_555
Ga6 Ni1 2.403292 1_565
Ga6 Ni0 2.519580 1_655
Ga6 Ni0 2.519580 1_555
Ga6 Ga7 2.940314 1_665
Ga6 Ga7 2.940314 1_565
Ga6 Tb1 3.038336 1_565
Ga6 Tb1 3.038336 1_665
Ga6 Tb0 3.265299 1_555
Ga7 Ni0 2.403292 1_545
Ga7 Ni1 2.519580 1_455
Ga7 Ni1 2.519580 1_555
Ga7 Tb0 3.038336 1_545
Ga7 Tb0 3.038336 1_445
Ga7 Tb1 3.265299 1_555
Ni0 Tb0 3.162042 1_555
Ni0 Tb0 3.162042 1_455
Ni1 Tb1 3.162042 1_555
Ni1 Tb1 3.162042 1_655
