# generated using pymatgen
data_Ta3CoS6
_symmetry_space_group_name_H-M   'P 1'
_cell_length_a   5.78406347
_cell_length_b   5.78406163
_cell_length_c   12.02255026
_cell_angle_alpha   89.99993517
_cell_angle_beta   90.00005681
_cell_angle_gamma   119.99998238
_symmetry_Int_Tables_number   1
_chemical_formula_structural   Ta3CoS6
_chemical_formula_sum   'Ta6 Co2 S12'
_cell_volume   348.33191850
_cell_formula_units_Z   2
loop_
 _symmetry_equiv_pos_site_id
 _symmetry_equiv_pos_as_xyz
  1  'x, y, z'
loop_
 _atom_site_type_symbol
 _atom_site_label
 _atom_site_symmetry_multiplicity
 _atom_site_fract_x
 _atom_site_fract_y
 _atom_site_fract_z
 _atom_site_occupancy
  Ta  Ta0  1  0.00000018  0.00000076  -0.00000072  1
  Ta  Ta1  1  0.00000020  -0.00000052  0.50000155  1
  Ta  Ta2  1  0.33333307  0.66666618  0.50132288  1
  Ta  Ta3  1  0.66666647  0.33333330  0.00132702  1
  Ta  Ta4  1  0.66666666  0.33333259  0.49867341  1
  Ta  Ta5  1  0.33333396  0.66666717  0.99867608  1
  Co  Co0  1  0.33333308  0.66666697  0.24997227  1
  Co  Co1  1  0.66666692  0.33333316  0.75002748  1
  S  S0  1  0.33241780  -0.00010784  0.12911130  1
  S  S1  1  0.00010819  0.33252590  0.12911115  1
  S  S2  1  0.66758066  0.00010226  0.62904693  1
  S  S3  1  -0.00010335  0.33241961  0.87088843  1
  S  S4  1  0.66747423  0.66758249  0.12911132  1
  S  S5  1  -0.00010299  0.66747775  0.62904677  1
  S  S6  1  0.33252290  0.00010347  0.87088852  1
  S  S7  1  0.00010680  0.66758207  0.37095310  1
  S  S8  1  0.33252196  0.33241918  0.62904691  1
  S  S9  1  0.66747524  -0.00010740  0.37095317  1
  S  S10  1  0.66758054  0.66747740  0.87088834  1
  S  S11  1  0.33241749  0.33252452  0.37095308  1
loop_
_geom_bond_atom_site_label_1
_geom_bond_atom_site_label_2
_geom_bond_distance
_geom_bond_site_symmetry_2
Co0 S0 2.415875 1_565
Co0 S1 2.415879 1_555
Co0 S4 2.415880 1_555
Co0 S9 2.416750 1_565
Co0 S7 2.416750 1_555
Co0 S11 2.416750 1_555
Co1 S3 2.415892 1_655
Co1 S6 2.415896 1_555
Co1 S10 2.415898 1_555
Co1 S5 2.416764 1_655
Co1 S8 2.416764 1_555
Co1 S2 2.416765 1_555
S0 Ta3 2.467569 1_555
S0 Ta0 2.471350 1_555
S0 Ta5 2.486812 1_544
S1 Ta3 2.467569 1_455
S1 Ta0 2.471347 1_555
S1 Ta5 2.486812 1_554
S2 Ta2 2.467105 1_545
S2 Ta1 2.470845 1_655
S2 Ta4 2.486361 1_555
S3 Ta5 2.467583 1_555
S3 Ta0 2.471334 1_556
S3 Ta3 2.486856 1_456
S4 Ta3 2.467572 1_555
S4 Ta0 2.471352 1_665
S4 Ta5 2.486808 1_554
S5 Ta2 2.467104 1_555
S5 Ta1 2.470837 1_565
S5 Ta4 2.486364 1_455
S6 Ta5 2.467578 1_545
S6 Ta0 2.471340 1_556
S6 Ta3 2.486853 1_556
S7 Ta4 2.467090 1_455
S7 Ta1 2.470867 1_565
S7 Ta2 2.486319 1_555
S8 Ta2 2.467101 1_555
S8 Ta1 2.470843 1_555
S8 Ta4 2.486367 1_555
S9 Ta4 2.467088 1_555
S9 Ta1 2.470868 1_655
S9 Ta2 2.486320 1_545
S10 Ta5 2.467580 1_555
S10 Ta0 2.471341 1_666
S10 Ta3 2.486853 1_556
S11 Ta4 2.467090 1_555
S11 Ta1 2.470868 1_555
S11 Ta2 2.486320 1_555
