# generated using pymatgen
data_Ga3Fe4Co8Si
_symmetry_space_group_name_H-M   'P 1'
_cell_length_a   13.24840773
_cell_length_b   13.24840773
_cell_length_c   13.24840840
_cell_angle_alpha   17.33604433
_cell_angle_beta   17.33604433
_cell_angle_gamma   17.33604700
_symmetry_Int_Tables_number   1
_chemical_formula_structural   Ga3Fe4Co8Si
_chemical_formula_sum   'Ga3 Fe4 Co8 Si1'
_cell_volume   180.17017836
_cell_formula_units_Z   1
loop_
 _symmetry_equiv_pos_site_id
 _symmetry_equiv_pos_as_xyz
  1  'x, y, z'
loop_
 _atom_site_type_symbol
 _atom_site_label
 _atom_site_symmetry_multiplicity
 _atom_site_fract_x
 _atom_site_fract_y
 _atom_site_fract_z
 _atom_site_occupancy
  Ga  Ga0  1  0.75047878  0.75047878  0.75047878  1
  Ga  Ga1  1  -0.00000000  -0.00000000  -0.00000000  1
  Ga  Ga2  1  0.24952122  0.24952122  0.24952122  1
  Fe  Fe0  1  0.62479351  0.62479351  0.62479351  1
  Fe  Fe1  1  0.37520649  0.37520649  0.37520649  1
  Fe  Fe2  1  0.87504967  0.87504967  0.87504967  1
  Fe  Fe3  1  0.12495033  0.12495033  0.12495033  1
  Co  Co0  1  0.93703195  0.93703195  0.93703195  1
  Co  Co1  1  0.68764070  0.68764070  0.68764070  1
  Co  Co2  1  0.18608823  0.18608823  0.18608823  1
  Co  Co3  1  0.43951670  0.43951670  0.43951670  1
  Co  Co4  1  0.56048330  0.56048330  0.56048330  1
  Co  Co5  1  0.31235930  0.31235930  0.31235930  1
  Co  Co6  1  0.81391177  0.81391177  0.81391177  1
  Co  Co7  1  0.06296805  0.06296805  0.06296805  1
  Si  Si0  1  0.50000000  0.50000000  0.50000000  1
loop_
_geom_bond_atom_site_label_1
_geom_bond_atom_site_label_2
_geom_bond_distance
_geom_bond_site_symmetry_2
Co0 Fe2 2.425910 1_555
Co0 Ga2 2.445621 1_665
Co0 Ga2 2.445621 1_656
Co0 Ga2 2.445621 1_566
Co0 Fe0 2.448913 1_556
Co0 Fe0 2.448913 1_565
Co0 Fe0 2.448913 1_655
Co0 Ga1 2.464492 1_666
Co1 Fe1 2.446340 1_556
Co1 Fe1 2.446340 1_565
Co1 Fe1 2.446340 1_655
Co1 Ga1 2.447322 1_665
Co1 Ga1 2.447322 1_656
Co1 Ga1 2.447322 1_566
Co1 Ga0 2.459405 1_555
Co1 Fe0 2.459762 1_555
Co2 Fe3 2.392862 1_555
Co2 Si0 2.427616 1_554
Co2 Si0 2.427616 1_455
Co2 Si0 2.427616 1_545
Co2 Fe2 2.465142 1_445
Co2 Fe2 2.465142 1_544
Co2 Fe2 2.465142 1_454
Co2 Ga2 2.482689 1_555
Co3 Si0 2.367242 1_555
Co3 Fe3 2.419716 1_556
Co3 Fe3 2.419716 1_565
Co3 Fe3 2.419716 1_655
Co3 Ga0 2.466203 1_554
Co3 Ga0 2.466203 1_455
Co3 Ga0 2.466203 1_545
Co3 Fe1 2.517022 1_555
Co4 Si0 2.367242 1_555
Co4 Fe2 2.419716 1_554
Co4 Fe2 2.419716 1_545
Co4 Fe2 2.419716 1_455
Co4 Ga2 2.466203 1_556
Co4 Ga2 2.466203 1_565
Co4 Ga2 2.466203 1_655
Co4 Fe0 2.517022 1_555
Co5 Fe0 2.446340 1_554
Co5 Fe0 2.446340 1_455
Co5 Fe0 2.446340 1_545
Co5 Ga1 2.447322 1_556
Co5 Ga1 2.447322 1_565
Co5 Ga1 2.447322 1_655
Co5 Ga2 2.459405 1_555
Co5 Fe1 2.459762 1_555
Co6 Fe2 2.392862 1_555
Co6 Si0 2.427616 1_556
Co6 Si0 2.427616 1_655
Co6 Si0 2.427616 1_565
Co6 Fe3 2.465142 1_665
Co6 Fe3 2.465142 1_566
Co6 Fe3 2.465142 1_656
Co6 Ga0 2.482689 1_555
Co7 Fe3 2.425910 1_555
Co7 Ga0 2.445621 1_445
Co7 Ga0 2.445621 1_454
Co7 Ga0 2.445621 1_544
Co7 Fe1 2.448913 1_554
Co7 Fe1 2.448913 1_545
Co7 Fe1 2.448913 1_455
Co7 Ga1 2.464492 1_555
