# generated using pymatgen
data_FeSe
_symmetry_space_group_name_H-M   'P 1'
_cell_length_a   4.03742412
_cell_length_b   4.03742412
_cell_length_c   4.40127400
_cell_angle_alpha   90.00000000
_cell_angle_beta   90.00000000
_cell_angle_gamma   108.59068066
_symmetry_Int_Tables_number   1
_chemical_formula_structural   FeSe
_chemical_formula_sum   'Fe2 Se2'
_cell_volume   68.00066310
_cell_formula_units_Z   2
loop_
 _symmetry_equiv_pos_site_id
 _symmetry_equiv_pos_as_xyz
  1  'x, y, z'
loop_
 _atom_site_type_symbol
 _atom_site_label
 _atom_site_symmetry_multiplicity
 _atom_site_fract_x
 _atom_site_fract_y
 _atom_site_fract_z
 _atom_site_occupancy
  Fe  Fe0  1  0.90373300  0.09626700  0.75000000  1
  Fe  Fe1  1  0.09626700  0.90373300  0.25000000  1
  Se  Se0  1  0.26881300  0.73118700  0.75000000  1
  Se  Se1  1  0.73118700  0.26881300  0.25000000  1
loop_
_geom_bond_atom_site_label_1
_geom_bond_atom_site_label_2
_geom_bond_distance
_geom_bond_site_symmetry_2
Fe0 Se0 2.393854 1_645
Fe0 Se1 2.474441 1_555
Fe0 Se1 2.474441 1_556
Fe0 Se0 2.516876 1_655
Fe0 Se0 2.516876 1_545
Fe1 Se1 2.393854 1_465
Fe1 Se0 2.474441 1_555
Fe1 Se0 2.474441 1_554
Fe1 Se1 2.516876 1_565
Fe1 Se1 2.516876 1_455
