# generated using pymatgen
data_CrPt
_symmetry_space_group_name_H-M   'P 1'
_cell_length_a   9.25494722
_cell_length_b   9.25494722
_cell_length_c   9.25494645
_cell_angle_alpha   33.99831853
_cell_angle_beta   33.99831853
_cell_angle_gamma   33.99830783
_symmetry_Int_Tables_number   1
_chemical_formula_structural   CrPt
_chemical_formula_sum   'Cr8 Pt8'
_cell_volume   220.93626878
_cell_formula_units_Z   8
loop_
 _symmetry_equiv_pos_site_id
 _symmetry_equiv_pos_as_xyz
  1  'x, y, z'
loop_
 _atom_site_type_symbol
 _atom_site_label
 _atom_site_symmetry_multiplicity
 _atom_site_fract_x
 _atom_site_fract_y
 _atom_site_fract_z
 _atom_site_occupancy
  Cr  Cr0_0  1  0.00000000  0.00000000  0.00000000  1
  Cr  Cr0_1  1  0.00000000  0.00000000  0.50000000  1
  Cr  Cr0_2  1  0.00000000  0.50000000  0.00000000  1
  Cr  Cr0_3  1  1.00000000  0.50000000  0.50000000  1
  Cr  Cr0_4  1  0.50000000  0.00000000  0.00000000  1
  Cr  Cr0_5  1  0.50000000  0.00000000  0.50000000  1
  Cr  Cr0_6  1  0.50000000  0.50000000  0.00000000  1
  Cr  Cr0_7  1  0.50000000  0.50000000  0.50000000  1
  Pt  Pt0_0  1  0.25000000  0.25000000  0.25000000  1
  Pt  Pt0_1  1  0.25000000  0.25000000  0.75000000  1
  Pt  Pt0_2  1  0.25000000  0.75000000  0.25000000  1
  Pt  Pt0_3  1  0.25000000  0.75000000  0.75000000  1
  Pt  Pt0_4  1  0.75000000  0.25000000  0.25000000  1
  Pt  Pt0_5  1  0.75000000  0.25000000  0.75000000  1
  Pt  Pt0_6  1  0.75000000  0.75000000  0.25000000  1
  Pt  Pt0_7  1  0.75000000  0.75000000  0.75000000  1
loop_
_geom_bond_atom_site_label_1
_geom_bond_atom_site_label_2
_geom_bond_distance
_geom_bond_site_symmetry_2
Cr0_0 Pt0_3 2.680234 1_544
Cr0_0 Pt0_5 2.680234 1_454
Cr0_0 Pt0_2 2.680234 1_545
Cr0_0 Pt0_4 2.680234 1_455
Cr0_0 Pt0_6 2.680235 1_445
Cr0_0 Pt0_1 2.680235 1_554
Cr0_0 Cr0_6 2.705754 1_545
Cr0_0 Cr0_6 2.705754 1_455
Cr0_0 Cr0_3 2.705755 1_454
Cr0_0 Cr0_5 2.705755 1_455
Cr0_0 Cr0_5 2.705755 1_554
Cr0_0 Cr0_3 2.705755 1_445
Cr0_1 Pt0_4 2.680234 1_455
Cr0_1 Pt0_2 2.680234 1_545
Cr0_1 Pt0_3 2.680234 1_545
Cr0_1 Pt0_5 2.680234 1_455
Cr0_1 Pt0_7 2.680235 1_445
Cr0_1 Pt0_0 2.680235 1_555
Cr0_1 Cr0_7 2.705754 1_545
Cr0_1 Cr0_7 2.705754 1_455
Cr0_1 Cr0_4 2.705755 1_456
Cr0_1 Cr0_2 2.705755 1_546
Cr0_1 Cr0_2 2.705755 1_555
Cr0_1 Cr0_4 2.705755 1_555
Cr0_2 Pt0_1 2.680234 1_554
Cr0_2 Pt0_7 2.680234 1_454
Cr0_2 Pt0_0 2.680234 1_555
Cr0_2 Pt0_6 2.680234 1_455
Cr0_2 Pt0_4 2.680235 1_455
Cr0_2 Pt0_3 2.680235 1_554
Cr0_2 Cr0_4 2.705754 1_465
Cr0_2 Cr0_4 2.705754 1_555
Cr0_2 Cr0_7 2.705755 1_455
Cr0_2 Cr0_7 2.705755 1_554
Cr0_3 Pt0_6 2.680234 1_555
Cr0_3 Pt0_0 2.680234 1_655
Cr0_3 Pt0_1 2.680234 1_655
Cr0_3 Pt0_7 2.680234 1_555
Cr0_3 Pt0_5 2.680235 1_555
Cr0_3 Pt0_2 2.680235 1_655
Cr0_3 Cr0_5 2.705754 1_565
Cr0_3 Cr0_5 2.705754 1_655
Cr0_3 Cr0_6 2.705755 1_556
Cr0_3 Cr0_6 2.705755 1_655
Cr0_4 Pt0_7 2.680234 1_544
Cr0_4 Pt0_1 2.680234 1_554
Cr0_4 Pt0_0 2.680234 1_555
Cr0_4 Pt0_6 2.680234 1_545
Cr0_4 Pt0_2 2.680235 1_545
Cr0_4 Pt0_5 2.680235 1_554
Cr0_4 Cr0_7 2.705755 1_545
Cr0_4 Cr0_7 2.705755 1_554
Cr0_5 Pt0_6 2.680234 1_545
Cr0_5 Pt0_0 2.680234 1_555
Cr0_5 Pt0_7 2.680234 1_545
Cr0_5 Pt0_1 2.680234 1_555
Cr0_5 Pt0_3 2.680235 1_545
Cr0_5 Pt0_4 2.680235 1_555
Cr0_5 Cr0_6 2.705755 1_546
Cr0_5 Cr0_6 2.705755 1_555
Cr0_6 Pt0_5 2.680234 1_554
Cr0_6 Pt0_3 2.680234 1_554
Cr0_6 Pt0_4 2.680234 1_555
Cr0_6 Pt0_2 2.680234 1_555
Cr0_6 Pt0_0 2.680235 1_555
Cr0_6 Pt0_7 2.680235 1_554
Cr0_7 Pt0_5 2.680234 1_555
Cr0_7 Pt0_3 2.680234 1_555
Cr0_7 Pt0_4 2.680234 1_555
Cr0_7 Pt0_2 2.680234 1_555
Cr0_7 Pt0_1 2.680235 1_555
Cr0_7 Pt0_6 2.680235 1_555
Pt0_0 Pt0_6 2.705754 1_455
Pt0_0 Pt0_6 2.705754 1_545
Pt0_0 Pt0_3 2.705755 1_554
Pt0_0 Pt0_5 2.705755 1_554
Pt0_0 Pt0_3 2.705755 1_545
Pt0_0 Pt0_5 2.705755 1_455
Pt0_1 Pt0_7 2.705754 1_545
Pt0_1 Pt0_7 2.705754 1_455
Pt0_1 Pt0_2 2.705755 1_555
Pt0_1 Pt0_4 2.705755 1_555
Pt0_1 Pt0_4 2.705755 1_456
Pt0_1 Pt0_2 2.705755 1_546
Pt0_2 Pt0_4 2.705754 1_465
Pt0_2 Pt0_4 2.705754 1_555
Pt0_2 Pt0_7 2.705755 1_455
Pt0_2 Pt0_7 2.705755 1_554
Pt0_3 Pt0_5 2.705754 1_555
Pt0_3 Pt0_5 2.705754 1_465
Pt0_3 Pt0_6 2.705755 1_456
Pt0_3 Pt0_6 2.705755 1_555
Pt0_4 Pt0_7 2.705755 1_545
Pt0_4 Pt0_7 2.705755 1_554
Pt0_5 Pt0_6 2.705755 1_555
Pt0_5 Pt0_6 2.705755 1_546
