# generated using pymatgen
data_Mg2(AlSi2)3
_symmetry_space_group_name_H-M   'P 1'
_cell_length_a   7.70650021
_cell_length_b   7.70650021
_cell_length_c   6.52870607
_cell_angle_alpha   76.68333587
_cell_angle_beta   76.68333587
_cell_angle_gamma   28.89892756
_symmetry_Int_Tables_number   1
_chemical_formula_structural   Mg2(AlSi2)3
_chemical_formula_sum   'Mg2 Al3 Si6'
_cell_volume   182.00413524
_cell_formula_units_Z   1
loop_
 _symmetry_equiv_pos_site_id
 _symmetry_equiv_pos_as_xyz
  1  'x, y, z'
loop_
 _atom_site_type_symbol
 _atom_site_label
 _atom_site_symmetry_multiplicity
 _atom_site_fract_x
 _atom_site_fract_y
 _atom_site_fract_z
 _atom_site_occupancy
  Mg  Mg0  1  0.17259800  0.17259800  0.07264600  1
  Mg  Mg1  1  0.82740200  0.82740200  0.92735400  1
  Al  Al0  1  0.91073600  0.91073600  0.44671500  1
  Al  Al1  1  0.08926400  0.08926400  0.55328500  1
  Al  Al2  1  0.00000000  0.00000000  0.00000000  1
  Si  Si0  1  0.70523000  0.70523000  0.35247700  1
  Si  Si1  1  0.29477000  0.29477000  0.64752300  1
  Si  Si2  1  0.53444700  0.53444700  0.28704900  1
  Si  Si3  1  0.46555300  0.46555300  0.71295100  1
  Si  Si4  1  0.33577000  0.33577000  0.25425500  1
  Si  Si5  1  0.66423000  0.66423000  0.74574500  1
loop_
_geom_bond_atom_site_label_1
_geom_bond_atom_site_label_2
_geom_bond_distance
_geom_bond_site_symmetry_2
Mg0 Si0 2.774170 1_455
Mg0 Si0 2.774170 1_545
Mg0 Si5 2.897449 1_544
Mg0 Si5 2.897449 1_454
Mg0 Si2 2.921618 1_545
Mg0 Si2 2.921618 1_455
Mg0 Si1 2.936130 1_554
Mg0 Si4 2.951397 1_555
Mg0 Mg1 2.982196 1_544
Mg0 Mg1 2.982196 1_454
Mg1 Si1 2.774170 1_565
Mg1 Si1 2.774170 1_655
Mg1 Si4 2.897449 1_566
Mg1 Si4 2.897449 1_656
Mg1 Si3 2.921618 1_655
Mg1 Si3 2.921618 1_565
Mg1 Si0 2.936130 1_556
Mg1 Si5 2.951397 1_555
Al0 Si4 2.682798 1_565
Al0 Si4 2.682798 1_655
Al0 Si2 2.697808 1_565
Al0 Si2 2.697808 1_655
Al0 Si1 2.707940 1_565
Al0 Si1 2.707940 1_655
Al0 Si3 2.839895 1_565
Al0 Si3 2.839895 1_655
Al0 Al2 2.903859 1_665
Al0 Al1 2.909672 1_665
Al0 Mg1 3.088215 1_555
Al1 Si5 2.682798 1_545
Al1 Si5 2.682798 1_455
Al1 Si3 2.697808 1_455
Al1 Si3 2.697808 1_545
Al1 Si0 2.707940 1_455
Al1 Si0 2.707940 1_545
Al1 Si2 2.839895 1_455
Al1 Si2 2.839895 1_545
Al1 Al2 2.903859 1_556
Al1 Mg0 3.088215 1_555
Al2 Mg0 2.728092 1_555
Al2 Mg1 2.728092 1_444
Al2 Si2 2.816490 1_545
Al2 Si2 2.816490 1_455
Al2 Si3 2.816490 1_454
Al2 Si3 2.816490 1_544
Si0 Si5 2.493844 1_555
Si0 Si2 2.682893 1_555
Si0 Si4 2.703852 1_565
Si0 Si4 2.703852 1_655
Si1 Si4 2.493844 1_555
Si1 Si3 2.682893 1_555
Si1 Si5 2.703852 1_455
Si1 Si5 2.703852 1_545
Si2 Si3 2.725594 1_555
