# generated using pymatgen
data_Mg2Ti
_symmetry_space_group_name_H-M   'P 1'
_cell_length_a   5.48921812
_cell_length_b   5.48921812
_cell_length_c   4.89199700
_cell_angle_alpha   90.00000000
_cell_angle_beta   90.00000000
_cell_angle_gamma   121.52970436
_symmetry_Int_Tables_number   1
_chemical_formula_structural   Mg2Ti
_chemical_formula_sum   'Mg4 Ti2'
_cell_volume   125.64201431
_cell_formula_units_Z   2
loop_
 _symmetry_equiv_pos_site_id
 _symmetry_equiv_pos_as_xyz
  1  'x, y, z'
loop_
 _atom_site_type_symbol
 _atom_site_label
 _atom_site_symmetry_multiplicity
 _atom_site_fract_x
 _atom_site_fract_y
 _atom_site_fract_z
 _atom_site_occupancy
  Mg  Mg0  1  0.83064700  0.49897800  0.75000000  1
  Mg  Mg1  1  0.49897800  0.83064700  0.75000000  1
  Mg  Mg2  1  0.50102200  0.16935300  0.25000000  1
  Mg  Mg3  1  0.16935300  0.50102200  0.25000000  1
  Ti  Ti0  1  0.14427400  0.14427400  0.75000000  1
  Ti  Ti1  1  0.85572600  0.85572600  0.25000000  1
loop_
_geom_bond_atom_site_label_1
_geom_bond_atom_site_label_2
_geom_bond_distance
_geom_bond_site_symmetry_2
Mg0 Mg2 3.017709 1_555
Mg0 Mg2 3.017709 1_556
Mg0 Ti0 3.022068 1_665
Mg0 Mg3 3.068869 1_655
Mg0 Mg3 3.068869 1_656
Mg0 Ti1 3.091071 1_555
Mg0 Ti1 3.091071 1_556
Mg0 Mg1 3.128545 1_655
Mg0 Mg1 3.128545 1_545
Mg0 Mg1 3.177400 1_555
Mg0 Ti0 3.203210 1_655
Mg0 Ti0 3.211514 1_555
Mg1 Mg3 3.017709 1_556
Mg1 Mg3 3.017709 1_555
Mg1 Ti0 3.022068 1_665
Mg1 Mg2 3.068869 1_565
Mg1 Mg2 3.068869 1_566
Mg1 Ti1 3.091071 1_555
Mg1 Ti1 3.091071 1_556
Mg1 Ti0 3.203210 1_565
Mg1 Ti0 3.211514 1_555
Mg2 Ti1 3.022068 1_445
Mg2 Ti0 3.091071 1_555
Mg2 Ti0 3.091071 1_554
Mg2 Mg3 3.128545 1_545
Mg2 Mg3 3.128545 1_655
Mg2 Mg3 3.177400 1_555
Mg2 Ti1 3.203210 1_545
Mg2 Ti1 3.211514 1_555
Mg3 Ti1 3.022068 1_445
Mg3 Ti0 3.091071 1_555
Mg3 Ti0 3.091071 1_554
Mg3 Ti1 3.203210 1_455
Mg3 Ti1 3.211514 1_555
Ti0 Ti1 2.894228 1_446
Ti0 Ti1 2.894228 1_445
