# generated using pymatgen
data_Zn(GaS2)2
_symmetry_space_group_name_H-M   'P 1'
_cell_length_a   3.73111889
_cell_length_b   3.73111889
_cell_length_c   24.20867700
_cell_angle_alpha   90.00000000
_cell_angle_beta   90.00000000
_cell_angle_gamma   120.00001578
_symmetry_Int_Tables_number   1
_chemical_formula_structural   Zn(GaS2)2
_chemical_formula_sum   'Zn2 Ga4 S8'
_cell_volume   291.86350539
_cell_formula_units_Z   2
loop_
 _symmetry_equiv_pos_site_id
 _symmetry_equiv_pos_as_xyz
  1  'x, y, z'
loop_
 _atom_site_type_symbol
 _atom_site_label
 _atom_site_symmetry_multiplicity
 _atom_site_fract_x
 _atom_site_fract_y
 _atom_site_fract_z
 _atom_site_occupancy
  Zn  Zn0  1  0.00000000  0.00000000  0.09176000  1
  Zn  Zn1  1  0.00000000  0.00000000  0.59176000  1
  Ga  Ga0  1  0.66666700  0.33333300  0.24732800  1
  Ga  Ga1  1  0.33333300  0.66666700  0.74732800  1
  Ga  Ga2  1  0.33333300  0.66666700  0.40094500  1
  Ga  Ga3  1  0.66666700  0.33333300  0.90094500  1
  S  S0  1  0.00000000  0.00000000  0.44027000  1
  S  S1  1  0.00000000  0.00000000  0.94027000  1
  S  S2  1  0.33333300  0.66666700  0.30690000  1
  S  S3  1  0.66666700  0.33333300  0.80690000  1
  S  S4  1  0.00000000  0.00000000  0.19910000  1
  S  S5  1  0.00000000  0.00000000  0.69910000  1
  S  S6  1  0.66666700  0.33333300  0.06319900  1
  S  S7  1  0.33333300  0.66666700  0.56319900  1
loop_
_geom_bond_atom_site_label_1
_geom_bond_atom_site_label_2
_geom_bond_distance
_geom_bond_site_symmetry_2
Ga0 S4 2.450214 1_655
Ga0 S4 2.450216 1_555
Ga0 S4 2.450216 1_665
Ga0 S2 2.592340 1_545
Ga0 S2 2.592340 1_655
Ga0 S2 2.592346 1_555
Ga1 S5 2.450214 1_565
Ga1 S5 2.450216 1_555
Ga1 S5 2.450216 1_665
Ga1 S3 2.592340 1_455
Ga1 S3 2.592340 1_565
Ga1 S3 2.592346 1_555
Ga2 S2 2.276705 1_555
Ga2 S0 2.355148 1_565
Ga2 S0 2.355151 1_665
Ga2 S0 2.355151 1_555
Ga3 S3 2.276705 1_555
Ga3 S1 2.355148 1_655
Ga3 S1 2.355151 1_555
Ga3 S1 2.355151 1_665
S4 Zn0 2.598559 1_555
S5 Zn1 2.598559 1_555
S6 Zn0 2.262405 1_655
S6 Zn0 2.262407 1_665
S6 Zn0 2.262407 1_555
S7 Zn1 2.262405 1_565
S7 Zn1 2.262407 1_665
S7 Zn1 2.262407 1_555
