# generated using pymatgen
data_Ti3Zn2O8
_symmetry_space_group_name_H-M   'P 1'
_cell_length_a   6.04369321
_cell_length_b   6.04369321
_cell_length_c   5.01700402
_cell_angle_alpha   70.62917803
_cell_angle_beta   70.62917803
_cell_angle_gamma   59.42660600
_symmetry_Int_Tables_number   1
_chemical_formula_structural   Ti3Zn2O8
_chemical_formula_sum   'Ti3 Zn2 O8'
_cell_volume   145.81776362
_cell_formula_units_Z   1
loop_
 _symmetry_equiv_pos_site_id
 _symmetry_equiv_pos_as_xyz
  1  'x, y, z'
loop_
 _atom_site_type_symbol
 _atom_site_label
 _atom_site_symmetry_multiplicity
 _atom_site_fract_x
 _atom_site_fract_y
 _atom_site_fract_z
 _atom_site_occupancy
  Ti  Ti0  1  0.00000000  0.00000000  0.50000000  1
  Ti  Ti1  1  0.73303100  0.26696900  0.00000000  1
  Ti  Ti2  1  0.26696900  0.73303100  0.00000000  1
  Zn  Zn0  1  0.71499500  0.71499500  0.34811200  1
  Zn  Zn1  1  0.28500500  0.28500500  0.65188800  1
  O  O0  1  0.39465400  0.39465400  0.92668700  1
  O  O1  1  0.60534600  0.60534600  0.07331300  1
  O  O2  1  0.89231200  0.89231200  0.92151700  1
  O  O3  1  0.10768800  0.10768800  0.07848300  1
  O  O4  1  0.34097400  0.88704000  0.59004900  1
  O  O5  1  0.88704000  0.34097400  0.59004900  1
  O  O6  1  0.11296000  0.65902600  0.40995100  1
  O  O7  1  0.65902600  0.11296000  0.40995100  1
loop_
_geom_bond_atom_site_label_1
_geom_bond_atom_site_label_2
_geom_bond_distance
_geom_bond_site_symmetry_2
O0 Ti2 1.902177 1_556
O0 Ti1 1.902177 1_556
O0 Zn1 2.106631 1_555
O1 Ti1 1.902177 1_555
O1 Ti2 1.902177 1_555
O1 Zn0 2.106631 1_555
O2 Ti0 1.980963 1_665
O2 Ti2 2.081207 1_656
O2 Ti1 2.081207 1_566
O2 Zn0 2.236691 1_556
O3 Ti0 1.980963 1_555
O3 Ti1 2.081207 1_455
O3 Ti2 2.081207 1_545
O3 Zn1 2.236691 1_554
O4 Ti2 1.959562 1_556
O4 Ti0 1.974499 1_565
O4 Zn0 2.071298 1_555
O4 Zn1 2.365017 1_565
O5 Ti1 1.959562 1_556
O5 Ti0 1.974499 1_655
O5 Zn0 2.071298 1_555
O5 Zn1 2.365017 1_655
O6 Ti2 1.959562 1_555
O6 Ti0 1.974499 1_565
O6 Zn1 2.071298 1_555
O6 Zn0 2.365017 1_455
O7 Ti1 1.959562 1_555
O7 Ti0 1.974499 1_655
O7 Zn1 2.071298 1_555
O7 Zn0 2.365017 1_545
