# generated using pymatgen
data_LiCu6OF11
_symmetry_space_group_name_H-M   'P 1'
_cell_length_a   5.45348398
_cell_length_b   4.65314165
_cell_length_c   9.06419284
_cell_angle_alpha   93.28953397
_cell_angle_beta   91.49671982
_cell_angle_gamma   87.66469634
_symmetry_Int_Tables_number   1
_chemical_formula_structural   LiCu6OF11
_chemical_formula_sum   'Li1 Cu6 O1 F11'
_cell_volume   229.37653246
_cell_formula_units_Z   1
loop_
 _symmetry_equiv_pos_site_id
 _symmetry_equiv_pos_as_xyz
  1  'x, y, z'
loop_
 _atom_site_type_symbol
 _atom_site_label
 _atom_site_symmetry_multiplicity
 _atom_site_fract_x
 _atom_site_fract_y
 _atom_site_fract_z
 _atom_site_occupancy
  Li  Li0  1  0.86301200  0.23174800  0.53372000  1
  Cu  Cu0  1  0.00807500  0.01009600  0.00180900  1
  Cu  Cu1  1  0.49768000  0.53597900  0.02913200  1
  Cu  Cu2  1  0.34085400  0.00588600  0.30986400  1
  Cu  Cu3  1  0.81772000  0.53070400  0.30185400  1
  Cu  Cu4  1  0.18083600  0.50499500  0.69210700  1
  Cu  Cu5  1  0.64423500  0.93765500  0.71421000  1
  O  O0  1  0.54880700  0.72852700  0.22131300  1
  F  F0  1  0.27608000  0.22264000  0.08139900  1
  F  F1  1  0.05431500  0.80046100  0.24512000  1
  F  F2  1  0.79026300  0.29776900  0.07776000  1
  F  F3  1  0.10024200  0.29886500  0.39543000  1
  F  F4  1  0.61029800  0.23178700  0.39241600  1
  F  F5  1  0.37082400  0.78456400  0.59976100  1
  F  F6  1  0.87163100  0.66570600  0.59872000  1
  F  F7  1  0.46825400  0.29760200  0.77915000  1
  F  F8  1  0.22257200  0.72141100  0.91771800  1
  F  F9  1  0.96440400  0.18637700  0.73222700  1
  F  F10  1  0.73239800  0.79889500  0.92316300  1
loop_
_geom_bond_atom_site_label_1
_geom_bond_atom_site_label_2
_geom_bond_distance
_geom_bond_site_symmetry_2
Cu0 F2 1.866569 1_455
Cu0 F8 1.885406 1_544
Cu0 F0 1.901462 1_555
Cu0 F10 1.928263 1_444
Cu0 F1 2.465111 1_545
Cu1 O0 1.931525 1_555
Cu1 F2 1.960616 1_555
Cu1 F8 1.982573 1_554
Cu1 F0 2.015805 1_555
Cu1 F10 2.093910 1_554
Cu1 F7 2.469289 1_554
Cu2 O0 1.845363 1_545
Cu2 F1 1.925970 1_545
Cu2 F4 1.949910 1_555
Cu2 F3 1.991955 1_555
Cu2 F0 2.367045 1_555
Cu3 O0 1.855294 1_555
Cu3 F1 1.935339 1_655
Cu3 F3 2.039198 1_655
Cu3 F4 2.048353 1_555
Cu3 F2 2.251175 1_555
Cu4 F5 1.935593 1_555
Cu4 F7 1.977398 1_555
Cu4 F9 1.987537 1_455
Cu4 F6 2.003617 1_455
Cu4 F8 2.237378 1_555
Cu5 F5 1.930745 1_555
Cu5 F7 1.964214 1_565
Cu5 F6 2.005711 1_555
Cu5 F10 2.074302 1_555
Cu5 F9 2.131394 1_565
F3 Li0 1.872183 1_455
F4 Li0 1.856776 1_555
F6 Li0 2.072808 1_555
F9 Li0 1.889424 1_555
