# generated using pymatgen
data_Li12Al3Si4
_symmetry_space_group_name_H-M   'P 1'
_cell_length_a   9.11100987
_cell_length_b   9.11100987
_cell_length_c   9.11100987
_cell_angle_alpha   109.47122063
_cell_angle_beta   109.47122063
_cell_angle_gamma   109.47122063
_symmetry_Int_Tables_number   1
_chemical_formula_structural   Li12Al3Si4
_chemical_formula_sum   'Li24 Al6 Si8'
_cell_volume   582.20731849
_cell_formula_units_Z   2
loop_
 _symmetry_equiv_pos_site_id
 _symmetry_equiv_pos_as_xyz
  1  'x, y, z'
loop_
 _atom_site_type_symbol
 _atom_site_label
 _atom_site_symmetry_multiplicity
 _atom_site_fract_x
 _atom_site_fract_y
 _atom_site_fract_z
 _atom_site_occupancy
  Li  Li0  1  0.65394500  0.19028000  0.26878700  1
  Li  Li1  1  0.61484200  0.34605500  0.03633500  1
  Li  Li2  1  0.80972000  0.57850700  0.46366500  1
  Li  Li3  1  0.92149300  0.73121300  0.88515800  1
  Li  Li4  1  0.57850700  0.46366500  0.80972000  1
  Li  Li5  1  0.03633500  0.61484200  0.34605500  1
  Li  Li6  1  0.73121300  0.88515800  0.92149300  1
  Li  Li7  1  0.96366500  0.07850700  0.30972000  1
  Li  Li8  1  0.38515800  0.23121300  0.42149300  1
  Li  Li9  1  0.23121300  0.42149300  0.38515800  1
  Li  Li10  1  0.11484200  0.53633500  0.84605500  1
  Li  Li11  1  0.26878700  0.65394500  0.19028000  1
  Li  Li12  1  0.19028000  0.26878700  0.65394500  1
  Li  Li13  1  0.30972000  0.96366500  0.07850700  1
  Li  Li14  1  0.53633500  0.84605500  0.11484200  1
  Li  Li15  1  0.42149300  0.38515800  0.23121300  1
  Li  Li16  1  0.84605500  0.11484200  0.53633500  1
  Li  Li17  1  0.07850700  0.30972000  0.96366500  1
  Li  Li18  1  0.69028000  0.15394500  0.76878700  1
  Li  Li19  1  0.34605500  0.03633500  0.61484200  1
  Li  Li20  1  0.46366500  0.80972000  0.57850700  1
  Li  Li21  1  0.88515800  0.92149300  0.73121300  1
  Li  Li22  1  0.15394500  0.76878700  0.69028000  1
  Li  Li23  1  0.76878700  0.69028000  0.15394500  1
  Al  Al0  1  0.62500000  0.75000000  0.37500000  1
  Al  Al1  1  0.75000000  0.37500000  0.62500000  1
  Al  Al2  1  0.25000000  0.12500000  0.87500000  1
  Al  Al3  1  0.37500000  0.62500000  0.75000000  1
  Al  Al4  1  0.12500000  0.87500000  0.25000000  1
  Al  Al5  1  0.87500000  0.25000000  0.12500000  1
  Si  Si0  1  0.50000000  0.00000000  0.40840600  1
  Si  Si1  1  0.90840600  0.50000000  0.00000000  1
  Si  Si2  1  0.00000000  0.90840600  0.50000000  1
  Si  Si3  1  0.59159400  0.59159400  0.59159400  1
  Si  Si4  1  0.00000000  0.40840600  0.50000000  1
  Si  Si5  1  0.09159400  0.09159400  0.09159400  1
  Si  Si6  1  0.40840600  0.50000000  0.00000000  1
  Si  Si7  1  0.50000000  0.00000000  0.90840600  1
loop_
_geom_bond_atom_site_label_1
_geom_bond_atom_site_label_2
_geom_bond_distance
_geom_bond_site_symmetry_2
Li0 Si4 2.632847 1_655
Li0 Si7 2.695845 1_554
Li0 Si0 2.762166 1_555
Li1 Si7 2.632847 1_554
Li1 Si6 2.695845 1_555
Li1 Si1 2.762166 1_555
Li2 Si3 2.632847 1_555
Li2 Si4 2.695845 1_655
Li2 Si2 2.762166 1_655
Li3 Si1 2.632847 1_556
Li3 Si5 2.695845 1_666
Li3 Si3 2.762166 1_555
Li4 Si3 2.632847 1_555
Li4 Si6 2.695845 1_556
Li4 Si1 2.762166 1_556
Li5 Si1 2.632847 1_455
Li5 Si4 2.695845 1_555
Li5 Si2 2.762166 1_555
Li6 Si7 2.632847 1_565
Li6 Si5 2.695845 1_666
Li6 Si3 2.762166 1_555
Li7 Si5 2.632847 1_655
Li7 Si2 2.695845 1_645
Li7 Si4 2.762166 1_655
Li8 Si0 2.632847 1_555
Li8 Si3 2.695845 1_555
Li8 Si5 2.762166 1_555
Li9 Si4 2.632847 1_555
Li9 Si3 2.695845 1_555
Li9 Si5 2.762166 1_555
Li10 Si4 2.632847 1_555
Li10 Si1 2.695845 1_456
Li10 Si6 2.762166 1_556
Li11 Si0 2.632847 1_565
Li11 Si1 2.695845 1_455
Li11 Si6 2.762166 1_555
Li12 Si6 2.632847 1_556
Li12 Si2 2.695845 1_545
Li12 Si4 2.762166 1_555
Li13 Si5 2.632847 1_565
Li13 Si7 2.695845 1_564
Li13 Si0 2.762166 1_565
Li14 Si6 2.632847 1_555
Li14 Si7 2.695845 1_564
Li14 Si0 2.762166 1_565
Li15 Si6 2.632847 1_555
Li15 Si3 2.695845 1_555
Li15 Si5 2.762166 1_555
Li16 Si0 2.632847 1_555
Li16 Si2 2.695845 1_645
Li16 Si4 2.762166 1_655
Li17 Si5 2.632847 1_556
Li17 Si1 2.695845 1_456
Li17 Si6 2.762166 1_556
Li18 Si1 2.632847 1_556
Li18 Si0 2.695845 1_555
Li18 Si7 2.762166 1_555
Li19 Si2 2.632847 1_545
Li19 Si0 2.695845 1_555
Li19 Si7 2.762166 1_555
Li20 Si3 2.632847 1_555
Li20 Si0 2.695845 1_565
Li20 Si7 2.762166 1_565
Li21 Si2 2.632847 1_655
Li21 Si5 2.695845 1_666
Li21 Si3 2.762166 1_555
Li22 Si7 2.632847 1_565
Li22 Si4 2.695845 1_555
Li22 Si2 2.762166 1_555
Li23 Si2 2.632847 1_655
Li23 Si6 2.695845 1_555
Li23 Si1 2.762166 1_555
Al0 Li16 2.751768 1_565
Al0 Li20 2.751768 1_555
Al0 Li23 2.751768 1_555
Al0 Li15 2.751768 1_555
Al0 Li21 2.759444 1_555
Al0 Li14 2.759444 1_555
Al0 Li11 2.759444 1_555
Al0 Li2 2.759444 1_555
Al0 Si0 2.841853 1_565
Al0 Si2 2.841853 1_655
Al0 Si6 2.841853 1_555
Al0 Si3 2.841853 1_555
Al1 Li10 2.751768 1_655
Al1 Li8 2.751768 1_555
Al1 Li18 2.751768 1_555
Al1 Li2 2.751768 1_555
Al1 Li16 2.759444 1_555
Al1 Li4 2.759444 1_555
Al1 Li0 2.759444 1_555
Al1 Li3 2.759444 1_555
Al1 Si1 2.841853 1_556
Al1 Si0 2.841853 1_555
Al1 Si3 2.841853 1_555
Al1 Si4 2.841853 1_655
Al2 Li1 2.751768 1_556
Al2 Li12 2.751768 1_555
Al2 Li21 2.751768 1_445
Al2 Li13 2.751768 1_546
Al2 Li15 2.759444 1_556
Al2 Li17 2.759444 1_555
Al2 Li22 2.759444 1_545
Al2 Li19 2.759444 1_555
Al2 Si5 2.841853 1_556
Al2 Si2 2.841853 1_545
Al2 Si7 2.841853 1_555
Al2 Si6 2.841853 1_556
Al3 Li14 2.751768 1_556
Al3 Li4 2.751768 1_555
Al3 Li9 2.751768 1_555
Al3 Li22 2.751768 1_555
Al3 Li6 2.759444 1_555
Al3 Li20 2.759444 1_555
Al3 Li10 2.759444 1_555
Al3 Li12 2.759444 1_555
Al3 Si3 2.841853 1_555
Al3 Si7 2.841853 1_565
Al3 Si6 2.841853 1_556
Al3 Si4 2.841853 1_555
Al4 Li3 2.751768 1_454
Al4 Li19 2.751768 1_565
Al4 Li11 2.751768 1_555
Al4 Li7 2.751768 1_465
Al4 Li8 2.759444 1_565
Al4 Li23 2.759444 1_455
Al4 Li13 2.759444 1_555
Al4 Li5 2.759444 1_555
Al4 Si0 2.841853 1_565
Al4 Si5 2.841853 1_565
Al4 Si2 2.841853 1_555
Al4 Si1 2.841853 1_455
Al5 Li5 2.751768 1_655
Al5 Li6 2.751768 1_544
Al5 Li0 2.751768 1_555
Al5 Li17 2.751768 1_654
Al5 Li18 2.759444 1_554
Al5 Li9 2.759444 1_655
Al5 Li7 2.759444 1_555
Al5 Li1 2.759444 1_555
Al5 Si5 2.841853 1_655
Al5 Si4 2.841853 1_655
Al5 Si1 2.841853 1_555
Al5 Si7 2.841853 1_554
