# generated using pymatgen
data_HoZn(WO3)2
_symmetry_space_group_name_H-M   'P 1'
_cell_length_a   5.50747100
_cell_length_b   5.83733500
_cell_length_c   7.87867697
_cell_angle_alpha   87.89512390
_cell_angle_beta   90.00000000
_cell_angle_gamma   90.00000000
_symmetry_Int_Tables_number   1
_chemical_formula_structural   HoZn(WO3)2
_chemical_formula_sum   'Ho2 Zn2 W4 O12'
_cell_volume   253.12031455
_cell_formula_units_Z   2
loop_
 _symmetry_equiv_pos_site_id
 _symmetry_equiv_pos_as_xyz
  1  'x, y, z'
loop_
 _atom_site_type_symbol
 _atom_site_label
 _atom_site_symmetry_multiplicity
 _atom_site_fract_x
 _atom_site_fract_y
 _atom_site_fract_z
 _atom_site_occupancy
  Ho  Ho0  1  0.97252200  0.32178600  0.73898000  1
  Ho  Ho1  1  0.47252200  0.67821400  0.26102000  1
  Zn  Zn0  1  0.48368300  0.70004900  0.72878000  1
  Zn  Zn1  1  0.98368300  0.29995100  0.27122000  1
  W  W0  1  0.00311800  0.76747800  0.49601500  1
  W  W1  1  0.99516900  0.76492100  0.99957200  1
  W  W2  1  0.49516900  0.23507900  0.00042800  1
  W  W3  1  0.50311800  0.23252200  0.50398500  1
  O  O0  1  0.86215600  0.77079100  0.23955800  1
  O  O1  1  0.85310300  0.09045500  0.54564800  1
  O  O2  1  0.82152200  0.06492100  0.93062400  1
  O  O3  1  0.68793800  0.55518600  0.55942300  1
  O  O4  1  0.68925300  0.54879500  0.92397400  1
  O  O5  1  0.63152400  0.29419100  0.24064900  1
  O  O6  1  0.36215600  0.22920900  0.76044200  1
  O  O7  1  0.32152200  0.93507900  0.06937600  1
  O  O8  1  0.35310300  0.90954500  0.45435200  1
  O  O9  1  0.18793800  0.44481400  0.44057700  1
  O  O10  1  0.18925300  0.45120500  0.07602600  1
  O  O11  1  0.13152400  0.70580900  0.75935100  1
loop_
_geom_bond_atom_site_label_1
_geom_bond_atom_site_label_2
_geom_bond_distance
_geom_bond_site_symmetry_2
Ho0 O1 2.174226 1_555
Ho0 O6 2.217835 1_655
Ho0 O2 2.247960 1_555
Ho0 O11 2.417462 1_655
Ho0 O3 2.484449 1_555
Ho0 O4 2.540879 1_555
Ho0 O9 2.706762 1_655
Ho0 O10 3.032230 1_656
Ho1 O8 2.174226 1_555
Ho1 O0 2.217835 1_555
Ho1 O7 2.247960 1_555
Ho1 O5 2.417462 1_555
Ho1 O9 2.484449 1_555
Ho1 O10 2.540879 1_555
Ho1 O3 2.706762 1_555
Ho1 O4 3.032230 1_554
O0 W1 2.029188 1_554
O0 W0 2.163979 1_655
O1 W0 2.108111 1_645
O1 W3 2.119165 1_555
O1 Zn1 2.548187 1_555
O2 W1 2.050982 1_545
O2 W2 2.135356 1_556
O3 Zn0 1.960559 1_555
O3 W0 2.180119 1_655
O3 W3 2.198834 1_555
O4 Zn0 2.080063 1_555
O4 W2 2.185843 1_556
O4 W1 2.200049 1_555
O5 Zn1 1.954845 1_555
O5 W2 2.076781 1_555
O5 W3 2.208934 1_555
O6 W2 2.029188 1_556
O6 W3 2.163979 1_555
O7 W2 2.050982 1_565
O7 W1 2.135356 1_454
O8 W3 2.108111 1_565
O8 W0 2.119165 1_555
O8 Zn0 2.548187 1_555
O9 Zn1 1.960559 1_455
O9 W3 2.180119 1_555
O9 W0 2.198834 1_555
O10 Zn1 2.080063 1_455
O10 W1 2.185843 1_454
O10 W2 2.200049 1_555
O11 Zn0 1.954845 1_555
O11 W1 2.076781 1_455
O11 W0 2.208934 1_555
