# generated using pymatgen
data_TeMoWSe3
_symmetry_space_group_name_H-M   'P 1'
_cell_length_a   3.38350004
_cell_length_b   3.38350004
_cell_length_c   38.47438100
_cell_angle_alpha   90.00000000
_cell_angle_beta   90.00000000
_cell_angle_gamma   120.00000078
_symmetry_Int_Tables_number   1
_chemical_formula_structural   TeMoWSe3
_chemical_formula_sum   'Te2 Mo2 W2 Se6'
_cell_volume   381.44738465
_cell_formula_units_Z   2
loop_
 _symmetry_equiv_pos_site_id
 _symmetry_equiv_pos_as_xyz
  1  'x, y, z'
loop_
 _atom_site_type_symbol
 _atom_site_label
 _atom_site_symmetry_multiplicity
 _atom_site_fract_x
 _atom_site_fract_y
 _atom_site_fract_z
 _atom_site_occupancy
  Te  Te0  1  0.33333300  0.66666700  0.70663600  1
  Te  Te1  1  0.33333300  0.66666700  0.60843600  1
  Mo  Mo0  1  0.33333300  0.66666700  0.09392400  1
  Mo  Mo1  1  0.66666700  0.33333300  0.28179800  1
  W  W0  1  0.33333300  0.66666700  0.46964600  1
  W  W1  1  0.66666700  0.33333300  0.65754600  1
  Se  Se0  1  0.33333300  0.66666700  0.32484000  1
  Se  Se1  1  0.66666700  0.33333300  0.05089000  1
  Se  Se2  1  0.66666700  0.33333300  0.42652100  1
  Se  Se3  1  0.66666700  0.33333300  0.13696600  1
  Se  Se4  1  0.66666700  0.33333300  0.51279600  1
  Se  Se5  1  0.33333300  0.66666700  0.23875000  1
loop_
_geom_bond_atom_site_label_1
_geom_bond_atom_site_label_2
_geom_bond_distance
_geom_bond_site_symmetry_2
Te0 W1 2.717210 1_455
Te0 W1 2.717210 1_565
Te0 W1 2.717215 1_555
Te1 W1 2.717745 1_455
Te1 W1 2.717745 1_565
Te1 W1 2.717749 1_555
Mo0 Se1 2.560738 1_455
Mo0 Se1 2.560738 1_565
Mo0 Se1 2.560743 1_555
Mo0 Se3 2.560937 1_455
Mo0 Se3 2.560937 1_565
Mo0 Se3 2.560942 1_555
Mo1 Se0 2.560937 1_655
Mo1 Se0 2.560937 1_545
Mo1 Se0 2.560942 1_555
Mo1 Se5 2.561087 1_545
Mo1 Se5 2.561087 1_655
Mo1 Se5 2.561091 1_555
Se2 W0 2.563003 1_545
Se2 W0 2.563003 1_655
Se2 W0 2.563008 1_555
Se4 W0 2.563626 1_655
Se4 W0 2.563626 1_545
Se4 W0 2.563631 1_555
