# generated using pymatgen
data_Al3CrO6
_symmetry_space_group_name_H-M   'P 1'
_cell_length_a   7.07805778
_cell_length_b   7.07750692
_cell_length_c   8.34671349
_cell_angle_alpha   113.14951564
_cell_angle_beta   113.14756686
_cell_angle_gamma   85.82216612
_symmetry_Int_Tables_number   1
_chemical_formula_structural   Al3CrO6
_chemical_formula_sum   'Al12 Cr4 O24'
_cell_volume   351.85693007
_cell_formula_units_Z   4
loop_
 _symmetry_equiv_pos_site_id
 _symmetry_equiv_pos_as_xyz
  1  'x, y, z'
loop_
 _atom_site_type_symbol
 _atom_site_label
 _atom_site_symmetry_multiplicity
 _atom_site_fract_x
 _atom_site_fract_y
 _atom_site_fract_z
 _atom_site_occupancy
  Al  Al0  1  0.97370836  0.47370795  0.64911726  1
  Al  Al1  1  0.47371511  0.97370673  0.64911878  1
  Al  Al2  1  0.22370151  0.22370709  0.14913445  1
  Al  Al3  1  0.72369539  0.72370921  0.14912856  1
  Al  Al4  1  0.97566648  0.97568841  0.65044467  1
  Al  Al5  1  0.47567799  0.47567904  0.65044890  1
  Al  Al6  1  0.22566957  0.72566805  0.15043029  1
  Al  Al7  1  0.72566742  0.22566592  0.15043529  1
  Al  Al8  1  0.52894154  0.02892695  0.35263195  1
  Al  Al9  1  0.02894041  0.52893358  0.35263427  1
  Al  Al10  1  0.77894448  0.77894043  0.85263875  1
  Al  Al11  1  0.27894389  0.27894451  0.85264765  1
  Cr  Cr0  1  0.52678268  0.52676034  0.35123130  1
  Cr  Cr1  1  0.27675623  0.77678966  0.85121145  1
  Cr  Cr2  1  0.02678951  0.02676218  0.35123404  1
  Cr  Cr3  1  0.77675644  0.27679016  0.85122342  1
  O  O0  1  0.04496485  0.70404186  0.59454444  1
  O  O1  1  0.54497459  0.20403242  0.59455731  1
  O  O2  1  0.29498788  0.45404651  0.09457298  1
  O  O3  1  0.79499977  0.95404705  0.09457416  1
  O  O4  1  0.78057411  0.96842682  0.74768351  1
  O  O5  1  0.28056772  0.46842168  0.74767498  1
  O  O6  1  0.03057861  0.71840387  0.24768228  1
  O  O7  1  0.53058334  0.21840353  0.24768791  1
  O  O8  1  0.79793565  0.95106861  0.40673893  1
  O  O9  1  0.29793451  0.45106422  0.40674481  1
  O  O10  1  0.04794414  0.70108004  0.90674664  1
  O  O11  1  0.54794689  0.20108503  0.90675993  1
  O  O12  1  0.72934931  0.52838468  0.24526401  1
  O  O13  1  0.22934714  0.02838152  0.24526535  1
  O  O14  1  0.97934495  0.27839472  0.74524901  1
  O  O15  1  0.47934885  0.77839559  0.74524726  1
  O  O16  1  0.70916800  0.54861050  0.60672710  1
  O  O17  1  0.20916447  0.04862447  0.60673001  1
  O  O18  1  0.95916370  0.29864807  0.10673237  1
  O  O19  1  0.45916130  0.79865338  0.10672003  1
  O  O20  1  0.44821214  0.80962741  0.40578022  1
  O  O21  1  0.94821289  0.30962300  0.40578096  1
  O  O22  1  0.69819508  0.55967273  0.90581461  1
  O  O23  1  0.19818708  0.05967811  0.90581512  1
loop_
_geom_bond_atom_site_label_1
_geom_bond_atom_site_label_2
_geom_bond_distance
_geom_bond_site_symmetry_2
Al0 O16 1.842338 1_555
Al0 O21 1.842344 1_555
Al0 O14 1.842590 1_555
Al0 O5 2.000800 1_655
Al0 O0 2.000910 1_655
Al0 O10 2.000956 1_655
Al1 O20 1.842336 1_555
Al1 O17 1.842437 1_565
Al1 O15 1.842561 1_555
Al1 O4 2.000792 1_555
Al1 O1 2.000804 1_565
Al1 O11 2.001041 1_565
Al2 O23 1.842108 1_554
Al2 O18 1.842391 1_455
Al2 O13 1.842653 1_555
Al2 O9 2.000812 1_555
Al2 O7 2.000959 1_555
Al2 O2 2.000970 1_555
Al3 O22 1.842112 1_554
Al3 O19 1.842368 1_555
Al3 O12 1.842661 1_555
Al3 O8 2.000813 1_555
Al3 O6 2.000969 1_655
Al3 O3 2.000973 1_555
Al4 O0 1.868640 1_655
Al4 O8 1.868703 1_555
Al4 O4 1.868814 1_555
Al4 O14 1.968686 1_565
Al4 O17 1.969153 1_665
Al4 O23 1.969295 1_665
Al5 O1 1.868641 1_555
Al5 O9 1.868725 1_555
Al5 O5 1.868844 1_555
Al5 O15 1.968759 1_555
Al5 O16 1.969124 1_555
Al5 O22 1.969258 1_555
Al6 O2 1.868538 1_555
Al6 O10 1.868613 1_554
Al6 O6 1.868890 1_555
Al6 O13 1.968726 1_565
Al6 O19 1.969227 1_555
Al6 O20 1.969259 1_555
Al7 O3 1.868547 1_545
Al7 O11 1.868564 1_554
Al7 O7 1.868847 1_555
Al7 O12 1.968760 1_555
Al7 O18 1.969210 1_555
Al7 O21 1.969246 1_555
Al8 O1 1.870551 1_555
Al8 O8 1.870678 1_545
Al8 O7 1.870722 1_555
Al8 O20 1.949916 1_545
Al8 O19 1.950159 1_545
Al8 O13 1.950449 1_555
Al9 O0 1.870474 1_555
Al9 O9 1.870701 1_555
Al9 O6 1.870726 1_555
Al9 O21 1.949972 1_455
Al9 O18 1.950147 1_455
Al9 O12 1.950426 1_455
Al10 O3 1.870570 1_556
Al10 O10 1.870717 1_655
Al10 O4 1.870834 1_555
Al10 O22 1.949925 1_555
Al10 O16 1.950336 1_555
Al10 O15 1.950464 1_555
Al11 O2 1.870520 1_556
Al11 O11 1.870735 1_555
Al11 O5 1.870875 1_555
Al11 O23 1.949894 1_555
Al11 O17 1.950334 1_555
Al11 O14 1.950483 1_455
Cr0 O16 1.960507 1_555
Cr0 O20 1.960794 1_555
Cr0 O12 1.961012 1_555
Cr0 O9 2.009271 1_555
Cr0 O7 2.009287 1_555
Cr0 O2 2.009671 1_555
Cr1 O19 1.960596 1_556
Cr1 O23 1.960903 1_565
Cr1 O15 1.961130 1_555
Cr1 O10 2.009195 1_555
Cr1 O5 2.009367 1_555
Cr1 O0 2.009683 1_555
Cr2 O17 1.960465 1_555
Cr2 O21 1.960768 1_455
Cr2 O13 1.960955 1_555
Cr2 O8 2.009253 1_445
Cr2 O6 2.009289 1_545
Cr2 O3 2.009663 1_445
Cr3 O18 1.960614 1_556
Cr3 O22 1.960854 1_555
Cr3 O14 1.961164 1_555
Cr3 O11 2.009172 1_555
Cr3 O4 2.009341 1_545
Cr3 O1 2.009642 1_555
