# generated using pymatgen
data_Li3Pm
_symmetry_space_group_name_H-M   'P 1'
_cell_length_a   6.70399973
_cell_length_b   6.70399973
_cell_length_c   5.07971100
_cell_angle_alpha   90.00000000
_cell_angle_beta   90.00000000
_cell_angle_gamma   119.99999738
_symmetry_Int_Tables_number   1
_chemical_formula_structural   Li3Pm
_chemical_formula_sum   'Li6 Pm2'
_cell_volume   197.71409202
_cell_formula_units_Z   2
loop_
 _symmetry_equiv_pos_site_id
 _symmetry_equiv_pos_as_xyz
  1  'x, y, z'
loop_
 _atom_site_type_symbol
 _atom_site_label
 _atom_site_symmetry_multiplicity
 _atom_site_fract_x
 _atom_site_fract_y
 _atom_site_fract_z
 _atom_site_occupancy
  Li  Li0  1  0.85190100  0.14809900  0.75000000  1
  Li  Li1  1  0.29619700  0.14809900  0.75000000  1
  Li  Li2  1  0.85190100  0.70380300  0.75000000  1
  Li  Li3  1  0.14809900  0.85190100  0.25000000  1
  Li  Li4  1  0.70380300  0.85190100  0.25000000  1
  Li  Li5  1  0.14809900  0.29619700  0.25000000  1
  Pm  Pm0  1  0.66666700  0.33333300  0.25000000  1
  Pm  Pm1  1  0.33333300  0.66666700  0.75000000  1
loop_
_geom_bond_atom_site_label_1
_geom_bond_atom_site_label_2
_geom_bond_distance
_geom_bond_site_symmetry_2
Li0 Li1 2.978560 1_655
Li0 Li2 2.978560 1_545
Li0 Li5 3.067271 1_655
Li0 Li5 3.067271 1_656
Li0 Li4 3.067271 1_545
Li0 Li4 3.067271 1_546
Li0 Pm0 3.328233 1_556
Li0 Pm0 3.328233 1_555
Li0 Pm1 3.358927 1_655
Li0 Pm1 3.358927 1_545
Li1 Li2 2.978560 1_445
Li1 Li5 3.067265 1_555
Li1 Li5 3.067265 1_556
Li1 Li3 3.067271 1_546
Li1 Li3 3.067271 1_545
Li1 Pm0 3.328240 1_555
Li1 Pm0 3.328240 1_556
Li1 Pm1 3.358927 1_545
Li1 Pm1 3.358927 1_555
Li2 Li4 3.067265 1_555
Li2 Li4 3.067265 1_556
Li2 Li3 3.067271 1_656
Li2 Li3 3.067271 1_655
Li2 Pm0 3.328240 1_556
Li2 Pm0 3.328240 1_555
Li2 Pm1 3.358927 1_655
Li2 Pm1 3.358927 1_555
Li3 Li5 2.978560 1_565
Li3 Li4 2.978560 1_455
Li3 Pm1 3.328233 1_554
Li3 Pm1 3.328233 1_555
Li3 Pm0 3.358927 1_565
Li3 Pm0 3.358927 1_455
Li4 Li5 2.978560 1_665
Li4 Pm1 3.328240 1_554
Li4 Pm1 3.328240 1_555
Li4 Pm0 3.358927 1_565
Li4 Pm0 3.358927 1_555
Li5 Pm1 3.328240 1_554
Li5 Pm1 3.328240 1_555
Li5 Pm0 3.358927 1_455
Li5 Pm0 3.358927 1_555
