# generated using pymatgen
data_Mn2FeSbO6
_symmetry_space_group_name_H-M   'P 1'
_cell_length_a   5.24942303
_cell_length_b   5.24942200
_cell_length_c   5.71184511
_cell_angle_alpha   62.64381722
_cell_angle_beta   117.35618472
_cell_angle_gamma   119.99999349
_symmetry_Int_Tables_number   1
_chemical_formula_structural   Mn2FeSbO6
_chemical_formula_sum   'Mn2 Fe1 Sb1 O6'
_cell_volume   115.53929386
_cell_formula_units_Z   1
loop_
 _symmetry_equiv_pos_site_id
 _symmetry_equiv_pos_as_xyz
  1  'x, y, z'
loop_
 _atom_site_type_symbol
 _atom_site_label
 _atom_site_symmetry_multiplicity
 _atom_site_fract_x
 _atom_site_fract_y
 _atom_site_fract_z
 _atom_site_occupancy
  Mn  Mn0  1  0.86329000  0.13671000  0.58986900  1
  Mn  Mn1  1  0.13606600  0.86393400  0.40819900  1
  Fe  Fe0  1  0.65732500  0.34267500  0.97197400  1
  Sb  Sb0  1  0.34324200  0.65675800  0.02972700  1
  O  O0  1  0.45463500  0.27835100  0.22948800  1
  O  O1  1  0.05320400  0.54536500  0.22948800  1
  O  O2  1  0.72164900  0.94679600  0.22948800  1
  O  O3  1  0.54792800  0.71519900  0.77058900  1
  O  O4  1  0.93786100  0.45207200  0.77058900  1
  O  O5  1  0.28480100  0.06213900  0.77058900  1
loop_
_geom_bond_atom_site_label_1
_geom_bond_atom_site_label_2
_geom_bond_distance
_geom_bond_site_symmetry_2
Mn0 O4 2.123779 1_555
Mn0 O5 2.123780 1_655
Mn0 O3 2.123780 1_545
Mn0 O2 2.349902 1_545
Mn0 O1 2.349904 1_655
Mn0 O0 2.349906 1_555
Mn1 O2 2.112134 1_455
Mn1 O0 2.112137 1_565
Mn1 O1 2.112139 1_555
Mn1 O5 2.378733 1_565
Mn1 O4 2.378736 1_455
Mn1 O3 2.378740 1_555
Fe0 O3 1.981328 1_555
Fe0 O5 1.981328 1_555
Fe0 O4 1.981328 1_555
Fe0 O2 2.008031 1_546
Fe0 O1 2.008033 1_656
Fe0 O0 2.008035 1_556
O0 Sb0 2.013711 1_555
O1 Sb0 2.013707 1_555
O2 Sb0 2.013708 1_555
O3 Sb0 2.038182 1_556
O4 Sb0 2.038177 1_656
O5 Sb0 2.038173 1_546
