# generated using pymatgen
data_Sr2Ca6FeCo7O20
_symmetry_space_group_name_H-M   'P 1'
_cell_length_a   10.70788378
_cell_length_b   11.18893017
_cell_length_c   17.18163478
_cell_angle_alpha   108.93020166
_cell_angle_beta   108.15796629
_cell_angle_gamma   90.04977557
_symmetry_Int_Tables_number   1
_chemical_formula_structural   Sr2Ca6FeCo7O20
_chemical_formula_sum   'Sr8 Ca24 Fe4 Co28 O80'
_cell_volume   1838.27737958
_cell_formula_units_Z   4
loop_
 _symmetry_equiv_pos_site_id
 _symmetry_equiv_pos_as_xyz
  1  'x, y, z'
loop_
 _atom_site_type_symbol
 _atom_site_label
 _atom_site_symmetry_multiplicity
 _atom_site_fract_x
 _atom_site_fract_y
 _atom_site_fract_z
 _atom_site_occupancy
  Sr  Sr0  1  0.30780144  0.56355325  0.60762984  1
  Sr  Sr1  1  0.80632981  0.06199897  0.61021006  1
  Sr  Sr2  1  0.19846211  0.43924594  0.89365339  1
  Sr  Sr3  1  0.05295891  0.29117285  0.60777019  1
  Sr  Sr4  1  0.05641390  0.79938661  0.61049296  1
  Sr  Sr5  1  0.56144154  0.29768203  0.60968944  1
  Sr  Sr6  1  0.45111323  0.20430609  0.89156806  1
  Sr  Sr7  1  0.94133239  0.19939972  0.38365669  1
  Ca  Ca0  1  0.30544801  0.06388029  0.11042863  1
  Ca  Ca1  1  0.30495766  0.05967309  0.60483857  1
  Ca  Ca2  1  0.30674508  0.57031979  0.11183057  1
  Ca  Ca3  1  0.80545465  0.06753151  0.10757692  1
  Ca  Ca4  1  0.80379840  0.56600218  0.11048282  1
  Ca  Ca5  1  0.80326848  0.56622727  0.60686653  1
  Ca  Ca6  1  0.19791415  0.43364560  0.38798122  1
  Ca  Ca7  1  0.19715423  0.92648164  0.38917708  1
  Ca  Ca8  1  0.19593422  0.93333398  0.89571986  1
  Ca  Ca9  1  0.69660537  0.43636029  0.39066194  1
  Ca  Ca10  1  0.69906071  0.43054341  0.89564238  1
  Ca  Ca11  1  0.69266156  0.93569361  0.38901451  1
  Ca  Ca12  1  0.69793774  0.93871975  0.89221216  1
  Ca  Ca13  1  0.05336651  0.29132015  0.11056697  1
  Ca  Ca14  1  0.05967502  0.79286657  0.11051997  1
  Ca  Ca15  1  0.55689869  0.29454258  0.11192141  1
  Ca  Ca16  1  0.55275552  0.79517558  0.11082234  1
  Ca  Ca17  1  0.55531358  0.79552719  0.60701643  1
  Ca  Ca18  1  0.44936171  0.20757145  0.38815514  1
  Ca  Ca19  1  0.44508498  0.70700506  0.38944734  1
  Ca  Ca20  1  0.44293294  0.71472780  0.89549813  1
  Ca  Ca21  1  0.94319131  0.20612370  0.89333040  1
  Ca  Ca22  1  0.94688015  0.70313839  0.38870415  1
  Ca  Ca23  1  0.94935230  0.70915467  0.89474157  1
  Fe  Fe0  1  0.10209235  0.59458150  0.74917520  1
  Fe  Fe1  1  0.61552582  0.60001871  0.75554423  1
  Fe  Fe2  1  0.36309980  0.41260024  0.75198879  1
  Fe  Fe3  1  0.36194723  0.90990594  0.75177648  1
  Co  Co0  1  0.00729855  0.00028743  0.00241711  1
  Co  Co1  1  -0.00092269  0.99262821  0.49126047  1
  Co  Co2  1  0.00721789  0.50208057  0.00554119  1
  Co  Co3  1  0.00051890  0.49861889  0.49500890  1
  Co  Co4  1  0.50709897  0.00119250  0.00294058  1
  Co  Co5  1  0.50302025  0.99840625  0.49545295  1
  Co  Co6  1  0.50766063  0.50349209  0.00362199  1
  Co  Co7  1  0.50553206  0.49939813  0.49498676  1
  Co  Co8  1  0.25593105  0.25137464  0.00480597  1
  Co  Co9  1  0.25383910  0.24444910  0.49388444  1
  Co  Co10  1  0.25678652  0.75299486  0.00353360  1
  Co  Co11  1  0.25492175  0.74711333  0.49733643  1
  Co  Co12  1  0.75872954  0.25270406  0.00663299  1
  Co  Co13  1  0.74898166  0.24889549  0.49087847  1
  Co  Co14  1  0.75629775  0.75155588  0.00068737  1
  Co  Co15  1  0.74992676  0.74679774  0.49292509  1
  Co  Co16  1  0.11021488  0.08968060  0.24689230  1
  Co  Co17  1  0.10941370  0.09182512  0.75567630  1
  Co  Co18  1  0.10708085  0.59199798  0.24835426  1
  Co  Co19  1  0.60595310  0.09424745  0.24977794  1
  Co  Co20  1  0.60886421  0.09132385  0.74772496  1
  Co  Co21  1  0.60796409  0.59485014  0.24926791  1
  Co  Co22  1  0.35689069  0.40595403  0.24853484  1
  Co  Co23  1  0.35875190  0.90637210  0.25120153  1
  Co  Co24  1  0.85785655  0.40930518  0.24980398  1
  Co  Co25  1  0.85779800  0.40831508  0.75329814  1
  Co  Co26  1  0.85698059  0.90110529  0.24576807  1
  Co  Co27  1  0.85701446  0.90222060  0.75299638  1
  O  O0  1  0.12147917  0.10859193  0.48846887  1
  O  O1  1  0.12781724  0.12594346  0.99175544  1
  O  O2  1  0.12266749  0.61486126  0.48164128  1
  O  O3  1  0.12394142  0.62613007  0.99139459  1
  O  O4  1  0.61659825  0.12324207  0.48078853  1
  O  O5  1  0.62948304  0.12588883  0.99438027  1
  O  O6  1  0.62023609  0.61864537  0.48500247  1
  O  O7  1  0.63003979  0.63120783  0.98994210  1
  O  O8  1  0.13028179  0.38659281  0.01698056  1
  O  O9  1  0.13726688  0.36609687  0.50281968  1
  O  O10  1  0.13652081  0.88350362  0.01532420  1
  O  O11  1  0.13497917  0.87255272  0.50519740  1
  O  O12  1  0.63969508  0.38594920  0.01819368  1
  O  O13  1  0.63921936  0.38260001  0.50810857  1
  O  O14  1  0.63467326  0.88890206  0.01633971  1
  O  O15  1  0.63233989  0.87129731  0.50602795  1
  O  O16  1  0.36523979  0.11973579  0.48388753  1
  O  O17  1  0.37908144  0.11082229  0.99362281  1
  O  O18  1  0.37203982  0.61839364  0.48299276  1
  O  O19  1  0.37921939  0.62400693  0.99440402  1
  O  O20  1  0.86414146  0.11568173  0.48377788  1
  O  O21  1  0.87409653  0.11337189  0.98824301  1
  O  O22  1  0.86698738  0.62079366  0.48325323  1
  O  O23  1  0.87778944  0.60981620  0.98966241  1
  O  O24  1  0.38106647  0.37848265  0.01726304  1
  O  O25  1  0.38704272  0.38062865  0.50252688  1
  O  O26  1  0.38751758  0.88347670  0.01752118  1
  O  O27  1  0.38207529  0.88077362  0.50841025  1
  O  O28  1  0.88465899  0.37903086  0.01512895  1
  O  O29  1  0.87907783  0.38395712  0.50865654  1
  O  O30  1  0.88597233  0.87748942  0.01576756  1
  O  O31  1  0.88106066  0.88024585  0.50081383  1
  O  O32  1  0.09088660  0.10276911  0.14155808  1
  O  O33  1  0.08370983  0.08614653  0.64468934  1
  O  O34  1  0.08803468  0.60319458  0.14147598  1
  O  O35  1  0.07629648  0.59190945  0.63562213  1
  O  O36  1  0.58969348  0.10649892  0.14491459  1
  O  O37  1  0.58124029  0.09036082  0.63776480  1
  O  O38  1  0.58888093  0.60598573  0.14300819  1
  O  O39  1  0.58824396  0.60121982  0.64089315  1
  O  O40  1  0.44470514  0.39854466  0.35601441  1
  O  O41  1  0.45142344  0.40457914  0.86267670  1
  O  O42  1  0.44276619  0.89830618  0.35818482  1
  O  O43  1  0.45653411  0.90211493  0.86302026  1
  O  O44  1  0.94506646  0.40708401  0.35790881  1
  O  O45  1  0.94173910  0.39482772  0.85867150  1
  O  O46  1  0.94506772  0.89677303  0.35488770  1
  O  O47  1  0.94672851  0.89549595  0.86045347  1
  O  O48  1  0.33553821  0.28719858  0.14217222  1
  O  O49  1  0.33439358  0.28929800  0.64078610  1
  O  O50  1  0.33962123  0.78937941  0.14570022  1
  O  O51  1  0.33616934  0.79377273  0.63942578  1
  O  O52  1  0.84268906  0.28898240  0.14503599  1
  O  O53  1  0.82825818  0.30007764  0.64303639  1
  O  O54  1  0.83707504  0.78462574  0.13930579  1
  O  O55  1  0.82988180  0.79331899  0.64264960  1
  O  O56  1  0.19255179  0.20771752  0.35438127  1
  O  O57  1  0.19278088  0.20670577  0.86385843  1
  O  O58  1  0.19451630  0.70616296  0.35450232  1
  O  O59  1  0.19902683  0.71475008  0.85816335  1
  O  O60  1  0.68635543  0.21119760  0.35954284  1
  O  O61  1  0.69285821  0.20763122  0.85521680  1
  O  O62  1  0.69261634  0.71187669  0.35483335  1
  O  O63  1  0.70776201  0.72124574  0.86485764  1
  O  O64  1  0.42479132  0.06674414  0.24929893  1
  O  O65  1  0.42426506  0.06565803  0.74396747  1
  O  O66  1  0.42558049  0.56702638  0.24933636  1
  O  O67  1  0.43496433  0.57584927  0.75821785  1
  O  O68  1  0.92593137  0.05601920  0.23979532  1
  O  O69  1  0.92993308  0.06549387  0.75872091  1
  O  O70  1  0.92464227  0.56911379  0.24820270  1
  O  O71  1  0.92256840  0.57216820  0.75233109  1
  O  O72  1  0.17449028  0.43145440  0.24827425  1
  O  O73  1  0.18223778  0.43986658  0.75030322  1
  O  O74  1  0.17615290  0.92947836  0.24969078  1
  O  O75  1  0.18581706  0.93499647  0.76054564  1
  O  O76  1  0.67546502  0.43347340  0.24955376  1
  O  O77  1  0.67941856  0.44082014  0.76015928  1
  O  O78  1  0.67734190  0.93491066  0.24964505  1
  O  O79  1  0.67308993  0.92985910  0.75092491  1
loop_
_geom_bond_atom_site_label_1
_geom_bond_atom_site_label_2
_geom_bond_distance
_geom_bond_site_symmetry_2
Ca0 O64 2.318847 1_555
Ca0 O48 2.376887 1_555
Ca0 O10 2.454980 1_545
Ca0 O26 2.486295 1_545
Ca0 O32 2.523992 1_555
Ca0 O17 2.568015 1_554
Ca0 O1 2.600247 1_554
Ca0 O36 2.921043 1_555
Ca1 O65 2.311590 1_555
Ca1 O49 2.435067 1_555
Ca1 O27 2.477387 1_545
Ca1 O11 2.520476 1_545
Ca1 O0 2.533926 1_555
Ca1 O16 2.632190 1_555
Ca1 O33 2.655151 1_555
Ca1 O37 2.831809 1_555
Ca2 O66 2.320585 1_555
Ca2 O50 2.327132 1_555
Ca2 O8 2.520409 1_555
Ca2 O24 2.535091 1_555
Ca2 O34 2.550056 1_555
Ca2 O19 2.606752 1_554
Ca2 O3 2.611402 1_554
Ca2 O38 2.902353 1_555
Ca3 O68 2.281474 1_555
Ca3 O52 2.348683 1_555
Ca3 O14 2.443416 1_545
Ca3 O5 2.510277 1_554
Ca3 O30 2.535276 1_545
Ca3 O21 2.574534 1_554
Ca3 O36 2.585226 1_555
Ca3 O32 2.928152 1_655
Ca4 O70 2.304956 1_555
Ca4 O54 2.336330 1_555
Ca4 O12 2.417689 1_555
Ca4 O38 2.539611 1_555
Ca4 O28 2.544368 1_555
Ca4 O23 2.619561 1_554
Ca4 O7 2.620015 1_554
Ca4 O34 2.926415 1_655
Ca5 O71 2.405199 1_555
Ca5 O55 2.406531 1_555
Ca5 O13 2.461749 1_555
Ca5 O29 2.507841 1_555
Ca5 O39 2.547241 1_555
Ca5 O6 2.609659 1_555
Ca5 O22 2.663262 1_555
Ca5 O35 2.807130 1_655
Ca6 O72 2.326361 1_555
Ca6 O56 2.399798 1_555
Ca6 O2 2.458444 1_555
Ca6 O18 2.514180 1_555
Ca6 O25 2.569422 1_555
Ca6 O9 2.579049 1_555
Ca6 O44 2.590889 1_455
Ca6 O40 2.864574 1_555
Ca7 O58 2.338609 1_555
Ca7 O74 2.347688 1_555
Ca7 O0 2.515545 1_565
Ca7 O11 2.527446 1_555
Ca7 O16 2.539245 1_565
Ca7 O27 2.555872 1_555
Ca7 O46 2.573726 1_455
Ca7 O42 2.839921 1_555
Ca8 O75 2.297252 1_555
Ca8 O59 2.321318 1_555
Ca8 O1 2.518870 1_565
Ca8 O17 2.527656 1_565
Ca8 O47 2.547727 1_455
Ca8 O10 2.548777 1_556
Ca8 O26 2.642512 1_556
Ca8 O43 3.012629 1_555
Ca9 O76 2.353177 1_555
Ca9 O60 2.394556 1_555
Ca9 O6 2.477904 1_555
Ca9 O22 2.484407 1_555
Ca9 O13 2.524126 1_555
Ca9 O29 2.564358 1_555
Ca9 O40 2.577348 1_555
Ca9 O44 2.883971 1_555
Ca10 O77 2.311875 1_555
Ca10 O61 2.356812 1_555
Ca10 O23 2.501947 1_555
Ca10 O41 2.528312 1_555
Ca10 O7 2.569298 1_555
Ca10 O12 2.569461 1_556
Ca10 O28 2.592931 1_556
Ca10 O45 2.860367 1_555
Ca11 O78 2.345768 1_555
Ca11 O62 2.379464 1_555
Ca11 O20 2.465961 1_565
Ca11 O4 2.491952 1_565
Ca11 O31 2.550410 1_555
Ca11 O42 2.566438 1_555
Ca11 O15 2.593624 1_555
Ca11 O46 2.943187 1_555
Ca12 O79 2.326979 1_555
Ca12 O63 2.332841 1_555
Ca12 O21 2.461906 1_565
Ca12 O43 2.481517 1_555
Ca12 O5 2.534550 1_565
Ca12 O14 2.643716 1_556
Ca12 O30 2.704064 1_556
Ca12 O47 2.892354 1_555
Ca13 O72 2.327127 1_555
Ca13 O32 2.343656 1_555
Ca13 O28 2.473128 1_455
Ca13 O52 2.506634 1_455
Ca13 O8 2.517197 1_555
Ca13 O1 2.606285 1_554
Ca13 O21 2.613435 1_454
Ca13 O48 2.901740 1_555
Ca14 O74 2.318650 1_555
Ca14 O34 2.347718 1_555
Ca14 O30 2.474335 1_455
Ca14 O10 2.508874 1_555
Ca14 O3 2.558490 1_554
Ca14 O54 2.588151 1_455
Ca14 O23 2.648189 1_454
Ca14 O50 2.870340 1_555
Ca15 O76 2.315292 1_555
Ca15 O36 2.350020 1_555
Ca15 O24 2.481478 1_555
Ca15 O12 2.526327 1_555
Ca15 O48 2.586595 1_555
Ca15 O5 2.598423 1_554
Ca15 O17 2.617717 1_554
Ca15 O52 2.937781 1_555
Ca16 O78 2.346668 1_555
Ca16 O38 2.358825 1_555
Ca16 O26 2.437083 1_555
Ca16 O19 2.512667 1_554
Ca16 O50 2.539529 1_555
Ca16 O14 2.548532 1_555
Ca16 O7 2.639297 1_554
Ca16 O54 2.937966 1_555
Ca17 O79 2.367509 1_555
Ca17 O39 2.425752 1_555
Ca17 O15 2.500996 1_555
Ca17 O27 2.512758 1_555
Ca17 O51 2.576488 1_555
Ca17 O18 2.639459 1_555
Ca17 O6 2.648358 1_555
Ca17 O55 2.812001 1_555
Ca18 O64 2.326567 1_555
Ca18 O40 2.371064 1_555
Ca18 O4 2.414777 1_555
Ca18 O25 2.531196 1_555
Ca18 O16 2.540378 1_555
Ca18 O56 2.627676 1_555
Ca18 O13 2.641724 1_555
Ca18 O60 2.733785 1_555
Ca19 O66 2.351938 1_555
Ca19 O42 2.368215 1_555
Ca19 O18 2.448309 1_555
Ca19 O6 2.515474 1_555
Ca19 O15 2.552071 1_555
Ca19 O58 2.559613 1_555
Ca19 O27 2.587783 1_555
Ca19 O62 2.895737 1_555
Ca20 O67 2.341280 1_555
Ca20 O43 2.353261 1_555
Ca20 O59 2.487662 1_555
Ca20 O19 2.494850 1_555
Ca20 O7 2.545849 1_555
Ca20 O26 2.553732 1_556
Ca20 O14 2.652338 1_556
Ca21 O69 2.297580 1_555
Ca21 O45 2.371272 1_555
Ca21 O21 2.476389 1_555
Ca21 O1 2.544939 1_655
Ca21 O61 2.554911 1_555
Ca21 O28 2.589940 1_556
Ca21 O8 2.676026 1_656
Ca21 O57 2.871364 1_655
Ca22 O70 2.329241 1_555
Ca22 O46 2.416976 1_555
Ca22 O22 2.460836 1_555
Ca22 O2 2.494334 1_655
Ca22 O31 2.550668 1_555
Ca22 O11 2.583623 1_655
Ca22 O62 2.609744 1_555
Ca22 O58 2.891664 1_655
Ca23 O47 2.341295 1_555
Ca23 O71 2.355222 1_555
Ca23 O3 2.486896 1_655
Ca23 O63 2.488353 1_555
Ca23 O23 2.536933 1_555
Ca23 O30 2.583162 1_556
Ca23 O10 2.626310 1_656
Ca23 O59 2.935797 1_655
Fe0 O35 1.873485 1_555
Fe0 O59 1.882631 1_555
Fe0 O73 1.935855 1_555
Fe0 O71 1.958087 1_455
Fe1 O63 1.879205 1_555
Fe1 O39 1.903814 1_555
Fe1 O77 1.925409 1_555
Fe1 O67 1.968733 1_555
Fe2 O41 1.873285 1_555
Fe2 O49 1.889792 1_555
Fe2 O67 1.938917 1_555
Fe2 O73 1.953542 1_555
Fe3 O51 1.879031 1_555
Fe3 O43 1.894296 1_555
Fe3 O65 1.925039 1_565
Fe3 O75 1.951672 1_555
Co0 O10 1.916019 1_545
Co0 O21 1.918649 1_454
Co0 O1 1.996737 1_554
Co0 O30 2.003832 1_445
Co0 O32 2.171903 1_555
Co0 O47 2.214047 1_444
Co1 O31 1.861584 1_455
Co1 O0 1.865551 1_565
Co1 O11 1.993738 1_555
Co1 O20 2.000602 1_465
Co1 O46 2.121016 1_455
Co1 O33 2.363283 1_565
Co2 O23 1.851726 1_454
Co2 O8 1.857731 1_555
Co2 O28 1.980837 1_455
Co2 O3 1.988203 1_554
Co2 O34 2.123179 1_555
Co2 O45 2.287029 1_454
Co3 O29 1.942743 1_455
Co3 O2 1.957863 1_555
Co3 O22 1.989091 1_455
Co3 O9 2.090735 1_555
Co3 O44 2.124194 1_455
Co3 O35 2.173772 1_555
Co4 O17 1.844699 1_554
Co4 O14 1.868770 1_545
Co4 O26 1.961690 1_545
Co4 O5 1.983863 1_554
Co4 O43 2.181759 1_544
Co4 O36 2.215756 1_555
Co5 O27 1.956004 1_555
Co5 O4 1.977359 1_565
Co5 O15 1.996867 1_555
Co5 O16 2.013660 1_565
Co5 O42 2.137658 1_555
Co5 O37 2.197409 1_565
Co6 O19 1.934146 1_554
Co6 O12 1.946148 1_555
Co6 O7 2.054543 1_554
Co6 O24 2.063084 1_555
Co6 O38 2.173727 1_555
Co6 O41 2.191559 1_554
Co7 O6 1.896102 1_555
Co7 O25 1.898359 1_555
Co7 O13 1.949655 1_555
Co7 O18 1.963709 1_555
Co7 O40 2.163377 1_555
Co7 O39 2.264563 1_555
Co8 O24 1.866637 1_555
Co8 O1 1.871520 1_554
Co8 O8 2.028935 1_555
Co8 O17 2.052918 1_554
Co8 O48 2.142280 1_555
Co8 O57 2.182924 1_554
Co9 O16 1.837030 1_555
Co9 O9 1.849623 1_555
Co9 O25 2.023746 1_555
Co9 O0 2.037244 1_555
Co9 O56 2.173626 1_555
Co9 O49 2.277491 1_555
Co10 O3 1.923899 1_554
Co10 O26 1.925595 1_555
Co10 O10 1.950825 1_555
Co10 O19 1.952133 1_554
Co10 O50 2.218742 1_555
Co10 O59 2.268781 1_554
Co11 O11 1.904181 1_555
Co11 O18 1.916565 1_555
Co11 O2 1.940966 1_555
Co11 O27 1.943438 1_555
Co11 O51 2.199539 1_555
Co11 O58 2.220713 1_555
Co12 O28 1.891454 1_555
Co12 O5 1.895834 1_554
Co12 O12 1.963602 1_555
Co12 O21 1.995827 1_554
Co12 O52 2.160657 1_555
Co12 O61 2.350412 1_554
Co13 O13 1.907783 1_555
Co13 O4 1.923889 1_555
Co13 O20 1.932896 1_555
Co13 O29 1.936295 1_555
Co13 O60 2.039229 1_555
Co13 O53 2.351124 1_555
Co14 O7 1.831686 1_554
Co14 O30 1.875130 1_555
Co14 O14 2.020807 1_555
Co14 O23 2.050770 1_554
Co14 O63 2.135842 1_554
Co14 O54 2.168220 1_555
Co15 O15 1.884880 1_555
Co15 O22 1.888749 1_555
Co15 O6 1.937824 1_555
Co15 O31 1.991469 1_555
Co15 O62 2.156215 1_555
Co15 O55 2.319358 1_555
Co16 O32 1.810599 1_555
Co16 O56 1.825627 1_555
Co16 O74 1.936702 1_545
Co16 O68 1.967110 1_455
Co17 O33 1.819458 1_555
Co17 O57 1.821449 1_555
Co17 O75 1.952059 1_545
Co17 O69 1.963352 1_455
Co18 O58 1.804603 1_555
Co18 O34 1.829025 1_555
Co18 O72 1.936238 1_555
Co18 O70 1.969106 1_455
Co19 O36 1.805571 1_555
Co19 O60 1.842582 1_555
Co19 O78 1.939992 1_545
Co19 O64 1.960916 1_555
Co20 O37 1.815357 1_555
Co20 O61 1.821165 1_555
Co20 O79 1.944966 1_545
Co20 O65 1.975169 1_555
Co21 O62 1.805062 1_555
Co21 O38 1.818139 1_555
Co21 O76 1.946426 1_555
Co21 O66 1.977756 1_555
Co22 O40 1.821660 1_555
Co22 O48 1.822375 1_555
Co22 O66 1.940228 1_555
Co22 O72 1.972932 1_555
Co23 O50 1.808272 1_555
Co23 O42 1.809241 1_555
Co23 O64 1.941964 1_565
Co23 O74 1.965734 1_555
Co24 O44 1.808748 1_555
Co24 O52 1.823231 1_555
Co24 O70 1.936851 1_555
Co24 O76 1.970761 1_555
Co25 O45 1.808804 1_555
Co25 O53 1.814655 1_555
Co25 O71 1.966512 1_555
Co25 O77 1.976931 1_555
Co26 O54 1.816495 1_555
Co26 O46 1.834105 1_555
Co26 O68 1.928849 1_565
Co26 O78 1.977961 1_555
Co27 O55 1.822321 1_555
Co27 O47 1.822658 1_555
Co27 O69 1.946739 1_565
Co27 O79 1.984972 1_555
O0 Sr7 2.649875 1_455
O0 Sr3 2.671395 1_555
O2 Sr0 2.660635 1_555
O2 Sr4 2.771833 1_555
O3 Sr2 2.527663 1_555
O4 Sr5 2.660061 1_555
O4 Sr1 2.777969 1_555
O5 Sr6 2.538489 1_555
O8 Sr2 2.672732 1_554
O9 Sr3 2.600671 1_555
O9 Sr0 2.611615 1_555
O9 Sr7 2.628815 1_455
O11 Sr4 2.561117 1_555
O12 Sr6 2.706898 1_554
O13 Sr5 2.573540 1_555
O15 Sr1 2.581548 1_565
O16 Sr5 2.723986 1_555
O17 Sr6 2.606765 1_555
O18 Sr0 2.684305 1_555
O19 Sr2 2.568916 1_555
O20 Sr7 2.539735 1_555
O20 Sr3 2.660122 1_655
O20 Sr1 2.673394 1_555
O22 Sr4 2.698398 1_655
O24 Sr2 2.673377 1_554
O24 Sr6 2.702960 1_554
O25 Sr5 2.589881 1_555
O25 Sr0 2.594233 1_555
O29 Sr3 2.572672 1_655
O29 Sr7 2.708944 1_555
O31 Sr1 2.601741 1_565
O31 Sr4 2.607515 1_655
O33 Sr3 2.566835 1_555
O33 Sr1 2.836164 1_455
O33 Sr4 3.064886 1_545
O35 Sr4 2.492942 1_555
O35 Sr0 2.668806 1_555
O37 Sr5 2.514319 1_555
O37 Sr1 2.597908 1_555
O39 Sr0 2.879890 1_555
O41 Sr6 2.447558 1_555
O41 Sr2 2.921830 1_555
O44 Sr7 2.505008 1_555
O45 Sr2 2.634206 1_655
O49 Sr5 2.654573 1_555
O49 Sr3 2.888975 1_555
O51 Sr0 2.451159 1_555
O51 Sr4 2.883931 1_555
O53 Sr1 2.531967 1_555
O53 Sr3 2.652579 1_655
O53 Sr5 2.731540 1_555
O55 Sr4 2.655777 1_655
O56 Sr7 2.893303 1_455
O57 Sr2 2.480245 1_555
O57 Sr6 2.658345 1_555
O60 Sr7 2.640926 1_555
O61 Sr6 2.848650 1_555
O65 Sr6 2.431632 1_555
O67 Sr0 2.477954 1_555
O68 Sr7 2.425521 1_555
O69 Sr1 2.468698 1_555
O73 Sr2 2.416807 1_555
O73 Sr3 2.433327 1_555
O75 Sr4 2.469966 1_555
O77 Sr5 2.473683 1_555
