# generated using pymatgen
data_Pb2CCl2O3
_symmetry_space_group_name_H-M   'P 1'
_cell_length_a   8.71043200
_cell_length_b   8.99547499
_cell_length_c   9.07831345
_cell_angle_alpha   88.05476014
_cell_angle_beta   89.13479159
_cell_angle_gamma   86.86222835
_symmetry_Int_Tables_number   1
_chemical_formula_structural   Pb2CCl2O3
_chemical_formula_sum   'Pb8 C4 Cl8 O12'
_cell_volume   709.78824507
_cell_formula_units_Z   4
loop_
 _symmetry_equiv_pos_site_id
 _symmetry_equiv_pos_as_xyz
  1  'x, y, z'
loop_
 _atom_site_type_symbol
 _atom_site_label
 _atom_site_symmetry_multiplicity
 _atom_site_fract_x
 _atom_site_fract_y
 _atom_site_fract_z
 _atom_site_occupancy
  Pb  Pb0  1  0.13831400  0.68545600  0.65118300  1
  Pb  Pb1  1  0.21072500  0.17796600  0.66474100  1
  Pb  Pb2  1  0.69589400  0.77962100  0.88646900  1
  Pb  Pb3  1  0.42927100  0.71980400  0.26169100  1
  Pb  Pb4  1  0.88939600  0.80529000  0.31312100  1
  Pb  Pb5  1  0.80573700  0.32123300  0.40769200  1
  Pb  Pb6  1  0.63909200  0.23254900  0.82943100  1
  Pb  Pb7  1  0.24804000  0.24458000  0.12314300  1
  C  C0  1  0.31411700  0.47110400  0.81942000  1
  C  C1  1  0.67812400  0.50125100  0.16692000  1
  C  C2  1  0.84384200  0.51226900  0.67114000  1
  C  C3  1  0.17148600  0.51482100  0.28451600  1
  Cl  Cl0  1  0.51299100  0.20354900  0.54178500  1
  Cl  Cl1  1  0.02469000  0.24968600  0.91421500  1
  Cl  Cl2  1  0.08904700  0.04071000  0.33799900  1
  Cl  Cl3  1  0.37923000  0.00915300  0.87087800  1
  Cl  Cl4  1  0.63897900  0.97325400  0.17283600  1
  Cl  Cl5  1  0.84812900  0.99852100  0.67603400  1
  Cl  Cl6  1  0.44592300  0.76688400  0.55545700  1
  Cl  Cl7  1  0.97406100  0.78978100  0.03085900  1
  O  O0  1  0.72950000  0.36827200  0.14673800  1
  O  O1  1  0.28724600  0.60245200  0.86517800  1
  O  O2  1  0.06809500  0.42470900  0.25062200  1
  O  O3  1  0.72259500  0.43519300  0.67277200  1
  O  O4  1  0.87173600  0.60551000  0.77139700  1
  O  O5  1  0.61619200  0.58810300  0.06520600  1
  O  O6  1  0.31639600  0.47555600  0.25883500  1
  O  O7  1  0.14009300  0.64477500  0.34027300  1
  O  O8  1  0.38918300  0.36584600  0.89495100  1
  O  O9  1  0.94203400  0.49789600  0.56196500  1
  O  O10  1  0.68071600  0.55493400  0.30333400  1
  O  O11  1  0.25912400  0.43927000  0.68919600  1
loop_
_geom_bond_atom_site_label_1
_geom_bond_atom_site_label_2
_geom_bond_distance
_geom_bond_site_symmetry_2
C0 O1 1.274161 1_555
C0 O8 1.302271 1_555
C0 O11 1.328228 1_555
C1 O0 1.272222 1_555
C1 O5 1.293824 1_555
C1 O10 1.345363 1_555
C2 O4 1.292959 1_555
C2 O3 1.294334 1_555
C2 O9 1.304441 1_555
C3 O2 1.291517 1_555
C3 O7 1.303282 1_555
C3 O6 1.311574 1_555
Cl0 Pb1 2.862003 1_555
Cl0 Pb6 2.873649 1_555
Cl0 Pb5 3.036296 1_555
Cl1 Pb7 2.735004 1_556
Cl1 Pb1 2.836426 1_555
Cl2 Pb4 2.829754 1_445
Cl2 Pb7 3.006550 1_555
Cl3 Pb1 2.758328 1_555
Cl3 Pb6 3.118375 1_555
Cl4 Pb4 2.873165 1_555
Cl4 Pb3 3.077637 1_555
Cl4 Pb2 3.195664 1_554
Cl5 Pb2 3.039626 1_555
Cl5 Pb6 3.064192 1_565
Cl6 Pb3 2.721734 1_555
Cl6 Pb0 2.927847 1_555
Cl7 Pb4 2.661856 1_555
Cl7 Pb2 2.779496 1_554
O0 Pb5 2.486158 1_555
O1 Pb0 2.426134 1_555
O2 Pb7 2.493207 1_555
O2 Pb5 2.857695 1_455
O3 Pb6 2.410909 1_555
O3 Pb5 2.720306 1_555
O4 Pb2 2.385466 1_555
O4 Pb0 2.674496 1_655
O5 Pb2 2.447459 1_554
O5 Pb3 2.660981 1_555
O6 Pb3 2.456791 1_555
O6 Pb7 2.553491 1_555
O7 Pb4 2.561446 1_455
O7 Pb3 2.721816 1_555
O7 Pb0 2.858157 1_555
O8 Pb6 2.500733 1_555
O8 Pb7 2.628577 1_556
O9 Pb5 2.510832 1_555
O9 Pb0 2.622218 1_655
O10 Pb5 2.479563 1_555
O10 Pb3 2.602067 1_555
O11 Pb0 2.415509 1_555
O11 Pb1 2.428756 1_555
