# generated using pymatgen
data_Sr4CaMn2Ga2O11
_symmetry_space_group_name_H-M   'P 1'
_cell_length_a   5.54498619
_cell_length_b   5.54888853
_cell_length_c   9.38162909
_cell_angle_alpha   79.68946737
_cell_angle_beta   80.43903653
_cell_angle_gamma   85.41966462
_symmetry_Int_Tables_number   1
_chemical_formula_structural   Sr4CaMn2Ga2O11
_chemical_formula_sum   'Sr4 Ca1 Mn2 Ga2 O11'
_cell_volume   279.67857389
_cell_formula_units_Z   1
loop_
 _symmetry_equiv_pos_site_id
 _symmetry_equiv_pos_as_xyz
  1  'x, y, z'
loop_
 _atom_site_type_symbol
 _atom_site_label
 _atom_site_symmetry_multiplicity
 _atom_site_fract_x
 _atom_site_fract_y
 _atom_site_fract_z
 _atom_site_occupancy
  Sr  Sr0  1  0.97210800  0.48859400  0.82590400  1
  Sr  Sr1  1  0.53308700  0.05417500  0.82078500  1
  Sr  Sr2  1  0.41773000  0.90934600  0.21912300  1
  Sr  Sr3  1  0.89493900  0.38238500  0.24280500  1
  Ca  Ca0  1  0.32890700  0.80166300  0.60092500  1
  Mn  Mn0  1  0.34577000  0.34685500  0.44310700  1
  Mn  Mn1  1  0.86506500  0.82845900  0.44226700  1
  Ga  Ga0  1  0.45935600  0.45922500  0.01436900  1
  Ga  Ga1  1  0.95904700  0.95928100  0.01453400  1
  O  O0  1  0.07842100  0.95026800  0.81135200  1
  O  O1  1  0.47767700  0.55033200  0.80123300  1
  O  O2  1  0.36032600  0.44506300  0.22084600  1
  O  O3  1  0.96133600  0.84416900  0.21631100  1
  O  O4  1  0.60386200  0.08850700  0.48321600  1
  O  O5  1  0.07577700  0.55644000  0.53081200  1
  O  O6  1  0.12432800  0.06854500  0.43461100  1
  O  O7  1  0.58773300  0.61055900  0.43292800  1
  O  O8  1  0.70936400  0.20757700  0.01763900  1
  O  O9  1  0.69346700  0.71910200  0.00868300  1
  O  O10  1  0.20646300  0.21755100  0.01230100  1
loop_
_geom_bond_atom_site_label_1
_geom_bond_atom_site_label_2
_geom_bond_distance
_geom_bond_site_symmetry_2
Ca0 O5 2.277377 1_555
Ca0 O7 2.296100 1_555
Ca0 O4 2.297051 1_565
Ca0 O6 2.325287 1_565
Ca0 O1 2.355837 1_555
Ca0 O0 2.448531 1_555
Mn0 O4 1.975568 1_555
Mn0 O5 1.981438 1_555
Mn0 O7 2.042387 1_555
Mn0 O2 2.048359 1_555
Mn0 O6 2.068430 1_555
Mn1 O5 1.981267 1_655
Mn1 O4 2.001834 1_565
Mn1 O6 2.020890 1_665
Mn1 O7 2.052824 1_555
Mn1 O3 2.086057 1_555
Ga0 O8 1.887381 1_555
Ga0 O2 1.912871 1_555
Ga0 O1 1.960360 1_554
Ga0 O9 2.003972 1_555
Ga0 O10 2.020847 1_555
Ga1 O8 1.874090 1_565
Ga1 O3 1.888239 1_555
Ga1 O0 1.919337 1_654
Ga1 O10 2.056727 1_665
Ga1 O9 2.077097 1_555
O0 Sr0 2.649174 1_455
O0 Sr1 2.649685 1_565
O0 Sr0 3.021091 1_465
O0 Sr1 3.022410 1_465
O1 Sr1 2.722235 1_555
O1 Sr0 2.778449 1_555
O1 Sr0 2.817674 1_455
O1 Sr1 2.878169 1_565
O2 Sr3 2.600732 1_455
O2 Sr2 2.617828 1_555
O2 Sr2 2.966901 1_545
O2 Sr3 2.993953 1_555
O3 Sr3 2.579815 1_555
O3 Sr2 2.589923 1_655
O3 Sr2 3.003383 1_555
O3 Sr3 3.029229 1_565
O4 Sr3 2.871541 1_555
O4 Sr1 3.098865 1_555
O4 Sr2 3.176039 1_545
O5 Sr0 2.696159 1_455
O6 Sr2 2.613681 1_545
O6 Sr3 2.678322 1_455
O7 Sr2 2.617028 1_555
O7 Sr3 2.672237 1_555
O8 Sr0 2.505583 1_554
O8 Sr1 2.527048 1_554
O8 Sr2 2.686789 1_545
O8 Sr3 2.842019 1_555
O9 Sr1 2.537452 1_564
O9 Sr0 2.559884 1_554
O9 Sr2 2.614450 1_555
O9 Sr3 2.928494 1_555
O10 Sr0 2.551455 1_454
O10 Sr1 2.563222 1_554
O10 Sr2 2.703562 1_545
O10 Sr3 2.776990 1_455
