# generated using pymatgen
data_Nb2MoO8
_symmetry_space_group_name_H-M   'P 1'
_cell_length_a   10.55228824
_cell_length_b   10.55228824
_cell_length_c   5.14275333
_cell_angle_alpha   89.84228224
_cell_angle_beta   89.84228224
_cell_angle_gamma   34.22094848
_symmetry_Int_Tables_number   1
_chemical_formula_structural   Nb2MoO8
_chemical_formula_sum   'Nb4 Mo2 O16'
_cell_volume   322.04864945
_cell_formula_units_Z   2
loop_
 _symmetry_equiv_pos_site_id
 _symmetry_equiv_pos_as_xyz
  1  'x, y, z'
loop_
 _atom_site_type_symbol
 _atom_site_label
 _atom_site_symmetry_multiplicity
 _atom_site_fract_x
 _atom_site_fract_y
 _atom_site_fract_z
 _atom_site_occupancy
  Nb  Nb0  1  0.05275900  0.68402900  0.75581100  1
  Nb  Nb1  1  0.31597100  0.94724100  0.74418900  1
  Nb  Nb2  1  0.94724100  0.31597100  0.24418900  1
  Nb  Nb3  1  0.68402900  0.05275900  0.25581100  1
  Mo  Mo0  1  0.66318500  0.33681500  0.75000000  1
  Mo  Mo1  1  0.33681500  0.66318500  0.25000000  1
  O  O0  1  0.10625400  0.78080300  0.08521800  1
  O  O1  1  0.21919700  0.89374600  0.41478200  1
  O  O2  1  0.89374600  0.21919700  0.91478200  1
  O  O3  1  0.78080300  0.10625400  0.58521800  1
  O  O4  1  0.33817800  0.55760600  0.56832400  1
  O  O5  1  0.44239400  0.66182200  0.93167600  1
  O  O6  1  0.66182200  0.44239400  0.43167600  1
  O  O7  1  0.55760600  0.33817800  0.06832400  1
  O  O8  1  0.92289900  0.75701000  0.42708000  1
  O  O9  1  0.24299000  0.07710100  0.07292000  1
  O  O10  1  0.43486000  0.19033500  0.35999300  1
  O  O11  1  0.80966500  0.56514000  0.14000700  1
  O  O12  1  0.56514000  0.80966500  0.64000700  1
  O  O13  1  0.19033500  0.43486000  0.85999300  1
  O  O14  1  0.75701000  0.92289900  0.92708000  1
  O  O15  1  0.07710100  0.24299000  0.57292000  1
loop_
_geom_bond_atom_site_label_1
_geom_bond_atom_site_label_2
_geom_bond_distance
_geom_bond_site_symmetry_2
Nb0 O13 1.729711 1_555
Nb0 O8 1.894545 1_455
Nb0 O14 1.963896 1_455
Nb0 O4 2.264266 1_555
Nb0 O0 2.280222 1_556
Nb1 O12 1.729711 1_555
Nb1 O9 1.894545 1_566
Nb1 O15 1.963896 1_565
Nb1 O5 2.264266 1_555
Nb1 O1 2.280222 1_555
Nb2 O11 1.729711 1_555
Nb2 O15 1.894545 1_655
Nb2 O9 1.963896 1_655
Nb2 O6 2.264266 1_555
Nb2 O2 2.280222 1_554
Nb3 O10 1.729711 1_555
Nb3 O14 1.894545 1_544
Nb3 O8 1.963896 1_545
Nb3 O7 2.264266 1_555
Nb3 O3 2.280222 1_555
Mo0 O3 1.785960 1_555
Mo0 O2 1.785960 1_555
Mo0 O7 1.971037 1_556
Mo0 O6 1.971037 1_555
Mo0 O4 2.203326 1_555
Mo0 O5 2.203326 1_555
Mo1 O0 1.785960 1_555
Mo1 O1 1.785960 1_555
Mo1 O4 1.971037 1_555
Mo1 O5 1.971037 1_554
Mo1 O6 2.203326 1_555
Mo1 O7 2.203326 1_555
