# generated using pymatgen
data_Ca4PtN4
_symmetry_space_group_name_H-M   'P 1'
_cell_length_a   6.12284073
_cell_length_b   6.00353906
_cell_length_c   8.56734962
_cell_angle_alpha   67.36597667
_cell_angle_beta   81.32011450
_cell_angle_gamma   74.47808113
_symmetry_Int_Tables_number   1
_chemical_formula_structural   Ca4PtN4
_chemical_formula_sum   'Ca8 Pt2 N8'
_cell_volume   279.66156176
_cell_formula_units_Z   2
loop_
 _symmetry_equiv_pos_site_id
 _symmetry_equiv_pos_as_xyz
  1  'x, y, z'
loop_
 _atom_site_type_symbol
 _atom_site_label
 _atom_site_symmetry_multiplicity
 _atom_site_fract_x
 _atom_site_fract_y
 _atom_site_fract_z
 _atom_site_occupancy
  Ca  Ca0  1  0.80396473  0.56714021  0.14870513  1
  Ca  Ca1  1  0.19603527  0.43285979  0.85129487  1
  Ca  Ca2  1  0.70000851  0.17205818  0.98557839  1
  Ca  Ca3  1  0.29999149  0.82794182  0.01442161  1
  Ca  Ca4  1  0.73959364  0.45561065  0.58204550  1
  Ca  Ca5  1  0.26040636  0.54438935  0.41795450  1
  Ca  Ca6  1  0.21169788  0.97019258  0.62693444  1
  Ca  Ca7  1  0.78830212  0.02980742  0.37306556  1
  Pt  Pt0  1  0.72250291  0.84068100  0.75797394  1
  Pt  Pt1  1  0.27749709  0.15931900  0.24202606  1
  N  N0  1  0.99064223  0.67502256  0.60963023  1
  N  N1  1  0.00935777  0.32497744  0.39036977  1
  N  N2  1  0.97148642  0.86077387  0.88148276  1
  N  N3  1  0.02851358  0.13922613  0.11851724  1
  N  N4  1  0.50976356  0.62396331  0.77870809  1
  N  N5  1  0.49023644  0.37603669  0.22129191  1
  N  N6  1  0.53831827  0.86708512  0.24054455  1
  N  N7  1  0.46168173  0.13291488  0.75945545  1
loop_
_geom_bond_atom_site_label_1
_geom_bond_atom_site_label_2
_geom_bond_distance
_geom_bond_site_symmetry_2
Ca0 N1 2.339308 1_655
Ca0 N6 2.375695 1_555
Ca0 N5 2.379650 1_555
Ca0 N2 2.560009 1_554
Ca0 N3 2.659059 1_655
Ca1 N0 2.339308 1_455
Ca1 N7 2.375695 1_555
Ca1 N4 2.379650 1_555
Ca1 N3 2.560009 1_556
Ca1 N2 2.659059 1_455
Ca2 N3 2.384983 1_656
Ca2 N2 2.494705 1_545
Ca2 N6 2.518534 1_546
Ca2 N4 2.662573 1_555
Ca2 N7 2.706440 1_555
Ca2 N5 2.739743 1_556
Ca3 N2 2.384983 1_454
Ca3 N3 2.494705 1_565
Ca3 N7 2.518534 1_564
Ca3 N5 2.662573 1_555
Ca3 N6 2.706440 1_555
Ca3 N4 2.739743 1_554
Ca4 N1 2.349299 1_655
Ca4 N0 2.363621 1_555
Ca4 N4 2.382113 1_555
Ca4 N7 2.770594 1_555
Ca5 N0 2.349299 1_455
Ca5 N1 2.363621 1_555
Ca5 N5 2.382113 1_555
Ca5 N6 2.770594 1_555
Ca6 N2 2.407690 1_455
Ca6 N4 2.438779 1_555
Ca6 N1 2.490413 1_565
Ca6 N0 2.557457 1_455
Ca6 N7 2.600892 1_565
Ca7 N3 2.407690 1_655
Ca7 N5 2.438779 1_555
Ca7 N0 2.490413 1_545
Ca7 N1 2.557457 1_655
Ca7 N6 2.600892 1_545
N0 Pt0 2.183787 1_555
N1 Pt1 2.183787 1_555
N2 Pt0 2.035149 1_555
N3 Pt1 2.035149 1_555
N4 Pt0 2.019988 1_555
N5 Pt1 2.019988 1_555
N6 Pt1 2.034695 1_565
N7 Pt0 2.034695 1_545
