# generated using pymatgen
data_Na4NiH38(W3O20)2
_symmetry_space_group_name_H-M   'P 1'
_cell_length_a   7.90079174
_cell_length_b   10.60970940
_cell_length_c   12.57665849
_cell_angle_alpha   69.35324015
_cell_angle_beta   71.83794694
_cell_angle_gamma   82.41044391
_symmetry_Int_Tables_number   1
_chemical_formula_structural   Na4NiH38(W3O20)2
_chemical_formula_sum   'Na4 Ni1 H38 W6 O40'
_cell_volume   937.08663927
_cell_formula_units_Z   1
loop_
 _symmetry_equiv_pos_site_id
 _symmetry_equiv_pos_as_xyz
  1  'x, y, z'
loop_
 _atom_site_type_symbol
 _atom_site_label
 _atom_site_symmetry_multiplicity
 _atom_site_fract_x
 _atom_site_fract_y
 _atom_site_fract_z
 _atom_site_occupancy
  Na  Na0  1  0.77824400  0.86033300  0.41790400  1
  Na  Na1  1  0.22175600  0.13966700  0.58209600  1
  Na  Na2  1  0.58867900  0.86292800  0.19935000  1
  Na  Na3  1  0.41132100  0.13707200  0.80065000  1
  Ni  Ni0  1  0.00000000  0.50000000  0.00000000  1
  H  H0  1  0.78461600  0.54106600  0.20559100  1
  H  H1  1  0.21538400  0.45893400  0.79440900  1
  H  H2  1  0.07478600  0.23615000  0.04250800  1
  H  H3  1  0.92521400  0.76385000  0.95749200  1
  H  H4  1  0.66565300  0.56188700  0.97279300  1
  H  H5  1  0.33434700  0.43811300  0.02720700  1
  H  H6  1  0.75632200  0.80574100  0.66538900  1
  H  H7  1  0.24367800  0.19425900  0.33461100  1
  H  H8  1  0.55719800  0.79106500  0.67923100  1
  H  H9  1  0.44280200  0.20893500  0.32076900  1
  H  H10  1  0.11108100  0.72852900  0.50379400  1
  H  H11  1  0.88891900  0.27147100  0.49620600  1
  H  H12  1  0.17171800  0.77631200  0.36846500  1
  H  H13  1  0.82828200  0.22368800  0.63153500  1
  H  H14  1  0.90035700  0.93872000  0.15222200  1
  H  H15  1  0.09964300  0.06128000  0.84777800  1
  H  H16  1  0.96933800  0.78759300  0.18516600  1
  H  H17  1  0.03066200  0.21240700  0.81483400  1
  H  H18  1  0.41009800  0.83412600  0.45724700  1
  H  H19  1  0.58990200  0.16587400  0.54275300  1
  H  H20  1  0.41849400  0.98931100  0.38196800  1
  H  H21  1  0.58150600  0.01068900  0.61803200  1
  H  H22  1  0.64984000  0.59080400  0.55509200  1
  H  H23  1  0.35016000  0.40919600  0.44490800  1
  H  H24  1  0.80504300  0.58578600  0.44185400  1
  H  H25  1  0.19495700  0.41421400  0.55814600  1
  H  H26  1  0.64839800  0.78916700  0.98719900  1
  H  H27  1  0.35160200  0.21083300  0.01280100  1
  H  H28  1  0.72241900  0.93544600  0.94470400  1
  H  H29  1  0.27758100  0.06455400  0.05529600  1
  H  H30  1  0.23704100  0.83424300  0.15952000  1
  H  H31  1  0.76295900  0.16575700  0.84048000  1
  H  H32  1  0.17166000  0.93583200  0.22927500  1
  H  H33  1  0.82834000  0.06416800  0.77072500  1
  H  H34  1  0.50727200  0.56455500  0.27433600  1
  H  H35  1  0.49272800  0.43544500  0.72566400  1
  H  H36  1  0.60764600  0.60207800  0.35282000  1
  H  H37  1  0.39235400  0.39792200  0.64718000  1
  W  W0  1  0.85975100  0.26211200  0.26809000  1
  W  W1  1  0.14024900  0.73788800  0.73191000  1
  W  W2  1  0.70665900  0.27074400  0.04417900  1
  W  W3  1  0.29334100  0.72925600  0.95582100  1
  W  W4  1  0.86355600  0.50024400  0.76958700  1
  W  W5  1  0.13644400  0.49975600  0.23041300  1
  O  O0  1  0.89218900  0.48669800  0.17514900  1
  O  O1  1  0.10781100  0.51330200  0.82485100  1
  O  O2  1  0.96724300  0.29260000  0.06936500  1
  O  O3  1  0.03275700  0.70740000  0.93063500  1
  O  O4  1  0.76334800  0.49317500  0.96022400  1
  O  O5  1  0.23665200  0.50682500  0.03977600  1
  O  O6  1  0.65643500  0.28522400  0.20121500  1
  O  O7  1  0.34356500  0.71477600  0.79878500  1
  O  O8  1  0.84527600  0.30672600  0.87360700  1
  O  O9  1  0.15472400  0.69327400  0.12639300  1
  O  O10  1  0.90338900  0.69255800  0.73541000  1
  O  O11  1  0.09661100  0.30744200  0.26459100  1
  O  O12  1  0.72828900  0.28105500  0.40534900  1
  O  O13  1  0.27171100  0.71894500  0.59465100  1
  O  O14  1  0.90254200  0.08585300  0.30264000  1
  O  O15  1  0.09745800  0.91414700  0.69736000  1
  O  O16  1  0.72620800  0.09291100  0.07920600  1
  O  O17  1  0.27379200  0.90708900  0.92079400  1
  O  O18  1  0.48489800  0.30936800  0.02868300  1
  O  O19  1  0.51510200  0.69063200  0.97131700  1
  O  O20  1  0.65375300  0.52266900  0.73882700  1
  O  O21  1  0.34624700  0.47733100  0.26117300  1
  O  O22  1  0.01152500  0.47033300  0.64273400  1
  O  O23  1  0.98847500  0.52966700  0.35726600  1
  O  O24  1  0.66039300  0.84767900  0.62754200  1
  O  O25  1  0.33960700  0.15232100  0.37245800  1
  O  O26  1  0.06517000  0.76985800  0.43490100  1
  O  O27  1  0.93483000  0.23014200  0.56509900  1
  O  O28  1  0.88601100  0.85250900  0.21684800  1
  O  O29  1  0.11398900  0.14749100  0.78315200  1
  O  O30  1  0.48161500  0.90091900  0.38516000  1
  O  O31  1  0.51838500  0.09908100  0.61484000  1
  O  O32  1  0.68577800  0.62734500  0.46848800  1
  O  O33  1  0.31422200  0.37265500  0.53151200  1
  O  O34  1  0.73029500  0.84297400  0.00019900  1
  O  O35  1  0.26970500  0.15702600  0.99980100  1
  O  O36  1  0.27892900  0.90454200  0.17939700  1
  O  O37  1  0.72107100  0.09545800  0.82060300  1
  O  O38  1  0.60390400  0.61857300  0.27065400  1
  O  O39  1  0.39609600  0.38142700  0.72934600  1
loop_
_geom_bond_atom_site_label_1
_geom_bond_atom_site_label_2
_geom_bond_distance
_geom_bond_site_symmetry_2
Na0 O26 2.385108 1_655
Na0 O28 2.431645 1_555
Na0 O30 2.461205 1_555
Na0 O14 2.465366 1_565
Na0 O24 2.467659 1_555
Na0 O32 2.475313 1_555
Na1 O27 2.385108 1_455
Na1 O29 2.431645 1_555
Na1 O31 2.461205 1_555
Na1 O15 2.465366 1_545
Na1 O25 2.467659 1_555
Na1 O33 2.475313 1_555
Na2 O30 2.383449 1_555
Na2 O28 2.411582 1_555
Na2 O38 2.425949 1_555
Na2 O34 2.476756 1_555
Na2 O36 2.503266 1_555
Na2 O16 2.548415 1_565
Na3 O31 2.383449 1_555
Na3 O29 2.411582 1_555
Na3 O39 2.425949 1_555
Na3 O35 2.476756 1_555
Na3 O37 2.503266 1_555
Na3 O17 2.548415 1_545
Ni0 O1 2.059259 1_554
Ni0 O0 2.059259 1_455
Ni0 O2 2.079894 1_455
Ni0 O3 2.079894 1_554
Ni0 O4 2.096621 1_454
Ni0 O5 2.096621 1_555
H0 O0 1.012446 1_555
H1 O1 1.012446 1_555
H2 O2 1.011960 1_455
H3 O3 1.011960 1_655
H4 O4 1.004388 1_555
H4 O19 1.687513 1_555
H5 O5 1.004388 1_555
H5 O18 1.687513 1_555
H6 O24 0.992695 1_555
H6 O10 1.758185 1_555
H7 O25 0.992695 1_555
H7 O11 1.758179 1_555
H8 O24 0.985756 1_555
H9 O25 0.985756 1_555
H10 O26 0.980082 1_555
H11 O27 0.980082 1_555
H12 O26 0.973581 1_555
H13 O27 0.973581 1_555
H14 O28 0.977633 1_555
H15 O29 0.977633 1_555
H16 O28 0.988319 1_555
H17 O29 0.988319 1_555
H18 O30 0.988303 1_555
H19 O31 0.988303 1_555
H20 O30 0.996094 1_555
H21 O31 0.996094 1_555
H22 O32 0.977624 1_555
H23 O33 0.977624 1_555
H24 O32 0.996074 1_555
H24 O23 1.686475 1_555
H25 O33 0.996074 1_555
H25 O22 1.686475 1_555
H26 O34 1.000327 1_556
H26 O19 1.676650 1_555
H27 O35 1.000327 1_554
H27 O18 1.676650 1_555
H28 O34 0.990762 1_556
H29 O35 0.990762 1_554
H30 O36 0.988222 1_555
H31 O37 0.988222 1_555
H32 O36 0.981373 1_555
H33 O37 0.981373 1_555
H34 O38 0.994141 1_555
H34 O21 1.747198 1_555
H35 O39 0.994141 1_555
H35 O20 1.747198 1_555
H36 O38 0.994739 1_555
H37 O39 0.994739 1_555
O0 W0 2.262757 1_555
O0 W5 2.280599 1_655
O1 W1 2.262757 1_555
O1 W4 2.280599 1_455
O2 W2 2.230988 1_555
O2 W0 2.291632 1_555
O3 W3 2.230988 1_555
O3 W1 2.291632 1_555
O4 W4 2.255289 1_555
O4 W2 2.260948 1_556
O5 W5 2.255289 1_555
O5 W3 2.260948 1_554
O6 W2 1.947034 1_555
O6 W0 1.985112 1_555
O7 W3 1.947034 1_555
O7 W1 1.985112 1_555
O8 W4 2.003536 1_555
O8 W2 2.003849 1_556
O9 W5 2.003536 1_555
O9 W3 2.003849 1_554
O10 W1 1.976554 1_655
O10 W4 1.978336 1_555
O11 W0 1.976559 1_455
O11 W5 1.978334 1_555
O12 W0 1.780709 1_555
O13 W1 1.780709 1_555
O14 W0 1.775319 1_555
O15 W1 1.775319 1_555
O16 W2 1.776812 1_555
O17 W3 1.776812 1_555
O18 W2 1.800725 1_555
O19 W3 1.800725 1_555
O20 W4 1.784550 1_555
O21 W5 1.784550 1_555
O22 W4 1.763236 1_455
O23 W5 1.763236 1_655
