# generated using pymatgen
data_Li4AlCr3O8
_symmetry_space_group_name_H-M   'P 1'
_cell_length_a   5.10927600
_cell_length_b   5.86610638
_cell_length_c   10.57097270
_cell_angle_alpha   106.07405306
_cell_angle_beta   94.57649008
_cell_angle_gamma   106.66712268
_symmetry_Int_Tables_number   1
_chemical_formula_structural   Li4AlCr3O8
_chemical_formula_sum   'Li8 Al2 Cr6 O16'
_cell_volume   287.25676603
_cell_formula_units_Z   2
loop_
 _symmetry_equiv_pos_site_id
 _symmetry_equiv_pos_as_xyz
  1  'x, y, z'
loop_
 _atom_site_type_symbol
 _atom_site_label
 _atom_site_symmetry_multiplicity
 _atom_site_fract_x
 _atom_site_fract_y
 _atom_site_fract_z
 _atom_site_occupancy
  Li  Li0  1  0.49999400  0.74979800  0.00021300  1
  Li  Li1  1  0.49969600  0.12614700  0.74893700  1
  Li  Li2  1  0.50060200  0.37529500  0.25115300  1
  Li  Li3  1  0.50000000  0.00000000  0.50000000  1
  Li  Li4  1  0.50000600  0.25020200  0.99978700  1
  Li  Li5  1  0.49939800  0.62470500  0.74884700  1
  Li  Li6  1  0.50030400  0.87385300  0.25106300  1
  Li  Li7  1  0.50000000  0.50000000  0.50000000  1
  Al  Al0  1  0.00024600  0.68548700  0.37680100  1
  Al  Al1  1  0.99975400  0.31451300  0.62319900  1
  Cr  Cr0  1  0.99988400  0.93978900  0.87286800  1
  Cr  Cr1  1  0.99981900  0.56284100  0.12640600  1
  Cr  Cr2  1  0.99967600  0.18794500  0.37673500  1
  Cr  Cr3  1  0.00018100  0.43715900  0.87359400  1
  Cr  Cr4  1  0.00032400  0.81205500  0.62326500  1
  Cr  Cr5  1  0.00011600  0.06021100  0.12713200  1
  O  O0  1  0.78304400  0.35775500  0.44329600  1
  O  O1  1  0.22025200  0.53234700  0.31386100  1
  O  O2  1  0.77289300  0.59910800  0.93891700  1
  O  O3  1  0.22736500  0.77684300  0.80950200  1
  O  O4  1  0.22014700  0.15764900  0.56326300  1
  O  O5  1  0.77809600  0.98598700  0.68481400  1
  O  O6  1  0.77263500  0.22315700  0.19049800  1
  O  O7  1  0.22710700  0.40089200  0.06108300  1
  O  O8  1  0.77985300  0.84235100  0.43673700  1
  O  O9  1  0.22190400  0.01401300  0.31518600  1
  O  O10  1  0.77282100  0.09802000  0.93993900  1
  O  O11  1  0.22153500  0.27994000  0.80229100  1
  O  O12  1  0.77974800  0.46765300  0.68613900  1
  O  O13  1  0.77846500  0.72006000  0.19770900  1
  O  O14  1  0.21695600  0.64224500  0.55670400  1
  O  O15  1  0.22717900  0.90198000  0.06006100  1
loop_
_geom_bond_atom_site_label_1
_geom_bond_atom_site_label_2
_geom_bond_distance
_geom_bond_site_symmetry_2
Li0 O2 1.918166 1_554
Li0 O15 1.918819 1_555
Li0 O3 2.425995 1_554
Li1 O5 1.916991 1_545
Li1 O11 1.932211 1_555
Li1 O12 2.396881 1_555
Li1 O3 2.403690 1_545
Li1 O4 2.414843 1_555
Li2 O6 1.917358 1_555
Li2 O1 1.977427 1_555
Li2 O9 2.488865 1_555
Li3 O8 1.978772 1_545
Li3 O4 1.978772 1_555
Li3 O5 2.356985 1_545
Li3 O9 2.356985 1_555
Li3 O14 2.439042 1_545
Li3 O0 2.439042 1_555
Li4 O7 1.918166 1_556
Li4 O10 1.918819 1_555
Li4 O6 2.425995 1_556
Li5 O3 1.917358 1_555
Li5 O12 1.977427 1_555
Li5 O5 2.488865 1_555
Li6 O9 1.916991 1_565
Li6 O13 1.932211 1_555
Li6 O1 2.396881 1_555
Li6 O6 2.403690 1_565
Li6 O8 2.414843 1_555
Li7 O0 1.923659 1_555
Li7 O14 1.923659 1_555
Li7 O8 2.402909 1_555
Li7 O4 2.402909 1_555
Li7 O12 2.421608 1_555
Li7 O1 2.421608 1_555
Al0 O1 1.697299 1_555
Al0 O8 1.703384 1_455
Al0 O9 2.231960 1_565
Al1 O12 1.697299 1_555
Al1 O4 1.703384 1_655
Al1 O5 2.231960 1_545
Cr0 O10 1.759166 1_565
Cr0 O3 1.766397 1_655
Cr0 O5 2.329020 1_555
Cr1 O13 1.745613 1_555
Cr1 O7 1.767892 1_655
Cr1 O1 2.276581 1_655
Cr1 O6 2.307216 1_555
Cr2 O0 1.755281 1_555
Cr2 O9 1.779983 1_655
Cr2 O4 2.267782 1_655
Cr2 O6 2.293970 1_555
Cr2 O8 2.300718 1_545
Cr2 O1 2.313115 1_655
Cr3 O11 1.745613 1_555
Cr3 O2 1.767892 1_455
Cr3 O12 2.276581 1_455
Cr3 O3 2.307216 1_555
Cr4 O14 1.755281 1_555
Cr4 O5 1.779983 1_455
Cr4 O8 2.267782 1_455
Cr4 O3 2.293970 1_555
Cr4 O4 2.300718 1_565
Cr4 O12 2.313115 1_455
Cr5 O15 1.759166 1_545
Cr5 O6 1.766397 1_455
Cr5 O9 2.329020 1_555
