# generated using pymatgen
data_Li5Mg11(WO4)12
_symmetry_space_group_name_H-M   'P 1'
_cell_length_a   10.59218900
_cell_length_b   5.24610500
_cell_length_c   18.06000383
_cell_angle_alpha   89.92176873
_cell_angle_beta   90.00000000
_cell_angle_gamma   90.00000000
_symmetry_Int_Tables_number   1
_chemical_formula_structural   Li5Mg11(WO4)12
_chemical_formula_sum   'Li5 Mg11 W12 O48'
_cell_volume   1003.55258389
_cell_formula_units_Z   1
loop_
 _symmetry_equiv_pos_site_id
 _symmetry_equiv_pos_as_xyz
  1  'x, y, z'
loop_
 _atom_site_type_symbol
 _atom_site_label
 _atom_site_symmetry_multiplicity
 _atom_site_fract_x
 _atom_site_fract_y
 _atom_site_fract_z
 _atom_site_occupancy
  Li  Li0  1  0.00000000  0.24383600  0.29770800  1
  Li  Li1  1  0.50000000  0.25367500  0.80144400  1
  Li  Li2  1  0.00000000  0.74823400  0.19768500  1
  Li  Li3  1  0.50000000  0.75599000  0.70281500  1
  Li  Li4  1  0.00000000  0.90208900  0.75411200  1
  Mg  Mg0  1  0.50000000  0.09584000  0.24818500  1
  Mg  Mg1  1  0.32537700  0.25989700  0.97209500  1
  Mg  Mg2  1  0.67462300  0.25989700  0.97209500  1
  Mg  Mg3  1  0.82021900  0.24789800  0.47269000  1
  Mg  Mg4  1  0.17978100  0.24789800  0.47269000  1
  Mg  Mg5  1  0.00000000  0.39725300  0.75374800  1
  Mg  Mg6  1  0.50000000  0.59589600  0.24862100  1
  Mg  Mg7  1  0.33206500  0.75355300  0.52781600  1
  Mg  Mg8  1  0.66793500  0.75355300  0.52781600  1
  Mg  Mg9  1  0.82830500  0.73993300  0.02508400  1
  Mg  Mg10  1  0.17169500  0.73993300  0.02508400  1
  W  W0  1  0.00000000  0.20310000  0.94128700  1
  W  W1  1  0.27703100  0.22476600  0.65549700  1
  W  W2  1  0.72296900  0.22476600  0.65549700  1
  W  W3  1  0.77552600  0.27888600  0.15427600  1
  W  W4  1  0.22447400  0.27888600  0.15427600  1
  W  W5  1  0.50000000  0.29139100  0.43984300  1
  W  W6  1  0.00000000  0.71215800  0.55778700  1
  W  W7  1  0.72529500  0.72308100  0.84436400  1
  W  W8  1  0.27470500  0.72308100  0.84436400  1
  W  W9  1  0.77579000  0.78257100  0.34561300  1
  W  W10  1  0.22421000  0.78257100  0.34561300  1
  W  W11  1  0.50000000  0.79389700  0.05924000  1
  O  O0  1  0.86457600  0.06211500  0.37511800  1
  O  O1  1  0.13542400  0.06211500  0.37511800  1
  O  O2  1  0.50000000  0.06269000  0.98902300  1
  O  O3  1  0.87241900  0.08513400  0.21357500  1
  O  O4  1  0.12758100  0.08513400  0.21357500  1
  O  O5  1  0.26073500  0.07744300  0.07415600  1
  O  O6  1  0.73926500  0.07744300  0.07415600  1
  O  O7  1  0.35791500  0.07984600  0.46347500  1
  O  O8  1  0.64208500  0.07984600  0.46347500  1
  O  O9  1  0.86928600  0.15566400  0.70312000  1
  O  O10  1  0.13071400  0.15566400  0.70312000  1
  O  O11  1  0.00000000  0.15979000  0.83975300  1
  O  O12  1  0.50000000  0.34014200  0.33733400  1
  O  O13  1  0.37009800  0.34866300  0.20585600  1
  O  O14  1  0.62990200  0.34866300  0.20585600  1
  O  O15  1  0.14211300  0.41593000  0.96465400  1
  O  O16  1  0.85788700  0.41593000  0.96465400  1
  O  O17  1  0.76065500  0.42286400  0.57262300  1
  O  O18  1  0.23934500  0.42286400  0.57262300  1
  O  O19  1  0.37503900  0.42037900  0.71249000  1
  O  O20  1  0.62496100  0.42037900  0.71249000  1
  O  O21  1  0.00000000  0.43130800  0.49516400  1
  O  O22  1  0.36434900  0.44359200  0.87327000  1
  O  O23  1  0.63565100  0.44359200  0.87327000  1
  O  O24  1  0.86429700  0.55998100  0.12739300  1
  O  O25  1  0.13570300  0.55998100  0.12739300  1
  O  O26  1  0.50000000  0.56000100  0.51024600  1
  O  O27  1  0.87363800  0.58648200  0.28880500  1
  O  O28  1  0.12636200  0.58648200  0.28880500  1
  O  O29  1  0.25958700  0.58087600  0.42705100  1
  O  O30  1  0.74041300  0.58087600  0.42705100  1
  O  O31  1  0.35751800  0.58331600  0.03776500  1
  O  O32  1  0.64248200  0.58331600  0.03776500  1
  O  O33  1  0.86799900  0.64416400  0.79359300  1
  O  O34  1  0.13200100  0.64416400  0.79359300  1
  O  O35  1  0.00000000  0.63458900  0.65445900  1
  O  O36  1  0.50000000  0.84200800  0.16301700  1
  O  O37  1  0.37080100  0.84875500  0.29549100  1
  O  O38  1  0.62919900  0.84875500  0.29549100  1
  O  O39  1  0.86431000  0.91385200  0.53572200  1
  O  O40  1  0.13569000  0.91385200  0.53572200  1
  O  O41  1  0.76188100  0.92305300  0.92596500  1
  O  O42  1  0.23811900  0.92305300  0.92596500  1
  O  O43  1  0.37197800  0.91912500  0.78571000  1
  O  O44  1  0.62802200  0.91912500  0.78571000  1
  O  O45  1  0.00000000  0.93240600  0.01228400  1
  O  O46  1  0.36162200  0.94003800  0.62485900  1
  O  O47  1  0.63837800  0.94003800  0.62485900  1
loop_
_geom_bond_atom_site_label_1
_geom_bond_atom_site_label_2
_geom_bond_distance
_geom_bond_site_symmetry_2
Li0 O4 2.198069 1_555
Li0 O3 2.198069 1_455
Li0 O1 2.217493 1_555
Li0 O0 2.217493 1_455
Li0 O28 2.246714 1_555
Li0 O27 2.246714 1_455
Li1 O23 2.177929 1_555
Li1 O22 2.177929 1_555
Li1 O43 2.236348 1_545
Li1 O44 2.236348 1_545
Li1 O20 2.256948 1_555
Li1 O19 2.256948 1_555
Li2 O24 2.157875 1_455
Li2 O25 2.157875 1_555
Li2 O4 2.243583 1_565
Li2 O3 2.243583 1_465
Li2 O28 2.283811 1_555
Li2 O27 2.283811 1_455
Li3 O43 2.194543 1_555
Li3 O44 2.194543 1_555
Li3 O20 2.209418 1_555
Li3 O19 2.209418 1_555
Li3 O46 2.249231 1_555
Li3 O47 2.249231 1_555
Li4 O11 2.055632 1_565
Li4 O34 2.071609 1_555
Li4 O33 2.071609 1_455
Li4 O10 2.128699 1_565
Li4 O9 2.128699 1_465
Li4 O35 2.283699 1_555
Mg0 O36 2.035851 1_545
Mg0 O14 2.057676 1_555
Mg0 O13 2.057676 1_555
Mg0 O12 2.059228 1_555
Mg0 O38 2.068792 1_545
Mg0 O37 2.068792 1_545
Mg1 O22 2.068775 1_555
Mg1 O31 2.099226 1_556
Mg1 O15 2.110909 1_555
Mg1 O2 2.141051 1_555
Mg1 O42 2.162185 1_545
Mg1 O5 2.185782 1_556
Mg2 O23 2.068775 1_555
Mg2 O32 2.099226 1_556
Mg2 O16 2.110909 1_555
Mg2 O2 2.141051 1_555
Mg2 O41 2.162185 1_545
Mg2 O6 2.185782 1_556
Mg3 O0 2.068944 1_555
Mg3 O8 2.089371 1_555
Mg3 O30 2.107474 1_555
Mg3 O17 2.121878 1_555
Mg3 O39 2.139992 1_545
Mg3 O21 2.172066 1_655
Mg4 O1 2.068944 1_555
Mg4 O7 2.089371 1_555
Mg4 O29 2.107474 1_555
Mg4 O18 2.121878 1_555
Mg4 O40 2.139992 1_545
Mg4 O21 2.172066 1_555
Mg5 O11 1.989777 1_555
Mg5 O34 2.037924 1_555
Mg5 O33 2.037924 1_455
Mg5 O10 2.088651 1_555
Mg5 O9 2.088651 1_455
Mg5 O35 2.181645 1_555
Mg6 O36 2.012885 1_555
Mg6 O14 2.043209 1_555
Mg6 O13 2.043209 1_555
Mg6 O38 2.086155 1_555
Mg6 O37 2.086155 1_555
Mg6 O12 2.088356 1_555
Mg7 O46 2.032585 1_555
Mg7 O26 2.072853 1_555
Mg7 O7 2.085648 1_565
Mg7 O18 2.150619 1_555
Mg7 O29 2.173987 1_555
Mg7 O40 2.248216 1_555
Mg8 O47 2.032585 1_555
Mg8 O26 2.072853 1_555
Mg8 O8 2.085648 1_565
Mg8 O17 2.150619 1_555
Mg8 O30 2.173987 1_555
Mg8 O39 2.248216 1_555
Mg9 O16 2.045358 1_554
Mg9 O45 2.092788 1_655
Mg9 O24 2.108507 1_555
Mg9 O32 2.145019 1_555
Mg9 O41 2.148866 1_554
Mg9 O6 2.194144 1_565
Mg10 O15 2.045358 1_554
Mg10 O45 2.092788 1_555
Mg10 O25 2.108507 1_555
Mg10 O31 2.145019 1_555
Mg10 O42 2.148866 1_554
Mg10 O5 2.194144 1_565
O0 W9 1.822408 1_545
O1 W10 1.822408 1_545
O2 W11 1.895171 1_546
O3 W3 1.797333 1_555
O4 W4 1.797333 1_555
O5 W4 1.833635 1_555
O6 W3 1.833635 1_555
O7 W5 1.917677 1_555
O8 W5 1.917677 1_555
O9 W2 1.808929 1_555
O10 W1 1.808929 1_555
O11 W0 1.848035 1_555
O12 W5 1.868549 1_555
O13 W4 1.839000 1_555
O14 W3 1.839000 1_555
O15 W0 1.921433 1_555
O16 W0 1.921433 1_655
O17 W2 1.864201 1_555
O18 W1 1.864201 1_555
O19 W1 1.786931 1_555
O20 W2 1.786931 1_555
O21 W6 1.858618 1_555
O22 W8 1.822598 1_555
O23 W7 1.822598 1_555
O24 W3 1.814522 1_555
O25 W4 1.814522 1_555
O26 W5 1.899282 1_555
O27 W9 1.785460 1_555
O28 W10 1.785460 1_555
O29 W10 1.849036 1_555
O30 W9 1.849036 1_555
O31 W11 1.910416 1_555
O32 W11 1.910416 1_555
O33 W7 1.816030 1_555
O34 W8 1.816030 1_555
O35 W6 1.792153 1_555
O36 W11 1.891473 1_555
O37 W10 1.830308 1_555
O38 W9 1.830308 1_555
O39 W6 1.828370 1_655
O40 W6 1.828370 1_555
O41 W7 1.851159 1_555
O42 W8 1.851159 1_555
O43 W8 1.799571 1_555
O44 W7 1.799571 1_555
O45 W0 1.911997 1_564
O46 W1 1.828230 1_565
O47 W2 1.828230 1_565
