# generated using pymatgen
data_ZnCu(SiO3)2
_symmetry_space_group_name_H-M   'P 1'
_cell_length_a   6.90245918
_cell_length_b   6.90245918
_cell_length_c   5.29372798
_cell_angle_alpha   73.76526651
_cell_angle_beta   73.76526651
_cell_angle_gamma   86.49980347
_symmetry_Int_Tables_number   1
_chemical_formula_structural   ZnCu(SiO3)2
_chemical_formula_sum   'Zn2 Cu2 Si4 O12'
_cell_volume   232.46067689
_cell_formula_units_Z   2
loop_
 _symmetry_equiv_pos_site_id
 _symmetry_equiv_pos_as_xyz
  1  'x, y, z'
loop_
 _atom_site_type_symbol
 _atom_site_label
 _atom_site_symmetry_multiplicity
 _atom_site_fract_x
 _atom_site_fract_y
 _atom_site_fract_z
 _atom_site_occupancy
  Zn  Zn0  1  0.76194000  0.23806000  0.75000000  1
  Zn  Zn1  1  0.23806000  0.76194000  0.25000000  1
  Cu  Cu0  1  0.89163100  0.10836900  0.25000000  1
  Cu  Cu1  1  0.10836900  0.89163100  0.75000000  1
  Si  Si0  1  0.38288800  0.21175000  0.24613300  1
  Si  Si1  1  0.78825000  0.61711200  0.25386700  1
  Si  Si2  1  0.21175000  0.38288800  0.74613300  1
  Si  Si3  1  0.61711200  0.78825000  0.75386700  1
  O  O0  1  0.37488500  0.31562500  0.49295800  1
  O  O1  1  0.68437500  0.62511500  0.00704200  1
  O  O2  1  0.62511500  0.68437500  0.50704200  1
  O  O3  1  0.31562500  0.37488500  0.99295800  1
  O  O4  1  0.61139300  0.14317700  0.12747200  1
  O  O5  1  0.85682300  0.38860700  0.37252800  1
  O  O6  1  0.38860700  0.85682300  0.87252800  1
  O  O7  1  0.14317700  0.61139300  0.62747200  1
  O  O8  1  0.02598800  0.21183100  0.86881000  1
  O  O9  1  0.78816900  0.97401200  0.63119000  1
  O  O10  1  0.21183100  0.02598800  0.36881000  1
  O  O11  1  0.97401200  0.78816900  0.13119000  1
loop_
_geom_bond_atom_site_label_1
_geom_bond_atom_site_label_2
_geom_bond_distance
_geom_bond_site_symmetry_2
Cu0 O8 1.915920 1_654
Cu0 O9 1.915920 1_545
Cu0 O4 2.185804 1_555
Cu0 O5 2.185804 1_555
Cu0 O11 2.455114 1_545
Cu0 O10 2.455114 1_655
Cu1 O11 1.915920 1_456
Cu1 O10 1.915920 1_565
Cu1 O6 2.185804 1_555
Cu1 O7 2.185804 1_555
Cu1 O9 2.455114 1_455
Cu1 O8 2.455114 1_565
O0 Si0 1.644091 1_555
O0 Si2 1.649243 1_555
O1 Si1 1.644091 1_555
O1 Si3 1.649243 1_554
O2 Si3 1.644091 1_555
O2 Si1 1.649243 1_555
O3 Si2 1.644091 1_555
O3 Si0 1.649243 1_556
O4 Si0 1.620936 1_555
O4 Zn0 1.921456 1_554
O5 Si1 1.620936 1_555
O5 Zn0 1.921456 1_555
O6 Si3 1.620936 1_555
O6 Zn1 1.921456 1_556
O7 Si2 1.620936 1_555
O7 Zn1 1.921456 1_555
O8 Si2 1.658440 1_555
O8 Zn0 2.070543 1_455
O9 Si3 1.658440 1_555
O9 Zn0 2.070543 1_565
O10 Si0 1.658440 1_555
O10 Zn1 2.070543 1_545
O11 Si1 1.658440 1_555
O11 Zn1 2.070543 1_655
