# generated using pymatgen
data_YbAl7Au3
_symmetry_space_group_name_H-M   'P 1'
_cell_length_a   8.53492506
_cell_length_b   8.53492506
_cell_length_c   8.53492593
_cell_angle_alpha   56.51442062
_cell_angle_beta   56.51442062
_cell_angle_gamma   56.51442072
_symmetry_Int_Tables_number   1
_chemical_formula_structural   YbAl7Au3
_chemical_formula_sum   'Yb2 Al14 Au6'
_cell_volume   404.21107120
_cell_formula_units_Z   2
loop_
 _symmetry_equiv_pos_site_id
 _symmetry_equiv_pos_as_xyz
  1  'x, y, z'
loop_
 _atom_site_type_symbol
 _atom_site_label
 _atom_site_symmetry_multiplicity
 _atom_site_fract_x
 _atom_site_fract_y
 _atom_site_fract_z
 _atom_site_occupancy
  Yb  Yb0  1  0.50000000  0.50000000  0.50000000  1
  Yb  Yb1  1  0.00000000  0.00000000  0.00000000  1
  Al  Al0  1  0.43047400  0.64785400  0.83425000  1
  Al  Al1  1  0.83425000  0.43047400  0.64785400  1
  Al  Al2  1  0.64785400  0.83425000  0.43047400  1
  Al  Al3  1  0.06952600  0.66575000  0.85214600  1
  Al  Al4  1  0.85214600  0.06952600  0.66575000  1
  Al  Al5  1  0.66575000  0.85214600  0.06952600  1
  Al  Al6  1  0.56952600  0.35214600  0.16575000  1
  Al  Al7  1  0.16575000  0.56952600  0.35214600  1
  Al  Al8  1  0.25000000  0.25000000  0.25000000  1
  Al  Al9  1  0.75000000  0.75000000  0.75000000  1
  Al  Al10  1  0.33425000  0.14785400  0.93047400  1
  Al  Al11  1  0.14785400  0.93047400  0.33425000  1
  Al  Al12  1  0.93047400  0.33425000  0.14785400  1
  Al  Al13  1  0.35214600  0.16575000  0.56952600  1
  Au  Au0  1  0.75000000  0.07487700  0.42512300  1
  Au  Au1  1  0.42512300  0.75000000  0.07487700  1
  Au  Au2  1  0.07487700  0.42512300  0.75000000  1
  Au  Au3  1  0.25000000  0.92512300  0.57487700  1
  Au  Au4  1  0.57487700  0.25000000  0.92512300  1
  Au  Au5  1  0.92512300  0.57487700  0.25000000  1
loop_
_geom_bond_atom_site_label_1
_geom_bond_atom_site_label_2
_geom_bond_distance
_geom_bond_site_symmetry_2
Al0 Au1 2.609256 1_556
Al0 Au3 2.614019 1_555
Al0 Au4 2.679864 1_555
Al0 Yb1 3.362256 1_566
Al0 Yb0 3.370639 1_555
Al1 Au2 2.609256 1_655
Al1 Au4 2.614019 1_555
Al1 Au5 2.679864 1_555
Al1 Yb1 3.362256 1_656
Al1 Yb0 3.370639 1_555
Al2 Au0 2.609256 1_565
Al2 Au5 2.614019 1_555
Al2 Au3 2.679864 1_555
Al2 Yb1 3.362256 1_665
Al2 Yb0 3.370639 1_555
Al3 Au2 2.609256 1_555
Al3 Au3 2.614019 1_555
Al3 Au5 2.679864 1_456
Al3 Yb0 3.362256 1_555
Al3 Yb1 3.370639 1_566
Al4 Au0 2.609256 1_555
Al4 Au4 2.614019 1_555
Al4 Au3 2.679864 1_645
Al4 Yb0 3.362256 1_555
Al4 Yb1 3.370639 1_656
Al5 Au1 2.609256 1_555
Al5 Au5 2.614019 1_555
Al5 Au4 2.679864 1_564
Al5 Yb0 3.362256 1_555
Al5 Yb1 3.370639 1_665
Al6 Au4 2.609256 1_554
Al6 Au0 2.614019 1_555
Al6 Au1 2.679864 1_555
Al6 Yb1 3.362256 1_655
Al6 Yb0 3.370639 1_555
Al7 Au5 2.609256 1_455
Al7 Au1 2.614019 1_555
Al7 Au2 2.679864 1_555
Al7 Yb1 3.362256 1_565
Al7 Yb0 3.370639 1_555
Al8 Au5 2.625457 1_455
Al8 Au3 2.625457 1_545
Al8 Au4 2.625457 1_554
Al9 Au2 2.625457 1_655
Al9 Au1 2.625457 1_556
Al9 Au0 2.625457 1_565
Al10 Au4 2.609256 1_555
Al10 Au2 2.614019 1_555
Al10 Au1 2.679864 1_546
Al10 Yb0 3.362256 1_555
Al10 Yb1 3.370639 1_556
Al11 Au3 2.609256 1_555
Al11 Au1 2.614019 1_555
Al11 Au0 2.679864 1_465
Al11 Yb0 3.362256 1_555
Al11 Yb1 3.370639 1_565
Al12 Au5 2.609256 1_555
Al12 Au0 2.614019 1_555
Al12 Au2 2.679864 1_654
Al12 Yb0 3.362256 1_555
Al12 Yb1 3.370639 1_655
Al13 Au3 2.609256 1_545
Al13 Au2 2.614019 1_555
Al13 Au0 2.679864 1_555
Al13 Yb1 3.362256 1_556
Al13 Yb0 3.370639 1_555
Au0 Yb0 3.261519 1_555
Au0 Yb1 3.261519 1_655
Au1 Yb1 3.261519 1_565
Au1 Yb0 3.261519 1_555
Au2 Yb1 3.261519 1_556
Au2 Yb0 3.261519 1_555
Au3 Yb0 3.261519 1_555
Au3 Yb1 3.261519 1_566
Au4 Yb1 3.261519 1_656
Au4 Yb0 3.261519 1_555
Au5 Yb1 3.261519 1_665
Au5 Yb0 3.261519 1_555
