# generated using pymatgen
data_Y4ZrMn5O15
_symmetry_space_group_name_H-M   'P 1'
_cell_length_a   6.24945200
_cell_length_b   9.55583805
_cell_length_c   12.04872835
_cell_angle_alpha   93.42627330
_cell_angle_beta   104.88957715
_cell_angle_gamma   109.06898596
_symmetry_Int_Tables_number   1
_chemical_formula_structural   Y4ZrMn5O15
_chemical_formula_sum   'Y8 Zr2 Mn10 O30'
_cell_volume   649.03094206
_cell_formula_units_Z   2
loop_
 _symmetry_equiv_pos_site_id
 _symmetry_equiv_pos_as_xyz
  1  'x, y, z'
loop_
 _atom_site_type_symbol
 _atom_site_label
 _atom_site_symmetry_multiplicity
 _atom_site_fract_x
 _atom_site_fract_y
 _atom_site_fract_z
 _atom_site_occupancy
  Y  Y0  1  0.85504700  0.95379000  0.75742900  1
  Y  Y1  1  0.24064900  0.74545800  0.73542200  1
  Y  Y2  1  0.66532200  0.55322900  0.77563400  1
  Y  Y3  1  0.06836800  0.35328000  0.77778200  1
  Y  Y4  1  0.74795000  0.24837000  0.24919600  1
  Y  Y5  1  0.14322000  0.04834800  0.24460800  1
  Y  Y6  1  0.96717100  0.65800500  0.27918400  1
  Y  Y7  1  0.37037900  0.45727100  0.27852200  1
  Zr  Zr0  1  0.43412500  0.14910600  0.72779400  1
  Zr  Zr1  1  0.53799500  0.84516200  0.22610400  1
  Mn  Mn0  1  0.58100500  0.30084700  0.50636300  1
  Mn  Mn1  1  0.16801500  0.48940600  0.50692400  1
  Mn  Mn2  1  0.76284300  0.71090200  0.50893900  1
  Mn  Mn3  1  0.38532300  0.90537200  0.50476600  1
  Mn  Mn4  1  0.95667800  0.09863900  0.50197600  1
  Mn  Mn5  1  0.92771400  0.20321900  0.00608600  1
  Mn  Mn6  1  0.54244700  0.39709300  0.01088800  1
  Mn  Mn7  1  0.13657400  0.59980600  0.00697800  1
  Mn  Mn8  1  0.73746900  0.79820700  0.00301900  1
  Mn  Mn9  1  0.33913600  0.00783500  0.00155800  1
  O  O0  1  0.68013900  0.33719500  0.67464200  1
  O  O1  1  0.27303400  0.52251800  0.67353400  1
  O  O2  1  0.85779400  0.72775800  0.67443900  1
  O  O3  1  0.46615500  0.94073500  0.67048400  1
  O  O4  1  0.08065200  0.14371700  0.68120000  1
  O  O5  1  0.05675800  0.24358200  0.17325400  1
  O  O6  1  0.63813000  0.44856300  0.18019500  1
  O  O7  1  0.23312800  0.63201600  0.17562700  1
  O  O8  1  0.83555300  0.82297700  0.17032500  1
  O  O9  1  0.42751400  0.02514800  0.17039700  1
  O  O10  1  0.45272300  0.34312700  0.84012100  1
  O  O11  1  0.05864500  0.58357200  0.84216200  1
  O  O12  1  0.62094200  0.77170000  0.83820900  1
  O  O13  1  0.25764900  0.97992300  0.83227800  1
  O  O14  1  0.79241200  0.16261300  0.83745300  1
  O  O15  1  0.46397400  0.25486600  0.34077700  1
  O  O16  1  0.06148300  0.46370000  0.34142100  1
  O  O17  1  0.66651000  0.69818500  0.34135000  1
  O  O18  1  0.30360800  0.87405100  0.33743100  1
  O  O19  1  0.84098200  0.04368500  0.32426400  1
  O  O20  1  0.62085000  0.20695600  0.03512000  1
  O  O21  1  0.00067300  0.00003100  0.00213400  1
  O  O22  1  0.42134400  0.80337300  0.03283400  1
  O  O23  1  0.79113600  0.59694300  0.98585500  1
  O  O24  1  0.18909800  0.39494400  0.98355000  1
  O  O25  1  0.71435300  0.90462500  0.53223300  1
  O  O26  1  0.09888600  0.70236500  0.50254600  1
  O  O27  1  0.49751600  0.50018300  0.48777900  1
  O  O28  1  0.89589000  0.30096100  0.49361300  1
  O  O29  1  0.32303500  0.10931300  0.52893000  1
loop_
_geom_bond_atom_site_label_1
_geom_bond_atom_site_label_2
_geom_bond_distance
_geom_bond_site_symmetry_2
Mn0 O15 1.908861 1_555
Mn0 O0 1.935223 1_555
Mn0 O28 2.012473 1_555
Mn0 O29 2.092759 1_555
Mn0 O27 2.142676 1_555
Mn1 O16 1.905870 1_555
Mn1 O1 1.916240 1_555
Mn1 O28 1.996212 1_455
Mn1 O27 2.100597 1_555
Mn1 O26 2.215000 1_555
Mn2 O2 1.909296 1_555
Mn2 O17 1.937175 1_555
Mn2 O25 1.986365 1_555
Mn2 O27 2.099707 1_555
Mn2 O26 2.148783 1_655
Mn3 O3 1.909347 1_555
Mn3 O18 1.927225 1_555
Mn3 O25 1.999480 1_555
Mn3 O29 2.126107 1_565
Mn3 O26 2.160665 1_555
Mn4 O19 2.050653 1_555
Mn4 O4 2.063943 1_655
Mn4 O28 2.091856 1_555
Mn4 O25 2.096058 1_545
Mn4 O29 2.195257 1_655
Mn5 O5 1.930056 1_655
Mn5 O14 1.949940 1_554
Mn5 O20 2.046795 1_555
Mn5 O24 2.104888 1_654
Mn5 O21 2.135103 1_655
Mn6 O6 1.954949 1_555
Mn6 O10 1.976129 1_554
Mn6 O20 2.048926 1_555
Mn6 O23 2.126944 1_554
Mn6 O24 2.140324 1_554
Mn7 O11 1.903033 1_554
Mn7 O7 1.939497 1_555
Mn7 O23 2.098607 1_454
Mn7 O24 2.102659 1_554
Mn7 O22 2.104481 1_555
Mn8 O12 1.901019 1_554
Mn8 O8 1.925736 1_555
Mn8 O23 2.064875 1_554
Mn8 O21 2.088989 1_665
Mn8 O22 2.112071 1_555
Mn9 O9 1.947672 1_555
Mn9 O13 1.950107 1_544
Mn9 O20 2.058369 1_555
Mn9 O21 2.093861 1_555
Mn9 O22 2.206286 1_545
O0 Zr0 2.200531 1_555
O0 Y2 2.373496 1_555
O0 Y3 2.374550 1_655
O1 Y1 2.303239 1_555
O1 Y3 2.354967 1_555
O1 Y2 2.355114 1_555
O2 Y1 2.260626 1_655
O2 Y2 2.323980 1_555
O2 Y0 2.332449 1_555
O3 Zr0 2.156088 1_565
O3 Y1 2.259030 1_555
O3 Y0 2.344672 1_555
O4 Zr0 2.117179 1_555
O4 Y3 2.288688 1_555
O4 Y0 2.306093 1_445
O5 Y5 2.263474 1_555
O5 Y7 2.327578 1_555
O5 Y4 2.350309 1_455
O6 Y7 2.303990 1_555
O6 Y6 2.328456 1_555
O6 Y4 2.361478 1_555
O7 Zr1 2.206624 1_555
O7 Y6 2.383166 1_455
O7 Y7 2.387026 1_555
O8 Zr1 2.199423 1_555
O8 Y5 2.305555 1_665
O8 Y6 2.328532 1_555
O9 Zr1 2.135672 1_545
O9 Y5 2.248407 1_555
O9 Y4 2.334813 1_555
O10 Zr0 2.181986 1_555
O10 Y2 2.318154 1_555
O10 Y3 2.361571 1_555
O11 Y1 2.276109 1_555
O11 Y2 2.294029 1_455
O11 Y3 2.314248 1_555
O12 Y2 2.302478 1_555
O12 Y1 2.303438 1_555
O12 Y0 2.320832 1_555
O13 Zr0 2.281796 1_565
O13 Y0 2.366975 1_455
O13 Y1 2.421005 1_555
O14 Zr0 2.246404 1_555
O14 Y0 2.353546 1_545
O14 Y3 2.356128 1_655
O15 Y5 2.281121 1_555
O15 Y7 2.309297 1_555
O15 Y4 2.332624 1_555
O16 Y6 2.238654 1_455
O16 Y7 2.264609 1_555
O16 Y4 2.298116 1_455
O17 Zr1 2.223239 1_555
O17 Y6 2.323632 1_555
O17 Y7 2.363407 1_555
O18 Zr1 2.291447 1_555
O18 Y6 2.325429 1_455
O18 Y5 2.401448 1_565
O19 Zr1 2.194716 1_545
O19 Y5 2.317866 1_655
O19 Y4 2.380345 1_555
O20 Y4 2.461756 1_555
O21 Y5 2.788272 1_555
O21 Y0 2.814074 1_444
O22 Zr1 2.222559 1_555
O23 Y2 2.417378 1_555
O24 Y3 2.366187 1_555
O25 Y0 2.589907 1_555
O26 Y6 2.568492 1_455
O26 Y1 2.678306 1_555
O27 Y7 2.406311 1_555
O28 Y4 2.810717 1_555
O29 Zr0 2.287224 1_555
