# generated using pymatgen
data_KNdH6C4O11
_symmetry_space_group_name_H-M   'P 1'
_cell_length_a   12.33372514
_cell_length_b   12.33372514
_cell_length_c   13.02723970
_cell_angle_alpha   81.07360696
_cell_angle_beta   81.07360696
_cell_angle_gamma   35.58143223
_symmetry_Int_Tables_number   1
_chemical_formula_structural   KNdH6C4O11
_chemical_formula_sum   'K4 Nd4 H24 C16 O44'
_cell_volume   1137.66562832
_cell_formula_units_Z   4
loop_
 _symmetry_equiv_pos_site_id
 _symmetry_equiv_pos_as_xyz
  1  'x, y, z'
loop_
 _atom_site_type_symbol
 _atom_site_label
 _atom_site_symmetry_multiplicity
 _atom_site_fract_x
 _atom_site_fract_y
 _atom_site_fract_z
 _atom_site_occupancy
  K  K0  1  0.41928500  0.42016400  0.86998400  1
  K  K1  1  0.57983600  0.58071500  0.63001600  1
  K  K2  1  0.58071500  0.57983600  0.13001600  1
  K  K3  1  0.42016400  0.41928500  0.36998400  1
  Nd  Nd0  1  0.86377600  0.86266100  0.51387000  1
  Nd  Nd1  1  0.13733900  0.13622400  0.98613000  1
  Nd  Nd2  1  0.13622400  0.13733900  0.48613000  1
  Nd  Nd3  1  0.86266100  0.86377600  0.01387000  1
  H  H0  1  0.45939400  0.17807600  0.62265200  1
  H  H1  1  0.82192400  0.54060600  0.87734800  1
  H  H2  1  0.54060600  0.82192400  0.37734800  1
  H  H3  1  0.17807600  0.45939400  0.12265200  1
  H  H4  1  0.44380100  0.15542900  0.51115500  1
  H  H5  1  0.84457100  0.55619900  0.98884500  1
  H  H6  1  0.55619900  0.84457100  0.48884500  1
  H  H7  1  0.15542900  0.44380100  0.01115500  1
  H  H8  1  0.19791900  0.43225500  0.71828300  1
  H  H9  1  0.56774500  0.80208100  0.78171700  1
  H  H10  1  0.80208100  0.56774500  0.28171700  1
  H  H11  1  0.43225500  0.19791900  0.21828300  1
  H  H12  1  0.30614900  0.26859200  0.80183100  1
  H  H13  1  0.73140800  0.69385100  0.69816900  1
  H  H14  1  0.69385100  0.73140800  0.19816900  1
  H  H15  1  0.26859200  0.30614900  0.30183100  1
  H  H16  1  0.35480000  0.54014100  0.61542800  1
  H  H17  1  0.45985900  0.64520000  0.88457200  1
  H  H18  1  0.64520000  0.45985900  0.38457200  1
  H  H19  1  0.54014100  0.35480000  0.11542800  1
  H  H20  1  0.55679300  0.32616400  0.63554700  1
  H  H21  1  0.67383600  0.44320700  0.86445300  1
  H  H22  1  0.44320700  0.67383600  0.36445300  1
  H  H23  1  0.32616400  0.55679300  0.13554700  1
  C  C0  1  0.94045300  0.75867600  0.76882900  1
  C  C1  1  0.24132400  0.05954700  0.73117100  1
  C  C2  1  0.05954700  0.24132400  0.23117100  1
  C  C3  1  0.75867600  0.94045300  0.26882900  1
  C  C4  1  0.81024300  0.96601600  0.75639900  1
  C  C5  1  0.03398400  0.18975700  0.74360100  1
  C  C6  1  0.18975700  0.03398400  0.24360100  1
  C  C7  1  0.96601600  0.81024300  0.25639900  1
  C  C8  1  0.90541500  0.09730900  0.47578500  1
  C  C9  1  0.90269100  0.09458500  0.02421500  1
  C  C10  1  0.09458500  0.90269100  0.52421500  1
  C  C11  1  0.09730900  0.90541500  0.97578500  1
  C  C12  1  0.89927600  0.55919900  0.51208100  1
  C  C13  1  0.44080100  0.10072400  0.98791900  1
  C  C14  1  0.10072400  0.44080100  0.48791900  1
  C  C15  1  0.55919900  0.89927600  0.01208100  1
  O  O0  1  0.00134600  0.67828600  0.85812700  1
  O  O1  1  0.32171400  0.99865400  0.64187300  1
  O  O2  1  0.99865400  0.32171400  0.14187300  1
  O  O3  1  0.67828600  0.00134600  0.35812700  1
  O  O4  1  0.97930600  0.68293600  0.68855500  1
  O  O5  1  0.31706400  0.02069400  0.81144500  1
  O  O6  1  0.02069400  0.31706400  0.31144500  1
  O  O7  1  0.68293600  0.97930600  0.18855500  1
  O  O8  1  0.76422400  0.04155000  0.83865300  1
  O  O9  1  0.95845000  0.23577600  0.66134700  1
  O  O10  1  0.23577600  0.95845000  0.16134700  1
  O  O11  1  0.04155000  0.76422400  0.33865300  1
  O  O12  1  0.76180600  0.04146700  0.66529400  1
  O  O13  1  0.95853300  0.23819400  0.83470600  1
  O  O14  1  0.23819400  0.95853300  0.33470600  1
  O  O15  1  0.04146700  0.76180600  0.16529400  1
  O  O16  1  0.79532700  0.11493200  0.45351000  1
  O  O17  1  0.88506800  0.20467300  0.04649000  1
  O  O18  1  0.20467300  0.88506800  0.54649000  1
  O  O19  1  0.11493200  0.79532700  0.95351000  1
  O  O20  1  0.87607100  0.22400600  0.46233400  1
  O  O21  1  0.77599400  0.12392900  0.03766600  1
  O  O22  1  0.12392900  0.77599400  0.53766600  1
  O  O23  1  0.22400600  0.87607100  0.96233400  1
  O  O24  1  0.77405100  0.72978300  0.53051000  1
  O  O25  1  0.27021700  0.22594900  0.96949000  1
  O  O26  1  0.22594900  0.27021700  0.46949000  1
  O  O27  1  0.72978300  0.77405100  0.03051000  1
  O  O28  1  0.87351600  0.47899800  0.51247400  1
  O  O29  1  0.52100200  0.12648400  0.98752600  1
  O  O30  1  0.12648400  0.52100200  0.48752600  1
  O  O31  1  0.47899800  0.87351600  0.01247400  1
  O  O32  1  0.52601400  0.12607800  0.55337100  1
  O  O33  1  0.87392200  0.47398600  0.94662900  1
  O  O34  1  0.47398600  0.87392200  0.44662900  1
  O  O35  1  0.12607800  0.52601400  0.05337100  1
  O  O36  1  0.32401300  0.30124500  0.73459400  1
  O  O37  1  0.69875500  0.67598700  0.76540600  1
  O  O38  1  0.67598700  0.69875500  0.26540600  1
  O  O39  1  0.30124500  0.32401300  0.23459400  1
  O  O40  1  0.46760400  0.45376300  0.65408000  1
  O  O41  1  0.54623700  0.53239600  0.84592000  1
  O  O42  1  0.53239600  0.54623700  0.34592000  1
  O  O43  1  0.45376300  0.46760400  0.15408000  1
loop_
_geom_bond_atom_site_label_1
_geom_bond_atom_site_label_2
_geom_bond_distance
_geom_bond_site_symmetry_2
K0 O41 2.775715 1_555
K0 O8 2.794706 1_555
K0 O40 2.820924 1_555
K0 O29 2.919274 1_555
K0 O19 2.954279 1_555
K0 O0 3.183053 1_555
K1 O40 2.775715 1_555
K1 O9 2.794706 1_555
K1 O41 2.820924 1_555
K1 O28 2.919274 1_555
K1 O18 2.954279 1_555
K1 O1 3.183053 1_555
K2 O43 2.775715 1_555
K2 O10 2.794706 1_555
K2 O42 2.820924 1_555
K2 O31 2.919274 1_555
K2 O17 2.954279 1_555
K2 O2 3.183053 1_555
K3 O42 2.775715 1_555
K3 O11 2.794706 1_555
K3 O43 2.820924 1_555
K3 O30 2.919274 1_555
K3 O16 2.954279 1_555
K3 O3 3.183053 1_555
Nd0 O32 2.452193 1_565
Nd0 O22 2.482166 1_655
Nd0 O16 2.487206 1_565
Nd0 O30 2.503663 1_655
Nd0 O3 2.504887 1_565
Nd0 O12 2.530857 1_565
Nd0 O4 2.534929 1_555
Nd0 O11 2.543355 1_655
Nd0 O24 2.592863 1_555
Nd1 O33 2.452193 1_455
Nd1 O23 2.482166 1_545
Nd1 O17 2.487206 1_456
Nd1 O31 2.503663 1_546
Nd1 O2 2.504887 1_456
Nd1 O13 2.530857 1_455
Nd1 O5 2.534929 1_555
Nd1 O10 2.543355 1_546
Nd1 O25 2.592863 1_555
Nd2 O34 2.452193 1_545
Nd2 O20 2.482166 1_455
Nd2 O18 2.487206 1_545
Nd2 O28 2.503663 1_455
Nd2 O1 2.504887 1_545
Nd2 O14 2.530857 1_545
Nd2 O6 2.534929 1_555
Nd2 O9 2.543355 1_455
Nd2 O26 2.592863 1_555
Nd3 O35 2.452193 1_655
Nd3 O21 2.482166 1_565
Nd3 O19 2.487206 1_654
Nd3 O29 2.503663 1_564
Nd3 O0 2.504887 1_654
Nd3 O15 2.530857 1_655
Nd3 O7 2.534929 1_555
Nd3 O8 2.543355 1_564
Nd3 O27 2.592863 1_555
H0 O32 0.996679 1_555
H1 O33 0.996679 1_555
H2 O34 0.996679 1_555
H3 O35 0.996679 1_555
H4 O32 0.987869 1_555
H5 O33 0.987869 1_555
H6 O34 0.987869 1_555
H7 O35 0.987869 1_555
H8 O36 0.991577 1_555
H9 O37 0.991577 1_555
H10 O38 0.991577 1_555
H11 O39 0.991577 1_555
H12 O36 0.976182 1_555
H13 O37 0.976182 1_555
H14 O38 0.976182 1_555
H15 O39 0.976182 1_555
H16 O40 0.981937 1_555
H17 O41 0.981937 1_555
H18 O42 0.981937 1_555
H19 O43 0.981937 1_555
H20 O40 0.982181 1_555
H21 O41 0.982181 1_555
H22 O42 0.982181 1_555
H23 O43 0.982181 1_555
C0 O0 1.265847 1_655
C0 O4 1.270976 1_555
C1 O1 1.265847 1_545
C1 O5 1.270976 1_555
C2 O2 1.265847 1_455
C2 O6 1.270976 1_555
C3 O3 1.265847 1_565
C3 O7 1.270976 1_555
C4 O8 1.264606 1_565
C4 O12 1.266689 1_565
C5 O9 1.264606 1_455
C5 O13 1.266689 1_455
C6 O10 1.264606 1_545
C6 O14 1.266689 1_545
C7 O11 1.264606 1_655
C7 O15 1.266689 1_655
C8 O16 1.264005 1_555
C8 O20 1.272141 1_555
C9 O17 1.264005 1_555
C9 O21 1.272141 1_555
C10 O18 1.264005 1_555
C10 O22 1.272141 1_555
C11 O19 1.264005 1_555
C11 O23 1.272141 1_555
C12 O28 1.260382 1_555
C12 O24 1.275043 1_555
C13 O29 1.260382 1_555
C13 O25 1.275043 1_555
C14 O30 1.260382 1_555
C14 O26 1.275043 1_555
C15 O31 1.260382 1_555
C15 O27 1.275043 1_555
