# generated using pymatgen
data_Sr2CuS2F
_symmetry_space_group_name_H-M   'P 1'
_cell_length_a   4.42468300
_cell_length_b   4.42468300
_cell_length_c   14.10524100
_cell_angle_alpha   90.00000000
_cell_angle_beta   90.00000000
_cell_angle_gamma   90.00000000
_symmetry_Int_Tables_number   1
_chemical_formula_structural   Sr2CuS2F
_chemical_formula_sum   'Sr2 Cu1 S2 F1'
_cell_volume   276.14986442
_cell_formula_units_Z   1
loop_
 _symmetry_equiv_pos_site_id
 _symmetry_equiv_pos_as_xyz
  1  'x, y, z'
loop_
 _atom_site_type_symbol
 _atom_site_label
 _atom_site_symmetry_multiplicity
 _atom_site_fract_x
 _atom_site_fract_y
 _atom_site_fract_z
 _atom_site_occupancy
  Sr  Sr0  1  0.50000000  0.50000000  0.16482800  1
  Sr  Sr1  1  0.50000000  0.50000000  0.83517200  1
  Cu  Cu0  1  0.50000000  0.50000000  0.50000000  1
  S  S0  1  0.50000000  0.50000000  0.64670800  1
  S  S1  1  0.50000000  0.50000000  0.35329200  1
  F  F0  1  0.50000000  0.50000000  0.00000000  1
loop_
_geom_bond_atom_site_label_1
_geom_bond_atom_site_label_2
_geom_bond_distance
_geom_bond_site_symmetry_2
Cu0 S0 2.069352 1_555
Cu0 S1 2.069352 1_555
S0 Sr1 2.658330 1_555
S1 Sr0 2.658330 1_555
F0 Sr0 2.324939 1_555
F0 Sr1 2.324939 1_554
