# generated using pymatgen
data_SrPrFeRuO6
_symmetry_space_group_name_H-M   'P 1'
_cell_length_a   5.64361500
_cell_length_b   5.59754100
_cell_length_c   9.70137388
_cell_angle_alpha   54.78574903
_cell_angle_beta   90.00000000
_cell_angle_gamma   90.00000000
_symmetry_Int_Tables_number   1
_chemical_formula_structural   SrPrFeRuO6
_chemical_formula_sum   'Sr2 Pr2 Fe2 Ru2 O12'
_cell_volume   250.38641254
_cell_formula_units_Z   2
loop_
 _symmetry_equiv_pos_site_id
 _symmetry_equiv_pos_as_xyz
  1  'x, y, z'
loop_
 _atom_site_type_symbol
 _atom_site_label
 _atom_site_symmetry_multiplicity
 _atom_site_fract_x
 _atom_site_fract_y
 _atom_site_fract_z
 _atom_site_occupancy
  Sr  Sr0  1  0.72208500  0.75386300  0.75009400  1
  Sr  Sr1  1  0.27791500  0.75386300  0.25009400  1
  Pr  Pr0  1  0.20717500  0.23825000  0.74951300  1
  Pr  Pr1  1  0.79282500  0.23825000  0.24951300  1
  Fe  Fe0  1  0.25391300  0.49951100  0.99983300  1
  Fe  Fe1  1  0.74608700  0.49951100  0.49983300  1
  Ru  Ru0  1  0.25213400  0.99956600  0.50048300  1
  Ru  Ru1  1  0.74786600  0.99956600  0.00048300  1
  O  O0  1  0.25991800  0.66685900  0.74953700  1
  O  O1  1  0.76975800  0.31225100  0.75057000  1
  O  O2  1  0.23024200  0.31225100  0.25057000  1
  O  O3  1  0.74008200  0.66685900  0.24953700  1
  O  O4  1  0.02518500  0.76263600  0.46324200  1
  O  O5  1  0.53924900  0.24731900  0.04141400  1
  O  O6  1  0.46231600  0.83297400  0.95812500  1
  O  O7  1  0.97575600  0.18677100  0.53718900  1
  O  O8  1  0.46075100  0.24731900  0.54141400  1
  O  O9  1  0.97481500  0.76263600  0.96324200  1
  O  O10  1  0.02424400  0.18677100  0.03718900  1
  O  O11  1  0.53768400  0.83297400  0.45812500  1
loop_
_geom_bond_atom_site_label_1
_geom_bond_atom_site_label_2
_geom_bond_distance
_geom_bond_site_symmetry_2
Fe0 O5 2.022848 1_556
Fe0 O2 2.023130 1_556
Fe0 O10 2.035740 1_556
Fe0 O0 2.037553 1_555
Fe0 O6 2.039636 1_555
Fe0 O9 2.042876 1_455
Fe1 O8 2.022848 1_555
Fe1 O1 2.023130 1_555
Fe1 O7 2.035740 1_555
Fe1 O3 2.037553 1_555
Fe1 O11 2.039636 1_555
Fe1 O4 2.042876 1_655
O0 Ru0 2.029458 1_555
O0 Pr0 2.417684 1_555
O0 Sr0 2.653946 1_555
O1 Ru1 2.015680 1_546
O1 Sr0 2.483896 1_555
O1 Pr0 2.504124 1_655
O2 Ru0 2.015680 1_545
O2 Sr1 2.483896 1_555
O2 Pr1 2.504124 1_455
O3 Ru1 2.029458 1_555
O3 Pr1 2.417684 1_555
O3 Sr1 2.653946 1_555
O4 Ru0 2.020514 1_555
O4 Sr1 2.535705 1_555
O4 Pr1 2.596223 1_465
O4 Pr0 2.825301 1_555
O5 Ru1 2.025380 1_545
O5 Pr1 2.451149 1_555
O5 Sr1 2.730239 1_545
O5 Sr0 2.801786 1_554
O6 Ru1 2.019258 1_556
O6 Pr0 2.453713 1_565
O6 Sr0 2.729308 1_555
O6 Sr1 2.802790 1_556
O7 Ru0 2.021906 1_645
O7 Sr0 2.532880 1_545
O7 Pr0 2.591567 1_655
O7 Pr1 2.830241 1_555
O8 Ru0 2.025380 1_545
O8 Pr0 2.451149 1_555
O8 Sr0 2.730239 1_545
O8 Sr1 2.801786 1_555
O9 Ru1 2.020514 1_556
O9 Sr0 2.535705 1_555
O9 Pr0 2.596223 1_665
O9 Pr1 2.825301 1_556
O10 Ru1 2.021906 1_445
O10 Sr1 2.532880 1_545
O10 Pr1 2.591567 1_455
O10 Pr0 2.830241 1_554
O11 Ru0 2.019258 1_555
O11 Pr1 2.453713 1_565
O11 Sr1 2.729308 1_555
O11 Sr0 2.802790 1_555
