# generated using pymatgen
data_SrB4O7
_symmetry_space_group_name_H-M   'P 1'
_cell_length_a   17.30233418
_cell_length_b   17.30233418
_cell_length_c   4.29576800
_cell_angle_alpha   90.00000000
_cell_angle_beta   90.00000000
_cell_angle_gamma   120.00000070
_symmetry_Int_Tables_number   1
_chemical_formula_structural   SrB4O7
_chemical_formula_sum   'Sr9 B36 O63'
_cell_volume   1113.73236113
_cell_formula_units_Z   9
loop_
 _symmetry_equiv_pos_site_id
 _symmetry_equiv_pos_as_xyz
  1  'x, y, z'
loop_
 _atom_site_type_symbol
 _atom_site_label
 _atom_site_symmetry_multiplicity
 _atom_site_fract_x
 _atom_site_fract_y
 _atom_site_fract_z
 _atom_site_occupancy
  Sr  Sr0  1  0.33333300  0.66666700  0.49882100  1
  Sr  Sr1  1  0.00000000  0.00000000  0.70553100  1
  Sr  Sr2  1  0.66666700  0.33333300  0.60697500  1
  Sr  Sr3  1  0.34095800  0.34281400  0.70121800  1
  Sr  Sr4  1  0.00185600  0.65904200  0.70121800  1
  Sr  Sr5  1  0.65718600  0.99814400  0.70121800  1
  Sr  Sr6  1  0.67484600  0.67261300  0.51649500  1
  Sr  Sr7  1  0.99776700  0.32515400  0.51649500  1
  Sr  Sr8  1  0.32738700  0.00223300  0.51649500  1
  B  B0  1  0.51514400  0.38019400  0.32421900  1
  B  B1  1  0.86504900  0.48485600  0.32421900  1
  B  B2  1  0.61980600  0.13495100  0.32421900  1
  B  B3  1  0.63675800  0.48542400  0.99728800  1
  B  B4  1  0.84866500  0.36324200  0.99728800  1
  B  B5  1  0.51457600  0.15133500  0.99728800  1
  B  B6  1  0.30006600  0.47146200  0.24168100  1
  B  B7  1  0.17139600  0.69993400  0.24168100  1
  B  B8  1  0.52853800  0.82860400  0.24168100  1
  B  B9  1  0.19245200  0.48110400  0.90617500  1
  B  B10  1  0.28865300  0.80754800  0.90617500  1
  B  B11  1  0.51889600  0.71134700  0.90617500  1
  B  B12  1  0.17864900  0.14102100  0.27757000  1
  B  B13  1  0.96237200  0.82135100  0.27757000  1
  B  B14  1  0.85897900  0.03762800  0.27757000  1
  B  B15  1  0.19996400  0.03905700  0.94410400  1
  B  B16  1  0.83909300  0.80003600  0.94410400  1
  B  B17  1  0.96094300  0.16090700  0.94410400  1
  B  B18  1  0.50757800  0.51264600  0.11095000  1
  B  B19  1  0.00506800  0.49242200  0.11095000  1
  B  B20  1  0.48735400  0.99493200  0.11095000  1
  B  B21  1  0.45104500  0.55834600  0.59758200  1
  B  B22  1  0.10730100  0.54895500  0.59758200  1
  B  B23  1  0.44165400  0.89269900  0.59758200  1
  B  B24  1  0.16878000  0.32741400  0.04731800  1
  B  B25  1  0.15863500  0.83122000  0.04731800  1
  B  B26  1  0.67258600  0.84136500  0.04731800  1
  B  B27  1  0.10835000  0.22595800  0.55960000  1
  B  B28  1  0.11760800  0.89165000  0.55960000  1
  B  B29  1  0.77404200  0.88239200  0.55960000  1
  B  B30  1  0.33605600  0.17102400  0.17916500  1
  B  B31  1  0.83496800  0.66394400  0.17916500  1
  B  B32  1  0.82897600  0.16503200  0.17916500  1
  B  B33  1  0.43849800  0.22885300  0.68228100  1
  B  B34  1  0.79035500  0.56150200  0.68228100  1
  B  B35  1  0.77114700  0.20964500  0.68228100  1
  O  O0  1  0.49176200  0.32201900  0.56192300  1
  O  O1  1  0.83025700  0.50823800  0.56192300  1
  O  O2  1  0.67798100  0.16974300  0.56192300  1
  O  O3  1  0.46645800  0.41990700  0.24890400  1
  O  O4  1  0.95344900  0.53354200  0.24890400  1
  O  O5  1  0.58009300  0.04655100  0.24890400  1
  O  O6  1  0.59830300  0.40765900  0.18392700  1
  O  O7  1  0.80935600  0.40169700  0.18392700  1
  O  O8  1  0.59234100  0.19064400  0.18392700  1
  O  O9  1  0.60307600  0.54234200  0.00000500  1
  O  O10  1  0.93926600  0.39692400  0.00000500  1
  O  O11  1  0.45765800  0.06073400  0.00000500  1
  O  O12  1  0.70201100  0.49111600  0.80773700  1
  O  O13  1  0.78910400  0.29798900  0.80773700  1
  O  O14  1  0.50888400  0.21089600  0.80773700  1
  O  O15  1  0.35741900  0.50967800  0.47879200  1
  O  O16  1  0.15225900  0.64258100  0.47879200  1
  O  O17  1  0.49032200  0.84774100  0.47879200  1
  O  O18  1  0.26393600  0.38261900  0.16909700  1
  O  O19  1  0.11868300  0.73606400  0.16909700  1
  O  O20  1  0.61738100  0.88131700  0.16909700  1
  O  O21  1  0.26927200  0.52352500  0.09540100  1
  O  O22  1  0.25425300  0.73072800  0.09540100  1
  O  O23  1  0.47647500  0.74574700  0.09540100  1
  O  O24  1  0.13939100  0.39039200  0.90785600  1
  O  O25  1  0.25100100  0.86060900  0.90785600  1
  O  O26  1  0.60960800  0.74899900  0.90785600  1
  O  O27  1  0.18318700  0.53859500  0.71549800  1
  O  O28  1  0.35540800  0.81681300  0.71549800  1
  O  O29  1  0.46140500  0.64459200  0.71549800  1
  O  O30  1  0.11470000  0.14737400  0.44282400  1
  O  O31  1  0.03267400  0.88530000  0.44282400  1
  O  O32  1  0.85262600  0.96732600  0.44282400  1
  O  O33  1  0.26864100  0.19520200  0.30970700  1
  O  O34  1  0.92656100  0.73135900  0.30970700  1
  O  O35  1  0.80479800  0.07343900  0.30970700  1
  O  O36  1  0.14319000  0.06686900  0.07320000  1
  O  O37  1  0.92367900  0.85681000  0.07320000  1
  O  O38  1  0.93313100  0.07632100  0.07320000  1
  O  O39  1  0.28669400  0.07695500  0.04504400  1
  O  O40  1  0.79026200  0.71330600  0.04504400  1
  O  O41  1  0.92304500  0.20973800  0.04504400  1
  O  O42  1  0.17118000  0.98454600  0.69308000  1
  O  O43  1  0.81336500  0.82882000  0.69308000  1
  O  O44  1  0.01545400  0.18663500  0.69308000  1
  O  O45  1  0.51598300  0.57656200  0.35008500  1
  O  O46  1  0.06057900  0.48401700  0.35008500  1
  O  O47  1  0.42343800  0.93942100  0.35008500  1
  O  O48  1  0.45156800  0.50316200  0.85050300  1
  O  O49  1  0.05159400  0.54843200  0.85050300  1
  O  O50  1  0.49683800  0.94840600  0.85050300  1
  O  O51  1  0.10801100  0.28055300  0.29989000  1
  O  O52  1  0.17254300  0.89198900  0.29989000  1
  O  O53  1  0.71944700  0.82745700  0.29989000  1
  O  O54  1  0.17474100  0.27252900  0.80028900  1
  O  O55  1  0.09778800  0.82525900  0.80028900  1
  O  O56  1  0.72747100  0.90221200  0.80028900  1
  O  O57  1  0.39005600  0.16627200  0.43216000  1
  O  O58  1  0.77621600  0.60994400  0.43216000  1
  O  O59  1  0.83372800  0.22378400  0.43216000  1
  O  O60  1  0.38394100  0.23411000  0.93291700  1
  O  O61  1  0.85016900  0.61605900  0.93291700  1
  O  O62  1  0.76589000  0.14983100  0.93291700  1
loop_
_geom_bond_atom_site_label_1
_geom_bond_atom_site_label_2
_geom_bond_distance
_geom_bond_site_symmetry_2
B0 O0 1.346221 1_555
B0 O3 1.365741 1_555
B0 O6 1.405542 1_555
B1 O1 1.346211 1_555
B1 O4 1.365755 1_555
B1 O7 1.405539 1_555
B2 O2 1.346220 1_555
B2 O5 1.365756 1_555
B2 O8 1.405527 1_555
B3 O12 1.355081 1_555
B3 O9 1.372426 1_556
B3 O6 1.414454 1_556
B4 O13 1.355081 1_555
B4 O10 1.372442 1_556
B4 O7 1.414442 1_556
B5 O14 1.355081 1_555
B5 O11 1.372439 1_556
B5 O8 1.414454 1_556
B6 O15 1.342867 1_555
B6 O18 1.374780 1_555
B6 O21 1.403628 1_555
B7 O16 1.342867 1_555
B7 O19 1.374780 1_555
B7 O22 1.403628 1_555
B8 O17 1.342867 1_555
B8 O20 1.374780 1_555
B8 O23 1.403628 1_555
B9 O27 1.358520 1_555
B9 O24 1.365793 1_555
B9 O21 1.410881 1_556
B10 O28 1.358506 1_555
B10 O25 1.365807 1_555
B10 O22 1.410880 1_556
B11 O29 1.358511 1_555
B11 O26 1.365792 1_555
B11 O23 1.410893 1_556
B12 O30 1.364524 1_555
B12 O33 1.364796 1_555
B12 O36 1.416372 1_555
B13 O31 1.364524 1_655
B13 O34 1.364796 1_555
B13 O37 1.416372 1_555
B14 O32 1.364524 1_545
B14 O35 1.364796 1_555
B14 O38 1.416372 1_555
B15 O42 1.353031 1_545
B15 O39 1.373277 1_556
B15 O36 1.405978 1_556
B16 O43 1.353040 1_555
B16 O40 1.373276 1_556
B16 O37 1.405978 1_556
B17 O44 1.353030 1_655
B17 O41 1.373263 1_556
B17 O38 1.405978 1_556
B18 O48 1.434860 1_554
B18 O45 1.462398 1_555
B18 O3 1.513441 1_555
B18 O9 1.540252 1_555
B19 O49 1.434860 1_554
B19 O46 1.462398 1_555
B19 O4 1.513441 1_455
B19 O10 1.540252 1_455
B20 O50 1.434860 1_554
B20 O47 1.462398 1_555
B20 O5 1.513441 1_565
B20 O11 1.540252 1_565
B21 O48 1.449430 1_555
B21 O45 1.462194 1_555
B21 O15 1.493186 1_555
B21 O29 1.499351 1_555
B22 O49 1.449430 1_555
B22 O46 1.462194 1_555
B22 O16 1.493186 1_555
B22 O27 1.499351 1_555
B23 O50 1.449430 1_555
B23 O47 1.462194 1_555
B23 O17 1.493186 1_555
B23 O28 1.499351 1_555
B24 O51 1.444863 1_555
B24 O54 1.461676 1_554
B24 O18 1.524503 1_555
B24 O24 1.535888 1_554
B25 O52 1.444863 1_555
B25 O55 1.461688 1_554
B25 O19 1.524502 1_555
B25 O25 1.535873 1_554
B26 O53 1.444863 1_555
B26 O56 1.461683 1_554
B26 O20 1.524517 1_555
B26 O26 1.535877 1_554
B27 O54 1.453364 1_555
B27 O51 1.463751 1_555
B27 O30 1.503946 1_555
B27 O44 1.510492 1_555
B28 O55 1.453364 1_555
B28 O52 1.463762 1_555
B28 O31 1.503946 1_555
B28 O42 1.510491 1_555
B29 O56 1.453364 1_555
B29 O53 1.463757 1_555
B29 O32 1.503946 1_555
B29 O43 1.510478 1_555
B30 O60 1.446558 1_554
B30 O57 1.462087 1_555
B30 O39 1.523292 1_555
B30 O33 1.529057 1_555
B31 O61 1.446558 1_554
B31 O58 1.462087 1_555
B31 O40 1.523278 1_555
B31 O34 1.529057 1_555
B32 O62 1.446558 1_554
B32 O59 1.462087 1_555
B32 O41 1.523292 1_555
B32 O35 1.529057 1_555
B33 O57 1.456665 1_555
B33 O60 1.464387 1_555
B33 O0 1.493173 1_555
B33 O14 1.499500 1_555
B34 O58 1.456665 1_555
B34 O61 1.464387 1_555
B34 O1 1.493173 1_555
B34 O12 1.499510 1_555
B35 O59 1.456665 1_555
B35 O62 1.464387 1_555
B35 O2 1.493173 1_555
B35 O13 1.499515 1_555
O0 Sr3 2.869595 1_555
O0 Sr2 2.939666 1_555
O1 Sr4 2.869595 1_655
O1 Sr2 2.939658 1_555
O2 Sr5 2.869595 1_545
O2 Sr2 2.939649 1_555
O3 Sr3 2.715391 1_555
O3 Sr3 3.022136 1_554
O4 Sr4 2.715391 1_655
O4 Sr4 3.022136 1_654
O5 Sr5 2.715391 1_545
O5 Sr5 3.022136 1_544
O6 Sr2 2.806562 1_555
O7 Sr2 2.806550 1_555
O8 Sr2 2.806550 1_555
O9 Sr6 2.852659 1_554
O9 Sr6 2.957408 1_555
O10 Sr7 2.852659 1_554
O10 Sr7 2.957408 1_555
O11 Sr8 2.852659 1_554
O11 Sr8 2.957408 1_555
O12 Sr2 2.627020 1_555
O13 Sr2 2.626988 1_555
O14 Sr2 2.627010 1_555
O15 Sr3 2.916735 1_555
O15 Sr0 2.948089 1_555
O16 Sr4 2.916735 1_555
O16 Sr0 2.948071 1_555
O17 Sr5 2.916735 1_555
O17 Sr0 2.948078 1_555
O18 Sr3 2.684743 1_554
O18 Sr3 2.897126 1_555
O19 Sr4 2.684743 1_554
O19 Sr4 2.897126 1_555
O20 Sr5 2.684743 1_554
O20 Sr5 2.897126 1_555
O21 Sr0 2.760556 1_555
O22 Sr0 2.760543 1_555
O23 Sr0 2.760555 1_555
O24 Sr7 2.709089 1_455
O25 Sr8 2.709089 1_565
O26 Sr6 2.709089 1_555
O27 Sr0 2.601730 1_555
O28 Sr0 2.601724 1_555
O29 Sr0 2.601740 1_555
O30 Sr1 2.579474 1_555
O31 Sr1 2.579474 1_565
O32 Sr1 2.579474 1_665
O33 Sr3 2.778770 1_555
O34 Sr4 2.778770 1_655
O35 Sr5 2.778770 1_545
O36 Sr1 2.665491 1_554
O37 Sr1 2.665491 1_664
O38 Sr1 2.665491 1_654
O39 Sr8 2.679390 1_555
O39 Sr8 2.869285 1_554
O40 Sr6 2.679401 1_555
O40 Sr6 2.869295 1_554
O41 Sr7 2.679399 1_555
O41 Sr7 2.869293 1_554
O42 Sr8 2.673350 1_565
O43 Sr6 2.673343 1_555
O44 Sr7 2.673334 1_455
O45 Sr6 2.502045 1_555
O46 Sr7 2.502045 1_455
O47 Sr8 2.502045 1_565
O48 Sr3 2.541954 1_555
O49 Sr4 2.541954 1_555
O50 Sr5 2.541954 1_555
O51 Sr7 2.563553 1_455
O52 Sr8 2.563541 1_565
O53 Sr6 2.563537 1_555
O54 Sr3 2.536461 1_555
O55 Sr4 2.536461 1_555
O56 Sr5 2.536461 1_555
O57 Sr8 2.507015 1_555
O58 Sr6 2.507015 1_555
O59 Sr7 2.507015 1_555
O60 Sr3 2.545602 1_555
O61 Sr4 2.545602 1_655
O62 Sr5 2.545602 1_545
