# generated using pymatgen
data_Li5V3P8O29
_symmetry_space_group_name_H-M   'P 1'
_cell_length_a   9.79819900
_cell_length_b   9.83199276
_cell_length_c   14.10967111
_cell_angle_alpha   89.43901764
_cell_angle_beta   89.29405813
_cell_angle_gamma   60.20982017
_symmetry_Int_Tables_number   1
_chemical_formula_structural   Li5V3P8O29
_chemical_formula_sum   'Li10 V6 P16 O58'
_cell_volume   1179.54041356
_cell_formula_units_Z   2
loop_
 _symmetry_equiv_pos_site_id
 _symmetry_equiv_pos_as_xyz
  1  'x, y, z'
loop_
 _atom_site_type_symbol
 _atom_site_label
 _atom_site_symmetry_multiplicity
 _atom_site_fract_x
 _atom_site_fract_y
 _atom_site_fract_z
 _atom_site_occupancy
  Li  Li0  1  0.68333100  0.09427900  0.44692700  1
  Li  Li1  1  0.23242900  0.67668400  0.44055300  1
  Li  Li2  1  0.34588300  0.33357200  0.10984000  1
  Li  Li3  1  0.09093200  0.67402000  0.93747900  1
  Li  Li4  1  0.22990500  0.09265700  0.93708800  1
  Li  Li5  1  0.90754600  0.77590900  0.56367300  1
  Li  Li6  1  0.08548700  0.22809200  0.43967900  1
  Li  Li7  1  0.76654100  0.90311000  0.05832900  1
  Li  Li8  1  0.31983500  0.90945300  0.56183100  1
  Li  Li9  1  0.97319800  0.05513600  0.99881400  1
  V  V0  1  0.00130200  0.56305800  0.74913600  1
  V  V1  1  0.99274600  0.43366600  0.24866800  1
  V  V2  1  0.56855200  0.00098800  0.25290300  1
  V  V3  1  0.43312400  0.99937300  0.75239000  1
  V  V4  1  0.56815300  0.43105500  0.75431200  1
  V  V5  1  0.43976900  0.56402900  0.24413600  1
  P  P0  1  0.69399000  0.22129000  0.15620300  1
  P  P1  1  0.68119200  0.09095200  0.66379000  1
  P  P2  1  0.23587400  0.67963600  0.65652400  1
  P  P3  1  0.33072600  0.33562600  0.87299000  1
  P  P4  1  0.32887200  0.33658200  0.36921800  1
  P  P5  1  0.08982400  0.68261600  0.15878000  1
  P  P6  1  0.91391200  0.76682500  0.34240200  1
  P  P7  1  0.22542000  0.09360200  0.15760900  1
  P  P8  1  0.77385000  0.90820600  0.84319800  1
  P  P9  1  0.08962400  0.23139900  0.65571700  1
  P  P10  1  0.91414900  0.30770200  0.83790900  1
  P  P11  1  0.66322700  0.66861500  0.63193800  1
  P  P12  1  0.67058100  0.66895300  0.12780700  1
  P  P13  1  0.76712600  0.31418700  0.34184000  1
  P  P14  1  0.31700400  0.91152700  0.33924600  1
  P  P15  1  0.30793100  0.77282600  0.84054100  1
  O  O0  1  0.76940300  0.22513400  0.42744400  1
  O  O1  1  0.65774200  0.25765800  0.66766800  1
  O  O2  1  0.78843700  0.97885000  0.93315600  1
  O  O3  1  0.66286100  0.07875300  0.16485400  1
  O  O4  1  0.52852800  0.37079800  0.16539900  1
  O  O5  1  0.48080800  0.33146200  0.82690700  1
  O  O6  1  0.38397600  0.52174700  0.67817100  1
  O  O7  1  0.20431400  0.78423400  0.92176500  1
  O  O8  1  0.25680600  0.65512900  0.15865800  1
  O  O9  1  0.48301200  0.18631700  0.33275400  1
  O  O10  1  0.52100200  0.09823700  0.68132200  1
  O  O11  1  0.33188400  0.48326000  0.32479700  1
  O  O12  1  0.33505600  0.33794900  0.97946300  1
  O  O13  1  0.31898900  0.34151800  0.47453600  1
  O  O14  1  0.18643200  0.48950200  0.83592200  1
  O  O15  1  0.37471200  0.10768300  0.16946400  1
  O  O16  1  0.32358800  0.18888700  0.83816300  1
  O  O17  1  0.08665000  0.66357700  0.65799000  1
  O  O18  1  0.00229300  0.78840800  0.25118400  1
  O  O19  1  0.00312800  0.75141900  0.43136500  1
  O  O20  1  0.99751800  0.76523300  0.07182000  1
  O  O21  1  0.09941700  0.51982700  0.17341500  1
  O  O22  1  0.18091500  0.33442200  0.32605200  1
  O  O23  1  0.91816900  0.73931800  0.83340600  1
  O  O24  1  0.10082400  0.38049300  0.67941000  1
  O  O25  1  0.25529400  0.08353200  0.66281900  1
  O  O26  1  0.79279900  0.99953000  0.75195800  1
  O  O27  1  0.75710500  0.00434100  0.57385900  1
  O  O28  1  0.24455200  0.00206500  0.42841700  1
  O  O29  1  0.74859200  0.91481100  0.34363400  1
  O  O30  1  0.90437100  0.61784000  0.32183400  1
  O  O31  1  0.08041600  0.26178800  0.16915600  1
  O  O32  1  0.81404800  0.67058100  0.66814000  1
  O  O33  1  0.91682100  0.46143700  0.83169100  1
  O  O34  1  0.00265600  0.20084500  0.91834800  1
  O  O35  1  0.01329300  0.24344000  0.56393800  1
  O  O36  1  0.99111900  0.21179100  0.74111900  1
  O  O37  1  0.91482700  0.33807000  0.33762600  1
  O  O38  1  0.67259600  0.81598000  0.16598900  1
  O  O39  1  0.62032900  0.90627400  0.83026000  1
  O  O40  1  0.81669500  0.52103400  0.17753500  1
  O  O41  1  0.68447100  0.65690400  0.02348600  1
  O  O42  1  0.65890100  0.66640300  0.52666200  1
  O  O43  1  0.65988000  0.52499500  0.68220100  1
  O  O44  1  0.47745600  0.90276400  0.31772200  1
  O  O45  1  0.51055100  0.81806700  0.67080700  1
  O  O46  1  0.74144900  0.34048500  0.83460500  1
  O  O47  1  0.79218200  0.20813000  0.24907700  1
  O  O48  1  0.79018100  0.20296600  0.07083100  1
  O  O49  1  0.61810900  0.47280000  0.32621000  1
  O  O50  1  0.52445800  0.66360500  0.17225600  1
  O  O51  1  0.46389500  0.61576900  0.83075300  1
  O  O52  1  0.34023600  0.91291400  0.84043600  1
  O  O53  1  0.21218900  0.02329500  0.06760300  1
  O  O54  1  0.20970800  0.00086800  0.24840500  1
  O  O55  1  0.33478400  0.74784800  0.33898500  1
  O  O56  1  0.24956500  0.75327000  0.56545900  1
  O  O57  1  0.21487900  0.79580200  0.74199600  1
loop_
_geom_bond_atom_site_label_1
_geom_bond_atom_site_label_2
_geom_bond_distance
_geom_bond_site_symmetry_2
Li0 O0 1.872848 1_555
Li0 O27 1.969205 1_555
Li0 O29 2.133728 1_545
Li0 O9 2.356049 1_555
Li1 O56 1.964710 1_555
Li1 O19 1.992351 1_555
Li1 O55 2.047269 1_555
Li1 O11 2.326800 1_555
Li2 O12 1.842789 1_554
Li2 O4 2.154567 1_555
Li2 O15 2.250778 1_555
Li2 O21 2.361044 1_555
Li3 O7 1.908666 1_555
Li3 O23 2.096868 1_455
Li3 O20 2.099970 1_456
Li3 O14 2.133355 1_555
Li4 O34 1.953159 1_555
Li4 O53 1.992882 1_556
Li4 O52 2.064960 1_545
Li4 O16 2.119326 1_555
Li5 O27 1.987266 1_565
Li5 O19 2.040035 1_655
Li5 O17 2.042873 1_655
Li5 O32 2.227977 1_555
Li6 O35 1.861612 1_555
Li6 O28 1.988007 1_555
Li6 O37 2.066630 1_455
Li6 O22 2.332192 1_555
Li7 O2 1.960488 1_554
Li7 O20 1.988185 1_555
Li7 O3 2.131518 1_565
Li7 O38 2.147623 1_555
Li8 O56 1.970502 1_555
Li8 O28 2.061557 1_565
Li8 O25 2.075987 1_565
Li8 O45 2.244752 1_555
Li9 O48 1.937770 1_556
Li9 O34 1.948243 1_655
Li9 O53 2.417674 1_656
Li9 O2 2.470266 1_545
O0 P13 1.478699 1_555
O1 P1 1.539323 1_555
O1 V4 1.923258 1_555
O2 P8 1.494757 1_555
O3 P0 1.578727 1_555
O3 V2 1.907101 1_555
O4 P0 1.560944 1_555
O4 V5 1.993923 1_555
O5 P3 1.582423 1_555
O5 V4 1.879333 1_555
O6 P2 1.540183 1_555
O6 V4 1.906820 1_555
O7 P15 1.489109 1_555
O8 P5 1.520039 1_555
O8 V5 1.976681 1_555
O9 P4 1.583353 1_555
O9 V2 1.947182 1_555
O10 P1 1.552081 1_555
O10 V3 1.866288 1_545
O11 P4 1.580380 1_555
O11 V5 1.957061 1_555
O12 P3 1.504137 1_555
O13 P4 1.487660 1_555
O14 P3 1.561619 1_555
O14 V0 2.011649 1_555
O15 P7 1.547456 1_555
O15 V2 2.035909 1_555
O16 P3 1.562961 1_555
O16 V3 2.028169 1_545
O17 P2 1.546530 1_555
O17 V0 2.024797 1_555
O18 P6 1.612836 1_455
O18 P5 1.621702 1_555
O19 P6 1.501487 1_455
O20 P5 1.503701 1_655
O21 P5 1.567713 1_555
O21 V1 1.942237 1_455
O22 P4 1.589236 1_555
O22 V1 1.945432 1_455
O23 P8 1.562841 1_555
O23 V0 1.922069 1_655
O24 P9 1.563004 1_555
O24 V0 1.847275 1_555
O25 P9 1.553976 1_555
O25 V3 1.979670 1_545
O26 P1 1.608200 1_565
O26 P8 1.623308 1_555
O27 P1 1.502342 1_555
O28 P14 1.500454 1_545
O29 P6 1.548903 1_555
O29 V2 2.004477 1_565
O30 P6 1.543929 1_555
O30 V1 1.884430 1_555
O31 P7 1.563536 1_555
O31 V1 1.850204 1_455
O32 P11 1.578696 1_555
O32 V0 1.972475 1_655
O33 P10 1.526351 1_555
O33 V0 1.953337 1_655
O34 P10 1.496524 1_455
O35 P9 1.477570 1_555
O36 P9 1.603875 1_655
O36 P10 1.617484 1_555
O37 P13 1.577451 1_555
O37 V1 1.925629 1_555
O38 P12 1.556973 1_555
O38 V2 2.005537 1_565
O39 P8 1.526964 1_555
O39 V3 1.941966 1_555
O40 P12 1.610255 1_555
O40 V1 1.809479 1_555
O41 P12 1.477026 1_555
O42 P11 1.487216 1_555
O43 P11 1.588650 1_555
O43 V4 1.865468 1_555
O44 P14 1.557381 1_555
O44 V2 1.839810 1_565
O45 P11 1.584034 1_555
O45 V3 1.937303 1_555
O46 P10 1.558566 1_555
O46 V4 1.866768 1_555
O47 P0 1.601138 1_555
O47 P13 1.620228 1_555
O48 P0 1.476246 1_555
O49 P13 1.533352 1_555
O49 V5 1.916025 1_555
O50 P12 1.580511 1_555
O50 V5 1.855461 1_555
O51 P15 1.546951 1_555
O51 V4 1.916464 1_555
O52 P15 1.558981 1_555
O52 V3 1.953071 1_555
O53 P7 1.489202 1_555
O54 P7 1.614921 1_555
O54 P14 1.616551 1_545
O55 P14 1.530262 1_555
O55 V5 2.069216 1_555
O56 P2 1.505698 1_555
O57 P2 1.608912 1_555
O57 P15 1.623593 1_555
