# generated using pymatgen
data_CeGa4Co9
_symmetry_space_group_name_H-M   'P 1'
_cell_length_a   8.10432878
_cell_length_b   8.10432878
_cell_length_c   8.10432878
_cell_angle_alpha   121.16678188
_cell_angle_beta   121.16678188
_cell_angle_gamma   87.99068222
_symmetry_Int_Tables_number   1
_chemical_formula_structural   CeGa4Co9
_chemical_formula_sum   'Ce2 Ga8 Co18'
_cell_volume   369.50365873
_cell_formula_units_Z   2
loop_
 _symmetry_equiv_pos_site_id
 _symmetry_equiv_pos_as_xyz
  1  'x, y, z'
loop_
 _atom_site_type_symbol
 _atom_site_label
 _atom_site_symmetry_multiplicity
 _atom_site_fract_x
 _atom_site_fract_y
 _atom_site_fract_z
 _atom_site_occupancy
  Ce  Ce0  1  0.75000000  0.75000000  0.00000000  1
  Ce  Ce1  1  0.25000000  0.25000000  0.00000000  1
  Ga  Ga0  1  0.80492900  0.30492800  0.86144600  1
  Ga  Ga1  1  0.44348200  0.94348300  0.13855500  1
  Ga  Ga2  1  0.69507300  0.55651800  0.50000000  1
  Ga  Ga3  1  0.05651700  0.19507200  0.50000000  1
  Ga  Ga4  1  0.19507300  0.69507300  0.13855500  1
  Ga  Ga5  1  0.55651700  0.05651700  0.86144600  1
  Ga  Ga6  1  0.94348300  0.80492800  0.50000000  1
  Ga  Ga7  1  0.30492800  0.44348300  0.50000000  1
  Co  Co0  1  0.20081200  0.06160400  0.26241500  1
  Co  Co1  1  0.79918600  0.93839700  0.73758600  1
  Co  Co2  1  0.29918700  0.56160300  0.86079000  1
  Co  Co3  1  0.70081100  0.43839600  0.13920900  1
  Co  Co4  1  0.43839800  0.29918700  0.73758600  1
  Co  Co5  1  0.56160300  0.70081100  0.26241500  1
  Co  Co6  1  0.93839700  0.20081200  0.13921100  1
  Co  Co7  1  0.06160400  0.79918700  0.86079100  1
  Co  Co8  1  0.49999900  0.00000000  0.49999900  1
  Co  Co9  1  0.00000000  0.49999900  0.49999900  1
  Co  Co10  1  0.28865000  0.78864900  0.72666900  1
  Co  Co11  1  0.06198000  0.56198100  0.27333200  1
  Co  Co12  1  0.21135100  0.93802000  0.49999900  1
  Co  Co13  1  0.43802100  0.71135200  0.50000200  1
  Co  Co14  1  0.71135200  0.21135100  0.27333200  1
  Co  Co15  1  0.93802000  0.43802100  0.72666900  1
  Co  Co16  1  0.56198100  0.28865000  0.50000200  1
  Co  Co17  1  0.78864900  0.06198000  0.49999900  1
loop_
_geom_bond_atom_site_label_1
_geom_bond_atom_site_label_2
_geom_bond_distance
_geom_bond_site_symmetry_2
Ce0 Ga5 3.268338 1_564
Ce0 Ga3 3.268342 1_665
Ce0 Ga6 3.268342 1_555
Ce0 Ga7 3.268342 1_554
Ce0 Ga0 3.268346 1_554
Ce0 Ga2 3.268348 1_554
Ce0 Ga4 3.268348 1_655
Ce0 Ga1 3.268350 1_555
Ce0 Co16 3.323847 1_554
Ce0 Co13 3.323847 1_554
Ce0 Co10 3.323850 1_554
Ce0 Co17 3.323850 1_565
Ce0 Co12 3.323853 1_655
Ce0 Co15 3.323853 1_554
Ce0 Co14 3.323854 1_565
Ce0 Co11 3.323854 1_655
Ce0 Co1 3.360656 1_554
Ce0 Co6 3.360663 1_565
Ce0 Co0 3.360674 1_665
Ce0 Co5 3.360674 1_555
Ce0 Co2 3.360674 1_554
Ce0 Co7 3.360676 1_654
Ce0 Co4 3.360676 1_554
Ce0 Co3 3.360681 1_555
Ce1 Ga0 3.268336 1_454
Ce1 Ga5 3.268338 1_554
Ce1 Ga1 3.268340 1_545
Ce1 Ga3 3.268342 1_554
Ce1 Ga6 3.268342 1_444
Ce1 Ga7 3.268342 1_555
Ce1 Ga4 3.268348 1_555
Ce1 Ga2 3.268348 1_555
Ce1 Co10 3.323859 1_544
Ce1 Co17 3.323859 1_454
Ce1 Co15 3.323862 1_454
Ce1 Co12 3.323862 1_544
Ce1 Co11 3.323863 1_555
Ce1 Co14 3.323863 1_555
Ce1 Co16 3.323866 1_555
Ce1 Co13 3.323866 1_555
Ce1 Co3 3.360661 1_555
Ce1 Co0 3.360664 1_555
Ce1 Co5 3.360664 1_555
Ce1 Co4 3.360666 1_554
Ce1 Co2 3.360674 1_554
Ce1 Co7 3.360676 1_544
Ce1 Co6 3.360683 1_455
Ce1 Co1 3.360686 1_444
Co0 Co6 2.364829 1_455
Co0 Co7 2.364843 1_544
Co0 Co8 2.431793 1_555
Co0 Ga7 2.516168 1_555
Co0 Ga3 2.516174 1_555
Co0 Co12 2.556890 1_545
Co0 Co16 2.556894 1_555
Co0 Ga1 2.590092 1_545
Co0 Ga4 2.590099 1_545
Co0 Co4 2.674864 1_555
Co1 Co6 2.364840 1_566
Co1 Co7 2.364858 1_655
Co1 Co8 2.431797 1_565
Co1 Ga2 2.516168 1_555
Co1 Ga6 2.516194 1_555
Co1 Co13 2.556871 1_555
Co1 Co17 2.556913 1_565
Co1 Ga5 2.590083 1_565
Co1 Ga0 2.590095 1_565
Co1 Co5 2.674864 1_555
Co2 Co5 2.364847 1_556
Co2 Co4 2.364851 1_555
Co2 Co9 2.431790 1_555
Co2 Ga4 2.516168 1_556
Co2 Ga1 2.516175 1_556
Co2 Ga7 2.590095 1_555
Co2 Ga3 2.590095 1_555
Co2 Co7 2.674841 1_555
Co3 Co4 2.364829 1_554
Co3 Co5 2.364833 1_555
Co3 Co9 2.431794 1_655
Co3 Ga5 2.516168 1_554
Co3 Ga0 2.516181 1_554
Co3 Ga2 2.590085 1_555
Co3 Ga6 2.590105 1_555
Co3 Co6 2.674858 1_555
Co4 Co8 2.431788 1_555
Co4 Ga3 2.516181 1_555
Co4 Ga7 2.516188 1_555
Co4 Ga5 2.590089 1_555
Co4 Ga0 2.590097 1_555
Co5 Co8 2.431802 1_565
Co5 Ga2 2.516161 1_555
Co5 Ga6 2.516174 1_555
Co5 Ga4 2.590093 1_555
Co5 Ga1 2.590107 1_555
Co6 Co9 2.431779 1_655
Co6 Ga5 2.516175 1_554
Co6 Ga0 2.516182 1_554
Co6 Ga3 2.590083 1_655
Co6 Ga7 2.590096 1_655
Co7 Co9 2.431797 1_555
Co7 Ga4 2.516162 1_556
Co7 Ga1 2.516162 1_556
Co7 Ga2 2.590095 1_455
Co7 Ga6 2.590101 1_455
Co8 Ga4 2.497474 1_545
Co8 Ga1 2.497477 1_545
Co8 Ga0 2.497494 1_555
Co8 Ga5 2.497497 1_555
Co9 Ga3 2.497480 1_555
Co9 Ga7 2.497480 1_555
Co9 Ga2 2.497483 1_455
Co9 Ga6 2.497490 1_455
Co10 Ga1 2.393983 1_556
Co10 Co9 2.409793 1_555
Co10 Ga5 2.457711 1_565
Co10 Ga7 2.474500 1_555
Co10 Ga6 2.474510 1_455
Co10 Co13 2.507951 1_555
Co10 Co12 2.507970 1_555
Co10 Co11 2.551954 1_555
Co10 Co2 2.556889 1_555
Co10 Co7 2.556893 1_555
Co11 Ga0 2.393980 1_454
Co11 Co9 2.409779 1_555
Co11 Ga4 2.457733 1_555
Co11 Ga6 2.474496 1_455
Co11 Ga7 2.474505 1_555
Co11 Co12 2.507959 1_555
Co11 Co13 2.507970 1_555
Co11 Co3 2.556900 1_455
Co11 Co6 2.556902 1_455
Co12 Ga3 2.393979 1_565
Co12 Co8 2.409777 1_565
Co12 Ga6 2.457726 1_455
Co12 Ga4 2.474500 1_555
Co12 Ga5 2.474510 1_565
Co12 Co13 2.551960 1_555
Co12 Co4 2.556885 1_565
Co13 Ga2 2.393983 1_555
Co13 Co8 2.409788 1_565
Co13 Ga7 2.457720 1_555
Co13 Ga5 2.474498 1_565
Co13 Ga4 2.474516 1_555
Co13 Co5 2.556894 1_555
Co14 Ga5 2.393979 1_554
Co14 Co9 2.409779 1_655
Co14 Ga1 2.457728 1_545
Co14 Ga3 2.474496 1_655
Co14 Ga2 2.474508 1_555
Co14 Co17 2.507951 1_555
Co14 Co16 2.507970 1_555
Co14 Co15 2.551954 1_555
Co14 Co6 2.556878 1_555
Co14 Co3 2.556887 1_555
Co15 Ga4 2.393981 1_656
Co15 Co9 2.409783 1_655
Co15 Ga0 2.457728 1_555
Co15 Ga2 2.474500 1_555
Co15 Ga3 2.474507 1_655
Co15 Co16 2.507959 1_555
Co15 Co17 2.507970 1_555
Co15 Co7 2.556878 1_655
Co15 Co2 2.556885 1_655
Co16 Ga7 2.393980 1_555
Co16 Co8 2.409782 1_555
Co16 Ga2 2.457731 1_555
Co16 Ga0 2.474502 1_555
Co16 Ga1 2.474511 1_545
Co16 Co17 2.551960 1_555
Co16 Co4 2.556890 1_555
Co17 Ga6 2.393981 1_545
Co17 Co8 2.409793 1_555
Co17 Ga3 2.457715 1_655
Co17 Ga1 2.474505 1_545
Co17 Ga0 2.474511 1_555
Co17 Co5 2.556900 1_545
