# generated using pymatgen
data_Mg3SiO6
_symmetry_space_group_name_H-M   'P 1'
_cell_length_a   4.80260300
_cell_length_b   8.96590400
_cell_length_c   10.46434400
_cell_angle_alpha   90.00000000
_cell_angle_beta   90.00000000
_cell_angle_gamma   90.00000000
_symmetry_Int_Tables_number   1
_chemical_formula_structural   Mg3SiO6
_chemical_formula_sum   'Mg12 Si4 O24'
_cell_volume   450.59127735
_cell_formula_units_Z   4
loop_
 _symmetry_equiv_pos_site_id
 _symmetry_equiv_pos_as_xyz
  1  'x, y, z'
loop_
 _atom_site_type_symbol
 _atom_site_label
 _atom_site_symmetry_multiplicity
 _atom_site_fract_x
 _atom_site_fract_y
 _atom_site_fract_z
 _atom_site_occupancy
  Mg  Mg0  1  0.49951700  0.75000000  0.59387900  1
  Mg  Mg1  1  0.50048300  0.25000000  0.40612100  1
  Mg  Mg2  1  0.99951700  0.25000000  0.90612100  1
  Mg  Mg3  1  0.00048300  0.75000000  0.09387900  1
  Mg  Mg4  1  0.51218600  0.57025600  0.86583600  1
  Mg  Mg5  1  0.48781400  0.42974400  0.13416400  1
  Mg  Mg6  1  0.01218600  0.42974400  0.63416400  1
  Mg  Mg7  1  0.48781400  0.07025600  0.13416400  1
  Mg  Mg8  1  0.98781400  0.57025600  0.36583600  1
  Mg  Mg9  1  0.51218600  0.92974400  0.86583600  1
  Mg  Mg10  1  0.98781400  0.92974400  0.36583600  1
  Mg  Mg11  1  0.01218600  0.07025600  0.63416400  1
  Si  Si0  1  0.07582100  0.75000000  0.77987000  1
  Si  Si1  1  0.92417900  0.25000000  0.22013000  1
  Si  Si2  1  0.57582100  0.25000000  0.72013000  1
  Si  Si3  1  0.42417900  0.75000000  0.27987000  1
  O  O0  1  0.72577400  0.10551700  0.79186300  1
  O  O1  1  0.27422600  0.89448300  0.20813700  1
  O  O2  1  0.22577400  0.89448300  0.70813700  1
  O  O3  1  0.27422600  0.60551700  0.20813700  1
  O  O4  1  0.77422600  0.10551700  0.29186300  1
  O  O5  1  0.72577400  0.39448300  0.79186300  1
  O  O6  1  0.77422600  0.39448300  0.29186300  1
  O  O7  1  0.22577400  0.60551700  0.70813700  1
  O  O8  1  0.76823300  0.58468600  0.53582600  1
  O  O9  1  0.23176700  0.41531400  0.46417400  1
  O  O10  1  0.26823300  0.41531400  0.96417400  1
  O  O11  1  0.23176700  0.08468600  0.46417400  1
  O  O12  1  0.73176700  0.58468600  0.03582600  1
  O  O13  1  0.76823300  0.91531400  0.53582600  1
  O  O14  1  0.73176700  0.91531400  0.03582600  1
  O  O15  1  0.26823300  0.08468600  0.96417400  1
  O  O16  1  0.73742300  0.75000000  0.77858400  1
  O  O17  1  0.26257700  0.25000000  0.22141600  1
  O  O18  1  0.23742300  0.25000000  0.72141600  1
  O  O19  1  0.76257700  0.75000000  0.27858400  1
  O  O20  1  0.22326500  0.75000000  0.92375800  1
  O  O21  1  0.77673500  0.25000000  0.07624200  1
  O  O22  1  0.72326500  0.25000000  0.57624200  1
  O  O23  1  0.27673500  0.75000000  0.42375800  1
loop_
_geom_bond_atom_site_label_1
_geom_bond_atom_site_label_2
_geom_bond_distance
_geom_bond_site_symmetry_2
Mg0 O13 2.057039 1_555
Mg0 O8 2.057039 1_555
Mg0 O23 2.076990 1_555
Mg0 O2 2.199100 1_555
Mg0 O7 2.199100 1_555
Mg0 O16 2.245271 1_555
Mg1 O9 2.057039 1_555
Mg1 O11 2.057039 1_555
Mg1 O22 2.076990 1_555
Mg1 O6 2.199100 1_555
Mg1 O4 2.199100 1_555
Mg1 O17 2.245271 1_555
Mg2 O15 2.057039 1_655
Mg2 O10 2.057039 1_655
Mg2 O21 2.076990 1_556
Mg2 O5 2.199100 1_555
Mg2 O0 2.199100 1_555
Mg2 O18 2.245271 1_655
Mg3 O14 2.057039 1_455
Mg3 O12 2.057039 1_455
Mg3 O20 2.076990 1_554
Mg3 O3 2.199100 1_555
Mg3 O1 2.199100 1_555
Mg3 O19 2.245271 1_455
Mg4 O5 2.033490 1_555
Mg4 O12 2.071976 1_556
Mg4 O10 2.088411 1_555
Mg4 O16 2.144973 1_555
Mg4 O7 2.171457 1_555
Mg4 O20 2.211308 1_555
Mg5 O3 2.033490 1_555
Mg5 O10 2.071976 1_554
Mg5 O12 2.088411 1_555
Mg5 O17 2.144973 1_555
Mg5 O6 2.171457 1_555
Mg5 O21 2.211308 1_555
Mg6 O7 2.033490 1_555
Mg6 O9 2.071976 1_555
Mg6 O8 2.088411 1_455
Mg6 O18 2.144973 1_555
Mg6 O5 2.171457 1_455
Mg6 O22 2.211308 1_455
Mg7 O1 2.033490 1_545
Mg7 O15 2.071976 1_554
Mg7 O14 2.088411 1_545
Mg7 O17 2.144973 1_555
Mg7 O4 2.171457 1_555
Mg7 O21 2.211308 1_555
Mg8 O6 2.033490 1_555
Mg8 O8 2.071976 1_555
Mg8 O9 2.088411 1_655
Mg8 O19 2.144973 1_555
Mg8 O3 2.171457 1_655
Mg8 O23 2.211308 1_655
Mg9 O0 2.033490 1_565
Mg9 O14 2.071976 1_556
Mg9 O15 2.088411 1_565
Mg9 O16 2.144973 1_555
Mg9 O2 2.171457 1_555
Mg9 O20 2.211308 1_555
Mg10 O4 2.033490 1_565
Mg10 O13 2.071976 1_555
Mg10 O11 2.088411 1_665
Mg10 O19 2.144973 1_555
Mg10 O1 2.171457 1_655
Mg10 O23 2.211308 1_655
Mg11 O2 2.033490 1_545
Mg11 O11 2.071976 1_555
Mg11 O13 2.088411 1_445
Mg11 O18 2.144973 1_555
Mg11 O0 2.171457 1_455
Mg11 O22 2.211308 1_455
O0 Si2 1.661388 1_555
O1 Si3 1.661388 1_555
O2 Si0 1.661388 1_555
O3 Si3 1.661388 1_555
O4 Si1 1.661388 1_555
O5 Si2 1.661388 1_555
O6 Si1 1.661388 1_555
O7 Si0 1.661388 1_555
O16 Si0 1.625247 1_655
O17 Si1 1.625247 1_455
O18 Si2 1.625247 1_555
O19 Si3 1.625247 1_555
O20 Si0 1.663893 1_555
O21 Si1 1.663893 1_555
O22 Si2 1.663893 1_555
O23 Si3 1.663893 1_555
