# generated using pymatgen
data_Ba(GaAs)2
_symmetry_space_group_name_H-M   'P 1'
_cell_length_a   9.93938100
_cell_length_b   7.59016200
_cell_length_c   7.74096163
_cell_angle_alpha   64.93519359
_cell_angle_beta   90.00000000
_cell_angle_gamma   90.00000000
_symmetry_Int_Tables_number   1
_chemical_formula_structural   Ba(GaAs)2
_chemical_formula_sum   'Ba4 Ga8 As8'
_cell_volume   528.99505208
_cell_formula_units_Z   4
loop_
 _symmetry_equiv_pos_site_id
 _symmetry_equiv_pos_as_xyz
  1  'x, y, z'
loop_
 _atom_site_type_symbol
 _atom_site_label
 _atom_site_symmetry_multiplicity
 _atom_site_fract_x
 _atom_site_fract_y
 _atom_site_fract_z
 _atom_site_occupancy
  Ba  Ba0  1  0.59148500  0.59273900  0.71911700  1
  Ba  Ba1  1  0.09148500  0.40726100  0.78088300  1
  Ba  Ba2  1  0.40851500  0.40726100  0.28088300  1
  Ba  Ba3  1  0.90851500  0.59273900  0.21911700  1
  Ga  Ga0  1  0.99189000  0.93748200  0.73968600  1
  Ga  Ga1  1  0.49189000  0.06251800  0.76031400  1
  Ga  Ga2  1  0.00811000  0.06251800  0.26031400  1
  Ga  Ga3  1  0.50811000  0.93748200  0.23968600  1
  Ga  Ga4  1  0.29437000  0.94140200  0.62489600  1
  Ga  Ga5  1  0.79437000  0.05859800  0.87510400  1
  Ga  Ga6  1  0.70563000  0.05859800  0.37510400  1
  Ga  Ga7  1  0.20563000  0.94140200  0.12489600  1
  As  As0  1  0.68819500  0.27248900  0.55327500  1
  As  As1  1  0.18819500  0.72751100  0.94672500  1
  As  As2  1  0.31180500  0.72751100  0.44672500  1
  As  As3  1  0.81180500  0.27248900  0.05327500  1
  As  As4  1  0.88427900  0.78933300  0.53374200  1
  As  As5  1  0.38427900  0.21066700  0.96625800  1
  As  As6  1  0.11572100  0.21066700  0.46625800  1
  As  As7  1  0.61572100  0.78933300  0.03374200  1
loop_
_geom_bond_atom_site_label_1
_geom_bond_atom_site_label_2
_geom_bond_distance
_geom_bond_site_symmetry_2
As0 Ga6 2.542652 1_555
As0 Ga5 2.555171 1_555
As0 Ga1 2.598335 1_555
As0 Ba0 3.335355 1_555
As0 Ba2 3.375277 1_555
As0 Ba3 3.473842 1_555
As1 Ga7 2.542652 1_556
As1 Ga4 2.555171 1_555
As1 Ga0 2.598335 1_455
As1 Ba1 3.335355 1_555
As1 Ba3 3.375277 1_456
As1 Ba2 3.473842 1_556
As2 Ga4 2.542652 1_555
As2 Ga7 2.555171 1_555
As2 Ga3 2.598335 1_555
As2 Ba2 3.335355 1_555
As2 Ba0 3.375277 1_555
As2 Ba1 3.473842 1_555
As3 Ga5 2.542652 1_554
As3 Ga6 2.555171 1_555
As3 Ga2 2.598335 1_655
As3 Ba3 3.335355 1_555
As3 Ba1 3.375277 1_654
As3 Ba0 3.473842 1_554
As4 Ga0 2.543389 1_555
As4 Ga2 2.564325 1_665
As4 Ga6 2.590650 1_565
As4 Ba0 3.307678 1_555
As4 Ba3 3.360878 1_555
As4 Ba1 3.407450 1_655
As5 Ga1 2.543389 1_555
As5 Ga3 2.564325 1_546
As5 Ga7 2.590650 1_546
As5 Ba1 3.307678 1_555
As5 Ba2 3.360878 1_556
As5 Ba0 3.407450 1_555
As6 Ga2 2.543389 1_555
As6 Ga0 2.564325 1_445
As6 Ga4 2.590650 1_545
As6 Ba2 3.307678 1_555
As6 Ba1 3.360878 1_555
As6 Ba3 3.407450 1_455
As7 Ga3 2.543389 1_555
As7 Ga1 2.564325 1_564
As7 Ga5 2.590650 1_564
As7 Ba3 3.307678 1_555
As7 Ba0 3.360878 1_554
As7 Ba2 3.407450 1_555
