# generated using pymatgen
data_LiMnO3
_symmetry_space_group_name_H-M   'P 1'
_cell_length_a   5.02182300
_cell_length_b   5.15404300
_cell_length_c   7.07634500
_cell_angle_alpha   90.00000000
_cell_angle_beta   90.00000000
_cell_angle_gamma   90.00000000
_symmetry_Int_Tables_number   1
_chemical_formula_structural   LiMnO3
_chemical_formula_sum   'Li4 Mn4 O12'
_cell_volume   183.15485586
_cell_formula_units_Z   4
loop_
 _symmetry_equiv_pos_site_id
 _symmetry_equiv_pos_as_xyz
  1  'x, y, z'
loop_
 _atom_site_type_symbol
 _atom_site_label
 _atom_site_symmetry_multiplicity
 _atom_site_fract_x
 _atom_site_fract_y
 _atom_site_fract_z
 _atom_site_occupancy
  Li  Li0  1  0.99979900  0.05460600  0.24999900  1
  Li  Li1  1  0.49979900  0.44539400  0.75000000  1
  Li  Li2  1  0.50020100  0.55460700  0.24999900  1
  Li  Li3  1  0.00020100  0.94539500  0.75000000  1
  Mn  Mn0  1  0.50000000  0.00000000  0.00000000  1
  Mn  Mn1  1  0.00000000  0.49999900  0.00000000  1
  Mn  Mn2  1  0.00000000  0.49999900  0.50000000  1
  Mn  Mn3  1  0.50000000  0.00000000  0.50000000  1
  O  O0  1  0.87140200  0.55266700  0.75000000  1
  O  O1  1  0.37140200  0.94733500  0.24999900  1
  O  O2  1  0.62859800  0.05266600  0.75000000  1
  O  O3  1  0.12859800  0.44733400  0.24999900  1
  O  O4  1  0.67691400  0.31675700  0.43074300  1
  O  O5  1  0.17691400  0.18324400  0.56925800  1
  O  O6  1  0.82308600  0.81675600  0.06925800  1
  O  O7  1  0.32308600  0.68324300  0.93074200  1
  O  O8  1  0.67691400  0.31675700  0.06925800  1
  O  O9  1  0.17691400  0.18324400  0.93074200  1
  O  O10  1  0.32308600  0.68324300  0.56925800  1
  O  O11  1  0.82308600  0.81675600  0.43074300  1
loop_
_geom_bond_atom_site_label_1
_geom_bond_atom_site_label_2
_geom_bond_distance
_geom_bond_site_symmetry_2
Li0 O1 1.946303 1_645
Li0 O6 1.981445 1_545
Li0 O11 1.981459 1_545
Li0 O3 2.124968 1_655
Li0 O8 2.467903 1_555
Li0 O4 2.467914 1_555
Li0 O9 2.516852 1_654
Li0 O5 2.516864 1_655
Li1 O0 1.946306 1_555
Li1 O7 1.981447 1_555
Li1 O10 1.981447 1_555
Li1 O2 2.124968 1_555
Li1 O9 2.467904 1_555
Li1 O5 2.467904 1_555
Li1 O4 2.516850 1_555
Li1 O8 2.516857 1_556
Li2 O3 1.946306 1_555
Li2 O8 1.981445 1_555
Li2 O4 1.981459 1_555
Li2 O1 2.124968 1_555
Li2 O6 2.467898 1_555
Li2 O11 2.467909 1_555
Li2 O7 2.516849 1_554
Li2 O10 2.516862 1_555
Li3 O2 1.946303 1_465
Li3 O9 1.981447 1_565
Li3 O5 1.981447 1_565
Li3 O0 2.124968 1_455
Li3 O7 2.467910 1_555
Li3 O10 2.467910 1_555
Li3 O11 2.516853 1_455
Li3 O6 2.516859 1_456
Mn0 O1 1.902728 1_545
Mn0 O2 1.902735 1_554
Mn0 O8 1.922190 1_555
Mn0 O7 1.922190 1_544
Mn0 O9 1.940262 1_554
Mn0 O6 1.940262 1_545
Mn1 O3 1.902728 1_555
Mn1 O0 1.902736 1_454
Mn1 O9 1.922182 1_554
Mn1 O6 1.922190 1_455
Mn1 O8 1.940257 1_455
Mn1 O7 1.940262 1_554
Mn2 O0 1.902736 1_455
Mn2 O3 1.902741 1_555
Mn2 O5 1.922182 1_555
Mn2 O11 1.922189 1_455
Mn2 O4 1.940255 1_455
Mn2 O10 1.940262 1_555
Mn3 O2 1.902735 1_555
Mn3 O1 1.902741 1_545
Mn3 O4 1.922189 1_555
Mn3 O10 1.922190 1_545
Mn3 O11 1.940260 1_545
Mn3 O5 1.940262 1_555
