# generated using pymatgen
data_MgBi2O5
_symmetry_space_group_name_H-M   'P 1'
_cell_length_a   3.67585900
_cell_length_b   5.17854213
_cell_length_c   12.84137276
_cell_angle_alpha   90.49588243
_cell_angle_beta   90.13561688
_cell_angle_gamma   90.39670559
_symmetry_Int_Tables_number   1
_chemical_formula_structural   MgBi2O5
_chemical_formula_sum   'Mg2 Bi4 O10'
_cell_volume   244.42738184
_cell_formula_units_Z   2
loop_
 _symmetry_equiv_pos_site_id
 _symmetry_equiv_pos_as_xyz
  1  'x, y, z'
loop_
 _atom_site_type_symbol
 _atom_site_label
 _atom_site_symmetry_multiplicity
 _atom_site_fract_x
 _atom_site_fract_y
 _atom_site_fract_z
 _atom_site_occupancy
  Mg  Mg0  1  0.81862200  0.19276800  0.73157400  1
  Mg  Mg1  1  0.31612100  0.80684200  0.22539700  1
  Bi  Bi0  1  0.31826700  0.70814600  0.89532000  1
  Bi  Bi1  1  0.80379300  0.34773500  0.10958200  1
  Bi  Bi2  1  0.79966600  0.29864600  0.38920700  1
  Bi  Bi3  1  0.32224900  0.64200600  0.61153800  1
  O  O0  1  0.80846300  0.56956000  0.25937200  1
  O  O1  1  0.31682300  0.43731700  0.76181400  1
  O  O2  1  0.80337600  0.40652800  0.94840600  1
  O  O3  1  0.30535800  0.54940600  0.10225000  1
  O  O4  1  0.81935700  0.43878700  0.60374000  1
  O  O5  1  0.31717000  0.59236600  0.44890000  1
  O  O6  1  0.32725200  0.02721800  0.64276600  1
  O  O7  1  0.30527500  0.13575100  0.30367700  1
  O  O8  1  0.80632900  0.96036100  0.13394300  1
  O  O9  1  0.81411700  0.87574400  0.81448700  1
loop_
_geom_bond_atom_site_label_1
_geom_bond_atom_site_label_2
_geom_bond_distance
_geom_bond_site_symmetry_2
Mg0 O9 1.964462 1_545
Mg0 O4 2.086634 1_555
Mg0 O1 2.250402 1_655
Mg0 O1 2.276872 1_555
Mg0 O6 2.291243 1_555
Mg0 O6 2.355099 1_655
Mg1 O7 1.970960 1_565
Mg1 O3 2.059629 1_555
Mg1 O0 2.238721 1_555
Mg1 O0 2.272414 1_455
Mg1 O8 2.294460 1_555
Mg1 O8 2.355673 1_455
Bi0 O1 2.205547 1_555
Bi0 O9 2.270577 1_555
Bi0 O9 2.300822 1_455
Bi0 O2 2.476972 1_555
Bi0 O2 2.543651 1_455
Bi0 O3 2.788715 1_556
Bi1 O8 2.033033 1_545
Bi1 O2 2.094599 1_554
Bi1 O3 2.115321 1_655
Bi1 O3 2.117501 1_555
Bi1 O0 2.231835 1_555
Bi2 O0 2.188414 1_555
Bi2 O7 2.274601 1_555
Bi2 O7 2.321086 1_655
Bi2 O5 2.463813 1_555
Bi2 O5 2.540204 1_655
Bi3 O6 2.031288 1_565
Bi3 O5 2.102070 1_555
Bi3 O4 2.117125 1_555
Bi3 O4 2.122513 1_455
Bi3 O1 2.209799 1_555
