# generated using pymatgen
data_C3Cl2O
_symmetry_space_group_name_H-M   'P 1'
_cell_length_a   5.88620700
_cell_length_b   8.86324900
_cell_length_c   9.24222662
_cell_angle_alpha   72.60820358
_cell_angle_beta   90.00000000
_cell_angle_gamma   90.00000000
_symmetry_Int_Tables_number   1
_chemical_formula_structural   C3Cl2O
_chemical_formula_sum   'C12 Cl8 O4'
_cell_volume   460.13190036
_cell_formula_units_Z   4
loop_
 _symmetry_equiv_pos_site_id
 _symmetry_equiv_pos_as_xyz
  1  'x, y, z'
loop_
 _atom_site_type_symbol
 _atom_site_label
 _atom_site_symmetry_multiplicity
 _atom_site_fract_x
 _atom_site_fract_y
 _atom_site_fract_z
 _atom_site_occupancy
  C  C0  1  0.29625500  0.99649100  0.59053800  1
  C  C1  1  0.70374500  0.00350900  0.40946200  1
  C  C2  1  0.79625500  0.00350900  0.90946200  1
  C  C3  1  0.20374500  0.99649100  0.09053800  1
  C  C4  1  0.90482100  0.85113400  0.99539900  1
  C  C5  1  0.09517900  0.14886600  0.00460100  1
  C  C6  1  0.40482100  0.14886600  0.50460100  1
  C  C7  1  0.59517900  0.85113400  0.49539900  1
  C  C8  1  0.40801500  0.84807000  0.58231900  1
  C  C9  1  0.59198500  0.15193000  0.41768100  1
  C  C10  1  0.90801500  0.15193000  0.91768100  1
  C  C11  1  0.09198500  0.84807000  0.08231900  1
  Cl  Cl0  1  0.28542400  0.67656400  0.68739500  1
  Cl  Cl1  1  0.71457600  0.32343600  0.31260500  1
  Cl  Cl2  1  0.78542400  0.32343600  0.81260500  1
  Cl  Cl3  1  0.21457600  0.67656400  0.18739500  1
  Cl  Cl4  1  0.28005700  0.31555000  0.52197500  1
  Cl  Cl5  1  0.71994300  0.68445000  0.47802500  1
  Cl  Cl6  1  0.78005700  0.68445000  0.97802500  1
  Cl  Cl7  1  0.21994300  0.31555000  0.02197500  1
  O  O0  1  0.12045700  0.99298300  0.66342000  1
  O  O1  1  0.87954300  0.00701700  0.33658000  1
  O  O2  1  0.62045700  0.00701700  0.83658000  1
  O  O3  1  0.37954300  0.99298300  0.16342000  1
loop_
_geom_bond_atom_site_label_1
_geom_bond_atom_site_label_2
_geom_bond_distance
_geom_bond_site_symmetry_2
C0 O0 1.230020 1_555
C0 C6 1.490608 1_565
C0 C8 1.492911 1_555
C1 O1 1.230020 1_555
C1 C7 1.490608 1_545
C1 C9 1.492911 1_555
C2 O2 1.230020 1_555
C2 C4 1.490608 1_545
C3 O3 1.230020 1_555
C3 C5 1.490608 1_565
C4 Cl6 1.699859 1_555
C5 Cl7 1.699859 1_555
C6 C9 1.358953 1_555
C6 Cl4 1.699859 1_555
C7 C8 1.358953 1_555
C7 Cl5 1.699859 1_555
C8 Cl0 1.700592 1_555
C9 Cl1 1.700592 1_555
C10 C5 1.358953 1_656
C10 C2 1.492911 1_555
C10 Cl2 1.700592 1_555
C11 C4 1.358953 1_454
C11 C3 1.492911 1_555
C11 Cl3 1.700592 1_555
