# generated using pymatgen
data_Sr(YbS2)2
_symmetry_space_group_name_H-M   'P 1'
_cell_length_a   4.31322700
_cell_length_b   11.08060800
_cell_length_c   14.63120300
_cell_angle_alpha   90.00000000
_cell_angle_beta   90.00000000
_cell_angle_gamma   90.00000000
_symmetry_Int_Tables_number   1
_chemical_formula_structural   Sr(YbS2)2
_chemical_formula_sum   'Sr4 Yb8 S16'
_cell_volume   699.27168351
_cell_formula_units_Z   4
loop_
 _symmetry_equiv_pos_site_id
 _symmetry_equiv_pos_as_xyz
  1  'x, y, z'
loop_
 _atom_site_type_symbol
 _atom_site_label
 _atom_site_symmetry_multiplicity
 _atom_site_fract_x
 _atom_site_fract_y
 _atom_site_fract_z
 _atom_site_occupancy
  Sr  Sr0  1  0.25000000  0.77533900  0.31674800  1
  Sr  Sr1  1  0.25000000  0.27533900  0.18325200  1
  Sr  Sr2  1  0.75000000  0.22466100  0.68325200  1
  Sr  Sr3  1  0.75000000  0.72466100  0.81674800  1
  Yb  Yb0  1  0.25000000  0.44904100  0.38568100  1
  Yb  Yb1  1  0.25000000  0.94904100  0.11431900  1
  Yb  Yb2  1  0.75000000  0.55095900  0.61431900  1
  Yb  Yb3  1  0.75000000  0.05095900  0.88568100  1
  Yb  Yb4  1  0.25000000  0.39296800  0.89167700  1
  Yb  Yb5  1  0.25000000  0.89296800  0.60832300  1
  Yb  Yb6  1  0.75000000  0.60703200  0.10832300  1
  Yb  Yb7  1  0.75000000  0.10703200  0.39167700  1
  S  S0  1  0.25000000  0.17267100  0.82435200  1
  S  S1  1  0.25000000  0.67267100  0.67564800  1
  S  S2  1  0.75000000  0.82732900  0.17564800  1
  S  S3  1  0.75000000  0.32732900  0.32435200  1
  S  S4  1  0.25000000  0.18756700  0.52434100  1
  S  S5  1  0.25000000  0.68756700  0.97565900  1
  S  S6  1  0.75000000  0.81243300  0.47565900  1
  S  S7  1  0.75000000  0.31243300  0.02434100  1
  S  S8  1  0.25000000  0.04100700  0.29292200  1
  S  S9  1  0.25000000  0.54100700  0.20707800  1
  S  S10  1  0.75000000  0.95899300  0.70707800  1
  S  S11  1  0.75000000  0.45899300  0.79292200  1
  S  S12  1  0.25000000  0.36942600  0.57362900  1
  S  S13  1  0.25000000  0.86942600  0.92637100  1
  S  S14  1  0.75000000  0.63057400  0.42637100  1
  S  S15  1  0.75000000  0.13057400  0.07362900  1
loop_
_geom_bond_atom_site_label_1
_geom_bond_atom_site_label_2
_geom_bond_distance
_geom_bond_site_symmetry_2
S0 Yb4 2.632284 1_555
S0 Yb3 2.697220 1_455
S0 Yb3 2.697220 1_555
S0 Sr2 3.040536 1_455
S0 Sr2 3.040536 1_555
S1 Yb5 2.632284 1_555
S1 Yb2 2.697220 1_455
S1 Yb2 2.697220 1_555
S1 Sr3 3.040536 1_455
S1 Sr3 3.040536 1_555
S2 Yb6 2.632284 1_555
S2 Yb1 2.697220 1_555
S2 Yb1 2.697220 1_655
S2 Sr0 3.040536 1_655
S2 Sr0 3.040536 1_555
S3 Yb7 2.632284 1_555
S3 Yb0 2.697220 1_655
S3 Yb0 2.697220 1_555
S3 Sr1 3.040536 1_555
S3 Sr1 3.040536 1_655
S4 Yb7 3.035610 1_455
S4 Yb7 3.035610 1_555
S4 Sr2 3.197784 1_555
S4 Sr2 3.197784 1_455
S4 Yb5 3.487941 1_545
S5 Yb6 3.035610 1_456
S5 Yb6 3.035610 1_556
S5 Sr3 3.197784 1_455
S5 Sr3 3.197784 1_555
S5 Yb4 3.487941 1_555
S6 Yb5 3.035610 1_555
S6 Yb5 3.035610 1_655
S6 Sr0 3.197784 1_555
S6 Sr0 3.197784 1_655
S6 Yb7 3.487941 1_565
S7 Yb4 3.035610 1_554
S7 Yb4 3.035610 1_654
S7 Sr1 3.197784 1_555
S7 Sr1 3.197784 1_655
S7 Yb6 3.487941 1_555
S8 Yb7 2.697029 1_555
S8 Yb7 2.697029 1_455
S8 Yb1 2.804841 1_545
S8 Sr0 2.964332 1_545
S8 Sr1 3.052340 1_555
S9 Yb6 2.697029 1_555
S9 Yb6 2.697029 1_455
S9 Yb0 2.804841 1_555
S9 Sr1 2.964332 1_555
S9 Sr0 3.052340 1_555
S10 Yb5 2.697029 1_555
S10 Yb5 2.697029 1_655
S10 Yb3 2.804841 1_565
S10 Sr2 2.964332 1_565
S10 Sr3 3.052340 1_555
S11 Yb4 2.697029 1_655
S11 Yb4 2.697029 1_555
S11 Yb2 2.804841 1_555
S11 Sr3 2.964332 1_555
S11 Sr2 3.052340 1_555
S12 S4 2.140259 1_555
S12 Yb0 2.887945 1_555
S12 Yb2 3.008576 1_455
S12 Yb2 3.008576 1_555
S12 Sr2 3.129955 1_455
S12 Sr2 3.129955 1_555
S13 S5 2.140259 1_555
S13 Yb1 2.887945 1_556
S13 Yb3 3.008576 1_565
S13 Yb3 3.008576 1_465
S13 Sr3 3.129955 1_455
S13 Sr3 3.129955 1_555
S14 S6 2.140259 1_555
S14 Yb2 2.887945 1_555
S14 Yb0 3.008576 1_555
S14 Yb0 3.008576 1_655
S14 Sr0 3.129955 1_655
S14 Sr0 3.129955 1_555
S15 S7 2.140259 1_555
S15 Yb3 2.887945 1_554
S15 Yb1 3.008576 1_545
S15 Yb1 3.008576 1_645
S15 Sr1 3.129955 1_655
S15 Sr1 3.129955 1_555
