# generated using pymatgen
data_KVH2SeO7
_symmetry_space_group_name_H-M   'P 1'
_cell_length_a   10.72345200
_cell_length_b   7.51399400
_cell_length_c   10.50887821
_cell_angle_alpha   48.53117403
_cell_angle_beta   90.00000000
_cell_angle_gamma   90.00000000
_symmetry_Int_Tables_number   1
_chemical_formula_structural   KVH2SeO7
_chemical_formula_sum   'K4 V4 H8 Se4 O28'
_cell_volume   634.49309355
_cell_formula_units_Z   4
loop_
 _symmetry_equiv_pos_site_id
 _symmetry_equiv_pos_as_xyz
  1  'x, y, z'
loop_
 _atom_site_type_symbol
 _atom_site_label
 _atom_site_symmetry_multiplicity
 _atom_site_fract_x
 _atom_site_fract_y
 _atom_site_fract_z
 _atom_site_occupancy
  K  K0  1  0.56919900  0.66511100  0.75504300  1
  K  K1  1  0.06919900  0.33488900  0.74495700  1
  K  K2  1  0.43080100  0.33488900  0.24495700  1
  K  K3  1  0.93080100  0.66511100  0.25504300  1
  V  V0  1  0.59062200  0.92291200  0.24664900  1
  V  V1  1  0.09062200  0.07708800  0.25335100  1
  V  V2  1  0.40937800  0.07708800  0.75335100  1
  V  V3  1  0.90937800  0.92291200  0.74664900  1
  H  H0  1  0.63762600  0.45324800  0.52414600  1
  H  H1  1  0.13762600  0.54675200  0.97585400  1
  H  H2  1  0.36237400  0.54675200  0.47585400  1
  H  H3  1  0.86237400  0.45324800  0.02414600  1
  H  H4  1  0.66580800  0.44981500  0.37720000  1
  H  H5  1  0.16580800  0.55018500  0.12280000  1
  H  H6  1  0.33419200  0.55018500  0.62280000  1
  H  H7  1  0.83419200  0.44981500  0.87720000  1
  Se  Se0  1  0.69625200  0.09767800  0.86477100  1
  Se  Se1  1  0.19625200  0.90232200  0.63522900  1
  Se  Se2  1  0.30374800  0.90232200  0.13522900  1
  Se  Se3  1  0.80374800  0.09767800  0.36477100  1
  O  O0  1  0.69047200  0.88401000  0.07567300  1
  O  O1  1  0.19047200  0.11599000  0.42432700  1
  O  O2  1  0.30952800  0.11599000  0.92432700  1
  O  O3  1  0.80952800  0.88401000  0.57567300  1
  O  O4  1  0.44480600  0.76855600  0.22442500  1
  O  O5  1  0.94480600  0.23144400  0.27557500  1
  O  O6  1  0.55519400  0.23144400  0.77557500  1
  O  O7  1  0.05519400  0.76855600  0.72442500  1
  O  O8  1  0.55350000  0.20338600  0.08447600  1
  O  O9  1  0.05350000  0.79661400  0.41552400  1
  O  O10  1  0.44650000  0.79661400  0.91552400  1
  O  O11  1  0.94650000  0.20338600  0.58447600  1
  O  O12  1  0.66187600  0.55268700  0.40519900  1
  O  O13  1  0.16187600  0.44731300  0.09480100  1
  O  O14  1  0.33812400  0.44731300  0.59480100  1
  O  O15  1  0.83812400  0.55268700  0.90519900  1
  O  O16  1  0.79218700  0.31692400  0.79618500  1
  O  O17  1  0.29218700  0.68307600  0.70381500  1
  O  O18  1  0.20781300  0.68307600  0.20381500  1
  O  O19  1  0.70781300  0.31692400  0.29618500  1
  O  O20  1  0.53766500  0.86995400  0.41731400  1
  O  O21  1  0.03766500  0.13004600  0.08268600  1
  O  O22  1  0.46233500  0.13004600  0.58268600  1
  O  O23  1  0.96233500  0.86995400  0.91731400  1
  O  O24  1  0.72995400  0.97520900  0.77886200  1
  O  O25  1  0.22995400  0.02479100  0.72113800  1
  O  O26  1  0.27004600  0.02479100  0.22113800  1
  O  O27  1  0.77004600  0.97520900  0.27886200  1
loop_
_geom_bond_atom_site_label_1
_geom_bond_atom_site_label_2
_geom_bond_distance
_geom_bond_site_symmetry_2
K0 O10 2.785469 1_555
K0 O20 2.800865 1_555
K0 O8 2.853542 1_556
K0 O22 2.901378 1_565
K0 O3 2.965466 1_555
K0 O17 3.005963 1_555
K0 O24 3.039082 1_555
K0 O6 3.123491 1_555
K1 O11 2.785469 1_455
K1 O21 2.800865 1_556
K1 O9 2.853542 1_555
K1 O23 2.901378 1_445
K1 O2 2.965466 1_555
K1 O16 3.005963 1_455
K1 O25 3.039082 1_555
K1 O7 3.123491 1_555
K2 O8 2.785469 1_555
K2 O22 2.800865 1_555
K2 O10 2.853542 1_554
K2 O20 2.901378 1_545
K2 O1 2.965466 1_555
K2 O19 3.005963 1_555
K2 O26 3.039082 1_555
K2 O4 3.123491 1_555
K3 O9 2.785469 1_655
K3 O23 2.800865 1_554
K3 O11 2.853542 1_555
K3 O21 2.901378 1_665
K3 O0 2.965466 1_555
K3 O18 3.005963 1_655
K3 O27 3.039082 1_555
K3 O5 3.123491 1_555
H0 O12 0.975407 1_555
H1 O13 0.975407 1_556
H2 O14 0.975407 1_555
H3 O15 0.975407 1_554
H4 O12 0.993518 1_555
H5 O13 0.993518 1_555
H6 O14 0.993518 1_555
H7 O15 0.993518 1_555
O0 Se0 1.667602 1_564
O0 V0 2.270659 1_555
O1 Se1 1.667602 1_545
O1 V1 2.270659 1_555
O2 Se2 1.667602 1_546
O2 V2 2.270659 1_555
O3 Se3 1.667602 1_565
O3 V3 2.270659 1_555
O4 Se2 1.711470 1_555
O4 V0 2.050247 1_555
O5 Se3 1.711470 1_555
O5 V1 2.050247 1_655
O6 Se0 1.711470 1_555
O6 V2 2.050247 1_555
O7 Se1 1.711470 1_555
O7 V3 2.050247 1_455
O8 V0 1.657561 1_545
O9 V1 1.657561 1_565
O10 V2 1.657561 1_565
O11 V3 1.657561 1_545
O12 V0 2.227093 1_555
O13 V1 2.227093 1_555
O14 V2 2.227093 1_555
O15 V3 2.227093 1_555
O16 Se0 1.648997 1_555
O17 Se1 1.648997 1_555
O18 Se2 1.648997 1_555
O19 Se3 1.648997 1_555
O20 V0 1.658992 1_555
O21 V1 1.658992 1_555
O22 V2 1.658992 1_555
O23 V3 1.658992 1_555
O24 Se0 1.700829 1_565
O24 V3 2.036454 1_555
O25 Se1 1.700829 1_545
O25 V2 2.036454 1_555
O26 Se2 1.700829 1_545
O26 V1 2.036454 1_555
O27 Se3 1.700829 1_565
O27 V0 2.036454 1_555
