# generated using pymatgen
data_SrC4(O2F3)2
_symmetry_space_group_name_H-M   'P 1'
_cell_length_a   13.17733516
_cell_length_b   13.17733516
_cell_length_c   13.17733568
_cell_angle_alpha   114.34189156
_cell_angle_beta   114.34189156
_cell_angle_gamma   114.34189669
_symmetry_Int_Tables_number   1
_chemical_formula_structural   SrC4(O2F3)2
_chemical_formula_sum   'Sr6 C24 O24 F36'
_cell_volume   1354.20112389
_cell_formula_units_Z   6
loop_
 _symmetry_equiv_pos_site_id
 _symmetry_equiv_pos_as_xyz
  1  'x, y, z'
loop_
 _atom_site_type_symbol
 _atom_site_label
 _atom_site_symmetry_multiplicity
 _atom_site_fract_x
 _atom_site_fract_y
 _atom_site_fract_z
 _atom_site_occupancy
  Sr  Sr0  1  0.51385500  0.08783300  0.89451800  1
  Sr  Sr1  1  0.08783300  0.89451800  0.51385500  1
  Sr  Sr2  1  0.89451800  0.51385500  0.08783300  1
  Sr  Sr3  1  0.48614500  0.91216700  0.10548200  1
  Sr  Sr4  1  0.91216700  0.10548200  0.48614500  1
  Sr  Sr5  1  0.10548200  0.48614500  0.91216700  1
  C  C0  1  0.21202800  0.87330600  0.80752300  1
  C  C1  1  0.87330600  0.80752300  0.21202800  1
  C  C2  1  0.80752300  0.21202800  0.87330600  1
  C  C3  1  0.78797200  0.12669400  0.19247700  1
  C  C4  1  0.12669400  0.19247700  0.78797200  1
  C  C5  1  0.19247700  0.78797200  0.12669400  1
  C  C6  1  0.06388700  0.77260800  0.77414300  1
  C  C7  1  0.77260800  0.77414300  0.06388700  1
  C  C8  1  0.77414300  0.06388700  0.77260800  1
  C  C9  1  0.93611300  0.22739200  0.22585700  1
  C  C10  1  0.22739200  0.22585700  0.93611300  1
  C  C11  1  0.22585700  0.93611300  0.22739200  1
  C  C12  1  0.75926700  0.47604500  0.25587000  1
  C  C13  1  0.47604500  0.25587000  0.75926700  1
  C  C14  1  0.25587000  0.75926700  0.47604500  1
  C  C15  1  0.24073300  0.52395500  0.74413000  1
  C  C16  1  0.52395500  0.74413000  0.24073300  1
  C  C17  1  0.74413000  0.24073300  0.52395500  1
  C  C18  1  0.67296100  0.38833400  0.28593300  1
  C  C19  1  0.38833400  0.28593300  0.67296100  1
  C  C20  1  0.28593300  0.67296100  0.38833400  1
  C  C21  1  0.32703900  0.61166600  0.71406700  1
  C  C22  1  0.61166600  0.71406700  0.32703900  1
  C  C23  1  0.71406700  0.32703900  0.61166600  1
  O  O0  1  0.20747900  0.91735700  0.73863800  1
  O  O1  1  0.91735700  0.73863800  0.20747900  1
  O  O2  1  0.73863800  0.20747900  0.91735700  1
  O  O3  1  0.79252100  0.08264300  0.26136200  1
  O  O4  1  0.08264300  0.26136200  0.79252100  1
  O  O5  1  0.26136200  0.79252100  0.08264300  1
  O  O6  1  0.32966400  0.90553200  0.90487700  1
  O  O7  1  0.90553200  0.90487700  0.32966400  1
  O  O8  1  0.90487700  0.32966400  0.90553200  1
  O  O9  1  0.67033600  0.09446800  0.09512300  1
  O  O10  1  0.09446800  0.09512300  0.67033600  1
  O  O11  1  0.09512300  0.67033600  0.09446800  1
  O  O12  1  0.72472400  0.39040300  0.13107300  1
  O  O13  1  0.39040300  0.13107300  0.72472400  1
  O  O14  1  0.13107300  0.72472400  0.39040300  1
  O  O15  1  0.27527600  0.60959700  0.86892700  1
  O  O16  1  0.60959700  0.86892700  0.27527600  1
  O  O17  1  0.86892700  0.27527600  0.60959700  1
  O  O18  1  0.85765500  0.62110400  0.36073200  1
  O  O19  1  0.62110400  0.36073200  0.85765500  1
  O  O20  1  0.36073200  0.85765500  0.62110400  1
  O  O21  1  0.14234500  0.37889600  0.63926800  1
  O  O22  1  0.37889600  0.63926800  0.14234500  1
  O  O23  1  0.63926800  0.14234500  0.37889600  1
  F  F0  1  0.94032100  0.73508500  0.66277700  1
  F  F1  1  0.73508500  0.66277700  0.94032100  1
  F  F2  1  0.66277700  0.94032100  0.73508500  1
  F  F3  1  0.05967900  0.26491500  0.33722300  1
  F  F4  1  0.26491500  0.33722300  0.05967900  1
  F  F5  1  0.33722300  0.05967900  0.26491500  1
  F  F6  1  0.02184600  0.63658800  0.72648800  1
  F  F7  1  0.63658800  0.72648800  0.02184600  1
  F  F8  1  0.72648800  0.02184600  0.63658800  1
  F  F9  1  0.97815400  0.36341200  0.27351200  1
  F  F10  1  0.36341200  0.27351200  0.97815400  1
  F  F11  1  0.27351200  0.97815400  0.36341200  1
  F  F12  1  0.09467000  0.85017400  0.90635600  1
  F  F13  1  0.85017400  0.90635600  0.09467000  1
  F  F14  1  0.90635600  0.09467000  0.85017400  1
  F  F15  1  0.90533000  0.14982600  0.09364400  1
  F  F16  1  0.14982600  0.09364400  0.90533000  1
  F  F17  1  0.09364400  0.90533000  0.14982600  1
  F  F18  1  0.54036700  0.23144500  0.15107000  1
  F  F19  1  0.23144500  0.15107000  0.54036700  1
  F  F20  1  0.15107000  0.54036700  0.23144500  1
  F  F21  1  0.45963300  0.76855500  0.84893000  1
  F  F22  1  0.76855500  0.84893000  0.45963300  1
  F  F23  1  0.84893000  0.45963300  0.76855500  1
  F  F24  1  0.76997500  0.39462300  0.38826600  1
  F  F25  1  0.39462300  0.38826600  0.76997500  1
  F  F26  1  0.38826600  0.76997500  0.39462300  1
  F  F27  1  0.23002500  0.60537700  0.61173400  1
  F  F28  1  0.60537700  0.61173400  0.23002500  1
  F  F29  1  0.61173400  0.23002500  0.60537700  1
  F  F30  1  0.62813000  0.44793600  0.34373700  1
  F  F31  1  0.44793600  0.34373700  0.62813000  1
  F  F32  1  0.34373700  0.62813000  0.44793600  1
  F  F33  1  0.37187000  0.55206400  0.65626300  1
  F  F34  1  0.55206400  0.65626300  0.37187000  1
  F  F35  1  0.65626300  0.37187000  0.55206400  1
loop_
_geom_bond_atom_site_label_1
_geom_bond_atom_site_label_2
_geom_bond_distance
_geom_bond_site_symmetry_2
C0 O0 1.258052 1_555
C0 O6 1.264083 1_555
C1 O1 1.258052 1_555
C1 O7 1.264083 1_555
C2 O2 1.258052 1_555
C2 O8 1.264083 1_555
C3 O3 1.258052 1_555
C3 O9 1.264083 1_555
C4 O4 1.258052 1_555
C4 O10 1.264083 1_555
C5 O5 1.258052 1_555
C5 O11 1.264083 1_555
C6 F0 1.348203 1_455
C6 F12 1.360966 1_555
C6 F6 1.371376 1_555
C7 F1 1.348203 1_554
C7 F13 1.360965 1_555
C7 F7 1.371376 1_555
C8 F2 1.348203 1_545
C8 F14 1.360965 1_555
C8 F8 1.371376 1_555
C9 F3 1.348203 1_655
C9 F15 1.360966 1_555
C9 F9 1.371376 1_555
C10 F4 1.348203 1_556
C10 F16 1.360965 1_555
C10 F10 1.371376 1_555
C11 F5 1.348203 1_565
C11 F17 1.360965 1_555
C11 F11 1.371376 1_555
C12 O18 1.243737 1_555
C12 O12 1.270705 1_555
C13 O19 1.243736 1_555
C13 O13 1.270705 1_555
C14 O20 1.243737 1_555
C14 O14 1.270705 1_555
C15 O21 1.243737 1_555
C15 O15 1.270705 1_555
C16 O22 1.243736 1_555
C16 O16 1.270705 1_555
C17 O23 1.243737 1_555
C17 O17 1.270705 1_555
C18 F30 1.343983 1_555
C18 F24 1.363442 1_555
C18 F18 1.385253 1_555
C19 F31 1.343983 1_555
C19 F25 1.363442 1_555
C19 F19 1.385253 1_555
C20 F32 1.343983 1_555
C20 F26 1.363442 1_555
C20 F20 1.385253 1_555
C21 F33 1.343983 1_555
C21 F27 1.363442 1_555
C21 F21 1.385253 1_555
C22 F34 1.343983 1_555
C22 F28 1.363442 1_555
C22 F22 1.385253 1_555
C23 F35 1.343983 1_555
C23 F29 1.363442 1_555
C23 F23 1.385253 1_555
O0 Sr1 2.524714 1_555
O0 Sr0 2.729157 1_565
O1 Sr2 2.524714 1_555
O1 Sr1 2.729158 1_655
O2 Sr0 2.524714 1_555
O2 Sr2 2.729157 1_556
O3 Sr4 2.524714 1_555
O3 Sr3 2.729157 1_545
O4 Sr5 2.524714 1_555
O4 Sr4 2.729158 1_455
O5 Sr3 2.524714 1_555
O5 Sr5 2.729157 1_554
O6 Sr3 2.532729 1_556
O6 Sr0 2.723484 1_565
O7 Sr4 2.532729 1_565
O7 Sr1 2.723485 1_655
O8 Sr5 2.532728 1_655
O8 Sr2 2.723485 1_556
O9 Sr0 2.532729 1_554
O9 Sr3 2.723484 1_545
O10 Sr1 2.532729 1_545
O10 Sr4 2.723485 1_455
O11 Sr2 2.532728 1_455
O11 Sr5 2.723485 1_554
O12 Sr2 2.606089 1_555
O12 Sr0 2.610712 1_554
O13 Sr0 2.606089 1_555
O13 Sr1 2.610712 1_545
O14 Sr1 2.606089 1_555
O14 Sr2 2.610713 1_455
O15 Sr5 2.606089 1_555
O15 Sr3 2.610712 1_556
O16 Sr3 2.606089 1_555
O16 Sr4 2.610712 1_565
O17 Sr4 2.606089 1_555
O17 Sr5 2.610713 1_655
O18 Sr1 2.491031 1_655
O19 Sr2 2.491031 1_556
O20 Sr0 2.491031 1_565
O21 Sr4 2.491031 1_455
O22 Sr5 2.491031 1_554
O23 Sr3 2.491031 1_545
F18 Sr0 2.887843 1_554
F19 Sr1 2.887843 1_545
F20 Sr2 2.887843 1_455
F21 Sr3 2.887843 1_556
F22 Sr4 2.887843 1_565
F23 Sr5 2.887843 1_655
