# generated using pymatgen
data_Ba6Fe3Si8C2(ClO10)3
_symmetry_space_group_name_H-M   'P 1'
_cell_length_a   10.86779564
_cell_length_b   10.86779564
_cell_length_c   7.23343500
_cell_angle_alpha   90.00000000
_cell_angle_beta   90.00000000
_cell_angle_gamma   119.99999779
_symmetry_Int_Tables_number   1
_chemical_formula_structural   Ba6Fe3Si8C2(ClO10)3
_chemical_formula_sum   'Ba6 Fe3 Si8 C2 Cl3 O30'
_cell_volume   739.87465572
_cell_formula_units_Z   1
loop_
 _symmetry_equiv_pos_site_id
 _symmetry_equiv_pos_as_xyz
  1  'x, y, z'
loop_
 _atom_site_type_symbol
 _atom_site_label
 _atom_site_symmetry_multiplicity
 _atom_site_fract_x
 _atom_site_fract_y
 _atom_site_fract_z
 _atom_site_occupancy
  Ba  Ba0  1  0.16196500  0.83803500  0.52451500  1
  Ba  Ba1  1  0.16196500  0.32393000  0.52451500  1
  Ba  Ba2  1  0.67607000  0.83803500  0.52451500  1
  Ba  Ba3  1  0.84574100  0.15425900  0.00141100  1
  Ba  Ba4  1  0.84574100  0.69148200  0.00141100  1
  Ba  Ba5  1  0.30851800  0.15425900  0.00141100  1
  Fe  Fe0  1  0.76978200  0.23021800  0.50373400  1
  Fe  Fe1  1  0.76978200  0.53956400  0.50373400  1
  Fe  Fe2  1  0.46043600  0.23021800  0.50373400  1
  Si  Si0  1  0.50155900  0.49844100  0.77503300  1
  Si  Si1  1  0.50155900  0.00311800  0.77503300  1
  Si  Si2  1  0.99688200  0.49844100  0.77503300  1
  Si  Si3  1  0.33333300  0.66666700  0.21979800  1
  Si  Si4  1  0.50181600  0.49818400  0.23198400  1
  Si  Si5  1  0.50181600  0.00363200  0.23198400  1
  Si  Si6  1  0.99636800  0.49818400  0.23198400  1
  Si  Si7  1  0.33333300  0.66666700  0.78363900  1
  C  C0  1  0.00000000  0.00000000  0.66457700  1
  C  C1  1  0.00000000  0.00000000  0.25020100  1
  Cl  Cl0  1  0.17126100  0.82873900  0.95202000  1
  Cl  Cl1  1  0.17126100  0.34252300  0.95202000  1
  Cl  Cl2  1  0.65747700  0.82873900  0.95202000  1
  O  O0  1  0.41252600  0.07612100  0.31262000  1
  O  O1  1  0.92387900  0.33640500  0.31262000  1
  O  O2  1  0.92387900  0.58747400  0.31262000  1
  O  O3  1  0.66359500  0.58747400  0.31262000  1
  O  O4  1  0.66359500  0.07612100  0.31262000  1
  O  O5  1  0.41252600  0.33640500  0.31262000  1
  O  O6  1  0.50641500  0.49358500  0.00337100  1
  O  O7  1  0.50641500  0.01282900  0.00337100  1
  O  O8  1  0.98717100  0.49358500  0.00337100  1
  O  O9  1  0.66666700  0.33333300  0.50106000  1
  O  O10  1  0.06850500  0.93149500  0.24624600  1
  O  O11  1  0.06850500  0.13701000  0.24624600  1
  O  O12  1  0.86299000  0.93149500  0.24624600  1
  O  O13  1  0.66666700  0.33333300  0.00556800  1
  O  O14  1  0.33333300  0.66666700  0.00163000  1
  O  O15  1  0.93093700  0.06906300  0.66292300  1
  O  O16  1  0.93093700  0.86187400  0.66292300  1
  O  O17  1  0.13812600  0.06906300  0.66292300  1
  O  O18  1  0.41535100  0.07805400  0.69316300  1
  O  O19  1  0.92194600  0.33729600  0.69316300  1
  O  O20  1  0.92194600  0.58464900  0.69316300  1
  O  O21  1  0.66270400  0.58464900  0.69316300  1
  O  O22  1  0.66270400  0.07805400  0.69316300  1
  O  O23  1  0.41535100  0.33729600  0.69316300  1
  O  O24  1  0.41571900  0.58428100  0.70322000  1
  O  O25  1  0.41571900  0.83143800  0.70322000  1
  O  O26  1  0.16856200  0.58428100  0.70322000  1
  O  O27  1  0.41568900  0.58431100  0.29711900  1
  O  O28  1  0.41568900  0.83137900  0.29711900  1
  O  O29  1  0.16862100  0.58431100  0.29711900  1
loop_
_geom_bond_atom_site_label_1
_geom_bond_atom_site_label_2
_geom_bond_distance
_geom_bond_site_symmetry_2
Ba0 O10 2.673292 1_555
Ba0 O16 2.832645 1_455
Ba0 O17 2.832645 1_565
Ba0 O20 2.948281 1_455
Ba0 O18 2.948281 1_565
Ba0 O2 3.068133 1_455
Ba0 O0 3.068133 1_565
Ba0 O26 3.078793 1_555
Ba0 O25 3.078793 1_555
Ba0 Cl0 3.097277 1_555
Ba0 O29 3.242469 1_555
Ba0 O28 3.242469 1_555
Ba1 O11 2.673293 1_555
Ba1 O17 2.832645 1_555
Ba1 O15 2.832645 1_455
Ba1 O19 2.948275 1_455
Ba1 O23 2.948285 1_555
Ba1 O1 3.068133 1_455
Ba1 O5 3.068133 1_555
Ba1 O26 3.078793 1_555
Ba1 O24 3.078794 1_555
Ba1 Cl1 3.097277 1_555
Ba1 O27 3.242474 1_555
Ba1 O29 3.242479 1_555
Ba2 O12 2.673293 1_555
Ba2 O16 2.832645 1_555
Ba2 O15 2.832645 1_565
Ba2 O22 2.948275 1_565
Ba2 O21 2.948285 1_555
Ba2 O4 3.068133 1_565
Ba2 O3 3.068133 1_555
Ba2 O25 3.078793 1_555
Ba2 O24 3.078794 1_555
Ba2 Cl2 3.097277 1_555
Ba2 O27 3.242474 1_555
Ba2 O28 3.242479 1_555
Ba3 O19 2.822576 1_554
Ba3 O22 2.822576 1_554
Ba3 O4 2.833046 1_555
Ba3 O1 2.833046 1_555
Ba3 O15 2.926883 1_554
Ba3 O12 3.080003 1_545
Ba3 O11 3.080003 1_655
Ba3 Cl1 3.096914 1_654
Ba3 Cl2 3.096914 1_544
Ba3 O8 3.208401 1_555
Ba3 O7 3.208401 1_555
Ba3 O13 3.370947 1_555
Ba4 O21 2.822577 1_554
Ba4 O20 2.822582 1_554
Ba4 O2 2.833046 1_555
Ba4 O3 2.833046 1_555
Ba4 O16 2.926883 1_554
Ba4 O12 3.080003 1_555
Ba4 O10 3.080003 1_655
Ba4 Cl0 3.096913 1_654
Ba4 Cl2 3.096922 1_554
Ba4 O6 3.208402 1_555
Ba4 O8 3.208411 1_555
Ba4 O13 3.370956 1_555
Ba5 O23 2.822577 1_554
Ba5 O18 2.822582 1_554
Ba5 O0 2.833046 1_555
Ba5 O5 2.833046 1_555
Ba5 O17 2.926883 1_554
Ba5 O11 3.080003 1_555
Ba5 O10 3.080003 1_545
Ba5 Cl0 3.096913 1_544
Ba5 Cl1 3.096922 1_554
Ba5 O6 3.208402 1_555
Ba5 O7 3.208411 1_555
Ba5 O13 3.370956 1_555
Fe0 O9 1.941089 1_555
Fe0 O22 2.010471 1_555
Fe0 O19 2.010471 1_555
Fe0 O1 2.028495 1_555
Fe0 O4 2.028495 1_555
Fe1 O9 1.941099 1_555
Fe1 O21 2.010465 1_555
Fe1 O20 2.010473 1_555
Fe1 O3 2.028495 1_555
Fe1 O2 2.028495 1_555
Fe2 O9 1.941099 1_555
Fe2 O23 2.010465 1_555
Fe2 O18 2.010473 1_555
Fe2 O5 2.028495 1_555
Fe2 O0 2.028495 1_555
C0 O15 1.300068 1_455
C0 O16 1.300068 1_445
C0 O17 1.300068 1_555
C1 O10 1.289826 1_545
C1 O12 1.289826 1_445
C1 O11 1.289826 1_555
O0 Si5 1.633078 1_555
O1 Si6 1.633079 1_555
O2 Si6 1.633078 1_555
O3 Si4 1.633079 1_555
O4 Si5 1.633079 1_555
O5 Si4 1.633079 1_555
O6 Si0 1.654195 1_554
O6 Si4 1.655922 1_555
O7 Si1 1.654195 1_554
O7 Si5 1.655921 1_555
O8 Si2 1.654195 1_554
O8 Si6 1.655921 1_555
O14 Si7 1.576824 1_554
O14 Si3 1.578104 1_555
O18 Si1 1.629322 1_555
O19 Si2 1.629331 1_555
O20 Si2 1.629322 1_555
O21 Si0 1.629331 1_555
O22 Si1 1.629331 1_555
O23 Si0 1.629331 1_555
O24 Si7 1.656309 1_555
O24 Si0 1.697260 1_555
O25 Si7 1.656300 1_555
O25 Si1 1.697261 1_565
O26 Si7 1.656300 1_555
O26 Si2 1.697261 1_455
O27 Si3 1.648041 1_555
O27 Si4 1.688292 1_555
O28 Si3 1.648041 1_555
O28 Si5 1.688283 1_565
O29 Si3 1.648041 1_555
O29 Si6 1.688283 1_455
