# generated using pymatgen
data_Li9Mn2Co5O16
_symmetry_space_group_name_H-M   'P 1'
_cell_length_a   2.88159700
_cell_length_b   5.22985300
_cell_length_c   19.56328917
_cell_angle_alpha   82.33000644
_cell_angle_beta   90.00000000
_cell_angle_gamma   90.00000000
_symmetry_Int_Tables_number   1
_chemical_formula_structural   Li9Mn2Co5O16
_chemical_formula_sum   'Li9 Mn2 Co5 O16'
_cell_volume   292.18746649
_cell_formula_units_Z   1
loop_
 _symmetry_equiv_pos_site_id
 _symmetry_equiv_pos_as_xyz
  1  'x, y, z'
loop_
 _atom_site_type_symbol
 _atom_site_label
 _atom_site_symmetry_multiplicity
 _atom_site_fract_x
 _atom_site_fract_y
 _atom_site_fract_z
 _atom_site_occupancy
  Li  Li0  1  0.50000000  0.50394900  0.99516200  1
  Li  Li1  1  0.00000000  0.75542900  0.87237900  1
  Li  Li2  1  0.50000000  0.00353400  0.74622600  1
  Li  Li3  1  0.00000000  0.24772900  0.62300800  1
  Li  Li4  1  0.50000000  0.51928300  0.49946900  1
  Li  Li5  1  0.00000000  0.25613900  0.13023300  1
  Li  Li6  1  0.50000000  0.96843300  0.25955200  1
  Li  Li7  1  0.00000000  0.74696200  0.37373100  1
  Li  Li8  1  0.50000000  0.25269600  0.37568300  1
  Mn  Mn0  1  0.00000000  0.99910300  0.99814700  1
  Mn  Mn1  1  0.50000000  0.74415200  0.12726400  1
  Co  Co0  1  0.50000000  0.25809400  0.87236100  1
  Co  Co1  1  0.00000000  0.50587100  0.74819100  1
  Co  Co2  1  0.50000000  0.74927000  0.62229700  1
  Co  Co3  1  0.00000000  0.04058700  0.49263200  1
  Co  Co4  1  0.00000000  0.45574900  0.26209400  1
  O  O0  1  0.50000000  0.08464400  0.06039900  1
  O  O1  1  0.00000000  0.37381900  0.93279100  1
  O  O2  1  0.50000000  0.59653100  0.80704200  1
  O  O3  1  0.00000000  0.87157100  0.68347600  1
  O  O4  1  0.50000000  0.09371100  0.55753600  1
  O  O5  1  0.00000000  0.87852400  0.17744000  1
  O  O6  1  0.50000000  0.61705400  0.30963100  1
  O  O7  1  0.00000000  0.35706000  0.44375800  1
  O  O8  1  0.50000000  0.88925500  0.94049000  1
  O  O9  1  0.00000000  0.13156100  0.81738200  1
  O  O10  1  0.50000000  0.40156300  0.69256300  1
  O  O11  1  0.00000000  0.61948600  0.56958200  1
  O  O12  1  0.50000000  0.89214500  0.44595700  1
  O  O13  1  0.00000000  0.62363400  0.07065400  1
  O  O14  1  0.50000000  0.42563700  0.18588400  1
  O  O15  1  0.00000000  0.13682300  0.30698400  1
loop_
_geom_bond_atom_site_label_1
_geom_bond_atom_site_label_2
_geom_bond_distance
_geom_bond_site_symmetry_2
Li0 O1 2.061449 1_655
Li0 O1 2.061449 1_555
Li0 O8 2.151570 1_555
Li0 O13 2.212602 1_556
Li0 O13 2.212602 1_656
Li0 O0 2.385492 1_556
Li1 O9 2.112391 1_565
Li1 O8 2.142470 1_455
Li1 O8 2.142470 1_555
Li1 O2 2.164217 1_555
Li1 O2 2.164217 1_455
Li1 O1 2.179505 1_555
Li2 O3 2.070108 1_545
Li2 O3 2.070108 1_645
Li2 O9 2.170439 1_655
Li2 O9 2.170439 1_555
Li2 O10 2.202722 1_555
Li2 O2 2.295717 1_545
Li3 O11 2.080873 1_555
Li3 O4 2.154225 1_455
Li3 O4 2.154225 1_555
Li3 O3 2.155981 1_545
Li3 O10 2.206120 1_455
Li3 O10 2.206120 1_555
Li4 O7 2.056787 1_655
Li4 O7 2.056787 1_555
Li4 O12 2.086520 1_555
Li4 O11 2.103283 1_655
Li4 O11 2.103283 1_555
Li4 O4 2.359916 1_555
Li5 O5 2.065470 1_545
Li5 O14 2.074756 1_455
Li5 O14 2.074756 1_555
Li5 O13 2.110553 1_555
Li5 O0 2.252522 1_455
Li5 O0 2.252522 1_555
Li6 O6 1.963733 1_555
Li6 O15 1.982583 1_565
Li6 O15 1.982583 1_665
Li6 O5 2.253682 1_555
Li6 O5 2.253682 1_655
Li7 O6 2.082652 1_455
Li7 O6 2.082652 1_555
Li7 O12 2.221554 1_455
Li7 O12 2.221554 1_555
Li7 O15 2.269710 1_565
Li7 O7 2.299815 1_555
Li8 O7 2.083615 1_655
Li8 O7 2.083615 1_555
Li8 O15 2.113485 1_655
Li8 O15 2.113485 1_555
Li8 O6 2.154893 1_555
Li8 O12 2.180289 1_545
Mn0 O8 1.962449 1_455
Mn0 O8 1.962449 1_555
Mn0 O0 1.976016 1_466
Mn0 O0 1.976016 1_566
Mn0 O1 2.192346 1_565
Mn0 O13 2.263729 1_556
Mn1 O14 1.892106 1_555
Mn1 O5 1.928067 1_555
Mn1 O5 1.928067 1_655
Mn1 O13 1.971295 1_655
Mn1 O13 1.971295 1_555
Mn1 O0 2.064052 1_565
Co0 O9 1.964855 1_555
Co0 O9 1.964855 1_655
Co0 O1 2.007687 1_655
Co0 O1 2.007687 1_555
Co0 O2 2.040094 1_555
Co0 O8 2.193418 1_545
Co1 O10 1.927766 1_555
Co1 O10 1.927766 1_455
Co1 O2 1.942153 1_555
Co1 O2 1.942153 1_455
Co1 O3 2.148111 1_555
Co1 O9 2.226447 1_555
Co2 O11 1.946019 1_555
Co2 O11 1.946019 1_655
Co2 O3 2.030231 1_655
Co2 O3 2.030231 1_555
Co2 O4 2.059340 1_565
Co2 O10 2.128179 1_555
Co3 O7 1.797540 1_555
Co3 O12 1.923953 1_545
Co3 O12 1.923953 1_445
Co3 O4 1.964557 1_455
Co3 O4 1.964557 1_555
Co3 O11 2.496267 1_545
Co4 O15 1.778269 1_555
Co4 O6 1.965158 1_555
Co4 O6 1.965158 1_455
Co4 O14 2.094329 1_555
Co4 O14 2.094329 1_455
Co4 O5 2.579536 1_555
