# generated using pymatgen
data_BaMg30TiO32
_symmetry_space_group_name_H-M   'P 1'
_cell_length_a   8.68600910
_cell_length_b   8.66796777
_cell_length_c   8.66796777
_cell_angle_alpha   90.00000000
_cell_angle_beta   90.00000000
_cell_angle_gamma   90.00000000
_symmetry_Int_Tables_number   1
_chemical_formula_structural   BaMg30TiO32
_chemical_formula_sum   'Ba1 Mg30 Ti1 O32'
_cell_volume   652.61170018
_cell_formula_units_Z   1
loop_
 _symmetry_equiv_pos_site_id
 _symmetry_equiv_pos_as_xyz
  1  'x, y, z'
loop_
 _atom_site_type_symbol
 _atom_site_label
 _atom_site_symmetry_multiplicity
 _atom_site_fract_x
 _atom_site_fract_y
 _atom_site_fract_z
 _atom_site_occupancy
  Ba  Ba0  1  -0.00000000  0.50000000  0.50000000  1
  Mg  Mg0  1  -0.00000000  -0.00000000  0.50000000  1
  Mg  Mg1  1  -0.00000000  0.50000000  -0.00000000  1
  Mg  Mg2  1  0.50000000  -0.00000000  -0.00000000  1
  Mg  Mg3  1  0.50000000  -0.00000000  0.50000000  1
  Mg  Mg4  1  0.50000000  0.50000000  -0.00000000  1
  Mg  Mg5  1  0.50000000  0.50000000  0.50000000  1
  Mg  Mg6  1  -0.00000000  0.24467352  0.24467352  1
  Mg  Mg7  1  -0.00000000  0.24467352  0.75532648  1
  Mg  Mg8  1  -0.00000000  0.75532648  0.24467352  1
  Mg  Mg9  1  -0.00000000  0.75532648  0.75532648  1
  Mg  Mg10  1  0.50000000  0.24924564  0.24924564  1
  Mg  Mg11  1  0.50000000  0.24924564  0.75075436  1
  Mg  Mg12  1  0.50000000  0.75075436  0.24924564  1
  Mg  Mg13  1  0.50000000  0.75075436  0.75075436  1
  Mg  Mg14  1  0.25237216  -0.00000000  0.24934244  1
  Mg  Mg15  1  0.25237216  -0.00000000  0.75065756  1
  Mg  Mg16  1  0.25812815  0.50000000  0.24245543  1
  Mg  Mg17  1  0.25812815  0.50000000  0.75754457  1
  Mg  Mg18  1  0.74762784  -0.00000000  0.24934244  1
  Mg  Mg19  1  0.74762784  -0.00000000  0.75065756  1
  Mg  Mg20  1  0.74187185  0.50000000  0.24245543  1
  Mg  Mg21  1  0.74187185  0.50000000  0.75754457  1
  Mg  Mg22  1  0.25237216  0.24934244  -0.00000000  1
  Mg  Mg23  1  0.25812815  0.24245543  0.50000000  1
  Mg  Mg24  1  0.25237216  0.75065756  -0.00000000  1
  Mg  Mg25  1  0.25812815  0.75754457  0.50000000  1
  Mg  Mg26  1  0.74762784  0.24934244  -0.00000000  1
  Mg  Mg27  1  0.74187185  0.24245543  0.50000000  1
  Mg  Mg28  1  0.74762784  0.75065756  -0.00000000  1
  Mg  Mg29  1  0.74187185  0.75754457  0.50000000  1
  Ti  Ti0  1  -0.00000000  -0.00000000  -0.00000000  1
  O  O0  1  0.25836462  -0.00000000  -0.00000000  1
  O  O1  1  0.25581011  -0.00000000  0.50000000  1
  O  O2  1  0.25581011  0.50000000  -0.00000000  1
  O  O3  1  0.27901371  0.50000000  0.50000000  1
  O  O4  1  0.74163538  -0.00000000  -0.00000000  1
  O  O5  1  0.74418989  -0.00000000  0.50000000  1
  O  O6  1  0.74418989  0.50000000  -0.00000000  1
  O  O7  1  0.72098629  0.50000000  0.50000000  1
  O  O8  1  0.24919181  0.25020692  0.25020692  1
  O  O9  1  0.24919181  0.25020692  0.74979308  1
  O  O10  1  0.24919181  0.74979308  0.25020692  1
  O  O11  1  0.24919181  0.74979308  0.74979308  1
  O  O12  1  0.75080819  0.25020692  0.25020692  1
  O  O13  1  0.75080819  0.25020692  0.74979308  1
  O  O14  1  0.75080819  0.74979308  0.25020692  1
  O  O15  1  0.75080819  0.74979308  0.74979308  1
  O  O16  1  -0.00000000  -0.00000000  0.24654133  1
  O  O17  1  -0.00000000  -0.00000000  0.75345867  1
  O  O18  1  -0.00000000  0.50000000  0.22089969  1
  O  O19  1  -0.00000000  0.50000000  0.77910031  1
  O  O20  1  0.50000000  -0.00000000  0.24929113  1
  O  O21  1  0.50000000  -0.00000000  0.75070887  1
  O  O22  1  0.50000000  0.50000000  0.24440683  1
  O  O23  1  0.50000000  0.50000000  0.75559317  1
  O  O24  1  -0.00000000  0.24654133  -0.00000000  1
  O  O25  1  -0.00000000  0.22089969  0.50000000  1
  O  O26  1  -0.00000000  0.75345867  -0.00000000  1
  O  O27  1  -0.00000000  0.77910031  0.50000000  1
  O  O28  1  0.50000000  0.24929113  -0.00000000  1
  O  O29  1  0.50000000  0.24440683  0.50000000  1
  O  O30  1  0.50000000  0.75070887  -0.00000000  1
  O  O31  1  0.50000000  0.75559317  0.50000000  1
loop_
_geom_bond_atom_site_label_1
_geom_bond_atom_site_label_2
_geom_bond_distance
_geom_bond_site_symmetry_2
Ba0 O19 2.419232 1_555
Ba0 O27 2.419232 1_555
Ba0 O25 2.419232 1_555
Ba0 O18 2.419232 1_555
Ba0 O7 2.423516 1_455
Ba0 O3 2.423516 1_555
Mg0 O27 1.914751 1_545
Mg0 O25 1.914751 1_555
Mg0 O16 2.196972 1_555
Mg0 O17 2.196972 1_555
Mg0 O1 2.221969 1_555
Mg0 O5 2.221969 1_455
Mg1 O19 1.914751 1_554
Mg1 O18 1.914751 1_555
Mg1 O24 2.196972 1_555
Mg1 O26 2.196972 1_555
Mg1 O2 2.221969 1_555
Mg1 O6 2.221969 1_455
Mg2 O4 2.098847 1_555
Mg2 O0 2.098847 1_555
Mg2 O20 2.160847 1_555
Mg2 O28 2.160847 1_555
Mg2 O30 2.160847 1_545
Mg2 O21 2.160847 1_554
Mg3 O31 2.118511 1_545
Mg3 O29 2.118511 1_555
Mg3 O1 2.121036 1_555
Mg3 O5 2.121036 1_555
Mg3 O21 2.173136 1_555
Mg3 O20 2.173136 1_555
Mg4 O23 2.118511 1_554
Mg4 O22 2.118511 1_555
Mg4 O2 2.121036 1_555
Mg4 O6 2.121036 1_555
Mg4 O28 2.173136 1_555
Mg4 O30 2.173136 1_555
Mg5 O3 1.919489 1_555
Mg5 O7 1.919489 1_555
Mg5 O29 2.215473 1_555
Mg5 O31 2.215473 1_555
Mg5 O23 2.215473 1_555
Mg5 O22 2.215473 1_555
Mg6 O24 2.120884 1_555
Mg6 O16 2.120884 1_555
Mg6 O12 2.165545 1_455
Mg6 O8 2.165545 1_555
Mg6 O25 2.222735 1_555
Mg6 O18 2.222735 1_555
Mg7 O24 2.120884 1_556
Mg7 O17 2.120884 1_555
Mg7 O9 2.165545 1_555
Mg7 O13 2.165545 1_455
Mg7 O19 2.222735 1_555
Mg7 O25 2.222735 1_555
Mg8 O16 2.120884 1_565
Mg8 O26 2.120884 1_555
Mg8 O14 2.165545 1_455
Mg8 O10 2.165545 1_555
Mg8 O27 2.222735 1_555
Mg8 O18 2.222735 1_555
Mg9 O26 2.120884 1_556
Mg9 O17 2.120884 1_565
Mg9 O15 2.165545 1_455
Mg9 O11 2.165545 1_555
Mg9 O19 2.222735 1_555
Mg9 O27 2.222735 1_555
Mg10 O28 2.160453 1_555
Mg10 O20 2.160453 1_555
Mg10 O22 2.173935 1_555
Mg10 O29 2.173935 1_555
Mg10 O8 2.178554 1_555
Mg10 O12 2.178554 1_555
Mg11 O21 2.160453 1_555
Mg11 O28 2.160453 1_556
Mg11 O23 2.173935 1_555
Mg11 O29 2.173935 1_555
Mg11 O9 2.178554 1_555
Mg11 O13 2.178554 1_555
Mg12 O30 2.160453 1_555
Mg12 O20 2.160453 1_565
Mg12 O22 2.173935 1_555
Mg12 O31 2.173935 1_555
Mg12 O10 2.178554 1_555
Mg12 O14 2.178554 1_555
Mg13 O30 2.160453 1_556
Mg13 O21 2.160453 1_565
Mg13 O23 2.173935 1_555
Mg13 O31 2.173935 1_555
Mg13 O11 2.178554 1_555
Mg13 O15 2.178554 1_555
Mg14 O20 2.150898 1_555
Mg14 O0 2.161919 1_555
Mg14 O8 2.168974 1_555
Mg14 O10 2.168974 1_545
Mg14 O1 2.172897 1_555
Mg14 O16 2.192241 1_555
Mg15 O21 2.150898 1_555
Mg15 O0 2.161919 1_556
Mg15 O9 2.168974 1_555
Mg15 O11 2.168974 1_545
Mg15 O1 2.172897 1_555
Mg15 O17 2.192241 1_555
Mg16 O22 2.100969 1_555
Mg16 O2 2.101692 1_555
Mg16 O10 2.167631 1_555
Mg16 O8 2.167631 1_555
Mg16 O3 2.239747 1_555
Mg16 O18 2.249875 1_555
Mg17 O23 2.100969 1_555
Mg17 O2 2.101692 1_556
Mg17 O11 2.167631 1_555
Mg17 O9 2.167631 1_555
Mg17 O3 2.239747 1_555
Mg17 O19 2.249875 1_555
Mg18 O20 2.150898 1_555
Mg18 O4 2.161919 1_555
Mg18 O14 2.168974 1_545
Mg18 O12 2.168974 1_555
Mg18 O5 2.172897 1_555
Mg18 O16 2.192241 1_655
Mg19 O21 2.150898 1_555
Mg19 O4 2.161919 1_556
Mg19 O13 2.168974 1_555
Mg19 O15 2.168974 1_545
Mg19 O5 2.172897 1_555
Mg19 O17 2.192241 1_655
Mg20 O22 2.100969 1_555
Mg20 O6 2.101692 1_555
Mg20 O12 2.167631 1_555
Mg20 O14 2.167631 1_555
Mg20 O7 2.239747 1_555
Mg20 O18 2.249875 1_655
Mg21 O23 2.100969 1_555
Mg21 O6 2.101692 1_556
Mg21 O13 2.167631 1_555
Mg21 O15 2.167631 1_555
Mg21 O7 2.239747 1_555
Mg21 O19 2.249875 1_655
Mg22 O28 2.150898 1_555
Mg22 O0 2.161919 1_555
Mg22 O8 2.168974 1_555
Mg22 O9 2.168974 1_554
Mg22 O2 2.172897 1_555
Mg22 O24 2.192241 1_555
Mg23 O29 2.100969 1_555
Mg23 O1 2.101692 1_555
Mg23 O8 2.167631 1_555
Mg23 O9 2.167631 1_555
Mg23 O3 2.239747 1_555
Mg23 O25 2.249875 1_555
Mg24 O30 2.150898 1_555
Mg24 O0 2.161919 1_565
Mg24 O11 2.168974 1_554
Mg24 O10 2.168974 1_555
Mg24 O2 2.172897 1_555
Mg24 O26 2.192241 1_555
Mg25 O31 2.100969 1_555
Mg25 O1 2.101692 1_565
Mg25 O10 2.167631 1_555
Mg25 O11 2.167631 1_555
Mg25 O3 2.239747 1_555
Mg25 O27 2.249875 1_555
Mg26 O28 2.150898 1_555
Mg26 O4 2.161919 1_555
Mg26 O13 2.168974 1_554
Mg26 O12 2.168974 1_555
Mg26 O6 2.172897 1_555
Mg26 O24 2.192241 1_655
Mg27 O29 2.100969 1_555
Mg27 O5 2.101692 1_555
Mg27 O13 2.167631 1_555
Mg27 O12 2.167631 1_555
Mg27 O7 2.239747 1_555
Mg27 O25 2.249875 1_655
Mg28 O30 2.150898 1_555
Mg28 O4 2.161919 1_565
Mg28 O14 2.168974 1_555
Mg28 O15 2.168974 1_554
Mg28 O6 2.172897 1_555
Mg28 O26 2.192241 1_655
Mg29 O31 2.100969 1_555
Mg29 O5 2.101692 1_565
Mg29 O14 2.167631 1_555
Mg29 O15 2.167631 1_555
Mg29 O7 2.239747 1_555
Mg29 O27 2.249875 1_655
O0 Ti0 2.244157 1_555
O4 Ti0 2.244157 1_655
O16 Ti0 2.137012 1_555
O17 Ti0 2.137012 1_556
O24 Ti0 2.137012 1_555
O26 Ti0 2.137012 1_565
