# generated using pymatgen
data_Tb2Co3Si5
_symmetry_space_group_name_H-M   'P 1'
_cell_length_a   7.88719500
_cell_length_b   7.88719500
_cell_length_c   5.52670442
_cell_angle_alpha   70.77772472
_cell_angle_beta   70.77772472
_cell_angle_gamma   93.40267668
_symmetry_Int_Tables_number   1
_chemical_formula_structural   Tb2Co3Si5
_chemical_formula_sum   'Tb4 Co6 Si10'
_cell_volume   301.06356940
_cell_formula_units_Z   2
loop_
 _symmetry_equiv_pos_site_id
 _symmetry_equiv_pos_as_xyz
  1  'x, y, z'
loop_
 _atom_site_type_symbol
 _atom_site_label
 _atom_site_symmetry_multiplicity
 _atom_site_fract_x
 _atom_site_fract_y
 _atom_site_fract_z
 _atom_site_occupancy
  Tb  Tb0  1  0.86947000  0.59840100  0.76307900  1
  Tb  Tb1  1  0.40159900  0.13053000  0.73692100  1
  Tb  Tb2  1  0.13053000  0.40159900  0.23692100  1
  Tb  Tb3  1  0.59840100  0.86947000  0.26307900  1
  Co  Co0  1  0.53900000  0.26321100  0.12632100  1
  Co  Co1  1  0.99611000  0.00389000  0.25000000  1
  Co  Co2  1  0.26321100  0.53900000  0.62632100  1
  Co  Co3  1  0.46100000  0.73678900  0.87367900  1
  Co  Co4  1  0.73678900  0.46100000  0.37367900  1
  Co  Co5  1  0.00389000  0.99611000  0.75000000  1
  Si  Si0  1  0.77000200  0.22999800  0.75000000  1
  Si  Si1  1  0.22999800  0.77000200  0.25000000  1
  Si  Si2  1  0.51144900  0.48855100  0.75000000  1
  Si  Si3  1  0.48855100  0.51144900  0.25000000  1
  Si  Si4  1  0.21469800  0.78530200  0.75000000  1
  Si  Si5  1  0.78530200  0.21469800  0.25000000  1
  Si  Si6  1  0.06256900  0.26169300  0.83581300  1
  Si  Si7  1  0.26169300  0.06256900  0.33581300  1
  Si  Si8  1  0.93743100  0.73830700  0.16418700  1
  Si  Si9  1  0.73830700  0.93743100  0.66418700  1
loop_
_geom_bond_atom_site_label_1
_geom_bond_atom_site_label_2
_geom_bond_distance
_geom_bond_site_symmetry_2
Co0 Si5 2.275482 1_555
Co0 Si3 2.292060 1_555
Co0 Si7 2.311661 1_555
Co0 Si2 2.332614 1_554
Co0 Si0 2.373612 1_554
Co0 Tb1 2.964703 1_555
Co0 Tb3 3.048817 1_545
Co0 Tb1 3.128117 1_554
Co0 Tb0 3.170954 1_554
Co0 Tb2 3.391794 1_555
Co1 Si7 2.347447 1_655
Co1 Si8 2.347447 1_545
Co1 Si9 2.380699 1_545
Co1 Si6 2.380699 1_654
Co1 Si5 2.420165 1_555
Co1 Si1 2.685133 1_645
Co1 Co5 2.764795 1_645
Co1 Co5 2.764795 1_644
Co1 Tb2 3.220912 1_655
Co1 Tb3 3.220912 1_545
Co1 Tb0 3.324313 1_545
Co1 Tb1 3.324313 1_654
Co2 Si4 2.275482 1_555
Co2 Si2 2.292060 1_555
Co2 Si6 2.311661 1_555
Co2 Si3 2.332614 1_555
Co2 Si1 2.373612 1_555
Co2 Tb2 2.964703 1_556
Co2 Tb0 3.048817 1_455
Co2 Tb2 3.128117 1_555
Co2 Tb3 3.170954 1_555
Co2 Tb1 3.391794 1_555
Co3 Si4 2.275482 1_555
Co3 Si2 2.292060 1_555
Co3 Si9 2.311661 1_555
Co3 Si3 2.332614 1_556
Co3 Si1 2.373612 1_556
Co3 Tb3 2.964703 1_555
Co3 Tb1 3.048817 1_565
Co3 Tb3 3.128117 1_556
Co3 Tb2 3.170954 1_556
Co3 Tb0 3.391794 1_555
Co4 Si5 2.275482 1_555
Co4 Si3 2.292060 1_555
Co4 Si8 2.311661 1_555
Co4 Si2 2.332614 1_555
Co4 Si0 2.373612 1_555
Co4 Tb0 2.964703 1_554
Co4 Tb2 3.048817 1_655
Co4 Tb0 3.128117 1_555
Co4 Tb1 3.170954 1_555
Co4 Tb3 3.391794 1_555
Co5 Si6 2.347447 1_565
Co5 Si9 2.347447 1_455
Co5 Si7 2.380699 1_565
Co5 Si8 2.380699 1_456
Co5 Si4 2.420165 1_555
Co5 Si0 2.685133 1_465
Co5 Tb1 3.220912 1_565
Co5 Tb0 3.220912 1_455
Co5 Tb2 3.324313 1_565
Co5 Tb3 3.324313 1_456
Si0 Si6 2.518398 1_655
Si0 Si9 2.518398 1_545
Si0 Si5 2.768929 1_555
Si0 Si5 2.768929 1_556
Si0 Tb1 2.994769 1_555
Si0 Tb0 2.994769 1_555
Si0 Tb3 3.108869 1_546
Si0 Tb2 3.108869 1_655
Si1 Si8 2.518398 1_455
Si1 Si7 2.518398 1_565
Si1 Si4 2.768929 1_554
Si1 Si4 2.768929 1_555
Si1 Tb2 2.994769 1_555
Si1 Tb3 2.994769 1_555
Si1 Tb0 3.108869 1_455
Si1 Tb1 3.108869 1_564
Si2 Tb1 2.935107 1_555
Si2 Tb0 2.935107 1_555
Si2 Tb2 3.155149 1_556
Si2 Tb3 3.155149 1_555
Si3 Tb2 2.935107 1_555
Si3 Tb3 2.935107 1_555
Si3 Tb1 3.155149 1_555
Si3 Tb0 3.155149 1_554
Si4 Si7 2.491691 1_565
Si4 Si8 2.491691 1_456
Si4 Tb1 2.985986 1_565
Si4 Tb0 2.985986 1_455
Si4 Tb3 3.172357 1_555
Si4 Tb2 3.172357 1_556
Si5 Si9 2.491691 1_545
Si5 Si6 2.491691 1_654
Si5 Tb3 2.985986 1_545
Si5 Tb2 2.985986 1_655
Si5 Tb1 3.172357 1_555
Si5 Tb0 3.172357 1_554
Si6 Tb1 2.873590 1_555
Si6 Tb2 2.956708 1_556
Si6 Tb2 2.969339 1_555
Si6 Tb0 3.116746 1_455
Si7 Tb2 2.873590 1_555
Si7 Tb1 2.956708 1_555
Si7 Tb1 2.969339 1_554
Si7 Tb3 3.116746 1_545
Si8 Tb3 2.873590 1_555
Si8 Tb0 2.956708 1_554
Si8 Tb0 2.969339 1_555
Si8 Tb2 3.116746 1_655
Si9 Tb0 2.873590 1_555
Si9 Tb3 2.956708 1_555
Si9 Tb3 2.969339 1_556
Si9 Tb1 3.116746 1_565
