# generated using pymatgen
data_Er9Ge4S21
_symmetry_space_group_name_H-M   'P 1'
_cell_length_a   11.35398748
_cell_length_b   11.35418313
_cell_length_c   11.35401597
_cell_angle_alpha   95.34338141
_cell_angle_beta   84.65660331
_cell_angle_gamma   84.65569100
_symmetry_Int_Tables_number   1
_chemical_formula_structural   Er9Ge4S21
_chemical_formula_sum   'Er18 Ge8 S42'
_cell_volume   1443.33938096
_cell_formula_units_Z   2
loop_
 _symmetry_equiv_pos_site_id
 _symmetry_equiv_pos_as_xyz
  1  'x, y, z'
loop_
 _atom_site_type_symbol
 _atom_site_label
 _atom_site_symmetry_multiplicity
 _atom_site_fract_x
 _atom_site_fract_y
 _atom_site_fract_z
 _atom_site_occupancy
  Er  Er0  1  0.92721142  0.29257263  0.43814485  1
  Er  Er1  1  0.58025308  0.62900048  0.76782373  1
  Er  Er2  1  0.25133801  0.96685066  0.11273256  1
  Er  Er3  1  0.23217368  0.41972829  0.62900891  1
  Er  Er4  1  0.88727802  0.74865530  0.96683910  1
  Er  Er5  1  0.56187103  0.07279483  0.29257673  1
  Er  Er6  1  0.03315070  0.11271556  0.74865270  1
  Er  Er7  1  0.70743114  0.43811625  0.07278637  1
  Er  Er8  1  0.37100429  0.76780882  0.41973354  1
  Er  Er9  1  0.70891341  0.08240496  0.94314734  1
  Er  Er10  1  0.36315925  0.41820197  0.27265474  1
  Er  Er11  1  0.03696910  0.74345331  0.59773615  1
  Er  Er12  1  0.40227668  0.96302770  0.74346239  1
  Er  Er13  1  0.05682780  0.29106220  0.08240442  1
  Er  Er14  1  0.72734274  0.63681102  0.41817623  1
  Er  Er15  1  0.58180614  0.27267591  0.63681062  1
  Er  Er16  1  0.25654154  0.59774912  0.96301645  1
  Er  Er17  1  0.91759798  0.94316254  0.29106975  1
  Ge  Ge0  1  0.70264903  0.96296743  0.62998418  1
  Ge  Ge1  1  0.37001211  0.29736594  0.96295589  1
  Ge  Ge2  1  0.03704136  0.62999477  0.29734776  1
  Ge  Ge3  1  0.53666563  0.79744079  0.12953688  1
  Ge  Ge4  1  0.20257106  0.12952231  0.46335875  1
  Ge  Ge5  1  0.87047011  0.46333949  0.79743829  1
  Ge  Ge6  1  0.16363686  0.83634685  0.83634356  1
  Ge  Ge7  1  0.66374936  0.33625356  0.33626624  1
  S  S0  1  0.53688474  0.71972538  0.56897825  1
  S  S1  1  0.20474257  0.04352841  0.89858988  1
  S  S2  1  0.86537644  0.38864114  0.23826839  1
  S  S3  1  0.76173965  0.13463401  0.38864306  1
  S  S4  1  0.43101863  0.46312013  0.71973326  1
  S  S5  1  0.10139853  0.79525892  0.04352838  1
  S  S6  1  0.95648056  0.89859307  0.79525444  1
  S  S7  1  0.61135079  0.23825487  0.13462719  1
  S  S8  1  0.28026511  0.56898541  0.46312395  1
  S  S9  1  0.79517144  0.94827086  0.09910519  1
  S  S10  1  0.47028343  0.28141620  0.42603739  1
  S  S11  1  0.12693397  0.61893652  0.76935485  1
  S  S12  1  0.57396307  0.52970518  0.28141473  1
  S  S13  1  0.23064565  0.87306185  0.61894454  1
  S  S14  1  0.90087783  0.20483274  0.94827768  1
  S  S15  1  0.38106955  0.76936142  0.87306608  1
  S  S16  1  0.05172722  0.09912721  0.20482227  1
  S  S17  1  0.71858739  0.42603280  0.52971378  1
  S  S18  1  0.82931901  0.84052492  0.50382604  1
  S  S19  1  0.49616951  0.17068700  0.84049852  1
  S  S20  1  0.15947069  0.50384375  0.17068144  1
  S  S21  1  0.65965494  0.67091212  0.00374763  1
  S  S22  1  0.32907534  0.00371250  0.34034794  1
  S  S23  1  0.99625996  0.34034653  0.67093948  1
  S  S24  1  0.35559074  0.73823068  0.17009083  1
  S  S25  1  0.02029501  0.07288660  0.50227923  1
  S  S26  1  0.68704649  0.40695555  0.83107551  1
  S  S27  1  0.49771522  0.97973227  0.07289574  1
  S  S28  1  0.16893156  0.31293520  0.40694427  1
  S  S29  1  0.82991014  0.64440787  0.73822706  1
  S  S30  1  0.59306208  0.83108796  0.31296202  1
  S  S31  1  0.26178205  0.17009921  0.64443507  1
  S  S32  1  0.92711261  0.50227151  0.97971185  1
  S  S33  1  0.10984804  0.79745633  0.36473519  1
  S  S34  1  0.77750616  0.12739047  0.70241820  1
  S  S35  1  0.44416321  0.46260063  0.03544495  1
  S  S36  1  0.96454858  0.55582780  0.46259446  1
  S  S37  1  0.63527377  0.89015472  0.79745945  1
  S  S38  1  0.29757709  0.22248823  0.12738508  1
  S  S39  1  0.87260923  0.70241995  0.22249670  1
  S  S40  1  0.53740586  0.03545069  0.55583066  1
  S  S41  1  0.20254864  0.36473468  0.89014725  1
loop_
_geom_bond_atom_site_label_1
_geom_bond_atom_site_label_2
_geom_bond_distance
_geom_bond_site_symmetry_2
Er0 S2 2.729107 1_555
Er0 S17 2.750859 1_555
Er0 S28 2.768309 1_655
Er0 S3 2.774527 1_555
Er0 S25 2.803495 1_655
Er0 S23 2.844862 1_555
Er0 S36 3.048704 1_555
Er0 S16 3.388394 1_655
Er1 S0 2.635619 1_555
Er1 S4 2.700322 1_555
Er1 S15 2.748235 1_555
Er1 S29 2.846825 1_555
Er1 S26 2.876122 1_555
Er1 S21 2.916647 1_556
Er1 S37 3.081271 1_555
Er1 S17 3.530045 1_555
Er2 S16 2.667864 1_565
Er2 S1 2.738154 1_564
Er2 S5 2.809499 1_555
Er2 S27 2.811423 1_555
Er2 S22 2.815184 1_565
Er2 S24 2.906791 1_555
Er2 S38 2.989703 1_565
Er3 S4 2.635672 1_555
Er3 S8 2.700532 1_555
Er3 S11 2.748374 1_555
Er3 S31 2.846590 1_555
Er3 S28 2.876270 1_555
Er3 S23 2.916479 1_455
Er3 S41 3.080950 1_555
Er3 S10 3.529971 1_555
Er4 S9 2.667927 1_556
Er4 S5 2.737993 1_656
Er4 S6 2.809409 1_555
Er4 S32 2.811516 1_555
Er4 S21 2.815353 1_556
Er4 S29 2.906723 1_555
Er4 S39 2.989864 1_556
Er5 S3 2.729035 1_555
Er5 S10 2.750918 1_555
Er5 S30 2.768241 1_545
Er5 S7 2.774453 1_555
Er5 S27 2.803453 1_545
Er5 S22 2.845022 1_555
Er5 S40 3.048664 1_555
Er5 S9 3.388390 1_545
Er6 S14 2.668057 1_455
Er6 S6 2.737967 1_445
Er6 S1 2.809383 1_555
Er6 S25 2.811333 1_555
Er6 S23 2.815294 1_455
Er6 S31 2.906857 1_555
Er6 S34 2.989702 1_455
Er7 S7 2.729075 1_555
Er7 S12 2.751001 1_555
Er7 S26 2.768236 1_554
Er7 S2 2.774564 1_555
Er7 S32 2.803499 1_554
Er7 S21 2.844862 1_555
Er7 S35 3.048802 1_555
Er7 S14 3.388071 1_554
Er8 S8 2.635562 1_555
Er8 S0 2.700346 1_555
Er8 S13 2.748494 1_555
Er8 S24 2.846673 1_555
Er8 S30 2.876267 1_555
Er8 S22 2.916406 1_565
Er8 S33 3.081158 1_555
Er8 S12 3.529882 1_555
Er9 S9 2.638489 1_546
Er9 S14 2.694275 1_555
Er9 S7 2.748584 1_556
Er9 S37 2.850463 1_545
Er9 S34 2.876750 1_555
Er9 S19 2.913514 1_555
Er9 S27 3.076037 1_546
Er9 S6 3.528706 1_545
Er10 S8 2.669236 1_555
Er10 S10 2.733253 1_555
Er10 S20 2.814963 1_555
Er10 S12 2.815447 1_555
Er10 S38 2.840305 1_555
Er10 S35 2.869089 1_555
Er10 S28 2.969960 1_555
Er11 S11 2.730173 1_555
Er11 S36 2.742501 1_455
Er11 S6 2.747731 1_455
Er11 S13 2.773920 1_555
Er11 S33 2.836942 1_555
Er11 S18 2.848377 1_455
Er11 S29 3.076399 1_455
Er11 S8 3.394297 1_555
Er12 S13 2.730308 1_555
Er12 S40 2.742470 1_565
Er12 S1 2.747796 1_565
Er12 S15 2.773790 1_555
Er12 S37 2.836843 1_555
Er12 S19 2.848284 1_565
Er12 S31 3.076414 1_565
Er12 S0 3.394444 1_555
Er13 S14 2.638256 1_454
Er13 S16 2.693908 1_555
Er13 S2 2.748479 1_455
Er13 S41 2.850855 1_554
Er13 S38 2.876888 1_555
Er13 S20 2.913877 1_555
Er13 S32 3.076069 1_454
Er13 S1 3.528565 1_554
Er14 S0 2.669290 1_555
Er14 S12 2.732989 1_555
Er14 S18 2.815302 1_555
Er14 S17 2.815399 1_555
Er14 S39 2.840087 1_555
Er14 S36 2.869034 1_555
Er14 S30 2.969996 1_555
Er15 S4 2.669122 1_555
Er15 S17 2.732900 1_555
Er15 S19 2.815059 1_555
Er15 S10 2.815212 1_555
Er15 S34 2.840350 1_555
Er15 S40 2.869229 1_555
Er15 S26 2.970060 1_555
Er16 S15 2.730156 1_555
Er16 S35 2.742502 1_556
Er16 S5 2.747727 1_556
Er16 S11 2.773712 1_555
Er16 S41 2.837060 1_555
Er16 S20 2.848514 1_556
Er16 S24 3.076502 1_556
Er16 S4 3.394310 1_555
Er17 S16 2.638499 1_665
Er17 S9 2.694228 1_555
Er17 S3 2.748597 1_565
Er17 S33 2.850651 1_655
Er17 S39 2.876902 1_555
Er17 S18 2.913584 1_555
Er17 S25 3.076150 1_665
Er17 S5 3.528491 1_655
Ge0 S18 2.219444 1_555
Ge0 S34 2.241389 1_565
Ge0 S37 2.241454 1_555
Ge0 S40 2.245397 1_565
Ge1 S19 2.219579 1_555
Ge1 S41 2.241275 1_555
Ge1 S38 2.241543 1_556
Ge1 S35 2.245369 1_556
Ge2 S20 2.219304 1_555
Ge2 S33 2.241354 1_555
Ge2 S39 2.241365 1_455
Ge2 S36 2.245561 1_455
Ge3 S21 2.219544 1_555
Ge3 S27 2.241313 1_555
Ge3 S24 2.242678 1_555
Ge3 S30 2.244771 1_555
Ge4 S22 2.219644 1_555
Ge4 S25 2.241066 1_555
Ge4 S31 2.242729 1_555
Ge4 S28 2.244731 1_555
Ge5 S23 2.219389 1_555
Ge5 S32 2.241082 1_555
Ge5 S29 2.242637 1_555
Ge5 S26 2.244693 1_555
Ge6 S6 2.491066 1_455
Ge6 S5 2.491363 1_556
Ge6 S1 2.491444 1_565
Ge6 S13 2.597372 1_555
Ge6 S11 2.597442 1_555
Ge6 S15 2.597678 1_555
Ge7 S17 2.491369 1_555
Ge7 S12 2.491498 1_555
Ge7 S10 2.491513 1_555
Ge7 S3 2.595068 1_555
Ge7 S2 2.595210 1_555
Ge7 S7 2.595378 1_555
