# generated using pymatgen
data_NdZn3
_symmetry_space_group_name_H-M   'P 1'
_cell_length_a   4.49536182
_cell_length_b   6.72709499
_cell_length_c   10.19690189
_cell_angle_alpha   89.99970367
_cell_angle_beta   89.99998106
_cell_angle_gamma   89.99988026
_symmetry_Int_Tables_number   1
_chemical_formula_structural   NdZn3
_chemical_formula_sum   'Nd4 Zn12'
_cell_volume   308.36171587
_cell_formula_units_Z   4
loop_
 _symmetry_equiv_pos_site_id
 _symmetry_equiv_pos_as_xyz
  1  'x, y, z'
loop_
 _atom_site_type_symbol
 _atom_site_label
 _atom_site_symmetry_multiplicity
 _atom_site_fract_x
 _atom_site_fract_y
 _atom_site_fract_z
 _atom_site_occupancy
  Nd  Nd0  1  0.75000001  0.21834738  0.84459540  1
  Nd  Nd1  1  0.74999993  0.71834259  0.65544157  1
  Nd  Nd2  1  0.24999997  0.78169905  0.15543356  1
  Nd  Nd3  1  0.24999855  0.28170160  0.34453351  1
  Zn  Zn0  1  0.75000081  0.96581610  0.39195438  1
  Zn  Zn1  1  0.75000009  0.46581034  0.10800972  1
  Zn  Zn2  1  0.25000086  0.03419447  0.60787862  1
  Zn  Zn3  1  0.24999991  0.53419345  0.89216016  1
  Zn  Zn4  1  0.74999971  0.59055246  0.35236662  1
  Zn  Zn5  1  0.74999990  0.09050935  0.14756693  1
  Zn  Zn6  1  0.25000006  0.40936196  0.64767027  1
  Zn  Zn7  1  0.25000007  0.90940235  0.85239195  1
  Zn  Zn8  1  0.74999988  0.27413178  0.54686352  1
  Zn  Zn9  1  0.75000006  0.77415921  0.95316928  1
  Zn  Zn10  1  0.24999921  0.72589677  0.45305109  1
  Zn  Zn11  1  0.24999999  0.22587814  0.04691143  1
loop_
_geom_bond_atom_site_label_1
_geom_bond_atom_site_label_2
_geom_bond_distance
_geom_bond_site_symmetry_2
Nd0 Zn11 3.051326 1_556
Nd0 Zn11 3.051327 1_656
Nd0 Zn8 3.059046 1_555
Nd0 Zn7 3.062305 1_645
Nd0 Zn7 3.062311 1_545
Nd0 Zn3 3.130777 1_555
Nd0 Zn3 3.130783 1_655
Nd0 Zn1 3.160055 1_556
Nd0 Zn9 3.186596 1_545
Nd0 Zn5 3.206828 1_556
Nd0 Zn6 3.276486 1_555
Nd0 Zn6 3.276489 1_655
Nd0 Zn2 3.523220 1_555
Nd0 Zn2 3.523221 1_655
Nd1 Zn10 3.051839 1_655
Nd1 Zn10 3.051845 1_555
Nd1 Zn9 3.059034 1_555
Nd1 Zn6 3.062462 1_655
Nd1 Zn6 3.062467 1_555
Nd1 Zn2 3.130794 1_565
Nd1 Zn2 3.130806 1_665
Nd1 Zn0 3.160709 1_555
Nd1 Zn8 3.186764 1_555
Nd1 Zn4 3.207767 1_555
Nd1 Zn7 3.276770 1_555
Nd1 Zn7 3.276775 1_655
Nd1 Zn3 3.523214 1_655
Nd1 Zn3 3.523217 1_555
Nd2 Zn9 3.050970 1_554
Nd2 Zn9 3.050971 1_454
Nd2 Zn10 3.057903 1_555
Nd2 Zn5 3.061709 1_465
Nd2 Zn5 3.061714 1_565
Nd2 Zn1 3.130749 1_555
Nd2 Zn1 3.130755 1_455
Nd2 Zn3 3.158984 1_554
Nd2 Zn11 3.186355 1_565
Nd2 Zn7 3.207274 1_554
Nd2 Zn4 3.276883 1_555
Nd2 Zn4 3.276887 1_455
Nd2 Zn0 3.521763 1_455
Nd2 Zn0 3.521772 1_555
Nd3 Zn8 3.051422 1_455
Nd3 Zn8 3.051432 1_555
Nd3 Zn11 3.057971 1_555
Nd3 Zn4 3.061881 1_455
Nd3 Zn4 3.061895 1_555
Nd3 Zn0 3.130725 1_445
Nd3 Zn0 3.130733 1_545
Nd3 Zn2 3.159597 1_555
Nd3 Zn10 3.186451 1_555
Nd3 Zn6 3.208140 1_555
Nd3 Zn5 3.277221 1_455
Nd3 Zn5 3.277225 1_555
Nd3 Zn1 3.521754 1_455
Nd3 Zn1 3.521765 1_555
Zn0 Zn4 2.556507 1_555
Zn0 Zn8 2.607089 1_565
Zn0 Zn5 2.629380 1_565
Zn0 Zn10 2.836372 1_655
Zn0 Zn10 2.836388 1_555
Zn1 Zn5 2.556702 1_555
Zn1 Zn9 2.606829 1_554
Zn1 Zn4 2.629198 1_555
Zn1 Zn11 2.836433 1_655
Zn1 Zn11 2.836440 1_555
Zn2 Zn6 2.556198 1_555
Zn2 Zn7 2.630809 1_545
Zn2 Zn8 2.836265 1_555
Zn2 Zn8 2.836267 1_455
Zn3 Zn7 2.556431 1_555
Zn3 Zn6 2.630675 1_555
Zn3 Zn9 2.836362 1_455
Zn3 Zn9 2.836369 1_555
Zn4 Zn8 2.909330 1_555
Zn5 Zn9 2.908308 1_544
Zn6 Zn8 2.633675 1_555
Zn6 Zn8 2.633680 1_455
Zn7 Zn9 2.633585 1_555
Zn7 Zn9 2.633588 1_455
Zn10 Zn2 2.606488 1_565
Zn10 Zn4 2.633456 1_455
Zn10 Zn4 2.633456 1_555
Zn10 Zn6 2.910742 1_555
Zn11 Zn3 2.606099 1_554
Zn11 Zn5 2.633393 1_555
Zn11 Zn5 2.633396 1_455
Zn11 Zn7 2.909774 1_544
