# generated using pymatgen
data_KTi4O8
_symmetry_space_group_name_H-M   'P 1'
_cell_length_a   2.98305664
_cell_length_b   7.31584668
_cell_length_c   7.31517440
_cell_angle_alpha   87.60774711
_cell_angle_beta   78.23197729
_cell_angle_gamma   78.23613776
_symmetry_Int_Tables_number   1
_chemical_formula_structural   KTi4O8
_chemical_formula_sum   'K1 Ti4 O8'
_cell_volume   153.00520122
_cell_formula_units_Z   1
loop_
 _symmetry_equiv_pos_site_id
 _symmetry_equiv_pos_as_xyz
  1  'x, y, z'
loop_
 _atom_site_type_symbol
 _atom_site_label
 _atom_site_symmetry_multiplicity
 _atom_site_fract_x
 _atom_site_fract_y
 _atom_site_fract_z
 _atom_site_occupancy
  K  K0  1  0.00000148  -0.00000057  0.00000796  1
  Ti  Ti0  1  0.33389238  0.81744375  0.51486960  1
  Ti  Ti1  1  0.66610633  0.18255991  0.48513227  1
  Ti  Ti2  1  0.84883570  0.48508696  0.81744126  1
  Ti  Ti3  1  0.15116608  0.51490358  0.18256633  1
  O  O0  1  0.29940865  0.04559833  0.35568617  1
  O  O1  1  0.70058242  0.95442003  0.64431194  1
  O  O2  1  0.65511014  0.64428347  0.04549152  1
  O  O3  1  0.34488761  0.35569019  0.95453171  1
  O  O4  1  0.03937859  0.29393069  0.62728377  1
  O  O5  1  0.96062669  0.70607597  0.37269242  1
  O  O6  1  0.66648207  0.37286547  0.29405171  1
  O  O7  1  0.33352086  0.62714321  0.70593234  1
loop_
_geom_bond_atom_site_label_1
_geom_bond_atom_site_label_2
_geom_bond_distance
_geom_bond_site_symmetry_2
K0 O0 2.969645 1_455
K0 O1 2.969722 1_544
K0 O3 2.969886 1_554
K0 O3 2.969918 1_454
K0 O0 2.969925 1_555
K0 O1 2.970036 1_444
K0 O2 2.970058 1_545
K0 O2 2.970068 1_445
O0 Ti0 1.992277 1_545
O0 Ti1 2.011432 1_555
O0 Ti1 2.011787 1_455
O1 Ti1 1.992175 1_565
O1 Ti0 2.011466 1_555
O1 Ti0 2.011831 1_655
O2 Ti2 1.991956 1_554
O2 Ti3 2.011456 1_655
O2 Ti3 2.011805 1_555
O3 Ti3 1.991933 1_556
O3 Ti2 2.011556 1_455
O3 Ti2 2.011926 1_555
O4 Ti2 1.931202 1_455
O4 Ti1 1.974095 1_555
O4 Ti1 1.974334 1_455
O5 Ti3 1.931125 1_655
O5 Ti0 1.974170 1_555
O5 Ti0 1.974431 1_655
O6 Ti1 1.931243 1_555
O6 Ti3 1.973891 1_655
O6 Ti3 1.974134 1_555
O7 Ti0 1.931127 1_555
O7 Ti2 1.974023 1_455
O7 Ti2 1.974272 1_555
