# generated using pymatgen
data_Na2SeO9
_symmetry_space_group_name_H-M   'P 1'
_cell_length_a   7.71948300
_cell_length_b   7.71948300
_cell_length_c   13.58733800
_cell_angle_alpha   90.00000000
_cell_angle_beta   90.00000000
_cell_angle_gamma   90.00000000
_symmetry_Int_Tables_number   1
_chemical_formula_structural   Na2SeO9
_chemical_formula_sum   'Na8 Se4 O36'
_cell_volume   809.67514804
_cell_formula_units_Z   4
loop_
 _symmetry_equiv_pos_site_id
 _symmetry_equiv_pos_as_xyz
  1  'x, y, z'
loop_
 _atom_site_type_symbol
 _atom_site_label
 _atom_site_symmetry_multiplicity
 _atom_site_fract_x
 _atom_site_fract_y
 _atom_site_fract_z
 _atom_site_occupancy
  Na  Na0  1  0.61410800  0.50000000  0.75000000  1
  Na  Na1  1  0.38589200  0.50000000  0.25000000  1
  Na  Na2  1  0.50000000  0.61410800  0.50000000  1
  Na  Na3  1  0.50000000  0.38589200  0.00000000  1
  Na  Na4  1  0.00000000  0.59035000  0.00000000  1
  Na  Na5  1  0.00000000  0.40965000  0.50000000  1
  Na  Na6  1  0.40965000  0.00000000  0.75000000  1
  Na  Na7  1  0.59035000  0.00000000  0.25000000  1
  Se  Se0  1  0.99252200  0.50000000  0.25000000  1
  Se  Se1  1  0.00747800  0.50000000  0.75000000  1
  Se  Se2  1  0.50000000  0.99252200  0.00000000  1
  Se  Se3  1  0.50000000  0.00747800  0.50000000  1
  O  O0  1  0.39966500  0.39966500  0.62500000  1
  O  O1  1  0.60033500  0.60033500  0.12500000  1
  O  O2  1  0.60033500  0.39966500  0.37500000  1
  O  O3  1  0.39966500  0.60033500  0.87500000  1
  O  O4  1  0.04000000  0.82485300  0.21341200  1
  O  O5  1  0.96000000  0.17514700  0.71341200  1
  O  O6  1  0.17514700  0.04000000  0.96341200  1
  O  O7  1  0.82485300  0.96000000  0.46341200  1
  O  O8  1  0.96000000  0.82485300  0.78658800  1
  O  O9  1  0.04000000  0.17514700  0.28658800  1
  O  O10  1  0.82485300  0.04000000  0.03658800  1
  O  O11  1  0.17514700  0.96000000  0.53658800  1
  O  O12  1  0.87480700  0.51986300  0.65227900  1
  O  O13  1  0.12519300  0.48013700  0.15227900  1
  O  O14  1  0.48013700  0.87480700  0.40227900  1
  O  O15  1  0.51986300  0.12519300  0.90227900  1
  O  O16  1  0.12519300  0.51986300  0.34772100  1
  O  O17  1  0.87480700  0.48013700  0.84772100  1
  O  O18  1  0.51986300  0.87480700  0.59772100  1
  O  O19  1  0.48013700  0.12519300  0.09772100  1
  O  O20  1  0.70226100  0.62902800  0.04449200  1
  O  O21  1  0.29773900  0.37097200  0.54449200  1
  O  O22  1  0.37097200  0.70226100  0.79449200  1
  O  O23  1  0.62902800  0.29773900  0.29449200  1
  O  O24  1  0.29773900  0.62902800  0.95550800  1
  O  O25  1  0.70226100  0.37097200  0.45550800  1
  O  O26  1  0.62902800  0.70226100  0.20550800  1
  O  O27  1  0.37097200  0.29773900  0.70550800  1
  O  O28  1  0.82849800  0.79848600  0.45298200  1
  O  O29  1  0.17150200  0.20151400  0.95298200  1
  O  O30  1  0.20151400  0.82849800  0.20298200  1
  O  O31  1  0.79848600  0.17150200  0.70298200  1
  O  O32  1  0.17150200  0.79848600  0.54701800  1
  O  O33  1  0.82849800  0.20151400  0.04701800  1
  O  O34  1  0.79848600  0.82849800  0.79701800  1
  O  O35  1  0.20151400  0.17150200  0.29701800  1
loop_
_geom_bond_atom_site_label_1
_geom_bond_atom_site_label_2
_geom_bond_distance
_geom_bond_site_symmetry_2
Na0 O17 2.415881 1_555
Na0 O12 2.415881 1_555
Na0 O3 2.494962 1_555
Na0 O0 2.494962 1_555
Na0 O27 2.515147 1_555
Na0 O22 2.515147 1_555
Na0 O34 2.977310 1_555
Na0 O31 2.977310 1_555
Na1 O13 2.415881 1_555
Na1 O16 2.415881 1_555
Na1 O2 2.494962 1_555
Na1 O1 2.494962 1_555
Na1 O26 2.515147 1_555
Na1 O23 2.515147 1_555
Na1 O30 2.977310 1_555
Na1 O35 2.977310 1_555
Na2 O14 2.415881 1_555
Na2 O18 2.415881 1_555
Na2 O2 2.494962 1_555
Na2 O0 2.494962 1_555
Na2 O25 2.515147 1_555
Na2 O21 2.515147 1_555
Na2 O28 2.977310 1_555
Na2 O32 2.977310 1_555
Na3 O15 2.415881 1_554
Na3 O19 2.415881 1_555
Na3 O3 2.494962 1_554
Na3 O1 2.494962 1_555
Na3 O24 2.515147 1_554
Na3 O20 2.515147 1_555
Na3 O33 2.977310 1_555
Na3 O29 2.977310 1_554
Na4 O20 2.395246 1_455
Na4 O24 2.395246 1_554
Na4 O13 2.436976 1_555
Na4 O17 2.436976 1_454
Na5 O21 2.395246 1_555
Na5 O25 2.395246 1_455
Na5 O16 2.436976 1_555
Na5 O12 2.436976 1_455
Na6 O27 2.395246 1_555
Na6 O22 2.395246 1_545
Na6 O15 2.436976 1_555
Na6 O18 2.436976 1_545
Na7 O23 2.395246 1_555
Na7 O26 2.395246 1_545
Na7 O19 2.436976 1_555
Na7 O14 2.436976 1_545
O0 O21 1.365552 1_555
O0 O27 1.365552 1_555
O1 O26 1.365552 1_555
O1 O20 1.365552 1_555
O2 O23 1.365552 1_555
O2 O25 1.365552 1_555
O4 Se0 2.582637 1_455
O5 Se1 2.582637 1_655
O6 Se2 2.582637 1_546
O7 Se3 2.582637 1_565
O8 Se1 2.582637 1_655
O9 Se0 2.582637 1_455
O10 O33 1.255148 1_555
O10 Se2 2.582637 1_545
O11 O32 1.255148 1_555
O11 Se3 2.582637 1_565
O12 Se1 1.683854 1_655
O13 Se0 1.683854 1_455
O14 Se3 1.683854 1_565
O15 Se2 1.683854 1_546
O16 Se0 1.683854 1_455
O17 Se1 1.683854 1_655
O18 Se3 1.683854 1_565
O19 Se2 1.683854 1_545
O22 O3 1.365552 1_555
O24 O3 1.365552 1_555
O28 O7 1.255148 1_555
O29 O6 1.255148 1_555
O30 O4 1.255148 1_555
O31 O5 1.255148 1_555
O34 O8 1.255148 1_555
O35 O9 1.255148 1_555
