# generated using pymatgen
data_NbSiNi
_symmetry_space_group_name_H-M   'P 1'
_cell_length_a   3.69342700
_cell_length_b   6.24052000
_cell_length_c   7.07895400
_cell_angle_alpha   90.00000000
_cell_angle_beta   90.00000000
_cell_angle_gamma   90.00000000
_symmetry_Int_Tables_number   1
_chemical_formula_structural   NbSiNi
_chemical_formula_sum   'Nb4 Si4 Ni4'
_cell_volume   163.16213868
_cell_formula_units_Z   4
loop_
 _symmetry_equiv_pos_site_id
 _symmetry_equiv_pos_as_xyz
  1  'x, y, z'
loop_
 _atom_site_type_symbol
 _atom_site_label
 _atom_site_symmetry_multiplicity
 _atom_site_fract_x
 _atom_site_fract_y
 _atom_site_fract_z
 _atom_site_occupancy
  Nb  Nb0  1  0.75000000  0.48107300  0.32357200  1
  Nb  Nb1  1  0.75000000  0.98107300  0.17642800  1
  Nb  Nb2  1  0.25000000  0.51892700  0.67642800  1
  Nb  Nb3  1  0.25000000  0.01892700  0.82357200  1
  Si  Si0  1  0.75000000  0.71939600  0.88296200  1
  Si  Si1  1  0.75000000  0.21939600  0.61703800  1
  Si  Si2  1  0.25000000  0.28060400  0.11703800  1
  Si  Si3  1  0.25000000  0.78060400  0.38296200  1
  Ni  Ni0  1  0.75000000  0.34538400  0.93257700  1
  Ni  Ni1  1  0.75000000  0.84538400  0.56742300  1
  Ni  Ni2  1  0.25000000  0.65461600  0.06742300  1
  Ni  Ni3  1  0.25000000  0.15461600  0.43257700  1
loop_
_geom_bond_atom_site_label_1
_geom_bond_atom_site_label_2
_geom_bond_distance
_geom_bond_site_symmetry_2
Nb0 Si1 2.642426 1_555
Nb0 Si3 2.661038 1_655
Nb0 Si3 2.661038 1_555
Nb0 Si2 2.667021 1_555
Nb0 Si2 2.667021 1_655
Nb0 Ni2 2.805561 1_555
Nb0 Ni2 2.805561 1_655
Nb0 Ni1 2.854568 1_555
Nb0 Ni3 2.855909 1_655
Nb0 Ni3 2.855909 1_555
Nb0 Ni0 2.894466 1_554
Nb1 Si0 2.642426 1_554
Nb1 Si2 2.661038 1_665
Nb1 Si2 2.661038 1_565
Nb1 Si3 2.667021 1_555
Nb1 Si3 2.667021 1_655
Nb1 Ni3 2.805561 1_565
Nb1 Ni3 2.805561 1_665
Nb1 Ni0 2.854568 1_564
Nb1 Ni2 2.855909 1_655
Nb1 Ni2 2.855909 1_555
Nb1 Ni1 2.894466 1_555
Nb2 Si3 2.642426 1_555
Nb2 Si1 2.661038 1_455
Nb2 Si1 2.661038 1_555
Nb2 Si0 2.667021 1_455
Nb2 Si0 2.667021 1_555
Nb2 Ni0 2.805561 1_455
Nb2 Ni0 2.805561 1_555
Nb2 Ni3 2.854568 1_555
Nb2 Ni1 2.855909 1_555
Nb2 Ni1 2.855909 1_455
Nb2 Ni2 2.894466 1_556
Nb3 Si2 2.642426 1_556
Nb3 Si0 2.661038 1_445
Nb3 Si0 2.661038 1_545
Nb3 Si1 2.667021 1_455
Nb3 Si1 2.667021 1_555
Nb3 Ni1 2.805561 1_445
Nb3 Ni1 2.805561 1_545
Nb3 Ni2 2.854568 1_546
Nb3 Ni0 2.855909 1_555
Nb3 Ni0 2.855909 1_455
Nb3 Ni3 2.894466 1_555
Ni0 Si2 2.297579 1_656
Ni0 Si2 2.297579 1_556
Ni0 Si0 2.360307 1_555
Ni0 Si1 2.368019 1_555
Ni1 Si3 2.297579 1_555
Ni1 Si3 2.297579 1_655
Ni1 Si1 2.360307 1_565
Ni1 Si0 2.368019 1_555
Ni2 Si0 2.297579 1_554
Ni2 Si0 2.297579 1_454
Ni2 Si2 2.360307 1_555
Ni2 Si3 2.368019 1_555
Ni3 Si1 2.297579 1_555
Ni3 Si1 2.297579 1_455
Ni3 Si3 2.360307 1_545
Ni3 Si2 2.368019 1_555
