# generated using pymatgen
data_HgC8(I2N)2
_symmetry_space_group_name_H-M   'P 1'
_cell_length_a   8.47663000
_cell_length_b   14.22909000
_cell_length_c   17.93804000
_cell_angle_alpha   90.00000000
_cell_angle_beta   90.00000000
_cell_angle_gamma   90.00000000
_symmetry_Int_Tables_number   1
_chemical_formula_structural   HgC8(I2N)2
_chemical_formula_sum   'Hg4 C32 I16 N8'
_cell_volume   2163.59187226
_cell_formula_units_Z   4
loop_
 _symmetry_equiv_pos_site_id
 _symmetry_equiv_pos_as_xyz
  1  'x, y, z'
loop_
 _atom_site_type_symbol
 _atom_site_label
 _atom_site_symmetry_multiplicity
 _atom_site_fract_x
 _atom_site_fract_y
 _atom_site_fract_z
 _atom_site_occupancy
  Hg  Hg0  1  0.00269100  0.57210600  0.35691300  1
  Hg  Hg1  1  0.49730900  0.42789400  0.85691300  1
  Hg  Hg2  1  0.50269100  0.92789400  0.64308700  1
  Hg  Hg3  1  0.99730900  0.07210600  0.14308700  1
  C  C0  1  0.46009100  0.69197900  0.09643900  1
  C  C1  1  0.03990900  0.30802100  0.59643900  1
  C  C2  1  0.96009100  0.80802100  0.90356100  1
  C  C3  1  0.53990900  0.19197900  0.40356100  1
  C  C4  1  0.62672100  0.86445800  0.23631800  1
  C  C5  1  0.87327900  0.13554200  0.73631800  1
  C  C6  1  0.12672100  0.63554200  0.76368200  1
  C  C7  1  0.37327900  0.36445800  0.26368200  1
  C  C8  1  0.45898700  0.76520700  0.15079400  1
  C  C9  1  0.04101300  0.23479300  0.65079400  1
  C  C10  1  0.95898700  0.73479300  0.84920600  1
  C  C11  1  0.54101300  0.26520700  0.34920600  1
  C  C12  1  0.32206700  0.74259600  0.11748000  1
  C  C13  1  0.17793300  0.25740400  0.61748000  1
  C  C14  1  0.82206700  0.75740400  0.88252000  1
  C  C15  1  0.67793300  0.24259600  0.38252000  1
  C  C16  1  0.81553600  0.90620600  0.41094000  1
  C  C17  1  0.68446400  0.09379400  0.91094000  1
  C  C18  1  0.31553600  0.59379400  0.58906000  1
  C  C19  1  0.18446400  0.40620600  0.08906000  1
  C  C20  1  0.07190600  0.88974200  0.37244400  1
  C  C21  1  0.42809400  0.11025800  0.87244400  1
  C  C22  1  0.57190600  0.61025800  0.62755600  1
  C  C23  1  0.92809400  0.38974200  0.12755600  1
  C  C24  1  0.95679600  0.89195900  0.44834500  1
  C  C25  1  0.54320400  0.10804100  0.94834500  1
  C  C26  1  0.45679600  0.60804100  0.55165500  1
  C  C27  1  0.04320400  0.39195900  0.05165500  1
  C  C28  1  0.91233000  0.86562000  0.35605400  1
  C  C29  1  0.58767000  0.13438000  0.85605400  1
  C  C30  1  0.41233000  0.63438000  0.64394600  1
  C  C31  1  0.08767000  0.36562000  0.14394600  1
  I  I0  1  0.29671400  0.62454000  0.34045700  1
  I  I1  1  0.20328600  0.37546000  0.84045700  1
  I  I2  1  0.79671400  0.87546000  0.65954300  1
  I  I3  1  0.70328600  0.12454000  0.15954300  1
  I  I4  1  0.70207400  0.53391200  0.35186400  1
  I  I5  1  0.79792600  0.46608800  0.85186400  1
  I  I6  1  0.20207400  0.96608800  0.64813600  1
  I  I7  1  0.29792600  0.03391200  0.14813600  1
  I  I8  1  0.07806100  0.59378800  0.56480800  1
  I  I9  1  0.42193900  0.40621200  0.06480800  1
  I  I10  1  0.57806100  0.90621200  0.43519200  1
  I  I11  1  0.92193900  0.09378800  0.93519200  1
  I  I12  1  0.91235500  0.25996300  0.40230500  1
  I  I13  1  0.58764500  0.74003700  0.90230500  1
  I  I14  1  0.41235500  0.24003700  0.59769500  1
  I  I15  1  0.08764500  0.75996300  0.09769500  1
  N  N0  1  0.54506300  0.81687700  0.19729700  1
  N  N1  1  0.95493700  0.18312300  0.69729700  1
  N  N2  1  0.04506300  0.68312300  0.80270300  1
  N  N3  1  0.45493700  0.31687700  0.30270300  1
  N  N4  1  0.11411900  0.87804300  0.44672300  1
  N  N5  1  0.38588100  0.12195700  0.94672300  1
  N  N6  1  0.61411900  0.62195700  0.55327700  1
  N  N7  1  0.88588100  0.37804300  0.05327700  1
loop_
_geom_bond_atom_site_label_1
_geom_bond_atom_site_label_2
_geom_bond_distance
_geom_bond_site_symmetry_2
Hg0 I4 2.607102 1_455
Hg0 I0 2.618294 1_555
Hg1 I5 2.607102 1_555
Hg1 I1 2.618294 1_555
Hg2 I6 2.607102 1_555
Hg2 I2 2.618294 1_555
Hg3 I7 2.607102 1_655
Hg3 I3 2.618294 1_555
C0 C12 1.424796 1_555
C0 C8 1.427043 1_555
C1 C13 1.424796 1_555
C1 C9 1.427043 1_555
C4 N0 1.194755 1_555
C5 N1 1.194755 1_555
C6 N2 1.194755 1_555
C7 N3 1.194755 1_555
C8 N0 1.329945 1_555
C9 N1 1.329945 1_455
C10 N2 1.329945 1_655
C10 C14 1.344494 1_555
C10 C2 1.427043 1_555
C11 N3 1.329945 1_555
C11 C15 1.344494 1_555
C11 C3 1.427043 1_555
C12 C8 1.344494 1_555
C12 I15 2.033623 1_555
C13 C9 1.344494 1_555
C13 I14 2.033623 1_555
C14 C2 1.424796 1_555
C14 I13 2.033623 1_555
C15 C3 1.424796 1_555
C15 I12 2.033623 1_555
C16 C24 1.387475 1_555
C16 C28 1.405717 1_555
C16 I10 2.059460 1_555
C17 C25 1.387475 1_555
C17 C29 1.405717 1_555
C17 I11 2.059460 1_555
C18 C26 1.387475 1_555
C18 C30 1.405717 1_555
C18 I8 2.059460 1_555
C19 C27 1.387475 1_555
C19 C31 1.405717 1_555
C19 I9 2.059460 1_555
C20 N4 1.389637 1_555
C20 C28 1.426168 1_455
C21 N5 1.389637 1_555
C21 C29 1.426168 1_555
C22 N6 1.389637 1_555
C22 C30 1.426168 1_555
C23 N7 1.389637 1_555
C23 C31 1.426168 1_655
C24 N4 1.348503 1_655
C24 C28 1.738757 1_555
C25 N5 1.348503 1_555
C25 C29 1.738757 1_555
C26 N6 1.348503 1_555
C26 C30 1.738757 1_555
C27 N7 1.348503 1_455
C27 C31 1.738757 1_555
