# generated using pymatgen
data_Ce3Si2Sn3
_symmetry_space_group_name_H-M   'P 1'
_cell_length_a   4.51759968
_cell_length_b   4.51759968
_cell_length_c   23.79649400
_cell_angle_alpha   90.00000000
_cell_angle_beta   90.00000000
_cell_angle_gamma   119.99999538
_symmetry_Int_Tables_number   1
_chemical_formula_structural   Ce3Si2Sn3
_chemical_formula_sum   'Ce6 Si4 Sn6'
_cell_volume   420.59016863
_cell_formula_units_Z   2
loop_
 _symmetry_equiv_pos_site_id
 _symmetry_equiv_pos_as_xyz
  1  'x, y, z'
loop_
 _atom_site_type_symbol
 _atom_site_label
 _atom_site_symmetry_multiplicity
 _atom_site_fract_x
 _atom_site_fract_y
 _atom_site_fract_z
 _atom_site_occupancy
  Ce  Ce0  1  0.33333300  0.66666700  0.25000000  1
  Ce  Ce1  1  0.66666700  0.33333300  0.75000000  1
  Ce  Ce2  1  0.33333300  0.66666700  0.07613700  1
  Ce  Ce3  1  0.66666700  0.33333300  0.92386300  1
  Ce  Ce4  1  0.66666700  0.33333300  0.57613700  1
  Ce  Ce5  1  0.33333300  0.66666700  0.42386300  1
  Si  Si0  1  0.00000000  0.00000000  0.16773200  1
  Si  Si1  1  0.00000000  0.00000000  0.83226800  1
  Si  Si2  1  0.00000000  0.00000000  0.66773200  1
  Si  Si3  1  0.00000000  0.00000000  0.33226800  1
  Sn  Sn0  1  0.00000000  0.00000000  0.00000000  1
  Sn  Sn1  1  0.00000000  0.00000000  0.50000000  1
  Sn  Sn2  1  0.33333300  0.66666700  0.65904900  1
  Sn  Sn3  1  0.66666700  0.33333300  0.34095100  1
  Sn  Sn4  1  0.66666700  0.33333300  0.15904900  1
  Sn  Sn5  1  0.33333300  0.66666700  0.84095100  1
loop_
_geom_bond_atom_site_label_1
_geom_bond_atom_site_label_2
_geom_bond_distance
_geom_bond_site_symmetry_2
Ce0 Si3 3.261202 1_565
Ce0 Si0 3.261202 1_565
Ce0 Si3 3.261205 1_555
Ce0 Si0 3.261205 1_555
Ce0 Si3 3.261205 1_665
Ce0 Si0 3.261205 1_665
Ce0 Sn3 3.389270 1_455
Ce0 Sn4 3.389270 1_455
Ce0 Sn3 3.389270 1_565
Ce0 Sn4 3.389270 1_565
Ce0 Sn3 3.389275 1_555
Ce0 Sn4 3.389275 1_555
Ce1 Si1 3.261202 1_655
Ce1 Si2 3.261202 1_655
Ce1 Si1 3.261205 1_665
Ce1 Si2 3.261205 1_665
Ce1 Si1 3.261205 1_555
Ce1 Si2 3.261205 1_555
Ce1 Sn2 3.389270 1_545
Ce1 Sn5 3.389270 1_545
Ce1 Sn5 3.389270 1_655
Ce1 Sn2 3.389270 1_655
Ce1 Sn5 3.389275 1_555
Ce1 Sn2 3.389275 1_555
Ce2 Sn0 3.175765 1_565
Ce2 Sn0 3.175769 1_665
Ce2 Sn0 3.175769 1_555
Ce2 Sn4 3.270425 1_455
Ce2 Sn4 3.270425 1_565
Ce2 Sn4 3.270431 1_555
Ce2 Si0 3.399076 1_565
Ce2 Si0 3.399079 1_555
Ce2 Si0 3.399079 1_665
Ce3 Sn0 3.175765 1_656
Ce3 Sn0 3.175769 1_666
Ce3 Sn0 3.175769 1_556
Ce3 Sn5 3.270425 1_545
Ce3 Sn5 3.270425 1_655
Ce3 Sn5 3.270431 1_555
Ce3 Si1 3.399076 1_655
Ce3 Si1 3.399079 1_665
Ce3 Si1 3.399079 1_555
Ce4 Sn1 3.175765 1_655
Ce4 Sn1 3.175769 1_665
Ce4 Sn1 3.175769 1_555
Ce4 Sn2 3.270425 1_545
Ce4 Sn2 3.270425 1_655
Ce4 Sn2 3.270431 1_555
Ce4 Si2 3.399076 1_655
Ce4 Si2 3.399079 1_555
Ce4 Si2 3.399079 1_665
Ce5 Sn1 3.175765 1_565
Ce5 Sn1 3.175769 1_555
Ce5 Sn1 3.175769 1_665
Ce5 Sn3 3.270425 1_455
Ce5 Sn3 3.270425 1_565
Ce5 Sn3 3.270431 1_555
Ce5 Si3 3.399076 1_565
Ce5 Si3 3.399079 1_665
Ce5 Si3 3.399079 1_555
Si0 Sn4 2.616406 1_455
Si0 Sn4 2.616410 1_555
Si0 Sn4 2.616410 1_445
Si1 Sn5 2.616406 1_545
Si1 Sn5 2.616410 1_555
Si1 Sn5 2.616410 1_445
Si2 Sn2 2.616406 1_545
Si2 Sn2 2.616410 1_445
Si2 Sn2 2.616410 1_555
Si3 Sn3 2.616406 1_455
Si3 Sn3 2.616410 1_445
Si3 Sn3 2.616410 1_555
