# generated using pymatgen
data_TmBPt2
_symmetry_space_group_name_H-M   'P 1'
_cell_length_a   5.27083586
_cell_length_b   5.27086676
_cell_length_c   7.93096569
_cell_angle_alpha   90.00000000
_cell_angle_beta   90.00000000
_cell_angle_gamma   119.99979736
_symmetry_Int_Tables_number   1
_chemical_formula_structural   TmBPt2
_chemical_formula_sum   'Tm3 B3 Pt6'
_cell_volume   190.81790302
_cell_formula_units_Z   3
loop_
 _symmetry_equiv_pos_site_id
 _symmetry_equiv_pos_as_xyz
  1  'x, y, z'
loop_
 _atom_site_type_symbol
 _atom_site_label
 _atom_site_symmetry_multiplicity
 _atom_site_fract_x
 _atom_site_fract_y
 _atom_site_fract_z
 _atom_site_occupancy
  Tm  Tm0  1  0.50000000  -0.00000000  0.66666700  1
  Tm  Tm1  1  0.50000000  0.50000000  0.00000000  1
  Tm  Tm2  1  -0.00000000  0.50000000  0.33333300  1
  B  B0  1  0.50000000  -0.00000000  0.16666700  1
  B  B1  1  0.50000000  0.50000000  0.50000000  1
  B  B2  1  -0.00000000  0.50000000  0.83333300  1
  Pt  Pt0  1  0.84791380  0.69582761  0.66666700  1
  Pt  Pt1  1  0.84791380  0.15208720  0.99999900  1
  Pt  Pt2  1  0.30417239  0.15208720  0.33333400  1
  Pt  Pt3  1  0.15208620  0.30417239  0.66666700  1
  Pt  Pt4  1  0.15208620  0.84791280  0.99999900  1
  Pt  Pt5  1  0.69582761  0.84791280  0.33333400  1
loop_
_geom_bond_atom_site_label_1
_geom_bond_atom_site_label_2
_geom_bond_distance
_geom_bond_site_symmetry_2
B0 Pt5 2.069457 1_545
B0 Pt2 2.069457 1_555
B0 Pt1 2.069459 1_554
B0 Pt4 2.069459 1_544
B0 Tm2 2.948343 1_655
B0 Tm2 2.948343 1_545
B0 Tm1 2.948346 1_555
B0 Tm1 2.948346 1_545
B1 Pt5 2.069453 1_555
B1 Pt2 2.069453 1_555
B1 Pt3 2.069455 1_555
B1 Pt0 2.069455 1_555
B1 Tm2 2.948332 1_655
B1 Tm2 2.948332 1_555
B1 Tm0 2.948346 1_565
B1 Tm0 2.948346 1_555
B2 Pt3 2.069450 1_555
B2 Pt0 2.069450 1_455
B2 Pt1 2.069453 1_455
B2 Pt4 2.069453 1_555
B2 Tm1 2.948332 1_456
B2 Tm1 2.948332 1_556
B2 Tm0 2.948343 1_455
B2 Tm0 2.948343 1_565
Pt0 Tm0 2.978800 1_565
Pt0 Tm0 2.978800 1_665
Pt0 Tm1 3.086148 1_556
Pt0 Tm2 3.086154 1_655
Pt0 Tm0 3.176254 1_555
Pt1 Tm1 2.978801 1_656
Pt1 Tm1 2.978823 1_546
Pt1 Tm0 3.086140 1_555
Pt1 Tm2 3.086156 1_656
Pt1 Tm1 3.176230 1_556
Pt2 Tm2 2.978797 1_555
Pt2 Tm2 2.978823 1_545
Pt2 Tm0 3.086149 1_555
Pt2 Tm1 3.086157 1_555
Pt2 Tm2 3.176235 1_655
Pt3 Tm0 2.978800 1_555
Pt3 Tm0 2.978800 1_455
Pt3 Tm1 3.086148 1_556
Pt3 Tm2 3.086154 1_555
Pt3 Tm0 3.176254 1_565
Pt4 Tm1 2.978801 1_456
Pt4 Tm1 2.978823 1_566
Pt4 Tm0 3.086140 1_565
Pt4 Tm2 3.086156 1_556
Pt4 Tm1 3.176230 1_556
Pt5 Tm2 2.978797 1_655
Pt5 Tm2 2.978823 1_665
Pt5 Tm0 3.086149 1_565
Pt5 Tm1 3.086157 1_555
Pt5 Tm2 3.176235 1_555
