# generated using pymatgen
data_Ce2Si3Ni
_symmetry_space_group_name_H-M   'P 1'
_cell_length_a   4.07493592
_cell_length_b   4.07493592
_cell_length_c   8.01556800
_cell_angle_alpha   90.00000000
_cell_angle_beta   90.00000000
_cell_angle_gamma   119.99999867
_symmetry_Int_Tables_number   1
_chemical_formula_structural   Ce2Si3Ni
_chemical_formula_sum   'Ce2 Si3 Ni1'
_cell_volume   115.26740266
_cell_formula_units_Z   1
loop_
 _symmetry_equiv_pos_site_id
 _symmetry_equiv_pos_as_xyz
  1  'x, y, z'
loop_
 _atom_site_type_symbol
 _atom_site_label
 _atom_site_symmetry_multiplicity
 _atom_site_fract_x
 _atom_site_fract_y
 _atom_site_fract_z
 _atom_site_occupancy
  Ce  Ce0  1  0.33333300  0.66666700  0.24282200  1
  Ce  Ce1  1  0.33333300  0.66666700  0.75717800  1
  Si  Si0  1  0.66666700  0.33333300  0.50000000  1
  Si  Si1  1  0.00000000  0.00000000  0.00000000  1
  Si  Si2  1  0.00000000  0.00000000  0.50000000  1
  Ni  Ni0  1  0.66666700  0.33333300  0.00000000  1
loop_
_geom_bond_atom_site_label_1
_geom_bond_atom_site_label_2
_geom_bond_distance
_geom_bond_site_symmetry_2
Ce0 Si1 3.053412 1_565
Ce0 Ni0 3.053412 1_455
Ce0 Ni0 3.053412 1_565
Ce0 Si1 3.053415 1_665
Ce0 Si1 3.053415 1_555
Ce0 Ni0 3.053418 1_555
Ce0 Si2 3.128020 1_565
Ce0 Si0 3.128020 1_455
Ce0 Si0 3.128020 1_565
Ce0 Si2 3.128022 1_665
Ce0 Si2 3.128022 1_555
Ce0 Si0 3.128025 1_555
Ce1 Si1 3.053412 1_566
Ce1 Ni0 3.053412 1_456
Ce1 Ni0 3.053412 1_566
Ce1 Si1 3.053415 1_556
Ce1 Si1 3.053415 1_666
Ce1 Ni0 3.053418 1_556
Ce1 Si2 3.128020 1_565
Ce1 Si0 3.128020 1_455
Ce1 Si0 3.128020 1_565
Ce1 Si2 3.128022 1_665
Ce1 Si2 3.128022 1_555
Ce1 Si0 3.128025 1_555
Si0 Si2 2.352663 1_655
Si0 Si2 2.352667 1_555
Si0 Si2 2.352667 1_665
Ni0 Si1 2.352663 1_655
Ni0 Si1 2.352667 1_555
Ni0 Si1 2.352667 1_665
