# generated using pymatgen
data_Li9Mn2Co5O16
_symmetry_space_group_name_H-M   'P 1'
_cell_length_a   2.96634000
_cell_length_b   9.99066900
_cell_length_c   10.03297631
_cell_angle_alpha   78.34720028
_cell_angle_beta   90.00000000
_cell_angle_gamma   90.00000000
_symmetry_Int_Tables_number   1
_chemical_formula_structural   Li9Mn2Co5O16
_chemical_formula_sum   'Li9 Mn2 Co5 O16'
_cell_volume   291.20628540
_cell_formula_units_Z   1
loop_
 _symmetry_equiv_pos_site_id
 _symmetry_equiv_pos_as_xyz
  1  'x, y, z'
loop_
 _atom_site_type_symbol
 _atom_site_label
 _atom_site_symmetry_multiplicity
 _atom_site_fract_x
 _atom_site_fract_y
 _atom_site_fract_z
 _atom_site_occupancy
  Li  Li0  1  0.50000000  0.27465700  0.86798500  1
  Li  Li1  1  0.50000000  0.72915200  0.62951800  1
  Li  Li2  1  0.50000000  0.25804100  0.36422600  1
  Li  Li3  1  0.00000000  0.26128300  0.61439000  1
  Li  Li4  1  0.00000000  0.74266500  0.38010300  1
  Li  Li5  1  0.00000000  0.26625900  0.12731300  1
  Li  Li6  1  0.50000000  0.74081700  0.13471500  1
  Li  Li7  1  0.00000000  0.73179800  0.87749800  1
  Li  Li8  1  0.00000000  0.49852000  0.75041500  1
  Mn  Mn0  1  0.00000000  0.99655600  0.00522000  1
  Mn  Mn1  1  0.50000000  0.99712300  0.74689500  1
  Co  Co0  1  0.00000000  0.00331900  0.49099100  1
  Co  Co1  1  0.00000000  0.50258800  0.25059400  1
  Co  Co2  1  0.50000000  0.50371200  0.51408000  1
  Co  Co3  1  0.50000000  0.00252500  0.26214400  1
  Co  Co4  1  0.50000000  0.49572100  0.98866300  1
  O  O0  1  0.50000000  0.10363500  0.05256600  1
  O  O1  1  0.50000000  0.62138700  0.83184500  1
  O  O2  1  0.50000000  0.10992300  0.57242700  1
  O  O3  1  0.00000000  0.09983400  0.81304100  1
  O  O4  1  0.00000000  0.61960100  0.56075600  1
  O  O5  1  0.00000000  0.12651800  0.29892500  1
  O  O6  1  0.50000000  0.61344800  0.31739300  1
  O  O7  1  0.00000000  0.61359400  0.08020800  1
  O  O8  1  0.50000000  0.37578400  0.66962600  1
  O  O9  1  0.50000000  0.88373200  0.43138500  1
  O  O10  1  0.50000000  0.39132800  0.18194600  1
  O  O11  1  0.00000000  0.38993800  0.41888200  1
  O  O12  1  0.00000000  0.88949500  0.18080300  1
  O  O13  1  0.00000000  0.37743000  0.94267900  1
  O  O14  1  0.50000000  0.89173900  0.94180500  1
  O  O15  1  0.00000000  0.88788000  0.70096300  1
loop_
_geom_bond_atom_site_label_1
_geom_bond_atom_site_label_2
_geom_bond_distance
_geom_bond_site_symmetry_2
Li0 O13 2.031377 1_555
Li0 O13 2.031377 1_655
Li0 O8 2.041848 1_555
Li0 O0 2.251823 1_556
Li0 O3 2.437872 1_555
Li0 O3 2.437872 1_655
Li1 O4 2.044178 1_555
Li1 O4 2.044178 1_655
Li1 O1 2.096893 1_555
Li1 O9 2.257541 1_555
Li1 O15 2.384858 1_655
Li1 O15 2.384858 1_555
Li2 O10 2.033228 1_555
Li2 O11 2.128105 1_555
Li2 O11 2.128105 1_655
Li2 O5 2.168732 1_655
Li2 O5 2.168732 1_555
Li2 O2 2.303153 1_555
Li3 O8 2.017822 1_555
Li3 O8 2.017822 1_455
Li3 O11 2.116891 1_555
Li3 O2 2.218319 1_555
Li3 O2 2.218319 1_455
Li3 O3 2.296816 1_555
Li4 O4 1.973970 1_555
Li4 O6 2.142509 1_455
Li4 O6 2.142509 1_555
Li4 O9 2.178007 1_455
Li4 O9 2.178007 1_555
Li4 O12 2.228286 1_555
Li5 O13 1.958050 1_554
Li5 O5 1.985598 1_555
Li5 O10 2.082840 1_555
Li5 O10 2.082840 1_455
Li5 O0 2.427781 1_455
Li5 O0 2.427781 1_555
Li6 O6 2.009053 1_555
Li6 O7 2.096473 1_555
Li6 O7 2.096473 1_655
Li6 O14 2.200142 1_554
Li6 O12 2.213020 1_655
Li6 O12 2.213020 1_555
Li7 O1 1.957160 1_455
Li7 O1 1.957160 1_555
Li7 O15 2.110204 1_555
Li7 O7 2.135573 1_556
Li7 O14 2.363445 1_455
Li7 O14 2.363445 1_555
Li8 O4 2.038208 1_555
Li8 O13 2.059567 1_555
Li8 O8 2.182177 1_555
Li8 O8 2.182177 1_455
Li8 O1 2.186136 1_555
Li8 O1 2.186136 1_455
Mn0 O12 1.867140 1_555
Mn0 O0 1.942981 1_565
Mn0 O0 1.942981 1_465
Mn0 O14 1.992574 1_454
Mn0 O14 1.992574 1_554
Mn0 O3 1.994655 1_564
Mn1 O2 1.880733 1_565
Mn1 O15 1.951029 1_555
Mn1 O15 1.951029 1_655
Mn1 O3 1.992058 1_565
Mn1 O3 1.992058 1_665
Mn1 O14 2.025064 1_555
Co0 O5 2.066434 1_555
Co0 O9 2.067243 1_445
Co0 O9 2.067243 1_545
Co0 O2 2.086433 1_555
Co0 O2 2.086433 1_455
Co0 O15 2.187832 1_545
Co1 O11 1.830248 1_555
Co1 O7 1.840218 1_555
Co1 O6 2.043406 1_455
Co1 O6 2.043406 1_555
Co1 O10 2.054019 1_455
Co1 O10 2.054019 1_555
Co2 O8 1.806437 1_555
Co2 O4 1.994654 1_555
Co2 O4 1.994654 1_655
Co2 O6 2.054783 1_555
Co2 O11 2.200602 1_555
Co2 O11 2.200602 1_655
Co3 O9 1.864846 1_545
Co3 O5 2.013751 1_655
Co3 O5 2.013751 1_555
Co3 O12 2.124446 1_645
Co3 O12 2.124446 1_545
Co3 O0 2.140956 1_555
Co4 O1 1.803810 1_555
Co4 O13 2.007377 1_555
Co4 O13 2.007377 1_655
Co4 O10 2.007799 1_556
Co4 O7 2.206155 1_556
Co4 O7 2.206155 1_656
