# generated using pymatgen
data_Mg6FeBi
_symmetry_space_group_name_H-M   'P 1'
_cell_length_a   4.91105200
_cell_length_b   6.39812300
_cell_length_c   10.84451300
_cell_angle_alpha   90.00000000
_cell_angle_beta   90.00000000
_cell_angle_gamma   90.00000000
_symmetry_Int_Tables_number   1
_chemical_formula_structural   Mg6FeBi
_chemical_formula_sum   'Mg12 Fe2 Bi2'
_cell_volume   340.75102524
_cell_formula_units_Z   2
loop_
 _symmetry_equiv_pos_site_id
 _symmetry_equiv_pos_as_xyz
  1  'x, y, z'
loop_
 _atom_site_type_symbol
 _atom_site_label
 _atom_site_symmetry_multiplicity
 _atom_site_fract_x
 _atom_site_fract_y
 _atom_site_fract_z
 _atom_site_occupancy
  Mg  Mg0  1  0.50000000  0.24670000  0.58439700  1
  Mg  Mg1  1  0.50000000  0.75330000  0.58439700  1
  Mg  Mg2  1  0.00000000  0.27496400  0.41357800  1
  Mg  Mg3  1  0.00000000  0.72503600  0.41357800  1
  Mg  Mg4  1  0.00000000  0.00000000  0.67662900  1
  Mg  Mg5  1  0.00000000  0.00000000  0.15942900  1
  Mg  Mg6  1  0.50000000  0.74670000  0.08439700  1
  Mg  Mg7  1  0.50000000  0.25330000  0.08439700  1
  Mg  Mg8  1  0.00000000  0.77496400  0.91357800  1
  Mg  Mg9  1  0.00000000  0.22503600  0.91357800  1
  Mg  Mg10  1  0.00000000  0.50000000  0.17662900  1
  Mg  Mg11  1  0.00000000  0.50000000  0.65942900  1
  Fe  Fe0  1  0.50000000  0.00000000  0.83507000  1
  Fe  Fe1  1  0.50000000  0.50000000  0.33507000  1
  Bi  Bi0  1  0.50000000  0.00000000  0.33292500  1
  Bi  Bi1  1  0.50000000  0.50000000  0.83292500  1
loop_
_geom_bond_atom_site_label_1
_geom_bond_atom_site_label_2
_geom_bond_distance
_geom_bond_site_symmetry_2
Mg0 Mg11 3.052570 1_655
Mg0 Mg11 3.052570 1_555
Mg0 Mg2 3.081213 1_555
Mg0 Mg2 3.081213 1_655
Mg0 Mg4 3.085681 1_555
Mg0 Mg4 3.085681 1_655
Mg0 Mg1 3.156834 1_545
Mg0 Mg1 3.241289 1_555
Mg1 Mg11 3.052570 1_555
Mg1 Mg11 3.052570 1_655
Mg1 Mg3 3.081213 1_655
Mg1 Mg3 3.081213 1_555
Mg1 Mg4 3.085681 1_565
Mg1 Mg4 3.085681 1_665
Mg5 Mg6 3.052570 1_545
Mg5 Mg6 3.052570 1_445
Mg5 Mg7 3.052570 1_455
Mg5 Mg7 3.052570 1_555
Mg6 Mg8 3.081213 1_654
Mg6 Mg8 3.081213 1_554
Mg6 Mg7 3.156834 1_555
Mg6 Mg7 3.241289 1_565
Mg7 Mg9 3.081213 1_554
Mg7 Mg9 3.081213 1_654
Mg10 Mg7 3.085681 1_455
Mg10 Mg7 3.085681 1_555
Mg10 Mg6 3.085681 1_455
Mg10 Mg6 3.085681 1_555
Fe0 Mg9 2.971112 1_655
Fe0 Mg9 2.971112 1_555
Fe0 Mg8 2.971112 1_645
Fe0 Mg8 2.971112 1_545
Fe0 Mg4 2.996977 1_655
Fe0 Mg4 2.996977 1_555
Fe0 Mg1 3.143444 1_545
Fe0 Mg0 3.143444 1_555
Fe0 Mg7 3.152330 1_556
Fe0 Mg6 3.152330 1_546
Fe1 Mg2 2.971112 1_655
Fe1 Mg3 2.971112 1_555
Fe1 Mg3 2.971112 1_655
Fe1 Mg2 2.971112 1_555
Fe1 Mg10 2.996977 1_555
Fe1 Mg10 2.996977 1_655
Fe1 Mg7 3.143444 1_555
Fe1 Mg6 3.143444 1_555
Fe1 Mg0 3.152330 1_555
Fe1 Mg1 3.152330 1_555
Bi0 Mg5 3.093473 1_655
Bi0 Mg5 3.093473 1_555
Bi0 Mg3 3.144770 1_545
Bi0 Mg2 3.144770 1_555
Bi0 Mg3 3.144770 1_645
Bi0 Mg2 3.144770 1_655
Bi0 Mg6 3.144901 1_545
Bi0 Mg7 3.144901 1_555
Bi0 Mg1 3.150941 1_545
Bi0 Mg0 3.150941 1_555
Bi0 Fe1 3.199146 1_545
Bi0 Fe1 3.199146 1_555
Bi1 Mg11 3.093473 1_555
Bi1 Mg11 3.093473 1_655
Bi1 Mg8 3.144770 1_655
Bi1 Mg8 3.144770 1_555
Bi1 Mg9 3.144770 1_555
Bi1 Mg9 3.144770 1_655
Bi1 Mg0 3.144901 1_555
Bi1 Mg1 3.144901 1_555
Bi1 Mg6 3.150941 1_556
Bi1 Mg7 3.150941 1_556
Bi1 Fe0 3.199146 1_555
Bi1 Fe0 3.199146 1_565
