# generated using pymatgen
data_Mg6CuSnO8
_symmetry_space_group_name_H-M   'P 1'
_cell_length_a   8.89410924
_cell_length_b   4.35075309
_cell_length_c   4.35075309
_cell_angle_alpha   90.00000000
_cell_angle_beta   90.00000000
_cell_angle_gamma   90.00000000
_symmetry_Int_Tables_number   1
_chemical_formula_structural   Mg6CuSnO8
_chemical_formula_sum   'Mg6 Cu1 Sn1 O8'
_cell_volume   168.35706030
_cell_formula_units_Z   1
loop_
 _symmetry_equiv_pos_site_id
 _symmetry_equiv_pos_as_xyz
  1  'x, y, z'
loop_
 _atom_site_type_symbol
 _atom_site_label
 _atom_site_symmetry_multiplicity
 _atom_site_fract_x
 _atom_site_fract_y
 _atom_site_fract_z
 _atom_site_occupancy
  Mg  Mg0  1  0.50000000  0.00000000  0.00000000  1
  Mg  Mg1  1  0.50000000  0.50000000  0.50000000  1
  Mg  Mg2  1  0.26126372  -0.00000000  0.50000000  1
  Mg  Mg3  1  0.73873628  0.00000000  0.50000000  1
  Mg  Mg4  1  0.26126372  0.50000000  0.00000000  1
  Mg  Mg5  1  0.73873628  0.50000000  -0.00000000  1
  Cu  Cu0  1  -0.00000000  0.00000000  0.00000000  1
  Sn  Sn0  1  -0.00000000  0.50000000  0.50000000  1
  O  O0  1  0.26824780  -0.00000000  -0.00000000  1
  O  O1  1  0.73175220  0.00000000  0.00000000  1
  O  O2  1  0.26229680  0.50000000  0.50000000  1
  O  O3  1  0.73770320  0.50000000  0.50000000  1
  O  O4  1  -0.00000000  0.00000000  0.50000000  1
  O  O5  1  0.50000000  0.00000000  0.50000000  1
  O  O6  1  -0.00000000  0.50000000  0.00000000  1
  O  O7  1  0.50000000  0.50000000  0.00000000  1
loop_
_geom_bond_atom_site_label_1
_geom_bond_atom_site_label_2
_geom_bond_distance
_geom_bond_site_symmetry_2
Mg0 O1 2.061229 1_555
Mg0 O0 2.061229 1_555
Mg0 O5 2.175377 1_554
Mg0 O5 2.175377 1_555
Mg0 O7 2.175377 1_545
Mg0 O7 2.175377 1_555
Mg1 O2 2.114158 1_555
Mg1 O3 2.114158 1_555
Mg1 O5 2.175377 1_555
Mg1 O5 2.175377 1_565
Mg1 O7 2.175377 1_555
Mg1 O7 2.175377 1_556
Mg2 O5 2.123347 1_555
Mg2 O2 2.175396 1_555
Mg2 O2 2.175396 1_545
Mg2 O0 2.176263 1_555
Mg2 O0 2.176263 1_556
Mg2 O4 2.323708 1_555
Mg3 O5 2.123347 1_555
Mg3 O3 2.175396 1_545
Mg3 O3 2.175396 1_555
Mg3 O1 2.176263 1_555
Mg3 O1 2.176263 1_556
Mg3 O4 2.323708 1_655
Mg4 O7 2.123347 1_555
Mg4 O2 2.175396 1_554
Mg4 O2 2.175396 1_555
Mg4 O0 2.176263 1_555
Mg4 O0 2.176263 1_565
Mg4 O6 2.323708 1_555
Mg5 O7 2.123347 1_555
Mg5 O3 2.175396 1_555
Mg5 O3 2.175396 1_554
Mg5 O1 2.176263 1_565
Mg5 O1 2.176263 1_555
Mg5 O6 2.323708 1_655
Cu0 O6 2.175377 1_545
Cu0 O6 2.175377 1_555
Cu0 O4 2.175377 1_555
Cu0 O4 2.175377 1_554
Cu0 O0 2.385825 1_555
Cu0 O1 2.385825 1_455
O2 Sn0 2.332896 1_555
O3 Sn0 2.332896 1_655
O4 Sn0 2.175377 1_545
O4 Sn0 2.175377 1_555
O6 Sn0 2.175377 1_555
O6 Sn0 2.175377 1_554
