# generated using pymatgen
data_Mo5As4
_symmetry_space_group_name_H-M   'P 1'
_cell_length_a   3.29365390
_cell_length_b   7.00404072
_cell_length_c   7.00403999
_cell_angle_alpha   86.83084973
_cell_angle_beta   76.40101266
_cell_angle_gamma   76.40100348
_symmetry_Int_Tables_number   1
_chemical_formula_structural   Mo5As4
_chemical_formula_sum   'Mo5 As4'
_cell_volume   152.64290299
_cell_formula_units_Z   1
loop_
 _symmetry_equiv_pos_site_id
 _symmetry_equiv_pos_as_xyz
  1  'x, y, z'
loop_
 _atom_site_type_symbol
 _atom_site_label
 _atom_site_symmetry_multiplicity
 _atom_site_fract_x
 _atom_site_fract_y
 _atom_site_fract_z
 _atom_site_occupancy
  Mo  Mo0  1  0.70148672  0.91907285  0.67795472  1
  Mo  Mo1  1  0.37944043  0.32204528  0.91907285  1
  Mo  Mo2  1  0.62055957  0.67795472  0.08092715  1
  Mo  Mo3  1  0.29851328  0.08092715  0.32204528  1
  Mo  Mo4  1  0.00000000  -0.00000000  0.00000000  1
  As  As0  1  0.94255412  0.77275579  0.34213498  1
  As  As1  1  0.28469009  0.65786502  0.77275579  1
  As  As2  1  0.71530991  0.34213498  0.22724421  1
  As  As3  1  0.05744588  0.22724421  0.65786502  1
loop_
_geom_bond_atom_site_label_1
_geom_bond_atom_site_label_2
_geom_bond_distance
_geom_bond_site_symmetry_2
Mo0 Mo4 2.796800 1_666
Mo0 Mo4 2.796803 1_566
Mo1 Mo4 2.796800 1_556
Mo1 Mo4 2.796803 1_656
Mo2 Mo4 2.796800 1_665
Mo2 Mo4 2.796803 1_565
Mo3 Mo4 2.796800 1_555
Mo3 Mo4 2.796803 1_655
As0 Mo0 2.493728 1_555
As0 Mo2 2.508107 1_555
As0 Mo2 2.508113 1_655
As0 Mo3 2.670593 1_665
As0 Mo3 2.670593 1_565
As0 Mo4 2.796096 1_665
As1 Mo1 2.493728 1_555
As1 Mo0 2.508110 1_555
As1 Mo0 2.508110 1_455
As1 Mo2 2.670592 1_556
As1 Mo2 2.670593 1_456
As1 Mo4 2.796096 1_566
As2 Mo2 2.493728 1_555
As2 Mo3 2.508110 1_555
As2 Mo3 2.508110 1_655
As2 Mo1 2.670592 1_554
As2 Mo1 2.670593 1_654
As2 Mo4 2.796096 1_655
As3 Mo3 2.493728 1_555
As3 Mo1 2.508107 1_555
As3 Mo1 2.508113 1_455
As3 Mo0 2.670593 1_445
As3 Mo0 2.670593 1_545
As3 Mo4 2.796096 1_556
