# generated using pymatgen
data_Mg30CuNiO32
_symmetry_space_group_name_H-M   'P 1'
_cell_length_a   8.50967100
_cell_length_b   8.50912200
_cell_length_c   8.50912200
_cell_angle_alpha   90.00000000
_cell_angle_beta   90.00000000
_cell_angle_gamma   90.00000000
_symmetry_Int_Tables_number   1
_chemical_formula_structural   Mg30CuNiO32
_chemical_formula_sum   'Mg30 Cu1 Ni1 O32'
_cell_volume   616.14406657
_cell_formula_units_Z   1
loop_
 _symmetry_equiv_pos_site_id
 _symmetry_equiv_pos_as_xyz
  1  'x, y, z'
loop_
 _atom_site_type_symbol
 _atom_site_label
 _atom_site_symmetry_multiplicity
 _atom_site_fract_x
 _atom_site_fract_y
 _atom_site_fract_z
 _atom_site_occupancy
  Mg  Mg0  1  0.00000000  0.00000000  0.50000000  1
  Mg  Mg1  1  0.00000000  0.50000000  0.00000000  1
  Mg  Mg2  1  0.50000000  0.00000000  0.00000000  1
  Mg  Mg3  1  0.50000000  0.00000000  0.50000000  1
  Mg  Mg4  1  0.50000000  0.50000000  0.00000000  1
  Mg  Mg5  1  0.50000000  0.50000000  0.50000000  1
  Mg  Mg6  1  0.00000000  0.24983800  0.24983800  1
  Mg  Mg7  1  0.00000000  0.24983800  0.75016200  1
  Mg  Mg8  1  0.00000000  0.75016200  0.24983800  1
  Mg  Mg9  1  0.00000000  0.75016200  0.75016200  1
  Mg  Mg10  1  0.50000000  0.24998200  0.24998200  1
  Mg  Mg11  1  0.50000000  0.24998200  0.75001800  1
  Mg  Mg12  1  0.50000000  0.75001800  0.24998200  1
  Mg  Mg13  1  0.50000000  0.75001800  0.75001800  1
  Mg  Mg14  1  0.24949100  0.00000000  0.24950800  1
  Mg  Mg15  1  0.24949100  0.00000000  0.75049200  1
  Mg  Mg16  1  0.24963700  0.50000000  0.25031400  1
  Mg  Mg17  1  0.24963700  0.50000000  0.74968600  1
  Mg  Mg18  1  0.75050900  0.00000000  0.24950800  1
  Mg  Mg19  1  0.75050900  0.00000000  0.75049200  1
  Mg  Mg20  1  0.75036300  0.50000000  0.25031400  1
  Mg  Mg21  1  0.75036300  0.50000000  0.74968600  1
  Mg  Mg22  1  0.24949100  0.24950800  0.00000000  1
  Mg  Mg23  1  0.24963700  0.25031400  0.50000000  1
  Mg  Mg24  1  0.24949100  0.75049200  0.00000000  1
  Mg  Mg25  1  0.24963700  0.74968600  0.50000000  1
  Mg  Mg26  1  0.75050900  0.24950800  0.00000000  1
  Mg  Mg27  1  0.75036300  0.25031400  0.50000000  1
  Mg  Mg28  1  0.75050900  0.75049200  0.00000000  1
  Mg  Mg29  1  0.75036300  0.74968600  0.50000000  1
  Cu  Cu0  1  0.00000000  0.00000000  0.00000000  1
  Ni  Ni0  1  0.00000000  0.50000000  0.50000000  1
  O  O0  1  0.25333900  0.00000000  0.00000000  1
  O  O1  1  0.24994400  0.00000000  0.50000000  1
  O  O2  1  0.24994400  0.50000000  0.00000000  1
  O  O3  1  0.25130400  0.50000000  0.50000000  1
  O  O4  1  0.74666100  0.00000000  0.00000000  1
  O  O5  1  0.75005600  0.00000000  0.50000000  1
  O  O6  1  0.75005600  0.50000000  0.00000000  1
  O  O7  1  0.74869600  0.50000000  0.50000000  1
  O  O8  1  0.24983400  0.25000600  0.25000600  1
  O  O9  1  0.24983400  0.25000600  0.74999400  1
  O  O10  1  0.24983400  0.74999400  0.25000600  1
  O  O11  1  0.24983400  0.74999400  0.74999400  1
  O  O12  1  0.75016600  0.25000600  0.25000600  1
  O  O13  1  0.75016600  0.25000600  0.74999400  1
  O  O14  1  0.75016600  0.74999400  0.25000600  1
  O  O15  1  0.75016600  0.74999400  0.74999400  1
  O  O16  1  0.00000000  0.00000000  0.25341500  1
  O  O17  1  0.00000000  0.00000000  0.74658500  1
  O  O18  1  0.00000000  0.50000000  0.24876600  1
  O  O19  1  0.00000000  0.50000000  0.75123400  1
  O  O20  1  0.50000000  0.00000000  0.25000400  1
  O  O21  1  0.50000000  0.00000000  0.74999600  1
  O  O22  1  0.50000000  0.50000000  0.25009400  1
  O  O23  1  0.50000000  0.50000000  0.74990600  1
  O  O24  1  0.00000000  0.25341500  0.00000000  1
  O  O25  1  0.00000000  0.24876600  0.50000000  1
  O  O26  1  0.00000000  0.74658500  0.00000000  1
  O  O27  1  0.00000000  0.75123400  0.50000000  1
  O  O28  1  0.50000000  0.25000400  0.00000000  1
  O  O29  1  0.50000000  0.25009400  0.50000000  1
  O  O30  1  0.50000000  0.74999600  0.00000000  1
  O  O31  1  0.50000000  0.74990600  0.50000000  1
loop_
_geom_bond_atom_site_label_1
_geom_bond_atom_site_label_2
_geom_bond_distance
_geom_bond_site_symmetry_2
Mg0 O16 2.098222 1_555
Mg0 O17 2.098222 1_555
Mg0 O25 2.116780 1_555
Mg0 O27 2.116780 1_545
Mg0 O1 2.126941 1_555
Mg0 O5 2.126941 1_455
Mg1 O24 2.098222 1_555
Mg1 O26 2.098222 1_555
Mg1 O18 2.116780 1_555
Mg1 O19 2.116780 1_554
Mg1 O2 2.126941 1_555
Mg1 O6 2.126941 1_455
Mg2 O0 2.099004 1_555
Mg2 O4 2.099004 1_555
Mg2 O28 2.127315 1_555
Mg2 O30 2.127315 1_545
Mg2 O20 2.127315 1_555
Mg2 O21 2.127315 1_554
Mg3 O21 2.127246 1_555
Mg3 O20 2.127246 1_555
Mg3 O5 2.127894 1_555
Mg3 O1 2.127894 1_555
Mg3 O29 2.128080 1_555
Mg3 O31 2.128080 1_545
Mg4 O30 2.127246 1_555
Mg4 O28 2.127246 1_555
Mg4 O6 2.127894 1_555
Mg4 O2 2.127894 1_555
Mg4 O22 2.128080 1_555
Mg4 O23 2.128080 1_554
Mg5 O3 2.116321 1_555
Mg5 O7 2.116321 1_555
Mg5 O23 2.126481 1_555
Mg5 O31 2.126481 1_555
Mg5 O22 2.126481 1_555
Mg5 O29 2.126481 1_555
Mg6 O12 2.126006 1_455
Mg6 O8 2.126006 1_555
Mg6 O24 2.126120 1_555
Mg6 O16 2.126120 1_555
Mg6 O25 2.128679 1_555
Mg6 O18 2.128679 1_555
Mg7 O13 2.126006 1_455
Mg7 O9 2.126006 1_555
Mg7 O17 2.126120 1_555
Mg7 O24 2.126120 1_556
Mg7 O19 2.128679 1_555
Mg7 O25 2.128679 1_555
Mg8 O10 2.126006 1_555
Mg8 O14 2.126006 1_455
Mg8 O26 2.126120 1_555
Mg8 O16 2.126120 1_565
Mg8 O27 2.128679 1_555
Mg8 O18 2.128679 1_555
Mg9 O11 2.126006 1_555
Mg9 O15 2.126006 1_455
Mg9 O26 2.126120 1_556
Mg9 O17 2.126120 1_565
Mg9 O19 2.128679 1_555
Mg9 O27 2.128679 1_555
Mg10 O20 2.127127 1_555
Mg10 O28 2.127127 1_555
Mg10 O22 2.127434 1_555
Mg10 O29 2.127434 1_555
Mg10 O12 2.128830 1_555
Mg10 O8 2.128830 1_555
Mg11 O21 2.127127 1_555
Mg11 O28 2.127127 1_556
Mg11 O23 2.127434 1_555
Mg11 O29 2.127434 1_555
Mg11 O13 2.128830 1_555
Mg11 O9 2.128830 1_555
Mg12 O30 2.127127 1_555
Mg12 O20 2.127127 1_565
Mg12 O31 2.127434 1_555
Mg12 O22 2.127434 1_555
Mg12 O10 2.128830 1_555
Mg12 O14 2.128830 1_555
Mg13 O21 2.127127 1_565
Mg13 O30 2.127127 1_556
Mg13 O31 2.127434 1_555
Mg13 O23 2.127434 1_555
Mg13 O11 2.128830 1_555
Mg13 O15 2.128830 1_555
Mg14 O0 2.123347 1_555
Mg14 O16 2.123347 1_555
Mg14 O10 2.127338 1_545
Mg14 O8 2.127338 1_555
Mg14 O1 2.131470 1_555
Mg14 O20 2.131753 1_555
Mg15 O0 2.123347 1_556
Mg15 O17 2.123347 1_555
Mg15 O11 2.127338 1_545
Mg15 O9 2.127338 1_555
Mg15 O1 2.131470 1_555
Mg15 O21 2.131753 1_555
Mg16 O18 2.124370 1_555
Mg16 O3 2.124656 1_555
Mg16 O8 2.127232 1_555
Mg16 O10 2.127232 1_555
Mg16 O2 2.129954 1_555
Mg16 O22 2.130508 1_555
Mg17 O19 2.124370 1_555
Mg17 O3 2.124656 1_555
Mg17 O9 2.127232 1_555
Mg17 O11 2.127232 1_555
Mg17 O2 2.129954 1_556
Mg17 O23 2.130508 1_555
Mg18 O4 2.123347 1_555
Mg18 O16 2.123347 1_655
Mg18 O14 2.127338 1_545
Mg18 O12 2.127338 1_555
Mg18 O5 2.131470 1_555
Mg18 O20 2.131753 1_555
Mg19 O4 2.123347 1_556
Mg19 O17 2.123347 1_655
Mg19 O15 2.127338 1_545
Mg19 O13 2.127338 1_555
Mg19 O5 2.131470 1_555
Mg19 O21 2.131753 1_555
Mg20 O18 2.124370 1_655
Mg20 O7 2.124656 1_555
Mg20 O12 2.127232 1_555
Mg20 O14 2.127232 1_555
Mg20 O6 2.129954 1_555
Mg20 O22 2.130508 1_555
Mg21 O19 2.124370 1_655
Mg21 O7 2.124656 1_555
Mg21 O13 2.127232 1_555
Mg21 O15 2.127232 1_555
Mg21 O6 2.129954 1_556
Mg21 O23 2.130508 1_555
Mg22 O0 2.123347 1_555
Mg22 O24 2.123347 1_555
Mg22 O9 2.127338 1_554
Mg22 O8 2.127338 1_555
Mg22 O2 2.131470 1_555
Mg22 O28 2.131753 1_555
Mg23 O25 2.124370 1_555
Mg23 O3 2.124656 1_555
Mg23 O8 2.127232 1_555
Mg23 O9 2.127232 1_555
Mg23 O1 2.129954 1_555
Mg23 O29 2.130508 1_555
Mg24 O0 2.123347 1_565
Mg24 O26 2.123347 1_555
Mg24 O11 2.127338 1_554
Mg24 O10 2.127338 1_555
Mg24 O2 2.131470 1_555
Mg24 O30 2.131753 1_555
Mg25 O27 2.124370 1_555
Mg25 O3 2.124656 1_555
Mg25 O10 2.127232 1_555
Mg25 O11 2.127232 1_555
Mg25 O1 2.129954 1_565
Mg25 O31 2.130508 1_555
Mg26 O4 2.123347 1_555
Mg26 O24 2.123347 1_655
Mg26 O13 2.127338 1_554
Mg26 O12 2.127338 1_555
Mg26 O6 2.131470 1_555
Mg26 O28 2.131753 1_555
Mg27 O25 2.124370 1_655
Mg27 O7 2.124656 1_555
Mg27 O12 2.127232 1_555
Mg27 O13 2.127232 1_555
Mg27 O5 2.129954 1_555
Mg27 O29 2.130508 1_555
Mg28 O4 2.123347 1_565
Mg28 O26 2.123347 1_655
Mg28 O15 2.127338 1_554
Mg28 O14 2.127338 1_555
Mg28 O6 2.131470 1_555
Mg28 O30 2.131753 1_555
Mg29 O27 2.124370 1_655
Mg29 O7 2.124656 1_555
Mg29 O14 2.127232 1_555
Mg29 O15 2.127232 1_555
Mg29 O5 2.129954 1_565
Mg29 O31 2.130508 1_555
Cu0 O4 2.155832 1_455
Cu0 O0 2.155832 1_555
Cu0 O26 2.156339 1_545
Cu0 O17 2.156339 1_554
Cu0 O24 2.156339 1_555
Cu0 O16 2.156339 1_555
Ni0 O27 2.137781 1_555
Ni0 O19 2.137781 1_555
Ni0 O18 2.137781 1_555
Ni0 O25 2.137781 1_555
Ni0 O7 2.138514 1_455
Ni0 O3 2.138514 1_555
