# generated using pymatgen
data_Ce2Mn7Al10
_symmetry_space_group_name_H-M   'P 1'
_cell_length_a   6.69652776
_cell_length_b   6.69974798
_cell_length_c   6.69652756
_cell_angle_alpha   82.94346600
_cell_angle_beta   83.47594997
_cell_angle_gamma   82.94346362
_symmetry_Int_Tables_number   1
_chemical_formula_structural   Ce2Mn7Al10
_chemical_formula_sum   'Ce2 Mn7 Al10'
_cell_volume   294.42147043
_cell_formula_units_Z   1
loop_
 _symmetry_equiv_pos_site_id
 _symmetry_equiv_pos_as_xyz
  1  'x, y, z'
loop_
 _atom_site_type_symbol
 _atom_site_label
 _atom_site_symmetry_multiplicity
 _atom_site_fract_x
 _atom_site_fract_y
 _atom_site_fract_z
 _atom_site_occupancy
  Ce  Ce0  1  0.65547700  0.65835200  0.65547700  1
  Ce  Ce1  1  0.35084800  0.35908200  0.35084800  1
  Mn  Mn0  1  0.99447900  0.99624000  0.50763200  1
  Mn  Mn1  1  0.99636500  0.50464500  0.99636500  1
  Mn  Mn2  1  0.50763200  0.99624000  0.99447900  1
  Mn  Mn3  1  0.34041600  0.84085600  0.34041600  1
  Mn  Mn4  1  0.14245600  0.66087900  0.66202800  1
  Mn  Mn5  1  0.66202800  0.66087900  0.14245600  1
  Mn  Mn6  1  0.65979900  0.14491600  0.65979900  1
  Al  Al0  1  0.89086300  0.89178100  0.89086300  1
  Al  Al1  1  0.11748400  0.10650800  0.11748400  1
  Al  Al2  1  0.30161100  0.70533200  0.00072000  1
  Al  Al3  1  0.68571400  0.99000500  0.30836900  1
  Al  Al4  1  0.99537000  0.29957900  0.70182400  1
  Al  Al5  1  0.30836900  0.99000500  0.68571400  1
  Al  Al6  1  0.00072000  0.70533200  0.30161100  1
  Al  Al7  1  0.70182400  0.29957900  0.99537000  1
  Al  Al8  1  0.84358500  0.34489300  0.34495900  1
  Al  Al9  1  0.34495900  0.34489300  0.84358500  1
loop_
_geom_bond_atom_site_label_1
_geom_bond_atom_site_label_2
_geom_bond_distance
_geom_bond_site_symmetry_2
Ce0 Mn3 3.184581 1_555
Ce0 Mn6 3.267245 1_565
Ce0 Mn5 3.268491 1_556
Ce0 Mn4 3.268491 1_655
Ce0 Mn2 3.385203 1_555
Ce0 Mn0 3.385203 1_555
Ce0 Mn1 3.392862 1_555
Ce0 Mn5 3.428737 1_555
Ce0 Mn4 3.428737 1_555
Ce0 Mn6 3.433045 1_555
Ce0 Ce1 3.911335 1_555
Ce1 Mn4 3.171630 1_555
Ce1 Mn5 3.171630 1_555
Ce1 Mn6 3.183305 1_555
Ce1 Mn3 3.212247 1_555
Ce1 Mn3 3.490663 1_545
Ce1 Mn1 3.516232 1_454
Ce1 Mn2 3.596639 1_544
Ce1 Mn0 3.596639 1_445
Mn0 Mn4 2.492832 1_655
Mn0 Mn6 2.497080 1_565
Mn0 Mn3 2.609323 1_655
Mn1 Mn5 2.498689 1_556
Mn1 Mn4 2.498689 1_655
Mn2 Mn5 2.492832 1_556
Mn2 Mn6 2.497080 1_565
Mn2 Mn3 2.609323 1_556
Mn3 Mn5 2.637338 1_555
Mn3 Mn4 2.637338 1_555
Al0 Mn0 2.613544 1_555
Al0 Mn2 2.613544 1_555
Al0 Mn6 2.630439 1_565
Al0 Mn4 2.633505 1_655
Al0 Mn5 2.633505 1_556
Al0 Mn1 2.634121 1_555
Al0 Al1 2.876080 1_666
Al0 Al7 2.995928 1_565
Al0 Al4 2.995928 1_565
Al0 Al6 3.009511 1_656
Al0 Al2 3.009511 1_656
Al0 Ce0 3.031674 1_555
Al0 Al3 3.081266 1_556
Al0 Al5 3.081266 1_655
Al1 Mn3 2.612626 1_545
Al1 Mn0 2.690055 1_445
Al1 Mn2 2.690055 1_544
Al1 Al8 2.734685 1_455
Al1 Al9 2.734685 1_554
Al1 Mn1 2.741747 1_454
Al1 Al2 2.973025 1_545
Al1 Al6 2.973025 1_545
Al1 Al4 3.076097 1_454
Al1 Al7 3.076097 1_454
Al1 Ce1 3.098729 1_555
Al1 Al5 3.173745 1_544
Al1 Al3 3.173745 1_445
Al2 Mn2 2.516206 1_554
Al2 Mn1 2.585618 1_454
Al2 Mn3 2.601223 1_555
Al2 Mn5 2.662564 1_555
Al2 Al5 2.664655 1_554
Al2 Mn4 2.676182 1_554
Al2 Al6 2.682772 1_555
Al2 Al9 2.721342 1_554
Al2 Ce1 3.104650 1_555
Al2 Ce0 3.132097 1_554
Al3 Mn2 2.525464 1_554
Al3 Mn0 2.592172 1_555
Al3 Mn3 2.606444 1_555
Al3 Mn5 2.617209 1_555
Al3 Al6 2.664655 1_655
Al3 Mn6 2.666202 1_565
Al3 Al7 2.764439 1_564
Al3 Al8 2.765962 1_565
Al3 Ce0 3.019233 1_555
Al3 Ce1 3.144727 1_565
Al4 Mn1 2.539494 1_555
Al4 Mn0 2.544682 1_545
Al4 Al7 2.617283 1_555
Al4 Mn6 2.643882 1_555
Al4 Al8 2.670981 1_555
Al4 Al9 2.687792 1_655
Al4 Mn4 2.695965 1_655
Al4 Al5 2.764439 1_645
Al4 Ce0 3.112507 1_555
Al4 Ce1 3.175080 1_655
Al5 Mn0 2.525464 1_455
Al5 Mn2 2.592172 1_555
Al5 Mn3 2.606444 1_555
Al5 Mn4 2.617209 1_555
Al5 Mn6 2.666203 1_565
Al5 Al9 2.765962 1_565
Al5 Ce0 3.019233 1_555
Al5 Ce1 3.144727 1_565
Al6 Mn0 2.516206 1_455
Al6 Mn1 2.585618 1_454
Al6 Mn3 2.601223 1_555
Al6 Mn4 2.662564 1_555
Al6 Mn5 2.676182 1_455
Al6 Al8 2.721342 1_455
Al6 Ce1 3.104650 1_555
Al6 Ce0 3.132097 1_455
Al7 Mn1 2.539494 1_555
Al7 Mn2 2.544682 1_545
Al7 Mn6 2.643881 1_555
Al7 Al9 2.670981 1_555
Al7 Al8 2.687792 1_556
Al7 Mn5 2.695965 1_556
Al7 Ce0 3.112507 1_555
Al7 Ce1 3.175080 1_556
Al8 Mn0 2.590191 1_545
Al8 Mn1 2.598847 1_554
Al8 Mn5 2.614535 1_555
Al8 Mn6 2.622267 1_555
Al8 Ce0 3.185717 1_555
Al8 Ce1 3.285181 1_555
Al8 Ce1 3.414708 1_655
Al9 Mn2 2.590191 1_545
Al9 Mn1 2.598847 1_455
Al9 Mn4 2.614535 1_555
Al9 Mn6 2.622267 1_555
Al9 Ce0 3.185717 1_555
Al9 Ce1 3.285181 1_555
Al9 Ce1 3.414708 1_556
