# generated using pymatgen
data_Co5B16
_symmetry_space_group_name_H-M   'P 1'
_cell_length_a   2.92406000
_cell_length_b   5.46479000
_cell_length_c   19.05214100
_cell_angle_alpha   90.00000000
_cell_angle_beta   90.00000000
_cell_angle_gamma   90.00000000
_symmetry_Int_Tables_number   1
_chemical_formula_structural   Co5B16
_chemical_formula_sum   'Co10 B32'
_cell_volume   304.44128363
_cell_formula_units_Z   2
loop_
 _symmetry_equiv_pos_site_id
 _symmetry_equiv_pos_as_xyz
  1  'x, y, z'
loop_
 _atom_site_type_symbol
 _atom_site_label
 _atom_site_symmetry_multiplicity
 _atom_site_fract_x
 _atom_site_fract_y
 _atom_site_fract_z
 _atom_site_occupancy
  Co  Co0  1  0.00000000  0.57131500  0.34652000  1
  Co  Co1  1  0.00000000  0.42868500  0.65348000  1
  Co  Co2  1  0.00000000  0.57131500  0.15348000  1
  Co  Co3  1  0.00000000  0.42868500  0.84652000  1
  Co  Co4  1  0.50000000  0.95091800  0.31664600  1
  Co  Co5  1  0.50000000  0.04908200  0.68335400  1
  Co  Co6  1  0.50000000  0.95091800  0.18335400  1
  Co  Co7  1  0.50000000  0.04908200  0.81664600  1
  Co  Co8  1  0.00000000  0.00000000  0.50000000  1
  Co  Co9  1  0.00000000  0.00000000  0.00000000  1
  B  B0  1  0.00000000  0.78022500  0.25000000  1
  B  B1  1  0.00000000  0.21977500  0.75000000  1
  B  B2  1  0.00000000  0.21119100  0.33874500  1
  B  B3  1  0.00000000  0.78880900  0.66125500  1
  B  B4  1  0.00000000  0.21119100  0.16125500  1
  B  B5  1  0.00000000  0.78880900  0.83874500  1
  B  B6  1  0.50000000  0.50628500  0.42967900  1
  B  B7  1  0.50000000  0.49371500  0.57032100  1
  B  B8  1  0.50000000  0.50628500  0.07032100  1
  B  B9  1  0.50000000  0.49371500  0.92967900  1
  B  B10  1  0.50000000  0.60722600  0.25000000  1
  B  B11  1  0.50000000  0.39277400  0.75000000  1
  B  B12  1  0.00000000  0.30553400  0.43183100  1
  B  B13  1  0.00000000  0.69446600  0.56816900  1
  B  B14  1  0.00000000  0.30553400  0.06816900  1
  B  B15  1  0.00000000  0.69446600  0.93183100  1
  B  B16  1  0.00000000  0.98334900  0.39513800  1
  B  B17  1  0.00000000  0.01665100  0.60486200  1
  B  B18  1  0.00000000  0.98334900  0.10486200  1
  B  B19  1  0.00000000  0.01665100  0.89513800  1
  B  B20  1  0.50000000  0.32978100  0.29711700  1
  B  B21  1  0.50000000  0.67021900  0.70288300  1
  B  B22  1  0.50000000  0.32978100  0.20288300  1
  B  B23  1  0.50000000  0.67021900  0.79711700  1
  B  B24  1  0.50000000  0.29098900  0.49090300  1
  B  B25  1  0.50000000  0.70901100  0.50909700  1
  B  B26  1  0.50000000  0.29098900  0.00909700  1
  B  B27  1  0.50000000  0.70901100  0.99090300  1
  B  B28  1  0.50000000  0.82127300  0.42296300  1
  B  B29  1  0.50000000  0.17872700  0.57703700  1
  B  B30  1  0.50000000  0.82127300  0.07703700  1
  B  B31  1  0.50000000  0.17872700  0.92296300  1
loop_
_geom_bond_atom_site_label_1
_geom_bond_atom_site_label_2
_geom_bond_distance
_geom_bond_site_symmetry_2
B0 B10 1.741068 1_455
B0 B10 1.741068 1_555
B0 Co4 2.149398 1_555
B0 Co4 2.149398 1_455
B0 Co6 2.149398 1_455
B0 Co6 2.149398 1_555
B0 Co2 2.164477 1_555
B0 Co0 2.164477 1_555
B1 B11 1.741068 1_455
B1 B11 1.741068 1_555
B1 Co5 2.149398 1_555
B1 Co7 2.149398 1_455
B1 Co7 2.149398 1_555
B1 Co5 2.149398 1_455
B1 Co3 2.164477 1_555
B1 Co1 2.164477 1_555
B2 B20 1.785087 1_455
B2 B20 1.785087 1_555
B2 Co0 1.973569 1_555
B2 Co4 2.082749 1_545
B2 Co4 2.082749 1_445
B3 Co1 1.973569 1_555
B3 Co5 2.082749 1_565
B3 Co5 2.082749 1_465
B4 Co2 1.973569 1_555
B4 Co6 2.082749 1_445
B4 Co6 2.082749 1_545
B5 Co3 1.973569 1_555
B5 Co7 2.082749 1_565
B5 Co7 2.082749 1_465
B6 Co0 2.184951 1_555
B6 Co0 2.184951 1_655
B7 Co1 2.184951 1_555
B7 Co1 2.184951 1_655
B8 Co2 2.184951 1_555
B8 Co2 2.184951 1_655
B9 Co3 2.184951 1_555
B9 Co3 2.184951 1_655
B10 B22 1.761995 1_555
B10 B20 1.761995 1_555
B10 Co4 2.267138 1_555
B10 Co6 2.267138 1_555
B10 Co0 2.357466 1_655
B10 Co2 2.357466 1_555
B10 Co0 2.357466 1_555
B10 Co2 2.357466 1_655
B11 B21 1.761995 1_555
B11 B23 1.761995 1_555
B11 Co7 2.267138 1_555
B11 Co5 2.267138 1_555
B11 Co3 2.357466 1_655
B11 Co1 2.357466 1_655
B11 Co3 2.357466 1_555
B11 Co1 2.357466 1_555
B12 B6 1.828321 1_455
B12 B6 1.828321 1_555
B12 B24 1.846749 1_555
B12 B24 1.846749 1_455
B12 B2 1.846907 1_555
B12 B16 1.894382 1_545
B12 Co8 2.115330 1_555
B12 Co0 2.179762 1_555
B13 B7 1.828321 1_555
B13 B7 1.828321 1_455
B13 B25 1.846749 1_455
B13 B25 1.846749 1_555
B13 B3 1.846907 1_555
B13 B17 1.894382 1_565
B13 Co8 2.115330 1_565
B13 Co1 2.179762 1_555
B14 B8 1.828321 1_555
B14 B8 1.828321 1_455
B14 B26 1.846749 1_455
B14 B26 1.846749 1_555
B14 B4 1.846907 1_555
B14 B18 1.894382 1_545
B14 Co9 2.115330 1_555
B14 Co2 2.179762 1_555
B15 B9 1.828321 1_455
B15 B9 1.828321 1_555
B15 B27 1.846749 1_455
B15 B27 1.846749 1_555
B15 B5 1.846907 1_555
B15 B19 1.894382 1_565
B15 Co9 2.115330 1_566
B15 Co3 2.179762 1_555
B16 B2 1.644581 1_565
B16 B28 1.789707 1_455
B16 B28 1.789707 1_555
B16 Co8 1.999917 1_565
B16 Co4 2.098877 1_555
B16 Co4 2.098877 1_455
B16 Co0 2.434758 1_555
B17 B3 1.644581 1_545
B17 B29 1.789707 1_455
B17 B29 1.789707 1_555
B17 Co8 1.999917 1_555
B17 Co5 2.098877 1_455
B17 Co5 2.098877 1_555
B17 Co1 2.434758 1_555
B18 B4 1.644581 1_565
B18 B30 1.789707 1_555
B18 B30 1.789707 1_455
B18 Co9 1.999917 1_565
B18 Co6 2.098877 1_555
B18 Co6 2.098877 1_455
B18 Co2 2.434758 1_555
B19 B5 1.644581 1_545
B19 B31 1.789707 1_455
B19 B31 1.789707 1_555
B19 Co9 1.999917 1_556
B19 Co7 2.098877 1_555
B19 Co7 2.098877 1_455
B19 Co3 2.434758 1_555
B20 B22 1.795359 1_555
B20 Co4 2.103573 1_545
B20 Co0 2.183042 1_555
B20 Co0 2.183042 1_655
B21 B3 1.785087 1_555
B21 B3 1.785087 1_655
B21 B23 1.795359 1_555
B21 Co5 2.103573 1_565
B21 Co1 2.183042 1_555
B21 Co1 2.183042 1_655
B22 B4 1.785087 1_655
B22 B4 1.785087 1_555
B22 Co6 2.103573 1_545
B22 Co2 2.183042 1_555
B22 Co2 2.183042 1_655
B23 B5 1.785087 1_555
B23 B5 1.785087 1_655
B23 Co7 2.103573 1_565
B23 Co3 2.183042 1_555
B23 Co3 2.183042 1_655
B24 B6 1.656764 1_555
B24 B29 1.751962 1_555
B24 B7 1.875303 1_555
B24 Co8 2.167092 1_555
B24 Co8 2.167092 1_655
B25 B7 1.656764 1_555
B25 B28 1.751962 1_555
B25 B6 1.875303 1_555
B25 Co8 2.167092 1_665
B25 Co8 2.167092 1_565
B26 B8 1.656764 1_555
B26 B31 1.751962 1_554
B26 B9 1.875303 1_554
B26 Co9 2.167092 1_555
B26 Co9 2.167092 1_655
B27 B9 1.656764 1_555
B27 B30 1.751962 1_556
B27 B8 1.875303 1_556
B27 Co9 2.167092 1_666
B27 Co9 2.167092 1_566
B28 B6 1.726092 1_555
B28 Co4 2.145895 1_555
B28 Co8 2.290346 1_565
B28 Co8 2.290346 1_665
B28 Co0 2.474775 1_555
B28 Co0 2.474775 1_655
B29 B7 1.726092 1_555
B29 Co5 2.145895 1_555
B29 Co8 2.290346 1_655
B29 Co8 2.290346 1_555
B29 Co1 2.474775 1_655
B29 Co1 2.474775 1_555
B30 B8 1.726092 1_555
B30 Co6 2.145895 1_555
B30 Co9 2.290346 1_665
B30 Co9 2.290346 1_565
B30 Co2 2.474775 1_555
B30 Co2 2.474775 1_655
B31 B9 1.726092 1_555
B31 Co7 2.145895 1_555
B31 Co9 2.290346 1_656
B31 Co9 2.290346 1_556
B31 Co3 2.474775 1_555
B31 Co3 2.474775 1_655
