# generated using pymatgen
data_Pt(CN)2
_symmetry_space_group_name_H-M   'P 1'
_cell_length_a   8.28091248
_cell_length_b   7.00891104
_cell_length_c   13.26817108
_cell_angle_alpha   89.99999965
_cell_angle_beta   36.76187007
_cell_angle_gamma   64.96342127
_symmetry_Int_Tables_number   1
_chemical_formula_structural   Pt(CN)2
_chemical_formula_sum   'Pt4 C8 N8'
_cell_volume   325.89830785
_cell_formula_units_Z   4
loop_
 _symmetry_equiv_pos_site_id
 _symmetry_equiv_pos_as_xyz
  1  'x, y, z'
loop_
 _atom_site_type_symbol
 _atom_site_label
 _atom_site_symmetry_multiplicity
 _atom_site_fract_x
 _atom_site_fract_y
 _atom_site_fract_z
 _atom_site_occupancy
  Pt  Pt0  1  0.50000000  0.03307516  0.12500000  1
  Pt  Pt1  1  0.50000000  0.96692484  0.62500000  1
  Pt  Pt2  1  0.56615032  0.46692484  0.34192484  1
  Pt  Pt3  1  0.43384968  0.53307516  0.90807516  1
  C  C0  1  0.96727866  0.26514917  0.34136708  1
  C  C1  1  0.03272134  0.73242783  0.90863292  1
  C  C2  1  0.03272134  0.73485083  0.30864574  1
  C  C3  1  0.96727866  0.26757217  0.94135426  1
  C  C4  1  0.49757701  0.76757217  0.42620509  1
  C  C5  1  0.50242299  0.76514917  0.82379491  1
  C  C6  1  0.50242299  0.23242783  0.92378210  1
  C  C7  1  0.49757701  0.23485083  0.32621790  1
  N  N0  1  0.71412442  0.35582819  0.41279467  1
  N  N1  1  0.28587558  0.56995261  0.83720533  1
  N  N2  1  0.28587558  0.64417181  0.12691909  1
  N  N3  1  0.71412442  0.43004739  0.12308091  1
  N  N4  1  0.42578080  0.93004739  0.51725272  1
  N  N5  1  0.57421920  0.85582819  0.73274728  1
  N  N6  1  0.57421920  0.06995261  0.94303352  1
  N  N7  1  0.42578080  0.14417181  0.30696648  1
loop_
_geom_bond_atom_site_label_1
_geom_bond_atom_site_label_2
_geom_bond_distance
_geom_bond_site_symmetry_2
C0 N0 1.177203 1_555
C0 Pt0 1.995760 1_655
C1 N1 1.177203 1_555
C1 Pt0 1.995760 1_466
C2 N2 1.177203 1_555
C2 Pt1 1.995759 1_455
C3 N3 1.177203 1_556
C3 Pt1 1.995759 1_645
C4 N4 1.177203 1_555
C4 Pt2 1.995760 1_555
C5 N5 1.177203 1_555
C5 Pt3 1.995760 1_555
C6 N6 1.177203 1_555
C6 Pt3 1.995760 1_555
C7 N7 1.177203 1_555
C7 Pt2 1.995760 1_555
N0 Pt2 2.007634 1_555
N1 Pt3 2.007634 1_555
N2 Pt3 2.007634 1_554
N3 Pt2 2.007634 1_555
N4 Pt1 2.007634 1_555
N5 Pt1 2.007634 1_555
N6 Pt0 2.007634 1_556
N7 Pt0 2.007634 1_555
