# generated using pymatgen
data_Tm6Fe23
_symmetry_space_group_name_H-M   'P 1'
_cell_length_a   8.39183461
_cell_length_b   8.39198934
_cell_length_c   8.39202062
_cell_angle_alpha   59.99776961
_cell_angle_beta   59.99945568
_cell_angle_gamma   59.99948701
_symmetry_Int_Tables_number   1
_chemical_formula_structural   Tm6Fe23
_chemical_formula_sum   'Tm6 Fe23'
_cell_volume   417.89059122
_cell_formula_units_Z   1
loop_
 _symmetry_equiv_pos_site_id
 _symmetry_equiv_pos_as_xyz
  1  'x, y, z'
loop_
 _atom_site_type_symbol
 _atom_site_label
 _atom_site_symmetry_multiplicity
 _atom_site_fract_x
 _atom_site_fract_y
 _atom_site_fract_z
 _atom_site_occupancy
  Tm  Tm0  1  0.70770055  0.29229419  0.29229492  1
  Tm  Tm1  1  0.70769973  0.29229864  0.70770583  1
  Tm  Tm2  1  0.70769919  0.70770603  0.29229922  1
  Tm  Tm3  1  0.29229945  0.70770581  0.70770508  1
  Tm  Tm4  1  0.29230027  0.70770136  0.29229417  1
  Tm  Tm5  1  0.29230081  0.29229397  0.70770078  1
  Fe  Fe0  1  -0.00000000  -0.00000000  -0.00000000  1
  Fe  Fe1  1  0.50000000  -0.00000000  -0.00000000  1
  Fe  Fe2  1  0.50000000  -0.00000000  0.50000000  1
  Fe  Fe3  1  0.50000000  0.50000000  -0.00000000  1
  Fe  Fe4  1  -0.00000000  0.50000000  0.50000000  1
  Fe  Fe5  1  -0.00000000  0.50000000  -0.00000000  1
  Fe  Fe6  1  -0.00000000  -0.00000000  0.50000000  1
  Fe  Fe7  1  0.63554840  0.12147021  0.12147760  1
  Fe  Fe8  1  0.12148058  0.63560028  0.12144363  1
  Fe  Fe9  1  0.12148578  0.12144152  0.63558954  1
  Fe  Fe10  1  0.12149928  0.12146072  0.12147052  1
  Fe  Fe11  1  0.36445160  0.87852979  0.87852240  1
  Fe  Fe12  1  0.87851942  0.36439972  0.87855637  1
  Fe  Fe13  1  0.87851422  0.87855848  0.36441046  1
  Fe  Fe14  1  0.87850072  0.87853928  0.87852948  1
  Fe  Fe15  1  0.02464870  0.32511083  0.32512703  1
  Fe  Fe16  1  0.32515443  0.02463679  0.32510820  1
  Fe  Fe17  1  0.32516262  0.32510011  0.02463655  1
  Fe  Fe18  1  0.32514943  0.32509296  0.32510258  1
  Fe  Fe19  1  0.97535130  0.67488917  0.67487297  1
  Fe  Fe20  1  0.67484557  0.97536321  0.67489180  1
  Fe  Fe21  1  0.67483738  0.67489989  0.97536345  1
  Fe  Fe22  1  0.67485057  0.67490704  0.67489742  1
loop_
_geom_bond_atom_site_label_1
_geom_bond_atom_site_label_2
_geom_bond_distance
_geom_bond_site_symmetry_2
Fe0 Fe8 2.496830 1_545
Fe0 Fe12 2.496830 1_454
Fe0 Fe9 2.496912 1_554
Fe0 Fe13 2.496912 1_445
Fe0 Fe14 2.497098 1_444
Fe0 Fe10 2.497098 1_555
Fe0 Fe7 2.497182 1_455
Fe0 Fe11 2.497182 1_544
Fe1 Fe21 2.428275 1_544
Fe1 Fe17 2.428275 1_555
Fe1 Fe16 2.428342 1_555
Fe1 Fe20 2.428342 1_544
Fe1 Fe10 2.594343 1_555
Fe1 Fe14 2.594343 1_544
Fe1 Fe7 2.594370 1_555
Fe1 Fe11 2.594370 1_544
Fe1 Tm4 3.009087 1_545
Fe1 Tm1 3.009087 1_554
Fe1 Tm5 3.009094 1_554
Fe1 Tm2 3.009094 1_545
Fe2 Fe22 2.428214 1_545
Fe2 Fe20 2.428268 1_545
Fe2 Fe9 2.594441 1_555
Fe2 Fe7 2.594501 1_555
Fe2 Tm0 3.009077 1_555
Fe2 Tm3 3.009077 1_545
Fe2 Tm2 3.009188 1_545
Fe2 Tm5 3.009188 1_555
Fe3 Fe8 2.594478 1_555
Fe3 Fe7 2.594542 1_555
Fe3 Tm0 3.009091 1_555
Fe3 Tm3 3.009091 1_554
Fe3 Tm1 3.009195 1_554
Fe3 Tm4 3.009195 1_555
Fe4 Fe8 2.594738 1_555
Fe4 Fe9 2.594742 1_555
Fe4 Tm1 3.009119 1_455
Fe4 Tm4 3.009119 1_555
Fe4 Tm2 3.009126 1_455
Fe4 Tm5 3.009126 1_555
Fe5 Fe8 2.594576 1_555
Fe5 Tm3 3.009124 1_554
Fe5 Tm0 3.009124 1_455
Fe5 Tm5 3.009234 1_554
Fe5 Tm2 3.009234 1_455
Fe6 Fe9 2.594522 1_555
Fe6 Tm0 3.009124 1_455
Fe6 Tm3 3.009124 1_545
Fe6 Tm4 3.009227 1_545
Fe6 Tm1 3.009227 1_455
Fe7 Tm2 2.875078 1_545
Fe7 Tm1 2.875142 1_554
Fe7 Tm0 2.875371 1_555
Fe8 Tm3 2.874983 1_554
Fe8 Tm4 2.875249 1_555
Fe8 Tm2 2.875251 1_455
Fe9 Tm3 2.874940 1_545
Fe9 Tm1 2.875272 1_455
Fe9 Tm5 2.875287 1_555
Fe10 Fe16 2.577752 1_555
Fe10 Fe17 2.577785 1_555
Fe10 Fe15 2.577845 1_555
Fe10 Fe6 2.594555 1_555
Fe10 Fe5 2.594612 1_555
Fe10 Tm4 2.875054 1_545
Fe10 Tm5 2.875135 1_554
Fe10 Tm0 2.875349 1_455
Fe10 Fe13 2.883195 1_445
Fe10 Fe12 2.883242 1_454
Fe10 Fe11 2.883253 1_544
Fe11 Fe21 2.577209 1_555
Fe11 Fe20 2.577232 1_555
Fe11 Fe22 2.577394 1_555
Fe11 Fe2 2.594501 1_565
Fe11 Fe3 2.594542 1_556
Fe11 Tm5 2.875078 1_565
Fe11 Tm4 2.875142 1_556
Fe11 Tm3 2.875371 1_555
Fe11 Fe9 2.883269 1_565
Fe11 Fe8 2.883274 1_556
Fe12 Fe19 2.577899 1_555
Fe12 Fe21 2.577948 1_555
Fe12 Fe22 2.577967 1_555
Fe12 Fe3 2.594478 1_556
Fe12 Fe5 2.594576 1_656
Fe12 Fe4 2.594738 1_655
Fe12 Tm0 2.874983 1_556
Fe12 Tm1 2.875249 1_555
Fe12 Tm5 2.875251 1_655
Fe12 Fe7 2.883274 1_556
Fe12 Fe9 2.883526 1_655
Fe13 Fe19 2.577740 1_555
Fe13 Fe20 2.577812 1_555
Fe13 Fe22 2.577854 1_555
Fe13 Fe2 2.594441 1_565
Fe13 Fe6 2.594522 1_665
Fe13 Fe4 2.594742 1_655
Fe13 Tm0 2.874940 1_565
Fe13 Tm4 2.875272 1_655
Fe13 Tm2 2.875287 1_555
Fe13 Fe7 2.883269 1_565
Fe13 Fe8 2.883526 1_655
Fe14 Fe20 2.577752 1_555
Fe14 Fe21 2.577785 1_555
Fe14 Fe19 2.577845 1_555
Fe14 Fe6 2.594555 1_665
Fe14 Fe5 2.594612 1_656
Fe14 Tm1 2.875054 1_565
Fe14 Tm2 2.875135 1_556
Fe14 Tm3 2.875349 1_655
Fe14 Fe9 2.883195 1_665
Fe14 Fe8 2.883242 1_656
Fe14 Fe7 2.883253 1_566
Fe15 Fe6 2.428337 1_555
Fe15 Fe4 2.428447 1_555
Fe15 Fe5 2.428464 1_555
Fe15 Fe18 2.521575 1_555
Fe15 Fe16 2.521665 1_555
Fe15 Fe17 2.521772 1_555
Fe15 Fe9 2.577740 1_555
Fe15 Fe8 2.577899 1_555
Fe15 Tm1 2.960894 1_455
Fe15 Tm2 2.960971 1_455
Fe15 Tm0 2.960982 1_455
Fe16 Fe2 2.428268 1_555
Fe16 Fe6 2.428616 1_555
Fe16 Fe18 2.521380 1_555
Fe16 Fe17 2.521440 1_555
Fe16 Fe7 2.577232 1_555
Fe16 Fe9 2.577812 1_555
Fe16 Tm2 2.960657 1_545
Fe16 Tm3 2.960876 1_545
Fe16 Tm4 2.961023 1_545
Fe17 Fe3 2.428263 1_555
Fe17 Fe5 2.428675 1_555
Fe17 Fe18 2.521432 1_555
Fe17 Fe7 2.577209 1_555
Fe17 Fe8 2.577948 1_555
Fe17 Tm1 2.960622 1_554
Fe17 Tm3 2.960919 1_554
Fe17 Tm5 2.961034 1_554
Fe18 Fe2 2.428214 1_555
Fe18 Fe3 2.428286 1_555
Fe18 Fe4 2.428671 1_555
Fe18 Fe7 2.577394 1_555
Fe18 Fe9 2.577854 1_555
Fe18 Fe8 2.577967 1_555
Fe18 Tm0 2.960724 1_555
Fe18 Tm5 2.961041 1_555
Fe18 Tm4 2.961080 1_555
Fe19 Fe6 2.428337 1_665
Fe19 Fe4 2.428447 1_655
Fe19 Fe5 2.428464 1_656
Fe19 Fe22 2.521575 1_555
Fe19 Fe20 2.521665 1_555
Fe19 Fe21 2.521772 1_555
Fe19 Tm4 2.960894 1_655
Fe19 Tm5 2.960971 1_655
Fe19 Tm3 2.960982 1_655
Fe20 Fe6 2.428616 1_665
Fe20 Fe22 2.521380 1_555
Fe20 Fe21 2.521440 1_555
Fe20 Tm5 2.960657 1_565
Fe20 Tm0 2.960876 1_565
Fe20 Tm1 2.961023 1_565
Fe21 Fe3 2.428263 1_556
Fe21 Fe5 2.428675 1_656
Fe21 Fe22 2.521432 1_555
Fe21 Tm4 2.960622 1_556
Fe21 Tm0 2.960919 1_556
Fe21 Tm2 2.961034 1_556
Fe22 Fe3 2.428286 1_556
Fe22 Fe4 2.428671 1_655
Fe22 Tm3 2.960724 1_555
Fe22 Tm2 2.961041 1_555
Fe22 Tm1 2.961080 1_555
