# generated using pymatgen
data_K2Mo15Se19
_symmetry_space_group_name_H-M   'P 1'
_cell_length_a   9.90142855
_cell_length_b   9.90142855
_cell_length_c   20.37434670
_cell_angle_alpha   75.93705885
_cell_angle_beta   75.93705885
_cell_angle_gamma   59.99999952
_symmetry_Int_Tables_number   1
_chemical_formula_structural   K2Mo15Se19
_chemical_formula_sum   'K4 Mo30 Se38'
_cell_volume   1660.37015084
_cell_formula_units_Z   2
loop_
 _symmetry_equiv_pos_site_id
 _symmetry_equiv_pos_as_xyz
  1  'x, y, z'
loop_
 _atom_site_type_symbol
 _atom_site_label
 _atom_site_symmetry_multiplicity
 _atom_site_fract_x
 _atom_site_fract_y
 _atom_site_fract_z
 _atom_site_occupancy
  K  K0  1  0.61476420  0.61476420  0.15570740  1
  K  K1  1  0.11476420  0.11476420  0.65570740  1
  K  K2  1  0.38523580  0.38523580  0.84429260  1
  K  K3  1  0.88523580  0.88523580  0.34429260  1
  Mo  Mo0  1  0.49774485  0.68622673  0.44167947  1
  Mo  Mo1  1  0.68622673  0.37434896  0.44167947  1
  Mo  Mo2  1  0.37434896  0.49774485  0.44167947  1
  Mo  Mo3  1  0.99774485  0.87434896  0.94167947  1
  Mo  Mo4  1  0.87434896  0.18622673  0.94167947  1
  Mo  Mo5  1  0.18622673  0.99774485  0.94167947  1
  Mo  Mo6  1  0.50225515  0.31377327  0.55832053  1
  Mo  Mo7  1  0.31377327  0.62565104  0.55832053  1
  Mo  Mo8  1  0.62565104  0.50225515  0.55832053  1
  Mo  Mo9  1  0.00225515  0.12565104  0.05832053  1
  Mo  Mo10  1  0.12565104  0.81377327  0.05832053  1
  Mo  Mo11  1  0.81377327  0.00225515  0.05832053  1
  Mo  Mo12  1  0.72264263  0.85979672  0.86765922  1
  Mo  Mo13  1  0.85979672  0.54990142  0.86765922  1
  Mo  Mo14  1  0.54990142  0.72264263  0.86765922  1
  Mo  Mo15  1  0.22264263  0.04990142  0.36765922  1
  Mo  Mo16  1  0.04990142  0.35979672  0.36765922  1
  Mo  Mo17  1  0.35979672  0.22264263  0.36765922  1
  Mo  Mo18  1  0.27735737  0.14020328  0.13234078  1
  Mo  Mo19  1  0.14020328  0.45009858  0.13234078  1
  Mo  Mo20  1  0.45009858  0.27735737  0.13234078  1
  Mo  Mo21  1  0.77735737  0.95009858  0.63234078  1
  Mo  Mo22  1  0.95009858  0.64020328  0.63234078  1
  Mo  Mo23  1  0.64020328  0.77735737  0.63234078  1
  Mo  Mo24  1  0.59263518  0.90736482  0.75000000  1
  Mo  Mo25  1  0.90736482  0.75000000  0.75000000  1
  Mo  Mo26  1  0.75000000  0.59263518  0.75000000  1
  Mo  Mo27  1  0.09263518  0.25000000  0.25000000  1
  Mo  Mo28  1  0.25000000  0.40736482  0.25000000  1
  Mo  Mo29  1  0.40736482  0.09263518  0.25000000  1
  Se  Se0  1  0.80089857  0.55480407  0.45010578  1
  Se  Se1  1  0.55480407  0.19419158  0.45010578  1
  Se  Se2  1  0.19419158  0.80089857  0.45010578  1
  Se  Se3  1  0.30089857  0.69419158  0.95010578  1
  Se  Se4  1  0.69419158  0.05480407  0.95010578  1
  Se  Se5  1  0.05480407  0.30089857  0.95010578  1
  Se  Se6  1  0.19910143  0.44519593  0.54989422  1
  Se  Se7  1  0.44519593  0.80580842  0.54989422  1
  Se  Se8  1  0.80580842  0.19910143  0.54989422  1
  Se  Se9  1  0.69910143  0.30580842  0.04989422  1
  Se  Se10  1  0.30580842  0.94519593  0.04989422  1
  Se  Se11  1  0.94519593  0.69910143  0.04989422  1
  Se  Se12  1  0.42231144  0.03085452  0.85733039  1
  Se  Se13  1  0.03085452  0.68950365  0.85733039  1
  Se  Se14  1  0.68950365  0.42231144  0.85733039  1
  Se  Se15  1  0.92231144  0.18950365  0.35733039  1
  Se  Se16  1  0.18950365  0.53085452  0.35733039  1
  Se  Se17  1  0.53085452  0.92231144  0.35733039  1
  Se  Se18  1  0.57768856  0.96914548  0.14266961  1
  Se  Se19  1  0.96914548  0.31049635  0.14266961  1
  Se  Se20  1  0.31049635  0.57768856  0.14266961  1
  Se  Se21  1  0.07768856  0.81049635  0.64266961  1
  Se  Se22  1  0.81049635  0.46914548  0.64266961  1
  Se  Se23  1  0.46914548  0.07768856  0.64266961  1
  Se  Se24  1  0.05385489  0.44614511  0.75000000  1
  Se  Se25  1  0.44614511  0.75000000  0.75000000  1
  Se  Se26  1  0.75000000  0.05385489  0.75000000  1
  Se  Se27  1  0.55385489  0.25000000  0.25000000  1
  Se  Se28  1  0.25000000  0.94614511  0.25000000  1
  Se  Se29  1  0.94614511  0.55385489  0.25000000  1
  Se  Se30  1  0.55412394  0.55412394  0.33762819  1
  Se  Se31  1  0.05412394  0.05412394  0.83762819  1
  Se  Se32  1  0.44587606  0.44587606  0.66237181  1
  Se  Se33  1  0.94587606  0.94587606  0.16237181  1
  Se  Se34  1  0.67606590  0.67606590  0.97180230  1
  Se  Se35  1  0.17606590  0.17606590  0.47180230  1
  Se  Se36  1  0.32393410  0.32393410  0.02819770  1
  Se  Se37  1  0.82393410  0.82393410  0.52819770  1
loop_
_geom_bond_atom_site_label_1
_geom_bond_atom_site_label_2
_geom_bond_distance
_geom_bond_site_symmetry_2
K0 Se19 3.289966 1_555
K0 Se18 3.289966 1_555
K0 Se20 3.289966 1_555
K0 Se30 3.557631 1_555
K0 Se34 3.596436 1_554
K0 Se11 3.805107 1_555
K0 Se10 3.805107 1_555
K0 Se9 3.805107 1_555
K0 Se27 3.916878 1_555
K0 Se28 3.916878 1_555
K0 Se29 3.916878 1_555
K1 Se22 3.289966 1_455
K1 Se23 3.289966 1_555
K1 Se21 3.289966 1_545
K1 Se31 3.557631 1_555
K1 Se35 3.596436 1_555
K1 Se6 3.805107 1_555
K1 Se7 3.805107 1_545
K1 Se8 3.805107 1_455
K1 Se26 3.916878 1_455
K1 Se25 3.916878 1_545
K1 Se24 3.916878 1_555
K2 Se13 3.289966 1_555
K2 Se12 3.289966 1_555
K2 Se14 3.289966 1_555
K2 Se32 3.557631 1_555
K2 Se36 3.596436 1_556
K2 Se5 3.805107 1_555
K2 Se4 3.805107 1_555
K2 Se3 3.805107 1_555
K2 Se25 3.916878 1_555
K2 Se26 3.916878 1_555
K2 Se24 3.916878 1_555
K3 Se16 3.289966 1_655
K3 Se17 3.289966 1_555
K3 Se15 3.289966 1_565
K3 Se33 3.557631 1_555
K3 Se37 3.596436 1_555
K3 Se0 3.805107 1_555
K3 Se1 3.805107 1_565
K3 Se2 3.805107 1_655
K3 Se28 3.916878 1_655
K3 Se27 3.916878 1_565
K3 Se29 3.916878 1_555
Mo0 Se30 2.561072 1_555
Mo0 Se7 2.574668 1_555
Mo0 Se2 2.604551 1_555
Mo0 Se0 2.639813 1_555
Mo0 Se17 2.658086 1_555
Mo1 Se30 2.561072 1_555
Mo1 Se8 2.574668 1_555
Mo1 Se0 2.604551 1_555
Mo1 Se1 2.639813 1_555
Mo1 Se15 2.658086 1_555
Mo2 Se30 2.561072 1_555
Mo2 Se6 2.574668 1_555
Mo2 Se1 2.604551 1_555
Mo2 Se2 2.639813 1_555
Mo2 Se16 2.658086 1_555
Mo3 Se31 2.561072 1_665
Mo3 Se11 2.574668 1_556
Mo3 Se4 2.604551 1_565
Mo3 Se3 2.639813 1_655
Mo3 Se13 2.658086 1_655
Mo4 Se31 2.561072 1_655
Mo4 Se9 2.574668 1_556
Mo4 Se5 2.604551 1_655
Mo4 Se4 2.639813 1_555
Mo4 Se14 2.658086 1_555
Mo5 Se31 2.561072 1_565
Mo5 Se10 2.574668 1_556
Mo5 Se3 2.604551 1_555
Mo5 Se5 2.639813 1_565
Mo5 Se12 2.658086 1_565
Mo6 Se32 2.561072 1_555
Mo6 Se1 2.574668 1_555
Mo6 Se8 2.604551 1_555
Mo6 Se6 2.639813 1_555
Mo6 Se23 2.658086 1_555
Mo7 Se32 2.561072 1_555
Mo7 Se2 2.574668 1_555
Mo7 Se6 2.604551 1_555
Mo7 Se7 2.639813 1_555
Mo7 Se21 2.658086 1_555
Mo8 Se32 2.561072 1_555
Mo8 Se0 2.574668 1_555
Mo8 Se7 2.604551 1_555
Mo8 Se8 2.639813 1_555
Mo8 Se22 2.658086 1_555
Mo9 Se33 2.561072 1_445
Mo9 Se5 2.574668 1_554
Mo9 Se10 2.604551 1_545
Mo9 Se9 2.639813 1_455
Mo9 Se19 2.658086 1_455
Mo10 Se33 2.561072 1_455
Mo10 Se3 2.574668 1_554
Mo10 Se11 2.604551 1_455
Mo10 Se10 2.639813 1_555
Mo10 Se20 2.658086 1_555
Mo11 Se33 2.561072 1_545
Mo11 Se4 2.574668 1_554
Mo11 Se9 2.604551 1_555
Mo11 Se11 2.639813 1_545
Mo11 Se18 2.658086 1_545
Mo12 Se34 2.551848 1_555
Mo12 Se12 2.617286 1_565
Mo12 Se13 2.629666 1_655
Mo12 Se4 2.726093 1_565
Mo12 Se26 2.734683 1_565
Mo13 Se34 2.551848 1_555
Mo13 Se13 2.617286 1_655
Mo13 Se14 2.629666 1_555
Mo13 Se5 2.726093 1_655
Mo13 Se24 2.734683 1_655
Mo14 Se34 2.551848 1_555
Mo14 Se14 2.617286 1_555
Mo14 Se12 2.629666 1_565
Mo14 Se3 2.726093 1_555
Mo14 Se25 2.734683 1_555
Mo15 Se35 2.551848 1_555
Mo15 Se15 2.617286 1_455
Mo15 Se17 2.629666 1_545
Mo15 Se2 2.726093 1_545
Mo15 Se28 2.734683 1_545
Mo16 Se35 2.551848 1_555
Mo16 Se16 2.617286 1_555
Mo16 Se15 2.629666 1_455
Mo16 Se0 2.726093 1_455
Mo16 Se29 2.734683 1_455
Mo17 Se35 2.551848 1_555
Mo17 Se17 2.617286 1_545
Mo17 Se16 2.629666 1_555
Mo17 Se1 2.726093 1_555
Mo17 Se27 2.734683 1_555
Mo18 Se36 2.551848 1_555
Mo18 Se18 2.617286 1_545
Mo18 Se19 2.629666 1_455
Mo18 Se10 2.726093 1_545
Mo18 Se28 2.734683 1_545
Mo19 Se36 2.551848 1_555
Mo19 Se19 2.617286 1_455
Mo19 Se20 2.629666 1_555
Mo19 Se11 2.726093 1_455
Mo19 Se29 2.734683 1_455
Mo20 Se36 2.551848 1_555
Mo20 Se20 2.617286 1_555
Mo20 Se18 2.629666 1_545
Mo20 Se9 2.726093 1_555
Mo20 Se27 2.734683 1_555
Mo21 Se37 2.551848 1_555
Mo21 Se21 2.617286 1_655
Mo21 Se23 2.629666 1_565
Mo21 Se8 2.726093 1_565
Mo21 Se26 2.734683 1_565
Mo22 Se37 2.551848 1_555
Mo22 Se22 2.617286 1_555
Mo22 Se21 2.629666 1_655
Mo22 Se6 2.726093 1_655
Mo22 Se24 2.734683 1_655
Mo23 Se37 2.551848 1_555
Mo23 Se23 2.617286 1_565
Mo23 Se22 2.629666 1_555
Mo23 Se7 2.726093 1_555
Mo23 Se25 2.734683 1_555
Mo24 Se23 2.562484 1_565
Mo24 Se12 2.562484 1_565
Mo24 Se26 2.606078 1_565
Mo24 Se25 2.606078 1_555
Mo25 Se21 2.562484 1_655
Mo25 Se13 2.562484 1_655
Mo25 Se26 2.606078 1_565
Mo25 Se24 2.606078 1_655
Mo26 Se14 2.562484 1_555
Mo26 Se22 2.562484 1_555
Mo26 Se25 2.606078 1_555
Mo26 Se24 2.606078 1_655
Mo27 Se15 2.562484 1_455
Mo27 Se19 2.562484 1_455
Mo27 Se28 2.606078 1_545
Mo27 Se29 2.606078 1_455
Mo28 Se20 2.562484 1_555
Mo28 Se16 2.562484 1_555
Mo28 Se27 2.606078 1_555
Mo28 Se29 2.606078 1_455
Mo29 Se17 2.562484 1_545
Mo29 Se18 2.562484 1_545
Mo29 Se27 2.606078 1_555
Mo29 Se28 2.606078 1_545
