# generated using pymatgen
data_Ba5Mg18Ge13
_symmetry_space_group_name_H-M   'P 1'
_cell_length_a   14.66883682
_cell_length_b   14.66883495
_cell_length_c   4.51078019
_cell_angle_alpha   89.99962811
_cell_angle_beta   89.99962839
_cell_angle_gamma   120.00088578
_symmetry_Int_Tables_number   1
_chemical_formula_structural   Ba5Mg18Ge13
_chemical_formula_sum   'Ba5 Mg18 Ge13'
_cell_volume   840.56193528
_cell_formula_units_Z   1
loop_
 _symmetry_equiv_pos_site_id
 _symmetry_equiv_pos_as_xyz
  1  'x, y, z'
loop_
 _atom_site_type_symbol
 _atom_site_label
 _atom_site_symmetry_multiplicity
 _atom_site_fract_x
 _atom_site_fract_y
 _atom_site_fract_z
 _atom_site_occupancy
  Ba  Ba0  1  0.33333253  0.66667006  0.99722818  1
  Ba  Ba1  1  0.66667002  0.33333225  0.99722821  1
  Ba  Ba2  1  0.82061583  -0.00000437  0.49622649  1
  Ba  Ba3  1  -0.00000459  0.82061555  0.49622616  1
  Ba  Ba4  1  0.17938395  0.17938427  0.49621823  1
  Mg  Mg0  1  0.44112833  0.00003095  0.00465304  1
  Mg  Mg1  1  0.00003102  0.44112826  0.00465312  1
  Mg  Mg2  1  0.55889337  0.55889335  0.00464623  1
  Mg  Mg3  1  0.51615934  0.87757127  0.49570869  1
  Mg  Mg4  1  0.12243619  0.63858586  0.49576412  1
  Mg  Mg5  1  0.36139577  0.48384497  0.49570976  1
  Mg  Mg6  1  0.63858595  0.12243592  0.49576480  1
  Mg  Mg7  1  0.48384484  0.36139561  0.49571009  1
  Mg  Mg8  1  0.87757136  0.51615940  0.49570909  1
  Mg  Mg9  1  0.82192578  0.19783170  0.99719337  1
  Mg  Mg10  1  0.80216841  0.62408774  0.99714999  1
  Mg  Mg11  1  0.37589936  0.17807567  0.99715823  1
  Mg  Mg12  1  0.62408798  0.80216840  0.99715079  1
  Mg  Mg13  1  0.17807584  0.37589942  0.99715834  1
  Mg  Mg14  1  0.19783166  0.82192560  0.99719343  1
  Mg  Mg15  1  0.28206912  -0.00000631  0.50048200  1
  Mg  Mg16  1  -0.00000599  0.28206938  0.50048220  1
  Mg  Mg17  1  0.71791775  0.71791776  0.50049016  1
  Ge  Ge0  1  0.62874103  -0.00000054  0.99645934  1
  Ge  Ge1  1  -0.00000032  0.62874087  0.99645941  1
  Ge  Ge2  1  0.37126529  0.37126532  0.99645056  1
  Ge  Ge3  1  0.52270300  0.69110491  0.49702270  1
  Ge  Ge4  1  0.30888736  0.83159229  0.49703313  1
  Ge  Ge5  1  0.16840144  0.47729297  0.49701962  1
  Ge  Ge6  1  0.83159255  0.30888732  0.49703293  1
  Ge  Ge7  1  0.47729280  0.16840092  0.49701932  1
  Ge  Ge8  1  0.69110493  0.52270293  0.49702209  1
  Ge  Ge9  1  0.17428892  0.00000416  0.00104278  1
  Ge  Ge10  1  0.00000439  0.17428913  0.00104270  1
  Ge  Ge11  1  0.82570647  0.82570662  0.00104796  1
  Ge  Ge12  1  -0.00000067  -0.00000063  0.97576174  1
loop_
_geom_bond_atom_site_label_1
_geom_bond_atom_site_label_2
_geom_bond_distance
_geom_bond_site_symmetry_2
Ba0 Ge4 3.454212 1_556
Ba0 Ge5 3.454215 1_556
Ba0 Ge3 3.454258 1_556
Ba0 Ge4 3.455343 1_555
Ba0 Ge3 3.455441 1_555
Ba0 Ge5 3.455488 1_555
Ba0 Mg5 3.677168 1_556
Ba0 Mg3 3.677261 1_556
Ba0 Mg4 3.677302 1_556
Ba0 Mg4 3.685422 1_555
Ba0 Mg5 3.685579 1_555
Ba0 Mg3 3.685613 1_555
Ba0 Mg12 3.696448 1_555
Ba0 Mg14 3.696506 1_555
Ba0 Mg13 3.696631 1_555
Ba1 Ge6 3.454213 1_556
Ba1 Ge7 3.454216 1_556
Ba1 Ge8 3.454258 1_556
Ba1 Ge6 3.455346 1_555
Ba1 Ge8 3.455445 1_555
Ba1 Ge7 3.455491 1_555
Ba1 Mg7 3.677171 1_556
Ba1 Mg8 3.677264 1_556
Ba1 Mg6 3.677304 1_556
Ba1 Mg6 3.685420 1_555
Ba1 Mg7 3.685580 1_555
Ba1 Mg8 3.685615 1_555
Ba1 Mg10 3.696448 1_555
Ba1 Mg9 3.696505 1_555
Ba1 Mg11 3.696632 1_555
Ba2 Ge12 3.406292 1_655
Ba2 Ge11 3.423742 1_545
Ba2 Ge10 3.423774 1_655
Ba2 Ge11 3.452256 1_546
Ba2 Ge10 3.452321 1_656
Ba2 Ge12 3.526396 1_654
Ba2 Ge0 3.606127 1_554
Ba2 Ge0 3.607417 1_555
Ba2 Mg16 3.627227 1_655
Ba2 Mg17 3.627295 1_545
Ba2 Mg9 3.665160 1_554
Ba2 Mg12 3.665240 1_544
Ba2 Mg12 3.670322 1_545
Ba2 Mg9 3.670547 1_555
Ba2 Mg3 3.892293 1_545
Ba2 Mg6 3.892494 1_555
Ba3 Ge12 3.406295 1_565
Ba3 Ge11 3.423743 1_455
Ba3 Ge9 3.423773 1_565
Ba3 Ge11 3.452259 1_456
Ba3 Ge9 3.452323 1_566
Ba3 Ge12 3.526397 1_564
Ba3 Ge1 3.606126 1_554
Ba3 Ge1 3.607419 1_555
Ba3 Mg15 3.627227 1_565
Ba3 Mg17 3.627293 1_455
Ba3 Mg14 3.665160 1_554
Ba3 Mg10 3.665240 1_454
Ba3 Mg10 3.670319 1_455
Ba3 Mg14 3.670550 1_555
Ba3 Mg8 3.892288 1_455
Ba3 Mg4 3.892497 1_555
Ba4 Ge12 3.406291 1_555
Ba4 Ge10 3.423708 1_555
Ba4 Ge9 3.423714 1_555
Ba4 Ge10 3.452238 1_556
Ba4 Ge9 3.452244 1_556
Ba4 Ge12 3.526413 1_554
Ba4 Ge2 3.606116 1_554
Ba4 Ge2 3.607472 1_555
Ba4 Mg16 3.627324 1_555
Ba4 Mg15 3.627333 1_555
Ba4 Mg13 3.665097 1_554
Ba4 Mg11 3.665103 1_554
Ba4 Mg13 3.670335 1_555
Ba4 Mg11 3.670341 1_555
Ba4 Mg5 3.892295 1_555
Ba4 Mg7 3.892297 1_555
Ge0 Mg0 2.752539 1_556
Ge0 Mg3 2.838661 1_546
Ge0 Mg6 2.838982 1_556
Ge0 Mg6 2.843935 1_555
Ge0 Mg3 2.844072 1_545
Ge0 Mg12 2.868434 1_545
Ge0 Mg9 2.868453 1_555
Ge1 Mg1 2.752536 1_556
Ge1 Mg8 2.838662 1_456
Ge1 Mg4 2.838979 1_556
Ge1 Mg4 2.843938 1_555
Ge1 Mg8 2.844070 1_455
Ge1 Mg10 2.868437 1_455
Ge1 Mg14 2.868451 1_555
Ge2 Mg2 2.752497 1_556
Ge2 Mg5 2.838834 1_556
Ge2 Mg7 2.838835 1_556
Ge2 Mg7 2.844122 1_555
Ge2 Mg5 2.844123 1_555
Ge2 Mg13 2.868460 1_555
Ge2 Mg11 2.868462 1_555
Ge3 Mg17 2.688621 1_555
Ge3 Mg12 2.743553 1_554
Ge3 Mg12 2.744536 1_555
Ge3 Mg5 2.765511 1_555
Ge3 Mg3 2.784487 1_555
Ge3 Mg2 3.163153 1_555
Ge3 Mg2 3.211805 1_556
Ge4 Mg15 2.688671 1_565
Ge4 Mg14 2.743448 1_554
Ge4 Mg14 2.744618 1_555
Ge4 Mg3 2.765591 1_555
Ge4 Mg4 2.784315 1_555
Ge4 Mg0 3.163465 1_565
Ge4 Mg0 3.212142 1_566
Ge5 Mg16 2.688700 1_555
Ge5 Mg13 2.743602 1_554
Ge5 Mg13 2.744616 1_555
Ge5 Mg4 2.765471 1_555
Ge5 Mg5 2.784197 1_555
Ge5 Mg1 3.162881 1_555
Ge5 Mg1 3.211585 1_556
Ge6 Mg16 2.688669 1_655
Ge6 Mg9 2.743446 1_554
Ge6 Mg9 2.744617 1_555
Ge6 Mg8 2.765593 1_555
Ge6 Mg6 2.784318 1_555
Ge6 Mg1 3.163463 1_655
Ge6 Mg1 3.212142 1_656
Ge7 Mg15 2.688700 1_555
Ge7 Mg11 2.743602 1_554
Ge7 Mg11 2.744618 1_555
Ge7 Mg6 2.765472 1_555
Ge7 Mg7 2.784201 1_555
Ge7 Mg0 3.162876 1_555
Ge7 Mg0 3.211582 1_556
Ge8 Mg17 2.688622 1_555
Ge8 Mg10 2.743553 1_554
Ge8 Mg10 2.744535 1_555
Ge8 Mg7 2.765513 1_555
Ge8 Mg8 2.784487 1_555
Ge8 Mg2 3.163152 1_555
Ge8 Mg2 3.211807 1_556
Ge9 Mg15 2.752320 1_555
Ge9 Mg15 2.756445 1_554
Ge9 Mg11 2.800773 1_554
Ge9 Mg14 2.800949 1_544
Ge10 Ge12 2.559133 1_554
Ge10 Mg16 2.752320 1_555
Ge10 Mg16 2.756444 1_554
Ge10 Mg13 2.800771 1_554
Ge10 Mg9 2.800949 1_454
Ge11 Ge12 2.559180 1_664
Ge11 Mg17 2.752321 1_555
Ge11 Mg17 2.756476 1_554
Ge11 Mg12 2.800927 1_554
Ge11 Mg10 2.800934 1_554
Ge12 Ge9 2.559133 1_556
