# generated using pymatgen
data_Nb2WO8
_symmetry_space_group_name_H-M   'P 1'
_cell_length_a   10.58364383
_cell_length_b   10.58364383
_cell_length_c   5.16482054
_cell_angle_alpha   89.02866521
_cell_angle_beta   89.02866521
_cell_angle_gamma   34.22634905
_symmetry_Int_Tables_number   1
_chemical_formula_structural   Nb2WO8
_chemical_formula_sum   'Nb4 W2 O16'
_cell_volume   325.35075441
_cell_formula_units_Z   2
loop_
 _symmetry_equiv_pos_site_id
 _symmetry_equiv_pos_as_xyz
  1  'x, y, z'
loop_
 _atom_site_type_symbol
 _atom_site_label
 _atom_site_symmetry_multiplicity
 _atom_site_fract_x
 _atom_site_fract_y
 _atom_site_fract_z
 _atom_site_occupancy
  Nb  Nb0  1  0.68947300  0.04671400  0.73985100  1
  Nb  Nb1  1  0.95328600  0.31052700  0.76014900  1
  Nb  Nb2  1  0.31052700  0.95328600  0.26014900  1
  Nb  Nb3  1  0.04671400  0.68947300  0.23985100  1
  W  W0  1  0.34391600  0.65608400  0.75000000  1
  W  W1  1  0.65608400  0.34391600  0.25000000  1
  O  O0  1  0.78146600  0.10441600  0.41527700  1
  O  O1  1  0.89558400  0.21853400  0.08472300  1
  O  O2  1  0.21853400  0.89558400  0.58472300  1
  O  O3  1  0.10441600  0.78146600  0.91527700  1
  O  O4  1  0.55738900  0.34014500  0.93224400  1
  O  O5  1  0.65985500  0.44261100  0.56775600  1
  O  O6  1  0.44261100  0.65985500  0.06775600  1
  O  O7  1  0.34014500  0.55738900  0.43224400  1
  O  O8  1  0.75663500  0.92062500  0.07125500  1
  O  O9  1  0.07937500  0.24336500  0.42874500  1
  O  O10  1  0.18910300  0.43766800  0.14035000  1
  O  O11  1  0.56233200  0.81089700  0.35965000  1
  O  O12  1  0.81089700  0.56233200  0.85965000  1
  O  O13  1  0.43766800  0.18910300  0.64035000  1
  O  O14  1  0.92062500  0.75663500  0.57125500  1
  O  O15  1  0.24336500  0.07937500  0.92874500  1
loop_
_geom_bond_atom_site_label_1
_geom_bond_atom_site_label_2
_geom_bond_distance
_geom_bond_site_symmetry_2
Nb0 O13 1.736752 1_555
Nb0 O8 1.900270 1_546
Nb0 O14 1.940877 1_545
Nb0 O0 2.241492 1_555
Nb0 O4 2.337651 1_555
Nb1 O12 1.736752 1_555
Nb1 O9 1.900270 1_655
Nb1 O15 1.940877 1_655
Nb1 O1 2.241492 1_556
Nb1 O5 2.337651 1_555
Nb2 O11 1.736752 1_555
Nb2 O15 1.900270 1_564
Nb2 O9 1.940877 1_565
Nb2 O2 2.241492 1_555
Nb2 O6 2.337651 1_555
Nb3 O10 1.736752 1_555
Nb3 O14 1.900270 1_455
Nb3 O8 1.940877 1_455
Nb3 O3 2.241492 1_554
Nb3 O7 2.337651 1_555
O0 W1 1.821397 1_555
O1 W1 1.821397 1_555
O2 W0 1.821397 1_555
O3 W0 1.821397 1_555
O4 W1 1.978723 1_556
O4 W0 2.155001 1_555
O5 W1 1.978723 1_555
O5 W0 2.155001 1_555
O6 W0 1.978723 1_554
O6 W1 2.155001 1_555
O7 W0 1.978723 1_555
O7 W1 2.155001 1_555
