# generated using pymatgen
data_Y5Mg
_symmetry_space_group_name_H-M   'P 1'
_cell_length_a   13.50300072
_cell_length_b   13.50300072
_cell_length_c   16.77527310
_cell_angle_alpha   74.88489250
_cell_angle_beta   74.88489250
_cell_angle_gamma   31.20748470
_symmetry_Int_Tables_number   1
_chemical_formula_structural   Y5Mg
_chemical_formula_sum   'Y40 Mg8'
_cell_volume   1525.61926692
_cell_formula_units_Z   8
loop_
 _symmetry_equiv_pos_site_id
 _symmetry_equiv_pos_as_xyz
  1  'x, y, z'
loop_
 _atom_site_type_symbol
 _atom_site_label
 _atom_site_symmetry_multiplicity
 _atom_site_fract_x
 _atom_site_fract_y
 _atom_site_fract_z
 _atom_site_occupancy
  Y  Y0_0  1  0.00056544  0.00056544  0.00596392  1
  Y  Y0_1  1  0.00056544  0.00056544  0.50596391  1
  Y  Y0_2  1  0.00056544  0.50056544  0.00596391  1
  Y  Y0_3  1  0.00056544  0.50056544  0.50596391  1
  Y  Y0_4  1  0.50056544  0.00056544  0.00596391  1
  Y  Y0_5  1  0.50056544  0.00056544  0.50596391  1
  Y  Y0_6  1  0.50056544  0.50056544  0.00596392  1
  Y  Y0_7  1  0.50056544  0.50056544  0.50596392  1
  Y  Y1_0  1  0.15971192  0.15971192  0.16669505  1
  Y  Y1_1  1  0.15971192  0.15971192  0.66669505  1
  Y  Y1_2  1  0.15971192  0.65971192  0.16669505  1
  Y  Y1_3  1  0.15971192  0.65971192  0.66669505  1
  Y  Y1_4  1  0.65971192  0.15971192  0.16669505  1
  Y  Y1_5  1  0.65971192  0.15971192  0.66669505  1
  Y  Y1_6  1  0.65971192  0.65971192  0.16669505  1
  Y  Y1_7  1  0.65971192  0.65971192  0.66669506  1
  Y  Y2_0  1  0.47626299  0.47626299  0.29818828  1
  Y  Y2_1  1  0.47626300  0.47626300  0.79818828  1
  Y  Y2_2  1  0.47626299  0.97626300  0.29818828  1
  Y  Y2_3  1  0.47626300  0.97626300  0.79818828  1
  Y  Y2_4  1  0.97626300  0.47626299  0.29818828  1
  Y  Y2_5  1  0.97626300  0.47626300  0.79818828  1
  Y  Y2_6  1  0.97626300  0.97626300  0.29818828  1
  Y  Y2_7  1  0.97626300  0.97626300  0.79818829  1
  Y  Y3_0  1  0.33533303  0.33533303  0.33598376  1
  Y  Y3_1  1  0.33533303  0.33533303  0.83598376  1
  Y  Y3_2  1  0.33533303  0.83533303  0.33598376  1
  Y  Y3_3  1  0.33533303  0.83533303  0.83598376  1
  Y  Y3_4  1  0.83533303  0.33533303  0.33598376  1
  Y  Y3_5  1  0.83533303  0.33533302  0.83598376  1
  Y  Y3_6  1  0.83533303  0.83533303  0.33598376  1
  Y  Y3_7  1  0.83533303  0.83533303  0.83598376  1
  Y  Y4_0  1  0.14036206  0.14036206  0.47111174  1
  Y  Y4_1  1  0.14036206  0.14036206  0.97111174  1
  Y  Y4_2  1  0.14036206  0.64036206  0.47111175  1
  Y  Y4_3  1  0.14036206  0.64036206  0.97111174  1
  Y  Y4_4  1  0.64036206  0.14036206  0.47111175  1
  Y  Y4_5  1  0.64036206  0.14036206  0.97111174  1
  Y  Y4_6  1  0.64036206  0.64036206  0.47111174  1
  Y  Y4_7  1  0.64036206  0.64036206  0.97111174  1
  Mg  Mg0_0  1  0.30443056  0.30443056  0.13872373  1
  Mg  Mg0_1  1  0.30443056  0.30443056  0.63872374  1
  Mg  Mg0_2  1  0.30443056  0.80443056  0.13872373  1
  Mg  Mg0_3  1  0.30443056  0.80443056  0.63872373  1
  Mg  Mg0_4  1  0.80443056  0.30443056  0.13872373  1
  Mg  Mg0_5  1  0.80443056  0.30443056  0.63872373  1
  Mg  Mg0_6  1  0.80443056  0.80443056  0.13872373  1
  Mg  Mg0_7  1  0.80443056  0.80443056  0.63872374  1
loop_
_geom_bond_atom_site_label_1
_geom_bond_atom_site_label_2
_geom_bond_distance
_geom_bond_site_symmetry_2
Y0_0 Y4_1 3.523165 1_554
Y0_0 Y1_2 3.564048 1_545
Y0_0 Y1_4 3.564048 1_455
Y0_0 Y4_3 3.572659 1_544
Y0_0 Y4_5 3.572659 1_454
Y0_0 Y3_5 3.589702 1_454
Y0_0 Y3_3 3.589702 1_544
Y0_0 Y0_6 3.632074 1_455
Y0_0 Y0_6 3.632074 1_545
Y0_0 Y2_7 3.706919 1_444
Y0_1 Y4_0 3.523165 1_555
Y0_1 Y1_3 3.564048 1_545
Y0_1 Y1_5 3.564048 1_455
Y0_1 Y4_2 3.572659 1_545
Y0_1 Y4_4 3.572659 1_455
Y0_1 Y3_4 3.589702 1_455
Y0_1 Y3_2 3.589702 1_545
Y0_1 Y0_7 3.632074 1_455
Y0_1 Y0_7 3.632074 1_545
Y0_1 Y2_6 3.706919 1_445
Y0_2 Y4_3 3.523165 1_554
Y0_2 Y1_6 3.564048 1_455
Y0_2 Y1_0 3.564048 1_555
Y0_2 Y4_7 3.572659 1_454
Y0_2 Y4_1 3.572659 1_554
Y0_2 Y3_1 3.589702 1_554
Y0_2 Y3_7 3.589702 1_454
Y0_2 Y0_4 3.632074 1_465
Y0_2 Y0_4 3.632074 1_555
Y0_2 Y2_5 3.706919 1_454
Y0_3 Y4_2 3.523165 1_555
Y0_3 Y1_1 3.564048 1_555
Y0_3 Y1_7 3.564048 1_455
Y0_3 Y4_6 3.572659 1_455
Y0_3 Y4_0 3.572659 1_555
Y0_3 Y3_0 3.589702 1_555
Y0_3 Y3_6 3.589702 1_455
Y0_3 Y0_5 3.632074 1_465
Y0_3 Y0_5 3.632074 1_555
Y0_3 Y2_4 3.706919 1_455
Y0_4 Y4_5 3.523165 1_554
Y0_4 Y1_6 3.564048 1_545
Y0_4 Y1_0 3.564048 1_555
Y0_4 Y4_7 3.572659 1_544
Y0_4 Y4_1 3.572659 1_554
Y0_4 Y3_1 3.589702 1_554
Y0_4 Y3_7 3.589702 1_544
Y0_4 Y2_3 3.706919 1_544
Y0_5 Y4_4 3.523165 1_555
Y0_5 Y1_1 3.564048 1_555
Y0_5 Y1_7 3.564048 1_545
Y0_5 Y4_6 3.572659 1_545
Y0_5 Y4_0 3.572659 1_555
Y0_5 Y3_0 3.589702 1_555
Y0_5 Y3_6 3.589702 1_545
Y0_5 Y2_2 3.706919 1_545
Y0_6 Y4_7 3.523165 1_554
Y0_6 Y1_2 3.564048 1_555
Y0_6 Y1_4 3.564048 1_555
Y0_6 Y4_3 3.572659 1_554
Y0_6 Y4_5 3.572659 1_554
Y0_6 Y3_5 3.589702 1_554
Y0_6 Y3_3 3.589702 1_554
Y0_6 Y2_1 3.706919 1_554
Y0_7 Y4_6 3.523165 1_555
Y0_7 Y1_3 3.564048 1_555
Y0_7 Y1_5 3.564048 1_555
Y0_7 Y4_2 3.572659 1_555
Y0_7 Y4_4 3.572659 1_555
Y0_7 Y3_4 3.589702 1_555
Y0_7 Y3_2 3.589702 1_555
Y0_7 Y2_0 3.706919 1_555
Y1_0 Y4_1 3.451403 1_554
Y1_0 Y3_2 3.482922 1_545
Y1_0 Y3_4 3.482922 1_455
Y1_0 Y1_6 3.632074 1_545
Y1_0 Y1_6 3.632074 1_455
Y1_0 Y2_4 3.636998 1_455
Y1_0 Y2_2 3.636998 1_545
Y1_1 Y4_0 3.451403 1_555
Y1_1 Y3_3 3.482922 1_545
Y1_1 Y3_5 3.482922 1_455
Y1_1 Y1_7 3.632074 1_545
Y1_1 Y1_7 3.632074 1_455
Y1_1 Y2_3 3.636998 1_545
Y1_1 Y2_5 3.636998 1_455
Y1_2 Y4_3 3.451403 1_554
Y1_2 Y3_6 3.482922 1_455
Y1_2 Y3_0 3.482922 1_555
Y1_2 Y1_4 3.632074 1_465
Y1_2 Y1_4 3.632074 1_555
Y1_2 Y2_0 3.636998 1_555
Y1_2 Y2_6 3.636998 1_455
Y1_3 Y4_2 3.451403 1_555
Y1_3 Y3_7 3.482922 1_455
Y1_3 Y3_1 3.482922 1_555
Y1_3 Y1_5 3.632074 1_555
Y1_3 Y1_5 3.632074 1_465
Y1_3 Y2_1 3.636998 1_555
Y1_3 Y2_7 3.636998 1_455
Y1_4 Y4_5 3.451403 1_554
Y1_4 Y3_6 3.482922 1_545
Y1_4 Y3_0 3.482922 1_555
Y1_4 Y2_0 3.636998 1_555
Y1_4 Y2_6 3.636998 1_545
Y1_5 Y4_4 3.451403 1_555
Y1_5 Y3_7 3.482922 1_545
Y1_5 Y3_1 3.482922 1_555
Y1_5 Y2_1 3.636998 1_555
Y1_5 Y2_7 3.636998 1_545
Y1_6 Y4_7 3.451403 1_554
Y1_6 Y3_2 3.482922 1_555
Y1_6 Y3_4 3.482922 1_555
Y1_6 Y2_4 3.636998 1_555
Y1_6 Y2_2 3.636998 1_555
Y1_7 Y4_6 3.451403 1_555
Y1_7 Y3_3 3.482922 1_555
Y1_7 Y3_5 3.482922 1_555
Y1_7 Y2_3 3.636998 1_555
Y1_7 Y2_5 3.636998 1_555
Y2_0 Y3_0 3.546940 1_555
Y2_0 Y3_4 3.566854 1_555
Y2_0 Y3_2 3.566854 1_555
Y2_0 Y2_6 3.632074 1_455
Y2_0 Y2_6 3.632074 1_545
Y2_0 Y4_4 3.632574 1_555
Y2_0 Y4_2 3.632574 1_555
Y2_1 Y3_1 3.546940 1_555
Y2_1 Y3_5 3.566854 1_555
Y2_1 Y3_3 3.566854 1_555
Y2_1 Y2_7 3.632074 1_545
Y2_1 Y2_7 3.632074 1_455
Y2_1 Y4_3 3.632574 1_555
Y2_1 Y4_5 3.632574 1_555
Y2_2 Y3_2 3.546940 1_555
Y2_2 Y3_0 3.566854 1_565
Y2_2 Y3_6 3.566854 1_555
Y2_2 Y2_4 3.632074 1_465
Y2_2 Y2_4 3.632074 1_555
Y2_2 Y4_6 3.632574 1_555
Y2_2 Y4_0 3.632574 1_565
Y2_3 Y3_3 3.546940 1_555
Y2_3 Y3_7 3.566854 1_555
Y2_3 Y3_1 3.566854 1_565
Y2_3 Y2_5 3.632074 1_465
Y2_3 Y2_5 3.632074 1_555
Y2_3 Y4_1 3.632574 1_565
Y2_3 Y4_7 3.632574 1_555
Y2_4 Y3_4 3.546940 1_555
Y2_4 Y3_0 3.566854 1_655
Y2_4 Y3_6 3.566854 1_555
Y2_4 Y4_6 3.632574 1_555
Y2_4 Y4_0 3.632574 1_655
Y2_5 Y3_5 3.546940 1_555
Y2_5 Y3_7 3.566854 1_555
Y2_5 Y3_1 3.566854 1_655
Y2_5 Y4_7 3.632574 1_555
Y2_5 Y4_1 3.632574 1_655
Y2_6 Y3_6 3.546940 1_555
Y2_6 Y3_2 3.566854 1_655
Y2_6 Y3_4 3.566854 1_565
Y2_6 Y4_4 3.632574 1_565
Y2_6 Y4_2 3.632574 1_655
Y2_7 Y3_7 3.546940 1_555
Y2_7 Y3_5 3.566854 1_565
Y2_7 Y3_3 3.566854 1_655
Y2_7 Y4_3 3.632574 1_655
Y2_7 Y4_5 3.632574 1_565
Y3_0 Y4_4 3.498859 1_555
Y3_0 Y4_2 3.498859 1_555
Y3_0 Y3_6 3.632074 1_545
Y3_0 Y3_6 3.632074 1_455
Y3_1 Y4_5 3.498859 1_555
Y3_1 Y4_3 3.498859 1_555
Y3_1 Y3_7 3.632074 1_545
Y3_1 Y3_7 3.632074 1_455
Y3_2 Y4_0 3.498859 1_565
Y3_2 Y4_6 3.498859 1_555
Y3_2 Y3_4 3.632074 1_465
Y3_2 Y3_4 3.632074 1_555
Y3_3 Y4_1 3.498859 1_565
Y3_3 Y4_7 3.498859 1_555
Y3_3 Y3_5 3.632074 1_465
Y3_3 Y3_5 3.632074 1_555
Y3_4 Y4_0 3.498859 1_655
Y3_4 Y4_6 3.498859 1_555
Y3_5 Y4_1 3.498859 1_655
Y3_5 Y4_7 3.498859 1_555
Y3_6 Y4_4 3.498859 1_565
Y3_6 Y4_2 3.498859 1_655
Y3_7 Y4_5 3.498859 1_565
Y3_7 Y4_3 3.498859 1_655
Y4_0 Y4_6 3.632074 1_455
Y4_0 Y4_6 3.632074 1_545
Y4_1 Y4_7 3.632074 1_545
Y4_1 Y4_7 3.632074 1_455
Y4_2 Y4_4 3.632074 1_465
Y4_2 Y4_4 3.632074 1_555
Y4_3 Y4_5 3.632074 1_465
Y4_3 Y4_5 3.632074 1_555
Mg0_0 Y2_2 3.412152 1_545
Mg0_0 Y2_4 3.412152 1_455
Mg0_0 Y1_4 3.422425 1_555
Mg0_0 Y1_2 3.422425 1_555
Mg0_0 Y0_2 3.451151 1_555
Mg0_0 Y0_4 3.451151 1_555
Mg0_0 Y4_5 3.577253 1_554
Mg0_0 Y4_3 3.577253 1_554
Mg0_0 Y3_0 3.610595 1_555
Mg0_0 Y1_0 3.665137 1_555
Mg0_1 Y2_3 3.412152 1_545
Mg0_1 Y2_5 3.412152 1_455
Mg0_1 Y1_5 3.422425 1_555
Mg0_1 Y1_3 3.422425 1_555
Mg0_1 Y0_3 3.451151 1_555
Mg0_1 Y0_5 3.451151 1_555
Mg0_1 Y4_4 3.577253 1_555
Mg0_1 Y4_2 3.577253 1_555
Mg0_1 Y3_1 3.610595 1_555
Mg0_1 Y1_1 3.665137 1_555
Mg0_2 Y2_6 3.412152 1_455
Mg0_2 Y2_0 3.412152 1_555
Mg0_2 Y1_0 3.422425 1_565
Mg0_2 Y1_6 3.422425 1_555
Mg0_2 Y0_6 3.451151 1_555
Mg0_2 Y0_0 3.451151 1_565
Mg0_2 Y4_1 3.577253 1_564
Mg0_2 Y4_7 3.577253 1_554
Mg0_2 Y3_2 3.610595 1_555
Mg0_2 Y1_2 3.665137 1_555
Mg0_3 Y2_1 3.412152 1_555
Mg0_3 Y2_7 3.412152 1_455
Mg0_3 Y1_1 3.422425 1_565
Mg0_3 Y1_7 3.422425 1_555
Mg0_3 Y0_7 3.451151 1_555
Mg0_3 Y0_1 3.451151 1_565
Mg0_3 Y4_0 3.577253 1_565
Mg0_3 Y4_6 3.577253 1_555
Mg0_3 Y3_3 3.610595 1_555
Mg0_3 Y1_3 3.665137 1_555
Mg0_4 Y2_6 3.412152 1_545
Mg0_4 Y2_0 3.412152 1_555
Mg0_4 Y1_0 3.422425 1_655
Mg0_4 Y1_6 3.422425 1_555
Mg0_4 Y0_6 3.451151 1_555
Mg0_4 Y0_0 3.451151 1_655
Mg0_4 Y4_1 3.577253 1_654
Mg0_4 Y4_7 3.577253 1_554
Mg0_4 Y3_4 3.610595 1_555
Mg0_4 Y1_4 3.665137 1_555
Mg0_5 Y2_1 3.412152 1_555
Mg0_5 Y2_7 3.412152 1_545
Mg0_5 Y1_1 3.422425 1_655
Mg0_5 Y1_7 3.422425 1_555
Mg0_5 Y0_7 3.451151 1_555
Mg0_5 Y0_1 3.451151 1_655
Mg0_5 Y4_0 3.577253 1_655
Mg0_5 Y4_6 3.577253 1_555
Mg0_5 Y3_5 3.610595 1_555
Mg0_5 Y1_5 3.665137 1_555
Mg0_6 Y2_2 3.412152 1_555
Mg0_6 Y2_4 3.412152 1_555
Mg0_6 Y1_4 3.422425 1_565
Mg0_6 Y1_2 3.422425 1_655
Mg0_6 Y0_4 3.451151 1_565
Mg0_6 Y0_2 3.451151 1_655
Mg0_6 Y4_5 3.577253 1_564
Mg0_6 Y4_3 3.577253 1_654
Mg0_6 Y3_6 3.610595 1_555
Mg0_6 Y1_6 3.665137 1_555
Mg0_7 Y2_5 3.412152 1_555
Mg0_7 Y2_3 3.412152 1_555
Mg0_7 Y1_5 3.422425 1_565
Mg0_7 Y1_3 3.422425 1_655
Mg0_7 Y0_3 3.451151 1_655
Mg0_7 Y0_5 3.451151 1_565
Mg0_7 Y4_2 3.577253 1_655
Mg0_7 Y4_4 3.577253 1_565
Mg0_7 Y3_7 3.610595 1_555
Mg0_7 Y1_7 3.665137 1_555
