# generated using pymatgen
data_CaMg6AlO8
_symmetry_space_group_name_H-M   'P 1'
_cell_length_a   8.69670014
_cell_length_b   4.40303835
_cell_length_c   4.40303835
_cell_angle_alpha   90.00000000
_cell_angle_beta   90.00000000
_cell_angle_gamma   90.00000000
_symmetry_Int_Tables_number   1
_chemical_formula_structural   CaMg6AlO8
_chemical_formula_sum   'Ca1 Mg6 Al1 O8'
_cell_volume   168.60072284
_cell_formula_units_Z   1
loop_
 _symmetry_equiv_pos_site_id
 _symmetry_equiv_pos_as_xyz
  1  'x, y, z'
loop_
 _atom_site_type_symbol
 _atom_site_label
 _atom_site_symmetry_multiplicity
 _atom_site_fract_x
 _atom_site_fract_y
 _atom_site_fract_z
 _atom_site_occupancy
  Ca  Ca0  1  0.00000000  0.50000000  0.50000000  1
  Mg  Mg0  1  0.50000000  0.00000000  0.00000000  1
  Mg  Mg1  1  0.50000000  0.50000000  0.50000000  1
  Mg  Mg2  1  0.25807219  -0.00000000  0.50000000  1
  Mg  Mg3  1  0.74192781  0.00000000  0.50000000  1
  Mg  Mg4  1  0.25807219  0.50000000  -0.00000000  1
  Mg  Mg5  1  0.74192781  0.50000000  0.00000000  1
  Al  Al0  1  0.00000000  0.00000000  0.00000000  1
  O  O0  1  0.24834561  0.00000000  -0.00000000  1
  O  O1  1  0.75165439  -0.00000000  0.00000000  1
  O  O2  1  0.26464525  0.50000000  0.50000000  1
  O  O3  1  0.73535475  0.50000000  0.50000000  1
  O  O4  1  0.00000000  0.00000000  0.50000000  1
  O  O5  1  0.50000000  0.00000000  0.50000000  1
  O  O6  1  0.00000000  0.50000000  0.00000000  1
  O  O7  1  0.50000000  0.50000000  0.00000000  1
loop_
_geom_bond_atom_site_label_1
_geom_bond_atom_site_label_2
_geom_bond_distance
_geom_bond_site_symmetry_2
Ca0 O6 2.201519 1_556
Ca0 O6 2.201519 1_555
Ca0 O4 2.201519 1_555
Ca0 O4 2.201519 1_565
Ca0 O3 2.301540 1_455
Ca0 O2 2.301540 1_555
Mg0 O0 2.188563 1_555
Mg0 O1 2.188563 1_555
Mg0 O5 2.201519 1_554
Mg0 O7 2.201519 1_555
Mg0 O5 2.201519 1_555
Mg0 O7 2.201519 1_545
Mg1 O2 2.046810 1_555
Mg1 O3 2.046810 1_555
Mg1 O7 2.201519 1_555
Mg1 O7 2.201519 1_556
Mg1 O5 2.201519 1_555
Mg1 O5 2.201519 1_565
Mg2 O5 2.103974 1_555
Mg2 O2 2.202261 1_555
Mg2 O2 2.202261 1_545
Mg2 O0 2.203144 1_555
Mg2 O0 2.203144 1_556
Mg2 O4 2.244376 1_555
Mg3 O5 2.103974 1_555
Mg3 O3 2.202261 1_545
Mg3 O3 2.202261 1_555
Mg3 O1 2.203144 1_555
Mg3 O1 2.203144 1_556
Mg3 O4 2.244376 1_655
Mg4 O7 2.103974 1_555
Mg4 O2 2.202261 1_554
Mg4 O2 2.202261 1_555
Mg4 O0 2.203144 1_555
Mg4 O0 2.203144 1_565
Mg4 O6 2.244376 1_555
Mg5 O7 2.103974 1_555
Mg5 O3 2.202261 1_555
Mg5 O3 2.202261 1_554
Mg5 O1 2.203144 1_555
Mg5 O1 2.203144 1_565
Mg5 O6 2.244376 1_655
Al0 O1 2.159787 1_455
Al0 O0 2.159787 1_555
Al0 O6 2.201519 1_555
Al0 O4 2.201519 1_554
Al0 O4 2.201519 1_555
Al0 O6 2.201519 1_545
