# generated using pymatgen
data_Ta2MoO8
_symmetry_space_group_name_H-M   'P 1'
_cell_length_a   10.44203681
_cell_length_b   10.44203681
_cell_length_c   5.14678648
_cell_angle_alpha   89.22910948
_cell_angle_beta   89.22910948
_cell_angle_gamma   34.03254472
_symmetry_Int_Tables_number   1
_chemical_formula_structural   Ta2MoO8
_chemical_formula_sum   'Ta4 Mo2 O16'
_cell_volume   314.04418088
_cell_formula_units_Z   2
loop_
 _symmetry_equiv_pos_site_id
 _symmetry_equiv_pos_as_xyz
  1  'x, y, z'
loop_
 _atom_site_type_symbol
 _atom_site_label
 _atom_site_symmetry_multiplicity
 _atom_site_fract_x
 _atom_site_fract_y
 _atom_site_fract_z
 _atom_site_occupancy
  Ta  Ta0  1  0.68589500  0.04911700  0.24867800  1
  Ta  Ta1  1  0.95088300  0.31410500  0.25132200  1
  Ta  Ta2  1  0.31410500  0.95088300  0.75132200  1
  Ta  Ta3  1  0.04911700  0.68589500  0.74867800  1
  Mo  Mo0  1  0.33976000  0.66024000  0.25000000  1
  Mo  Mo1  1  0.66024000  0.33976000  0.75000000  1
  O  O0  1  0.78338600  0.10151200  0.91955000  1
  O  O1  1  0.89848800  0.21661400  0.58045000  1
  O  O2  1  0.21661400  0.89848800  0.08045000  1
  O  O3  1  0.10151200  0.78338600  0.41955000  1
  O  O4  1  0.56417200  0.33133000  0.43105900  1
  O  O5  1  0.66867000  0.43582800  0.06894100  1
  O  O6  1  0.43582800  0.66867000  0.56894100  1
  O  O7  1  0.33133000  0.56417200  0.93105900  1
  O  O8  1  0.76003000  0.91602600  0.57690100  1
  O  O9  1  0.08397400  0.23997000  0.92309900  1
  O  O10  1  0.20390000  0.42396000  0.64615500  1
  O  O11  1  0.57604000  0.79610000  0.85384500  1
  O  O12  1  0.79610000  0.57604000  0.35384500  1
  O  O13  1  0.42396000  0.20390000  0.14615500  1
  O  O14  1  0.91602600  0.76003000  0.07690100  1
  O  O15  1  0.23997000  0.08397400  0.42309900  1
loop_
_geom_bond_atom_site_label_1
_geom_bond_atom_site_label_2
_geom_bond_distance
_geom_bond_site_symmetry_2
Mo0 O2 1.809337 1_555
Mo0 O3 1.809337 1_555
Mo0 O6 1.975651 1_555
Mo0 O7 1.975651 1_554
Mo0 O4 2.188297 1_555
Mo0 O5 2.188297 1_555
Mo1 O1 1.809337 1_555
Mo1 O0 1.809337 1_555
Mo1 O5 1.975651 1_556
Mo1 O4 1.975651 1_555
Mo1 O7 2.188297 1_555
Mo1 O6 2.188297 1_555
O0 Ta0 2.248761 1_556
O1 Ta1 2.248761 1_555
O2 Ta2 2.248761 1_554
O3 Ta3 2.248761 1_555
O4 Ta0 2.239415 1_555
O5 Ta1 2.239415 1_555
O6 Ta2 2.239415 1_555
O7 Ta3 2.239415 1_555
O8 Ta0 1.890305 1_565
O8 Ta3 1.913160 1_655
O9 Ta1 1.890305 1_456
O9 Ta2 1.913160 1_545
O10 Ta3 1.749447 1_555
O11 Ta2 1.749447 1_555
O12 Ta1 1.749447 1_555
O13 Ta0 1.749447 1_555
O14 Ta3 1.890305 1_654
O14 Ta0 1.913160 1_565
O15 Ta2 1.890305 1_545
O15 Ta1 1.913160 1_455
