# generated using pymatgen
data_Tm6Al43Mo4
_symmetry_space_group_name_H-M   'P 1'
_cell_length_a   11.03127218
_cell_length_b   11.03127218
_cell_length_c   17.52411100
_cell_angle_alpha   90.00000000
_cell_angle_beta   90.00000000
_cell_angle_gamma   120.00000110
_symmetry_Int_Tables_number   1
_chemical_formula_structural   Tm6Al43Mo4
_chemical_formula_sum   'Tm12 Al86 Mo8'
_cell_volume   1846.79131334
_cell_formula_units_Z   2
loop_
 _symmetry_equiv_pos_site_id
 _symmetry_equiv_pos_as_xyz
  1  'x, y, z'
loop_
 _atom_site_type_symbol
 _atom_site_label
 _atom_site_symmetry_multiplicity
 _atom_site_fract_x
 _atom_site_fract_y
 _atom_site_fract_z
 _atom_site_occupancy
  Tm  Tm0  1  0.46892400  0.46892400  0.90474000  1
  Tm  Tm1  1  0.53107600  0.00000000  0.90474000  1
  Tm  Tm2  1  0.00000000  0.53107600  0.90474000  1
  Tm  Tm3  1  0.53107600  0.53107600  0.09526000  1
  Tm  Tm4  1  0.46892400  0.00000000  0.09526000  1
  Tm  Tm5  1  0.00000000  0.46892400  0.09526000  1
  Tm  Tm6  1  0.53107600  0.53107600  0.40474000  1
  Tm  Tm7  1  0.46892400  0.00000000  0.40474000  1
  Tm  Tm8  1  0.00000000  0.46892400  0.40474000  1
  Tm  Tm9  1  0.46892400  0.46892400  0.59526000  1
  Tm  Tm10  1  0.53107600  0.00000000  0.59526000  1
  Tm  Tm11  1  0.00000000  0.53107600  0.59526000  1
  Al  Al0  1  0.84188700  0.23671200  0.83674800  1
  Al  Al1  1  0.76328800  0.60517500  0.83674800  1
  Al  Al2  1  0.39482500  0.15811300  0.83674800  1
  Al  Al3  1  0.23671200  0.84188700  0.83674800  1
  Al  Al4  1  0.60517500  0.76328800  0.83674800  1
  Al  Al5  1  0.15811300  0.39482500  0.83674800  1
  Al  Al6  1  0.15811300  0.76328800  0.16325200  1
  Al  Al7  1  0.23671200  0.39482500  0.16325200  1
  Al  Al8  1  0.60517500  0.84188700  0.16325200  1
  Al  Al9  1  0.76328800  0.15811300  0.16325200  1
  Al  Al10  1  0.39482500  0.23671200  0.16325200  1
  Al  Al11  1  0.84188700  0.60517500  0.16325200  1
  Al  Al12  1  0.15811300  0.76328800  0.33674800  1
  Al  Al13  1  0.23671200  0.39482500  0.33674800  1
  Al  Al14  1  0.60517500  0.84188700  0.33674800  1
  Al  Al15  1  0.76328800  0.15811300  0.33674800  1
  Al  Al16  1  0.39482500  0.23671200  0.33674800  1
  Al  Al17  1  0.84188700  0.60517500  0.33674800  1
  Al  Al18  1  0.84188700  0.23671200  0.66325200  1
  Al  Al19  1  0.76328800  0.60517500  0.66325200  1
  Al  Al20  1  0.39482500  0.15811300  0.66325200  1
  Al  Al21  1  0.23671200  0.84188700  0.66325200  1
  Al  Al22  1  0.60517500  0.76328800  0.66325200  1
  Al  Al23  1  0.15811300  0.39482500  0.66325200  1
  Al  Al24  1  0.84070600  0.84070600  0.38530500  1
  Al  Al25  1  0.15929400  0.00000000  0.38530500  1
  Al  Al26  1  0.00000000  0.15929400  0.38530500  1
  Al  Al27  1  0.15929400  0.15929400  0.61469500  1
  Al  Al28  1  0.84070600  0.00000000  0.61469500  1
  Al  Al29  1  0.00000000  0.84070600  0.61469500  1
  Al  Al30  1  0.15929400  0.15929400  0.88530500  1
  Al  Al31  1  0.84070600  0.00000000  0.88530500  1
  Al  Al32  1  0.00000000  0.84070600  0.88530500  1
  Al  Al33  1  0.84070600  0.84070600  0.11469500  1
  Al  Al34  1  0.15929400  0.00000000  0.11469500  1
  Al  Al35  1  0.00000000  0.15929400  0.11469500  1
  Al  Al36  1  0.74538800  0.74538800  0.96950700  1
  Al  Al37  1  0.25461200  0.00000000  0.96950700  1
  Al  Al38  1  0.00000000  0.25461200  0.96950700  1
  Al  Al39  1  0.25461200  0.25461200  0.03049300  1
  Al  Al40  1  0.74538800  0.00000000  0.03049300  1
  Al  Al41  1  0.00000000  0.74538800  0.03049300  1
  Al  Al42  1  0.25461200  0.25461200  0.46950700  1
  Al  Al43  1  0.74538800  0.00000000  0.46950700  1
  Al  Al44  1  0.00000000  0.74538800  0.46950700  1
  Al  Al45  1  0.74538800  0.74538800  0.53049300  1
  Al  Al46  1  0.25461200  0.00000000  0.53049300  1
  Al  Al47  1  0.00000000  0.25461200  0.53049300  1
  Al  Al48  1  0.85274300  0.44871200  0.75000000  1
  Al  Al49  1  0.55128800  0.40403100  0.75000000  1
  Al  Al50  1  0.59596900  0.14725700  0.75000000  1
  Al  Al51  1  0.44871200  0.85274300  0.75000000  1
  Al  Al52  1  0.40403100  0.55128800  0.75000000  1
  Al  Al53  1  0.14725700  0.59596900  0.75000000  1
  Al  Al54  1  0.14725700  0.55128800  0.25000000  1
  Al  Al55  1  0.44871200  0.59596900  0.25000000  1
  Al  Al56  1  0.40403100  0.85274300  0.25000000  1
  Al  Al57  1  0.55128800  0.14725700  0.25000000  1
  Al  Al58  1  0.59596900  0.44871200  0.25000000  1
  Al  Al59  1  0.85274300  0.40403100  0.25000000  1
  Al  Al60  1  0.75298000  0.24702000  0.00000000  1
  Al  Al61  1  0.75298000  0.50595900  0.00000000  1
  Al  Al62  1  0.49404100  0.24702000  0.00000000  1
  Al  Al63  1  0.24702000  0.75298000  0.00000000  1
  Al  Al64  1  0.50595900  0.75298000  0.00000000  1
  Al  Al65  1  0.24702000  0.49404100  0.00000000  1
  Al  Al66  1  0.24702000  0.75298000  0.50000000  1
  Al  Al67  1  0.24702000  0.49404100  0.50000000  1
  Al  Al68  1  0.50595900  0.75298000  0.50000000  1
  Al  Al69  1  0.75298000  0.24702000  0.50000000  1
  Al  Al70  1  0.49404100  0.24702000  0.50000000  1
  Al  Al71  1  0.75298000  0.50595900  0.50000000  1
  Al  Al72  1  0.66666700  0.33333300  0.87387800  1
  Al  Al73  1  0.33333300  0.66666700  0.87387800  1
  Al  Al74  1  0.33333300  0.66666700  0.12612200  1
  Al  Al75  1  0.66666700  0.33333300  0.12612200  1
  Al  Al76  1  0.33333300  0.66666700  0.37387800  1
  Al  Al77  1  0.66666700  0.33333300  0.37387800  1
  Al  Al78  1  0.66666700  0.33333300  0.62612200  1
  Al  Al79  1  0.33333300  0.66666700  0.62612200  1
  Al  Al80  1  0.85284300  0.85284300  0.75000000  1
  Al  Al81  1  0.14715700  0.00000000  0.75000000  1
  Al  Al82  1  0.00000000  0.14715700  0.75000000  1
  Al  Al83  1  0.14715700  0.14715700  0.25000000  1
  Al  Al84  1  0.85284300  0.00000000  0.25000000  1
  Al  Al85  1  0.00000000  0.85284300  0.25000000  1
  Mo  Mo0  1  0.27157300  0.27157300  0.75000000  1
  Mo  Mo1  1  0.72842700  0.00000000  0.75000000  1
  Mo  Mo2  1  0.00000000  0.72842700  0.75000000  1
  Mo  Mo3  1  0.72842700  0.72842700  0.25000000  1
  Mo  Mo4  1  0.27157300  0.00000000  0.25000000  1
  Mo  Mo5  1  0.00000000  0.27157300  0.25000000  1
  Mo  Mo6  1  0.00000000  0.00000000  0.00000000  1
  Mo  Mo7  1  0.00000000  0.00000000  0.50000000  1
loop_
_geom_bond_atom_site_label_1
_geom_bond_atom_site_label_2
_geom_bond_distance
_geom_bond_site_symmetry_2
Tm0 Tm3 3.408364 1_556
Tm1 Tm4 3.408364 1_556
Tm2 Tm5 3.408364 1_556
Tm6 Tm9 3.408364 1_555
Tm10 Tm7 3.408364 1_555
Tm11 Tm8 3.408364 1_555
Al0 Al72 2.712139 1_555
Al0 Mo1 2.725395 1_555
Al0 Al31 2.740211 1_555
Al0 Al48 2.741244 1_555
Al0 Al50 2.822581 1_555
Al0 Al82 2.837639 1_655
Al0 Al38 2.854698 1_655
Al0 Al5 3.021021 1_655
Al0 Al18 3.040363 1_555
Al0 Al60 3.044795 1_556
Al0 Tm2 3.056548 1_655
Al0 Tm1 3.322771 1_555
Al1 Al72 2.712149 1_555
Al1 Mo2 2.725395 1_655
Al1 Al32 2.740211 1_655
Al1 Al49 2.741244 1_555
Al1 Al48 2.822581 1_555
Al1 Al80 2.837638 1_555
Al1 Al36 2.854698 1_555
Al1 Al4 3.021021 1_555
Al1 Al19 3.040363 1_555
Al1 Al61 3.044799 1_556
Al1 Tm0 3.056548 1_555
Al1 Tm2 3.322771 1_655
Al2 Al72 2.712148 1_555
Al2 Mo0 2.725395 1_555
Al2 Al30 2.740211 1_555
Al2 Al50 2.741244 1_555
Al2 Al49 2.822581 1_555
Al2 Al81 2.837638 1_555
Al2 Al37 2.854698 1_555
Al2 Al3 3.021021 1_545
Al2 Al20 3.040363 1_555
Al2 Al62 3.044797 1_556
Al2 Tm1 3.056548 1_555
Al2 Tm0 3.322771 1_555
Al3 Al73 2.712139 1_555
Al3 Mo2 2.725395 1_555
Al3 Al32 2.740211 1_555
Al3 Al51 2.741244 1_555
Al3 Al53 2.822581 1_555
Al3 Al81 2.837639 1_565
Al3 Al37 2.854698 1_565
Al3 Al63 3.044795 1_556
Al3 Tm1 3.056548 1_565
Al3 Tm2 3.322771 1_555
Al4 Al73 2.712149 1_555
Al4 Mo1 2.725395 1_565
Al4 Al52 2.741244 1_555
Al4 Al51 2.822581 1_555
Al4 Al80 2.837638 1_555
Al4 Al64 3.044799 1_556
Al4 Tm0 3.056548 1_555
Al4 Tm1 3.322771 1_565
Al5 Al73 2.712148 1_555
Al5 Mo0 2.725395 1_555
Al5 Al53 2.741244 1_555
Al5 Al52 2.822581 1_555
Al5 Al82 2.837638 1_555
Al5 Al65 3.044797 1_556
Al5 Tm2 3.056548 1_555
Al5 Tm0 3.322771 1_555
Al6 Al74 2.712139 1_555
Al6 Mo4 2.725395 1_565
Al6 Al85 2.837639 1_555
Al6 Al63 3.044795 1_555
Al6 Tm5 3.056548 1_555
Al6 Tm4 3.322771 1_565
Al7 Al74 2.712149 1_555
Al7 Mo5 2.725395 1_555
Al7 Al83 2.837638 1_555
Al7 Tm3 3.056548 1_555
Al7 Tm5 3.322771 1_555
Al8 Mo3 2.725395 1_555
Al8 Al84 2.837638 1_565
Al8 Al9 3.021021 1_565
Al8 Tm4 3.056548 1_565
Al8 Tm3 3.322771 1_555
Al9 Mo5 2.725395 1_655
Al9 Tm4 3.056548 1_555
Al9 Tm5 3.322771 1_655
Al10 Al75 2.712149 1_555
Al10 Mo4 2.725395 1_555
Al10 Al34 2.740211 1_555
Al10 Al58 2.741244 1_555
Al10 Al57 2.822581 1_555
Al10 Al83 2.837638 1_555
Al10 Al39 2.854698 1_555
Al10 Al7 3.021021 1_555
Al10 Al16 3.040363 1_555
Al10 Al62 3.044799 1_555
Al10 Tm3 3.056548 1_555
Al10 Tm4 3.322771 1_555
Al11 Al75 2.712148 1_555
Al11 Mo3 2.725395 1_555
Al11 Al33 2.740211 1_555
Al11 Al59 2.741244 1_555
Al11 Al58 2.822581 1_555
Al11 Al85 2.837638 1_655
Al11 Al41 2.854698 1_655
Al11 Al6 3.021021 1_655
Al11 Al17 3.040363 1_555
Al11 Al61 3.044797 1_555
Al11 Tm5 3.056548 1_655
Al11 Tm3 3.322771 1_555
Al12 Al76 2.712139 1_555
Al12 Mo4 2.725395 1_565
Al12 Al25 2.740211 1_565
Al12 Al54 2.741244 1_555
Al12 Al56 2.822581 1_555
Al12 Al85 2.837639 1_555
Al12 Al44 2.854698 1_555
Al12 Al17 3.021021 1_455
Al12 Al6 3.040363 1_555
Al12 Al66 3.044795 1_555
Al12 Tm8 3.056548 1_555
Al12 Tm7 3.322771 1_565
Al13 Al76 2.712149 1_555
Al13 Mo5 2.725395 1_555
Al13 Al26 2.740211 1_555
Al13 Al55 2.741244 1_555
Al13 Al54 2.822581 1_555
Al13 Al83 2.837638 1_555
Al13 Al42 2.854698 1_555
Al13 Al16 3.021021 1_555
Al13 Al7 3.040363 1_555
Al13 Al67 3.044799 1_555
Al13 Tm6 3.056548 1_555
Al13 Tm8 3.322771 1_555
Al14 Al76 2.712148 1_555
Al14 Mo3 2.725395 1_555
Al14 Al24 2.740211 1_555
Al14 Al56 2.741244 1_555
Al14 Al55 2.822581 1_555
Al14 Al84 2.837638 1_565
Al14 Al43 2.854698 1_565
Al14 Al15 3.021021 1_565
Al14 Al8 3.040363 1_555
Al14 Al68 3.044797 1_555
Al14 Tm7 3.056548 1_565
Al14 Tm6 3.322771 1_555
Al15 Al77 2.712139 1_555
Al15 Mo5 2.725395 1_655
Al15 Al26 2.740211 1_655
Al15 Al57 2.741244 1_555
Al15 Al59 2.822581 1_555
Al15 Al84 2.837639 1_555
Al15 Al43 2.854698 1_555
Al15 Al9 3.040363 1_555
Al15 Al69 3.044795 1_555
Al15 Tm7 3.056548 1_555
Al15 Tm8 3.322771 1_655
Al16 Al77 2.712149 1_555
Al16 Mo4 2.725395 1_555
Al16 Al25 2.740211 1_555
Al16 Al58 2.741244 1_555
Al16 Al57 2.822581 1_555
Al16 Al83 2.837638 1_555
Al16 Al42 2.854698 1_555
Al16 Al70 3.044799 1_555
Al16 Tm6 3.056548 1_555
Al16 Tm7 3.322771 1_555
Al17 Al77 2.712148 1_555
Al17 Mo3 2.725395 1_555
Al17 Al24 2.740211 1_555
Al17 Al59 2.741244 1_555
Al17 Al58 2.822581 1_555
Al17 Al85 2.837638 1_655
Al17 Al44 2.854698 1_655
Al17 Al71 3.044797 1_555
Al17 Tm8 3.056548 1_655
Al17 Tm6 3.322771 1_555
Al18 Al78 2.712139 1_555
Al18 Mo1 2.725395 1_555
Al18 Al28 2.740211 1_555
Al18 Al48 2.741244 1_555
Al18 Al50 2.822581 1_555
Al18 Al82 2.837639 1_655
Al18 Al47 2.854698 1_655
Al18 Al23 3.021021 1_655
Al18 Al69 3.044795 1_555
Al18 Tm11 3.056548 1_655
Al18 Tm10 3.322771 1_555
Al19 Al78 2.712149 1_555
Al19 Mo2 2.725395 1_655
Al19 Al29 2.740211 1_655
Al19 Al49 2.741244 1_555
Al19 Al48 2.822581 1_555
Al19 Al80 2.837638 1_555
Al19 Al45 2.854698 1_555
Al19 Al22 3.021021 1_555
Al19 Al71 3.044799 1_555
Al19 Tm9 3.056548 1_555
Al19 Tm11 3.322771 1_655
Al20 Al78 2.712148 1_555
Al20 Mo0 2.725395 1_555
Al20 Al27 2.740211 1_555
Al20 Al50 2.741244 1_555
Al20 Al49 2.822581 1_555
Al20 Al81 2.837638 1_555
Al20 Al46 2.854698 1_555
Al20 Al21 3.021021 1_545
Al20 Al70 3.044797 1_555
Al20 Tm10 3.056548 1_555
Al20 Tm9 3.322771 1_555
Al21 Al79 2.712139 1_555
Al21 Mo2 2.725395 1_555
Al21 Al29 2.740211 1_555
Al21 Al51 2.741244 1_555
Al21 Al53 2.822581 1_555
Al21 Al81 2.837639 1_565
Al21 Al46 2.854698 1_565
Al21 Al3 3.040363 1_555
Al21 Al66 3.044795 1_555
Al21 Tm10 3.056548 1_565
Al21 Tm11 3.322771 1_555
Al22 Al79 2.712149 1_555
Al22 Mo1 2.725395 1_565
Al22 Al28 2.740211 1_565
Al22 Al52 2.741244 1_555
Al22 Al51 2.822581 1_555
Al22 Al80 2.837638 1_555
Al22 Al45 2.854698 1_555
Al22 Al4 3.040363 1_555
Al22 Al68 3.044799 1_555
Al22 Tm9 3.056548 1_555
Al22 Tm10 3.322771 1_565
Al23 Al79 2.712148 1_555
Al23 Mo0 2.725395 1_555
Al23 Al27 2.740211 1_555
Al23 Al53 2.741244 1_555
Al23 Al52 2.822581 1_555
Al23 Al82 2.837638 1_555
Al23 Al47 2.854698 1_555
Al23 Al5 3.040363 1_555
Al23 Al67 3.044797 1_555
Al23 Tm11 3.056548 1_555
Al23 Tm9 3.322771 1_555
Al24 Mo7 2.669760 1_665
Al24 Mo3 2.675107 1_555
Al24 Al45 2.753002 1_555
Al24 Al43 2.866772 1_565
Al24 Al44 2.866772 1_655
Al24 Tm6 3.432551 1_555
Al25 Mo7 2.669760 1_555
Al25 Mo4 2.675107 1_555
Al25 Al46 2.753002 1_555
Al25 Al44 2.866772 1_545
Al25 Al42 2.866772 1_555
Al25 Tm7 3.432551 1_555
Al26 Mo7 2.669760 1_555
Al26 Mo5 2.675107 1_555
Al26 Al47 2.753002 1_555
Al26 Al43 2.866772 1_455
Al26 Al42 2.866772 1_555
Al26 Tm8 3.432551 1_555
Al27 Mo7 2.669760 1_555
Al27 Mo0 2.675107 1_555
Al27 Al42 2.753002 1_555
Al27 Al46 2.866772 1_555
Al27 Al47 2.866772 1_555
Al27 Tm9 3.432551 1_555
Al28 Mo7 2.669760 1_655
Al28 Mo1 2.675107 1_555
Al28 Al43 2.753002 1_555
Al28 Al47 2.866772 1_655
Al28 Al45 2.866772 1_545
Al28 Tm10 3.432551 1_555
Al29 Mo7 2.669760 1_565
Al29 Mo2 2.675107 1_555
Al29 Al44 2.753002 1_555
Al29 Al46 2.866772 1_565
Al29 Al45 2.866772 1_455
Al29 Tm11 3.432551 1_555
Al30 Mo6 2.669760 1_556
Al30 Mo0 2.675107 1_555
Al30 Al5 2.740211 1_555
Al30 Al39 2.753002 1_556
Al30 Al37 2.866772 1_555
Al30 Al38 2.866772 1_555
Al30 Tm0 3.432551 1_555
Al31 Mo6 2.669760 1_656
Al31 Mo1 2.675107 1_555
Al31 Al4 2.740211 1_545
Al31 Al40 2.753002 1_556
Al31 Al38 2.866772 1_655
Al31 Al36 2.866772 1_545
Al31 Tm1 3.432551 1_555
Al32 Mo6 2.669760 1_566
Al32 Mo2 2.675107 1_555
Al32 Al41 2.753002 1_556
Al32 Al37 2.866772 1_565
Al32 Al36 2.866772 1_455
Al32 Tm2 3.432551 1_555
Al33 Mo6 2.669760 1_665
Al33 Mo3 2.675107 1_555
Al33 Al8 2.740211 1_555
Al33 Al36 2.753002 1_554
Al33 Al40 2.866772 1_565
Al33 Al41 2.866772 1_655
Al33 Tm3 3.432551 1_555
Al34 Mo6 2.669760 1_555
Al34 Mo4 2.675107 1_555
Al34 Al6 2.740211 1_545
Al34 Al37 2.753002 1_554
Al34 Al41 2.866772 1_545
Al34 Al39 2.866772 1_555
Al34 Tm4 3.432551 1_555
Al35 Mo6 2.669760 1_555
Al35 Mo5 2.675107 1_555
Al35 Al7 2.740211 1_555
Al35 Al9 2.740211 1_455
Al35 Al38 2.753002 1_554
Al35 Al40 2.866772 1_455
Al35 Al39 2.866772 1_555
Al35 Tm5 3.432551 1_555
Al36 Al61 2.736737 1_556
Al36 Al64 2.736737 1_556
Al36 Al4 2.854698 1_555
Al36 Mo6 2.859074 1_666
Al36 Al41 3.005152 1_656
Al36 Al40 3.005152 1_566
Al36 Tm3 3.231944 1_556
Al36 Tm0 3.254099 1_555
Al37 Al63 2.736726 1_546
Al37 Al62 2.736731 1_556
Al37 Mo6 2.859075 1_556
Al37 Al41 3.005152 1_546
Al37 Al39 3.005152 1_556
Al37 Tm4 3.231945 1_556
Al37 Tm1 3.254099 1_555
Al38 Al60 2.736726 1_456
Al38 Al65 2.736731 1_556
Al38 Al5 2.854698 1_555
Al38 Mo6 2.859075 1_556
Al38 Al40 3.005152 1_456
Al38 Al39 3.005152 1_556
Al38 Tm5 3.231945 1_556
Al38 Tm2 3.254099 1_555
Al39 Al65 2.736737 1_555
Al39 Al62 2.736737 1_555
Al39 Al7 2.854698 1_555
Al39 Mo6 2.859074 1_555
Al39 Tm0 3.231944 1_554
Al39 Tm3 3.254099 1_555
Al40 Al60 2.736726 1_555
Al40 Al64 2.736731 1_545
Al40 Al8 2.854698 1_545
Al40 Al9 2.854698 1_555
Al40 Mo6 2.859075 1_655
Al40 Tm1 3.231945 1_554
Al40 Tm4 3.254099 1_555
Al41 Al63 2.736726 1_555
Al41 Al61 2.736731 1_455
Al41 Al6 2.854698 1_555
Al41 Mo6 2.859075 1_565
Al41 Tm2 3.231945 1_554
Al41 Tm5 3.254099 1_555
Al42 Al67 2.736737 1_555
Al42 Al70 2.736737 1_555
Al42 Mo7 2.859074 1_555
Al42 Al46 3.005152 1_555
Al42 Al47 3.005152 1_555
Al42 Tm9 3.231944 1_555
Al42 Tm6 3.254099 1_555
Al43 Al69 2.736726 1_555
Al43 Al68 2.736731 1_545
Al43 Mo7 2.859075 1_655
Al43 Al47 3.005152 1_655
Al43 Al45 3.005152 1_545
Al43 Tm10 3.231945 1_555
Al43 Tm7 3.254099 1_555
Al44 Al66 2.736726 1_555
Al44 Al71 2.736731 1_455
Al44 Mo7 2.859075 1_565
Al44 Al46 3.005152 1_565
Al44 Al45 3.005152 1_455
Al44 Tm11 3.231945 1_555
Al44 Tm8 3.254099 1_555
Al45 Al71 2.736737 1_555
Al45 Al68 2.736737 1_555
Al45 Mo7 2.859074 1_665
Al45 Tm6 3.231944 1_555
Al45 Tm9 3.254099 1_555
Al46 Al66 2.736726 1_545
Al46 Al70 2.736731 1_555
Al46 Mo7 2.859075 1_555
Al46 Tm7 3.231945 1_555
Al46 Tm10 3.254099 1_555
Al47 Al69 2.736726 1_455
Al47 Al67 2.736731 1_555
Al47 Mo7 2.859075 1_555
Al47 Tm8 3.231945 1_555
Al47 Tm11 3.254099 1_555
Al48 Mo2 2.673465 1_655
Al48 Al72 2.816626 1_555
Al48 Al78 2.816626 1_555
Al48 Tm2 3.056401 1_655
Al48 Tm11 3.056401 1_655
Al49 Mo0 2.673465 1_555
Al49 Al78 2.816631 1_555
Al49 Al72 2.816631 1_555
Al49 Tm0 3.056401 1_555
Al49 Tm9 3.056401 1_555
Al50 Mo1 2.673465 1_555
Al50 Al78 2.816625 1_555
Al50 Al72 2.816625 1_555
Al50 Tm1 3.056401 1_555
Al50 Tm10 3.056401 1_555
Al51 Mo1 2.673465 1_565
Al51 Al79 2.816626 1_555
Al51 Al73 2.816626 1_555
Al51 Tm10 3.056401 1_565
Al51 Tm1 3.056401 1_565
Al52 Mo0 2.673465 1_555
Al52 Al73 2.816631 1_555
Al52 Al79 2.816631 1_555
Al52 Tm0 3.056401 1_555
Al52 Tm9 3.056401 1_555
Al53 Mo2 2.673465 1_555
Al53 Al73 2.816625 1_555
Al53 Al79 2.816625 1_555
Al53 Tm2 3.056401 1_555
Al53 Tm11 3.056401 1_555
Al54 Mo5 2.673465 1_555
Al54 Al6 2.741244 1_555
Al54 Al74 2.816626 1_555
Al54 Al76 2.816626 1_555
Al54 Al7 2.822581 1_555
Al54 Tm5 3.056401 1_555
Al54 Tm8 3.056401 1_555
Al55 Mo3 2.673465 1_555
Al55 Al7 2.741244 1_555
Al55 Al76 2.816631 1_555
Al55 Al74 2.816631 1_555
Al55 Al8 2.822581 1_555
Al55 Tm6 3.056401 1_555
Al55 Tm3 3.056401 1_555
Al56 Mo4 2.673465 1_565
Al56 Al8 2.741244 1_555
Al56 Al76 2.816625 1_555
Al56 Al74 2.816625 1_555
Al56 Al6 2.822581 1_555
Al56 Tm7 3.056401 1_565
Al56 Tm4 3.056401 1_565
Al57 Mo4 2.673465 1_555
Al57 Al9 2.741244 1_555
Al57 Al75 2.816626 1_555
Al57 Al77 2.816626 1_555
Al57 Tm7 3.056401 1_555
Al57 Tm4 3.056401 1_555
Al58 Mo3 2.673465 1_555
Al58 Al75 2.816631 1_555
Al58 Al77 2.816631 1_555
Al58 Tm6 3.056401 1_555
Al58 Tm3 3.056401 1_555
Al59 Mo5 2.673465 1_655
Al59 Al77 2.816625 1_555
Al59 Al75 2.816625 1_555
Al59 Al9 2.822581 1_555
Al59 Tm8 3.056401 1_655
Al59 Tm5 3.056401 1_655
Al60 Al72 2.757644 1_554
Al60 Al75 2.757644 1_555
Al60 Al62 2.856427 1_555
Al60 Al61 2.856427 1_555
Al60 Al9 3.044795 1_555
Al60 Tm1 3.087690 1_554
Al60 Tm5 3.087690 1_655
Al60 Tm4 3.390022 1_555
Al60 Tm2 3.390022 1_654
Al61 Al72 2.757644 1_554
Al61 Al75 2.757644 1_555
Al61 Al62 2.856427 1_555
Al61 Tm2 3.087686 1_654
Al61 Tm3 3.087695 1_555
Al61 Tm5 3.390016 1_655
Al61 Tm0 3.390026 1_554
Al62 Al72 2.757644 1_554
Al62 Al75 2.757644 1_555
Al62 Tm4 3.087686 1_555
Al62 Tm0 3.087695 1_554
Al62 Tm1 3.390016 1_554
Al62 Tm3 3.390026 1_555
Al63 Al73 2.757644 1_554
Al63 Al74 2.757644 1_555
Al63 Al65 2.856427 1_555
Al63 Al64 2.856427 1_555
Al63 Tm2 3.087690 1_554
Al63 Tm4 3.087690 1_565
Al63 Tm5 3.390022 1_555
Al63 Tm1 3.390022 1_564
Al64 Al73 2.757644 1_554
Al64 Al74 2.757644 1_555
Al64 Al65 2.856427 1_555
Al64 Al8 3.044797 1_555
Al64 Tm1 3.087686 1_564
Al64 Tm3 3.087695 1_555
Al64 Tm4 3.390016 1_565
Al64 Tm0 3.390026 1_554
Al65 Al73 2.757644 1_554
Al65 Al74 2.757644 1_555
Al65 Al7 3.044799 1_555
Al65 Tm5 3.087686 1_555
Al65 Tm0 3.087695 1_554
Al65 Tm2 3.390016 1_554
Al65 Tm3 3.390026 1_555
Al66 Al79 2.757644 1_555
Al66 Al76 2.757644 1_555
Al66 Al67 2.856427 1_555
Al66 Al68 2.856427 1_555
Al66 Tm11 3.087690 1_555
Al66 Tm7 3.087690 1_565
Al66 Tm8 3.390022 1_555
Al66 Tm10 3.390022 1_565
Al67 Al79 2.757644 1_555
Al67 Al76 2.757644 1_555
Al67 Al68 2.856427 1_555
Al67 Tm8 3.087686 1_555
Al67 Tm9 3.087695 1_555
Al67 Tm11 3.390016 1_555
Al67 Tm6 3.390026 1_555
Al68 Al79 2.757644 1_555
Al68 Al76 2.757644 1_555
Al68 Tm10 3.087686 1_565
Al68 Tm6 3.087695 1_555
Al68 Tm7 3.390016 1_565
Al68 Tm9 3.390026 1_555
Al69 Al78 2.757644 1_555
Al69 Al77 2.757644 1_555
Al69 Al70 2.856427 1_555
Al69 Al71 2.856427 1_555
Al69 Tm10 3.087690 1_555
Al69 Tm8 3.087690 1_655
Al69 Tm7 3.390022 1_555
Al69 Tm11 3.390022 1_655
Al70 Al78 2.757644 1_555
Al70 Al77 2.757644 1_555
Al70 Al71 2.856427 1_555
Al70 Tm7 3.087686 1_555
Al70 Tm9 3.087695 1_555
Al70 Tm10 3.390016 1_555
Al70 Tm6 3.390026 1_555
Al71 Al78 2.757644 1_555
Al71 Al77 2.757644 1_555
Al71 Tm11 3.087686 1_655
Al71 Tm6 3.087695 1_555
Al71 Tm8 3.390016 1_655
Al71 Tm9 3.390026 1_555
Al72 Tm1 3.248190 1_555
Al72 Tm2 3.248191 1_655
Al72 Tm0 3.248200 1_555
Al73 Tm2 3.248190 1_555
Al73 Tm1 3.248191 1_565
Al73 Tm0 3.248200 1_555
Al74 Al8 2.712148 1_555
Al74 Tm4 3.248190 1_565
Al74 Tm5 3.248191 1_555
Al74 Tm3 3.248200 1_555
Al75 Al9 2.712139 1_555
Al75 Tm5 3.248190 1_655
Al75 Tm4 3.248191 1_555
Al75 Tm3 3.248200 1_555
Al76 Tm7 3.248190 1_565
Al76 Tm8 3.248191 1_555
Al76 Tm6 3.248200 1_555
Al77 Tm8 3.248190 1_655
Al77 Tm7 3.248191 1_555
Al77 Tm6 3.248200 1_555
Al78 Tm10 3.248190 1_555
Al78 Tm11 3.248191 1_655
Al78 Tm9 3.248200 1_555
Al79 Tm11 3.248190 1_555
Al79 Tm10 3.248191 1_565
Al79 Tm9 3.248200 1_555
Al80 Mo1 2.597465 1_565
Al80 Mo2 2.597465 1_655
Al81 Mo2 2.597465 1_545
Al81 Mo0 2.597465 1_555
Al82 Mo1 2.597465 1_455
Al82 Mo0 2.597465 1_555
Al83 Mo4 2.597465 1_555
Al83 Mo5 2.597465 1_555
Al84 Mo5 2.597465 1_655
Al84 Mo3 2.597465 1_545
Al84 Al9 2.837639 1_555
Al85 Mo4 2.597465 1_565
Al85 Mo3 2.597465 1_455
Mo0 Tm0 3.477454 1_555
Mo0 Tm9 3.477454 1_555
Mo1 Tm10 3.477454 1_555
Mo1 Tm1 3.477454 1_555
Mo2 Tm2 3.477454 1_555
Mo2 Tm11 3.477454 1_555
Mo3 Tm6 3.477454 1_555
Mo3 Tm3 3.477454 1_555
Mo4 Tm7 3.477454 1_555
Mo4 Tm4 3.477454 1_555
Mo5 Tm8 3.477454 1_555
Mo5 Tm5 3.477454 1_555
