# generated using pymatgen
data_Er3Mn3Ga2Ge
_symmetry_space_group_name_H-M   'P 1'
_cell_length_a   7.09933572
_cell_length_b   7.09933572
_cell_length_c   4.04821100
_cell_angle_alpha   90.00000000
_cell_angle_beta   90.00000000
_cell_angle_gamma   119.99999737
_symmetry_Int_Tables_number   1
_chemical_formula_structural   Er3Mn3Ga2Ge
_chemical_formula_sum   'Er3 Mn3 Ga2 Ge1'
_cell_volume   176.69701444
_cell_formula_units_Z   1
loop_
 _symmetry_equiv_pos_site_id
 _symmetry_equiv_pos_as_xyz
  1  'x, y, z'
loop_
 _atom_site_type_symbol
 _atom_site_label
 _atom_site_symmetry_multiplicity
 _atom_site_fract_x
 _atom_site_fract_y
 _atom_site_fract_z
 _atom_site_occupancy
  Er  Er0  1  0.00000000  0.41330400  0.50000000  1
  Er  Er1  1  0.58669600  0.58669600  0.50000000  1
  Er  Er2  1  0.41330400  0.00000000  0.50000000  1
  Mn  Mn0  1  0.00000000  0.76648200  0.00000000  1
  Mn  Mn1  1  0.23351800  0.23351800  0.00000000  1
  Mn  Mn2  1  0.76648200  0.00000000  0.00000000  1
  Ga  Ga0  1  0.33333300  0.66666700  0.00000000  1
  Ga  Ga1  1  0.66666700  0.33333300  0.00000000  1
  Ge  Ge0  1  0.00000000  0.00000000  0.50000000  1
loop_
_geom_bond_atom_site_label_1
_geom_bond_atom_site_label_2
_geom_bond_distance
_geom_bond_site_symmetry_2
Er0 Ge0 2.934184 1_555
Er0 Ga1 2.945481 1_456
Er0 Ga1 2.945481 1_455
Er0 Ga0 2.945483 1_556
Er0 Ga0 2.945483 1_555
Er0 Mn0 3.222375 1_556
Er0 Mn0 3.222375 1_555
Er0 Mn1 3.254298 1_555
Er0 Mn1 3.254298 1_556
Er0 Mn2 3.254298 1_456
Er0 Mn2 3.254298 1_455
Er1 Ge0 2.934184 1_665
Er1 Ga1 2.945486 1_556
Er1 Ga0 2.945486 1_556
Er1 Ga1 2.945486 1_555
Er1 Ga0 2.945486 1_555
Er1 Mn1 3.222375 1_555
Er1 Mn1 3.222375 1_556
Er1 Mn2 3.254298 1_565
Er1 Mn2 3.254298 1_566
Er1 Mn0 3.254298 1_655
Er1 Mn0 3.254298 1_656
Er2 Ge0 2.934184 1_555
Er2 Ga0 2.945481 1_545
Er2 Ga0 2.945481 1_546
Er2 Ga1 2.945483 1_555
Er2 Ga1 2.945483 1_556
Er2 Mn2 3.222375 1_555
Er2 Mn2 3.222375 1_556
Er2 Mn1 3.254298 1_555
Er2 Mn1 3.254298 1_556
Er2 Mn0 3.254298 1_545
Er2 Mn0 3.254298 1_546
Mn0 Mn2 2.871433 1_465
Mn0 Mn1 2.871433 1_565
Mn1 Mn2 2.871433 1_455
Ga0 Mn0 2.789104 1_555
Ga0 Mn2 2.789109 1_565
Ga0 Mn1 2.789111 1_555
Ga1 Mn2 2.789104 1_555
Ga1 Mn0 2.789109 1_655
Ga1 Mn1 2.789111 1_555
Ge0 Mn2 2.616368 1_456
Ge0 Mn0 2.616368 1_545
Ge0 Mn0 2.616368 1_546
Ge0 Mn2 2.616368 1_455
Ge0 Mn1 2.616368 1_555
Ge0 Mn1 2.616368 1_556
