# generated using pymatgen
data_MgSi2
_symmetry_space_group_name_H-M   'P 1'
_cell_length_a   9.99556704
_cell_length_b   9.99556704
_cell_length_c   5.86094184
_cell_angle_alpha   88.83408781
_cell_angle_beta   88.83408781
_cell_angle_gamma   20.68617800
_symmetry_Int_Tables_number   1
_chemical_formula_structural   MgSi2
_chemical_formula_sum   'Mg4 Si8'
_cell_volume   206.80951325
_cell_formula_units_Z   4
loop_
 _symmetry_equiv_pos_site_id
 _symmetry_equiv_pos_as_xyz
  1  'x, y, z'
loop_
 _atom_site_type_symbol
 _atom_site_label
 _atom_site_symmetry_multiplicity
 _atom_site_fract_x
 _atom_site_fract_y
 _atom_site_fract_z
 _atom_site_occupancy
  Mg  Mg0  1  0.92454300  0.92454300  0.60713400  1
  Mg  Mg1  1  0.31946000  0.31946000  0.36702700  1
  Mg  Mg2  1  0.68184100  0.68184100  0.37853700  1
  Mg  Mg3  1  0.51019600  0.51019600  0.89394600  1
  Si  Si0  1  0.22474100  0.22474100  0.02100900  1
  Si  Si1  1  0.35581700  0.35581700  0.90183400  1
  Si  Si2  1  0.08579000  0.08579000  0.16482700  1
  Si  Si3  1  0.07876500  0.07876500  0.59116600  1
  Si  Si4  1  0.91581400  0.91581400  0.12968300  1
  Si  Si5  1  0.77960500  0.77960500  0.72385500  1
  Si  Si6  1  0.65565700  0.65565700  0.85374700  1
  Si  Si7  1  0.51187700  0.51187700  0.36765500  1
loop_
_geom_bond_atom_site_label_1
_geom_bond_atom_site_label_2
_geom_bond_distance
_geom_bond_site_symmetry_2
Mg0 Si4 2.807115 1_555
Mg0 Si1 2.816767 1_565
Mg0 Si1 2.816767 1_655
Mg0 Si7 2.835648 1_655
Mg0 Si7 2.835648 1_565
Mg0 Si5 2.917543 1_555
Mg0 Mg3 3.000166 1_655
Mg0 Mg3 3.000166 1_565
Mg0 Si3 3.032482 1_665
Mg0 Si4 3.063889 1_556
Mg0 Mg1 3.097119 1_655
Mg0 Mg1 3.097119 1_565
Mg1 Si0 2.781894 1_555
Mg1 Si1 2.804323 1_554
Mg1 Si5 2.853235 1_545
Mg1 Si5 2.853235 1_455
Mg1 Si4 2.938949 1_545
Mg1 Si4 2.938949 1_455
Mg1 Si1 3.229375 1_555
Mg2 Si5 2.820230 1_555
Mg2 Si6 2.821888 1_555
Mg2 Si0 2.872327 1_655
Mg2 Si0 2.872327 1_565
Mg2 Si2 2.907853 1_565
Mg2 Si2 2.907853 1_655
Mg2 Si3 2.962841 1_565
Mg2 Si3 2.962841 1_655
Mg2 Si6 3.129058 1_554
Mg3 Si7 2.777261 1_556
Mg3 Si2 2.837073 1_566
Mg3 Si2 2.837073 1_656
Mg3 Si3 2.844161 1_565
Mg3 Si3 2.844161 1_655
Mg3 Si6 2.865502 1_555
Mg3 Si4 2.910119 1_546
Mg3 Si4 2.910119 1_456
Mg3 Si1 3.035457 1_555
Mg3 Si7 3.084054 1_555
Si0 Si6 2.466303 1_454
Si0 Si6 2.466303 1_544
Si0 Si1 2.656751 1_554
Si0 Si5 2.709299 1_544
Si0 Si5 2.709299 1_454
Si0 Si2 2.842989 1_555
Si1 Si4 2.541926 1_456
Si1 Si4 2.541926 1_546
Si1 Si5 2.572914 1_545
Si1 Si5 2.572914 1_455
Si2 Si3 2.499710 1_555
Si2 Si7 2.583658 1_455
Si2 Si7 2.583658 1_545
Si2 Si6 2.886023 1_454
Si2 Si6 2.886023 1_544
Si3 Si7 2.595843 1_455
Si3 Si7 2.595843 1_545
Si3 Si6 2.823486 1_455
Si3 Si6 2.823486 1_545
Si5 Si6 2.538636 1_555
