# generated using pymatgen
data_MoC
_symmetry_space_group_name_H-M   'P 1'
_cell_length_a   3.07357026
_cell_length_b   3.07357026
_cell_length_c   15.42037300
_cell_angle_alpha   90.00000000
_cell_angle_beta   90.00000000
_cell_angle_gamma   120.00000559
_symmetry_Int_Tables_number   1
_chemical_formula_structural   MoC
_chemical_formula_sum   'Mo6 C6'
_cell_volume   126.15712306
_cell_formula_units_Z   6
loop_
 _symmetry_equiv_pos_site_id
 _symmetry_equiv_pos_as_xyz
  1  'x, y, z'
loop_
 _atom_site_type_symbol
 _atom_site_label
 _atom_site_symmetry_multiplicity
 _atom_site_fract_x
 _atom_site_fract_y
 _atom_site_fract_z
 _atom_site_occupancy
  Mo  Mo0  1  0.33333300  0.66666700  0.42383200  1
  Mo  Mo1  1  0.66666700  0.33333300  0.92383200  1
  Mo  Mo2  1  0.66666700  0.33333300  0.57616800  1
  Mo  Mo3  1  0.33333300  0.66666700  0.07616800  1
  Mo  Mo4  1  0.00000000  0.00000000  0.75000000  1
  Mo  Mo5  1  0.00000000  0.00000000  0.25000000  1
  C  C0  1  0.33333300  0.66666700  0.83354000  1
  C  C1  1  0.66666700  0.33333300  0.33354000  1
  C  C2  1  0.66666700  0.33333300  0.16646000  1
  C  C3  1  0.33333300  0.66666700  0.66646000  1
  C  C4  1  0.00000000  0.00000000  0.50000000  1
  C  C5  1  0.00000000  0.00000000  0.00000000  1
loop_
_geom_bond_atom_site_label_1
_geom_bond_atom_site_label_2
_geom_bond_distance
_geom_bond_site_symmetry_2
C0 Mo4 2.192816 1_565
C0 Mo4 2.192819 1_665
C0 Mo4 2.192819 1_555
C0 Mo1 2.255557 1_455
C0 Mo1 2.255557 1_565
C0 Mo1 2.255562 1_555
C1 Mo5 2.192816 1_655
C1 Mo5 2.192819 1_665
C1 Mo5 2.192819 1_555
C1 Mo0 2.255557 1_545
C1 Mo0 2.255557 1_655
C1 Mo0 2.255562 1_555
C2 Mo5 2.192816 1_655
C2 Mo5 2.192819 1_665
C2 Mo5 2.192819 1_555
C2 Mo3 2.255557 1_655
C2 Mo3 2.255557 1_545
C2 Mo3 2.255562 1_555
C3 Mo4 2.192816 1_565
C3 Mo4 2.192819 1_665
C3 Mo4 2.192819 1_555
C3 Mo2 2.255557 1_455
C3 Mo2 2.255557 1_565
C3 Mo2 2.255562 1_555
C4 Mo0 2.128023 1_545
C4 Mo2 2.128023 1_455
C4 Mo0 2.128025 1_445
C4 Mo2 2.128025 1_555
C4 Mo2 2.128025 1_445
C4 Mo0 2.128025 1_555
C5 Mo3 2.128023 1_545
C5 Mo1 2.128023 1_454
C5 Mo1 2.128025 1_444
C5 Mo3 2.128025 1_445
C5 Mo3 2.128025 1_555
C5 Mo1 2.128025 1_554
