# generated using pymatgen
data_SrAl2B2O7
_symmetry_space_group_name_H-M   'P 1'
_cell_length_a   8.61226850
_cell_length_b   8.61226850
_cell_length_c   8.61226870
_cell_angle_alpha   33.35354895
_cell_angle_beta   33.35354895
_cell_angle_gamma   33.35355019
_symmetry_Int_Tables_number   1
_chemical_formula_structural   SrAl2B2O7
_chemical_formula_sum   'Sr1 Al2 B2 O7'
_cell_volume   171.93562647
_cell_formula_units_Z   1
loop_
 _symmetry_equiv_pos_site_id
 _symmetry_equiv_pos_as_xyz
  1  'x, y, z'
loop_
 _atom_site_type_symbol
 _atom_site_label
 _atom_site_symmetry_multiplicity
 _atom_site_fract_x
 _atom_site_fract_y
 _atom_site_fract_z
 _atom_site_occupancy
  Sr  Sr0  1  0.00000000  0.00000000  0.00000000  1
  Al  Al0  1  0.43065500  0.43065500  0.43065500  1
  Al  Al1  1  0.56934500  0.56934500  0.56934500  1
  B  B0  1  0.26468300  0.26468300  0.26468300  1
  B  B1  1  0.73531700  0.73531700  0.73531700  1
  O  O0  1  0.67526200  0.03638400  0.48682900  1
  O  O1  1  0.03638400  0.48682900  0.67526200  1
  O  O2  1  0.48682900  0.67526200  0.03638400  1
  O  O3  1  0.50000000  0.50000000  0.50000000  1
  O  O4  1  0.96361600  0.32473800  0.51317100  1
  O  O5  1  0.32473800  0.51317100  0.96361600  1
  O  O6  1  0.51317100  0.96361600  0.32473800  1
loop_
_geom_bond_atom_site_label_1
_geom_bond_atom_site_label_2
_geom_bond_distance
_geom_bond_site_symmetry_2
Al0 O3 1.690428 1_555
Al0 O1 1.791659 1_555
Al0 O0 1.791659 1_555
Al0 O2 1.791659 1_555
Al1 O3 1.690428 1_555
Al1 O6 1.791659 1_555
Al1 O4 1.791659 1_555
Al1 O5 1.791659 1_555
B0 O5 1.381723 1_554
B0 O4 1.381723 1_455
B0 O6 1.381723 1_545
B1 O2 1.381723 1_556
B1 O0 1.381723 1_565
B1 O1 1.381723 1_655
O0 Sr0 2.576883 1_655
O1 Sr0 2.576882 1_556
O2 Sr0 2.576882 1_565
O4 Sr0 2.576883 1_656
O5 Sr0 2.576882 1_566
O6 Sr0 2.576882 1_665
