# generated using pymatgen
data_Sm2MgS4
_symmetry_space_group_name_H-M   'P 1'
_cell_length_a   3.93149500
_cell_length_b   12.83882700
_cell_length_c   13.81245000
_cell_angle_alpha   90.00000000
_cell_angle_beta   90.00000000
_cell_angle_gamma   90.00000000
_symmetry_Int_Tables_number   1
_chemical_formula_structural   Sm2MgS4
_chemical_formula_sum   'Sm8 Mg4 S16'
_cell_volume   697.19424487
_cell_formula_units_Z   4
loop_
 _symmetry_equiv_pos_site_id
 _symmetry_equiv_pos_as_xyz
  1  'x, y, z'
loop_
 _atom_site_type_symbol
 _atom_site_label
 _atom_site_symmetry_multiplicity
 _atom_site_fract_x
 _atom_site_fract_y
 _atom_site_fract_z
 _atom_site_occupancy
  Sm  Sm0  1  0.25000000  0.12062200  0.07447800  1
  Sm  Sm1  1  0.75000000  0.87937800  0.92552200  1
  Sm  Sm2  1  0.75000000  0.37937800  0.57447800  1
  Sm  Sm3  1  0.25000000  0.62062200  0.42552200  1
  Sm  Sm4  1  0.25000000  0.13399900  0.70689500  1
  Sm  Sm5  1  0.75000000  0.86600100  0.29310500  1
  Sm  Sm6  1  0.75000000  0.36600100  0.20689500  1
  Sm  Sm7  1  0.25000000  0.63399900  0.79310500  1
  Mg  Mg0  1  0.75000000  0.10789200  0.45938700  1
  Mg  Mg1  1  0.25000000  0.89210800  0.54061300  1
  Mg  Mg2  1  0.25000000  0.39210800  0.95938700  1
  Mg  Mg3  1  0.75000000  0.60789200  0.04061300  1
  S  S0  1  0.75000000  0.00320900  0.61430200  1
  S  S1  1  0.25000000  0.99679100  0.38569800  1
  S  S2  1  0.25000000  0.49679100  0.11430200  1
  S  S3  1  0.75000000  0.50320900  0.88569800  1
  S  S4  1  0.25000000  0.02538900  0.88475600  1
  S  S5  1  0.75000000  0.97461100  0.11524400  1
  S  S6  1  0.75000000  0.47461100  0.38475600  1
  S  S7  1  0.25000000  0.52538900  0.61524400  1
  S  S8  1  0.25000000  0.22862900  0.24598200  1
  S  S9  1  0.75000000  0.77137100  0.75401800  1
  S  S10  1  0.75000000  0.27137100  0.74598200  1
  S  S11  1  0.25000000  0.72862900  0.25401800  1
  S  S12  1  0.75000000  0.26711300  0.01628000  1
  S  S13  1  0.25000000  0.73288700  0.98372000  1
  S  S14  1  0.25000000  0.23288700  0.51628000  1
  S  S15  1  0.75000000  0.76711300  0.48372000  1
loop_
_geom_bond_atom_site_label_1
_geom_bond_atom_site_label_2
_geom_bond_distance
_geom_bond_site_symmetry_2
Mg0 S0 2.526838 1_555
Mg0 S1 2.633395 1_645
Mg0 S1 2.633395 1_545
Mg0 S14 2.656510 1_655
Mg0 S14 2.656510 1_555
Mg1 S1 2.526838 1_555
Mg1 S0 2.633395 1_465
Mg1 S0 2.633395 1_565
Mg1 S15 2.656510 1_455
Mg1 S15 2.656510 1_555
Mg2 S2 2.526838 1_556
Mg2 S3 2.633395 1_455
Mg2 S3 2.633395 1_555
Mg2 S12 2.656510 1_456
Mg2 S12 2.656510 1_556
Mg3 S3 2.526838 1_554
Mg3 S2 2.633395 1_555
Mg3 S2 2.633395 1_655
Mg3 S13 2.656510 1_654
Mg3 S13 2.656510 1_554
S0 Sm4 2.884358 1_555
S0 Sm4 2.884358 1_655
S1 Sm5 2.884358 1_555
S1 Sm5 2.884358 1_455
S2 Sm6 2.884358 1_455
S2 Sm6 2.884358 1_555
S3 Sm7 2.884358 1_655
S3 Sm7 2.884358 1_555
S4 Sm1 2.774055 1_445
S4 Sm1 2.774055 1_545
S4 Sm4 2.824850 1_555
S4 Sm0 2.891730 1_556
S5 Sm0 2.774055 1_665
S5 Sm0 2.774055 1_565
S5 Sm5 2.824850 1_555
S5 Sm1 2.891730 1_554
S6 Sm3 2.774055 1_555
S6 Sm3 2.774055 1_655
S6 Sm6 2.824850 1_555
S6 Sm2 2.891730 1_555
S7 Sm2 2.774055 1_455
S7 Sm2 2.774055 1_555
S7 Sm7 2.824850 1_555
S7 Sm3 2.891730 1_555
S8 Sm6 2.695601 1_555
S8 Sm6 2.695601 1_455
S8 Sm0 2.744910 1_555
S9 Sm7 2.695601 1_555
S9 Sm7 2.695601 1_655
S9 Sm1 2.744910 1_555
S10 Sm4 2.695601 1_555
S10 Sm4 2.695601 1_655
S10 Sm2 2.744910 1_555
S11 Sm5 2.695601 1_555
S11 Sm5 2.695601 1_455
S11 Sm3 2.744910 1_555
S12 Sm0 2.836839 1_655
S12 Sm0 2.836839 1_555
S12 Sm6 2.922987 1_555
S13 Sm1 2.836839 1_455
S13 Sm1 2.836839 1_555
S13 Sm7 2.922987 1_555
S14 Sm2 2.836839 1_455
S14 Sm2 2.836839 1_555
S14 Sm4 2.922987 1_555
S15 Sm3 2.836839 1_655
S15 Sm3 2.836839 1_555
S15 Sm5 2.922987 1_555
