# generated using pymatgen
data_K3BP3(HO4)3
_symmetry_space_group_name_H-M   'P 1'
_cell_length_a   13.25745644
_cell_length_b   13.25745644
_cell_length_c   14.40776925
_cell_angle_alpha   62.42908333
_cell_angle_beta   62.42908333
_cell_angle_gamma   33.27542737
_symmetry_Int_Tables_number   1
_chemical_formula_structural   K3BP3(HO4)3
_chemical_formula_sum   'K12 B4 P12 H12 O48'
_cell_volume   1216.52352902
_cell_formula_units_Z   4
loop_
 _symmetry_equiv_pos_site_id
 _symmetry_equiv_pos_as_xyz
  1  'x, y, z'
loop_
 _atom_site_type_symbol
 _atom_site_label
 _atom_site_symmetry_multiplicity
 _atom_site_fract_x
 _atom_site_fract_y
 _atom_site_fract_z
 _atom_site_occupancy
  K  K0  1  0.72569000  0.73908900  0.58836500  1
  K  K1  1  0.26091100  0.27431000  0.91163500  1
  K  K2  1  0.27431000  0.26091100  0.41163500  1
  K  K3  1  0.73908900  0.72569000  0.08836500  1
  K  K4  1  0.99882200  0.90452600  0.15532500  1
  K  K5  1  0.09547400  0.00117800  0.34467500  1
  K  K6  1  0.00117800  0.09547400  0.84467500  1
  K  K7  1  0.90452600  0.99882200  0.65532500  1
  K  K8  1  0.79083900  0.42120200  0.03863100  1
  K  K9  1  0.57879800  0.20916100  0.46136900  1
  K  K10  1  0.20916100  0.57879800  0.96136900  1
  K  K11  1  0.42120200  0.79083900  0.53863100  1
  B  B0  1  0.10049900  0.56031700  0.66072800  1
  B  B1  1  0.43968300  0.89950100  0.83927200  1
  B  B2  1  0.89950100  0.43968300  0.33927200  1
  B  B3  1  0.56031700  0.10049900  0.16072800  1
  P  P0  1  0.73422800  0.78063500  0.31165800  1
  P  P1  1  0.21936500  0.26577200  0.18834200  1
  P  P2  1  0.26577200  0.21936500  0.68834200  1
  P  P3  1  0.78063500  0.73422800  0.81165800  1
  P  P4  1  0.02550500  0.76106900  0.45814400  1
  P  P5  1  0.23893100  0.97449500  0.04185600  1
  P  P6  1  0.97449500  0.23893100  0.54185600  1
  P  P7  1  0.76106900  0.02550500  0.95814400  1
  P  P8  1  0.67510400  0.47702100  0.30452900  1
  P  P9  1  0.52297900  0.32489600  0.19547100  1
  P  P10  1  0.32489600  0.52297900  0.69547100  1
  P  P11  1  0.47702100  0.67510400  0.80452900  1
  H  H0  1  0.52832000  0.56158800  0.96514800  1
  H  H1  1  0.43841200  0.47168000  0.53485200  1
  H  H2  1  0.47168000  0.43841200  0.03485200  1
  H  H3  1  0.56158800  0.52832000  0.46514800  1
  H  H4  1  0.90893800  0.73126100  0.36631200  1
  H  H5  1  0.26873900  0.09106200  0.13368800  1
  H  H6  1  0.09106200  0.26873900  0.63368800  1
  H  H7  1  0.73126100  0.90893800  0.86631200  1
  H  H8  1  0.26966600  0.58062700  0.33425300  1
  H  H9  1  0.41937300  0.73033400  0.16574700  1
  H  H10  1  0.73033400  0.41937300  0.66574700  1
  H  H11  1  0.58062700  0.26966600  0.83425300  1
  O  O0  1  0.61096200  0.51925600  0.89744200  1
  O  O1  1  0.48074400  0.38903800  0.60255800  1
  O  O2  1  0.38903800  0.48074400  0.10255800  1
  O  O3  1  0.51925600  0.61096200  0.39744200  1
  O  O4  1  0.91959100  0.93479900  0.99186700  1
  O  O5  1  0.06520100  0.08040900  0.50813300  1
  O  O6  1  0.08040900  0.06520100  0.00813300  1
  O  O7  1  0.93479900  0.91959100  0.49186700  1
  O  O8  1  0.92256500  0.66916200  0.32729800  1
  O  O9  1  0.33083800  0.07743500  0.17270200  1
  O  O10  1  0.07743500  0.33083800  0.67270200  1
  O  O11  1  0.66916200  0.92256500  0.82729800  1
  O  O12  1  0.88770500  0.57950400  0.90098400  1
  O  O13  1  0.42049600  0.11229500  0.59901600  1
  O  O14  1  0.11229500  0.42049600  0.09901600  1
  O  O15  1  0.57950400  0.88770500  0.40098400  1
  O  O16  1  0.18751100  0.69649000  0.36082700  1
  O  O17  1  0.30351000  0.81248900  0.13917300  1
  O  O18  1  0.81248900  0.30351000  0.63917300  1
  O  O19  1  0.69649000  0.18751100  0.86082700  1
  O  O20  1  0.71824700  0.31930900  0.33789900  1
  O  O21  1  0.68069100  0.28175300  0.16210100  1
  O  O22  1  0.28175300  0.68069100  0.66210100  1
  O  O23  1  0.31930900  0.71824700  0.83789900  1
  O  O24  1  0.90004200  0.69133500  0.69759900  1
  O  O25  1  0.30866500  0.09995800  0.80240100  1
  O  O26  1  0.09995800  0.30866500  0.30240100  1
  O  O27  1  0.69133500  0.90004200  0.19759900  1
  O  O28  1  0.78067800  0.63529300  0.29498300  1
  O  O29  1  0.36470700  0.21932200  0.20501700  1
  O  O30  1  0.21932200  0.36470700  0.70501700  1
  O  O31  1  0.63529300  0.78067800  0.79498300  1
  O  O32  1  0.13729700  0.57731400  0.54452800  1
  O  O33  1  0.42268600  0.86270300  0.95547200  1
  O  O34  1  0.86270300  0.42268600  0.45547200  1
  O  O35  1  0.57731400  0.13729700  0.04452800  1
  O  O36  1  0.85799300  0.39160800  0.30191900  1
  O  O37  1  0.60839200  0.14200700  0.19808100  1
  O  O38  1  0.14200700  0.60839200  0.69808100  1
  O  O39  1  0.39160800  0.85799300  0.80191900  1
  O  O40  1  0.60949700  0.59790000  0.70186500  1
  O  O41  1  0.40210000  0.39050300  0.79813500  1
  O  O42  1  0.39050300  0.40210000  0.29813500  1
  O  O43  1  0.59790000  0.60949700  0.20186500  1
  O  O44  1  0.81089800  0.89037900  0.92643200  1
  O  O45  1  0.10962100  0.18910200  0.57356800  1
  O  O46  1  0.18910200  0.10962100  0.07356800  1
  O  O47  1  0.89037900  0.81089800  0.42643200  1
loop_
_geom_bond_atom_site_label_1
_geom_bond_atom_site_label_2
_geom_bond_distance
_geom_bond_site_symmetry_2
K0 O13 2.743938 1_565
K0 O31 2.777446 1_555
K0 O47 2.796552 1_555
K0 O40 2.864723 1_555
K0 O24 2.866854 1_555
K0 O15 2.908827 1_555
K0 O10 3.077556 1_655
K1 O12 2.743938 1_455
K1 O30 2.777446 1_555
K1 O46 2.796552 1_556
K1 O41 2.864723 1_555
K1 O25 2.866854 1_555
K1 O14 2.908827 1_556
K1 O11 3.077556 1_545
K2 O15 2.743938 1_545
K2 O29 2.777446 1_555
K2 O45 2.796552 1_555
K2 O42 2.864723 1_555
K2 O26 2.866854 1_555
K2 O13 2.908827 1_555
K2 O8 3.077556 1_455
K3 O14 2.743938 1_655
K3 O28 2.777446 1_555
K3 O44 2.796552 1_554
K3 O43 2.864723 1_555
K3 O27 2.866854 1_555
K3 O12 2.908827 1_554
K3 O9 3.077556 1_565
K4 O4 2.742415 1_554
K4 O21 2.758750 1_565
K4 O6 2.784291 1_665
K4 O37 2.945955 1_565
K4 O17 3.001833 1_655
K4 O16 3.223610 1_655
K4 O2 3.258830 1_655
K5 O5 2.742415 1_555
K5 O20 2.758750 1_455
K5 O7 2.784291 1_445
K5 O36 2.945955 1_455
K5 O16 3.001833 1_545
K5 O17 3.223610 1_545
K5 O3 3.258830 1_545
K6 O6 2.742415 1_556
K6 O23 2.758750 1_545
K6 O4 2.784291 1_445
K6 O39 2.945955 1_545
K6 O19 3.001833 1_455
K6 O18 3.223610 1_455
K6 O0 3.258830 1_455
K7 O7 2.742415 1_555
K7 O22 2.758750 1_655
K7 O5 2.784291 1_665
K7 O38 2.945955 1_655
K7 O18 3.001833 1_565
K7 O19 3.223610 1_565
K7 O1 3.258830 1_565
K8 O6 2.695981 1_655
K8 O43 2.737648 1_555
K8 O21 2.789237 1_555
K8 O12 2.877980 1_554
K8 O0 2.893782 1_554
K8 O46 3.043251 1_655
K8 O33 3.266570 1_554
K9 O7 2.695981 1_545
K9 O42 2.737648 1_555
K9 O20 2.789237 1_555
K9 O13 2.877980 1_555
K9 O1 2.893782 1_555
K9 O47 3.043251 1_545
K9 O32 3.266570 1_555
K10 O4 2.695981 1_455
K10 O41 2.737648 1_555
K10 O23 2.789237 1_555
K10 O14 2.877980 1_556
K10 O2 2.893782 1_556
K10 O44 3.043251 1_455
K10 O35 3.266570 1_556
K11 O5 2.695981 1_565
K11 O40 2.737648 1_555
K11 O22 2.789237 1_555
K11 O15 2.877980 1_555
K11 O3 2.893782 1_555
K11 O45 3.043251 1_565
K11 O34 3.266570 1_555
B0 O32 1.473158 1_555
B0 O38 1.475392 1_555
B0 O30 1.477083 1_555
B0 O24 1.480086 1_455
B1 O33 1.473158 1_555
B1 O39 1.475392 1_555
B1 O31 1.477083 1_555
B1 O25 1.480086 1_565
B2 O34 1.473158 1_555
B2 O36 1.475392 1_555
B2 O28 1.477083 1_555
B2 O26 1.480086 1_655
B3 O35 1.473158 1_555
B3 O37 1.475392 1_555
B3 O29 1.477083 1_555
B3 O27 1.480086 1_545
H0 O0 0.977871 1_555
H0 K8 2.730120 1_556
H1 O1 0.977871 1_555
H1 K9 2.730120 1_555
H2 O2 0.977871 1_555
H2 K10 2.730120 1_554
H3 O3 0.977871 1_555
H3 K11 2.730120 1_555
H4 O8 1.054544 1_555
H4 O47 1.463020 1_555
H5 O9 1.054544 1_555
H5 O46 1.463020 1_555
H6 O10 1.054544 1_555
H6 O45 1.463020 1_555
H7 O11 1.054544 1_555
H7 O44 1.463020 1_555
H8 O16 1.026297 1_555
H8 O42 1.570827 1_555
H8 K9 3.042103 1_555
H9 O17 1.026297 1_555
H9 O43 1.570827 1_555
H9 K8 3.042103 1_555
H10 O18 1.026297 1_555
H10 O40 1.570827 1_555
H10 K11 3.042103 1_555
H11 O19 1.026297 1_555
H11 O41 1.570827 1_555
H11 K10 3.042103 1_555
O0 P11 1.649111 1_555
O1 P10 1.649111 1_555
O2 P9 1.649111 1_555
O3 P8 1.649111 1_555
O4 P7 1.509134 1_565
O5 P6 1.509134 1_455
O6 P5 1.509134 1_545
O7 P4 1.509134 1_655
O8 P0 1.584849 1_555
O9 P1 1.584849 1_555
O10 P2 1.584849 1_555
O11 P3 1.584849 1_555
O12 P3 1.502530 1_555
O13 P2 1.502530 1_555
O14 P1 1.502530 1_555
O15 P0 1.502530 1_555
O16 P4 1.600246 1_555
O17 P5 1.600246 1_555
O18 P6 1.600246 1_555
O19 P7 1.600246 1_555
O20 P8 1.501448 1_555
O21 P9 1.501448 1_555
O22 P10 1.501448 1_555
O23 P11 1.501448 1_555
O24 P3 1.575312 1_555
O25 P2 1.575312 1_555
O26 P1 1.575312 1_555
O27 P0 1.575312 1_555
O28 P0 1.567565 1_555
O29 P1 1.567565 1_555
O30 P2 1.567565 1_555
O31 P3 1.567565 1_555
O32 P4 1.594994 1_555
O33 P5 1.594994 1_556
O34 P6 1.594994 1_555
O35 P7 1.594994 1_554
O36 P8 1.589572 1_555
O37 P9 1.589572 1_555
O38 P10 1.589572 1_555
O39 P11 1.589572 1_555
O40 P11 1.520193 1_555
O41 P10 1.520193 1_555
O42 P9 1.520193 1_555
O43 P8 1.520193 1_555
O44 P7 1.534228 1_565
O45 P6 1.534228 1_455
O46 P5 1.534228 1_545
O47 P4 1.534228 1_655
