# generated using pymatgen
data_ZnCu(Si2O5)2
_symmetry_space_group_name_H-M   'P 1'
_cell_length_a   7.25721900
_cell_length_b   7.25721900
_cell_length_c   14.95452400
_cell_angle_alpha   90.00000000
_cell_angle_beta   90.00000000
_cell_angle_gamma   90.00000000
_symmetry_Int_Tables_number   1
_chemical_formula_structural   ZnCu(Si2O5)2
_chemical_formula_sum   'Zn4 Cu4 Si16 O40'
_cell_volume   787.61331937
_cell_formula_units_Z   4
loop_
 _symmetry_equiv_pos_site_id
 _symmetry_equiv_pos_as_xyz
  1  'x, y, z'
loop_
 _atom_site_type_symbol
 _atom_site_label
 _atom_site_symmetry_multiplicity
 _atom_site_fract_x
 _atom_site_fract_y
 _atom_site_fract_z
 _atom_site_occupancy
  Zn  Zn0  1  0.50000000  0.50000000  0.50000000  1
  Zn  Zn1  1  0.00000000  0.00000000  0.50000000  1
  Zn  Zn2  1  0.00000000  0.00000000  0.00000000  1
  Zn  Zn3  1  0.50000000  0.50000000  0.00000000  1
  Cu  Cu0  1  0.50000000  0.00000000  0.57317800  1
  Cu  Cu1  1  0.00000000  0.50000000  0.92682200  1
  Cu  Cu2  1  0.00000000  0.50000000  0.42682200  1
  Cu  Cu3  1  0.50000000  0.00000000  0.07317800  1
  Si  Si0  1  0.16584600  0.24156600  0.64466100  1
  Si  Si1  1  0.83415400  0.75843400  0.64466100  1
  Si  Si2  1  0.24156600  0.16584600  0.85533900  1
  Si  Si3  1  0.74156600  0.33415400  0.64466100  1
  Si  Si4  1  0.25843400  0.66584600  0.64466100  1
  Si  Si5  1  0.33415400  0.74156600  0.85533900  1
  Si  Si6  1  0.66584600  0.25843400  0.85533900  1
  Si  Si7  1  0.75843400  0.83415400  0.85533900  1
  Si  Si8  1  0.33415400  0.25843400  0.35533900  1
  Si  Si9  1  0.66584600  0.74156600  0.35533900  1
  Si  Si10  1  0.25843400  0.33415400  0.14466100  1
  Si  Si11  1  0.75843400  0.16584600  0.35533900  1
  Si  Si12  1  0.24156600  0.83415400  0.35533900  1
  Si  Si13  1  0.16584600  0.75843400  0.14466100  1
  Si  Si14  1  0.83415400  0.24156600  0.14466100  1
  Si  Si15  1  0.74156600  0.66584600  0.14466100  1
  O  O0  1  0.23813700  0.08391100  0.57602700  1
  O  O1  1  0.76186300  0.91608900  0.57602700  1
  O  O2  1  0.08391100  0.23813700  0.92397300  1
  O  O3  1  0.58391100  0.26186300  0.57602700  1
  O  O4  1  0.41608900  0.73813700  0.57602700  1
  O  O5  1  0.26186300  0.58391100  0.92397300  1
  O  O6  1  0.73813700  0.41608900  0.92397300  1
  O  O7  1  0.91608900  0.76186300  0.92397300  1
  O  O8  1  0.26186300  0.41608900  0.42397300  1
  O  O9  1  0.73813700  0.58391100  0.42397300  1
  O  O10  1  0.41608900  0.26186300  0.07602700  1
  O  O11  1  0.91608900  0.23813700  0.42397300  1
  O  O12  1  0.08391100  0.76186300  0.42397300  1
  O  O13  1  0.23813700  0.91608900  0.07602700  1
  O  O14  1  0.76186300  0.08391100  0.07602700  1
  O  O15  1  0.24893200  0.05496100  0.37548700  1
  O  O16  1  0.58391100  0.73813700  0.07602700  1
  O  O17  1  0.74893200  0.55496100  0.62451300  1
  O  O18  1  0.44503900  0.25106800  0.87548700  1
  O  O19  1  0.94503900  0.24893200  0.62451300  1
  O  O20  1  0.05496100  0.75106800  0.62451300  1
  O  O21  1  0.24893200  0.94503900  0.87548700  1
  O  O22  1  0.75106800  0.05496100  0.87548700  1
  O  O23  1  0.55496100  0.74893200  0.87548700  1
  O  O24  1  0.69855700  0.69855700  0.25000000  1
  O  O25  1  0.80144300  0.19855700  0.25000000  1
  O  O26  1  0.19855700  0.80144300  0.25000000  1
  O  O27  1  0.30144300  0.30144300  0.25000000  1
  O  O28  1  0.80144300  0.80144300  0.75000000  1
  O  O29  1  0.69855700  0.30144300  0.75000000  1
  O  O30  1  0.30144300  0.69855700  0.75000000  1
  O  O31  1  0.19855700  0.19855700  0.75000000  1
  O  O32  1  0.94503900  0.75106800  0.12451300  1
  O  O33  1  0.74893200  0.44503900  0.12451300  1
  O  O34  1  0.25106800  0.55496100  0.12451300  1
  O  O35  1  0.44503900  0.74893200  0.37548700  1
  O  O36  1  0.55496100  0.25106800  0.37548700  1
  O  O37  1  0.05496100  0.24893200  0.12451300  1
  O  O38  1  0.75106800  0.94503900  0.37548700  1
  O  O39  1  0.25106800  0.44503900  0.62451300  1
loop_
_geom_bond_atom_site_label_1
_geom_bond_atom_site_label_2
_geom_bond_distance
_geom_bond_site_symmetry_2
Cu0 O1 1.996035 1_545
Cu0 O4 1.996035 1_545
Cu0 O3 1.996035 1_555
Cu0 O0 1.996035 1_555
Cu1 O7 1.996035 1_455
Cu1 O6 1.996035 1_455
Cu1 O5 1.996035 1_555
Cu1 O2 1.996035 1_555
Cu2 O9 1.996035 1_455
Cu2 O11 1.996035 1_455
Cu2 O12 1.996035 1_555
Cu2 O8 1.996035 1_555
Cu3 O16 1.996035 1_545
Cu3 O13 1.996035 1_545
Cu3 O14 1.996035 1_555
Cu3 O10 1.996035 1_555
O0 Si0 1.624119 1_555
O0 Zn1 2.156432 1_555
O1 Si1 1.624119 1_555
O1 Zn1 2.156432 1_665
O2 Si2 1.624119 1_555
O2 Zn2 2.156432 1_556
O3 Si3 1.624119 1_555
O3 Zn0 2.156432 1_555
O4 Si4 1.624119 1_555
O4 Zn0 2.156432 1_555
O5 Si5 1.624119 1_555
O5 Zn3 2.156432 1_556
O6 Si6 1.624119 1_555
O6 Zn3 2.156432 1_556
O7 Si7 1.624119 1_555
O7 Zn2 2.156432 1_666
O8 Si8 1.624119 1_555
O8 Zn0 2.156432 1_555
O9 Si9 1.624119 1_555
O9 Zn0 2.156432 1_555
O10 Si10 1.624119 1_555
O10 Zn3 2.156432 1_555
O11 Si11 1.624119 1_555
O11 Zn1 2.156432 1_655
O12 Si12 1.624119 1_555
O12 Zn1 2.156432 1_565
O13 Si13 1.624119 1_555
O13 Zn2 2.156432 1_565
O14 Si14 1.624119 1_555
O14 Zn2 2.156432 1_655
O15 Si8 1.629044 1_555
O15 Si12 1.631401 1_545
O16 Si15 1.624119 1_555
O16 Zn3 2.156432 1_555
O17 Si1 1.629044 1_555
O17 Si3 1.631401 1_555
O18 Si2 1.629044 1_555
O18 Si6 1.631401 1_555
O19 Si3 1.629044 1_555
O19 Si0 1.631401 1_655
O20 Si4 1.629044 1_555
O20 Si1 1.631401 1_455
O21 Si5 1.629044 1_555
O21 Si2 1.631401 1_565
O22 Si6 1.629044 1_555
O22 Si7 1.631401 1_545
O23 Si7 1.629044 1_555
O23 Si5 1.631401 1_555
O24 Si15 1.623370 1_555
O24 Si9 1.623370 1_555
O25 Si14 1.623370 1_555
O25 Si11 1.623370 1_555
O26 Si13 1.623370 1_555
O26 Si12 1.623370 1_555
O27 Si10 1.623370 1_555
O27 Si8 1.623370 1_555
O28 Si7 1.623370 1_555
O28 Si1 1.623370 1_555
O29 Si3 1.623370 1_555
O29 Si6 1.623370 1_555
O30 Si5 1.623370 1_555
O30 Si4 1.623370 1_555
O31 Si2 1.623370 1_555
O31 Si0 1.623370 1_555
O32 Si15 1.629044 1_555
O32 Si13 1.631401 1_655
O33 Si14 1.629044 1_555
O33 Si15 1.631401 1_555
O34 Si13 1.629044 1_555
O34 Si10 1.631401 1_555
O35 Si12 1.629044 1_555
O35 Si9 1.631401 1_555
O36 Si11 1.629044 1_555
O36 Si8 1.631401 1_555
O37 Si10 1.629044 1_555
O37 Si14 1.631401 1_455
O38 Si9 1.629044 1_555
O38 Si11 1.631401 1_565
O39 Si0 1.629044 1_555
O39 Si4 1.631401 1_555
