# generated using pymatgen
data_DyP2(HO2)5
_symmetry_space_group_name_H-M   'P 1'
_cell_length_a   6.45267900
_cell_length_b   6.95170914
_cell_length_c   10.00202835
_cell_angle_alpha   98.49712365
_cell_angle_beta   98.65916412
_cell_angle_gamma   88.80294807
_symmetry_Int_Tables_number   1
_chemical_formula_structural   DyP2(HO2)5
_chemical_formula_sum   'Dy2 P4 H10 O20'
_cell_volume   438.67923060
_cell_formula_units_Z   2
loop_
 _symmetry_equiv_pos_site_id
 _symmetry_equiv_pos_as_xyz
  1  'x, y, z'
loop_
 _atom_site_type_symbol
 _atom_site_label
 _atom_site_symmetry_multiplicity
 _atom_site_fract_x
 _atom_site_fract_y
 _atom_site_fract_z
 _atom_site_occupancy
  Dy  Dy0  1  0.36874600  0.26079600  0.54117600  1
  Dy  Dy1  1  0.63028100  0.73971700  0.45916700  1
  P  P0  1  0.80464500  0.23324100  0.43484300  1
  P  P1  1  0.19458800  0.76778600  0.56530000  1
  P  P2  1  0.05713300  0.13895400  0.20978300  1
  P  P3  1  0.94151100  0.86057500  0.79009500  1
  H  H0  1  0.72023600  0.48526700  0.73586000  1
  H  H1  1  0.27548300  0.51516300  0.26546600  1
  H  H2  1  0.76737900  0.26616300  0.76371200  1
  H  H3  1  0.23215300  0.73384600  0.23607200  1
  H  H4  1  0.97637100  0.17580300  0.98815400  1
  H  H5  1  0.02189100  0.82403500  0.01205600  1
  H  H6  1  0.15087400  0.20410000  0.78828800  1
  H  H7  1  0.84873900  0.79356300  0.21321500  1
  H  H8  1  0.38311600  0.28396200  0.84342300  1
  H  H9  1  0.62496900  0.69406500  0.15695800  1
  O  O0  1  0.84353000  0.18038500  0.27697400  1
  O  O1  1  0.15495000  0.82133200  0.72283500  1
  O  O2  1  0.02014400  0.25134500  0.08355700  1
  O  O3  1  0.98054900  0.74836800  0.91630500  1
  O  O4  1  0.66022800  0.41201300  0.44102400  1
  O  O5  1  0.33828100  0.58855800  0.55960800  1
  O  O6  1  0.65651100  0.35730100  0.73250500  1
  O  O7  1  0.34140500  0.64197800  0.26836700  1
  O  O8  1  0.66606600  0.06997300  0.46359400  1
  O  O9  1  0.33411000  0.93068900  0.53700400  1
  O  O10  1  0.24217900  0.23044100  0.30855500  1
  O  O11  1  0.75691900  0.76756100  0.69165400  1
  O  O12  1  0.01337300  0.25808100  0.52622900  1
  O  O13  1  0.98593600  0.74395100  0.47405500  1
  O  O14  1  0.06490000  0.91865400  0.16544900  1
  O  O15  1  0.93156300  0.08074100  0.83428800  1
  O  O16  1  0.27248500  0.26983300  0.76505000  1
  O  O17  1  0.72898100  0.72670900  0.23786800  1
  O  O18  1  0.50282900  0.98721800  0.97482300  1
  O  O19  1  0.49534600  0.80942900  0.97028700  1
loop_
_geom_bond_atom_site_label_1
_geom_bond_atom_site_label_2
_geom_bond_distance
_geom_bond_site_symmetry_2
Dy0 O5 2.265454 1_555
Dy0 O12 2.275697 1_555
Dy0 O9 2.303944 1_545
Dy0 O10 2.326995 1_555
Dy0 O16 2.404029 1_555
Dy0 O8 2.465824 1_555
Dy0 O6 2.482502 1_555
Dy0 O4 2.570444 1_555
Dy1 O4 2.264955 1_555
Dy1 O13 2.277797 1_555
Dy1 O8 2.305473 1_565
Dy1 O11 2.326769 1_555
Dy1 O17 2.382441 1_555
Dy1 O9 2.461185 1_555
Dy1 O7 2.485311 1_555
Dy1 O5 2.574541 1_555
H0 O6 0.981770 1_555
H1 O7 0.981510 1_555
H2 O6 0.991407 1_555
H3 O7 0.991344 1_555
H4 O2 1.021300 1_656
H4 O15 1.569139 1_555
H5 O3 1.022308 1_454
H5 O14 1.563572 1_555
H6 O16 0.989900 1_555
H7 O17 0.990050 1_555
H8 O16 0.972322 1_555
H9 O17 0.972318 1_555
O0 P0 1.623339 1_555
O0 P2 1.624645 1_655
O1 P1 1.621961 1_555
O1 P3 1.622615 1_455
O2 P2 1.566632 1_555
O3 P3 1.566038 1_555
O4 P0 1.537189 1_555
O5 P1 1.536874 1_555
O8 P0 1.544925 1_555
O9 P1 1.545028 1_555
O10 P2 1.515606 1_555
O11 P3 1.515652 1_555
O12 P0 1.507214 1_455
O13 P1 1.505888 1_655
O14 P2 1.532095 1_565
O15 P3 1.531841 1_545
O18 O19 1.231744 1_555
