# generated using pymatgen
data_Tb5Bi3
_symmetry_space_group_name_H-M   'P 1'
_cell_length_a   6.40020990
_cell_length_b   9.18261438
_cell_length_c   9.18274044
_cell_angle_alpha   119.99956648
_cell_angle_beta   89.99998426
_cell_angle_gamma   90.00001206
_symmetry_Int_Tables_number   1
_chemical_formula_structural   Tb5Bi3
_chemical_formula_sum   'Tb10 Bi6'
_cell_volume   467.37491733
_cell_formula_units_Z   2
loop_
 _symmetry_equiv_pos_site_id
 _symmetry_equiv_pos_as_xyz
  1  'x, y, z'
loop_
 _atom_site_type_symbol
 _atom_site_label
 _atom_site_symmetry_multiplicity
 _atom_site_fract_x
 _atom_site_fract_y
 _atom_site_fract_z
 _atom_site_occupancy
  Tb  Tb0  1  0.50000087  0.33333169  0.66665197  1
  Tb  Tb1  1  0.50000075  0.66665373  0.33331128  1
  Tb  Tb2  1  -0.00000129  0.66665368  0.33331155  1
  Tb  Tb3  1  -0.00000142  0.33333166  0.66665174  1
  Tb  Tb4  1  0.74999872  0.24559336  0.00002987  1
  Tb  Tb5  1  0.75000065  0.75440010  0.75441934  1
  Tb  Tb6  1  0.75000038  0.00000803  0.24560026  1
  Tb  Tb7  1  0.25000003  0.75443261  0.00002446  1
  Tb  Tb8  1  0.25000007  0.24559165  0.24560199  1
  Tb  Tb9  1  0.24999982  0.00001131  0.75441643  1
  Bi  Bi0  1  0.74999881  0.61209026  0.00000219  1
  Bi  Bi1  1  0.74999957  0.38788820  0.38790165  1
  Bi  Bi2  1  0.74999929  0.00000707  0.61208038  1
  Bi  Bi3  1  0.24999899  0.38791895  0.00000966  1
  Bi  Bi4  1  0.25000064  0.61207216  0.61208500  1
  Bi  Bi5  1  0.25000010  0.00001555  0.38790021  1
loop_
_geom_bond_atom_site_label_1
_geom_bond_atom_site_label_2
_geom_bond_distance
_geom_bond_site_symmetry_2
Tb0 Tb3 3.200090 1_655
Tb0 Tb3 3.200120 1_555
Tb0 Tb8 3.878564 1_555
Tb0 Tb5 3.878588 1_555
Tb0 Tb6 3.878606 1_555
Tb0 Tb9 3.878734 1_555
Tb0 Tb7 3.878992 1_556
Tb0 Tb4 3.879085 1_556
Tb1 Tb2 3.200092 1_655
Tb1 Tb2 3.200118 1_555
Tb1 Tb4 3.878517 1_555
Tb1 Tb7 3.878570 1_555
Tb1 Tb8 3.878694 1_555
Tb1 Tb6 3.878713 1_565
Tb1 Tb9 3.878995 1_565
Tb1 Tb5 3.879021 1_555
Tb2 Tb4 3.878523 1_455
Tb2 Tb7 3.878573 1_555
Tb2 Tb8 3.878695 1_555
Tb2 Tb6 3.878712 1_465
Tb2 Tb9 3.878995 1_565
Tb2 Tb5 3.879013 1_455
Tb3 Tb8 3.878563 1_555
Tb3 Tb5 3.878583 1_455
Tb3 Tb6 3.878601 1_455
Tb3 Tb9 3.878737 1_555
Tb3 Tb7 3.878994 1_556
Tb3 Tb4 3.879091 1_456
Tb4 Tb6 3.905874 1_555
Tb4 Tb5 3.906171 1_544
Tb4 Tb8 3.914816 1_555
Tb4 Tb8 3.914831 1_655
Tb4 Tb9 3.914949 1_554
Tb4 Tb9 3.914960 1_654
Tb5 Tb6 3.906127 1_566
Tb5 Tb7 3.914905 1_656
Tb5 Tb7 3.914911 1_556
Tb5 Tb9 3.915011 1_665
Tb5 Tb9 3.915021 1_565
Tb6 Tb7 3.914835 1_645
Tb6 Tb7 3.914839 1_545
Tb6 Tb8 3.914856 1_655
Tb6 Tb8 3.914860 1_555
Tb7 Tb8 3.905899 1_565
Tb7 Tb9 3.906120 1_564
Tb8 Tb9 3.906164 1_554
Bi0 Tb5 3.120921 1_554
Bi0 Tb6 3.121121 1_565
Bi0 Tb1 3.262744 1_555
Bi0 Tb2 3.262753 1_655
Bi0 Tb0 3.262987 1_554
Bi0 Tb3 3.262994 1_654
Bi0 Tb4 3.365527 1_555
Bi0 Tb7 3.456704 1_555
Bi0 Tb7 3.456718 1_655
Bi1 Tb4 3.120796 1_555
Bi1 Tb6 3.120810 1_555
Bi1 Tb0 3.262736 1_555
Bi1 Tb3 3.262737 1_655
Bi1 Tb2 3.263000 1_655
Bi1 Tb1 3.263001 1_555
Bi1 Tb5 3.365609 1_555
Bi1 Tb8 3.456600 1_555
Bi1 Tb8 3.456605 1_655
Bi2 Tb5 3.121322 1_545
Bi2 Tb4 3.121365 1_556
Bi2 Tb0 3.262806 1_555
Bi2 Tb3 3.262809 1_655
Bi2 Tb1 3.263023 1_545
Bi2 Tb2 3.263025 1_645
Bi2 Tb6 3.365296 1_555
Bi2 Tb9 3.456723 1_555
Bi2 Tb9 3.456730 1_655
Bi3 Tb9 3.121042 1_554
Bi3 Tb8 3.121128 1_555
Bi3 Tb2 3.262683 1_555
Bi3 Tb1 3.262686 1_555
Bi3 Tb3 3.263069 1_554
Bi3 Tb0 3.263071 1_554
Bi3 Tb7 3.365486 1_555
Bi3 Tb4 3.456725 1_555
Bi3 Tb4 3.456728 1_455
Bi4 Tb9 3.121273 1_565
Bi4 Tb7 3.121284 1_556
Bi4 Tb0 3.262690 1_555
Bi4 Tb3 3.262694 1_555
Bi4 Tb1 3.263052 1_555
Bi4 Tb2 3.263056 1_555
Bi4 Tb8 3.365306 1_555
Bi4 Tb5 3.456717 1_455
Bi4 Tb5 3.456717 1_555
Bi5 Tb8 3.120766 1_555
Bi5 Tb7 3.120833 1_545
Bi5 Tb0 3.262793 1_555
Bi5 Tb3 3.262795 1_555
Bi5 Tb1 3.263057 1_545
Bi5 Tb2 3.263060 1_545
Bi5 Tb9 3.365643 1_555
Bi5 Tb6 3.456595 1_455
Bi5 Tb6 3.456597 1_555
