# generated using pymatgen
data_Ba3(Br2Cl)2
_symmetry_space_group_name_H-M   'P 1'
_cell_length_a   8.28291994
_cell_length_b   10.90057484
_cell_length_c   13.81681815
_cell_angle_alpha   71.88788230
_cell_angle_beta   89.87234452
_cell_angle_gamma   89.83636676
_symmetry_Int_Tables_number   1
_chemical_formula_structural   Ba3(Br2Cl)2
_chemical_formula_sum   'Ba12 Br16 Cl8'
_cell_volume   1185.68132779
_cell_formula_units_Z   4
loop_
 _symmetry_equiv_pos_site_id
 _symmetry_equiv_pos_as_xyz
  1  'x, y, z'
loop_
 _atom_site_type_symbol
 _atom_site_label
 _atom_site_symmetry_multiplicity
 _atom_site_fract_x
 _atom_site_fract_y
 _atom_site_fract_z
 _atom_site_occupancy
  Ba  Ba0  1  0.76427994  0.99247750  0.62145987  1
  Ba  Ba1  1  0.75376473  0.65821672  0.95378712  1
  Ba  Ba2  1  0.76432905  0.32599136  0.28803644  1
  Ba  Ba3  1  0.25425791  0.16917606  0.70945907  1
  Ba  Ba4  1  0.25420591  0.84204142  0.04672045  1
  Ba  Ba5  1  0.25479835  0.50234590  0.37605346  1
  Ba  Ba6  1  0.23896072  0.67076601  0.70379438  1
  Ba  Ba7  1  0.23925096  0.32978563  0.04610594  1
  Ba  Ba8  1  0.23808529  0.00371756  0.37737051  1
  Ba  Ba9  1  0.73910865  0.50222462  0.62674424  1
  Ba  Ba10  1  0.73967701  0.17034138  0.95856217  1
  Ba  Ba11  1  0.73860254  0.83548555  0.29375377  1
  Br  Br0  1  0.53120618  0.80279411  0.52519857  1
  Br  Br1  1  0.52990035  0.46727834  0.85822876  1
  Br  Br2  1  0.53085328  0.13422134  0.19332071  1
  Br  Br3  1  0.02966527  0.69958616  0.47515287  1
  Br  Br4  1  0.02904600  0.36560413  0.80767945  1
  Br  Br5  1  0.02859245  0.03461110  0.14247744  1
  Br  Br6  1  0.47144237  0.86314873  0.80292112  1
  Br  Br7  1  0.47133274  0.52524847  0.14120543  1
  Br  Br8  1  0.47042448  0.19422521  0.47197867  1
  Br  Br9  1  0.97294603  0.97179185  0.85935591  1
  Br  Br10  1  0.97290888  0.63634035  0.19503637  1
  Br  Br11  1  0.97331755  0.30280742  0.52597400  1
  Br  Br12  1  0.64513405  0.87062844  0.06036642  1
  Br  Br13  1  0.64445748  0.53679501  0.39389757  1
  Br  Br14  1  0.64379828  0.20385940  0.72610051  1
  Br  Br15  1  0.14575702  0.62926508  0.93933349  1
  Cl  Cl0  1  0.14298475  0.29394257  0.27272298  1
  Cl  Cl1  1  0.14290061  0.96159891  0.60511987  1
  Cl  Cl2  1  0.35633917  0.13003079  0.93914527  1
  Cl  Cl3  1  0.35494654  0.79647218  0.27491481  1
  Cl  Cl4  1  0.35545156  0.46205067  0.60536096  1
  Cl  Cl5  1  0.85871800  0.37137778  0.06122538  1
  Cl  Cl6  1  0.85964100  0.03844909  0.39437101  1
  Cl  Cl7  1  0.85891092  0.70530013  0.72706700  1
loop_
_geom_bond_atom_site_label_1
_geom_bond_atom_site_label_2
_geom_bond_distance
_geom_bond_site_symmetry_2
Ba0 Cl7 3.113514 1_555
Ba0 Cl6 3.119847 1_565
Ba0 Cl1 3.168179 1_655
Ba0 Br14 3.232218 1_565
Ba0 Br0 3.393408 1_555
Ba0 Br6 3.457115 1_555
Ba0 Br8 3.492000 1_565
Ba0 Br9 3.661216 1_555
Ba0 Br11 3.664705 1_565
Ba1 Cl7 3.134575 1_555
Ba1 Cl5 3.136879 1_556
Ba1 Br12 3.231315 1_556
Ba1 Br15 3.272903 1_655
Ba1 Br1 3.354845 1_555
Ba1 Br6 3.449688 1_555
Ba1 Br7 3.455115 1_556
Ba1 Br9 3.732825 1_555
Ba1 Br10 3.740693 1_556
Ba2 Cl5 3.115135 1_555
Ba2 Cl6 3.119928 1_555
Ba2 Cl0 3.168659 1_655
Ba2 Br13 3.236618 1_555
Ba2 Br2 3.399631 1_555
Ba2 Br7 3.460521 1_555
Ba2 Br8 3.488728 1_555
Ba2 Br11 3.657125 1_555
Ba2 Br10 3.660764 1_555
Ba3 Cl1 3.177253 1_545
Ba3 Cl4 3.180924 1_555
Ba3 Cl2 3.183747 1_555
Ba3 Br14 3.266594 1_555
Ba3 Br9 3.403617 1_445
Ba3 Br11 3.416841 1_455
Ba3 Br4 3.417411 1_555
Ba3 Br6 3.650952 1_545
Ba3 Br8 3.669659 1_555
Ba4 Cl2 3.144553 1_564
Ba4 Cl3 3.149525 1_555
Ba4 Br15 3.247380 1_554
Ba4 Br12 3.265346 1_555
Ba4 Br5 3.367836 1_565
Ba4 Br10 3.436206 1_455
Ba4 Br9 3.443980 1_454
Ba4 Br7 3.746397 1_555
Ba4 Br6 3.759133 1_554
Ba5 Cl4 3.173410 1_555
Ba5 Cl0 3.176668 1_555
Ba5 Cl3 3.185060 1_555
Ba5 Br13 3.269050 1_555
Ba5 Br10 3.402295 1_455
Ba5 Br11 3.415219 1_455
Ba5 Br3 3.430873 1_555
Ba5 Br7 3.644327 1_555
Ba5 Br8 3.665489 1_555
Ba6 Cl1 3.137734 1_555
Ba6 Cl4 3.140435 1_555
Ba6 Cl7 3.196639 1_455
Ba6 Br15 3.235303 1_555
Ba6 Br6 3.435442 1_555
Ba6 Br0 3.435863 1_555
Ba6 Br1 3.511418 1_555
Ba6 Br3 3.533853 1_555
Ba6 Br4 3.633431 1_555
Ba7 Cl0 3.134074 1_555
Ba7 Cl2 3.138187 1_554
Ba7 Cl5 3.198689 1_455
Ba7 Br15 3.229447 1_554
Ba7 Br7 3.425908 1_555
Ba7 Br2 3.436858 1_555
Ba7 Br1 3.514862 1_554
Ba7 Br5 3.539527 1_555
Ba7 Br4 3.641188 1_554
Ba8 Cl1 3.134850 1_545
Ba8 Cl0 3.141076 1_555
Ba8 Cl3 3.164517 1_545
Ba8 Cl6 3.173264 1_455
Ba8 Br8 3.383267 1_555
Ba8 Br0 3.474731 1_545
Ba8 Br2 3.480509 1_555
Ba8 Br5 3.605509 1_555
Ba8 Br3 3.610205 1_545
Ba9 Cl7 3.119736 1_555
Ba9 Br14 3.212383 1_555
Ba9 Br13 3.219127 1_555
Ba9 Cl4 3.235747 1_555
Ba9 Br4 3.453467 1_655
Ba9 Br3 3.465943 1_655
Ba9 Br11 3.503258 1_555
Ba9 Br1 3.549518 1_555
Ba9 Br0 3.576172 1_555
Ba10 Cl5 3.120555 1_556
Ba10 Br14 3.218761 1_555
Ba10 Br12 3.227664 1_546
Ba10 Cl2 3.229819 1_555
Ba10 Br4 3.445169 1_655
Ba10 Br5 3.470211 1_656
Ba10 Br9 3.479240 1_545
Ba10 Br1 3.550551 1_555
Ba10 Br2 3.585062 1_556
Ba11 Cl6 3.124712 1_565
Ba11 Br13 3.214363 1_555
Ba11 Br12 3.222732 1_555
Ba11 Cl3 3.229117 1_555
Ba11 Br3 3.462159 1_655
Ba11 Br5 3.469324 1_665
Ba11 Br10 3.484868 1_555
Ba11 Br0 3.546068 1_555
Ba11 Br2 3.558063 1_565
