# generated using pymatgen
data_Sr3V3(BiO7)2
_symmetry_space_group_name_H-M   'P 1'
_cell_length_a   7.12185000
_cell_length_b   7.30849557
_cell_length_c   14.29994526
_cell_angle_alpha   99.11882618
_cell_angle_beta   96.83614266
_cell_angle_gamma   109.85482214
_symmetry_Int_Tables_number   1
_chemical_formula_structural   Sr3V3(BiO7)2
_chemical_formula_sum   'Sr6 V6 Bi4 O28'
_cell_volume   679.14043070
_cell_formula_units_Z   2
loop_
 _symmetry_equiv_pos_site_id
 _symmetry_equiv_pos_as_xyz
  1  'x, y, z'
loop_
 _atom_site_type_symbol
 _atom_site_label
 _atom_site_symmetry_multiplicity
 _atom_site_fract_x
 _atom_site_fract_y
 _atom_site_fract_z
 _atom_site_occupancy
  Sr  Sr0  1  0.74525700  0.31537100  0.83099300  1
  Sr  Sr1  1  0.25474300  0.68462900  0.16900700  1
  Sr  Sr2  1  0.77291300  0.83262600  0.05808700  1
  Sr  Sr3  1  0.22708700  0.16737400  0.94191300  1
  Sr  Sr4  1  0.74162200  0.91132500  0.55763900  1
  Sr  Sr5  1  0.25837800  0.08867500  0.44236100  1
  V  V0  1  0.73752800  0.39050600  0.56808800  1
  V  V1  1  0.26247200  0.60949400  0.43191200  1
  V  V2  1  0.72699000  0.83377700  0.79479400  1
  V  V3  1  0.27301000  0.16622300  0.20520600  1
  V  V4  1  0.20776000  0.65333200  0.91679400  1
  V  V5  1  0.79224000  0.34666800  0.08320600  1
  Bi  Bi0  1  0.22887200  0.87983000  0.68537800  1
  Bi  Bi1  1  0.77112800  0.12017000  0.31462200  1
  Bi  Bi2  1  0.72969400  0.63218000  0.30192300  1
  Bi  Bi3  1  0.27030600  0.36782000  0.69807700  1
  O  O0  1  0.33629200  0.81410100  0.53109400  1
  O  O1  1  0.66370800  0.18589900  0.46890600  1
  O  O2  1  0.87657400  0.92928600  0.39748700  1
  O  O3  1  0.12342600  0.07071400  0.60251300  1
  O  O4  1  0.29471400  0.83916100  0.85234000  1
  O  O5  1  0.70528600  0.16083900  0.14766000  1
  O  O6  1  0.98244500  0.65619600  0.94713200  1
  O  O7  1  0.01755500  0.34380400  0.05286800  1
  O  O8  1  0.87076600  0.32936300  0.66048100  1
  O  O9  1  0.12923400  0.67063700  0.33951900  1
  O  O10  1  0.63397200  0.82195900  0.22482500  1
  O  O11  1  0.36602800  0.17804100  0.77517500  1
  O  O12  1  0.58522500  0.58815100  0.79994900  1
  O  O13  1  0.41477500  0.41184900  0.20005100  1
  O  O14  1  0.58896100  0.93004900  0.71877700  1
  O  O15  1  0.41103900  0.06995100  0.28122300  1
  O  O16  1  0.60945600  0.31792300  0.98486500  1
  O  O17  1  0.39054400  0.68207700  0.01513500  1
  O  O18  1  0.49888400  0.61309000  0.40600400  1
  O  O19  1  0.50111600  0.38691000  0.59399600  1
  O  O20  1  0.85931800  0.58950900  0.15777200  1
  O  O21  1  0.14068200  0.41049100  0.84222800  1
  O  O22  1  0.87731700  0.61791900  0.54565700  1
  O  O23  1  0.12268300  0.38208100  0.45434300  1
  O  O24  1  0.93499200  0.85061200  0.74031000  1
  O  O25  1  0.06500800  0.14938800  0.25969000  1
  O  O26  1  0.81610000  0.99374300  0.90608400  1
  O  O27  1  0.18390000  0.00625700  0.09391600  1
loop_
_geom_bond_atom_site_label_1
_geom_bond_atom_site_label_2
_geom_bond_distance
_geom_bond_site_symmetry_2
Bi0 O11 2.172866 1_565
Bi0 O3 2.222188 1_565
Bi0 O24 2.276870 1_455
Bi0 O14 2.439871 1_555
Bi0 O0 2.449306 1_555
Bi0 O4 2.462051 1_555
Bi1 O10 2.172866 1_545
Bi1 O2 2.222188 1_545
Bi1 O25 2.276870 1_655
Bi1 O15 2.439871 1_555
Bi1 O1 2.449306 1_555
Bi1 O5 2.462051 1_555
Bi2 O10 2.133555 1_555
Bi2 O2 2.202936 1_555
Bi2 O18 2.330060 1_555
Bi2 O20 2.375600 1_555
Bi2 O13 2.402244 1_555
Bi2 O9 2.740323 1_655
Bi3 O11 2.133555 1_555
Bi3 O3 2.202936 1_555
Bi3 O19 2.330060 1_555
Bi3 O21 2.375600 1_555
Bi3 O12 2.402244 1_555
Bi3 O8 2.740323 1_455
O0 V1 1.772093 1_555
O0 Sr4 2.691162 1_555
O0 Sr5 2.709380 1_565
O1 V0 1.772093 1_555
O1 Sr5 2.691162 1_555
O1 Sr4 2.709380 1_545
O2 Sr5 2.521625 1_665
O2 Sr4 2.592180 1_555
O3 Sr4 2.521625 1_445
O3 Sr5 2.592180 1_555
O4 V4 1.743235 1_555
O4 Sr3 2.753972 1_565
O5 V5 1.743235 1_555
O5 Sr2 2.753972 1_545
O6 V4 1.717336 1_655
O6 Sr0 2.641785 1_555
O6 Sr2 2.762093 1_556
O7 V5 1.717336 1_455
O7 Sr1 2.641785 1_555
O7 Sr3 2.762093 1_554
O8 V0 1.738511 1_555
O8 Sr0 2.700111 1_555
O8 Sr4 2.947570 1_545
O9 V1 1.738511 1_555
O9 Sr1 2.700111 1_555
O9 Sr5 2.947570 1_565
O10 Sr1 2.516027 1_555
O10 Sr2 2.690447 1_555
O11 Sr0 2.516027 1_555
O11 Sr3 2.690447 1_555
O12 V2 1.753820 1_555
O12 Sr0 2.678438 1_555
O13 V3 1.753820 1_555
O13 Sr1 2.678438 1_555
O14 V2 1.760940 1_555
O14 Sr4 2.666074 1_555
O14 Sr0 2.785264 1_565
O15 V3 1.760940 1_555
O15 Sr5 2.666074 1_555
O15 Sr1 2.785264 1_545
O16 V5 1.732369 1_556
O16 Sr0 2.506628 1_555
O16 Sr3 2.521087 1_555
O17 V4 1.732369 1_554
O17 Sr1 2.506628 1_555
O17 Sr2 2.521087 1_555
O18 V1 1.759059 1_555
O18 Sr4 2.737017 1_555
O19 V0 1.759059 1_555
O19 Sr5 2.737017 1_555
O20 V5 1.793900 1_555
O20 Sr2 2.627640 1_555
O20 Sr1 2.639484 1_655
O21 V4 1.793900 1_555
O21 Sr3 2.627640 1_555
O21 Sr0 2.639484 1_455
O22 V0 1.725529 1_555
O22 Sr4 2.625296 1_555
O23 V1 1.725529 1_555
O23 Sr5 2.625296 1_555
O24 V2 1.731451 1_555
O24 Sr4 2.973723 1_555
O25 V3 1.731451 1_555
O25 Sr5 2.973723 1_555
O26 V2 1.722817 1_555
O26 Sr2 2.632539 1_556
O26 Sr3 2.711818 1_665
O26 Sr0 2.899942 1_565
O27 V3 1.722817 1_555
O27 Sr3 2.632539 1_554
O27 Sr2 2.711818 1_445
O27 Sr1 2.899942 1_545
