# generated using pymatgen
data_As7Rh12
_symmetry_space_group_name_H-M   'P 1'
_cell_length_a   3.72707900
_cell_length_b   9.40699109
_cell_length_c   9.40699109
_cell_angle_alpha   119.99999363
_cell_angle_beta   90.00000000
_cell_angle_gamma   90.00000000
_symmetry_Int_Tables_number   1
_chemical_formula_structural   As7Rh12
_chemical_formula_sum   'As7 Rh12'
_cell_volume   285.62796363
_cell_formula_units_Z   1
loop_
 _symmetry_equiv_pos_site_id
 _symmetry_equiv_pos_as_xyz
  1  'x, y, z'
loop_
 _atom_site_type_symbol
 _atom_site_label
 _atom_site_symmetry_multiplicity
 _atom_site_fract_x
 _atom_site_fract_y
 _atom_site_fract_z
 _atom_site_occupancy
  As  As0  1  0.58766400  0.00000000  0.00000000  1
  As  As1  1  0.74987500  0.28651200  0.84160300  1
  As  As2  1  0.74987500  0.15839700  0.44490900  1
  As  As3  1  0.74987500  0.55509100  0.71348800  1
  As  As4  1  0.25323800  0.71520800  0.16131200  1
  As  As5  1  0.25323800  0.83868800  0.55389600  1
  As  As6  1  0.25323800  0.44610400  0.28479200  1
  Rh  Rh0  1  0.75549100  0.99018700  0.74853800  1
  Rh  Rh1  1  0.75549100  0.25146200  0.24165000  1
  Rh  Rh2  1  0.75549100  0.75835000  0.00981300  1
  Rh  Rh3  1  0.25452600  0.00757100  0.23557500  1
  Rh  Rh4  1  0.25452600  0.76442500  0.77199600  1
  Rh  Rh5  1  0.25452600  0.22800400  0.99242900  1
  Rh  Rh6  1  0.75429700  0.51549700  0.13403900  1
  Rh  Rh7  1  0.75429700  0.86596100  0.38145800  1
  Rh  Rh8  1  0.75429700  0.61854200  0.48450300  1
  Rh  Rh9  1  0.24768600  0.48318500  0.86251500  1
  Rh  Rh10  1  0.24768600  0.13748500  0.62067100  1
  Rh  Rh11  1  0.24768600  0.37932900  0.51681500  1
loop_
_geom_bond_atom_site_label_1
_geom_bond_atom_site_label_2
_geom_bond_distance
_geom_bond_site_symmetry_2
As0 Rh0 2.403541 1_544
As0 Rh1 2.403546 1_555
As0 Rh2 2.403550 1_545
As0 Rh5 2.509936 1_554
As0 Rh3 2.509936 1_555
As0 Rh4 2.509936 1_544
As1 Rh0 2.469171 1_545
As1 Rh6 2.506439 1_556
As1 Rh5 2.550556 1_555
As1 Rh9 2.557354 1_655
As1 Rh9 2.569217 1_555
As1 Rh5 2.575763 1_655
As1 Rh10 2.610275 1_655
As1 Rh10 2.621898 1_555
As2 Rh1 2.469162 1_555
As2 Rh7 2.506439 1_545
As2 Rh3 2.550556 1_555
As2 Rh10 2.557361 1_655
As2 Rh10 2.569223 1_555
As2 Rh3 2.575763 1_655
As2 Rh11 2.610274 1_655
As2 Rh11 2.621897 1_555
As3 Rh2 2.469169 1_556
As3 Rh8 2.506439 1_555
As3 Rh4 2.550556 1_555
As3 Rh11 2.557357 1_655
As3 Rh11 2.569220 1_555
As3 Rh4 2.575763 1_655
As3 Rh9 2.610280 1_655
As3 Rh9 2.621903 1_555
As4 Rh3 2.476016 1_565
As4 Rh2 2.493128 1_455
As4 Rh2 2.505649 1_555
As4 Rh9 2.555369 1_554
As4 Rh6 2.563465 1_455
As4 Rh6 2.569198 1_555
As4 Rh7 2.611711 1_455
As4 Rh7 2.617337 1_555
As5 Rh4 2.476016 1_555
As5 Rh0 2.493132 1_455
As5 Rh0 2.505654 1_555
As5 Rh10 2.555366 1_565
As5 Rh7 2.563465 1_455
As5 Rh7 2.569198 1_555
As5 Rh8 2.611710 1_455
As5 Rh8 2.617337 1_555
As6 Rh5 2.476016 1_554
As6 Rh1 2.493134 1_455
As6 Rh1 2.505656 1_555
As6 Rh11 2.555375 1_555
As6 Rh8 2.563465 1_455
As6 Rh8 2.569198 1_555
As6 Rh6 2.611710 1_455
As6 Rh6 2.617337 1_555
