# generated using pymatgen
data_Ce(HoS2)3
_symmetry_space_group_name_H-M   'P 1'
_cell_length_a   3.96666392
_cell_length_b   11.04144434
_cell_length_c   11.30694954
_cell_angle_alpha   71.37559865
_cell_angle_beta   90.00000000
_cell_angle_gamma   90.00000000
_symmetry_Int_Tables_number   1
_chemical_formula_structural   Ce(HoS2)3
_chemical_formula_sum   'Ce2 Ho6 S12'
_cell_volume   469.28501553
_cell_formula_units_Z   2
loop_
 _symmetry_equiv_pos_site_id
 _symmetry_equiv_pos_as_xyz
  1  'x, y, z'
loop_
 _atom_site_type_symbol
 _atom_site_label
 _atom_site_symmetry_multiplicity
 _atom_site_fract_x
 _atom_site_fract_y
 _atom_site_fract_z
 _atom_site_occupancy
  Ce  Ce0  1  0.75000000  0.54969261  0.80598588  1
  Ce  Ce1  1  0.25000000  0.45030739  0.19401412  1
  Ho  Ho0  1  0.75000000  0.17922113  0.99911953  1
  Ho  Ho1  1  0.25000000  0.82077887  0.00088047  1
  Ho  Ho2  1  0.75000000  0.94223313  0.66681919  1
  Ho  Ho3  1  0.25000000  0.05776687  0.33318081  1
  Ho  Ho4  1  0.75000000  0.66095232  0.41281438  1
  Ho  Ho5  1  0.25000000  0.33904768  0.58718562  1
  S  S0  1  0.75000000  0.97853603  0.88799237  1
  S  S1  1  0.25000000  0.02146397  0.11200763  1
  S  S2  1  0.75000000  0.30440767  0.74978334  1
  S  S3  1  0.25000000  0.69559233  0.25021666  1
  S  S4  1  0.75000000  0.89392065  0.44168378  1
  S  S5  1  0.25000000  0.10607935  0.55831622  1
  S  S6  1  0.75000000  0.41765301  0.40718979  1
  S  S7  1  0.25000000  0.58234699  0.59281021  1
  S  S8  1  0.75000000  0.23305396  0.22910229  1
  S  S9  1  0.25000000  0.76694604  0.77089771  1
  S  S10  1  0.75000000  0.61966089  0.03550609  1
  S  S11  1  0.25000000  0.38033911  0.96449391  1
loop_
_geom_bond_atom_site_label_1
_geom_bond_atom_site_label_2
_geom_bond_distance
_geom_bond_site_symmetry_2
Ce0 S11 2.915770 1_655
Ce0 S11 2.915770 1_555
Ce0 S10 2.934679 1_556
Ce0 S2 2.972880 1_555
Ce0 S9 3.039299 1_555
Ce0 S9 3.039299 1_655
Ce0 S7 3.052602 1_555
Ce0 S7 3.052602 1_655
Ce1 S10 2.915770 1_555
Ce1 S10 2.915770 1_455
Ce1 S11 2.934679 1_554
Ce1 S3 2.972880 1_555
Ce1 S8 3.039299 1_455
Ce1 S8 3.039299 1_555
Ce1 S6 3.052602 1_555
Ce1 S6 3.052602 1_455
Ho0 S1 2.678963 1_556
Ho0 S1 2.678963 1_656
Ho0 S2 2.714707 1_555
Ho0 S8 2.846516 1_556
Ho0 S0 2.875272 1_545
Ho0 S11 2.909087 1_655
Ho0 S11 2.909087 1_555
Ho1 S0 2.678963 1_454
Ho1 S0 2.678963 1_554
Ho1 S3 2.714707 1_555
Ho1 S9 2.846516 1_554
Ho1 S1 2.875272 1_565
Ho1 S10 2.909087 1_455
Ho1 S10 2.909087 1_555
Ho2 S0 2.656107 1_555
Ho2 S5 2.700730 1_665
Ho2 S5 2.700730 1_565
Ho2 S9 2.758545 1_555
Ho2 S9 2.758545 1_655
Ho2 S4 2.762598 1_555
Ho3 S1 2.656107 1_555
Ho3 S4 2.700730 1_545
Ho3 S4 2.700730 1_445
Ho3 S8 2.758545 1_455
Ho3 S8 2.758545 1_555
Ho3 S5 2.762598 1_555
Ho4 S3 2.647788 1_555
Ho4 S3 2.647788 1_655
Ho4 S4 2.694370 1_555
Ho4 S6 2.707357 1_555
Ho4 S7 2.775014 1_655
Ho4 S7 2.775014 1_555
Ho5 S2 2.647788 1_555
Ho5 S2 2.647788 1_455
Ho5 S5 2.694370 1_555
Ho5 S7 2.707357 1_555
Ho5 S6 2.775014 1_555
Ho5 S6 2.775014 1_455
