# generated using pymatgen
data_AlSb(WO4)2
_symmetry_space_group_name_H-M   'P 1'
_cell_length_a   5.07966700
_cell_length_b   5.39012270
_cell_length_c   6.19135289
_cell_angle_alpha   113.20187961
_cell_angle_beta   105.98644417
_cell_angle_gamma   97.89091076
_symmetry_Int_Tables_number   1
_chemical_formula_structural   AlSb(WO4)2
_chemical_formula_sum   'Al1 Sb1 W2 O8'
_cell_volume   143.87147462
_cell_formula_units_Z   1
loop_
 _symmetry_equiv_pos_site_id
 _symmetry_equiv_pos_as_xyz
  1  'x, y, z'
loop_
 _atom_site_type_symbol
 _atom_site_label
 _atom_site_symmetry_multiplicity
 _atom_site_fract_x
 _atom_site_fract_y
 _atom_site_fract_z
 _atom_site_occupancy
  Al  Al0  1  0.57305200  0.28548600  0.94407600  1
  Sb  Sb0  1  0.99741900  0.85081800  0.84795100  1
  W  W0  1  0.26485900  0.23144500  0.36842900  1
  W  W1  1  0.82986900  0.58692200  0.42506600  1
  O  O0  1  0.32096900  0.22213900  0.10412000  1
  O  O1  1  0.12103700  0.84108100  0.56126800  1
  O  O2  1  0.40780900  0.61521900  0.26636700  1
  O  O3  1  0.22846300  0.29451100  0.65590900  1
  O  O4  1  0.77095700  0.95265500  0.11842100  1
  O  O5  1  0.74340400  0.55535200  0.73137600  1
  O  O6  1  0.68349900  0.16141400  0.58286400  1
  O  O7  1  0.85856700  0.42055400  0.19805600  1
loop_
_geom_bond_atom_site_label_1
_geom_bond_atom_site_label_2
_geom_bond_distance
_geom_bond_site_symmetry_2
Al0 O7 1.630333 1_556
Al0 O0 1.893029 1_556
Al0 O3 2.149652 1_555
Al0 O6 2.319292 1_555
O0 W0 1.719830 1_555
O0 Sb0 2.093390 1_444
O1 W1 1.619199 1_455
O1 Sb0 2.024129 1_455
O2 W1 2.152359 1_555
O3 W0 1.743420 1_555
O4 Sb0 2.222384 1_554
O4 W0 2.437508 1_665
O5 Sb0 1.655076 1_555
O5 O6 1.891255 1_555
O5 W1 2.123922 1_555
O6 W0 2.342542 1_555
O7 W1 1.398740 1_555
