# generated using pymatgen
data_Na2TlP3H7N3O8
_symmetry_space_group_name_H-M   'P 1'
_cell_length_a   8.12390500
_cell_length_b   8.15841759
_cell_length_c   8.80870888
_cell_angle_alpha   76.66827783
_cell_angle_beta   81.90860615
_cell_angle_gamma   76.50888175
_symmetry_Int_Tables_number   1
_chemical_formula_structural   Na2TlP3H7N3O8
_chemical_formula_sum   'Na4 Tl2 P6 H14 N6 O16'
_cell_volume   550.07848933
_cell_formula_units_Z   2
loop_
 _symmetry_equiv_pos_site_id
 _symmetry_equiv_pos_as_xyz
  1  'x, y, z'
loop_
 _atom_site_type_symbol
 _atom_site_label
 _atom_site_symmetry_multiplicity
 _atom_site_fract_x
 _atom_site_fract_y
 _atom_site_fract_z
 _atom_site_occupancy
  Na  Na0  1  0.92650000  0.00097500  0.33081500  1
  Na  Na1  1  0.07350000  0.99902500  0.66918500  1
  Na  Na2  1  0.14718200  0.15264300  0.99522800  1
  Na  Na3  1  0.85281800  0.84735700  0.00477200  1
  Tl  Tl0  1  0.62569200  0.71469200  0.42534400  1
  Tl  Tl1  1  0.37430800  0.28530800  0.57465600  1
  P  P0  1  0.24885900  0.71898500  0.14921300  1
  P  P1  1  0.75114100  0.28101500  0.85078700  1
  P  P2  1  0.55498100  0.16674800  0.15264500  1
  P  P3  1  0.44501900  0.83325200  0.84735500  1
  P  P4  1  0.78637200  0.41316000  0.12909800  1
  P  P5  1  0.21362800  0.58684000  0.87090200  1
  H  H0  1  0.53583400  0.71800800  0.08967100  1
  H  H1  1  0.46416600  0.28199200  0.91032900  1
  H  H2  1  0.25524800  0.43864500  0.12566400  1
  H  H3  1  0.74475200  0.56135500  0.87433600  1
  H  H4  1  0.51120300  0.42164000  0.23590600  1
  H  H5  1  0.48879700  0.57836000  0.76409400  1
  H  H6  1  0.97186600  0.68212900  0.61994400  1
  H  H7  1  0.02813400  0.31787100  0.38005600  1
  H  H8  1  0.06619400  0.64056800  0.46051000  1
  H  H9  1  0.93380600  0.35943200  0.53949000  1
  H  H10  1  0.25015100  0.84763600  0.39471700  1
  H  H11  1  0.74984900  0.15236400  0.60528300  1
  H  H12  1  0.26957900  0.04172300  0.34510700  1
  H  H13  1  0.73042100  0.95827700  0.65489300  1
  N  N0  1  0.42239000  0.78501100  0.04536800  1
  N  N1  1  0.57761000  0.21498900  0.95463200  1
  N  N2  1  0.21441100  0.56336400  0.06714600  1
  N  N3  1  0.78558900  0.43663600  0.93285400  1
  N  N4  1  0.61381500  0.32791000  0.21281000  1
  N  N5  1  0.38618500  0.67209000  0.78719000  1
  O  O0  1  0.09858000  0.86873400  0.12671600  1
  O  O1  1  0.90142000  0.13126600  0.87328400  1
  O  O2  1  0.67990100  0.00017700  0.20623600  1
  O  O3  1  0.32009900  0.99982300  0.79376400  1
  O  O4  1  0.29691900  0.63827700  0.31505300  1
  O  O5  1  0.70308100  0.36172300  0.68494700  1
  O  O6  1  0.94251600  0.28332100  0.18413500  1
  O  O7  1  0.05748400  0.71667900  0.81586500  1
  O  O8  1  0.75289100  0.59383400  0.16190800  1
  O  O9  1  0.24710900  0.40616600  0.83809200  1
  O  O10  1  0.36614500  0.18229200  0.20144000  1
  O  O11  1  0.63385500  0.81770800  0.79856000  1
  O  O12  1  0.95604100  0.69343600  0.50880800  1
  O  O13  1  0.04395900  0.30656400  0.49119200  1
  O  O14  1  0.21182600  0.96039800  0.42500400  1
  O  O15  1  0.78817400  0.03960200  0.57499600  1
loop_
_geom_bond_atom_site_label_1
_geom_bond_atom_site_label_2
_geom_bond_distance
_geom_bond_site_symmetry_2
Na0 O15 2.335704 1_555
Na0 O6 2.390060 1_555
Na0 O0 2.415331 1_645
Na0 O2 2.417837 1_555
Na0 O14 2.495514 1_645
Na0 O12 2.611870 1_545
Na1 O14 2.335704 1_555
Na1 O7 2.390060 1_555
Na1 O1 2.415331 1_465
Na1 O3 2.417837 1_555
Na1 O15 2.495514 1_465
Na1 O13 2.611870 1_565
Na2 O6 2.425355 1_456
Na2 O0 2.433756 1_546
Na2 O9 2.449447 1_555
Na2 O1 2.454189 1_455
Na2 O3 2.485668 1_545
Na2 O10 2.799158 1_556
Na3 O7 2.425355 1_654
Na3 O1 2.433756 1_564
Na3 O8 2.449447 1_555
Na3 O0 2.454189 1_655
Na3 O2 2.485668 1_565
Na3 O11 2.799158 1_554
H0 N0 1.033574 1_555
H1 N1 1.033574 1_555
H2 N2 1.029489 1_555
H3 N3 1.029489 1_555
H4 N4 1.023534 1_555
H5 N5 1.023534 1_555
H6 O12 0.985727 1_555
H7 O13 0.985727 1_555
H8 O12 0.982444 1_455
H9 O13 0.982444 1_655
H10 O14 0.985191 1_555
H11 O15 0.985191 1_555
H12 O14 0.996295 1_545
H13 O15 0.996295 1_565
N0 P3 1.690552 1_554
N0 P0 1.696576 1_555
N1 P2 1.690552 1_556
N1 P1 1.696576 1_555
N2 P0 1.690814 1_555
N2 P5 1.695528 1_554
N3 P1 1.690814 1_555
N3 P4 1.695528 1_556
N4 P4 1.708809 1_555
N4 P2 1.709965 1_555
N5 P5 1.708809 1_555
N5 P3 1.709965 1_555
O0 P0 1.510913 1_555
O1 P1 1.510913 1_555
O2 P2 1.514936 1_555
O2 Tl0 2.740435 1_545
O3 P3 1.514936 1_555
O3 Tl1 2.740435 1_565
O4 P0 1.522185 1_555
O5 P1 1.522185 1_555
O6 P4 1.508486 1_555
O7 P5 1.508486 1_555
O8 P4 1.522333 1_555
O8 Tl0 2.707336 1_555
O9 P5 1.522333 1_555
O9 Tl1 2.707336 1_555
O10 P2 1.517562 1_555
O11 P3 1.517562 1_555
O12 Tl0 2.837687 1_555
O13 Tl1 2.837687 1_555
