# generated using pymatgen
data_CaCo(SiO3)2
_symmetry_space_group_name_H-M   'P 1'
_cell_length_a   5.32036314
_cell_length_b   6.71329616
_cell_length_c   6.71329658
_cell_angle_alpha   84.62683970
_cell_angle_beta   78.39627441
_cell_angle_gamma   78.39626799
_symmetry_Int_Tables_number   1
_chemical_formula_structural   CaCo(SiO3)2
_chemical_formula_sum   'Ca2 Co2 Si4 O12'
_cell_volume   229.72528330
_cell_formula_units_Z   2
loop_
 _symmetry_equiv_pos_site_id
 _symmetry_equiv_pos_as_xyz
  1  'x, y, z'
loop_
 _atom_site_type_symbol
 _atom_site_label
 _atom_site_symmetry_multiplicity
 _atom_site_fract_x
 _atom_site_fract_y
 _atom_site_fract_z
 _atom_site_occupancy
  Ca  Ca0  1  0.75000000  0.29655500  0.70344500  1
  Ca  Ca1  1  0.25000100  0.70343900  0.29656100  1
  Co  Co0  1  0.25000000  0.09384500  0.90615600  1
  Co  Co1  1  0.74999900  0.90615800  0.09384100  1
  Si  Si0  1  0.26887100  0.19461400  0.37958300  1
  Si  Si1  1  0.23112900  0.62041600  0.80538600  1
  Si  Si2  1  0.76886800  0.37958300  0.19461600  1
  Si  Si3  1  0.73113200  0.80538400  0.62041800  1
  O  O0  1  0.50454300  0.33153900  0.36841700  1
  O  O1  1  0.99545600  0.63158300  0.66846100  1
  O  O2  1  0.49546000  0.66845700  0.63158100  1
  O  O3  1  0.00454000  0.36841900  0.33154200  1
  O  O4  1  0.17686900  0.11380900  0.61053800  1
  O  O5  1  0.32313100  0.38946200  0.88619100  1
  O  O6  1  0.82313300  0.88619100  0.38946300  1
  O  O7  1  0.67686700  0.61053700  0.11380900  1
  O  O8  1  0.85364700  0.20608200  0.02845100  1
  O  O9  1  0.64635400  0.97154800  0.79391700  1
  O  O10  1  0.35365200  0.02845500  0.20607800  1
  O  O11  1  0.14634800  0.79392200  0.97154600  1
loop_
_geom_bond_atom_site_label_1
_geom_bond_atom_site_label_2
_geom_bond_distance
_geom_bond_site_symmetry_2
Ca0 O4 2.346192 1_655
Ca0 O5 2.346192 1_555
Ca0 O8 2.352572 1_556
Ca0 O9 2.352575 1_545
Ca0 O2 2.641450 1_555
Ca0 O3 2.641456 1_655
Ca0 O1 2.788993 1_555
Ca0 O0 2.788997 1_555
Ca1 O7 2.346190 1_555
Ca1 O6 2.346198 1_455
Ca1 O11 2.352649 1_554
Ca1 O10 2.352652 1_565
Ca1 O0 2.641432 1_555
Ca1 O1 2.641438 1_455
Ca1 O2 2.788956 1_555
Ca1 O3 2.788964 1_555
Co0 O5 2.085109 1_555
Co0 O4 2.085116 1_555
Co0 O8 2.113947 1_456
Co0 O9 2.113957 1_545
Co0 O10 2.175918 1_556
Co0 O11 2.175925 1_545
Co1 O7 2.085136 1_555
Co1 O6 2.085147 1_555
Co1 O10 2.113923 1_565
Co1 O11 2.113928 1_654
Co1 O9 2.175916 1_554
Co1 O8 2.175922 1_565
O0 Si0 1.683951 1_555
O0 Si2 1.701469 1_555
O1 Si1 1.683955 1_655
O1 Si3 1.701463 1_555
O2 Si3 1.683964 1_555
O2 Si1 1.701499 1_555
O3 Si2 1.683958 1_455
O3 Si0 1.701499 1_555
O4 Si0 1.606802 1_555
O5 Si1 1.606796 1_555
O6 Si3 1.606806 1_555
O7 Si2 1.606800 1_555
O8 Si2 1.622984 1_555
O9 Si3 1.622970 1_555
O10 Si0 1.622975 1_555
O11 Si1 1.622985 1_555
