# generated using pymatgen
data_Ti2H11(N2F3)4
_symmetry_space_group_name_H-M   'P 1'
_cell_length_a   7.74348267
_cell_length_b   9.75447710
_cell_length_c   10.06592900
_cell_angle_alpha   90.00000000
_cell_angle_beta   90.00000000
_cell_angle_gamma   94.17293307
_symmetry_Int_Tables_number   1
_chemical_formula_structural   Ti2H11(N2F3)4
_chemical_formula_sum   'Ti4 H22 N16 F24'
_cell_volume   758.30047507
_cell_formula_units_Z   2
loop_
 _symmetry_equiv_pos_site_id
 _symmetry_equiv_pos_as_xyz
  1  'x, y, z'
loop_
 _atom_site_type_symbol
 _atom_site_label
 _atom_site_symmetry_multiplicity
 _atom_site_fract_x
 _atom_site_fract_y
 _atom_site_fract_z
 _atom_site_occupancy
  Ti  Ti0  1  0.75270700  0.00394600  0.82245200  1
  Ti  Ti1  1  0.24729300  0.99605400  0.32245200  1
  Ti  Ti2  1  0.28256800  0.51319500  0.63980400  1
  Ti  Ti3  1  0.71743200  0.48680500  0.13980400  1
  H  H0  1  0.15321200  0.27362300  0.25204600  1
  H  H1  1  0.84678800  0.72637700  0.75204600  1
  H  H2  1  0.84087000  0.62812900  0.41731800  1
  H  H3  1  0.15913000  0.37187100  0.91731800  1
  H  H4  1  0.92716200  0.77552400  0.50705700  1
  H  H5  1  0.07283800  0.22447600  0.00705700  1
  H  H6  1  0.56306100  0.68727100  0.47610100  1
  H  H7  1  0.43693900  0.31272900  0.97610100  1
  H  H8  1  0.64886600  0.84160600  0.54513300  1
  H  H9  1  0.35113400  0.15839400  0.04513300  1
  H  H10  1  0.65687100  0.81541700  0.37771400  1
  H  H11  1  0.34312900  0.18458300  0.87771400  1
  H  H12  1  0.08420300  0.71641400  0.96341200  1
  H  H13  1  0.91579700  0.28358600  0.46341200  1
  H  H14  1  0.17522800  0.85682100  0.05017000  1
  H  H15  1  0.82477200  0.14317900  0.55017000  1
  H  H16  1  0.36843200  0.65994800  0.90296100  1
  H  H17  1  0.63156800  0.34005200  0.40296100  1
  H  H18  1  0.35157900  0.65694000  0.07581100  1
  H  H19  1  0.64842100  0.34306000  0.57581100  1
  H  H20  1  0.45345100  0.78933800  0.99444200  1
  H  H21  1  0.54654900  0.21066200  0.49444200  1
  N  N0  1  0.73993700  0.94913800  0.24068100  1
  N  N1  1  0.26006300  0.05086200  0.74068100  1
  N  N2  1  0.74059700  0.04748800  0.18481500  1
  N  N3  1  0.25940300  0.95251200  0.68481500  1
  N  N4  1  0.23255200  0.55615400  0.26115200  1
  N  N5  1  0.76744800  0.44384600  0.76115200  1
  N  N6  1  0.20888500  0.44259000  0.25800000  1
  N  N7  1  0.79111500  0.55741000  0.75800000  1
  N  N8  1  0.82372200  0.70868100  0.48362800  1
  N  N9  1  0.17627800  0.29131900  0.98362800  1
  N  N10  1  0.66484900  0.76725600  0.46991700  1
  N  N11  1  0.33515100  0.23274400  0.96991700  1
  N  N12  1  0.19144000  0.78362000  0.97748500  1
  N  N13  1  0.80856000  0.21638000  0.47748500  1
  N  N14  1  0.34630900  0.71748300  0.99069000  1
  N  N15  1  0.65369100  0.28251700  0.49069000  1
  F  F0  1  0.93168100  0.01339600  0.94161800  1
  F  F1  1  0.06831900  0.98660400  0.44161800  1
  F  F2  1  0.89053200  0.12440800  0.71599300  1
  F  F3  1  0.10946800  0.87559200  0.21599300  1
  F  F4  1  0.63727000  0.95810500  0.65818800  1
  F  F5  1  0.36273000  0.04189500  0.15818800  1
  F  F6  1  0.63251900  0.85924400  0.91166500  1
  F  F7  1  0.36748100  0.14075600  0.41166500  1
  F  F8  1  0.89665800  0.82063500  0.74416100  1
  F  F9  1  0.10334200  0.17936500  0.24416100  1
  F  F10  1  0.61084100  0.12791700  0.88102400  1
  F  F11  1  0.38915900  0.87208300  0.38102400  1
  F  F12  1  0.45251100  0.54626200  0.50068200  1
  F  F13  1  0.54748900  0.45373800  0.00068200  1
  F  F14  1  0.42766000  0.63940600  0.74616500  1
  F  F15  1  0.57234000  0.36059400  0.24616500  1
  F  F16  1  0.15358200  0.49177800  0.80352300  1
  F  F17  1  0.84641800  0.50822200  0.30352300  1
  F  F18  1  0.12902100  0.39155700  0.54582800  1
  F  F19  1  0.87097900  0.60844300  0.04582800  1
  F  F20  1  0.15899500  0.65574100  0.57721700  1
  F  F21  1  0.84100500  0.34425900  0.07721700  1
  F  F22  1  0.41296200  0.36319100  0.68926700  1
  F  F23  1  0.58703800  0.63680900  0.18926700  1
loop_
_geom_bond_atom_site_label_1
_geom_bond_atom_site_label_2
_geom_bond_distance
_geom_bond_site_symmetry_2
H0 N6 1.674081 1_555
H1 N7 1.674081 1_555
H2 N8 1.046769 1_555
H3 N9 1.046769 1_555
H4 N8 1.022897 1_555
H5 N9 1.022897 1_554
H6 N10 1.069746 1_555
H7 N11 1.069746 1_555
H8 N10 1.061881 1_555
H9 N11 1.061881 1_554
H10 N10 1.044090 1_555
H11 N11 1.044090 1_555
H12 N12 1.029633 1_555
H13 N13 1.029633 1_555
H14 N12 1.036318 1_554
H15 N13 1.036318 1_555
H16 N14 1.066832 1_555
H17 N15 1.066832 1_555
H18 N14 1.043113 1_554
H19 N15 1.043113 1_555
H20 N14 1.047087 1_555
H21 N15 1.047087 1_555
N0 N2 1.111711 1_565
N1 N3 1.111711 1_545
N4 N6 1.110033 1_555
N5 N7 1.110033 1_555
F0 Ti0 1.830140 1_555
F1 Ti1 1.830140 1_555
F2 Ti0 1.866970 1_555
F3 Ti1 1.866970 1_555
F4 H8 1.615345 1_555
F4 Ti0 1.916969 1_565
F5 H9 1.615345 1_555
F5 Ti1 1.916969 1_545
F6 Ti0 1.863789 1_565
F7 Ti1 1.863789 1_545
F8 H1 0.974227 1_555
F8 Ti0 2.313214 1_565
F9 H0 0.974227 1_555
F9 Ti1 2.313214 1_545
F10 Ti0 1.791664 1_555
F11 Ti1 1.791664 1_555
F12 H6 1.585744 1_555
F12 Ti2 1.932638 1_555
F13 H7 1.585744 1_554
F13 Ti3 1.932638 1_555
F14 H16 1.659786 1_555
F14 Ti2 1.929478 1_555
F15 H17 1.659786 1_555
F15 Ti3 1.929478 1_555
F16 H3 1.639895 1_555
F16 Ti2 1.930474 1_555
F17 H2 1.639895 1_555
F17 Ti3 1.930474 1_555
F18 Ti2 1.873775 1_555
F19 Ti3 1.873775 1_555
F20 Ti2 1.854601 1_555
F21 Ti3 1.854601 1_555
F22 Ti2 1.903522 1_555
F23 Ti3 1.903522 1_555
