# generated using pymatgen
data_Tb(MnAl2)4
_symmetry_space_group_name_H-M   'P 1'
_cell_length_a   5.15093500
_cell_length_b   6.72711237
_cell_length_c   6.72711237
_cell_angle_alpha   81.57160877
_cell_angle_beta   67.48974315
_cell_angle_gamma   67.48974315
_symmetry_Int_Tables_number   1
_chemical_formula_structural   Tb(MnAl2)4
_chemical_formula_sum   'Tb1 Mn4 Al8'
_cell_volume   198.93431497
_cell_formula_units_Z   1
loop_
 _symmetry_equiv_pos_site_id
 _symmetry_equiv_pos_as_xyz
  1  'x, y, z'
loop_
 _atom_site_type_symbol
 _atom_site_label
 _atom_site_symmetry_multiplicity
 _atom_site_fract_x
 _atom_site_fract_y
 _atom_site_fract_z
 _atom_site_occupancy
  Tb  Tb0  1  0.00000000  0.00000000  0.00000000  1
  Mn  Mn0  1  0.00000000  0.00000000  0.50000000  1
  Mn  Mn1  1  0.50000000  0.00000000  0.50000000  1
  Mn  Mn2  1  0.50000000  0.50000000  0.00000000  1
  Mn  Mn3  1  0.00000000  0.50000000  0.00000000  1
  Al  Al0  1  0.00000000  0.33666400  0.66333600  1
  Al  Al1  1  0.00000000  0.66333600  0.33666400  1
  Al  Al2  1  0.66333600  0.33666400  0.33666400  1
  Al  Al3  1  0.33666400  0.66333600  0.66333600  1
  Al  Al4  1  0.50000000  0.77474600  0.22525400  1
  Al  Al5  1  0.50000000  0.22525400  0.77474600  1
  Al  Al6  1  0.72525400  0.77474600  0.77474600  1
  Al  Al7  1  0.27474600  0.22525400  0.22525400  1
loop_
_geom_bond_atom_site_label_1
_geom_bond_atom_site_label_2
_geom_bond_distance
_geom_bond_site_symmetry_2
Mn0 Mn1 2.575467 1_555
Mn0 Mn1 2.575467 1_455
Mn0 Tb0 3.363556 1_555
Mn0 Tb0 3.363556 1_556
Mn1 Tb0 3.363556 1_655
Mn1 Tb0 3.363556 1_556
Mn2 Mn3 2.575467 1_555
Mn2 Mn3 2.575467 1_655
Mn2 Tb0 3.363556 1_565
Mn2 Tb0 3.363556 1_655
Mn3 Tb0 3.363556 1_565
Mn3 Tb0 3.363556 1_555
Al0 Mn3 2.658199 1_556
Al0 Mn0 2.658199 1_555
Al0 Mn2 2.658199 1_456
Al0 Mn1 2.658199 1_555
Al0 Al5 2.755318 1_555
Al0 Al5 2.755318 1_455
Al0 Al6 2.809156 1_455
Al0 Al7 2.809156 1_555
Al0 Al1 2.871037 1_555
Al0 Tb0 2.958854 1_556
Al1 Mn0 2.658199 1_565
Al1 Mn3 2.658199 1_555
Al1 Mn1 2.658199 1_465
Al1 Mn2 2.658199 1_555
Al1 Al4 2.755318 1_455
Al1 Al4 2.755318 1_555
Al1 Al6 2.809156 1_455
Al1 Al7 2.809156 1_555
Al1 Tb0 2.958854 1_565
Al2 Mn2 2.658199 1_555
Al2 Mn1 2.658199 1_555
Al2 Mn3 2.658199 1_655
Al2 Mn0 2.658199 1_655
Al2 Al7 2.755318 1_555
Al2 Al7 2.755318 1_655
Al2 Al5 2.809156 1_555
Al2 Al4 2.809156 1_555
Al2 Al3 2.871037 1_555
Al2 Tb0 2.958854 1_655
Al3 Mn1 2.658199 1_565
Al3 Mn2 2.658199 1_556
Al3 Mn3 2.658199 1_556
Al3 Mn0 2.658199 1_565
Al3 Al6 2.755318 1_555
Al3 Al6 2.755318 1_455
Al3 Al5 2.809156 1_555
Al3 Al4 2.809156 1_555
Al3 Tb0 2.958854 1_566
Al4 Mn1 2.556009 1_565
Al4 Mn2 2.556009 1_555
Al4 Mn0 2.556010 1_565
Al4 Mn3 2.556010 1_655
Al4 Al6 2.799718 1_554
Al4 Al7 2.799718 1_565
Al4 Tb0 3.248422 1_665
Al4 Tb0 3.248422 1_565
Al5 Mn2 2.556009 1_556
Al5 Mn1 2.556009 1_555
Al5 Mn3 2.556010 1_556
Al5 Mn0 2.556010 1_655
Al5 Al7 2.799718 1_556
Al5 Al6 2.799718 1_545
Al5 Tb0 3.248422 1_656
Al5 Tb0 3.248422 1_556
Al6 Mn1 2.556010 1_565
Al6 Mn2 2.556010 1_556
Al6 Mn0 2.556010 1_665
Al6 Mn3 2.556010 1_656
Al6 Tb0 3.248422 1_666
Al6 Tb0 3.248422 1_566
Al7 Mn2 2.556010 1_555
Al7 Mn1 2.556010 1_555
Al7 Mn3 2.556010 1_555
Al7 Mn0 2.556010 1_555
Al7 Tb0 3.248422 1_555
Al7 Tb0 3.248422 1_655
