# generated using pymatgen
data_Cs2TaCuI6
_symmetry_space_group_name_H-M   'P 1'
_cell_length_a   8.18513010
_cell_length_b   8.18513010
_cell_length_c   8.18513010
_cell_angle_alpha   60.00000000
_cell_angle_beta   60.00000000
_cell_angle_gamma   60.00000000
_symmetry_Int_Tables_number   1
_chemical_formula_structural   Cs2TaCuI6
_chemical_formula_sum   'Cs2 Ta1 Cu1 I6'
_cell_volume   387.75888937
_cell_formula_units_Z   1
loop_
 _symmetry_equiv_pos_site_id
 _symmetry_equiv_pos_as_xyz
  1  'x, y, z'
loop_
 _atom_site_type_symbol
 _atom_site_label
 _atom_site_symmetry_multiplicity
 _atom_site_fract_x
 _atom_site_fract_y
 _atom_site_fract_z
 _atom_site_occupancy
  Cs  Cs0  1  0.75000000  0.75000000  0.75000000  1
  Cs  Cs1  1  0.25000000  0.25000000  0.25000000  1
  Ta  Ta0  1  0.50000000  0.50000000  0.50000000  1
  Cu  Cu0  1  0.00000000  0.00000000  0.00000000  1
  I  I0  1  0.74781200  0.25218800  0.25218800  1
  I  I1  1  0.25218800  0.25218800  0.74781200  1
  I  I2  1  0.25218800  0.74781200  0.74781200  1
  I  I3  1  0.25218800  0.74781200  0.25218800  1
  I  I4  1  0.74781200  0.25218800  0.74781200  1
  I  I5  1  0.74781200  0.74781200  0.25218800  1
loop_
_geom_bond_atom_site_label_1
_geom_bond_atom_site_label_2
_geom_bond_distance
_geom_bond_site_symmetry_2
Cs0 I5 4.092643 1_555
Cs0 I0 4.092643 1_556
Cs0 I0 4.092643 1_565
Cs0 I2 4.092643 1_555
Cs0 I3 4.092643 1_655
Cs0 I1 4.092643 1_565
Cs0 I4 4.092643 1_555
Cs0 I2 4.092643 1_655
Cs0 I5 4.092643 1_556
Cs0 I1 4.092643 1_655
Cs0 I4 4.092643 1_565
Cs0 I3 4.092643 1_556
Cs1 I1 4.092643 1_554
Cs1 I5 4.092643 1_545
Cs1 I2 4.092643 1_545
Cs1 I4 4.092643 1_554
Cs1 I0 4.092643 1_455
Cs1 I3 4.092643 1_545
Cs1 I5 4.092643 1_455
Cs1 I2 4.092643 1_554
Cs1 I0 4.092643 1_555
Cs1 I3 4.092643 1_555
Cs1 I4 4.092643 1_455
Cs1 I1 4.092643 1_555
Cu0 I5 2.919208 1_445
Cu0 I2 2.919208 1_544
Cu0 I4 2.919208 1_454
Cu0 I1 2.919208 1_554
Cu0 I3 2.919208 1_545
Cu0 I0 2.919208 1_455
I0 Ta0 2.868553 1_555
I1 Ta0 2.868553 1_555
I2 Ta0 2.868553 1_555
I3 Ta0 2.868553 1_555
I4 Ta0 2.868553 1_555
I5 Ta0 2.868553 1_555
