# generated using pymatgen
data_La4Co3O10
_symmetry_space_group_name_H-M   'P 1'
_cell_length_a   5.58137100
_cell_length_b   5.47809200
_cell_length_c   28.24844787
_cell_angle_alpha   89.35971121
_cell_angle_beta   90.00000000
_cell_angle_gamma   90.00000000
_symmetry_Int_Tables_number   1
_chemical_formula_structural   La4Co3O10
_chemical_formula_sum   'La16 Co12 O40'
_cell_volume   863.64981546
_cell_formula_units_Z   4
loop_
 _symmetry_equiv_pos_site_id
 _symmetry_equiv_pos_as_xyz
  1  'x, y, z'
loop_
 _atom_site_type_symbol
 _atom_site_label
 _atom_site_symmetry_multiplicity
 _atom_site_fract_x
 _atom_site_fract_y
 _atom_site_fract_z
 _atom_site_occupancy
  La  La0  1  0.48485200  0.49219700  0.30085300  1
  La  La1  1  0.98485200  0.00780300  0.69914700  1
  La  La2  1  0.51514800  0.50780300  0.69914700  1
  La  La3  1  0.01514800  0.99219700  0.30085300  1
  La  La4  1  0.48743000  0.00380100  0.80038000  1
  La  La5  1  0.98743000  0.49619900  0.19962000  1
  La  La6  1  0.51257000  0.99619900  0.19962000  1
  La  La7  1  0.01257000  0.50380100  0.80038000  1
  La  La8  1  0.49803100  0.47788400  0.43210100  1
  La  La9  1  0.99803100  0.02211600  0.56789900  1
  La  La10  1  0.50196900  0.52211600  0.56789900  1
  La  La11  1  0.00196900  0.97788400  0.43210100  1
  La  La12  1  0.50170000  0.98047500  0.93235200  1
  La  La13  1  0.00170000  0.51952500  0.06764800  1
  La  La14  1  0.49830000  0.01952500  0.06764800  1
  La  La15  1  0.99830000  0.48047500  0.93235200  1
  Co  Co0  1  0.00000000  0.50000000  0.50000000  1
  Co  Co1  1  0.50000000  0.00000000  0.50000000  1
  Co  Co2  1  0.50000000  0.50000000  0.00000000  1
  Co  Co3  1  0.00000000  0.00000000  0.00000000  1
  Co  Co4  1  0.49688700  0.49753600  0.13945200  1
  Co  Co5  1  0.99688700  0.00246400  0.86054800  1
  Co  Co6  1  0.50311300  0.50246400  0.86054800  1
  Co  Co7  1  0.00311300  0.99753600  0.13945200  1
  Co  Co8  1  0.49738100  0.00778800  0.63922600  1
  Co  Co9  1  0.99738100  0.49221200  0.36077400  1
  Co  Co10  1  0.50261900  0.99221200  0.36077400  1
  Co  Co11  1  0.00261900  0.50778800  0.63922600  1
  O  O0  1  0.21888800  0.21982300  0.48893000  1
  O  O1  1  0.71888800  0.28017700  0.51107000  1
  O  O2  1  0.78111200  0.78017700  0.51107000  1
  O  O3  1  0.28111200  0.71982300  0.48893000  1
  O  O4  1  0.29267400  0.19380600  0.99234200  1
  O  O5  1  0.79267400  0.30619400  0.00765800  1
  O  O6  1  0.70732600  0.80619400  0.00765800  1
  O  O7  1  0.20732600  0.69380600  0.99234200  1
  O  O8  1  0.44001200  0.49353400  0.06814400  1
  O  O9  1  0.94001200  0.00646600  0.93185600  1
  O  O10  1  0.55998800  0.50646600  0.93185600  1
  O  O11  1  0.05998800  0.99353400  0.06814400  1
  O  O12  1  0.42876700  0.99550200  0.56722900  1
  O  O13  1  0.92876700  0.50449800  0.43277100  1
  O  O14  1  0.57123300  0.00449800  0.43277100  1
  O  O15  1  0.07123300  0.49550200  0.56722900  1
  O  O16  1  0.24763200  0.24724000  0.14789800  1
  O  O17  1  0.74763200  0.25276000  0.85210200  1
  O  O18  1  0.75236800  0.75276000  0.85210200  1
  O  O19  1  0.25236800  0.74724000  0.14789800  1
  O  O20  1  0.24576400  0.76120100  0.64832300  1
  O  O21  1  0.74576400  0.73879900  0.35167700  1
  O  O22  1  0.75423600  0.23879900  0.35167700  1
  O  O23  1  0.25423600  0.26120100  0.64832300  1
  O  O24  1  0.55076800  0.49149900  0.21809300  1
  O  O25  1  0.05076800  0.00850100  0.78190700  1
  O  O26  1  0.44923200  0.50850100  0.78190700  1
  O  O27  1  0.94923200  0.99149900  0.21809300  1
  O  O28  1  0.55459500  0.00770600  0.71776500  1
  O  O29  1  0.05459500  0.49229400  0.28223500  1
  O  O30  1  0.44540500  0.99229400  0.28223500  1
  O  O31  1  0.94540500  0.50770600  0.71776500  1
  O  O32  1  0.25235500  0.75289600  0.86591700  1
  O  O33  1  0.75235500  0.74710400  0.13408300  1
  O  O34  1  0.74764500  0.24710400  0.13408300  1
  O  O35  1  0.24764500  0.25289600  0.86591700  1
  O  O36  1  0.25434800  0.24644800  0.36791500  1
  O  O37  1  0.75434800  0.25355200  0.63208500  1
  O  O38  1  0.74565200  0.75355200  0.63208500  1
  O  O39  1  0.24565200  0.74644800  0.36791500  1
loop_
_geom_bond_atom_site_label_1
_geom_bond_atom_site_label_2
_geom_bond_distance
_geom_bond_site_symmetry_2
La0 O24 2.366658 1_555
La0 O29 2.458339 1_555
La0 O21 2.459713 1_555
La0 O22 2.490828 1_555
La0 O36 2.645609 1_555
La0 O39 2.714780 1_555
La0 O30 2.792518 1_555
La0 O30 2.802986 1_545
La1 O25 2.366658 1_655
La1 O28 2.458339 1_555
La1 O20 2.459713 1_645
La1 O23 2.490828 1_655
La1 O37 2.645609 1_555
La1 O38 2.714780 1_545
La1 O31 2.792518 1_545
La1 O31 2.802986 1_555
La2 O26 2.366658 1_555
La2 O31 2.458339 1_555
La2 O23 2.459713 1_555
La2 O20 2.490828 1_555
La2 O38 2.645609 1_555
La2 O37 2.714780 1_555
La2 O28 2.792518 1_555
La2 O28 2.802986 1_565
La3 O27 2.366658 1_455
La3 O30 2.458339 1_555
La3 O22 2.459713 1_465
La3 O21 2.490828 1_455
La3 O39 2.645609 1_555
La3 O36 2.714780 1_565
La3 O29 2.792518 1_565
La3 O29 2.802986 1_555
La4 O28 2.363523 1_555
La4 O17 2.479593 1_555
La4 O18 2.483477 1_545
La4 O25 2.492485 1_555
La4 O32 2.642188 1_545
La4 O35 2.671517 1_555
La4 O26 2.776941 1_545
La4 O26 2.815954 1_555
La4 O25 3.187265 1_655
La5 O29 2.363523 1_655
La5 O16 2.479593 1_655
La5 O19 2.483477 1_655
La5 O24 2.492485 1_555
La5 O33 2.642188 1_555
La5 O34 2.671517 1_555
La5 O27 2.776941 1_555
La5 O27 2.815954 1_545
La5 O24 3.187265 1_655
La6 O30 2.363523 1_555
La6 O19 2.479593 1_555
La6 O16 2.483477 1_565
La6 O27 2.492485 1_555
La6 O34 2.642188 1_565
La6 O33 2.671517 1_555
La6 O24 2.776941 1_565
La6 O24 2.815954 1_555
La6 O27 3.187265 1_455
La7 O31 2.363523 1_455
La7 O18 2.479593 1_455
La7 O17 2.483477 1_455
La7 O26 2.492485 1_555
La7 O35 2.642188 1_555
La7 O32 2.671517 1_555
La7 O25 2.776941 1_555
La7 O25 2.815954 1_565
La7 O26 3.187265 1_455
La8 O13 2.408601 1_555
La8 O3 2.418065 1_555
La8 O36 2.606938 1_555
La8 O14 2.625099 1_555
La8 O0 2.636708 1_555
La8 O39 2.715991 1_555
La8 O1 2.759489 1_555
La8 O14 2.913899 1_565
La8 O22 2.998006 1_555
La8 O21 3.007244 1_555
La8 O13 3.180683 1_455
La8 O2 3.208964 1_555
La9 O12 2.408601 1_645
La9 O2 2.418065 1_545
La9 O37 2.606938 1_555
La9 O15 2.625099 1_655
La9 O1 2.636708 1_555
La9 O38 2.715991 1_545
La9 O0 2.759489 1_655
La9 O15 2.913899 1_645
La9 O23 2.998006 1_655
La9 O20 3.007244 1_645
La9 O12 3.180683 1_545
La9 O3 3.208964 1_645
La10 O15 2.408601 1_555
La10 O1 2.418065 1_555
La10 O38 2.606938 1_555
La10 O12 2.625099 1_555
La10 O2 2.636708 1_555
La10 O37 2.715991 1_555
La10 O3 2.759489 1_555
La10 O12 2.913899 1_545
La10 O20 2.998006 1_555
La10 O23 3.007244 1_555
La10 O15 3.180683 1_655
La10 O0 3.208964 1_555
La11 O14 2.408601 1_465
La11 O0 2.418065 1_565
La11 O39 2.606938 1_555
La11 O13 2.625099 1_455
La11 O3 2.636708 1_555
La11 O36 2.715991 1_565
La11 O2 2.759489 1_455
La11 O13 2.913899 1_465
La11 O21 2.998006 1_455
La11 O22 3.007244 1_465
La11 O14 3.180683 1_565
La11 O1 3.208964 1_465
La12 O4 2.375463 1_565
La12 O9 2.450553 1_565
La12 O6 2.590093 1_556
La12 O10 2.617158 1_555
La12 O32 2.658061 1_555
La12 O35 2.774366 1_565
La12 O7 2.824520 1_555
La12 O10 2.899613 1_565
La12 O18 2.952241 1_555
La12 O17 3.028605 1_565
La12 O9 3.138245 1_465
La12 O5 3.229771 1_566
La13 O5 2.375463 1_455
La13 O8 2.450553 1_555
La13 O7 2.590093 1_554
La13 O11 2.617158 1_555
La13 O33 2.658061 1_455
La13 O34 2.774366 1_455
La13 O6 2.824520 1_455
La13 O11 2.899613 1_545
La13 O19 2.952241 1_555
La13 O16 3.028605 1_555
La13 O8 3.138245 1_455
La13 O4 3.229771 1_554
La14 O6 2.375463 1_545
La14 O11 2.450553 1_545
La14 O4 2.590093 1_554
La14 O8 2.617158 1_555
La14 O34 2.658061 1_555
La14 O33 2.774366 1_545
La14 O5 2.824520 1_555
La14 O8 2.899613 1_545
La14 O16 2.952241 1_555
La14 O19 3.028605 1_545
La14 O11 3.138245 1_645
La14 O7 3.229771 1_544
La15 O7 2.375463 1_655
La15 O10 2.450553 1_555
La15 O5 2.590093 1_556
La15 O9 2.617158 1_555
La15 O35 2.658061 1_655
La15 O32 2.774366 1_655
La15 O4 2.824520 1_655
La15 O9 2.899613 1_565
La15 O17 2.952241 1_555
La15 O18 3.028605 1_555
La15 O10 3.138245 1_655
La15 O6 3.229771 1_556
Co0 O15 1.940172 1_555
Co0 O13 1.940172 1_455
Co0 O0 1.989164 1_555
Co0 O2 1.989164 1_455
Co0 O3 2.000306 1_555
Co0 O1 2.000306 1_455
Co1 O14 1.940172 1_555
Co1 O12 1.940172 1_545
Co1 O1 1.989164 1_555
Co1 O3 1.989164 1_545
Co1 O2 2.000306 1_545
Co1 O0 2.000306 1_555
Co2 O10 1.953794 1_554
Co2 O8 1.953794 1_555
Co2 O5 1.958887 1_555
Co2 O7 1.958887 1_554
Co2 O6 2.051211 1_555
Co2 O4 2.051211 1_554
Co3 O9 1.953794 1_454
Co3 O11 1.953794 1_545
Co3 O6 1.958887 1_445
Co3 O4 1.958887 1_554
Co3 O5 2.051211 1_455
Co3 O7 2.051211 1_544
Co4 O19 1.948825 1_555
Co4 O16 1.965972 1_555
Co4 O34 1.966860 1_555
Co4 O33 1.980042 1_555
Co4 O8 2.039560 1_555
Co4 O24 2.241627 1_555
Co5 O18 1.948825 1_545
Co5 O17 1.965972 1_555
Co5 O35 1.966860 1_655
Co5 O32 1.980042 1_645
Co5 O9 2.039560 1_555
Co5 O25 2.241627 1_655
Co6 O17 1.948825 1_555
Co6 O18 1.965972 1_555
Co6 O32 1.966860 1_555
Co6 O35 1.980042 1_555
Co6 O10 2.039560 1_555
Co6 O26 2.241627 1_555
Co7 O16 1.948825 1_565
Co7 O19 1.965972 1_555
Co7 O33 1.966860 1_455
Co7 O34 1.980042 1_465
Co7 O11 2.039560 1_555
Co7 O27 2.241627 1_455
Co8 O23 1.960315 1_555
Co8 O20 1.963481 1_545
Co8 O37 1.975906 1_555
Co8 O38 1.976564 1_545
Co8 O12 2.071377 1_545
Co8 O28 2.241464 1_555
Co9 O22 1.960315 1_555
Co9 O21 1.963481 1_555
Co9 O36 1.975906 1_655
Co9 O39 1.976564 1_655
Co9 O13 2.071377 1_555
Co9 O29 2.241464 1_655
Co10 O21 1.960315 1_555
Co10 O22 1.963481 1_565
Co10 O39 1.975906 1_555
Co10 O36 1.976564 1_565
Co10 O14 2.071377 1_565
Co10 O30 2.241464 1_555
Co11 O20 1.960315 1_555
Co11 O23 1.963481 1_555
Co11 O38 1.975906 1_455
Co11 O37 1.976564 1_455
Co11 O15 2.071377 1_555
Co11 O31 2.241464 1_455
