# generated using pymatgen
data_Dy2SO2
_symmetry_space_group_name_H-M   'P 1'
_cell_length_a   3.78486427
_cell_length_b   3.78486540
_cell_length_c   6.58334700
_cell_angle_alpha   90.00000000
_cell_angle_beta   90.00000000
_cell_angle_gamma   120.00000799
_symmetry_Int_Tables_number   1
_chemical_formula_structural   Dy2SO2
_chemical_formula_sum   'Dy2 S1 O2'
_cell_volume   81.67292191
_cell_formula_units_Z   1
loop_
 _symmetry_equiv_pos_site_id
 _symmetry_equiv_pos_as_xyz
  1  'x, y, z'
loop_
 _atom_site_type_symbol
 _atom_site_label
 _atom_site_symmetry_multiplicity
 _atom_site_fract_x
 _atom_site_fract_y
 _atom_site_fract_z
 _atom_site_occupancy
  Dy  Dy0  1  0.66666700  0.33333300  0.71693848  1
  Dy  Dy1  1  0.33333300  0.66666700  0.28306152  1
  S  S0  1  0.00000000  -0.00000000  0.00000000  1
  O  O0  1  0.66666700  0.33333300  0.37092079  1
  O  O1  1  0.33333300  0.66666700  0.62907921  1
loop_
_geom_bond_atom_site_label_1
_geom_bond_atom_site_label_2
_geom_bond_distance
_geom_bond_site_symmetry_2
Dy0 O1 2.260445 1_655
Dy0 O1 2.260446 1_545
Dy0 O1 2.260452 1_555
Dy0 O0 2.277955 1_555
Dy0 S0 2.871874 1_656
Dy0 S0 2.871876 1_556
Dy0 S0 2.871877 1_666
Dy1 O0 2.260445 1_455
Dy1 O0 2.260446 1_565
Dy1 O0 2.260452 1_555
Dy1 O1 2.277955 1_555
Dy1 S0 2.871874 1_565
Dy1 S0 2.871876 1_665
Dy1 S0 2.871877 1_555
