# generated using pymatgen
data_NdTa3O9
_symmetry_space_group_name_H-M   'P 1'
_cell_length_a   8.81985359
_cell_length_b   8.81985359
_cell_length_c   9.71605981
_cell_angle_alpha   57.03177031
_cell_angle_beta   57.03177031
_cell_angle_gamma   36.93097573
_symmetry_Int_Tables_number   1
_chemical_formula_structural   NdTa3O9
_chemical_formula_sum   'Nd2 Ta6 O18'
_cell_volume   371.95900959
_cell_formula_units_Z   2
loop_
 _symmetry_equiv_pos_site_id
 _symmetry_equiv_pos_as_xyz
  1  'x, y, z'
loop_
 _atom_site_type_symbol
 _atom_site_label
 _atom_site_symmetry_multiplicity
 _atom_site_fract_x
 _atom_site_fract_y
 _atom_site_fract_z
 _atom_site_occupancy
  Nd  Nd0  1  0.33221600  0.33221600  0.00047600  1
  Nd  Nd1  1  0.66778400  0.66778400  0.99952400  1
  Ta  Ta0  1  0.58407200  0.58407200  0.74802500  1
  Ta  Ta1  1  0.74953200  0.74953200  0.26122100  1
  Ta  Ta2  1  0.07732600  0.07732600  0.25756900  1
  Ta  Ta3  1  0.41592800  0.41592800  0.25197500  1
  Ta  Ta4  1  0.25046800  0.25046800  0.73877900  1
  Ta  Ta5  1  0.92267400  0.92267400  0.74243100  1
  O  O0  1  0.57433000  0.09625400  0.23113800  1
  O  O1  1  0.50000000  0.50000000  0.00000000  1
  O  O2  1  0.09625400  0.57433000  0.23113800  1
  O  O3  1  0.72836200  0.25056700  0.76886000  1
  O  O4  1  0.00000000  0.00000000  0.50000000  1
  O  O5  1  0.66576300  0.66576300  0.50181700  1
  O  O6  1  0.92592100  0.42621500  0.22210400  1
  O  O7  1  0.82623600  0.82623600  0.00010900  1
  O  O8  1  0.17376400  0.17376400  0.99989100  1
  O  O9  1  0.57378500  0.07407900  0.77789600  1
  O  O10  1  0.74943300  0.27163800  0.23114000  1
  O  O11  1  0.25056700  0.72836200  0.76886000  1
  O  O12  1  0.42621500  0.92592100  0.22210400  1
  O  O13  1  0.33423700  0.33423700  0.49818300  1
  O  O14  1  0.27163800  0.74943300  0.23114000  1
  O  O15  1  0.07407900  0.57378500  0.77789600  1
  O  O16  1  0.90374600  0.42567000  0.76886200  1
  O  O17  1  0.42567000  0.90374600  0.76886200  1
loop_
_geom_bond_atom_site_label_1
_geom_bond_atom_site_label_2
_geom_bond_distance
_geom_bond_site_symmetry_2
Nd0 O2 2.634629 1_555
Nd0 O0 2.634629 1_555
Nd0 O12 2.638299 1_545
Nd0 O6 2.638299 1_455
Nd0 O11 2.640897 1_554
Nd0 O3 2.640897 1_554
Nd0 O9 2.643608 1_554
Nd0 O15 2.643608 1_554
Nd0 O8 2.654408 1_554
Nd0 O7 2.795409 1_545
Nd0 O7 2.795409 1_455
Nd0 O1 2.804631 1_555
Nd1 O17 2.634629 1_555
Nd1 O16 2.634629 1_555
Nd1 O9 2.638299 1_565
Nd1 O15 2.638299 1_655
Nd1 O14 2.640897 1_556
Nd1 O10 2.640897 1_556
Nd1 O12 2.643608 1_556
Nd1 O6 2.643608 1_556
Nd1 O7 2.654408 1_556
Nd1 O8 2.795409 1_655
Nd1 O8 2.795409 1_565
Nd1 O1 2.804631 1_556
O0 Ta1 1.946519 1_545
O0 Ta3 1.989539 1_555
O1 Ta3 2.005221 1_555
O1 Ta0 2.005221 1_554
O2 Ta1 1.946519 1_455
O2 Ta3 1.989539 1_555
O3 Ta5 1.942196 1_545
O3 Ta0 1.990098 1_555
O4 Ta5 1.930127 1_445
O4 Ta2 1.930127 1_555
O5 Ta1 1.915619 1_555
O5 Ta0 1.959334 1_555
O6 Ta1 2.034699 1_555
O6 Ta2 2.036723 1_655
O7 Ta5 2.058246 1_554
O7 Ta1 2.085048 1_555
O8 Ta2 2.058246 1_556
O8 Ta4 2.085048 1_555
O9 Ta4 2.034699 1_555
O9 Ta5 2.036723 1_545
O10 Ta2 1.942196 1_655
O10 Ta3 1.990098 1_555
O11 Ta5 1.942196 1_455
O11 Ta0 1.990098 1_555
O12 Ta1 2.034699 1_555
O12 Ta2 2.036723 1_565
O13 Ta4 1.915619 1_555
O13 Ta3 1.959334 1_555
O14 Ta2 1.942196 1_565
O14 Ta3 1.990098 1_555
O15 Ta4 2.034699 1_555
O15 Ta5 2.036723 1_455
O16 Ta4 1.946519 1_655
O16 Ta0 1.989539 1_555
O17 Ta4 1.946519 1_565
O17 Ta0 1.989539 1_555
