# generated using pymatgen
data_Nd3Cd2Si3O13
_symmetry_space_group_name_H-M   'P 1'
_cell_length_a   9.64853662
_cell_length_b   9.64853662
_cell_length_c   7.00950000
_cell_angle_alpha   90.00000000
_cell_angle_beta   90.00000000
_cell_angle_gamma   120.00000424
_symmetry_Int_Tables_number   1
_chemical_formula_structural   Nd3Cd2Si3O13
_chemical_formula_sum   'Nd6 Cd4 Si6 O26'
_cell_volume   565.11983676
_cell_formula_units_Z   2
loop_
 _symmetry_equiv_pos_site_id
 _symmetry_equiv_pos_as_xyz
  1  'x, y, z'
loop_
 _atom_site_type_symbol
 _atom_site_label
 _atom_site_symmetry_multiplicity
 _atom_site_fract_x
 _atom_site_fract_y
 _atom_site_fract_z
 _atom_site_occupancy
  Nd  Nd0  1  0.24916600  0.23905500  0.25000000  1
  Nd  Nd1  1  0.75083400  0.76094500  0.75000000  1
  Nd  Nd2  1  0.76094500  0.01011100  0.25000000  1
  Nd  Nd3  1  0.23905500  0.98988900  0.75000000  1
  Nd  Nd4  1  0.98988900  0.75083400  0.25000000  1
  Nd  Nd5  1  0.01011100  0.24916600  0.75000000  1
  Cd  Cd0  1  0.33333300  0.66666700  0.99456700  1
  Cd  Cd1  1  0.66666700  0.33333300  0.00543300  1
  Cd  Cd2  1  0.66666700  0.33333300  0.49456700  1
  Cd  Cd3  1  0.33333300  0.66666700  0.50543300  1
  Si  Si0  1  0.02734900  0.39866900  0.25000000  1
  Si  Si1  1  0.97265100  0.60133100  0.75000000  1
  Si  Si2  1  0.60133100  0.62868000  0.25000000  1
  Si  Si3  1  0.39866900  0.37132000  0.75000000  1
  Si  Si4  1  0.37132000  0.97265100  0.25000000  1
  Si  Si5  1  0.62868000  0.02734900  0.75000000  1
  O  O0  1  0.48466500  0.16863100  0.25000000  1
  O  O1  1  0.51533500  0.83136900  0.75000000  1
  O  O2  1  0.83136900  0.31603300  0.25000000  1
  O  O3  1  0.16863100  0.68396700  0.75000000  1
  O  O4  1  0.68396700  0.51533500  0.25000000  1
  O  O5  1  0.31603300  0.48466500  0.75000000  1
  O  O6  1  0.00000000  0.00000000  0.25000000  1
  O  O7  1  0.00000000  0.00000000  0.75000000  1
  O  O8  1  0.12610900  0.59519700  0.25000000  1
  O  O9  1  0.87389100  0.40480300  0.75000000  1
  O  O10  1  0.40480300  0.53091200  0.25000000  1
  O  O11  1  0.59519700  0.46908800  0.75000000  1
  O  O12  1  0.46908800  0.87389100  0.25000000  1
  O  O13  1  0.53091200  0.12610900  0.75000000  1
  O  O14  1  0.08451400  0.33183800  0.06738500  1
  O  O15  1  0.91548600  0.66816200  0.93261500  1
  O  O16  1  0.66816200  0.75267600  0.06738500  1
  O  O17  1  0.91548600  0.66816200  0.56738500  1
  O  O18  1  0.33183800  0.24732400  0.93261500  1
  O  O19  1  0.08451400  0.33183800  0.43261500  1
  O  O20  1  0.24732400  0.91548600  0.06738500  1
  O  O21  1  0.33183800  0.24732400  0.56738500  1
  O  O22  1  0.75267600  0.08451400  0.93261500  1
  O  O23  1  0.66816200  0.75267600  0.43261500  1
  O  O24  1  0.75267600  0.08451400  0.56738500  1
  O  O25  1  0.24732400  0.91548600  0.43261500  1
loop_
_geom_bond_atom_site_label_1
_geom_bond_atom_site_label_2
_geom_bond_distance
_geom_bond_site_symmetry_2
Nd0 O21 2.351240 1_555
Nd0 O18 2.351240 1_554
Nd0 O6 2.356824 1_555
Nd0 O10 2.440520 1_555
Nd0 O14 2.527039 1_555
Nd0 O19 2.527039 1_555
Nd0 O0 2.677432 1_555
Nd1 O23 2.351240 1_555
Nd1 O16 2.351240 1_556
Nd1 O7 2.356824 1_665
Nd1 O11 2.440520 1_555
Nd1 O15 2.527039 1_555
Nd1 O17 2.527039 1_555
Nd1 O1 2.677432 1_555
Nd2 O24 2.351240 1_555
Nd2 O22 2.351240 1_554
Nd2 O6 2.356824 1_655
Nd2 O12 2.440520 1_545
Nd2 O16 2.527039 1_545
Nd2 O23 2.527039 1_545
Nd2 O2 2.677422 1_555
Nd3 O25 2.351240 1_555
Nd3 O20 2.351240 1_556
Nd3 O7 2.356824 1_565
Nd3 O13 2.440520 1_565
Nd3 O21 2.527039 1_565
Nd3 O18 2.527039 1_565
Nd3 O3 2.677422 1_555
Nd4 O17 2.351240 1_555
Nd4 O15 2.351240 1_554
Nd4 O6 2.356824 1_665
Nd4 O8 2.440520 1_655
Nd4 O20 2.527039 1_655
Nd4 O25 2.527039 1_655
Nd4 O4 2.677425 1_555
Nd5 O19 2.351240 1_555
Nd5 O14 2.351240 1_556
Nd5 O7 2.356824 1_555
Nd5 O9 2.440520 1_455
Nd5 O22 2.527039 1_455
Nd5 O24 2.527039 1_455
Nd5 O5 2.677425 1_555
Cd0 O1 2.399430 1_555
Cd0 O5 2.399430 1_555
Cd0 O3 2.399430 1_555
Cd0 O8 2.510008 1_556
Cd0 O12 2.510009 1_556
Cd0 O10 2.510014 1_556
Cd1 O0 2.399430 1_555
Cd1 O4 2.399430 1_555
Cd1 O2 2.399430 1_555
Cd1 O9 2.510008 1_554
Cd1 O13 2.510009 1_554
Cd1 O11 2.510014 1_554
Cd2 O0 2.399430 1_555
Cd2 O4 2.399430 1_555
Cd2 O2 2.399430 1_555
Cd2 O9 2.510008 1_555
Cd2 O13 2.510009 1_555
Cd2 O11 2.510014 1_555
Cd3 O1 2.399430 1_555
Cd3 O5 2.399430 1_555
Cd3 O3 2.399430 1_555
Cd3 O8 2.510008 1_555
Cd3 O12 2.510009 1_555
Cd3 O10 2.510014 1_555
O0 Si4 1.644273 1_545
O1 Si5 1.644273 1_565
O2 Si0 1.644272 1_655
O3 Si1 1.644272 1_455
O4 Si2 1.644281 1_555
O5 Si3 1.644281 1_555
O8 Si0 1.642171 1_555
O9 Si1 1.642171 1_555
O10 Si2 1.642171 1_555
O11 Si3 1.642171 1_555
O12 Si4 1.642171 1_555
O13 Si5 1.642171 1_555
O14 Si0 1.647474 1_555
O15 Si1 1.647474 1_555
O16 Si2 1.647474 1_555
O17 Si1 1.647474 1_555
O18 Si3 1.647474 1_555
O19 Si0 1.647474 1_555
O20 Si4 1.647474 1_555
O21 Si3 1.647474 1_555
O22 Si5 1.647474 1_555
O23 Si2 1.647474 1_555
O24 Si5 1.647474 1_555
O25 Si4 1.647474 1_555
