# generated using pymatgen
data_Mg14CdCO16
_symmetry_space_group_name_H-M   'P 1'
_cell_length_a   8.61376048
_cell_length_b   8.56975923
_cell_length_c   4.28578288
_cell_angle_alpha   90.00000000
_cell_angle_beta   90.00000000
_cell_angle_gamma   90.00000000
_symmetry_Int_Tables_number   1
_chemical_formula_structural   Mg14CdCO16
_chemical_formula_sum   'Mg14 Cd1 C1 O16'
_cell_volume   316.36729225
_cell_formula_units_Z   1
loop_
 _symmetry_equiv_pos_site_id
 _symmetry_equiv_pos_as_xyz
  1  'x, y, z'
loop_
 _atom_site_type_symbol
 _atom_site_label
 _atom_site_symmetry_multiplicity
 _atom_site_fract_x
 _atom_site_fract_y
 _atom_site_fract_z
 _atom_site_occupancy
  Mg  Mg0  1  0.50000000  0.00000000  -0.00000000  1
  Mg  Mg1  1  0.50000000  0.50000000  -0.00000000  1
  Mg  Mg2  1  0.00000000  0.25864380  0.50000000  1
  Mg  Mg3  1  0.00000000  0.74135620  0.50000000  1
  Mg  Mg4  1  0.50000000  0.25106245  0.50000000  1
  Mg  Mg5  1  0.50000000  0.74893755  0.50000000  1
  Mg  Mg6  1  0.25474110  0.00000000  0.50000000  1
  Mg  Mg7  1  0.24674707  0.50000000  0.50000000  1
  Mg  Mg8  1  0.74525890  0.00000000  0.50000000  1
  Mg  Mg9  1  0.75325293  0.50000000  0.50000000  1
  Mg  Mg10  1  0.25029002  0.25460803  0.00000000  1
  Mg  Mg11  1  0.25029002  0.74539197  -0.00000000  1
  Mg  Mg12  1  0.74970998  0.25460803  0.00000000  1
  Mg  Mg13  1  0.74970998  0.74539197  0.00000000  1
  Cd  Cd0  1  0.00000000  0.00000000  -0.00000000  1
  C  C0  1  0.00000000  0.50000000  -0.00000000  1
  O  O0  1  0.26500748  0.00000000  0.00000000  1
  O  O1  1  0.25428452  0.50000000  -0.00000000  1
  O  O2  1  0.73499252  0.00000000  -0.00000000  1
  O  O3  1  0.74571548  0.50000000  0.00000000  1
  O  O4  1  0.24817120  0.25018935  0.50000000  1
  O  O5  1  0.24817120  0.74981065  0.50000000  1
  O  O6  1  0.75182880  0.25018935  0.50000000  1
  O  O7  1  0.75182880  0.74981065  0.50000000  1
  O  O8  1  0.00000000  0.00000000  0.50000000  1
  O  O9  1  0.00000000  0.50000000  0.50000000  1
  O  O10  1  0.50000000  0.00000000  0.50000000  1
  O  O11  1  0.50000000  0.50000000  0.50000000  1
  O  O12  1  0.00000000  0.26678503  0.00000000  1
  O  O13  1  0.00000000  0.73321497  -0.00000000  1
  O  O14  1  0.50000000  0.25299333  0.00000000  1
  O  O15  1  0.50000000  0.74700667  -0.00000000  1
loop_
_geom_bond_atom_site_label_1
_geom_bond_atom_site_label_2
_geom_bond_distance
_geom_bond_site_symmetry_2
Mg0 O0 2.024169 1_555
Mg0 O2 2.024169 1_555
Mg0 O10 2.142891 1_555
Mg0 O10 2.142891 1_554
Mg0 O15 2.168092 1_545
Mg0 O14 2.168092 1_555
Mg1 O3 2.116534 1_555
Mg1 O1 2.116534 1_555
Mg1 O14 2.116788 1_555
Mg1 O15 2.116788 1_555
Mg1 O11 2.142891 1_554
Mg1 O11 2.142891 1_555
Mg2 O9 2.068365 1_555
Mg2 O4 2.138915 1_555
Mg2 O6 2.138915 1_455
Mg2 O12 2.144027 1_556
Mg2 O12 2.144027 1_555
Mg2 O8 2.216515 1_555
Mg3 O9 2.068365 1_555
Mg3 O5 2.138915 1_555
Mg3 O7 2.138915 1_455
Mg3 O13 2.144027 1_555
Mg3 O13 2.144027 1_556
Mg3 O8 2.216515 1_565
Mg4 O11 2.133335 1_555
Mg4 O14 2.142955 1_556
Mg4 O14 2.142955 1_555
Mg4 O10 2.151545 1_555
Mg4 O4 2.169206 1_555
Mg4 O6 2.169206 1_555
Mg5 O11 2.133335 1_555
Mg5 O15 2.142955 1_556
Mg5 O15 2.142955 1_555
Mg5 O10 2.151545 1_565
Mg5 O5 2.169206 1_555
Mg5 O7 2.169206 1_555
Mg6 O10 2.112601 1_555
Mg6 O0 2.144715 1_555
Mg6 O0 2.144715 1_556
Mg6 O5 2.144809 1_545
Mg6 O4 2.144809 1_555
Mg6 O8 2.194279 1_555
Mg7 O9 2.125420 1_555
Mg7 O4 2.140852 1_555
Mg7 O5 2.140852 1_555
Mg7 O1 2.143875 1_555
Mg7 O1 2.143875 1_556
Mg7 O11 2.181460 1_555
Mg8 O10 2.112601 1_555
Mg8 O2 2.144715 1_555
Mg8 O2 2.144715 1_556
Mg8 O6 2.144809 1_555
Mg8 O7 2.144809 1_545
Mg8 O8 2.194279 1_655
Mg9 O9 2.125420 1_655
Mg9 O6 2.140852 1_555
Mg9 O7 2.140852 1_555
Mg9 O3 2.143875 1_556
Mg9 O3 2.143875 1_555
Mg9 O11 2.181460 1_555
Mg10 O1 2.103232 1_555
Mg10 O4 2.143304 1_554
Mg10 O4 2.143304 1_555
Mg10 O14 2.150986 1_555
Mg10 O12 2.158462 1_555
Mg10 O0 2.185609 1_555
Mg11 O1 2.103232 1_555
Mg11 O5 2.143304 1_554
Mg11 O5 2.143304 1_555
Mg11 O15 2.150986 1_555
Mg11 O13 2.158462 1_555
Mg11 O0 2.185609 1_565
Mg12 O3 2.103232 1_555
Mg12 O6 2.143304 1_555
Mg12 O6 2.143304 1_554
Mg12 O14 2.150986 1_555
Mg12 O12 2.158462 1_655
Mg12 O2 2.185609 1_555
Mg13 O3 2.103232 1_555
Mg13 O7 2.143304 1_554
Mg13 O7 2.143304 1_555
Mg13 O15 2.150986 1_555
Mg13 O13 2.158462 1_655
Mg13 O2 2.185609 1_565
Cd0 O8 2.142891 1_555
Cd0 O8 2.142891 1_554
Cd0 O2 2.282711 1_455
Cd0 O0 2.282711 1_555
Cd0 O13 2.286283 1_545
Cd0 O12 2.286283 1_555
C0 O13 1.998596 1_555
C0 O12 1.998596 1_555
