# generated using pymatgen
data_Mg30NbNiO32
_symmetry_space_group_name_H-M   'P 1'
_cell_length_a   8.54557800
_cell_length_b   8.54558900
_cell_length_c   8.54558900
_cell_angle_alpha   90.00000000
_cell_angle_beta   90.00000000
_cell_angle_gamma   90.00000000
_symmetry_Int_Tables_number   1
_chemical_formula_structural   Mg30NbNiO32
_chemical_formula_sum   'Mg30 Nb1 Ni1 O32'
_cell_volume   624.05870530
_cell_formula_units_Z   1
loop_
 _symmetry_equiv_pos_site_id
 _symmetry_equiv_pos_as_xyz
  1  'x, y, z'
loop_
 _atom_site_type_symbol
 _atom_site_label
 _atom_site_symmetry_multiplicity
 _atom_site_fract_x
 _atom_site_fract_y
 _atom_site_fract_z
 _atom_site_occupancy
  Mg  Mg0  1  0.00000000  0.00000000  0.50000000  1
  Mg  Mg1  1  0.00000000  0.50000000  0.00000000  1
  Mg  Mg2  1  0.50000000  0.00000000  0.00000000  1
  Mg  Mg3  1  0.50000000  0.00000000  0.50000000  1
  Mg  Mg4  1  0.50000000  0.50000000  0.00000000  1
  Mg  Mg5  1  0.50000000  0.50000000  0.50000000  1
  Mg  Mg6  1  0.00000000  0.24781000  0.24781000  1
  Mg  Mg7  1  0.00000000  0.24781000  0.75219000  1
  Mg  Mg8  1  0.00000000  0.75219000  0.24781000  1
  Mg  Mg9  1  0.00000000  0.75219000  0.75219000  1
  Mg  Mg10  1  0.50000000  0.25002900  0.25002900  1
  Mg  Mg11  1  0.50000000  0.25002900  0.74997100  1
  Mg  Mg12  1  0.50000000  0.74997100  0.25002900  1
  Mg  Mg13  1  0.50000000  0.74997100  0.74997100  1
  Mg  Mg14  1  0.24949500  0.00000000  0.24962900  1
  Mg  Mg15  1  0.24949500  0.00000000  0.75037100  1
  Mg  Mg16  1  0.25173600  0.50000000  0.24818800  1
  Mg  Mg17  1  0.25173600  0.50000000  0.75181200  1
  Mg  Mg18  1  0.75050500  0.00000000  0.24962900  1
  Mg  Mg19  1  0.75050500  0.00000000  0.75037100  1
  Mg  Mg20  1  0.74826400  0.50000000  0.24818800  1
  Mg  Mg21  1  0.74826400  0.50000000  0.75181200  1
  Mg  Mg22  1  0.24949500  0.24962900  0.00000000  1
  Mg  Mg23  1  0.25173600  0.24818800  0.50000000  1
  Mg  Mg24  1  0.24949500  0.75037100  0.00000000  1
  Mg  Mg25  1  0.25173600  0.75181200  0.50000000  1
  Mg  Mg26  1  0.75050500  0.24962900  0.00000000  1
  Mg  Mg27  1  0.74826400  0.24818800  0.50000000  1
  Mg  Mg28  1  0.75050500  0.75037100  0.00000000  1
  Mg  Mg29  1  0.74826400  0.75181200  0.50000000  1
  Nb  Nb0  1  0.00000000  0.50000000  0.50000000  1
  Ni  Ni0  1  0.00000000  0.00000000  0.00000000  1
  O  O0  1  0.25157900  0.00000000  0.00000000  1
  O  O1  1  0.25121300  0.00000000  0.50000000  1
  O  O2  1  0.25121300  0.50000000  0.00000000  1
  O  O3  1  0.26234500  0.50000000  0.50000000  1
  O  O4  1  0.74842100  0.00000000  0.00000000  1
  O  O5  1  0.74878700  0.00000000  0.50000000  1
  O  O6  1  0.74878700  0.50000000  0.00000000  1
  O  O7  1  0.73765500  0.50000000  0.50000000  1
  O  O8  1  0.24952100  0.25033900  0.25033900  1
  O  O9  1  0.24952100  0.25033900  0.74966100  1
  O  O10  1  0.24952100  0.74966100  0.25033900  1
  O  O11  1  0.24952100  0.74966100  0.74966100  1
  O  O12  1  0.75047900  0.25033900  0.25033900  1
  O  O13  1  0.75047900  0.25033900  0.74966100  1
  O  O14  1  0.75047900  0.74966100  0.25033900  1
  O  O15  1  0.75047900  0.74966100  0.74966100  1
  O  O16  1  0.00000000  0.00000000  0.25011400  1
  O  O17  1  0.00000000  0.00000000  0.74988600  1
  O  O18  1  0.00000000  0.50000000  0.23769400  1
  O  O19  1  0.00000000  0.50000000  0.76230600  1
  O  O20  1  0.50000000  0.00000000  0.24982500  1
  O  O21  1  0.50000000  0.00000000  0.75017500  1
  O  O22  1  0.50000000  0.50000000  0.24880800  1
  O  O23  1  0.50000000  0.50000000  0.75119200  1
  O  O24  1  0.00000000  0.25011400  0.00000000  1
  O  O25  1  0.00000000  0.23769400  0.50000000  1
  O  O26  1  0.00000000  0.74988600  0.00000000  1
  O  O27  1  0.00000000  0.76230600  0.50000000  1
  O  O28  1  0.50000000  0.24982500  0.00000000  1
  O  O29  1  0.50000000  0.24880800  0.50000000  1
  O  O30  1  0.50000000  0.75017500  0.00000000  1
  O  O31  1  0.50000000  0.75119200  0.50000000  1
loop_
_geom_bond_atom_site_label_1
_geom_bond_atom_site_label_2
_geom_bond_distance
_geom_bond_site_symmetry_2
Mg0 O27 2.031235 1_545
Mg0 O25 2.031235 1_555
Mg0 O16 2.135423 1_555
Mg0 O17 2.135423 1_555
Mg0 O1 2.146760 1_555
Mg0 O5 2.146760 1_455
Mg1 O19 2.031235 1_554
Mg1 O18 2.031235 1_555
Mg1 O24 2.135423 1_555
Mg1 O26 2.135423 1_555
Mg1 O6 2.146760 1_455
Mg1 O2 2.146760 1_555
Mg2 O0 2.122901 1_555
Mg2 O4 2.122901 1_555
Mg2 O28 2.134902 1_555
Mg2 O30 2.134902 1_545
Mg2 O20 2.134902 1_555
Mg2 O21 2.134902 1_554
Mg3 O1 2.126029 1_555
Mg3 O5 2.126029 1_555
Mg3 O29 2.126211 1_555
Mg3 O31 2.126211 1_545
Mg3 O21 2.137893 1_555
Mg3 O20 2.137893 1_555
Mg4 O2 2.126029 1_555
Mg4 O6 2.126029 1_555
Mg4 O22 2.126211 1_555
Mg4 O23 2.126211 1_554
Mg4 O30 2.137893 1_555
Mg4 O28 2.137893 1_555
Mg5 O7 2.030899 1_555
Mg5 O3 2.030899 1_555
Mg5 O31 2.146584 1_555
Mg5 O23 2.146584 1_555
Mg5 O22 2.146584 1_555
Mg5 O29 2.146584 1_555
Mg6 O24 2.117774 1_555
Mg6 O16 2.117774 1_555
Mg6 O12 2.132520 1_455
Mg6 O8 2.132520 1_555
Mg6 O25 2.156845 1_555
Mg6 O18 2.156845 1_555
Mg7 O24 2.117774 1_556
Mg7 O17 2.117774 1_555
Mg7 O9 2.132520 1_555
Mg7 O13 2.132520 1_455
Mg7 O19 2.156845 1_555
Mg7 O25 2.156845 1_555
Mg8 O16 2.117774 1_565
Mg8 O26 2.117774 1_555
Mg8 O10 2.132520 1_555
Mg8 O14 2.132520 1_455
Mg8 O27 2.156845 1_555
Mg8 O18 2.156845 1_555
Mg9 O26 2.117774 1_556
Mg9 O17 2.117774 1_565
Mg9 O11 2.132520 1_555
Mg9 O15 2.132520 1_455
Mg9 O19 2.156845 1_555
Mg9 O27 2.156845 1_555
Mg10 O22 2.136175 1_555
Mg10 O29 2.136175 1_555
Mg10 O20 2.136646 1_555
Mg10 O28 2.136646 1_555
Mg10 O12 2.140491 1_555
Mg10 O8 2.140491 1_555
Mg11 O23 2.136175 1_555
Mg11 O29 2.136175 1_555
Mg11 O28 2.136646 1_556
Mg11 O21 2.136646 1_555
Mg11 O9 2.140491 1_555
Mg11 O13 2.140491 1_555
Mg12 O31 2.136175 1_555
Mg12 O22 2.136175 1_555
Mg12 O20 2.136646 1_565
Mg12 O30 2.136646 1_555
Mg12 O10 2.140491 1_555
Mg12 O14 2.140491 1_555
Mg13 O23 2.136175 1_555
Mg13 O31 2.136175 1_555
Mg13 O21 2.136646 1_565
Mg13 O30 2.136646 1_556
Mg13 O15 2.140491 1_555
Mg13 O11 2.140491 1_555
Mg14 O16 2.132083 1_555
Mg14 O0 2.133301 1_555
Mg14 O10 2.139303 1_545
Mg14 O8 2.139303 1_555
Mg14 O1 2.139618 1_555
Mg14 O20 2.140711 1_555
Mg15 O17 2.132083 1_555
Mg15 O0 2.133301 1_556
Mg15 O9 2.139303 1_555
Mg15 O11 2.139303 1_545
Mg15 O1 2.139618 1_555
Mg15 O21 2.140711 1_555
Mg16 O2 2.120917 1_555
Mg16 O22 2.121566 1_555
Mg16 O10 2.133663 1_555
Mg16 O8 2.133663 1_555
Mg16 O18 2.153098 1_555
Mg16 O3 2.153791 1_555
Mg17 O2 2.120917 1_556
Mg17 O23 2.121566 1_555
Mg17 O11 2.133663 1_555
Mg17 O9 2.133663 1_555
Mg17 O19 2.153098 1_555
Mg17 O3 2.153791 1_555
Mg18 O16 2.132083 1_655
Mg18 O4 2.133301 1_555
Mg18 O14 2.139303 1_545
Mg18 O12 2.139303 1_555
Mg18 O5 2.139618 1_555
Mg18 O20 2.140711 1_555
Mg19 O17 2.132083 1_655
Mg19 O4 2.133301 1_556
Mg19 O15 2.139303 1_545
Mg19 O13 2.139303 1_555
Mg19 O5 2.139618 1_555
Mg19 O21 2.140711 1_555
Mg20 O6 2.120917 1_555
Mg20 O22 2.121566 1_555
Mg20 O12 2.133663 1_555
Mg20 O14 2.133663 1_555
Mg20 O18 2.153098 1_655
Mg20 O7 2.153791 1_555
Mg21 O6 2.120917 1_556
Mg21 O23 2.121566 1_555
Mg21 O15 2.133663 1_555
Mg21 O13 2.133663 1_555
Mg21 O19 2.153098 1_655
Mg21 O7 2.153791 1_555
Mg22 O24 2.132083 1_555
Mg22 O0 2.133301 1_555
Mg22 O8 2.139303 1_555
Mg22 O9 2.139303 1_554
Mg22 O2 2.139618 1_555
Mg22 O28 2.140711 1_555
Mg23 O1 2.120917 1_555
Mg23 O29 2.121566 1_555
Mg23 O8 2.133663 1_555
Mg23 O9 2.133663 1_555
Mg23 O25 2.153098 1_555
Mg23 O3 2.153791 1_555
Mg24 O26 2.132083 1_555
Mg24 O0 2.133301 1_565
Mg24 O10 2.139303 1_555
Mg24 O11 2.139303 1_554
Mg24 O2 2.139618 1_555
Mg24 O30 2.140711 1_555
Mg25 O1 2.120917 1_565
Mg25 O31 2.121566 1_555
Mg25 O10 2.133663 1_555
Mg25 O11 2.133663 1_555
Mg25 O27 2.153098 1_555
Mg25 O3 2.153791 1_555
Mg26 O24 2.132083 1_655
Mg26 O4 2.133301 1_555
Mg26 O13 2.139303 1_554
Mg26 O12 2.139303 1_555
Mg26 O6 2.139618 1_555
Mg26 O28 2.140711 1_555
Mg27 O5 2.120917 1_555
Mg27 O29 2.121566 1_555
Mg27 O13 2.133663 1_555
Mg27 O12 2.133663 1_555
Mg27 O25 2.153098 1_655
Mg27 O7 2.153791 1_555
Mg28 O26 2.132083 1_655
Mg28 O4 2.133301 1_565
Mg28 O14 2.139303 1_555
Mg28 O15 2.139303 1_554
Mg28 O6 2.139618 1_555
Mg28 O30 2.140711 1_555
Mg29 O5 2.120917 1_565
Mg29 O31 2.121566 1_555
Mg29 O15 2.133663 1_555
Mg29 O14 2.133663 1_555
Mg29 O27 2.153098 1_655
Mg29 O7 2.153791 1_555
Nb0 O18 2.241559 1_555
Nb0 O19 2.241559 1_555
Nb0 O27 2.241559 1_555
Nb0 O25 2.241559 1_555
Nb0 O3 2.241890 1_555
Nb0 O7 2.241890 1_455
Ni0 O17 2.137371 1_554
Ni0 O26 2.137371 1_545
Ni0 O24 2.137371 1_555
Ni0 O16 2.137371 1_555
Ni0 O0 2.149888 1_555
Ni0 O4 2.149888 1_455
