# generated using pymatgen
data_Li7RuN4
_symmetry_space_group_name_H-M   'P 1'
_cell_length_a   9.76876761
_cell_length_b   9.76876761
_cell_length_c   9.76876761
_cell_angle_alpha   90.00000000
_cell_angle_beta   90.00000000
_cell_angle_gamma   90.00000000
_symmetry_Int_Tables_number   1
_chemical_formula_structural   Li7RuN4
_chemical_formula_sum   'Li56 Ru8 N32'
_cell_volume   932.22197192
_cell_formula_units_Z   8
loop_
 _symmetry_equiv_pos_site_id
 _symmetry_equiv_pos_as_xyz
  1  'x, y, z'
loop_
 _atom_site_type_symbol
 _atom_site_label
 _atom_site_symmetry_multiplicity
 _atom_site_fract_x
 _atom_site_fract_y
 _atom_site_fract_z
 _atom_site_occupancy
  Li  Li0  1  -0.00000000  0.00000000  0.50000000  1
  Li  Li1  1  -0.00000000  0.50000000  0.00000000  1
  Li  Li2  1  0.50000000  0.00000000  0.00000000  1
  Li  Li3  1  0.50000000  0.00000000  0.50000000  1
  Li  Li4  1  0.50000000  0.50000000  0.00000000  1
  Li  Li5  1  -0.00000000  0.50000000  0.50000000  1
  Li  Li6  1  -0.00000000  0.50000000  0.25000000  1
  Li  Li7  1  0.50000000  0.75000000  0.00000000  1
  Li  Li8  1  0.25000000  0.00000000  0.50000000  1
  Li  Li9  1  0.50000000  0.25000000  0.00000000  1
  Li  Li10  1  0.75000000  0.00000000  0.50000000  1
  Li  Li11  1  -0.00000000  0.50000000  0.75000000  1
  Li  Li12  1  0.26545471  0.73454529  0.26545471  1
  Li  Li13  1  0.73454529  0.26545471  0.26545471  1
  Li  Li14  1  0.26545471  0.26545471  0.73454529  1
  Li  Li15  1  0.73454529  0.73454529  0.73454529  1
  Li  Li16  1  0.76545471  0.76545471  0.23454529  1
  Li  Li17  1  0.23454529  0.76545471  0.76545471  1
  Li  Li18  1  0.76545471  0.23454529  0.76545471  1
  Li  Li19  1  0.23454529  0.23454529  0.23454529  1
  Li  Li20  1  0.50000000  0.50000000  0.23664548  1
  Li  Li21  1  0.50000000  0.76335452  0.50000000  1
  Li  Li22  1  0.23664548  0.50000000  0.50000000  1
  Li  Li23  1  0.50000000  0.23664548  0.50000000  1
  Li  Li24  1  0.76335452  0.50000000  0.50000000  1
  Li  Li25  1  0.50000000  0.50000000  0.76335452  1
  Li  Li26  1  -0.00000000  0.73664548  0.00000000  1
  Li  Li27  1  -0.00000000  0.00000000  0.26335452  1
  Li  Li28  1  0.73664548  0.00000000  0.00000000  1
  Li  Li29  1  -0.00000000  0.00000000  0.73664548  1
  Li  Li30  1  0.26335452  0.00000000  0.00000000  1
  Li  Li31  1  -0.00000000  0.26335452  0.00000000  1
  Li  Li32  1  0.51692002  0.73818362  0.24802991  1
  Li  Li33  1  0.26181638  0.75197009  0.51692002  1
  Li  Li34  1  0.24802991  0.48307998  0.26181638  1
  Li  Li35  1  0.48307998  0.26181638  0.24802991  1
  Li  Li36  1  0.73818362  0.24802991  0.51692002  1
  Li  Li37  1  0.75197009  0.51692002  0.26181638  1
  Li  Li38  1  0.51692002  0.26181638  0.75197009  1
  Li  Li39  1  0.26181638  0.24802991  0.48307998  1
  Li  Li40  1  0.24802991  0.51692002  0.73818362  1
  Li  Li41  1  0.48307998  0.73818362  0.75197009  1
  Li  Li42  1  0.73818362  0.75197009  0.48307998  1
  Li  Li43  1  0.75197009  0.48307998  0.73818362  1
  Li  Li44  1  0.01692002  0.74802991  0.23818362  1
  Li  Li45  1  0.76181638  0.01692002  0.25197009  1
  Li  Li46  1  0.74802991  0.76181638  0.98307998  1
  Li  Li47  1  0.98307998  0.74802991  0.76181638  1
  Li  Li48  1  0.23818362  0.01692002  0.74802991  1
  Li  Li49  1  0.25197009  0.76181638  0.01692002  1
  Li  Li50  1  0.01692002  0.25197009  0.76181638  1
  Li  Li51  1  0.76181638  0.98307998  0.74802991  1
  Li  Li52  1  0.74802991  0.23818362  0.01692002  1
  Li  Li53  1  0.98307998  0.25197009  0.23818362  1
  Li  Li54  1  0.23818362  0.98307998  0.25197009  1
  Li  Li55  1  0.25197009  0.23818362  0.98307998  1
  Ru  Ru0  1  0.50000000  0.50000000  0.50000000  1
  Ru  Ru1  1  -0.00000000  0.00000000  0.00000000  1
  Ru  Ru2  1  0.50000000  0.00000000  0.25000000  1
  Ru  Ru3  1  -0.00000000  0.75000000  0.50000000  1
  Ru  Ru4  1  0.25000000  0.50000000  0.00000000  1
  Ru  Ru5  1  -0.00000000  0.25000000  0.50000000  1
  Ru  Ru6  1  0.75000000  0.50000000  0.00000000  1
  Ru  Ru7  1  0.50000000  0.00000000  0.75000000  1
  N  N0  1  0.38582973  0.61417027  0.38582973  1
  N  N1  1  0.61417027  0.38582973  0.38582973  1
  N  N2  1  0.38582973  0.38582973  0.61417027  1
  N  N3  1  0.61417027  0.61417027  0.61417027  1
  N  N4  1  0.88582973  0.88582973  0.11417027  1
  N  N5  1  0.11417027  0.88582973  0.88582973  1
  N  N6  1  0.88582973  0.11417027  0.88582973  1
  N  N7  1  0.11417027  0.11417027  0.11417027  1
  N  N8  1  0.38662720  0.87859903  0.13829989  1
  N  N9  1  0.12140097  0.86170011  0.38662720  1
  N  N10  1  0.13829989  0.61337280  0.12140097  1
  N  N11  1  0.61337280  0.12140097  0.13829989  1
  N  N12  1  0.87859903  0.13829989  0.38662720  1
  N  N13  1  0.86170011  0.38662720  0.12140097  1
  N  N14  1  0.38662720  0.12140097  0.86170011  1
  N  N15  1  0.12140097  0.13829989  0.61337280  1
  N  N16  1  0.13829989  0.38662720  0.87859903  1
  N  N17  1  0.61337280  0.87859903  0.86170011  1
  N  N18  1  0.87859903  0.86170011  0.61337280  1
  N  N19  1  0.86170011  0.61337280  0.87859903  1
  N  N20  1  0.88662720  0.63829989  0.37859903  1
  N  N21  1  0.62140097  0.88662720  0.36170011  1
  N  N22  1  0.63829989  0.62140097  0.11337280  1
  N  N23  1  0.11337280  0.63829989  0.62140097  1
  N  N24  1  0.37859903  0.88662720  0.63829989  1
  N  N25  1  0.36170011  0.62140097  0.88662720  1
  N  N26  1  0.88662720  0.36170011  0.62140097  1
  N  N27  1  0.62140097  0.11337280  0.63829989  1
  N  N28  1  0.63829989  0.37859903  0.88662720  1
  N  N29  1  0.11337280  0.36170011  0.37859903  1
  N  N30  1  0.37859903  0.11337280  0.36170011  1
  N  N31  1  0.36170011  0.37859903  0.11337280  1
loop_
_geom_bond_atom_site_label_1
_geom_bond_atom_site_label_2
_geom_bond_distance
_geom_bond_site_symmetry_2
Li0 N9 2.111465 1_545
Li0 N12 2.111465 1_455
Li0 N15 2.111465 1_555
Li0 N18 2.111465 1_445
Li1 N13 2.111465 1_455
Li1 N16 2.111465 1_554
Li1 N10 2.111465 1_555
Li1 N19 2.111465 1_454
Li2 N14 2.111465 1_554
Li2 N11 2.111465 1_555
Li2 N17 2.111465 1_544
Li2 N8 2.111465 1_545
Li3 N30 2.111465 1_555
Li3 N24 2.111465 1_545
Li3 N27 2.111465 1_555
Li3 N21 2.111465 1_545
Li4 N31 2.111465 1_555
Li4 N28 2.111465 1_554
Li4 N22 2.111465 1_555
Li4 N25 2.111465 1_554
Li5 N29 2.111465 1_555
Li5 N23 2.111465 1_555
Li5 N20 2.111465 1_455
Li5 N26 2.111465 1_455
Li6 N13 2.151746 1_455
Li6 N29 2.151746 1_555
Li6 N10 2.151746 1_555
Li6 N20 2.151746 1_455
Li7 N22 2.151746 1_555
Li7 N8 2.151746 1_555
Li7 N17 2.151746 1_554
Li7 N25 2.151746 1_554
Li8 N30 2.151746 1_555
Li8 N9 2.151746 1_545
Li8 N15 2.151746 1_555
Li8 N24 2.151746 1_545
Li9 N14 2.151746 1_554
Li9 N31 2.151746 1_555
Li9 N11 2.151746 1_555
Li9 N28 2.151746 1_554
Li10 N27 2.151746 1_555
Li10 N12 2.151746 1_555
Li10 N21 2.151746 1_545
Li10 N18 2.151746 1_545
Li11 N23 2.151746 1_555
Li11 N26 2.151746 1_455
Li11 N19 2.151746 1_455
Li11 N16 2.151746 1_555
Li12 N0 2.036746 1_555
Li12 N8 2.219093 1_555
Li12 N10 2.219093 1_555
Li12 N9 2.219093 1_555
Li13 N1 2.036746 1_555
Li13 N12 2.219093 1_555
Li13 N11 2.219093 1_555
Li13 N13 2.219093 1_555
Li14 N2 2.036746 1_555
Li14 N16 2.219093 1_555
Li14 N15 2.219093 1_555
Li14 N14 2.219093 1_555
Li15 N3 2.036746 1_555
Li15 N18 2.219093 1_555
Li15 N17 2.219093 1_555
Li15 N19 2.219093 1_555
Li16 N4 2.036746 1_555
Li16 N22 2.219093 1_555
Li16 N21 2.219093 1_555
Li16 N20 2.219093 1_555
Li17 N5 2.036746 1_555
Li17 N23 2.219093 1_555
Li17 N25 2.219093 1_555
Li17 N24 2.219093 1_555
Li18 N6 2.036746 1_555
Li18 N27 2.219093 1_555
Li18 N26 2.219093 1_555
Li18 N28 2.219093 1_555
Li19 N7 2.036746 1_555
Li19 N29 2.219093 1_555
Li19 N30 2.219093 1_555
Li19 N31 2.219093 1_555
Li20 N0 2.147477 1_555
Li20 N1 2.147477 1_555
Li20 N31 2.163759 1_555
Li20 N22 2.163759 1_555
Li21 N0 2.147477 1_555
Li21 N3 2.147477 1_555
Li21 N21 2.163759 1_555
Li21 N24 2.163759 1_555
Li22 N0 2.147477 1_555
Li22 N2 2.147477 1_555
Li22 N29 2.163759 1_555
Li22 N23 2.163759 1_555
Li23 N1 2.147477 1_555
Li23 N2 2.147477 1_555
Li23 N30 2.163759 1_555
Li23 N27 2.163759 1_555
Li24 N3 2.147477 1_555
Li24 N1 2.147477 1_555
Li24 N26 2.163759 1_555
Li24 N20 2.163759 1_555
Li25 N3 2.147477 1_555
Li25 N2 2.147477 1_555
Li25 N25 2.163759 1_555
Li25 N28 2.163759 1_555
Li26 N4 2.147477 1_455
Li26 N5 2.147477 1_554
Li26 N10 2.163759 1_555
Li26 N19 2.163759 1_454
Li27 N7 2.147477 1_555
Li27 N4 2.147477 1_445
Li27 N9 2.163759 1_545
Li27 N12 2.163759 1_455
Li28 N6 2.147477 1_554
Li28 N4 2.147477 1_545
Li28 N17 2.163759 1_544
Li28 N11 2.163759 1_555
Li29 N6 2.147477 1_455
Li29 N5 2.147477 1_545
Li29 N15 2.163759 1_555
Li29 N18 2.163759 1_445
Li30 N7 2.147477 1_555
Li30 N5 2.147477 1_544
Li30 N14 2.163759 1_554
Li30 N8 2.163759 1_545
Li31 N7 2.147477 1_555
Li31 N6 2.147477 1_454
Li31 N13 2.163759 1_455
Li31 N16 2.163759 1_554
Li32 N21 2.092266 1_555
Li32 N22 2.106609 1_555
Li32 N8 2.156518 1_555
Li32 N0 2.218022 1_555
Li33 N23 2.092266 1_555
Li33 N24 2.106609 1_555
Li33 N9 2.156518 1_555
Li33 N0 2.218022 1_555
Li34 N31 2.092266 1_555
Li34 N29 2.106609 1_555
Li34 N10 2.156518 1_555
Li34 N0 2.218022 1_555
Li35 N30 2.092266 1_555
Li35 N31 2.106609 1_555
Li35 N11 2.156518 1_555
Li35 N1 2.218022 1_555
Li36 N26 2.092266 1_555
Li36 N27 2.106609 1_555
Li36 N12 2.156518 1_555
Li36 N1 2.218022 1_555
Li37 N22 2.092266 1_555
Li37 N20 2.106609 1_555
Li37 N13 2.156518 1_555
Li37 N1 2.218022 1_555
Li38 N27 2.092266 1_555
Li38 N28 2.106609 1_555
Li38 N14 2.156518 1_555
Li38 N2 2.218022 1_555
Li39 N29 2.092266 1_555
Li39 N30 2.106609 1_555
Li39 N15 2.156518 1_555
Li39 N2 2.218022 1_555
Li40 N25 2.092266 1_555
Li40 N23 2.106609 1_555
Li40 N16 2.156518 1_555
Li40 N2 2.218022 1_555
Li41 N24 2.092266 1_555
Li41 N25 2.106609 1_555
Li41 N17 2.156518 1_555
Li41 N3 2.218022 1_555
Li42 N20 2.092266 1_555
Li42 N21 2.106609 1_555
Li42 N18 2.156518 1_555
Li42 N3 2.218022 1_555
Li43 N28 2.092266 1_555
Li43 N26 2.106609 1_555
Li43 N19 2.156518 1_555
Li43 N3 2.218022 1_555
Li44 N9 2.092266 1_555
Li44 N10 2.106609 1_555
Li44 N20 2.156518 1_455
Li44 N4 2.218022 1_455
Li45 N11 2.092266 1_555
Li45 N12 2.106609 1_555
Li45 N21 2.156518 1_545
Li45 N4 2.218022 1_545
Li46 N19 2.092266 1_555
Li46 N17 2.106609 1_555
Li46 N22 2.156518 1_556
Li46 N4 2.218022 1_556
Li47 N18 2.092266 1_555
Li47 N19 2.106609 1_555
Li47 N23 2.156518 1_655
Li47 N5 2.218022 1_655
Li48 N14 2.092266 1_555
Li48 N15 2.106609 1_555
Li48 N24 2.156518 1_545
Li48 N5 2.218022 1_545
Li49 N10 2.092266 1_555
Li49 N8 2.106609 1_555
Li49 N25 2.156518 1_554
Li49 N5 2.218022 1_554
Li50 N15 2.092266 1_555
Li50 N16 2.106609 1_555
Li50 N26 2.156518 1_455
Li50 N6 2.218022 1_455
Li51 N17 2.092266 1_555
Li51 N18 2.106609 1_555
Li51 N27 2.156518 1_565
Li51 N6 2.218022 1_565
Li52 N13 2.092266 1_555
Li52 N11 2.106609 1_555
Li52 N28 2.156518 1_554
Li52 N6 2.218022 1_554
Li53 N12 2.092266 1_555
Li53 N13 2.106609 1_555
Li53 N29 2.156518 1_655
Li53 N7 2.218022 1_655
Li54 N8 2.092266 1_555
Li54 N9 2.106609 1_555
Li54 N30 2.156518 1_565
Li54 N7 2.218022 1_565
Li55 N16 2.092266 1_555
Li55 N14 2.106609 1_555
Li55 N31 2.156518 1_556
Li55 N7 2.218022 1_556
N0 Ru0 1.931761 1_555
N1 Ru0 1.931761 1_555
N2 Ru0 1.931761 1_555
N3 Ru0 1.931761 1_555
N4 Ru1 1.931761 1_665
N5 Ru1 1.931761 1_566
N6 Ru1 1.931761 1_656
N7 Ru1 1.931761 1_555
N8 Ru2 1.955426 1_565
N9 Ru3 1.955426 1_555
N10 Ru4 1.955426 1_555
N11 Ru2 1.955426 1_555
N12 Ru5 1.955426 1_655
N13 Ru6 1.955426 1_555
N14 Ru7 1.955426 1_555
N15 Ru5 1.955426 1_555
N16 Ru4 1.955426 1_556
N17 Ru7 1.955426 1_565
N18 Ru3 1.955426 1_655
N19 Ru6 1.955426 1_556
N20 Ru3 1.955426 1_655
N21 Ru2 1.955426 1_565
N22 Ru6 1.955426 1_555
N23 Ru3 1.955426 1_555
N24 Ru7 1.955426 1_565
N25 Ru4 1.955426 1_556
N26 Ru5 1.955426 1_655
N27 Ru7 1.955426 1_555
N28 Ru6 1.955426 1_556
N29 Ru5 1.955426 1_555
N30 Ru2 1.955426 1_555
N31 Ru4 1.955426 1_555
