# generated using pymatgen
data_Ge3Te3Ir2
_symmetry_space_group_name_H-M   'P 1'
_cell_length_a   7.87825221
_cell_length_b   7.87825221
_cell_length_c   9.09613592
_cell_angle_alpha   55.00757063
_cell_angle_beta   55.00757063
_cell_angle_gamma   69.83828533
_symmetry_Int_Tables_number   1
_chemical_formula_structural   Ge3Te3Ir2
_chemical_formula_sum   'Ge6 Te6 Ir4'
_cell_volume   378.79621125
_cell_formula_units_Z   2
loop_
 _symmetry_equiv_pos_site_id
 _symmetry_equiv_pos_as_xyz
  1  'x, y, z'
loop_
 _atom_site_type_symbol
 _atom_site_label
 _atom_site_symmetry_multiplicity
 _atom_site_fract_x
 _atom_site_fract_y
 _atom_site_fract_z
 _atom_site_occupancy
  Ge  Ge0  1  0.49406600  0.20915100  0.64799500  1
  Ge  Ge1  1  0.50593400  0.79084900  0.35200500  1
  Ge  Ge2  1  0.79084900  0.50593400  0.35200500  1
  Ge  Ge3  1  0.20915100  0.49406600  0.64799500  1
  Ge  Ge4  1  0.83835000  0.83835000  0.48957200  1
  Ge  Ge5  1  0.16165000  0.16165000  0.51042800  1
  Te  Te0  1  0.85770900  0.85770900  0.78731000  1
  Te  Te1  1  0.14229100  0.14229100  0.21269000  1
  Te  Te2  1  0.67507200  0.32826900  0.83833800  1
  Te  Te3  1  0.32492800  0.67173100  0.16166200  1
  Te  Te4  1  0.32826900  0.67507200  0.83833800  1
  Te  Te5  1  0.67173100  0.32492800  0.16166200  1
  Ir  Ir0  1  0.50000000  0.00000000  0.50000000  1
  Ir  Ir1  1  0.50000000  0.00000000  0.00000000  1
  Ir  Ir2  1  0.00000000  0.50000000  0.50000000  1
  Ir  Ir3  1  0.00000000  0.50000000  0.00000000  1
loop_
_geom_bond_atom_site_label_1
_geom_bond_atom_site_label_2
_geom_bond_distance
_geom_bond_site_symmetry_2
Ge0 Ge3 2.569744 1_555
Ge0 Ir0 2.635957 1_555
Ge0 Ir1 2.652695 1_556
Ge0 Ge2 2.740605 1_555
Ge1 Ge2 2.569744 1_555
Ge1 Ir0 2.635957 1_565
Ge1 Ir1 2.652695 1_565
Ge1 Ge3 2.740605 1_555
Ge2 Ir2 2.635957 1_655
Ge2 Ir3 2.652695 1_655
Ge3 Ir2 2.635957 1_555
Ge3 Ir3 2.652695 1_556
Ge4 Ir0 2.498950 1_565
Ge4 Ir2 2.498950 1_655
Ge4 Te1 2.815913 1_665
Ge4 Te0 2.888727 1_555
Ge5 Ir2 2.498950 1_555
Ge5 Ir0 2.498950 1_555
Ge5 Te0 2.815913 1_445
Ge5 Te1 2.888727 1_555
Te2 Te5 2.910974 1_556
Te2 Te4 3.127933 1_555
Te3 Te4 2.910974 1_554
Te3 Te5 3.127933 1_555
Ir0 Te5 2.535920 1_555
Ir0 Te4 2.535920 1_545
Ir1 Te2 2.554210 1_554
Ir1 Te3 2.554210 1_545
Ir1 Te1 2.645346 1_555
Ir1 Te0 2.645346 1_544
Ir2 Te3 2.535920 1_555
Ir2 Te2 2.535920 1_455
Ir3 Te4 2.554210 1_554
Ir3 Te5 2.554210 1_455
Ir3 Te1 2.645346 1_555
Ir3 Te0 2.645346 1_454
