# generated using pymatgen
data_RbSi
_symmetry_space_group_name_H-M   'P 1'
_cell_length_a   10.97482996
_cell_length_b   10.97482996
_cell_length_c   11.83208391
_cell_angle_alpha   117.63092056
_cell_angle_beta   117.63092056
_cell_angle_gamma   90.00000000
_symmetry_Int_Tables_number   1
_chemical_formula_structural   RbSi
_chemical_formula_sum   'Rb16 Si16'
_cell_volume   1075.79205186
_cell_formula_units_Z   16
loop_
 _symmetry_equiv_pos_site_id
 _symmetry_equiv_pos_as_xyz
  1  'x, y, z'
loop_
 _atom_site_type_symbol
 _atom_site_label
 _atom_site_symmetry_multiplicity
 _atom_site_fract_x
 _atom_site_fract_y
 _atom_site_fract_z
 _atom_site_occupancy
  Rb  Rb0  1  0.25000000  0.39317484  0.00000000  1
  Rb  Rb1  1  0.25000000  0.89317484  0.00000000  1
  Rb  Rb2  1  0.10682516  0.75000000  0.50000000  1
  Rb  Rb3  1  0.89317484  0.25000000  0.50000000  1
  Rb  Rb4  1  0.75000000  0.60682516  -0.00000000  1
  Rb  Rb5  1  0.75000000  0.10682516  -0.00000000  1
  Rb  Rb6  1  0.60682516  0.75000000  0.50000000  1
  Rb  Rb7  1  0.39317484  0.25000000  0.50000000  1
  Rb  Rb8  1  0.75409471  0.24590529  0.75000000  1
  Rb  Rb9  1  0.49590529  0.74590529  0.75000000  1
  Rb  Rb10  1  0.00409471  0.99590529  0.25000000  1
  Rb  Rb11  1  0.74590529  0.49590529  0.25000000  1
  Rb  Rb12  1  0.24590529  0.75409471  0.25000000  1
  Rb  Rb13  1  0.50409471  0.25409471  0.25000000  1
  Rb  Rb14  1  0.99590529  0.00409471  0.75000000  1
  Rb  Rb15  1  0.25409471  0.50409471  0.75000000  1
  Si  Si0  1  0.26617146  0.48113529  0.34504017  1
  Si  Si1  1  0.57886970  0.98113529  0.34504017  1
  Si  Si2  1  0.36390587  0.07886970  0.84504017  1
  Si  Si3  1  0.98113529  0.57886970  0.84504017  1
  Si  Si4  1  0.73382854  0.51886471  0.65495983  1
  Si  Si5  1  0.42113030  0.01886471  0.65495983  1
  Si  Si6  1  0.63609413  0.92113030  0.15495983  1
  Si  Si7  1  0.01886471  0.42113030  0.15495983  1
  Si  Si8  1  0.76617146  0.86390587  0.34504017  1
  Si  Si9  1  0.07886970  0.36390587  0.34504017  1
  Si  Si10  1  0.86390587  0.76617146  0.84504017  1
  Si  Si11  1  0.48113529  0.26617146  0.84504017  1
  Si  Si12  1  0.23382854  0.13609413  0.65495983  1
  Si  Si13  1  0.92113030  0.63609413  0.65495983  1
  Si  Si14  1  0.13609413  0.23382854  0.15495983  1
  Si  Si15  1  0.51886471  0.73382854  0.15495983  1
loop_
_geom_bond_atom_site_label_1
_geom_bond_atom_site_label_2
_geom_bond_distance
_geom_bond_site_symmetry_2
Rb0 Si2 3.617014 1_554
Rb0 Si14 3.617022 1_555
Rb0 Si0 3.647321 1_555
Rb0 Si12 3.647323 1_554
Rb0 Si11 3.699022 1_554
Rb0 Si7 3.699024 1_555
Rb0 Si15 3.830084 1_555
Rb0 Si3 3.830092 1_454
Rb1 Si3 3.617008 1_454
Rb1 Si15 3.617016 1_555
Rb1 Si1 3.647326 1_555
Rb1 Si13 3.647328 1_454
Rb1 Si10 3.699012 1_454
Rb1 Si6 3.699014 1_555
Rb1 Si14 3.830090 1_565
Rb1 Si2 3.830099 1_564
Rb2 Si5 3.617008 1_565
Rb2 Si0 3.617016 1_555
Rb2 Si7 3.647326 1_555
Rb2 Si2 3.647328 1_565
Rb2 Si12 3.699012 1_565
Rb2 Si9 3.699014 1_555
Rb2 Si8 3.830090 1_455
Rb2 Si13 3.830099 1_455
Rb3 Si1 3.617008 1_545
Rb3 Si4 3.617016 1_555
Rb3 Si3 3.647326 1_555
Rb3 Si6 3.647328 1_545
Rb3 Si8 3.699012 1_545
Rb3 Si13 3.699014 1_555
Rb3 Si12 3.830090 1_655
Rb3 Si9 3.830099 1_655
Rb4 Si6 3.617014 1_555
Rb4 Si10 3.617022 1_554
Rb4 Si4 3.647321 1_554
Rb4 Si8 3.647323 1_555
Rb4 Si15 3.699022 1_555
Rb4 Si3 3.699024 1_554
Rb4 Si11 3.830084 1_554
Rb4 Si7 3.830092 1_655
Rb5 Si7 3.617008 1_655
Rb5 Si11 3.617016 1_554
Rb5 Si5 3.647326 1_554
Rb5 Si9 3.647328 1_655
Rb5 Si14 3.699012 1_655
Rb5 Si2 3.699014 1_554
Rb5 Si10 3.830090 1_544
Rb5 Si6 3.830099 1_545
Rb6 Si13 3.617014 1_555
Rb6 Si8 3.617022 1_555
Rb6 Si15 3.647321 1_555
Rb6 Si10 3.647323 1_555
Rb6 Si4 3.699022 1_555
Rb6 Si1 3.699024 1_555
Rb6 Si0 3.830084 1_555
Rb6 Si5 3.830092 1_565
Rb7 Si9 3.617014 1_555
Rb7 Si12 3.617022 1_555
Rb7 Si11 3.647321 1_555
Rb7 Si14 3.647323 1_555
Rb7 Si0 3.699022 1_555
Rb7 Si5 3.699024 1_555
Rb7 Si4 3.830084 1_555
Rb7 Si1 3.830092 1_545
Rb8 Si11 3.630536 1_555
Rb8 Si4 3.630536 1_555
Rb8 Si7 3.693138 1_656
Rb8 Si1 3.693138 1_545
Rb8 Si5 3.796856 1_555
Rb8 Si3 3.796856 1_555
Rb9 Si5 3.630537 1_565
Rb9 Si10 3.630547 1_555
Rb9 Si0 3.693137 1_555
Rb9 Si6 3.693140 1_556
Rb9 Si4 3.796848 1_555
Rb9 Si2 3.796851 1_565
Rb10 Si9 3.630548 1_565
Rb10 Si6 3.630548 1_455
Rb10 Si10 3.693139 1_454
Rb10 Si12 3.693139 1_565
Rb10 Si14 3.796842 1_565
Rb10 Si8 3.796842 1_455
Rb11 Si7 3.630537 1_655
Rb11 Si8 3.630547 1_555
Rb11 Si11 3.693137 1_554
Rb11 Si13 3.693140 1_555
Rb11 Si15 3.796848 1_555
Rb11 Si9 3.796851 1_655
Rb12 Si15 3.630536 1_555
Rb12 Si0 3.630536 1_555
Rb12 Si5 3.693138 1_565
Rb12 Si3 3.693138 1_454
Rb12 Si7 3.796856 1_555
Rb12 Si1 3.796856 1_555
Rb13 Si1 3.630537 1_545
Rb13 Si14 3.630547 1_555
Rb13 Si4 3.693137 1_555
Rb13 Si2 3.693140 1_554
Rb13 Si0 3.796848 1_555
Rb13 Si6 3.796851 1_545
Rb14 Si2 3.630548 1_655
Rb14 Si13 3.630548 1_545
Rb14 Si14 3.693139 1_656
Rb14 Si8 3.693139 1_545
Rb14 Si12 3.796842 1_655
Rb14 Si10 3.796842 1_545
Rb15 Si3 3.630537 1_455
Rb15 Si12 3.630547 1_555
Rb15 Si15 3.693137 1_556
Rb15 Si9 3.693140 1_555
Rb15 Si11 3.796848 1_555
Rb15 Si13 3.796851 1_455
Si0 Si7 2.413032 1_555
Si0 Si14 2.413035 1_555
Si0 Si9 2.425032 1_555
Si1 Si6 2.413017 1_555
Si1 Si15 2.413032 1_555
Si1 Si8 2.425032 1_555
Si2 Si5 2.413017 1_555
Si3 Si4 2.413032 1_555
Si6 Si8 2.413020 1_555
Si7 Si9 2.413017 1_555
Si10 Si13 2.413020 1_555
Si10 Si4 2.413035 1_555
Si10 Si3 2.425032 1_555
Si11 Si5 2.413032 1_555
Si11 Si12 2.413035 1_555
Si11 Si2 2.425032 1_555
Si12 Si2 2.413020 1_555
Si12 Si5 2.425032 1_555
Si13 Si3 2.413017 1_555
Si13 Si4 2.425032 1_555
Si14 Si9 2.413020 1_555
Si14 Si7 2.425032 1_555
Si15 Si8 2.413035 1_555
Si15 Si6 2.425032 1_555
