# generated using pymatgen
data_Li7Mn2(CoO4)3
_symmetry_space_group_name_H-M   'P 1'
_cell_length_a   2.92183300
_cell_length_b   5.13144800
_cell_length_c   14.42040437
_cell_angle_alpha   89.74362163
_cell_angle_beta   90.00000000
_cell_angle_gamma   90.00000000
_symmetry_Int_Tables_number   1
_chemical_formula_structural   Li7Mn2(CoO4)3
_chemical_formula_sum   'Li7 Mn2 Co3 O12'
_cell_volume   216.20633402
_cell_formula_units_Z   1
loop_
 _symmetry_equiv_pos_site_id
 _symmetry_equiv_pos_as_xyz
  1  'x, y, z'
loop_
 _atom_site_type_symbol
 _atom_site_label
 _atom_site_symmetry_multiplicity
 _atom_site_fract_x
 _atom_site_fract_y
 _atom_site_fract_z
 _atom_site_occupancy
  Li  Li0  1  0.50000000  0.82888200  0.83831300  1
  Li  Li1  1  0.00000000  0.67069600  0.66647000  1
  Li  Li2  1  0.50000000  0.50000000  0.50000000  1
  Li  Li3  1  0.00000000  0.32930400  0.33353000  1
  Li  Li4  1  0.00000000  0.00000000  0.00000000  1
  Li  Li5  1  0.50000000  0.17111800  0.16168700  1
  Li  Li6  1  0.50000000  0.50000000  0.00000000  1
  Mn  Mn0  1  0.00000000  0.34488000  0.83852500  1
  Mn  Mn1  1  0.00000000  0.65512000  0.16147500  1
  Co  Co0  1  0.50000000  0.16917200  0.66723900  1
  Co  Co1  1  0.00000000  0.00000000  0.50000000  1
  Co  Co2  1  0.50000000  0.83082800  0.33276100  1
  O  O0  1  0.50000000  0.18179800  0.90648300  1
  O  O1  1  0.00000000  0.03427200  0.74747100  1
  O  O2  1  0.50000000  0.85063500  0.58021700  1
  O  O3  1  0.00000000  0.67954000  0.41303800  1
  O  O4  1  0.00000000  0.36098500  0.09191000  1
  O  O5  1  0.50000000  0.51871000  0.24264900  1
  O  O6  1  0.50000000  0.48129000  0.75735100  1
  O  O7  1  0.00000000  0.32046000  0.58696200  1
  O  O8  1  0.50000000  0.14936500  0.41978300  1
  O  O9  1  0.00000000  0.96572800  0.25252900  1
  O  O10  1  0.00000000  0.63901500  0.90809000  1
  O  O11  1  0.50000000  0.81820200  0.09351700  1
loop_
_geom_bond_atom_site_label_1
_geom_bond_atom_site_label_2
_geom_bond_distance
_geom_bond_site_symmetry_2
Li0 O10 2.021686 1_555
Li0 O10 2.021686 1_655
Li0 O0 2.064439 1_565
Li0 O6 2.136144 1_555
Li0 O1 2.224583 1_565
Li0 O1 2.224583 1_665
Li1 O2 2.126879 1_555
Li1 O2 2.126879 1_455
Li1 O7 2.136113 1_555
Li1 O6 2.187473 1_555
Li1 O6 2.187473 1_455
Li1 O1 2.205587 1_565
Li2 O7 2.131975 1_655
Li2 O7 2.131975 1_555
Li2 O3 2.131975 1_555
Li2 O3 2.131975 1_655
Li2 O2 2.143380 1_555
Li2 O8 2.143380 1_555
Li3 O8 2.126879 1_555
Li3 O8 2.126879 1_455
Li3 O3 2.136113 1_555
Li3 O5 2.187473 1_555
Li3 O5 2.187473 1_455
Li3 O9 2.205587 1_545
Li4 O11 2.193602 1_445
Li4 O11 2.193602 1_545
Li4 O0 2.193602 1_554
Li4 O0 2.193602 1_454
Li4 O10 2.282520 1_544
Li4 O4 2.282520 1_555
Li5 O4 2.021686 1_555
Li5 O4 2.021686 1_655
Li5 O11 2.064439 1_545
Li5 O5 2.136144 1_555
Li5 O9 2.224583 1_545
Li5 O9 2.224583 1_645
Li6 O10 2.095546 1_554
Li6 O10 2.095546 1_654
Li6 O4 2.095546 1_655
Li6 O4 2.095546 1_555
Li6 O11 2.122371 1_555
Li6 O0 2.122371 1_554
Mn0 O10 1.816032 1_555
Mn0 O0 1.946180 1_455
Mn0 O0 1.946180 1_555
Mn0 O6 1.996781 1_555
Mn0 O6 1.996781 1_455
Mn0 O1 2.069592 1_555
Mn1 O4 1.816032 1_555
Mn1 O11 1.946180 1_555
Mn1 O11 1.946180 1_455
Mn1 O5 1.996781 1_555
Mn1 O5 1.996781 1_455
Mn1 O9 2.069592 1_555
Co0 O1 1.986175 1_655
Co0 O1 1.986175 1_555
Co0 O7 2.017180 1_655
Co0 O7 2.017180 1_555
Co0 O2 2.065160 1_545
Co0 O6 2.066973 1_555
Co1 O2 2.012933 1_545
Co1 O2 2.012933 1_445
Co1 O8 2.012933 1_455
Co1 O8 2.012933 1_555
Co1 O7 2.072479 1_555
Co1 O3 2.072479 1_545
Co2 O9 1.986175 1_555
Co2 O9 1.986175 1_655
Co2 O3 2.017180 1_555
Co2 O3 2.017180 1_655
Co2 O8 2.065160 1_565
Co2 O5 2.066973 1_555
