# generated using pymatgen
data_Cu6SbAs
_symmetry_space_group_name_H-M   'P 1'
_cell_length_a   7.69835606
_cell_length_b   7.69835606
_cell_length_c   7.72139800
_cell_angle_alpha   90.00000000
_cell_angle_beta   90.00000000
_cell_angle_gamma   90.28870218
_symmetry_Int_Tables_number   1
_chemical_formula_structural   Cu6SbAs
_chemical_formula_sum   'Cu24 Sb4 As4'
_cell_volume   457.60041933
_cell_formula_units_Z   4
loop_
 _symmetry_equiv_pos_site_id
 _symmetry_equiv_pos_as_xyz
  1  'x, y, z'
loop_
 _atom_site_type_symbol
 _atom_site_label
 _atom_site_symmetry_multiplicity
 _atom_site_fract_x
 _atom_site_fract_y
 _atom_site_fract_z
 _atom_site_occupancy
  Cu  Cu0  1  0.50341300  0.83811800  0.54486500  1
  Cu  Cu1  1  0.79183300  0.99689700  0.42019000  1
  Cu  Cu2  1  0.67210500  0.71065500  0.25000000  1
  Cu  Cu3  1  0.50358500  0.16185100  0.95480600  1
  Cu  Cu4  1  0.20529500  0.99660700  0.08811600  1
  Cu  Cu5  1  0.33658300  0.29211600  0.25000000  1
  Cu  Cu6  1  0.50358500  0.16185100  0.54519400  1
  Cu  Cu7  1  0.20529500  0.99660700  0.41188400  1
  Cu  Cu8  1  0.50341300  0.83811800  0.95513500  1
  Cu  Cu9  1  0.79183300  0.99689700  0.07981000  1
  Cu  Cu10  1  0.66336000  0.29206800  0.25000000  1
  Cu  Cu11  1  0.32811200  0.71015200  0.25000000  1
  Cu  Cu12  1  0.83811800  0.50341300  0.04486500  1
  Cu  Cu13  1  0.99689700  0.79183300  0.92019000  1
  Cu  Cu14  1  0.71065500  0.67210500  0.75000000  1
  Cu  Cu15  1  0.16185100  0.50358500  0.45480600  1
  Cu  Cu16  1  0.99660700  0.20529500  0.58811600  1
  Cu  Cu17  1  0.29211600  0.33658300  0.75000000  1
  Cu  Cu18  1  0.16185100  0.50358500  0.04519400  1
  Cu  Cu19  1  0.99660700  0.20529500  0.91188400  1
  Cu  Cu20  1  0.83811800  0.50341300  0.45513500  1
  Cu  Cu21  1  0.99689700  0.79183300  0.57981000  1
  Cu  Cu22  1  0.29206800  0.66336000  0.75000000  1
  Cu  Cu23  1  0.71015200  0.32811200  0.75000000  1
  Sb  Sb0  1  0.50023800  0.50023800  0.50000000  1
  Sb  Sb1  1  0.24885100  0.99969500  0.75000000  1
  Sb  Sb2  1  0.99969500  0.24885100  0.25000000  1
  Sb  Sb3  1  0.50023800  0.50023800  0.00000000  1
  As  As0  1  0.50087900  0.99876500  0.25000000  1
  As  As1  1  0.99876500  0.50087900  0.75000000  1
  As  As2  1  0.74995200  0.00103900  0.75000000  1
  As  As3  1  0.00103900  0.74995200  0.25000000  1
loop_
_geom_bond_atom_site_label_1
_geom_bond_atom_site_label_2
_geom_bond_distance
_geom_bond_site_symmetry_2
Cu0 Cu6 2.492207 1_565
Cu0 Cu14 2.590001 1_555
Cu0 Sb0 2.624079 1_555
Cu0 Cu22 2.635127 1_555
Cu0 Cu1 2.706193 1_555
Cu0 Cu7 2.799697 1_555
Cu0 Cu2 2.801050 1_555
Cu0 Sb1 2.814442 1_555
Cu0 Cu11 2.821700 1_555
Cu1 Cu21 2.555084 1_555
Cu1 Cu16 2.591275 1_565
Cu1 Cu9 2.628209 1_555
Cu1 Cu2 2.722457 1_555
Cu1 Cu6 2.738014 1_565
Cu1 Cu10 2.809127 1_565
Cu1 Sb2 2.831676 1_565
Cu2 Cu20 2.590001 1_555
Cu2 Cu9 2.722457 1_555
Cu2 Cu8 2.801050 1_554
Cu2 Sb3 2.842391 1_555
Cu2 Sb0 2.842391 1_555
Cu3 Cu8 2.492207 1_545
Cu3 Sb3 2.628548 1_556
Cu3 Cu9 2.738014 1_546
Cu3 Cu5 2.804778 1_556
Cu3 Sb1 2.807153 1_545
Cu3 Cu4 2.814524 1_546
Cu4 Cu7 2.499942 1_555
Cu4 Sb1 2.632265 1_554
Cu4 Cu5 2.781384 1_565
Cu4 Cu8 2.799697 1_554
Cu4 Sb2 2.805252 1_465
Cu5 Sb2 2.613118 1_455
Cu5 Cu7 2.781384 1_545
Cu5 Sb3 2.803610 1_555
Cu5 Sb0 2.803610 1_555
Cu5 Cu6 2.804778 1_555
Cu6 Sb0 2.628548 1_555
Cu6 Sb1 2.807153 1_545
Cu6 Cu7 2.814524 1_545
Cu7 Sb1 2.632265 1_555
Cu7 Sb2 2.805252 1_465
Cu8 Sb3 2.624079 1_556
Cu8 Cu9 2.706193 1_556
Cu8 Sb1 2.814442 1_555
Cu9 Sb2 2.831676 1_565
Cu10 Cu5 2.515648 1_555
Cu10 Sb2 2.612176 1_555
Cu10 Cu20 2.635127 1_555
Cu10 Cu12 2.635127 1_555
Cu10 Cu6 2.775007 1_555
Cu10 Cu3 2.775007 1_554
Cu10 Cu9 2.809127 1_545
Cu10 Sb0 2.809219 1_555
Cu10 Sb3 2.809219 1_555
Cu11 Cu15 2.578243 1_555
Cu11 Cu18 2.578243 1_555
Cu11 Cu2 2.648164 1_555
Cu11 Cu7 2.709324 1_555
Cu11 Cu4 2.709324 1_555
Cu11 Cu8 2.821700 1_554
Cu11 Sb3 2.848704 1_555
Cu11 Sb0 2.848704 1_555
Cu12 Cu18 2.492207 1_655
Cu12 Cu2 2.590001 1_555
Cu12 Sb3 2.624079 1_555
Cu12 Cu13 2.706193 1_554
Cu12 Cu19 2.799697 1_554
Cu12 Cu14 2.801050 1_554
Cu12 Sb2 2.814442 1_555
Cu12 Cu23 2.821700 1_554
Cu13 Cu9 2.555084 1_556
Cu13 Cu4 2.591275 1_656
Cu13 Cu21 2.628209 1_555
Cu13 Cu14 2.722457 1_555
Cu13 Cu18 2.738014 1_656
Cu13 Cu22 2.809127 1_655
Cu13 Sb1 2.831676 1_655
Cu14 Cu8 2.590001 1_555
Cu14 Cu23 2.648164 1_555
Cu14 Cu21 2.722457 1_555
Cu14 Cu20 2.801050 1_555
Cu14 Sb0 2.842391 1_555
Cu14 Sb3 2.842391 1_556
Cu15 Cu20 2.492207 1_455
Cu15 Sb0 2.628548 1_555
Cu15 Cu5 2.642452 1_555
Cu15 Cu21 2.738014 1_455
Cu15 Cu22 2.775007 1_555
Cu15 Cu17 2.804778 1_555
Cu15 Sb2 2.807153 1_455
Cu15 Cu16 2.814524 1_455
Cu16 Cu19 2.499942 1_555
Cu16 Sb2 2.632265 1_555
Cu16 Cu7 2.653244 1_645
Cu16 Cu23 2.709324 1_555
Cu16 Cu17 2.781384 1_655
Cu16 Cu20 2.799697 1_555
Cu16 Sb1 2.805252 1_645
Cu17 Cu22 2.515648 1_555
Cu17 Sb1 2.613118 1_545
Cu17 Cu3 2.642452 1_555
Cu17 Cu6 2.642452 1_555
Cu17 Cu19 2.781384 1_455
Cu17 Sb3 2.803610 1_556
Cu17 Sb0 2.803610 1_555
Cu17 Cu18 2.804778 1_556
Cu18 Sb3 2.628548 1_555
Cu18 Cu5 2.642452 1_555
Cu18 Cu22 2.775007 1_554
Cu18 Sb2 2.807153 1_455
Cu18 Cu19 2.814524 1_454
Cu19 Cu9 2.591275 1_546
Cu19 Sb2 2.632265 1_556
Cu19 Cu4 2.653244 1_646
Cu19 Cu23 2.709324 1_555
Cu19 Sb1 2.805252 1_645
Cu20 Sb0 2.624079 1_555
Cu20 Cu21 2.706193 1_555
Cu20 Sb2 2.814442 1_555
Cu20 Cu23 2.821700 1_555
Cu21 Cu7 2.591275 1_655
Cu21 Cu22 2.809127 1_655
Cu21 Sb1 2.831676 1_655
Cu22 Sb1 2.612176 1_555
Cu22 Cu8 2.635127 1_555
Cu22 Sb0 2.809219 1_555
Cu22 Sb3 2.809219 1_556
Cu23 Cu3 2.578243 1_555
Cu23 Cu6 2.578243 1_555
Cu23 Sb3 2.848704 1_556
Cu23 Sb0 2.848704 1_555
As0 Cu10 2.575747 1_565
As0 Cu11 2.583752 1_555
As0 Cu2 2.585810 1_555
As0 Cu0 2.591096 1_555
As0 Cu8 2.591096 1_554
As0 Cu5 2.593943 1_565
As0 Cu4 2.596203 1_555
As0 Cu7 2.596203 1_555
As0 Cu9 2.597000 1_555
As0 Cu1 2.597000 1_555
As0 Cu6 2.602247 1_565
As0 Cu3 2.602247 1_564
As1 Cu22 2.575747 1_655
As1 Cu23 2.583752 1_555
As1 Cu14 2.585810 1_555
As1 Cu12 2.591096 1_556
As1 Cu20 2.591096 1_555
As1 Cu17 2.593943 1_655
As1 Cu19 2.596203 1_555
As1 Cu16 2.596203 1_555
As1 Cu21 2.597000 1_555
As1 Cu13 2.597000 1_555
As1 Cu18 2.602247 1_656
As1 Cu15 2.602247 1_655
As2 Cu23 2.538030 1_555
As2 Cu14 2.548744 1_545
As2 Cu9 2.567141 1_546
As2 Cu1 2.567141 1_545
As2 Cu19 2.758709 1_555
As2 Cu16 2.758709 1_555
As2 Cu3 2.766629 1_555
As2 Cu6 2.766629 1_555
As2 Cu8 2.767691 1_545
As2 Cu0 2.767691 1_545
As2 Cu21 2.822347 1_545
As2 Cu13 2.822347 1_545
As3 Cu11 2.538030 1_555
As3 Cu2 2.548744 1_455
As3 Cu13 2.567141 1_454
As3 Cu21 2.567141 1_455
As3 Cu7 2.758709 1_555
As3 Cu4 2.758709 1_555
As3 Cu15 2.766629 1_555
As3 Cu18 2.766629 1_555
As3 Cu20 2.767691 1_455
As3 Cu12 2.767691 1_455
As3 Cu1 2.822347 1_455
As3 Cu9 2.822347 1_455
