# generated using pymatgen
data_ScPRu
_symmetry_space_group_name_H-M   'P 1'
_cell_length_a   6.54353532
_cell_length_b   6.54353582
_cell_length_c   3.62777384
_cell_angle_alpha   90.00000000
_cell_angle_beta   90.00000000
_cell_angle_gamma   119.99999749
_symmetry_Int_Tables_number   1
_chemical_formula_structural   ScPRu
_chemical_formula_sum   'Sc3 P3 Ru3'
_cell_volume   134.52276405
_cell_formula_units_Z   3
loop_
 _symmetry_equiv_pos_site_id
 _symmetry_equiv_pos_as_xyz
  1  'x, y, z'
loop_
 _atom_site_type_symbol
 _atom_site_label
 _atom_site_symmetry_multiplicity
 _atom_site_fract_x
 _atom_site_fract_y
 _atom_site_fract_z
 _atom_site_occupancy
  Sc  Sc0  1  0.41054246  0.41054246  0.50000000  1
  Sc  Sc1  1  0.58945754  0.00000000  0.50000000  1
  Sc  Sc2  1  0.00000000  0.58945754  0.50000000  1
  P  P0  1  0.66666700  0.33333300  -0.00000000  1
  P  P1  1  0.33333300  0.66666700  -0.00000000  1
  P  P2  1  -0.00000000  0.00000000  0.50000000  1
  Ru  Ru0  1  -0.00000000  0.24343889  0.00000000  1
  Ru  Ru1  1  0.24343889  0.00000000  -0.00000000  1
  Ru  Ru2  1  0.75656111  0.75656111  0.00000000  1
loop_
_geom_bond_atom_site_label_1
_geom_bond_atom_site_label_2
_geom_bond_distance
_geom_bond_site_symmetry_2
P0 Ru0 2.527165 1_655
P0 Ru1 2.527169 1_555
P0 Ru2 2.527171 1_555
P0 Sc1 2.683465 1_554
P0 Sc1 2.683465 1_555
P0 Sc2 2.683467 1_654
P0 Sc2 2.683467 1_655
P0 Sc0 2.683470 1_554
P0 Sc0 2.683470 1_555
P1 Ru1 2.527165 1_565
P1 Ru0 2.527169 1_555
P1 Ru2 2.527171 1_555
P1 Sc2 2.683465 1_554
P1 Sc2 2.683465 1_555
P1 Sc1 2.683467 1_565
P1 Sc1 2.683467 1_564
P1 Sc0 2.683470 1_555
P1 Sc0 2.683470 1_554
P2 Ru1 2.414059 1_555
P2 Ru1 2.414059 1_556
P2 Ru2 2.414059 1_445
P2 Ru0 2.414059 1_556
P2 Ru0 2.414059 1_555
P2 Ru2 2.414059 1_446
P2 Sc1 2.686399 1_455
P2 Sc0 2.686399 1_555
P2 Sc2 2.686399 1_545
Ru0 Ru1 2.759072 1_555
Ru0 Ru2 2.759072 1_445
Ru0 Sc2 2.901159 1_554
Ru0 Sc2 2.901159 1_555
Ru0 Sc0 2.960594 1_555
Ru0 Sc0 2.960594 1_554
Ru0 Sc1 2.960594 1_455
Ru0 Sc1 2.960594 1_454
Ru1 Ru2 2.759072 1_445
Ru1 Sc1 2.901158 1_554
Ru1 Sc1 2.901158 1_555
Ru1 Sc0 2.960594 1_555
Ru1 Sc0 2.960594 1_554
Ru1 Sc2 2.960594 1_545
Ru1 Sc2 2.960594 1_544
Ru2 Sc0 2.901159 1_555
Ru2 Sc0 2.901159 1_554
Ru2 Sc2 2.960594 1_655
Ru2 Sc2 2.960594 1_654
Ru2 Sc1 2.960594 1_565
Ru2 Sc1 2.960594 1_564
