# generated using pymatgen
data_Zn(WO2)2
_symmetry_space_group_name_H-M   'P 1'
_cell_length_a   6.28439019
_cell_length_b   6.28439019
_cell_length_c   6.28438995
_cell_angle_alpha   62.48061641
_cell_angle_beta   62.48061641
_cell_angle_gamma   62.48062216
_symmetry_Int_Tables_number   1
_chemical_formula_structural   Zn(WO2)2
_chemical_formula_sum   'Zn2 W4 O8'
_cell_volume   185.20211080
_cell_formula_units_Z   2
loop_
 _symmetry_equiv_pos_site_id
 _symmetry_equiv_pos_as_xyz
  1  'x, y, z'
loop_
 _atom_site_type_symbol
 _atom_site_label
 _atom_site_symmetry_multiplicity
 _atom_site_fract_x
 _atom_site_fract_y
 _atom_site_fract_z
 _atom_site_occupancy
  Zn  Zn0  1  0.00607800  0.00607800  0.00607800  1
  Zn  Zn1  1  0.63158800  0.63158800  0.63158800  1
  W  W0  1  0.22036400  0.22036400  0.22036400  1
  W  W1  1  0.62420000  0.12384400  0.62420000  1
  W  W2  1  0.62420000  0.62420000  0.12384400  1
  W  W3  1  0.12384400  0.62420000  0.62420000  1
  O  O0  1  0.85076000  0.38786200  0.38786200  1
  O  O1  1  0.38786200  0.38786200  0.85076000  1
  O  O2  1  0.38786200  0.85076000  0.38786200  1
  O  O3  1  0.38665300  0.38665300  0.38665300  1
  O  O4  1  0.86831400  0.86831400  0.86831400  1
  O  O5  1  0.86875900  0.40075700  0.86875900  1
  O  O6  1  0.86875900  0.86875900  0.40075700  1
  O  O7  1  0.40075700  0.86875900  0.86875900  1
loop_
_geom_bond_atom_site_label_1
_geom_bond_atom_site_label_2
_geom_bond_distance
_geom_bond_site_symmetry_2
O0 W0 2.028860 1_655
O0 Zn1 2.204092 1_555
O0 W1 2.222084 1_555
O0 W2 2.222085 1_555
O1 W0 2.028860 1_556
O1 Zn1 2.204092 1_555
O1 W1 2.222085 1_555
O1 W3 2.222085 1_555
O2 W0 2.028860 1_565
O2 Zn1 2.204092 1_555
O2 W3 2.222084 1_555
O2 W2 2.222085 1_555
O3 W2 2.165056 1_555
O3 W1 2.165056 1_555
O3 W3 2.165056 1_555
O3 W0 2.510735 1_555
O4 Zn0 2.080046 1_666
O4 W2 2.215279 1_556
O4 W3 2.215280 1_655
O4 W1 2.215280 1_565
O5 Zn0 2.091327 1_656
O5 Zn1 2.145746 1_555
O5 W3 2.170885 1_655
O5 W2 2.170885 1_556
O6 Zn0 2.091327 1_665
O6 Zn1 2.145745 1_555
O6 W3 2.170885 1_655
O6 W1 2.170885 1_565
O7 Zn0 2.091327 1_566
O7 Zn1 2.145746 1_555
O7 W1 2.170885 1_565
O7 W2 2.170885 1_556
