# generated using pymatgen
data_NaVZnP2O9
_symmetry_space_group_name_H-M   'P 1'
_cell_length_a   8.93640500
_cell_length_b   8.70720800
_cell_length_c   9.09180999
_cell_angle_alpha   87.34520190
_cell_angle_beta   90.00000000
_cell_angle_gamma   90.00000000
_symmetry_Int_Tables_number   1
_chemical_formula_structural   NaVZnP2O9
_chemical_formula_sum   'Na4 V4 Zn4 P8 O36'
_cell_volume   706.68479339
_cell_formula_units_Z   4
loop_
 _symmetry_equiv_pos_site_id
 _symmetry_equiv_pos_as_xyz
  1  'x, y, z'
loop_
 _atom_site_type_symbol
 _atom_site_label
 _atom_site_symmetry_multiplicity
 _atom_site_fract_x
 _atom_site_fract_y
 _atom_site_fract_z
 _atom_site_occupancy
  Na  Na0  1  0.53957600  0.18400900  0.96671600  1
  Na  Na1  1  0.03957600  0.81599100  0.53328400  1
  Na  Na2  1  0.46042400  0.81599100  0.03328400  1
  Na  Na3  1  0.96042400  0.18400900  0.46671600  1
  V  V0  1  0.50402500  0.42159400  0.25038300  1
  V  V1  1  0.00402500  0.57840600  0.24961700  1
  V  V2  1  0.49597500  0.57840600  0.74961700  1
  V  V3  1  0.99597500  0.42159400  0.75038300  1
  Zn  Zn0  1  0.85535100  0.91002400  0.09141500  1
  Zn  Zn1  1  0.35535100  0.08997600  0.40858500  1
  Zn  Zn2  1  0.14464900  0.08997600  0.90858500  1
  Zn  Zn3  1  0.64464900  0.91002400  0.59141500  1
  P  P0  1  0.75041200  0.51726700  0.50294500  1
  P  P1  1  0.25041200  0.48273300  0.99705500  1
  P  P2  1  0.24958800  0.48273300  0.49705500  1
  P  P3  1  0.74958800  0.51726700  0.00294500  1
  P  P4  1  0.63993500  0.04287400  0.27704900  1
  P  P5  1  0.13993500  0.95712600  0.22295100  1
  P  P6  1  0.36006500  0.95712600  0.72295100  1
  P  P7  1  0.86006500  0.04287400  0.77704900  1
  O  O0  1  0.57384500  0.92083700  0.39016400  1
  O  O1  1  0.07384500  0.07916300  0.10983600  1
  O  O2  1  0.42615500  0.07916300  0.60983600  1
  O  O3  1  0.92615500  0.92083700  0.89016400  1
  O  O4  1  0.51149000  0.17284800  0.26465500  1
  O  O5  1  0.01149000  0.82715200  0.23534500  1
  O  O6  1  0.48851000  0.82715200  0.73534500  1
  O  O7  1  0.98851000  0.17284800  0.76465500  1
  O  O8  1  0.64669100  0.42050400  0.40714400  1
  O  O9  1  0.14669100  0.57949600  0.09285600  1
  O  O10  1  0.35330900  0.57949600  0.59285600  1
  O  O11  1  0.85330900  0.42050400  0.90714400  1
  O  O12  1  0.65714300  0.39880400  0.09989500  1
  O  O13  1  0.15714300  0.60119600  0.40010500  1
  O  O14  1  0.34285700  0.60119600  0.90010500  1
  O  O15  1  0.84285700  0.39880400  0.59989500  1
  O  O16  1  0.35419400  0.37626700  0.09236000  1
  O  O17  1  0.85419400  0.62373300  0.40764000  1
  O  O18  1  0.64580600  0.62373300  0.90764000  1
  O  O19  1  0.14580600  0.37626700  0.59236000  1
  O  O20  1  0.48668600  0.60581700  0.22758200  1
  O  O21  1  0.98668600  0.39418300  0.27241800  1
  O  O22  1  0.51331400  0.39418300  0.77241800  1
  O  O23  1  0.01331400  0.60581700  0.72758200  1
  O  O24  1  0.64736400  0.96830200  0.12274300  1
  O  O25  1  0.14736400  0.03169800  0.37725700  1
  O  O26  1  0.35263600  0.03169800  0.87725700  1
  O  O27  1  0.85263600  0.96830200  0.62274300  1
  O  O28  1  0.34191200  0.37776300  0.39627700  1
  O  O29  1  0.84191200  0.62223700  0.10372300  1
  O  O30  1  0.65808800  0.62223700  0.60372300  1
  O  O31  1  0.15808800  0.37776300  0.89627700  1
  O  O32  1  0.78966300  0.10683400  0.31432600  1
  O  O33  1  0.28966300  0.89316600  0.18567400  1
  O  O34  1  0.21033700  0.89316600  0.68567400  1
  O  O35  1  0.71033700  0.10683400  0.81432600  1
loop_
_geom_bond_atom_site_label_1
_geom_bond_atom_site_label_2
_geom_bond_distance
_geom_bond_site_symmetry_2
Na0 O35 2.187706 1_555
Na0 O26 2.304578 1_555
Na0 O24 2.494193 1_546
Na0 O22 2.495036 1_555
Na0 O12 2.505518 1_556
Na0 O16 2.651213 1_556
Na0 O4 2.717660 1_556
Na1 O34 2.187706 1_555
Na1 O27 2.304578 1_455
Na1 O25 2.494193 1_565
Na1 O23 2.495036 1_555
Na1 O13 2.505518 1_555
Na1 O17 2.651213 1_455
Na1 O5 2.717660 1_555
Na2 O33 2.187706 1_555
Na2 O24 2.304578 1_555
Na2 O26 2.494193 1_564
Na2 O20 2.495036 1_555
Na2 O14 2.505518 1_554
Na2 O18 2.651213 1_554
Na2 O6 2.717660 1_554
Na3 O32 2.187706 1_555
Na3 O25 2.304578 1_655
Na3 O27 2.494193 1_545
Na3 O21 2.495036 1_555
Na3 O15 2.505518 1_555
Na3 O19 2.651213 1_655
Na3 O7 2.717660 1_555
O0 P4 1.560241 1_565
O0 Zn3 1.934216 1_555
O0 Zn1 2.456071 1_565
O1 P5 1.560241 1_545
O1 Zn2 1.934216 1_554
O1 Zn0 2.456071 1_445
O2 P6 1.560241 1_545
O2 Zn1 1.934216 1_555
O2 Zn3 2.456071 1_545
O3 P7 1.560241 1_565
O3 Zn0 1.934216 1_556
O3 Zn2 2.456071 1_665
O4 P4 1.612198 1_555
O4 Zn1 2.022999 1_555
O4 V0 2.164787 1_555
O5 P5 1.612198 1_555
O5 Zn0 2.022999 1_455
O5 V1 2.164787 1_555
O6 P6 1.612198 1_555
O6 Zn3 2.022999 1_555
O6 V2 2.164787 1_555
O7 P7 1.612198 1_555
O7 Zn2 2.022999 1_655
O7 V3 2.164787 1_555
O8 P0 1.547781 1_555
O8 V0 1.911955 1_555
O9 P1 1.547781 1_554
O9 V1 1.911955 1_555
O10 P2 1.547781 1_555
O10 V2 1.911955 1_555
O11 P3 1.547781 1_556
O11 V3 1.911955 1_555
O12 P3 1.561784 1_555
O12 V0 1.951624 1_555
O13 P2 1.561784 1_555
O13 V1 1.951624 1_555
O14 P1 1.561784 1_555
O14 V2 1.951624 1_555
O15 P0 1.561784 1_555
O15 V3 1.951624 1_555
O16 P1 1.547874 1_554
O16 V0 2.016242 1_555
O17 P0 1.547874 1_555
O17 V1 2.016242 1_655
O18 P3 1.547874 1_556
O18 V2 2.016242 1_555
O19 P2 1.547874 1_555
O19 V3 2.016242 1_455
O20 V0 1.615306 1_555
O21 V1 1.615306 1_655
O22 V2 1.615306 1_555
O23 V3 1.615306 1_455
O24 P4 1.574354 1_565
O24 Zn0 1.951054 1_555
O25 P5 1.574354 1_545
O25 Zn1 1.951054 1_555
O26 P6 1.574354 1_545
O26 Zn2 1.951054 1_555
O27 P7 1.574354 1_565
O27 Zn3 1.951054 1_555
O28 P2 1.559868 1_555
O28 V0 1.989210 1_555
O28 Zn1 2.506015 1_555
O29 P3 1.559868 1_555
O29 V1 1.989210 1_655
O29 Zn0 2.506015 1_555
O30 P0 1.559868 1_555
O30 V2 1.989210 1_555
O30 Zn3 2.506015 1_555
O31 P1 1.559868 1_555
O31 V3 1.989210 1_455
O31 Zn2 2.506015 1_555
O32 P4 1.494264 1_555
O33 P5 1.494264 1_555
O34 P6 1.494264 1_555
O35 P7 1.494264 1_555
