# generated using pymatgen
data_SmMg3Ni8
_symmetry_space_group_name_H-M   'P 1'
_cell_length_a   4.84437762
_cell_length_b   4.84388368
_cell_length_c   8.46323524
_cell_angle_alpha   73.37699386
_cell_angle_beta   90.00917221
_cell_angle_gamma   119.99594031
_symmetry_Int_Tables_number   1
_chemical_formula_structural   SmMg3Ni8
_chemical_formula_sum   'Sm1 Mg3 Ni8'
_cell_volume   162.34684644
_cell_formula_units_Z   1
loop_
 _symmetry_equiv_pos_site_id
 _symmetry_equiv_pos_as_xyz
  1  'x, y, z'
loop_
 _atom_site_type_symbol
 _atom_site_label
 _atom_site_symmetry_multiplicity
 _atom_site_fract_x
 _atom_site_fract_y
 _atom_site_fract_z
 _atom_site_occupancy
  Sm  Sm0  1  0.99929325  0.99860803  0.00309464  1
  Mg  Mg0  1  0.50075893  0.00173237  0.49537822  1
  Mg  Mg1  1  0.87016558  0.74051704  0.38752944  1
  Mg  Mg2  1  0.38286426  0.76557589  0.85153126  1
  Ni  Ni0  1  0.43538046  0.36919458  0.19651560  1
  Ni  Ni1  1  0.93720150  0.38051493  0.68243152  1
  Ni  Ni2  1  0.43518907  0.87041004  0.19674953  1
  Ni  Ni3  1  0.93725924  0.87440051  0.68237658  1
  Ni  Ni4  1  0.18629403  0.37252139  0.43955663  1
  Ni  Ni5  1  0.68839721  0.37685318  0.93585795  1
  Ni  Ni6  1  0.93368522  0.36907584  0.19660567  1
  Ni  Ni7  1  0.44351225  0.38059818  0.68237296  1
loop_
_geom_bond_atom_site_label_1
_geom_bond_atom_site_label_2
_geom_bond_distance
_geom_bond_site_symmetry_2
Mg0 Ni2 2.758740 1_545
Mg0 Ni0 2.766524 1_555
Mg0 Ni6 2.766675 1_555
Mg0 Ni4 2.830951 1_545
Mg0 Ni4 2.831921 1_555
Mg0 Ni4 2.833560 1_655
Mg0 Ni7 2.841713 1_545
Mg0 Ni1 2.841828 1_445
Mg0 Mg2 2.845123 1_545
Mg0 Ni3 2.845404 1_445
Mg0 Ni3 2.846226 1_545
Mg0 Ni7 2.849575 1_555
Mg0 Ni1 2.850399 1_555
Mg0 Mg1 2.925948 1_445
Mg0 Mg1 2.926069 1_545
Mg0 Mg1 2.927508 1_555
Mg1 Ni7 2.729054 1_555
Mg1 Ni1 2.729711 1_555
Mg1 Ni3 2.732749 1_555
Mg1 Ni4 2.827284 1_555
Mg1 Ni4 2.827437 1_665
Mg1 Ni4 2.827868 1_655
Mg1 Ni0 2.856469 1_555
Mg1 Ni6 2.856551 1_555
Mg1 Ni2 2.861194 1_555
Mg1 Ni2 2.862383 1_655
Mg1 Ni6 2.867789 1_565
Mg1 Ni0 2.869100 1_665
Mg1 Sm0 3.071058 1_555
Mg2 Ni1 2.772735 1_455
Mg2 Ni7 2.772850 1_555
Mg2 Ni3 2.773490 1_455
Mg2 Ni3 2.773848 1_555
Mg2 Ni7 2.774111 1_565
Mg2 Ni1 2.774238 1_565
Mg2 Ni5 2.874529 1_555
Mg2 Ni5 2.875941 1_455
Mg2 Ni5 2.879934 1_565
Mg2 Sm0 3.044987 1_446
Mg2 Sm0 3.048574 1_556
Mg2 Sm0 3.049369 1_456
Mg2 Ni0 3.091370 1_556
Mg2 Ni6 3.093027 1_456
Mg2 Ni2 3.094859 1_556
Ni0 Ni4 2.392991 1_555
Ni0 Ni6 2.414264 1_555
Ni0 Ni2 2.415025 1_545
Ni0 Ni2 2.428860 1_555
Ni0 Ni6 2.430114 1_455
Ni0 Ni5 2.505750 1_554
Ni0 Sm0 2.872855 1_445
Ni0 Sm0 2.873306 1_555
Ni1 Ni7 2.391819 1_555
Ni1 Ni3 2.392051 1_555
Ni1 Ni4 2.403285 1_655
Ni1 Ni5 2.451724 1_555
Ni1 Ni3 2.451832 1_545
Ni1 Ni7 2.452559 1_655
Ni1 Sm0 2.925978 1_546
Ni2 Ni4 2.398056 1_555
Ni2 Ni6 2.414992 1_565
Ni2 Ni6 2.429437 1_455
Ni2 Ni5 2.508159 1_564
Ni2 Sm0 2.873762 1_455
Ni2 Sm0 2.874364 1_555
Ni3 Ni7 2.392064 1_555
Ni3 Ni4 2.398690 1_665
Ni3 Ni5 2.449805 1_555
Ni3 Ni7 2.452363 1_665
Ni3 Sm0 2.927983 1_556
Ni4 Ni6 2.392481 1_455
Ni4 Ni7 2.402855 1_555
Ni5 Ni7 2.451211 1_555
Ni5 Ni6 2.505910 1_556
Ni5 Sm0 2.847352 1_556
Ni5 Sm0 2.848038 1_546
Ni5 Sm0 2.848389 1_446
Ni6 Sm0 2.873212 1_545
Ni6 Sm0 2.873267 1_555
Ni7 Sm0 2.927333 1_446
