# generated using pymatgen
data_Tm2FeSi4
_symmetry_space_group_name_H-M   'P 1'
_cell_length_a   3.95863300
_cell_length_b   4.06532400
_cell_length_c   7.72297722
_cell_angle_alpha   74.74017299
_cell_angle_beta   90.00000000
_cell_angle_gamma   90.00000000
_symmetry_Int_Tables_number   1
_chemical_formula_structural   Tm2FeSi4
_chemical_formula_sum   'Tm2 Fe1 Si4'
_cell_volume   119.90476229
_cell_formula_units_Z   1
loop_
 _symmetry_equiv_pos_site_id
 _symmetry_equiv_pos_as_xyz
  1  'x, y, z'
loop_
 _atom_site_type_symbol
 _atom_site_label
 _atom_site_symmetry_multiplicity
 _atom_site_fract_x
 _atom_site_fract_y
 _atom_site_fract_z
 _atom_site_occupancy
  Tm  Tm0  1  0.25000000  0.89734100  0.20531800  1
  Tm  Tm1  1  0.75000000  0.09994000  0.80011900  1
  Fe  Fe0  1  0.25000000  0.69364500  0.61270900  1
  Si  Si0  1  0.25000000  0.54301600  0.91396800  1
  Si  Si1  1  0.75000000  0.43542600  0.12914800  1
  Si  Si2  1  0.25000000  0.25695000  0.48610100  1
  Si  Si3  1  0.75000000  0.75768200  0.48463600  1
loop_
_geom_bond_atom_site_label_1
_geom_bond_atom_site_label_2
_geom_bond_distance
_geom_bond_site_symmetry_2
Fe0 Si3 2.197328 1_455
Fe0 Si3 2.197328 1_555
Fe0 Si2 2.240880 1_555
Fe0 Si2 2.240887 1_565
Fe0 Si0 2.244585 1_555
Fe0 Tm1 3.162144 1_555
Fe0 Tm1 3.162144 1_455
Fe0 Tm1 3.162144 1_565
Fe0 Tm1 3.162144 1_465
Si0 Si1 2.547168 1_556
Si0 Si1 2.547168 1_456
Si0 Tm1 2.961238 1_565
Si0 Tm1 2.961238 1_465
Si0 Tm1 2.961241 1_455
Si0 Tm1 2.961241 1_555
Si0 Tm0 2.973869 1_546
Si0 Tm0 2.973869 1_556
Si1 Tm0 2.893352 1_545
Si1 Tm0 2.893352 1_645
Si1 Tm0 2.893352 1_555
Si1 Tm0 2.893352 1_655
Si1 Tm1 3.184574 1_564
Si1 Tm1 3.184577 1_554
Si2 Tm0 2.916895 1_555
Si2 Tm0 2.916897 1_545
Si2 Tm1 3.064580 1_455
Si2 Tm1 3.064580 1_555
Si3 Tm0 2.872057 1_555
Si3 Tm0 2.872057 1_655
Si3 Tm1 3.107548 1_565
Si3 Tm1 3.107551 1_555
