# generated using pymatgen
data_Mg2V2O5
_symmetry_space_group_name_H-M   'P 1'
_cell_length_a   3.50924400
_cell_length_b   5.81853900
_cell_length_c   10.84287000
_cell_angle_alpha   90.00000000
_cell_angle_beta   90.00000000
_cell_angle_gamma   90.00000000
_symmetry_Int_Tables_number   1
_chemical_formula_structural   Mg2V2O5
_chemical_formula_sum   'Mg4 V4 O10'
_cell_volume   221.39701772
_cell_formula_units_Z   2
loop_
 _symmetry_equiv_pos_site_id
 _symmetry_equiv_pos_as_xyz
  1  'x, y, z'
loop_
 _atom_site_type_symbol
 _atom_site_label
 _atom_site_symmetry_multiplicity
 _atom_site_fract_x
 _atom_site_fract_y
 _atom_site_fract_z
 _atom_site_occupancy
  Mg  Mg0  1  0.00000000  0.06192800  0.89580700  1
  Mg  Mg1  1  0.00000000  0.44139900  0.10379300  1
  Mg  Mg2  1  0.00000000  0.55860100  0.60379300  1
  Mg  Mg3  1  0.00000000  0.93807200  0.39580700  1
  V  V0  1  0.50000000  0.01764200  0.63480500  1
  V  V1  1  0.50000000  0.48165000  0.36531500  1
  V  V2  1  0.50000000  0.98235800  0.13480500  1
  V  V3  1  0.50000000  0.51835000  0.86531500  1
  O  O0  1  0.50000000  0.25687800  0.50360300  1
  O  O1  1  0.50000000  0.87879500  0.30246800  1
  O  O2  1  0.50000000  0.37764900  0.19767100  1
  O  O3  1  0.50000000  0.12120500  0.80246800  1
  O  O4  1  0.00000000  0.08837300  0.08180900  1
  O  O5  1  0.00000000  0.41460700  0.91803500  1
  O  O6  1  0.50000000  0.62235100  0.69767100  1
  O  O7  1  0.00000000  0.91162700  0.58180900  1
  O  O8  1  0.50000000  0.74312200  0.00360300  1
  O  O9  1  0.00000000  0.58539300  0.41803500  1
loop_
_geom_bond_atom_site_label_1
_geom_bond_atom_site_label_2
_geom_bond_distance
_geom_bond_site_symmetry_2
Mg0 O4 2.022657 1_556
Mg0 O3 2.054733 1_555
Mg0 O3 2.054733 1_455
Mg0 O5 2.066182 1_555
Mg1 O5 2.020174 1_554
Mg1 O2 2.062140 1_555
Mg1 O2 2.062140 1_455
Mg1 O4 2.067880 1_555
Mg2 O9 2.020174 1_555
Mg2 O6 2.062140 1_455
Mg2 O6 2.062140 1_555
Mg2 O7 2.067880 1_555
Mg3 O7 2.022657 1_555
Mg3 O1 2.054733 1_555
Mg3 O1 2.054733 1_455
Mg3 O9 2.066182 1_555
O0 V1 1.989667 1_555
O0 V0 1.990348 1_555
O1 V2 1.915214 1_555
O1 V1 2.409186 1_555
O2 V1 1.915822 1_555
O2 V2 2.398899 1_545
O3 V0 1.915214 1_555
O3 V3 2.409186 1_555
O4 V2 1.946639 1_445
O4 V2 1.946639 1_545
O5 V3 1.941607 1_555
O5 V3 1.941607 1_455
O6 V3 1.915822 1_555
O6 V0 2.398899 1_565
O7 V0 1.946639 1_465
O7 V0 1.946639 1_565
O8 V3 1.989667 1_554
O8 V2 1.990348 1_555
O9 V1 1.941607 1_455
O9 V1 1.941607 1_555
