# generated using pymatgen
data_Nb13(Pb3O10)5
_symmetry_space_group_name_H-M   'P 1'
_cell_length_a   7.65803635
_cell_length_b   7.65803635
_cell_length_c   22.99507197
_cell_angle_alpha   80.41476057
_cell_angle_beta   80.41476057
_cell_angle_gamma   59.99999318
_symmetry_Int_Tables_number   1
_chemical_formula_structural   Nb13(Pb3O10)5
_chemical_formula_sum   'Nb13 Pb15 O50'
_cell_volume   1146.09398810
_cell_formula_units_Z   1
loop_
 _symmetry_equiv_pos_site_id
 _symmetry_equiv_pos_as_xyz
  1  'x, y, z'
loop_
 _atom_site_type_symbol
 _atom_site_label
 _atom_site_symmetry_multiplicity
 _atom_site_fract_x
 _atom_site_fract_y
 _atom_site_fract_z
 _atom_site_occupancy
  Nb  Nb0  1  0.88870720  0.38895791  0.83362768  1
  Nb  Nb1  1  0.88870720  0.88870720  0.83362768  1
  Nb  Nb2  1  0.38895791  0.88870720  0.83362768  1
  Nb  Nb3  1  0.46139766  0.96428086  0.11292382  1
  Nb  Nb4  1  0.46139766  0.46139766  0.11292382  1
  Nb  Nb5  1  0.96428086  0.46139766  0.11292382  1
  Nb  Nb6  1  0.10226385  0.10226385  0.69320846  1
  Nb  Nb7  1  0.24818128  0.24818128  0.25545615  1
  Nb  Nb8  1  0.31629817  0.81338680  0.55401686  1
  Nb  Nb9  1  0.31629817  0.31629817  0.55401686  1
  Nb  Nb10  1  0.81338680  0.31629817  0.55401686  1
  Nb  Nb11  1  0.52974113  0.52974113  0.41077660  1
  Nb  Nb12  1  0.67527397  0.67527397  0.97417809  1
  Pb  Pb0  1  0.17589007  0.67334656  0.97487331  1
  Pb  Pb1  1  0.17589007  0.17589007  0.97487331  1
  Pb  Pb2  1  0.67334656  0.17589007  0.97487331  1
  Pb  Pb3  1  0.38859356  0.38859356  0.83421933  1
  Pb  Pb4  1  0.96235405  0.96235405  0.11293785  1
  Pb  Pb5  1  0.60170353  0.10337859  0.69321435  1
  Pb  Pb6  1  0.60170353  0.60170353  0.69321435  1
  Pb  Pb7  1  0.10337859  0.60170353  0.69321435  1
  Pb  Pb8  1  0.74622469  0.24453117  0.26301945  1
  Pb  Pb9  1  0.74622469  0.74622469  0.26301945  1
  Pb  Pb10  1  0.24453117  0.74622469  0.26301945  1
  Pb  Pb11  1  0.03001749  0.53174502  0.40822000  1
  Pb  Pb12  1  0.03001749  0.03001749  0.40822000  1
  Pb  Pb13  1  0.53174502  0.03001749  0.40822000  1
  Pb  Pb14  1  0.81548214  0.81548214  0.55355357  1
  O  O0  1  0.53269763  0.91452089  0.02008385  1
  O  O1  1  0.53269763  0.53269763  0.02008385  1
  O  O2  1  0.91452089  0.53269763  0.02008385  1
  O  O3  1  0.58202290  0.58202290  0.25393129  1
  O  O4  1  0.77868210  0.77868210  0.66395371  1
  O  O5  1  0.35275667  0.35275667  0.94173000  1
  O  O6  1  0.17750561  0.55531501  0.08967377  1
  O  O7  1  0.17750561  0.17750561  0.08967377  1
  O  O8  1  0.55531501  0.17750561  0.08967377  1
  O  O9  1  0.39119168  0.02439384  0.19322280  1
  O  O10  1  0.39119168  0.39119168  0.19322280  1
  O  O11  1  0.02439384  0.39119168  0.19322280  1
  O  O12  1  0.60089783  0.22195284  0.57625150  1
  O  O13  1  0.60089783  0.60089783  0.57625150  1
  O  O14  1  0.22195284  0.60089783  0.57625150  1
  O  O15  1  0.75104898  0.37457798  0.12332407  1
  O  O16  1  0.75104898  0.75104898  0.12332407  1
  O  O17  1  0.37457798  0.75104898  0.12332407  1
  O  O18  1  0.85155286  0.85155286  0.44534141  1
  O  O19  1  0.95866324  0.33571429  0.74695924  1
  O  O20  1  0.95866324  0.95866324  0.74695924  1
  O  O21  1  0.33571429  0.95866324  0.74695924  1
  O  O22  1  0.92214053  0.92214053  0.23357841  1
  O  O23  1  0.81933964  0.44258808  0.91873263  1
  O  O24  1  0.81933964  0.81933964  0.91873263  1
  O  O25  1  0.44258808  0.81933964  0.91873263  1
  O  O26  1  0.24517919  0.86429213  0.64534948  1
  O  O27  1  0.24517919  0.24517919  0.64534948  1
  O  O28  1  0.86429213  0.24517919  0.64534948  1
  O  O29  1  0.99656517  0.99656517  0.01030450  1
  O  O30  1  0.10382663  0.49900587  0.29334086  1
  O  O31  1  0.10382663  0.10382663  0.29334086  1
  O  O32  1  0.49900587  0.10382663  0.29334086  1
  O  O33  1  0.38613151  0.75530797  0.47242901  1
  O  O34  1  0.38613151  0.38613151  0.47242901  1
  O  O35  1  0.75530797  0.38613151  0.47242901  1
  O  O36  1  0.67300682  0.28387798  0.37010838  1
  O  O37  1  0.67300682  0.67300682  0.37010838  1
  O  O38  1  0.28387798  0.67300682  0.37010838  1
  O  O39  1  0.42518509  0.42518509  0.72444474  1
  O  O40  1  0.17538124  0.79893446  0.85030306  1
  O  O41  1  0.17538124  0.17538124  0.85030306  1
  O  O42  1  0.79893446  0.17538124  0.85030306  1
  O  O43  1  0.60214996  0.98009997  0.81560010  1
  O  O44  1  0.60214996  0.60214996  0.81560010  1
  O  O45  1  0.98009997  0.60214996  0.81560010  1
  O  O46  1  0.02711292  0.40354083  0.54223334  1
  O  O47  1  0.02711292  0.02711292  0.54223334  1
  O  O48  1  0.40354083  0.02711292  0.54223334  1
  O  O49  1  0.19753225  0.19753225  0.40740326  1
loop_
_geom_bond_atom_site_label_1
_geom_bond_atom_site_label_2
_geom_bond_distance
_geom_bond_site_symmetry_2
Nb0 O23 1.995991 1_555
Nb0 O19 2.030200 1_555
Nb0 O41 2.030408 1_655
Nb0 O42 2.030408 1_555
Nb0 O44 2.036621 1_555
Nb0 O45 2.036621 1_555
Nb1 O24 1.995991 1_555
Nb1 O20 2.030200 1_555
Nb1 O42 2.030408 1_565
Nb1 O40 2.030408 1_655
Nb1 O43 2.036621 1_555
Nb1 O45 2.036621 1_555
Nb2 O25 1.995991 1_555
Nb2 O21 2.030200 1_555
Nb2 O41 2.030408 1_565
Nb2 O40 2.030408 1_555
Nb2 O44 2.036621 1_555
Nb2 O43 2.036621 1_555
Nb3 O9 1.901430 1_565
Nb3 O16 2.017029 1_555
Nb3 O17 2.017030 1_555
Nb3 O7 2.055490 1_565
Nb3 O8 2.055490 1_565
Nb3 O0 2.162322 1_555
Nb4 O10 1.901430 1_555
Nb4 O15 2.017029 1_555
Nb4 O17 2.017029 1_555
Nb4 O8 2.055490 1_555
Nb4 O6 2.055490 1_555
Nb4 O1 2.162322 1_555
Nb5 O11 1.901430 1_655
Nb5 O16 2.017029 1_555
Nb5 O15 2.017030 1_555
Nb5 O7 2.055490 1_655
Nb5 O6 2.055490 1_655
Nb5 O2 2.162322 1_555
Nb6 O28 2.000592 1_455
Nb6 O26 2.000592 1_545
Nb6 O27 2.000592 1_555
Nb6 O19 2.061647 1_455
Nb6 O21 2.061647 1_545
Nb6 O20 2.061647 1_445
Nb7 O30 1.945171 1_555
Nb7 O32 1.945171 1_555
Nb7 O31 1.945171 1_555
Nb7 O9 2.145295 1_555
Nb7 O11 2.145295 1_555
Nb7 O10 2.145295 1_555
Nb8 O33 1.926016 1_555
Nb8 O47 2.020933 1_565
Nb8 O48 2.020933 1_565
Nb8 O13 2.051083 1_555
Nb8 O14 2.051084 1_555
Nb8 O26 2.130458 1_555
Nb9 O34 1.926016 1_555
Nb9 O48 2.020933 1_555
Nb9 O46 2.020933 1_555
Nb9 O12 2.051084 1_555
Nb9 O14 2.051084 1_555
Nb9 O27 2.130458 1_555
Nb10 O35 1.926016 1_555
Nb10 O47 2.020933 1_655
Nb10 O46 2.020933 1_655
Nb10 O13 2.051083 1_555
Nb10 O12 2.051084 1_555
Nb10 O28 2.130458 1_555
Nb11 O38 1.949941 1_555
Nb11 O36 1.949941 1_555
Nb11 O37 1.949941 1_555
Nb11 O35 2.144729 1_555
Nb11 O33 2.144729 1_555
Nb11 O34 2.144729 1_555
Nb12 O2 1.980673 1_556
Nb12 O0 1.980673 1_556
Nb12 O1 1.980673 1_556
Nb12 O23 2.083316 1_555
Nb12 O25 2.083316 1_555
Nb12 O24 2.083316 1_555
O0 Pb1 2.708730 1_564
O0 Pb2 2.708730 1_564
O1 Pb0 2.708730 1_554
O1 Pb2 2.708730 1_554
O2 Pb1 2.708730 1_654
O2 Pb0 2.708730 1_654
O3 Pb10 2.227633 1_555
O3 Pb8 2.227633 1_555
O3 Pb9 2.227633 1_555
O4 Pb7 2.314285 1_655
O4 Pb5 2.314285 1_565
O4 Pb6 2.314286 1_555
O4 Pb14 2.491291 1_555
O5 Pb0 2.323124 1_555
O5 Pb2 2.323124 1_555
O5 Pb1 2.323124 1_555
O5 Pb3 2.426087 1_555
O6 Pb0 2.644049 1_554
O6 Pb4 2.800579 1_455
O7 Pb1 2.644049 1_554
O7 Pb4 2.800579 1_445
O8 Pb2 2.644049 1_554
O8 Pb4 2.800579 1_545
O12 Pb5 2.691644 1_555
O12 Pb14 2.793276 1_545
O13 Pb6 2.691644 1_555
O13 Pb14 2.793276 1_555
O14 Pb7 2.691644 1_555
O14 Pb14 2.793276 1_455
O15 Pb4 2.766797 1_545
O16 Pb4 2.766797 1_555
O17 Pb4 2.766797 1_455
O18 Pb11 2.356931 1_655
O18 Pb13 2.356931 1_565
O18 Pb12 2.356932 1_665
O18 Pb14 2.441917 1_555
O19 Pb6 2.804936 1_555
O19 Pb7 2.804937 1_655
O20 Pb7 2.804936 1_655
O20 Pb5 2.804936 1_565
O21 Pb6 2.804936 1_555
O21 Pb5 2.804937 1_565
O22 Pb8 2.301187 1_565
O22 Pb10 2.301187 1_655
O22 Pb9 2.301187 1_555
O22 Pb4 2.722376 1_555
O23 Pb1 2.830646 1_655
O23 Pb2 2.830646 1_555
O24 Pb0 2.830646 1_655
O24 Pb2 2.830646 1_565
O25 Pb1 2.830646 1_565
O25 Pb0 2.830646 1_555
O26 Pb6 2.735500 1_555
O26 Pb7 2.735500 1_555
O27 Pb5 2.735500 1_555
O27 Pb7 2.735500 1_555
O28 Pb6 2.735500 1_555
O28 Pb5 2.735500 1_555
O29 Pb4 2.316025 1_555
O29 Pb2 2.361406 1_564
O29 Pb0 2.361406 1_654
O29 Pb1 2.361406 1_664
O30 Pb9 2.565464 1_455
O30 Pb10 2.565464 1_555
O30 Pb11 2.634820 1_555
O31 Pb10 2.565464 1_545
O31 Pb8 2.565464 1_455
O31 Pb12 2.634820 1_555
O32 Pb9 2.565464 1_545
O32 Pb8 2.565464 1_555
O32 Pb13 2.634820 1_555
O36 Pb8 2.467287 1_555
O36 Pb12 2.633946 1_655
O36 Pb13 2.633946 1_555
O37 Pb9 2.467287 1_555
O37 Pb13 2.633946 1_565
O37 Pb11 2.633946 1_655
O38 Pb10 2.467287 1_555
O38 Pb12 2.633946 1_565
O38 Pb11 2.633946 1_555
O39 Pb5 2.313245 1_555
O39 Pb7 2.313245 1_555
O39 Pb6 2.313245 1_555
O39 Pb3 2.477175 1_555
O40 Pb3 2.780747 1_555
O40 Pb0 2.865807 1_555
O41 Pb3 2.780747 1_555
O41 Pb1 2.865807 1_555
O42 Pb3 2.780747 1_555
O42 Pb2 2.865807 1_555
O43 Pb3 2.782221 1_565
O43 Pb5 2.815414 1_565
O44 Pb3 2.782221 1_555
O44 Pb6 2.815414 1_555
O45 Pb3 2.782221 1_655
O45 Pb7 2.815414 1_655
O46 Pb14 2.768851 1_455
O47 Pb14 2.768852 1_445
O48 Pb14 2.768851 1_545
O49 Pb11 2.218399 1_555
O49 Pb13 2.218399 1_555
O49 Pb12 2.218399 1_555
