# generated using pymatgen
data_H24Rh2(N4O5)3
_symmetry_space_group_name_H-M   'P 1'
_cell_length_a   15.22804500
_cell_length_b   12.26918000
_cell_length_c   10.54289800
_cell_angle_alpha   90.00000000
_cell_angle_beta   90.00000000
_cell_angle_gamma   90.00000000
_symmetry_Int_Tables_number   1
_chemical_formula_structural   H24Rh2(N4O5)3
_chemical_formula_sum   'H96 Rh8 N48 O60'
_cell_volume   1969.78893876
_cell_formula_units_Z   4
loop_
 _symmetry_equiv_pos_site_id
 _symmetry_equiv_pos_as_xyz
  1  'x, y, z'
loop_
 _atom_site_type_symbol
 _atom_site_label
 _atom_site_symmetry_multiplicity
 _atom_site_fract_x
 _atom_site_fract_y
 _atom_site_fract_z
 _atom_site_occupancy
  H  H0  1  0.53391200  0.87220500  0.82712500  1
  H  H1  1  0.46608800  0.12779500  0.32712500  1
  H  H2  1  0.96608800  0.37220500  0.32712500  1
  H  H3  1  0.03391200  0.62779500  0.82712500  1
  H  H4  1  0.49514600  0.83822600  0.68746900  1
  H  H5  1  0.50485400  0.16177400  0.18746900  1
  H  H6  1  0.00485400  0.33822600  0.18746900  1
  H  H7  1  0.99514600  0.66177400  0.68746900  1
  H  H8  1  0.46735800  0.76643700  0.81138400  1
  H  H9  1  0.53264200  0.23356300  0.31138400  1
  H  H10  1  0.03264200  0.26643700  0.31138400  1
  H  H11  1  0.96735800  0.73356300  0.81138400  1
  H  H12  1  0.66932900  0.85573400  0.90978300  1
  H  H13  1  0.33067100  0.14426600  0.40978300  1
  H  H14  1  0.83067100  0.35573400  0.40978300  1
  H  H15  1  0.16932900  0.64426600  0.90978300  1
  H  H16  1  0.74715900  0.76383500  0.91175700  1
  H  H17  1  0.25284100  0.23616500  0.41175700  1
  H  H18  1  0.75284100  0.26383500  0.41175700  1
  H  H19  1  0.24715900  0.73616500  0.91175700  1
  H  H20  1  0.74511600  0.85395700  0.79364200  1
  H  H21  1  0.25488400  0.14604300  0.29364200  1
  H  H22  1  0.75488400  0.35395700  0.29364200  1
  H  H23  1  0.24511600  0.64604300  0.79364200  1
  H  H24  1  0.63949800  0.63286600  0.98145700  1
  H  H25  1  0.36050200  0.36713400  0.48145700  1
  H  H26  1  0.86050200  0.13286600  0.48145700  1
  H  H27  1  0.13949800  0.86713400  0.98145700  1
  H  H28  1  0.53225600  0.64237600  0.95081800  1
  H  H29  1  0.46774400  0.35762400  0.45081800  1
  H  H30  1  0.96774400  0.14237600  0.45081800  1
  H  H31  1  0.03225600  0.85762400  0.95081800  1
  H  H32  1  0.59034800  0.53541400  0.90263300  1
  H  H33  1  0.40965200  0.46458600  0.40263300  1
  H  H34  1  0.90965200  0.03541400  0.40263300  1
  H  H35  1  0.09034800  0.96458600  0.90263300  1
  H  H36  1  0.72647800  0.52972400  0.68927900  1
  H  H37  1  0.27352200  0.47027600  0.18927900  1
  H  H38  1  0.77352200  0.02972400  0.18927900  1
  H  H39  1  0.22647800  0.97027600  0.68927900  1
  H  H40  1  0.78710200  0.64543300  0.69263200  1
  H  H41  1  0.21289800  0.35456700  0.19263200  1
  H  H42  1  0.71289800  0.14543300  0.19263200  1
  H  H43  1  0.28710200  0.85456700  0.69263200  1
  H  H44  1  0.76262100  0.58202300  0.82676300  1
  H  H45  1  0.23737900  0.41797700  0.32676300  1
  H  H46  1  0.73737900  0.08202300  0.32676300  1
  H  H47  1  0.26262100  0.91797700  0.82676300  1
  H  H48  1  0.53111800  0.86634200  0.33091000  1
  H  H49  1  0.46888200  0.13365800  0.83091000  1
  H  H50  1  0.96888200  0.36634200  0.83091000  1
  H  H51  1  0.03111800  0.63365800  0.33091000  1
  H  H52  1  0.46331200  0.76747900  0.37605600  1
  H  H53  1  0.53668800  0.23252100  0.87605600  1
  H  H54  1  0.03668800  0.26747900  0.87605600  1
  H  H55  1  0.96331200  0.73252100  0.37605600  1
  H  H56  1  0.49799100  0.85890000  0.47859800  1
  H  H57  1  0.50200900  0.14110000  0.97859800  1
  H  H58  1  0.00200900  0.35890000  0.97859800  1
  H  H59  1  0.99799100  0.64110000  0.47859800  1
  H  H60  1  0.66901900  0.89488900  0.32954500  1
  H  H61  1  0.33098100  0.10511100  0.82954500  1
  H  H62  1  0.83098100  0.39488900  0.82954500  1
  H  H63  1  0.16901900  0.60511100  0.32954500  1
  H  H64  1  0.76139500  0.83529600  0.37559700  1
  H  H65  1  0.23860500  0.16470400  0.87559700  1
  H  H66  1  0.73860500  0.33529600  0.87559700  1
  H  H67  1  0.26139500  0.66470400  0.37559700  1
  H  H68  1  0.71392200  0.80062100  0.23873700  1
  H  H69  1  0.28607800  0.19937900  0.73873700  1
  H  H70  1  0.78607800  0.30062100  0.73873700  1
  H  H71  1  0.21392200  0.69937900  0.23873700  1
  H  H72  1  0.53087400  0.65611100  0.22253800  1
  H  H73  1  0.46912600  0.34388900  0.72253800  1
  H  H74  1  0.96912600  0.15611100  0.72253800  1
  H  H75  1  0.03087400  0.84388900  0.22253800  1
  H  H76  1  0.63635800  0.62525300  0.19512400  1
  H  H77  1  0.36364200  0.37474700  0.69512400  1
  H  H78  1  0.86364200  0.12525300  0.69512400  1
  H  H79  1  0.13635800  0.87474700  0.19512400  1
  H  H80  1  0.57466800  0.54494000  0.28251800  1
  H  H81  1  0.42533200  0.45506000  0.78251800  1
  H  H82  1  0.92533200  0.04494000  0.78251800  1
  H  H83  1  0.07466800  0.95506000  0.28251800  1
  H  H84  1  0.72351000  0.53005700  0.46390400  1
  H  H85  1  0.27649000  0.46994300  0.96390400  1
  H  H86  1  0.77649000  0.03005700  0.96390400  1
  H  H87  1  0.22351000  0.96994300  0.46390400  1
  H  H88  1  0.76243900  0.59406000  0.33566000  1
  H  H89  1  0.23756100  0.40594000  0.83566000  1
  H  H90  1  0.73756100  0.09406000  0.83566000  1
  H  H91  1  0.26243900  0.90594000  0.33566000  1
  H  H92  1  0.78819700  0.63935200  0.47843700  1
  H  H93  1  0.21180300  0.36064800  0.97843700  1
  H  H94  1  0.71180300  0.13935200  0.97843700  1
  H  H95  1  0.28819700  0.86064800  0.47843700  1
  Rh  Rh0  1  0.62733600  0.70151900  0.74476300  1
  Rh  Rh1  1  0.37266400  0.29848100  0.24476300  1
  Rh  Rh2  1  0.87266400  0.20151900  0.24476300  1
  Rh  Rh3  1  0.12733600  0.79848100  0.74476300  1
  Rh  Rh4  1  0.62651000  0.70738800  0.43014100  1
  Rh  Rh5  1  0.37349000  0.29261200  0.93014100  1
  Rh  Rh6  1  0.87349000  0.20738800  0.93014100  1
  Rh  Rh7  1  0.12651000  0.79261200  0.43014100  1
  N  N0  1  0.51906500  0.80650000  0.77025600  1
  N  N1  1  0.48093500  0.19350000  0.27025600  1
  N  N2  1  0.98093500  0.30650000  0.27025600  1
  N  N3  1  0.01906500  0.69350000  0.77025600  1
  N  N4  1  0.70644700  0.80648600  0.85188700  1
  N  N5  1  0.29355300  0.19351400  0.35188700  1
  N  N6  1  0.79355300  0.30648600  0.35188700  1
  N  N7  1  0.20644700  0.69351400  0.85188700  1
  N  N8  1  0.59195500  0.61858400  0.91390000  1
  N  N9  1  0.40804500  0.38141600  0.41390000  1
  N  N10  1  0.90804500  0.11858400  0.41390000  1
  N  N11  1  0.09195500  0.88141600  0.91390000  1
  N  N12  1  0.73845500  0.60156900  0.73788400  1
  N  N13  1  0.26154500  0.39843100  0.23788400  1
  N  N14  1  0.76154500  0.10156900  0.23788400  1
  N  N15  1  0.23845500  0.89843100  0.73788400  1
  N  N16  1  0.51737000  0.81174800  0.40319500  1
  N  N17  1  0.48263000  0.18825200  0.90319500  1
  N  N18  1  0.98263000  0.31174800  0.90319500  1
  N  N19  1  0.01737000  0.68825200  0.40319500  1
  N  N20  1  0.70178300  0.82196400  0.33111600  1
  N  N21  1  0.29821700  0.17803600  0.83111600  1
  N  N22  1  0.79821700  0.32196400  0.83111600  1
  N  N23  1  0.20178300  0.67803600  0.33111600  1
  N  N24  1  0.58744700  0.62509500  0.26245800  1
  N  N25  1  0.41255300  0.37490500  0.76245800  1
  N  N26  1  0.91255300  0.12509500  0.76245800  1
  N  N27  1  0.08744700  0.87490500  0.26245800  1
  N  N28  1  0.73773100  0.60590000  0.42639400  1
  N  N29  1  0.26226900  0.39410000  0.92639400  1
  N  N30  1  0.76226900  0.10590000  0.92639400  1
  N  N31  1  0.23773100  0.89410000  0.42639400  1
  N  N32  1  0.92604800  0.42791000  0.59059200  1
  N  N33  1  0.07395200  0.57209000  0.09059200  1
  N  N34  1  0.57395200  0.92791000  0.09059200  1
  N  N35  1  0.42604800  0.07209000  0.59059200  1
  N  N36  1  0.63036500  0.36412300  0.59351800  1
  N  N37  1  0.36963500  0.63587700  0.09351800  1
  N  N38  1  0.86963500  0.86412300  0.09351800  1
  N  N39  1  0.13036500  0.13587700  0.59351800  1
  N  N40  1  0.64496100  0.34373200  0.08189700  1
  N  N41  1  0.35503900  0.65626800  0.58189700  1
  N  N42  1  0.85503900  0.84373200  0.58189700  1
  N  N43  1  0.14496100  0.15626800  0.08189700  1
  N  N44  1  0.80410900  0.57622800  0.08589100  1
  N  N45  1  0.19589100  0.42377200  0.58589100  1
  N  N46  1  0.69589100  0.07622800  0.58589100  1
  N  N47  1  0.30410900  0.92377200  0.08589100  1
  O  O0  1  0.55256300  0.59665500  0.64982300  1
  O  O1  1  0.44743700  0.40334500  0.14982300  1
  O  O2  1  0.94743700  0.09665500  0.14982300  1
  O  O3  1  0.05256300  0.90334500  0.64982300  1
  O  O4  1  0.55419100  0.59670400  0.52109100  1
  O  O5  1  0.44580900  0.40329600  0.02109100  1
  O  O6  1  0.94580900  0.09670400  0.02109100  1
  O  O7  1  0.05419100  0.90329600  0.52109100  1
  O  O8  1  0.66327300  0.77532000  0.58874800  1
  O  O9  1  0.33672700  0.22468000  0.08874800  1
  O  O10  1  0.83672700  0.27532000  0.08874800  1
  O  O11  1  0.16327300  0.72468000  0.58874800  1
  O  O12  1  0.91883400  0.32541400  0.58822000  1
  O  O13  1  0.08116600  0.67458600  0.08822000  1
  O  O14  1  0.58116600  0.82541400  0.08822000  1
  O  O15  1  0.41883400  0.17458600  0.58822000  1
  O  O16  1  0.93451500  0.47788900  0.69579500  1
  O  O17  1  0.06548500  0.52211100  0.19579500  1
  O  O18  1  0.56548500  0.97788900  0.19579500  1
  O  O19  1  0.43451500  0.02211100  0.69579500  1
  O  O20  1  0.92331400  0.48193700  0.48726800  1
  O  O21  1  0.07668600  0.51806300  0.98726800  1
  O  O22  1  0.57668600  0.98193700  0.98726800  1
  O  O23  1  0.42331400  0.01806300  0.48726800  1
  O  O24  1  0.59961100  0.35208200  0.70340100  1
  O  O25  1  0.40038900  0.64791800  0.20340100  1
  O  O26  1  0.90038900  0.85208200  0.20340100  1
  O  O27  1  0.09961100  0.14791800  0.70340100  1
  O  O28  1  0.59080800  0.32929200  0.49655900  1
  O  O29  1  0.40919200  0.67070800  0.99655900  1
  O  O30  1  0.90919200  0.82929200  0.99655900  1
  O  O31  1  0.09080800  0.17070800  0.49655900  1
  O  O32  1  0.70468900  0.41276500  0.58016800  1
  O  O33  1  0.29531100  0.58723500  0.08016800  1
  O  O34  1  0.79531100  0.91276500  0.08016800  1
  O  O35  1  0.20468900  0.08723500  0.58016800  1
  O  O36  1  0.63687200  0.24176000  0.10610100  1
  O  O37  1  0.36312800  0.75824000  0.60610100  1
  O  O38  1  0.86312800  0.74176000  0.60610100  1
  O  O39  1  0.13687200  0.25824000  0.10610100  1
  O  O40  1  0.63839300  0.37491900  0.96757600  1
  O  O41  1  0.36160700  0.62508100  0.46757600  1
  O  O42  1  0.86160700  0.87491900  0.46757600  1
  O  O43  1  0.13839300  0.12508100  0.96757600  1
  O  O44  1  0.65859300  0.41068900  0.16983800  1
  O  O45  1  0.34140700  0.58931100  0.66983800  1
  O  O46  1  0.84140700  0.91068900  0.66983800  1
  O  O47  1  0.15859300  0.08931100  0.16983800  1
  O  O48  1  0.83405800  0.54465900  0.19074600  1
  O  O49  1  0.16594200  0.45534100  0.69074600  1
  O  O50  1  0.66594200  0.04465900  0.69074600  1
  O  O51  1  0.33405800  0.95534100  0.19074600  1
  O  O52  1  0.83186700  0.53788800  0.98238700  1
  O  O53  1  0.16813300  0.46211200  0.48238700  1
  O  O54  1  0.66813300  0.03788800  0.48238700  1
  O  O55  1  0.33186700  0.96211200  0.98238700  1
  O  O56  1  0.74381600  0.65045400  0.08392500  1
  O  O57  1  0.25618400  0.34954600  0.58392500  1
  O  O58  1  0.75618400  0.15045400  0.58392500  1
  O  O59  1  0.24381600  0.84954600  0.08392500  1
loop_
_geom_bond_atom_site_label_1
_geom_bond_atom_site_label_2
_geom_bond_distance
_geom_bond_site_symmetry_2
H0 N0 1.029789 1_555
H1 N1 1.029789 1_555
H2 N2 1.029789 1_555
H3 N3 1.029789 1_555
H4 N0 1.022738 1_555
H5 N1 1.022738 1_555
H6 N2 1.022738 1_455
H7 N3 1.022738 1_655
H8 N0 1.024510 1_555
H9 N1 1.024510 1_555
H10 N2 1.024510 1_455
H11 N3 1.024510 1_655
H12 N4 1.028185 1_555
H13 N5 1.028185 1_555
H14 N6 1.028185 1_555
H15 N7 1.028185 1_555
H16 N4 1.027915 1_555
H17 N5 1.027915 1_555
H18 N6 1.027915 1_555
H19 N7 1.027915 1_555
H20 N4 1.031046 1_555
H21 N5 1.031046 1_555
H22 N6 1.031046 1_555
H23 N7 1.031046 1_555
H24 N8 1.030610 1_555
H25 N9 1.030610 1_555
H26 N10 1.030610 1_555
H27 N11 1.030610 1_555
H28 N8 1.031099 1_555
H29 N9 1.031099 1_555
H30 N10 1.031099 1_555
H31 N11 1.031099 1_555
H32 N8 1.027610 1_555
H33 N9 1.027610 1_555
H34 N10 1.027610 1_555
H35 N11 1.027610 1_555
H36 N12 1.035791 1_555
H37 N13 1.035791 1_555
H38 N14 1.035791 1_555
H39 N15 1.035791 1_555
H40 N12 1.032486 1_555
H41 N13 1.032486 1_555
H42 N14 1.032486 1_555
H43 N15 1.032486 1_555
H44 N12 1.034883 1_555
H45 N13 1.034883 1_555
H46 N14 1.034883 1_555
H47 N15 1.034883 1_555
H48 N16 1.035992 1_555
H49 N17 1.035992 1_555
H50 N18 1.035992 1_555
H51 N19 1.035992 1_555
H52 N16 1.026902 1_555
H53 N17 1.026902 1_555
H54 N18 1.026902 1_455
H55 N19 1.026902 1_655
H56 N16 1.026518 1_555
H57 N17 1.026518 1_555
H58 N18 1.026518 1_455
H59 N19 1.026518 1_655
H60 N20 1.024573 1_555
H61 N21 1.024573 1_555
H62 N22 1.024573 1_555
H63 N23 1.024573 1_555
H64 N20 1.034762 1_555
H65 N21 1.034762 1_555
H66 N22 1.034762 1_555
H67 N23 1.034762 1_555
H68 N20 1.025332 1_555
H69 N21 1.025332 1_555
H70 N22 1.025332 1_555
H71 N23 1.025332 1_555
H72 N24 1.031562 1_555
H73 N25 1.031562 1_555
H74 N26 1.031562 1_555
H75 N27 1.031562 1_555
H76 N24 1.028937 1_555
H77 N25 1.028937 1_555
H78 N26 1.028937 1_555
H79 N27 1.028937 1_555
H80 N24 1.024570 1_555
H81 N25 1.024570 1_555
H82 N26 1.024570 1_555
H83 N27 1.024570 1_555
H84 N28 1.034011 1_555
H85 N29 1.034011 1_555
H86 N30 1.034011 1_555
H87 N31 1.034011 1_555
H88 N28 1.038148 1_555
H89 N29 1.038148 1_555
H90 N30 1.038148 1_555
H91 N31 1.038148 1_555
H92 N28 1.029610 1_555
H93 N29 1.029610 1_555
H94 N30 1.029610 1_555
H95 N31 1.029610 1_555
N0 Rh0 2.109421 1_555
N1 Rh1 2.109421 1_555
N2 Rh2 2.109421 1_555
N3 Rh3 2.109421 1_555
N4 Rh0 2.094143 1_555
N5 Rh1 2.094143 1_555
N6 Rh2 2.094143 1_555
N7 Rh3 2.094143 1_555
N8 Rh0 2.122608 1_555
N9 Rh1 2.122608 1_555
N10 Rh2 2.122608 1_555
N11 Rh3 2.122608 1_555
N12 Rh0 2.091021 1_555
N13 Rh1 2.091021 1_555
N14 Rh2 2.091021 1_555
N15 Rh3 2.091021 1_555
N16 Rh4 2.117160 1_555
N17 Rh5 2.117160 1_555
N18 Rh6 2.117160 1_555
N19 Rh7 2.117160 1_555
N20 Rh4 2.092848 1_555
N21 Rh5 2.092848 1_555
N22 Rh6 2.092848 1_555
N23 Rh7 2.092848 1_555
N24 Rh4 2.120996 1_555
N25 Rh5 2.120996 1_555
N26 Rh6 2.120996 1_555
N27 Rh7 2.120996 1_555
N28 Rh4 2.102514 1_555
N29 Rh5 2.102514 1_555
N30 Rh6 2.102514 1_555
N31 Rh7 2.102514 1_555
N32 O12 1.262579 1_555
N32 O16 1.273908 1_555
N32 O20 1.275843 1_555
N33 O13 1.262579 1_555
N33 O17 1.273908 1_555
N33 O21 1.275843 1_554
N34 O14 1.262579 1_555
N34 O18 1.273908 1_555
N34 O22 1.275843 1_554
N35 O15 1.262579 1_555
N35 O19 1.273908 1_555
N35 O23 1.275843 1_555
N36 O24 1.258269 1_555
N36 O28 1.261124 1_555
N36 O32 1.287233 1_555
N37 O25 1.258269 1_555
N37 O29 1.261124 1_554
N37 O33 1.287233 1_555
N38 O26 1.258269 1_555
N38 O30 1.261124 1_554
N38 O34 1.287233 1_555
N39 O27 1.258269 1_555
N39 O31 1.261124 1_555
N39 O35 1.287233 1_555
N40 O44 1.256018 1_555
N40 O40 1.268504 1_554
N40 O36 1.282799 1_555
N41 O45 1.256018 1_555
N41 O41 1.268504 1_555
N41 O37 1.282799 1_555
N42 O46 1.256018 1_555
N42 O42 1.268504 1_555
N42 O38 1.282799 1_555
N43 O47 1.256018 1_555
N43 O43 1.268504 1_554
N43 O39 1.282799 1_555
N44 O48 1.257017 1_555
N44 O52 1.261245 1_554
N44 O56 1.293360 1_555
N45 O49 1.257017 1_555
N45 O53 1.261245 1_555
N45 O57 1.293360 1_555
N46 O50 1.257017 1_555
N46 O54 1.261245 1_555
N46 O58 1.293360 1_555
N47 O51 1.257017 1_555
N47 O55 1.261245 1_554
N47 O59 1.293360 1_555
O0 O4 1.357435 1_555
O0 Rh0 1.988399 1_555
O1 O5 1.357435 1_555
O1 Rh1 1.988399 1_555
O2 O6 1.357435 1_555
O2 Rh2 1.988399 1_555
O3 O7 1.357435 1_555
O3 Rh3 1.988399 1_555
O4 Rh4 1.994097 1_555
O5 Rh5 1.994097 1_554
O6 Rh6 1.994097 1_554
O7 Rh7 1.994097 1_555
O8 Rh4 1.950451 1_555
O8 Rh0 1.955736 1_555
O9 Rh5 1.950451 1_554
O9 Rh1 1.955736 1_555
O10 Rh6 1.950451 1_554
O10 Rh2 1.955736 1_555
O11 Rh7 1.950451 1_555
O11 Rh3 1.955736 1_555
