# generated using pymatgen
data_Ba4Li(IrO4)3
_symmetry_space_group_name_H-M   'P 1'
_cell_length_a   5.85126764
_cell_length_b   15.59607744
_cell_length_c   10.12587888
_cell_angle_alpha   71.02885003
_cell_angle_beta   90.00000000
_cell_angle_gamma   79.18795581
_symmetry_Int_Tables_number   1
_chemical_formula_structural   Ba4Li(IrO4)3
_chemical_formula_sum   'Ba12 Li3 Ir9 O36'
_cell_volume   856.49830036
_cell_formula_units_Z   3
loop_
 _symmetry_equiv_pos_site_id
 _symmetry_equiv_pos_as_xyz
  1  'x, y, z'
loop_
 _atom_site_type_symbol
 _atom_site_label
 _atom_site_symmetry_multiplicity
 _atom_site_fract_x
 _atom_site_fract_y
 _atom_site_fract_z
 _atom_site_occupancy
  Ba  Ba0  1  0.12507743  0.74984515  0.12455187  1
  Ba  Ba1  1  0.62849019  0.74301962  0.62775208  1
  Ba  Ba2  1  0.37150981  0.25698038  0.37224792  1
  Ba  Ba3  1  0.87492257  0.25015485  0.87544813  1
  Ba  Ba4  1  0.71060313  0.57879375  0.04545635  1
  Ba  Ba5  1  0.20921728  0.58156544  0.54067845  1
  Ba  Ba6  1  0.79078272  0.41843456  0.45932155  1
  Ba  Ba7  1  0.28939687  0.42120625  0.95454365  1
  Ba  Ba8  1  0.95583558  0.08832884  0.63229689  1
  Ba  Ba9  1  0.45829359  0.08341283  0.11790561  1
  Ba  Ba10  1  0.54170641  0.91658717  0.88209439  1
  Ba  Ba11  1  0.04416442  0.91167116  0.36770311  1
  Li  Li0  1  0.75084797  0.49830407  0.74940788  1
  Li  Li1  1  0.24915203  0.50169593  0.25059212  1
  Li  Li2  1  0.00000000  0.00000000  0.00000000  1
  Ir  Ir0  1  0.32977267  0.34045467  0.66266411  1
  Ir  Ir1  1  0.82925378  0.34149243  0.16398295  1
  Ir  Ir2  1  0.17074622  0.65850757  0.83601705  1
  Ir  Ir3  1  0.67022733  0.65954533  0.33733589  1
  Ir  Ir4  1  0.07709156  0.84581689  0.74087532  1
  Ir  Ir5  1  0.57964798  0.84070404  0.24794771  1
  Ir  Ir6  1  0.42035202  0.15929596  0.75205229  1
  Ir  Ir7  1  0.92290844  0.15418311  0.25912468  1
  Ir  Ir8  1  0.50000000  0.00000000  0.50000000  1
  O  O0  1  0.94389253  0.58619690  0.29307738  1
  O  O1  1  0.44703172  0.58460771  0.79545616  1
  O  O2  1  0.70791087  0.58417826  0.53215818  1
  O  O3  1  0.20646982  0.58706037  0.03262776  1
  O  O4  1  0.46991057  0.58619690  0.29307738  1
  O  O5  1  0.96836056  0.58460771  0.79545616  1
  O  O6  1  0.55296828  0.41539229  0.20454384  1
  O  O7  1  0.05610747  0.41380310  0.70692262  1
  O  O8  1  0.79353018  0.41293963  0.96737224  1
  O  O9  1  0.29208913  0.41582174  0.46784182  1
  O  O10  1  0.03163944  0.41539229  0.20454384  1
  O  O11  1  0.53008943  0.41380310  0.70692262  1
  O  O12  1  0.69847480  0.08117049  0.37812929  1
  O  O13  1  0.22030598  0.08333549  0.86724412  1
  O  O14  1  0.95965393  0.08069213  0.13645621  1
  O  O15  1  0.45787632  0.08424736  0.61739178  1
  O  O16  1  0.22035471  0.08117049  0.37812929  1
  O  O17  1  0.69635853  0.08333549  0.86724412  1
  O  O18  1  0.77969402  0.91666451  0.13275588  1
  O  O19  1  0.30152520  0.91882951  0.62187071  1
  O  O20  1  0.54212368  0.91575264  0.38260822  1
  O  O21  1  0.04034607  0.91930787  0.86354379  1
  O  O22  1  0.30364147  0.91666451  0.13275588  1
  O  O23  1  0.77964529  0.91882951  0.62187071  1
  O  O24  1  0.39061427  0.74926815  0.37155766  1
  O  O25  1  0.89630543  0.75524240  0.86102413  1
  O  O26  1  0.62263421  0.75473159  0.13582182  1
  O  O27  1  0.12453789  0.75092422  0.63706721  1
  O  O28  1  0.86011758  0.74926815  0.37155766  1
  O  O29  1  0.34845217  0.75524240  0.86102413  1
  O  O30  1  0.10369457  0.24475760  0.13897587  1
  O  O31  1  0.60938573  0.25073185  0.62844234  1
  O  O32  1  0.87546211  0.24907578  0.36293279  1
  O  O33  1  0.37736579  0.24526841  0.86417818  1
  O  O34  1  0.65154783  0.24475760  0.13897587  1
  O  O35  1  0.13988242  0.25073185  0.62844234  1
loop_
_geom_bond_atom_site_label_1
_geom_bond_atom_site_label_2
_geom_bond_distance
_geom_bond_site_symmetry_2
Ba0 O26 2.929781 1_455
Ba0 O26 2.929781 1_555
Ba0 O3 2.936257 1_555
Ba0 O24 2.941092 1_555
Ba0 O28 2.941092 1_455
Ba0 O29 2.954870 1_554
Ba0 O25 2.954870 1_454
Ba0 O4 2.955238 1_555
Ba0 O0 2.955238 1_455
Ba0 O22 3.004652 1_555
Ba0 O18 3.004652 1_455
Ba0 O21 3.030326 1_554
Ba1 O5 2.893316 1_555
Ba1 O1 2.893316 1_555
Ba1 O2 2.901233 1_555
Ba1 O28 2.908847 1_555
Ba1 O24 2.908847 1_555
Ba1 O25 2.911407 1_555
Ba1 O29 2.911407 1_555
Ba1 O27 2.930948 1_555
Ba1 O27 2.930948 1_655
Ba1 O20 2.969160 1_555
Ba1 O19 3.017901 1_555
Ba1 O23 3.017901 1_555
Ba2 O10 2.893316 1_555
Ba2 O6 2.893316 1_555
Ba2 O9 2.901233 1_555
Ba2 O31 2.908847 1_555
Ba2 O35 2.908847 1_555
Ba2 O30 2.911407 1_555
Ba2 O34 2.911407 1_555
Ba2 O32 2.930948 1_455
Ba2 O32 2.930948 1_555
Ba2 O15 2.969160 1_555
Ba2 O12 3.017901 1_555
Ba2 O16 3.017901 1_555
Ba3 O33 2.929781 1_655
Ba3 O33 2.929781 1_555
Ba3 O8 2.936257 1_555
Ba3 O31 2.941092 1_555
Ba3 O35 2.941092 1_655
Ba3 O34 2.954870 1_556
Ba3 O30 2.954870 1_656
Ba3 O11 2.955238 1_555
Ba3 O7 2.955238 1_655
Ba3 O17 3.004652 1_555
Ba3 O13 3.004652 1_655
Ba3 O14 3.030326 1_556
Ba4 O10 2.855331 1_655
Ba4 O6 2.855331 1_555
Ba4 O8 2.900061 1_554
Ba4 O0 2.900169 1_555
Ba4 O4 2.900169 1_555
Ba4 O3 2.929395 1_555
Ba4 O3 2.929395 1_655
Ba4 O5 2.931437 1_554
Ba4 O1 2.931437 1_554
Ba4 O26 3.119938 1_555
Ba4 O25 3.165714 1_554
Ba4 O29 3.165714 1_554
Ba5 O9 2.868862 1_555
Ba5 O11 2.915100 1_555
Ba5 O7 2.915100 1_555
Ba5 O0 2.922594 1_455
Ba5 O4 2.922594 1_555
Ba5 O2 2.926789 1_455
Ba5 O2 2.926789 1_555
Ba5 O1 2.949329 1_555
Ba5 O5 2.949329 1_455
Ba5 O24 3.004897 1_555
Ba5 O28 3.004897 1_455
Ba5 O27 3.059399 1_555
Ba6 O2 2.868862 1_555
Ba6 O4 2.915100 1_555
Ba6 O0 2.915100 1_555
Ba6 O7 2.922594 1_655
Ba6 O11 2.922594 1_555
Ba6 O9 2.926789 1_655
Ba6 O9 2.926789 1_555
Ba6 O6 2.949329 1_555
Ba6 O10 2.949329 1_655
Ba6 O35 3.004897 1_655
Ba6 O31 3.004897 1_555
Ba6 O32 3.059399 1_555
Ba7 O1 2.855331 1_555
Ba7 O5 2.855331 1_455
Ba7 O3 2.900061 1_556
Ba7 O7 2.900169 1_555
Ba7 O11 2.900169 1_555
Ba7 O8 2.929395 1_555
Ba7 O8 2.929395 1_455
Ba7 O10 2.931437 1_556
Ba7 O6 2.931437 1_556
Ba7 O33 3.119938 1_555
Ba7 O30 3.165714 1_556
Ba7 O34 3.165714 1_556
Ba8 O13 2.809799 1_655
Ba8 O17 2.809799 1_555
Ba8 O21 2.859022 1_645
Ba8 O35 2.921584 1_655
Ba8 O31 2.921584 1_555
Ba8 O15 2.931257 1_655
Ba8 O15 2.931257 1_555
Ba8 O32 3.009574 1_555
Ba8 O16 3.025530 1_655
Ba8 O12 3.025530 1_555
Ba8 O23 3.044031 1_545
Ba8 O19 3.044031 1_645
Ba9 O18 2.869381 1_545
Ba9 O22 2.869381 1_545
Ba9 O17 2.895523 1_554
Ba9 O13 2.895523 1_554
Ba9 O33 2.920961 1_554
Ba9 O14 2.931070 1_555
Ba9 O14 2.931070 1_455
Ba9 O12 2.973400 1_555
Ba9 O16 2.973400 1_555
Ba9 O34 3.012107 1_555
Ba9 O30 3.012107 1_555
Ba9 O20 3.037123 1_545
Ba10 O13 2.869381 1_565
Ba10 O17 2.869381 1_565
Ba10 O22 2.895523 1_556
Ba10 O18 2.895523 1_556
Ba10 O26 2.920961 1_556
Ba10 O21 2.931070 1_555
Ba10 O21 2.931070 1_655
Ba10 O19 2.973400 1_555
Ba10 O23 2.973400 1_555
Ba10 O29 3.012107 1_555
Ba10 O25 3.012107 1_555
Ba10 O15 3.037123 1_565
Ba11 O18 2.809799 1_455
Ba11 O22 2.809799 1_555
Ba11 O14 2.859022 1_465
Ba11 O24 2.921584 1_555
Ba11 O28 2.921584 1_455
Ba11 O20 2.931257 1_555
Ba11 O20 2.931257 1_455
Ba11 O27 3.009574 1_555
Ba11 O23 3.025530 1_455
Ba11 O19 3.025530 1_555
Ba11 O16 3.044031 1_565
Ba11 O12 3.044031 1_465
Li0 O7 2.144230 1_655
Li0 O11 2.144230 1_555
Li0 O2 2.157386 1_555
Li0 O8 2.161210 1_555
Li0 O5 2.167885 1_555
Li0 O1 2.167885 1_555
Li1 O0 2.144230 1_455
Li1 O4 2.144230 1_555
Li1 O9 2.157386 1_555
Li1 O3 2.161210 1_555
Li1 O10 2.167885 1_555
Li1 O6 2.167885 1_555
Li2 O21 2.137252 1_544
Li2 O14 2.137252 1_455
Li2 O13 2.156525 1_554
Li2 O18 2.156525 1_445
Li2 O17 2.156525 1_454
Li2 O22 2.156525 1_545
Ir0 O9 1.927974 1_555
Ir0 O11 1.928645 1_555
Ir0 O7 1.928645 1_555
Ir0 O31 2.052150 1_555
Ir0 O35 2.052150 1_555
Ir0 O33 2.078561 1_555
Ir1 O8 1.928497 1_554
Ir1 O6 1.928536 1_555
Ir1 O10 1.928536 1_655
Ir1 O32 2.043241 1_555
Ir1 O34 2.063585 1_555
Ir1 O30 2.063585 1_655
Ir2 O3 1.928497 1_556
Ir2 O1 1.928536 1_555
Ir2 O5 1.928536 1_455
Ir2 O27 2.043241 1_555
Ir2 O29 2.063585 1_555
Ir2 O25 2.063585 1_455
Ir3 O2 1.927974 1_555
Ir3 O4 1.928645 1_555
Ir3 O0 1.928645 1_555
Ir3 O24 2.052150 1_555
Ir3 O28 2.052150 1_555
Ir3 O26 2.078561 1_555
Ir4 O21 1.932878 1_555
Ir4 O29 2.009434 1_555
Ir4 O25 2.009434 1_455
Ir4 O19 2.035230 1_555
Ir4 O23 2.035230 1_455
Ir4 O27 2.056590 1_555
Ir5 O18 1.938025 1_555
Ir5 O22 1.938025 1_555
Ir5 O26 2.003359 1_555
Ir5 O20 2.053960 1_555
Ir5 O24 2.062746 1_555
Ir5 O28 2.062746 1_555
Ir6 O13 1.938025 1_555
Ir6 O17 1.938025 1_555
Ir6 O33 2.003359 1_555
Ir6 O15 2.053960 1_555
Ir6 O31 2.062746 1_555
Ir6 O35 2.062746 1_555
Ir7 O14 1.932878 1_555
Ir7 O34 2.009434 1_555
Ir7 O30 2.009434 1_655
Ir7 O12 2.035230 1_555
Ir7 O16 2.035230 1_655
Ir7 O32 2.056590 1_555
Ir8 O12 2.002499 1_555
Ir8 O16 2.002499 1_555
Ir8 O19 2.002499 1_545
Ir8 O23 2.002499 1_545
Ir8 O20 2.023400 1_545
Ir8 O15 2.023400 1_555
