# generated using pymatgen
data_Ho2B6Os
_symmetry_space_group_name_H-M   'P 1'
_cell_length_a   3.64077231
_cell_length_b   9.11604893
_cell_length_c   11.48133373
_cell_angle_alpha   89.99999522
_cell_angle_beta   90.00000102
_cell_angle_gamma   90.00000217
_symmetry_Int_Tables_number   1
_chemical_formula_structural   Ho2B6Os
_chemical_formula_sum   'Ho8 B24 Os4'
_cell_volume   381.05924960
_cell_formula_units_Z   4
loop_
 _symmetry_equiv_pos_site_id
 _symmetry_equiv_pos_as_xyz
  1  'x, y, z'
loop_
 _atom_site_type_symbol
 _atom_site_label
 _atom_site_symmetry_multiplicity
 _atom_site_fract_x
 _atom_site_fract_y
 _atom_site_fract_z
 _atom_site_occupancy
  Ho  Ho0  1  -0.00000063  0.32170417  0.41406306  1
  Ho  Ho1  1  0.00000070  0.67829560  0.58593756  1
  Ho  Ho2  1  0.00000061  0.82170430  0.08593707  1
  Ho  Ho3  1  0.00000008  0.17829565  0.91406227  1
  Ho  Ho4  1  -0.00000005  0.94417188  0.37343235  1
  Ho  Ho5  1  0.00000006  0.05582760  0.62656792  1
  Ho  Ho6  1  0.00000041  0.44417241  0.12656790  1
  Ho  Ho7  1  -0.00000029  0.55582807  0.87343220  1
  B  B0  1  0.49999993  0.55368563  0.43305229  1
  B  B1  1  0.50000011  0.44631446  0.56694818  1
  B  B2  1  0.49999965  0.05368546  0.06694779  1
  B  B3  1  0.49999995  0.94631434  0.93305183  1
  B  B4  1  0.50000007  0.74771556  0.42014772  1
  B  B5  1  0.50000027  0.25228459  0.57985275  1
  B  B6  1  0.49999973  0.24771557  0.07985233  1
  B  B7  1  0.50000003  0.75228450  0.92014730  1
  B  B8  1  0.49999985  0.79085149  0.26676402  1
  B  B9  1  0.50000012  0.20914848  0.73323601  1
  B  B10  1  0.49999969  0.29085173  0.23323613  1
  B  B11  1  0.49999993  0.70914851  0.76676406  1
  B  B12  1  0.49999997  0.63189286  0.18547574  1
  B  B13  1  0.50000007  0.36810749  0.81452441  1
  B  B14  1  0.49999981  0.13189263  0.31452451  1
  B  B15  1  0.50000023  0.86810738  0.68547582  1
  B  B16  1  0.49999970  0.98322954  0.21313202  1
  B  B17  1  0.50000001  0.01677029  0.78686800  1
  B  B18  1  0.49999985  0.48322975  0.28686819  1
  B  B19  1  0.50000011  0.51677040  0.71313218  1
  B  B20  1  0.49999976  0.61019293  0.03056415  1
  B  B21  1  0.49999990  0.38980695  0.96943550  1
  B  B22  1  0.50000017  0.11019305  0.46943588  1
  B  B23  1  0.50000010  0.88980728  0.53056454  1
  Os  Os0  1  -0.00000038  0.63731971  0.32154628  1
  Os  Os1  1  -0.00000000  0.36268072  0.67845409  1
  Os  Os2  1  0.00000039  0.13731939  0.17845409  1
  Os  Os3  1  0.00000007  0.86267966  0.82154586  1
loop_
_geom_bond_atom_site_label_1
_geom_bond_atom_site_label_2
_geom_bond_distance
_geom_bond_site_symmetry_2
Ho0 Os1 3.058459 1_555
Ho0 Os0 3.066984 1_555
Ho0 Os2 3.184790 1_555
Ho1 Os0 3.058461 1_555
Ho1 Os1 3.066977 1_555
Ho1 Os3 3.184780 1_555
Ho2 Os3 3.058459 1_554
Ho2 Os2 3.066981 1_565
Ho2 Os0 3.184791 1_555
Ho3 Os2 3.058467 1_556
Ho3 Os3 3.066987 1_545
Ho3 Os1 3.184783 1_555
Ho4 Os2 2.848085 1_565
Ho4 Os0 2.860010 1_555
Ho5 Os3 2.848085 1_545
Ho5 Os1 2.860019 1_555
Ho6 Os0 2.848085 1_555
Ho6 Os2 2.860018 1_555
Ho7 Os1 2.848083 1_555
Ho7 Os3 2.860005 1_555
B0 B4 1.774981 1_555
B0 B18 1.797084 1_555
B0 B1 1.822458 1_555
B0 Os0 2.352463 1_655
B0 Os0 2.352465 1_555
B0 Ho1 2.772247 1_555
B0 Ho1 2.772250 1_655
B0 Ho0 2.798842 1_655
B0 Ho0 2.798845 1_555
B1 B5 1.774980 1_555
B1 B19 1.797083 1_555
B1 Os1 2.352462 1_655
B1 Os1 2.352463 1_555
B1 Ho0 2.772247 1_655
B1 Ho0 2.772250 1_555
B1 Ho1 2.798840 1_555
B1 Ho1 2.798843 1_655
B2 B6 1.774982 1_555
B2 B3 1.822458 1_544
B2 Os2 2.352463 1_555
B2 Os2 2.352467 1_655
B2 Ho3 2.772250 1_554
B2 Ho3 2.772252 1_654
B2 Ho2 2.798839 1_545
B2 Ho2 2.798844 1_645
B3 B7 1.774980 1_555
B3 Os3 2.352465 1_555
B3 Os3 2.352466 1_655
B3 Ho2 2.772247 1_556
B3 Ho2 2.772250 1_656
B3 Ho3 2.798843 1_565
B3 Ho3 2.798843 1_665
B4 B8 1.804418 1_555
B4 Os0 2.368161 1_655
B4 Os0 2.368163 1_555
B4 Ho4 2.609372 1_655
B4 Ho4 2.609373 1_555
B4 Ho1 2.708791 1_555
B4 Ho1 2.708794 1_655
B5 B9 1.804413 1_555
B5 Os1 2.368162 1_655
B5 Os1 2.368163 1_555
B5 Ho5 2.609376 1_655
B5 Ho5 2.609377 1_555
B5 Ho0 2.708788 1_655
B5 Ho0 2.708792 1_555
B6 Os2 2.368163 1_555
B6 Os2 2.368167 1_655
B6 Ho6 2.609375 1_555
B6 Ho6 2.609378 1_655
B6 Ho3 2.708793 1_554
B6 Ho3 2.708795 1_654
B7 Os3 2.368159 1_555
B7 Os3 2.368159 1_655
B7 Ho7 2.609372 1_655
B7 Ho7 2.609373 1_555
B7 Ho2 2.708790 1_556
B7 Ho2 2.708793 1_656
B8 Os0 2.380819 1_655
B8 Os0 2.380820 1_555
B8 Ho4 2.601381 1_555
B8 Ho4 2.601381 1_655
B8 Ho2 2.775470 1_555
B8 Ho2 2.775474 1_655
B9 Os1 2.380821 1_655
B9 Os1 2.380821 1_555
B9 Ho5 2.601382 1_655
B9 Ho5 2.601382 1_555
B9 Ho3 2.775466 1_655
B9 Ho3 2.775466 1_555
B10 B14 1.723623 1_555
B10 B6 1.804420 1_555
B10 B18 1.858690 1_555
B10 Os2 2.380820 1_555
B10 Os2 2.380824 1_655
B10 Ho6 2.601380 1_555
B10 Ho6 2.601383 1_655
B10 Ho0 2.775471 1_655
B10 Ho0 2.775472 1_555
B11 B15 1.723620 1_555
B11 B7 1.804413 1_555
B11 B19 1.858690 1_555
B11 Os3 2.380815 1_555
B11 Os3 2.380815 1_655
B11 Ho7 2.601379 1_655
B11 Ho7 2.601380 1_555
B11 Ho1 2.775466 1_555
B11 Ho1 2.775470 1_655
B12 B8 1.723619 1_555
B12 B18 1.786560 1_555
B12 B20 1.789559 1_555
B12 Os0 2.399362 1_655
B12 Os0 2.399364 1_555
B12 Ho6 2.588373 1_555
B12 Ho6 2.588376 1_655
B12 Ho2 2.759333 1_555
B12 Ho2 2.759336 1_655
B13 B9 1.723623 1_555
B13 B19 1.786557 1_555
B13 B21 1.789552 1_555
B13 Os1 2.399362 1_655
B13 Os1 2.399362 1_555
B13 Ho7 2.588374 1_655
B13 Ho7 2.588376 1_555
B13 Ho3 2.759332 1_555
B13 Ho3 2.759333 1_655
B14 B16 1.786561 1_545
B14 B22 1.789556 1_555
B14 Os2 2.399361 1_555
B14 Os2 2.399364 1_655
B14 Ho4 2.588376 1_545
B14 Ho4 2.588377 1_645
B14 Ho0 2.759333 1_655
B14 Ho0 2.759335 1_555
B15 B17 1.786557 1_565
B15 B23 1.789555 1_555
B15 Os3 2.399359 1_655
B15 Os3 2.399360 1_555
B15 Ho5 2.588373 1_665
B15 Ho5 2.588374 1_565
B15 Ho1 2.759333 1_555
B15 Ho1 2.759335 1_655
B16 B2 1.797085 1_565
B16 B8 1.858690 1_555
B16 Os2 2.333554 1_565
B16 Os2 2.333558 1_665
B16 Ho4 2.613020 1_555
B16 Ho4 2.613021 1_655
B16 Ho2 2.759464 1_555
B16 Ho2 2.759468 1_655
B17 B3 1.797081 1_545
B17 B9 1.858691 1_555
B17 Os3 2.333560 1_545
B17 Os3 2.333560 1_645
B17 Ho5 2.613018 1_555
B17 Ho5 2.613018 1_655
B17 Ho3 2.759463 1_555
B17 Ho3 2.759463 1_655
B18 Os0 2.333556 1_655
B18 Os0 2.333558 1_555
B18 Ho6 2.613019 1_555
B18 Ho6 2.613021 1_655
B18 Ho0 2.759466 1_655
B18 Ho0 2.759468 1_555
B19 Os1 2.333555 1_655
B19 Os1 2.333556 1_555
B19 Ho7 2.613017 1_655
B19 Ho7 2.613019 1_555
B19 Ho1 2.759462 1_555
B19 Ho1 2.759465 1_655
B20 B7 1.812452 1_554
B20 B21 2.128111 1_554
B20 Ho7 2.610390 1_654
B20 Ho7 2.610391 1_554
B20 Ho6 2.611377 1_555
B20 Ho6 2.611380 1_655
B20 Ho2 2.726854 1_555
B20 Ho2 2.726858 1_655
B21 B6 1.812451 1_556
B21 Ho6 2.610394 1_556
B21 Ho6 2.610396 1_656
B21 Ho7 2.611379 1_655
B21 Ho7 2.611380 1_555
B21 Ho3 2.726856 1_555
B21 Ho3 2.726857 1_655
B22 B5 1.812452 1_555
B22 B23 2.128109 1_545
B22 Ho5 2.610392 1_655
B22 Ho5 2.610392 1_555
B22 Ho4 2.611380 1_645
B22 Ho4 2.611381 1_545
B22 Ho0 2.726852 1_655
B22 Ho0 2.726856 1_555
B23 B4 1.812453 1_555
B23 Ho4 2.610391 1_655
B23 Ho4 2.610392 1_555
B23 Ho5 2.611376 1_665
B23 Ho5 2.611376 1_565
B23 Ho1 2.726857 1_555
B23 Ho1 2.726860 1_655
