# generated using pymatgen
data_Cr2Pt2C
_symmetry_space_group_name_H-M   'P 1'
_cell_length_a   4.80804300
_cell_length_b   4.92905300
_cell_length_c   4.80804300
_cell_angle_alpha   90.00000000
_cell_angle_beta   90.00000000
_cell_angle_gamma   90.00000000
_symmetry_Int_Tables_number   1
_chemical_formula_structural   Cr2Pt2C
_chemical_formula_sum   'Cr2 Pt2 C1'
_cell_volume   113.94628596
_cell_formula_units_Z   1
loop_
 _symmetry_equiv_pos_site_id
 _symmetry_equiv_pos_as_xyz
  1  'x, y, z'
loop_
 _atom_site_type_symbol
 _atom_site_label
 _atom_site_symmetry_multiplicity
 _atom_site_fract_x
 _atom_site_fract_y
 _atom_site_fract_z
 _atom_site_occupancy
  Cr  Cr0  1  0.00000000  0.50000000  0.50000000  1
  Cr  Cr1  1  0.50000000  0.50000000  0.00000000  1
  Pt  Pt0  1  0.50000000  0.50000000  0.50000000  1
  Pt  Pt1  1  0.50000000  0.00000000  0.50000000  1
  C  C0  1  0.00000000  0.00000000  0.00000000  1
loop_
_geom_bond_atom_site_label_1
_geom_bond_atom_site_label_2
_geom_bond_distance
_geom_bond_site_symmetry_2
Cr0 Pt0 2.404021 1_555
Cr0 Pt0 2.404021 1_455
Cr1 Pt0 2.404021 1_555
Cr1 Pt0 2.404021 1_554
Pt0 Pt1 2.464526 1_565
Pt0 Pt1 2.464526 1_555
