# generated using pymatgen
data_Li3Fe2(CoO4)2
_symmetry_space_group_name_H-M   'P 1'
_cell_length_a   5.72766100
_cell_length_b   5.75296281
_cell_length_c   5.76961960
_cell_angle_alpha   119.55570824
_cell_angle_beta   89.56512496
_cell_angle_gamma   119.82010154
_symmetry_Int_Tables_number   1
_chemical_formula_structural   Li3Fe2(CoO4)2
_chemical_formula_sum   'Li3 Fe2 Co2 O8'
_cell_volume   136.17655760
_cell_formula_units_Z   1
loop_
 _symmetry_equiv_pos_site_id
 _symmetry_equiv_pos_as_xyz
  1  'x, y, z'
loop_
 _atom_site_type_symbol
 _atom_site_label
 _atom_site_symmetry_multiplicity
 _atom_site_fract_x
 _atom_site_fract_y
 _atom_site_fract_z
 _atom_site_occupancy
  Li  Li0  1  0.00000000  0.50000000  0.50000000  1
  Li  Li1  1  0.50000000  0.50000000  0.00000000  1
  Li  Li2  1  0.50000000  0.00000000  0.50000000  1
  Fe  Fe0  1  0.00000000  0.00000000  0.50000000  1
  Fe  Fe1  1  0.50000000  0.00000000  0.00000000  1
  Co  Co0  1  0.00000000  0.00000000  0.00000000  1
  Co  Co1  1  0.00000000  0.50000000  0.00000000  1
  O  O0  1  0.23048100  0.76010200  0.21025600  1
  O  O1  1  0.24735700  0.21860300  0.77464500  1
  O  O2  1  0.21644600  0.23922500  0.22583400  1
  O  O3  1  0.24875600  0.75386800  0.76906500  1
  O  O4  1  0.75124400  0.24613200  0.23093500  1
  O  O5  1  0.78355400  0.76077500  0.77416600  1
  O  O6  1  0.75264300  0.78139700  0.22535500  1
  O  O7  1  0.76951900  0.23989800  0.78974400  1
loop_
_geom_bond_atom_site_label_1
_geom_bond_atom_site_label_2
_geom_bond_distance
_geom_bond_site_symmetry_2
Li0 O3 1.516665 1_555
Li0 O4 1.516665 1_455
Li1 O6 1.423880 1_555
Li1 O1 1.423880 1_554
Li2 O7 1.651229 1_555
Li2 O0 1.651229 1_545
Fe0 O1 1.547847 1_555
Fe0 O6 1.547847 1_445
Fe1 O3 1.411533 1_544
Fe1 O4 1.411533 1_555
Co0 O5 1.298957 1_444
Co0 O2 1.298957 1_555
Co1 O0 1.312365 1_555
Co1 O7 1.312365 1_454
