# generated using pymatgen
data_MgSi
_symmetry_space_group_name_H-M   'P 1'
_cell_length_a   4.99970500
_cell_length_b   5.03169189
_cell_length_c   9.20659209
_cell_angle_alpha   94.48600898
_cell_angle_beta   95.06898822
_cell_angle_gamma   107.49067624
_symmetry_Int_Tables_number   1
_chemical_formula_structural   MgSi
_chemical_formula_sum   'Mg6 Si6'
_cell_volume   218.69565105
_cell_formula_units_Z   6
loop_
 _symmetry_equiv_pos_site_id
 _symmetry_equiv_pos_as_xyz
  1  'x, y, z'
loop_
 _atom_site_type_symbol
 _atom_site_label
 _atom_site_symmetry_multiplicity
 _atom_site_fract_x
 _atom_site_fract_y
 _atom_site_fract_z
 _atom_site_occupancy
  Mg  Mg0  1  0.46390500  0.74546200  0.83187400  1
  Mg  Mg1  1  0.10907700  0.34043400  0.16718600  1
  Mg  Mg2  1  0.17296800  0.89679300  0.37065100  1
  Mg  Mg3  1  0.90246900  0.67882300  0.62984300  1
  Mg  Mg4  1  0.59538200  0.86044200  0.16669700  1
  Mg  Mg5  1  0.99784200  0.21945500  0.83297000  1
  Si  Si0  1  0.46190700  0.20369800  0.68697800  1
  Si  Si1  1  0.79588200  0.11867300  0.50039100  1
  Si  Si2  1  0.57767500  0.32817100  0.99751600  1
  Si  Si3  1  0.00851000  0.75945000  0.99875200  1
  Si  Si4  1  0.28184200  0.45979300  0.50142100  1
  Si  Si5  1  0.63235800  0.38875400  0.31560200  1
loop_
_geom_bond_atom_site_label_1
_geom_bond_atom_site_label_2
_geom_bond_distance
_geom_bond_site_symmetry_2
Mg0 Si0 2.754734 1_565
Mg0 Si2 2.850149 1_555
Mg0 Si3 2.871754 1_555
Mg0 Si0 2.936510 1_555
Mg0 Mg5 2.955680 1_455
Mg0 Si3 2.984635 1_655
Mg0 Mg5 2.996503 1_565
Mg0 Si2 3.064413 1_565
Mg0 Mg4 3.066505 1_556
Mg0 Mg3 3.073283 1_555
Mg0 Mg3 3.140936 1_455
Mg0 Si4 3.192275 1_555
Mg1 Si5 2.775771 1_555
Mg1 Si3 2.848431 1_554
Mg1 Si5 2.911855 1_455
Mg1 Si2 2.941325 1_554
Mg1 Si2 2.942069 1_454
Mg1 Mg4 2.949071 1_445
Mg1 Mg4 2.989570 1_555
Mg1 Mg5 3.057584 1_454
Mg1 Si3 3.077809 1_544
Mg1 Si4 3.083039 1_555
Mg1 Mg2 3.093704 1_545
Mg1 Mg2 3.159778 1_555
Mg2 Si4 2.756539 1_555
Mg2 Si1 2.771667 1_465
Mg2 Si4 2.862611 1_565
Mg2 Si5 2.940099 1_565
Mg2 Mg3 2.968890 1_455
Mg2 Si1 3.068642 1_565
Mg2 Si5 3.082069 1_455
Mg2 Si0 3.188282 1_565
Mg3 Si1 2.758976 1_565
Mg3 Si4 2.767521 1_655
Mg3 Si0 2.842530 1_555
Mg3 Si1 2.847421 1_555
Mg3 Si4 3.055008 1_555
Mg3 Mg5 3.064568 1_565
Mg3 Si5 3.128614 1_555
Mg3 Si0 3.187060 1_665
Mg3 Mg5 3.201305 1_555
Mg4 Si3 2.826253 1_654
Mg4 Si5 2.840752 1_565
Mg4 Si5 2.876539 1_555
Mg4 Si2 2.940580 1_564
Mg4 Si2 2.964342 1_554
Mg4 Si3 3.072057 1_554
Mg4 Si1 3.190594 1_565
Mg5 Si0 2.800199 1_655
Mg5 Si2 2.851429 1_555
Mg5 Si0 2.865637 1_555
Mg5 Si3 2.881361 1_645
Mg5 Si3 2.994118 1_655
Mg5 Si2 3.023146 1_655
Mg5 Si1 3.091125 1_555
Si0 Si4 2.481798 1_555
Si0 Si1 2.596813 1_555
Si0 Si2 2.847930 1_555
Si1 Si5 2.488630 1_555
Si1 Si4 2.517142 1_655
Si2 Si3 2.555627 1_655
Si2 Si5 2.900429 1_556
Si4 Si5 2.633688 1_555
