# generated using pymatgen
data_LaSnPt
_symmetry_space_group_name_H-M   'P 1'
_cell_length_a   7.68742343
_cell_length_b   7.68742448
_cell_length_c   4.20614462
_cell_angle_alpha   90.00000000
_cell_angle_beta   90.00000000
_cell_angle_gamma   119.99999552
_symmetry_Int_Tables_number   1
_chemical_formula_structural   LaSnPt
_chemical_formula_sum   'La3 Sn3 Pt3'
_cell_volume   215.26653369
_cell_formula_units_Z   3
loop_
 _symmetry_equiv_pos_site_id
 _symmetry_equiv_pos_as_xyz
  1  'x, y, z'
loop_
 _atom_site_type_symbol
 _atom_site_label
 _atom_site_symmetry_multiplicity
 _atom_site_fract_x
 _atom_site_fract_y
 _atom_site_fract_z
 _atom_site_occupancy
  La  La0  1  0.41420372  0.41420372  -0.00000000  1
  La  La1  1  0.58579628  -0.00000000  0.00000000  1
  La  La2  1  -0.00000000  0.58579628  0.00000000  1
  Sn  Sn0  1  -0.00000000  0.24826874  0.50000000  1
  Sn  Sn1  1  0.75173126  0.75173126  0.50000000  1
  Sn  Sn2  1  0.24826874  0.00000000  0.50000000  1
  Pt  Pt0  1  0.33333300  0.66666700  0.50000000  1
  Pt  Pt1  1  0.00000000  -0.00000000  -0.00000000  1
  Pt  Pt2  1  0.66666700  0.33333300  0.50000000  1
loop_
_geom_bond_atom_site_label_1
_geom_bond_atom_site_label_2
_geom_bond_distance
_geom_bond_site_symmetry_2
La0 Pt2 3.127723 1_555
La0 Pt2 3.127723 1_554
La0 Pt0 3.127723 1_555
La0 Pt0 3.127723 1_554
La0 Pt1 3.184160 1_555
La0 Sn1 3.339981 1_554
La0 Sn1 3.339981 1_555
La0 Sn0 3.482416 1_555
La0 Sn0 3.482416 1_554
La0 Sn2 3.482416 1_555
La0 Sn2 3.482416 1_554
La1 Pt2 3.127717 1_555
La1 Pt2 3.127717 1_554
La1 Pt0 3.127719 1_545
La1 Pt0 3.127719 1_544
La1 Pt1 3.184159 1_655
La1 Sn2 3.339981 1_554
La1 Sn2 3.339981 1_555
La1 Sn0 3.482416 1_654
La1 Sn0 3.482416 1_655
La1 Sn1 3.482416 1_544
La1 Sn1 3.482416 1_545
La2 Pt0 3.127717 1_554
La2 Pt0 3.127717 1_555
La2 Pt2 3.127719 1_455
La2 Pt2 3.127719 1_454
La2 Pt1 3.184160 1_565
La2 Sn0 3.339981 1_555
La2 Sn0 3.339981 1_554
La2 Sn1 3.482416 1_455
La2 Sn1 3.482416 1_454
La2 Sn2 3.482416 1_565
La2 Sn2 3.482416 1_564
Pt0 Sn2 2.944409 1_565
Pt0 Sn0 2.944415 1_555
Pt0 Sn1 2.944417 1_555
Pt1 Sn2 2.839976 1_555
Pt1 Sn2 2.839976 1_554
Pt1 Sn1 2.839976 1_444
Pt1 Sn1 2.839976 1_445
Pt1 Sn0 2.839976 1_555
Pt1 Sn0 2.839976 1_554
Pt2 Sn0 2.944409 1_655
Pt2 Sn2 2.944414 1_555
Pt2 Sn1 2.944417 1_555
