# generated using pymatgen
data_CaCo6(OF5)2
_symmetry_space_group_name_H-M   'P 1'
_cell_length_a   5.38140983
_cell_length_b   5.46638635
_cell_length_c   9.26739841
_cell_angle_alpha   97.44297892
_cell_angle_beta   89.04408876
_cell_angle_gamma   103.80553778
_symmetry_Int_Tables_number   1
_chemical_formula_structural   CaCo6(OF5)2
_chemical_formula_sum   'Ca1 Co6 O2 F10'
_cell_volume   262.48290798
_cell_formula_units_Z   1
loop_
 _symmetry_equiv_pos_site_id
 _symmetry_equiv_pos_as_xyz
  1  'x, y, z'
loop_
 _atom_site_type_symbol
 _atom_site_label
 _atom_site_symmetry_multiplicity
 _atom_site_fract_x
 _atom_site_fract_y
 _atom_site_fract_z
 _atom_site_occupancy
  Ca  Ca0  1  0.72913500  0.40059300  0.74285000  1
  Co  Co0  1  0.91751500  0.91744000  0.01057800  1
  Co  Co1  1  0.05188000  0.10281300  0.33128700  1
  Co  Co2  1  0.03936500  0.97875900  0.66158000  1
  Co  Co3  1  0.58356900  0.41665700  0.15545100  1
  Co  Co4  1  0.29305300  0.55682500  0.94254700  1
  Co  Co5  1  0.47553300  0.66969500  0.43594100  1
  O  O0  1  0.35477100  0.36019300  0.31778500  1
  O  O1  1  0.65757700  0.59513300  0.97821100  1
  F  F0  1  0.17385300  0.76796700  0.10601900  1
  F  F1  1  0.11031700  0.71161200  0.79654600  1
  F  F2  1  0.24284800  0.89725900  0.48375600  1
  F  F3  1  0.24264500  0.21692700  0.01274000  1
  F  F4  1  0.30957200  0.29467500  0.73133400  1
  F  F5  1  0.70372900  0.70452000  0.60843000  1
  F  F6  1  0.78067800  0.76556000  0.30782800  1
  F  F7  1  0.81149200  0.17250200  0.17152500  1
  F  F8  1  0.82449200  0.07793200  0.83491000  1
  F  F9  1  0.89241900  0.19849200  0.53496900  1
loop_
_geom_bond_atom_site_label_1
_geom_bond_atom_site_label_2
_geom_bond_distance
_geom_bond_site_symmetry_2
Ca0 F4 2.193763 1_555
Ca0 F8 2.222293 1_555
Ca0 F5 2.231814 1_555
Ca0 F1 2.344439 1_655
Ca0 F9 2.357855 1_555
Ca0 O1 2.367110 1_555
Co0 O1 1.962577 1_554
Co0 F0 2.029463 1_655
Co0 F8 2.068194 1_564
Co0 F7 2.075268 1_565
Co0 F3 2.089849 1_665
Co0 F1 2.487380 1_654
Co1 O0 1.896390 1_555
Co1 F6 2.049051 1_445
Co1 F7 2.110907 1_455
Co1 F9 2.115974 1_455
Co1 F2 2.307838 1_545
Co2 F4 2.014504 1_565
Co2 F2 2.023797 1_555
Co2 F8 2.054949 1_465
Co2 F9 2.072257 1_465
Co2 F5 2.073255 1_455
Co2 F1 2.144312 1_555
Co3 O0 1.936916 1_555
Co3 O1 2.004081 1_554
Co3 F7 2.036360 1_555
Co3 F3 2.249005 1_555
Co3 F6 2.267934 1_555
Co4 O1 1.951621 1_555
Co4 F0 1.976519 1_556
Co4 F3 2.003912 1_556
Co4 F1 2.061991 1_555
Co4 F4 2.284974 1_555
Co5 O0 1.871571 1_555
Co5 F2 1.973267 1_555
Co5 F5 1.993648 1_555
Co5 F6 2.016485 1_555
