# generated using pymatgen
data_CeGe3Pt5
_symmetry_space_group_name_H-M   'P 1'
_cell_length_a   4.22720500
_cell_length_b   20.50549000
_cell_length_c   7.33812700
_cell_angle_alpha   90.00000000
_cell_angle_beta   90.00000000
_cell_angle_gamma   90.00000000
_symmetry_Int_Tables_number   1
_chemical_formula_structural   CeGe3Pt5
_chemical_formula_sum   'Ce4 Ge12 Pt20'
_cell_volume   636.07552499
_cell_formula_units_Z   4
loop_
 _symmetry_equiv_pos_site_id
 _symmetry_equiv_pos_as_xyz
  1  'x, y, z'
loop_
 _atom_site_type_symbol
 _atom_site_label
 _atom_site_symmetry_multiplicity
 _atom_site_fract_x
 _atom_site_fract_y
 _atom_site_fract_z
 _atom_site_occupancy
  Ce  Ce0  1  0.75000000  0.64606400  0.12215400  1
  Ce  Ce1  1  0.25000000  0.35393600  0.87784600  1
  Ce  Ce2  1  0.25000000  0.85393600  0.62215400  1
  Ce  Ce3  1  0.75000000  0.14606400  0.37784600  1
  Ge  Ge0  1  0.75000000  0.73639300  0.61584000  1
  Ge  Ge1  1  0.25000000  0.26360700  0.38416000  1
  Ge  Ge2  1  0.25000000  0.76360700  0.11584000  1
  Ge  Ge3  1  0.75000000  0.23639300  0.88416000  1
  Ge  Ge4  1  0.75000000  0.92388700  0.34299800  1
  Ge  Ge5  1  0.25000000  0.07611300  0.65700200  1
  Ge  Ge6  1  0.25000000  0.57611300  0.84299800  1
  Ge  Ge7  1  0.75000000  0.42388700  0.15700200  1
  Ge  Ge8  1  0.75000000  0.91433500  0.90965900  1
  Ge  Ge9  1  0.25000000  0.08566500  0.09034100  1
  Ge  Ge10  1  0.25000000  0.58566500  0.40965900  1
  Ge  Ge11  1  0.75000000  0.41433500  0.59034100  1
  Pt  Pt0  1  0.75000000  0.79941700  0.32119800  1
  Pt  Pt1  1  0.25000000  0.20058300  0.67880200  1
  Pt  Pt2  1  0.25000000  0.70058300  0.82119800  1
  Pt  Pt3  1  0.75000000  0.29941700  0.17880200  1
  Pt  Pt4  1  0.75000000  0.98779100  0.62463900  1
  Pt  Pt5  1  0.25000000  0.01220900  0.37536100  1
  Pt  Pt6  1  0.25000000  0.51220900  0.12463900  1
  Pt  Pt7  1  0.75000000  0.48779100  0.87536100  1
  Pt  Pt8  1  0.75000000  0.51896300  0.38011700  1
  Pt  Pt9  1  0.25000000  0.48103700  0.61988300  1
  Pt  Pt10  1  0.25000000  0.98103700  0.88011700  1
  Pt  Pt11  1  0.75000000  0.01896300  0.11988300  1
  Pt  Pt12  1  0.75000000  0.79555600  0.91540300  1
  Pt  Pt13  1  0.25000000  0.20444400  0.08459700  1
  Pt  Pt14  1  0.25000000  0.70444400  0.41540300  1
  Pt  Pt15  1  0.75000000  0.29555600  0.58459700  1
  Pt  Pt16  1  0.75000000  0.61603900  0.67429200  1
  Pt  Pt17  1  0.25000000  0.38396100  0.32570800  1
  Pt  Pt18  1  0.25000000  0.88396100  0.17429200  1
  Pt  Pt19  1  0.75000000  0.11603900  0.82570800  1
loop_
_geom_bond_atom_site_label_1
_geom_bond_atom_site_label_2
_geom_bond_distance
_geom_bond_site_symmetry_2
Ce0 Ge2 3.206072 1_555
Ce0 Ge2 3.206072 1_655
Ce0 Pt8 3.221172 1_555
Ce0 Ge10 3.232996 1_555
Ce0 Ge10 3.232996 1_655
Ce0 Pt14 3.245159 1_555
Ce0 Pt14 3.245159 1_655
Ce0 Pt2 3.254899 1_554
Ce0 Pt2 3.254899 1_654
Ce0 Ge6 3.274300 1_554
Ce0 Ge6 3.274300 1_654
Ce0 Pt16 3.343641 1_554
Ce0 Pt12 3.420308 1_554
Ce0 Pt6 3.464299 1_655
Ce0 Pt6 3.464299 1_555
Ce0 Pt0 3.467240 1_555
Ce0 Pt7 3.716552 1_554
Ce1 Ge3 3.206072 1_455
Ce1 Ge3 3.206072 1_555
Ce1 Pt9 3.221172 1_555
Ce1 Ge11 3.232996 1_555
Ce1 Ge11 3.232996 1_455
Ce1 Pt15 3.245159 1_555
Ce1 Pt15 3.245159 1_455
Ce1 Pt3 3.254899 1_556
Ce1 Pt3 3.254899 1_456
Ce1 Ge7 3.274300 1_456
Ce1 Ge7 3.274300 1_556
Ce1 Pt17 3.343641 1_556
Ce1 Pt13 3.420308 1_556
Ce1 Pt7 3.464299 1_555
Ce1 Pt7 3.464299 1_455
Ce1 Pt1 3.467240 1_555
Ce1 Pt6 3.716552 1_556
Ce2 Ge0 3.206072 1_555
Ce2 Ge0 3.206072 1_455
Ce2 Pt10 3.221172 1_555
Ce2 Ge8 3.232996 1_555
Ce2 Ge8 3.232996 1_455
Ce2 Pt12 3.245159 1_555
Ce2 Pt12 3.245159 1_455
Ce2 Pt0 3.254899 1_555
Ce2 Pt0 3.254899 1_455
Ce2 Ge4 3.274300 1_455
Ce2 Ge4 3.274300 1_555
Ce2 Pt18 3.343641 1_555
Ce2 Pt14 3.420308 1_555
Ce2 Pt4 3.464299 1_555
Ce2 Pt4 3.464299 1_455
Ce2 Pt2 3.467240 1_555
Ce2 Pt5 3.716552 1_565
Ce3 Ge1 3.206072 1_555
Ce3 Ge1 3.206072 1_655
Ce3 Pt11 3.221172 1_555
Ce3 Ge9 3.232996 1_655
Ce3 Ge9 3.232996 1_555
Ce3 Pt13 3.245159 1_555
Ce3 Pt13 3.245159 1_655
Ce3 Pt1 3.254899 1_555
Ce3 Pt1 3.254899 1_655
Ce3 Ge5 3.274300 1_555
Ce3 Ge5 3.274300 1_655
Ce3 Pt19 3.343641 1_555
Ce3 Pt15 3.420308 1_555
Ce3 Pt5 3.464299 1_555
Ce3 Pt5 3.464299 1_655
Ce3 Pt3 3.467240 1_555
Ce3 Pt4 3.716552 1_545
Ge0 Pt16 2.504915 1_555
Ge0 Pt12 2.510775 1_555
Ge0 Pt0 2.518909 1_555
Ge0 Pt14 2.657039 1_555
Ge0 Pt14 2.657039 1_655
Ge0 Pt2 2.697664 1_555
Ge0 Pt2 2.697664 1_655
Ge1 Pt17 2.504915 1_555
Ge1 Pt13 2.510775 1_555
Ge1 Pt1 2.518909 1_555
Ge1 Pt15 2.657039 1_555
Ge1 Pt15 2.657039 1_455
Ge1 Pt3 2.697664 1_555
Ge1 Pt3 2.697664 1_455
Ge2 Pt18 2.504915 1_555
Ge2 Pt14 2.510775 1_555
Ge2 Pt2 2.518909 1_554
Ge2 Pt12 2.657039 1_554
Ge2 Pt12 2.657039 1_454
Ge2 Pt0 2.697664 1_455
Ge2 Pt0 2.697664 1_555
Ge3 Pt19 2.504915 1_555
Ge3 Pt15 2.510775 1_555
Ge3 Pt3 2.518909 1_556
Ge3 Pt13 2.657039 1_556
Ge3 Pt13 2.657039 1_656
Ge3 Pt1 2.697664 1_555
Ge3 Pt1 2.697664 1_655
Ge4 Pt4 2.447126 1_555
Ge4 Pt11 2.545867 1_565
Ge4 Pt0 2.557327 1_555
Ge4 Pt18 2.582673 1_555
Ge4 Pt18 2.582673 1_655
Ge4 Pt5 2.793519 1_565
Ge4 Pt5 2.793519 1_665
Ge5 Pt5 2.447126 1_555
Ge5 Pt10 2.545867 1_545
Ge5 Pt1 2.557327 1_555
Ge5 Pt19 2.582673 1_555
Ge5 Pt19 2.582673 1_455
Ge5 Pt4 2.793519 1_545
Ge5 Pt4 2.793519 1_445
Ge6 Pt6 2.447126 1_556
Ge6 Pt9 2.545867 1_555
Ge6 Pt2 2.557327 1_555
Ge6 Pt16 2.582673 1_555
Ge6 Pt16 2.582673 1_455
Ge6 Pt7 2.793519 1_555
Ge6 Pt7 2.793519 1_455
Ge7 Pt7 2.447126 1_554
Ge7 Pt8 2.545867 1_555
Ge7 Pt3 2.557327 1_555
Ge7 Pt17 2.582673 1_555
Ge7 Pt17 2.582673 1_655
Ge7 Pt6 2.793519 1_555
Ge7 Pt6 2.793519 1_655
Ge8 Pt12 2.435986 1_555
Ge8 Pt10 2.526870 1_555
Ge8 Pt10 2.526870 1_655
Ge8 Pt4 2.577444 1_555
Ge8 Pt11 2.642484 1_566
Ge8 Pt18 2.937049 1_556
Ge8 Pt18 2.937049 1_656
Ge9 Pt13 2.435986 1_555
Ge9 Pt11 2.526870 1_555
Ge9 Pt11 2.526870 1_455
Ge9 Pt5 2.577444 1_555
Ge9 Pt10 2.642484 1_544
Ge9 Pt19 2.937049 1_454
Ge9 Pt19 2.937049 1_554
Ge10 Pt14 2.435986 1_555
Ge10 Pt8 2.526870 1_555
Ge10 Pt8 2.526870 1_455
Ge10 Pt6 2.577444 1_555
Ge10 Pt9 2.642484 1_555
Ge10 Pt16 2.937049 1_455
Ge10 Pt16 2.937049 1_555
Ge11 Pt15 2.435986 1_555
Ge11 Pt9 2.526870 1_655
Ge11 Pt9 2.526870 1_555
Ge11 Pt7 2.577444 1_555
Ge11 Pt8 2.642484 1_555
Ge11 Pt17 2.937049 1_555
Ge11 Pt17 2.937049 1_655
Pt0 Pt18 2.938513 1_555
Pt0 Pt18 2.938513 1_655
Pt0 Pt14 2.955981 1_555
Pt0 Pt14 2.955981 1_655
Pt0 Pt12 2.978828 1_554
Pt1 Pt19 2.938513 1_455
Pt1 Pt19 2.938513 1_555
Pt1 Pt15 2.955981 1_455
Pt1 Pt15 2.955981 1_555
Pt1 Pt13 2.978828 1_556
Pt6 Pt8 2.828623 1_555
Pt6 Pt8 2.828623 1_455
Pt7 Pt9 2.828623 1_655
Pt7 Pt9 2.828623 1_555
Pt8 Pt9 2.857923 1_655
Pt8 Pt9 2.857923 1_555
Pt10 Pt4 2.828623 1_455
Pt10 Pt4 2.828623 1_555
Pt10 Pt11 2.857923 1_566
Pt10 Pt11 2.857923 1_466
Pt10 Pt18 2.936394 1_556
Pt11 Pt5 2.828623 1_555
Pt11 Pt5 2.828623 1_655
Pt11 Pt19 2.936394 1_554
Pt12 Pt2 2.955981 1_655
Pt12 Pt2 2.955981 1_555
Pt13 Pt3 2.955981 1_455
Pt13 Pt3 2.955981 1_555
Pt14 Pt2 2.978828 1_555
Pt15 Pt3 2.978828 1_555
Pt16 Pt8 2.936394 1_555
Pt16 Pt2 2.938513 1_555
Pt16 Pt2 2.938513 1_655
Pt17 Pt9 2.936394 1_555
Pt17 Pt3 2.938513 1_455
Pt17 Pt3 2.938513 1_555
