# generated using pymatgen
data_K3Na(SeO4)2
_symmetry_space_group_name_H-M   'P 1'
_cell_length_a   5.82517754
_cell_length_b   5.82517754
_cell_length_c   15.00435104
_cell_angle_alpha   90.40928260
_cell_angle_beta   90.40928260
_cell_angle_gamma   60.43329322
_symmetry_Int_Tables_number   1
_chemical_formula_structural   K3Na(SeO4)2
_chemical_formula_sum   'K6 Na2 Se4 O16'
_cell_volume   442.82387251
_cell_formula_units_Z   2
loop_
 _symmetry_equiv_pos_site_id
 _symmetry_equiv_pos_as_xyz
  1  'x, y, z'
loop_
 _atom_site_type_symbol
 _atom_site_label
 _atom_site_symmetry_multiplicity
 _atom_site_fract_x
 _atom_site_fract_y
 _atom_site_fract_z
 _atom_site_occupancy
  K  K0  1  0.05383361  0.94616639  0.25000000  1
  K  K1  1  0.94616639  0.05383361  0.75000000  1
  K  K2  1  0.69769942  0.64784663  0.41114567  1
  K  K3  1  0.35215337  0.30230058  0.08885433  1
  K  K4  1  0.30230058  0.35215337  0.58885433  1
  K  K5  1  0.64784663  0.69769942  0.91114567  1
  Na  Na0  1  -0.00000000  0.00000000  0.00000000  1
  Na  Na1  1  -0.00000000  0.00000000  0.50000000  1
  Se  Se0  1  0.68157318  0.64596489  0.13512753  1
  Se  Se1  1  0.35403511  0.31842682  0.36487247  1
  Se  Se2  1  0.31842682  0.35403511  0.86487247  1
  Se  Se3  1  0.64596489  0.68157318  0.63512753  1
  O  O0  1  0.85502663  0.77442959  0.09233756  1
  O  O1  1  0.22557041  0.14497337  0.40766244  1
  O  O2  1  0.14497337  0.22557041  0.90766244  1
  O  O3  1  0.77442959  0.85502663  0.59233756  1
  O  O4  1  0.84226044  0.32306482  0.11734842  1
  O  O5  1  0.67693518  0.15773956  0.38265158  1
  O  O6  1  0.15773956  0.67693518  0.88265158  1
  O  O7  1  0.32306482  0.84226044  0.61734842  1
  O  O8  1  0.39569276  0.77521635  0.08041855  1
  O  O9  1  0.22478365  0.60430724  0.41958145  1
  O  O10  1  0.60430724  0.22478365  0.91958145  1
  O  O11  1  0.77521635  0.39569276  0.58041855  1
  O  O12  1  0.72258093  0.62283536  0.74099636  1
  O  O13  1  0.37716464  0.27741907  0.75900364  1
  O  O14  1  0.27741907  0.37716464  0.25900364  1
  O  O15  1  0.62283536  0.72258093  0.24099636  1
loop_
_geom_bond_atom_site_label_1
_geom_bond_atom_site_label_2
_geom_bond_distance
_geom_bond_site_symmetry_2
K0 O4 2.767257 1_465
K0 O5 2.767257 1_465
K0 O14 2.905913 1_555
K0 O15 2.905913 1_555
K0 O1 3.001419 1_565
K0 O0 3.001419 1_455
K0 O8 3.083946 1_555
K0 O9 3.083946 1_555
K0 O14 3.352241 1_565
K0 O15 3.352241 1_455
K1 O7 2.767257 1_645
K1 O6 2.767257 1_645
K1 O12 2.905913 1_555
K1 O13 2.905913 1_555
K1 O2 3.001419 1_655
K1 O3 3.001419 1_545
K1 O10 3.083946 1_555
K1 O11 3.083946 1_555
K1 O12 3.352241 1_545
K1 O13 3.352241 1_655
K2 O15 2.590371 1_555
K2 O1 2.844796 1_565
K2 O11 2.862602 1_555
K2 O9 2.892115 1_555
K2 O5 2.944627 1_555
K2 O5 2.946601 1_565
K2 O9 2.955311 1_655
K2 O1 3.024863 1_655
K2 O3 3.084729 1_555
K3 O14 2.590371 1_555
K3 O0 2.844796 1_455
K3 O10 2.862602 1_554
K3 O8 2.892115 1_555
K3 O4 2.944627 1_555
K3 O4 2.946601 1_455
K3 O8 2.955311 1_545
K3 O0 3.024863 1_545
K3 O2 3.084729 1_554
K4 O13 2.590371 1_555
K4 O3 2.844796 1_545
K4 O9 2.862602 1_555
K4 O11 2.892115 1_555
K4 O7 2.944627 1_555
K4 O7 2.946601 1_545
K4 O11 2.955311 1_455
K4 O3 3.024863 1_455
K4 O1 3.084729 1_555
K5 O12 2.590371 1_555
K5 O2 2.844796 1_655
K5 O8 2.862602 1_556
K5 O10 2.892115 1_555
K5 O6 2.944627 1_555
K5 O6 2.946601 1_655
K5 O10 2.955311 1_565
K5 O2 3.024863 1_565
K5 O0 3.084729 1_556
Na0 O10 2.342591 1_454
Na0 O8 2.342591 1_545
Na0 O0 2.344582 1_445
Na0 O2 2.344582 1_554
Na0 O4 2.399030 1_455
Na0 O6 2.399030 1_544
Na1 O9 2.342591 1_545
Na1 O11 2.342591 1_455
Na1 O1 2.344582 1_555
Na1 O3 2.344582 1_445
Na1 O7 2.399030 1_545
Na1 O5 2.399030 1_455
O0 Se0 1.659948 1_555
O1 Se1 1.659948 1_555
O2 Se2 1.659948 1_555
O3 Se3 1.659948 1_555
O4 Se0 1.656555 1_555
O5 Se1 1.656555 1_555
O6 Se2 1.656555 1_555
O7 Se3 1.656555 1_555
O8 Se0 1.663093 1_555
O9 Se1 1.663093 1_555
O10 Se2 1.663093 1_555
O11 Se3 1.663093 1_555
O12 Se3 1.639056 1_555
O13 Se2 1.639056 1_555
O14 Se1 1.639056 1_555
O15 Se0 1.639056 1_555
