# generated using pymatgen
data_ErCu(MoO4)2
_symmetry_space_group_name_H-M   'P 1'
_cell_length_a   9.68624500
_cell_length_b   9.96103400
_cell_length_c   13.77289200
_cell_angle_alpha   90.00000000
_cell_angle_beta   90.00000000
_cell_angle_gamma   90.00000000
_symmetry_Int_Tables_number   1
_chemical_formula_structural   ErCu(MoO4)2
_chemical_formula_sum   'Er8 Cu8 Mo16 O64'
_cell_volume   1328.87770192
_cell_formula_units_Z   8
loop_
 _symmetry_equiv_pos_site_id
 _symmetry_equiv_pos_as_xyz
  1  'x, y, z'
loop_
 _atom_site_type_symbol
 _atom_site_label
 _atom_site_symmetry_multiplicity
 _atom_site_fract_x
 _atom_site_fract_y
 _atom_site_fract_z
 _atom_site_occupancy
  Er  Er0  1  0.46178500  0.38348800  0.12678600  1
  Er  Er1  1  0.53821500  0.61651200  0.87321400  1
  Er  Er2  1  0.96178500  0.11651200  0.87321400  1
  Er  Er3  1  0.03821500  0.61651200  0.62678600  1
  Er  Er4  1  0.03821500  0.88348800  0.12678600  1
  Er  Er5  1  0.96178500  0.38348800  0.37321400  1
  Er  Er6  1  0.53821500  0.88348800  0.37321400  1
  Er  Er7  1  0.46178500  0.11651200  0.62678600  1
  Cu  Cu0  1  0.26573200  0.43080100  0.48115300  1
  Cu  Cu1  1  0.73426800  0.56919900  0.51884700  1
  Cu  Cu2  1  0.76573200  0.06919900  0.51884700  1
  Cu  Cu3  1  0.23426800  0.56919900  0.98115300  1
  Cu  Cu4  1  0.23426800  0.93080100  0.48115300  1
  Cu  Cu5  1  0.76573200  0.43080100  0.01884700  1
  Cu  Cu6  1  0.73426800  0.93080100  0.01884700  1
  Cu  Cu7  1  0.26573200  0.06919900  0.98115300  1
  Mo  Mo0  1  0.08859000  0.28510800  0.07857300  1
  Mo  Mo1  1  0.91141000  0.71489200  0.92142700  1
  Mo  Mo2  1  0.58859000  0.21489200  0.92142700  1
  Mo  Mo3  1  0.41141000  0.71489200  0.57857300  1
  Mo  Mo4  1  0.41141000  0.78510800  0.07857300  1
  Mo  Mo5  1  0.58859000  0.28510800  0.42142700  1
  Mo  Mo6  1  0.91141000  0.78510800  0.42142700  1
  Mo  Mo7  1  0.08859000  0.21489200  0.57857300  1
  Mo  Mo8  1  0.23203100  0.13324500  0.29078700  1
  Mo  Mo9  1  0.76796900  0.86675500  0.70921300  1
  Mo  Mo10  1  0.73203100  0.36675500  0.70921300  1
  Mo  Mo11  1  0.26796900  0.86675500  0.79078700  1
  Mo  Mo12  1  0.26796900  0.63324500  0.29078700  1
  Mo  Mo13  1  0.73203100  0.13324500  0.20921300  1
  Mo  Mo14  1  0.76796900  0.63324500  0.20921300  1
  Mo  Mo15  1  0.23203100  0.36675500  0.79078700  1
  O  O0  1  0.44322600  0.35306700  0.48456100  1
  O  O1  1  0.55677400  0.64693300  0.51543900  1
  O  O2  1  0.94322600  0.14693300  0.51543900  1
  O  O3  1  0.05677400  0.64693300  0.98456100  1
  O  O4  1  0.05677400  0.85306700  0.48456100  1
  O  O5  1  0.94322600  0.35306700  0.01543900  1
  O  O6  1  0.55677400  0.85306700  0.01543900  1
  O  O7  1  0.44322600  0.14693300  0.98456100  1
  O  O8  1  0.24259800  0.39017600  0.05793600  1
  O  O9  1  0.75740200  0.60982400  0.94206400  1
  O  O10  1  0.74259800  0.10982400  0.94206400  1
  O  O11  1  0.25740200  0.60982400  0.55793600  1
  O  O12  1  0.25740200  0.89017600  0.05793600  1
  O  O13  1  0.74259800  0.39017600  0.44206400  1
  O  O14  1  0.75740200  0.89017600  0.44206400  1
  O  O15  1  0.24259800  0.10982400  0.55793600  1
  O  O16  1  0.08020400  0.10454000  0.03841900  1
  O  O17  1  0.91979600  0.89546000  0.96158100  1
  O  O18  1  0.58020400  0.39546000  0.96158100  1
  O  O19  1  0.41979600  0.89546000  0.53841900  1
  O  O20  1  0.41979600  0.60454000  0.03841900  1
  O  O21  1  0.58020400  0.10454000  0.46158100  1
  O  O22  1  0.91979600  0.60454000  0.46158100  1
  O  O23  1  0.08020400  0.39546000  0.53841900  1
  O  O24  1  0.11382800  0.01325100  0.24263300  1
  O  O25  1  0.88617200  0.98674900  0.75736700  1
  O  O26  1  0.61382800  0.48674900  0.75736700  1
  O  O27  1  0.38617200  0.98674900  0.74263300  1
  O  O28  1  0.38617200  0.51325100  0.24263300  1
  O  O29  1  0.61382800  0.01325100  0.25736700  1
  O  O30  1  0.88617200  0.51325100  0.25736700  1
  O  O31  1  0.11382800  0.48674900  0.74263300  1
  O  O32  1  0.32436100  0.21155500  0.19223400  1
  O  O33  1  0.67563900  0.78844500  0.80776600  1
  O  O34  1  0.82436100  0.28844500  0.80776600  1
  O  O35  1  0.17563900  0.78844500  0.69223400  1
  O  O36  1  0.17563900  0.71155500  0.19223400  1
  O  O37  1  0.82436100  0.21155500  0.30776600  1
  O  O38  1  0.67563900  0.71155500  0.30776600  1
  O  O39  1  0.32436100  0.28844500  0.69223400  1
  O  O40  1  0.04845200  0.29631000  0.20380200  1
  O  O41  1  0.95154800  0.70369000  0.79619800  1
  O  O42  1  0.54845200  0.20369000  0.79619800  1
  O  O43  1  0.45154800  0.70369000  0.70380200  1
  O  O44  1  0.45154800  0.79631000  0.20380200  1
  O  O45  1  0.54845200  0.29631000  0.29619800  1
  O  O46  1  0.95154800  0.79631000  0.29619800  1
  O  O47  1  0.04845200  0.20369000  0.70380200  1
  O  O48  1  0.34999500  0.03028500  0.35880900  1
  O  O49  1  0.65000500  0.96971500  0.64119100  1
  O  O50  1  0.84999500  0.46971500  0.64119100  1
  O  O51  1  0.15000500  0.96971500  0.85880900  1
  O  O52  1  0.15000500  0.53028500  0.35880900  1
  O  O53  1  0.84999500  0.03028500  0.14119100  1
  O  O54  1  0.65000500  0.53028500  0.14119100  1
  O  O55  1  0.34999500  0.46971500  0.85880900  1
  O  O56  1  0.15129700  0.24447500  0.37924900  1
  O  O57  1  0.84870300  0.75552500  0.62075100  1
  O  O58  1  0.65129700  0.25552500  0.62075100  1
  O  O59  1  0.34870300  0.75552500  0.87924900  1
  O  O60  1  0.34870300  0.74447500  0.37924900  1
  O  O61  1  0.65129700  0.24447500  0.12075100  1
  O  O62  1  0.84870300  0.74447500  0.12075100  1
  O  O63  1  0.15129700  0.25552500  0.87924900  1
loop_
_geom_bond_atom_site_label_1
_geom_bond_atom_site_label_2
_geom_bond_distance
_geom_bond_site_symmetry_2
Er0 O28 2.180124 1_555
Er0 O61 2.300866 1_555
Er0 O8 2.326197 1_555
Er0 O54 2.345505 1_555
Er0 O32 2.348942 1_555
Er0 O20 2.548542 1_555
Er0 O18 2.550908 1_554
Er0 O45 2.627369 1_555
Er0 O7 3.069480 1_554
Er1 O26 2.180124 1_555
Er1 O59 2.300866 1_555
Er1 O9 2.326197 1_555
Er1 O55 2.345505 1_555
Er1 O33 2.348942 1_555
Er1 O18 2.548542 1_555
Er1 O20 2.550908 1_556
Er1 O43 2.627369 1_555
Er1 O6 3.069480 1_556
Er2 O25 2.180124 1_545
Er2 O63 2.300866 1_655
Er2 O10 2.326197 1_555
Er2 O51 2.345505 1_645
Er2 O34 2.348942 1_555
Er2 O17 2.548542 1_545
Er2 O16 2.550908 1_656
Er2 O47 2.627369 1_655
Er2 O5 3.069480 1_556
Er3 O31 2.180124 1_555
Er3 O57 2.300866 1_455
Er3 O11 2.326197 1_555
Er3 O50 2.345505 1_455
Er3 O35 2.348942 1_555
Er3 O23 2.548542 1_555
Er3 O22 2.550908 1_455
Er3 O41 2.627369 1_455
Er3 O4 3.069480 1_555
Er4 O24 2.180124 1_565
Er4 O62 2.300866 1_455
Er4 O12 2.326197 1_555
Er4 O53 2.345505 1_465
Er4 O36 2.348942 1_555
Er4 O16 2.548542 1_565
Er4 O17 2.550908 1_454
Er4 O46 2.627369 1_455
Er4 O3 3.069480 1_554
Er5 O30 2.180124 1_555
Er5 O56 2.300866 1_655
Er5 O13 2.326197 1_555
Er5 O52 2.345505 1_655
Er5 O37 2.348942 1_555
Er5 O22 2.548542 1_555
Er5 O23 2.550908 1_655
Er5 O40 2.627369 1_655
Er5 O2 3.069480 1_555
Er6 O29 2.180124 1_565
Er6 O60 2.300866 1_555
Er6 O14 2.326197 1_555
Er6 O48 2.345505 1_565
Er6 O38 2.348942 1_555
Er6 O21 2.548542 1_565
Er6 O19 2.550908 1_555
Er6 O44 2.627369 1_555
Er6 O1 3.069480 1_555
Er7 O27 2.180124 1_545
Er7 O58 2.300866 1_555
Er7 O15 2.326197 1_555
Er7 O49 2.345505 1_545
Er7 O39 2.348942 1_555
Er7 O19 2.548542 1_545
Er7 O21 2.550908 1_555
Er7 O42 2.627369 1_555
Er7 O0 3.069480 1_555
Cu0 O0 1.886155 1_555
Cu0 O23 1.993856 1_555
Cu0 O11 2.074816 1_555
Cu0 O52 2.253417 1_555
Cu0 O56 2.577447 1_555
Cu1 O1 1.886155 1_555
Cu1 O22 1.993856 1_555
Cu1 O13 2.074816 1_555
Cu1 O50 2.253417 1_555
Cu1 O57 2.577447 1_555
Cu2 O2 1.886155 1_555
Cu2 O21 1.993856 1_555
Cu2 O14 2.074816 1_545
Cu2 O49 2.253417 1_545
Cu2 O58 2.577447 1_555
Cu3 O3 1.886155 1_555
Cu3 O20 1.993856 1_556
Cu3 O8 2.074816 1_556
Cu3 O55 2.253417 1_555
Cu3 O59 2.577447 1_555
Cu4 O4 1.886155 1_555
Cu4 O19 1.993856 1_555
Cu4 O15 2.074816 1_565
Cu4 O48 2.253417 1_565
Cu4 O60 2.577447 1_555
Cu5 O5 1.886155 1_555
Cu5 O18 1.993856 1_554
Cu5 O9 2.074816 1_554
Cu5 O54 2.253417 1_555
Cu5 O61 2.577447 1_555
Cu6 O6 1.886155 1_555
Cu6 O17 1.993856 1_554
Cu6 O10 2.074816 1_564
Cu6 O53 2.253417 1_565
Cu6 O62 2.577447 1_555
Cu7 O7 1.886155 1_555
Cu7 O16 1.993856 1_556
Cu7 O12 2.074816 1_546
Cu7 O51 2.253417 1_545
Cu7 O63 2.577447 1_555
Mo0 O40 1.771559 1_555
Mo0 O5 1.787987 1_455
Mo0 O8 1.844309 1_555
Mo0 O16 1.883499 1_555
Mo1 O41 1.771559 1_555
Mo1 O3 1.787987 1_655
Mo1 O9 1.844309 1_555
Mo1 O17 1.883499 1_555
Mo2 O42 1.771559 1_555
Mo2 O7 1.787987 1_555
Mo2 O10 1.844309 1_555
Mo2 O18 1.883499 1_555
Mo3 O43 1.771559 1_555
Mo3 O1 1.787987 1_555
Mo3 O11 1.844309 1_555
Mo3 O19 1.883499 1_555
Mo4 O44 1.771559 1_555
Mo4 O6 1.787987 1_555
Mo4 O12 1.844309 1_555
Mo4 O20 1.883499 1_555
Mo5 O45 1.771559 1_555
Mo5 O0 1.787987 1_555
Mo5 O13 1.844309 1_555
Mo5 O21 1.883499 1_555
Mo6 O46 1.771559 1_555
Mo6 O4 1.787987 1_655
Mo6 O14 1.844309 1_555
Mo6 O22 1.883499 1_555
Mo7 O47 1.771559 1_555
Mo7 O2 1.787987 1_455
Mo7 O15 1.844309 1_555
Mo7 O23 1.883499 1_555
Mo8 O24 1.783091 1_555
Mo8 O48 1.798648 1_555
Mo8 O32 1.802978 1_555
Mo8 O56 1.823066 1_555
Mo9 O25 1.783091 1_555
Mo9 O49 1.798648 1_555
Mo9 O33 1.802978 1_555
Mo9 O57 1.823066 1_555
Mo10 O26 1.783091 1_555
Mo10 O50 1.798648 1_555
Mo10 O34 1.802978 1_555
Mo10 O58 1.823066 1_555
Mo11 O27 1.783091 1_555
Mo11 O51 1.798648 1_555
Mo11 O35 1.802978 1_555
Mo11 O59 1.823066 1_555
Mo12 O28 1.783091 1_555
Mo12 O52 1.798648 1_555
Mo12 O36 1.802978 1_555
Mo12 O60 1.823066 1_555
Mo13 O29 1.783091 1_555
Mo13 O53 1.798648 1_555
Mo13 O37 1.802978 1_555
Mo13 O61 1.823066 1_555
Mo14 O30 1.783091 1_555
Mo14 O54 1.798648 1_555
Mo14 O38 1.802978 1_555
Mo14 O62 1.823066 1_555
Mo15 O31 1.783091 1_555
Mo15 O55 1.798648 1_555
Mo15 O39 1.802978 1_555
Mo15 O63 1.823066 1_555
