# generated using pymatgen
data_KB3O5
_symmetry_space_group_name_H-M   'P 1'
_cell_length_a   6.56611967
_cell_length_b   6.56611967
_cell_length_c   9.19094519
_cell_angle_alpha   79.59477440
_cell_angle_beta   79.59477440
_cell_angle_gamma   84.74175403
_symmetry_Int_Tables_number   1
_chemical_formula_structural   KB3O5
_chemical_formula_sum   'K4 B12 O20'
_cell_volume   382.61777174
_cell_formula_units_Z   4
loop_
 _symmetry_equiv_pos_site_id
 _symmetry_equiv_pos_as_xyz
  1  'x, y, z'
loop_
 _atom_site_type_symbol
 _atom_site_label
 _atom_site_symmetry_multiplicity
 _atom_site_fract_x
 _atom_site_fract_y
 _atom_site_fract_z
 _atom_site_occupancy
  K  K0  1  0.25987800  0.58379400  0.94129300  1
  K  K1  1  0.41620600  0.74012200  0.55870700  1
  K  K2  1  0.74012200  0.41620600  0.05870700  1
  K  K3  1  0.58379400  0.25987800  0.44129300  1
  B  B0  1  0.79347900  0.79049800  0.73965600  1
  B  B1  1  0.20950200  0.20652100  0.76034400  1
  B  B2  1  0.20652100  0.20950200  0.26034400  1
  B  B3  1  0.79049800  0.79347900  0.23965600  1
  B  B4  1  0.91599200  0.43132300  0.68210200  1
  B  B5  1  0.56867700  0.08400800  0.81789800  1
  B  B6  1  0.08400800  0.56867700  0.31789800  1
  B  B7  1  0.43132300  0.91599200  0.18210200  1
  B  B8  1  0.03452700  0.11812000  0.56416800  1
  B  B9  1  0.88188000  0.96547300  0.93583200  1
  B  B10  1  0.96547300  0.88188000  0.43583200  1
  B  B11  1  0.11812000  0.03452700  0.06416800  1
  O  O0  1  0.93227500  0.90490600  0.60075200  1
  O  O1  1  0.09509400  0.06772500  0.89924800  1
  O  O2  1  0.06772500  0.09509400  0.39924800  1
  O  O3  1  0.90490600  0.93227500  0.10075200  1
  O  O4  1  0.88647800  0.78165500  0.87304600  1
  O  O5  1  0.21834500  0.11352200  0.62695400  1
  O  O6  1  0.11352200  0.21834500  0.12695400  1
  O  O7  1  0.78165500  0.88647800  0.37304600  1
  O  O8  1  0.09289600  0.41184300  0.74656600  1
  O  O9  1  0.58815700  0.90710400  0.75343400  1
  O  O10  1  0.90710400  0.58815700  0.25343400  1
  O  O11  1  0.41184300  0.09289600  0.24656600  1
  O  O12  1  0.76411200  0.58764000  0.70504200  1
  O  O13  1  0.41236000  0.23588800  0.79495800  1
  O  O14  1  0.23588800  0.41236000  0.29495800  1
  O  O15  1  0.58764000  0.76411200  0.20504200  1
  O  O16  1  0.88486100  0.28919500  0.59459000  1
  O  O17  1  0.71080500  0.11513900  0.90541000  1
  O  O18  1  0.11513900  0.71080500  0.40541000  1
  O  O19  1  0.28919500  0.88486100  0.09459000  1
loop_
_geom_bond_atom_site_label_1
_geom_bond_atom_site_label_2
_geom_bond_distance
_geom_bond_site_symmetry_2
K0 O19 2.665312 1_556
K0 O8 2.710284 1_555
K0 O4 2.787454 1_455
K0 O6 2.818610 1_556
K0 O13 2.869490 1_555
K1 O18 2.665312 1_555
K1 O9 2.710284 1_555
K1 O5 2.787454 1_565
K1 O7 2.818610 1_555
K1 O12 2.869490 1_555
K2 O17 2.665312 1_554
K2 O10 2.710284 1_555
K2 O6 2.787454 1_655
K2 O4 2.818610 1_554
K2 O15 2.869490 1_555
K3 O16 2.665312 1_555
K3 O11 2.710284 1_555
K3 O7 2.787454 1_545
K3 O5 2.818610 1_555
K3 O14 2.869490 1_555
B0 O4 1.455160 1_555
B0 O12 1.461127 1_555
B0 O9 1.484578 1_555
B0 O0 1.543870 1_555
B1 O5 1.455160 1_555
B1 O13 1.461127 1_555
B1 O8 1.484578 1_555
B1 O1 1.543870 1_555
B2 O6 1.455160 1_555
B2 O14 1.461127 1_555
B2 O11 1.484578 1_555
B2 O2 1.543870 1_555
B3 O7 1.455160 1_555
B3 O15 1.461127 1_555
B3 O10 1.484578 1_555
B3 O3 1.543870 1_555
B4 O12 1.380971 1_555
B4 O8 1.382259 1_655
B4 O16 1.387485 1_555
B5 O13 1.380971 1_555
B5 O9 1.382259 1_545
B5 O17 1.387485 1_555
B6 O14 1.380971 1_555
B6 O10 1.382259 1_455
B6 O18 1.387485 1_555
B7 O15 1.380971 1_555
B7 O11 1.382259 1_565
B7 O19 1.387485 1_555
B8 O5 1.424537 1_555
B8 O16 1.455196 1_455
B8 O2 1.524902 1_555
B8 O0 1.563491 1_445
B9 O4 1.424537 1_555
B9 O17 1.455196 1_565
B9 O3 1.524902 1_556
B9 O1 1.563491 1_665
B10 O7 1.424537 1_555
B10 O18 1.455196 1_655
B10 O0 1.524902 1_555
B10 O2 1.563491 1_665
B11 O6 1.424537 1_555
B11 O19 1.455196 1_545
B11 O1 1.524902 1_554
B11 O3 1.563491 1_445
