# generated using pymatgen
data_Ba3Ir2(NO2)12
_symmetry_space_group_name_H-M   'P 1'
_cell_length_a   8.04724100
_cell_length_b   8.04724100
_cell_length_c   11.24670800
_cell_angle_alpha   90.00000000
_cell_angle_beta   90.00000000
_cell_angle_gamma   90.00000000
_symmetry_Int_Tables_number   1
_chemical_formula_structural   Ba3Ir2(NO2)12
_chemical_formula_sum   'Ba3 Ir2 N12 O24'
_cell_volume   728.31530314
_cell_formula_units_Z   1
loop_
 _symmetry_equiv_pos_site_id
 _symmetry_equiv_pos_as_xyz
  1  'x, y, z'
loop_
 _atom_site_type_symbol
 _atom_site_label
 _atom_site_symmetry_multiplicity
 _atom_site_fract_x
 _atom_site_fract_y
 _atom_site_fract_z
 _atom_site_occupancy
  Ba  Ba0  1  0.50000000  0.50000000  0.50000000  1
  Ba  Ba1  1  0.00000000  0.00000000  0.00000000  1
  Ba  Ba2  1  0.50000000  0.50000000  0.00000000  1
  Ir  Ir0  1  0.50000000  0.00000000  0.75204000  1
  Ir  Ir1  1  0.00000000  0.50000000  0.24796000  1
  N  N0  1  0.50000000  0.00000000  0.50618700  1
  N  N1  1  0.00000000  0.50000000  0.09853300  1
  N  N2  1  0.85958700  0.69875400  0.32108300  1
  N  N3  1  0.30124600  0.14041300  0.67891700  1
  N  N4  1  0.14041300  0.69875400  0.32108300  1
  N  N5  1  0.69875400  0.14041300  0.67891700  1
  N  N6  1  0.50000000  0.00000000  0.90146700  1
  N  N7  1  0.00000000  0.50000000  0.49381300  1
  N  N8  1  0.14041300  0.30124600  0.32108300  1
  N  N9  1  0.69875400  0.85958700  0.67891700  1
  N  N10  1  0.85958700  0.30124600  0.32108300  1
  N  N11  1  0.30124600  0.85958700  0.67891700  1
  O  O0  1  0.34368300  0.16194500  0.56983000  1
  O  O1  1  0.75999300  0.74627900  0.05831600  1
  O  O2  1  0.00000000  0.82447500  0.31409200  1
  O  O3  1  0.50000000  0.41856700  0.75283200  1
  O  O4  1  0.65631700  0.16194500  0.56983000  1
  O  O5  1  0.24000700  0.74627900  0.05831600  1
  O  O6  1  0.16194500  0.34368300  0.43017000  1
  O  O7  1  0.74627900  0.75999300  0.94168400  1
  O  O8  1  0.41856700  0.50000000  0.24716800  1
  O  O9  1  0.82447500  0.00000000  0.68590800  1
  O  O10  1  0.74627900  0.24000700  0.94168400  1
  O  O11  1  0.16194500  0.65631700  0.43017000  1
  O  O12  1  0.25372100  0.24000700  0.94168400  1
  O  O13  1  0.83805500  0.65631700  0.43017000  1
  O  O14  1  0.58143300  0.50000000  0.24716800  1
  O  O15  1  0.17552500  0.00000000  0.68590800  1
  O  O16  1  0.83805500  0.34368300  0.43017000  1
  O  O17  1  0.25372100  0.75999300  0.94168400  1
  O  O18  1  0.24000700  0.25372100  0.05831600  1
  O  O19  1  0.65631700  0.83805500  0.56983000  1
  O  O20  1  0.00000000  0.17552500  0.31409200  1
  O  O21  1  0.50000000  0.58143300  0.75283200  1
  O  O22  1  0.75999300  0.25372100  0.05831600  1
  O  O23  1  0.34368300  0.83805500  0.56983000  1
loop_
_geom_bond_atom_site_label_1
_geom_bond_atom_site_label_2
_geom_bond_distance
_geom_bond_site_symmetry_2
Ba0 O21 2.918061 1_555
Ba0 O14 2.918061 1_555
Ba0 O3 2.918061 1_555
Ba0 O8 2.918061 1_555
Ba0 O13 3.098351 1_555
Ba0 O11 3.098351 1_555
Ba0 O19 3.098351 1_555
Ba0 O4 3.098351 1_555
Ba0 O6 3.098351 1_555
Ba0 O16 3.098351 1_555
Ba0 O0 3.098351 1_555
Ba0 O23 3.098351 1_555
Ba1 O18 2.886035 1_555
Ba1 O12 2.886035 1_554
Ba1 O22 2.886035 1_455
Ba1 O17 2.886035 1_544
Ba1 O10 2.886035 1_454
Ba1 O5 2.886035 1_545
Ba1 O7 2.886035 1_444
Ba1 O1 2.886035 1_445
Ba2 O14 2.856023 1_555
Ba2 O21 2.856023 1_554
Ba2 O8 2.856023 1_555
Ba2 O3 2.856023 1_554
Ba2 O1 2.955565 1_555
Ba2 O7 2.955565 1_554
Ba2 O22 2.955565 1_555
Ba2 O17 2.955565 1_554
Ba2 O5 2.955565 1_555
Ba2 O10 2.955565 1_554
Ba2 O12 2.955565 1_554
Ba2 O18 2.955565 1_555
Ir0 N6 1.680562 1_555
Ir0 N5 2.123967 1_555
Ir0 N3 2.123967 1_555
Ir0 N11 2.123967 1_545
Ir0 N9 2.123967 1_545
Ir1 N1 1.680562 1_555
Ir1 N4 2.123967 1_555
Ir1 N8 2.123967 1_555
Ir1 N2 2.123967 1_455
Ir1 N10 2.123967 1_455
N0 O4 1.947577 1_555
N0 O19 1.947577 1_545
N0 O23 1.947577 1_545
N0 O0 1.947577 1_555
N2 O13 1.285245 1_555
N2 O2 1.518714 1_655
N3 O0 1.285245 1_555
N3 O15 1.518714 1_555
N4 O11 1.285245 1_555
N4 O2 1.518714 1_555
N5 O4 1.285245 1_555
N5 O9 1.518714 1_555
N7 O13 1.947577 1_455
N7 O11 1.947577 1_555
N7 O6 1.947577 1_555
N7 O16 1.947577 1_455
N8 O6 1.285245 1_555
N8 O20 1.518714 1_555
N9 O19 1.285245 1_555
N9 O9 1.518714 1_565
N10 O16 1.285245 1_555
N10 O20 1.518714 1_655
N11 O23 1.285245 1_555
N11 O15 1.518714 1_565
O1 O7 1.320978 1_554
O10 O22 1.320978 1_556
O12 O18 1.320978 1_556
O14 O8 1.310622 1_555
O17 O5 1.320978 1_556
O21 O3 1.310622 1_555
