# generated using pymatgen
data_Te2Mo3Se4
_symmetry_space_group_name_H-M   'P 1'
_cell_length_a   3.39910811
_cell_length_b   3.39910811
_cell_length_c   31.37354600
_cell_angle_alpha   90.00000000
_cell_angle_beta   90.00000000
_cell_angle_gamma   120.00000205
_symmetry_Int_Tables_number   1
_chemical_formula_structural   Te2Mo3Se4
_chemical_formula_sum   'Te2 Mo3 Se4'
_cell_volume   313.92375797
_cell_formula_units_Z   1
loop_
 _symmetry_equiv_pos_site_id
 _symmetry_equiv_pos_as_xyz
  1  'x, y, z'
loop_
 _atom_site_type_symbol
 _atom_site_label
 _atom_site_symmetry_multiplicity
 _atom_site_fract_x
 _atom_site_fract_y
 _atom_site_fract_z
 _atom_site_occupancy
  Te  Te0  1  0.00000000  0.00000000  0.05957400  1
  Te  Te1  1  0.00000000  0.00000000  0.94042600  1
  Mo  Mo0  1  0.00000000  0.00000000  0.76864700  1
  Mo  Mo1  1  0.00000000  0.00000000  0.23135300  1
  Mo  Mo2  1  0.33333300  0.66666700  0.00000000  1
  Se  Se0  1  0.33333300  0.66666700  0.71618700  1
  Se  Se1  1  0.33333300  0.66666700  0.17886200  1
  Se  Se2  1  0.33333300  0.66666700  0.82113800  1
  Se  Se3  1  0.33333300  0.66666700  0.28381300  1
loop_
_geom_bond_atom_site_label_1
_geom_bond_atom_site_label_2
_geom_bond_distance
_geom_bond_site_symmetry_2
Mo0 Se0 2.561278 1_545
Mo0 Se0 2.561281 1_555
Mo0 Se0 2.561281 1_445
Mo0 Se2 2.561903 1_545
Mo0 Se2 2.561906 1_445
Mo0 Se2 2.561906 1_555
Mo1 Se3 2.561278 1_545
Mo1 Se3 2.561281 1_445
Mo1 Se3 2.561281 1_555
Mo1 Se1 2.561903 1_545
Mo1 Se1 2.561906 1_445
Mo1 Se1 2.561906 1_555
Mo2 Te0 2.710100 1_565
Mo2 Te1 2.710100 1_564
Mo2 Te0 2.710102 1_665
Mo2 Te0 2.710102 1_555
Mo2 Te1 2.710102 1_664
Mo2 Te1 2.710102 1_554
