# generated using pymatgen
data_Sr4Al6MoO16
_symmetry_space_group_name_H-M   'P 1'
_cell_length_a   8.28849609
_cell_length_b   8.28849609
_cell_length_c   8.28849609
_cell_angle_alpha   109.98344298
_cell_angle_beta   109.98344298
_cell_angle_gamma   108.45156252
_symmetry_Int_Tables_number   1
_chemical_formula_structural   Sr4Al6MoO16
_chemical_formula_sum   'Sr4 Al6 Mo1 O16'
_cell_volume   438.23026735
_cell_formula_units_Z   1
loop_
 _symmetry_equiv_pos_site_id
 _symmetry_equiv_pos_as_xyz
  1  'x, y, z'
loop_
 _atom_site_type_symbol
 _atom_site_label
 _atom_site_symmetry_multiplicity
 _atom_site_fract_x
 _atom_site_fract_y
 _atom_site_fract_z
 _atom_site_occupancy
  Sr  Sr0  1  0.49137000  0.99137000  0.98274000  1
  Sr  Sr1  1  0.00863000  0.99137000  0.50000000  1
  Sr  Sr2  1  0.00863000  0.50863000  0.01726000  1
  Sr  Sr3  1  0.49137000  0.50863000  0.50000000  1
  Al  Al0  1  0.50359000  0.25193700  0.74834800  1
  Al  Al1  1  0.75000000  0.25000000  0.50000000  1
  Al  Al2  1  0.24475800  0.49641000  0.74834800  1
  Al  Al3  1  0.25000000  0.75000000  0.50000000  1
  Al  Al4  1  0.50359000  0.75524200  0.25165200  1
  Al  Al5  1  0.74806300  0.49641000  0.25165200  1
  Mo  Mo0  1  0.00000000  0.00000000  0.00000000  1
  O  O0  1  0.66439100  0.00107100  0.33668100  1
  O  O1  1  0.30657400  0.65227900  0.65429600  1
  O  O2  1  0.66059700  0.33940300  0.00000000  1
  O  O3  1  0.34772100  0.00201700  0.65429600  1
  O  O4  1  0.99892900  0.33560900  0.66331900  1
  O  O5  1  0.66059700  0.66059700  0.32119400  1
  O  O6  1  0.66439100  0.32771000  0.66331900  1
  O  O7  1  0.99798300  0.65227900  0.34570400  1
  O  O8  1  0.33940300  0.66059700  0.00000000  1
  O  O9  1  0.34772100  0.69342600  0.34570400  1
  O  O10  1  0.67229000  0.33560900  0.33668100  1
  O  O11  1  0.33940300  0.33940300  0.67880600  1
  O  O12  1  0.10829400  0.95422800  0.84593500  1
  O  O13  1  0.04577200  0.89170600  0.15406500  1
  O  O14  1  0.10829400  0.26235900  0.15406500  1
  O  O15  1  0.73764100  0.89170600  0.84593500  1
loop_
_geom_bond_atom_site_label_1
_geom_bond_atom_site_label_2
_geom_bond_distance
_geom_bond_site_symmetry_2
Al0 O3 1.755449 1_555
Al0 O6 1.755609 1_555
Al0 O2 1.756049 1_556
Al0 O11 1.756057 1_555
Al1 O10 1.760867 1_555
Al1 O6 1.760867 1_555
Al1 O4 1.760873 1_555
Al1 O0 1.760873 1_555
Al2 O1 1.755454 1_555
Al2 O4 1.755601 1_455
Al2 O8 1.756051 1_556
Al2 O11 1.756051 1_555
Al3 O9 1.746420 1_555
Al3 O1 1.746420 1_555
Al3 O3 1.746421 1_565
Al3 O7 1.746421 1_455
Al4 O9 1.755454 1_555
Al4 O0 1.755601 1_565
Al4 O5 1.756051 1_555
Al4 O8 1.756051 1_555
Al5 O7 1.755449 1_555
Al5 O10 1.755609 1_555
Al5 O2 1.756049 1_555
Al5 O5 1.756057 1_555
Mo0 O14 1.802249 1_555
Mo0 O15 1.802249 1_444
Mo0 O13 1.802250 1_545
Mo0 O12 1.802250 1_544
O0 Sr1 2.749455 1_645
O0 Sr0 2.749463 1_544
O1 Sr0 2.617567 1_555
O1 Sr3 2.617576 1_555
O2 Sr2 2.707163 1_655
O2 Sr0 2.707163 1_544
O3 Sr0 2.617568 1_545
O3 Sr1 2.617568 1_545
O4 Sr1 2.749455 1_645
O4 Sr2 2.749463 1_656
O5 Sr3 2.707163 1_555
O5 Sr1 2.707163 1_655
O6 Sr3 2.749459 1_555
O6 Sr2 2.749459 1_656
O7 Sr2 2.617568 1_655
O7 Sr1 2.617568 1_655
O8 Sr2 2.707163 1_555
O8 Sr0 2.707163 1_554
O9 Sr2 2.617567 1_555
O9 Sr3 2.617576 1_555
O10 Sr0 2.749459 1_544
O10 Sr3 2.749459 1_555
O11 Sr1 2.707163 1_545
O11 Sr3 2.707163 1_555
O12 Sr0 2.853735 1_555
O12 Sr1 2.853743 1_555
O13 Sr2 2.853735 1_555
O13 Sr1 2.853743 1_555
O14 Sr2 2.853738 1_555
O14 Sr3 2.853738 1_555
O15 Sr3 2.853738 1_555
O15 Sr0 2.853738 1_555
