# generated using pymatgen
data_CoSi(OF)6
_symmetry_space_group_name_H-M   'P 1'
_cell_length_a   5.89466300
_cell_length_b   8.57325400
_cell_length_c   7.35508654
_cell_angle_alpha   90.00000000
_cell_angle_beta   99.98811624
_cell_angle_gamma   90.00000000
_symmetry_Int_Tables_number   1
_chemical_formula_structural   CoSi(OF)6
_chemical_formula_sum   'Co2 Si2 O12 F12'
_cell_volume   366.06633545
_cell_formula_units_Z   2
loop_
 _symmetry_equiv_pos_site_id
 _symmetry_equiv_pos_as_xyz
  1  'x, y, z'
loop_
 _atom_site_type_symbol
 _atom_site_label
 _atom_site_symmetry_multiplicity
 _atom_site_fract_x
 _atom_site_fract_y
 _atom_site_fract_z
 _atom_site_occupancy
  Co  Co0  1  0.00000000  0.00000000  0.00000000  1
  Co  Co1  1  0.00000000  0.50000000  0.50000000  1
  Si  Si0  1  0.50000000  0.00000000  0.50000000  1
  Si  Si1  1  0.50000000  0.50000000  0.00000000  1
  O  O0  1  0.87966700  0.17781700  0.89790900  1
  O  O1  1  0.87966700  0.32218300  0.39790900  1
  O  O2  1  0.12033300  0.82218300  0.10209100  1
  O  O3  1  0.12033300  0.67781700  0.60209100  1
  O  O4  1  0.04739000  0.97043000  0.76773800  1
  O  O5  1  0.04739000  0.52957000  0.26773800  1
  O  O6  1  0.95261000  0.02957000  0.23226200  1
  O  O7  1  0.95261000  0.47043000  0.73226200  1
  O  O8  1  0.72299800  0.90401600  0.96695500  1
  O  O9  1  0.72299800  0.59598400  0.46695500  1
  O  O10  1  0.27700200  0.09598400  0.03304500  1
  O  O11  1  0.27700200  0.40401600  0.53304500  1
  F  F0  1  0.44710900  0.95553600  0.71766800  1
  F  F1  1  0.44710900  0.54446400  0.21766800  1
  F  F2  1  0.55289100  0.04446400  0.28233200  1
  F  F3  1  0.55289100  0.45553600  0.78233200  1
  F  F4  1  0.68038400  0.14716700  0.59179100  1
  F  F5  1  0.68038400  0.35283300  0.09179100  1
  F  F6  1  0.31961600  0.85283300  0.40820900  1
  F  F7  1  0.31961600  0.64716700  0.90820900  1
  F  F8  1  0.72909000  0.87292100  0.53180900  1
  F  F9  1  0.72909000  0.62707900  0.03180900  1
  F  F10  1  0.27091000  0.12707900  0.46819100  1
  F  F11  1  0.27091000  0.37292100  0.96819100  1
loop_
_geom_bond_atom_site_label_1
_geom_bond_atom_site_label_2
_geom_bond_distance
_geom_bond_site_symmetry_2
Co0 O2 1.790592 1_545
Co0 O0 1.790592 1_454
Co0 O6 1.796150 1_455
Co0 O4 1.796150 1_544
Co0 O10 1.806851 1_555
Co0 O8 1.806851 1_444
Co1 O3 1.790592 1_555
Co1 O1 1.790592 1_455
Co1 O7 1.796150 1_455
Co1 O5 1.796150 1_555
Co1 O11 1.806851 1_555
Co1 O9 1.806851 1_455
F0 Si0 1.725908 1_565
F1 Si1 1.725908 1_555
F2 Si0 1.725908 1_555
F3 Si1 1.725908 1_556
F4 Si0 1.711514 1_555
F5 Si1 1.711514 1_555
F6 Si0 1.711514 1_565
F7 Si1 1.711514 1_556
F8 Si0 1.719218 1_565
F9 Si1 1.719218 1_555
F10 Si0 1.719218 1_555
F11 Si1 1.719218 1_556
