# generated using pymatgen
data_GeCN2
_symmetry_space_group_name_H-M   'P 1'
_cell_length_a   6.34561300
_cell_length_b   8.73552400
_cell_length_c   5.14531300
_cell_angle_alpha   90.00000000
_cell_angle_beta   90.00000000
_cell_angle_gamma   90.00000000
_symmetry_Int_Tables_number   1
_chemical_formula_structural   GeCN2
_chemical_formula_sum   'Ge4 C4 N8'
_cell_volume   285.21630050
_cell_formula_units_Z   4
loop_
 _symmetry_equiv_pos_site_id
 _symmetry_equiv_pos_as_xyz
  1  'x, y, z'
loop_
 _atom_site_type_symbol
 _atom_site_label
 _atom_site_symmetry_multiplicity
 _atom_site_fract_x
 _atom_site_fract_y
 _atom_site_fract_z
 _atom_site_occupancy
  Ge  Ge0  1  0.62317100  0.36798800  0.06187700  1
  Ge  Ge1  1  0.37682900  0.63201200  0.56187700  1
  Ge  Ge2  1  0.87682900  0.86798800  0.56187700  1
  Ge  Ge3  1  0.12317100  0.13201200  0.06187700  1
  C  C0  1  0.69279800  0.79543300  0.06267000  1
  C  C1  1  0.30720200  0.20456700  0.56267000  1
  C  C2  1  0.80720200  0.29543300  0.56267000  1
  C  C3  1  0.19279800  0.70456700  0.06267000  1
  N  N0  1  0.81520600  0.29121900  0.32396600  1
  N  N1  1  0.18479400  0.70878100  0.82396600  1
  N  N2  1  0.68479400  0.79121900  0.82396600  1
  N  N3  1  0.31520600  0.20878100  0.32396600  1
  N  N4  1  0.68212000  0.79266600  0.30148700  1
  N  N5  1  0.31788000  0.20733400  0.80148700  1
  N  N6  1  0.81788000  0.29266600  0.80148700  1
  N  N7  1  0.18212000  0.70733400  0.30148700  1
loop_
_geom_bond_atom_site_label_1
_geom_bond_atom_site_label_2
_geom_bond_distance
_geom_bond_site_symmetry_2
Ge0 N0 1.937317 1_555
Ge0 N6 1.937665 1_554
Ge1 N1 1.937317 1_555
Ge1 N7 1.937665 1_555
Ge2 N2 1.937317 1_555
Ge2 N4 1.937665 1_555
Ge3 N3 1.937317 1_555
Ge3 N5 1.937665 1_554
C0 N2 1.229808 1_554
C0 N4 1.230892 1_555
C1 N3 1.229808 1_555
C1 N5 1.230892 1_555
C2 N0 1.229808 1_555
C2 N6 1.230892 1_555
C3 N1 1.229808 1_554
C3 N7 1.230892 1_555
