# generated using pymatgen
data_Li3Fe2(SiO4)2
_symmetry_space_group_name_H-M   'P 1'
_cell_length_a   5.29829485
_cell_length_b   6.47907661
_cell_length_c   5.26110939
_cell_angle_alpha   90.30567684
_cell_angle_beta   91.57751079
_cell_angle_gamma   91.40693237
_symmetry_Int_Tables_number   1
_chemical_formula_structural   Li3Fe2(SiO4)2
_chemical_formula_sum   'Li3 Fe2 Si2 O8'
_cell_volume   180.47752849
_cell_formula_units_Z   1
loop_
 _symmetry_equiv_pos_site_id
 _symmetry_equiv_pos_as_xyz
  1  'x, y, z'
loop_
 _atom_site_type_symbol
 _atom_site_label
 _atom_site_symmetry_multiplicity
 _atom_site_fract_x
 _atom_site_fract_y
 _atom_site_fract_z
 _atom_site_occupancy
  Li  Li0  1  0.82906900  0.25138100  0.80900900  1
  Li  Li1  1  0.68548600  0.50002200  0.31220900  1
  Li  Li2  1  0.30501800  0.00142700  0.69295700  1
  Fe  Fe0  1  0.31380000  0.51325600  0.68706500  1
  Fe  Fe1  1  0.67395400  0.99140000  0.31863800  1
  Si  Si0  1  0.18672800  0.25237900  0.18152400  1
  Si  Si1  1  0.82618300  0.74631400  0.82216300  1
  O  O0  1  0.75826700  0.75928500  0.12735100  1
  O  O1  1  0.12546300  0.75956400  0.77334200  1
  O  O2  1  0.87249400  0.23140000  0.22817600  1
  O  O3  1  0.20405700  0.24994200  0.86928100  1
  O  O4  1  0.31322500  0.45957900  0.30578200  1
  O  O5  1  0.32670400  0.05070900  0.30815500  1
  O  O6  1  0.70498000  0.52825800  0.70171200  1
  O  O7  1  0.69644300  0.95508200  0.68450500  1
loop_
_geom_bond_atom_site_label_1
_geom_bond_atom_site_label_2
_geom_bond_distance
_geom_bond_site_symmetry_2
Li0 O3 2.003560 1_655
Li0 O6 2.004322 1_555
Li0 O7 2.122087 1_545
Li0 O2 2.215749 1_556
Li1 O0 1.980535 1_555
Li1 O4 1.982629 1_555
Li1 O6 2.055930 1_555
Li1 O2 2.075295 1_555
Li2 O1 1.869640 1_545
Li2 O3 1.947549 1_555
Li2 O5 2.057085 1_555
Li2 O7 2.104437 1_545
Fe0 O1 1.960590 1_555
Fe0 O4 2.033973 1_555
Fe0 O3 2.041344 1_555
Fe0 O6 2.071771 1_555
Fe1 O0 1.875004 1_555
Fe1 O5 1.888133 1_565
Fe1 O2 1.925136 1_565
Fe1 O7 1.941200 1_555
O0 Si1 1.657239 1_554
O1 Si1 1.613592 1_455
O2 Si0 1.691853 1_655
O3 Si0 1.647843 1_556
O4 Si0 1.612793 1_555
O5 Si0 1.652524 1_555
O6 Si1 1.653318 1_555
O7 Si1 1.689771 1_555
