# generated using pymatgen
data_K3H3PtS2Br2O7
_symmetry_space_group_name_H-M   'P 1'
_cell_length_a   7.13983300
_cell_length_b   8.86606200
_cell_length_c   21.99215908
_cell_angle_alpha   80.38787383
_cell_angle_beta   90.00000000
_cell_angle_gamma   90.00000000
_symmetry_Int_Tables_number   1
_chemical_formula_structural   K3H3PtS2Br2O7
_chemical_formula_sum   'K12 H12 Pt4 S8 Br8 O28'
_cell_volume   1372.60728439
_cell_formula_units_Z   4
loop_
 _symmetry_equiv_pos_site_id
 _symmetry_equiv_pos_as_xyz
  1  'x, y, z'
loop_
 _atom_site_type_symbol
 _atom_site_label
 _atom_site_symmetry_multiplicity
 _atom_site_fract_x
 _atom_site_fract_y
 _atom_site_fract_z
 _atom_site_occupancy
  K  K0  1  0.59453400  0.64535900  0.23846700  1
  K  K1  1  0.09453400  0.35464100  0.26153300  1
  K  K2  1  0.40546600  0.35464100  0.76153300  1
  K  K3  1  0.90546600  0.64535900  0.73846700  1
  K  K4  1  0.63139000  0.72878700  0.01005900  1
  K  K5  1  0.13139000  0.27121300  0.48994100  1
  K  K6  1  0.36861000  0.27121300  0.98994100  1
  K  K7  1  0.86861000  0.72878700  0.51005900  1
  K  K8  1  0.10349000  0.88616700  0.12995800  1
  K  K9  1  0.60349000  0.11383300  0.37004200  1
  K  K10  1  0.89651000  0.11383300  0.87004200  1
  K  K11  1  0.39651000  0.88616700  0.62995800  1
  H  H0  1  0.53356400  0.96523800  0.78130200  1
  H  H1  1  0.03356400  0.03476200  0.71869800  1
  H  H2  1  0.46643600  0.03476200  0.21869800  1
  H  H3  1  0.96643600  0.96523800  0.28130200  1
  H  H4  1  0.24980300  0.55680400  0.06431400  1
  H  H5  1  0.74980300  0.44319600  0.43568600  1
  H  H6  1  0.75019700  0.44319600  0.93568600  1
  H  H7  1  0.25019700  0.55680400  0.56431400  1
  H  H8  1  0.39341500  0.46510000  0.10970700  1
  H  H9  1  0.89341500  0.53490000  0.39029300  1
  H  H10  1  0.60658500  0.53490000  0.89029300  1
  H  H11  1  0.10658500  0.46510000  0.60970700  1
  Pt  Pt0  1  0.27324600  0.78266700  0.87226800  1
  Pt  Pt1  1  0.77324600  0.21733300  0.62773200  1
  Pt  Pt2  1  0.72675400  0.21733300  0.12773200  1
  Pt  Pt3  1  0.22675400  0.78266700  0.37226800  1
  S  S0  1  0.42670100  0.72533900  0.78899400  1
  S  S1  1  0.92670100  0.27466100  0.71100600  1
  S  S2  1  0.57329900  0.27466100  0.21100600  1
  S  S3  1  0.07329900  0.72533900  0.28899400  1
  S  S4  1  0.41692000  0.01143900  0.87538000  1
  S  S5  1  0.91692000  0.98856100  0.62462000  1
  S  S6  1  0.58308000  0.98856100  0.12462000  1
  S  S7  1  0.08308000  0.01143900  0.37538000  1
  Br  Br0  1  0.11342600  0.52466200  0.87862600  1
  Br  Br1  1  0.61342600  0.47533800  0.62137400  1
  Br  Br2  1  0.88657400  0.47533800  0.12137400  1
  Br  Br3  1  0.38657400  0.52466200  0.37862600  1
  Br  Br4  1  0.09974800  0.81844500  0.96850600  1
  Br  Br5  1  0.59974800  0.18155500  0.53149400  1
  Br  Br6  1  0.90025200  0.18155500  0.03149400  1
  Br  Br7  1  0.40025200  0.81844500  0.46850600  1
  O  O0  1  0.28144200  0.13580200  0.88079000  1
  O  O1  1  0.78144200  0.86419800  0.61921000  1
  O  O2  1  0.71855800  0.86419800  0.11921000  1
  O  O3  1  0.21855800  0.13580200  0.38079000  1
  O  O4  1  0.52983700  0.86811000  0.75238400  1
  O  O5  1  0.02983700  0.13189000  0.74761600  1
  O  O6  1  0.47016300  0.13189000  0.24761600  1
  O  O7  1  0.97016300  0.86811000  0.25238400  1
  O  O8  1  0.30371000  0.67146100  0.74281700  1
  O  O9  1  0.80371000  0.32853900  0.75718300  1
  O  O10  1  0.69629000  0.32853900  0.25718300  1
  O  O11  1  0.19629000  0.67146100  0.24281700  1
  O  O12  1  0.57500900  0.60954900  0.80976300  1
  O  O13  1  0.07500900  0.39045100  0.69023700  1
  O  O14  1  0.42499100  0.39045100  0.19023700  1
  O  O15  1  0.92499100  0.60954900  0.30976300  1
  O  O16  1  0.52809500  0.06574100  0.81494900  1
  O  O17  1  0.02809500  0.93425900  0.68505100  1
  O  O18  1  0.47190500  0.93425900  0.18505100  1
  O  O19  1  0.97190500  0.06574100  0.31494900  1
  O  O20  1  0.55608500  0.99414600  0.92613500  1
  O  O21  1  0.05608500  0.00585400  0.57386500  1
  O  O22  1  0.44391500  0.00585400  0.07386500  1
  O  O23  1  0.94391500  0.99414600  0.42613500  1
  O  O24  1  0.37663700  0.51591400  0.06629100  1
  O  O25  1  0.87663700  0.48408600  0.43370900  1
  O  O26  1  0.62336300  0.48408600  0.93370900  1
  O  O27  1  0.12336300  0.51591400  0.56629100  1
loop_
_geom_bond_atom_site_label_1
_geom_bond_atom_site_label_2
_geom_bond_distance
_geom_bond_site_symmetry_2
K0 O18 2.775342 1_555
K0 O15 2.821318 1_555
K0 O11 2.855696 1_555
K0 O10 2.863794 1_555
K0 O14 2.915246 1_555
K0 O2 3.118961 1_555
K0 O7 3.374700 1_555
K1 O19 2.775342 1_455
K1 O14 2.821318 1_555
K1 O10 2.855696 1_455
K1 O11 2.863794 1_555
K1 O15 2.915246 1_455
K1 O3 3.118961 1_555
K1 O6 3.374700 1_555
K2 O16 2.775342 1_555
K2 O13 2.821318 1_555
K2 O9 2.855696 1_555
K2 O8 2.863794 1_555
K2 O12 2.915246 1_555
K2 O0 3.118961 1_555
K2 O5 3.374700 1_555
K3 O17 2.775342 1_655
K3 O12 2.821318 1_555
K3 O8 2.855696 1_655
K3 O9 2.863794 1_555
K3 O13 2.915246 1_655
K3 O1 3.118961 1_555
K3 O4 3.374700 1_555
K4 O24 2.760494 1_555
K4 O20 2.789373 1_554
K4 O2 2.924612 1_555
K4 O26 2.957380 1_554
K4 O22 3.308513 1_565
K5 O25 2.760494 1_455
K5 O21 2.789373 1_555
K5 O3 2.924612 1_555
K5 O27 2.957380 1_555
K5 O23 3.308513 1_445
K6 O26 2.760494 1_555
K6 O22 2.789373 1_556
K6 O0 2.924612 1_555
K6 O24 2.957380 1_556
K6 O20 3.308513 1_545
K7 O27 2.760494 1_655
K7 O23 2.789373 1_555
K7 O1 2.924612 1_555
K7 O25 2.957380 1_555
K7 O21 3.308513 1_665
K8 O2 2.768143 1_455
K8 O7 2.834950 1_455
K8 O22 2.849276 1_565
K8 O11 2.940276 1_555
K8 O18 2.956596 1_555
K9 O3 2.768143 1_555
K9 O6 2.834950 1_555
K9 O23 2.849276 1_545
K9 O10 2.940276 1_555
K9 O19 2.956596 1_555
K10 O0 2.768143 1_655
K10 O5 2.834950 1_655
K10 O20 2.849276 1_545
K10 O9 2.940276 1_555
K10 O16 2.956596 1_555
K11 O1 2.768143 1_555
K11 O4 2.834950 1_555
K11 O21 2.849276 1_565
K11 O8 2.940276 1_555
K11 O17 2.956596 1_555
H0 O4 1.153094 1_555
H0 O16 1.250310 1_565
H1 O5 1.153094 1_555
H1 O17 1.250310 1_545
H2 O6 1.153094 1_555
H2 O18 1.250310 1_545
H3 O7 1.153094 1_555
H3 O19 1.250310 1_565
H4 O24 0.973715 1_555
H5 O25 0.973715 1_555
H6 O26 0.973715 1_555
H7 O27 0.973715 1_555
H8 O24 0.992637 1_555
H9 O25 0.992637 1_555
H10 O26 0.992637 1_555
H11 O27 0.992637 1_555
Pt0 S0 2.263530 1_555
Pt0 S4 2.284153 1_565
Pt1 S1 2.263530 1_555
Pt1 S5 2.284153 1_545
Pt2 S2 2.263530 1_555
Pt2 S6 2.284153 1_545
Pt3 S3 2.263530 1_555
Pt3 S7 2.284153 1_565
Br0 Pt0 2.539177 1_555
Br0 K3 3.427739 1_455
Br0 K6 3.539054 1_555
Br0 K2 3.814137 1_555
Br1 Pt1 2.539177 1_555
Br1 K2 3.427739 1_555
Br1 K7 3.539054 1_555
Br1 K3 3.814137 1_555
Br2 Pt2 2.539177 1_555
Br2 K1 3.427739 1_655
Br2 K4 3.539054 1_555
Br2 K0 3.814137 1_555
Br3 Pt3 2.539177 1_555
Br3 K0 3.427739 1_555
Br3 K5 3.539054 1_555
Br3 K1 3.814137 1_555
Br4 Pt0 2.517701 1_555
Br4 K10 3.429234 1_465
Br4 K4 3.522317 1_456
Br4 K8 3.698717 1_556
Br5 Pt1 2.517701 1_555
Br5 K11 3.429234 1_545
Br5 K5 3.522317 1_555
Br5 K9 3.698717 1_555
Br6 Pt2 2.517701 1_555
Br6 K8 3.429234 1_645
Br6 K6 3.522317 1_654
Br6 K10 3.698717 1_554
Br7 Pt3 2.517701 1_555
Br7 K9 3.429234 1_565
Br7 K7 3.522317 1_555
Br7 K11 3.698717 1_555
O0 S4 1.486393 1_555
O1 S5 1.486393 1_555
O2 S6 1.486393 1_555
O3 S7 1.486393 1_555
O4 S0 1.566023 1_555
O5 S1 1.566023 1_455
O6 S2 1.566023 1_555
O7 S3 1.566023 1_655
O8 S0 1.480748 1_555
O9 S1 1.480748 1_555
O10 S2 1.480748 1_555
O11 S3 1.480748 1_555
O12 S0 1.492380 1_555
O13 S1 1.492380 1_455
O14 S2 1.492380 1_555
O15 S3 1.492380 1_655
O16 S4 1.553848 1_555
O17 S5 1.553848 1_455
O18 S6 1.553848 1_555
O19 S7 1.553848 1_655
O20 S4 1.483090 1_565
O21 S5 1.483090 1_445
O22 S6 1.483090 1_545
O23 S7 1.483090 1_665
