# generated using pymatgen
data_CeMg14W
_symmetry_space_group_name_H-M   'P 1'
_cell_length_a   6.48355890
_cell_length_b   5.97196204
_cell_length_c   10.39887150
_cell_angle_alpha   90.00000000
_cell_angle_beta   90.00000000
_cell_angle_gamma   117.42238951
_symmetry_Int_Tables_number   1
_chemical_formula_structural   CeMg14W
_chemical_formula_sum   'Ce1 Mg14 W1'
_cell_volume   357.39738161
_cell_formula_units_Z   1
loop_
 _symmetry_equiv_pos_site_id
 _symmetry_equiv_pos_as_xyz
  1  'x, y, z'
loop_
 _atom_site_type_symbol
 _atom_site_label
 _atom_site_symmetry_multiplicity
 _atom_site_fract_x
 _atom_site_fract_y
 _atom_site_fract_z
 _atom_site_occupancy
  Ce  Ce0  1  0.14202180  0.32101040  0.12500000  1
  Mg  Mg0  1  0.16604536  0.33302218  0.62500000  1
  Mg  Mg1  1  0.15866662  0.82933281  0.62500000  1
  Mg  Mg2  1  0.64413137  0.31871504  0.12500000  1
  Mg  Mg3  1  0.65948519  0.33220566  0.62500000  1
  Mg  Mg4  1  0.64413137  0.82541532  0.12500000  1
  Mg  Mg5  1  0.65948519  0.82727853  0.62500000  1
  Mg  Mg6  1  0.34138346  0.16498166  0.37305250  1
  Mg  Mg7  1  0.34138346  0.16498166  0.87694750  1
  Mg  Mg8  1  0.34138346  0.67640280  0.37305250  1
  Mg  Mg9  1  0.34138346  0.67640280  0.87694750  1
  Mg  Mg10  1  0.83883825  0.16941962  0.38850193  1
  Mg  Mg11  1  0.83883825  0.16941962  0.86149807  1
  Mg  Mg12  1  0.85916272  0.67958186  0.35680907  1
  Mg  Mg13  1  0.85916272  0.67958186  0.89319093  1
  W  W0  1  0.16449733  0.83224816  0.12500000  1
loop_
_geom_bond_atom_site_label_1
_geom_bond_atom_site_label_2
_geom_bond_distance
_geom_bond_site_symmetry_2
Ce0 W0 2.988781 1_555
Ce0 W0 2.988781 1_545
Ce0 Mg7 3.209676 1_554
Ce0 Mg6 3.209676 1_555
Ce0 Mg9 3.209681 1_554
Ce0 Mg8 3.209681 1_555
Ce0 Mg4 3.221812 1_445
Ce0 Mg2 3.221812 1_455
Ce0 Mg10 3.248494 1_455
Ce0 Mg11 3.248494 1_454
Ce0 Mg4 3.261792 1_555
Ce0 Mg2 3.261793 1_555
Mg0 Mg1 2.986283 1_545
Mg0 Mg1 2.986283 1_555
Mg0 Mg11 3.097458 1_455
Mg0 Mg10 3.097458 1_455
Mg0 Mg6 3.196009 1_555
Mg0 Mg7 3.196009 1_555
Mg0 Mg9 3.196015 1_555
Mg0 Mg8 3.196015 1_555
Mg0 Mg5 3.201495 1_555
Mg0 Mg3 3.201495 1_555
Mg0 Mg5 3.282070 1_445
Mg0 Mg3 3.282070 1_455
Mg1 Mg8 3.177785 1_555
Mg1 Mg9 3.177785 1_555
Mg1 Mg6 3.177790 1_565
Mg1 Mg7 3.177790 1_565
Mg1 Mg3 3.230840 1_455
Mg1 Mg5 3.230841 1_455
Mg1 Mg3 3.252755 1_565
Mg1 Mg5 3.252755 1_555
Mg1 Mg13 3.278545 1_455
Mg1 Mg12 3.278545 1_455
Mg2 Mg4 2.945967 1_545
Mg2 Mg4 3.025995 1_555
Mg2 Mg7 3.112803 1_554
Mg2 Mg6 3.112803 1_555
Mg2 W0 3.128738 1_545
Mg2 W0 3.355226 1_655
Mg3 Mg5 2.956556 1_555
Mg3 Mg5 3.015406 1_545
Mg3 Mg6 3.196567 1_555
Mg3 Mg7 3.196567 1_555
Mg4 Mg8 3.112803 1_555
Mg4 Mg9 3.112803 1_554
Mg4 W0 3.128738 1_555
Mg4 W0 3.355226 1_655
Mg5 Mg9 3.196567 1_555
Mg5 Mg8 3.196567 1_555
Mg6 Mg8 2.917774 1_545
Mg6 Mg8 3.054188 1_555
Mg6 W0 3.133418 1_545
Mg7 Mg9 2.917774 1_545
Mg7 Mg9 3.054188 1_555
Mg7 W0 3.133418 1_546
Mg8 W0 3.133413 1_555
Mg9 W0 3.133413 1_556
Mg10 Mg12 3.006390 1_545
Mg10 Mg12 3.006390 1_555
Mg10 Mg3 3.063784 1_555
Mg10 Mg5 3.063790 1_545
Mg10 Mg8 3.217171 1_545
Mg10 Mg6 3.217171 1_555
Mg10 Mg8 3.274515 1_655
Mg10 Mg6 3.274516 1_655
Mg10 Mg2 3.306593 1_555
Mg10 Mg4 3.306598 1_545
Mg11 Mg13 3.006390 1_545
Mg11 Mg13 3.006390 1_555
Mg11 Mg3 3.063784 1_555
Mg11 Mg5 3.063790 1_545
Mg11 Mg9 3.217171 1_545
Mg11 Mg7 3.217171 1_555
Mg11 Mg9 3.274515 1_655
Mg11 Mg7 3.274516 1_655
Mg11 Mg2 3.306593 1_556
Mg11 Mg4 3.306598 1_546
Mg12 W0 2.983045 1_655
Mg12 Mg4 3.103441 1_555
Mg12 Mg2 3.103447 1_555
Mg12 Mg6 3.139842 1_665
Mg12 Mg8 3.139842 1_655
Mg12 Mg6 3.352609 1_555
Mg12 Mg8 3.352609 1_555
Mg12 Mg5 3.359123 1_555
Mg12 Mg3 3.359128 1_555
Mg13 W0 2.983045 1_656
Mg13 Mg4 3.103441 1_556
Mg13 Mg2 3.103447 1_556
Mg13 Mg7 3.139842 1_665
Mg13 Mg9 3.139842 1_655
Mg13 Mg7 3.352609 1_555
Mg13 Mg9 3.352609 1_555
Mg13 Mg5 3.359123 1_555
Mg13 Mg3 3.359128 1_555
