# generated using pymatgen
data_Mn2SnTe4
_symmetry_space_group_name_H-M   'P 1'
_cell_length_a   13.87224100
_cell_length_b   8.20488800
_cell_length_c   7.34129900
_cell_angle_alpha   90.00000000
_cell_angle_beta   90.00000000
_cell_angle_gamma   90.00000000
_symmetry_Int_Tables_number   1
_chemical_formula_structural   Mn2SnTe4
_chemical_formula_sum   'Mn8 Sn4 Te16'
_cell_volume   835.58800088
_cell_formula_units_Z   4
loop_
 _symmetry_equiv_pos_site_id
 _symmetry_equiv_pos_as_xyz
  1  'x, y, z'
loop_
 _atom_site_type_symbol
 _atom_site_label
 _atom_site_symmetry_multiplicity
 _atom_site_fract_x
 _atom_site_fract_y
 _atom_site_fract_z
 _atom_site_occupancy
  Mn  Mn0  1  0.00000000  0.50000000  0.00000000  1
  Mn  Mn1  1  0.50000000  0.00000000  0.50000000  1
  Mn  Mn2  1  0.00000000  0.00000000  0.00000000  1
  Mn  Mn3  1  0.50000000  0.50000000  0.50000000  1
  Mn  Mn4  1  0.23633000  0.75000000  0.51317000  1
  Mn  Mn5  1  0.73633000  0.75000000  0.98683000  1
  Mn  Mn6  1  0.76367000  0.25000000  0.48683000  1
  Mn  Mn7  1  0.26367000  0.25000000  0.01317000  1
  Sn  Sn0  1  0.41073600  0.75000000  0.92480000  1
  Sn  Sn1  1  0.91073600  0.75000000  0.57520000  1
  Sn  Sn2  1  0.58926400  0.25000000  0.07520000  1
  Sn  Sn3  1  0.08926400  0.25000000  0.42480000  1
  Te  Te0  1  0.32760700  0.48200500  0.72011500  1
  Te  Te1  1  0.82760700  0.01799500  0.77988500  1
  Te  Te2  1  0.67239300  0.98200500  0.27988500  1
  Te  Te3  1  0.17239300  0.51799500  0.22011500  1
  Te  Te4  1  0.67239300  0.51799500  0.27988500  1
  Te  Te5  1  0.17239300  0.98200500  0.22011500  1
  Te  Te6  1  0.32760700  0.01799500  0.72011500  1
  Te  Te7  1  0.82760700  0.48200500  0.77988500  1
  Te  Te8  1  0.41009800  0.75000000  0.33865400  1
  Te  Te9  1  0.91009800  0.75000000  0.16134600  1
  Te  Te10  1  0.58990200  0.25000000  0.66134600  1
  Te  Te11  1  0.08990200  0.25000000  0.83865400  1
  Te  Te12  1  0.59111700  0.75000000  0.72384500  1
  Te  Te13  1  0.09111700  0.75000000  0.77615500  1
  Te  Te14  1  0.40888300  0.25000000  0.27615500  1
  Te  Te15  1  0.90888300  0.25000000  0.22384500  1
loop_
_geom_bond_atom_site_label_1
_geom_bond_atom_site_label_2
_geom_bond_distance
_geom_bond_site_symmetry_2
Mn0 Te9 2.676918 1_455
Mn0 Te11 2.676918 1_554
Mn0 Te3 2.890016 1_555
Mn0 Te7 2.890016 1_454
Mn0 Te13 2.916450 1_554
Mn0 Te15 2.916450 1_455
Mn1 Te8 2.676918 1_545
Mn1 Te10 2.676918 1_555
Mn1 Te6 2.890016 1_555
Mn1 Te2 2.890016 1_545
Mn1 Te12 2.916450 1_545
Mn1 Te14 2.916450 1_555
Mn2 Te11 2.676918 1_554
Mn2 Te9 2.676918 1_445
Mn2 Te5 2.890016 1_545
Mn2 Te1 2.890016 1_454
Mn2 Te13 2.916450 1_544
Mn2 Te15 2.916450 1_455
Mn3 Te8 2.676918 1_555
Mn3 Te10 2.676918 1_555
Mn3 Te0 2.890016 1_555
Mn3 Te4 2.890016 1_555
Mn3 Te12 2.916450 1_555
Mn3 Te14 2.916450 1_555
Mn4 Te8 2.729866 1_555
Mn4 Te13 2.790223 1_555
Mn4 Te0 2.957437 1_555
Mn4 Te6 2.957437 1_565
Mn4 Te5 3.006463 1_555
Mn4 Te3 3.006463 1_555
Mn5 Te9 2.729866 1_556
Mn5 Te12 2.790223 1_555
Mn5 Te7 2.957437 1_555
Mn5 Te1 2.957437 1_565
Mn5 Te2 3.006463 1_556
Mn5 Te4 3.006463 1_556
Mn6 Te10 2.729866 1_555
Mn6 Te15 2.790223 1_555
Mn6 Te4 2.957437 1_555
Mn6 Te2 2.957437 1_545
Mn6 Te1 3.006463 1_555
Mn6 Te7 3.006463 1_555
Mn7 Te11 2.729866 1_554
Mn7 Te14 2.790223 1_555
Mn7 Te5 2.957437 1_545
Mn7 Te3 2.957437 1_555
Mn7 Te6 3.006463 1_554
Mn7 Te0 3.006463 1_554
Sn0 Te6 2.902211 1_565
Sn0 Te0 2.902211 1_555
Sn0 Te12 2.904802 1_555
Sn0 Te8 3.038239 1_556
Sn1 Te1 2.902211 1_565
Sn1 Te7 2.902211 1_555
Sn1 Te13 2.904802 1_655
Sn1 Te9 3.038239 1_555
Sn2 Te2 2.902211 1_545
Sn2 Te4 2.902211 1_555
Sn2 Te14 2.904802 1_555
Sn2 Te10 3.038239 1_554
Sn3 Te5 2.902211 1_545
Sn3 Te3 2.902211 1_555
Sn3 Te15 2.904802 1_455
Sn3 Te11 3.038239 1_555
