# generated using pymatgen
data_Na2PH6(SeO)3
_symmetry_space_group_name_H-M   'P 1'
_cell_length_a   7.35995786
_cell_length_b   20.97563998
_cell_length_c   26.44116194
_cell_angle_alpha   113.30081983
_cell_angle_beta   90.00000000
_cell_angle_gamma   90.00000000
_symmetry_Int_Tables_number   1
_chemical_formula_structural   Na2PH6(SeO)3
_chemical_formula_sum   'Na32 P16 H96 Se48 O48'
_cell_volume   3749.05848266
_cell_formula_units_Z   16
loop_
 _symmetry_equiv_pos_site_id
 _symmetry_equiv_pos_as_xyz
  1  'x, y, z'
loop_
 _atom_site_type_symbol
 _atom_site_label
 _atom_site_symmetry_multiplicity
 _atom_site_fract_x
 _atom_site_fract_y
 _atom_site_fract_z
 _atom_site_occupancy
  Na  Na0  1  0.93230523  0.26684862  0.97844045  1
  Na  Na1  1  0.43230523  0.23315138  0.02155955  1
  Na  Na2  1  0.06769477  0.73315138  0.02155955  1
  Na  Na3  1  0.56769477  0.76684862  0.97844045  1
  Na  Na4  1  0.71630544  0.63585031  0.13001046  1
  Na  Na5  1  0.21630544  0.86414969  0.86998954  1
  Na  Na6  1  0.28369456  0.36414969  0.86998954  1
  Na  Na7  1  0.78369456  0.13585031  0.13001046  1
  Na  Na8  1  0.21679216  0.63700695  0.13190134  1
  Na  Na9  1  0.71679216  0.86299305  0.86809866  1
  Na  Na10  1  0.78320784  0.36299305  0.86809866  1
  Na  Na11  1  0.28320784  0.13700695  0.13190134  1
  Na  Na12  1  0.29326803  0.44918511  0.14923688  1
  Na  Na13  1  0.79326803  0.05081489  0.85076312  1
  Na  Na14  1  0.70673197  0.55081489  0.85076312  1
  Na  Na15  1  0.20673197  0.94918511  0.14923688  1
  Na  Na16  1  0.53518013  0.71100426  0.47967406  1
  Na  Na17  1  0.03518013  0.78899574  0.52032594  1
  Na  Na18  1  0.46481987  0.28899574  0.52032594  1
  Na  Na19  1  0.96481987  0.21100426  0.47967406  1
  Na  Na20  1  0.67183895  0.79897777  0.35010419  1
  Na  Na21  1  0.17183895  0.70102223  0.64989581  1
  Na  Na22  1  0.32816105  0.20102223  0.64989581  1
  Na  Na23  1  0.82816105  0.29897777  0.35010419  1
  Na  Na24  1  0.28794760  0.00612895  0.36898114  1
  Na  Na25  1  0.78794760  0.49387105  0.63101886  1
  Na  Na26  1  0.71205240  0.99387105  0.63101886  1
  Na  Na27  1  0.21205240  0.50612895  0.36898114  1
  Na  Na28  1  0.78812372  0.00462801  0.36808086  1
  Na  Na29  1  0.28812372  0.49537199  0.63191914  1
  Na  Na30  1  0.21187628  0.99537199  0.63191914  1
  Na  Na31  1  0.71187628  0.50462801  0.36808086  1
  P  P0  1  0.75797649  0.42538021  0.10402388  1
  P  P1  1  0.25797649  0.07461979  0.89597612  1
  P  P2  1  0.24202351  0.57461979  0.89597612  1
  P  P3  1  0.74202351  0.92538021  0.10402388  1
  P  P4  1  0.76446350  0.34429418  0.14283465  1
  P  P5  1  0.26446350  0.15570582  0.85716535  1
  P  P6  1  0.23553650  0.65570582  0.85716535  1
  P  P7  1  0.73553650  0.84429418  0.14283465  1
  P  P8  1  0.21592124  0.82204446  0.39607675  1
  P  P9  1  0.71592124  0.67795554  0.60392325  1
  P  P10  1  0.78407876  0.17795554  0.60392325  1
  P  P11  1  0.28407876  0.32204446  0.39607675  1
  P  P12  1  0.19416414  0.70234345  0.35720831  1
  P  P13  1  0.69416414  0.79765655  0.64279169  1
  P  P14  1  0.80583586  0.29765655  0.64279169  1
  P  P15  1  0.30583586  0.20234345  0.35720831  1
  H  H0  1  0.76690423  0.23032040  0.87732205  1
  H  H1  1  0.26690423  0.26967960  0.12267795  1
  H  H2  1  0.23309577  0.76967960  0.12267795  1
  H  H3  1  0.73309577  0.73032040  0.87732205  1
  H  H4  1  0.61361681  0.27351264  0.91698588  1
  H  H5  1  0.11361681  0.22648736  0.08301412  1
  H  H6  1  0.38638319  0.72648736  0.08301412  1
  H  H7  1  0.88638319  0.77351264  0.91698588  1
  H  H8  1  0.45843369  0.69638663  0.22806169  1
  H  H9  1  0.95843369  0.80361337  0.77193831  1
  H  H10  1  0.54156631  0.30361337  0.77193831  1
  H  H11  1  0.04156631  0.19638663  0.22806169  1
  H  H12  1  0.47347637  0.74891338  0.19939408  1
  H  H13  1  0.97347637  0.75108662  0.80060592  1
  H  H14  1  0.52652363  0.25108662  0.80060592  1
  H  H15  1  0.02652363  0.24891338  0.19939408  1
  H  H16  1  0.05705822  0.56190921  0.19391801  1
  H  H17  1  0.55705822  0.93809079  0.80608199  1
  H  H18  1  0.94294178  0.43809079  0.80608199  1
  H  H19  1  0.44294178  0.06190921  0.19391801  1
  H  H20  1  0.24044487  0.59317481  0.22398624  1
  H  H21  1  0.74044487  0.90682519  0.77601376  1
  H  H22  1  0.75955513  0.40682519  0.77601376  1
  H  H23  1  0.25955513  0.09317481  0.22398624  1
  H  H24  1  0.46911868  0.52215667  0.06273551  1
  H  H25  1  0.96911868  0.97784333  0.93726449  1
  H  H26  1  0.53088132  0.47784333  0.93726449  1
  H  H27  1  0.03088132  0.02215667  0.06273551  1
  H  H28  1  0.45076086  0.57500982  0.03430008  1
  H  H29  1  0.95076086  0.92499018  0.96569992  1
  H  H30  1  0.54923914  0.42499018  0.96569992  1
  H  H31  1  0.04923914  0.07500982  0.03430008  1
  H  H32  1  0.97949832  0.58380360  0.03307907  1
  H  H33  1  0.47949832  0.91619640  0.96692093  1
  H  H34  1  0.02050168  0.41619640  0.96692093  1
  H  H35  1  0.52050168  0.08380360  0.03307907  1
  H  H36  1  0.97500540  0.52935797  0.06015736  1
  H  H37  1  0.47500540  0.97064203  0.93984264  1
  H  H38  1  0.02499460  0.47064203  0.93984264  1
  H  H39  1  0.52499460  0.02935797  0.06015736  1
  H  H40  1  0.97308157  0.69762659  0.22644975  1
  H  H41  1  0.47308157  0.80237341  0.77355025  1
  H  H42  1  0.02691843  0.30237341  0.77355025  1
  H  H43  1  0.52691843  0.19762659  0.22644975  1
  H  H44  1  0.96987287  0.74737101  0.19474407  1
  H  H45  1  0.46987287  0.75262899  0.80525593  1
  H  H46  1  0.03012713  0.25262899  0.80525593  1
  H  H47  1  0.53012713  0.24737101  0.19474407  1
  H  H48  1  0.70329005  0.64740697  0.37706543  1
  H  H49  1  0.20329005  0.85259303  0.62293457  1
  H  H50  1  0.29670995  0.35259303  0.62293457  1
  H  H51  1  0.79670995  0.14740697  0.37706543  1
  H  H52  1  0.85355885  0.64571363  0.41760692  1
  H  H53  1  0.35355885  0.85428637  0.58239308  1
  H  H54  1  0.14644115  0.35428637  0.58239308  1
  H  H55  1  0.64644115  0.14571363  0.41760692  1
  H  H56  1  0.91652433  0.86443428  0.30446150  1
  H  H57  1  0.41652433  0.63556572  0.69553850  1
  H  H58  1  0.08347567  0.13556572  0.69553850  1
  H  H59  1  0.58347567  0.36443428  0.30446150  1
  H  H60  1  0.73156118  0.87003802  0.27674664  1
  H  H61  1  0.23156118  0.62996198  0.72325336  1
  H  H62  1  0.26843882  0.12996198  0.72325336  1
  H  H63  1  0.76843882  0.37003802  0.27674664  1
  H  H64  1  0.02342643  0.96356790  0.27105280  1
  H  H65  1  0.52342643  0.53643210  0.72894720  1
  H  H66  1  0.97657357  0.03643210  0.72894720  1
  H  H67  1  0.47657357  0.46356790  0.27105280  1
  H  H68  1  0.04059897  0.04498669  0.29924239  1
  H  H69  1  0.54059897  0.45501331  0.70075761  1
  H  H70  1  0.95940103  0.95501331  0.70075761  1
  H  H71  1  0.45940103  0.54498669  0.29924239  1
  H  H72  1  0.02611611  0.05191080  0.46662580  1
  H  H73  1  0.52611611  0.44808920  0.53337420  1
  H  H74  1  0.97388389  0.94808920  0.53337420  1
  H  H75  1  0.47388389  0.55191080  0.46662580  1
  H  H76  1  0.02637662  0.97062651  0.43957153  1
  H  H77  1  0.52637662  0.52937349  0.56042847  1
  H  H78  1  0.97362338  0.02937349  0.56042847  1
  H  H79  1  0.47362338  0.47062651  0.43957153  1
  H  H80  1  0.54196933  0.05810862  0.30584760  1
  H  H81  1  0.04196933  0.44189138  0.69415240  1
  H  H82  1  0.45803067  0.94189138  0.69415240  1
  H  H83  1  0.95803067  0.55810862  0.30584760  1
  H  H84  1  0.54199147  0.97706588  0.27353957  1
  H  H85  1  0.04199147  0.52293412  0.72646043  1
  H  H86  1  0.45800853  0.02293412  0.72646043  1
  H  H87  1  0.95800853  0.47706588  0.27353957  1
  H  H88  1  0.52877054  0.95793002  0.43666645  1
  H  H89  1  0.02877054  0.54206998  0.56333355  1
  H  H90  1  0.47122946  0.04206998  0.56333355  1
  H  H91  1  0.97122946  0.45793002  0.43666645  1
  H  H92  1  0.55114133  0.03890283  0.46518619  1
  H  H93  1  0.05114133  0.46109717  0.53481381  1
  H  H94  1  0.44885867  0.96109717  0.53481381  1
  H  H95  1  0.94885867  0.53890283  0.46518619  1
  Se  Se0  1  0.01945678  0.41395496  0.05979891  1
  Se  Se1  1  0.51945678  0.08604504  0.94020109  1
  Se  Se2  1  0.98054322  0.58604504  0.94020109  1
  Se  Se3  1  0.48054322  0.91395496  0.05979891  1
  Se  Se4  1  0.72216972  0.52306689  0.17507338  1
  Se  Se5  1  0.22216972  0.97693311  0.82492662  1
  Se  Se6  1  0.27783028  0.47693311  0.82492662  1
  Se  Se7  1  0.77783028  0.02306689  0.17507338  1
  Se  Se8  1  0.52245331  0.39555385  0.04688782  1
  Se  Se9  1  0.02245331  0.10444615  0.95311218  1
  Se  Se10  1  0.47754669  0.60444615  0.95311218  1
  Se  Se11  1  0.97754669  0.89555385  0.04688782  1
  Se  Se12  1  -0.00099180  0.36687106  0.19928928  1
  Se  Se13  1  0.49900820  0.13312894  0.80071072  1
  Se  Se14  1  0.00099180  0.63312894  0.80071072  1
  Se  Se15  1  0.50099180  0.86687106  0.19928928  1
  Se  Se16  1  0.50113935  0.35435123  0.18622809  1
  Se  Se17  1  0.00113935  0.14564877  0.81377191  1
  Se  Se18  1  0.49886065  0.64564877  0.81377191  1
  Se  Se19  1  0.99886065  0.85435123  0.18622809  1
  Se  Se20  1  0.79384308  0.24085569  0.07416245  1
  Se  Se21  1  0.29384308  0.25914431  0.92583755  1
  Se  Se22  1  0.20615692  0.75914431  0.92583755  1
  Se  Se23  1  0.70615692  0.74085569  0.07416245  1
  Se  Se24  1  0.25765405  0.84794827  0.32482693  1
  Se  Se25  1  0.75765405  0.65205173  0.67517307  1
  Se  Se26  1  0.74234595  0.15205173  0.67517307  1
  Se  Se27  1  0.24234595  0.34794827  0.32482693  1
  Se  Se28  1  0.45284255  0.84634618  0.45268468  1
  Se  Se29  1  0.95284255  0.65365382  0.54731532  1
  Se  Se30  1  0.54715745  0.15365382  0.54731532  1
  Se  Se31  1  0.04715745  0.34634618  0.45268468  1
  Se  Se32  1  0.95647646  0.85767413  0.44060792  1
  Se  Se33  1  0.45647646  0.64232587  0.55939208  1
  Se  Se34  1  0.04352354  0.14232587  0.55939208  1
  Se  Se35  1  0.54352354  0.35767413  0.44060792  1
  Se  Se36  1  0.44326786  0.66262895  0.30685162  1
  Se  Se37  1  0.94326786  0.83737105  0.69314838  1
  Se  Se38  1  0.55673214  0.33737105  0.69314838  1
  Se  Se39  1  0.05673214  0.16262895  0.30685162  1
  Se  Se40  1  0.17627302  0.66696102  0.42587036  1
  Se  Se41  1  0.67627302  0.83303898  0.57412964  1
  Se  Se42  1  0.82372698  0.33303898  0.57412964  1
  Se  Se43  1  0.32372698  0.16696102  0.42587036  1
  Se  Se44  1  0.94341177  0.67516620  0.30780258  1
  Se  Se45  1  0.44341177  0.82483380  0.69219742  1
  Se  Se46  1  0.05658823  0.32483380  0.69219742  1
  Se  Se47  1  0.55658823  0.17516620  0.30780258  1
  O  O0  1  0.74541324  0.27422791  0.90942957  1
  O  O1  1  0.24541324  0.22577209  0.09057043  1
  O  O2  1  0.25458676  0.72577209  0.09057043  1
  O  O3  1  0.75458676  0.77422791  0.90942957  1
  O  O4  1  0.47324681  0.69882204  0.19175408  1
  O  O5  1  0.97324681  0.80117796  0.80824592  1
  O  O6  1  0.52675319  0.30117796  0.80824592  1
  O  O7  1  0.02675319  0.19882204  0.19175408  1
  O  O8  1  0.18897121  0.56346203  0.18775893  1
  O  O9  1  0.68897121  0.93653797  0.81224107  1
  O  O10  1  0.81102879  0.43653797  0.81224107  1
  O  O11  1  0.31102879  0.06346203  0.18775893  1
  O  O12  1  0.45976003  0.57216674  0.07058390  1
  O  O13  1  0.95976003  0.92783326  0.92941610  1
  O  O14  1  0.54023997  0.42783326  0.92941610  1
  O  O15  1  0.04023997  0.07216674  0.07058390  1
  O  O16  1  0.96640396  0.57964224  0.06877543  1
  O  O17  1  0.46640396  0.92035776  0.93122457  1
  O  O18  1  0.03359604  0.42035776  0.93122457  1
  O  O19  1  0.53359604  0.07964224  0.06877543  1
  O  O20  1  0.96307030  0.69789244  0.18921801  1
  O  O21  1  0.46307030  0.80210756  0.81078199  1
  O  O22  1  0.03692970  0.30210756  0.81078199  1
  O  O23  1  0.53692970  0.19789244  0.18921801  1
  O  O24  1  0.72211218  0.63667042  0.40980205  1
  O  O25  1  0.22211218  0.86332958  0.59019795  1
  O  O26  1  0.27788782  0.36332958  0.59019795  1
  O  O27  1  0.77788782  0.13667042  0.40980205  1
  O  O28  1  0.78626301  0.87474268  0.31215847  1
  O  O29  1  0.28626301  0.62525732  0.68784153  1
  O  O30  1  0.21373699  0.12525732  0.68784153  1
  O  O31  1  0.71373699  0.37474268  0.31215847  1
  O  O32  1  0.04240202  0.00254259  0.30693924  1
  O  O33  1  0.54240202  0.49745741  0.69306076  1
  O  O34  1  0.95759798  0.99745741  0.69306076  1
  O  O35  1  0.45759798  0.50254259  0.30693924  1
  O  O36  1  0.03854920  0.01209780  0.43082272  1
  O  O37  1  0.53854920  0.48790220  0.56917728  1
  O  O38  1  0.96145080  0.98790220  0.56917728  1
  O  O39  1  0.46145080  0.51209780  0.43082272  1
  O  O40  1  0.53655467  0.01398315  0.31110011  1
  O  O41  1  0.03655467  0.48601685  0.68889989  1
  O  O42  1  0.46344533  0.98601685  0.68889989  1
  O  O43  1  0.96344533  0.51398315  0.31110011  1
  O  O44  1  0.54107347  0.00006783  0.42893141  1
  O  O45  1  0.04107347  0.49993217  0.57106859  1
  O  O46  1  0.45892653  -0.00006783  0.57106859  1
  O  O47  1  0.95892653  0.50006783  0.42893141  1
loop_
_geom_bond_atom_site_label_1
_geom_bond_atom_site_label_2
_geom_bond_distance
_geom_bond_site_symmetry_2
Na0 O0 2.338607 1_555
Na0 Se20 2.972111 1_556
Na0 Se21 2.977122 1_655
Na0 Se0 3.051071 1_656
Na0 Se9 3.269268 1_655
Na1 O1 2.338607 1_555
Na1 Se21 2.972111 1_554
Na1 Se20 2.977122 1_555
Na1 Se1 3.051071 1_554
Na1 Se8 3.269268 1_555
Na2 O2 2.338607 1_555
Na2 Se22 2.972111 1_554
Na2 Se23 2.977122 1_455
Na2 Se2 3.051071 1_454
Na2 Se11 3.269268 1_455
Na3 O3 2.338607 1_555
Na3 Se23 2.972111 1_556
Na3 Se22 2.977122 1_555
Na3 Se3 3.051071 1_556
Na3 Se10 3.269268 1_555
Na4 O20 2.414780 1_555
Na4 O16 2.426857 1_555
Na4 O4 2.429853 1_555
Na4 O12 2.481535 1_555
Na4 Se4 3.041071 1_555
Na4 Se23 3.100085 1_555
Na5 O21 2.414780 1_555
Na5 O17 2.426857 1_555
Na5 O5 2.429853 1_455
Na5 O13 2.481535 1_455
Na5 Se5 3.041071 1_555
Na5 Se22 3.100085 1_555
Na6 O22 2.414780 1_555
Na6 O18 2.426857 1_555
Na6 O6 2.429853 1_555
Na6 O14 2.481535 1_555
Na6 Se6 3.041071 1_555
Na6 Se21 3.100085 1_555
Na7 O23 2.414780 1_555
Na7 O19 2.426857 1_555
Na7 O7 2.429853 1_655
Na7 O15 2.481535 1_655
Na7 Se7 3.041071 1_555
Na7 Se20 3.100085 1_555
Na8 O20 2.425641 1_455
Na8 O12 2.435509 1_555
Na8 O16 2.457848 1_455
Na8 O4 2.474879 1_555
Na8 O2 2.519543 1_555
Na8 O8 2.530916 1_555
Na9 O21 2.425641 1_555
Na9 O13 2.435509 1_555
Na9 O17 2.457848 1_555
Na9 O5 2.474879 1_555
Na9 O3 2.519543 1_555
Na9 O9 2.530916 1_555
Na10 O22 2.425641 1_655
Na10 O14 2.435509 1_555
Na10 O18 2.457848 1_655
Na10 O6 2.474879 1_555
Na10 O0 2.519543 1_555
Na10 O10 2.530916 1_555
Na11 O23 2.425641 1_555
Na11 O15 2.435509 1_555
Na11 O19 2.457848 1_555
Na11 O7 2.474879 1_555
Na11 O1 2.519543 1_555
Na11 O11 2.530916 1_555
Na12 O8 2.332582 1_555
Na12 Se16 2.965378 1_555
Na12 Se0 2.969383 1_555
Na12 Se8 3.004331 1_555
Na12 Se12 3.351236 1_555
Na12 Se4 3.463454 1_555
Na13 O9 2.332582 1_545
Na13 Se17 2.965378 1_655
Na13 Se1 2.969383 1_555
Na13 Se9 3.004331 1_655
Na13 Se13 3.351236 1_555
Na13 Se5 3.463454 1_645
Na14 O10 2.332582 1_555
Na14 Se18 2.965378 1_555
Na14 Se2 2.969383 1_555
Na14 Se10 3.004331 1_555
Na14 Se14 3.351236 1_655
Na14 Se6 3.463454 1_555
Na15 O11 2.332582 1_565
Na15 Se19 2.965378 1_455
Na15 Se3 2.969383 1_555
Na15 Se11 3.004331 1_455
Na15 Se15 3.351236 1_555
Na15 Se7 3.463454 1_465
Na16 O24 2.336301 1_555
Na16 Se41 2.968274 1_555
Na16 Se40 2.969065 1_555
Na16 Se33 3.042366 1_555
Na16 Se28 3.246306 1_555
Na17 O25 2.336301 1_555
Na17 Se40 2.968274 1_555
Na17 Se41 2.969065 1_455
Na17 Se32 3.042366 1_455
Na17 Se29 3.246306 1_455
Na18 O26 2.336301 1_555
Na18 Se43 2.968274 1_555
Na18 Se42 2.969065 1_555
Na18 Se35 3.042366 1_555
Na18 Se30 3.246306 1_555
Na19 O27 2.336301 1_555
Na19 Se42 2.968274 1_555
Na19 Se43 2.969065 1_655
Na19 Se34 3.042366 1_655
Na19 Se31 3.246306 1_655
Na20 O28 2.345837 1_555
Na20 Se28 2.968153 1_555
Na20 Se32 3.049630 1_555
Na20 Se44 3.113300 1_555
Na20 Se36 3.119292 1_555
Na20 Se24 3.367133 1_555
Na21 O29 2.345837 1_555
Na21 Se29 2.968153 1_455
Na21 Se33 3.049630 1_555
Na21 Se45 3.113300 1_555
Na21 Se37 3.119292 1_455
Na21 Se25 3.367133 1_455
Na22 O30 2.345837 1_555
Na22 Se30 2.968153 1_555
Na22 Se34 3.049630 1_555
Na22 Se46 3.113300 1_555
Na22 Se38 3.119292 1_555
Na22 Se26 3.367133 1_555
Na23 O31 2.345837 1_555
Na23 Se31 2.968153 1_655
Na23 Se35 3.049630 1_555
Na23 Se47 3.113300 1_555
Na23 Se39 3.119292 1_655
Na23 Se27 3.367133 1_655
Na24 O32 2.421803 1_555
Na24 O36 2.428325 1_555
Na24 O40 2.432448 1_555
Na24 O44 2.481747 1_555
Na24 Se24 3.058914 1_545
Na24 Se43 3.114212 1_555
Na25 O33 2.421803 1_555
Na25 O37 2.428325 1_555
Na25 O41 2.432448 1_655
Na25 O45 2.481747 1_655
Na25 Se25 3.058914 1_555
Na25 Se42 3.114212 1_555
Na26 O34 2.421803 1_555
Na26 O38 2.428325 1_555
Na26 O42 2.432448 1_555
Na26 O46 2.481747 1_565
Na26 Se26 3.058914 1_565
Na26 Se41 3.114212 1_555
Na27 O35 2.421803 1_555
Na27 O39 2.428325 1_555
Na27 O43 2.432448 1_455
Na27 O47 2.481747 1_455
Na27 Se27 3.058914 1_555
Na27 Se40 3.114212 1_555
Na28 O36 2.442986 1_655
Na28 O40 2.443470 1_555
Na28 O44 2.454749 1_555
Na28 O32 2.462107 1_655
Na28 O28 2.534188 1_545
Na28 O27 2.544908 1_555
Na29 O37 2.442986 1_555
Na29 O41 2.443470 1_555
Na29 O45 2.454749 1_555
Na29 O33 2.462107 1_555
Na29 O29 2.534188 1_555
Na29 O26 2.544908 1_555
Na30 O38 2.442986 1_455
Na30 O42 2.443470 1_555
Na30 O46 2.454749 1_565
Na30 O34 2.462107 1_455
Na30 O30 2.534188 1_565
Na30 O25 2.544908 1_555
Na31 O39 2.442986 1_555
Na31 O43 2.443470 1_555
Na31 O47 2.454749 1_555
Na31 O35 2.462107 1_555
Na31 O31 2.534188 1_555
Na31 O24 2.544908 1_555
P0 Se4 2.179898 1_555
P0 Se0 2.215123 1_655
P0 Se8 2.220549 1_555
P0 P4 2.308465 1_555
P1 Se5 2.179898 1_545
P1 Se1 2.215123 1_555
P1 Se9 2.220549 1_555
P1 P5 2.308465 1_555
P2 Se6 2.179898 1_555
P2 Se2 2.215123 1_455
P2 Se10 2.220549 1_555
P2 P6 2.308465 1_555
P3 Se7 2.179898 1_565
P3 Se3 2.215123 1_555
P3 Se11 2.220549 1_555
P3 P7 2.308465 1_555
P4 Se12 2.207522 1_655
P4 Se16 2.219355 1_555
P4 Se20 2.221396 1_555
P5 Se13 2.207522 1_555
P5 Se17 2.219355 1_555
P5 Se21 2.221396 1_555
P6 Se14 2.207522 1_555
P6 Se18 2.219355 1_555
P6 Se22 2.221396 1_555
P7 Se15 2.207522 1_555
P7 Se19 2.219355 1_555
P7 Se23 2.221396 1_555
P8 Se24 2.179121 1_555
P8 Se32 2.212459 1_455
P8 Se28 2.221977 1_555
P9 Se25 2.179121 1_555
P9 Se33 2.212459 1_555
P9 Se29 2.221977 1_555
P10 Se26 2.179121 1_555
P10 Se34 2.212459 1_655
P10 Se30 2.221977 1_555
P10 P14 2.311837 1_555
P11 Se27 2.179121 1_555
P11 Se35 2.212459 1_555
P11 Se31 2.221977 1_555
P11 P15 2.311837 1_555
P12 Se44 2.201893 1_455
P12 Se40 2.220399 1_555
P12 Se36 2.225006 1_555
P12 P8 2.311837 1_555
P13 Se45 2.201893 1_555
P13 Se41 2.220399 1_555
P13 Se37 2.225006 1_555
P13 P9 2.311837 1_555
P14 Se46 2.201893 1_655
P14 Se42 2.220399 1_555
P14 Se38 2.225006 1_555
P15 Se47 2.201893 1_555
P15 Se43 2.220399 1_555
P15 Se39 2.225006 1_555
H0 O0 0.987629 1_555
H1 O1 0.987629 1_555
H2 O2 0.987629 1_555
H3 O3 0.987629 1_555
H4 O0 0.991689 1_555
H5 O1 0.991689 1_555
H6 O2 0.991689 1_555
H7 O3 0.991689 1_555
H8 O4 0.987382 1_555
H9 O5 0.987382 1_555
H10 O6 0.987382 1_555
H11 O7 0.987382 1_555
H12 O4 0.988363 1_555
H13 O5 0.988363 1_555
H14 O6 0.988363 1_555
H15 O7 0.988363 1_555
H16 O8 0.987104 1_555
H17 O9 0.987104 1_555
H18 O10 0.987104 1_555
H19 O11 0.987104 1_555
H20 O8 0.988542 1_555
H21 O9 0.988542 1_555
H22 O10 0.988542 1_555
H23 O11 0.988542 1_555
H24 O12 0.987917 1_555
H25 O13 0.987917 1_555
H26 O14 0.987917 1_555
H27 O15 0.987917 1_555
H28 O12 0.986726 1_555
H29 O13 0.986726 1_555
H30 O14 0.986726 1_555
H31 O15 0.986726 1_555
H32 O16 0.986379 1_555
H33 O17 0.986379 1_555
H34 O18 0.986379 1_555
H35 O19 0.986379 1_555
H36 O16 0.989079 1_555
H37 O17 0.989079 1_555
H38 O18 0.989079 1_555
H39 O19 0.989079 1_555
H40 O20 0.989417 1_555
H41 O21 0.989417 1_555
H42 O22 0.989417 1_555
H43 O23 0.989417 1_555
H44 O20 0.990459 1_555
H45 O21 0.990459 1_555
H46 O22 0.990459 1_555
H47 O23 0.990459 1_555
H48 O24 0.986600 1_555
H49 O25 0.986600 1_555
H50 O26 0.986600 1_555
H51 O27 0.986600 1_555
H52 O24 0.991738 1_555
H53 O25 0.991738 1_555
H54 O26 0.991738 1_555
H55 O27 0.991738 1_555
H56 O28 0.986154 1_555
H57 O29 0.986154 1_555
H58 O30 0.986154 1_555
H59 O31 0.986154 1_555
H60 O28 0.987645 1_555
H61 O29 0.987645 1_555
H62 O30 0.987645 1_555
H63 O31 0.987645 1_555
H64 O32 0.987179 1_565
H65 O33 0.987179 1_555
H66 O34 0.987179 1_545
H67 O35 0.987179 1_555
H68 O32 0.988713 1_555
H69 O33 0.988713 1_555
H70 O34 0.988713 1_555
H71 O35 0.988713 1_555
H72 O36 0.988195 1_555
H73 O37 0.988195 1_555
H74 O38 0.988195 1_555
H75 O39 0.988195 1_555
H76 O36 0.988655 1_565
H77 O37 0.988655 1_555
H78 O38 0.988655 1_545
H79 O39 0.988655 1_555
H80 O40 0.989561 1_555
H81 O41 0.989561 1_555
H82 O42 0.989561 1_555
H83 O43 0.989561 1_555
H84 O40 0.989527 1_565
H85 O41 0.989527 1_555
H86 O42 0.989527 1_545
H87 O43 0.989527 1_555
H88 O44 0.987047 1_565
H89 O45 0.987047 1_555
H90 O46 0.987047 1_555
H91 O47 0.987047 1_555
H92 O44 0.985001 1_555
H93 O45 0.985001 1_555
H94 O46 0.985001 1_565
H95 O47 0.985001 1_555
