# generated using pymatgen
data_SrMg14SnO16
_symmetry_space_group_name_H-M   'P 1'
_cell_length_a   8.77335226
_cell_length_b   8.90680565
_cell_length_c   4.47483525
_cell_angle_alpha   90.00000000
_cell_angle_beta   90.00000000
_cell_angle_gamma   90.00000000
_symmetry_Int_Tables_number   1
_chemical_formula_structural   SrMg14SnO16
_chemical_formula_sum   'Sr1 Mg14 Sn1 O16'
_cell_volume   349.67500808
_cell_formula_units_Z   1
loop_
 _symmetry_equiv_pos_site_id
 _symmetry_equiv_pos_as_xyz
  1  'x, y, z'
loop_
 _atom_site_type_symbol
 _atom_site_label
 _atom_site_symmetry_multiplicity
 _atom_site_fract_x
 _atom_site_fract_y
 _atom_site_fract_z
 _atom_site_occupancy
  Sr  Sr0  1  0.00000000  0.50000000  -0.00000000  1
  Mg  Mg0  1  0.50000000  0.00000000  -0.00000000  1
  Mg  Mg1  1  0.50000000  0.50000000  -0.00000000  1
  Mg  Mg2  1  0.00000000  0.24911324  0.50000000  1
  Mg  Mg3  1  0.00000000  0.75088676  0.50000000  1
  Mg  Mg4  1  0.50000000  0.24998062  0.50000000  1
  Mg  Mg5  1  0.50000000  0.75001938  0.50000000  1
  Mg  Mg6  1  0.26004067  -0.00000000  0.50000000  1
  Mg  Mg7  1  0.26101201  0.50000000  0.50000000  1
  Mg  Mg8  1  0.73995933  0.00000000  0.50000000  1
  Mg  Mg9  1  0.73898799  0.50000000  0.50000000  1
  Mg  Mg10  1  0.26107769  0.24868708  0.00000000  1
  Mg  Mg11  1  0.26107769  0.75131292  0.00000000  1
  Mg  Mg12  1  0.73892231  0.24868708  -0.00000000  1
  Mg  Mg13  1  0.73892231  0.75131292  -0.00000000  1
  Sn  Sn0  1  0.00000000  0.00000000  -0.00000000  1
  O  O0  1  0.27379985  -0.00000000  -0.00000000  1
  O  O1  1  0.27266989  0.50000000  -0.00000000  1
  O  O2  1  0.72620015  0.00000000  0.00000000  1
  O  O3  1  0.72733011  0.50000000  0.00000000  1
  O  O4  1  0.25088074  0.25024125  0.50000000  1
  O  O5  1  0.25088074  0.74975875  0.50000000  1
  O  O6  1  0.74911926  0.25024125  0.50000000  1
  O  O7  1  0.74911926  0.74975875  0.50000000  1
  O  O8  1  0.00000000  0.00000000  0.50000000  1
  O  O9  1  0.00000000  0.50000000  0.50000000  1
  O  O10  1  0.50000000  0.00000000  0.50000000  1
  O  O11  1  0.50000000  0.50000000  0.50000000  1
  O  O12  1  0.00000000  0.24719094  -0.00000000  1
  O  O13  1  0.00000000  0.75280906  0.00000000  1
  O  O14  1  0.50000000  0.24989694  0.00000000  1
  O  O15  1  0.50000000  0.75010306  -0.00000000  1
loop_
_geom_bond_atom_site_label_1
_geom_bond_atom_site_label_2
_geom_bond_distance
_geom_bond_site_symmetry_2
Mg0 O0 1.984534 1_555
Mg0 O2 1.984534 1_555
Mg0 O15 2.225783 1_545
Mg0 O14 2.225783 1_555
Mg0 O10 2.237418 1_554
Mg0 O10 2.237418 1_555
Mg1 O1 1.994447 1_555
Mg1 O3 1.994447 1_555
Mg1 O14 2.227619 1_555
Mg1 O15 2.227619 1_555
Mg1 O11 2.237418 1_554
Mg1 O11 2.237418 1_555
Mg2 O6 2.201088 1_455
Mg2 O4 2.201088 1_555
Mg2 O8 2.218803 1_555
Mg2 O9 2.234600 1_555
Mg2 O12 2.237483 1_555
Mg2 O12 2.237483 1_556
Mg3 O7 2.201088 1_455
Mg3 O5 2.201088 1_555
Mg3 O8 2.218803 1_565
Mg3 O9 2.234600 1_555
Mg3 O13 2.237483 1_555
Mg3 O13 2.237483 1_556
Mg4 O4 2.185612 1_555
Mg4 O6 2.185612 1_555
Mg4 O10 2.226529 1_555
Mg4 O11 2.226874 1_555
Mg4 O14 2.237418 1_556
Mg4 O14 2.237418 1_555
Mg5 O5 2.185612 1_555
Mg5 O7 2.185612 1_555
Mg5 O10 2.226529 1_565
Mg5 O11 2.226874 1_555
Mg5 O15 2.237418 1_555
Mg5 O15 2.237418 1_556
Mg6 O10 2.105248 1_555
Mg6 O5 2.230298 1_545
Mg6 O4 2.230298 1_555
Mg6 O0 2.240672 1_555
Mg6 O0 2.240672 1_556
Mg6 O8 2.281428 1_555
Mg7 O11 2.096726 1_555
Mg7 O4 2.226328 1_555
Mg7 O5 2.226328 1_555
Mg7 O1 2.239754 1_556
Mg7 O1 2.239754 1_555
Mg7 O9 2.289950 1_555
Mg8 O10 2.105248 1_555
Mg8 O7 2.230298 1_545
Mg8 O6 2.230298 1_555
Mg8 O2 2.240672 1_556
Mg8 O2 2.240672 1_555
Mg8 O8 2.281428 1_655
Mg9 O11 2.096726 1_555
Mg9 O6 2.226328 1_555
Mg9 O7 2.226328 1_555
Mg9 O3 2.239754 1_556
Mg9 O3 2.239754 1_555
Mg9 O9 2.289950 1_655
Mg10 O14 2.096177 1_555
Mg10 O0 2.217818 1_555
Mg10 O4 2.239248 1_554
Mg10 O4 2.239248 1_555
Mg10 O1 2.240705 1_555
Mg10 O12 2.290565 1_555
Mg11 O15 2.096177 1_555
Mg11 O0 2.217818 1_565
Mg11 O5 2.239248 1_554
Mg11 O5 2.239248 1_555
Mg11 O1 2.240705 1_555
Mg11 O13 2.290565 1_555
Mg12 O14 2.096177 1_555
Mg12 O2 2.217818 1_555
Mg12 O6 2.239248 1_555
Mg12 O6 2.239248 1_554
Mg12 O3 2.240705 1_555
Mg12 O12 2.290565 1_655
Mg13 O15 2.096177 1_555
Mg13 O2 2.217818 1_565
Mg13 O7 2.239248 1_555
Mg13 O7 2.239248 1_554
Mg13 O3 2.240705 1_555
Mg13 O13 2.290565 1_655
O0 Sn0 2.402143 1_555
O1 Sr0 2.392229 1_555
O2 Sn0 2.402143 1_655
O3 Sr0 2.392229 1_655
O8 Sn0 2.237418 1_556
O8 Sn0 2.237418 1_555
O9 Sr0 2.237418 1_555
O9 Sr0 2.237418 1_556
O12 Sn0 2.201682 1_555
O12 Sr0 2.251721 1_555
O13 Sn0 2.201682 1_565
O13 Sr0 2.251721 1_555
