# generated using pymatgen
data_Rb6InP3S14
_symmetry_space_group_name_H-M   'P 1'
_cell_length_a   11.57498497
_cell_length_b   11.57498497
_cell_length_c   13.38411063
_cell_angle_alpha   74.19977220
_cell_angle_beta   74.19977220
_cell_angle_gamma   58.27595156
_symmetry_Int_Tables_number   1
_chemical_formula_structural   Rb6InP3S14
_chemical_formula_sum   'Rb12 In2 P6 S28'
_cell_volume   1449.27878578
_cell_formula_units_Z   2
loop_
 _symmetry_equiv_pos_site_id
 _symmetry_equiv_pos_as_xyz
  1  'x, y, z'
loop_
 _atom_site_type_symbol
 _atom_site_label
 _atom_site_symmetry_multiplicity
 _atom_site_fract_x
 _atom_site_fract_y
 _atom_site_fract_z
 _atom_site_occupancy
  Rb  Rb0  1  0.02119000  0.78955100  0.58713800  1
  Rb  Rb1  1  0.21044900  0.97881000  0.91286200  1
  Rb  Rb2  1  0.97881000  0.21044900  0.41286200  1
  Rb  Rb3  1  0.78955100  0.02119000  0.08713800  1
  Rb  Rb4  1  0.89779400  0.67271000  0.35022100  1
  Rb  Rb5  1  0.32729000  0.10220600  0.14977900  1
  Rb  Rb6  1  0.10220600  0.32729000  0.64977900  1
  Rb  Rb7  1  0.67271000  0.89779400  0.85022100  1
  Rb  Rb8  1  0.79789300  0.43611500  0.00990000  1
  Rb  Rb9  1  0.56388500  0.20210700  0.49010000  1
  Rb  Rb10  1  0.20210700  0.56388500  0.99010000  1
  Rb  Rb11  1  0.43611500  0.79789300  0.50990000  1
  In  In0  1  0.36598700  0.63401300  0.25000000  1
  In  In1  1  0.63401300  0.36598700  0.75000000  1
  P  P0  1  0.27419600  0.34225900  0.32935500  1
  P  P1  1  0.65774100  0.72580400  0.17064500  1
  P  P2  1  0.72580400  0.65774100  0.67064500  1
  P  P3  1  0.34225900  0.27419600  0.82935500  1
  P  P4  1  0.05800600  0.94199400  0.25000000  1
  P  P5  1  0.94199400  0.05800600  0.75000000  1
  S  S0  1  0.13330200  0.78585300  0.16122700  1
  S  S1  1  0.21414700  0.86669800  0.33877300  1
  S  S2  1  0.86669800  0.21414700  0.83877300  1
  S  S3  1  0.78585300  0.13330200  0.66122700  1
  S  S4  1  0.47238000  0.44105300  0.13213200  1
  S  S5  1  0.55894700  0.52762000  0.36786800  1
  S  S6  1  0.52762000  0.55894700  0.86786800  1
  S  S7  1  0.44105300  0.47238000  0.63213200  1
  S  S8  1  0.24448900  0.49470300  0.40140600  1
  S  S9  1  0.50529700  0.75551100  0.09859400  1
  S  S10  1  0.75551100  0.50529700  0.59859400  1
  S  S11  1  0.49470300  0.24448900  0.90140600  1
  S  S12  1  0.13343800  0.40523400  0.23799500  1
  S  S13  1  0.59476600  0.86656200  0.26200500  1
  S  S14  1  0.86656200  0.59476600  0.76200500  1
  S  S15  1  0.40523400  0.13343800  0.73799500  1
  S  S16  1  0.83055400  0.69606400  0.06727500  1
  S  S17  1  0.30393600  0.16944600  0.43272500  1
  S  S18  1  0.16944600  0.30393600  0.93272500  1
  S  S19  1  0.69606400  0.83055400  0.56727500  1
  S  S20  1  0.72612100  0.52183600  0.25973900  1
  S  S21  1  0.47816400  0.27387900  0.24026100  1
  S  S22  1  0.27387900  0.47816400  0.74026100  1
  S  S23  1  0.52183600  0.72612100  0.75973900  1
  S  S24  1  0.03031300  0.11957900  0.15150700  1
  S  S25  1  0.88042100  0.96968700  0.34849300  1
  S  S26  1  0.96968700  0.88042100  0.84849300  1
  S  S27  1  0.11957900  0.03031300  0.65150700  1
loop_
_geom_bond_atom_site_label_1
_geom_bond_atom_site_label_2
_geom_bond_distance
_geom_bond_site_symmetry_2
Rb0 S25 3.583145 1_455
Rb0 S14 3.585184 1_455
Rb0 S19 3.613352 1_455
Rb0 S1 3.643301 1_555
Rb0 S3 3.676200 1_465
Rb0 S22 3.728403 1_555
Rb0 S26 3.729119 1_455
Rb0 S27 3.871049 1_565
Rb1 S24 3.583145 1_566
Rb1 S15 3.585184 1_565
Rb1 S18 3.613352 1_565
Rb1 S0 3.643301 1_556
Rb1 S2 3.676200 1_465
Rb1 S23 3.728403 1_555
Rb1 S27 3.729119 1_565
Rb1 S26 3.871049 1_455
Rb2 S27 3.583145 1_655
Rb2 S12 3.585184 1_655
Rb2 S17 3.613352 1_655
Rb2 S3 3.643301 1_555
Rb2 S1 3.676200 1_645
Rb2 S20 3.728403 1_555
Rb2 S24 3.729119 1_655
Rb2 S25 3.871049 1_545
Rb3 S26 3.583145 1_544
Rb3 S13 3.585184 1_545
Rb3 S16 3.613352 1_545
Rb3 S2 3.643301 1_554
Rb3 S0 3.676200 1_645
Rb3 S21 3.728403 1_555
Rb3 S25 3.729119 1_545
Rb3 S24 3.871049 1_655
Rb4 S12 3.271347 1_655
Rb4 S25 3.330118 1_555
Rb4 S13 3.356681 1_555
Rb4 S19 3.455384 1_555
Rb4 S8 3.584912 1_655
Rb4 S0 3.706761 1_655
Rb4 S10 3.792756 1_555
Rb4 S20 3.817935 1_555
Rb5 S13 3.271347 1_545
Rb5 S24 3.330118 1_555
Rb5 S12 3.356681 1_555
Rb5 S18 3.455384 1_554
Rb5 S9 3.584912 1_545
Rb5 S1 3.706761 1_545
Rb5 S11 3.792756 1_554
Rb5 S21 3.817935 1_555
Rb6 S14 3.271347 1_455
Rb6 S27 3.330118 1_555
Rb6 S15 3.356681 1_555
Rb6 S17 3.455384 1_555
Rb6 S10 3.584912 1_455
Rb6 S2 3.706761 1_455
Rb6 S8 3.792756 1_555
Rb6 S22 3.817935 1_555
Rb7 S15 3.271347 1_565
Rb7 S26 3.330118 1_555
Rb7 S14 3.356681 1_555
Rb7 S16 3.455384 1_556
Rb7 S11 3.584912 1_565
Rb7 S3 3.706761 1_565
Rb7 S9 3.792756 1_556
Rb7 S23 3.817935 1_555
Rb8 S14 3.434120 1_554
Rb8 S20 3.504751 1_555
Rb8 S16 3.521188 1_555
Rb8 S6 3.537106 1_554
Rb8 S2 3.541275 1_554
Rb8 S24 3.589266 1_655
Rb8 S4 3.652909 1_555
Rb8 S18 3.664085 1_654
Rb8 S9 3.685124 1_555
Rb9 S15 3.434120 1_555
Rb9 S21 3.504751 1_555
Rb9 S17 3.521188 1_555
Rb9 S7 3.537106 1_555
Rb9 S3 3.541275 1_555
Rb9 S25 3.589266 1_545
Rb9 S5 3.652909 1_555
Rb9 S19 3.664085 1_545
Rb9 S8 3.685124 1_555
Rb10 S12 3.434120 1_556
Rb10 S22 3.504751 1_555
Rb10 S18 3.521188 1_555
Rb10 S4 3.537106 1_556
Rb10 S0 3.541275 1_556
Rb10 S26 3.589266 1_455
Rb10 S6 3.652909 1_555
Rb10 S16 3.664085 1_456
Rb10 S11 3.685124 1_555
Rb11 S13 3.434120 1_555
Rb11 S23 3.504751 1_555
Rb11 S19 3.521188 1_555
Rb11 S5 3.537106 1_555
Rb11 S1 3.541275 1_555
Rb11 S27 3.589266 1_565
Rb11 S7 3.652909 1_555
Rb11 S17 3.664085 1_565
Rb11 S10 3.685124 1_555
In0 S4 2.638562 1_555
In0 S5 2.638562 1_555
In0 S0 2.716978 1_555
In0 S1 2.716978 1_555
In0 S8 2.781708 1_555
In0 S9 2.781708 1_555
In1 S7 2.638562 1_555
In1 S6 2.638562 1_555
In1 S3 2.716978 1_555
In1 S2 2.716978 1_555
In1 S11 2.781708 1_555
In1 S10 2.781708 1_555
P0 S12 2.007880 1_555
P0 S17 2.015435 1_555
P0 S8 2.066338 1_555
P0 S21 2.153609 1_555
P1 S13 2.007880 1_555
P1 S16 2.015435 1_555
P1 S9 2.066338 1_555
P1 S20 2.153609 1_555
P2 S14 2.007880 1_555
P2 S19 2.015435 1_555
P2 S10 2.066338 1_555
P2 S23 2.153609 1_555
P3 S15 2.007880 1_555
P3 S18 2.015435 1_555
P3 S11 2.066338 1_555
P3 S22 2.153609 1_555
P4 S25 2.031583 1_455
P4 S24 2.031583 1_565
P4 S1 2.094436 1_555
P4 S0 2.094436 1_555
P5 S26 2.031583 1_545
P5 S27 2.031583 1_655
P5 S3 2.094436 1_555
P5 S2 2.094436 1_555
S20 S5 2.057857 1_555
S21 S4 2.057857 1_555
S22 S7 2.057857 1_555
S23 S6 2.057857 1_555
