# generated using pymatgen
data_CaMg14CO16
_symmetry_space_group_name_H-M   'P 1'
_cell_length_a   4.29573100
_cell_length_b   8.56186700
_cell_length_c   8.58571600
_cell_angle_alpha   90.00000000
_cell_angle_beta   90.00000000
_cell_angle_gamma   90.00000000
_symmetry_Int_Tables_number   1
_chemical_formula_structural   CaMg14CO16
_chemical_formula_sum   'Ca1 Mg14 C1 O16'
_cell_volume   315.77814836
_cell_formula_units_Z   1
loop_
 _symmetry_equiv_pos_site_id
 _symmetry_equiv_pos_as_xyz
  1  'x, y, z'
loop_
 _atom_site_type_symbol
 _atom_site_label
 _atom_site_symmetry_multiplicity
 _atom_site_fract_x
 _atom_site_fract_y
 _atom_site_fract_z
 _atom_site_occupancy
  Ca  Ca0  1  0.00000000  0.00000000  0.00000000  1
  Mg  Mg0  1  0.00000000  0.00000000  0.50000000  1
  Mg  Mg1  1  0.00000000  0.50000000  0.50000000  1
  Mg  Mg2  1  0.50000000  0.74170200  0.00000000  1
  Mg  Mg3  1  0.50000000  0.25829800  0.00000000  1
  Mg  Mg4  1  0.50000000  0.74958300  0.50000000  1
  Mg  Mg5  1  0.50000000  0.25041700  0.50000000  1
  Mg  Mg6  1  0.50000000  0.00000000  0.74472700  1
  Mg  Mg7  1  0.50000000  0.50000000  0.75323900  1
  Mg  Mg8  1  0.50000000  0.00000000  0.25527300  1
  Mg  Mg9  1  0.50000000  0.50000000  0.24676100  1
  Mg  Mg10  1  0.00000000  0.74523600  0.74884700  1
  Mg  Mg11  1  0.00000000  0.25476400  0.74884700  1
  Mg  Mg12  1  0.00000000  0.74523600  0.25115300  1
  Mg  Mg13  1  0.00000000  0.25476400  0.25115300  1
  C  C0  1  0.00000000  0.50000000  0.00000000  1
  O  O0  1  0.00000000  0.00000000  0.73716400  1
  O  O1  1  0.00000000  0.50000000  0.74689100  1
  O  O2  1  0.00000000  0.00000000  0.26283600  1
  O  O3  1  0.00000000  0.50000000  0.25310900  1
  O  O4  1  0.50000000  0.74980500  0.75151600  1
  O  O5  1  0.50000000  0.25019500  0.75151600  1
  O  O6  1  0.50000000  0.74980500  0.24848400  1
  O  O7  1  0.50000000  0.25019500  0.24848400  1
  O  O8  1  0.50000000  0.00000000  0.00000000  1
  O  O9  1  0.50000000  0.50000000  0.00000000  1
  O  O10  1  0.50000000  0.00000000  0.50000000  1
  O  O11  1  0.50000000  0.50000000  0.50000000  1
  O  O12  1  0.00000000  0.73703300  0.00000000  1
  O  O13  1  0.00000000  0.26296700  0.00000000  1
  O  O14  1  0.00000000  0.74741300  0.50000000  1
  O  O15  1  0.00000000  0.25258700  0.50000000  1
loop_
_geom_bond_atom_site_label_1
_geom_bond_atom_site_label_2
_geom_bond_distance
_geom_bond_site_symmetry_2
Ca0 O8 2.147865 1_555
Ca0 O8 2.147865 1_455
Ca0 O12 2.251488 1_545
Ca0 O13 2.251488 1_555
Ca0 O0 2.256635 1_554
Ca0 O2 2.256635 1_555
Mg0 O2 2.036223 1_555
Mg0 O0 2.036223 1_555
Mg0 O10 2.147865 1_455
Mg0 O10 2.147865 1_555
Mg0 O15 2.162616 1_555
Mg0 O14 2.162616 1_545
Mg1 O14 2.118317 1_555
Mg1 O15 2.118317 1_555
Mg1 O1 2.119736 1_555
Mg1 O3 2.119736 1_555
Mg1 O11 2.147865 1_555
Mg1 O11 2.147865 1_455
Mg2 O9 2.069420 1_555
Mg2 O6 2.134541 1_555
Mg2 O4 2.134541 1_554
Mg2 O12 2.148237 1_655
Mg2 O12 2.148237 1_555
Mg2 O8 2.211513 1_565
Mg3 O9 2.069420 1_555
Mg3 O7 2.134541 1_555
Mg3 O5 2.134541 1_554
Mg3 O13 2.148237 1_655
Mg3 O13 2.148237 1_555
Mg3 O8 2.211513 1_555
Mg4 O11 2.136896 1_555
Mg4 O10 2.144037 1_565
Mg4 O14 2.147946 1_555
Mg4 O14 2.147946 1_655
Mg4 O6 2.159446 1_555
Mg4 O4 2.159446 1_555
Mg5 O11 2.136896 1_555
Mg5 O10 2.144037 1_555
Mg5 O15 2.147946 1_555
Mg5 O15 2.147946 1_655
Mg5 O5 2.159446 1_555
Mg5 O7 2.159446 1_555
Mg6 O10 2.101157 1_555
Mg6 O5 2.142929 1_555
Mg6 O4 2.142929 1_545
Mg6 O0 2.148847 1_655
Mg6 O0 2.148847 1_555
Mg6 O8 2.191701 1_556
Mg7 O9 2.118620 1_556
Mg7 O5 2.138848 1_555
Mg7 O4 2.138848 1_555
Mg7 O1 2.148557 1_655
Mg7 O1 2.148557 1_555
Mg7 O11 2.174238 1_555
Mg8 O10 2.101157 1_555
Mg8 O6 2.142929 1_545
Mg8 O7 2.142929 1_555
Mg8 O2 2.148847 1_655
Mg8 O2 2.148847 1_555
Mg8 O8 2.191701 1_555
Mg9 O9 2.118620 1_555
Mg9 O7 2.138848 1_555
Mg9 O6 2.138848 1_555
Mg9 O3 2.148557 1_655
Mg9 O3 2.148557 1_555
Mg9 O11 2.174238 1_555
Mg10 O1 2.099745 1_555
Mg10 O14 2.136611 1_555
Mg10 O4 2.148344 1_455
Mg10 O4 2.148344 1_555
Mg10 O12 2.157472 1_556
Mg10 O0 2.183561 1_565
Mg11 O1 2.099745 1_555
Mg11 O15 2.136611 1_555
Mg11 O5 2.148344 1_555
Mg11 O5 2.148344 1_455
Mg11 O13 2.157472 1_556
Mg11 O0 2.183561 1_555
Mg12 O3 2.099745 1_555
Mg12 O14 2.136611 1_555
Mg12 O6 2.148344 1_455
Mg12 O6 2.148344 1_555
Mg12 O12 2.157472 1_555
Mg12 O2 2.183561 1_565
Mg13 O3 2.099745 1_555
Mg13 O15 2.136611 1_555
Mg13 O7 2.148344 1_555
Mg13 O7 2.148344 1_455
Mg13 O13 2.157472 1_555
Mg13 O2 2.183561 1_555
C0 O13 2.029445 1_555
C0 O12 2.029445 1_555
C0 O9 2.147865 1_455
C0 O9 2.147865 1_555
C0 O3 2.173122 1_555
C0 O1 2.173122 1_554
