# generated using pymatgen
data_EuDyV4O12
_symmetry_space_group_name_H-M   'P 1'
_cell_length_a   5.34990713
_cell_length_b   5.34990713
_cell_length_c   7.57280655
_cell_angle_alpha   90.00000000
_cell_angle_beta   90.00000000
_cell_angle_gamma   90.00000000
_symmetry_Int_Tables_number   1
_chemical_formula_structural   EuDyV4O12
_chemical_formula_sum   'Eu1 Dy1 V4 O12'
_cell_volume   216.74513038
_cell_formula_units_Z   1
loop_
 _symmetry_equiv_pos_site_id
 _symmetry_equiv_pos_as_xyz
  1  'x, y, z'
loop_
 _atom_site_type_symbol
 _atom_site_label
 _atom_site_symmetry_multiplicity
 _atom_site_fract_x
 _atom_site_fract_y
 _atom_site_fract_z
 _atom_site_occupancy
  Eu  Eu0  1  0.00000000  0.00000000  0.50000000  1
  Dy  Dy0  1  0.50000000  0.50000000  0.00000000  1
  V  V0  1  0.00000000  0.50000000  0.74926526  1
  V  V1  1  0.00000000  0.50000000  0.25073474  1
  V  V2  1  0.50000000  -0.00000000  0.74926526  1
  V  V3  1  0.50000000  0.00000000  0.25073474  1
  O  O0  1  0.25248174  0.25248174  0.24724255  1
  O  O1  1  0.25248174  0.25248174  0.75275745  1
  O  O2  1  0.74751826  0.74751826  0.75275745  1
  O  O3  1  0.74751826  0.74751826  0.24724255  1
  O  O4  1  0.74751826  0.25248174  0.75275745  1
  O  O5  1  0.74751826  0.25248174  0.24724255  1
  O  O6  1  0.25248174  0.74751826  0.75275745  1
  O  O7  1  0.25248174  0.74751826  0.24724255  1
  O  O8  1  0.00000000  0.50000000  0.50000000  1
  O  O9  1  0.00000000  0.50000000  0.00000000  1
  O  O10  1  0.50000000  -0.00000000  0.50000000  1
  O  O11  1  0.50000000  0.00000000  0.00000000  1
loop_
_geom_bond_atom_site_label_1
_geom_bond_atom_site_label_2
_geom_bond_distance
_geom_bond_site_symmetry_2
Eu0 O10 2.674954 1_455
Eu0 O8 2.674954 1_545
Eu0 O10 2.674954 1_555
Eu0 O8 2.674954 1_555
Eu0 O6 2.704216 1_545
Eu0 O5 2.704216 1_455
Eu0 O1 2.704216 1_555
Eu0 O7 2.704216 1_545
Eu0 O2 2.704216 1_445
Eu0 O4 2.704216 1_455
Eu0 O3 2.704216 1_445
Eu0 O0 2.704216 1_555
Dy0 O2 2.648130 1_554
Dy0 O5 2.648130 1_555
Dy0 O4 2.648130 1_554
Dy0 O6 2.648130 1_554
Dy0 O3 2.648130 1_555
Dy0 O7 2.648130 1_555
Dy0 O0 2.648130 1_555
Dy0 O1 2.648130 1_554
Dy0 O9 2.674954 1_555
Dy0 O9 2.674954 1_655
Dy0 O11 2.674954 1_555
Dy0 O11 2.674954 1_565
O0 V3 1.891756 1_555
O0 V1 1.891756 1_555
O1 V0 1.891756 1_555
O1 V2 1.891756 1_555
O2 V0 1.891756 1_655
O2 V2 1.891756 1_565
O3 V1 1.891756 1_655
O3 V3 1.891756 1_565
O4 V2 1.891756 1_555
O4 V0 1.891756 1_655
O5 V3 1.891756 1_555
O5 V1 1.891756 1_655
O6 V2 1.891756 1_565
O6 V0 1.891756 1_555
O7 V1 1.891756 1_555
O7 V3 1.891756 1_565
O8 V1 1.887638 1_555
O8 V0 1.887638 1_555
O9 V0 1.898766 1_554
O9 V1 1.898766 1_555
O10 V3 1.887638 1_555
O10 V2 1.887638 1_555
O11 V2 1.898766 1_554
O11 V3 1.898766 1_555
