# generated using pymatgen
data_Ho2ReC2
_symmetry_space_group_name_H-M   'P 1'
_cell_length_a   5.07363751
_cell_length_b   6.53858034
_cell_length_c   9.80696544
_cell_angle_alpha   90.00000000
_cell_angle_beta   90.00000000
_cell_angle_gamma   90.00000000
_symmetry_Int_Tables_number   1
_chemical_formula_structural   Ho2ReC2
_chemical_formula_sum   'Ho8 Re4 C8'
_cell_volume   325.34006166
_cell_formula_units_Z   4
loop_
 _symmetry_equiv_pos_site_id
 _symmetry_equiv_pos_as_xyz
  1  'x, y, z'
loop_
 _atom_site_type_symbol
 _atom_site_label
 _atom_site_symmetry_multiplicity
 _atom_site_fract_x
 _atom_site_fract_y
 _atom_site_fract_z
 _atom_site_occupancy
  Ho  Ho0  1  0.25000000  0.46601024  0.78481526  1
  Ho  Ho1  1  0.75000000  0.03398976  0.28481526  1
  Ho  Ho2  1  0.25000000  0.96601024  0.71518474  1
  Ho  Ho3  1  0.75000000  0.53398976  0.21518474  1
  Ho  Ho4  1  0.25000000  0.82162023  0.05706025  1
  Ho  Ho5  1  0.75000000  0.67837977  0.55706025  1
  Ho  Ho6  1  0.25000000  0.32162023  0.44293975  1
  Ho  Ho7  1  0.75000000  0.17837977  0.94293975  1
  Re  Re0  1  0.25000000  0.28022140  0.13351955  1
  Re  Re1  1  0.75000000  0.21977860  0.63351955  1
  Re  Re2  1  0.25000000  0.78022140  0.36648045  1
  Re  Re3  1  0.75000000  0.71977860  0.86648045  1
  C  C0  1  0.25000000  0.17703738  0.95032575  1
  C  C1  1  0.75000000  0.82296262  0.04967425  1
  C  C2  1  0.25000000  0.67703738  0.54967425  1
  C  C3  1  0.75000000  0.32296262  0.45032575  1
  C  C4  1  0.25000000  0.04779631  0.25898240  1
  C  C5  1  0.75000000  0.45220369  0.75898240  1
  C  C6  1  0.25000000  0.54779631  0.24101760  1
  C  C7  1  0.75000000  0.95220369  0.74101760  1
loop_
_geom_bond_atom_site_label_1
_geom_bond_atom_site_label_2
_geom_bond_distance
_geom_bond_site_symmetry_2
C0 Re0 1.919081 1_556
C0 Ho0 2.490931 1_555
C0 Ho7 2.537868 1_455
C0 Ho7 2.537868 1_555
C0 Ho4 2.548782 1_546
C0 Ho2 2.687308 1_545
C1 Re3 1.919081 1_554
C1 Ho3 2.490931 1_555
C1 Ho4 2.537868 1_555
C1 Ho4 2.537868 1_655
C1 Ho7 2.548782 1_564
C1 Ho1 2.687308 1_565
C2 Re2 1.919081 1_555
C2 Ho2 2.490931 1_555
C2 Ho5 2.537868 1_555
C2 Ho5 2.537868 1_455
C2 Ho6 2.548782 1_555
C2 Ho0 2.687308 1_555
C3 Re1 1.919081 1_555
C3 Ho1 2.490931 1_555
C3 Ho6 2.537868 1_655
C3 Ho6 2.537868 1_555
C3 Ho5 2.548782 1_555
C3 Ho3 2.687308 1_555
C4 Re0 1.955374 1_555
C4 Re2 2.042636 1_545
C4 Ho4 2.471522 1_545
C4 Ho6 2.541702 1_555
C4 Ho1 2.551035 1_555
C4 Ho1 2.551035 1_455
C5 Re1 1.955374 1_555
C5 Re3 2.042636 1_555
C5 Ho5 2.471522 1_555
C5 Ho7 2.541702 1_555
C5 Ho0 2.551035 1_655
C5 Ho0 2.551035 1_555
C6 Re2 1.955374 1_555
C6 Re0 2.042636 1_555
C6 Ho6 2.471522 1_555
C6 Ho4 2.541702 1_555
C6 Ho3 2.551035 1_455
C6 Ho3 2.551035 1_555
C7 Re3 1.955374 1_555
C7 Re1 2.042636 1_565
C7 Ho7 2.471522 1_565
C7 Ho5 2.541702 1_555
C7 Ho2 2.551035 1_555
C7 Ho2 2.551035 1_655
