# generated using pymatgen
data_Ba3Ti3Fe3(BiO9)2
_symmetry_space_group_name_H-M   'P 1'
_cell_length_a   5.63716603
_cell_length_b   5.63716603
_cell_length_c   13.88676600
_cell_angle_alpha   90.00000000
_cell_angle_beta   90.00000000
_cell_angle_gamma   120.00000039
_symmetry_Int_Tables_number   1
_chemical_formula_structural   Ba3Ti3Fe3(BiO9)2
_chemical_formula_sum   'Ba3 Ti3 Fe3 Bi2 O18'
_cell_volume   382.16719110
_cell_formula_units_Z   1
loop_
 _symmetry_equiv_pos_site_id
 _symmetry_equiv_pos_as_xyz
  1  'x, y, z'
loop_
 _atom_site_type_symbol
 _atom_site_label
 _atom_site_symmetry_multiplicity
 _atom_site_fract_x
 _atom_site_fract_y
 _atom_site_fract_z
 _atom_site_occupancy
  Ba  Ba0  1  0.00000000  0.00000000  0.98856200  1
  Ba  Ba1  1  0.66666700  0.33333300  0.16901600  1
  Ba  Ba2  1  0.00000000  0.00000000  0.49752900  1
  Ti  Ti0  1  0.66666700  0.33333300  0.91053000  1
  Ti  Ti1  1  0.33333300  0.66666700  0.06473800  1
  Ti  Ti2  1  0.00000000  0.00000000  0.73975000  1
  Fe  Fe0  1  0.00000000  0.00000000  0.25550600  1
  Fe  Fe1  1  0.66666700  0.33333300  0.42180000  1
  Fe  Fe2  1  0.33333300  0.66666700  0.58586100  1
  Bi  Bi0  1  0.33333300  0.66666700  0.29681500  1
  Bi  Bi1  1  0.66666700  0.33333300  0.70002200  1
  O  O0  1  0.82542700  0.17457300  0.82736400  1
  O  O1  1  0.50336500  0.49663500  0.50333500  1
  O  O2  1  0.16351200  0.83648800  0.66653100  1
  O  O3  1  0.83029800  0.16970200  0.33694800  1
  O  O4  1  0.50192800  0.49807200  0.00225900  1
  O  O5  1  0.17354700  0.82645300  0.17574300  1
  O  O6  1  0.67297500  0.83648800  0.66653100  1
  O  O7  1  0.33940300  0.16970200  0.33694800  1
  O  O8  1  0.99326900  0.49663500  0.50333500  1
  O  O9  1  0.65290600  0.82645300  0.17574300  1
  O  O10  1  0.34914500  0.17457300  0.82736400  1
  O  O11  1  0.99614500  0.49807200  0.00225900  1
  O  O12  1  0.82542700  0.65085500  0.82736400  1
  O  O13  1  0.50336500  0.00673100  0.50333500  1
  O  O14  1  0.16351200  0.32702500  0.66653100  1
  O  O15  1  0.83029800  0.66059700  0.33694800  1
  O  O16  1  0.50192800  0.00385500  0.00225900  1
  O  O17  1  0.17354700  0.34709400  0.17574300  1
loop_
_geom_bond_atom_site_label_1
_geom_bond_atom_site_label_2
_geom_bond_distance
_geom_bond_site_symmetry_2
Ba0 O10 2.813590 1_555
Ba0 O12 2.813590 1_445
Ba0 O0 2.813593 1_455
Ba0 O16 2.825053 1_456
Ba0 O11 2.825053 1_456
Ba0 O4 2.825056 1_446
Ba0 O4 2.825056 1_556
Ba0 O11 2.825059 1_446
Ba0 O16 2.825059 1_556
Ba0 O9 3.102878 1_446
Ba0 O17 3.102878 1_556
Ba0 O5 3.102878 1_546
Ba1 O11 2.819534 1_555
Ba1 O16 2.819534 1_555
Ba1 O4 2.819534 1_555
Ba1 O9 2.820928 1_545
Ba1 O17 2.820928 1_655
Ba1 O5 2.820931 1_545
Ba1 O5 2.820931 1_655
Ba1 O9 2.820934 1_555
Ba1 O17 2.820934 1_555
Ba1 O3 2.826822 1_555
Ba1 O15 2.826828 1_555
Ba1 O7 2.826828 1_555
Ba2 O7 2.778153 1_555
Ba2 O15 2.778153 1_445
Ba2 O3 2.778156 1_455
Ba2 O13 2.819925 1_555
Ba2 O8 2.819925 1_445
Ba2 O1 2.819927 1_555
Ba2 O1 2.819927 1_445
Ba2 O8 2.819930 1_455
Ba2 O13 2.819930 1_455
Ba2 O2 2.838439 1_545
Ba2 O14 2.838442 1_555
Ba2 O6 2.838442 1_445
Fe0 O7 2.006125 1_555
Fe0 O15 2.006125 1_445
Fe0 O3 2.006129 1_455
Fe0 O9 2.024396 1_445
Fe0 O17 2.024396 1_555
Fe0 O5 2.024396 1_545
Fe1 O13 1.955574 1_555
Fe1 O8 1.955574 1_555
Fe1 O1 1.955582 1_555
Fe1 O3 1.985192 1_555
Fe1 O7 1.985200 1_555
Fe1 O15 1.985200 1_555
Fe2 O14 2.001068 1_555
Fe2 O6 2.001068 1_555
Fe2 O2 2.001068 1_555
Fe2 O8 2.017305 1_455
Fe2 O13 2.017305 1_565
Fe2 O1 2.017305 1_555
Bi0 O5 2.293635 1_555
Bi0 O9 2.293639 1_555
Bi0 O17 2.293639 1_555
Bi1 O0 2.351589 1_555
Bi1 O12 2.351595 1_555
Bi1 O10 2.351595 1_555
O0 Ti0 1.933042 1_555
O0 Ti2 2.094192 1_655
O2 Ti2 1.892794 1_565
O4 Ti1 1.860794 1_555
O4 Ti0 2.051792 1_554
O5 Ti1 2.193222 1_555
O6 Ti2 1.892798 1_665
O9 Ti1 2.193225 1_555
O10 Ti0 1.933050 1_555
O10 Ti2 2.094188 1_555
O11 Ti1 1.860785 1_655
O11 Ti0 2.051792 1_554
O12 Ti0 1.933050 1_555
O12 Ti2 2.094188 1_665
O14 Ti2 1.892798 1_555
O16 Ti1 1.860785 1_545
O16 Ti0 2.051792 1_554
O17 Ti1 2.193225 1_555
