# generated using pymatgen
data_Sr3Y(CoO4)2
_symmetry_space_group_name_H-M   'P 1'
_cell_length_a   6.77702884
_cell_length_b   6.77702884
_cell_length_c   5.37312700
_cell_angle_alpha   90.00000000
_cell_angle_beta   90.00000000
_cell_angle_gamma   132.93861143
_symmetry_Int_Tables_number   1
_chemical_formula_structural   Sr3Y(CoO4)2
_chemical_formula_sum   'Sr3 Y1 Co2 O8'
_cell_volume   180.66194745
_cell_formula_units_Z   1
loop_
 _symmetry_equiv_pos_site_id
 _symmetry_equiv_pos_as_xyz
  1  'x, y, z'
loop_
 _atom_site_type_symbol
 _atom_site_label
 _atom_site_symmetry_multiplicity
 _atom_site_fract_x
 _atom_site_fract_y
 _atom_site_fract_z
 _atom_site_occupancy
  Sr  Sr0  1  0.64499600  0.35500400  0.00000000  1
  Sr  Sr1  1  0.35710700  0.64289300  0.00000000  1
  Sr  Sr2  1  0.85512800  0.14487200  0.50000000  1
  Y  Y0  1  0.13512700  0.86487300  0.50000000  1
  Co  Co0  1  0.50214800  0.49785200  0.50000000  1
  Co  Co1  1  0.00020800  0.99979200  0.00000000  1
  O  O0  1  0.84688200  0.15311800  0.00000000  1
  O  O1  1  0.31589400  0.68410600  0.50000000  1
  O  O2  1  0.66267800  0.33732200  0.50000000  1
  O  O3  1  0.15779400  0.84220600  0.00000000  1
  O  O4  1  0.76488500  0.75386500  0.74374200  1
  O  O5  1  0.24613500  0.23511500  0.25625800  1
  O  O6  1  0.24613500  0.23511500  0.74374200  1
  O  O7  1  0.76488500  0.75386500  0.25625800  1
loop_
_geom_bond_atom_site_label_1
_geom_bond_atom_site_label_2
_geom_bond_distance
_geom_bond_site_symmetry_2
Co0 O7 1.920139 1_555
Co0 O4 1.920139 1_555
Co0 O5 1.920139 1_555
Co0 O6 1.920139 1_555
Co0 O2 1.994904 1_555
Co0 O1 2.314576 1_555
Co1 O6 1.896227 1_564
Co1 O5 1.896227 1_565
Co1 O7 1.896227 1_455
Co1 O4 1.896227 1_454
Co1 O0 1.905380 1_465
Co1 O3 1.958319 1_555
O0 Sr0 2.508835 1_555
O0 Sr2 2.688517 1_554
O0 Sr2 2.688517 1_555
O0 Sr1 2.708645 1_545
O0 Sr1 2.708645 1_655
O1 Y0 2.246389 1_555
O1 Sr1 2.734945 1_555
O1 Sr1 2.734945 1_556
O1 Sr2 2.749241 1_455
O1 Sr2 2.749241 1_565
O2 Sr2 2.391574 1_555
O2 Sr0 2.695535 1_555
O2 Sr0 2.695535 1_556
O2 Y0 2.727239 1_545
O2 Y0 2.727239 1_655
O3 Sr1 2.476860 1_555
O3 Y0 2.701290 1_555
O3 Y0 2.701290 1_554
O3 Sr0 2.710333 1_455
O3 Sr0 2.710333 1_565
O4 Y0 2.450546 1_655
O4 Sr0 2.621165 1_556
O4 Sr2 2.627368 1_565
O4 Sr1 2.695727 1_556
O5 Y0 2.450546 1_545
O5 Sr0 2.621165 1_555
O5 Sr2 2.627368 1_455
O5 Sr1 2.695727 1_555
O6 Y0 2.450546 1_545
O6 Sr0 2.621165 1_556
O6 Sr2 2.627368 1_455
O6 Sr1 2.695727 1_556
O7 Y0 2.450546 1_655
O7 Sr0 2.621165 1_555
O7 Sr2 2.627368 1_565
O7 Sr1 2.695727 1_555
