# generated using pymatgen
data_FeH9(NF)3
_symmetry_space_group_name_H-M   'P 1'
_cell_length_a   9.67268300
_cell_length_b   7.55614600
_cell_length_c   10.68142135
_cell_angle_alpha   47.39106846
_cell_angle_beta   90.00000000
_cell_angle_gamma   90.00000000
_symmetry_Int_Tables_number   1
_chemical_formula_structural   FeH9(NF)3
_chemical_formula_sum   'Fe4 H36 N12 F12'
_cell_volume   574.57824565
_cell_formula_units_Z   4
loop_
 _symmetry_equiv_pos_site_id
 _symmetry_equiv_pos_as_xyz
  1  'x, y, z'
loop_
 _atom_site_type_symbol
 _atom_site_label
 _atom_site_symmetry_multiplicity
 _atom_site_fract_x
 _atom_site_fract_y
 _atom_site_fract_z
 _atom_site_occupancy
  Fe  Fe0  1  0.24996300  0.23024600  0.14215100  1
  Fe  Fe1  1  0.25003700  0.23024600  0.64215100  1
  Fe  Fe2  1  0.75003700  0.76975400  0.85784900  1
  Fe  Fe3  1  0.74996300  0.76975400  0.35784900  1
  H  H0  1  0.20954700  0.78725900  0.25698100  1
  H  H1  1  0.29045300  0.78725900  0.75698100  1
  H  H2  1  0.79045300  0.21274100  0.74301900  1
  H  H3  1  0.70954700  0.21274100  0.24301900  1
  H  H4  1  0.17167400  0.98381100  0.05147300  1
  H  H5  1  0.32832600  0.98381100  0.55147300  1
  H  H6  1  0.82832600  0.01618900  0.94852700  1
  H  H7  1  0.67167400  0.01618900  0.44852700  1
  H  H8  1  0.05761300  0.93289200  0.18670900  1
  H  H9  1  0.44238700  0.93289200  0.68670900  1
  H  H10  1  0.94238700  0.06710800  0.81329100  1
  H  H11  1  0.55761300  0.06710800  0.31329100  1
  H  H12  1  0.09080900  0.23862100  0.34865000  1
  H  H13  1  0.40919100  0.23862100  0.84865000  1
  H  H14  1  0.90919100  0.76137900  0.65135000  1
  H  H15  1  0.59080900  0.76137900  0.15135000  1
  H  H16  1  0.01767700  0.05678700  0.33349200  1
  H  H17  1  0.48232300  0.05678700  0.83349200  1
  H  H18  1  0.98232300  0.94321300  0.66650800  1
  H  H19  1  0.51767700  0.94321300  0.16650800  1
  H  H20  1  0.99853900  0.34999100  0.17857300  1
  H  H21  1  0.50146100  0.34999100  0.67857300  1
  H  H22  1  0.00146100  0.65000900  0.82142700  1
  H  H23  1  0.49853900  0.65000900  0.32142700  1
  H  H24  1  0.31972800  0.47498600  0.23553400  1
  H  H25  1  0.18027200  0.47498600  0.73553400  1
  H  H26  1  0.68027200  0.52501400  0.76446600  1
  H  H27  1  0.81972800  0.52501400  0.26446600  1
  H  H28  1  0.25257100  0.66627000  0.04125500  1
  H  H29  1  0.24742900  0.66627000  0.54125500  1
  H  H30  1  0.74742900  0.33373000  0.95874500  1
  H  H31  1  0.75257100  0.33373000  0.45874500  1
  H  H32  1  0.41514700  0.57833400  0.06952500  1
  H  H33  1  0.08485300  0.57833400  0.56952500  1
  H  H34  1  0.58485300  0.42166600  0.93047500  1
  H  H35  1  0.91514700  0.42166600  0.43047500  1
  N  N0  1  0.16202800  0.94946900  0.16212500  1
  N  N1  1  0.33797200  0.94946900  0.66212500  1
  N  N2  1  0.83797200  0.05053100  0.83787500  1
  N  N3  1  0.66202800  0.05053100  0.33787500  1
  N  N4  1  0.06922700  0.21827900  0.26465900  1
  N  N5  1  0.43077300  0.21827900  0.76465900  1
  N  N6  1  0.93077300  0.78172100  0.73534100  1
  N  N7  1  0.56922700  0.78172100  0.23534100  1
  N  N8  1  0.31711200  0.51998400  0.12048300  1
  N  N9  1  0.18288800  0.51998400  0.62048300  1
  N  N10  1  0.68288800  0.48001600  0.87951700  1
  N  N11  1  0.81711200  0.48001600  0.37951700  1
  F  F0  1  0.33635400  0.99390900  0.36646900  1
  F  F1  1  0.16364600  0.99390900  0.86646900  1
  F  F2  1  0.66364600  0.00609100  0.63353100  1
  F  F3  1  0.83635400  0.00609100  0.13353100  1
  F  F4  1  0.41833800  0.23838400  0.03542600  1
  F  F5  1  0.08166200  0.23838400  0.53542600  1
  F  F6  1  0.58166200  0.76161600  0.96457400  1
  F  F7  1  0.91833800  0.76161600  0.46457400  1
  F  F8  1  0.16316300  0.46752700  0.91856900  1
  F  F9  1  0.33683700  0.46752700  0.41856900  1
  F  F10  1  0.83683700  0.53247300  0.08143100  1
  F  F11  1  0.66316300  0.53247300  0.58143100  1
loop_
_geom_bond_atom_site_label_1
_geom_bond_atom_site_label_2
_geom_bond_distance
_geom_bond_site_symmetry_2
Fe0 N8 2.140657 1_555
Fe0 N4 2.148605 1_555
Fe0 N0 2.158070 1_545
Fe1 N9 2.140657 1_555
Fe1 N5 2.148605 1_555
Fe1 N1 2.158070 1_545
Fe2 N10 2.140657 1_555
Fe2 N6 2.148605 1_555
Fe2 N2 2.158070 1_565
Fe3 N11 2.140657 1_555
Fe3 N7 2.148605 1_555
Fe3 N3 2.158070 1_565
H0 N0 1.028921 1_555
H1 N1 1.028921 1_555
H2 N2 1.028921 1_555
H3 N3 1.028921 1_555
H4 N0 1.028451 1_555
H5 N1 1.028451 1_555
H6 N2 1.028451 1_555
H7 N3 1.028451 1_555
H8 N0 1.029638 1_555
H9 N1 1.029638 1_555
H10 N2 1.029638 1_555
H11 N3 1.029638 1_555
H12 N4 1.028971 1_555
H13 N5 1.028971 1_555
H14 N6 1.028971 1_555
H15 N7 1.028971 1_555
H16 N4 1.031246 1_555
H17 N5 1.031246 1_555
H18 N6 1.031246 1_555
H19 N7 1.031246 1_555
H20 N4 1.031714 1_655
H21 N5 1.031714 1_555
H22 N6 1.031714 1_455
H23 N7 1.031714 1_555
H24 N8 1.029909 1_555
H25 N9 1.029909 1_555
H26 N10 1.029909 1_555
H27 N11 1.029909 1_555
H28 N8 1.030128 1_555
H29 N9 1.030128 1_555
H30 N10 1.030128 1_555
H31 N11 1.030128 1_555
H32 N8 1.031953 1_555
H33 N9 1.031953 1_555
H34 N10 1.031953 1_555
H35 N11 1.031953 1_555
F0 Fe0 1.958284 1_565
F1 Fe1 1.958284 1_565
F2 Fe2 1.958284 1_545
F3 Fe3 1.958284 1_545
F4 Fe0 1.964910 1_555
F5 Fe1 1.964910 1_555
F6 Fe2 1.964910 1_555
F7 Fe3 1.964910 1_555
F8 Fe0 1.955854 1_556
F9 Fe1 1.955854 1_555
F10 Fe2 1.955854 1_554
F11 Fe3 1.955854 1_555
