# generated using pymatgen
data_K5LuHf(MoO4)6
_symmetry_space_group_name_H-M   'P 1'
_cell_length_a   14.29985066
_cell_length_b   14.29985066
_cell_length_c   14.29984980
_cell_angle_alpha   44.56072108
_cell_angle_beta   44.56072108
_cell_angle_gamma   44.56072039
_symmetry_Int_Tables_number   1
_chemical_formula_structural   K5LuHf(MoO4)6
_chemical_formula_sum   'K10 Lu2 Hf2 Mo12 O48'
_cell_volume   1309.11729307
_cell_formula_units_Z   2
loop_
 _symmetry_equiv_pos_site_id
 _symmetry_equiv_pos_as_xyz
  1  'x, y, z'
loop_
 _atom_site_type_symbol
 _atom_site_label
 _atom_site_symmetry_multiplicity
 _atom_site_fract_x
 _atom_site_fract_y
 _atom_site_fract_z
 _atom_site_occupancy
  K  K0  1  0.36276900  0.13723100  0.75000000  1
  K  K1  1  0.75000000  0.36276900  0.13723100  1
  K  K2  1  0.13723100  0.75000000  0.36276900  1
  K  K3  1  0.25000000  0.63723100  0.86276900  1
  K  K4  1  0.86276900  0.25000000  0.63723100  1
  K  K5  1  0.63723100  0.86276900  0.25000000  1
  K  K6  1  0.64658400  0.64658400  0.64658400  1
  K  K7  1  0.14658400  0.14658400  0.14658400  1
  K  K8  1  0.35341600  0.35341600  0.35341600  1
  K  K9  1  0.85341600  0.85341600  0.85341600  1
  Lu  Lu0  1  0.75000000  0.75000000  0.75000000  1
  Lu  Lu1  1  0.25000000  0.25000000  0.25000000  1
  Hf  Hf0  1  0.00000000  0.00000000  0.00000000  1
  Hf  Hf1  1  0.50000000  0.50000000  0.50000000  1
  Mo  Mo0  1  0.62032200  0.26242700  0.02120200  1
  Mo  Mo1  1  0.02120200  0.62032200  0.26242700  1
  Mo  Mo2  1  0.26242700  0.02120200  0.62032200  1
  Mo  Mo3  1  0.52120200  0.76242700  0.12032200  1
  Mo  Mo4  1  0.12032200  0.52120200  0.76242700  1
  Mo  Mo5  1  0.76242700  0.12032200  0.52120200  1
  Mo  Mo6  1  0.37967800  0.73757300  0.97879800  1
  Mo  Mo7  1  0.97879800  0.37967800  0.73757300  1
  Mo  Mo8  1  0.73757300  0.97879800  0.37967800  1
  Mo  Mo9  1  0.47879800  0.23757300  0.87967800  1
  Mo  Mo10  1  0.87967800  0.47879800  0.23757300  1
  Mo  Mo11  1  0.23757300  0.87967800  0.47879800  1
  O  O0  1  0.61846100  0.34759300  0.06911100  1
  O  O1  1  0.06911100  0.61846100  0.34759300  1
  O  O2  1  0.34759300  0.06911100  0.61846100  1
  O  O3  1  0.56911100  0.84759300  0.11846100  1
  O  O4  1  0.11846100  0.56911100  0.84759300  1
  O  O5  1  0.84759300  0.11846100  0.56911100  1
  O  O6  1  0.38153900  0.65240700  0.93088900  1
  O  O7  1  0.93088900  0.38153900  0.65240700  1
  O  O8  1  0.65240700  0.93088900  0.38153900  1
  O  O9  1  0.43088900  0.15240700  0.88153900  1
  O  O10  1  0.88153900  0.43088900  0.15240700  1
  O  O11  1  0.15240700  0.88153900  0.43088900  1
  O  O12  1  0.80136100  0.10413900  0.99623800  1
  O  O13  1  0.99623800  0.80136100  0.10413900  1
  O  O14  1  0.10413900  0.99623800  0.80136100  1
  O  O15  1  0.49623800  0.60413900  0.30136100  1
  O  O16  1  0.30136100  0.49623800  0.60413900  1
  O  O17  1  0.60413900  0.30136100  0.49623800  1
  O  O18  1  0.19863900  0.89586100  0.00376200  1
  O  O19  1  0.00376200  0.19863900  0.89586100  1
  O  O20  1  0.89586100  0.00376200  0.19863900  1
  O  O21  1  0.50376200  0.39586100  0.69863900  1
  O  O22  1  0.69863900  0.50376200  0.39586100  1
  O  O23  1  0.39586100  0.69863900  0.50376200  1
  O  O24  1  0.59433200  0.38834900  0.85747800  1
  O  O25  1  0.85747800  0.59433200  0.38834900  1
  O  O26  1  0.38834900  0.85747800  0.59433200  1
  O  O27  1  0.35747800  0.88834900  0.09433200  1
  O  O28  1  0.09433200  0.35747800  0.88834900  1
  O  O29  1  0.88834900  0.09433200  0.35747800  1
  O  O30  1  0.40566800  0.61165100  0.14252200  1
  O  O31  1  0.14252200  0.40566800  0.61165100  1
  O  O32  1  0.61165100  0.14252200  0.40566800  1
  O  O33  1  0.64252200  0.11165100  0.90566800  1
  O  O34  1  0.90566800  0.64252200  0.11165100  1
  O  O35  1  0.11165100  0.90566800  0.64252200  1
  O  O36  1  0.47198100  0.20237100  0.17445100  1
  O  O37  1  0.17445100  0.47198100  0.20237100  1
  O  O38  1  0.20237100  0.17445100  0.47198100  1
  O  O39  1  0.67445100  0.70237100  0.97198100  1
  O  O40  1  0.97198100  0.67445100  0.70237100  1
  O  O41  1  0.70237100  0.97198100  0.67445100  1
  O  O42  1  0.52801900  0.79762900  0.82554900  1
  O  O43  1  0.82554900  0.52801900  0.79762900  1
  O  O44  1  0.79762900  0.82554900  0.52801900  1
  O  O45  1  0.32554900  0.29762900  0.02801900  1
  O  O46  1  0.02801900  0.32554900  0.29762900  1
  O  O47  1  0.29762900  0.02801900  0.32554900  1
loop_
_geom_bond_atom_site_label_1
_geom_bond_atom_site_label_2
_geom_bond_distance
_geom_bond_site_symmetry_2
K0 O9 2.833382 1_555
K0 O2 2.833382 1_555
K0 O28 3.065531 1_555
K0 O31 3.065531 1_555
K0 O41 3.184842 1_545
K0 O42 3.184842 1_545
K1 O0 2.833382 1_555
K1 O10 2.833382 1_555
K1 O29 3.065531 1_555
K1 O32 3.065531 1_555
K1 O43 3.184842 1_554
K1 O39 3.184842 1_554
K2 O11 2.833382 1_555
K2 O1 2.833382 1_555
K2 O30 3.065531 1_555
K2 O27 3.065531 1_555
K2 O40 3.184842 1_455
K2 O44 3.184842 1_455
K3 O6 2.833382 1_555
K3 O4 2.833382 1_555
K3 O35 3.065531 1_555
K3 O26 3.065531 1_555
K3 O37 3.184842 1_556
K3 O45 3.184842 1_556
K4 O5 2.833382 1_555
K4 O7 2.833382 1_555
K4 O24 3.065531 1_555
K4 O33 3.065531 1_555
K4 O46 3.184842 1_655
K4 O38 3.184842 1_655
K5 O8 2.833382 1_555
K5 O3 2.833382 1_555
K5 O25 3.065531 1_555
K5 O34 3.065531 1_555
K5 O47 3.184842 1_565
K5 O36 3.184842 1_565
K6 O25 2.853179 1_555
K6 O26 2.853180 1_555
K6 O24 2.853180 1_555
K6 O6 2.995875 1_555
K6 O8 2.995875 1_555
K6 O7 2.995875 1_555
K6 O42 3.250313 1_555
K6 O43 3.250313 1_555
K6 O44 3.250314 1_555
K7 O28 2.853179 1_554
K7 O27 2.853180 1_545
K7 O29 2.853180 1_455
K7 O11 2.995875 1_545
K7 O9 2.995875 1_554
K7 O10 2.995875 1_455
K7 O47 3.250313 1_555
K7 O46 3.250313 1_555
K7 O45 3.250314 1_555
K8 O31 2.853179 1_555
K8 O32 2.853180 1_555
K8 O30 2.853180 1_555
K8 O0 2.995875 1_555
K8 O2 2.995875 1_555
K8 O1 2.995875 1_555
K8 O36 3.250313 1_555
K8 O37 3.250313 1_555
K8 O38 3.250314 1_555
K9 O34 2.853179 1_556
K9 O33 2.853180 1_565
K9 O35 2.853180 1_655
K9 O5 2.995875 1_565
K9 O3 2.995875 1_556
K9 O4 2.995875 1_655
K9 O41 3.250313 1_555
K9 O40 3.250313 1_555
K9 O39 3.250314 1_555
Lu0 O39 2.188156 1_555
Lu0 O44 2.188156 1_555
Lu0 O40 2.188157 1_555
Lu0 O43 2.188157 1_555
Lu0 O41 2.188157 1_555
Lu0 O42 2.188157 1_555
Lu1 O38 2.188156 1_555
Lu1 O45 2.188156 1_555
Lu1 O37 2.188157 1_555
Lu1 O46 2.188157 1_555
Lu1 O36 2.188157 1_555
Lu1 O47 2.188157 1_555
Hf0 O20 2.089207 1_455
Hf0 O14 2.089207 1_544
Hf0 O18 2.089208 1_545
Hf0 O12 2.089208 1_454
Hf0 O19 2.089208 1_554
Hf0 O13 2.089208 1_445
Hf1 O21 2.089207 1_555
Hf1 O15 2.089207 1_555
Hf1 O23 2.089208 1_555
Hf1 O17 2.089208 1_555
Hf1 O22 2.089208 1_555
Hf1 O16 2.089208 1_555
Mo0 O0 1.752152 1_555
Mo0 O24 1.772182 1_554
Mo0 O36 1.824674 1_555
Mo0 O12 1.853937 1_554
Mo1 O1 1.752151 1_555
Mo1 O25 1.772182 1_455
Mo1 O37 1.824674 1_555
Mo1 O13 1.853937 1_455
Mo2 O2 1.752152 1_555
Mo2 O26 1.772182 1_545
Mo2 O38 1.824674 1_555
Mo2 O14 1.853937 1_545
Mo3 O3 1.752152 1_555
Mo3 O27 1.772182 1_555
Mo3 O39 1.824674 1_554
Mo3 O15 1.853937 1_555
Mo4 O4 1.752151 1_555
Mo4 O28 1.772182 1_555
Mo4 O40 1.824674 1_455
Mo4 O16 1.853937 1_555
Mo5 O5 1.752152 1_555
Mo5 O29 1.772182 1_555
Mo5 O41 1.824674 1_545
Mo5 O17 1.853937 1_555
Mo6 O6 1.752152 1_555
Mo6 O30 1.772182 1_556
Mo6 O42 1.824674 1_555
Mo6 O18 1.853937 1_556
Mo7 O7 1.752151 1_555
Mo7 O31 1.772182 1_655
Mo7 O43 1.824674 1_555
Mo7 O19 1.853937 1_655
Mo8 O8 1.752152 1_555
Mo8 O32 1.772182 1_565
Mo8 O44 1.824674 1_555
Mo8 O20 1.853937 1_565
Mo9 O9 1.752152 1_555
Mo9 O33 1.772182 1_555
Mo9 O45 1.824674 1_556
Mo9 O21 1.853937 1_555
Mo10 O10 1.752151 1_555
Mo10 O34 1.772182 1_555
Mo10 O46 1.824674 1_655
Mo10 O22 1.853937 1_555
Mo11 O11 1.752152 1_555
Mo11 O35 1.772182 1_555
Mo11 O47 1.824674 1_565
Mo11 O23 1.853937 1_555
