# generated using pymatgen
data_Y10Si6B
_symmetry_space_group_name_H-M   'P 1'
_cell_length_a   8.52864145
_cell_length_b   8.52864145
_cell_length_c   6.42889000
_cell_angle_alpha   90.00000000
_cell_angle_beta   90.00000000
_cell_angle_gamma   119.99999576
_symmetry_Int_Tables_number   1
_chemical_formula_structural   Y10Si6B
_chemical_formula_sum   'Y10 Si6 B1'
_cell_volume   404.97327015
_cell_formula_units_Z   1
loop_
 _symmetry_equiv_pos_site_id
 _symmetry_equiv_pos_as_xyz
  1  'x, y, z'
loop_
 _atom_site_type_symbol
 _atom_site_label
 _atom_site_symmetry_multiplicity
 _atom_site_fract_x
 _atom_site_fract_y
 _atom_site_fract_z
 _atom_site_occupancy
  Y  Y0  1  0.33333300  0.66666700  0.50000000  1
  Y  Y1  1  0.66666700  0.33333300  0.50000000  1
  Y  Y2  1  0.66666700  0.33333300  0.00000000  1
  Y  Y3  1  0.33333300  0.66666700  0.00000000  1
  Y  Y4  1  0.00000000  0.75681300  0.26591700  1
  Y  Y5  1  0.24318700  0.24318700  0.26591700  1
  Y  Y6  1  0.75681300  0.00000000  0.26591700  1
  Y  Y7  1  0.00000000  0.24318700  0.73408300  1
  Y  Y8  1  0.75681300  0.75681300  0.73408300  1
  Y  Y9  1  0.24318700  0.00000000  0.73408300  1
  Si  Si0  1  0.00000000  0.39679400  0.25106300  1
  Si  Si1  1  0.60320600  0.60320600  0.25106300  1
  Si  Si2  1  0.39679400  0.00000000  0.25106300  1
  Si  Si3  1  0.00000000  0.60320600  0.74893700  1
  Si  Si4  1  0.39679400  0.39679400  0.74893700  1
  Si  Si5  1  0.60320600  0.00000000  0.74893700  1
  B  B0  1  0.00000000  0.00000000  0.50000000  1
loop_
_geom_bond_atom_site_label_1
_geom_bond_atom_site_label_2
_geom_bond_distance
_geom_bond_site_symmetry_2
Si0 Y5 2.957061 1_555
Si0 Y6 2.957061 1_455
Si0 Y1 3.065529 1_455
Si0 Y0 3.065531 1_555
Si0 Y4 3.071958 1_555
Si0 Y2 3.072686 1_455
Si0 Y3 3.072689 1_555
Si0 Y7 3.370317 1_555
Si0 Y7 3.572481 1_554
Si1 Y4 2.957061 1_655
Si1 Y6 2.957061 1_565
Si1 Y1 3.065536 1_555
Si1 Y0 3.065536 1_555
Si1 Y5 3.071958 1_555
Si1 Y3 3.072693 1_555
Si1 Y2 3.072693 1_555
Si1 Y8 3.370317 1_555
Si1 Y8 3.572481 1_554
Si2 Y5 2.957061 1_555
Si2 Y4 2.957061 1_545
Si2 Y0 3.065529 1_545
Si2 Y1 3.065531 1_555
Si2 Y6 3.071958 1_555
Si2 Y3 3.072686 1_545
Si2 Y2 3.072689 1_555
Si2 Y9 3.370317 1_555
Si2 Y9 3.572481 1_554
Si3 Y8 2.957061 1_455
Si3 Y9 2.957061 1_565
Si3 Y0 3.065529 1_555
Si3 Y1 3.065531 1_455
Si3 Y7 3.071958 1_555
Si3 Y3 3.072686 1_556
Si3 Y2 3.072689 1_456
Si3 Y4 3.370317 1_555
Si3 Y4 3.572481 1_556
Si4 Y7 2.957061 1_555
Si4 Y9 2.957061 1_555
Si4 Y1 3.065536 1_555
Si4 Y0 3.065536 1_555
Si4 Y8 3.071958 1_555
Si4 Y2 3.072693 1_556
Si4 Y3 3.072693 1_556
Si4 Y5 3.370317 1_555
Si4 Y5 3.572481 1_556
Si5 Y8 2.957061 1_545
Si5 Y7 2.957061 1_655
Si5 Y1 3.065529 1_555
Si5 Y0 3.065531 1_545
Si5 Y9 3.071958 1_555
Si5 Y2 3.072686 1_556
Si5 Y3 3.072689 1_546
Si5 Y6 3.370317 1_555
Si5 Y6 3.572481 1_556
B0 Y9 2.562500 1_555
B0 Y7 2.562500 1_555
B0 Y6 2.562500 1_455
B0 Y4 2.562500 1_545
B0 Y8 2.562501 1_445
B0 Y5 2.562501 1_555
