# generated using pymatgen
data_Te2MoW3(Se2S)2
_symmetry_space_group_name_H-M   'P 1'
_cell_length_a   3.34284415
_cell_length_b   3.34284415
_cell_length_c   38.08740100
_cell_angle_alpha   90.00000000
_cell_angle_beta   90.00000000
_cell_angle_gamma   120.00000300
_symmetry_Int_Tables_number   1
_chemical_formula_structural   Te2MoW3(Se2S)2
_chemical_formula_sum   'Te2 Mo1 W3 Se4 S2'
_cell_volume   368.59056669
_cell_formula_units_Z   1
loop_
 _symmetry_equiv_pos_site_id
 _symmetry_equiv_pos_as_xyz
  1  'x, y, z'
loop_
 _atom_site_type_symbol
 _atom_site_label
 _atom_site_symmetry_multiplicity
 _atom_site_fract_x
 _atom_site_fract_y
 _atom_site_fract_z
 _atom_site_occupancy
  Te  Te0  1  0.00000000  0.00000000  0.70762200  1
  Te  Te1  1  0.00000000  0.00000000  0.60750500  1
  Mo  Mo0  1  0.00000000  0.00000000  0.09390400  1
  W  W0  1  0.00000000  0.00000000  0.46962800  1
  W  W1  1  0.33333300  0.66666700  0.28178900  1
  W  W2  1  0.33333300  0.66666700  0.65759700  1
  Se  Se0  1  0.33333300  0.66666700  0.05019000  1
  Se  Se1  1  0.33333300  0.66666700  0.42569600  1
  Se  Se2  1  0.33333300  0.66666700  0.13765100  1
  Se  Se3  1  0.33333300  0.66666700  0.51357700  1
  S  S0  1  0.00000000  0.00000000  0.32177500  1
  S  S1  1  0.00000000  0.00000000  0.24181400  1
loop_
_geom_bond_atom_site_label_1
_geom_bond_atom_site_label_2
_geom_bond_distance
_geom_bond_site_symmetry_2
Te0 W2 2.712031 1_545
Te0 W2 2.712033 1_555
Te0 W2 2.712033 1_445
Te1 W2 2.713825 1_545
Te1 W2 2.713827 1_445
Te1 W2 2.713827 1_555
Mo0 Se0 2.548907 1_545
Mo0 Se0 2.548910 1_445
Mo0 Se0 2.548910 1_555
Mo0 Se2 2.549729 1_545
Mo0 Se2 2.549731 1_445
Mo0 Se2 2.549731 1_555
Se1 W0 2.554339 1_565
Se1 W0 2.554341 1_665
Se1 W0 2.554341 1_555
Se3 W0 2.554763 1_565
Se3 W0 2.554765 1_555
Se3 W0 2.554765 1_665
S0 W1 2.458511 1_545
S0 W1 2.458513 1_445
S0 W1 2.458513 1_555
S1 W1 2.458252 1_545
S1 W1 2.458254 1_555
S1 W1 2.458254 1_445
