# generated using pymatgen
data_Ru(CN)2
_symmetry_space_group_name_H-M   'P 1'
_cell_length_a   2.90334198
_cell_length_b   6.71920908
_cell_length_c   6.71920985
_cell_angle_alpha   90.00000507
_cell_angle_beta   90.00000136
_cell_angle_gamma   90.00000237
_symmetry_Int_Tables_number   1
_chemical_formula_structural   Ru(CN)2
_chemical_formula_sum   'Ru2 C4 N4'
_cell_volume   131.07943313
_cell_formula_units_Z   2
loop_
 _symmetry_equiv_pos_site_id
 _symmetry_equiv_pos_as_xyz
  1  'x, y, z'
loop_
 _atom_site_type_symbol
 _atom_site_label
 _atom_site_symmetry_multiplicity
 _atom_site_fract_x
 _atom_site_fract_y
 _atom_site_fract_z
 _atom_site_occupancy
  Ru  Ru0  1  0.25000000  0.50000000  0.00000000  1
  Ru  Ru1  1  0.75000000  0.00000000  0.50000000  1
  C  C0  1  0.25000000  0.70963600  0.20963600  1
  C  C1  1  0.25000000  0.29036400  0.79036400  1
  C  C2  1  0.75000000  0.79036400  0.70963600  1
  C  C3  1  0.75000000  0.20963600  0.29036400  1
  N  N0  1  0.25000000  0.83543300  0.33543300  1
  N  N1  1  0.25000000  0.16456700  0.66456700  1
  N  N2  1  0.75000000  0.66456700  0.83543300  1
  N  N3  1  0.75000000  0.33543300  0.16456700  1
loop_
_geom_bond_atom_site_label_1
_geom_bond_atom_site_label_2
_geom_bond_distance
_geom_bond_site_symmetry_2
C0 N0 1.195373 1_555
C0 Ru0 1.992044 1_555
C1 N1 1.195373 1_555
C1 Ru0 1.992044 1_556
C2 N2 1.195373 1_555
C2 Ru1 1.992045 1_565
C3 N3 1.195373 1_555
C3 Ru1 1.992045 1_555
N0 Ru1 2.133720 1_565
N0 Ru1 2.133720 1_465
N1 Ru1 2.133720 1_455
N1 Ru1 2.133720 1_555
N2 Ru0 2.133720 1_556
N2 Ru0 2.133720 1_656
N3 Ru0 2.133720 1_655
N3 Ru0 2.133720 1_555
