# generated using pymatgen
data_Mg30BSbO32
_symmetry_space_group_name_H-M   'P 1'
_cell_length_a   8.59836900
_cell_length_b   8.59836900
_cell_length_c   8.59639200
_cell_angle_alpha   90.00000000
_cell_angle_beta   90.00000000
_cell_angle_gamma   90.00000000
_symmetry_Int_Tables_number   1
_chemical_formula_structural   Mg30BSbO32
_chemical_formula_sum   'Mg30 B1 Sb1 O32'
_cell_volume   635.54801888
_cell_formula_units_Z   1
loop_
 _symmetry_equiv_pos_site_id
 _symmetry_equiv_pos_as_xyz
  1  'x, y, z'
loop_
 _atom_site_type_symbol
 _atom_site_label
 _atom_site_symmetry_multiplicity
 _atom_site_fract_x
 _atom_site_fract_y
 _atom_site_fract_z
 _atom_site_occupancy
  Mg  Mg0  1  0.50000000  0.00000000  0.00000000  1
  Mg  Mg1  1  0.00000000  0.50000000  0.00000000  1
  Mg  Mg2  1  0.00000000  0.00000000  0.50000000  1
  Mg  Mg3  1  0.50000000  0.00000000  0.50000000  1
  Mg  Mg4  1  0.00000000  0.50000000  0.50000000  1
  Mg  Mg5  1  0.50000000  0.50000000  0.50000000  1
  Mg  Mg6  1  0.24055900  0.24055900  0.00000000  1
  Mg  Mg7  1  0.75944100  0.24055900  0.00000000  1
  Mg  Mg8  1  0.24055900  0.75944100  0.00000000  1
  Mg  Mg9  1  0.75944100  0.75944100  0.00000000  1
  Mg  Mg10  1  0.24831800  0.24831800  0.50000000  1
  Mg  Mg11  1  0.75168200  0.24831800  0.50000000  1
  Mg  Mg12  1  0.24831800  0.75168200  0.50000000  1
  Mg  Mg13  1  0.75168200  0.75168200  0.50000000  1
  Mg  Mg14  1  0.24648400  0.00000000  0.24799600  1
  Mg  Mg15  1  0.75351600  0.00000000  0.24799600  1
  Mg  Mg16  1  0.24281600  0.50000000  0.25539600  1
  Mg  Mg17  1  0.75718400  0.50000000  0.25539600  1
  Mg  Mg18  1  0.24648400  0.00000000  0.75200400  1
  Mg  Mg19  1  0.75351600  0.00000000  0.75200400  1
  Mg  Mg20  1  0.24281600  0.50000000  0.74460400  1
  Mg  Mg21  1  0.75718400  0.50000000  0.74460400  1
  Mg  Mg22  1  0.00000000  0.24648400  0.24799600  1
  Mg  Mg23  1  0.50000000  0.24281600  0.25539600  1
  Mg  Mg24  1  0.00000000  0.75351600  0.24799600  1
  Mg  Mg25  1  0.50000000  0.75718400  0.25539600  1
  Mg  Mg26  1  0.00000000  0.24648400  0.75200400  1
  Mg  Mg27  1  0.50000000  0.24281600  0.74460400  1
  Mg  Mg28  1  0.00000000  0.75351600  0.75200400  1
  Mg  Mg29  1  0.50000000  0.75718400  0.74460400  1
  B  B0  1  0.00000000  0.00000000  0.00000000  1
  Sb  Sb0  1  0.50000000  0.50000000  0.00000000  1
  O  O0  1  0.00000000  0.00000000  0.26466700  1
  O  O1  1  0.50000000  0.00000000  0.25337200  1
  O  O2  1  0.00000000  0.50000000  0.25337200  1
  O  O3  1  0.50000000  0.50000000  0.26274300  1
  O  O4  1  0.00000000  0.00000000  0.73533300  1
  O  O5  1  0.50000000  0.00000000  0.74662800  1
  O  O6  1  0.00000000  0.50000000  0.74662800  1
  O  O7  1  0.50000000  0.50000000  0.73725700  1
  O  O8  1  0.25082400  0.25082400  0.24871600  1
  O  O9  1  0.74917600  0.25082400  0.24871600  1
  O  O10  1  0.25082400  0.74917600  0.24871600  1
  O  O11  1  0.74917600  0.74917600  0.24871600  1
  O  O12  1  0.25082400  0.25082400  0.75128400  1
  O  O13  1  0.74917600  0.25082400  0.75128400  1
  O  O14  1  0.25082400  0.74917600  0.75128400  1
  O  O15  1  0.74917600  0.74917600  0.75128400  1
  O  O16  1  0.26402900  0.00000000  0.00000000  1
  O  O17  1  0.73597100  0.00000000  0.00000000  1
  O  O18  1  0.23943100  0.50000000  0.00000000  1
  O  O19  1  0.76056900  0.50000000  0.00000000  1
  O  O20  1  0.25217100  0.00000000  0.50000000  1
  O  O21  1  0.74782900  0.00000000  0.50000000  1
  O  O22  1  0.24956100  0.50000000  0.50000000  1
  O  O23  1  0.75043900  0.50000000  0.50000000  1
  O  O24  1  0.00000000  0.26402900  0.00000000  1
  O  O25  1  0.50000000  0.23943100  0.00000000  1
  O  O26  1  0.00000000  0.73597100  0.00000000  1
  O  O27  1  0.50000000  0.76056900  0.00000000  1
  O  O28  1  0.00000000  0.25217100  0.50000000  1
  O  O29  1  0.50000000  0.24956100  0.50000000  1
  O  O30  1  0.00000000  0.74782900  0.50000000  1
  O  O31  1  0.50000000  0.75043900  0.50000000  1
loop_
_geom_bond_atom_site_label_1
_geom_bond_atom_site_label_2
_geom_bond_distance
_geom_bond_site_symmetry_2
Mg0 O17 2.028966 1_555
Mg0 O16 2.028966 1_555
Mg0 O25 2.058716 1_555
Mg0 O27 2.058716 1_545
Mg0 O1 2.178085 1_555
Mg0 O5 2.178085 1_554
Mg1 O26 2.028966 1_555
Mg1 O24 2.028966 1_555
Mg1 O18 2.058716 1_555
Mg1 O19 2.058716 1_455
Mg1 O2 2.178085 1_555
Mg1 O6 2.178085 1_554
Mg2 O0 2.023015 1_555
Mg2 O4 2.023015 1_555
Mg2 O28 2.168259 1_555
Mg2 O20 2.168259 1_555
Mg2 O30 2.168259 1_545
Mg2 O21 2.168259 1_455
Mg3 O5 2.120111 1_555
Mg3 O1 2.120111 1_555
Mg3 O21 2.130925 1_555
Mg3 O20 2.130925 1_555
Mg3 O29 2.145818 1_555
Mg3 O31 2.145818 1_545
Mg4 O6 2.120111 1_555
Mg4 O2 2.120111 1_555
Mg4 O30 2.130925 1_555
Mg4 O28 2.130925 1_555
Mg4 O22 2.145818 1_555
Mg4 O23 2.145818 1_455
Mg5 O7 2.039554 1_555
Mg5 O3 2.039554 1_555
Mg5 O31 2.153367 1_555
Mg5 O23 2.153367 1_555
Mg5 O22 2.153367 1_555
Mg5 O29 2.153367 1_555
Mg6 O24 2.078236 1_555
Mg6 O16 2.078236 1_555
Mg6 O8 2.141701 1_555
Mg6 O12 2.141701 1_554
Mg6 O25 2.230791 1_555
Mg6 O18 2.230791 1_555
Mg7 O17 2.078236 1_555
Mg7 O24 2.078236 1_655
Mg7 O9 2.141701 1_555
Mg7 O13 2.141701 1_554
Mg7 O25 2.230791 1_555
Mg7 O19 2.230791 1_555
Mg8 O26 2.078236 1_555
Mg8 O16 2.078236 1_565
Mg8 O10 2.141701 1_555
Mg8 O14 2.141701 1_554
Mg8 O18 2.230791 1_555
Mg8 O27 2.230791 1_555
Mg9 O17 2.078236 1_565
Mg9 O26 2.078236 1_655
Mg9 O11 2.141701 1_555
Mg9 O15 2.141701 1_554
Mg9 O19 2.230791 1_555
Mg9 O27 2.230791 1_555
Mg10 O20 2.135387 1_555
Mg10 O28 2.135387 1_555
Mg10 O12 2.160351 1_555
Mg10 O8 2.160351 1_555
Mg10 O22 2.164081 1_555
Mg10 O29 2.164081 1_555
Mg11 O21 2.135387 1_555
Mg11 O28 2.135387 1_655
Mg11 O13 2.160351 1_555
Mg11 O9 2.160351 1_555
Mg11 O29 2.164081 1_555
Mg11 O23 2.164081 1_555
Mg12 O30 2.135387 1_555
Mg12 O20 2.135387 1_565
Mg12 O14 2.160351 1_555
Mg12 O10 2.160351 1_555
Mg12 O22 2.164081 1_555
Mg12 O31 2.164081 1_555
Mg13 O21 2.135387 1_565
Mg13 O30 2.135387 1_655
Mg13 O15 2.160351 1_555
Mg13 O11 2.160351 1_555
Mg13 O23 2.164081 1_555
Mg13 O31 2.164081 1_555
Mg14 O0 2.124200 1_555
Mg14 O16 2.137202 1_555
Mg14 O8 2.157009 1_555
Mg14 O10 2.157009 1_545
Mg14 O20 2.166877 1_555
Mg14 O1 2.180314 1_555
Mg15 O0 2.124200 1_655
Mg15 O17 2.137202 1_555
Mg15 O9 2.157009 1_555
Mg15 O11 2.157009 1_545
Mg15 O21 2.166877 1_555
Mg15 O1 2.180314 1_555
Mg16 O2 2.087894 1_555
Mg16 O22 2.103512 1_555
Mg16 O10 2.144382 1_555
Mg16 O8 2.144382 1_555
Mg16 O18 2.195677 1_555
Mg16 O3 2.212265 1_555
Mg17 O2 2.087894 1_655
Mg17 O23 2.103512 1_555
Mg17 O11 2.144382 1_555
Mg17 O9 2.144382 1_555
Mg17 O19 2.195677 1_555
Mg17 O3 2.212265 1_555
Mg18 O4 2.124200 1_555
Mg18 O16 2.137202 1_556
Mg18 O12 2.157009 1_555
Mg18 O14 2.157009 1_545
Mg18 O20 2.166877 1_555
Mg18 O5 2.180314 1_555
Mg19 O4 2.124200 1_655
Mg19 O17 2.137202 1_556
Mg19 O13 2.157009 1_555
Mg19 O15 2.157009 1_545
Mg19 O21 2.166877 1_555
Mg19 O5 2.180314 1_555
Mg20 O6 2.087894 1_555
Mg20 O22 2.103512 1_555
Mg20 O14 2.144382 1_555
Mg20 O12 2.144382 1_555
Mg20 O18 2.195677 1_556
Mg20 O7 2.212265 1_555
Mg21 O6 2.087894 1_655
Mg21 O23 2.103512 1_555
Mg21 O15 2.144382 1_555
Mg21 O13 2.144382 1_555
Mg21 O19 2.195677 1_556
Mg21 O7 2.212265 1_555
Mg22 O0 2.124200 1_555
Mg22 O24 2.137202 1_555
Mg22 O8 2.157009 1_555
Mg22 O9 2.157009 1_455
Mg22 O28 2.166877 1_555
Mg22 O2 2.180314 1_555
Mg23 O1 2.087894 1_555
Mg23 O29 2.103512 1_555
Mg23 O9 2.144382 1_555
Mg23 O8 2.144382 1_555
Mg23 O25 2.195677 1_555
Mg23 O3 2.212265 1_555
Mg24 O0 2.124200 1_565
Mg24 O26 2.137202 1_555
Mg24 O10 2.157009 1_555
Mg24 O11 2.157009 1_455
Mg24 O30 2.166877 1_555
Mg24 O2 2.180314 1_555
Mg25 O1 2.087894 1_565
Mg25 O31 2.103512 1_555
Mg25 O11 2.144382 1_555
Mg25 O10 2.144382 1_555
Mg25 O27 2.195677 1_555
Mg25 O3 2.212265 1_555
Mg26 O4 2.124200 1_555
Mg26 O24 2.137202 1_556
Mg26 O12 2.157009 1_555
Mg26 O13 2.157009 1_455
Mg26 O28 2.166877 1_555
Mg26 O6 2.180314 1_555
Mg27 O5 2.087894 1_555
Mg27 O29 2.103512 1_555
Mg27 O13 2.144382 1_555
Mg27 O12 2.144382 1_555
Mg27 O25 2.195677 1_556
Mg27 O7 2.212265 1_555
Mg28 O4 2.124200 1_565
Mg28 O26 2.137202 1_556
Mg28 O15 2.157009 1_455
Mg28 O14 2.157009 1_555
Mg28 O30 2.166877 1_555
Mg28 O6 2.180314 1_555
Mg29 O5 2.087894 1_565
Mg29 O31 2.103512 1_555
Mg29 O15 2.144382 1_555
Mg29 O14 2.144382 1_555
Mg29 O27 2.195677 1_556
Mg29 O7 2.212265 1_555
O3 Sb0 2.258642 1_555
O7 Sb0 2.258642 1_556
O18 Sb0 2.240468 1_555
O19 Sb0 2.240468 1_555
O25 Sb0 2.240468 1_555
O27 Sb0 2.240468 1_555
