# generated using pymatgen
data_AlCu3
_symmetry_space_group_name_H-M   'P 1'
_cell_length_a   4.08426499
_cell_length_b   4.08426454
_cell_length_c   4.08426374
_cell_angle_alpha   59.99999838
_cell_angle_beta   60.00000203
_cell_angle_gamma   59.99998831
_symmetry_Int_Tables_number   1
_chemical_formula_structural   AlCu3
_chemical_formula_sum   'Al1 Cu3'
_cell_volume   48.17553202
_cell_formula_units_Z   1
loop_
 _symmetry_equiv_pos_site_id
 _symmetry_equiv_pos_as_xyz
  1  'x, y, z'
loop_
 _atom_site_type_symbol
 _atom_site_label
 _atom_site_symmetry_multiplicity
 _atom_site_fract_x
 _atom_site_fract_y
 _atom_site_fract_z
 _atom_site_occupancy
  Al  Al0  1  0.00000000  0.00000000  0.00000000  1
  Cu  Cu0  1  0.50000000  0.50000000  0.50000000  1
  Cu  Cu1  1  0.25000000  0.25000000  0.25000000  1
  Cu  Cu2  1  0.75000000  0.75000000  0.75000000  1
loop_
_geom_bond_atom_site_label_1
_geom_bond_atom_site_label_2
_geom_bond_distance
_geom_bond_site_symmetry_2
Al0 Cu2 2.501091 1_445
Al0 Cu1 2.501091 1_554
Al0 Cu2 2.501091 1_454
Al0 Cu1 2.501091 1_545
Al0 Cu2 2.501091 1_444
Al0 Cu1 2.501091 1_555
Al0 Cu2 2.501091 1_544
Al0 Cu1 2.501091 1_455
Cu0 Cu1 2.501091 1_556
Cu0 Cu2 2.501091 1_554
Cu0 Cu1 2.501091 1_565
Cu0 Cu2 2.501091 1_545
Cu0 Cu1 2.501091 1_555
Cu0 Cu2 2.501091 1_555
Cu0 Cu2 2.501091 1_455
Cu0 Cu1 2.501091 1_655
