# generated using pymatgen
data_Li10Zn(PS4)4
_symmetry_space_group_name_H-M   'P 1'
_cell_length_a   10.23602772
_cell_length_b   10.24590798
_cell_length_c   13.99467013
_cell_angle_alpha   107.26757541
_cell_angle_beta   106.97481212
_cell_angle_gamma   101.16577050
_symmetry_Int_Tables_number   1
_chemical_formula_structural   Li10Zn(PS4)4
_chemical_formula_sum   'Li20 Zn2 P8 S32'
_cell_volume   1275.81531082
_cell_formula_units_Z   2
loop_
 _symmetry_equiv_pos_site_id
 _symmetry_equiv_pos_as_xyz
  1  'x, y, z'
loop_
 _atom_site_type_symbol
 _atom_site_label
 _atom_site_symmetry_multiplicity
 _atom_site_fract_x
 _atom_site_fract_y
 _atom_site_fract_z
 _atom_site_occupancy
  Li  Li0  1  0.71647300  0.47193100  0.49396400  1
  Li  Li1  1  0.21687400  0.97206200  0.50156000  1
  Li  Li2  1  0.95400500  0.72173600  0.99764900  1
  Li  Li3  1  0.46991600  0.23262300  0.00229900  1
  Li  Li4  1  0.41782400  0.16047000  0.25058900  1
  Li  Li5  1  0.89872000  0.64709500  0.25055800  1
  Li  Li6  1  0.16164900  0.91148300  0.74866400  1
  Li  Li7  1  0.97654600  0.21222000  0.50039300  1
  Li  Li8  1  0.47581700  0.71394600  0.49532000  1
  Li  Li9  1  0.71986200  0.96702600  0.00235400  1
  Li  Li10  1  0.65153200  0.90121600  0.24933900  1
  Li  Li11  1  0.16230400  0.41305700  0.25388100  1
  Li  Li12  1  0.90898000  0.16032800  0.74876400  1
  Li  Li13  1  0.39785600  0.65403100  0.74249700  1
  Li  Li14  1  0.04765200  0.04644600  0.24338100  1
  Li  Li15  1  0.79665000  0.80285100  0.74258300  1
  Li  Li16  1  0.57138600  0.06378500  0.48937800  1
  Li  Li17  1  0.06791900  0.57114400  0.49216200  1
  Li  Li18  1  0.82508500  0.32435700  0.00156800  1
  Li  Li19  1  0.32181300  0.82606400  0.99370300  1
  Zn  Zn0  1  0.64717300  0.39870600  0.74612500  1
  Zn  Zn1  1  0.22682500  0.47008400  0.00145700  1
  P  P0  1  0.83982000  0.83856100  0.50023300  1
  P  P1  1  0.34539500  0.33710100  0.49980900  1
  P  P2  1  0.09809400  0.09447900  0.00241200  1
  P  P3  1  0.57822800  0.59127900  0.99798100  1
  P  P4  1  0.78693300  0.27792500  0.24975800  1
  P  P5  1  0.27635000  0.78362000  0.24324000  1
  P  P6  1  0.02896700  0.52765100  0.74920400  1
  P  P7  1  0.53239500  0.03499500  0.75101900  1
  S  S0  1  0.50021900  0.27690400  0.44758400  1
  S  S1  1  0.99595900  0.77990700  0.44662100  1
  S  S2  1  0.73031500  0.51899000  0.93786300  1
  S  S3  1  0.24804100  0.03323200  0.94535500  1
  S  S4  1  0.58576200  0.28973700  0.19515400  1
  S  S5  1  0.06821400  0.78946600  0.19131000  1
  S  S6  1  0.81855200  0.54180100  0.69849800  1
  S  S7  1  0.33272800  0.04723800  0.69685700  1
  S  S8  1  0.78064100  0.99373200  0.44632900  1
  S  S9  1  0.28478400  0.49409900  0.45041700  1
  S  S10  1  0.03430800  0.25076300  0.94680700  1
  S  S11  1  0.52290500  0.74359300  0.94000900  1
  S  S12  1  0.79816900  0.07056600  0.19684200  1
  S  S13  1  0.29239100  0.57785600  0.19029000  1
  S  S14  1  0.04212400  0.32899300  0.69683100  1
  S  S15  1  0.54751400  0.83085700  0.69381300  1
  S  S16  1  0.66633800  0.66681500  0.15929400  1
  S  S17  1  0.18353100  0.18102700  0.16727100  1
  S  S18  1  0.93135000  0.93128200  0.66745900  1
  S  S19  1  0.42122200  0.41789300  0.66754400  1
  S  S20  1  0.86488000  0.35589300  0.41677700  1
  S  S21  1  0.35411800  0.85331500  0.40916400  1
  S  S22  1  0.10695200  0.61108400  0.91975900  1
  S  S23  1  0.61367200  0.11426100  0.91734800  1
  S  S24  1  0.16778700  0.16137000  0.44172300  1
  S  S25  1  0.66656600  0.66370700  0.44176500  1
  S  S26  1  0.39902500  0.41105400  0.93158600  1
  S  S27  1  0.91606300  0.92259900  0.94381300  1
  S  S28  1  0.40209200  0.90802900  0.19248900  1
  S  S29  1  0.91441300  0.40389900  0.19900200  1
  S  S30  1  0.66105300  0.16075500  0.69601400  1
  S  S31  1  0.14587500  0.65762200  0.69706200  1
loop_
_geom_bond_atom_site_label_1
_geom_bond_atom_site_label_2
_geom_bond_distance
_geom_bond_site_symmetry_2
Li0 S25 2.382965 1_555
Li0 S20 2.404834 1_555
Li0 S0 2.447882 1_555
Li0 S6 2.558309 1_555
Li1 S24 2.410790 1_565
Li1 S21 2.431975 1_555
Li1 S1 2.437761 1_455
Li1 S7 2.444068 1_565
Li2 S22 2.423791 1_655
Li2 S5 2.431618 1_656
Li2 S27 2.452173 1_555
Li2 S2 2.503079 1_555
Li3 S23 2.430239 1_554
Li3 S4 2.440850 1_555
Li3 S26 2.452895 1_554
Li3 S3 2.479190 1_554
Li4 S4 2.412049 1_555
Li4 S17 2.421586 1_555
Li4 S28 2.427073 1_545
Li4 S0 2.456633 1_555
Li5 S16 2.428078 1_555
Li5 S29 2.431181 1_555
Li5 S1 2.456667 1_555
Li5 S5 2.530463 1_655
Li6 S18 2.376454 1_455
Li6 S7 2.433848 1_565
Li6 S31 2.442767 1_555
Li6 S3 2.455197 1_565
Li7 S20 2.395011 1_555
Li7 S24 2.420150 1_655
Li7 S8 2.444376 1_545
Li7 S14 2.469480 1_655
Li8 S25 2.377747 1_555
Li8 S21 2.424605 1_555
Li8 S9 2.455345 1_555
Li8 S15 2.486691 1_555
Li9 S23 2.412032 1_564
Li9 S12 2.420472 1_565
Li9 S27 2.450534 1_554
Li9 S11 2.462955 1_554
Li10 S16 2.415503 1_555
Li10 S28 2.464332 1_555
Li10 S8 2.466004 1_555
Li10 S12 2.489061 1_565
Li11 S29 2.400887 1_455
Li11 S17 2.410670 1_555
Li11 S9 2.460446 1_555
Li11 S13 2.475760 1_555
Li12 S18 2.372657 1_545
Li12 S14 2.404968 1_655
Li12 S30 2.428510 1_555
Li12 S10 2.474820 1_655
Li13 S19 2.423875 1_555
Li13 S11 2.468640 1_555
Li13 S31 2.480199 1_555
Li13 S15 2.522034 1_555
Li14 S17 2.442245 1_555
Li14 S24 2.471670 1_555
Li14 S12 2.524983 1_455
Li14 S5 2.583233 1_545
Li15 S18 2.388091 1_555
Li15 S27 2.507607 1_555
Li15 S15 2.536706 1_555
Li15 S6 2.630253 1_555
Li16 S21 2.470661 1_545
Li16 S8 2.560905 1_545
Li16 S30 2.565816 1_555
Li16 S0 2.601223 1_555
Li17 S20 2.420658 1_455
Li17 S31 2.554637 1_555
Li17 S1 2.582502 1_455
Li17 S9 2.655981 1_555
Li18 S23 2.430288 1_554
Li18 S29 2.456408 1_555
Li18 S10 2.642553 1_654
Li18 S2 2.648089 1_554
Li19 S28 2.476018 1_556
Li19 S22 2.490242 1_555
Li19 S3 2.590104 1_565
Li19 S11 2.591412 1_555
P0 S25 2.018940 1_555
P0 S8 2.069271 1_555
P0 S1 2.069529 1_555
P0 S18 2.076608 1_555
P1 S24 2.051394 1_555
P1 S0 2.052653 1_555
P1 S9 2.060697 1_555
P1 S19 2.081264 1_555
P2 S3 2.044105 1_554
P2 S17 2.044756 1_555
P2 S27 2.055533 1_444
P2 S10 2.108061 1_554
P3 S16 2.003088 1_556
P3 S11 2.059127 1_555
P3 S26 2.076599 1_555
P3 S2 2.126346 1_555
P4 S4 2.017792 1_555
P4 S12 2.070217 1_555
P4 S20 2.072146 1_555
P4 S29 2.075192 1_555
P5 S28 2.054682 1_555
P5 S5 2.059591 1_555
P5 S21 2.061957 1_555
P5 S13 2.073258 1_555
P6 S14 1.994106 1_555
P6 S31 2.051203 1_555
P6 S6 2.110231 1_455
P6 S22 2.115880 1_555
P7 S7 2.004634 1_555
P7 S15 2.059904 1_545
P7 S23 2.062829 1_555
P7 S30 2.123858 1_555
S2 Zn0 2.395918 1_555
S6 Zn0 2.436787 1_555
S10 Zn1 2.429510 1_556
S13 Zn1 2.366087 1_555
S19 Zn0 2.327350 1_555
S22 Zn1 2.397469 1_556
S26 Zn1 2.344574 1_556
S30 Zn0 2.373448 1_555
