# generated using pymatgen
data_PuMoBrO5
_symmetry_space_group_name_H-M   'P 1'
_cell_length_a   7.35500800
_cell_length_b   7.38301787
_cell_length_c   11.81141709
_cell_angle_alpha   104.13480341
_cell_angle_beta   90.00000000
_cell_angle_gamma   90.00000000
_symmetry_Int_Tables_number   1
_chemical_formula_structural   PuMoBrO5
_chemical_formula_sum   'Pu4 Mo4 Br4 O20'
_cell_volume   621.96673059
_cell_formula_units_Z   4
loop_
 _symmetry_equiv_pos_site_id
 _symmetry_equiv_pos_as_xyz
  1  'x, y, z'
loop_
 _atom_site_type_symbol
 _atom_site_label
 _atom_site_symmetry_multiplicity
 _atom_site_fract_x
 _atom_site_fract_y
 _atom_site_fract_z
 _atom_site_occupancy
  Pu  Pu0  1  0.41696400  0.61304600  0.26435900  1
  Pu  Pu1  1  0.91696400  0.88695400  0.73564100  1
  Pu  Pu2  1  0.58303600  0.38695400  0.73564100  1
  Pu  Pu3  1  0.08303600  0.11304600  0.26435900  1
  Mo  Mo0  1  0.93139800  0.69545300  0.38637400  1
  Mo  Mo1  1  0.43139800  0.80454700  0.61362600  1
  Mo  Mo2  1  0.06860200  0.30454700  0.61362600  1
  Mo  Mo3  1  0.56860200  0.19545300  0.38637400  1
  Br  Br0  1  0.38163100  0.88513000  0.12006200  1
  Br  Br1  1  0.88163100  0.61487000  0.87993800  1
  Br  Br2  1  0.61836900  0.11487000  0.87993800  1
  Br  Br3  1  0.11836900  0.38513000  0.12006200  1
  O  O0  1  0.89109100  0.81945300  0.53788200  1
  O  O1  1  0.39109100  0.68054700  0.46211800  1
  O  O2  1  0.10890900  0.18054700  0.46211800  1
  O  O3  1  0.60890900  0.31945300  0.53788200  1
  O  O4  1  0.08830700  0.82373300  0.31463400  1
  O  O5  1  0.58830700  0.67626700  0.68536600  1
  O  O6  1  0.91169300  0.17626700  0.68536600  1
  O  O7  1  0.41169300  0.32373300  0.31463400  1
  O  O8  1  0.03482400  0.48001400  0.37902500  1
  O  O9  1  0.53482400  0.01998600  0.62097500  1
  O  O10  1  0.96517600  0.51998600  0.62097500  1
  O  O11  1  0.46517600  0.98001400  0.37902500  1
  O  O12  1  0.51786100  0.49300600  0.12687900  1
  O  O13  1  0.01786100  0.00699400  0.87312100  1
  O  O14  1  0.48213900  0.50699400  0.87312100  1
  O  O15  1  0.98213900  0.99300600  0.12687900  1
  O  O16  1  0.71080600  0.65833100  0.31829700  1
  O  O17  1  0.21080600  0.84166900  0.68170300  1
  O  O18  1  0.28919400  0.34166900  0.68170300  1
  O  O19  1  0.78919400  0.15833100  0.31829700  1
loop_
_geom_bond_atom_site_label_1
_geom_bond_atom_site_label_2
_geom_bond_distance
_geom_bond_site_symmetry_2
Mo0 O8 1.746065 1_655
Mo0 O16 1.801777 1_555
Mo0 O0 1.824351 1_555
Mo0 O4 1.827243 1_655
Mo1 O9 1.746065 1_565
Mo1 O17 1.801777 1_555
Mo1 O1 1.824351 1_555
Mo1 O5 1.827243 1_555
Mo2 O10 1.746065 1_455
Mo2 O18 1.801777 1_555
Mo2 O2 1.824351 1_555
Mo2 O6 1.827243 1_455
Mo3 O11 1.746065 1_545
Mo3 O19 1.801777 1_555
Mo3 O3 1.824351 1_555
Mo3 O7 1.827243 1_555
Br0 Pu0 2.946150 1_555
Br0 Pu3 3.026344 1_565
Br1 Pu1 2.946150 1_555
Br1 Pu2 3.026344 1_555
Br2 Pu2 2.946150 1_555
Br2 Pu1 3.026344 1_545
Br3 Pu3 2.946150 1_555
Br3 Pu0 3.026344 1_555
O0 Pu1 2.274216 1_555
O1 Pu0 2.274216 1_555
O2 Pu3 2.274216 1_555
O3 Pu2 2.274216 1_555
O4 Pu3 2.352898 1_565
O4 Pu0 2.857324 1_555
O5 Pu2 2.352898 1_555
O5 Pu1 2.857324 1_555
O6 Pu1 2.352898 1_545
O6 Pu2 2.857324 1_555
O7 Pu0 2.352898 1_555
O7 Pu3 2.857324 1_555
O12 Pu0 1.808345 1_555
O13 Pu1 1.808345 1_445
O14 Pu2 1.808345 1_555
O15 Pu3 1.808345 1_665
O16 Pu0 2.254874 1_555
O17 Pu1 2.254874 1_455
O18 Pu2 2.254874 1_555
O19 Pu3 2.254874 1_655
