# generated using pymatgen
data_Yb2P7Rh12
_symmetry_space_group_name_H-M   'P 1'
_cell_length_a   9.59332958
_cell_length_b   9.59332958
_cell_length_c   3.86653400
_cell_angle_alpha   90.00000000
_cell_angle_beta   90.00000000
_cell_angle_gamma   119.99999709
_symmetry_Int_Tables_number   1
_chemical_formula_structural   Yb2P7Rh12
_chemical_formula_sum   'Yb2 P7 Rh12'
_cell_volume   308.17060265
_cell_formula_units_Z   1
loop_
 _symmetry_equiv_pos_site_id
 _symmetry_equiv_pos_as_xyz
  1  'x, y, z'
loop_
 _atom_site_type_symbol
 _atom_site_label
 _atom_site_symmetry_multiplicity
 _atom_site_fract_x
 _atom_site_fract_y
 _atom_site_fract_z
 _atom_site_occupancy
  Yb  Yb0  1  0.33333300  0.66666700  0.25037100  1
  Yb  Yb1  1  0.66666700  0.33333300  0.74962900  1
  P  P0  1  0.00000000  0.00000000  0.50000000  1
  P  P1  1  0.40488700  0.11698500  0.24626600  1
  P  P2  1  0.71209900  0.59511300  0.24626600  1
  P  P3  1  0.88301500  0.28790100  0.24626600  1
  P  P4  1  0.59511300  0.88301500  0.75373400  1
  P  P5  1  0.28790100  0.40488700  0.75373400  1
  P  P6  1  0.11698500  0.71209900  0.75373400  1
  Rh  Rh0  1  0.44705400  0.38229800  0.24846000  1
  Rh  Rh1  1  0.93524400  0.55294600  0.24846000  1
  Rh  Rh2  1  0.61770200  0.06475600  0.24846000  1
  Rh  Rh3  1  0.55294600  0.61770200  0.75154000  1
  Rh  Rh4  1  0.06475600  0.44705400  0.75154000  1
  Rh  Rh5  1  0.38229800  0.93524400  0.75154000  1
  Rh  Rh6  1  0.14964200  0.88848300  0.25139500  1
  Rh  Rh7  1  0.73884100  0.85035800  0.25139500  1
  Rh  Rh8  1  0.11151700  0.26115900  0.25139500  1
  Rh  Rh9  1  0.85035800  0.11151700  0.74860500  1
  Rh  Rh10  1  0.26115900  0.14964200  0.74860500  1
  Rh  Rh11  1  0.88848300  0.73884100  0.74860500  1
loop_
_geom_bond_atom_site_label_1
_geom_bond_atom_site_label_2
_geom_bond_distance
_geom_bond_site_symmetry_2
P0 Rh6 2.380155 1_545
P0 Rh9 2.380155 1_455
P0 Rh8 2.380155 1_555
P0 Rh11 2.380155 1_445
P0 Rh10 2.380155 1_555
P0 Rh7 2.380155 1_445
P1 Rh6 2.331070 1_545
P1 Rh2 2.332856 1_555
P1 Rh0 2.369035 1_555
P1 Rh10 2.476677 1_554
P1 Rh10 2.490756 1_555
P1 Rh5 2.523495 1_544
P1 Rh5 2.554548 1_545
P1 Yb1 3.014906 1_554
P1 Yb1 3.031536 1_555
P2 Rh7 2.331074 1_555
P2 Rh0 2.332862 1_555
P2 Rh1 2.369026 1_555
P2 Rh11 2.476673 1_554
P2 Rh11 2.490752 1_555
P2 Rh3 2.523501 1_554
P2 Rh3 2.554555 1_555
P2 Yb1 3.014906 1_554
P2 Yb1 3.031536 1_555
P3 Rh8 2.331064 1_655
P3 Rh1 2.332866 1_555
P3 Rh2 2.369032 1_555
P3 Rh9 2.476671 1_554
P3 Rh9 2.490750 1_555
P3 Rh4 2.523497 1_654
P3 Rh4 2.554551 1_655
P3 Yb1 3.014906 1_554
P3 Yb1 3.031536 1_555
P4 Rh9 2.331070 1_565
P4 Rh5 2.332856 1_555
P4 Rh3 2.369035 1_555
P4 Rh7 2.476677 1_556
P4 Rh7 2.490756 1_555
P4 Rh2 2.523495 1_566
P4 Rh2 2.554548 1_565
P4 Yb0 3.014906 1_556
P4 Yb0 3.031536 1_555
P5 Rh10 2.331074 1_555
P5 Rh3 2.332862 1_555
P5 Rh4 2.369026 1_555
P5 Rh8 2.476673 1_556
P5 Rh8 2.490752 1_555
P5 Rh0 2.523501 1_556
P5 Rh0 2.554555 1_555
P5 Yb0 3.014906 1_556
P5 Yb0 3.031536 1_555
P6 Rh11 2.331064 1_455
P6 Rh4 2.332866 1_555
P6 Rh5 2.369032 1_555
P6 Rh6 2.476671 1_556
P6 Rh6 2.490750 1_555
P6 Rh1 2.523497 1_456
P6 Rh1 2.554551 1_455
P6 Yb0 3.014906 1_556
P6 Yb0 3.031536 1_555
Rh0 Yb1 3.060892 1_554
Rh0 Yb1 3.066596 1_555
Rh1 Yb1 3.060887 1_554
Rh1 Yb1 3.066592 1_555
Rh2 Yb1 3.060885 1_554
Rh2 Yb1 3.066589 1_555
Rh3 Yb0 3.060892 1_556
Rh3 Yb0 3.066596 1_555
Rh4 Yb0 3.060887 1_556
Rh4 Yb0 3.066592 1_555
Rh5 Yb0 3.060885 1_556
Rh5 Yb0 3.066589 1_555
