# generated using pymatgen
data_Li(LuGe)4
_symmetry_space_group_name_H-M   'P 1'
_cell_length_a   6.95819386
_cell_length_b   7.51508510
_cell_length_c   14.30770315
_cell_angle_alpha   90.00000000
_cell_angle_beta   90.00000000
_cell_angle_gamma   90.00000000
_symmetry_Int_Tables_number   1
_chemical_formula_structural   Li(LuGe)4
_chemical_formula_sum   'Li4 Lu16 Ge16'
_cell_volume   748.17010035
_cell_formula_units_Z   4
loop_
 _symmetry_equiv_pos_site_id
 _symmetry_equiv_pos_as_xyz
  1  'x, y, z'
loop_
 _atom_site_type_symbol
 _atom_site_label
 _atom_site_symmetry_multiplicity
 _atom_site_fract_x
 _atom_site_fract_y
 _atom_site_fract_z
 _atom_site_occupancy
  Li  Li0  1  0.16252449  0.52196714  0.75000000  1
  Li  Li1  1  0.83747551  0.47803286  0.25000000  1
  Li  Li2  1  0.33747551  0.02196714  0.25000000  1
  Li  Li3  1  0.66252449  0.97803286  0.75000000  1
  Lu  Lu0  1  0.32990052  0.17516179  0.62747699  1
  Lu  Lu1  1  0.67009948  0.82483821  0.37252301  1
  Lu  Lu2  1  0.17009948  0.67516179  0.37252301  1
  Lu  Lu3  1  0.67009948  0.82483821  0.12747699  1
  Lu  Lu4  1  0.82990052  0.32483821  0.62747699  1
  Lu  Lu5  1  0.32990052  0.17516179  0.87252301  1
  Lu  Lu6  1  0.82990052  0.32483821  0.87252301  1
  Lu  Lu7  1  0.17009948  0.67516179  0.12747699  1
  Lu  Lu8  1  0.01425729  0.18687920  0.09725296  1
  Lu  Lu9  1  0.98574271  0.81312080  0.90274704  1
  Lu  Lu10  1  0.48574271  0.68687920  0.90274704  1
  Lu  Lu11  1  0.98574271  0.81312080  0.59725296  1
  Lu  Lu12  1  0.51425729  0.31312080  0.09725296  1
  Lu  Lu13  1  0.01425729  0.18687920  0.40274704  1
  Lu  Lu14  1  0.51425729  0.31312080  0.40274704  1
  Lu  Lu15  1  0.48574271  0.68687920  0.59725296  1
  Ge  Ge0  1  0.01845172  0.08962805  0.75000000  1
  Ge  Ge1  1  0.98154828  0.91037195  0.25000000  1
  Ge  Ge2  1  0.48154828  0.58962805  0.25000000  1
  Ge  Ge3  1  0.51845172  0.41037195  0.75000000  1
  Ge  Ge4  1  0.28553898  0.86245277  0.75000000  1
  Ge  Ge5  1  0.71446102  0.13754723  0.25000000  1
  Ge  Ge6  1  0.21446102  0.36245277  0.25000000  1
  Ge  Ge7  1  0.78553898  0.63754723  0.75000000  1
  Ge  Ge8  1  0.17064319  0.46551654  0.53657874  1
  Ge  Ge9  1  0.82935681  0.53448346  0.46342126  1
  Ge  Ge10  1  0.32935681  0.96551654  0.46342126  1
  Ge  Ge11  1  0.82935681  0.53448346  0.03657874  1
  Ge  Ge12  1  0.67064319  0.03448346  0.53657874  1
  Ge  Ge13  1  0.17064319  0.46551654  0.96342126  1
  Ge  Ge14  1  0.67064319  0.03448346  0.96342126  1
  Ge  Ge15  1  0.32935681  0.96551654  0.03657874  1
loop_
_geom_bond_atom_site_label_1
_geom_bond_atom_site_label_2
_geom_bond_distance
_geom_bond_site_symmetry_2
Ge0 Ge4 2.523587 1_545
Ge0 Li3 2.614752 1_445
Ge0 Lu4 2.814048 1_455
Ge0 Lu6 2.814048 1_455
Ge0 Lu5 2.860540 1_555
Ge0 Lu0 2.860540 1_555
Ge0 Lu9 3.024238 1_445
Ge0 Lu11 3.024238 1_445
Ge1 Ge5 2.523587 1_565
Ge1 Li2 2.614752 1_665
Ge1 Lu7 2.814048 1_655
Ge1 Lu2 2.814048 1_655
Ge1 Lu1 2.860540 1_555
Ge1 Lu3 2.860540 1_555
Ge1 Lu8 3.024238 1_665
Ge1 Lu13 3.024238 1_665
Ge2 Ge6 2.523587 1_555
Ge2 Li1 2.614752 1_555
Ge2 Lu1 2.814048 1_555
Ge2 Lu3 2.814048 1_555
Ge2 Lu2 2.860540 1_555
Ge2 Lu7 2.860540 1_555
Ge2 Lu12 3.024238 1_555
Ge2 Lu14 3.024238 1_555
Ge3 Ge7 2.523587 1_555
Ge3 Li0 2.614752 1_555
Ge3 Lu5 2.814048 1_555
Ge3 Lu0 2.814048 1_555
Ge3 Lu4 2.860540 1_555
Ge3 Lu6 2.860540 1_555
Ge3 Lu15 3.024238 1_555
Ge3 Lu10 3.024238 1_555
Ge4 Li0 2.698150 1_555
Ge4 Li3 2.763207 1_555
Ge4 Lu10 2.908228 1_555
Ge4 Lu15 2.908228 1_555
Ge4 Lu5 2.948056 1_565
Ge4 Lu0 2.948056 1_565
Ge4 Lu9 3.043886 1_455
Ge4 Lu11 3.043886 1_455
Ge5 Li1 2.698150 1_555
Ge5 Li2 2.763207 1_555
Ge5 Lu14 2.908228 1_555
Ge5 Lu12 2.908228 1_555
Ge5 Lu3 2.948056 1_545
Ge5 Lu1 2.948056 1_545
Ge5 Lu8 3.043886 1_655
Ge5 Lu13 3.043886 1_655
Ge6 Li2 2.698150 1_555
Ge6 Li1 2.763207 1_455
Ge6 Lu8 2.908228 1_555
Ge6 Lu13 2.908228 1_555
Ge6 Lu2 2.948056 1_555
Ge6 Lu7 2.948056 1_555
Ge6 Lu14 3.043886 1_555
Ge6 Lu12 3.043886 1_555
Ge7 Li3 2.698150 1_555
Ge7 Li0 2.763207 1_655
Ge7 Lu11 2.908228 1_555
Ge7 Lu9 2.908228 1_555
Ge7 Lu6 2.948056 1_555
Ge7 Lu4 2.948056 1_555
Ge7 Lu15 3.043886 1_555
Ge7 Lu10 3.043886 1_555
Ge8 Ge9 2.646434 1_455
Ge8 Lu0 2.771408 1_555
Ge8 Lu2 2.826987 1_555
Ge8 Lu15 2.885862 1_555
Ge8 Lu4 2.903538 1_455
Ge8 Lu11 3.038563 1_455
Ge8 Lu13 3.038983 1_555
Ge8 Li0 3.083414 1_555
Ge8 Lu14 3.270283 1_555
Ge9 Lu1 2.771408 1_555
Ge9 Lu4 2.826987 1_555
Ge9 Lu14 2.885862 1_555
Ge9 Lu2 2.903538 1_655
Ge9 Lu13 3.038563 1_655
Ge9 Lu11 3.038983 1_555
Ge9 Li1 3.083414 1_555
Ge9 Lu15 3.270283 1_555
Ge10 Ge12 2.646434 1_565
Ge10 Lu2 2.771408 1_555
Ge10 Lu0 2.826987 1_565
Ge10 Lu13 2.885862 1_565
Ge10 Lu1 2.903538 1_555
Ge10 Lu14 3.038563 1_565
Ge10 Lu15 3.038983 1_555
Ge10 Li2 3.083414 1_565
Ge10 Lu11 3.270283 1_455
Ge11 Ge13 2.646434 1_654
Ge11 Lu3 2.771408 1_555
Ge11 Lu6 2.826987 1_554
Ge11 Lu12 2.885862 1_555
Ge11 Lu7 2.903538 1_655
Ge11 Lu8 3.038563 1_655
Ge11 Lu9 3.038983 1_554
Ge11 Li1 3.083414 1_555
Ge11 Lu10 3.270283 1_554
Ge12 Lu4 2.771408 1_555
Ge12 Lu1 2.826987 1_545
Ge12 Lu11 2.885862 1_545
Ge12 Lu0 2.903538 1_555
Ge12 Lu15 3.038563 1_545
Ge12 Lu14 3.038983 1_555
Ge12 Li3 3.083414 1_545
Ge12 Lu13 3.270283 1_655
Ge13 Lu5 2.771408 1_555
Ge13 Lu7 2.826987 1_556
Ge13 Lu10 2.885862 1_555
Ge13 Lu6 2.903538 1_455
Ge13 Lu9 3.038563 1_455
Ge13 Lu8 3.038983 1_556
Ge13 Li0 3.083414 1_555
Ge13 Lu12 3.270283 1_556
Ge14 Ge15 2.646434 1_546
Ge14 Lu6 2.771408 1_555
Ge14 Lu3 2.826987 1_546
Ge14 Lu9 2.885862 1_545
Ge14 Lu5 2.903538 1_555
Ge14 Lu10 3.038563 1_545
Ge14 Lu12 3.038983 1_556
Ge14 Li3 3.083414 1_545
Ge14 Lu8 3.270283 1_656
Ge15 Lu7 2.771408 1_555
Ge15 Lu5 2.826987 1_564
Ge15 Lu8 2.885862 1_565
Ge15 Lu3 2.903538 1_555
Ge15 Lu12 3.038563 1_565
Ge15 Lu10 3.038983 1_554
Ge15 Li2 3.083414 1_565
Ge15 Lu9 3.270283 1_454
