# generated using pymatgen
data_Ce4(FeB2)3
_symmetry_space_group_name_H-M   'P 1'
_cell_length_a   5.26380848
_cell_length_b   5.26380848
_cell_length_c   7.82104477
_cell_angle_alpha   70.33526865
_cell_angle_beta   70.33526865
_cell_angle_gamma   59.99999400
_symmetry_Int_Tables_number   1
_chemical_formula_structural   Ce4(FeB2)3
_chemical_formula_sum   'Ce4 Fe3 B6'
_cell_volume   172.92263322
_cell_formula_units_Z   1
loop_
 _symmetry_equiv_pos_site_id
 _symmetry_equiv_pos_as_xyz
  1  'x, y, z'
loop_
 _atom_site_type_symbol
 _atom_site_label
 _atom_site_symmetry_multiplicity
 _atom_site_fract_x
 _atom_site_fract_y
 _atom_site_fract_z
 _atom_site_occupancy
  Ce  Ce0  1  0.26290000  0.26290000  0.21130000  1
  Ce  Ce1  1  0.73710000  0.73710000  0.78870000  1
  Ce  Ce2  1  0.40363000  0.40363000  0.78911100  1
  Ce  Ce3  1  0.59637000  0.59637000  0.21089000  1
  Fe  Fe0  1  0.00000000  0.00000000  0.00000000  1
  Fe  Fe1  1  0.11404100  0.11404100  0.65787800  1
  Fe  Fe2  1  0.88595900  0.88595900  0.34212200  1
  B  B0  1  0.16903600  0.83096400  0.50000000  1
  B  B1  1  0.83096400  0.50000000  0.50000000  1
  B  B2  1  0.50000000  0.16903600  0.50000000  1
  B  B3  1  0.16903600  0.50000000  0.50000000  1
  B  B4  1  0.50000000  0.83096400  0.50000000  1
  B  B5  1  0.83096400  0.16903600  0.50000000  1
loop_
_geom_bond_atom_site_label_1
_geom_bond_atom_site_label_2
_geom_bond_distance
_geom_bond_site_symmetry_2
Ce0 Ce3 3.039062 1_545
Ce0 Ce3 3.039062 1_455
Ce0 Ce3 3.039063 1_555
Ce0 Ce2 3.042482 1_554
Ce0 Fe2 3.181931 1_545
Ce0 Fe2 3.181931 1_455
Ce0 Fe2 3.181935 1_445
Ce0 Fe0 3.399202 1_565
Ce0 Fe0 3.399202 1_655
Ce0 Fe0 3.399202 1_555
Ce1 Ce2 3.039060 1_555
Ce1 Ce2 3.039064 1_655
Ce1 Ce2 3.039064 1_565
Ce1 Ce3 3.042489 1_556
Ce1 Fe1 3.181931 1_655
Ce1 Fe1 3.181931 1_565
Ce1 Fe1 3.181935 1_665
Ce1 Fe0 3.399202 1_566
Ce1 Fe0 3.399202 1_656
Ce1 Fe0 3.399202 1_666
Ce2 Fe1 3.182811 1_655
Ce2 Fe1 3.182811 1_565
Ce2 Fe1 3.182811 1_555
Ce2 Fe0 3.397875 1_566
Ce2 Fe0 3.397875 1_656
Ce2 Fe0 3.397879 1_556
Ce3 Fe2 3.182806 1_555
Ce3 Fe2 3.182810 1_545
Ce3 Fe2 3.182810 1_455
Ce3 Fe0 3.397879 1_565
Ce3 Fe0 3.397879 1_655
Ce3 Fe0 3.397880 1_665
Fe0 Fe2 2.465483 1_445
Fe0 Fe1 2.465483 1_554
B0 B3 1.742131 1_555
B0 B4 1.742131 1_555
B0 B5 1.779546 1_465
B0 Fe2 2.096456 1_455
B0 Fe1 2.096456 1_565
B0 Ce3 2.715844 1_555
B0 Ce2 2.715849 1_555
B0 Ce1 2.725647 1_455
B0 Ce0 2.725647 1_565
B1 B4 1.742131 1_555
B1 B5 1.742131 1_555
B1 B3 1.779546 1_655
B1 Fe2 2.096452 1_555
B1 Fe1 2.096454 1_655
B1 Ce3 2.715844 1_555
B1 Ce2 2.715848 1_555
B1 Ce0 2.725647 1_655
B1 Ce1 2.725647 1_555
B2 B3 1.742131 1_555
B2 B5 1.742131 1_555
B2 B4 1.779546 1_545
B2 Fe1 2.096452 1_555
B2 Fe2 2.096454 1_545
B2 Ce3 2.715844 1_555
B2 Ce2 2.715851 1_555
B2 Ce1 2.725647 1_545
B2 Ce0 2.725647 1_555
B3 Fe1 2.096452 1_555
B3 Fe2 2.096454 1_455
B3 Ce3 2.715844 1_555
B3 Ce2 2.715851 1_555
B3 Ce1 2.725647 1_455
B3 Ce0 2.725647 1_555
B4 Fe2 2.096452 1_555
B4 Fe1 2.096454 1_565
B4 Ce3 2.715844 1_555
B4 Ce2 2.715848 1_555
B4 Ce0 2.725647 1_565
B4 Ce1 2.725647 1_555
B5 Fe2 2.096456 1_545
B5 Fe1 2.096456 1_655
B5 Ce3 2.715844 1_555
B5 Ce2 2.715849 1_555
B5 Ce0 2.725647 1_655
B5 Ce1 2.725647 1_545
