# generated using pymatgen
data_Na2Li(NiO2)3
_symmetry_space_group_name_H-M   'P 1'
_cell_length_a   16.14375893
_cell_length_b   10.45455712
_cell_length_c   10.37107182
_cell_angle_alpha   16.68267691
_cell_angle_beta   15.44132561
_cell_angle_gamma   16.31614723
_symmetry_Int_Tables_number   1
_chemical_formula_structural   Na2Li(NiO2)3
_chemical_formula_sum   'Na2 Li1 Ni3 O6'
_cell_volume   117.64751523
_cell_formula_units_Z   1
loop_
 _symmetry_equiv_pos_site_id
 _symmetry_equiv_pos_as_xyz
  1  'x, y, z'
loop_
 _atom_site_type_symbol
 _atom_site_label
 _atom_site_symmetry_multiplicity
 _atom_site_fract_x
 _atom_site_fract_y
 _atom_site_fract_z
 _atom_site_occupancy
  Na  Na0  1  0.00454800  0.99620200  0.99702800  1
  Na  Na1  1  0.32886700  0.00359000  0.00309500  1
  Li  Li0  1  0.66668000  0.99981600  0.00012300  1
  Ni  Ni0  1  0.16663200  0.50013800  0.49993400  1
  Ni  Ni1  1  0.49759400  0.50535400  0.50081900  1
  Ni  Ni2  1  0.83567100  0.49484500  0.49913800  1
  O  O0  1  0.24858200  0.26535200  0.21378500  1
  O  O1  1  0.08466900  0.73477000  0.78611700  1
  O  O2  1  0.57748700  0.26775400  0.21394300  1
  O  O3  1  0.43429200  0.71320600  0.77792800  1
  O  O4  1  0.89901100  0.28674400  0.22218800  1
  O  O5  1  0.75596800  0.73223000  0.78590300  1
loop_
_geom_bond_atom_site_label_1
_geom_bond_atom_site_label_2
_geom_bond_distance
_geom_bond_site_symmetry_2
Na0 O3 2.266840 1_555
Na0 O0 2.284148 1_565
Na0 O0 2.311414 1_556
Na0 O5 2.315921 1_456
Na0 O2 2.327966 1_466
Na0 O5 2.344790 1_465
Na1 O4 2.267303 1_455
Na1 O1 2.282925 1_545
Na1 O1 2.311293 1_554
Na1 O2 2.316588 1_554
Na1 O5 2.327852 1_544
Na1 O2 2.344557 1_545
Li0 O4 2.244321 1_555
Li0 O3 2.245543 1_564
Li0 O4 2.247624 1_564
Li0 O3 2.247877 1_555
Li0 O1 2.271212 1_654
Li0 O0 2.271722 1_565
Ni0 O5 1.908048 1_455
Ni0 O2 1.908495 1_555
Ni0 O3 1.961420 1_554
Ni0 O4 1.961836 1_456
Ni0 O4 2.236821 1_465
Ni0 O3 2.237648 1_545
Ni1 O0 1.908846 1_556
Ni1 O5 1.917187 1_554
Ni1 O4 1.921583 1_555
Ni1 O1 1.956404 1_555
Ni1 O0 2.144704 1_565
Ni1 O5 2.179183 1_545
Ni2 O1 1.909565 1_654
Ni2 O2 1.916779 1_556
Ni2 O3 1.921681 1_555
Ni2 O0 1.955409 1_655
Ni2 O1 2.145447 1_645
Ni2 O2 2.178528 1_565
