# generated using pymatgen
data_LaYbAl4
_symmetry_space_group_name_H-M   'P 1'
_cell_length_a   5.69655547
_cell_length_b   5.69655547
_cell_length_c   5.69655547
_cell_angle_alpha   60.00000000
_cell_angle_beta   60.00000000
_cell_angle_gamma   60.00000000
_symmetry_Int_Tables_number   1
_chemical_formula_structural   LaYbAl4
_chemical_formula_sum   'La1 Yb1 Al4'
_cell_volume   130.71396649
_cell_formula_units_Z   1
loop_
 _symmetry_equiv_pos_site_id
 _symmetry_equiv_pos_as_xyz
  1  'x, y, z'
loop_
 _atom_site_type_symbol
 _atom_site_label
 _atom_site_symmetry_multiplicity
 _atom_site_fract_x
 _atom_site_fract_y
 _atom_site_fract_z
 _atom_site_occupancy
  La  La0  1  0.25000000  0.25000000  0.25000000  1
  Yb  Yb0  1  0.00000000  0.00000000  0.00000000  1
  Al  Al0  1  0.62491500  0.62491500  0.12525500  1
  Al  Al1  1  0.62491500  0.12525500  0.62491500  1
  Al  Al2  1  0.12525500  0.62491500  0.62491500  1
  Al  Al3  1  0.62491500  0.62491500  0.62491500  1
loop_
_geom_bond_atom_site_label_1
_geom_bond_atom_site_label_2
_geom_bond_distance
_geom_bond_site_symmetry_2
Al0 Al2 2.846341 1_555
Al0 Al3 2.846341 1_555
Al0 Al1 2.846341 1_555
Al0 Al3 2.850215 1_554
Al0 Al1 2.850215 1_564
Al0 Al2 2.850215 1_654
Al0 La0 3.339695 1_655
Al0 La0 3.339695 1_555
Al0 La0 3.339695 1_565
Al0 Yb0 3.340108 1_565
Al0 Yb0 3.340108 1_655
Al0 Yb0 3.340108 1_665
Al1 Al2 2.846341 1_555
Al1 Al3 2.846341 1_555
Al1 Al3 2.850215 1_545
Al1 Al2 2.850215 1_645
Al1 La0 3.339695 1_655
Al1 La0 3.339695 1_555
Al1 La0 3.339695 1_556
Al1 Yb0 3.340108 1_655
Al1 Yb0 3.340108 1_656
Al1 Yb0 3.340108 1_556
Al2 Al3 2.846341 1_555
Al2 Al3 2.850215 1_455
Al2 La0 3.339695 1_555
Al2 La0 3.339695 1_556
Al2 La0 3.339695 1_565
Al2 Yb0 3.340108 1_565
Al2 Yb0 3.340108 1_566
Al2 Yb0 3.340108 1_556
Al3 La0 3.339695 1_655
Al3 La0 3.339695 1_556
Al3 La0 3.339695 1_565
Al3 Yb0 3.340108 1_566
Al3 Yb0 3.340108 1_656
Al3 Yb0 3.340108 1_665
