# generated using pymatgen
data_Mn4H2C8O17
_symmetry_space_group_name_H-M   'P 1'
_cell_length_a   7.18983800
_cell_length_b   9.13243500
_cell_length_c   11.94568300
_cell_angle_alpha   90.00000000
_cell_angle_beta   90.00000000
_cell_angle_gamma   90.00000000
_symmetry_Int_Tables_number   1
_chemical_formula_structural   Mn4H2C8O17
_chemical_formula_sum   'Mn8 H4 C16 O34'
_cell_volume   784.36224457
_cell_formula_units_Z   2
loop_
 _symmetry_equiv_pos_site_id
 _symmetry_equiv_pos_as_xyz
  1  'x, y, z'
loop_
 _atom_site_type_symbol
 _atom_site_label
 _atom_site_symmetry_multiplicity
 _atom_site_fract_x
 _atom_site_fract_y
 _atom_site_fract_z
 _atom_site_occupancy
  Mn  Mn0  1  0.99601800  0.18097400  0.70396200  1
  Mn  Mn1  1  0.50299700  0.31812100  0.20162800  1
  Mn  Mn2  1  0.50299700  0.68187900  0.79837200  1
  Mn  Mn3  1  0.99601800  0.81902600  0.29603800  1
  Mn  Mn4  1  0.00299700  0.81812100  0.79837200  1
  Mn  Mn5  1  0.49601800  0.68097400  0.29603800  1
  Mn  Mn6  1  0.49601800  0.31902600  0.70396200  1
  Mn  Mn7  1  0.00299700  0.18187900  0.20162800  1
  H  H0  1  0.99205200  0.41304500  0.50758200  1
  H  H1  1  0.99205200  0.58695500  0.49241800  1
  H  H2  1  0.49205200  0.91304500  0.49241800  1
  H  H3  1  0.49205200  0.08695500  0.50758200  1
  C  C0  1  0.89355900  0.50260600  0.74333400  1
  C  C1  1  0.60761800  0.99699600  0.24363900  1
  C  C2  1  0.60761800  0.00300400  0.75636100  1
  C  C3  1  0.89355900  0.49739400  0.25666600  1
  C  C4  1  0.10761800  0.49699600  0.75636100  1
  C  C5  1  0.39355900  0.00260600  0.25666600  1
  C  C6  1  0.39355900  0.99739400  0.74333400  1
  C  C7  1  0.10761800  0.50300400  0.24363900  1
  C  C8  1  0.01108400  0.07331400  0.96644600  1
  C  C9  1  0.48677200  0.42695500  0.46635800  1
  C  C10  1  0.48677200  0.57304500  0.53364200  1
  C  C11  1  0.01108400  0.92668600  0.03355400  1
  C  C12  1  0.98677200  0.92695500  0.53364200  1
  C  C13  1  0.51108400  0.57331400  0.03355400  1
  C  C14  1  0.51108400  0.42668600  0.96644600  1
  C  C15  1  0.98677200  0.07304500  0.46635800  1
  O  O0  1  0.81604500  0.62303600  0.76774000  1
  O  O1  1  0.68450300  0.87549100  0.26531800  1
  O  O2  1  0.68450300  0.12450900  0.73468200  1
  O  O3  1  0.81604500  0.37696400  0.23226000  1
  O  O4  1  0.18450300  0.37549100  0.73468200  1
  O  O5  1  0.31604500  0.12303600  0.23226000  1
  O  O6  1  0.31604500  0.87696400  0.76774000  1
  O  O7  1  0.18450300  0.62450900  0.26531800  1
  O  O8  1  0.01392300  0.05790600  0.86041800  1
  O  O9  1  0.48751700  0.44112300  0.36055900  1
  O  O10  1  0.48751700  0.55887700  0.63944100  1
  O  O11  1  0.01392300  0.94209400  0.13958200  1
  O  O12  1  0.98751700  0.94112300  0.63944100  1
  O  O13  1  0.51392300  0.55790600  0.13958200  1
  O  O14  1  0.51392300  0.44209400  0.86041800  1
  O  O15  1  0.98751700  0.05887700  0.36055900  1
  O  O16  1  0.81487800  0.38640800  0.71047700  1
  O  O17  1  0.68534400  0.11352700  0.21095000  1
  O  O18  1  0.68534400  0.88647300  0.78905000  1
  O  O19  1  0.81487800  0.61359200  0.28952300  1
  O  O20  1  0.18534400  0.61352700  0.78905000  1
  O  O21  1  0.31487800  0.88640800  0.28952300  1
  O  O22  1  0.31487800  0.11359200  0.71047700  1
  O  O23  1  0.18534400  0.38647300  0.21095000  1
  O  O24  1  0.00856200  0.19206400  0.01917600  1
  O  O25  1  0.48939100  0.30854400  0.52038000  1
  O  O26  1  0.48939100  0.69145600  0.47962000  1
  O  O27  1  0.00856200  0.80793600  0.98082400  1
  O  O28  1  0.98939100  0.80854400  0.47962000  1
  O  O29  1  0.50856200  0.69206400  0.98082400  1
  O  O30  1  0.50856200  0.30793600  0.01917600  1
  O  O31  1  0.98939100  0.19145600  0.52038000  1
  O  O32  1  0.07017400  0.50000000  0.50000000  1
  O  O33  1  0.57017400  0.00000000  0.50000000  1
loop_
_geom_bond_atom_site_label_1
_geom_bond_atom_site_label_2
_geom_bond_distance
_geom_bond_site_symmetry_2
Mn0 O8 2.184676 1_655
Mn0 O31 2.195618 1_555
Mn0 O4 2.264248 1_655
Mn0 O16 2.285173 1_555
Mn0 O12 2.322874 1_545
Mn0 O2 2.327450 1_555
Mn0 O22 2.374978 1_655
Mn1 O30 2.181865 1_555
Mn1 O9 2.208769 1_555
Mn1 O5 2.261582 1_555
Mn1 O17 2.285238 1_555
Mn1 O13 2.313188 1_555
Mn1 O3 2.342779 1_555
Mn1 O23 2.370259 1_555
Mn2 O29 2.181865 1_555
Mn2 O10 2.208769 1_555
Mn2 O6 2.261582 1_555
Mn2 O18 2.285238 1_555
Mn2 O14 2.313188 1_555
Mn2 O0 2.342779 1_555
Mn2 O20 2.370259 1_555
Mn3 O11 2.184676 1_655
Mn3 O28 2.195618 1_555
Mn3 O7 2.264248 1_655
Mn3 O19 2.285173 1_555
Mn3 O15 2.322874 1_565
Mn3 O1 2.327450 1_555
Mn3 O21 2.374978 1_655
Mn4 O27 2.181865 1_555
Mn4 O12 2.208769 1_455
Mn4 O0 2.261582 1_455
Mn4 O20 2.285238 1_555
Mn4 O8 2.313188 1_565
Mn4 O6 2.342779 1_555
Mn4 O18 2.370259 1_455
Mn5 O13 2.184676 1_555
Mn5 O26 2.195618 1_555
Mn5 O1 2.264248 1_555
Mn5 O21 2.285173 1_555
Mn5 O9 2.322874 1_555
Mn5 O7 2.327450 1_555
Mn5 O19 2.374978 1_555
Mn6 O14 2.184676 1_555
Mn6 O25 2.195618 1_555
Mn6 O2 2.264248 1_555
Mn6 O22 2.285173 1_555
Mn6 O10 2.322874 1_555
Mn6 O4 2.327450 1_555
Mn6 O16 2.374978 1_555
Mn7 O24 2.181865 1_555
Mn7 O15 2.208769 1_455
Mn7 O3 2.261582 1_455
Mn7 O23 2.285238 1_555
Mn7 O11 2.313188 1_545
Mn7 O5 2.342779 1_555
Mn7 O17 2.370259 1_455
H0 O32 0.976885 1_655
H1 O32 0.976885 1_655
H2 O33 0.976885 1_565
H3 O33 0.976885 1_555
C0 O16 1.264974 1_555
C0 O0 1.266965 1_555
C1 O17 1.263855 1_565
C1 O1 1.266466 1_555
C2 O18 1.263855 1_545
C2 O2 1.266466 1_555
C3 O19 1.264974 1_555
C3 O3 1.266965 1_555
C4 O20 1.263855 1_555
C4 O4 1.266466 1_555
C5 O21 1.264974 1_545
C5 O5 1.266965 1_555
C6 O22 1.264974 1_565
C6 O6 1.266965 1_555
C7 O23 1.263855 1_555
C7 O7 1.266466 1_555
C8 O24 1.254268 1_556
C8 O8 1.274533 1_555
C9 O25 1.259440 1_555
C9 O9 1.270459 1_555
C10 O26 1.259440 1_555
C10 O10 1.270459 1_555
C11 O27 1.254268 1_554
C11 O11 1.274533 1_555
C12 O28 1.259440 1_555
C12 O12 1.270459 1_555
C13 O29 1.254268 1_554
C13 O13 1.274533 1_555
C14 O30 1.254268 1_556
C14 O14 1.274533 1_555
C15 O31 1.259440 1_555
C15 O15 1.270459 1_555
