# generated using pymatgen
data_Hg4BiSe2Cl5
_symmetry_space_group_name_H-M   'P 1'
_cell_length_a   10.68303100
_cell_length_b   9.72861500
_cell_length_c   16.97677404
_cell_angle_alpha   59.35058343
_cell_angle_beta   90.00000000
_cell_angle_gamma   90.00000000
_symmetry_Int_Tables_number   1
_chemical_formula_structural   Hg4BiSe2Cl5
_chemical_formula_sum   'Hg16 Bi4 Se8 Cl20'
_cell_volume   1517.93069641
_cell_formula_units_Z   4
loop_
 _symmetry_equiv_pos_site_id
 _symmetry_equiv_pos_as_xyz
  1  'x, y, z'
loop_
 _atom_site_type_symbol
 _atom_site_label
 _atom_site_symmetry_multiplicity
 _atom_site_fract_x
 _atom_site_fract_y
 _atom_site_fract_z
 _atom_site_occupancy
  Hg  Hg0  1  0.74947800  0.85553500  0.04688100  1
  Hg  Hg1  1  0.75052200  0.85553500  0.54688100  1
  Hg  Hg2  1  0.25052200  0.14446500  0.95311900  1
  Hg  Hg3  1  0.24947800  0.14446500  0.45311900  1
  Hg  Hg4  1  0.74903600  0.17077000  0.95035500  1
  Hg  Hg5  1  0.75096400  0.17077000  0.45035500  1
  Hg  Hg6  1  0.25096400  0.82923000  0.04964500  1
  Hg  Hg7  1  0.24903600  0.82923000  0.54964500  1
  Hg  Hg8  1  0.74582500  0.51482200  0.99186700  1
  Hg  Hg9  1  0.75417500  0.51482200  0.49186700  1
  Hg  Hg10  1  0.25417500  0.48517800  0.00813300  1
  Hg  Hg11  1  0.24582500  0.48517800  0.50813300  1
  Hg  Hg12  1  0.50559400  0.51131800  0.64676500  1
  Hg  Hg13  1  0.99440600  0.51131800  0.14676500  1
  Hg  Hg14  1  0.49440600  0.48868200  0.35323500  1
  Hg  Hg15  1  0.00559400  0.48868200  0.85323500  1
  Bi  Bi0  1  0.00016400  0.01782700  0.73517300  1
  Bi  Bi1  1  0.49983600  0.01782700  0.23517300  1
  Bi  Bi2  1  0.99983600  0.98217300  0.26482700  1
  Bi  Bi3  1  0.50016400  0.98217300  0.76482700  1
  Se  Se0  1  0.75695000  0.54364600  0.13218900  1
  Se  Se1  1  0.74305000  0.54364600  0.63218900  1
  Se  Se2  1  0.24305000  0.45635400  0.86781100  1
  Se  Se3  1  0.25695000  0.45635400  0.36781100  1
  Se  Se4  1  0.73319300  0.48231300  0.35328300  1
  Se  Se5  1  0.76680700  0.48231300  0.85328300  1
  Se  Se6  1  0.26680700  0.51768700  0.64671700  1
  Se  Se7  1  0.23319300  0.51768700  0.14671700  1
  Cl  Cl0  1  0.50230200  0.19838100  0.82695400  1
  Cl  Cl1  1  0.99769800  0.19838100  0.32695400  1
  Cl  Cl2  1  0.49769800  0.80161900  0.17304600  1
  Cl  Cl3  1  0.00230200  0.80161900  0.67304600  1
  Cl  Cl4  1  0.50091800  0.78798000  0.69673400  1
  Cl  Cl5  1  0.99908200  0.78798000  0.19673400  1
  Cl  Cl6  1  0.49908200  0.21202000  0.30326600  1
  Cl  Cl7  1  0.00091800  0.21202000  0.80326600  1
  Cl  Cl8  1  0.53683800  0.23705300  0.59173700  1
  Cl  Cl9  1  0.96316200  0.23705300  0.09173700  1
  Cl  Cl10  1  0.46316200  0.76294700  0.40826300  1
  Cl  Cl11  1  0.03683800  0.76294700  0.90826300  1
  Cl  Cl12  1  0.97271900  0.26456900  0.55963800  1
  Cl  Cl13  1  0.52728100  0.26456900  0.05963800  1
  Cl  Cl14  1  0.02728100  0.73543100  0.44036200  1
  Cl  Cl15  1  0.47271900  0.73543100  0.94036200  1
  Cl  Cl16  1  0.74334300  0.93620200  0.79723900  1
  Cl  Cl17  1  0.75665700  0.93620200  0.29723900  1
  Cl  Cl18  1  0.25665700  0.06379800  0.20276100  1
  Cl  Cl19  1  0.24334300  0.06379800  0.70276100  1
loop_
_geom_bond_atom_site_label_1
_geom_bond_atom_site_label_2
_geom_bond_distance
_geom_bond_site_symmetry_2
Hg0 Se0 2.613451 1_555
Hg0 Hg4 2.639455 1_564
Hg1 Se1 2.613451 1_555
Hg1 Hg5 2.639455 1_565
Hg2 Se2 2.613451 1_555
Hg2 Hg6 2.639455 1_546
Hg3 Se3 2.613451 1_555
Hg3 Hg7 2.639455 1_545
Hg4 Se5 2.616401 1_555
Hg5 Se4 2.616401 1_555
Hg6 Se7 2.616401 1_555
Hg7 Se6 2.616401 1_555
Hg8 Se5 2.538534 1_555
Hg8 Se0 2.539447 1_556
Hg9 Se4 2.538534 1_555
Hg9 Se1 2.539447 1_555
Hg10 Se7 2.538534 1_555
Hg10 Se2 2.539447 1_554
Hg11 Se6 2.538534 1_555
Hg11 Se3 2.539447 1_555
Hg12 Se6 2.551711 1_555
Hg12 Se1 2.552626 1_555
Hg13 Se7 2.551711 1_655
Hg13 Se0 2.552626 1_555
Hg14 Se4 2.551711 1_555
Hg14 Se3 2.552626 1_555
Hg15 Se5 2.551711 1_455
Hg15 Se2 2.552626 1_555
Bi0 Cl19 2.645924 1_555
Bi0 Cl7 2.670630 1_555
Bi0 Cl12 2.726773 1_455
Bi0 Cl11 2.740057 1_545
Bi0 Cl3 2.792698 1_545
Bi0 Cl16 2.900901 1_445
Bi1 Cl18 2.645924 1_555
Bi1 Cl6 2.670630 1_555
Bi1 Cl13 2.726773 1_555
Bi1 Cl10 2.740057 1_545
Bi1 Cl2 2.792698 1_545
Bi1 Cl17 2.900901 1_545
Bi2 Cl17 2.645924 1_555
Bi2 Cl5 2.670630 1_555
Bi2 Cl14 2.726773 1_655
Bi2 Cl9 2.740057 1_565
Bi2 Cl1 2.792698 1_565
Bi2 Cl18 2.900901 1_665
Bi3 Cl16 2.645924 1_555
Bi3 Cl4 2.670630 1_555
Bi3 Cl15 2.726773 1_555
Bi3 Cl8 2.740057 1_565
Bi3 Cl0 2.792698 1_565
Bi3 Cl19 2.900901 1_565
Cl0 Hg12 3.021963 1_555
Cl1 Hg13 3.021963 1_555
Cl2 Hg14 3.021963 1_555
Cl3 Hg15 3.021963 1_555
