# generated using pymatgen
data_CaV5O7
_symmetry_space_group_name_H-M   'P 1'
_cell_length_a   3.12393500
_cell_length_b   5.25552346
_cell_length_c   18.14804204
_cell_angle_alpha   89.99221249
_cell_angle_beta   89.99958994
_cell_angle_gamma   107.29181433
_symmetry_Int_Tables_number   1
_chemical_formula_structural   CaV5O7
_chemical_formula_sum   'Ca2 V10 O14'
_cell_volume   284.48648559
_cell_formula_units_Z   2
loop_
 _symmetry_equiv_pos_site_id
 _symmetry_equiv_pos_as_xyz
  1  'x, y, z'
loop_
 _atom_site_type_symbol
 _atom_site_label
 _atom_site_symmetry_multiplicity
 _atom_site_fract_x
 _atom_site_fract_y
 _atom_site_fract_z
 _atom_site_occupancy
  Ca  Ca0  1  0.79026600  0.58064400  0.75004600  1
  Ca  Ca1  1  0.20969200  0.41927900  0.24996700  1
  V  V0  1  0.27775100  0.55560100  0.57391800  1
  V  V1  1  0.72218900  0.44435400  0.42607700  1
  V  V2  1  0.72218100  0.44417900  0.07376800  1
  V  V3  1  0.27779300  0.55572000  0.92607400  1
  V  V4  1  0.00000200  0.00004300  0.50003800  1
  V  V5  1  0.00007800  0.00003800  0.99993500  1
  V  V6  1  0.45819600  0.91639200  0.15091300  1
  V  V7  1  0.54183600  0.08368600  0.84910800  1
  V  V8  1  0.54185300  0.08368400  0.65098000  1
  V  V9  1  0.45813400  0.91629600  0.34900000  1
  O  O0  1  0.46100400  0.92205400  0.75003300  1
  O  O1  1  0.53896600  0.07789100  0.25003800  1
  O  O2  1  0.63348700  0.26694800  0.95995400  1
  O  O3  1  0.36657400  0.73311800  0.04007200  1
  O  O4  1  0.36654400  0.73311200  0.45993500  1
  O  O5  1  0.63346800  0.26695700  0.54006300  1
  O  O6  1  0.16945800  0.33897600  0.82763600  1
  O  O7  1  0.83052900  0.66107400  0.17238500  1
  O  O8  1  0.83049500  0.66097300  0.32757100  1
  O  O9  1  0.16949700  0.33895500  0.67241800  1
  O  O10  1  0.91627600  0.83256300  0.88877700  1
  O  O11  1  0.08377200  0.16748100  0.11126500  1
  O  O12  1  0.08367100  0.16733800  0.38876300  1
  O  O13  1  0.91629400  0.83264300  0.61126800  1
loop_
_geom_bond_atom_site_label_1
_geom_bond_atom_site_label_2
_geom_bond_distance
_geom_bond_site_symmetry_2
Ca0 O0 2.318326 1_555
Ca0 O0 2.318384 1_655
Ca0 O6 2.427387 1_555
Ca0 O6 2.427559 1_655
Ca0 O9 2.427956 1_555
Ca0 O9 2.428302 1_655
Ca0 O10 2.817398 1_555
Ca0 O13 2.818014 1_555
Ca1 O1 2.318247 1_555
Ca1 O1 2.318301 1_455
Ca1 O7 2.427552 1_555
Ca1 O8 2.427780 1_555
Ca1 O7 2.427863 1_455
Ca1 O8 2.427998 1_455
Ca1 O11 2.816655 1_555
Ca1 O12 2.818175 1_555
O0 V8 1.972010 1_565
O0 V7 1.972592 1_565
O1 V9 1.970433 1_545
O1 V6 1.973145 1_545
O2 V5 2.181553 1_555
O2 V5 2.181834 1_655
O2 V7 2.211990 1_555
O2 V3 2.217282 1_655
O2 V3 2.217712 1_555
O2 V2 2.248946 1_556
O3 V5 2.182606 1_564
O3 V5 2.182728 1_664
O3 V6 2.211932 1_555
O3 V2 2.216914 1_455
O3 V2 2.217329 1_555
O3 V3 2.252345 1_554
O4 V4 2.182578 1_665
O4 V4 2.182671 1_565
O4 V9 2.213054 1_555
O4 V1 2.217371 1_455
O4 V1 2.217542 1_555
O4 V0 2.252082 1_555
O5 V4 2.182091 1_555
O5 V4 2.182110 1_655
O5 V8 2.212943 1_555
O5 V0 2.216949 1_655
O5 V0 2.217186 1_555
O5 V1 2.251906 1_555
O6 V7 2.057217 1_455
O6 V7 2.057399 1_555
O6 V3 2.091628 1_555
O7 V6 2.057378 1_655
O7 V6 2.057413 1_555
O7 V2 2.094797 1_555
O8 V9 2.057248 1_655
O8 V9 2.057419 1_555
O8 V1 2.092087 1_555
O9 V8 2.057190 1_455
O9 V8 2.057214 1_555
O9 V0 2.092065 1_555
O10 V7 2.132023 1_665
O10 V7 2.132103 1_565
O10 V5 2.185461 1_665
O10 V3 2.197055 1_655
O10 V3 2.197252 1_555
O11 V6 2.131798 1_545
O11 V6 2.131869 1_445
O11 V5 2.188282 1_554
O11 V2 2.197720 1_455
O11 V2 2.197910 1_555
O12 V9 2.132515 1_545
O12 V9 2.132531 1_445
O12 V4 2.186851 1_555
O12 V1 2.197913 1_555
O12 V1 2.197931 1_455
O13 V8 2.132147 1_565
O13 V8 2.132266 1_665
O13 V4 2.186299 1_665
O13 V0 2.198188 1_655
O13 V0 2.198223 1_555
