# generated using pymatgen
data_SiH12(NF)4
_symmetry_space_group_name_H-M   'P 1'
_cell_length_a   5.46045960
_cell_length_b   5.46045960
_cell_length_c   13.67997300
_cell_angle_alpha   90.00000000
_cell_angle_beta   90.00000000
_cell_angle_gamma   97.01468179
_symmetry_Int_Tables_number   1
_chemical_formula_structural   SiH12(NF)4
_chemical_formula_sum   'Si2 H24 N8 F8'
_cell_volume   404.83743869
_cell_formula_units_Z   2
loop_
 _symmetry_equiv_pos_site_id
 _symmetry_equiv_pos_as_xyz
  1  'x, y, z'
loop_
 _atom_site_type_symbol
 _atom_site_label
 _atom_site_symmetry_multiplicity
 _atom_site_fract_x
 _atom_site_fract_y
 _atom_site_fract_z
 _atom_site_occupancy
  Si  Si0  1  0.50000000  0.50000000  0.50000000  1
  Si  Si1  1  0.00000000  0.00000000  0.00000000  1
  H  H0  1  0.64376800  0.12737500  0.42866200  1
  H  H1  1  0.12737500  0.64376800  0.57133800  1
  H  H2  1  0.62737500  0.14376800  0.92866200  1
  H  H3  1  0.14376800  0.62737500  0.07133800  1
  H  H4  1  0.35623200  0.87262500  0.57133800  1
  H  H5  1  0.87262500  0.35623200  0.42866200  1
  H  H6  1  0.37262500  0.85623200  0.07133800  1
  H  H7  1  0.85623200  0.37262500  0.92866200  1
  H  H8  1  0.65342300  0.34657700  0.34132800  1
  H  H9  1  0.34657700  0.65342300  0.65867200  1
  H  H10  1  0.84657700  0.15342300  0.84132800  1
  H  H11  1  0.15342300  0.84657700  0.15867200  1
  H  H12  1  0.72010700  0.27989300  0.16905700  1
  H  H13  1  0.27989300  0.72010700  0.83094300  1
  H  H14  1  0.77989300  0.22010700  0.66905700  1
  H  H15  1  0.22010700  0.77989300  0.33094300  1
  H  H16  1  0.66166400  0.56335000  0.18449300  1
  H  H17  1  0.56335000  0.66166400  0.81550700  1
  H  H18  1  0.06335000  0.16166400  0.68449300  1
  H  H19  1  0.16166400  0.06335000  0.31550700  1
  H  H20  1  0.33833600  0.43665000  0.81550700  1
  H  H21  1  0.43665000  0.33833600  0.18449300  1
  H  H22  1  0.93665000  0.83833600  0.31550700  1
  H  H23  1  0.83833600  0.93665000  0.68449300  1
  N  N0  1  0.68564400  0.31435600  0.41656800  1
  N  N1  1  0.31435600  0.68564400  0.58343200  1
  N  N2  1  0.81435600  0.18564400  0.91656800  1
  N  N3  1  0.18564400  0.81435600  0.08343200  1
  N  N4  1  0.61324100  0.38675900  0.20788000  1
  N  N5  1  0.38675900  0.61324100  0.79212000  1
  N  N6  1  0.88675900  0.11324100  0.70788000  1
  N  N7  1  0.11324100  0.88675900  0.29212000  1
  F  F0  1  0.41991900  0.24368600  0.57202000  1
  F  F1  1  0.24368600  0.41991900  0.42798000  1
  F  F2  1  0.74368600  0.91991900  0.07201900  1
  F  F3  1  0.91991900  0.74368600  0.92798000  1
  F  F4  1  0.58008100  0.75631400  0.42798000  1
  F  F5  1  0.75631400  0.58008100  0.57202000  1
  F  F6  1  0.25631400  0.08008100  0.92798000  1
  F  F7  1  0.08008100  0.25631400  0.07201900  1
loop_
_geom_bond_atom_site_label_1
_geom_bond_atom_site_label_2
_geom_bond_distance
_geom_bond_site_symmetry_2
H0 N0 1.032028 1_555
H1 N1 1.032028 1_555
H2 N2 1.032028 1_555
H3 N3 1.032028 1_555
H4 N1 1.032028 1_555
H5 N0 1.032028 1_555
H6 N3 1.032028 1_555
H7 N2 1.032028 1_555
H8 N0 1.062493 1_555
H9 N1 1.062493 1_555
H10 N2 1.062493 1_555
H11 N3 1.062493 1_555
H12 N4 1.022872 1_555
H13 N5 1.022872 1_555
H14 N6 1.022872 1_555
H15 N7 1.022872 1_555
H16 N4 1.019711 1_555
H17 N5 1.019711 1_555
H18 N6 1.019711 1_455
H19 N7 1.019711 1_545
H20 N5 1.019711 1_555
H21 N4 1.019711 1_555
H22 N7 1.019711 1_655
H23 N6 1.019711 1_565
N0 Si0 1.899695 1_555
N1 Si0 1.899695 1_555
N2 Si1 1.899695 1_656
N3 Si1 1.899695 1_565
F0 Si0 1.723737 1_555
F1 Si0 1.723737 1_555
F2 Si1 1.723730 1_665
F3 Si1 1.723737 1_666
F4 Si0 1.723737 1_555
F5 Si0 1.723737 1_555
F6 Si1 1.723737 1_556
F7 Si1 1.723730 1_555
