# generated using pymatgen
data_CsBa2SnS4Cl
_symmetry_space_group_name_H-M   'P 1'
_cell_length_a   8.97425700
_cell_length_b   10.12217600
_cell_length_c   12.78173537
_cell_angle_alpha   89.12268382
_cell_angle_beta   90.00000000
_cell_angle_gamma   90.00000000
_symmetry_Int_Tables_number   1
_chemical_formula_structural   CsBa2SnS4Cl
_chemical_formula_sum   'Cs4 Ba8 Sn4 S16 Cl4'
_cell_volume   1160.94406161
_cell_formula_units_Z   4
loop_
 _symmetry_equiv_pos_site_id
 _symmetry_equiv_pos_as_xyz
  1  'x, y, z'
loop_
 _atom_site_type_symbol
 _atom_site_label
 _atom_site_symmetry_multiplicity
 _atom_site_fract_x
 _atom_site_fract_y
 _atom_site_fract_z
 _atom_site_occupancy
  Cs  Cs0  1  0.08457700  0.52192300  0.17169400  1
  Cs  Cs1  1  0.58457700  0.47807700  0.32830600  1
  Cs  Cs2  1  0.91542300  0.47807700  0.82830600  1
  Cs  Cs3  1  0.41542300  0.52192300  0.67169400  1
  Ba  Ba0  1  0.09263600  0.97959200  0.17774300  1
  Ba  Ba1  1  0.59263600  0.02040800  0.32225700  1
  Ba  Ba2  1  0.90736400  0.02040800  0.82225700  1
  Ba  Ba3  1  0.40736400  0.97959200  0.67774300  1
  Ba  Ba4  1  0.10137000  0.25184500  0.47716300  1
  Ba  Ba5  1  0.60137000  0.74815500  0.02283700  1
  Ba  Ba6  1  0.89863000  0.74815500  0.52283700  1
  Ba  Ba7  1  0.39863000  0.25184500  0.97716300  1
  Sn  Sn0  1  0.81245900  0.24247600  0.09991400  1
  Sn  Sn1  1  0.31245900  0.75752400  0.40008600  1
  Sn  Sn2  1  0.18754100  0.75752400  0.90008600  1
  Sn  Sn3  1  0.68754100  0.24247600  0.59991400  1
  S  S0  1  0.17467000  0.56101100  0.44088100  1
  S  S1  1  0.67467000  0.43898900  0.05911900  1
  S  S2  1  0.82533000  0.43898900  0.55911900  1
  S  S3  1  0.32533000  0.56101100  0.94088100  1
  S  S4  1  0.87134300  0.21782800  0.28358500  1
  S  S5  1  0.37134300  0.78217200  0.21641500  1
  S  S6  1  0.12865700  0.78217200  0.71641500  1
  S  S7  1  0.62865700  0.21782800  0.78358500  1
  S  S8  1  0.15837000  0.94573800  0.43744100  1
  S  S9  1  0.65837000  0.05426200  0.06255900  1
  S  S10  1  0.84163000  0.05426200  0.56255900  1
  S  S11  1  0.34163000  0.94573800  0.93744100  1
  S  S12  1  0.03746900  0.21689500  0.00004000  1
  S  S13  1  0.53746900  0.78310500  0.49996000  1
  S  S14  1  0.96253100  0.78310500  0.99996000  1
  S  S15  1  0.46253100  0.21689500  0.50004000  1
  Cl  Cl0  1  0.82840400  0.78450800  0.27466200  1
  Cl  Cl1  1  0.32840400  0.21549200  0.22533800  1
  Cl  Cl2  1  0.17159600  0.21549200  0.72533800  1
  Cl  Cl3  1  0.67159600  0.78450800  0.77466200  1
loop_
_geom_bond_atom_site_label_1
_geom_bond_atom_site_label_2
_geom_bond_distance
_geom_bond_site_symmetry_2
Cs0 S0 3.562329 1_555
Cs0 S14 3.581830 1_454
Cs0 S3 3.673217 1_554
Cs0 S5 3.732999 1_555
Cs0 S12 3.838348 1_555
Cs0 Sn0 3.858227 1_455
Cs0 S4 3.879072 1_455
Cs0 S1 4.042812 1_455
Cs1 S1 3.562329 1_555
Cs1 S15 3.581830 1_555
Cs1 S2 3.673217 1_555
Cs1 S4 3.732999 1_555
Cs1 S13 3.838348 1_555
Cs1 Sn1 3.858227 1_555
Cs1 S5 3.879072 1_555
Cs1 S0 4.042812 1_555
Cs2 S2 3.562329 1_555
Cs2 S12 3.581830 1_656
Cs2 S1 3.673217 1_556
Cs2 S7 3.732999 1_555
Cs2 S14 3.838348 1_555
Cs2 Sn2 3.858227 1_655
Cs2 S6 3.879072 1_655
Cs2 S3 4.042812 1_655
Cs3 S3 3.562329 1_555
Cs3 S13 3.581830 1_555
Cs3 S0 3.673217 1_555
Cs3 S6 3.732999 1_555
Cs3 S15 3.838348 1_555
Cs3 Sn3 3.858227 1_555
Cs3 S7 3.879072 1_555
Cs3 S2 4.042812 1_555
Ba0 S5 3.234703 1_555
Ba0 Cl1 3.254697 1_565
Ba0 S14 3.258987 1_454
Ba0 Cl0 3.313915 1_455
Ba0 S12 3.317648 1_565
Ba0 S8 3.383630 1_555
Ba0 S4 3.418950 1_465
Ba0 S11 3.817955 1_554
Ba1 S4 3.234703 1_555
Ba1 Cl0 3.254697 1_545
Ba1 S15 3.258987 1_555
Ba1 Cl1 3.313915 1_555
Ba1 S13 3.317648 1_545
Ba1 S9 3.383630 1_555
Ba1 S5 3.418950 1_545
Ba1 S10 3.817955 1_555
Ba2 S7 3.234703 1_555
Ba2 Cl3 3.254697 1_545
Ba2 S12 3.258987 1_656
Ba2 Cl2 3.313915 1_655
Ba2 S14 3.317648 1_545
Ba2 S10 3.383630 1_555
Ba2 S6 3.418950 1_645
Ba2 S9 3.817955 1_556
Ba3 S6 3.234703 1_555
Ba3 Cl2 3.254697 1_565
Ba3 S13 3.258987 1_555
Ba3 Cl3 3.313915 1_555
Ba3 S15 3.317648 1_565
Ba3 S11 3.383630 1_555
Ba3 S7 3.418950 1_565
Ba3 S8 3.817955 1_555
Ba4 S8 3.188750 1_545
Ba4 S0 3.224389 1_555
Ba4 S4 3.244695 1_455
Ba4 S10 3.249286 1_455
Ba4 Cl2 3.249478 1_555
Ba4 S15 3.273003 1_555
Ba4 S2 3.298982 1_455
Ba4 Cl1 3.831885 1_555
Ba5 S9 3.188750 1_565
Ba5 S1 3.224389 1_555
Ba5 S5 3.244695 1_555
Ba5 S11 3.249286 1_554
Ba5 Cl3 3.249478 1_554
Ba5 S14 3.273003 1_554
Ba5 S3 3.298982 1_554
Ba5 Cl0 3.831885 1_555
Ba6 S10 3.188750 1_565
Ba6 S2 3.224389 1_555
Ba6 S6 3.244695 1_655
Ba6 S8 3.249286 1_655
Ba6 Cl0 3.249478 1_555
Ba6 S13 3.273003 1_555
Ba6 S0 3.298982 1_655
Ba6 Cl3 3.831885 1_555
Ba7 S11 3.188750 1_545
Ba7 S3 3.224389 1_555
Ba7 S7 3.244695 1_555
Ba7 S9 3.249286 1_556
Ba7 Cl1 3.249478 1_556
Ba7 S12 3.273003 1_556
Ba7 S1 3.298982 1_556
Ba7 Cl2 3.831885 1_555
S0 Sn1 2.392879 1_555
S1 Sn0 2.392879 1_555
S2 Sn3 2.392879 1_555
S3 Sn2 2.392879 1_555
S4 Sn0 2.415563 1_555
S5 Sn1 2.415563 1_555
S6 Sn2 2.415563 1_555
S7 Sn3 2.415563 1_555
S8 Sn1 2.407820 1_555
S9 Sn0 2.407820 1_555
S10 Sn3 2.407820 1_555
S11 Sn2 2.407820 1_555
S12 Sn0 2.405067 1_455
S13 Sn1 2.405067 1_555
S14 Sn2 2.405067 1_655
S15 Sn3 2.405067 1_555
Cl0 Cs0 3.766842 1_655
Cl0 Cs1 3.848886 1_555
Cl1 Cs1 3.766842 1_555
Cl1 Cs0 3.848886 1_555
Cl2 Cs2 3.766842 1_455
Cl2 Cs3 3.848886 1_555
Cl3 Cs3 3.766842 1_555
Cl3 Cs2 3.848886 1_555
