# generated using pymatgen
data_SnBi
_symmetry_space_group_name_H-M   'P 1'
_cell_length_a   6.77162017
_cell_length_b   6.77162017
_cell_length_c   11.10576800
_cell_angle_alpha   90.00000000
_cell_angle_beta   90.00000000
_cell_angle_gamma   108.80594473
_symmetry_Int_Tables_number   1
_chemical_formula_structural   SnBi
_chemical_formula_sum   'Sn8 Bi8'
_cell_volume   482.06714511
_cell_formula_units_Z   8
loop_
 _symmetry_equiv_pos_site_id
 _symmetry_equiv_pos_as_xyz
  1  'x, y, z'
loop_
 _atom_site_type_symbol
 _atom_site_label
 _atom_site_symmetry_multiplicity
 _atom_site_fract_x
 _atom_site_fract_y
 _atom_site_fract_z
 _atom_site_occupancy
  Sn  Sn0_0  1  0.00000000  0.00000000  0.00000000  1
  Sn  Sn0_1  1  0.00000000  0.00000000  0.50000000  1
  Sn  Sn0_2  1  0.00000000  0.50000000  0.00000000  1
  Sn  Sn0_3  1  0.00000000  0.50000000  0.50000000  1
  Sn  Sn0_4  1  0.50000000  0.00000000  0.00000000  1
  Sn  Sn0_5  1  0.50000000  0.00000000  0.50000000  1
  Sn  Sn0_6  1  0.50000000  0.50000000  0.00000000  1
  Sn  Sn0_7  1  0.50000000  0.50000000  0.50000000  1
  Bi  Bi0_0  1  0.25000000  0.25000000  0.25000000  1
  Bi  Bi0_1  1  0.25000000  0.25000000  0.75000000  1
  Bi  Bi0_2  1  0.25000000  0.75000000  0.25000000  1
  Bi  Bi0_3  1  0.25000000  0.75000000  0.75000000  1
  Bi  Bi0_4  1  0.75000000  0.25000000  0.25000000  1
  Bi  Bi0_5  1  0.75000000  0.25000000  0.75000000  1
  Bi  Bi0_6  1  0.75000000  0.75000000  0.25000000  1
  Bi  Bi0_7  1  0.75000000  0.75000000  0.75000000  1
loop_
_geom_bond_atom_site_label_1
_geom_bond_atom_site_label_2
_geom_bond_distance
_geom_bond_site_symmetry_2
Sn0_0 Sn0_2 3.385810 1_555
Sn0_0 Sn0_2 3.385810 1_545
Sn0_0 Sn0_4 3.385810 1_455
Sn0_0 Sn0_4 3.385810 1_555
Sn0_1 Sn0_5 3.385810 1_555
Sn0_1 Sn0_5 3.385810 1_455
Sn0_1 Sn0_3 3.385810 1_545
Sn0_1 Sn0_3 3.385810 1_555
Sn0_2 Sn0_6 3.385810 1_455
Sn0_2 Sn0_6 3.385810 1_555
Sn0_3 Sn0_7 3.385810 1_455
Sn0_3 Sn0_7 3.385810 1_555
Sn0_4 Sn0_6 3.385810 1_555
Sn0_4 Sn0_6 3.385810 1_545
Sn0_5 Sn0_7 3.385810 1_545
Sn0_5 Sn0_7 3.385810 1_555
Bi0_0 Bi0_2 3.385810 1_545
Bi0_0 Bi0_2 3.385810 1_555
Bi0_0 Bi0_4 3.385810 1_455
Bi0_0 Bi0_4 3.385810 1_555
Bi0_0 Sn0_6 3.404812 1_555
Bi0_0 Sn0_0 3.404812 1_555
Bi0_0 Sn0_1 3.404812 1_555
Bi0_0 Sn0_7 3.404812 1_555
Bi0_1 Bi0_5 3.385810 1_455
Bi0_1 Bi0_3 3.385810 1_545
Bi0_1 Bi0_3 3.385810 1_555
Bi0_1 Bi0_5 3.385810 1_555
Bi0_1 Sn0_6 3.404812 1_556
Bi0_1 Sn0_0 3.404812 1_556
Bi0_1 Sn0_1 3.404812 1_555
Bi0_1 Sn0_7 3.404812 1_555
Bi0_2 Bi0_6 3.385810 1_455
Bi0_2 Bi0_6 3.385810 1_555
Bi0_2 Sn0_5 3.404812 1_565
Bi0_2 Sn0_3 3.404812 1_555
Bi0_2 Sn0_4 3.404812 1_565
Bi0_2 Sn0_2 3.404812 1_555
Bi0_3 Bi0_7 3.385810 1_455
Bi0_3 Bi0_7 3.385810 1_555
Bi0_3 Sn0_5 3.404812 1_565
Bi0_3 Sn0_3 3.404812 1_555
Bi0_3 Sn0_2 3.404812 1_556
Bi0_3 Sn0_4 3.404812 1_566
Bi0_4 Bi0_6 3.385810 1_545
Bi0_4 Bi0_6 3.385810 1_555
Bi0_4 Sn0_2 3.404812 1_655
Bi0_4 Sn0_3 3.404812 1_655
Bi0_4 Sn0_4 3.404812 1_555
Bi0_4 Sn0_5 3.404812 1_555
Bi0_5 Bi0_7 3.385810 1_545
Bi0_5 Bi0_7 3.385810 1_555
Bi0_5 Sn0_3 3.404812 1_655
Bi0_5 Sn0_4 3.404812 1_556
Bi0_5 Sn0_2 3.404812 1_656
Bi0_5 Sn0_5 3.404812 1_555
Bi0_6 Sn0_0 3.404812 1_665
Bi0_6 Sn0_1 3.404812 1_665
Bi0_6 Sn0_6 3.404812 1_555
Bi0_6 Sn0_7 3.404812 1_555
Bi0_7 Sn0_1 3.404812 1_665
Bi0_7 Sn0_0 3.404812 1_666
Bi0_7 Sn0_6 3.404812 1_556
Bi0_7 Sn0_7 3.404812 1_555
