# generated using pymatgen
data_Sr2Cu(SeO3)3
_symmetry_space_group_name_H-M   'P 1'
_cell_length_a   7.32926900
_cell_length_b   7.89418920
_cell_length_c   8.77806827
_cell_angle_alpha   102.26333304
_cell_angle_beta   105.34951555
_cell_angle_gamma   96.66863653
_symmetry_Int_Tables_number   1
_chemical_formula_structural   Sr2Cu(SeO3)3
_chemical_formula_sum   'Sr4 Cu2 Se6 O18'
_cell_volume   470.52126120
_cell_formula_units_Z   2
loop_
 _symmetry_equiv_pos_site_id
 _symmetry_equiv_pos_as_xyz
  1  'x, y, z'
loop_
 _atom_site_type_symbol
 _atom_site_label
 _atom_site_symmetry_multiplicity
 _atom_site_fract_x
 _atom_site_fract_y
 _atom_site_fract_z
 _atom_site_occupancy
  Sr  Sr0  1  0.62437200  0.48444700  0.80737600  1
  Sr  Sr1  1  0.37562800  0.51555300  0.19262400  1
  Sr  Sr2  1  0.75886300  0.90989500  0.60921000  1
  Sr  Sr3  1  0.24113700  0.09010500  0.39079000  1
  Cu  Cu0  1  0.08561600  0.34106700  0.74757800  1
  Cu  Cu1  1  0.91438400  0.65893300  0.25242200  1
  Se  Se0  1  0.89992400  0.20210200  0.03001800  1
  Se  Se1  1  0.22679800  0.63129300  0.58675600  1
  Se  Se2  1  0.36516700  0.08175300  0.79536000  1
  Se  Se3  1  0.63483300  0.91824700  0.20464000  1
  Se  Se4  1  0.77320200  0.36870700  0.41324400  1
  Se  Se5  1  0.10007600  0.79789800  0.96998200  1
  O  O0  1  0.17100300  0.62296800  0.37943900  1
  O  O1  1  0.82899700  0.37703200  0.62056100  1
  O  O2  1  0.22330400  0.40655800  0.59019400  1
  O  O3  1  0.77669600  0.59344200  0.40980600  1
  O  O4  1  0.47092800  0.70144400  0.64857000  1
  O  O5  1  0.52907200  0.29855600  0.35143000  1
  O  O6  1  0.05754200  0.81846700  0.15867800  1
  O  O7  1  0.94245800  0.18153300  0.84132200  1
  O  O8  1  0.18450400  0.60268600  0.94230400  1
  O  O9  1  0.81549600  0.39731400  0.05769600  1
  O  O10  1  0.87467300  0.75166100  0.83341900  1
  O  O11  1  0.12532700  0.24833900  0.16658100  1
  O  O12  1  0.48459700  0.87070100  0.31800600  1
  O  O13  1  0.51540300  0.12929900  0.68199400  1
  O  O14  1  0.84741100  0.99823100  0.35816800  1
  O  O15  1  0.15258900  0.00176900  0.64183200  1
  O  O16  1  0.66155600  0.70173100  0.11911300  1
  O  O17  1  0.33844400  0.29826900  0.88088700  1
loop_
_geom_bond_atom_site_label_1
_geom_bond_atom_site_label_2
_geom_bond_distance
_geom_bond_site_symmetry_2
Cu0 O7 1.988612 1_455
Cu0 O1 2.002389 1_455
Cu0 O17 2.020555 1_555
Cu0 O2 2.028456 1_555
Cu0 O8 2.282371 1_555
Cu1 O6 1.988612 1_655
Cu1 O0 2.002389 1_655
Cu1 O16 2.020555 1_555
Cu1 O3 2.028456 1_555
Cu1 O9 2.282371 1_555
O0 Se1 1.741361 1_555
O0 Sr1 2.581503 1_555
O1 Se4 1.741361 1_555
O1 Sr0 2.581503 1_555
O2 Se1 1.778089 1_555
O2 Sr3 2.767853 1_555
O2 Sr0 2.961222 1_555
O3 Se4 1.778089 1_555
O3 Sr2 2.767853 1_555
O3 Sr1 2.961222 1_555
O4 Se1 1.711984 1_555
O4 Sr0 2.602761 1_555
O4 Sr2 2.664919 1_555
O5 Se4 1.711984 1_555
O5 Sr1 2.602761 1_555
O5 Sr3 2.664919 1_555
O6 Se5 1.742997 1_554
O6 Sr3 2.565669 1_565
O7 Se0 1.742997 1_556
O7 Sr2 2.565669 1_545
O8 Se5 1.720104 1_555
O8 Sr1 2.549494 1_556
O9 Se0 1.720104 1_555
O9 Sr0 2.549494 1_554
O10 Se5 1.710296 1_655
O10 Sr0 2.557694 1_555
O10 Sr2 2.561348 1_555
O11 Se0 1.710296 1_455
O11 Sr1 2.557694 1_555
O11 Sr3 2.561348 1_555
O12 Se3 1.728129 1_555
O12 Sr1 2.722714 1_555
O12 Sr3 2.728254 1_565
O12 Sr2 2.733118 1_555
O13 Se2 1.728129 1_555
O13 Sr0 2.722714 1_555
O13 Sr2 2.728254 1_545
O13 Sr3 2.733118 1_555
O14 Se3 1.714879 1_555
O14 Sr2 2.658656 1_555
O14 Sr3 2.814893 1_665
O15 Se2 1.714879 1_555
O15 Sr3 2.658656 1_555
O15 Sr2 2.814893 1_445
O16 Se3 1.770284 1_555
O16 Sr1 2.715080 1_555
O16 Sr0 2.829710 1_554
O17 Se2 1.770284 1_555
O17 Sr0 2.715080 1_555
O17 Sr1 2.829710 1_556
