# generated using pymatgen
data_KPr(SeO4)2
_symmetry_space_group_name_H-M   'P 1'
_cell_length_a   7.50014600
_cell_length_b   9.02257500
_cell_length_c   11.25197558
_cell_angle_alpha   88.32383027
_cell_angle_beta   90.00000000
_cell_angle_gamma   90.00000000
_symmetry_Int_Tables_number   1
_chemical_formula_structural   KPr(SeO4)2
_chemical_formula_sum   'K4 Pr4 Se8 O32'
_cell_volume   761.10246829
_cell_formula_units_Z   4
loop_
 _symmetry_equiv_pos_site_id
 _symmetry_equiv_pos_as_xyz
  1  'x, y, z'
loop_
 _atom_site_type_symbol
 _atom_site_label
 _atom_site_symmetry_multiplicity
 _atom_site_fract_x
 _atom_site_fract_y
 _atom_site_fract_z
 _atom_site_occupancy
  K  K0  1  0.85381800  0.43743000  0.34303300  1
  K  K1  1  0.64618200  0.43743000  0.84303300  1
  K  K2  1  0.14618200  0.56257000  0.65696700  1
  K  K3  1  0.35381800  0.56257000  0.15696700  1
  Pr  Pr0  1  0.66594500  0.94338900  0.34835000  1
  Pr  Pr1  1  0.16594500  0.05661100  0.15165000  1
  Pr  Pr2  1  0.33405500  0.05661100  0.65165000  1
  Pr  Pr3  1  0.83405500  0.94338900  0.84835000  1
  Se  Se0  1  0.16440700  0.81293100  0.39214900  1
  Se  Se1  1  0.84186200  0.72209200  0.08992500  1
  Se  Se2  1  0.33559300  0.81293100  0.89214900  1
  Se  Se3  1  0.83559300  0.18706900  0.60785100  1
  Se  Se4  1  0.15813800  0.27790800  0.91007600  1
  Se  Se5  1  0.65813800  0.72209200  0.58992400  1
  Se  Se6  1  0.34186200  0.27790800  0.41007500  1
  Se  Se7  1  0.66440700  0.18706900  0.10785100  1
  O  O0  1  0.47939600  0.40806500  0.36298000  1
  O  O1  1  0.97939600  0.59193500  0.13702000  1
  O  O2  1  0.52060400  0.59193500  0.63702000  1
  O  O3  1  0.02060400  0.40806500  0.86298000  1
  O  O4  1  0.75205800  0.69760900  0.45617600  1
  O  O5  1  0.25205800  0.30239100  0.04382400  1
  O  O6  1  0.24794200  0.30239100  0.54382400  1
  O  O7  1  0.74794200  0.69760900  0.95617600  1
  O  O8  1  0.68227000  0.75393900  0.19098300  1
  O  O9  1  0.18227000  0.24606100  0.30901700  1
  O  O10  1  0.31773000  0.24606100  0.80901700  1
  O  O11  1  0.81773000  0.75393900  0.69098300  1
  O  O12  1  0.45083500  0.11643300  0.44454000  1
  O  O13  1  0.95083500  0.88356700  0.05546000  1
  O  O14  1  0.54916500  0.88356700  0.55546000  1
  O  O15  1  0.04916500  0.11643300  0.94454000  1
  O  O16  1  0.66878100  0.12058300  0.97137300  1
  O  O17  1  0.16878100  0.87941700  0.52862700  1
  O  O18  1  0.33121900  0.87941700  0.02862700  1
  O  O19  1  0.83121900  0.12058300  0.47137300  1
  O  O20  1  0.85219000  0.36849800  0.60196200  1
  O  O21  1  0.35219000  0.63150200  0.89803800  1
  O  O22  1  0.14781000  0.63150200  0.39803800  1
  O  O23  1  0.64781000  0.36849800  0.10196200  1
  O  O24  1  0.65967700  0.13428800  0.69530800  1
  O  O25  1  0.15967700  0.86571200  0.80469200  1
  O  O26  1  0.34032300  0.86571200  0.30469200  1
  O  O27  1  0.84032300  0.13428800  0.19530800  1
  O  O28  1  0.00021400  0.09928500  0.68691200  1
  O  O29  1  0.50021400  0.90071500  0.81308800  1
  O  O30  1  0.99978600  0.90071500  0.31308800  1
  O  O31  1  0.49978600  0.09928500  0.18691200  1
loop_
_geom_bond_atom_site_label_1
_geom_bond_atom_site_label_2
_geom_bond_distance
_geom_bond_site_symmetry_2
K0 O4 2.808692 1_555
K0 O0 2.828991 1_555
K0 O1 2.831032 1_555
K0 O22 2.893874 1_655
K0 O20 2.961288 1_555
K0 O9 3.038910 1_655
K0 O19 3.169413 1_555
K0 O23 3.198531 1_555
K0 O27 3.243455 1_555
K1 O7 2.808692 1_555
K1 O3 2.828991 1_655
K1 O2 2.831032 1_555
K1 O21 2.893874 1_555
K1 O23 2.961288 1_556
K1 O10 3.038910 1_555
K1 O16 3.169413 1_555
K1 O20 3.198531 1_555
K1 O24 3.243455 1_555
K2 O6 2.808692 1_555
K2 O2 2.828991 1_555
K2 O3 2.831032 1_555
K2 O20 2.893874 1_455
K2 O22 2.961288 1_555
K2 O11 3.038910 1_455
K2 O17 3.169413 1_555
K2 O21 3.198531 1_555
K2 O25 3.243455 1_555
K3 O5 2.808692 1_555
K3 O1 2.828991 1_455
K3 O0 2.831032 1_555
K3 O23 2.893874 1_555
K3 O21 2.961288 1_554
K3 O8 3.038910 1_555
K3 O18 3.169413 1_555
K3 O22 3.198531 1_555
K3 O26 3.243455 1_555
O0 Se6 1.639374 1_555
O1 Se1 1.639374 1_555
O2 Se5 1.639377 1_555
O3 Se4 1.639377 1_555
O4 Se5 1.682039 1_555
O4 Pr0 2.578631 1_555
O5 Se4 1.682039 1_554
O5 Pr1 2.578631 1_555
O6 Se6 1.682049 1_555
O6 Pr2 2.578631 1_555
O7 Se1 1.682049 1_556
O7 Pr3 2.578631 1_555
O8 Se1 1.681488 1_555
O8 Pr0 2.499839 1_555
O9 Se6 1.681488 1_555
O9 Pr1 2.499839 1_555
O10 Se4 1.681496 1_555
O10 Pr2 2.499839 1_555
O11 Se5 1.681496 1_555
O11 Pr3 2.499839 1_555
O12 Se6 1.705272 1_555
O12 Pr0 2.512145 1_545
O12 Pr2 2.532911 1_555
O13 Se1 1.705272 1_555
O13 Pr1 2.512145 1_665
O13 Pr3 2.532911 1_554
O14 Se5 1.705270 1_555
O14 Pr2 2.512145 1_565
O14 Pr0 2.532911 1_555
O15 Se4 1.705270 1_555
O15 Pr3 2.512145 1_445
O15 Pr1 2.532911 1_556
O16 Se7 1.665241 1_556
O16 Pr3 2.477532 1_545
O17 Se0 1.665241 1_555
O17 Pr2 2.477532 1_565
O18 Se2 1.665241 1_554
O18 Pr1 2.477532 1_565
O19 Se3 1.665241 1_555
O19 Pr0 2.477532 1_545
O20 Se3 1.641087 1_555
O21 Se2 1.641087 1_555
O22 Se0 1.641087 1_555
O23 Se7 1.641087 1_555
O24 Se3 1.705449 1_555
O24 Pr2 2.591726 1_555
O24 Pr3 2.732950 1_545
O25 Se2 1.705449 1_555
O25 Pr3 2.591726 1_455
O25 Pr2 2.732950 1_565
O26 Se0 1.705449 1_555
O26 Pr0 2.591726 1_555
O26 Pr1 2.732950 1_565
O27 Se7 1.705449 1_555
O27 Pr1 2.591726 1_655
O27 Pr0 2.732950 1_545
O28 Se3 1.703502 1_455
O28 Pr2 2.565912 1_555
O28 Pr3 2.584902 1_445
O29 Se2 1.703502 1_555
O29 Pr3 2.565912 1_555
O29 Pr2 2.584902 1_565
O30 Se0 1.703502 1_655
O30 Pr0 2.565912 1_555
O30 Pr1 2.584902 1_665
O31 Se7 1.703502 1_555
O31 Pr1 2.565912 1_555
O31 Pr0 2.584902 1_545
