# generated using pymatgen
data_Ba3Cr2O8
_symmetry_space_group_name_H-M   'P 1'
_cell_length_a   5.84180042
_cell_length_b   7.96891981
_cell_length_c   9.90078622
_cell_angle_alpha   68.17368314
_cell_angle_beta   90.02679834
_cell_angle_gamma   90.06606962
_symmetry_Int_Tables_number   1
_chemical_formula_structural   Ba3Cr2O8
_chemical_formula_sum   'Ba6 Cr4 O16'
_cell_volume   427.86918124
_cell_formula_units_Z   2
loop_
 _symmetry_equiv_pos_site_id
 _symmetry_equiv_pos_as_xyz
  1  'x, y, z'
loop_
 _atom_site_type_symbol
 _atom_site_label
 _atom_site_symmetry_multiplicity
 _atom_site_fract_x
 _atom_site_fract_y
 _atom_site_fract_z
 _atom_site_occupancy
  Ba  Ba0  1  0.99879800  0.99908200  0.00151100  1
  Ba  Ba1  1  0.49799400  0.50116900  0.49830600  1
  Ba  Ba2  1  0.00012300  0.58616800  0.79402200  1
  Ba  Ba3  1  0.50040700  0.08885800  0.29329300  1
  Ba  Ba4  1  0.00054400  0.41123200  0.20650900  1
  Ba  Ba5  1  0.50012900  0.91376200  0.70621100  1
  Cr  Cr0  1  0.50002600  0.68634100  0.09261900  1
  Cr  Cr1  1  0.99985000  0.81359500  0.40741900  1
  Cr  Cr2  1  0.99904800  0.18572900  0.59275100  1
  Cr  Cr3  1  0.49947400  0.31448400  0.90689200  1
  O  O0  1  0.00554800  0.34892300  0.66608800  1
  O  O1  1  0.50016300  0.83799100  0.17751500  1
  O  O2  1  0.00106000  0.66178800  0.32268400  1
  O  O3  1  0.50392700  0.15029000  0.83468700  1
  O  O4  1  0.23910300  0.78695200  0.51683200  1
  O  O5  1  0.74362500  0.28820300  0.01309600  1
  O  O6  1  0.76069400  0.78716400  0.51682300  1
  O  O7  1  0.25602900  0.29116900  0.01258300  1
  O  O8  1  0.99988900  0.02897300  0.27262400  1
  O  O9  1  0.49777900  0.52984200  0.77474900  1
  O  O10  1  0.24287200  0.21270700  0.48613100  1
  O  O11  1  0.73927800  0.71272100  0.98349800  1
  O  O12  1  0.75582600  0.20839300  0.48711500  1
  O  O13  1  0.26092100  0.71296000  0.98303300  1
  O  O14  1  0.99615100  0.97044900  0.72559800  1
  O  O15  1  0.50074300  0.47105400  0.22741100  1
loop_
_geom_bond_atom_site_label_1
_geom_bond_atom_site_label_2
_geom_bond_distance
_geom_bond_site_symmetry_2
Ba0 O8 2.781600 1_565
Ba0 O5 2.783554 1_565
Ba0 O11 2.798592 1_554
Ba0 O7 2.805248 1_665
Ba0 O13 2.809898 1_654
Ba0 O14 2.824577 1_554
Ba1 O10 2.778106 1_555
Ba1 O15 2.780293 1_555
Ba1 O4 2.797544 1_555
Ba1 O6 2.808071 1_555
Ba1 O12 2.815103 1_555
Ba1 O9 2.829917 1_555
Ba2 O0 2.638289 1_555
Ba2 O13 2.871200 1_555
Ba2 O11 2.875982 1_455
Ba2 O14 2.880055 1_455
Ba2 O7 2.943852 1_556
Ba2 O5 2.958558 1_456
Ba2 O9 2.959215 1_555
Ba2 O4 2.962109 1_555
Ba2 O6 2.964272 1_455
Ba2 O9 2.984937 1_455
Ba3 O1 2.648499 1_545
Ba3 O12 2.858248 1_555
Ba3 O15 2.867828 1_555
Ba3 O10 2.879232 1_555
Ba3 O8 2.976574 1_555
Ba3 O8 2.981241 1_455
Ba3 O5 2.993300 1_555
Ba3 O7 3.005208 1_555
Ba3 O6 3.006472 1_545
Ba3 O4 3.008648 1_545
Ba4 O2 2.649036 1_555
Ba4 O7 2.863806 1_555
Ba4 O8 2.867933 1_455
Ba4 O5 2.875892 1_455
Ba4 O15 2.978605 1_455
Ba4 O15 2.979617 1_555
Ba4 O10 2.985970 1_555
Ba4 O13 3.004888 1_554
Ba4 O12 3.005685 1_455
Ba4 O11 3.006263 1_454
Ba5 O3 2.637034 1_565
Ba5 O6 2.874645 1_555
Ba5 O4 2.874842 1_555
Ba5 O9 2.876965 1_555
Ba5 O12 2.942299 1_565
Ba5 O14 2.949286 1_555
Ba5 O13 2.960122 1_555
Ba5 O11 2.964202 1_555
Ba5 O10 2.971018 1_565
Ba5 O14 2.996153 1_455
Cr0 O1 1.709462 1_555
Cr0 O11 1.731108 1_554
Cr0 O13 1.732450 1_554
Cr0 O15 1.738349 1_555
Cr1 O2 1.709396 1_655
Cr1 O4 1.732133 1_655
Cr1 O6 1.732235 1_555
Cr1 O8 1.738861 1_565
Cr2 O0 1.709360 1_655
Cr2 O14 1.730743 1_545
Cr2 O12 1.733220 1_555
Cr2 O10 1.738199 1_655
Cr3 O3 1.708631 1_555
Cr3 O9 1.728435 1_555
Cr3 O7 1.734436 1_556
Cr3 O5 1.737623 1_556
