# generated using pymatgen
data_CdH2C4(S3N2)2
_symmetry_space_group_name_H-M   'P 1'
_cell_length_a   8.05189300
_cell_length_b   11.93366800
_cell_length_c   13.02901000
_cell_angle_alpha   90.00000000
_cell_angle_beta   90.00000000
_cell_angle_gamma   90.00000000
_symmetry_Int_Tables_number   1
_chemical_formula_structural   CdH2C4(S3N2)2
_chemical_formula_sum   'Cd4 H8 C16 S24 N16'
_cell_volume   1251.93956264
_cell_formula_units_Z   4
loop_
 _symmetry_equiv_pos_site_id
 _symmetry_equiv_pos_as_xyz
  1  'x, y, z'
loop_
 _atom_site_type_symbol
 _atom_site_label
 _atom_site_symmetry_multiplicity
 _atom_site_fract_x
 _atom_site_fract_y
 _atom_site_fract_z
 _atom_site_occupancy
  Cd  Cd0  1  0.75000000  0.14217900  0.00000000  1
  Cd  Cd1  1  0.25000000  0.35782100  0.50000000  1
  Cd  Cd2  1  0.25000000  0.85782100  0.00000000  1
  Cd  Cd3  1  0.75000000  0.64217900  0.50000000  1
  H  H0  1  0.91487400  0.34193400  0.33010700  1
  H  H1  1  0.41487400  0.15806600  0.16989300  1
  H  H2  1  0.08512600  0.15806600  0.83010700  1
  H  H3  1  0.58512600  0.34193400  0.66989300  1
  H  H4  1  0.08512600  0.65806600  0.66989300  1
  H  H5  1  0.58512600  0.84193400  0.83010700  1
  H  H6  1  0.91487400  0.84193400  0.16989300  1
  H  H7  1  0.41487400  0.65806600  0.33010700  1
  C  C0  1  0.79507600  0.10717200  0.25142100  1
  C  C1  1  0.29507600  0.39282800  0.24857900  1
  C  C2  1  0.20492400  0.39282800  0.75142100  1
  C  C3  1  0.70492400  0.10717200  0.74857900  1
  C  C4  1  0.20492400  0.89282800  0.74857900  1
  C  C5  1  0.70492400  0.60717200  0.75142100  1
  C  C6  1  0.79507600  0.60717200  0.24857900  1
  C  C7  1  0.29507600  0.89282800  0.25142100  1
  C  C8  1  0.92324300  0.18873900  0.40774200  1
  C  C9  1  0.42324300  0.31126100  0.09225800  1
  C  C10  1  0.07675700  0.31126100  0.90774200  1
  C  C11  1  0.57675700  0.18873900  0.59225800  1
  C  C12  1  0.07675700  0.81126100  0.59225800  1
  C  C13  1  0.57675700  0.68873900  0.90774200  1
  C  C14  1  0.92324300  0.68873900  0.09225800  1
  C  C15  1  0.42324300  0.81126100  0.40774200  1
  S  S0  1  0.70455600  0.02109700  0.16127500  1
  S  S1  1  0.20455600  0.47890300  0.33872500  1
  S  S2  1  0.29544400  0.47890300  0.66127500  1
  S  S3  1  0.79544400  0.02109700  0.83872500  1
  S  S4  1  0.29544400  0.97890300  0.83872500  1
  S  S5  1  0.79544400  0.52109700  0.66127500  1
  S  S6  1  0.70455600  0.52109700  0.33872500  1
  S  S7  1  0.20455600  0.97890300  0.16127500  1
  S  S8  1  0.86063800  0.05521500  0.37131000  1
  S  S9  1  0.36063800  0.44478500  0.12869000  1
  S  S10  1  0.13936200  0.44478500  0.87131000  1
  S  S11  1  0.63936200  0.05521500  0.62869000  1
  S  S12  1  0.13936200  0.94478500  0.62869000  1
  S  S13  1  0.63936200  0.55521500  0.87131000  1
  S  S14  1  0.86063800  0.55521500  0.12869000  1
  S  S15  1  0.36063800  0.94478500  0.37131000  1
  S  S16  1  0.99859500  0.22100800  0.52540200  1
  S  S17  1  0.49859500  0.27899200  0.97459800  1
  S  S18  1  0.00140500  0.27899200  0.02540200  1
  S  S19  1  0.50140500  0.22100800  0.47459800  1
  S  S20  1  0.00140500  0.77899200  0.47459800  1
  S  S21  1  0.50140500  0.72100800  0.02540200  1
  S  S22  1  0.99859500  0.72100800  0.97459800  1
  S  S23  1  0.49859500  0.77899200  0.52540200  1
  N  N0  1  0.89457500  0.25683700  0.32754000  1
  N  N1  1  0.39457500  0.24316300  0.17246000  1
  N  N2  1  0.10542500  0.24316300  0.82754000  1
  N  N3  1  0.60542500  0.25683700  0.67246000  1
  N  N4  1  0.10542500  0.74316300  0.67246000  1
  N  N5  1  0.60542500  0.75683700  0.82754000  1
  N  N6  1  0.89457500  0.75683700  0.17246000  1
  N  N7  1  0.39457500  0.74316300  0.32754000  1
  N  N8  1  0.82374600  0.21510500  0.24109600  1
  N  N9  1  0.32374600  0.28489500  0.25890400  1
  N  N10  1  0.17625400  0.28489500  0.74109600  1
  N  N11  1  0.67625400  0.21510500  0.75890400  1
  N  N12  1  0.17625400  0.78489500  0.75890400  1
  N  N13  1  0.67625400  0.71510500  0.74109600  1
  N  N14  1  0.82374600  0.71510500  0.25890400  1
  N  N15  1  0.32374600  0.78489500  0.24109600  1
loop_
_geom_bond_atom_site_label_1
_geom_bond_atom_site_label_2
_geom_bond_distance
_geom_bond_site_symmetry_2
Cd0 S3 2.576246 1_554
Cd0 S0 2.576246 1_555
Cd0 S17 2.621625 1_554
Cd0 S18 2.621625 1_655
Cd1 S2 2.576246 1_555
Cd1 S1 2.576246 1_555
Cd1 S19 2.621625 1_555
Cd1 S16 2.621625 1_455
Cd2 S4 2.576246 1_554
Cd2 S7 2.576246 1_555
Cd2 S21 2.621625 1_555
Cd2 S22 2.621625 1_454
Cd3 S5 2.576246 1_555
Cd3 S6 2.576246 1_555
Cd3 S23 2.621625 1_555
Cd3 S20 2.621625 1_655
H0 N0 1.029132 1_555
H1 N1 1.029132 1_555
H2 N2 1.029132 1_555
H3 N3 1.029132 1_555
H4 N4 1.029132 1_555
H5 N5 1.029132 1_555
H6 N6 1.029132 1_555
H7 N7 1.029132 1_555
C0 N8 1.315456 1_555
C0 S0 1.722160 1_555
C0 S8 1.761555 1_555
C1 N9 1.315456 1_555
C1 S1 1.722160 1_555
C1 S9 1.761555 1_555
C2 N10 1.315456 1_555
C2 S2 1.722160 1_555
C2 S10 1.761555 1_555
C3 N11 1.315456 1_555
C3 S3 1.722160 1_555
C3 S11 1.761555 1_555
C4 N12 1.315456 1_555
C4 S4 1.722160 1_555
C4 S12 1.761555 1_555
C5 N13 1.315456 1_555
C5 S5 1.722160 1_555
C5 S13 1.761555 1_555
C6 N14 1.315456 1_555
C6 S6 1.722160 1_555
C6 S14 1.761555 1_555
C7 N15 1.315456 1_555
C7 S7 1.722160 1_555
C7 S15 1.761555 1_555
C8 N0 1.343735 1_555
C8 S16 1.693068 1_555
C8 S8 1.737367 1_555
C9 N1 1.343735 1_555
C9 S17 1.693068 1_554
C9 S9 1.737367 1_555
C10 N2 1.343735 1_555
C10 S18 1.693068 1_556
C10 S10 1.737367 1_555
C11 N3 1.343735 1_555
C11 S19 1.693068 1_555
C11 S11 1.737367 1_555
C12 N4 1.343735 1_555
C12 S20 1.693068 1_555
C12 S12 1.737367 1_555
C13 N5 1.343735 1_555
C13 S21 1.693068 1_556
C13 S13 1.737367 1_555
C14 N6 1.343735 1_555
C14 S22 1.693068 1_554
C14 S14 1.737367 1_555
C15 N7 1.343735 1_555
C15 S23 1.693068 1_555
C15 S15 1.737367 1_555
N0 N8 1.357121 1_555
N1 N9 1.357121 1_555
N10 N2 1.357121 1_555
N11 N3 1.357121 1_555
N12 N4 1.357121 1_555
N13 N5 1.357121 1_555
N14 N6 1.357121 1_555
N15 N7 1.357121 1_555
