# generated using pymatgen
data_Sm2CoNiO6
_symmetry_space_group_name_H-M   'P 1'
_cell_length_a   5.61115400
_cell_length_b   5.34635100
_cell_length_c   9.32457166
_cell_angle_alpha   55.52049035
_cell_angle_beta   90.00000000
_cell_angle_gamma   90.00000000
_symmetry_Int_Tables_number   1
_chemical_formula_structural   Sm2CoNiO6
_chemical_formula_sum   'Sm4 Co2 Ni2 O12'
_cell_volume   230.58920156
_cell_formula_units_Z   2
loop_
 _symmetry_equiv_pos_site_id
 _symmetry_equiv_pos_as_xyz
  1  'x, y, z'
loop_
 _atom_site_type_symbol
 _atom_site_label
 _atom_site_symmetry_multiplicity
 _atom_site_fract_x
 _atom_site_fract_y
 _atom_site_fract_z
 _atom_site_occupancy
  Sm  Sm0  1  0.56535600  0.73318400  0.75174500  1
  Sm  Sm1  1  0.06535600  0.26681600  0.74825500  1
  Sm  Sm2  1  0.43464400  0.26681600  0.24825500  1
  Sm  Sm3  1  0.93464400  0.73318400  0.25174500  1
  Co  Co0  1  0.50000000  0.50000000  0.50000000  1
  Co  Co1  1  0.00000000  0.50000000  0.00000000  1
  Ni  Ni0  1  0.50000000  0.00000000  0.00000000  1
  Ni  Ni1  1  0.00000000  0.00000000  0.50000000  1
  O  O0  1  0.97339500  0.84226400  0.75096500  1
  O  O1  1  0.47339500  0.15773600  0.74903500  1
  O  O2  1  0.02660500  0.15773600  0.24903500  1
  O  O3  1  0.52660500  0.84226400  0.25096500  1
  O  O4  1  0.80738800  0.26154000  0.95345700  1
  O  O5  1  0.30738800  0.73846000  0.54654300  1
  O  O6  1  0.20248800  0.35012400  0.45006500  1
  O  O7  1  0.70248800  0.64987600  0.04993500  1
  O  O8  1  0.19261200  0.73846000  0.04654300  1
  O  O9  1  0.69261200  0.26154000  0.45345700  1
  O  O10  1  0.79751200  0.64987600  0.54993500  1
  O  O11  1  0.29751200  0.35012400  0.95006500  1
loop_
_geom_bond_atom_site_label_1
_geom_bond_atom_site_label_2
_geom_bond_distance
_geom_bond_site_symmetry_2
Co0 O5 1.899533 1_555
Co0 O9 1.899533 1_555
Co0 O3 1.987962 1_555
Co0 O1 1.987962 1_555
Co0 O10 2.016965 1_555
Co0 O6 2.016965 1_555
Co1 O4 1.899533 1_454
Co1 O8 1.899533 1_555
Co1 O2 1.987962 1_555
Co1 O0 1.987962 1_454
Co1 O7 2.016965 1_455
Co1 O11 2.016965 1_554
Ni0 O3 1.993819 1_545
Ni0 O1 1.993819 1_554
Ni0 O7 2.006204 1_545
Ni0 O11 2.006204 1_554
Ni0 O4 2.105090 1_554
Ni0 O8 2.105090 1_545
Ni1 O2 1.993819 1_555
Ni1 O0 1.993819 1_445
Ni1 O6 2.006204 1_555
Ni1 O10 2.006204 1_445
Ni1 O5 2.105090 1_545
Ni1 O9 2.105090 1_455
O0 Sm1 2.313865 1_665
O0 Sm0 2.361669 1_555
O1 Sm0 2.313865 1_545
O1 Sm1 2.361669 1_555
O2 Sm3 2.313865 1_445
O2 Sm2 2.361669 1_555
O3 Sm2 2.313865 1_565
O3 Sm3 2.361669 1_555
O4 Sm1 2.386654 1_655
O4 Sm0 2.523993 1_555
O4 Sm3 2.707351 1_546
O5 Sm0 2.386654 1_555
O5 Sm1 2.523993 1_555
O5 Sm2 2.707351 1_565
O6 Sm3 2.363197 1_455
O6 Sm2 2.526936 1_555
O6 Sm1 2.668228 1_555
O7 Sm2 2.363197 1_555
O7 Sm3 2.526936 1_555
O7 Sm0 2.668228 1_554
O8 Sm3 2.386654 1_455
O8 Sm2 2.523993 1_555
O8 Sm1 2.707351 1_564
O9 Sm2 2.386654 1_555
O9 Sm3 2.523993 1_555
O9 Sm0 2.707351 1_545
O10 Sm1 2.363197 1_655
O10 Sm0 2.526936 1_555
O10 Sm3 2.668228 1_555
O11 Sm0 2.363197 1_555
O11 Sm1 2.526936 1_555
O11 Sm2 2.668228 1_556
