# generated using pymatgen
data_BaNaLaSeO6
_symmetry_space_group_name_H-M   'P 1'
_cell_length_a   5.91658653
_cell_length_b   5.91658653
_cell_length_c   5.91658653
_cell_angle_alpha   60.00000000
_cell_angle_beta   60.00000000
_cell_angle_gamma   60.00000000
_symmetry_Int_Tables_number   1
_chemical_formula_structural   BaNaLaSeO6
_chemical_formula_sum   'Ba1 Na1 La1 Se1 O6'
_cell_volume   146.45313224
_cell_formula_units_Z   1
loop_
 _symmetry_equiv_pos_site_id
 _symmetry_equiv_pos_as_xyz
  1  'x, y, z'
loop_
 _atom_site_type_symbol
 _atom_site_label
 _atom_site_symmetry_multiplicity
 _atom_site_fract_x
 _atom_site_fract_y
 _atom_site_fract_z
 _atom_site_occupancy
  Ba  Ba0  1  0.25000000  0.25000000  0.25000000  1
  Na  Na0  1  0.75000000  0.75000000  0.75000000  1
  La  La0  1  0.00000000  0.00000000  0.00000000  1
  Se  Se0  1  0.50000000  0.50000000  0.50000000  1
  O  O0  1  0.72002792  0.27997208  0.27997208  1
  O  O1  1  0.27997208  0.72002792  0.72002792  1
  O  O2  1  0.72002792  0.27997208  0.72002792  1
  O  O3  1  0.27997208  0.72002792  0.27997208  1
  O  O4  1  0.72002792  0.72002792  0.27997208  1
  O  O5  1  0.27997208  0.27997208  0.72002792  1
loop_
_geom_bond_atom_site_label_1
_geom_bond_atom_site_label_2
_geom_bond_distance
_geom_bond_site_symmetry_2
Ba0 O3 2.968904 1_545
Ba0 O2 2.968904 1_455
Ba0 O0 2.968904 1_455
Ba0 O1 2.968904 1_545
Ba0 O4 2.968904 1_455
Ba0 O1 2.968904 1_554
Ba0 O5 2.968904 1_555
Ba0 O5 2.968904 1_554
Ba0 O4 2.968904 1_545
Ba0 O2 2.968904 1_554
Ba0 O3 2.968904 1_555
Ba0 O0 2.968904 1_555
Na0 O4 2.968904 1_555
Na0 O2 2.968904 1_555
Na0 O0 2.968904 1_556
Na0 O1 2.968904 1_555
Na0 O0 2.968904 1_565
Na0 O3 2.968904 1_655
Na0 O4 2.968904 1_556
Na0 O5 2.968904 1_565
Na0 O1 2.968904 1_655
Na0 O5 2.968904 1_655
Na0 O3 2.968904 1_556
Na0 O2 2.968904 1_565
La0 O1 2.342615 1_544
La0 O4 2.342615 1_445
La0 O2 2.342615 1_454
La0 O3 2.342615 1_545
La0 O5 2.342615 1_554
La0 O0 2.342615 1_455
O0 Se0 1.841043 1_555
O1 Se0 1.841043 1_555
O2 Se0 1.841043 1_555
O3 Se0 1.841043 1_555
O4 Se0 1.841043 1_555
O5 Se0 1.841043 1_555
