# generated using pymatgen
data_Mg(FeO2)4
_symmetry_space_group_name_H-M   'P 1'
_cell_length_a   2.99344758
_cell_length_b   7.27084200
_cell_length_c   7.46317485
_cell_angle_alpha   80.85223482
_cell_angle_beta   78.41858756
_cell_angle_gamma   78.11332417
_symmetry_Int_Tables_number   1
_chemical_formula_structural   Mg(FeO2)4
_chemical_formula_sum   'Mg1 Fe4 O8'
_cell_volume   154.53911437
_cell_formula_units_Z   1
loop_
 _symmetry_equiv_pos_site_id
 _symmetry_equiv_pos_as_xyz
  1  'x, y, z'
loop_
 _atom_site_type_symbol
 _atom_site_label
 _atom_site_symmetry_multiplicity
 _atom_site_fract_x
 _atom_site_fract_y
 _atom_site_fract_z
 _atom_site_occupancy
  Mg  Mg0  1  0.34379000  0.12811300  0.19602800  1
  Fe  Fe0  1  0.63703200  0.17483300  0.56284400  1
  Fe  Fe1  1  0.15078700  0.50959400  0.20135700  1
  Fe  Fe2  1  0.84571200  0.48499300  0.83552500  1
  Fe  Fe3  1  0.35998900  0.80183300  0.49037300  1
  O  O0  1  0.86162300  0.67238200  0.61656000  1
  O  O1  1  0.46128300  0.32982800  0.75954200  1
  O  O2  1  0.54021100  0.64903400  0.28302500  1
  O  O3  1  0.14598900  0.30530700  0.41468000  1
  O  O4  1  0.17397800  0.01166000  0.65206500  1
  O  O5  1  0.79482400  0.32201900  0.09990400  1
  O  O6  1  0.84374300  0.98094600  0.34327700  1
  O  O7  1  0.21920100  0.62009700  0.95361300  1
loop_
_geom_bond_atom_site_label_1
_geom_bond_atom_site_label_2
_geom_bond_distance
_geom_bond_site_symmetry_2
Mg0 O6 2.053943 1_445
Mg0 O6 2.054064 1_545
Mg0 O5 2.097358 1_555
Mg0 O5 2.097647 1_455
Mg0 O3 2.153972 1_555
Fe0 O1 1.916628 1_555
Fe0 O4 1.956374 1_655
Fe0 O4 1.956520 1_555
Fe0 O3 2.006979 1_555
Fe0 O3 2.007304 1_655
Fe0 O6 2.241309 1_545
Fe1 O7 1.884015 1_554
Fe1 O2 1.930230 1_455
Fe1 O2 1.930523 1_555
Fe1 O3 1.997202 1_555
Fe1 O5 2.192980 1_555
Fe1 O5 2.195378 1_455
Fe2 O0 1.953629 1_555
Fe2 O1 1.979214 1_655
Fe2 O1 1.979621 1_555
Fe2 O7 2.027704 1_555
Fe2 O7 2.028535 1_655
Fe2 O5 2.128555 1_556
Fe3 O0 1.931540 1_455
Fe3 O0 1.931678 1_555
Fe3 O2 1.970920 1_555
Fe3 O4 2.014795 1_565
Fe3 O6 2.163823 1_555
Fe3 O6 2.164906 1_455
