# generated using pymatgen
data_Ca7Mg(Co2O5)4
_symmetry_space_group_name_H-M   'P 1'
_cell_length_a   10.68337552
_cell_length_b   11.12320960
_cell_length_c   16.68423800
_cell_angle_alpha   109.55205888
_cell_angle_beta   109.30441641
_cell_angle_gamma   89.51449851
_symmetry_Int_Tables_number   1
_chemical_formula_structural   Ca7Mg(Co2O5)4
_chemical_formula_sum   'Ca28 Mg4 Co32 O80'
_cell_volume   1751.60366940
_cell_formula_units_Z   4
loop_
 _symmetry_equiv_pos_site_id
 _symmetry_equiv_pos_as_xyz
  1  'x, y, z'
loop_
 _atom_site_type_symbol
 _atom_site_label
 _atom_site_symmetry_multiplicity
 _atom_site_fract_x
 _atom_site_fract_y
 _atom_site_fract_z
 _atom_site_occupancy
  Ca  Ca0  1  0.30428543  0.06403546  0.60641291  1
  Ca  Ca1  1  0.30670704  0.56488265  0.60569578  1
  Ca  Ca2  1  0.80280866  0.06138740  0.60404492  1
  Ca  Ca3  1  0.80384521  0.56153545  0.11037812  1
  Ca  Ca4  1  0.80493521  0.56156276  0.60436365  1
  Ca  Ca5  1  0.19646333  0.43284567  0.39077860  1
  Ca  Ca6  1  0.20146410  0.43873435  0.89499979  1
  Ca  Ca7  1  0.19665792  0.93620500  0.38855311  1
  Ca  Ca8  1  0.19425841  0.93771743  0.89359977  1
  Ca  Ca9  1  0.69792974  0.43615815  0.39404097  1
  Ca  Ca10  1  0.69146804  0.42970353  0.89048089  1
  Ca  Ca11  1  0.69587216  0.93592500  0.39343886  1
  Ca  Ca12  1  0.69245154  0.93613829  0.89182657  1
  Ca  Ca13  1  0.05237941  0.29344096  0.11173928  1
  Ca  Ca14  1  0.05086188  0.29078664  0.60589407  1
  Ca  Ca15  1  0.05033680  0.79100659  0.60583604  1
  Ca  Ca16  1  0.55899198  0.29468549  0.11132263  1
  Ca  Ca17  1  0.55691990  0.29448634  0.60538613  1
  Ca  Ca18  1  0.55579699  0.78786498  0.11179026  1
  Ca  Ca19  1  0.55688297  0.79273652  0.60426371  1
  Ca  Ca20  1  0.44848710  0.20628975  0.38893704  1
  Ca  Ca21  1  0.44783066  0.20827541  0.89159647  1
  Ca  Ca22  1  0.44892868  0.70832986  0.38949049  1
  Ca  Ca23  1  0.43854595  0.70329142  0.88862419  1
  Ca  Ca24  1  0.94291714  0.20238365  0.38960178  1
  Ca  Ca25  1  0.93975284  0.20288660  0.88761549  1
  Ca  Ca26  1  0.94171177  0.70576363  0.39219512  1
  Ca  Ca27  1  0.94728311  0.70760594  0.89268044  1
  Mg  Mg0  1  0.28888161  0.07845060  0.11764617  1
  Mg  Mg1  1  0.27673251  0.58607903  0.12116858  1
  Mg  Mg2  1  0.78077763  0.08325291  0.11581039  1
  Mg  Mg3  1  0.02987931  0.78593467  0.11893159  1
  Co  Co0  1  0.01040757  0.00167387  0.00887013  1
  Co  Co1  1  0.00577134  0.99867666  0.49821163  1
  Co  Co2  1  0.00640342  0.50020142  0.00132706  1
  Co  Co3  1  0.00652905  0.49855816  0.49907578  1
  Co  Co4  1  0.50740171  0.00175148  0.00435294  1
  Co  Co5  1  0.50228954  0.00137783  0.49818145  1
  Co  Co6  1  0.50677970  0.50155767  0.00416216  1
  Co  Co7  1  0.50407710  0.50038141  0.49777752  1
  Co  Co8  1  0.26025912  0.25568515  0.00601505  1
  Co  Co9  1  0.25362357  0.24869573  0.49839598  1
  Co  Co10  1  0.26175477  0.75445326  0.00789907  1
  Co  Co11  1  0.25465170  0.75053095  0.49871647  1
  Co  Co12  1  0.75830157  0.24782250  0.00280246  1
  Co  Co13  1  0.75364154  0.24857668  0.49823850  1
  Co  Co14  1  0.75877790  0.75276515  0.00350886  1
  Co  Co15  1  0.75292830  0.74882776  0.49800729  1
  Co  Co16  1  0.09895470  0.08823904  0.24331682  1
  Co  Co17  1  0.10819504  0.09353298  0.74756606  1
  Co  Co18  1  0.10987706  0.59818446  0.25116174  1
  Co  Co19  1  0.10697263  0.59342274  0.74733071  1
  Co  Co20  1  0.60303946  0.09276274  0.24936308  1
  Co  Co21  1  0.60674951  0.09118156  0.74553732  1
  Co  Co22  1  0.60213331  0.59383890  0.24902756  1
  Co  Co23  1  0.60997611  0.59450251  0.74863013  1
  Co  Co24  1  0.35872686  0.40463313  0.24747872  1
  Co  Co25  1  0.35833726  0.40508169  0.74797778  1
  Co  Co26  1  0.34824909  0.90271082  0.24458425  1
  Co  Co27  1  0.35937009  0.90504024  0.75057204  1
  Co  Co28  1  0.85997025  0.40393738  0.25367266  1
  Co  Co29  1  0.86052975  0.40468118  0.74872879  1
  Co  Co30  1  0.85760146  0.91009865  0.24951804  1
  Co  Co31  1  0.85791352  0.90309675  0.74761860  1
  O  O0  1  0.11658682  0.11312198  0.48189221  1
  O  O1  1  0.12235361  0.13866091  0.98763750  1
  O  O2  1  0.11779520  0.61306233  0.48229785  1
  O  O3  1  0.12784511  0.63834237  0.99165473  1
  O  O4  1  0.61699009  0.11898839  0.48059188  1
  O  O5  1  0.62492059  0.12514681  0.98779972  1
  O  O6  1  0.61865780  0.61922901  0.48190164  1
  O  O7  1  0.62672975  0.63315801  0.98945951  1
  O  O8  1  0.15400517  0.41224391  0.03179190  1
  O  O9  1  0.13697811  0.37735469  0.51261800  1
  O  O10  1  0.15697746  0.90836588  0.02248380  1
  O  O11  1  0.13339966  0.87614790  0.51044026  1
  O  O12  1  0.64067632  0.38084847  0.01406112  1
  O  O13  1  0.63777228  0.38301859  0.51634782  1
  O  O14  1  0.65462568  0.90360027  0.02608502  1
  O  O15  1  0.63511210  0.88134766  0.51370763  1
  O  O16  1  0.37063582  0.11914709  0.48356002  1
  O  O17  1  0.37596501  0.10686191  0.98738030  1
  O  O18  1  0.37219725  0.61953496  0.48509705  1
  O  O19  1  0.37226305  0.61407694  0.98491961  1
  O  O20  1  0.86768332  0.11185854  0.47985051  1
  O  O21  1  0.87490791  0.10511427  0.99434551  1
  O  O22  1  0.86786872  0.61248685  0.48082689  1
  O  O23  1  0.87506491  0.60498551  0.98678882  1
  O  O24  1  0.38703662  0.37381098  0.01358729  1
  O  O25  1  0.38739736  0.38677394  0.51037168  1
  O  O26  1  0.39240869  0.87403343  0.01801642  1
  O  O27  1  0.38802536  0.89056650  0.51479080  1
  O  O28  1  0.89164719  0.37488131  0.01660866  1
  O  O29  1  0.88727165  0.38045985  0.51396172  1
  O  O30  1  0.90949434  0.86318134  0.02449012  1
  O  O31  1  0.88447939  0.88185272  0.51283593  1
  O  O32  1  0.11320169  0.11402974  0.14518421  1
  O  O33  1  0.08141641  0.09481872  0.63327557  1
  O  O34  1  0.09621617  0.62574948  0.14638734  1
  O  O35  1  0.07990049  0.59580443  0.63312683  1
  O  O36  1  0.60750627  0.11378024  0.14740738  1
  O  O37  1  0.58068233  0.09762361  0.63284340  1
  O  O38  1  0.60751771  0.60747532  0.14654394  1
  O  O39  1  0.58029817  0.59706954  0.63468492  1
  O  O40  1  0.44436550  0.40455166  0.36218372  1
  O  O41  1  0.44887379  0.39420752  0.85692353  1
  O  O42  1  0.43270798  0.90621363  0.36098600  1
  O  O43  1  0.45143919  0.89242038  0.86031779  1
  O  O44  1  0.94689484  0.39907154  0.36615487  1
  O  O45  1  0.95528169  0.39262291  0.85932008  1
  O  O46  1  0.94420886  0.90309492  0.36245816  1
  O  O47  1  0.94818440  0.89467036  0.85898332  1
  O  O48  1  0.34772820  0.26978014  0.14474093  1
  O  O49  1  0.33715607  0.28550493  0.63793479  1
  O  O50  1  0.35129078  0.76872384  0.14624890  1
  O  O51  1  0.33489424  0.78743271  0.63960343  1
  O  O52  1  0.84090939  0.27531902  0.14787647  1
  O  O53  1  0.83157973  0.28638683  0.63516290  1
  O  O54  1  0.85341047  0.78005758  0.14707764  1
  O  O55  1  0.82956752  0.78661375  0.63383782  1
  O  O56  1  0.18516124  0.20548650  0.35517969  1
  O  O57  1  0.19639855  0.21488668  0.85689433  1
  O  O58  1  0.19780107  0.71608859  0.36022699  1
  O  O59  1  0.19523638  0.71585499  0.85606825  1
  O  O60  1  0.68434889  0.21111746  0.36289994  1
  O  O61  1  0.70044890  0.20957073  0.85446377  1
  O  O62  1  0.68264417  0.71187649  0.36349080  1
  O  O63  1  0.70110895  0.71616658  0.85931124  1
  O  O64  1  0.41374783  0.05872618  0.23537613  1
  O  O65  1  0.42784350  0.06558917  0.75009760  1
  O  O66  1  0.41235920  0.56226674  0.23506626  1
  O  O67  1  0.42888500  0.56641001  0.74907975  1
  O  O68  1  0.91142048  0.06522660  0.23420672  1
  O  O69  1  0.92680111  0.06360524  0.74793142  1
  O  O70  1  0.93087002  0.56091449  0.25042836  1
  O  O71  1  0.92699526  0.56572018  0.74943457  1
  O  O72  1  0.17898203  0.43665141  0.24879777  1
  O  O73  1  0.17722214  0.43353541  0.74942932  1
  O  O74  1  0.15911891  0.92002969  0.23465301  1
  O  O75  1  0.17722253  0.93297856  0.75020452  1
  O  O76  1  0.67823475  0.43560570  0.25192345  1
  O  O77  1  0.68073618  0.43390526  0.75100605  1
  O  O78  1  0.67651827  0.93417406  0.25026367  1
  O  O79  1  0.67765135  0.93146458  0.74933005  1
loop_
_geom_bond_atom_site_label_1
_geom_bond_atom_site_label_2
_geom_bond_distance
_geom_bond_site_symmetry_2
Ca0 O65 2.317338 1_555
Ca0 O49 2.343905 1_555
Ca0 O27 2.400192 1_545
Ca0 O11 2.481258 1_545
Ca0 O33 2.564422 1_555
Ca0 O0 2.573237 1_555
Ca0 O16 2.624608 1_555
Ca0 O37 2.846202 1_555
Ca1 O67 2.309876 1_555
Ca1 O51 2.345492 1_555
Ca1 O25 2.442548 1_555
Ca1 O9 2.466733 1_555
Ca1 O2 2.563586 1_555
Ca1 O18 2.581532 1_555
Ca1 O35 2.610115 1_555
Ca1 O39 2.805790 1_555
Ca2 O69 2.318782 1_555
Ca2 O53 2.380219 1_555
Ca2 O15 2.397302 1_545
Ca2 O31 2.424736 1_545
Ca2 O37 2.575417 1_555
Ca2 O4 2.598484 1_555
Ca2 O20 2.612244 1_555
Ca2 O33 2.858867 1_655
Ca3 O70 2.283767 1_555
Ca3 O54 2.318347 1_555
Ca3 O38 2.374174 1_555
Ca3 O12 2.388718 1_555
Ca3 O28 2.530067 1_555
Ca3 O23 2.602863 1_554
Ca3 O7 2.609864 1_554
Ca4 O71 2.323833 1_555
Ca4 O13 2.379924 1_555
Ca4 O55 2.383105 1_555
Ca4 O29 2.433144 1_555
Ca4 O6 2.591062 1_555
Ca4 O22 2.593305 1_555
Ca4 O39 2.612328 1_555
Ca4 O35 2.822971 1_655
Ca5 O72 2.328640 1_555
Ca5 O56 2.390689 1_555
Ca5 O2 2.414009 1_555
Ca5 O18 2.497752 1_555
Ca5 O25 2.525953 1_555
Ca5 O44 2.570634 1_455
Ca5 O9 2.572492 1_555
Ca5 O40 2.839302 1_555
Ca6 O73 2.336562 1_555
Ca6 O57 2.350904 1_555
Ca6 O19 2.382460 1_555
Ca6 O45 2.513561 1_455
Ca6 O3 2.561493 1_555
Ca6 O24 2.589441 1_556
Ca6 O8 2.601998 1_556
Ca6 O41 2.917644 1_555
Ca7 O58 2.333879 1_555
Ca7 O74 2.407794 1_555
Ca7 O0 2.414653 1_565
Ca7 O16 2.462777 1_565
Ca7 O27 2.593169 1_555
Ca7 O46 2.594648 1_455
Ca7 O11 2.619940 1_555
Ca7 O42 2.707819 1_555
Ca8 O75 2.321107 1_555
Ca8 O59 2.334938 1_555
Ca8 O17 2.416536 1_565
Ca8 O10 2.434649 1_556
Ca8 O47 2.511238 1_455
Ca8 O1 2.543249 1_565
Ca8 O26 2.710248 1_556
Ca8 O43 2.984845 1_555
Ca9 O76 2.308016 1_555
Ca9 O60 2.375436 1_555
Ca9 O22 2.379278 1_555
Ca9 O6 2.409635 1_555
Ca9 O13 2.570470 1_555
Ca9 O29 2.571240 1_555
Ca9 O40 2.585238 1_555
Ca9 O44 2.851710 1_555
Ca10 O77 2.307966 1_555
Ca10 O61 2.327050 1_555
Ca10 O41 2.469085 1_555
Ca10 O23 2.472762 1_555
Ca10 O12 2.517067 1_556
Ca10 O7 2.560099 1_555
Ca10 O28 2.689792 1_556
Ca10 O45 3.031416 1_555
Ca11 O78 2.322006 1_555
Ca11 O62 2.367743 1_555
Ca11 O20 2.387493 1_565
Ca11 O4 2.402122 1_565
Ca11 O15 2.549418 1_555
Ca11 O31 2.552958 1_555
Ca11 O42 2.682593 1_555
Ca11 O46 2.864135 1_555
Ca12 O79 2.312752 1_555
Ca12 O63 2.330352 1_555
Ca12 O21 2.442091 1_565
Ca12 O5 2.447314 1_565
Ca12 O43 2.469355 1_555
Ca12 O14 2.540768 1_556
Ca12 O30 2.951485 1_556
Ca12 O47 2.962540 1_555
Ca13 O72 2.269234 1_555
Ca13 O32 2.280298 1_555
Ca13 O28 2.328605 1_455
Ca13 O1 2.534894 1_554
Ca13 O52 2.549090 1_455
Ca13 O21 2.585537 1_454
Ca13 O8 2.620274 1_555
Ca14 O73 2.330723 1_555
Ca14 O33 2.371206 1_555
Ca14 O29 2.371509 1_455
Ca14 O9 2.481969 1_555
Ca14 O53 2.550156 1_455
Ca14 O20 2.599388 1_455
Ca14 O0 2.622798 1_555
Ca14 O49 2.929353 1_555
Ca15 O75 2.337655 1_555
Ca15 O35 2.361467 1_555
Ca15 O31 2.402015 1_455
Ca15 O11 2.484860 1_555
Ca15 O55 2.555237 1_455
Ca15 O22 2.588154 1_455
Ca15 O2 2.629202 1_555
Ca15 O51 2.905397 1_555
Ca16 O76 2.275873 1_555
Ca16 O36 2.295018 1_555
Ca16 O24 2.400210 1_555
Ca16 O12 2.510933 1_555
Ca16 O48 2.535296 1_555
Ca16 O5 2.575959 1_554
Ca16 O17 2.639784 1_554
Ca16 O52 2.889972 1_555
Ca17 O77 2.333558 1_555
Ca17 O37 2.377898 1_555
Ca17 O13 2.400970 1_555
Ca17 O25 2.450760 1_555
Ca17 O16 2.575606 1_555
Ca17 O4 2.588328 1_555
Ca17 O49 2.588516 1_555
Ca17 O53 2.815431 1_555
Ca18 O78 2.279996 1_555
Ca18 O38 2.283796 1_555
Ca18 O26 2.362852 1_555
Ca18 O50 2.463653 1_555
Ca18 O7 2.520100 1_554
Ca18 O19 2.577458 1_554
Ca18 O14 2.658960 1_555
Ca19 O79 2.317981 1_555
Ca19 O39 2.388160 1_555
Ca19 O15 2.407950 1_555
Ca19 O27 2.437286 1_555
Ca19 O18 2.542542 1_555
Ca19 O6 2.561279 1_555
Ca19 O51 2.631683 1_555
Ca19 O55 2.793479 1_555
Ca20 O4 2.380390 1_555
Ca20 O40 2.389305 1_555
Ca20 O64 2.441901 1_555
Ca20 O16 2.455542 1_555
Ca20 O25 2.586647 1_555
Ca20 O13 2.626913 1_555
Ca20 O56 2.679720 1_555
Ca20 O60 2.698635 1_555
Ca21 O65 2.302716 1_555
Ca21 O41 2.327556 1_555
Ca21 O5 2.442658 1_555
Ca21 O24 2.509997 1_556
Ca21 O17 2.539353 1_555
Ca21 O57 2.559858 1_555
Ca21 O12 2.600524 1_556
Ca21 O61 2.963064 1_555
Ca22 O42 2.395985 1_555
Ca22 O6 2.406506 1_555
Ca22 O66 2.444141 1_555
Ca22 O18 2.474815 1_555
Ca22 O58 2.569424 1_555
Ca22 O15 2.573906 1_555
Ca22 O27 2.635012 1_555
Ca22 O62 2.674571 1_555
Ca23 O67 2.284835 1_555
Ca23 O43 2.319606 1_555
Ca23 O19 2.428715 1_555
Ca23 O7 2.469079 1_555
Ca23 O59 2.486446 1_555
Ca23 O26 2.540434 1_556
Ca23 O14 2.952903 1_556
Ca24 O44 2.350898 1_555
Ca24 O20 2.399135 1_555
Ca24 O0 2.429477 1_655
Ca24 O68 2.438650 1_555
Ca24 O29 2.574231 1_555
Ca24 O9 2.622963 1_655
Ca24 O60 2.655073 1_555
Ca24 O56 2.833049 1_655
Ca25 O69 2.285704 1_555
Ca25 O45 2.330040 1_555
Ca25 O1 2.392222 1_655
Ca25 O61 2.436573 1_555
Ca25 O28 2.552400 1_556
Ca25 O21 2.637841 1_555
Ca25 O57 2.963008 1_655
Ca26 O70 2.339902 1_555
Ca26 O22 2.386976 1_555
Ca26 O46 2.409013 1_555
Ca26 O2 2.448838 1_655
Ca26 O31 2.533036 1_555
Ca26 O11 2.563140 1_655
Ca26 O62 2.652633 1_555
Ca26 O58 2.965457 1_655
Ca27 O71 2.321274 1_555
Ca27 O47 2.330801 1_555
Ca27 O3 2.400359 1_655
Ca27 O30 2.453937 1_556
Ca27 O63 2.509764 1_555
Ca27 O23 2.525666 1_555
Ca27 O10 2.887140 1_656
Ca27 O59 2.917213 1_655
Mg0 O64 2.058378 1_555
Mg0 O48 2.078378 1_555
Mg0 O32 2.079941 1_555
Mg0 O10 2.154355 1_545
Mg0 O1 2.592166 1_554
Mg0 O17 2.736900 1_554
Mg0 O26 2.792769 1_545
Mg1 O50 2.043280 1_555
Mg1 O66 2.071383 1_555
Mg1 O34 2.118670 1_555
Mg1 O8 2.121770 1_555
Mg1 O3 2.467766 1_554
Mg2 O52 2.072218 1_555
Mg2 O68 2.080316 1_555
Mg2 O36 2.081974 1_555
Mg2 O14 2.181755 1_545
Mg2 O5 2.419264 1_554
Mg2 O21 2.618921 1_554
Mg3 O34 2.048674 1_555
Mg3 O74 2.050285 1_555
Mg3 O54 2.094534 1_455
Mg3 O30 2.103030 1_455
Mg3 O23 2.514496 1_454
Mg3 O3 2.721549 1_554
Co0 O21 1.845147 1_454
Co0 O10 1.864351 1_545
Co0 O30 2.021362 1_445
Co0 O32 2.099953 1_555
Co0 O1 2.133045 1_554
Co0 O47 2.243732 1_444
Co1 O0 1.888624 1_565
Co1 O11 1.931059 1_555
Co1 O20 1.944993 1_465
Co1 O31 1.969019 1_455
Co1 O33 2.018000 1_565
Co1 O46 2.026833 1_455
Co2 O23 1.822797 1_454
Co2 O8 1.865179 1_555
Co2 O28 1.996168 1_455
Co2 O3 2.099653 1_554
Co2 O45 2.145125 1_454
Co2 O34 2.225630 1_555
Co3 O2 1.896801 1_555
Co3 O9 1.942856 1_555
Co3 O22 1.954812 1_455
Co3 O29 1.966347 1_455
Co3 O44 1.995943 1_455
Co3 O35 2.005637 1_555
Co4 O17 1.830233 1_554
Co4 O14 1.912079 1_545
Co4 O26 2.002729 1_545
Co4 O5 2.012121 1_554
Co4 O43 2.172015 1_544
Co4 O36 2.176549 1_555
Co5 O27 1.887855 1_545
Co5 O16 1.926034 1_555
Co5 O15 1.954364 1_545
Co5 O4 1.954740 1_555
Co5 O37 2.014078 1_555
Co5 O42 2.044297 1_545
Co6 O19 1.915244 1_554
Co6 O12 1.958561 1_555
Co6 O24 1.998427 1_555
Co6 O7 2.079682 1_554
Co6 O38 2.155760 1_555
Co6 O41 2.210794 1_554
Co7 O25 1.890102 1_555
Co7 O18 1.935298 1_555
Co7 O13 1.945974 1_555
Co7 O6 1.947401 1_555
Co7 O40 2.025925 1_555
Co7 O39 2.044032 1_555
Co8 O24 1.839223 1_555
Co8 O1 1.850861 1_554
Co8 O17 2.059112 1_554
Co8 O8 2.072226 1_555
Co8 O48 2.141135 1_555
Co8 O57 2.233524 1_554
Co9 O9 1.896122 1_555
Co9 O16 1.906771 1_555
Co9 O0 1.996553 1_555
Co9 O25 2.020968 1_555
Co9 O49 2.092509 1_555
Co9 O56 2.134765 1_555
Co10 O3 1.824499 1_554
Co10 O26 1.863177 1_555
Co10 O19 1.961181 1_554
Co10 O10 2.027793 1_555
Co10 O50 2.136758 1_555
Co10 O59 2.278889 1_554
Co11 O11 1.903297 1_555
Co11 O18 1.920364 1_555
Co11 O27 2.008436 1_555
Co11 O2 2.010867 1_555
Co11 O58 2.082805 1_555
Co11 O51 2.111047 1_555
Co12 O5 1.877142 1_554
Co12 O28 1.918117 1_555
Co12 O12 1.934523 1_555
Co12 O21 2.006077 1_554
Co12 O52 2.197204 1_555
Co12 O61 2.230812 1_554
Co13 O4 1.939884 1_555
Co13 O13 1.942528 1_555
Co13 O29 1.946587 1_555
Co13 O20 1.947979 1_555
Co13 O60 2.022519 1_555
Co13 O53 2.047979 1_555
Co14 O7 1.849195 1_554
Co14 O30 1.896488 1_555
Co14 O14 2.004338 1_555
Co14 O23 2.052038 1_554
Co14 O63 2.168412 1_554
Co14 O54 2.183859 1_555
Co15 O6 1.931032 1_555
Co15 O15 1.937473 1_555
Co15 O31 1.945795 1_555
Co15 O22 1.949397 1_555
Co15 O62 2.010786 1_555
Co15 O55 2.030839 1_555
Co16 O32 1.807206 1_555
Co16 O56 1.813017 1_555
Co16 O74 1.948025 1_545
Co16 O68 1.970771 1_455
Co17 O57 1.809507 1_555
Co17 O33 1.837287 1_555
Co17 O75 1.934934 1_545
Co17 O69 1.971398 1_455
Co18 O58 1.790792 1_555
Co18 O34 1.833141 1_555
Co18 O72 1.929848 1_555
Co18 O70 1.955467 1_455
Co19 O59 1.808899 1_555
Co19 O35 1.839623 1_555
Co19 O73 1.931084 1_555
Co19 O71 1.963445 1_455
Co20 O36 1.808466 1_555
Co20 O60 1.827090 1_555
Co20 O78 1.927350 1_545
Co20 O64 1.982221 1_555
Co21 O61 1.804618 1_555
Co21 O37 1.833447 1_555
Co21 O79 1.937705 1_545
Co21 O65 1.964647 1_555
Co22 O38 1.785697 1_555
Co22 O62 1.834549 1_555
Co22 O76 1.941094 1_555
Co22 O66 1.983210 1_555
Co23 O63 1.830382 1_555
Co23 O39 1.831156 1_555
Co23 O77 1.941342 1_555
Co23 O67 1.965206 1_555
Co24 O40 1.828398 1_555
Co24 O48 1.830526 1_555
Co24 O66 1.945274 1_555
Co24 O72 1.955994 1_555
Co25 O41 1.799131 1_555
Co25 O49 1.813026 1_555
Co25 O67 1.944286 1_555
Co25 O73 1.964726 1_555
Co26 O50 1.819833 1_555
Co26 O42 1.838116 1_555
Co26 O64 1.948060 1_565
Co26 O74 1.985093 1_555
Co27 O51 1.808890 1_555
Co27 O43 1.821745 1_555
Co27 O65 1.939014 1_565
Co27 O75 1.966335 1_555
Co28 O52 1.811340 1_555
Co28 O44 1.817168 1_555
Co28 O70 1.933460 1_555
Co28 O76 1.962746 1_555
Co29 O53 1.835168 1_555
Co29 O45 1.837284 1_555
Co29 O71 1.927409 1_555
Co29 O77 1.956015 1_555
Co30 O54 1.819677 1_555
Co30 O46 1.832245 1_555
Co30 O68 1.944797 1_565
Co30 O78 1.954321 1_555
Co31 O47 1.822478 1_555
Co31 O55 1.831512 1_555
Co31 O69 1.934603 1_565
Co31 O79 1.956821 1_555
