# generated using pymatgen
data_LiV2NiO6
_symmetry_space_group_name_H-M   'P 1'
_cell_length_a   5.65613484
_cell_length_b   7.04233710
_cell_length_c   6.76292104
_cell_angle_alpha   102.17403493
_cell_angle_beta   70.03376315
_cell_angle_gamma   105.25320095
_symmetry_Int_Tables_number   1
_chemical_formula_structural   LiV2NiO6
_chemical_formula_sum   'Li2 V4 Ni2 O12'
_cell_volume   242.08636797
_cell_formula_units_Z   2
loop_
 _symmetry_equiv_pos_site_id
 _symmetry_equiv_pos_as_xyz
  1  'x, y, z'
loop_
 _atom_site_type_symbol
 _atom_site_label
 _atom_site_symmetry_multiplicity
 _atom_site_fract_x
 _atom_site_fract_y
 _atom_site_fract_z
 _atom_site_occupancy
  Li  Li0  1  0.24552600  0.26233100  0.28747700  1
  Li  Li1  1  0.75451000  0.73772000  0.71248600  1
  V  V0  1  0.80211200  0.61680900  0.14269200  1
  V  V1  1  0.24352600  0.78261100  0.36094700  1
  V  V2  1  0.75650900  0.21732800  0.63901700  1
  V  V3  1  0.19804200  0.38326900  0.85730200  1
  Ni  Ni0  1  0.25377300  0.92002800  0.91343300  1
  Ni  Ni1  1  0.74572600  0.07982600  0.08673100  1
  O  O0  1  0.64743400  0.01453300  0.78832300  1
  O  O1  1  0.16032800  0.18798100  0.00101700  1
  O  O2  1  0.83970700  0.81205000  0.99892300  1
  O  O3  1  0.35244600  0.98547100  0.21172400  1
  O  O4  1  0.77403100  0.12533400  0.38474600  1
  O  O5  1  0.79426400  0.36185200  0.03052300  1
  O  O6  1  0.20582400  0.63823400  0.96953800  1
  O  O7  1  0.22607100  0.87460000  0.61517500  1
  O  O8  1  0.56730700  0.40128300  0.71835200  1
  O  O9  1  0.09299600  0.31882900  0.60743100  1
  O  O10  1  0.90705600  0.68119200  0.39259100  1
  O  O11  1  0.43281100  0.59872000  0.28157200  1
loop_
_geom_bond_atom_site_label_1
_geom_bond_atom_site_label_2
_geom_bond_distance
_geom_bond_site_symmetry_2
Li0 O9 2.031588 1_555
Li0 O1 2.082429 1_555
Li0 O3 2.101718 1_545
Li0 O11 2.329448 1_555
Li0 O4 2.488247 1_455
Li1 O10 2.031265 1_555
Li1 O2 2.082278 1_555
Li1 O0 2.101771 1_565
Li1 O8 2.329649 1_555
Li1 O7 2.488437 1_655
Ni0 O1 2.007633 1_566
Ni0 O7 2.028022 1_555
Ni0 O6 2.029737 1_555
Ni0 O0 2.070690 1_565
Ni0 O2 2.172824 1_455
Ni0 O3 2.198840 1_556
Ni1 O2 2.007707 1_544
Ni1 O4 2.027640 1_555
Ni1 O5 2.030961 1_555
Ni1 O3 2.068637 1_545
Ni1 O1 2.175647 1_655
Ni1 O0 2.198551 1_554
O0 V2 1.777355 1_555
O1 V3 1.774648 1_554
O2 V0 1.774791 1_556
O3 V1 1.777440 1_555
O4 V2 1.683489 1_555
O5 V0 1.791040 1_555
O5 V3 2.162657 1_654
O6 V3 1.791227 1_555
O6 V0 2.162244 1_456
O7 V1 1.683287 1_555
O8 V2 1.776380 1_555
O8 V3 1.957531 1_555
O9 V2 1.802704 1_455
O9 V3 1.906557 1_555
O10 V1 1.802471 1_655
O10 V0 1.906430 1_555
O11 V1 1.776318 1_555
O11 V0 1.957590 1_555
