# generated using pymatgen
data_Li7Mn2(CoO4)3
_symmetry_space_group_name_H-M   'P 1'
_cell_length_a   2.96158315
_cell_length_b   2.96158315
_cell_length_c   29.16680500
_cell_angle_alpha   90.00000000
_cell_angle_beta   90.00000000
_cell_angle_gamma   119.99998105
_symmetry_Int_Tables_number   1
_chemical_formula_structural   Li7Mn2(CoO4)3
_chemical_formula_sum   'Li7 Mn2 Co3 O12'
_cell_volume   221.54779614
_cell_formula_units_Z   1
loop_
 _symmetry_equiv_pos_site_id
 _symmetry_equiv_pos_as_xyz
  1  'x, y, z'
loop_
 _atom_site_type_symbol
 _atom_site_label
 _atom_site_symmetry_multiplicity
 _atom_site_fract_x
 _atom_site_fract_y
 _atom_site_fract_z
 _atom_site_occupancy
  Li  Li0  1  0.00000000  0.00000000  0.24689300  1
  Li  Li1  1  0.33333300  0.66666700  0.41464000  1
  Li  Li2  1  0.66666700  0.33333300  0.57940300  1
  Li  Li3  1  0.00000000  0.00000000  0.75412500  1
  Li  Li4  1  0.33333300  0.66666700  0.91233800  1
  Li  Li5  1  0.66666700  0.33333300  0.09287500  1
  Li  Li6  1  0.33333300  0.66666700  0.16632000  1
  Mn  Mn0  1  0.00000000  0.00000000  0.00014800  1
  Mn  Mn1  1  0.33333300  0.66666700  0.66632900  1
  Co  Co0  1  0.66666700  0.33333300  0.33337200  1
  Co  Co1  1  0.00000000  0.00000000  0.49965000  1
  Co  Co2  1  0.66666700  0.33333300  0.83332500  1
  O  O0  1  0.00000000  0.00000000  0.37205100  1
  O  O1  1  0.33333300  0.66666700  0.53744500  1
  O  O2  1  0.66666700  0.33333300  0.70410700  1
  O  O3  1  0.00000000  0.00000000  0.87056000  1
  O  O4  1  0.33333300  0.66666700  0.03526700  1
  O  O5  1  0.66666700  0.33333300  0.20775700  1
  O  O6  1  0.00000000  0.00000000  0.12495700  1
  O  O7  1  0.33333300  0.66666700  0.29712000  1
  O  O8  1  0.66666700  0.33333300  0.46458400  1
  O  O9  1  0.00000000  0.00000000  0.62838100  1
  O  O10  1  0.33333300  0.66666700  0.79633000  1
  O  O11  1  0.66666700  0.33333300  0.96202400  1
loop_
_geom_bond_atom_site_label_1
_geom_bond_atom_site_label_2
_geom_bond_distance
_geom_bond_site_symmetry_2
Li0 O5 2.055872 1_455
Li0 O5 2.055875 1_445
Li0 O5 2.055875 1_555
Li0 O7 2.251613 1_545
Li0 O7 2.251616 1_555
Li0 O7 2.251616 1_445
Li1 O0 2.113451 1_565
Li1 O0 2.113454 1_555
Li1 O0 2.113454 1_665
Li1 O8 2.246252 1_565
Li1 O8 2.246252 1_455
Li1 O8 2.246256 1_555
Li2 O1 2.102687 1_545
Li2 O1 2.102687 1_655
Li2 O1 2.102691 1_555
Li2 O9 2.228083 1_655
Li2 O9 2.228086 1_555
Li2 O9 2.228086 1_665
Li3 O10 2.106888 1_545
Li3 O10 2.106890 1_555
Li3 O10 2.106890 1_445
Li3 O2 2.247652 1_455
Li3 O2 2.247654 1_555
Li3 O2 2.247654 1_445
Li4 O3 2.099635 1_565
Li4 O3 2.099638 1_555
Li4 O3 2.099638 1_665
Li4 O11 2.241379 1_455
Li4 O11 2.241379 1_565
Li4 O11 2.241383 1_555
Li5 O6 1.949164 1_655
Li5 O6 1.949167 1_665
Li5 O6 1.949167 1_555
Li5 O4 2.397262 1_655
Li5 O4 2.397262 1_545
Li5 O4 2.397265 1_555
Li6 O6 2.092634 1_565
Li6 O6 2.092636 1_665
Li6 O6 2.092636 1_555
Li6 O5 2.093879 1_565
Li6 O5 2.093879 1_455
Li6 O5 2.093883 1_555
Mn0 O4 1.993204 1_545
Mn0 O4 1.993206 1_555
Mn0 O4 1.993206 1_445
Mn0 O11 2.039631 1_454
Mn0 O11 2.039634 1_554
Mn0 O11 2.039634 1_444
Mn1 O2 2.034148 1_565
Mn1 O2 2.034148 1_455
Mn1 O2 2.034152 1_555
Mn1 O9 2.036837 1_565
Mn1 O9 2.036840 1_555
Mn1 O9 2.036840 1_665
Co0 O7 2.010386 1_655
Co0 O7 2.010386 1_545
Co0 O7 2.010390 1_555
Co0 O0 2.048501 1_655
Co0 O0 2.048504 1_665
Co0 O0 2.048504 1_555
Co1 O8 1.992410 1_455
Co1 O8 1.992412 1_555
Co1 O8 1.992412 1_445
Co1 O1 2.034416 1_545
Co1 O1 2.034418 1_445
Co1 O1 2.034418 1_555
Co2 O10 2.021868 1_545
Co2 O10 2.021868 1_655
Co2 O10 2.021872 1_555
Co2 O3 2.025612 1_655
Co2 O3 2.025615 1_665
Co2 O3 2.025615 1_555
