# generated using pymatgen
data_HfNi3
_symmetry_space_group_name_H-M   'P 1'
_cell_length_a   5.26649501
_cell_length_b   5.26620126
_cell_length_c   4.29073700
_cell_angle_alpha   90.00000000
_cell_angle_beta   90.00000000
_cell_angle_gamma   119.99632423
_symmetry_Int_Tables_number   1
_chemical_formula_structural   HfNi3
_chemical_formula_sum   'Hf2 Ni6'
_cell_volume   103.06180419
_cell_formula_units_Z   2
loop_
 _symmetry_equiv_pos_site_id
 _symmetry_equiv_pos_as_xyz
  1  'x, y, z'
loop_
 _atom_site_type_symbol
 _atom_site_label
 _atom_site_symmetry_multiplicity
 _atom_site_fract_x
 _atom_site_fract_y
 _atom_site_fract_z
 _atom_site_occupancy
  Hf  Hf0  1  0.33337600  0.66666700  0.75000100  1
  Hf  Hf1  1  0.66666700  0.33334700  0.25000100  1
  Ni  Ni0  1  0.15714700  0.31431500  0.25000100  1
  Ni  Ni1  1  0.68570700  0.84286000  0.25000100  1
  Ni  Ni2  1  0.15713000  0.84286400  0.25000100  1
  Ni  Ni3  1  0.84276700  0.68556000  0.75000100  1
  Ni  Ni4  1  0.31441100  0.15721900  0.75000100  1
  Ni  Ni5  1  0.84279800  0.15716600  0.75000100  1
loop_
_geom_bond_atom_site_label_1
_geom_bond_atom_site_label_2
_geom_bond_distance
_geom_bond_site_symmetry_2
Hf0 Ni4 2.634342 1_555
Hf0 Ni3 2.634373 1_555
Hf0 Ni5 2.634532 1_565
Hf0 Ni4 2.634700 1_565
Hf0 Ni5 2.634937 1_455
Hf0 Ni3 2.634941 1_455
Hf0 Ni1 2.680503 1_556
Hf0 Ni1 2.680503 1_555
Hf0 Ni0 2.680506 1_556
Hf0 Ni0 2.680506 1_555
Hf0 Ni2 2.680729 1_555
Hf0 Ni2 2.680729 1_556
Hf1 Ni1 2.634498 1_555
Hf1 Ni1 2.634566 1_545
Hf1 Ni0 2.634648 1_655
Hf1 Ni2 2.634696 1_655
Hf1 Ni0 2.634707 1_555
Hf1 Ni2 2.634812 1_545
Hf1 Ni3 2.680126 1_555
Hf1 Ni3 2.680126 1_554
Hf1 Ni4 2.680298 1_554
Hf1 Ni4 2.680298 1_555
Hf1 Ni5 2.680370 1_555
Hf1 Ni5 2.680370 1_554
Ni0 Ni2 2.482711 1_545
Ni0 Ni1 2.482945 1_445
Ni0 Ni4 2.580332 1_554
Ni0 Ni4 2.580332 1_555
Ni0 Ni5 2.580370 1_454
Ni0 Ni5 2.580370 1_455
Ni0 Ni2 2.783490 1_555
Ni0 Ni1 2.783696 1_555
Ni1 Ni2 2.482736 1_655
Ni1 Ni5 2.580217 1_564
Ni1 Ni5 2.580217 1_565
Ni1 Ni3 2.580332 1_554
Ni1 Ni3 2.580332 1_555
Ni1 Ni2 2.783759 1_555
Ni2 Ni4 2.580341 1_564
Ni2 Ni4 2.580341 1_565
Ni2 Ni3 2.580406 1_454
Ni2 Ni3 2.580406 1_455
Ni3 Ni5 2.483490 1_565
Ni3 Ni4 2.484019 1_665
Ni3 Ni4 2.782622 1_555
Ni3 Ni5 2.782711 1_555
Ni4 Ni5 2.483608 1_455
Ni4 Ni5 2.782887 1_555
