# generated using pymatgen
data_Nd2MgSi2
_symmetry_space_group_name_H-M   'P 1'
_cell_length_a   7.39199706
_cell_length_b   7.39199706
_cell_length_c   4.37414958
_cell_angle_alpha   90.00000000
_cell_angle_beta   90.00000000
_cell_angle_gamma   90.00000000
_symmetry_Int_Tables_number   1
_chemical_formula_structural   Nd2MgSi2
_chemical_formula_sum   'Nd4 Mg2 Si4'
_cell_volume   239.01062151
_cell_formula_units_Z   2
loop_
 _symmetry_equiv_pos_site_id
 _symmetry_equiv_pos_as_xyz
  1  'x, y, z'
loop_
 _atom_site_type_symbol
 _atom_site_label
 _atom_site_symmetry_multiplicity
 _atom_site_fract_x
 _atom_site_fract_y
 _atom_site_fract_z
 _atom_site_occupancy
  Nd  Nd0  1  0.68016572  0.18016572  0.50000000  1
  Nd  Nd1  1  0.31983428  0.81983428  0.50000000  1
  Nd  Nd2  1  0.18016572  0.31983428  0.50000000  1
  Nd  Nd3  1  0.81983428  0.68016572  0.50000000  1
  Mg  Mg0  1  0.00000000  0.00000000  0.00000000  1
  Mg  Mg1  1  0.50000000  0.50000000  0.00000000  1
  Si  Si0  1  0.11446585  0.61446585  -0.00000000  1
  Si  Si1  1  0.88553415  0.38553415  0.00000000  1
  Si  Si2  1  0.61446585  0.88553415  -0.00000000  1
  Si  Si3  1  0.38553415  0.11446585  0.00000000  1
loop_
_geom_bond_atom_site_label_1
_geom_bond_atom_site_label_2
_geom_bond_distance
_geom_bond_site_symmetry_2
Nd0 Si1 3.064710 1_555
Nd0 Si1 3.064710 1_556
Nd0 Si2 3.124495 1_545
Nd0 Si3 3.124495 1_555
Nd0 Si2 3.124495 1_546
Nd0 Si3 3.124495 1_556
Nd1 Si0 3.064710 1_556
Nd1 Si0 3.064710 1_555
Nd1 Si3 3.124495 1_565
Nd1 Si2 3.124495 1_555
Nd1 Si3 3.124495 1_566
Nd1 Si2 3.124495 1_556
Nd2 Si3 3.064710 1_555
Nd2 Si3 3.064710 1_556
Nd2 Si0 3.124495 1_556
Nd2 Si0 3.124495 1_555
Nd2 Si1 3.124495 1_455
Nd2 Si1 3.124495 1_456
Nd3 Si2 3.064710 1_555
Nd3 Si2 3.064710 1_556
Nd3 Si0 3.124495 1_655
Nd3 Si0 3.124495 1_656
Nd3 Si1 3.124495 1_555
Nd3 Si1 3.124495 1_556
Mg0 Si1 2.972824 1_455
Mg0 Si0 2.972824 1_545
Mg0 Si2 2.972824 1_445
Mg0 Si3 2.972824 1_555
Mg1 Si3 2.972824 1_555
Mg1 Si2 2.972824 1_555
Mg1 Si1 2.972824 1_555
Mg1 Si0 2.972824 1_555
Si0 Si1 2.393221 1_455
Si2 Si3 2.393221 1_565
