# generated using pymatgen
data_Li7Mn2(CoO4)3
_symmetry_space_group_name_H-M   'P 1'
_cell_length_a   2.97332600
_cell_length_b   6.43077623
_cell_length_c   11.95570625
_cell_angle_alpha   103.00712510
_cell_angle_beta   93.87824139
_cell_angle_gamma   103.33892743
_symmetry_Int_Tables_number   1
_chemical_formula_structural   Li7Mn2(CoO4)3
_chemical_formula_sum   'Li7 Mn2 Co3 O12'
_cell_volume   214.99780231
_cell_formula_units_Z   1
loop_
 _symmetry_equiv_pos_site_id
 _symmetry_equiv_pos_as_xyz
  1  'x, y, z'
loop_
 _atom_site_type_symbol
 _atom_site_label
 _atom_site_symmetry_multiplicity
 _atom_site_fract_x
 _atom_site_fract_y
 _atom_site_fract_z
 _atom_site_occupancy
  Li  Li0  1  0.99627600  0.99876500  0.25239200  1
  Li  Li1  1  0.32514100  0.65780000  0.58378000  1
  Li  Li2  1  0.66679700  0.33882200  0.41681800  1
  Li  Li3  1  0.00414800  0.99714600  0.74943600  1
  Li  Li4  1  0.67267700  0.34881300  0.91611100  1
  Li  Li5  1  0.33689300  0.66030400  0.07594700  1
  Li  Li6  1  0.32291000  0.66150500  0.83871200  1
  Mn  Mn0  1  0.99869100  0.99036600  0.99565000  1
  Mn  Mn1  1  0.99780500  0.00139600  0.50042100  1
  Co  Co0  1  0.33544500  0.66546100  0.33171800  1
  Co  Co1  1  0.66604500  0.34775500  0.67476200  1
  Co  Co2  1  0.67904300  0.33573200  0.16545400  1
  O  O0  1  0.53197400  0.01466900  0.11263000  1
  O  O1  1  0.80981100  0.67870100  0.45331400  1
  O  O2  1  0.14716000  0.34662600  0.28618600  1
  O  O3  1  0.48551900  0.02185100  0.62504200  1
  O  O4  1  0.13621400  0.33070900  0.78141300  1
  O  O5  1  0.83900200  0.69044200  0.96430100  1
  O  O6  1  0.51664400  0.98584500  0.37435600  1
  O  O7  1  0.82287500  0.63387400  0.70084900  1
  O  O8  1  0.18288600  0.31972900  0.54580900  1
  O  O9  1  0.47949200  0.00162800  0.89150200  1
  O  O10  1  0.19369000  0.32061600  0.04859700  1
  O  O11  1  0.85286300  0.65144400  0.21479900  1
loop_
_geom_bond_atom_site_label_1
_geom_bond_atom_site_label_2
_geom_bond_distance
_geom_bond_site_symmetry_2
Li0 O6 2.082238 1_655
Li0 O6 2.109047 1_555
Li0 O11 2.110753 1_555
Li0 O2 2.115255 1_665
Li0 O0 2.130356 1_565
Li0 O0 2.387753 1_665
Li1 O7 2.023527 1_555
Li1 O8 2.053526 1_555
Li1 O7 2.118156 1_455
Li1 O1 2.159851 1_455
Li1 O1 2.199288 1_555
Li1 O3 2.210163 1_565
Li2 O1 2.065231 1_555
Li2 O2 2.138586 1_555
Li2 O6 2.143027 1_545
Li2 O8 2.144793 1_655
Li2 O8 2.183458 1_555
Li2 O2 2.187615 1_655
Li3 O4 2.030653 1_565
Li3 O9 2.125495 1_565
Li3 O3 2.127007 1_465
Li3 O3 2.138920 1_565
Li3 O7 2.202543 1_455
Li3 O9 2.382515 1_465
Li4 O5 2.072057 1_555
Li4 O9 2.119199 1_555
Li4 O4 2.152600 1_555
Li4 O4 2.190074 1_655
Li4 O10 2.206498 1_656
Li4 O10 2.210296 1_556
Li5 O5 1.998092 1_454
Li5 O10 2.071359 1_555
Li5 O5 2.073797 1_554
Li5 O0 2.151208 1_565
Li5 O11 2.202520 1_555
Li5 O11 2.271179 1_455
Li6 O4 2.012567 1_555
Li6 O5 2.018577 1_555
Li6 O9 2.065949 1_565
Li6 O7 2.091302 1_455
Li6 O5 2.156235 1_455
Li6 O7 2.297749 1_555
Mn0 O5 1.820420 1_555
Mn0 O9 1.941904 1_565
Mn0 O9 1.957801 1_665
Mn0 O0 1.995477 1_666
Mn0 O10 2.006057 1_666
Mn0 O0 2.042152 1_566
Mn1 O8 1.930745 1_655
Mn1 O1 1.957573 1_545
Mn1 O3 1.967632 1_655
Mn1 O6 1.975562 1_545
Mn1 O3 2.206478 1_555
Mn1 O6 2.231447 1_645
Co0 O11 1.906108 1_455
Co0 O1 1.929129 1_555
Co0 O2 1.934014 1_555
Co0 O6 1.942400 1_555
Co0 O11 2.151074 1_555
Co0 O1 2.208238 1_455
Co1 O7 1.739628 1_555
Co1 O4 1.866728 1_655
Co1 O3 1.977592 1_555
Co1 O8 1.982178 1_555
Co1 O4 2.091551 1_555
Co1 O8 2.257026 1_655
Co2 O10 1.909276 1_555
Co2 O2 1.914006 1_655
Co2 O11 1.916398 1_555
Co2 O0 1.952453 1_555
Co2 O10 2.144670 1_655
Co2 O2 2.214460 1_555
