# generated using pymatgen
data_Ba3MnSb2O9
_symmetry_space_group_name_H-M   'P 1'
_cell_length_a   5.98942656
_cell_length_b   5.98942656
_cell_length_c   14.82904064
_cell_angle_alpha   89.42193428
_cell_angle_beta   89.42193428
_cell_angle_gamma   119.92876848
_symmetry_Int_Tables_number   1
_chemical_formula_structural   Ba3MnSb2O9
_chemical_formula_sum   'Ba6 Mn2 Sb4 O18'
_cell_volume   460.93237630
_cell_formula_units_Z   2
loop_
 _symmetry_equiv_pos_site_id
 _symmetry_equiv_pos_as_xyz
  1  'x, y, z'
loop_
 _atom_site_type_symbol
 _atom_site_label
 _atom_site_symmetry_multiplicity
 _atom_site_fract_x
 _atom_site_fract_y
 _atom_site_fract_z
 _atom_site_occupancy
  Ba  Ba0  1  0.33912900  0.67370600  0.41191600  1
  Ba  Ba1  1  0.32629400  0.66087100  0.08808400  1
  Ba  Ba2  1  0.66087100  0.32629400  0.58808400  1
  Ba  Ba3  1  0.67370600  0.33912900  0.91191600  1
  Ba  Ba4  1  0.99732100  0.00267900  0.25000000  1
  Ba  Ba5  1  0.00267900  0.99732100  0.75000000  1
  Mn  Mn0  1  0.00000000  0.00000000  0.00000000  1
  Mn  Mn1  1  0.00000000  0.00000000  0.50000000  1
  Sb  Sb0  1  0.67791100  0.34559300  0.34719400  1
  Sb  Sb1  1  0.65440700  0.32208900  0.15280600  1
  Sb  Sb2  1  0.34559300  0.67791100  0.84719400  1
  Sb  Sb3  1  0.32208900  0.65440700  0.65280600  1
  O  O0  1  0.85439900  0.68284500  0.40509400  1
  O  O1  1  0.31715500  0.14560100  0.09490600  1
  O  O2  1  0.14560100  0.31715500  0.59490600  1
  O  O3  1  0.68284500  0.85439900  0.90509400  1
  O  O4  1  0.36827700  0.19681000  0.42494200  1
  O  O5  1  0.80319000  0.63172300  0.07505800  1
  O  O6  1  0.63172300  0.80319000  0.57505800  1
  O  O7  1  0.19681000  0.36827700  0.92494200  1
  O  O8  1  0.85555600  0.19689100  0.41399300  1
  O  O9  1  0.80310900  0.14444400  0.08600700  1
  O  O10  1  0.14444400  0.80310900  0.58600700  1
  O  O11  1  0.19689100  0.85555600  0.91399300  1
  O  O12  1  0.48156900  0.51843100  0.75000000  1
  O  O13  1  0.51843100  0.48156900  0.25000000  1
  O  O14  1  0.03993200  0.51904000  0.75787700  1
  O  O15  1  0.48096000  0.96006800  0.74212300  1
  O  O16  1  0.96006800  0.48096000  0.24212300  1
  O  O17  1  0.51904000  0.03993200  0.25787700  1
loop_
_geom_bond_atom_site_label_1
_geom_bond_atom_site_label_2
_geom_bond_distance
_geom_bond_site_symmetry_2
Ba0 O8 2.878940 1_455
Ba0 O6 2.879680 1_555
Ba0 O0 2.933685 1_455
Ba0 O17 2.946357 1_565
Ba0 O4 2.951874 1_555
Ba0 O4 3.057966 1_565
Ba0 O0 3.059855 1_555
Ba0 O13 3.078898 1_555
Ba0 O10 3.083259 1_555
Ba0 O8 3.117661 1_565
Ba0 O16 3.222664 1_455
Ba0 O2 3.258390 1_555
Ba1 O9 2.878940 1_565
Ba1 O7 2.879680 1_554
Ba1 O1 2.933685 1_565
Ba1 O16 2.946357 1_455
Ba1 O5 2.951874 1_555
Ba1 O5 3.057966 1_455
Ba1 O1 3.059855 1_555
Ba1 O13 3.078898 1_555
Ba1 O11 3.083259 1_554
Ba1 O9 3.117661 1_455
Ba1 O17 3.222664 1_565
Ba1 O3 3.258390 1_554
Ba2 O10 2.878940 1_655
Ba2 O4 2.879680 1_555
Ba2 O2 2.933685 1_655
Ba2 O15 2.946357 1_545
Ba2 O6 2.951874 1_555
Ba2 O6 3.057966 1_545
Ba2 O2 3.059855 1_555
Ba2 O12 3.078898 1_555
Ba2 O8 3.083259 1_555
Ba2 O10 3.117661 1_545
Ba2 O14 3.222664 1_655
Ba2 O0 3.258390 1_555
Ba3 O11 2.878940 1_545
Ba3 O5 2.879680 1_556
Ba3 O3 2.933685 1_545
Ba3 O14 2.946357 1_655
Ba3 O7 2.951874 1_555
Ba3 O7 3.057966 1_655
Ba3 O3 3.059855 1_555
Ba3 O12 3.078898 1_555
Ba3 O9 3.083259 1_556
Ba3 O11 3.117661 1_655
Ba3 O15 3.222664 1_545
Ba3 O1 3.258390 1_556
Ba4 O0 2.815492 1_545
Ba4 O1 2.815492 1_655
Ba4 O17 2.983470 1_555
Ba4 O16 2.983470 1_555
Ba4 O8 2.998155 1_555
Ba4 O9 2.998155 1_555
Ba4 O13 3.005919 1_655
Ba4 O13 3.005919 1_545
Ba4 O16 3.023237 1_545
Ba4 O17 3.023237 1_655
Ba4 O4 3.258489 1_655
Ba4 O5 3.258489 1_545
Ba5 O3 2.815492 1_455
Ba5 O2 2.815492 1_565
Ba5 O14 2.983470 1_555
Ba5 O15 2.983470 1_555
Ba5 O11 2.998155 1_555
Ba5 O10 2.998155 1_555
Ba5 O12 3.005919 1_565
Ba5 O12 3.005919 1_455
Ba5 O15 3.023237 1_455
Ba5 O14 3.023237 1_565
Ba5 O7 3.258489 1_565
Ba5 O6 3.258489 1_455
Mn0 O1 2.185243 1_555
Mn0 O3 2.185243 1_444
Mn0 O9 2.185341 1_455
Mn0 O11 2.185341 1_544
Mn0 O7 2.196192 1_554
Mn0 O5 2.196192 1_445
Mn1 O2 2.185243 1_555
Mn1 O0 2.185243 1_445
Mn1 O8 2.185341 1_455
Mn1 O10 2.185341 1_545
Mn1 O4 2.196192 1_555
Mn1 O6 2.196192 1_445
O0 Sb0 1.964041 1_555
O1 Sb1 1.964041 1_555
O2 Sb3 1.964041 1_555
O3 Sb2 1.964041 1_555
O4 Sb0 1.962064 1_555
O5 Sb1 1.962064 1_555
O6 Sb3 1.962064 1_555
O7 Sb2 1.962064 1_555
O8 Sb0 1.963567 1_555
O9 Sb1 1.963567 1_555
O10 Sb3 1.963567 1_555
O11 Sb2 1.963567 1_555
O12 Sb2 2.105551 1_555
O12 Sb3 2.105551 1_555
O13 Sb0 2.105551 1_555
O13 Sb1 2.105551 1_555
O14 Sb2 2.085035 1_555
O14 Sb3 2.120178 1_555
O15 Sb3 2.085035 1_555
O15 Sb2 2.120178 1_555
O16 Sb1 2.085035 1_555
O16 Sb0 2.120178 1_555
O17 Sb0 2.085035 1_555
O17 Sb1 2.120178 1_555
