# generated using pymatgen
data_Ca2CoIrO6
_symmetry_space_group_name_H-M   'P 1'
_cell_length_a   7.82363901
_cell_length_b   7.82599765
_cell_length_c   9.42746865
_cell_angle_alpha   113.49393780
_cell_angle_beta   113.48436066
_cell_angle_gamma   92.16138801
_symmetry_Int_Tables_number   1
_chemical_formula_structural   Ca2CoIrO6
_chemical_formula_sum   'Ca8 Co4 Ir4 O24'
_cell_volume   472.07882302
_cell_formula_units_Z   4
loop_
 _symmetry_equiv_pos_site_id
 _symmetry_equiv_pos_as_xyz
  1  'x, y, z'
loop_
 _atom_site_type_symbol
 _atom_site_label
 _atom_site_symmetry_multiplicity
 _atom_site_fract_x
 _atom_site_fract_y
 _atom_site_fract_z
 _atom_site_occupancy
  Ca  Ca0  1  0.08814900  0.14644200  0.24853400  1
  Ca  Ca1  1  0.58626000  0.64621600  0.24859600  1
  Ca  Ca2  1  0.60302000  0.16152400  0.24978500  1
  Ca  Ca3  1  0.10376000  0.66438300  0.25205100  1
  Ca  Ca4  1  0.89838900  0.33772400  0.74932100  1
  Ca  Ca5  1  0.39577900  0.83680500  0.74861500  1
  Ca  Ca6  1  0.41207600  0.35324700  0.75037000  1
  Ca  Ca7  1  0.91264600  0.85229400  0.75176900  1
  Co  Co0  1  0.74977400  0.24932200  0.99988400  1
  Co  Co1  1  0.49997200  0.50000000  0.50141900  1
  Co  Co2  1  0.25000400  0.74916900  0.00001300  1
  Co  Co3  1  0.00041600  0.99782300  0.49989300  1
  Ir  Ir0  1  0.99858100  0.49875400  0.49886900  1
  Ir  Ir1  1  0.50151000  0.00102600  0.50116600  1
  Ir  Ir2  1  0.24962000  0.24923000  0.99937800  1
  Ir  Ir3  1  0.74932900  0.74873400  0.99932000  1
  O  O0  1  0.06049000  0.59035400  0.74451500  1
  O  O1  1  0.55777700  0.08754400  0.74371500  1
  O  O2  1  0.16173900  0.19356300  0.75624100  1
  O  O3  1  0.66079600  0.69369400  0.75581000  1
  O  O4  1  0.33976700  0.31080100  0.24449400  1
  O  O5  1  0.83907300  0.81113900  0.24429100  1
  O  O6  1  0.43836200  0.91075700  0.25588400  1
  O  O7  1  0.94219300  0.41189000  0.25544100  1
  O  O8  1  0.51713900  0.32371100  0.04722300  1
  O  O9  1  0.01747300  0.82301700  0.04735700  1
  O  O10  1  0.92694600  0.23350800  0.45317100  1
  O  O11  1  0.42519100  0.73333100  0.45245200  1
  O  O12  1  0.57609000  0.26741200  0.54802200  1
  O  O13  1  0.07302200  0.76675600  0.54744300  1
  O  O14  1  0.98283900  0.17517000  0.95230900  1
  O  O15  1  0.48220900  0.67529900  0.95252800  1
  O  O16  1  0.73533400  0.52398500  0.44730100  1
  O  O17  1  0.23577400  0.02586900  0.45008600  1
  O  O18  1  0.72522800  0.01558200  0.05309000  1
  O  O19  1  0.22459800  0.51375500  0.05283800  1
  O  O20  1  0.77352500  0.48328600  0.94540900  1
  O  O21  1  0.27557900  0.98637200  0.94829800  1
  O  O22  1  0.76530800  0.97485700  0.55034200  1
  O  O23  1  0.26426200  0.47565600  0.55275800  1
loop_
_geom_bond_atom_site_label_1
_geom_bond_atom_site_label_2
_geom_bond_distance
_geom_bond_site_symmetry_2
Ca0 O4 2.332173 1_555
Ca0 O9 2.353835 1_545
Ca0 O17 2.365899 1_555
Ca0 O7 2.398771 1_455
Ca0 O18 2.571443 1_455
Ca0 O10 2.594737 1_455
Ca0 O14 2.684966 1_454
Ca0 O23 2.730084 1_555
Ca1 O5 2.343686 1_555
Ca1 O8 2.350581 1_555
Ca1 O16 2.357135 1_555
Ca1 O6 2.400078 1_555
Ca1 O19 2.564808 1_555
Ca1 O11 2.587774 1_555
Ca1 O15 2.686020 1_554
Ca1 O22 2.718158 1_555
Ca2 O18 2.337517 1_555
Ca2 O6 2.339348 1_545
Ca2 O10 2.361076 1_555
Ca2 O4 2.399018 1_555
Ca2 O16 2.572198 1_555
Ca2 O8 2.585252 1_555
Ca2 O12 2.695170 1_555
Ca2 O21 2.710311 1_544
Ca3 O7 2.323270 1_455
Ca3 O11 2.341536 1_555
Ca3 O19 2.354682 1_555
Ca3 O5 2.395486 1_455
Ca3 O17 2.566555 1_565
Ca3 O9 2.579915 1_555
Ca3 O13 2.687792 1_555
Ca3 O20 2.746876 1_454
Ca4 O0 2.333961 1_655
Ca4 O12 2.347626 1_555
Ca4 O20 2.348105 1_555
Ca4 O2 2.376774 1_655
Ca4 O22 2.576902 1_545
Ca4 O14 2.591081 1_555
Ca4 O10 2.684292 1_555
Ca4 O19 2.714871 1_656
Ca5 O1 2.321717 1_565
Ca5 O13 2.350212 1_555
Ca5 O21 2.352740 1_555
Ca5 O3 2.383608 1_555
Ca5 O23 2.561617 1_555
Ca5 O15 2.591540 1_555
Ca5 O11 2.688451 1_555
Ca5 O18 2.733078 1_566
Ca6 O2 2.314652 1_555
Ca6 O23 2.348445 1_555
Ca6 O15 2.349052 1_555
Ca6 O1 2.399787 1_555
Ca6 O20 2.561287 1_555
Ca6 O12 2.594437 1_555
Ca6 O8 2.694030 1_556
Ca6 O17 2.705423 1_555
Ca7 O3 2.310304 1_555
Ca7 O14 2.349412 1_565
Ca7 O22 2.376094 1_555
Ca7 O0 2.382218 1_655
Ca7 O21 2.574611 1_655
Ca7 O13 2.587381 1_655
Ca7 O9 2.681843 1_656
Ca7 O16 2.728089 1_555
Co0 O7 2.051930 1_556
Co0 O1 2.054052 1_555
Co0 O8 2.090652 1_556
Co0 O14 2.094486 1_555
Co0 O18 2.101540 1_556
Co0 O20 2.109731 1_555
Co1 O3 2.045782 1_555
Co1 O4 2.052107 1_555
Co1 O12 2.090879 1_555
Co1 O11 2.104111 1_555
Co1 O23 2.104677 1_555
Co1 O16 2.117848 1_555
Co2 O0 2.042715 1_554
Co2 O6 2.045425 1_555
Co2 O15 2.087106 1_554
Co2 O9 2.088934 1_555
Co2 O19 2.112952 1_555
Co2 O21 2.120165 1_554
Co3 O5 2.040626 1_455
Co3 O2 2.061930 1_565
Co3 O13 2.077146 1_555
Co3 O22 2.093407 1_455
Co3 O17 2.097625 1_565
Co3 O10 2.110077 1_465
Ir0 O10 1.953330 1_555
Ir0 O16 1.956091 1_555
Ir0 O7 1.962138 1_555
Ir0 O0 1.966654 1_655
Ir0 O23 1.967550 1_655
Ir0 O13 1.969120 1_655
Ir1 O1 1.954921 1_555
Ir1 O12 1.962218 1_555
Ir1 O6 1.962394 1_545
Ir1 O22 1.965043 1_545
Ir1 O11 1.968850 1_545
Ir1 O17 1.974649 1_555
Ir2 O21 1.955645 1_545
Ir2 O2 1.960032 1_555
Ir2 O14 1.963355 1_455
Ir2 O19 1.963486 1_556
Ir2 O4 1.963967 1_556
Ir2 O8 1.967154 1_556
Ir3 O5 1.961528 1_556
Ir3 O3 1.963985 1_555
Ir3 O15 1.965930 1_555
Ir3 O20 1.968311 1_555
Ir3 O9 1.971036 1_656
Ir3 O18 1.978780 1_566
