# generated using pymatgen
data_Yb2B6Os
_symmetry_space_group_name_H-M   'P 1'
_cell_length_a   3.66681200
_cell_length_b   9.08505300
_cell_length_c   11.35591600
_cell_angle_alpha   90.00000000
_cell_angle_beta   90.00000000
_cell_angle_gamma   90.00000000
_symmetry_Int_Tables_number   1
_chemical_formula_structural   Yb2B6Os
_chemical_formula_sum   'Yb8 B24 Os4'
_cell_volume   378.30168923
_cell_formula_units_Z   4
loop_
 _symmetry_equiv_pos_site_id
 _symmetry_equiv_pos_as_xyz
  1  'x, y, z'
loop_
 _atom_site_type_symbol
 _atom_site_label
 _atom_site_symmetry_multiplicity
 _atom_site_fract_x
 _atom_site_fract_y
 _atom_site_fract_z
 _atom_site_occupancy
  Yb  Yb0  1  0.00000000  0.32732700  0.41275700  1
  Yb  Yb1  1  0.00000000  0.67267300  0.58724300  1
  Yb  Yb2  1  0.00000000  0.82732700  0.08724300  1
  Yb  Yb3  1  0.00000000  0.17267300  0.91275700  1
  Yb  Yb4  1  0.00000000  0.94466800  0.36932100  1
  Yb  Yb5  1  0.00000000  0.05533200  0.63067900  1
  Yb  Yb6  1  0.00000000  0.44466800  0.13067900  1
  Yb  Yb7  1  0.00000000  0.55533200  0.86932100  1
  B  B0  1  0.50000000  0.55427900  0.43292400  1
  B  B1  1  0.50000000  0.44572100  0.56707600  1
  B  B2  1  0.50000000  0.05427900  0.06707600  1
  B  B3  1  0.50000000  0.94572100  0.93292400  1
  B  B4  1  0.50000000  0.75124600  0.41857100  1
  B  B5  1  0.50000000  0.24875400  0.58142900  1
  B  B6  1  0.50000000  0.25124600  0.08142900  1
  B  B7  1  0.50000000  0.74875400  0.91857100  1
  B  B8  1  0.50000000  0.79534500  0.26437900  1
  B  B9  1  0.50000000  0.20465500  0.73562100  1
  B  B10  1  0.50000000  0.29534500  0.23562100  1
  B  B11  1  0.50000000  0.70465500  0.76437900  1
  B  B12  1  0.50000000  0.63347100  0.18522900  1
  B  B13  1  0.50000000  0.36652900  0.81477100  1
  B  B14  1  0.50000000  0.13347100  0.31477100  1
  B  B15  1  0.50000000  0.86652900  0.68522900  1
  B  B16  1  0.50000000  0.98446300  0.21200800  1
  B  B17  1  0.50000000  0.01553700  0.78799200  1
  B  B18  1  0.50000000  0.48446300  0.28799200  1
  B  B19  1  0.50000000  0.51553700  0.71200800  1
  B  B20  1  0.50000000  0.59676800  0.02625100  1
  B  B21  1  0.50000000  0.40323200  0.97374900  1
  B  B22  1  0.50000000  0.09676800  0.47374900  1
  B  B23  1  0.50000000  0.90323200  0.52625100  1
  Os  Os0  1  0.00000000  0.64251900  0.32046600  1
  Os  Os1  1  0.00000000  0.35748100  0.67953400  1
  Os  Os2  1  0.00000000  0.14251900  0.17953400  1
  Os  Os3  1  0.00000000  0.85748100  0.82046600  1
loop_
_geom_bond_atom_site_label_1
_geom_bond_atom_site_label_2
_geom_bond_distance
_geom_bond_site_symmetry_2
B0 B18 1.763828 1_555
B0 B4 1.796863 1_555
B0 B1 1.814801 1_555
B0 Os0 2.373802 1_655
B0 Os0 2.373802 1_555
B0 Yb1 2.754878 1_655
B0 Yb1 2.754878 1_555
B0 Yb0 2.768598 1_655
B0 Yb0 2.768598 1_555
B1 B19 1.763828 1_555
B1 B5 1.796863 1_555
B1 Os1 2.373802 1_655
B1 Os1 2.373802 1_555
B1 Yb0 2.754878 1_655
B1 Yb0 2.754878 1_555
B1 Yb1 2.768598 1_555
B1 Yb1 2.768598 1_655
B2 B6 1.796863 1_555
B2 B3 1.814801 1_544
B2 Os2 2.373802 1_555
B2 Os2 2.373802 1_655
B2 Yb3 2.754878 1_554
B2 Yb3 2.754878 1_654
B2 Yb2 2.768598 1_545
B2 Yb2 2.768598 1_645
B3 B7 1.796863 1_555
B3 Os3 2.373802 1_555
B3 Os3 2.373802 1_655
B3 Yb2 2.754878 1_556
B3 Yb2 2.754878 1_656
B3 Yb3 2.768598 1_665
B3 Yb3 2.768598 1_565
B4 B8 1.796242 1_555
B4 Os0 2.361835 1_655
B4 Os0 2.361835 1_555
B4 Yb4 2.600403 1_555
B4 Yb4 2.600403 1_655
B4 Yb1 2.745869 1_655
B4 Yb1 2.745869 1_555
B5 B9 1.796242 1_555
B5 Os1 2.361835 1_655
B5 Os1 2.361835 1_555
B5 Yb5 2.600403 1_555
B5 Yb5 2.600403 1_655
B5 Yb0 2.745869 1_555
B5 Yb0 2.745869 1_655
B6 Os2 2.361835 1_655
B6 Os2 2.361835 1_555
B6 Yb6 2.600403 1_655
B6 Yb6 2.600403 1_555
B6 Yb3 2.745869 1_554
B6 Yb3 2.745869 1_654
B7 Os3 2.361835 1_655
B7 Os3 2.361835 1_555
B7 Yb7 2.600403 1_555
B7 Yb7 2.600403 1_655
B7 Yb2 2.745869 1_556
B7 Yb2 2.745869 1_656
B8 Os0 2.386375 1_555
B8 Os0 2.386375 1_655
B8 Yb4 2.573313 1_555
B8 Yb4 2.573313 1_655
B8 Yb2 2.737170 1_555
B8 Yb2 2.737170 1_655
B9 Os1 2.386375 1_655
B9 Os1 2.386375 1_555
B9 Yb5 2.573313 1_655
B9 Yb5 2.573313 1_555
B9 Yb3 2.737170 1_655
B9 Yb3 2.737170 1_555
B10 B14 1.723555 1_555
B10 B6 1.796242 1_555
B10 B18 1.818164 1_555
B10 Os2 2.386375 1_655
B10 Os2 2.386375 1_555
B10 Yb6 2.573313 1_655
B10 Yb6 2.573313 1_555
B10 Yb0 2.737170 1_555
B10 Yb0 2.737170 1_655
B11 B15 1.723555 1_555
B11 B7 1.796242 1_555
B11 B19 1.818164 1_555
B11 Os3 2.386375 1_655
B11 Os3 2.386375 1_555
B11 Yb7 2.573313 1_655
B11 Yb7 2.573313 1_555
B11 Yb1 2.737170 1_655
B11 Yb1 2.737170 1_555
B12 B8 1.723555 1_555
B12 B18 1.787300 1_555
B12 B20 1.835877 1_555
B12 Os0 2.393038 1_555
B12 Os0 2.393038 1_655
B12 Yb6 2.585985 1_555
B12 Yb6 2.585985 1_655
B12 Yb2 2.775126 1_555
B12 Yb2 2.775126 1_655
B13 B9 1.723555 1_555
B13 B19 1.787300 1_555
B13 B21 1.835877 1_555
B13 Os1 2.393038 1_655
B13 Os1 2.393038 1_555
B13 Yb7 2.585985 1_555
B13 Yb7 2.585985 1_655
B13 Yb3 2.775126 1_555
B13 Yb3 2.775126 1_655
B14 B16 1.787300 1_545
B14 B22 1.835877 1_555
B14 Os2 2.393038 1_555
B14 Os2 2.393038 1_655
B14 Yb4 2.585985 1_545
B14 Yb4 2.585985 1_645
B14 Yb0 2.775126 1_555
B14 Yb0 2.775126 1_655
B15 B17 1.787300 1_565
B15 B23 1.835877 1_555
B15 Os3 2.393038 1_555
B15 Os3 2.393038 1_655
B15 Yb5 2.585985 1_665
B15 Yb5 2.585985 1_565
B15 Yb1 2.775126 1_655
B15 Yb1 2.775126 1_555
B16 B2 1.763828 1_565
B16 B8 1.818164 1_555
B16 Os2 2.357820 1_665
B16 Os2 2.357820 1_565
B16 Yb4 2.585233 1_555
B16 Yb4 2.585233 1_655
B16 Yb2 2.721538 1_655
B16 Yb2 2.721538 1_555
B17 B3 1.763828 1_545
B17 B9 1.818164 1_555
B17 Os3 2.357820 1_545
B17 Os3 2.357820 1_645
B17 Yb5 2.585233 1_555
B17 Yb5 2.585233 1_655
B17 Yb3 2.721538 1_555
B17 Yb3 2.721538 1_655
B18 Os0 2.357820 1_555
B18 Os0 2.357820 1_655
B18 Yb6 2.585233 1_655
B18 Yb6 2.585233 1_555
B18 Yb0 2.721538 1_555
B18 Yb0 2.721538 1_655
B19 Os1 2.357820 1_655
B19 Os1 2.357820 1_555
B19 Yb7 2.585233 1_555
B19 Yb7 2.585233 1_655
B19 Yb1 2.721538 1_655
B19 Yb1 2.721538 1_555
B20 B7 1.844414 1_554
B20 B21 1.856618 1_554
B20 Yb6 2.584018 1_555
B20 Yb6 2.584018 1_655
B20 Yb7 2.584359 1_654
B20 Yb7 2.584359 1_554
B20 Yb2 2.868557 1_655
B20 Yb2 2.868557 1_555
B21 B6 1.844414 1_556
B21 Yb7 2.584018 1_555
B21 Yb7 2.584018 1_655
B21 Yb6 2.584359 1_556
B21 Yb6 2.584359 1_656
B21 Yb3 2.868557 1_555
B21 Yb3 2.868557 1_655
B22 B5 1.844414 1_555
B22 B23 1.856618 1_545
B22 Yb4 2.584018 1_645
B22 Yb4 2.584018 1_545
B22 Yb5 2.584359 1_555
B22 Yb5 2.584359 1_655
B22 Yb0 2.868557 1_555
B22 Yb0 2.868557 1_655
B23 B4 1.844414 1_555
B23 Yb5 2.584018 1_665
B23 Yb5 2.584018 1_565
B23 Yb4 2.584359 1_555
B23 Yb4 2.584359 1_655
B23 Yb1 2.868557 1_655
B23 Yb1 2.868557 1_555
Os0 Yb4 2.800543 1_555
Os0 Yb6 2.806398 1_555
Os0 Yb1 3.041858 1_555
Os0 Yb0 3.049302 1_555
Os0 Yb2 3.135818 1_555
Os1 Yb5 2.800543 1_555
Os1 Yb7 2.806398 1_555
Os1 Yb0 3.041858 1_555
Os1 Yb1 3.049302 1_555
Os1 Yb3 3.135818 1_555
Os2 Yb6 2.800543 1_555
Os2 Yb4 2.806398 1_545
Os2 Yb3 3.041858 1_554
Os2 Yb2 3.049302 1_545
Os2 Yb0 3.135818 1_555
Os3 Yb7 2.800543 1_555
Os3 Yb5 2.806398 1_565
Os3 Yb2 3.041858 1_556
Os3 Yb3 3.049302 1_565
Os3 Yb1 3.135818 1_555
