# generated using pymatgen
data_Na4MgAl2(Si3O8)3
_symmetry_space_group_name_H-M   'P 1'
_cell_length_a   5.30582573
_cell_length_b   25.80646034
_cell_length_c   20.97406347
_cell_angle_alpha   17.83121845
_cell_angle_beta   73.70767186
_cell_angle_gamma   76.82029828
_symmetry_Int_Tables_number   1
_chemical_formula_structural   Na4MgAl2(Si3O8)3
_chemical_formula_sum   'Na8 Mg2 Al4 Si18 O48'
_cell_volume   836.60557986
_cell_formula_units_Z   2
loop_
 _symmetry_equiv_pos_site_id
 _symmetry_equiv_pos_as_xyz
  1  'x, y, z'
loop_
 _atom_site_type_symbol
 _atom_site_label
 _atom_site_symmetry_multiplicity
 _atom_site_fract_x
 _atom_site_fract_y
 _atom_site_fract_z
 _atom_site_occupancy
  Na  Na0  1  0.25041500  0.20152000  0.29909000  1
  Na  Na1  1  0.25045500  0.44989300  0.30069100  1
  Na  Na2  1  0.24954500  0.70106300  0.29835200  1
  Na  Na3  1  0.24958500  0.95273900  0.29665200  1
  Na  Na4  1  0.74980400  0.04883000  0.70023700  1
  Na  Na5  1  0.75019600  0.29696400  0.70396900  1
  Na  Na6  1  0.75012600  0.54880800  0.70208100  1
  Na  Na7  1  0.74987400  0.80058500  0.69852600  1
  Mg  Mg0  1  0.75033000  0.15576700  0.09374500  1
  Mg  Mg1  1  0.74967000  0.40479100  0.09569700  1
  Al  Al0  1  0.24889400  0.09397700  0.90630800  1
  Al  Al1  1  0.74875000  0.65421700  0.09610200  1
  Al  Al2  1  0.75125000  0.90485500  0.09482700  1
  Al  Al3  1  0.25110600  0.84454700  0.90516800  1
  Si  Si0  1  0.26702400  0.01066300  0.38484900  1
  Si  Si1  1  0.26715500  0.26409000  0.38062800  1
  Si  Si2  1  0.22852300  0.05184000  0.80272200  1
  Si  Si3  1  0.27147700  0.51096200  0.38447700  1
  Si  Si4  1  0.77785700  0.19800300  0.19588800  1
  Si  Si5  1  0.23284500  0.30352500  0.80175800  1
  Si  Si6  1  0.27104400  0.75761400  0.38857000  1
  Si  Si7  1  0.77858300  0.45012900  0.19491100  1
  Si  Si8  1  0.24887100  0.34409500  0.90602000  1
  Si  Si9  1  0.23297600  0.55168600  0.80280200  1
  Si  Si10  1  0.72728800  0.23804600  0.61687900  1
  Si  Si11  1  0.77271200  0.69789600  0.19717900  1
  Si  Si12  1  0.25112900  0.59432700  0.90555800  1
  Si  Si13  1  0.22895600  0.79998100  0.80383600  1
  Si  Si14  1  0.72141700  0.49021100  0.61474800  1
  Si  Si15  1  0.77169900  0.94554100  0.19832400  1
  Si  Si16  1  0.72214300  0.73578400  0.62032600  1
  Si  Si17  1  0.72830100  0.98326900  0.62286600  1
  O  O0  1  0.34362300  0.12751000  0.17780400  1
  O  O1  1  0.00838600  0.17108500  0.65293400  1
  O  O2  1  0.21134800  0.05880500  0.62108900  1
  O  O3  1  0.70873200  0.08467400  0.08994100  1
  O  O4  1  0.34057000  0.38069900  0.17411500  1
  O  O5  1  0.49837700  0.06769900  0.35475300  1
  O  O6  1  0.87408200  0.01755600  0.03551200  1
  O  O7  1  0.00308500  0.41915700  0.65920400  1
  O  O8  1  0.20835600  0.30613500  0.62519800  1
  O  O9  1  0.70629700  0.33393300  0.09184500  1
  O  O10  1  0.37000400  0.61823200  0.18660000  1
  O  O11  1  0.49691500  0.32587900  0.34576000  1
  O  O12  1  0.90353900  0.28174400  0.02069200  1
  O  O13  1  0.00162300  0.66260400  0.66494400  1
  O  O14  1  0.15943000  0.24032600  0.95486000  1
  O  O15  1  0.50872300  0.18192300  0.64130400  1
  O  O16  1  0.28865200  0.16859400  0.90151100  1
  O  O17  1  0.19932400  0.54907900  0.63675400  1
  O  O18  1  0.79126800  0.18390300  0.39148300  1
  O  O19  1  0.70710200  0.58082100  0.10068900  1
  O  O20  1  0.37127600  0.86485200  0.19049500  1
  O  O21  1  0.49161400  0.56912300  0.35685800  1
  O  O22  1  0.90196900  0.53510900  0.01825200  1
  O  O23  1  0.98720200  0.07378400  0.35519800  1
  O  O24  1  0.00701200  0.91467900  0.65866100  1
  O  O25  1  0.15637700  0.48813800  0.95654800  1
  O  O26  1  0.51202000  0.43689700  0.63343900  1
  O  O27  1  0.62583000  0.12911700  0.81685300  1
  O  O28  1  0.29802800  0.42047900  0.89493800  1
  O  O29  1  0.20197200  0.80131300  0.63327000  1
  O  O30  1  0.79077100  0.44281200  0.37670300  1
  O  O31  1  0.70922900  0.83184000  0.09864600  1
  O  O32  1  0.49298800  0.81136000  0.36530000  1
  O  O33  1  0.87417000  0.77105600  0.03297400  1
  O  O34  1  0.98798000  0.32756900  0.35209500  1
  O  O35  1  0.12872400  0.72554600  0.96910700  1
  O  O36  1  0.51279800  0.68174800  0.63927000  1
  O  O37  1  0.59803100  0.39183000  0.80480900  1
  O  O38  1  0.30067600  0.67074300  0.89342500  1
  O  O39  1  0.79289800  0.69384100  0.37464900  1
  O  O40  1  0.99127700  0.57837600  0.34839800  1
  O  O41  1  0.12999600  0.97789600  0.96727100  1
  O  O42  1  0.50963600  0.92635300  0.64765500  1
  O  O43  1  0.59646100  0.63661500  0.81094900  1
  O  O44  1  0.29164400  0.91880100  0.89986600  1
  O  O45  1  0.79370300  0.93548900  0.38873300  1
  O  O46  1  0.99036400  0.82436900  0.35162200  1
  O  O47  1  0.62591800  0.87369100  0.82324100  1
loop_
_geom_bond_atom_site_label_1
_geom_bond_atom_site_label_2
_geom_bond_distance
_geom_bond_site_symmetry_2
Na0 O4 2.389433 1_555
Na0 O25 2.393280 1_554
Na0 O24 2.438316 1_545
Na0 O9 2.451929 1_555
Na0 O18 2.464895 1_455
Na0 O5 2.476658 1_555
Na0 O23 2.827187 1_455
Na0 O42 2.848042 1_545
Na1 O10 2.369289 1_555
Na1 O35 2.370790 1_554
Na1 O1 2.384096 1_555
Na1 O11 2.423054 1_555
Na1 O19 2.434869 1_555
Na1 O30 2.447592 1_455
Na1 O34 2.783759 1_455
Na1 O15 2.801421 1_555
Na2 O41 2.369275 1_554
Na2 O20 2.370793 1_555
Na2 O21 2.384095 1_555
Na2 O7 2.423069 1_555
Na2 O39 2.434872 1_455
Na2 O31 2.447579 1_555
Na2 O26 2.783776 1_555
Na2 O40 2.801402 1_455
Na3 O14 2.389435 1_564
Na3 O0 2.393270 1_565
Na3 O32 2.438317 1_555
Na3 O45 2.451923 1_455
Na3 O3 2.464895 1_565
Na3 O13 2.476643 1_555
Na3 O36 2.827175 1_555
Na3 O46 2.848072 1_455
Na4 O34 2.371283 1_555
Na4 O33 2.388401 1_546
Na4 O47 2.391346 1_545
Na4 O15 2.400325 1_555
Na4 O44 2.441197 1_545
Na4 O2 2.451929 1_655
Na4 O1 2.840965 1_655
Na4 O11 2.865535 1_555
Na5 O26 2.371283 1_555
Na5 O27 2.388394 1_555
Na5 O6 2.391338 1_556
Na5 O40 2.400317 1_555
Na5 O8 2.441197 1_655
Na5 O16 2.451925 1_555
Na5 O21 2.840965 1_555
Na5 O7 2.865536 1_655
Na6 O36 2.333821 1_555
Na6 O46 2.362310 1_555
Na6 O37 2.366735 1_555
Na6 O12 2.371710 1_556
Na6 O17 2.390596 1_655
Na6 O28 2.399412 1_555
Na6 O32 2.781068 1_555
Na6 O13 2.803587 1_655
Na7 O23 2.333828 1_565
Na7 O42 2.362314 1_555
Na7 O22 2.366721 1_556
Na7 O43 2.371710 1_555
Na7 O38 2.390600 1_555
Na7 O29 2.399410 1_655
Na7 O24 2.781068 1_655
Na7 O5 2.803587 1_565
Mg0 O45 1.971509 1_545
Mg0 O3 1.973393 1_555
Mg0 O0 2.105207 1_555
Mg0 O14 2.113922 1_654
Mg0 O12 2.144749 1_555
Mg0 O37 2.168798 1_554
Mg1 O9 1.971510 1_555
Mg1 O18 1.973407 1_555
Mg1 O25 2.105207 1_654
Mg1 O4 2.113923 1_555
Mg1 O43 2.144742 1_554
Mg1 O22 2.168805 1_555
Al0 O8 1.870666 1_555
Al0 O16 1.888656 1_555
Al0 O6 1.943547 1_456
Al0 O27 1.955680 1_555
Al0 O41 2.030578 1_545
Al0 O20 2.056875 1_546
Al1 O19 1.864848 1_555
Al1 O30 1.871018 1_555
Al1 O10 1.964278 1_555
Al1 O35 1.972818 1_654
Al1 O47 1.987934 1_554
Al1 O33 2.026573 1_555
Al2 O39 1.864839 1_555
Al2 O31 1.871030 1_555
Al2 O41 1.964285 1_654
Al2 O20 1.972813 1_555
Al2 O6 1.987923 1_565
Al2 O27 2.026584 1_564
Al3 O44 1.870666 1_555
Al3 O2 1.888670 1_565
Al3 O47 1.943548 1_555
Al3 O33 1.955681 1_456
Al3 O10 2.030560 1_556
Al3 O35 2.056875 1_555
O0 Si0 1.659282 1_555
O0 Si8 1.911210 1_554
O1 Si2 1.648344 1_555
O1 Si10 1.658901 1_455
O2 Si1 1.611432 1_555
O3 Si15 1.584351 1_545
O4 Si1 1.655286 1_555
O4 Si12 1.878756 1_554
O5 Si0 1.640713 1_555
O5 Si4 1.666711 1_555
O6 Si15 1.657312 1_545
O7 Si5 1.652142 1_555
O7 Si14 1.655949 1_455
O8 Si3 1.609617 1_555
O9 Si4 1.579405 1_555
O10 Si3 1.652174 1_555
O11 Si1 1.652131 1_555
O11 Si7 1.655946 1_555
O12 Si4 1.667525 1_555
O12 Si8 1.798502 1_654
O13 Si9 1.640721 1_555
O13 Si16 1.666707 1_455
O14 Si5 1.655266 1_555
O14 Si8 1.878749 1_555
O15 Si10 1.650720 1_555
O15 Si2 1.659752 1_555
O16 Si5 1.611446 1_555
O17 Si6 1.640011 1_555
O17 Si8 1.807258 1_555
O18 Si17 1.584361 1_545
O19 Si7 1.603615 1_555
O20 Si6 1.656108 1_555
O21 Si3 1.648337 1_555
O21 Si11 1.658901 1_555
O22 Si7 1.670263 1_555
O22 Si12 1.819675 1_654
O23 Si0 1.652556 1_655
O23 Si4 1.655280 1_555
O24 Si13 1.637743 1_555
O24 Si17 1.668159 1_455
O25 Si9 1.659283 1_555
O25 Si12 1.911223 1_555
O26 Si14 1.645228 1_555
O26 Si5 1.661372 1_555
O27 Si10 1.661026 1_555
O28 Si9 1.643717 1_555
O28 Si8 1.826413 1_555
O29 Si0 1.643725 1_565
O29 Si12 1.826402 1_555
O30 Si10 1.609803 1_555
O31 Si11 1.609802 1_555
O32 Si6 1.637736 1_555
O32 Si15 1.668164 1_555
O33 Si11 1.661027 1_555
O34 Si7 1.645236 1_555
O34 Si1 1.661370 1_655
O35 Si13 1.656090 1_555
O36 Si9 1.652561 1_555
O36 Si16 1.655292 1_555
O37 Si14 1.670282 1_555
O37 Si8 1.819675 1_555
O38 Si13 1.640019 1_555
O38 Si12 1.807254 1_555
O39 Si14 1.603600 1_555
O40 Si11 1.650731 1_555
O40 Si3 1.659756 1_655
O41 Si2 1.652136 1_565
O42 Si13 1.649844 1_555
O42 Si17 1.660852 1_555
O43 Si16 1.667508 1_555
O43 Si12 1.798504 1_555
O44 Si2 1.609631 1_565
O45 Si16 1.579411 1_555
O46 Si6 1.649837 1_655
O46 Si15 1.660853 1_555
O47 Si17 1.657311 1_555
