# generated using pymatgen
data_NiPRh
_symmetry_space_group_name_H-M   'P 1'
_cell_length_a   3.49404788
_cell_length_b   3.49404788
_cell_length_c   5.82834334
_cell_angle_alpha   90.00000000
_cell_angle_beta   90.00000000
_cell_angle_gamma   90.00000000
_symmetry_Int_Tables_number   1
_chemical_formula_structural   NiPRh
_chemical_formula_sum   'Ni2 P2 Rh2'
_cell_volume   71.15457541
_cell_formula_units_Z   2
loop_
 _symmetry_equiv_pos_site_id
 _symmetry_equiv_pos_as_xyz
  1  'x, y, z'
loop_
 _atom_site_type_symbol
 _atom_site_label
 _atom_site_symmetry_multiplicity
 _atom_site_fract_x
 _atom_site_fract_y
 _atom_site_fract_z
 _atom_site_occupancy
  Ni  Ni0  1  0.75000000  0.25000000  -0.00000000  1
  Ni  Ni1  1  0.25000000  0.75000000  -0.00000000  1
  P  P0  1  0.75000000  0.75000000  0.75330506  1
  P  P1  1  0.25000000  0.25000000  0.24669494  1
  Rh  Rh0  1  0.75000000  0.75000000  0.36847759  1
  Rh  Rh1  1  0.25000000  0.25000000  0.63152241  1
loop_
_geom_bond_atom_site_label_1
_geom_bond_atom_site_label_2
_geom_bond_distance
_geom_bond_site_symmetry_2
Ni0 P0 2.262615 1_554
Ni0 P1 2.262615 1_555
Ni0 P1 2.262615 1_655
Ni0 P0 2.262615 1_544
Ni0 Rh1 2.768454 1_554
Ni0 Rh0 2.768454 1_555
Ni0 Rh0 2.768454 1_545
Ni0 Rh1 2.768454 1_654
Ni1 P0 2.262615 1_554
Ni1 P1 2.262615 1_555
Ni1 P0 2.262615 1_454
Ni1 P1 2.262615 1_565
Ni1 Rh1 2.768454 1_554
Ni1 Rh0 2.768454 1_555
Ni1 Rh0 2.768454 1_455
Ni1 Rh1 2.768454 1_564
P0 Rh0 2.242907 1_555
P0 Rh1 2.570601 1_655
P0 Rh1 2.570601 1_665
P0 Rh1 2.570601 1_555
P0 Rh1 2.570601 1_565
P1 Rh1 2.242907 1_555
P1 Rh0 2.570601 1_445
P1 Rh0 2.570601 1_555
P1 Rh0 2.570601 1_545
P1 Rh0 2.570601 1_455
