# generated using pymatgen
data_NaSrTbBiO6
_symmetry_space_group_name_H-M   'P 1'
_cell_length_a   8.53032239
_cell_length_b   8.47908728
_cell_length_c   8.50103111
_cell_angle_alpha   90.00000000
_cell_angle_beta   90.00000000
_cell_angle_gamma   90.00000000
_symmetry_Int_Tables_number   1
_chemical_formula_structural   NaSrTbBiO6
_chemical_formula_sum   'Na4 Sr4 Tb4 Bi4 O24'
_cell_volume   614.87403812
_cell_formula_units_Z   4
loop_
 _symmetry_equiv_pos_site_id
 _symmetry_equiv_pos_as_xyz
  1  'x, y, z'
loop_
 _atom_site_type_symbol
 _atom_site_label
 _atom_site_symmetry_multiplicity
 _atom_site_fract_x
 _atom_site_fract_y
 _atom_site_fract_z
 _atom_site_occupancy
  Na  Na0  1  -0.00000000  -0.00000000  0.00000000  1
  Na  Na1  1  0.50000000  0.50000000  0.50000000  1
  Na  Na2  1  0.50000000  -0.00000000  0.50000000  1
  Na  Na3  1  -0.00000000  0.50000000  0.00000000  1
  Sr  Sr0  1  -0.00000000  0.50000000  0.50000000  1
  Sr  Sr1  1  0.50000000  0.50000000  -0.00000000  1
  Sr  Sr2  1  0.50000000  -0.00000000  -0.00000000  1
  Sr  Sr3  1  -0.00000000  -0.00000000  0.50000000  1
  Tb  Tb0  1  0.25000000  0.25000000  0.25000000  1
  Tb  Tb1  1  0.75000000  0.75000000  0.25000000  1
  Tb  Tb2  1  0.75000000  0.25000000  0.75000000  1
  Tb  Tb3  1  0.25000000  0.75000000  0.75000000  1
  Bi  Bi0  1  0.75000000  0.75000000  0.75000000  1
  Bi  Bi1  1  0.25000000  0.25000000  0.75000000  1
  Bi  Bi2  1  0.25000000  0.75000000  0.25000000  1
  Bi  Bi3  1  0.75000000  0.25000000  0.25000000  1
  O  O0  1  0.99325053  0.23812781  0.30378956  1
  O  O1  1  0.00674947  0.76187219  0.30378956  1
  O  O2  1  0.00674947  0.23812781  0.69621044  1
  O  O3  1  0.99325053  0.76187219  0.69621044  1
  O  O4  1  0.25346971  0.99238106  0.18689690  1
  O  O5  1  0.25346971  0.00761894  0.81310310  1
  O  O6  1  0.74653029  0.00761894  0.18689690  1
  O  O7  1  0.74653029  0.99238106  0.81310310  1
  O  O8  1  0.21679747  0.31207776  0.99089154  1
  O  O9  1  0.78320253  0.31207776  0.00910846  1
  O  O10  1  0.21679747  0.68792224  0.00910846  1
  O  O11  1  0.78320253  0.68792224  0.99089154  1
  O  O12  1  0.50674947  0.26187219  0.19621044  1
  O  O13  1  0.49325053  0.73812781  0.19621044  1
  O  O14  1  0.49325053  0.26187219  0.80378956  1
  O  O15  1  0.50674947  0.73812781  0.80378956  1
  O  O16  1  0.24653029  0.50761894  0.31310310  1
  O  O17  1  0.24653029  0.49238106  0.68689690  1
  O  O18  1  0.75346971  0.49238106  0.31310310  1
  O  O19  1  0.75346971  0.50761894  0.68689690  1
  O  O20  1  0.28320253  0.18792224  0.50910846  1
  O  O21  1  0.71679747  0.18792224  0.49089154  1
  O  O22  1  0.28320253  0.81207776  0.49089154  1
  O  O23  1  0.71679747  0.81207776  0.50910846  1
loop_
_geom_bond_atom_site_label_1
_geom_bond_atom_site_label_2
_geom_bond_distance
_geom_bond_site_symmetry_2
Na0 O7 2.683939 1_444
Na0 O4 2.683939 1_545
Na0 O6 2.683939 1_455
Na0 O5 2.683939 1_554
Na1 O17 2.683939 1_555
Na1 O19 2.683939 1_555
Na1 O16 2.683939 1_555
Na1 O18 2.683939 1_555
Na2 O22 2.442346 1_545
Na2 O20 2.442346 1_555
Na2 O21 2.442346 1_555
Na2 O23 2.442346 1_545
Na3 O11 2.442346 1_454
Na3 O8 2.442346 1_554
Na3 O9 2.442346 1_455
Na3 O10 2.442346 1_555
Bi0 O7 2.124234 1_555
Bi0 O19 2.124234 1_555
Bi0 O15 2.127175 1_555
Bi0 O3 2.127175 1_555
Bi0 O11 2.133277 1_555
Bi0 O23 2.133277 1_555
Bi1 O5 2.124234 1_555
Bi1 O17 2.124234 1_555
Bi1 O14 2.127175 1_555
Bi1 O2 2.127175 1_555
Bi1 O8 2.133277 1_555
Bi1 O20 2.133277 1_555
Bi2 O16 2.124234 1_555
Bi2 O4 2.124234 1_555
Bi2 O1 2.127175 1_555
Bi2 O13 2.127175 1_555
Bi2 O10 2.133277 1_555
Bi2 O22 2.133277 1_555
Bi3 O18 2.124234 1_555
Bi3 O6 2.124234 1_555
Bi3 O12 2.127175 1_555
Bi3 O0 2.127175 1_555
Bi3 O9 2.133277 1_555
Bi3 O21 2.133277 1_555
O0 Tb0 2.239645 1_655
O0 Sr3 2.619599 1_655
O0 Sr0 2.777742 1_655
O1 Tb1 2.239645 1_455
O1 Sr3 2.619599 1_565
O1 Sr0 2.777742 1_555
O2 Tb2 2.239645 1_455
O2 Sr3 2.619599 1_555
O2 Sr0 2.777742 1_555
O3 Tb3 2.239645 1_655
O3 Sr3 2.619599 1_665
O3 Sr0 2.777742 1_655
O4 Tb0 2.249474 1_565
O4 Sr2 2.636484 1_565
O5 Tb3 2.249474 1_545
O5 Sr2 2.636484 1_556
O6 Tb1 2.249474 1_545
O6 Sr2 2.636484 1_555
O7 Tb2 2.249474 1_565
O7 Sr2 2.636484 1_566
O8 Tb0 2.282349 1_556
O8 Sr1 2.895010 1_556
O9 Tb2 2.282349 1_554
O9 Sr1 2.895010 1_555
O10 Tb3 2.282349 1_554
O10 Sr1 2.895010 1_555
O11 Tb1 2.282349 1_556
O11 Sr1 2.895010 1_556
O12 Tb0 2.239645 1_555
O12 Sr1 2.619599 1_555
O12 Sr2 2.777742 1_555
O13 Tb1 2.239645 1_555
O13 Sr1 2.619599 1_555
O13 Sr2 2.777742 1_565
O14 Tb2 2.239645 1_555
O14 Sr1 2.619599 1_556
O14 Sr2 2.777742 1_556
O15 Tb3 2.239645 1_555
O15 Sr1 2.619599 1_556
O15 Sr2 2.777742 1_566
O16 Tb0 2.249474 1_555
O16 Sr0 2.636484 1_555
O17 Tb3 2.249474 1_555
O17 Sr0 2.636484 1_555
O18 Tb1 2.249474 1_555
O18 Sr0 2.636484 1_655
O19 Tb2 2.249474 1_555
O19 Sr0 2.636484 1_655
O20 Tb0 2.282349 1_555
O20 Sr3 2.895010 1_555
O21 Tb2 2.282349 1_555
O21 Sr3 2.895010 1_655
O22 Tb3 2.282349 1_555
O22 Sr3 2.895010 1_565
O23 Tb1 2.282349 1_555
O23 Sr3 2.895010 1_665
