# generated using pymatgen
data_Cu6BiSe6
_symmetry_space_group_name_H-M   'P 1'
_cell_length_a   4.01963400
_cell_length_b   9.65280200
_cell_length_c   27.28417200
_cell_angle_alpha   90.00000000
_cell_angle_beta   90.00000000
_cell_angle_gamma   90.00000000
_symmetry_Int_Tables_number   1
_chemical_formula_structural   Cu6BiSe6
_chemical_formula_sum   'Cu24 Bi4 Se24'
_cell_volume   1058.64582145
_cell_formula_units_Z   4
loop_
 _symmetry_equiv_pos_site_id
 _symmetry_equiv_pos_as_xyz
  1  'x, y, z'
loop_
 _atom_site_type_symbol
 _atom_site_label
 _atom_site_symmetry_multiplicity
 _atom_site_fract_x
 _atom_site_fract_y
 _atom_site_fract_z
 _atom_site_occupancy
  Cu  Cu0  1  0.75000000  0.43124500  0.47726100  1
  Cu  Cu1  1  0.75000000  0.93124500  0.02273900  1
  Cu  Cu2  1  0.25000000  0.56875500  0.52273900  1
  Cu  Cu3  1  0.25000000  0.06875500  0.97726100  1
  Cu  Cu4  1  0.75000000  0.47379900  0.38426500  1
  Cu  Cu5  1  0.75000000  0.97379900  0.11573500  1
  Cu  Cu6  1  0.25000000  0.52620100  0.61573500  1
  Cu  Cu7  1  0.25000000  0.02620100  0.88426500  1
  Cu  Cu8  1  0.75000000  0.30843700  0.71525200  1
  Cu  Cu9  1  0.75000000  0.80843700  0.78474800  1
  Cu  Cu10  1  0.25000000  0.69156300  0.28474800  1
  Cu  Cu11  1  0.25000000  0.19156300  0.21525200  1
  Cu  Cu12  1  0.75000000  0.71667200  0.94607800  1
  Cu  Cu13  1  0.75000000  0.21667200  0.55392200  1
  Cu  Cu14  1  0.25000000  0.28332800  0.05392200  1
  Cu  Cu15  1  0.25000000  0.78332800  0.44607800  1
  Cu  Cu16  1  0.75000000  0.41904700  0.00359600  1
  Cu  Cu17  1  0.75000000  0.91904700  0.49640400  1
  Cu  Cu18  1  0.25000000  0.58095300  0.99640400  1
  Cu  Cu19  1  0.25000000  0.08095300  0.50359600  1
  Cu  Cu20  1  0.75000000  0.35120800  0.24096500  1
  Cu  Cu21  1  0.75000000  0.85120800  0.25903500  1
  Cu  Cu22  1  0.25000000  0.64879200  0.75903500  1
  Cu  Cu23  1  0.25000000  0.14879200  0.74096500  1
  Bi  Bi0  1  0.75000000  0.39704400  0.86193200  1
  Bi  Bi1  1  0.75000000  0.89704400  0.63806800  1
  Bi  Bi2  1  0.25000000  0.60295600  0.13806800  1
  Bi  Bi3  1  0.25000000  0.10295600  0.36193200  1
  Se  Se0  1  0.75000000  0.36406600  0.10026200  1
  Se  Se1  1  0.75000000  0.86406600  0.39973800  1
  Se  Se2  1  0.25000000  0.63593400  0.89973800  1
  Se  Se3  1  0.25000000  0.13593400  0.60026200  1
  Se  Se4  1  0.75000000  0.18304900  0.16817200  1
  Se  Se5  1  0.75000000  0.68304900  0.33182800  1
  Se  Se6  1  0.25000000  0.81695100  0.83182800  1
  Se  Se7  1  0.25000000  0.31695100  0.66817200  1
  Se  Se8  1  0.75000000  0.97016500  0.93425600  1
  Se  Se9  1  0.75000000  0.47016500  0.56574400  1
  Se  Se10  1  0.25000000  0.02983500  0.06574400  1
  Se  Se11  1  0.25000000  0.52983500  0.43425600  1
  Se  Se12  1  0.75000000  0.28662800  0.32788800  1
  Se  Se13  1  0.75000000  0.78662800  0.17211200  1
  Se  Se14  1  0.25000000  0.71337200  0.67211200  1
  Se  Se15  1  0.25000000  0.21337200  0.82788800  1
  Se  Se16  1  0.75000000  0.16960000  0.46432700  1
  Se  Se17  1  0.75000000  0.66960000  0.03567300  1
  Se  Se18  1  0.25000000  0.83040000  0.53567300  1
  Se  Se19  1  0.25000000  0.33040000  0.96432700  1
  Se  Se20  1  0.75000000  0.01105300  0.73121900  1
  Se  Se21  1  0.75000000  0.51105300  0.76878100  1
  Se  Se22  1  0.25000000  0.98894700  0.26878100  1
  Se  Se23  1  0.25000000  0.48894700  0.23121900  1
loop_
_geom_bond_atom_site_label_1
_geom_bond_atom_site_label_2
_geom_bond_distance
_geom_bond_site_symmetry_2
Cu0 Se9 2.443242 1_555
Cu0 Se11 2.514320 1_555
Cu0 Se11 2.514320 1_655
Cu0 Se16 2.550142 1_555
Cu1 Se8 2.443242 1_554
Cu1 Se10 2.514320 1_665
Cu1 Se10 2.514320 1_565
Cu1 Se17 2.550142 1_555
Cu2 Se11 2.443242 1_555
Cu2 Se9 2.514320 1_555
Cu2 Se9 2.514320 1_455
Cu2 Se18 2.550142 1_555
Cu3 Se10 2.443242 1_556
Cu3 Se8 2.514320 1_445
Cu3 Se8 2.514320 1_545
Cu3 Se19 2.550142 1_555
Cu4 Se12 2.372828 1_555
Cu4 Se5 2.475216 1_555
Cu4 Se11 2.488441 1_655
Cu4 Se11 2.488441 1_555
Cu5 Se13 2.372828 1_555
Cu5 Se4 2.475216 1_565
Cu5 Se10 2.488441 1_665
Cu5 Se10 2.488441 1_565
Cu6 Se14 2.372828 1_555
Cu6 Se7 2.475216 1_555
Cu6 Se9 2.488441 1_555
Cu6 Se9 2.488441 1_455
Cu7 Se15 2.372828 1_555
Cu7 Se6 2.475216 1_545
Cu7 Se8 2.488441 1_545
Cu7 Se8 2.488441 1_445
Cu8 Se7 2.386663 1_555
Cu8 Se7 2.386663 1_655
Cu8 Se21 2.440952 1_555
Cu8 Se20 2.903458 1_555
Cu9 Se6 2.386663 1_655
Cu9 Se6 2.386663 1_555
Cu9 Se20 2.440952 1_565
Cu9 Se21 2.903458 1_555
Cu10 Se5 2.386663 1_455
Cu10 Se5 2.386663 1_555
Cu10 Se23 2.440952 1_555
Cu10 Se22 2.903458 1_555
Cu11 Se4 2.386663 1_555
Cu11 Se4 2.386663 1_455
Cu11 Se22 2.440952 1_545
Cu11 Se23 2.903458 1_555
Cu12 Se8 2.468086 1_555
Cu12 Se17 2.486395 1_556
Cu12 Se2 2.499065 1_555
Cu12 Se2 2.499065 1_655
Cu13 Se9 2.468086 1_555
Cu13 Se16 2.486395 1_555
Cu13 Se3 2.499065 1_555
Cu13 Se3 2.499065 1_655
Cu14 Se10 2.468086 1_555
Cu14 Se19 2.486395 1_554
Cu14 Se0 2.499065 1_455
Cu14 Se0 2.499065 1_555
Cu15 Se11 2.468086 1_555
Cu15 Se18 2.486395 1_555
Cu15 Se1 2.499065 1_555
Cu15 Se1 2.499065 1_455
Cu16 Se19 2.433006 1_654
Cu16 Se19 2.433006 1_554
Cu16 Se17 2.572021 1_555
Cu16 Se0 2.690319 1_555
Cu17 Se18 2.433006 1_555
Cu17 Se18 2.433006 1_655
Cu17 Se16 2.572021 1_565
Cu17 Se1 2.690319 1_555
Cu18 Se17 2.433006 1_456
Cu18 Se17 2.433006 1_556
Cu18 Se19 2.572021 1_555
Cu18 Se2 2.690319 1_555
Cu19 Se16 2.433006 1_455
Cu19 Se16 2.433006 1_555
Cu19 Se18 2.572021 1_545
Cu19 Se3 2.690319 1_555
Cu20 Se23 2.424422 1_555
Cu20 Se23 2.424422 1_655
Cu20 Se12 2.452181 1_555
Cu20 Se4 2.565030 1_555
Cu21 Se22 2.424422 1_655
Cu21 Se22 2.424422 1_555
Cu21 Se13 2.452181 1_555
Cu21 Se5 2.565030 1_555
Cu22 Se21 2.424422 1_555
Cu22 Se21 2.424422 1_455
Cu22 Se14 2.452181 1_555
Cu22 Se6 2.565030 1_555
Cu23 Se20 2.424422 1_555
Cu23 Se20 2.424422 1_455
Cu23 Se15 2.452181 1_555
Cu23 Se7 2.565030 1_555
Bi0 Se21 2.769581 1_555
Bi0 Se15 2.836459 1_655
Bi0 Se15 2.836459 1_555
Bi0 Se2 3.228128 1_655
Bi0 Se2 3.228128 1_555
Bi1 Se20 2.769581 1_565
Bi1 Se14 2.836459 1_655
Bi1 Se14 2.836459 1_555
Bi1 Se3 3.228128 1_665
Bi1 Se3 3.228128 1_565
Bi2 Se23 2.769581 1_555
Bi2 Se13 2.836459 1_555
Bi2 Se13 2.836459 1_455
Bi2 Se0 3.228128 1_455
Bi2 Se0 3.228128 1_555
Bi3 Se22 2.769581 1_545
Bi3 Se12 2.836459 1_555
Bi3 Se12 2.836459 1_455
Bi3 Se1 3.228128 1_445
Bi3 Se1 3.228128 1_545
Se0 Se4 2.546812 1_555
Se1 Se5 2.546812 1_555
Se2 Se6 2.546812 1_555
Se3 Se7 2.546812 1_555
