# generated using pymatgen
data_Cu(SbO2)2
_symmetry_space_group_name_H-M   'P 1'
_cell_length_a   8.94562400
_cell_length_b   8.94562400
_cell_length_c   5.89253000
_cell_angle_alpha   90.00000000
_cell_angle_beta   90.00000000
_cell_angle_gamma   90.00000000
_symmetry_Int_Tables_number   1
_chemical_formula_structural   Cu(SbO2)2
_chemical_formula_sum   'Cu4 Sb8 O16'
_cell_volume   471.54493293
_cell_formula_units_Z   4
loop_
 _symmetry_equiv_pos_site_id
 _symmetry_equiv_pos_as_xyz
  1  'x, y, z'
loop_
 _atom_site_type_symbol
 _atom_site_label
 _atom_site_symmetry_multiplicity
 _atom_site_fract_x
 _atom_site_fract_y
 _atom_site_fract_z
 _atom_site_occupancy
  Cu  Cu0  1  0.50000000  0.00000000  0.26774400  1
  Cu  Cu1  1  0.00000000  0.50000000  0.26774400  1
  Cu  Cu2  1  0.00000000  0.50000000  0.76774400  1
  Cu  Cu3  1  0.50000000  0.00000000  0.76774400  1
  Sb  Sb0  1  0.31039800  0.34693100  0.50667000  1
  Sb  Sb1  1  0.81039800  0.15306900  0.50667000  1
  Sb  Sb2  1  0.65306900  0.31039800  0.00667000  1
  Sb  Sb3  1  0.84693100  0.81039800  0.00667000  1
  Sb  Sb4  1  0.68960200  0.65306900  0.50667000  1
  Sb  Sb5  1  0.18960200  0.84693100  0.50667000  1
  Sb  Sb6  1  0.34693100  0.68960200  0.00667000  1
  Sb  Sb7  1  0.15306900  0.18960200  0.00667000  1
  O  O0  1  0.79087900  0.31555400  0.27472100  1
  O  O1  1  0.29087900  0.18444600  0.27472100  1
  O  O2  1  0.68444600  0.79087900  0.77472100  1
  O  O3  1  0.81555400  0.29087900  0.77472100  1
  O  O4  1  0.20912100  0.68444600  0.27472100  1
  O  O5  1  0.70912100  0.81555400  0.27472100  1
  O  O6  1  0.31555400  0.20912100  0.77472100  1
  O  O7  1  0.18444600  0.70912100  0.77472100  1
  O  O8  1  0.08989400  0.37939300  0.51873800  1
  O  O9  1  0.58989400  0.12060700  0.51873800  1
  O  O10  1  0.62060700  0.08989400  0.01873800  1
  O  O11  1  0.87939300  0.58989400  0.01873800  1
  O  O12  1  0.91010600  0.62060700  0.51873800  1
  O  O13  1  0.41010600  0.87939300  0.51873800  1
  O  O14  1  0.37939300  0.91010600  0.01873800  1
  O  O15  1  0.12060700  0.41010600  0.01873800  1
loop_
_geom_bond_atom_site_label_1
_geom_bond_atom_site_label_2
_geom_bond_distance
_geom_bond_site_symmetry_2
Cu0 O10 1.990880 1_555
Cu0 O14 1.990880 1_545
Cu0 O13 1.999529 1_545
Cu0 O9 1.999529 1_555
Cu0 O5 2.494739 1_545
Cu0 O1 2.494739 1_555
Cu1 O15 1.990880 1_555
Cu1 O11 1.990880 1_455
Cu1 O8 1.999529 1_555
Cu1 O12 1.999529 1_455
Cu1 O0 2.494739 1_455
Cu1 O4 2.494739 1_555
Cu2 O8 1.990880 1_555
Cu2 O12 1.990880 1_455
Cu2 O15 1.999529 1_556
Cu2 O11 1.999529 1_456
Cu2 O3 2.494739 1_455
Cu2 O7 2.494739 1_555
Cu3 O13 1.990880 1_545
Cu3 O9 1.990880 1_555
Cu3 O14 1.999529 1_546
Cu3 O10 1.999529 1_556
Cu3 O2 2.494739 1_545
Cu3 O6 2.494739 1_555
O0 Sb1 2.002820 1_555
O0 Sb2 2.004178 1_555
O1 Sb0 2.002820 1_555
O1 Sb7 2.004178 1_555
O2 Sb3 2.002820 1_556
O2 Sb4 2.004178 1_555
O3 Sb2 2.002820 1_556
O3 Sb1 2.004178 1_555
O4 Sb5 2.002820 1_555
O4 Sb6 2.004178 1_555
O5 Sb4 2.002820 1_555
O5 Sb3 2.004178 1_555
O6 Sb7 2.002820 1_556
O6 Sb0 2.004178 1_555
O7 Sb6 2.002820 1_556
O7 Sb5 2.004178 1_555
O8 Sb0 1.995074 1_555
O9 Sb1 1.995074 1_555
O10 Sb2 1.995074 1_555
O11 Sb3 1.995074 1_555
O12 Sb4 1.995074 1_555
O13 Sb5 1.995074 1_555
O14 Sb6 1.995074 1_555
O15 Sb7 1.995074 1_555
