# generated using pymatgen
data_V3NiP2
_symmetry_space_group_name_H-M   'P 1'
_cell_length_a   3.32482400
_cell_length_b   6.14102590
_cell_length_c   10.68292857
_cell_angle_alpha   89.71153808
_cell_angle_beta   90.00000000
_cell_angle_gamma   90.00000000
_symmetry_Int_Tables_number   1
_chemical_formula_structural   V3NiP2
_chemical_formula_sum   'V9 Ni3 P6'
_cell_volume   218.11945817
_cell_formula_units_Z   3
loop_
 _symmetry_equiv_pos_site_id
 _symmetry_equiv_pos_as_xyz
  1  'x, y, z'
loop_
 _atom_site_type_symbol
 _atom_site_label
 _atom_site_symmetry_multiplicity
 _atom_site_fract_x
 _atom_site_fract_y
 _atom_site_fract_z
 _atom_site_occupancy
  V  V0  1  0.00000000  0.87146100  0.87344100  1
  V  V1  1  0.00000000  0.87259100  0.12935000  1
  V  V2  1  0.00000000  0.37450300  0.62193100  1
  V  V3  1  0.50000000  0.60202400  0.00290600  1
  V  V4  1  0.50000000  0.10457200  0.50155300  1
  V  V5  1  0.50000000  0.19265200  0.20757300  1
  V  V6  1  0.50000000  0.69519500  0.70721200  1
  V  V7  1  0.50000000  0.70476900  0.29344700  1
  V  V8  1  0.50000000  0.19679800  0.78745200  1
  Ni  Ni0  1  0.00000000  0.25730300  0.00125900  1
  Ni  Ni1  1  0.00000000  0.75978900  0.50232600  1
  Ni  Ni2  1  0.00000000  0.36562300  0.37276400  1
  P  P0  1  0.00000000  0.99834400  0.33957600  1
  P  P1  1  0.00000000  0.49182900  0.83763600  1
  P  P2  1  0.00000000  0.48985400  0.16996400  1
  P  P3  1  0.00000000  0.99290700  0.66268400  1
  P  P4  1  0.50000000  0.01729300  0.00113300  1
  P  P5  1  0.50000000  0.51229100  0.48779200  1
loop_
_geom_bond_atom_site_label_1
_geom_bond_atom_site_label_2
_geom_bond_distance
_geom_bond_site_symmetry_2
Ni0 P4 2.221720 1_455
Ni0 P4 2.221720 1_555
Ni0 P1 2.259275 1_554
Ni0 P2 2.305113 1_555
Ni0 V3 2.691790 1_455
Ni0 V3 2.691790 1_555
Ni1 P3 2.238038 1_555
Ni1 P5 2.258355 1_455
Ni1 P5 2.258355 1_555
Ni1 P0 2.267904 1_555
Ni2 P5 2.257441 1_455
Ni2 P5 2.257441 1_555
Ni2 P0 2.284929 1_545
Ni2 P2 2.293272 1_555
P0 V1 2.378568 1_555
P0 V5 2.481758 1_565
P0 V5 2.481758 1_465
P0 V4 2.488932 1_565
P0 V4 2.488932 1_465
P0 V7 2.503134 1_455
P0 V7 2.503134 1_555
P1 V0 2.364400 1_555
P1 V2 2.417834 1_555
P1 V6 2.499419 1_455
P1 V6 2.499419 1_555
P1 V8 2.518612 1_455
P1 V8 2.518612 1_555
P1 V3 2.520081 1_556
P1 V3 2.520081 1_456
P2 V1 2.387959 1_555
P2 V5 2.499747 1_555
P2 V5 2.499747 1_455
P2 V7 2.502638 1_455
P2 V7 2.502638 1_555
P2 V3 2.531951 1_555
P2 V3 2.531951 1_455
P3 V0 2.368243 1_555
P3 V2 2.381333 1_565
P3 V8 2.474826 1_465
P3 V8 2.474826 1_565
P3 V4 2.486969 1_565
P3 V4 2.486969 1_465
P3 V6 2.514689 1_455
P3 V6 2.514689 1_555
P4 V1 2.327481 1_645
P4 V1 2.327481 1_545
P4 V0 2.332118 1_544
P4 V0 2.332118 1_644
P4 V5 2.459128 1_555
P4 V8 2.529965 1_554
P4 V3 2.550153 1_545
P5 V2 2.349654 1_555
P5 V2 2.349654 1_655
P5 V7 2.383892 1_555
P5 V4 2.507386 1_555
P5 V6 2.604360 1_555
