# generated using pymatgen
data_CuS2(NO7)2
_symmetry_space_group_name_H-M   'P 1'
_cell_length_a   6.47422201
_cell_length_b   8.34716108
_cell_length_c   12.36721100
_cell_angle_alpha   90.00000000
_cell_angle_beta   90.00000000
_cell_angle_gamma   105.61268079
_symmetry_Int_Tables_number   1
_chemical_formula_structural   CuS2(NO7)2
_chemical_formula_sum   'Cu2 S4 N4 O28'
_cell_volume   643.68131110
_cell_formula_units_Z   2
loop_
 _symmetry_equiv_pos_site_id
 _symmetry_equiv_pos_as_xyz
  1  'x, y, z'
loop_
 _atom_site_type_symbol
 _atom_site_label
 _atom_site_symmetry_multiplicity
 _atom_site_fract_x
 _atom_site_fract_y
 _atom_site_fract_z
 _atom_site_occupancy
  Cu  Cu0  1  0.00000000  0.50000000  0.50000000  1
  Cu  Cu1  1  0.00000000  0.00000000  0.00000000  1
  S  S0  1  0.80556400  0.96112700  0.35218800  1
  S  S1  1  0.19443600  0.53887300  0.85218800  1
  S  S2  1  0.19443600  0.03887300  0.64781200  1
  S  S3  1  0.80556400  0.46112700  0.14781200  1
  N  N0  1  0.38096000  0.66715600  0.19686500  1
  N  N1  1  0.61904000  0.83284400  0.69686500  1
  N  N2  1  0.61904000  0.33284400  0.80313500  1
  N  N3  1  0.38096000  0.16715600  0.30313500  1
  O  O0  1  0.38030500  0.80099900  0.17928200  1
  O  O1  1  0.61969500  0.69900100  0.67928200  1
  O  O2  1  0.61969500  0.19900100  0.82071800  1
  O  O3  1  0.38030500  0.30099900  0.32071800  1
  O  O4  1  0.76714700  0.09115200  0.42124700  1
  O  O5  1  0.23285300  0.40884800  0.92124700  1
  O  O6  1  0.23285300  0.90884800  0.57875300  1
  O  O7  1  0.76714700  0.59115200  0.07875300  1
  O  O8  1  0.60034900  0.67234800  0.44639000  1
  O  O9  1  0.39965100  0.82765200  0.94639000  1
  O  O10  1  0.39965100  0.32765200  0.55361000  1
  O  O11  1  0.60034900  0.17234800  0.05361000  1
  O  O12  1  0.01252000  0.92556500  0.36044100  1
  O  O13  1  0.98748000  0.57443500  0.86044100  1
  O  O14  1  0.98748000  0.07443500  0.63955900  1
  O  O15  1  0.01252000  0.42556500  0.13955900  1
  O  O16  1  0.16133700  0.58135100  0.37497900  1
  O  O17  1  0.83866300  0.91864900  0.87497900  1
  O  O18  1  0.83866300  0.41864900  0.62502100  1
  O  O19  1  0.16133700  0.08135100  0.12502100  1
  O  O20  1  0.07456400  0.41269000  0.37190800  1
  O  O21  1  0.92543600  0.08731000  0.87190800  1
  O  O22  1  0.92543600  0.58731000  0.62809200  1
  O  O23  1  0.07456400  0.91269000  0.12809200  1
  O  O24  1  0.32157000  0.43643400  0.59375400  1
  O  O25  1  0.67843000  0.06356600  0.09375400  1
  O  O26  1  0.67843000  0.56356600  0.40624600  1
  O  O27  1  0.32157000  0.93643400  0.90624600  1
loop_
_geom_bond_atom_site_label_1
_geom_bond_atom_site_label_2
_geom_bond_distance
_geom_bond_site_symmetry_2
Cu0 O22 1.860928 1_455
Cu0 O20 1.860928 1_555
Cu0 O16 1.887057 1_555
Cu0 O18 1.887057 1_455
Cu0 O26 2.560251 1_455
Cu0 O24 2.560251 1_555
Cu1 O21 1.860928 1_454
Cu1 O23 1.860928 1_545
Cu1 O19 1.887057 1_555
Cu1 O17 1.887057 1_444
Cu1 O27 2.560251 1_544
Cu1 O25 2.560251 1_455
N0 O0 1.139302 1_555
N1 O1 1.139302 1_555
N2 O2 1.139302 1_555
N3 O3 1.139302 1_555
O4 S0 1.454152 1_545
O5 S1 1.454152 1_555
O6 S2 1.454152 1_565
O7 S3 1.454152 1_555
O10 O24 1.254433 1_555
O11 O25 1.254433 1_555
O12 S0 1.451859 1_455
O13 S1 1.451859 1_655
O14 S2 1.451859 1_655
O15 S3 1.451859 1_455
O16 O20 1.368702 1_555
O17 O21 1.368702 1_565
O18 O22 1.368702 1_555
O19 O23 1.368702 1_545
O26 O8 1.254433 1_555
O27 O9 1.254433 1_555
