# generated using pymatgen
data_Li9Nd2(PS4)5
_symmetry_space_group_name_H-M   'P 1'
_cell_length_a   9.04543762
_cell_length_b   9.04543762
_cell_length_c   21.14136487
_cell_angle_alpha   85.23011104
_cell_angle_beta   85.23011104
_cell_angle_gamma   66.95209437
_symmetry_Int_Tables_number   1
_chemical_formula_structural   Li9Nd2(PS4)5
_chemical_formula_sum   'Li18 Nd4 P10 S40'
_cell_volume   1583.78080632
_cell_formula_units_Z   2
loop_
 _symmetry_equiv_pos_site_id
 _symmetry_equiv_pos_as_xyz
  1  'x, y, z'
loop_
 _atom_site_type_symbol
 _atom_site_label
 _atom_site_symmetry_multiplicity
 _atom_site_fract_x
 _atom_site_fract_y
 _atom_site_fract_z
 _atom_site_occupancy
  Li  Li0  1  0.42417000  0.47611549  0.11381422  1
  Li  Li1  1  0.52388451  0.57583000  0.38618578  1
  Li  Li2  1  0.57583000  0.52388451  0.88618578  1
  Li  Li3  1  0.47611549  0.42417000  0.61381422  1
  Li  Li4  1  0.18930923  0.36522659  0.02608502  1
  Li  Li5  1  0.63477341  0.81069077  0.47391498  1
  Li  Li6  1  0.81069077  0.63477341  0.97391498  1
  Li  Li7  1  0.36522659  0.18930923  0.52608502  1
  Li  Li8  1  0.00000000  0.50000000  0.50000000  1
  Li  Li9  1  0.50000000  0.00000000  -0.00000000  1
  Li  Li10  1  0.14805873  0.76401575  0.34063444  1
  Li  Li11  1  0.23598425  0.85194127  0.15936556  1
  Li  Li12  1  0.85194127  0.23598425  0.65936556  1
  Li  Li13  1  0.76401575  0.14805873  0.84063444  1
  Li  Li14  1  0.87765943  0.18960875  0.44398583  1
  Li  Li15  1  0.81039125  0.12234057  0.05601417  1
  Li  Li16  1  0.12234057  0.81039125  0.55601417  1
  Li  Li17  1  0.18960875  0.87765943  0.94398583  1
  Nd  Nd0  1  0.76055295  0.70946508  0.20024254  1
  Nd  Nd1  1  0.29053492  0.23944705  0.29975746  1
  Nd  Nd2  1  0.23944705  0.29053492  0.79975746  1
  Nd  Nd3  1  0.70946508  0.76055295  0.70024254  1
  P  P0  1  0.00944709  0.74484342  0.05858404  1
  P  P1  1  0.25515658  0.99055291  0.44141596  1
  P  P2  1  0.99055291  0.25515658  0.94141596  1
  P  P3  1  0.74484342  0.00944709  0.55858404  1
  P  P4  1  0.93093623  0.56702964  0.35299750  1
  P  P5  1  0.43297036  0.06906377  0.14700250  1
  P  P6  1  0.06906377  0.43297036  0.64700250  1
  P  P7  1  0.56702964  0.93093623  0.85299750  1
  P  P8  1  0.50368229  0.49631771  0.25000000  1
  P  P9  1  0.49631771  0.50368229  0.75000000  1
  S  S0  1  0.78208059  0.53106986  0.42756915  1
  S  S1  1  0.46893014  0.21791941  0.07243085  1
  S  S2  1  0.21791941  0.46893014  0.57243085  1
  S  S3  1  0.53106986  0.78208059  0.92756915  1
  S  S4  1  0.94151553  0.55550177  0.08565286  1
  S  S5  1  0.44449823  0.05848447  0.41434714  1
  S  S6  1  0.05848447  0.44449823  0.91434714  1
  S  S7  1  0.55550177  0.94151553  0.58565286  1
  S  S8  1  0.88203209  0.87912516  0.98392148  1
  S  S9  1  0.12087484  0.11796791  0.51607852  1
  S  S10  1  0.11796791  0.12087484  0.01607852  1
  S  S11  1  0.87912516  0.88203209  0.48392148  1
  S  S12  1  0.94447694  0.42557224  0.28024368  1
  S  S13  1  0.57442776  0.05552306  0.21975632  1
  S  S14  1  0.05552306  0.57442776  0.71975632  1
  S  S15  1  0.42557224  0.94447694  0.78024368  1
  S  S16  1  0.86127234  0.79866641  0.31659317  1
  S  S17  1  0.20133359  0.13872766  0.18340683  1
  S  S18  1  0.13872766  0.20133359  0.68340683  1
  S  S19  1  0.79866641  0.86127234  0.81659317  1
  S  S20  1  0.24997221  0.65604255  0.03014573  1
  S  S21  1  0.34395745  0.75002779  0.46985427  1
  S  S22  1  0.75002779  0.34395745  0.96985427  1
  S  S23  1  0.65604255  0.24997221  0.53014573  1
  S  S24  1  0.95392165  0.88685623  0.13597848  1
  S  S25  1  0.11314377  0.04607835  0.36402152  1
  S  S26  1  0.04607835  0.11314377  0.86402152  1
  S  S27  1  0.88685623  0.95392165  0.63597848  1
  S  S28  1  0.47670906  0.71612020  0.28134370  1
  S  S29  1  0.28387980  0.52329094  0.21865630  1
  S  S30  1  0.52329094  0.28387980  0.71865630  1
  S  S31  1  0.71612020  0.47670906  0.78134370  1
  S  S32  1  0.50305800  0.84706926  0.10918402  1
  S  S33  1  0.15293074  0.49694200  0.39081598  1
  S  S34  1  0.49694200  0.15293074  0.89081598  1
  S  S35  1  0.84706926  0.50305800  0.60918402  1
  S  S36  1  0.66747825  0.44293834  0.17374063  1
  S  S37  1  0.55706166  0.33252175  0.32625937  1
  S  S38  1  0.33252175  0.55706166  0.82625937  1
  S  S39  1  0.44293834  0.66747825  0.67374063  1
loop_
_geom_bond_atom_site_label_1
_geom_bond_atom_site_label_2
_geom_bond_distance
_geom_bond_site_symmetry_2
Li0 S1 2.434017 1_555
Li0 S29 2.443529 1_555
Li0 S20 2.497457 1_555
Li0 S36 2.534195 1_555
Li1 S0 2.434017 1_555
Li1 S28 2.443529 1_555
Li1 S21 2.497457 1_555
Li1 S37 2.534195 1_555
Li2 S3 2.434017 1_555
Li2 S31 2.443529 1_555
Li2 S22 2.497457 1_555
Li2 S38 2.534195 1_555
Li3 S2 2.434017 1_555
Li3 S30 2.443529 1_555
Li3 S23 2.497457 1_555
Li3 S39 2.534195 1_555
Li4 S4 2.538213 1_455
Li4 S10 2.561981 1_555
Li4 S1 2.586306 1_555
Li4 S6 2.648346 1_554
Li4 S20 2.898951 1_555
Li5 S5 2.538213 1_565
Li5 S11 2.561981 1_555
Li5 S0 2.586306 1_555
Li5 S7 2.648346 1_555
Li5 S21 2.898951 1_555
Li6 S6 2.538213 1_655
Li6 S8 2.561981 1_555
Li6 S3 2.586306 1_555
Li6 S4 2.648346 1_556
Li6 S22 2.898951 1_555
Li7 S7 2.538213 1_545
Li7 S9 2.561981 1_555
Li7 S2 2.586306 1_555
Li7 S5 2.648346 1_555
Li7 S23 2.898951 1_555
Li8 S0 2.511178 1_455
Li8 S2 2.511178 1_555
Li8 S33 2.586931 1_555
Li8 S35 2.586931 1_455
Li9 S3 2.511178 1_544
Li9 S1 2.511178 1_555
Li9 S34 2.586931 1_554
Li9 S32 2.586931 1_545
Li10 S25 2.531136 1_565
Li10 S33 2.541993 1_555
Li10 S16 2.577230 1_455
Li10 S28 3.009739 1_555
Li11 S24 2.531136 1_455
Li11 S32 2.541993 1_555
Li11 S17 2.577230 1_565
Li11 S29 3.009739 1_555
Li12 S27 2.531136 1_545
Li12 S35 2.541993 1_555
Li12 S18 2.577230 1_655
Li12 S30 3.009739 1_555
Li13 S26 2.531136 1_655
Li13 S34 2.541993 1_555
Li13 S19 2.577230 1_545
Li13 S31 3.009739 1_555
Li14 S23 2.517089 1_555
Li14 S25 2.584859 1_655
Li14 S9 2.619159 1_655
Li14 S11 2.834745 1_545
Li14 S0 2.861560 1_555
Li15 S22 2.517089 1_554
Li15 S24 2.584859 1_545
Li15 S8 2.619159 1_544
Li15 S10 2.834745 1_655
Li15 S1 2.861560 1_555
Li16 S21 2.517089 1_555
Li16 S27 2.584859 1_455
Li16 S11 2.619159 1_455
Li16 S9 2.834745 1_565
Li16 S2 2.861560 1_555
Li17 S20 2.517089 1_556
Li17 S26 2.584859 1_565
Li17 S10 2.619159 1_566
Li17 S8 2.834745 1_455
Li17 S3 2.861560 1_555
Nd0 S4 2.933337 1_555
Nd0 S12 2.936531 1_555
Nd0 S28 2.949488 1_555
Nd0 S36 2.954195 1_555
Nd0 S32 2.959299 1_555
Nd0 S13 2.962415 1_565
Nd0 S16 2.968177 1_555
Nd0 S24 2.986588 1_555
Nd1 S5 2.933337 1_555
Nd1 S13 2.936531 1_555
Nd1 S29 2.949488 1_555
Nd1 S37 2.954195 1_555
Nd1 S33 2.959299 1_555
Nd1 S12 2.962415 1_455
Nd1 S17 2.968177 1_555
Nd1 S25 2.986588 1_555
Nd2 S6 2.933337 1_555
Nd2 S14 2.936531 1_555
Nd2 S30 2.949488 1_555
Nd2 S38 2.954195 1_555
Nd2 S34 2.959299 1_555
Nd2 S15 2.962415 1_545
Nd2 S18 2.968177 1_555
Nd2 S26 2.986588 1_555
Nd3 S7 2.933337 1_555
Nd3 S15 2.936531 1_555
Nd3 S31 2.949488 1_555
Nd3 S39 2.954195 1_555
Nd3 S35 2.959299 1_555
Nd3 S14 2.962415 1_655
Nd3 S19 2.968177 1_555
Nd3 S27 2.986588 1_555
P0 S8 2.045187 1_454
P0 S20 2.057805 1_555
P0 S4 2.059339 1_455
P0 S24 2.070582 1_455
P1 S9 2.045187 1_565
P1 S21 2.057805 1_555
P1 S5 2.059339 1_565
P1 S25 2.070582 1_565
P2 S10 2.045187 1_656
P2 S22 2.057805 1_555
P2 S6 2.059339 1_655
P2 S26 2.070582 1_655
P3 S11 2.045187 1_545
P3 S23 2.057805 1_555
P3 S7 2.059339 1_545
P3 S27 2.070582 1_545
P4 S16 2.039163 1_555
P4 S12 2.047266 1_555
P4 S33 2.063809 1_655
P4 S0 2.075784 1_555
P5 S17 2.039163 1_555
P5 S13 2.047266 1_555
P5 S32 2.063809 1_545
P5 S1 2.075784 1_555
P6 S18 2.039163 1_555
P6 S14 2.047266 1_555
P6 S35 2.063809 1_455
P6 S2 2.075784 1_555
P7 S19 2.039163 1_555
P7 S15 2.047266 1_555
P7 S34 2.063809 1_565
P7 S3 2.075784 1_555
P8 S37 2.049300 1_555
P8 S36 2.049300 1_555
P8 S28 2.064946 1_555
P8 S29 2.064946 1_555
P9 S39 2.049300 1_555
P9 S38 2.049300 1_555
P9 S31 2.064946 1_555
P9 S30 2.064946 1_555
