# generated using pymatgen
data_Mg6ZrB
_symmetry_space_group_name_H-M   'P 1'
_cell_length_a   4.70022200
_cell_length_b   6.31962500
_cell_length_c   11.01603700
_cell_angle_alpha   90.00000000
_cell_angle_beta   90.00000000
_cell_angle_gamma   90.00000000
_symmetry_Int_Tables_number   1
_chemical_formula_structural   Mg6ZrB
_chemical_formula_sum   'Mg12 Zr2 B2'
_cell_volume   327.21640231
_cell_formula_units_Z   2
loop_
 _symmetry_equiv_pos_site_id
 _symmetry_equiv_pos_as_xyz
  1  'x, y, z'
loop_
 _atom_site_type_symbol
 _atom_site_label
 _atom_site_symmetry_multiplicity
 _atom_site_fract_x
 _atom_site_fract_y
 _atom_site_fract_z
 _atom_site_occupancy
  Mg  Mg0  1  0.00000000  0.74408200  0.07766000  1
  Mg  Mg1  1  0.00000000  0.25591800  0.07766000  1
  Mg  Mg2  1  0.00000000  0.00000000  0.33054600  1
  Mg  Mg3  1  0.50000000  0.25445200  0.40815400  1
  Mg  Mg4  1  0.50000000  0.74554800  0.40815400  1
  Mg  Mg5  1  0.50000000  0.00000000  0.16737700  1
  Mg  Mg6  1  0.00000000  0.24408200  0.57766000  1
  Mg  Mg7  1  0.00000000  0.75591800  0.57766000  1
  Mg  Mg8  1  0.00000000  0.50000000  0.83054600  1
  Mg  Mg9  1  0.50000000  0.75445200  0.90815400  1
  Mg  Mg10  1  0.50000000  0.24554800  0.90815400  1
  Mg  Mg11  1  0.50000000  0.50000000  0.66737700  1
  Zr  Zr0  1  0.00000000  0.50000000  0.31228600  1
  Zr  Zr1  1  0.00000000  0.00000000  0.81228600  1
  B  B0  1  0.50000000  0.50000000  0.21816300  1
  B  B1  1  0.50000000  0.00000000  0.71816300  1
loop_
_geom_bond_atom_site_label_1
_geom_bond_atom_site_label_2
_geom_bond_distance
_geom_bond_site_symmetry_2
Mg0 Mg9 3.002344 1_554
Mg0 Mg9 3.002344 1_454
Mg0 Zr0 3.009940 1_555
Mg0 Mg5 3.019187 1_465
Mg0 Mg5 3.019187 1_565
Mg0 Mg1 3.085013 1_555
Mg0 Mg8 3.128864 1_554
Mg0 Mg2 3.221237 1_565
Mg0 Mg1 3.234612 1_565
Mg0 Zr1 3.340923 1_564
Mg1 Mg10 3.002344 1_554
Mg1 Mg10 3.002344 1_454
Mg1 Zr0 3.009940 1_555
Mg1 Mg5 3.019187 1_455
Mg1 Mg5 3.019187 1_555
Mg1 Mg8 3.128864 1_554
Mg1 Mg2 3.221237 1_555
Mg1 Zr1 3.340923 1_554
Mg2 Mg5 2.958706 1_455
Mg2 Mg5 2.958706 1_555
Mg2 Mg3 2.973168 1_555
Mg2 Mg4 2.973168 1_445
Mg2 Mg4 2.973168 1_545
Mg2 Mg3 2.973168 1_455
Mg2 Mg6 3.128864 1_555
Mg2 Mg7 3.128864 1_545
Mg2 Zr0 3.166209 1_545
Mg2 Zr0 3.166209 1_555
Mg3 Mg6 3.002344 1_555
Mg3 Mg6 3.002344 1_655
Mg3 Mg5 3.101784 1_555
Mg4 Mg7 3.002344 1_555
Mg4 Mg7 3.002344 1_655
Mg4 Mg5 3.101784 1_565
Mg5 Mg9 3.250001 1_544
Mg6 Zr1 3.009940 1_555
Mg6 Mg7 3.085013 1_545
Mg6 Mg8 3.221237 1_555
Mg6 Mg7 3.234612 1_555
Mg6 Zr0 3.340923 1_555
Mg7 Zr1 3.009940 1_565
Mg7 Mg8 3.221237 1_555
Mg7 Zr0 3.340923 1_555
Mg8 Mg9 2.973168 1_555
Mg8 Mg9 2.973168 1_455
Mg8 Zr1 3.166209 1_565
Mg8 Zr1 3.166209 1_555
Mg10 Mg8 2.973168 1_655
Mg10 Mg8 2.973168 1_555
Mg10 Mg11 3.101784 1_555
Mg10 Mg5 3.250001 1_556
Mg11 Mg8 2.958706 1_655
Mg11 Mg8 2.958706 1_555
Mg11 Mg6 3.019187 1_655
Mg11 Mg7 3.019187 1_555
Mg11 Mg7 3.019187 1_655
Mg11 Mg6 3.019187 1_555
Mg11 Mg9 3.101784 1_555
Mg11 Mg3 3.250001 1_555
Mg11 Mg4 3.250001 1_555
B0 Zr0 2.568678 1_555
B0 Zr0 2.568678 1_655
B0 Mg3 2.605461 1_555
B0 Mg4 2.605461 1_555
B1 Zr1 2.568678 1_555
B1 Zr1 2.568678 1_655
B1 Mg9 2.605461 1_545
B1 Mg10 2.605461 1_555
