# generated using pymatgen
data_SiNiO4
_symmetry_space_group_name_H-M   'P 1'
_cell_length_a   10.02551537
_cell_length_b   10.02551537
_cell_length_c   10.02551537
_cell_angle_alpha   109.47122063
_cell_angle_beta   109.47122063
_cell_angle_gamma   109.47122063
_symmetry_Int_Tables_number   1
_chemical_formula_structural   SiNiO4
_chemical_formula_sum   'Si12 Ni12 O48'
_cell_volume   775.70792994
_cell_formula_units_Z   12
loop_
 _symmetry_equiv_pos_site_id
 _symmetry_equiv_pos_as_xyz
  1  'x, y, z'
loop_
 _atom_site_type_symbol
 _atom_site_label
 _atom_site_symmetry_multiplicity
 _atom_site_fract_x
 _atom_site_fract_y
 _atom_site_fract_z
 _atom_site_occupancy
  Si  Si0  1  0.12500000  0.87500000  0.25000000  1
  Si  Si1  1  0.25000000  0.12500000  0.87500000  1
  Si  Si2  1  0.75000000  0.37500000  0.62500000  1
  Si  Si3  1  0.62500000  0.37500000  0.25000000  1
  Si  Si4  1  0.62500000  0.75000000  0.37500000  1
  Si  Si5  1  0.37500000  0.62500000  0.75000000  1
  Si  Si6  1  0.12500000  0.75000000  0.87500000  1
  Si  Si7  1  0.75000000  0.87500000  0.12500000  1
  Si  Si8  1  0.87500000  0.25000000  0.12500000  1
  Si  Si9  1  0.37500000  0.25000000  0.62500000  1
  Si  Si10  1  0.25000000  0.62500000  0.37500000  1
  Si  Si11  1  0.87500000  0.12500000  0.75000000  1
  Ni  Ni0  1  0.87500000  0.62500000  0.25000000  1
  Ni  Ni1  1  0.62500000  0.25000000  0.87500000  1
  Ni  Ni2  1  0.87500000  0.75000000  0.62500000  1
  Ni  Ni3  1  0.75000000  0.62500000  0.87500000  1
  Ni  Ni4  1  0.25000000  0.87500000  0.62500000  1
  Ni  Ni5  1  0.62500000  0.87500000  0.75000000  1
  Ni  Ni6  1  0.12500000  0.37500000  0.75000000  1
  Ni  Ni7  1  0.37500000  0.75000000  0.12500000  1
  Ni  Ni8  1  0.12500000  0.25000000  0.37500000  1
  Ni  Ni9  1  0.25000000  0.37500000  0.12500000  1
  Ni  Ni10  1  0.75000000  0.12500000  0.37500000  1
  Ni  Ni11  1  0.37500000  0.12500000  0.25000000  1
  O  O0  1  0.46706800  0.36873000  0.27081300  1
  O  O1  1  0.30374500  0.90166200  0.03293200  1
  O  O2  1  0.59833800  0.90208300  0.13127000  1
  O  O3  1  0.59791700  0.19625500  0.22918700  1
  O  O4  1  0.13127000  0.03293200  0.22918700  1
  O  O5  1  0.19625500  0.22918700  0.59791700  1
  O  O6  1  0.19625500  0.46706800  0.59833800  1
  O  O7  1  0.22918700  0.59791700  0.19625500  1
  O  O8  1  0.36873000  0.59791700  0.90166200  1
  O  O9  1  0.90208300  0.27081300  0.30374500  1
  O  O10  1  0.27081300  0.30374500  0.90208300  1
  O  O11  1  0.22918700  0.13127000  0.03293200  1
  O  O12  1  0.46706800  0.59833800  0.19625500  1
  O  O13  1  0.90166200  0.36873000  0.59791700  1
  O  O14  1  0.03293200  0.22918700  0.13127000  1
  O  O15  1  0.59833800  0.19625500  0.46706800  1
  O  O16  1  0.59791700  0.90166200  0.36873000  1
  O  O17  1  0.03293200  0.30374500  0.90166200  1
  O  O18  1  0.90208300  0.13127000  0.59833800  1
  O  O19  1  0.63127000  0.40208300  0.09833800  1
  O  O20  1  0.36873000  0.27081300  0.46706800  1
  O  O21  1  0.27081300  0.46706800  0.36873000  1
  O  O22  1  0.90166200  0.03293200  0.30374500  1
  O  O23  1  0.30374500  0.90208300  0.27081300  1
  O  O24  1  0.53293200  0.63127000  0.72918700  1
  O  O25  1  0.69625500  0.09833800  0.96706800  1
  O  O26  1  0.40166200  0.09791700  0.86873000  1
  O  O27  1  0.40208300  0.80374500  0.77081300  1
  O  O28  1  0.86873000  0.96706800  0.77081300  1
  O  O29  1  0.80374500  0.77081300  0.40208300  1
  O  O30  1  0.80374500  0.53293200  0.40166200  1
  O  O31  1  0.77081300  0.40208300  0.80374500  1
  O  O32  1  0.69625500  0.09791700  0.72918700  1
  O  O33  1  0.09833800  0.96706800  0.69625500  1
  O  O34  1  0.72918700  0.53293200  0.63127000  1
  O  O35  1  0.63127000  0.72918700  0.53293200  1
  O  O36  1  0.86873000  0.40166200  0.09791700  1
  O  O37  1  0.09791700  0.86873000  0.40166200  1
  O  O38  1  0.96706800  0.69625500  0.09833800  1
  O  O39  1  0.40208300  0.09833800  0.63127000  1
  O  O40  1  0.40166200  0.80374500  0.53293200  1
  O  O41  1  0.96706800  0.77081300  0.86873000  1
  O  O42  1  0.09833800  0.63127000  0.40208300  1
  O  O43  1  0.53293200  0.40166200  0.80374500  1
  O  O44  1  0.77081300  0.86873000  0.96706800  1
  O  O45  1  0.72918700  0.69625500  0.09791700  1
  O  O46  1  0.09791700  0.72918700  0.69625500  1
  O  O47  1  0.13127000  0.59833800  0.90208300  1
loop_
_geom_bond_atom_site_label_1
_geom_bond_atom_site_label_2
_geom_bond_distance
_geom_bond_site_symmetry_2
Ni0 O30 2.212322 1_555
Ni0 O38 2.212322 1_555
Ni0 O37 2.212322 1_655
Ni0 O19 2.212322 1_555
Ni0 O42 2.215508 1_655
Ni0 O29 2.215508 1_555
Ni0 O45 2.215508 1_555
Ni0 O36 2.215508 1_555
Ni1 O25 2.212322 1_555
Ni1 O43 2.212322 1_555
Ni1 O36 2.212322 1_556
Ni1 O39 2.212322 1_555
Ni1 O19 2.215508 1_556
Ni1 O31 2.215508 1_555
Ni1 O32 2.215508 1_555
Ni1 O26 2.215508 1_555
Ni2 O46 2.212322 1_655
Ni2 O35 2.212322 1_555
Ni2 O41 2.212322 1_555
Ni2 O29 2.212322 1_555
Ni2 O28 2.215508 1_555
Ni2 O33 2.215508 1_655
Ni2 O30 2.215508 1_555
Ni2 O34 2.215508 1_555
Ni3 O45 2.212322 1_556
Ni3 O34 2.212322 1_555
Ni3 O44 2.212322 1_555
Ni3 O31 2.212322 1_555
Ni3 O41 2.215508 1_555
Ni3 O38 2.215508 1_556
Ni3 O43 2.215508 1_555
Ni3 O24 2.215508 1_555
Ni4 O33 2.212322 1_555
Ni4 O40 2.212322 1_555
Ni4 O26 2.212322 1_565
Ni4 O42 2.212322 1_555
Ni4 O39 2.215508 1_565
Ni4 O27 2.215508 1_555
Ni4 O46 2.215508 1_555
Ni4 O37 2.215508 1_555
Ni5 O32 2.212322 1_565
Ni5 O24 2.212322 1_555
Ni5 O28 2.212322 1_555
Ni5 O27 2.212322 1_555
Ni5 O44 2.215508 1_555
Ni5 O25 2.215508 1_565
Ni5 O40 2.215508 1_555
Ni5 O35 2.215508 1_555
Ni6 O8 2.212322 1_555
Ni6 O18 2.212322 1_455
Ni6 O6 2.212322 1_555
Ni6 O17 2.212322 1_555
Ni6 O47 2.215508 1_555
Ni6 O10 2.215508 1_555
Ni6 O5 2.215508 1_555
Ni6 O13 2.215508 1_455
Ni7 O16 2.212322 1_555
Ni7 O47 2.212322 1_554
Ni7 O12 2.212322 1_555
Ni7 O1 2.212322 1_555
Ni7 O2 2.215508 1_555
Ni7 O23 2.215508 1_555
Ni7 O7 2.215508 1_555
Ni7 O8 2.215508 1_554
Ni8 O5 2.212322 1_555
Ni8 O9 2.212322 1_455
Ni8 O14 2.212322 1_555
Ni8 O20 2.212322 1_555
Ni8 O21 2.215508 1_555
Ni8 O6 2.215508 1_555
Ni8 O22 2.215508 1_455
Ni8 O4 2.215508 1_555
Ni9 O7 2.212322 1_555
Ni9 O10 2.212322 1_554
Ni9 O11 2.212322 1_555
Ni9 O21 2.212322 1_555
Ni9 O0 2.215508 1_555
Ni9 O12 2.215508 1_555
Ni9 O17 2.215508 1_554
Ni9 O14 2.215508 1_555
Ni10 O13 2.212322 1_555
Ni10 O2 2.212322 1_545
Ni10 O22 2.212322 1_555
Ni10 O15 2.212322 1_555
Ni10 O18 2.215508 1_555
Ni10 O9 2.215508 1_555
Ni10 O3 2.215508 1_555
Ni10 O16 2.215508 1_545
Ni11 O3 2.212322 1_555
Ni11 O23 2.212322 1_545
Ni11 O4 2.212322 1_555
Ni11 O0 2.212322 1_555
Ni11 O20 2.215508 1_555
Ni11 O15 2.215508 1_555
Ni11 O1 2.215508 1_545
Ni11 O11 2.215508 1_555
O0 Si3 1.648373 1_555
O1 Si6 1.648373 1_554
O2 Si7 1.648373 1_555
O3 Si3 1.648373 1_555
O4 Si0 1.648373 1_545
O5 Si9 1.648373 1_555
O6 Si5 1.648373 1_555
O7 Si10 1.648373 1_555
O8 Si5 1.648373 1_555
O9 Si8 1.648373 1_555
O10 Si1 1.648373 1_555
O11 Si1 1.648373 1_554
O12 Si4 1.648373 1_555
O13 Si2 1.648373 1_555
O14 Si8 1.648373 1_455
O15 Si2 1.648373 1_555
O16 Si4 1.648373 1_555
O17 Si11 1.648373 1_455
O18 Si11 1.648373 1_555
O19 Si3 1.648373 1_555
O20 Si9 1.648373 1_555
O21 Si10 1.648373 1_555
O22 Si7 1.648373 1_545
O23 Si0 1.648373 1_555
O24 Si5 1.648373 1_555
O25 Si8 1.648373 1_556
O26 Si1 1.648373 1_555
O27 Si5 1.648373 1_555
O28 Si11 1.648373 1_565
O29 Si4 1.648373 1_555
O30 Si3 1.648373 1_555
O31 Si2 1.648373 1_555
O32 Si11 1.648373 1_555
O33 Si1 1.648373 1_565
O34 Si2 1.648373 1_555
O35 Si4 1.648373 1_555
O36 Si8 1.648373 1_555
O37 Si0 1.648373 1_555
O38 Si0 1.648373 1_655
O39 Si9 1.648373 1_555
O40 Si10 1.648373 1_555
O41 Si6 1.648373 1_655
O42 Si10 1.648373 1_555
O43 Si9 1.648373 1_555
O44 Si7 1.648373 1_556
O45 Si7 1.648373 1_555
O46 Si6 1.648373 1_555
O47 Si6 1.648373 1_555
