# generated using pymatgen
data_SrAlSi5N7O2
_symmetry_space_group_name_H-M   'P 1'
_cell_length_a   4.93742200
_cell_length_b   6.80448568
_cell_length_c   6.86298414
_cell_angle_alpha   75.32170240
_cell_angle_beta   69.49518429
_cell_angle_gamma   69.07919226
_symmetry_Int_Tables_number   1
_chemical_formula_structural   SrAlSi5N7O2
_chemical_formula_sum   'Sr1 Al1 Si5 N7 O2'
_cell_volume   199.54578823
_cell_formula_units_Z   1
loop_
 _symmetry_equiv_pos_site_id
 _symmetry_equiv_pos_as_xyz
  1  'x, y, z'
loop_
 _atom_site_type_symbol
 _atom_site_label
 _atom_site_symmetry_multiplicity
 _atom_site_fract_x
 _atom_site_fract_y
 _atom_site_fract_z
 _atom_site_occupancy
  Sr  Sr0  1  0.27991300  0.01044200  0.99555400  1
  Al  Al0  1  0.82512400  0.52720900  0.14714000  1
  Si  Si0  1  0.32548200  0.33279400  0.33222700  1
  Si  Si1  1  0.98951000  0.66075700  0.66078000  1
  Si  Si2  1  0.50167100  0.46847900  0.85472700  1
  Si  Si3  1  0.81633900  0.14417000  0.53179500  1
  Si  Si4  1  0.48514300  0.85937900  0.47974300  1
  N  N0  1  0.69287600  0.29706300  0.31545300  1
  N  N1  1  0.30979100  0.69029100  0.68798000  1
  N  N2  1  0.23983900  0.44384200  0.09891700  1
  N  N3  1  0.76011200  0.56749500  0.88951700  1
  N  N4  1  0.21537900  0.10089900  0.44373300  1
  N  N5  1  0.76787700  0.89512300  0.55151500  1
  N  N6  1  0.62972100  0.22842200  0.76933600  1
  O  O0  1  0.07726700  0.49975900  0.49324600  1
  O  O1  1  0.61505600  0.77387700  0.24833600  1
loop_
_geom_bond_atom_site_label_1
_geom_bond_atom_site_label_2
_geom_bond_distance
_geom_bond_site_symmetry_2
Al0 O1 1.793921 1_555
Al0 N3 1.842108 1_554
Al0 N2 1.847957 1_655
Al0 N0 1.870353 1_555
N0 Si0 1.707573 1_555
N0 Si3 1.748367 1_555
N1 Si1 1.740320 1_455
N1 Si4 1.768343 1_555
N1 Si2 1.829817 1_555
N2 Si0 1.716572 1_555
N2 Si2 1.732774 1_554
N3 Si1 1.706670 1_555
N3 Si2 1.745897 1_555
N4 Si4 1.731331 1_545
N4 Si0 1.755051 1_555
N4 Si3 1.781979 1_455
N5 Si1 1.739414 1_555
N5 Si4 1.742254 1_555
N5 Si3 1.760122 1_565
N6 Si3 1.696879 1_555
N6 Si2 1.702760 1_555
N6 Sr0 2.525342 1_555
O0 Si1 1.631016 1_455
O0 Si0 1.645294 1_555
O1 Si4 1.661385 1_555
O1 Sr0 2.651912 1_564
