# generated using pymatgen
data_CsRbSO4
_symmetry_space_group_name_H-M   'P 1'
_cell_length_a   6.30100800
_cell_length_b   6.30100800
_cell_length_c   8.27195800
_cell_angle_alpha   90.00000000
_cell_angle_beta   90.00000000
_cell_angle_gamma   120.00000002
_symmetry_Int_Tables_number   1
_chemical_formula_structural   CsRbSO4
_chemical_formula_sum   'Cs2 Rb2 S2 O8'
_cell_volume   284.41926815
_cell_formula_units_Z   2
loop_
 _symmetry_equiv_pos_site_id
 _symmetry_equiv_pos_as_xyz
  1  'x, y, z'
loop_
 _atom_site_type_symbol
 _atom_site_label
 _atom_site_symmetry_multiplicity
 _atom_site_fract_x
 _atom_site_fract_y
 _atom_site_fract_z
 _atom_site_occupancy
  Cs  Cs0  1  0.00000000  0.00000000  0.68702600  1
  Cs  Cs1  1  0.66666700  0.33333300  0.37824300  1
  Rb  Rb0  1  0.33333300  0.66666700  0.99630000  1
  Rb  Rb1  1  0.00000000  0.00000000  0.18518200  1
  S  S0  1  0.66666700  0.33333300  0.91503200  1
  S  S1  1  0.33333300  0.66666700  0.45438000  1
  O  O0  1  0.20419000  0.40838000  0.39059400  1
  O  O1  1  0.20419000  0.79581000  0.39059400  1
  O  O2  1  0.59162000  0.79581000  0.39059400  1
  O  O3  1  0.66666700  0.33333300  0.73674200  1
  O  O4  1  0.79605900  0.59211800  0.97837600  1
  O  O5  1  0.79605900  0.20394100  0.97837600  1
  O  O6  1  0.40788200  0.20394100  0.97837600  1
  O  O7  1  0.33333300  0.66666700  0.63318400  1
loop_
_geom_bond_atom_site_label_1
_geom_bond_atom_site_label_2
_geom_bond_distance
_geom_bond_site_symmetry_2
Cs0 O6 3.280580 1_555
Cs0 O4 3.280580 1_445
Cs0 O5 3.280580 1_455
Cs0 O0 3.313413 1_555
Cs0 O2 3.313413 1_445
Cs0 O1 3.313413 1_545
Cs0 O3 3.661056 1_455
Cs0 O3 3.661062 1_555
Cs0 O3 3.661062 1_445
Cs0 O7 3.665047 1_545
Cs0 O7 3.665052 1_555
Cs0 O7 3.665052 1_445
Cs1 O3 2.965489 1_555
Cs1 O2 3.178647 1_545
Cs1 O0 3.178647 1_655
Cs1 O1 3.178650 1_545
Cs1 O1 3.178650 1_655
Cs1 O0 3.178654 1_555
Cs1 O2 3.178654 1_555
Cs1 O5 3.596514 1_554
Cs1 O4 3.596516 1_554
Cs1 O6 3.596516 1_554
O0 S1 1.504955 1_555
O0 Rb1 2.802353 1_555
O1 S1 1.504950 1_555
O1 Rb1 2.802353 1_565
O2 S1 1.504955 1_555
O2 Rb1 2.802353 1_665
O3 S0 1.474807 1_555
O4 S0 1.506224 1_555
O4 Rb1 2.807205 1_666
O4 Rb0 3.180114 1_655
O4 Rb0 3.180120 1_555
O5 S0 1.506219 1_555
O5 Rb1 2.807205 1_656
O5 Rb0 3.180117 1_545
O5 Rb0 3.180117 1_655
O6 S0 1.506224 1_555
O6 Rb1 2.807205 1_556
O6 Rb0 3.180114 1_545
O6 Rb0 3.180120 1_555
O7 S1 1.479059 1_555
O7 Rb0 3.003680 1_555
