# generated using pymatgen
data_Na2AlHgBr6
_symmetry_space_group_name_H-M   'P 1'
_cell_length_a   7.74452480
_cell_length_b   7.74452480
_cell_length_c   7.74452480
_cell_angle_alpha   60.00000000
_cell_angle_beta   60.00000000
_cell_angle_gamma   60.00000000
_symmetry_Int_Tables_number   1
_chemical_formula_structural   Na2AlHgBr6
_chemical_formula_sum   'Na2 Al1 Hg1 Br6'
_cell_volume   328.45004515
_cell_formula_units_Z   1
loop_
 _symmetry_equiv_pos_site_id
 _symmetry_equiv_pos_as_xyz
  1  'x, y, z'
loop_
 _atom_site_type_symbol
 _atom_site_label
 _atom_site_symmetry_multiplicity
 _atom_site_fract_x
 _atom_site_fract_y
 _atom_site_fract_z
 _atom_site_occupancy
  Na  Na0  1  0.75000000  0.75000000  0.75000000  1
  Na  Na1  1  0.25000000  0.25000000  0.25000000  1
  Al  Al0  1  0.00000000  0.00000000  0.00000000  1
  Hg  Hg0  1  0.50000000  0.50000000  0.50000000  1
  Br  Br0  1  0.76850500  0.23149500  0.23149500  1
  Br  Br1  1  0.23149500  0.23149500  0.76850500  1
  Br  Br2  1  0.23149500  0.76850500  0.76850500  1
  Br  Br3  1  0.23149500  0.76850500  0.23149500  1
  Br  Br4  1  0.76850500  0.23149500  0.76850500  1
  Br  Br5  1  0.76850500  0.76850500  0.23149500  1
loop_
_geom_bond_atom_site_label_1
_geom_bond_atom_site_label_2
_geom_bond_distance
_geom_bond_site_symmetry_2
Al0 Br5 2.535429 1_445
Al0 Br3 2.535429 1_545
Al0 Br2 2.535429 1_544
Al0 Br4 2.535429 1_454
Al0 Br1 2.535429 1_554
Al0 Br0 2.535429 1_455
Br0 Hg0 2.940777 1_555
Br1 Hg0 2.940777 1_555
Br2 Hg0 2.940777 1_555
Br3 Hg0 2.940777 1_555
Br4 Hg0 2.940777 1_555
Br5 Hg0 2.940777 1_555
