# generated using pymatgen
data_La2S3O16
_symmetry_space_group_name_H-M   'P 1'
_cell_length_a   7.29712400
_cell_length_b   12.77518000
_cell_length_c   18.59368771
_cell_angle_alpha   49.81960712
_cell_angle_beta   90.00000000
_cell_angle_gamma   90.00000000
_symmetry_Int_Tables_number   1
_chemical_formula_structural   La2S3O16
_chemical_formula_sum   'La8 S12 O64'
_cell_volume   1324.30260190
_cell_formula_units_Z   4
loop_
 _symmetry_equiv_pos_site_id
 _symmetry_equiv_pos_as_xyz
  1  'x, y, z'
loop_
 _atom_site_type_symbol
 _atom_site_label
 _atom_site_symmetry_multiplicity
 _atom_site_fract_x
 _atom_site_fract_y
 _atom_site_fract_z
 _atom_site_occupancy
  La  La0  1  0.87092500  0.23507400  0.08162200  1
  La  La1  1  0.62907500  0.23507400  0.58162200  1
  La  La2  1  0.12907500  0.76492600  0.91837800  1
  La  La3  1  0.37092500  0.76492600  0.41837800  1
  La  La4  1  0.08723600  0.16494900  0.31390000  1
  La  La5  1  0.41276400  0.16494900  0.81390000  1
  La  La6  1  0.91276400  0.83505100  0.68610000  1
  La  La7  1  0.58723600  0.83505100  0.18610000  1
  S  S0  1  0.62366300  0.18701200  0.94847900  1
  S  S1  1  0.87633700  0.18701200  0.44847900  1
  S  S2  1  0.37633700  0.81298800  0.05152100  1
  S  S3  1  0.12366300  0.81298800  0.55152100  1
  S  S4  1  0.81662900  0.46274100  0.09972500  1
  S  S5  1  0.68337100  0.46274100  0.59972500  1
  S  S6  1  0.18337100  0.53725900  0.90027500  1
  S  S7  1  0.31662900  0.53725900  0.40027500  1
  S  S8  1  0.87710700  0.90860800  0.30494800  1
  S  S9  1  0.62289300  0.90860800  0.80494800  1
  S  S10  1  0.12289300  0.09139200  0.69505200  1
  S  S11  1  0.37710700  0.09139200  0.19505200  1
  O  O0  1  0.71015800  0.84156800  0.36197600  1
  O  O1  1  0.78984200  0.84156800  0.86197600  1
  O  O2  1  0.28984200  0.15843200  0.63802400  1
  O  O3  1  0.21015800  0.15843200  0.13802400  1
  O  O4  1  0.85366000  0.93697600  0.21291200  1
  O  O5  1  0.64634000  0.93697600  0.71291200  1
  O  O6  1  0.14634000  0.06302400  0.78708800  1
  O  O7  1  0.35366000  0.06302400  0.28708800  1
  O  O8  1  0.89745300  0.05041600  0.27527500  1
  O  O9  1  0.60254700  0.05041600  0.77527500  1
  O  O10  1  0.10254700  0.94958400  0.72472500  1
  O  O11  1  0.39745300  0.94958400  0.22472500  1
  O  O12  1  0.04344500  0.82868900  0.35424700  1
  O  O13  1  0.45655500  0.82868900  0.85424700  1
  O  O14  1  0.95655500  0.17131100  0.64575300  1
  O  O15  1  0.54344500  0.17131100  0.14575300  1
  O  O16  1  0.42220900  0.20129700  0.93345700  1
  O  O17  1  0.07779100  0.20129700  0.43345700  1
  O  O18  1  0.57779100  0.79870300  0.06654300  1
  O  O19  1  0.92220900  0.79870300  0.56654300  1
  O  O20  1  0.70903000  0.30158300  0.93709000  1
  O  O21  1  0.79097000  0.30158300  0.43709000  1
  O  O22  1  0.29097000  0.69841700  0.06291000  1
  O  O23  1  0.20903000  0.69841700  0.56291000  1
  O  O24  1  0.66917600  0.06047900  0.04793200  1
  O  O25  1  0.83082400  0.06047900  0.54793200  1
  O  O26  1  0.33082400  0.93952100  0.95206800  1
  O  O27  1  0.16917600  0.93952100  0.45206800  1
  O  O28  1  0.69780000  0.17144500  0.88078400  1
  O  O29  1  0.80220000  0.17144500  0.38078400  1
  O  O30  1  0.30220000  0.82855500  0.11921600  1
  O  O31  1  0.19780000  0.82855500  0.61921600  1
  O  O32  1  0.93508100  0.58697000  0.04627300  1
  O  O33  1  0.56491900  0.58697000  0.54627300  1
  O  O34  1  0.06491900  0.41303000  0.95372700  1
  O  O35  1  0.43508100  0.41303000  0.45372700  1
  O  O36  1  0.94764200  0.33467900  0.16142900  1
  O  O37  1  0.55235800  0.33467900  0.66142900  1
  O  O38  1  0.05235800  0.66532100  0.83857100  1
  O  O39  1  0.44764200  0.66532100  0.33857100  1
  O  O40  1  0.68617200  0.45936700  0.15892100  1
  O  O41  1  0.81382800  0.45936700  0.65892100  1
  O  O42  1  0.31382800  0.54063300  0.84107900  1
  O  O43  1  0.18617200  0.54063300  0.34107900  1
  O  O44  1  0.73692300  0.44364200  0.03452400  1
  O  O45  1  0.76307700  0.44364200  0.53452400  1
  O  O46  1  0.26307700  0.55635800  0.96547600  1
  O  O47  1  0.23692300  0.55635800  0.46547600  1
  O  O48  1  0.31443100  0.40056800  0.19543200  1
  O  O49  1  0.18556900  0.40056800  0.69543200  1
  O  O50  1  0.68556900  0.59943200  0.80456800  1
  O  O51  1  0.81443100  0.59943200  0.30456800  1
  O  O52  1  0.05899900  0.13699800  0.97994000  1
  O  O53  1  0.44100100  0.13699800  0.47994000  1
  O  O54  1  0.94100100  0.86300200  0.02006000  1
  O  O55  1  0.55899900  0.86300200  0.52006000  1
  O  O56  1  0.21528600  0.44366200  0.22530600  1
  O  O57  1  0.28471400  0.44366200  0.72530600  1
  O  O58  1  0.78471400  0.55633800  0.77469400  1
  O  O59  1  0.71528600  0.55633800  0.27469400  1
  O  O60  1  0.43302300  0.19745600  0.39514900  1
  O  O61  1  0.06697700  0.19745600  0.89514900  1
  O  O62  1  0.56697700  0.80254400  0.60485100  1
  O  O63  1  0.93302300  0.80254400  0.10485100  1
loop_
_geom_bond_atom_site_label_1
_geom_bond_atom_site_label_2
_geom_bond_distance
_geom_bond_site_symmetry_2
La0 O44 2.410729 1_555
La0 O34 2.418926 1_654
La0 O20 2.528466 1_554
La0 O15 2.557835 1_555
La0 O36 2.563418 1_555
La0 O3 2.619392 1_655
La0 O8 2.758049 1_555
La0 O4 2.912341 1_545
La0 O24 3.055774 1_555
La0 O52 3.175630 1_654
La1 O45 2.410729 1_555
La1 O35 2.418926 1_555
La1 O21 2.528466 1_555
La1 O14 2.557835 1_555
La1 O37 2.563418 1_555
La1 O2 2.619392 1_555
La1 O9 2.758049 1_555
La1 O5 2.912341 1_545
La1 O25 3.055774 1_555
La1 O53 3.175630 1_555
La2 O46 2.410729 1_555
La2 O32 2.418926 1_456
La2 O22 2.528466 1_556
La2 O13 2.557835 1_555
La2 O38 2.563418 1_555
La2 O1 2.619392 1_455
La2 O10 2.758049 1_555
La2 O6 2.912341 1_565
La2 O26 3.055774 1_555
La2 O54 3.175630 1_456
La3 O47 2.410729 1_555
La3 O33 2.418926 1_555
La3 O23 2.528466 1_555
La3 O12 2.557835 1_555
La3 O39 2.563418 1_555
La3 O0 2.619392 1_555
La3 O11 2.758049 1_555
La3 O7 2.912341 1_565
La3 O27 3.055774 1_555
La3 O55 3.175630 1_555
La4 O27 2.388349 1_545
La4 O36 2.417472 1_455
La4 O8 2.435267 1_455
La4 O29 2.452104 1_455
La4 O17 2.548361 1_555
La4 O7 2.561507 1_555
La4 O48 2.846985 1_555
La4 O56 2.948896 1_555
La4 O60 3.103399 1_555
La5 O26 2.388349 1_545
La5 O37 2.417472 1_555
La5 O9 2.435267 1_555
La5 O28 2.452104 1_555
La5 O16 2.548361 1_555
La5 O6 2.561507 1_555
La5 O49 2.846985 1_555
La5 O57 2.948896 1_555
La5 O61 3.103399 1_555
La6 O25 2.388349 1_565
La6 O38 2.417472 1_655
La6 O10 2.435267 1_655
La6 O31 2.452104 1_655
La6 O19 2.548361 1_555
La6 O5 2.561507 1_555
La6 O50 2.846985 1_555
La6 O58 2.948896 1_555
La6 O62 3.103399 1_555
La7 O24 2.388349 1_565
La7 O39 2.417472 1_555
La7 O11 2.435267 1_555
La7 O30 2.452104 1_555
La7 O18 2.548361 1_555
La7 O4 2.561507 1_555
La7 O51 2.846985 1_555
La7 O59 2.948896 1_555
La7 O63 3.103399 1_555
O0 S8 1.473137 1_555
O1 S9 1.473137 1_555
O2 S10 1.473137 1_555
O3 S11 1.473137 1_555
O4 S8 1.512892 1_555
O5 S9 1.512892 1_555
O6 S10 1.512892 1_555
O7 S11 1.512892 1_555
O8 S8 1.522709 1_545
O9 S9 1.522709 1_545
O10 S10 1.522709 1_565
O11 S11 1.522709 1_565
O12 S8 1.465700 1_455
O13 S9 1.465700 1_555
O14 S10 1.465700 1_655
O15 S11 1.465700 1_555
O16 S0 1.485445 1_555
O17 S1 1.485445 1_455
O18 S2 1.485445 1_555
O19 S3 1.485445 1_655
O20 S0 1.474872 1_555
O21 S1 1.474872 1_555
O22 S2 1.474872 1_555
O23 S3 1.474872 1_555
O24 S0 1.511824 1_554
O25 S1 1.511824 1_555
O26 S2 1.511824 1_556
O27 S3 1.511824 1_555
O28 S0 1.496513 1_555
O29 S1 1.496513 1_555
O30 S2 1.496513 1_555
O31 S3 1.496513 1_555
O32 S4 1.489380 1_555
O33 S5 1.489380 1_555
O34 S6 1.489380 1_555
O35 S7 1.489380 1_555
O36 S4 1.576308 1_555
O37 S5 1.576308 1_555
O38 S6 1.576308 1_555
O39 S7 1.576308 1_555
O40 S4 1.434694 1_555
O41 S5 1.434694 1_555
O42 S6 1.434694 1_555
O43 S7 1.434694 1_555
O44 S4 1.499751 1_555
O45 S5 1.499751 1_555
O46 S6 1.499751 1_555
O47 S7 1.499751 1_555
O48 O56 1.236791 1_555
O49 O57 1.236791 1_555
O50 O58 1.236791 1_555
O51 O59 1.236791 1_555
O52 O61 1.230542 1_555
O53 O60 1.230542 1_555
O54 O63 1.230542 1_555
O55 O62 1.230542 1_555
