# generated using pymatgen
data_Rb2MgH12(SO7)2
_symmetry_space_group_name_H-M   'P 1'
_cell_length_a   12.59247500
_cell_length_b   6.28435000
_cell_length_c   9.29246047
_cell_angle_alpha   74.01474105
_cell_angle_beta   90.00000000
_cell_angle_gamma   90.00000000
_symmetry_Int_Tables_number   1
_chemical_formula_structural   Rb2MgH12(SO7)2
_chemical_formula_sum   'Rb4 Mg2 H24 S4 O28'
_cell_volume   706.92907719
_cell_formula_units_Z   2
loop_
 _symmetry_equiv_pos_site_id
 _symmetry_equiv_pos_as_xyz
  1  'x, y, z'
loop_
 _atom_site_type_symbol
 _atom_site_label
 _atom_site_symmetry_multiplicity
 _atom_site_fract_x
 _atom_site_fract_y
 _atom_site_fract_z
 _atom_site_occupancy
  Rb  Rb0  1  0.14899200  0.65411500  0.62747600  1
  Rb  Rb1  1  0.64899200  0.34588500  0.87252400  1
  Rb  Rb2  1  0.85100800  0.34588500  0.37252400  1
  Rb  Rb3  1  0.35100800  0.65411500  0.12747600  1
  Mg  Mg0  1  0.50000000  0.00000000  0.50000000  1
  Mg  Mg1  1  0.00000000  0.00000000  0.00000000  1
  H  H0  1  0.40522300  0.68500400  0.71113100  1
  H  H1  1  0.90522300  0.31499600  0.78886900  1
  H  H2  1  0.59477700  0.31499600  0.28886900  1
  H  H3  1  0.09477700  0.68500400  0.21113100  1
  H  H4  1  0.37139300  0.91892900  0.73905600  1
  H  H5  1  0.87139300  0.08107100  0.76094400  1
  H  H6  1  0.62860700  0.08107100  0.26094400  1
  H  H7  1  0.12860700  0.91892900  0.23905600  1
  H  H8  1  0.40347200  0.06442800  0.23139000  1
  H  H9  1  0.90347200  0.93557200  0.26861000  1
  H  H10  1  0.59652800  0.93557200  0.76861000  1
  H  H11  1  0.09652800  0.06442800  0.73139000  1
  H  H12  1  0.31573400  0.00480900  0.35867200  1
  H  H13  1  0.81573400  0.99519100  0.14132800  1
  H  H14  1  0.68426600  0.99519100  0.64132800  1
  H  H15  1  0.18426600  0.00480900  0.85867200  1
  H  H16  1  0.55457800  0.65371300  0.40925800  1
  H  H17  1  0.05457800  0.34628700  0.09074200  1
  H  H18  1  0.44542200  0.34628700  0.59074200  1
  H  H19  1  0.94542200  0.65371300  0.90925800  1
  H  H20  1  0.64263000  0.66836300  0.52774600  1
  H  H21  1  0.14263000  0.33163700  0.97225400  1
  H  H22  1  0.35737000  0.33163700  0.47225400  1
  H  H23  1  0.85737000  0.66836300  0.02774600  1
  S  S0  1  0.35872500  0.26908200  0.90280600  1
  S  S1  1  0.85872500  0.73091800  0.59719400  1
  S  S2  1  0.64127500  0.73091800  0.09719400  1
  S  S3  1  0.14127500  0.26908200  0.40280600  1
  O  O0  1  0.26563400  0.41334100  0.91114200  1
  O  O1  1  0.76563400  0.58665900  0.58885800  1
  O  O2  1  0.73436600  0.58665900  0.08885800  1
  O  O3  1  0.23436600  0.41334100  0.41114200  1
  O  O4  1  0.42052500  0.21945700  0.04451200  1
  O  O5  1  0.92052500  0.78054300  0.45548800  1
  O  O6  1  0.57947500  0.78054300  0.95548800  1
  O  O7  1  0.07947500  0.21945700  0.54451200  1
  O  O8  1  0.42857800  0.39196500  0.77629300  1
  O  O9  1  0.92857800  0.60803500  0.72370700  1
  O  O10  1  0.57142200  0.60803500  0.22370700  1
  O  O11  1  0.07142200  0.39196500  0.27629300  1
  O  O12  1  0.32030200  0.05791200  0.87402100  1
  O  O13  1  0.82030200  0.94208800  0.62597900  1
  O  O14  1  0.67969800  0.94208800  0.12597900  1
  O  O15  1  0.17969800  0.05791200  0.37402100  1
  O  O16  1  0.38900100  0.84303400  0.66169700  1
  O  O17  1  0.88900100  0.15696600  0.83830300  1
  O  O18  1  0.61099900  0.15696600  0.33830300  1
  O  O19  1  0.11099900  0.84303400  0.16169700  1
  O  O20  1  0.39038200  0.97296800  0.33542100  1
  O  O21  1  0.89038200  0.02703200  0.16457900  1
  O  O22  1  0.60961800  0.02703200  0.66457900  1
  O  O23  1  0.10961800  0.97296800  0.83542100  1
  O  O24  1  0.56587700  0.69755500  0.50206700  1
  O  O25  1  0.06587700  0.30244500  0.99793300  1
  O  O26  1  0.43412300  0.30244500  0.49793300  1
  O  O27  1  0.93412300  0.69755500  0.00206700  1
loop_
_geom_bond_atom_site_label_1
_geom_bond_atom_site_label_2
_geom_bond_distance
_geom_bond_site_symmetry_2
Mg0 O24 2.069050 1_545
Mg0 O26 2.069050 1_555
Mg0 O18 2.090000 1_555
Mg0 O16 2.090000 1_545
Mg0 O20 2.101486 1_545
Mg0 O22 2.101486 1_555
Mg1 O27 2.069050 1_445
Mg1 O25 2.069050 1_554
Mg1 O17 2.090000 1_454
Mg1 O19 2.090000 1_545
Mg1 O21 2.101486 1_455
Mg1 O23 2.101486 1_544
H0 O16 0.993859 1_555
H1 O17 0.993859 1_555
H2 O18 0.993859 1_555
H3 O19 0.993859 1_555
H4 O16 0.991079 1_555
H5 O17 0.991079 1_555
H6 O18 0.991079 1_555
H7 O19 0.991079 1_555
H8 O20 0.992983 1_545
H8 Rb3 3.064177 1_545
H9 O21 0.992983 1_565
H9 Rb2 3.064177 1_565
H10 O22 0.992983 1_565
H10 Rb1 3.064177 1_565
H11 O23 0.992983 1_545
H11 Rb0 3.064177 1_545
H12 O20 0.997065 1_545
H13 O21 0.997065 1_565
H14 O22 0.997065 1_565
H15 O23 0.997065 1_545
H16 O24 0.985293 1_555
H17 O25 0.985293 1_554
H18 O26 0.985293 1_555
H19 O27 0.985293 1_556
H20 O24 1.000313 1_555
H20 O1 1.680683 1_555
H21 O25 1.000313 1_555
H21 O0 1.680683 1_555
H22 O26 1.000313 1_555
H22 O3 1.680683 1_555
H23 O27 1.000313 1_555
H23 O2 1.680683 1_555
O0 S0 1.496902 1_555
O0 Rb3 3.026850 1_556
O0 Rb0 3.032884 1_555
O1 S1 1.496902 1_555
O1 Rb2 3.026850 1_555
O1 Rb1 3.032884 1_555
O2 S2 1.496902 1_555
O2 Rb1 3.026850 1_554
O2 Rb2 3.032884 1_555
O3 S3 1.496902 1_555
O3 Rb0 3.026850 1_555
O3 Rb3 3.032884 1_555
O4 S0 1.486825 1_554
O4 Rb3 3.159406 1_555
O4 Rb1 3.280705 1_554
O5 S1 1.486825 1_555
O5 Rb2 3.159406 1_555
O5 Rb0 3.280705 1_655
O6 S2 1.486825 1_556
O6 Rb1 3.159406 1_555
O6 Rb3 3.280705 1_556
O7 S3 1.486825 1_555
O7 Rb0 3.159406 1_555
O7 Rb2 3.280705 1_455
O8 S0 1.500711 1_555
O8 Rb1 2.905957 1_555
O9 S1 1.500711 1_555
O9 Rb0 2.905957 1_655
O10 S2 1.500711 1_555
O10 Rb3 2.905957 1_555
O11 S3 1.500711 1_555
O11 Rb2 2.905957 1_455
O12 S0 1.504082 1_555
O12 Rb3 2.973919 1_546
O13 S1 1.504082 1_555
O13 Rb2 2.973919 1_565
O14 S2 1.504082 1_555
O14 Rb1 2.973919 1_564
O15 S3 1.504082 1_555
O15 Rb0 2.973919 1_545
O16 Rb0 3.294378 1_555
O17 Rb1 3.294378 1_555
O18 Rb2 3.294378 1_555
O19 Rb3 3.294378 1_555
O20 Rb3 3.182364 1_555
O21 Rb2 3.182364 1_555
O22 Rb1 3.182364 1_555
O23 Rb0 3.182364 1_555
