# generated using pymatgen
data_SrLaCoO4
_symmetry_space_group_name_H-M   'P 1'
_cell_length_a   5.44978981
_cell_length_b   5.46834783
_cell_length_c   13.31727861
_cell_angle_alpha   78.13959782
_cell_angle_beta   78.18038073
_cell_angle_gamma   89.95265850
_symmetry_Int_Tables_number   1
_chemical_formula_structural   SrLaCoO4
_chemical_formula_sum   'Sr4 La4 Co4 O16'
_cell_volume   379.81193342
_cell_formula_units_Z   4
loop_
 _symmetry_equiv_pos_site_id
 _symmetry_equiv_pos_as_xyz
  1  'x, y, z'
loop_
 _atom_site_type_symbol
 _atom_site_label
 _atom_site_symmetry_multiplicity
 _atom_site_fract_x
 _atom_site_fract_y
 _atom_site_fract_z
 _atom_site_occupancy
  Sr  Sr0  1  0.17889600  0.17887000  0.64252200  1
  Sr  Sr1  1  0.67887000  0.67886700  0.64257500  1
  Sr  Sr2  1  0.42894100  0.92892900  0.14240500  1
  Sr  Sr3  1  0.92887500  0.42886700  0.14250500  1
  La  La0  1  0.07128800  0.57126400  0.85729000  1
  La  La1  1  0.57117800  0.07116400  0.85751500  1
  La  La2  1  0.32128700  0.32132000  0.35721700  1
  La  La3  1  0.82128400  0.82130400  0.35724600  1
  Co  Co0  1  0.24826300  0.74823800  0.50347800  1
  Co  Co1  1  0.49820700  0.49823000  0.00353800  1
  Co  Co2  1  0.74810200  0.24800600  0.50387600  1
  Co  Co3  1  0.99810100  0.99819300  0.00366800  1
  O  O0  1  0.08329800  0.08322900  0.83334900  1
  O  O1  1  0.58320300  0.58311900  0.83352100  1
  O  O2  1  0.33319200  0.83327000  0.33329200  1
  O  O3  1  0.83319100  0.33325500  0.33331200  1
  O  O4  1  0.16314200  0.66317600  0.67384000  1
  O  O5  1  0.66310900  0.16315000  0.67384900  1
  O  O6  1  0.41328900  0.41326900  0.17371000  1
  O  O7  1  0.91325600  0.91321000  0.17374700  1
  O  O8  1  0.76153500  0.76044500  0.99472800  1
  O  O9  1  0.24368500  0.24482400  0.99471900  1
  O  O10  1  0.99385300  0.49452800  0.49467400  1
  O  O11  1  0.51148100  0.01080000  0.49460800  1
  O  O12  1  0.26054500  0.74404500  0.99467700  1
  O  O13  1  0.74473300  0.26118300  0.99465300  1
  O  O14  1  0.49451300  0.51099400  0.49475900  1
  O  O15  1  0.01068600  0.99425400  0.49472600  1
loop_
_geom_bond_atom_site_label_1
_geom_bond_atom_site_label_2
_geom_bond_distance
_geom_bond_site_symmetry_2
La0 O4 2.338033 1_555
La0 O9 2.603367 1_555
La0 O8 2.603755 1_455
La0 O13 2.604800 1_455
La0 O12 2.605625 1_555
La0 O1 2.741532 1_455
La0 O1 2.741832 1_555
La0 O0 2.751101 1_565
La0 O0 2.751192 1_555
La1 O5 2.340786 1_555
La1 O12 2.607169 1_545
La1 O13 2.607496 1_555
La1 O8 2.607618 1_545
La1 O9 2.607738 1_555
La1 O0 2.742061 1_555
La1 O0 2.742430 1_655
La1 O1 2.750978 1_555
La1 O1 2.751465 1_545
La2 O6 2.338760 1_555
La2 O11 2.608124 1_555
La2 O10 2.608453 1_455
La2 O15 2.608899 1_545
La2 O14 2.610177 1_555
La2 O3 2.741596 1_555
La2 O3 2.742152 1_455
La2 O2 2.751040 1_555
La2 O2 2.751207 1_545
La3 O7 2.338658 1_555
La3 O11 2.604166 1_565
La3 O10 2.604826 1_555
La3 O14 2.606927 1_555
La3 O15 2.607583 1_655
La3 O2 2.741554 1_655
La3 O2 2.742332 1_555
La3 O3 2.751034 1_565
La3 O3 2.751239 1_555
Co0 O14 1.868891 1_555
Co0 O15 1.869297 1_555
Co0 O11 1.999358 1_565
Co0 O10 1.999380 1_455
Co0 O2 2.168986 1_555
Co0 O4 2.171229 1_555
Co1 O12 1.868930 1_554
Co1 O13 1.869320 1_554
Co1 O8 1.998629 1_554
Co1 O9 1.998706 1_554
Co1 O1 2.166832 1_554
Co1 O6 2.168808 1_555
Co2 O10 1.869184 1_555
Co2 O11 1.869343 1_555
Co2 O15 1.995725 1_645
Co2 O14 1.996629 1_555
Co2 O5 2.166271 1_555
Co2 O3 2.173804 1_555
Co3 O8 1.869708 1_554
Co3 O9 1.869742 1_664
Co3 O13 1.995715 1_564
Co3 O12 1.996601 1_654
Co3 O7 2.167622 1_555
Co3 O0 2.170681 1_664
O0 Sr0 2.432052 1_555
O1 Sr1 2.433568 1_555
O2 Sr2 2.432816 1_555
O3 Sr3 2.431797 1_555
O4 Sr1 2.753380 1_455
O4 Sr1 2.754370 1_555
O4 Sr0 2.762984 1_555
O4 Sr0 2.763324 1_565
O5 Sr0 2.753343 1_555
O5 Sr0 2.754636 1_655
O5 Sr1 2.762660 1_545
O5 Sr1 2.763487 1_555
O6 Sr3 2.753656 1_555
O6 Sr3 2.753873 1_455
O6 Sr2 2.763110 1_545
O6 Sr2 2.763151 1_555
O7 Sr2 2.753961 1_555
O7 Sr2 2.754073 1_655
O7 Sr3 2.762840 1_555
O7 Sr3 2.763189 1_565
O8 Sr3 2.694072 1_556
O8 Sr2 2.698835 1_556
O9 Sr3 2.694037 1_456
O9 Sr2 2.699173 1_546
O10 Sr1 2.696380 1_555
O10 Sr0 2.699386 1_655
O11 Sr1 2.696890 1_545
O11 Sr0 2.699788 1_555
O12 Sr3 2.695545 1_456
O12 Sr2 2.700651 1_556
O13 Sr3 2.697765 1_556
O13 Sr2 2.698695 1_546
O14 Sr0 2.697923 1_555
O14 Sr1 2.698463 1_555
O15 Sr1 2.696649 1_455
O15 Sr0 2.700180 1_565
