# generated using pymatgen
data_MgPPd5
_symmetry_space_group_name_H-M   'P 1'
_cell_length_a   3.90943714
_cell_length_b   3.90943714
_cell_length_c   6.92135401
_cell_angle_alpha   90.00000000
_cell_angle_beta   90.00000000
_cell_angle_gamma   90.00000000
_symmetry_Int_Tables_number   1
_chemical_formula_structural   MgPPd5
_chemical_formula_sum   'Mg1 P1 Pd5'
_cell_volume   105.78388964
_cell_formula_units_Z   1
loop_
 _symmetry_equiv_pos_site_id
 _symmetry_equiv_pos_as_xyz
  1  'x, y, z'
loop_
 _atom_site_type_symbol
 _atom_site_label
 _atom_site_symmetry_multiplicity
 _atom_site_fract_x
 _atom_site_fract_y
 _atom_site_fract_z
 _atom_site_occupancy
  Mg  Mg0  1  0.50000000  0.50000000  -0.00000000  1
  P  P0  1  -0.00000000  0.00000000  0.50000000  1
  Pd  Pd0  1  0.00000000  0.50000000  0.29635465  1
  Pd  Pd1  1  -0.00000000  0.50000000  0.70364535  1
  Pd  Pd2  1  0.50000000  0.00000000  0.29635465  1
  Pd  Pd3  1  0.50000000  -0.00000000  0.70364535  1
  Pd  Pd4  1  -0.00000000  0.00000000  0.00000000  1
loop_
_geom_bond_atom_site_label_1
_geom_bond_atom_site_label_2
_geom_bond_distance
_geom_bond_site_symmetry_2
Mg0 Pd4 2.764390 1_555
Mg0 Pd4 2.764390 1_565
Mg0 Pd4 2.764390 1_655
Mg0 Pd4 2.764390 1_665
Mg0 Pd2 2.833416 1_555
Mg0 Pd3 2.833416 1_554
Mg0 Pd2 2.833416 1_565
Mg0 Pd1 2.833416 1_554
Mg0 Pd0 2.833416 1_655
Mg0 Pd1 2.833416 1_654
Mg0 Pd0 2.833416 1_555
Mg0 Pd3 2.833416 1_564
P0 Pd1 2.409900 1_555
P0 Pd3 2.409900 1_555
P0 Pd1 2.409900 1_545
P0 Pd3 2.409900 1_455
P0 Pd2 2.409900 1_455
P0 Pd0 2.409900 1_555
P0 Pd0 2.409900 1_545
P0 Pd2 2.409900 1_555
