# generated using pymatgen
data_TeMoSe
_symmetry_space_group_name_H-M   'P 1'
_cell_length_a   3.44071200
_cell_length_b   3.44071200
_cell_length_c   39.07471600
_cell_angle_alpha   90.00000000
_cell_angle_beta   90.00000000
_cell_angle_gamma   120.00000001
_symmetry_Int_Tables_number   1
_chemical_formula_structural   TeMoSe
_chemical_formula_sum   'Te4 Mo4 Se4'
_cell_volume   400.61121795
_cell_formula_units_Z   4
loop_
 _symmetry_equiv_pos_site_id
 _symmetry_equiv_pos_as_xyz
  1  'x, y, z'
loop_
 _atom_site_type_symbol
 _atom_site_label
 _atom_site_symmetry_multiplicity
 _atom_site_fract_x
 _atom_site_fract_y
 _atom_site_fract_z
 _atom_site_occupancy
  Te  Te0  1  0.33333300  0.66666700  0.95352700  1
  Te  Te1  1  0.66666700  0.33333300  0.04647300  1
  Te  Te2  1  0.66666700  0.33333300  0.14143100  1
  Te  Te3  1  0.33333300  0.66666700  0.85856900  1
  Mo  Mo0  1  0.33333300  0.66666700  0.71818200  1
  Mo  Mo1  1  0.33333300  0.66666700  0.09396300  1
  Mo  Mo2  1  0.66666700  0.33333300  0.90603700  1
  Mo  Mo3  1  0.66666700  0.33333300  0.28181800  1
  Se  Se0  1  0.33333300  0.66666700  0.32368700  1
  Se  Se1  1  0.66666700  0.33333300  0.67631300  1
  Se  Se2  1  0.66666700  0.33333300  0.76009000  1
  Se  Se3  1  0.33333300  0.66666700  0.23991000  1
loop_
_geom_bond_atom_site_label_1
_geom_bond_atom_site_label_2
_geom_bond_distance
_geom_bond_site_symmetry_2
Mo0 Se1 2.573464 1_565
Mo0 Se1 2.573464 1_455
Mo0 Se1 2.573469 1_555
Mo0 Se2 2.574433 1_455
Mo0 Se2 2.574433 1_565
Mo0 Se2 2.574438 1_555
Mo1 Te2 2.717800 1_455
Mo1 Te2 2.717800 1_565
Mo1 Te2 2.717804 1_555
Mo1 Te1 2.718387 1_455
Mo1 Te1 2.718387 1_565
Mo1 Te1 2.718391 1_555
Mo2 Te3 2.717800 1_545
Mo2 Te3 2.717800 1_655
Mo2 Te3 2.717804 1_555
Mo2 Te0 2.718387 1_545
Mo2 Te0 2.718387 1_655
Mo2 Te0 2.718391 1_555
Mo3 Se0 2.573464 1_545
Mo3 Se0 2.573464 1_655
Mo3 Se0 2.573469 1_555
Mo3 Se3 2.574433 1_545
Mo3 Se3 2.574433 1_655
Mo3 Se3 2.574438 1_555
