# generated using pymatgen
data_Ge8H12C2N2O17
_symmetry_space_group_name_H-M   'P 1'
_cell_length_a   7.80531024
_cell_length_b   19.57589600
_cell_length_c   7.73730402
_cell_angle_alpha   90.00000000
_cell_angle_beta   119.96377091
_cell_angle_gamma   90.00000000
_symmetry_Int_Tables_number   1
_chemical_formula_structural   Ge8H12C2N2O17
_chemical_formula_sum   'Ge16 H24 C4 N4 O34'
_cell_volume   1024.21361307
_cell_formula_units_Z   2
loop_
 _symmetry_equiv_pos_site_id
 _symmetry_equiv_pos_as_xyz
  1  'x, y, z'
loop_
 _atom_site_type_symbol
 _atom_site_label
 _atom_site_symmetry_multiplicity
 _atom_site_fract_x
 _atom_site_fract_y
 _atom_site_fract_z
 _atom_site_occupancy
  Ge  Ge0  1  0.73509300  0.17053300  0.62911100  1
  Ge  Ge1  1  0.26490700  0.67053300  0.37088900  1
  Ge  Ge2  1  0.82056300  0.15111400  0.04756400  1
  Ge  Ge3  1  0.17943700  0.65111400  0.95243600  1
  Ge  Ge4  1  0.04082400  0.40750800  0.54923100  1
  Ge  Ge5  1  0.95917600  0.90750800  0.45076900  1
  Ge  Ge6  1  0.38990800  0.15995400  0.71227100  1
  Ge  Ge7  1  0.61009200  0.65995400  0.28772900  1
  Ge  Ge8  1  0.76435200  0.33283400  0.68219600  1
  Ge  Ge9  1  0.23564800  0.83283400  0.31780400  1
  Ge  Ge10  1  0.87067000  0.30858900  0.14785000  1
  Ge  Ge11  1  0.12933000  0.80858900  0.85215000  1
  Ge  Ge12  1  0.03678800  0.57774400  0.54368700  1
  Ge  Ge13  1  0.96321200  0.07774400  0.45631300  1
  Ge  Ge14  1  0.43560400  0.32066200  0.80149800  1
  Ge  Ge15  1  0.56439600  0.82066200  0.19850200  1
  H  H0  1  0.78813700  0.49341200  0.04340500  1
  H  H1  1  0.21186300  0.99341200  0.95659500  1
  H  H2  1  0.63885300  0.60394700  0.73882200  1
  H  H3  1  0.36114700  0.10394700  0.26117800  1
  H  H4  1  0.35980900  0.49216800  0.09871400  1
  H  H5  1  0.64019100  0.99216800  0.90128600  1
  H  H6  1  0.76422600  0.49201300  0.80077800  1
  H  H7  1  0.23577400  0.99201300  0.19922200  1
  H  H8  1  0.82902100  0.60548000  0.97758000  1
  H  H9  1  0.17097900  0.10548000  0.02242000  1
  H  H10  1  0.59098900  0.60285900  0.92797600  1
  H  H11  1  0.40901100  0.10285900  0.07202400  1
  H  H12  1  0.47392300  0.49232300  0.36201900  1
  H  H13  1  0.52607700  0.99232300  0.63798100  1
  H  H14  1  0.24836000  0.37769800  0.09893900  1
  H  H15  1  0.75164000  0.87769800  0.90106100  1
  H  H16  1  0.21140900  0.49177100  0.21392000  1
  H  H17  1  0.78859100  0.99177100  0.78608000  1
  H  H18  1  0.54755800  0.48899700  0.82539900  1
  H  H19  1  0.45244200  0.98899700  0.17460100  1
  H  H20  1  0.82199900  0.25088200  0.88713600  1
  H  H21  1  0.17800100  0.75088200  0.11286400  1
  H  H22  1  0.34921000  0.37813600  0.34174600  1
  H  H23  1  0.65079000  0.87813600  0.65825400  1
  C  C0  1  0.69727300  0.50950100  0.88785300  1
  C  C1  1  0.30272700  0.00950100  0.11214700  1
  C  C2  1  0.34887600  0.47152000  0.22483600  1
  C  C3  1  0.65112400  0.97152000  0.77516400  1
  N  N0  1  0.68829300  0.58565600  0.88192100  1
  N  N1  1  0.31170700  0.08565600  0.11807900  1
  N  N2  1  0.36279800  0.39723600  0.22654200  1
  N  N3  1  0.63720200  0.89723600  0.77345800  1
  O  O0  1  0.56369200  0.12721000  0.95693000  1
  O  O1  1  0.43630800  0.62721000  0.04307000  1
  O  O2  1  0.02874400  0.35877100  0.35233700  1
  O  O3  1  0.97125600  0.85877100  0.64766300  1
  O  O4  1  0.78640900  0.25560700  0.57085200  1
  O  O5  1  0.21359100  0.75560700  0.42914800  1
  O  O6  1  0.30148200  0.24259500  0.72480600  1
  O  O7  1  0.69851800  0.74259500  0.27519400  1
  O  O8  1  0.19178600  0.10434200  0.65769900  1
  O  O9  1  0.80821400  0.60434200  0.34230100  1
  O  O10  1  0.69388700  0.22686400  0.84182600  1
  O  O11  1  0.30611300  0.72686400  0.15817400  1
  O  O12  1  0.52591200  0.35201200  0.64412800  1
  O  O13  1  0.47408800  0.85201200  0.35587200  1
  O  O14  1  0.76263800  0.12242700  0.44722100  1
  O  O15  1  0.23736200  0.62242700  0.55277900  1
  O  O16  1  0.47616300  0.14753400  0.53767500  1
  O  O17  1  0.52383700  0.64753400  0.46232500  1
  O  O18  1  0.90574600  0.12964600  0.86960900  1
  O  O19  1  0.09425400  0.62964600  0.13039100  1
  O  O20  1  0.05928700  0.49207300  0.48598700  1
  O  O21  1  0.94071300  0.99207300  0.51401300  1
  O  O22  1  0.95084300  0.08303800  0.22308100  1
  O  O23  1  0.04915700  0.58303800  0.77691900  1
  O  O24  1  0.25466600  0.38200200  0.77041400  1
  O  O25  1  0.74533400  0.88200200  0.22958600  1
  O  O26  1  0.83661000  0.40200200  0.58853800  1
  O  O27  1  0.16339000  0.90200200  0.41146200  1
  O  O28  1  0.61872400  0.32950700  0.05774700  1
  O  O29  1  0.38127600  0.82950700  0.94225300  1
  O  O30  1  0.93964800  0.22166600  0.22214900  1
  O  O31  1  0.06035200  0.72166600  0.77785100  1
  O  O32  1  0.93279800  0.32870700  0.95320400  1
  O  O33  1  0.06720200  0.82870700  0.04679600  1
loop_
_geom_bond_atom_site_label_1
_geom_bond_atom_site_label_2
_geom_bond_distance
_geom_bond_site_symmetry_2
Ge0 O14 1.793293 1_555
Ge0 O4 1.821409 1_555
Ge0 O16 1.832901 1_555
Ge0 O18 1.844338 1_555
Ge0 O10 2.134716 1_555
Ge1 O15 1.793293 1_555
Ge1 O5 1.821409 1_555
Ge1 O17 1.832901 1_555
Ge1 O19 1.844338 1_555
Ge1 O11 2.134716 1_555
Ge2 O22 1.809640 1_555
Ge2 O0 1.823769 1_554
Ge2 O30 1.828101 1_555
Ge2 O18 1.851749 1_554
Ge2 O10 2.034288 1_554
Ge3 O23 1.809640 1_555
Ge3 O1 1.823769 1_556
Ge3 O31 1.828101 1_555
Ge3 O19 1.851749 1_556
Ge3 O11 2.034288 1_556
Ge4 O20 1.752463 1_555
Ge4 O2 1.759685 1_555
Ge4 O24 1.763705 1_555
Ge4 O26 1.768909 1_455
Ge5 O21 1.752463 1_555
Ge5 O3 1.759685 1_555
Ge5 O25 1.763705 1_555
Ge5 O27 1.768909 1_655
Ge6 O8 1.761415 1_555
Ge6 O6 1.780400 1_555
Ge6 O16 1.801612 1_555
Ge6 O0 1.808127 1_555
Ge7 O9 1.761415 1_555
Ge7 O7 1.780400 1_555
Ge7 O17 1.801612 1_555
Ge7 O1 1.808127 1_555
Ge8 O26 1.756379 1_555
Ge8 O12 1.773080 1_555
Ge8 O4 1.790386 1_555
Ge8 O32 1.837970 1_555
Ge9 O27 1.756379 1_555
Ge9 O13 1.773080 1_555
Ge9 O5 1.790386 1_555
Ge9 O33 1.837970 1_555
Ge10 O2 1.743743 1_655
Ge10 O28 1.775226 1_555
Ge10 O30 1.790700 1_555
Ge10 O32 1.840630 1_554
Ge11 O3 1.743743 1_455
Ge11 O29 1.775226 1_555
Ge11 O31 1.790700 1_555
Ge11 O33 1.840630 1_556
Ge12 O23 1.761410 1_555
Ge12 O9 1.762138 1_455
Ge12 O15 1.763796 1_555
Ge12 O20 1.766659 1_555
Ge13 O22 1.761410 1_555
Ge13 O8 1.762138 1_655
Ge13 O14 1.763796 1_555
Ge13 O21 1.766659 1_545
Ge14 O24 1.776223 1_555
Ge14 O6 1.778485 1_555
Ge14 O28 1.781336 1_556
Ge14 O12 1.792603 1_555
Ge15 O25 1.776223 1_555
Ge15 O7 1.778485 1_555
Ge15 O29 1.781336 1_554
Ge15 O13 1.792603 1_555
H2 N0 1.037411 1_555
H3 N1 1.037411 1_555
H8 N0 1.045394 1_555
H9 N1 1.045394 1_555
H10 N0 1.042858 1_555
H11 N1 1.042858 1_555
H14 N2 1.018816 1_555
H15 N3 1.018816 1_555
H20 O10 0.996844 1_555
H20 O32 1.699606 1_555
H21 O11 0.996844 1_555
H21 O33 1.699606 1_555
H22 N2 1.019814 1_555
H23 N3 1.019814 1_555
C0 H6 1.093572 1_555
C0 H18 1.093669 1_555
C0 H0 1.094569 1_556
C0 N0 1.492078 1_555
C1 H7 1.093572 1_545
C1 H19 1.093669 1_545
C1 H1 1.094569 1_544
C1 N1 1.492078 1_555
C2 H4 1.098234 1_555
C2 H12 1.100116 1_555
C2 H16 1.106814 1_555
C2 N2 1.457799 1_555
C3 H5 1.098234 1_555
C3 H13 1.100116 1_555
C3 H17 1.106814 1_555
C3 N3 1.457799 1_555
