# generated using pymatgen
data_MgMn
_symmetry_space_group_name_H-M   'P 1'
_cell_length_a   6.00380600
_cell_length_b   9.38170200
_cell_length_c   9.75840600
_cell_angle_alpha   90.00000000
_cell_angle_beta   90.00000000
_cell_angle_gamma   90.00000000
_symmetry_Int_Tables_number   1
_chemical_formula_structural   MgMn
_chemical_formula_sum   'Mg16 Mn16'
_cell_volume   549.65118356
_cell_formula_units_Z   16
loop_
 _symmetry_equiv_pos_site_id
 _symmetry_equiv_pos_as_xyz
  1  'x, y, z'
loop_
 _atom_site_type_symbol
 _atom_site_label
 _atom_site_symmetry_multiplicity
 _atom_site_fract_x
 _atom_site_fract_y
 _atom_site_fract_z
 _atom_site_occupancy
  Mg  Mg0_0  1  0.00000000  0.12500000  0.09925650  1
  Mg  Mg0_1  1  0.00000000  0.12500000  0.59925650  1
  Mg  Mg0_2  1  0.00000000  0.62500000  0.09925650  1
  Mg  Mg0_3  1  0.00000000  0.62500000  0.59925650  1
  Mg  Mg0_4  1  0.50000000  0.12500000  0.09925650  1
  Mg  Mg0_5  1  0.50000000  0.12500000  0.59925650  1
  Mg  Mg0_6  1  0.50000000  0.62500000  0.09925650  1
  Mg  Mg0_7  1  0.50000000  0.62500000  0.59925650  1
  Mg  Mg1_0  1  0.00000000  0.37500000  0.40074350  1
  Mg  Mg1_1  1  0.00000000  0.37500000  0.90074350  1
  Mg  Mg1_2  1  0.00000000  0.87500000  0.40074350  1
  Mg  Mg1_3  1  0.00000000  0.87500000  0.90074350  1
  Mg  Mg1_4  1  0.50000000  0.37500000  0.40074350  1
  Mg  Mg1_5  1  0.50000000  0.37500000  0.90074350  1
  Mg  Mg1_6  1  0.50000000  0.87500000  0.40074350  1
  Mg  Mg1_7  1  0.50000000  0.87500000  0.90074350  1
  Mn  Mn0_0  1  0.25000000  0.37500000  0.15752750  1
  Mn  Mn0_1  1  0.25000000  0.37500000  0.65752750  1
  Mn  Mn0_2  1  0.25000000  0.87500000  0.15752750  1
  Mn  Mn0_3  1  0.25000000  0.87500000  0.65752750  1
  Mn  Mn0_4  1  0.75000000  0.37500000  0.15752750  1
  Mn  Mn0_5  1  0.75000000  0.37500000  0.65752750  1
  Mn  Mn0_6  1  0.75000000  0.87500000  0.15752750  1
  Mn  Mn0_7  1  0.75000000  0.87500000  0.65752750  1
  Mn  Mn1_0  1  0.25000000  0.12500000  0.34247250  1
  Mn  Mn1_1  1  0.25000000  0.12500000  0.84247250  1
  Mn  Mn1_2  1  0.25000000  0.62500000  0.34247250  1
  Mn  Mn1_3  1  0.25000000  0.62500000  0.84247250  1
  Mn  Mn1_4  1  0.75000000  0.12500000  0.34247250  1
  Mn  Mn1_5  1  0.75000000  0.12500000  0.84247250  1
  Mn  Mn1_6  1  0.75000000  0.62500000  0.34247250  1
  Mn  Mn1_7  1  0.75000000  0.62500000  0.84247250  1
loop_
_geom_bond_atom_site_label_1
_geom_bond_atom_site_label_2
_geom_bond_distance
_geom_bond_site_symmetry_2
Mg0_0 Mn1_0 2.808182 1_555
Mg0_0 Mn1_4 2.808182 1_455
Mg0_0 Mn0_2 2.842045 1_545
Mg0_0 Mn0_4 2.842045 1_455
Mg0_0 Mn0_0 2.842045 1_555
Mg0_0 Mn0_6 2.842045 1_445
Mg0_0 Mn1_1 2.920942 1_554
Mg0_0 Mn1_5 2.920942 1_454
Mg0_0 Mg0_4 3.001903 1_455
Mg0_0 Mg0_4 3.001903 1_555
Mg0_0 Mg1_3 3.041981 1_544
Mg0_0 Mg1_1 3.041981 1_554
Mg0_1 Mn1_1 2.808182 1_555
Mg0_1 Mn1_5 2.808182 1_455
Mg0_1 Mn0_3 2.842045 1_545
Mg0_1 Mn0_1 2.842045 1_555
Mg0_1 Mn0_5 2.842045 1_455
Mg0_1 Mn0_7 2.842045 1_445
Mg0_1 Mn1_0 2.920942 1_555
Mg0_1 Mn1_4 2.920942 1_455
Mg0_1 Mg0_5 3.001903 1_455
Mg0_1 Mg0_5 3.001903 1_555
Mg0_1 Mg1_2 3.041981 1_545
Mg0_1 Mg1_0 3.041981 1_555
Mg0_2 Mn1_2 2.808182 1_555
Mg0_2 Mn1_6 2.808182 1_455
Mg0_2 Mn0_2 2.842045 1_555
Mg0_2 Mn0_6 2.842045 1_455
Mg0_2 Mn0_0 2.842045 1_555
Mg0_2 Mn0_4 2.842045 1_455
Mg0_2 Mn1_7 2.920942 1_454
Mg0_2 Mn1_3 2.920942 1_554
Mg0_2 Mg0_6 3.001903 1_455
Mg0_2 Mg0_6 3.001903 1_555
Mg0_2 Mg1_3 3.041981 1_554
Mg0_2 Mg1_1 3.041981 1_554
Mg0_3 Mn1_3 2.808182 1_555
Mg0_3 Mn1_7 2.808182 1_455
Mg0_3 Mn0_7 2.842045 1_455
Mg0_3 Mn0_3 2.842045 1_555
Mg0_3 Mn0_5 2.842045 1_455
Mg0_3 Mn0_1 2.842045 1_555
Mg0_3 Mn1_6 2.920942 1_455
Mg0_3 Mn1_2 2.920942 1_555
Mg0_3 Mg0_7 3.001903 1_555
Mg0_3 Mg0_7 3.001903 1_455
Mg0_3 Mg1_2 3.041981 1_555
Mg0_3 Mg1_0 3.041981 1_555
Mg0_4 Mn1_0 2.808182 1_555
Mg0_4 Mn1_4 2.808182 1_555
Mg0_4 Mn0_6 2.842045 1_545
Mg0_4 Mn0_2 2.842045 1_545
Mg0_4 Mn0_0 2.842045 1_555
Mg0_4 Mn0_4 2.842045 1_555
Mg0_4 Mn1_1 2.920942 1_554
Mg0_4 Mn1_5 2.920942 1_554
Mg0_4 Mg1_5 3.041981 1_554
Mg0_4 Mg1_7 3.041981 1_544
Mg0_5 Mn1_1 2.808182 1_555
Mg0_5 Mn1_5 2.808182 1_555
Mg0_5 Mn0_3 2.842045 1_545
Mg0_5 Mn0_5 2.842045 1_555
Mg0_5 Mn0_1 2.842045 1_555
Mg0_5 Mn0_7 2.842045 1_545
Mg0_5 Mn1_0 2.920942 1_555
Mg0_5 Mn1_4 2.920942 1_555
Mg0_5 Mg1_4 3.041981 1_555
Mg0_5 Mg1_6 3.041981 1_545
Mg0_6 Mn1_2 2.808182 1_555
Mg0_6 Mn1_6 2.808182 1_555
Mg0_6 Mn0_2 2.842045 1_555
Mg0_6 Mn0_6 2.842045 1_555
Mg0_6 Mn0_0 2.842045 1_555
Mg0_6 Mn0_4 2.842045 1_555
Mg0_6 Mn1_7 2.920942 1_554
Mg0_6 Mn1_3 2.920942 1_554
Mg0_6 Mg1_7 3.041981 1_554
Mg0_6 Mg1_5 3.041981 1_554
Mg0_7 Mn1_3 2.808182 1_555
Mg0_7 Mn1_7 2.808182 1_555
Mg0_7 Mn0_3 2.842045 1_555
Mg0_7 Mn0_7 2.842045 1_555
Mg0_7 Mn0_1 2.842045 1_555
Mg0_7 Mn0_5 2.842045 1_555
Mg0_7 Mn1_6 2.920942 1_555
Mg0_7 Mn1_2 2.920942 1_555
Mg0_7 Mg1_6 3.041981 1_555
Mg0_7 Mg1_4 3.041981 1_555
Mg1_0 Mn0_0 2.808182 1_555
Mg1_0 Mn0_4 2.808182 1_455
Mg1_0 Mn1_0 2.842045 1_555
Mg1_0 Mn1_4 2.842045 1_455
Mg1_0 Mn1_2 2.842045 1_555
Mg1_0 Mn1_6 2.842045 1_455
Mg1_0 Mn0_1 2.920942 1_555
Mg1_0 Mn0_5 2.920942 1_455
Mg1_0 Mg1_4 3.001903 1_555
Mg1_0 Mg1_4 3.001903 1_455
Mg1_1 Mn0_1 2.808182 1_555
Mg1_1 Mn0_5 2.808182 1_455
Mg1_1 Mn1_1 2.842045 1_555
Mg1_1 Mn1_5 2.842045 1_455
Mg1_1 Mn1_3 2.842045 1_555
Mg1_1 Mn1_7 2.842045 1_455
Mg1_1 Mn0_0 2.920942 1_556
Mg1_1 Mn0_4 2.920942 1_456
Mg1_1 Mg1_5 3.001903 1_455
Mg1_1 Mg1_5 3.001903 1_555
Mg1_2 Mn0_6 2.808182 1_455
Mg1_2 Mn0_2 2.808182 1_555
Mg1_2 Mn1_2 2.842045 1_555
Mg1_2 Mn1_6 2.842045 1_455
Mg1_2 Mn1_0 2.842045 1_565
Mg1_2 Mn1_4 2.842045 1_465
Mg1_2 Mn0_3 2.920942 1_555
Mg1_2 Mn0_7 2.920942 1_455
Mg1_2 Mg1_6 3.001903 1_555
Mg1_2 Mg1_6 3.001903 1_455
Mg1_3 Mn0_7 2.808182 1_455
Mg1_3 Mn0_3 2.808182 1_555
Mg1_3 Mn1_3 2.842045 1_555
Mg1_3 Mn1_7 2.842045 1_455
Mg1_3 Mn1_1 2.842045 1_565
Mg1_3 Mn1_5 2.842045 1_465
Mg1_3 Mn0_6 2.920942 1_456
Mg1_3 Mn0_2 2.920942 1_556
Mg1_3 Mg1_7 3.001903 1_455
Mg1_3 Mg1_7 3.001903 1_555
Mg1_4 Mn0_4 2.808182 1_555
Mg1_4 Mn0_0 2.808182 1_555
Mg1_4 Mn1_0 2.842045 1_555
Mg1_4 Mn1_4 2.842045 1_555
Mg1_4 Mn1_6 2.842045 1_555
Mg1_4 Mn1_2 2.842045 1_555
Mg1_4 Mn0_1 2.920942 1_555
Mg1_4 Mn0_5 2.920942 1_555
Mg1_5 Mn0_5 2.808182 1_555
Mg1_5 Mn0_1 2.808182 1_555
Mg1_5 Mn1_1 2.842045 1_555
Mg1_5 Mn1_5 2.842045 1_555
Mg1_5 Mn1_3 2.842045 1_555
Mg1_5 Mn1_7 2.842045 1_555
Mg1_5 Mn0_0 2.920942 1_556
Mg1_5 Mn0_4 2.920942 1_556
Mg1_6 Mn0_2 2.808182 1_555
Mg1_6 Mn0_6 2.808182 1_555
Mg1_6 Mn1_2 2.842045 1_555
Mg1_6 Mn1_6 2.842045 1_555
Mg1_6 Mn1_0 2.842045 1_565
Mg1_6 Mn1_4 2.842045 1_565
Mg1_6 Mn0_3 2.920942 1_555
Mg1_6 Mn0_7 2.920942 1_555
Mg1_7 Mn0_7 2.808182 1_555
Mg1_7 Mn0_3 2.808182 1_555
Mg1_7 Mn1_3 2.842045 1_555
Mg1_7 Mn1_7 2.842045 1_555
Mg1_7 Mn1_1 2.842045 1_565
Mg1_7 Mn1_5 2.842045 1_565
Mg1_7 Mn0_6 2.920942 1_556
Mg1_7 Mn0_2 2.920942 1_556
Mn0_0 Mn1_0 2.959427 1_555
Mn0_0 Mn1_2 2.959427 1_555
Mn0_0 Mn0_4 3.001903 1_455
Mn0_0 Mn0_4 3.001903 1_555
Mn0_1 Mn1_1 2.959427 1_555
Mn0_1 Mn1_3 2.959427 1_555
Mn0_1 Mn0_5 3.001903 1_455
Mn0_1 Mn0_5 3.001903 1_555
Mn0_2 Mn1_2 2.959427 1_555
Mn0_2 Mn1_0 2.959427 1_565
Mn0_2 Mn0_6 3.001903 1_455
Mn0_2 Mn0_6 3.001903 1_555
Mn0_3 Mn1_3 2.959427 1_555
Mn0_3 Mn1_1 2.959427 1_565
Mn0_3 Mn0_7 3.001903 1_455
Mn0_3 Mn0_7 3.001903 1_555
Mn0_4 Mn1_4 2.959427 1_555
Mn0_4 Mn1_6 2.959427 1_555
Mn0_5 Mn1_5 2.959427 1_555
Mn0_5 Mn1_7 2.959427 1_555
Mn0_6 Mn1_6 2.959427 1_555
Mn0_6 Mn1_4 2.959427 1_565
Mn0_7 Mn1_7 2.959427 1_555
Mn0_7 Mn1_5 2.959427 1_565
Mn1_0 Mn1_4 3.001903 1_455
Mn1_0 Mn1_4 3.001903 1_555
Mn1_1 Mn1_5 3.001903 1_555
Mn1_1 Mn1_5 3.001903 1_455
Mn1_2 Mn1_6 3.001903 1_455
Mn1_2 Mn1_6 3.001903 1_555
Mn1_3 Mn1_7 3.001903 1_555
Mn1_3 Mn1_7 3.001903 1_455
