# generated using pymatgen
data_FeBP(HO3)2
_symmetry_space_group_name_H-M   'P 1'
_cell_length_a   7.59239703
_cell_length_b   7.59239703
_cell_length_c   12.75456500
_cell_angle_alpha   90.00000000
_cell_angle_beta   90.00000000
_cell_angle_gamma   120.00000897
_symmetry_Int_Tables_number   1
_chemical_formula_structural   FeBP(HO3)2
_chemical_formula_sum   'Fe6 B6 P6 H12 O36'
_cell_volume   636.72817107
_cell_formula_units_Z   6
loop_
 _symmetry_equiv_pos_site_id
 _symmetry_equiv_pos_as_xyz
  1  'x, y, z'
loop_
 _atom_site_type_symbol
 _atom_site_label
 _atom_site_symmetry_multiplicity
 _atom_site_fract_x
 _atom_site_fract_y
 _atom_site_fract_z
 _atom_site_occupancy
  Fe  Fe0  1  0.86857800  0.00000000  0.66666700  1
  Fe  Fe1  1  0.00000000  0.86857800  0.33333300  1
  Fe  Fe2  1  0.13142200  0.13142200  0.00000000  1
  Fe  Fe3  1  0.24084200  0.24084200  0.50000000  1
  Fe  Fe4  1  0.75915800  0.00000000  0.16666700  1
  Fe  Fe5  1  0.00000000  0.75915800  0.83333300  1
  B  B0  1  0.30991000  0.56213200  0.87203300  1
  B  B1  1  0.43786800  0.74777900  0.53869900  1
  B  B2  1  0.25222100  0.69009000  0.20536600  1
  B  B3  1  0.56213200  0.30991000  0.12796700  1
  B  B4  1  0.74777900  0.43786800  0.46130100  1
  B  B5  1  0.69009000  0.25222100  0.79463400  1
  P  P0  1  0.32244800  0.24937200  0.75986300  1
  P  P1  1  0.75062800  0.07307600  0.42652900  1
  P  P2  1  0.92692400  0.67755200  0.09319600  1
  P  P3  1  0.24937200  0.32244800  0.24013700  1
  P  P4  1  0.07307600  0.75062800  0.57347100  1
  P  P5  1  0.67755200  0.92692400  0.90680400  1
  H  H0  1  0.57315200  0.30819200  0.58716700  1
  H  H1  1  0.69180800  0.26495900  0.25383400  1
  H  H2  1  0.73504100  0.42684800  0.92050000  1
  H  H3  1  0.30819200  0.57315200  0.41283300  1
  H  H4  1  0.26495900  0.69180800  0.74616600  1
  H  H5  1  0.42684800  0.73504100  0.07950000  1
  H  H6  1  0.55023500  0.63708500  0.65154900  1
  H  H7  1  0.36291500  0.91315100  0.31821600  1
  H  H8  1  0.08684900  0.44976500  0.98488300  1
  H  H9  1  0.63708500  0.55023500  0.34845100  1
  H  H10  1  0.91315100  0.36291500  0.68178400  1
  H  H11  1  0.44976500  0.08684900  0.01511700  1
  O  O0  1  0.55904000  0.34754600  0.51551300  1
  O  O1  1  0.65245400  0.21149400  0.18217900  1
  O  O2  1  0.78850600  0.44096000  0.84884600  1
  O  O3  1  0.34754600  0.55904000  0.48448700  1
  O  O4  1  0.21149400  0.65245400  0.81782100  1
  O  O5  1  0.44096000  0.78850600  0.15115400  1
  O  O6  1  0.58881000  0.76167500  0.61249900  1
  O  O7  1  0.23832500  0.82713600  0.27916500  1
  O  O8  1  0.17286400  0.41119000  0.94583200  1
  O  O9  1  0.76167500  0.58881000  0.38750100  1
  O  O10  1  0.82713600  0.23832500  0.72083500  1
  O  O11  1  0.41119000  0.17286400  0.05416800  1
  O  O12  1  0.19805900  0.22084300  0.66002400  1
  O  O13  1  0.77915700  0.97721600  0.32669100  1
  O  O14  1  0.02278400  0.80194100  0.99335700  1
  O  O15  1  0.22084300  0.19805900  0.33997600  1
  O  O16  1  0.97721600  0.77915700  0.67330900  1
  O  O17  1  0.80194100  0.02278400  0.00664200  1
  O  O18  1  0.40039000  0.46878900  0.80420900  1
  O  O19  1  0.53121100  0.93160100  0.47087500  1
  O  O20  1  0.06839900  0.59961000  0.13754200  1
  O  O21  1  0.46878900  0.40039000  0.19579100  1
  O  O22  1  0.93160100  0.53121100  0.52912500  1
  O  O23  1  0.59961000  0.06839900  0.86245800  1
  O  O24  1  0.51673900  0.24278000  0.72396500  1
  O  O25  1  0.75722000  0.27395900  0.39063100  1
  O  O26  1  0.72604100  0.48326100  0.05729800  1
  O  O27  1  0.24278000  0.51673900  0.27603500  1
  O  O28  1  0.27395900  0.75722000  0.60936900  1
  O  O29  1  0.48326100  0.72604100  0.94270200  1
  O  O30  1  0.20451800  0.08637700  0.84327500  1
  O  O31  1  0.91362300  0.11814100  0.50994200  1
  O  O32  1  0.88185900  0.79548200  0.17660800  1
  O  O33  1  0.08637700  0.20451800  0.15672500  1
  O  O34  1  0.11814100  0.91362300  0.49005800  1
  O  O35  1  0.79548200  0.88185900  0.82339200  1
loop_
_geom_bond_atom_site_label_1
_geom_bond_atom_site_label_2
_geom_bond_distance
_geom_bond_site_symmetry_2
Fe0 O10 2.102333 1_555
Fe0 O6 2.102337 1_545
Fe0 O35 2.147230 1_545
Fe0 O31 2.147230 1_555
Fe0 O16 2.209509 1_545
Fe0 O12 2.209509 1_655
Fe1 O7 2.102333 1_555
Fe1 O9 2.102337 1_455
Fe1 O32 2.147230 1_455
Fe1 O34 2.147230 1_555
Fe1 O13 2.209509 1_455
Fe1 O15 2.209509 1_565
Fe2 O11 2.102340 1_555
Fe2 O8 2.102340 1_554
Fe2 O33 2.147230 1_555
Fe2 O30 2.147230 1_554
Fe2 O17 2.209509 1_455
Fe2 O14 2.209509 1_544
Fe3 O15 2.060358 1_555
Fe3 O12 2.060358 1_555
Fe3 O0 2.138872 1_555
Fe3 O3 2.138872 1_555
Fe3 O34 2.177531 1_545
Fe3 O31 2.177531 1_455
Fe4 O13 2.060358 1_545
Fe4 O17 2.060371 1_555
Fe4 O1 2.138871 1_555
Fe4 O5 2.138872 1_545
Fe4 O32 2.177531 1_545
Fe4 O33 2.177531 1_655
Fe5 O14 2.060358 1_555
Fe5 O16 2.060358 1_455
Fe5 O4 2.138871 1_555
Fe5 O2 2.138872 1_455
Fe5 O35 2.177531 1_455
Fe5 O30 2.177531 1_565
B0 O4 1.420953 1_555
B0 O8 1.445532 1_555
B0 O18 1.486389 1_555
B0 O29 1.566995 1_555
B1 O3 1.420959 1_555
B1 O6 1.445540 1_555
B1 O19 1.486383 1_555
B1 O28 1.566999 1_555
B2 O5 1.420959 1_555
B2 O7 1.445532 1_555
B2 O20 1.486383 1_555
B2 O27 1.566998 1_555
B3 O1 1.420953 1_555
B3 O11 1.445532 1_555
B3 O21 1.486389 1_555
B3 O26 1.566995 1_555
B4 O0 1.420959 1_555
B4 O9 1.445540 1_555
B4 O22 1.486383 1_555
B4 O25 1.566999 1_555
B5 O2 1.420959 1_555
B5 O10 1.445532 1_555
B5 O23 1.486383 1_555
B5 O24 1.566998 1_555
H0 O0 0.983876 1_555
H1 O1 0.983886 1_555
H2 O2 0.983873 1_555
H3 O3 0.983876 1_555
H4 O4 0.983886 1_555
H5 O5 0.983873 1_555
H6 O6 0.975500 1_555
H7 O7 0.975506 1_555
H8 O8 0.975506 1_555
H9 O9 0.975500 1_555
H10 O10 0.975506 1_555
H11 O11 0.975506 1_555
O12 P0 1.534868 1_555
O13 P1 1.534858 1_565
O14 P2 1.534868 1_456
O15 P3 1.534868 1_555
O16 P4 1.534858 1_655
O17 P5 1.534858 1_544
O18 P0 1.568282 1_555
O19 P1 1.568282 1_565
O20 P2 1.568282 1_455
O21 P3 1.568282 1_555
O22 P4 1.568282 1_655
O23 P5 1.568282 1_545
O24 P0 1.569074 1_555
O25 P1 1.569074 1_555
O26 P2 1.569074 1_555
O27 P3 1.569074 1_555
O28 P4 1.569074 1_555
O29 P5 1.569074 1_555
O30 P0 1.535239 1_555
O31 P1 1.535248 1_555
O32 P2 1.535239 1_555
O33 P3 1.535239 1_555
O34 P4 1.535248 1_555
O35 P5 1.535239 1_555
