# generated using pymatgen
data_Mg3Si4
_symmetry_space_group_name_H-M   'P 1'
_cell_length_a   4.73636400
_cell_length_b   7.14345379
_cell_length_c   8.15098024
_cell_angle_alpha   107.70938629
_cell_angle_beta   91.62765918
_cell_angle_gamma   95.75757131
_symmetry_Int_Tables_number   1
_chemical_formula_structural   Mg3Si4
_chemical_formula_sum   'Mg6 Si8'
_cell_volume   260.88061826
_cell_formula_units_Z   2
loop_
 _symmetry_equiv_pos_site_id
 _symmetry_equiv_pos_as_xyz
  1  'x, y, z'
loop_
 _atom_site_type_symbol
 _atom_site_label
 _atom_site_symmetry_multiplicity
 _atom_site_fract_x
 _atom_site_fract_y
 _atom_site_fract_z
 _atom_site_occupancy
  Mg  Mg0  1  0.15482400  0.93713900  0.56957400  1
  Mg  Mg1  1  0.66156200  0.61334600  0.59968100  1
  Mg  Mg2  1  0.64701900  0.59679900  0.98066400  1
  Mg  Mg3  1  0.24529200  0.22283900  0.94943400  1
  Mg  Mg4  1  0.75387600  0.29033600  0.20665600  1
  Mg  Mg5  1  0.15900300  0.91865100  0.18674700  1
  Si  Si0  1  0.12110800  0.45236100  0.72582800  1
  Si  Si1  1  0.72961500  0.21892900  0.77509800  1
  Si  Si2  1  0.67478900  0.79153700  0.33906600  1
  Si  Si3  1  0.29456500  0.51355900  0.25572800  1
  Si  Si4  1  0.21739900  0.80427200  0.84316400  1
  Si  Si5  1  0.22060500  0.29229300  0.43264400  1
  Si  Si6  1  0.63662100  0.13672600  0.47126300  1
  Si  Si7  1  0.73701300  0.95766100  0.91107900  1
loop_
_geom_bond_atom_site_label_1
_geom_bond_atom_site_label_2
_geom_bond_distance
_geom_bond_site_symmetry_2
Mg0 Si4 2.695975 1_555
Mg0 Si2 2.806288 1_455
Mg0 Si6 2.833444 1_565
Mg0 Si5 3.059924 1_565
Mg0 Si1 3.141311 1_465
Mg0 Si2 3.203897 1_555
Mg1 Si2 2.788066 1_555
Mg1 Si0 2.865597 1_655
Mg1 Si5 2.907446 1_555
Mg1 Si7 2.931523 1_555
Mg1 Si0 3.034879 1_555
Mg1 Si4 3.064412 1_555
Mg1 Si3 3.106160 1_555
Mg1 Si4 3.172655 1_655
Mg2 Si1 2.782852 1_555
Mg2 Si7 2.798433 1_555
Mg2 Si2 2.820587 1_556
Mg2 Si3 2.998597 1_556
Mg2 Si4 3.013184 1_555
Mg2 Si0 3.077393 1_555
Mg2 Si0 3.138027 1_655
Mg3 Si3 2.704750 1_556
Mg3 Si1 2.730577 1_555
Mg3 Si1 2.783978 1_455
Mg3 Si4 2.836638 1_545
Mg3 Si7 2.857200 1_445
Mg3 Si0 2.882133 1_555
Mg3 Si7 3.110691 1_545
Mg4 Si6 2.747714 1_555
Mg4 Si3 2.791548 1_555
Mg4 Si7 2.815331 1_544
Mg4 Si3 2.827605 1_655
Mg4 Si5 2.833161 1_655
Mg5 Si4 2.698953 1_554
Mg5 Si5 2.789682 1_565
Mg5 Si2 2.838222 1_455
Mg5 Si2 3.048378 1_555
Mg5 Si7 3.059225 1_454
Mg5 Si3 3.231773 1_555
Si0 Si4 2.392632 1_555
Si0 Si5 2.397928 1_555
Si0 Si1 2.491881 1_455
Si1 Si6 2.381917 1_555
Si1 Si7 2.445902 1_545
Si2 Si6 2.399617 1_565
Si2 Si3 2.457657 1_555
Si3 Si5 2.450463 1_555
Si4 Si7 2.564470 1_555
Si4 Si7 2.624255 1_455
Si5 Si6 2.415254 1_555
