# generated using pymatgen
data_MgCoSb2O7
_symmetry_space_group_name_H-M   'P 1'
_cell_length_a   15.42105700
_cell_length_b   7.03283200
_cell_length_c   11.47611584
_cell_angle_alpha   74.96805664
_cell_angle_beta   90.00000000
_cell_angle_gamma   90.00000000
_symmetry_Int_Tables_number   1
_chemical_formula_structural   MgCoSb2O7
_chemical_formula_sum   'Mg8 Co8 Sb16 O56'
_cell_volume   1202.03783404
_cell_formula_units_Z   8
loop_
 _symmetry_equiv_pos_site_id
 _symmetry_equiv_pos_as_xyz
  1  'x, y, z'
loop_
 _atom_site_type_symbol
 _atom_site_label
 _atom_site_symmetry_multiplicity
 _atom_site_fract_x
 _atom_site_fract_y
 _atom_site_fract_z
 _atom_site_occupancy
  Mg  Mg0  1  0.52265400  0.95905300  0.74258600  1
  Mg  Mg1  1  0.89778200  0.70794100  0.90534100  1
  Mg  Mg2  1  0.39778200  0.29205900  0.59465900  1
  Mg  Mg3  1  0.10221800  0.29205900  0.09465900  1
  Mg  Mg4  1  0.60221800  0.70794100  0.40534100  1
  Mg  Mg5  1  0.97734600  0.95905300  0.24258600  1
  Mg  Mg6  1  0.47734600  0.04094700  0.25741400  1
  Mg  Mg7  1  0.02265400  0.04094700  0.75741400  1
  Co  Co0  1  0.63324900  0.31571400  0.09831600  1
  Co  Co1  1  0.13324900  0.68428600  0.40168400  1
  Co  Co2  1  0.36675100  0.68428600  0.90168400  1
  Co  Co3  1  0.86675100  0.31571400  0.59831600  1
  Co  Co4  1  0.77636800  0.00590300  0.23778900  1
  Co  Co5  1  0.27636800  0.99409700  0.26221100  1
  Co  Co6  1  0.22363200  0.99409700  0.76221100  1
  Co  Co7  1  0.72363200  0.00590300  0.73778900  1
  Sb  Sb0  1  0.91119700  0.19025000  0.96395100  1
  Sb  Sb1  1  0.04855200  0.56333100  0.69739600  1
  Sb  Sb2  1  0.45144800  0.56333100  0.19739600  1
  Sb  Sb3  1  0.95144800  0.43666900  0.30260400  1
  Sb  Sb4  1  0.74916500  0.50401300  0.77816800  1
  Sb  Sb5  1  0.24916500  0.49598700  0.72183200  1
  Sb  Sb6  1  0.25083500  0.49598700  0.22183200  1
  Sb  Sb7  1  0.75083500  0.50401300  0.27816800  1
  Sb  Sb8  1  0.54855200  0.43666900  0.80260400  1
  Sb  Sb9  1  0.11514600  0.15647500  0.46591500  1
  Sb  Sb10  1  0.61514600  0.84352500  0.03408500  1
  Sb  Sb11  1  0.88485400  0.84352500  0.53408500  1
  Sb  Sb12  1  0.41119700  0.80975000  0.53604900  1
  Sb  Sb13  1  0.58880300  0.19025000  0.46395100  1
  Sb  Sb14  1  0.08880300  0.80975000  0.03604900  1
  Sb  Sb15  1  0.38485400  0.15647500  0.96591500  1
  O  O0  1  0.01736300  0.31770400  0.95968400  1
  O  O1  1  0.51736300  0.68229600  0.54031600  1
  O  O2  1  0.98263700  0.68229600  0.04031600  1
  O  O3  1  0.48263700  0.31770400  0.45968400  1
  O  O4  1  0.91494700  0.00953800  0.86622500  1
  O  O5  1  0.41494700  0.99046200  0.63377500  1
  O  O6  1  0.08505300  0.99046200  0.13377500  1
  O  O7  1  0.58505300  0.00953800  0.36622500  1
  O  O8  1  0.87600200  0.03831500  0.12102000  1
  O  O9  1  0.37600200  0.96168500  0.37898000  1
  O  O10  1  0.12399800  0.96168500  0.87898000  1
  O  O11  1  0.62399800  0.03831500  0.62102000  1
  O  O12  1  0.32477800  0.39799300  0.88792800  1
  O  O13  1  0.82477800  0.60200700  0.61207200  1
  O  O14  1  0.67522200  0.60200700  0.11207200  1
  O  O15  1  0.17522200  0.39799300  0.38792800  1
  O  O16  1  0.37798800  0.05356000  0.13727600  1
  O  O17  1  0.87798800  0.94644000  0.36272400  1
  O  O18  1  0.62201200  0.94644000  0.86272400  1
  O  O19  1  0.12201200  0.05356000  0.63727600  1
  O  O20  1  0.34028900  0.96454400  0.89291000  1
  O  O21  1  0.48155200  0.66607200  0.80599800  1
  O  O22  1  0.84028900  0.03545600  0.60709000  1
  O  O23  1  0.15971100  0.96454400  0.39291000  1
  O  O24  1  0.48760400  0.25387800  0.73202800  1
  O  O25  1  0.98760400  0.74612200  0.76797200  1
  O  O26  1  0.51239600  0.74612200  0.26797200  1
  O  O27  1  0.01239600  0.25387800  0.23202800  1
  O  O28  1  0.50386100  0.25135600  0.96297200  1
  O  O29  1  0.00386100  0.74864400  0.53702800  1
  O  O30  1  0.49613900  0.74864400  0.03702800  1
  O  O31  1  0.99613900  0.25135600  0.46297200  1
  O  O32  1  0.85939200  0.55204300  0.18187600  1
  O  O33  1  0.35939200  0.44795700  0.31812400  1
  O  O34  1  0.14060800  0.44795700  0.81812400  1
  O  O35  1  0.64060800  0.55204300  0.68187600  1
  O  O36  1  0.72239400  0.26016500  0.23525400  1
  O  O37  1  0.22239400  0.73983500  0.26474600  1
  O  O38  1  0.27760600  0.73983500  0.76474600  1
  O  O39  1  0.77760600  0.26016500  0.73525400  1
  O  O40  1  0.65838300  0.42647300  0.41214400  1
  O  O41  1  0.15838300  0.57352700  0.08785600  1
  O  O42  1  0.34161700  0.57352700  0.58785600  1
  O  O43  1  0.84161700  0.42647300  0.91214400  1
  O  O44  1  0.72335500  0.75112000  0.31587900  1
  O  O45  1  0.22335500  0.24888000  0.18412100  1
  O  O46  1  0.27664500  0.24888000  0.68412100  1
  O  O47  1  0.77664500  0.75112000  0.81587900  1
  O  O48  1  0.84587300  0.41004300  0.40996100  1
  O  O49  1  0.34587300  0.58995700  0.09003900  1
  O  O50  1  0.15412700  0.58995700  0.59003900  1
  O  O51  1  0.65412700  0.41004300  0.90996100  1
  O  O52  1  0.01844800  0.66607200  0.30599800  1
  O  O53  1  0.51844800  0.33392800  0.19400200  1
  O  O54  1  0.98155200  0.33392800  0.69400200  1
  O  O55  1  0.65971100  0.03545600  0.10709000  1
loop_
_geom_bond_atom_site_label_1
_geom_bond_atom_site_label_2
_geom_bond_distance
_geom_bond_site_symmetry_2
Mg0 O18 2.047668 1_555
Mg0 O5 2.055191 1_555
Mg0 O11 2.072704 1_565
Mg0 O21 2.097412 1_555
Mg0 O24 2.115592 1_565
Mg1 O2 1.999823 1_556
Mg1 O25 2.063104 1_555
Mg1 O4 2.068010 1_565
Mg1 O47 2.115233 1_555
Mg1 O43 2.143499 1_555
Mg2 O3 1.999823 1_555
Mg2 O24 2.063104 1_555
Mg2 O5 2.068010 1_545
Mg2 O46 2.115233 1_555
Mg2 O42 2.143499 1_555
Mg3 O0 1.999823 1_554
Mg3 O27 2.063104 1_555
Mg3 O6 2.068010 1_545
Mg3 O45 2.115233 1_555
Mg3 O41 2.143499 1_555
Mg4 O1 1.999823 1_555
Mg4 O26 2.063104 1_555
Mg4 O7 2.068010 1_565
Mg4 O44 2.115233 1_555
Mg4 O40 2.143499 1_555
Mg5 O17 2.047668 1_555
Mg5 O6 2.055191 1_655
Mg5 O8 2.072704 1_565
Mg5 O52 2.097412 1_655
Mg5 O27 2.115592 1_665
Mg6 O16 2.047668 1_555
Mg6 O7 2.055191 1_555
Mg6 O9 2.072704 1_545
Mg6 O53 2.097412 1_555
Mg6 O26 2.115592 1_545
Mg7 O19 2.047668 1_555
Mg7 O4 2.055191 1_455
Mg7 O10 2.072704 1_545
Mg7 O54 2.097412 1_455
Mg7 O25 2.115592 1_445
Co0 O55 1.989620 1_555
Co0 O36 2.047841 1_555
Co0 O53 2.104603 1_555
Co0 O51 2.114797 1_554
Co0 O14 2.159337 1_555
Co1 O23 1.989620 1_555
Co1 O37 2.047841 1_555
Co1 O52 2.104603 1_555
Co1 O50 2.114797 1_555
Co1 O15 2.159337 1_555
Co2 O20 1.989620 1_555
Co2 O38 2.047841 1_555
Co2 O21 2.104603 1_555
Co2 O49 2.114797 1_556
Co2 O12 2.159337 1_555
Co3 O22 1.989620 1_555
Co3 O39 2.047841 1_555
Co3 O54 2.104603 1_555
Co3 O48 2.114797 1_555
Co3 O13 2.159337 1_555
Co4 O44 1.961941 1_545
Co4 O36 1.965767 1_555
Co4 O8 2.012454 1_555
Co4 O17 2.091728 1_545
Co4 O55 2.316797 1_555
Co5 O45 1.961941 1_565
Co5 O37 1.965767 1_555
Co5 O9 2.012454 1_555
Co5 O16 2.091728 1_565
Co5 O23 2.316797 1_555
Co6 O46 1.961941 1_565
Co6 O38 1.965767 1_555
Co6 O10 2.012454 1_555
Co6 O19 2.091728 1_565
Co6 O20 2.316797 1_555
Co7 O47 1.961941 1_545
Co7 O39 1.965767 1_555
Co7 O11 2.012454 1_555
Co7 O18 2.091728 1_545
Co7 O22 2.316797 1_555
O0 Sb0 1.861046 1_455
O1 Sb12 1.861046 1_555
O2 Sb14 1.861046 1_655
O3 Sb13 1.861046 1_555
O4 Sb0 1.901505 1_555
O5 Sb12 1.901505 1_555
O6 Sb14 1.901505 1_555
O7 Sb13 1.901505 1_555
O8 Sb0 1.920002 1_554
O9 Sb12 1.920002 1_555
O10 Sb14 1.920002 1_556
O11 Sb13 1.920002 1_555
O12 Sb15 1.937997 1_555
O12 Sb5 2.187815 1_555
O13 Sb11 1.937997 1_555
O13 Sb4 2.187815 1_555
O14 Sb10 1.937997 1_555
O14 Sb7 2.187815 1_555
O15 Sb9 1.937997 1_555
O15 Sb6 2.187815 1_555
O16 Sb15 1.914186 1_554
O17 Sb11 1.914186 1_555
O18 Sb10 1.914186 1_556
O19 Sb9 1.914186 1_555
O20 Sb15 1.892843 1_565
O21 Sb8 1.924719 1_555
O22 Sb11 1.892843 1_545
O23 Sb9 1.892843 1_565
O24 Sb8 1.931859 1_555
O25 Sb1 1.931859 1_655
O26 Sb2 1.931859 1_555
O27 Sb3 1.931859 1_455
O28 Sb15 1.950058 1_555
O28 Sb8 2.077598 1_555
O29 Sb11 1.950058 1_455
O29 Sb1 2.077598 1_555
O30 Sb10 1.950058 1_555
O30 Sb2 2.077598 1_555
O31 Sb9 1.950058 1_655
O31 Sb3 2.077598 1_555
O32 Sb7 1.985981 1_555
O32 Sb3 2.002521 1_555
O33 Sb6 1.985981 1_555
O33 Sb2 2.002521 1_555
O34 Sb5 1.985981 1_555
O34 Sb1 2.002521 1_555
O35 Sb4 1.985981 1_555
O35 Sb8 2.002521 1_555
O36 Sb7 1.952954 1_555
O37 Sb6 1.952954 1_555
O38 Sb5 1.952954 1_555
O39 Sb4 1.952954 1_555
O40 Sb13 1.937119 1_555
O40 Sb7 2.063755 1_555
O41 Sb14 1.937119 1_555
O41 Sb6 2.063755 1_555
O42 Sb12 1.937119 1_555
O42 Sb5 2.063755 1_555
O43 Sb0 1.937119 1_555
O43 Sb4 2.063755 1_555
O44 Sb7 1.943494 1_555
O45 Sb6 1.943494 1_555
O46 Sb5 1.943494 1_555
O47 Sb4 1.943494 1_555
O48 Sb3 2.020880 1_555
O48 Sb7 2.086573 1_555
O49 Sb2 2.020880 1_555
O49 Sb6 2.086573 1_555
O50 Sb1 2.020880 1_555
O50 Sb5 2.086573 1_555
O51 Sb8 2.020880 1_555
O51 Sb4 2.086573 1_555
O52 Sb3 1.924719 1_455
O53 Sb2 1.924719 1_555
O54 Sb1 1.924719 1_655
O55 Sb10 1.892843 1_545
