# generated using pymatgen
data_CaNb2Te4Cl10O
_symmetry_space_group_name_H-M   'P 1'
_cell_length_a   7.12526172
_cell_length_b   8.95966368
_cell_length_c   10.02977267
_cell_angle_alpha   88.66969840
_cell_angle_beta   96.64185850
_cell_angle_gamma   67.31312249
_symmetry_Int_Tables_number   1
_chemical_formula_structural   CaNb2Te4Cl10O
_chemical_formula_sum   'Ca1 Nb2 Te4 Cl10 O1'
_cell_volume   585.18367951
_cell_formula_units_Z   1
loop_
 _symmetry_equiv_pos_site_id
 _symmetry_equiv_pos_as_xyz
  1  'x, y, z'
loop_
 _atom_site_type_symbol
 _atom_site_label
 _atom_site_symmetry_multiplicity
 _atom_site_fract_x
 _atom_site_fract_y
 _atom_site_fract_z
 _atom_site_occupancy
  Ca  Ca0  1  0.88572200  0.87880700  0.34892000  1
  Nb  Nb0  1  0.53341600  0.62967700  0.64780400  1
  Nb  Nb1  1  0.48586400  0.35534100  0.37263900  1
  Te  Te0  1  0.23529800  0.88971200  0.14388600  1
  Te  Te1  1  0.07297000  0.18095400  0.98919900  1
  Te  Te2  1  0.93982300  0.79529000  0.00110700  1
  Te  Te3  1  0.78688400  0.08577300  0.84828000  1
  Cl  Cl0  1  0.51743500  0.12155000  0.21078800  1
  Cl  Cl1  1  0.42713600  0.49477500  0.80441500  1
  Cl  Cl2  1  0.83397900  0.17358900  0.45776400  1
  Cl  Cl3  1  0.11745100  0.55805300  0.27710800  1
  Cl  Cl4  1  0.58645700  0.47244500  0.19575600  1
  Cl  Cl5  1  0.32204900  0.23477300  0.50014900  1
  Cl  Cl6  1  0.88721300  0.47635100  0.72045900  1
  Cl  Cl7  1  0.62313800  0.78810400  0.47177300  1
  Cl  Cl8  1  0.16917600  0.81252100  0.57668200  1
  Cl  Cl9  1  0.53870200  0.84072500  0.80033300  1
  O  O0  1  0.50951000  0.49727600  0.50436700  1
loop_
_geom_bond_atom_site_label_1
_geom_bond_atom_site_label_2
_geom_bond_distance
_geom_bond_site_symmetry_2
Ca0 Cl7 2.709054 1_555
Ca0 Cl8 2.755862 1_655
Ca0 Cl2 2.789122 1_565
Ca0 Cl0 2.855224 1_565
Ca0 Cl3 2.866164 1_655
Ca0 Te0 3.435986 1_655
Nb0 O0 1.919468 1_555
Nb1 O0 1.892869 1_555
Te0 Te1 2.760931 1_564
Te0 Te2 2.816313 1_455
Te1 Te3 2.758728 1_455
Te2 Te3 2.747965 1_564
Cl0 Nb1 2.636740 1_555
Cl1 Nb0 2.322660 1_555
Cl2 Nb1 2.421354 1_555
Cl3 Nb1 2.601388 1_555
Cl4 Nb1 2.355806 1_555
Cl5 Nb1 2.327817 1_555
Cl6 Nb0 2.372829 1_555
Cl7 Nb0 2.526943 1_555
Cl8 Nb0 2.483144 1_555
Cl9 Nb0 2.468462 1_555
