# generated using pymatgen
data_MgFeO2
_symmetry_space_group_name_H-M   'P 1'
_cell_length_a   2.97602600
_cell_length_b   8.42984535
_cell_length_c   8.51982799
_cell_angle_alpha   85.45048007
_cell_angle_beta   80.14558081
_cell_angle_gamma   79.82260210
_symmetry_Int_Tables_number   1
_chemical_formula_structural   MgFeO2
_chemical_formula_sum   'Mg4 Fe4 O8'
_cell_volume   207.00794794
_cell_formula_units_Z   4
loop_
 _symmetry_equiv_pos_site_id
 _symmetry_equiv_pos_as_xyz
  1  'x, y, z'
loop_
 _atom_site_type_symbol
 _atom_site_label
 _atom_site_symmetry_multiplicity
 _atom_site_fract_x
 _atom_site_fract_y
 _atom_site_fract_z
 _atom_site_occupancy
  Mg  Mg0  1  0.57673700  0.92670500  0.28311500  1
  Mg  Mg1  1  0.42326300  0.07329500  0.71688500  1
  Mg  Mg2  1  0.20325200  0.28318000  0.37890200  1
  Mg  Mg3  1  0.79674800  0.71682000  0.62109800  1
  Fe  Fe0  1  0.17887600  0.80590000  0.94617400  1
  Fe  Fe1  1  0.40702900  0.61208700  0.29807300  1
  Fe  Fe2  1  0.59297100  0.38791300  0.70192700  1
  Fe  Fe3  1  0.82112400  0.19410000  0.05382600  1
  O  O0  1  0.41611700  0.23410900  0.90092400  1
  O  O1  1  0.20026300  0.56617200  0.66721800  1
  O  O2  1  0.79973700  0.43382800  0.33278200  1
  O  O3  1  0.58388300  0.76589100  0.09907600  1
  O  O4  1  0.80533000  0.89397900  0.77630800  1
  O  O5  1  0.95282100  0.79188000  0.39660300  1
  O  O6  1  0.19467000  0.10602100  0.22369200  1
  O  O7  1  0.04717900  0.20812000  0.60339700  1
loop_
_geom_bond_atom_site_label_1
_geom_bond_atom_site_label_2
_geom_bond_distance
_geom_bond_site_symmetry_2
Mg0 O5 1.796074 1_555
Mg0 O6 1.817242 1_565
Mg0 O3 2.147644 1_555
Mg0 O5 2.373023 1_455
Mg0 O6 2.542717 1_665
Mg1 O7 1.796074 1_555
Mg1 O4 1.817242 1_545
Mg1 O0 2.147644 1_555
Mg1 O7 2.373023 1_655
Mg1 O4 2.542717 1_445
Mg2 O2 1.659111 1_455
Mg2 O7 1.970317 1_555
Mg2 O6 2.077965 1_555
Mg2 O2 2.323159 1_555
Mg3 O1 1.659111 1_655
Mg3 O5 1.970317 1_555
Mg3 O4 2.077965 1_555
Mg3 O1 2.323159 1_555
Fe0 O3 1.894107 1_556
Fe0 O4 1.992520 1_455
Fe0 O3 2.073159 1_456
Fe0 O4 2.348769 1_555
Fe1 O2 1.771607 1_555
Fe1 O5 1.979503 1_455
Fe1 O3 2.102257 1_555
Fe1 O2 2.513616 1_455
Fe1 O5 2.679308 1_555
Fe2 O1 1.771607 1_555
Fe2 O7 1.979503 1_655
Fe2 O0 2.102257 1_555
Fe2 O1 2.513616 1_655
Fe2 O7 2.679308 1_555
Fe3 O0 1.894107 1_554
Fe3 O6 1.992520 1_655
Fe3 O0 2.073159 1_654
Fe3 O6 2.348769 1_555
