# generated using pymatgen
data_K3MoHS4O
_symmetry_space_group_name_H-M   'P 1'
_cell_length_a   6.50913600
_cell_length_b   8.28441900
_cell_length_c   9.74186400
_cell_angle_alpha   90.00000000
_cell_angle_beta   90.00000000
_cell_angle_gamma   90.00000000
_symmetry_Int_Tables_number   1
_chemical_formula_structural   K3MoHS4O
_chemical_formula_sum   'K6 Mo2 H2 S8 O2'
_cell_volume   525.32426803
_cell_formula_units_Z   2
loop_
 _symmetry_equiv_pos_site_id
 _symmetry_equiv_pos_as_xyz
  1  'x, y, z'
loop_
 _atom_site_type_symbol
 _atom_site_label
 _atom_site_symmetry_multiplicity
 _atom_site_fract_x
 _atom_site_fract_y
 _atom_site_fract_z
 _atom_site_occupancy
  K  K0  1  0.89452500  0.74011800  0.77172300  1
  K  K1  1  0.89452500  0.74011800  0.22827700  1
  K  K2  1  0.10547500  0.24011800  0.72827700  1
  K  K3  1  0.10547500  0.24011800  0.27172300  1
  K  K4  1  0.50114900  0.49846100  0.50000000  1
  K  K5  1  0.49885100  0.99846100  0.00000000  1
  Mo  Mo0  1  0.49944500  0.99025500  0.50000000  1
  Mo  Mo1  1  0.50055500  0.49025500  0.00000000  1
  H  H0  1  0.09106600  0.66623700  0.50000000  1
  H  H1  1  0.90893400  0.16623700  0.00000000  1
  S  S0  1  0.40641600  0.85139100  0.68561700  1
  S  S1  1  0.40641600  0.85139100  0.31438300  1
  S  S2  1  0.59358400  0.35139100  0.81438300  1
  S  S3  1  0.59358400  0.35139100  0.18561700  1
  S  S4  1  0.83876500  0.02162600  0.50000000  1
  S  S5  1  0.16123500  0.52162600  0.00000000  1
  S  S6  1  0.99729000  0.52029500  0.50000000  1
  S  S7  1  0.00271000  0.02029500  0.00000000  1
  O  O0  1  0.37134400  0.17927800  0.50000000  1
  O  O1  1  0.62865600  0.67927800  0.00000000  1
loop_
_geom_bond_atom_site_label_1
_geom_bond_atom_site_label_2
_geom_bond_distance
_geom_bond_site_symmetry_2
K0 O1 2.862589 1_556
K0 S5 3.351976 1_656
K0 S0 3.412889 1_555
K0 S4 3.546497 1_565
K0 S0 3.557447 1_655
K1 O1 2.862589 1_555
K1 S5 3.351976 1_655
K1 S1 3.412889 1_555
K1 S4 3.546497 1_565
K1 S1 3.557447 1_655
K2 O0 2.862589 1_555
K2 S4 3.351976 1_455
K2 S2 3.412889 1_555
K2 S5 3.546497 1_556
K2 S2 3.557447 1_455
K3 O0 2.862589 1_555
K3 S4 3.351976 1_455
K3 S3 3.412889 1_555
K3 S5 3.546497 1_555
K3 S3 3.557447 1_455
K4 O0 2.775954 1_555
K4 S6 3.234511 1_555
K4 S6 3.284671 1_455
K4 S2 3.350592 1_555
K4 S3 3.350592 1_555
K4 S1 3.492670 1_555
K4 S0 3.492670 1_555
K5 O1 2.775954 1_555
K5 S7 3.234511 1_565
K5 S7 3.284671 1_665
K5 S1 3.350592 1_555
K5 S0 3.350592 1_554
K5 S2 3.492670 1_564
K5 S3 3.492670 1_565
Mo0 O0 1.774106 1_565
Mo0 S4 2.223918 1_565
Mo0 S1 2.227084 1_555
Mo0 S0 2.227084 1_555
Mo1 O1 1.774106 1_555
Mo1 S5 2.223918 1_555
Mo1 S3 2.227084 1_555
Mo1 S2 2.227084 1_554
H0 S6 1.354392 1_455
H0 K4 3.009482 1_555
H1 S7 1.354392 1_655
H1 K5 3.009482 1_545
