# generated using pymatgen
data_Pr3Zn11
_symmetry_space_group_name_H-M   'P 1'
_cell_length_a   4.51558600
_cell_length_b   8.36951187
_cell_length_c   8.36951187
_cell_angle_alpha   65.12238943
_cell_angle_beta   74.34977603
_cell_angle_gamma   74.34977603
_symmetry_Int_Tables_number   1
_chemical_formula_structural   Pr3Zn11
_chemical_formula_sum   'Pr3 Zn11'
_cell_volume   271.86381574
_cell_formula_units_Z   1
loop_
 _symmetry_equiv_pos_site_id
 _symmetry_equiv_pos_as_xyz
  1  'x, y, z'
loop_
 _atom_site_type_symbol
 _atom_site_label
 _atom_site_symmetry_multiplicity
 _atom_site_fract_x
 _atom_site_fract_y
 _atom_site_fract_z
 _atom_site_occupancy
  Pr  Pr0  1  0.00000000  0.00000000  0.00000000  1
  Pr  Pr1  1  0.30078900  0.69921100  0.69921100  1
  Pr  Pr2  1  0.69921100  0.30078900  0.30078900  1
  Zn  Zn0  1  0.00000000  0.50000000  0.50000000  1
  Zn  Zn1  1  0.50000000  0.30215900  0.69784100  1
  Zn  Zn2  1  0.50000000  0.69784100  0.30215900  1
  Zn  Zn3  1  0.33848900  0.30183100  0.02119100  1
  Zn  Zn4  1  0.66151100  0.69816900  0.97880900  1
  Zn  Zn5  1  0.33848900  0.02119100  0.30183100  1
  Zn  Zn6  1  0.66151100  0.97880900  0.69816900  1
  Zn  Zn7  1  0.13717200  0.58179600  0.14386000  1
  Zn  Zn8  1  0.86282800  0.41820400  0.85614000  1
  Zn  Zn9  1  0.13717200  0.14386000  0.58179600  1
  Zn  Zn10  1  0.86282800  0.85614000  0.41820400  1
loop_
_geom_bond_atom_site_label_1
_geom_bond_atom_site_label_2
_geom_bond_distance
_geom_bond_site_symmetry_2
Pr0 Zn8 3.125924 1_454
Pr0 Zn7 3.125924 1_545
Pr0 Zn9 3.125924 1_554
Pr0 Zn10 3.125924 1_445
Pr0 Zn4 3.369825 1_444
Pr0 Zn6 3.369825 1_544
Pr0 Zn4 3.369825 1_544
Pr0 Zn6 3.369825 1_444
Pr0 Zn5 3.369825 1_455
Pr0 Zn5 3.369825 1_555
Pr0 Zn3 3.369825 1_455
Pr0 Zn3 3.369825 1_555
Pr0 Zn2 3.536614 1_445
Pr0 Zn2 3.536614 1_545
Pr0 Zn1 3.536614 1_554
Pr0 Zn1 3.536614 1_454
Pr1 Zn10 3.110728 1_455
Pr1 Zn10 3.110728 1_555
Pr1 Zn8 3.110728 1_455
Pr1 Zn8 3.110728 1_555
Pr1 Zn4 3.187641 1_555
Pr1 Zn6 3.187641 1_455
Pr1 Zn6 3.187641 1_555
Pr1 Zn4 3.187641 1_455
Pr1 Zn1 3.204090 1_555
Pr1 Zn2 3.204090 1_555
Pr1 Zn3 3.279282 1_556
Pr1 Zn5 3.279282 1_565
Pr1 Zn7 3.345504 1_556
Pr1 Zn9 3.345504 1_565
Pr1 Zn0 3.491002 1_655
Pr1 Zn0 3.491002 1_555
Pr2 Zn9 3.110728 1_655
Pr2 Zn9 3.110728 1_555
Pr2 Zn7 3.110728 1_555
Pr2 Zn7 3.110728 1_655
Pr2 Zn3 3.187641 1_555
Pr2 Zn5 3.187641 1_555
Pr2 Zn5 3.187641 1_655
Pr2 Zn3 3.187641 1_655
Pr2 Zn1 3.204090 1_555
Pr2 Zn2 3.204090 1_555
Pr2 Zn4 3.279282 1_554
Pr2 Zn6 3.279282 1_545
Pr2 Zn8 3.345504 1_554
Pr2 Zn10 3.345504 1_545
Pr2 Zn0 3.491002 1_655
Pr2 Zn0 3.491002 1_555
Zn0 Zn8 2.693104 1_455
Zn0 Zn7 2.693104 1_555
Zn0 Zn9 2.693104 1_555
Zn0 Zn10 2.693104 1_455
Zn0 Zn1 2.876519 1_455
Zn0 Zn1 2.876519 1_555
Zn0 Zn2 2.876519 1_455
Zn0 Zn2 2.876519 1_555
Zn1 Zn3 2.604960 1_556
Zn1 Zn6 2.604960 1_545
Zn1 Zn8 2.914659 1_555
Zn1 Zn8 2.914659 1_455
Zn1 Zn9 2.914659 1_655
Zn1 Zn9 2.914659 1_555
Zn2 Zn5 2.604960 1_565
Zn2 Zn4 2.604960 1_554
Zn2 Zn7 2.914659 1_655
Zn2 Zn7 2.914659 1_555
Zn3 Zn5 2.528270 1_555
Zn3 Zn8 2.609681 1_454
Zn3 Zn8 2.609681 1_554
Zn3 Zn7 2.782476 1_555
Zn4 Zn6 2.528270 1_555
Zn4 Zn7 2.609681 1_556
Zn4 Zn7 2.609681 1_656
Zn4 Zn8 2.782476 1_555
Zn5 Zn9 2.782476 1_555
Zn6 Zn9 2.609681 1_665
Zn6 Zn9 2.609681 1_565
Zn10 Zn5 2.609681 1_665
Zn10 Zn5 2.609681 1_565
Zn10 Zn6 2.782476 1_555
Zn10 Zn2 2.914659 1_555
Zn10 Zn2 2.914659 1_655
