# generated using pymatgen
data_CaMg3
_symmetry_space_group_name_H-M   'P 1'
_cell_length_a   7.05854600
_cell_length_b   10.74872000
_cell_length_c   11.59492200
_cell_angle_alpha   90.00000000
_cell_angle_beta   90.00000000
_cell_angle_gamma   90.00000000
_symmetry_Int_Tables_number   1
_chemical_formula_structural   CaMg3
_chemical_formula_sum   'Ca8 Mg24'
_cell_volume   879.71061135
_cell_formula_units_Z   8
loop_
 _symmetry_equiv_pos_site_id
 _symmetry_equiv_pos_as_xyz
  1  'x, y, z'
loop_
 _atom_site_type_symbol
 _atom_site_label
 _atom_site_symmetry_multiplicity
 _atom_site_fract_x
 _atom_site_fract_y
 _atom_site_fract_z
 _atom_site_occupancy
  Ca  Ca0_0  1  0.00000000  0.00000000  0.08669950  1
  Ca  Ca0_1  1  0.00000000  0.00000000  0.58669950  1
  Ca  Ca0_2  1  0.00000000  0.50000000  0.08669950  1
  Ca  Ca0_3  1  0.00000000  0.50000000  0.58669950  1
  Ca  Ca0_4  1  0.50000000  0.00000000  0.08669950  1
  Ca  Ca0_5  1  0.50000000  0.00000000  0.58669950  1
  Ca  Ca0_6  1  0.50000000  0.50000000  0.08669950  1
  Ca  Ca0_7  1  0.50000000  0.50000000  0.58669950  1
  Mg  Mg0_0  1  0.25000000  0.00000000  0.33156600  1
  Mg  Mg0_1  1  0.25000000  0.00000000  0.83156600  1
  Mg  Mg0_2  1  0.25000000  0.50000000  0.33156600  1
  Mg  Mg0_3  1  0.25000000  0.50000000  0.83156600  1
  Mg  Mg0_4  1  0.75000000  0.00000000  0.33156600  1
  Mg  Mg0_5  1  0.75000000  0.00000000  0.83156600  1
  Mg  Mg0_6  1  0.75000000  0.50000000  0.33156600  1
  Mg  Mg0_7  1  0.75000000  0.50000000  0.83156600  1
  Mg  Mg1_0  1  0.25000000  0.25000000  0.17200550  1
  Mg  Mg1_1  1  0.25000000  0.25000000  0.67200550  1
  Mg  Mg1_2  1  0.25000000  0.75000000  0.17200550  1
  Mg  Mg1_3  1  0.25000000  0.75000000  0.67200550  1
  Mg  Mg1_4  1  0.75000000  0.25000000  0.17200550  1
  Mg  Mg1_5  1  0.75000000  0.25000000  0.67200550  1
  Mg  Mg1_6  1  0.75000000  0.75000000  0.17200550  1
  Mg  Mg1_7  1  0.75000000  0.75000000  0.67200550  1
  Mg  Mg2_0  1  0.00000000  0.25000000  0.40972850  1
  Mg  Mg2_1  1  0.00000000  0.25000000  0.90972850  1
  Mg  Mg2_2  1  0.00000000  0.75000000  0.40972850  1
  Mg  Mg2_3  1  0.00000000  0.75000000  0.90972850  1
  Mg  Mg2_4  1  0.50000000  0.25000000  0.40972850  1
  Mg  Mg2_5  1  0.50000000  0.25000000  0.90972850  1
  Mg  Mg2_6  1  0.50000000  0.75000000  0.40972850  1
  Mg  Mg2_7  1  0.50000000  0.75000000  0.90972850  1
loop_
_geom_bond_atom_site_label_1
_geom_bond_atom_site_label_2
_geom_bond_distance
_geom_bond_site_symmetry_2
Ca0_0 Mg0_0 3.342909 1_555
Ca0_0 Mg0_4 3.342909 1_455
Ca0_0 Mg1_2 3.363514 1_545
Ca0_0 Mg1_6 3.363514 1_445
Ca0_0 Mg1_0 3.363514 1_555
Ca0_0 Mg1_4 3.363514 1_455
Ca0_0 Mg2_1 3.381050 1_554
Ca0_0 Mg2_3 3.381050 1_544
Ca0_0 Mg0_5 3.444590 1_454
Ca0_0 Mg0_1 3.444590 1_554
Ca0_0 Ca0_4 3.529273 1_455
Ca0_0 Ca0_4 3.529273 1_555
Ca0_1 Mg0_5 3.342909 1_455
Ca0_1 Mg0_1 3.342909 1_555
Ca0_1 Mg1_3 3.363514 1_545
Ca0_1 Mg1_7 3.363514 1_445
Ca0_1 Mg1_5 3.363514 1_455
Ca0_1 Mg1_1 3.363514 1_555
Ca0_1 Mg2_0 3.381050 1_555
Ca0_1 Mg2_2 3.381050 1_545
Ca0_1 Mg0_4 3.444590 1_455
Ca0_1 Mg0_0 3.444590 1_555
Ca0_1 Ca0_5 3.529273 1_455
Ca0_1 Ca0_5 3.529273 1_555
Ca0_2 Mg0_2 3.342909 1_555
Ca0_2 Mg0_6 3.342909 1_455
Ca0_2 Mg1_0 3.363514 1_555
Ca0_2 Mg1_4 3.363514 1_455
Ca0_2 Mg1_2 3.363514 1_555
Ca0_2 Mg1_6 3.363514 1_455
Ca0_2 Mg2_1 3.381050 1_554
Ca0_2 Mg2_3 3.381050 1_554
Ca0_2 Mg0_3 3.444590 1_554
Ca0_2 Mg0_7 3.444590 1_454
Ca0_2 Ca0_6 3.529273 1_455
Ca0_2 Ca0_6 3.529273 1_555
Ca0_3 Mg0_3 3.342909 1_555
Ca0_3 Mg0_7 3.342909 1_455
Ca0_3 Mg1_5 3.363514 1_455
Ca0_3 Mg1_1 3.363514 1_555
Ca0_3 Mg1_3 3.363514 1_555
Ca0_3 Mg1_7 3.363514 1_455
Ca0_3 Mg2_0 3.381050 1_555
Ca0_3 Mg2_2 3.381050 1_555
Ca0_3 Mg0_2 3.444590 1_555
Ca0_3 Mg0_6 3.444590 1_455
Ca0_3 Ca0_7 3.529273 1_455
Ca0_3 Ca0_7 3.529273 1_555
Ca0_4 Mg0_0 3.342909 1_555
Ca0_4 Mg0_4 3.342909 1_555
Ca0_4 Mg1_2 3.363514 1_545
Ca0_4 Mg1_0 3.363514 1_555
Ca0_4 Mg1_4 3.363514 1_555
Ca0_4 Mg1_6 3.363514 1_545
Ca0_4 Mg2_5 3.381050 1_554
Ca0_4 Mg2_7 3.381050 1_544
Ca0_4 Mg0_5 3.444590 1_554
Ca0_4 Mg0_1 3.444590 1_554
Ca0_5 Mg0_5 3.342909 1_555
Ca0_5 Mg0_1 3.342909 1_555
Ca0_5 Mg1_5 3.363514 1_555
Ca0_5 Mg1_3 3.363514 1_545
Ca0_5 Mg1_1 3.363514 1_555
Ca0_5 Mg1_7 3.363514 1_545
Ca0_5 Mg2_4 3.381050 1_555
Ca0_5 Mg2_6 3.381050 1_545
Ca0_5 Mg0_4 3.444590 1_555
Ca0_5 Mg0_0 3.444590 1_555
Ca0_6 Mg0_2 3.342909 1_555
Ca0_6 Mg0_6 3.342909 1_555
Ca0_6 Mg1_0 3.363514 1_555
Ca0_6 Mg1_4 3.363514 1_555
Ca0_6 Mg1_6 3.363514 1_555
Ca0_6 Mg1_2 3.363514 1_555
Ca0_6 Mg2_5 3.381050 1_554
Ca0_6 Mg2_7 3.381050 1_554
Ca0_6 Mg0_3 3.444590 1_554
Ca0_6 Mg0_7 3.444590 1_554
Ca0_7 Mg0_3 3.342909 1_555
Ca0_7 Mg0_7 3.342909 1_555
Ca0_7 Mg1_5 3.363514 1_555
Ca0_7 Mg1_1 3.363514 1_555
Ca0_7 Mg1_7 3.363514 1_555
Ca0_7 Mg1_3 3.363514 1_555
Ca0_7 Mg2_4 3.381050 1_555
Ca0_7 Mg2_6 3.381050 1_555
Ca0_7 Mg0_6 3.444590 1_555
Ca0_7 Mg0_2 3.444590 1_555
Mg0_0 Mg1_0 3.262480 1_555
Mg0_0 Mg1_2 3.262480 1_545
Mg0_0 Mg2_0 3.340095 1_555
Mg0_0 Mg2_4 3.340095 1_555
Mg0_0 Mg2_6 3.340095 1_545
Mg0_0 Mg2_2 3.340095 1_545
Mg0_0 Mg0_4 3.529273 1_555
Mg0_0 Mg0_4 3.529273 1_455
Mg0_1 Mg1_1 3.262480 1_555
Mg0_1 Mg1_3 3.262480 1_545
Mg0_1 Mg2_1 3.340095 1_555
Mg0_1 Mg2_5 3.340095 1_555
Mg0_1 Mg2_7 3.340095 1_545
Mg0_1 Mg2_3 3.340095 1_545
Mg0_1 Mg0_5 3.529273 1_455
Mg0_1 Mg0_5 3.529273 1_555
Mg0_2 Mg1_0 3.262480 1_555
Mg0_2 Mg1_2 3.262480 1_555
Mg0_2 Mg2_0 3.340095 1_555
Mg0_2 Mg2_4 3.340095 1_555
Mg0_2 Mg2_2 3.340095 1_555
Mg0_2 Mg2_6 3.340095 1_555
Mg0_2 Mg0_6 3.529273 1_555
Mg0_2 Mg0_6 3.529273 1_455
Mg0_3 Mg1_1 3.262480 1_555
Mg0_3 Mg1_3 3.262480 1_555
Mg0_3 Mg2_1 3.340095 1_555
Mg0_3 Mg2_5 3.340095 1_555
Mg0_3 Mg2_3 3.340095 1_555
Mg0_3 Mg2_7 3.340095 1_555
Mg0_3 Mg0_7 3.529273 1_555
Mg0_3 Mg0_7 3.529273 1_455
Mg0_4 Mg1_4 3.262480 1_555
Mg0_4 Mg1_6 3.262480 1_545
Mg0_4 Mg2_0 3.340095 1_655
Mg0_4 Mg2_4 3.340095 1_555
Mg0_4 Mg2_6 3.340095 1_545
Mg0_4 Mg2_2 3.340095 1_645
Mg0_5 Mg1_5 3.262480 1_555
Mg0_5 Mg1_7 3.262480 1_545
Mg0_5 Mg2_1 3.340095 1_655
Mg0_5 Mg2_5 3.340095 1_555
Mg0_5 Mg2_7 3.340095 1_545
Mg0_5 Mg2_3 3.340095 1_645
Mg0_6 Mg1_4 3.262480 1_555
Mg0_6 Mg1_6 3.262480 1_555
Mg0_6 Mg2_0 3.340095 1_655
Mg0_6 Mg2_4 3.340095 1_555
Mg0_6 Mg2_6 3.340095 1_555
Mg0_6 Mg2_2 3.340095 1_655
Mg0_7 Mg1_5 3.262480 1_555
Mg0_7 Mg1_7 3.262480 1_555
Mg0_7 Mg2_1 3.340095 1_655
Mg0_7 Mg2_5 3.340095 1_555
Mg0_7 Mg2_3 3.340095 1_655
Mg0_7 Mg2_7 3.340095 1_555
Mg1_0 Mg2_0 3.272854 1_555
Mg1_0 Mg2_4 3.272854 1_555
Mg1_0 Mg2_5 3.515980 1_554
Mg1_0 Mg2_1 3.515980 1_554
Mg1_0 Mg1_4 3.529273 1_555
Mg1_0 Mg1_4 3.529273 1_455
Mg1_1 Mg2_5 3.272854 1_555
Mg1_1 Mg2_1 3.272854 1_555
Mg1_1 Mg2_4 3.515980 1_555
Mg1_1 Mg2_0 3.515980 1_555
Mg1_1 Mg1_5 3.529273 1_555
Mg1_1 Mg1_5 3.529273 1_455
Mg1_2 Mg2_2 3.272854 1_555
Mg1_2 Mg2_6 3.272854 1_555
Mg1_2 Mg2_3 3.515980 1_554
Mg1_2 Mg2_7 3.515980 1_554
Mg1_2 Mg1_6 3.529273 1_555
Mg1_2 Mg1_6 3.529273 1_455
Mg1_3 Mg2_3 3.272854 1_555
Mg1_3 Mg2_7 3.272854 1_555
Mg1_3 Mg2_2 3.515980 1_555
Mg1_3 Mg2_6 3.515980 1_555
Mg1_3 Mg1_7 3.529273 1_455
Mg1_3 Mg1_7 3.529273 1_555
Mg1_4 Mg2_4 3.272854 1_555
Mg1_4 Mg2_0 3.272854 1_655
Mg1_4 Mg2_5 3.515980 1_554
Mg1_4 Mg2_1 3.515980 1_654
Mg1_5 Mg2_1 3.272854 1_655
Mg1_5 Mg2_5 3.272854 1_555
Mg1_5 Mg2_4 3.515980 1_555
Mg1_5 Mg2_0 3.515980 1_655
Mg1_6 Mg2_2 3.272854 1_655
Mg1_6 Mg2_6 3.272854 1_555
Mg1_6 Mg2_3 3.515980 1_654
Mg1_6 Mg2_7 3.515980 1_554
Mg1_7 Mg2_3 3.272854 1_655
Mg1_7 Mg2_7 3.272854 1_555
Mg1_7 Mg2_2 3.515980 1_655
Mg1_7 Mg2_6 3.515980 1_555
Mg2_0 Mg2_4 3.529273 1_555
Mg2_0 Mg2_4 3.529273 1_455
Mg2_1 Mg2_5 3.529273 1_455
Mg2_1 Mg2_5 3.529273 1_555
Mg2_2 Mg2_6 3.529273 1_455
Mg2_2 Mg2_6 3.529273 1_555
Mg2_3 Mg2_7 3.529273 1_555
Mg2_3 Mg2_7 3.529273 1_455
