# generated using pymatgen
data_Pu3Zn
_symmetry_space_group_name_H-M   'P 1'
_cell_length_a   6.48137500
_cell_length_b   6.48137577
_cell_length_c   5.22981500
_cell_angle_alpha   90.00000000
_cell_angle_beta   90.00000000
_cell_angle_gamma   120.00000118
_symmetry_Int_Tables_number   1
_chemical_formula_structural   Pu3Zn
_chemical_formula_sum   'Pu6 Zn2'
_cell_volume   190.26166966
_cell_formula_units_Z   2
loop_
 _symmetry_equiv_pos_site_id
 _symmetry_equiv_pos_as_xyz
  1  'x, y, z'
loop_
 _atom_site_type_symbol
 _atom_site_label
 _atom_site_symmetry_multiplicity
 _atom_site_fract_x
 _atom_site_fract_y
 _atom_site_fract_z
 _atom_site_occupancy
  Pu  Pu0  1  0.17250300  0.34500600  0.25000000  1
  Pu  Pu1  1  0.65499600  0.82749800  0.25000000  1
  Pu  Pu2  1  0.17250300  0.82749800  0.25000000  1
  Pu  Pu3  1  0.82749700  0.65499500  0.75000100  1
  Pu  Pu4  1  0.34500500  0.17250300  0.75000100  1
  Pu  Pu5  1  0.82749900  0.17250300  0.75000100  1
  Zn  Zn0  1  0.33333400  0.66666800  0.75000100  1
  Zn  Zn1  1  0.66666700  0.33333400  0.25000000  1
loop_
_geom_bond_atom_site_label_1
_geom_bond_atom_site_label_2
_geom_bond_distance
_geom_bond_site_symmetry_2
Pu0 Pu2 3.127212 1_555
Pu0 Pu1 3.127215 1_555
Pu0 Zn0 3.177664 1_554
Pu0 Zn0 3.177672 1_555
Pu0 Zn1 3.241350 1_455
Pu0 Zn1 3.241350 1_555
Pu0 Pu5 3.253893 1_454
Pu0 Pu4 3.253897 1_554
Pu0 Pu5 3.253902 1_455
Pu0 Pu4 3.253905 1_555
Pu0 Pu1 3.354160 1_445
Pu0 Pu2 3.354164 1_545
Pu1 Pu2 3.127218 1_555
Pu1 Zn0 3.177663 1_554
Pu1 Zn0 3.177672 1_555
Pu1 Zn1 3.241347 1_555
Pu1 Zn1 3.241353 1_565
Pu1 Pu3 3.253893 1_554
Pu1 Pu5 3.253897 1_564
Pu1 Pu3 3.253902 1_555
Pu1 Pu5 3.253905 1_565
Pu1 Pu2 3.354157 1_655
Pu2 Zn0 3.177660 1_554
Pu2 Zn0 3.177669 1_555
Pu2 Zn1 3.241350 1_455
Pu2 Zn1 3.241350 1_565
Pu2 Pu4 3.253897 1_564
Pu2 Pu3 3.253900 1_454
Pu2 Pu4 3.253905 1_565
Pu2 Pu3 3.253908 1_455
Pu3 Pu4 3.127212 1_555
Pu3 Pu5 3.127218 1_555
Pu3 Zn1 3.177660 1_556
Pu3 Zn1 3.177669 1_555
Pu3 Zn0 3.241347 1_555
Pu3 Zn0 3.241353 1_655
Pu3 Pu5 3.354157 1_565
Pu3 Pu4 3.354164 1_665
Pu4 Pu5 3.127225 1_555
Pu4 Zn1 3.177663 1_556
Pu4 Zn1 3.177672 1_555
Pu4 Zn0 3.241347 1_545
Pu4 Zn0 3.241353 1_555
Pu4 Pu5 3.354150 1_455
Pu5 Zn1 3.177667 1_556
Pu5 Zn1 3.177675 1_555
Pu5 Zn0 3.241350 1_655
Pu5 Zn0 3.241350 1_545
