# generated using pymatgen
data_In6Ge2IrO8
_symmetry_space_group_name_H-M   'P 1'
_cell_length_a   7.24822352
_cell_length_b   7.24822352
_cell_length_c   7.24822352
_cell_angle_alpha   60.00000000
_cell_angle_beta   60.00000000
_cell_angle_gamma   60.00000000
_symmetry_Int_Tables_number   1
_chemical_formula_structural   In6Ge2IrO8
_chemical_formula_sum   'In6 Ge2 Ir1 O8'
_cell_volume   269.26489358
_cell_formula_units_Z   1
loop_
 _symmetry_equiv_pos_site_id
 _symmetry_equiv_pos_as_xyz
  1  'x, y, z'
loop_
 _atom_site_type_symbol
 _atom_site_label
 _atom_site_symmetry_multiplicity
 _atom_site_fract_x
 _atom_site_fract_y
 _atom_site_fract_z
 _atom_site_occupancy
  In  In0  1  0.75048100  0.24951900  0.24951900  1
  In  In1  1  0.24951900  0.75048100  0.75048100  1
  In  In2  1  0.24951900  0.75048100  0.24951900  1
  In  In3  1  0.75048100  0.24951900  0.75048100  1
  In  In4  1  0.24951900  0.24951900  0.75048100  1
  In  In5  1  0.75048100  0.75048100  0.24951900  1
  Ge  Ge0  1  0.25000000  0.25000000  0.25000000  1
  Ge  Ge1  1  0.75000000  0.75000000  0.75000000  1
  Ir  Ir0  1  0.00000000  0.00000000  0.00000000  1
  O  O0  1  0.35290800  0.35290800  0.35290900  1
  O  O1  1  0.64709200  0.64709200  0.64709200  1
  O  O2  1  0.35290800  0.35290800  0.94127500  1
  O  O3  1  0.35290800  0.94127500  0.35290800  1
  O  O4  1  0.64709100  0.64709200  0.05872500  1
  O  O5  1  0.64709200  0.05872500  0.64709200  1
  O  O6  1  0.94127500  0.35290800  0.35290800  1
  O  O7  1  0.05872500  0.64709200  0.64709200  1
loop_
_geom_bond_atom_site_label_1
_geom_bond_atom_site_label_2
_geom_bond_distance
_geom_bond_site_symmetry_2
In0 O6 2.381151 1_555
In0 O0 2.381157 1_555
In0 O4 2.381157 1_555
In0 O5 2.381157 1_555
In0 Ir0 2.557703 1_655
In1 O7 2.381151 1_555
In1 O3 2.381157 1_555
In1 O2 2.381157 1_555
In1 O1 2.381158 1_555
In1 Ir0 2.557703 1_566
In2 O4 2.381151 1_555
In2 O3 2.381151 1_555
In2 O0 2.381157 1_555
In2 O7 2.381157 1_555
In2 Ir0 2.557703 1_565
In3 O5 2.381151 1_555
In3 O6 2.381157 1_555
In3 O2 2.381157 1_555
In3 O1 2.381158 1_555
In3 Ir0 2.557703 1_656
In4 O0 2.381151 1_555
In4 O2 2.381151 1_555
In4 O7 2.381157 1_555
In4 O5 2.381157 1_555
In4 Ir0 2.557703 1_556
In5 O4 2.381157 1_555
In5 O3 2.381157 1_555
In5 O6 2.381157 1_555
In5 O1 2.381158 1_555
In5 Ir0 2.557703 1_665
Ge0 O0 1.827081 1_555
Ge0 O3 1.827081 1_545
Ge0 O6 1.827081 1_455
Ge0 O2 1.827081 1_554
Ge1 O1 1.827075 1_555
Ge1 O5 1.827081 1_565
Ge1 O7 1.827081 1_655
Ge1 O4 1.827081 1_556
