# generated using pymatgen
data_Ca2Nd2MnNiO8
_symmetry_space_group_name_H-M   'P 1'
_cell_length_a   5.47474150
_cell_length_b   5.47474150
_cell_length_c   11.93068600
_cell_angle_alpha   90.00000000
_cell_angle_beta   90.00000000
_cell_angle_gamma   90.04808656
_symmetry_Int_Tables_number   1
_chemical_formula_structural   Ca2Nd2MnNiO8
_chemical_formula_sum   'Ca4 Nd4 Mn2 Ni2 O16'
_cell_volume   357.59587386
_cell_formula_units_Z   2
loop_
 _symmetry_equiv_pos_site_id
 _symmetry_equiv_pos_as_xyz
  1  'x, y, z'
loop_
 _atom_site_type_symbol
 _atom_site_label
 _atom_site_symmetry_multiplicity
 _atom_site_fract_x
 _atom_site_fract_y
 _atom_site_fract_z
 _atom_site_occupancy
  Ca  Ca0  1  0.48649200  0.51350800  0.86376800  1
  Ca  Ca1  1  0.01350800  0.98649200  0.86376800  1
  Ca  Ca2  1  0.51350800  0.48649200  0.13623200  1
  Ca  Ca3  1  0.98649200  0.01350800  0.13623200  1
  Nd  Nd0  1  0.98431600  0.48431600  0.64535700  1
  Nd  Nd1  1  0.51568400  0.01568400  0.64535700  1
  Nd  Nd2  1  0.01568400  0.51568400  0.35464300  1
  Nd  Nd3  1  0.48431600  0.98431600  0.35464300  1
  Mn  Mn0  1  0.00000000  0.50000000  0.00000000  1
  Mn  Mn1  1  0.50000000  0.00000000  0.00000000  1
  Ni  Ni0  1  0.50000000  0.50000000  0.50000000  1
  Ni  Ni1  1  0.00000000  0.00000000  0.50000000  1
  O  O0  1  0.54535500  0.45464500  0.67767100  1
  O  O1  1  0.95464500  0.04535500  0.67767100  1
  O  O2  1  0.03662000  0.53662000  0.83555000  1
  O  O3  1  0.46338000  0.96338000  0.83555000  1
  O  O4  1  0.45464500  0.54535500  0.32232900  1
  O  O5  1  0.04535500  0.95464500  0.32232900  1
  O  O6  1  0.96338000  0.46338000  0.16445000  1
  O  O7  1  0.53662000  0.03662000  0.16445000  1
  O  O8  1  0.75000000  0.25000000  0.47352400  1
  O  O9  1  0.25000000  0.75000000  0.02249300  1
  O  O10  1  0.25000000  0.75000000  0.52647600  1
  O  O11  1  0.75000000  0.25000000  0.97750700  1
  O  O12  1  0.75000000  0.75000000  0.50000000  1
  O  O13  1  0.25000000  0.25000000  0.00000000  1
  O  O14  1  0.25000000  0.25000000  0.50000000  1
  O  O15  1  0.75000000  0.75000000  0.00000000  1
loop_
_geom_bond_atom_site_label_1
_geom_bond_atom_site_label_2
_geom_bond_distance
_geom_bond_site_symmetry_2
Ca0 O0 2.266595 1_555
Ca0 O11 2.450981 1_555
Ca0 O2 2.489159 1_555
Ca0 O3 2.489159 1_555
Ca0 O13 2.529058 1_556
Ca0 O15 2.529058 1_556
Ca0 O9 2.634686 1_556
Ca0 O3 3.033101 1_545
Ca0 O2 3.033101 1_655
Ca1 O1 2.266595 1_465
Ca1 O11 2.450981 1_465
Ca1 O2 2.489159 1_555
Ca1 O3 2.489159 1_555
Ca1 O15 2.529058 1_456
Ca1 O13 2.529058 1_566
Ca1 O9 2.634686 1_556
Ca1 O3 3.033101 1_455
Ca1 O2 3.033101 1_565
Ca2 O4 2.266595 1_555
Ca2 O9 2.450981 1_555
Ca2 O7 2.489159 1_555
Ca2 O6 2.489159 1_555
Ca2 O13 2.529058 1_555
Ca2 O15 2.529058 1_555
Ca2 O11 2.634686 1_554
Ca2 O6 3.033101 1_455
Ca2 O7 3.033101 1_565
Ca3 O5 2.266595 1_645
Ca3 O9 2.450981 1_645
Ca3 O7 2.489159 1_555
Ca3 O6 2.489159 1_555
Ca3 O15 2.529058 1_545
Ca3 O13 2.529058 1_655
Ca3 O11 2.634686 1_554
Ca3 O6 3.033101 1_545
Ca3 O7 3.033101 1_655
Nd0 O2 2.304956 1_655
Nd0 O1 2.439206 1_555
Nd0 O0 2.439206 1_555
Nd0 O10 2.497910 1_655
Nd0 O14 2.602298 1_655
Nd0 O12 2.602298 1_555
Nd0 O8 2.737031 1_555
Nd0 O0 3.100038 1_655
Nd0 O1 3.100038 1_565
Nd1 O3 2.304956 1_545
Nd1 O0 2.439206 1_555
Nd1 O1 2.439206 1_555
Nd1 O10 2.497910 1_545
Nd1 O12 2.602298 1_545
Nd1 O14 2.602298 1_555
Nd1 O8 2.737031 1_555
Nd1 O1 3.100038 1_455
Nd1 O0 3.100038 1_545
Nd2 O6 2.304956 1_455
Nd2 O4 2.439206 1_555
Nd2 O5 2.439206 1_555
Nd2 O8 2.497910 1_455
Nd2 O14 2.602298 1_555
Nd2 O12 2.602298 1_455
Nd2 O10 2.737031 1_555
Nd2 O5 3.100038 1_545
Nd2 O4 3.100038 1_455
Nd3 O7 2.304956 1_565
Nd3 O5 2.439206 1_555
Nd3 O4 2.439206 1_555
Nd3 O8 2.497910 1_565
Nd3 O14 2.602298 1_565
Nd3 O12 2.602298 1_555
Nd3 O10 2.737031 1_555
Nd3 O4 3.100038 1_565
Nd3 O5 3.100038 1_655
Mn0 O13 1.936425 1_555
Mn0 O15 1.936425 1_455
Mn0 O9 1.953323 1_555
Mn0 O11 1.953323 1_454
Mn0 O6 1.982365 1_455
Mn0 O2 1.982365 1_554
Mn1 O13 1.936425 1_555
Mn1 O15 1.936425 1_545
Mn1 O9 1.953323 1_545
Mn1 O11 1.953323 1_554
Mn1 O3 1.982365 1_544
Mn1 O7 1.982365 1_555
Ni0 O14 1.934801 1_555
Ni0 O12 1.934801 1_555
Ni0 O10 1.962020 1_555
Ni0 O8 1.962020 1_555
Ni0 O0 2.148651 1_555
Ni0 O4 2.148651 1_555
Ni1 O14 1.934801 1_555
Ni1 O12 1.934801 1_445
Ni1 O10 1.962020 1_545
Ni1 O8 1.962020 1_455
Ni1 O1 2.148651 1_455
Ni1 O5 2.148651 1_545
