# generated using pymatgen
data_Nd(GaFe)6
_symmetry_space_group_name_H-M   'P 1'
_cell_length_a   6.61687327
_cell_length_b   6.62709186
_cell_length_c   6.62785245
_cell_angle_alpha   135.43306909
_cell_angle_beta   98.41538994
_cell_angle_gamma   98.13528108
_symmetry_Int_Tables_number   1
_chemical_formula_structural   Nd(GaFe)6
_chemical_formula_sum   'Nd1 Ga6 Fe6'
_cell_volume   188.68706860
_cell_formula_units_Z   1
loop_
 _symmetry_equiv_pos_site_id
 _symmetry_equiv_pos_as_xyz
  1  'x, y, z'
loop_
 _atom_site_type_symbol
 _atom_site_label
 _atom_site_symmetry_multiplicity
 _atom_site_fract_x
 _atom_site_fract_y
 _atom_site_fract_z
 _atom_site_occupancy
  Nd  Nd0  1  -0.00000000  -0.00000000  -0.00000000  1
  Ga  Ga0  1  0.66384859  0.99988088  0.66417433  1
  Ga  Ga1  1  0.33615141  0.00011912  0.33582567  1
  Ga  Ga2  1  0.65198317  0.65188560  0.99990926  1
  Ga  Ga3  1  0.34801683  0.34811440  0.00009074  1
  Ga  Ga4  1  0.19490724  0.69498867  0.49992174  1
  Ga  Ga5  1  0.80509276  0.30501133  0.50007826  1
  Fe  Fe0  1  -0.00000000  -0.00000000  0.50000000  1
  Fe  Fe1  1  -0.00000000  0.50000000  -0.00000000  1
  Fe  Fe2  1  0.50000000  0.50000000  0.50000000  1
  Fe  Fe3  1  0.50000000  -0.00000000  -0.00000000  1
  Fe  Fe4  1  0.24326573  0.49999884  0.74330106  1
  Fe  Fe5  1  0.75673427  0.50000116  0.25669894  1
loop_
_geom_bond_atom_site_label_1
_geom_bond_atom_site_label_2
_geom_bond_distance
_geom_bond_site_symmetry_2
Ga0 Ga1 2.839434 1_565
Ga0 Nd0 2.906802 1_666
Ga0 Ga4 2.999757 1_555
Ga0 Ga5 3.006935 1_565
Ga1 Nd0 2.906802 1_555
Ga1 Ga5 2.999757 1_555
Ga1 Ga4 3.006935 1_545
Ga2 Ga3 2.637463 1_556
Ga2 Ga5 2.841836 1_555
Ga2 Ga5 2.842788 1_566
Ga2 Nd0 3.019779 1_666
Ga3 Ga4 2.841836 1_555
Ga3 Ga4 2.842788 1_544
Ga3 Nd0 3.019779 1_555
Ga4 Nd0 3.029446 1_566
Ga4 Nd0 3.029614 1_555
Ga5 Nd0 3.029446 1_655
Ga5 Nd0 3.029614 1_666
Fe0 Fe5 2.507619 1_445
Fe0 Fe4 2.507619 1_555
Fe0 Fe1 2.513066 1_545
Fe0 Fe1 2.513066 1_556
Fe0 Ga4 2.546680 1_545
Fe0 Ga5 2.546680 1_455
Fe0 Ga1 2.615441 1_555
Fe0 Ga0 2.615441 1_445
Fe0 Ga2 2.641624 1_444
Fe0 Ga3 2.641624 1_556
Fe0 Nd0 3.313926 1_556
Fe0 Nd0 3.313926 1_555
Fe1 Fe4 2.507430 1_554
Fe1 Fe5 2.507430 1_455
Fe1 Ga5 2.547274 1_454
Fe1 Ga4 2.547274 1_555
Fe1 Ga1 2.615262 1_565
Fe1 Ga0 2.615262 1_444
Fe1 Ga3 2.640539 1_555
Fe1 Ga2 2.640539 1_454
Fe1 Nd0 3.313546 1_555
Fe1 Nd0 3.313546 1_565
Fe2 Fe4 2.507595 1_555
Fe2 Fe5 2.507595 1_555
Fe2 Fe3 2.513066 1_555
Fe2 Fe3 2.513066 1_566
Fe2 Ga5 2.546399 1_555
Fe2 Ga4 2.546399 1_555
Fe2 Ga0 2.614538 1_555
Fe2 Ga1 2.614538 1_555
Fe2 Ga3 2.643643 1_555
Fe2 Ga2 2.643643 1_555
Fe2 Nd0 3.308999 1_555
Fe2 Nd0 3.308999 1_666
Fe3 Fe4 2.507645 1_544
Fe3 Fe5 2.507645 1_555
Fe3 Ga5 2.547030 1_555
Fe3 Ga4 2.547030 1_544
Fe3 Ga0 2.614129 1_544
Fe3 Ga1 2.614129 1_555
Fe3 Ga3 2.643547 1_555
Fe3 Ga2 2.643547 1_544
Fe3 Nd0 3.308437 1_655
Fe3 Nd0 3.308437 1_555
Fe4 Ga2 2.581419 1_555
Fe4 Ga3 2.585222 1_556
Fe4 Ga1 2.637474 1_566
Fe4 Ga1 2.638189 1_555
Fe4 Ga5 2.697801 1_455
Fe4 Ga4 2.703747 1_555
Fe4 Nd0 3.277753 1_566
Fe4 Nd0 3.278811 1_555
Fe5 Ga3 2.581419 1_555
Fe5 Ga2 2.585222 1_554
Fe5 Ga0 2.637474 1_544
Fe5 Ga0 2.638189 1_555
Fe5 Ga4 2.697801 1_655
Fe5 Ga5 2.703747 1_555
Fe5 Nd0 3.277753 1_655
Fe5 Nd0 3.278811 1_666
