# generated using pymatgen
data_MnSeO3
_symmetry_space_group_name_H-M   'P 1'
_cell_length_a   8.30745548
_cell_length_b   8.02258354
_cell_length_c   10.49618852
_cell_angle_alpha   54.80173752
_cell_angle_beta   90.00000000
_cell_angle_gamma   90.00000000
_symmetry_Int_Tables_number   1
_chemical_formula_structural   MnSeO3
_chemical_formula_sum   'Mn8 Se8 O24'
_cell_volume   571.63953487
_cell_formula_units_Z   8
loop_
 _symmetry_equiv_pos_site_id
 _symmetry_equiv_pos_as_xyz
  1  'x, y, z'
loop_
 _atom_site_type_symbol
 _atom_site_label
 _atom_site_symmetry_multiplicity
 _atom_site_fract_x
 _atom_site_fract_y
 _atom_site_fract_z
 _atom_site_occupancy
  Mn  Mn0  1  0.11945743  0.30271145  0.62353017  1
  Mn  Mn1  1  0.61945743  0.69728855  0.87646983  1
  Mn  Mn2  1  0.88054257  0.69728855  0.37646983  1
  Mn  Mn3  1  0.38054257  0.30271145  0.12353017  1
  Mn  Mn4  1  0.20280661  0.02820411  0.48404173  1
  Mn  Mn5  1  0.70280661  0.97179589  0.01595827  1
  Mn  Mn6  1  0.79719339  0.97179589  0.51595827  1
  Mn  Mn7  1  0.29719339  0.02820411  0.98404173  1
  Se  Se0  1  0.37107583  0.56949438  0.70837430  1
  Se  Se1  1  0.87107583  0.43050562  0.79162570  1
  Se  Se2  1  0.62892417  0.43050562  0.29162570  1
  Se  Se3  1  0.12892417  0.56949438  0.20837430  1
  Se  Se4  1  0.49561800  0.85841031  0.33256720  1
  Se  Se5  1  0.99561800  0.14158969  0.16743280  1
  Se  Se6  1  0.50438200  0.14158969  0.66743280  1
  Se  Se7  1  0.00438200  0.85841031  0.83256720  1
  O  O0  1  0.51227873  0.02902740  0.13066172  1
  O  O1  1  0.01227873  0.97097260  0.36933828  1
  O  O2  1  0.48772127  0.97097260  0.86933828  1
  O  O3  1  0.98772127  0.02902740  0.63066172  1
  O  O4  1  0.68531628  0.85191919  0.39940676  1
  O  O5  1  0.18531628  0.14808081  0.10059324  1
  O  O6  1  0.31468372  0.14808081  0.60059324  1
  O  O7  1  0.81468372  0.85191919  0.89940676  1
  O  O8  1  0.41733489  0.52651217  0.88508482  1
  O  O9  1  0.91733489  0.47348783  0.61491518  1
  O  O10  1  0.58266511  0.47348783  0.11491518  1
  O  O11  1  0.08266511  0.52651217  0.38508482  1
  O  O12  1  0.40869469  0.02995623  0.35870677  1
  O  O13  1  0.90869469  0.97004377  0.14129323  1
  O  O14  1  0.59130531  0.97004377  0.64129323  1
  O  O15  1  0.09130531  0.02995623  0.85870677  1
  O  O16  1  0.29100767  0.33855707  0.76445635  1
  O  O17  1  0.79100767  0.66144293  0.73554365  1
  O  O18  1  0.70899233  0.66144293  0.23554365  1
  O  O19  1  0.20899233  0.33855707  0.26445635  1
  O  O20  1  0.20461087  0.71469838  0.65622363  1
  O  O21  1  0.70461087  0.28530162  0.84377637  1
  O  O22  1  0.79538913  0.28530162  0.34377637  1
  O  O23  1  0.29538913  0.71469838  0.15622363  1
loop_
_geom_bond_atom_site_label_1
_geom_bond_atom_site_label_2
_geom_bond_distance
_geom_bond_site_symmetry_2
Mn0 O11 2.097768 1_555
Mn0 O9 2.135860 1_455
Mn0 O6 2.138115 1_555
Mn0 O15 2.170091 1_555
Mn0 O16 2.189090 1_555
Mn0 O3 2.415517 1_455
Mn1 O10 2.097768 1_556
Mn1 O8 2.135860 1_555
Mn1 O7 2.138115 1_555
Mn1 O14 2.170091 1_555
Mn1 O17 2.189090 1_555
Mn1 O2 2.415517 1_555
Mn2 O9 2.097768 1_555
Mn2 O11 2.135860 1_655
Mn2 O4 2.138115 1_555
Mn2 O13 2.170091 1_555
Mn2 O18 2.189090 1_555
Mn2 O1 2.415517 1_655
Mn3 O8 2.097768 1_554
Mn3 O10 2.135860 1_555
Mn3 O5 2.138115 1_555
Mn3 O12 2.170091 1_555
Mn3 O19 2.189090 1_555
Mn3 O0 2.415517 1_555
Mn4 O20 2.086184 1_545
Mn4 O12 2.152908 1_555
Mn4 O6 2.154438 1_555
Mn4 O1 2.191536 1_545
Mn4 O19 2.213260 1_555
Mn4 O3 2.360684 1_455
Mn5 O21 2.086184 1_564
Mn5 O13 2.152908 1_555
Mn5 O7 2.154438 1_554
Mn5 O0 2.191536 1_565
Mn5 O18 2.213260 1_555
Mn5 O2 2.360684 1_554
Mn6 O22 2.086184 1_565
Mn6 O14 2.152908 1_555
Mn6 O4 2.154438 1_555
Mn6 O3 2.191536 1_565
Mn6 O17 2.213260 1_555
Mn6 O1 2.360684 1_655
Mn7 O23 2.086184 1_546
Mn7 O15 2.152908 1_555
Mn7 O5 2.154438 1_556
Mn7 O2 2.191536 1_545
Mn7 O16 2.213260 1_555
Mn7 O0 2.360684 1_556
O0 Se4 1.743513 1_545
O1 Se5 1.743513 1_465
O2 Se6 1.743513 1_565
O3 Se7 1.743513 1_645
O4 Se4 1.713556 1_555
O5 Se5 1.713556 1_455
O6 Se6 1.713556 1_555
O7 Se7 1.713556 1_655
O8 Se0 1.723225 1_555
O9 Se1 1.723225 1_555
O10 Se2 1.723225 1_555
O11 Se3 1.723225 1_555
O12 Se4 1.710572 1_545
O13 Se5 1.710572 1_565
O14 Se6 1.710572 1_565
O15 Se7 1.710572 1_545
O16 Se0 1.721697 1_555
O17 Se1 1.721697 1_555
O18 Se2 1.721697 1_555
O19 Se3 1.721697 1_555
O20 Se0 1.683438 1_555
O21 Se1 1.683438 1_555
O22 Se2 1.683438 1_555
O23 Se3 1.683438 1_555
