# generated using pymatgen
data_Co5Sb15I
_symmetry_space_group_name_H-M   'P 1'
_cell_length_a   7.89161553
_cell_length_b   7.89161553
_cell_length_c   32.74603272
_cell_angle_alpha   80.81489524
_cell_angle_beta   80.81489524
_cell_angle_gamma   70.49265761
_symmetry_Int_Tables_number   1
_chemical_formula_structural   Co5Sb15I
_chemical_formula_sum   'Co20 Sb60 I4'
_cell_volume   1885.20717692
_cell_formula_units_Z   4
loop_
 _symmetry_equiv_pos_site_id
 _symmetry_equiv_pos_as_xyz
  1  'x, y, z'
loop_
 _atom_site_type_symbol
 _atom_site_label
 _atom_site_symmetry_multiplicity
 _atom_site_fract_x
 _atom_site_fract_y
 _atom_site_fract_z
 _atom_site_occupancy
  Co  Co0  1  0.09997300  0.60003400  0.79994800  1
  Co  Co1  1  0.50000000  0.00000000  0.00000000  1
  Co  Co2  1  0.90002700  0.39996600  0.20005200  1
  Co  Co3  1  0.29872600  0.80010500  0.40067000  1
  Co  Co4  1  0.70127400  0.19989400  0.59933000  1
  Co  Co5  1  0.29996000  0.80017000  0.90003500  1
  Co  Co6  1  0.70004000  0.19983000  0.09996500  1
  Co  Co7  1  0.09999400  0.59991500  0.30017300  1
  Co  Co8  1  0.50000000  0.00000000  0.50000000  1
  Co  Co9  1  0.90000600  0.40008500  0.69982700  1
  Co  Co10  1  0.80017000  0.29996000  0.90003500  1
  Co  Co11  1  0.19983000  0.70004000  0.09996500  1
  Co  Co12  1  0.59991500  0.09999400  0.30017300  1
  Co  Co13  1  0.00000000  0.50000000  0.50000000  1
  Co  Co14  1  0.40008500  0.90000600  0.69982700  1
  Co  Co15  1  0.60003400  0.09997300  0.79994800  1
  Co  Co16  1  0.00000000  0.50000000  0.00000000  1
  Co  Co17  1  0.39996600  0.90002700  0.20005200  1
  Co  Co18  1  0.80010600  0.29872600  0.40067000  1
  Co  Co19  1  0.19989500  0.70127400  0.59933000  1
  Sb  Sb0  1  0.16232200  0.84116700  0.83279700  1
  Sb  Sb1  1  0.56250400  0.24111000  0.03279800  1
  Sb  Sb2  1  0.96225400  0.64145800  0.23276600  1
  Sb  Sb3  1  0.36065300  0.04075700  0.43308000  1
  Sb  Sb4  1  0.76133300  0.44130600  0.63282700  1
  Sb  Sb5  1  0.03774600  0.35854200  0.76723400  1
  Sb  Sb6  1  0.43749600  0.75889000  0.96720200  1
  Sb  Sb7  1  0.83767800  0.15883300  0.16720300  1
  Sb  Sb8  1  0.23866700  0.55869400  0.36717300  1
  Sb  Sb9  1  0.63934700  0.95924300  0.56692000  1
  Sb  Sb10  1  0.84116700  0.16232200  0.83279700  1
  Sb  Sb11  1  0.24111000  0.56250400  0.03279800  1
  Sb  Sb12  1  0.64145800  0.96225400  0.23276600  1
  Sb  Sb13  1  0.04075700  0.36065300  0.43308000  1
  Sb  Sb14  1  0.44130600  0.76133300  0.63282700  1
  Sb  Sb15  1  0.35854200  0.03774600  0.76723400  1
  Sb  Sb16  1  0.75889000  0.43749600  0.96720200  1
  Sb  Sb17  1  0.15883300  0.83767800  0.16720300  1
  Sb  Sb18  1  0.55869400  0.23866700  0.36717300  1
  Sb  Sb19  1  0.95924300  0.63934700  0.56692000  1
  Sb  Sb20  1  0.12835800  0.80038200  0.73196500  1
  Sb  Sb21  1  0.52825500  0.20046300  0.93198500  1
  Sb  Sb22  1  0.92820800  0.60023500  0.13200400  1
  Sb  Sb23  1  0.32786300  0.00017500  0.33204600  1
  Sb  Sb24  1  0.73041100  0.39850000  0.53192200  1
  Sb  Sb25  1  0.07179200  0.39976500  0.86799600  1
  Sb  Sb26  1  0.47174500  0.79953700  0.06801500  1
  Sb  Sb27  1  0.87164200  0.19961800  0.26803500  1
  Sb  Sb28  1  0.26958900  0.60150000  0.46807800  1
  Sb  Sb29  1  0.67213700  0.99982500  0.66795400  1
  Sb  Sb30  1  0.39976500  0.07179200  0.86799600  1
  Sb  Sb31  1  0.79953700  0.47174500  0.06801500  1
  Sb  Sb32  1  0.19961800  0.87164200  0.26803500  1
  Sb  Sb33  1  0.60150000  0.26958900  0.46807800  1
  Sb  Sb34  1  0.99982500  0.67213700  0.66795400  1
  Sb  Sb35  1  0.80038200  0.12835800  0.73196500  1
  Sb  Sb36  1  0.20046300  0.52825500  0.93198500  1
  Sb  Sb37  1  0.60023500  0.92820800  0.13200400  1
  Sb  Sb38  1  0.00017500  0.32786300  0.33204600  1
  Sb  Sb39  1  0.39850000  0.73041100  0.53192200  1
  Sb  Sb40  1  0.56924300  0.56924300  0.86497600  1
  Sb  Sb41  1  0.96934300  0.96934300  0.06500600  1
  Sb  Sb42  1  0.36949700  0.36949700  0.26504700  1
  Sb  Sb43  1  0.77026000  0.77026000  0.46515700  1
  Sb  Sb44  1  0.16964000  0.16964000  0.66495400  1
  Sb  Sb45  1  0.63050300  0.63050300  0.73495300  1
  Sb  Sb46  1  0.03065700  0.03065700  0.93499400  1
  Sb  Sb47  1  0.43075700  0.43075700  0.13502400  1
  Sb  Sb48  1  0.83036000  0.83036000  0.33504600  1
  Sb  Sb49  1  0.22974000  0.22974000  0.53484300  1
  Sb  Sb50  1  0.76236400  0.76236400  0.80082100  1
  Sb  Sb51  1  0.16252400  0.16252400  0.00070600  1
  Sb  Sb52  1  0.56233700  0.56233700  0.20066200  1
  Sb  Sb53  1  0.96248600  0.96248600  0.40113300  1
  Sb  Sb54  1  0.36208500  0.36208500  0.60093800  1
  Sb  Sb55  1  0.43766300  0.43766300  0.79933800  1
  Sb  Sb56  1  0.83747600  0.83747600  0.99929300  1
  Sb  Sb57  1  0.23763600  0.23763600  0.19917900  1
  Sb  Sb58  1  0.63791500  0.63791500  0.39906200  1
  Sb  Sb59  1  0.03751400  0.03751400  0.59886700  1
  I  I0  1  0.40029000  0.40029000  0.69965400  1
  I  I1  1  0.79995300  0.79995300  0.90000100  1
  I  I2  1  0.20004700  0.20004700  0.09999900  1
  I  I3  1  0.59971000  0.59971000  0.30034600  1
loop_
_geom_bond_atom_site_label_1
_geom_bond_atom_site_label_2
_geom_bond_distance
_geom_bond_site_symmetry_2
Co0 Sb50 2.539336 1_455
Co0 Sb55 2.540615 1_555
Co0 Sb20 2.541548 1_555
Co0 Sb25 2.542602 1_555
Co0 Sb5 2.542714 1_555
Co0 Sb0 2.543242 1_555
Co1 Sb56 2.539070 1_544
Co1 Sb51 2.539072 1_555
Co1 Sb26 2.542651 1_545
Co1 Sb21 2.542651 1_554
Co1 Sb1 2.542750 1_555
Co1 Sb6 2.542750 1_544
Co2 Sb57 2.539336 1_655
Co2 Sb52 2.540615 1_555
Co2 Sb27 2.541548 1_555
Co2 Sb22 2.542602 1_555
Co2 Sb2 2.542714 1_555
Co2 Sb7 2.543242 1_555
Co3 Sb28 2.521089 1_555
Co3 Sb3 2.529977 1_565
Co3 Sb53 2.530955 1_455
Co3 Sb8 2.548228 1_555
Co3 Sb58 2.548411 1_555
Co3 Sb23 2.557396 1_565
Co4 Sb24 2.521093 1_555
Co4 Sb9 2.529970 1_545
Co4 Sb59 2.530954 1_655
Co4 Sb4 2.548235 1_555
Co4 Sb54 2.548413 1_555
Co4 Sb29 2.557392 1_545
Co5 Sb6 2.533576 1_555
Co5 Sb0 2.536471 1_555
Co5 Sb46 2.538099 1_565
Co5 Sb40 2.541201 1_555
Co5 Sb30 2.541966 1_565
Co5 Sb36 2.542062 1_555
Co6 Sb1 2.533576 1_555
Co6 Sb7 2.536471 1_555
Co6 Sb41 2.538099 1_545
Co6 Sb47 2.541201 1_555
Co6 Sb37 2.541966 1_545
Co6 Sb31 2.542062 1_555
Co7 Sb8 2.533360 1_555
Co7 Sb48 2.538092 1_455
Co7 Sb42 2.541017 1_555
Co7 Sb2 2.541302 1_455
Co7 Sb32 2.542689 1_555
Co7 Sb38 2.543778 1_555
Co8 Sb39 2.534035 1_545
Co8 Sb33 2.534035 1_555
Co8 Sb3 2.534344 1_555
Co8 Sb9 2.534344 1_545
Co8 Sb49 2.537461 1_555
Co8 Sb43 2.537461 1_545
Co9 Sb4 2.533360 1_555
Co9 Sb44 2.538092 1_655
Co9 Sb45 2.541017 1_555
Co9 Sb5 2.541302 1_655
Co9 Sb35 2.542689 1_555
Co9 Sb34 2.543778 1_555
Co10 Sb16 2.533576 1_555
Co10 Sb10 2.536471 1_555
Co10 Sb46 2.538099 1_655
Co10 Sb40 2.541201 1_555
Co10 Sb25 2.541966 1_655
Co10 Sb21 2.542062 1_555
Co11 Sb11 2.533576 1_555
Co11 Sb17 2.536471 1_555
Co11 Sb41 2.538099 1_455
Co11 Sb47 2.541201 1_555
Co11 Sb22 2.541966 1_455
Co11 Sb26 2.542062 1_555
Co12 Sb18 2.533360 1_555
Co12 Sb48 2.538092 1_545
Co12 Sb42 2.541017 1_555
Co12 Sb12 2.541302 1_545
Co12 Sb27 2.542689 1_555
Co12 Sb23 2.543778 1_555
Co13 Sb24 2.534035 1_455
Co13 Sb28 2.534035 1_555
Co13 Sb13 2.534344 1_555
Co13 Sb19 2.534344 1_455
Co13 Sb49 2.537461 1_555
Co13 Sb43 2.537461 1_455
Co14 Sb14 2.533360 1_555
Co14 Sb44 2.538092 1_565
Co14 Sb45 2.541017 1_555
Co14 Sb15 2.541302 1_565
Co14 Sb20 2.542689 1_555
Co14 Sb29 2.543778 1_555
Co15 Sb50 2.539336 1_545
Co15 Sb55 2.540615 1_555
Co15 Sb35 2.541548 1_555
Co15 Sb30 2.542602 1_555
Co15 Sb15 2.542714 1_555
Co15 Sb10 2.543242 1_555
Co16 Sb56 2.539070 1_454
Co16 Sb51 2.539072 1_555
Co16 Sb31 2.542651 1_455
Co16 Sb36 2.542651 1_554
Co16 Sb11 2.542750 1_555
Co16 Sb16 2.542750 1_454
Co17 Sb57 2.539336 1_565
Co17 Sb52 2.540615 1_555
Co17 Sb32 2.541548 1_555
Co17 Sb37 2.542602 1_555
Co17 Sb12 2.542714 1_555
Co17 Sb17 2.543242 1_555
Co18 Sb33 2.521093 1_555
Co18 Sb13 2.529970 1_655
Co18 Sb53 2.530954 1_545
Co18 Sb18 2.548235 1_555
Co18 Sb58 2.548413 1_555
Co18 Sb38 2.557392 1_655
Co19 Sb39 2.521089 1_555
Co19 Sb19 2.529977 1_455
Co19 Sb59 2.530955 1_565
Co19 Sb14 2.548228 1_555
Co19 Sb54 2.548411 1_555
Co19 Sb34 2.557396 1_455
I0 Sb54 3.363663 1_555
I0 Sb14 3.377988 1_555
I0 Sb4 3.377988 1_555
I0 Sb44 3.383887 1_555
I0 Sb29 3.387611 1_545
I0 Sb34 3.387611 1_455
I0 Sb45 3.388576 1_555
I0 Sb55 3.391480 1_555
I0 Sb35 3.392667 1_555
I0 Sb20 3.392667 1_555
I0 Sb5 3.401016 1_555
I0 Sb15 3.401016 1_555
I1 Sb50 3.376060 1_555
I1 Sb56 3.379409 1_555
I1 Sb46 3.389424 1_665
I1 Sb25 3.389462 1_655
I1 Sb30 3.389462 1_565
I1 Sb40 3.390031 1_555
I1 Sb36 3.390870 1_655
I1 Sb21 3.390870 1_565
I1 Sb0 3.392643 1_655
I1 Sb10 3.392643 1_565
I1 Sb16 3.392804 1_555
I1 Sb6 3.392804 1_555
I2 Sb57 3.376060 1_555
I2 Sb51 3.379441 1_555
I2 Sb41 3.389424 1_445
I2 Sb22 3.389462 1_455
I2 Sb37 3.389462 1_545
I2 Sb47 3.390031 1_555
I2 Sb26 3.390870 1_545
I2 Sb31 3.390870 1_455
I2 Sb7 3.392643 1_455
I2 Sb17 3.392643 1_545
I2 Sb1 3.392804 1_555
I2 Sb11 3.392804 1_555
I3 Sb58 3.363663 1_555
I3 Sb18 3.377988 1_555
I3 Sb8 3.377988 1_555
I3 Sb48 3.383887 1_555
I3 Sb38 3.387611 1_655
I3 Sb23 3.387611 1_565
I3 Sb42 3.388576 1_555
I3 Sb52 3.391480 1_555
I3 Sb32 3.392667 1_555
I3 Sb27 3.392667 1_555
I3 Sb12 3.401016 1_555
I3 Sb2 3.401016 1_555
