# generated using pymatgen
data_Rb2Sn2H3N
_symmetry_space_group_name_H-M   'P 1'
_cell_length_a   9.70636100
_cell_length_b   13.43459300
_cell_length_c   13.55191558
_cell_angle_alpha   73.02899836
_cell_angle_beta   90.00000000
_cell_angle_gamma   90.00000000
_symmetry_Int_Tables_number   1
_chemical_formula_structural   Rb2Sn2H3N
_chemical_formula_sum   'Rb16 Sn16 H24 N8'
_cell_volume   1690.22724150
_cell_formula_units_Z   8
loop_
 _symmetry_equiv_pos_site_id
 _symmetry_equiv_pos_as_xyz
  1  'x, y, z'
loop_
 _atom_site_type_symbol
 _atom_site_label
 _atom_site_symmetry_multiplicity
 _atom_site_fract_x
 _atom_site_fract_y
 _atom_site_fract_z
 _atom_site_occupancy
  Rb  Rb0  1  0.54939100  0.18071300  0.57317300  1
  Rb  Rb1  1  0.04939100  0.31928700  0.42682700  1
  Rb  Rb2  1  0.45060900  0.81928700  0.42682700  1
  Rb  Rb3  1  0.95060900  0.68071300  0.57317300  1
  Rb  Rb4  1  0.22097900  0.92153900  0.86684900  1
  Rb  Rb5  1  0.72097900  0.57846100  0.13315100  1
  Rb  Rb6  1  0.77902100  0.07846100  0.13315100  1
  Rb  Rb7  1  0.27902100  0.42153900  0.86684900  1
  Rb  Rb8  1  0.20215200  0.01189600  0.53608600  1
  Rb  Rb9  1  0.70215200  0.48810400  0.46391400  1
  Rb  Rb10  1  0.79784800  0.98810400  0.46391400  1
  Rb  Rb11  1  0.29784800  0.51189600  0.53608600  1
  Rb  Rb12  1  0.71999200  0.93559300  0.90764900  1
  Rb  Rb13  1  0.21999200  0.56440700  0.09235100  1
  Rb  Rb14  1  0.28000800  0.06440700  0.09235100  1
  Rb  Rb15  1  0.78000800  0.43559300  0.90764900  1
  Sn  Sn0  1  0.21286700  0.21236400  0.71634600  1
  Sn  Sn1  1  0.71286700  0.28763600  0.28365400  1
  Sn  Sn2  1  0.78713300  0.78763600  0.28365400  1
  Sn  Sn3  1  0.28713300  0.71236400  0.71634600  1
  Sn  Sn4  1  0.00298000  0.19024700  0.88364000  1
  Sn  Sn5  1  0.50298000  0.30975300  0.11636000  1
  Sn  Sn6  1  0.99702000  0.80975300  0.11636000  1
  Sn  Sn7  1  0.49702000  0.69024700  0.88364000  1
  Sn  Sn8  1  0.98431200  0.36779400  0.69027600  1
  Sn  Sn9  1  0.48431200  0.13220600  0.30972400  1
  Sn  Sn10  1  0.01568800  0.63220600  0.30972400  1
  Sn  Sn11  1  0.51568800  0.86779400  0.69027600  1
  Sn  Sn12  1  0.92098700  0.15117200  0.68693300  1
  Sn  Sn13  1  0.42098700  0.34882800  0.31306700  1
  Sn  Sn14  1  0.07901300  0.84882800  0.31306700  1
  Sn  Sn15  1  0.57901300  0.65117200  0.68693300  1
  H  H0  1  0.15449500  0.16947700  0.30201600  1
  H  H1  1  0.65449500  0.33052300  0.69798400  1
  H  H2  1  0.84550500  0.83052300  0.69798400  1
  H  H3  1  0.34550500  0.66947700  0.30201600  1
  H  H4  1  0.98327300  0.16936200  0.29396700  1
  H  H5  1  0.48327300  0.33063800  0.70603300  1
  H  H6  1  0.01672700  0.83063800  0.70603300  1
  H  H7  1  0.51672700  0.66936200  0.29396700  1
  H  H8  1  0.66325400  0.17079300  0.87513300  1
  H  H9  1  0.16325400  0.32920700  0.12486700  1
  H  H10  1  0.33674600  0.82920700  0.12486700  1
  H  H11  1  0.83674600  0.67079300  0.87513300  1
  H  H12  1  0.49940800  0.13988300  0.87053000  1
  H  H13  1  0.99940800  0.36011700  0.12947000  1
  H  H14  1  0.50059200  0.86011700  0.12947000  1
  H  H15  1  0.00059200  0.63988300  0.87053000  1
  H  H16  1  0.55366000  0.18825600  0.96122300  1
  H  H17  1  0.05366000  0.31174400  0.03877700  1
  H  H18  1  0.44634000  0.81174400  0.03877700  1
  H  H19  1  0.94634000  0.68825600  0.96122300  1
  H  H20  1  0.07198500  0.05944400  0.31399800  1
  H  H21  1  0.57198500  0.44055600  0.68600200  1
  H  H22  1  0.92801500  0.94055600  0.68600200  1
  H  H23  1  0.42801500  0.55944400  0.31399800  1
  N  N0  1  0.06678500  0.12883900  0.33252800  1
  N  N1  1  0.56678500  0.37116100  0.66747200  1
  N  N2  1  0.93321500  0.87116100  0.66747200  1
  N  N3  1  0.43321500  0.62883900  0.33252800  1
  N  N4  1  0.58044100  0.13738800  0.92000000  1
  N  N5  1  0.08044100  0.36261200  0.08000000  1
  N  N6  1  0.41955900  0.86261200  0.08000000  1
  N  N7  1  0.91955900  0.63738800  0.92000000  1
loop_
_geom_bond_atom_site_label_1
_geom_bond_atom_site_label_2
_geom_bond_distance
_geom_bond_site_symmetry_2
Rb0 Sn13 3.798948 1_555
Rb0 Sn9 3.863745 1_555
Rb0 Sn0 3.885436 1_555
Rb0 Sn12 3.896972 1_555
Rb0 Sn11 4.050176 1_545
Rb0 Sn1 4.084752 1_555
Rb1 Sn12 3.798948 1_455
Rb1 Sn8 3.863745 1_455
Rb1 Sn1 3.885436 1_455
Rb1 Sn13 3.896972 1_555
Rb1 Sn10 4.050176 1_555
Rb1 Sn0 4.084752 1_555
Rb2 Sn15 3.798948 1_555
Rb2 Sn11 3.863745 1_555
Rb2 Sn2 3.885436 1_555
Rb2 Sn14 3.896972 1_555
Rb2 Sn9 4.050176 1_565
Rb2 Sn3 4.084752 1_555
Rb3 Sn14 3.798948 1_655
Rb3 Sn10 3.863745 1_655
Rb3 Sn3 3.885436 1_655
Rb3 Sn15 3.896972 1_555
Rb3 Sn8 4.050176 1_555
Rb3 Sn2 4.084752 1_555
Rb4 Sn0 3.844431 1_565
Rb4 Sn11 3.929213 1_555
Rb4 Sn6 3.930647 1_456
Rb4 Sn3 3.976860 1_555
Rb4 Sn7 4.058737 1_555
Rb4 Sn4 4.247429 1_565
Rb5 Sn1 3.844431 1_555
Rb5 Sn10 3.929213 1_655
Rb5 Sn7 3.930647 1_554
Rb5 Sn2 3.976860 1_555
Rb5 Sn6 4.058737 1_555
Rb5 Sn5 4.247429 1_555
Rb6 Sn2 3.844431 1_545
Rb6 Sn9 3.929213 1_555
Rb6 Sn4 3.930647 1_654
Rb6 Sn1 3.976860 1_555
Rb6 Sn5 4.058737 1_555
Rb6 Sn6 4.247429 1_545
Rb7 Sn3 3.844431 1_555
Rb7 Sn8 3.929213 1_455
Rb7 Sn5 3.930647 1_556
Rb7 Sn0 3.976860 1_555
Rb7 Sn4 4.058737 1_555
Rb7 Sn7 4.247429 1_555
Rb8 Sn11 3.874829 1_545
Rb8 Sn9 4.077879 1_555
Rb8 Sn0 4.131891 1_555
Rb8 Sn3 4.135529 1_545
Rb9 Sn10 3.874829 1_655
Rb9 Sn8 4.077879 1_555
Rb9 Sn1 4.131891 1_555
Rb9 Sn2 4.135529 1_555
Rb10 Sn9 3.874829 1_565
Rb10 Sn11 4.077879 1_555
Rb10 Sn2 4.131891 1_555
Rb10 Sn1 4.135529 1_565
Rb11 Sn8 3.874829 1_455
Rb11 Sn10 4.077879 1_555
Rb11 Sn3 4.131891 1_555
Rb11 Sn0 4.135529 1_555
Rb12 Sn11 3.873807 1_555
Rb12 Sn6 3.911148 1_556
Rb12 Sn7 4.034889 1_555
Rb13 Sn10 3.873807 1_555
Rb13 Sn7 3.911148 1_554
Rb13 Sn6 4.034889 1_455
Rb14 Sn9 3.873807 1_555
Rb14 Sn4 3.911148 1_554
Rb14 Sn5 4.034889 1_555
Rb15 Sn8 3.873807 1_555
Rb15 Sn5 3.911148 1_556
Rb15 Sn4 4.034889 1_655
Sn0 Sn8 2.995987 1_455
Sn0 Sn4 2.997559 1_555
Sn0 Sn12 3.008725 1_455
Sn1 Sn9 2.995987 1_555
Sn1 Sn5 2.997559 1_555
Sn1 Sn13 3.008725 1_555
Sn2 Sn6 2.997559 1_555
Sn3 Sn7 2.997559 1_555
Sn4 Sn8 2.990024 1_455
Sn5 Sn9 2.990024 1_555
Sn10 Sn14 2.987683 1_555
Sn10 Sn6 2.990024 1_455
Sn10 Sn2 2.995987 1_455
Sn11 Sn15 2.987683 1_555
Sn11 Sn7 2.990024 1_555
Sn11 Sn3 2.995987 1_555
Sn12 Sn4 2.971895 1_655
Sn12 Sn8 2.987683 1_555
Sn13 Sn5 2.971895 1_555
Sn13 Sn9 2.987683 1_555
Sn14 Sn6 2.971895 1_455
Sn14 Sn2 3.008725 1_455
Sn15 Sn7 2.971895 1_555
Sn15 Sn3 3.008725 1_555
H0 N0 1.030556 1_555
H0 Rb1 3.152729 1_555
H1 N1 1.030556 1_555
H1 Rb0 3.152729 1_555
H2 N2 1.030556 1_555
H2 Rb3 3.152729 1_555
H3 N3 1.030556 1_555
H3 Rb2 3.152729 1_555
H4 N0 1.029784 1_655
H4 Rb1 3.134917 1_655
H5 N1 1.029784 1_555
H5 Rb0 3.134917 1_555
H6 N2 1.029784 1_455
H6 Rb3 3.134917 1_455
H7 N3 1.029784 1_555
H7 Rb2 3.134917 1_555
H8 N4 1.028556 1_555
H8 Rb12 3.109512 1_545
H9 N5 1.028556 1_555
H9 Rb13 3.109512 1_555
H10 N6 1.028556 1_555
H10 Rb14 3.109512 1_565
H11 N7 1.028556 1_555
H11 Rb15 3.109512 1_555
H12 N4 1.027666 1_555
H13 N5 1.027666 1_655
H14 N6 1.027666 1_555
H15 N7 1.027666 1_455
H16 N4 1.034194 1_555
H17 N5 1.034194 1_555
H18 N6 1.034194 1_555
H19 N7 1.034194 1_555
H20 N0 1.035108 1_555
H21 N1 1.035108 1_555
H22 N2 1.035108 1_555
H23 N3 1.035108 1_555
N0 Rb8 3.045405 1_555
N0 Rb1 3.180688 1_555
N1 Rb9 3.045405 1_555
N1 Rb0 3.180688 1_555
N2 Rb10 3.045405 1_555
N2 Rb3 3.180688 1_555
N3 Rb11 3.045405 1_555
N3 Rb2 3.180688 1_555
N4 Rb12 3.078535 1_545
N5 Rb13 3.078535 1_555
N6 Rb14 3.078535 1_565
N7 Rb15 3.078535 1_555
