# generated using pymatgen
data_YMnGaO5
_symmetry_space_group_name_H-M   'P 1'
_cell_length_a   5.66989419
_cell_length_b   7.27204213
_cell_length_c   8.46281324
_cell_angle_alpha   90.00000000
_cell_angle_beta   90.00000000
_cell_angle_gamma   90.00000000
_symmetry_Int_Tables_number   1
_chemical_formula_structural   YMnGaO5
_chemical_formula_sum   'Y4 Mn4 Ga4 O20'
_cell_volume   348.93625641
_cell_formula_units_Z   4
loop_
 _symmetry_equiv_pos_site_id
 _symmetry_equiv_pos_as_xyz
  1  'x, y, z'
loop_
 _atom_site_type_symbol
 _atom_site_label
 _atom_site_symmetry_multiplicity
 _atom_site_fract_x
 _atom_site_fract_y
 _atom_site_fract_z
 _atom_site_occupancy
  Y  Y0  1  0.50000000  0.36609407  0.33096375  1
  Y  Y1  1  0.50000000  0.63390593  0.66903625  1
  Y  Y2  1  0.50000000  0.13390593  0.83096375  1
  Y  Y3  1  0.50000000  0.86609407  0.16903625  1
  Mn  Mn0  1  0.24847692  0.00000000  0.50000000  1
  Mn  Mn1  1  0.75152308  0.00000000  0.50000000  1
  Mn  Mn2  1  0.75152308  0.50000000  0.00000000  1
  Mn  Mn3  1  0.24847692  0.50000000  -0.00000000  1
  Ga  Ga0  1  -0.00000000  0.10824282  0.14633193  1
  Ga  Ga1  1  -0.00000000  0.89175718  0.85366807  1
  Ga  Ga2  1  -0.00000000  0.39175718  0.64633193  1
  Ga  Ga3  1  -0.00000000  0.60824282  0.35366807  1
  O  O0  1  0.50000000  0.33974875  0.05716375  1
  O  O1  1  0.50000000  0.66025125  0.94283625  1
  O  O2  1  0.50000000  0.16025125  0.55716375  1
  O  O3  1  0.50000000  0.83974875  0.44283625  1
  O  O4  1  0.22867210  0.00000000  0.00000000  1
  O  O5  1  0.77132790  0.00000000  -0.00000000  1
  O  O6  1  0.77132790  0.50000000  0.50000000  1
  O  O7  1  0.22867210  0.50000000  0.50000000  1
  O  O8  1  0.25648286  0.10666183  0.29544166  1
  O  O9  1  0.74351714  0.89333817  0.70455834  1
  O  O10  1  0.25648286  0.89333817  0.70455834  1
  O  O11  1  0.74351714  0.39333817  0.79544166  1
  O  O12  1  0.74351714  0.10666183  0.29544166  1
  O  O13  1  0.25648286  0.60666183  0.20455834  1
  O  O14  1  0.74351714  0.60666183  0.20455834  1
  O  O15  1  0.25648286  0.39333817  0.79544166  1
  O  O16  1  -0.00000000  0.35011083  0.07035017  1
  O  O17  1  -0.00000000  0.64988917  0.92964983  1
  O  O18  1  -0.00000000  0.14988917  0.57035017  1
  O  O19  1  -0.00000000  0.85011083  0.42964983  1
loop_
_geom_bond_atom_site_label_1
_geom_bond_atom_site_label_2
_geom_bond_distance
_geom_bond_site_symmetry_2
Mn0 O19 1.878132 1_545
Mn0 O18 1.878132 1_555
Mn0 O10 1.897508 1_545
Mn0 O8 1.897508 1_555
Mn0 O3 1.904171 1_545
Mn0 O2 1.904171 1_555
Mn1 O19 1.878132 1_645
Mn1 O18 1.878132 1_655
Mn1 O9 1.897508 1_545
Mn1 O12 1.897508 1_555
Mn1 O3 1.904171 1_545
Mn1 O2 1.904171 1_555
Mn2 O17 1.878132 1_654
Mn2 O16 1.878132 1_655
Mn2 O11 1.897508 1_554
Mn2 O14 1.897508 1_555
Mn2 O1 1.904171 1_554
Mn2 O0 1.904171 1_555
Mn3 O17 1.878132 1_554
Mn3 O16 1.878132 1_555
Mn3 O15 1.897508 1_554
Mn3 O13 1.897508 1_555
Mn3 O1 1.904171 1_554
Mn3 O0 1.904171 1_555
Ga0 O16 1.872729 1_555
Ga0 O12 1.925430 1_455
Ga0 O8 1.925430 1_555
Ga0 O4 1.958116 1_555
Ga0 O5 1.958116 1_455
Ga1 O17 1.872729 1_555
Ga1 O9 1.925430 1_455
Ga1 O10 1.925430 1_555
Ga1 O4 1.958116 1_566
Ga1 O5 1.958116 1_466
Ga2 O18 1.872729 1_555
Ga2 O11 1.925430 1_455
Ga2 O15 1.925430 1_555
Ga2 O7 1.958116 1_555
Ga2 O6 1.958116 1_455
Ga3 O19 1.872729 1_555
Ga3 O14 1.925430 1_455
Ga3 O13 1.925430 1_555
Ga3 O7 1.958116 1_555
Ga3 O6 1.958116 1_455
O0 Y0 2.325025 1_555
O0 Y2 2.430062 1_554
O1 Y1 2.325025 1_555
O1 Y3 2.430062 1_556
O2 Y2 2.325025 1_555
O2 Y0 2.430062 1_555
O3 Y3 2.325025 1_555
O3 Y1 2.430062 1_555
O4 Y2 2.315447 1_554
O4 Y3 2.315447 1_545
O5 Y2 2.315447 1_554
O5 Y3 2.315447 1_545
O6 Y0 2.315447 1_555
O6 Y1 2.315447 1_555
O7 Y0 2.315447 1_555
O7 Y1 2.315447 1_555
O8 Y0 2.357120 1_555
O8 Y3 2.472084 1_545
O9 Y1 2.357120 1_555
O9 Y2 2.472084 1_565
O10 Y1 2.357120 1_555
O10 Y2 2.472084 1_565
O11 Y2 2.357120 1_555
O11 Y1 2.472084 1_555
O12 Y0 2.357120 1_555
O12 Y3 2.472084 1_545
O13 Y3 2.357120 1_555
O13 Y0 2.472084 1_555
O14 Y3 2.357120 1_555
O14 Y0 2.472084 1_555
O15 Y2 2.357120 1_555
O15 Y1 2.472084 1_555
