# generated using pymatgen
data_CaMg2
_symmetry_space_group_name_H-M   'P 1'
_cell_length_a   13.51797232
_cell_length_b   13.51797232
_cell_length_c   15.85787399
_cell_angle_alpha   78.22545161
_cell_angle_beta   78.22545161
_cell_angle_gamma   29.56944783
_symmetry_Int_Tables_number   1
_chemical_formula_structural   CaMg2
_chemical_formula_sum   'Ca16 Mg32'
_cell_volume   1397.78989507
_cell_formula_units_Z   16
loop_
 _symmetry_equiv_pos_site_id
 _symmetry_equiv_pos_as_xyz
  1  'x, y, z'
loop_
 _atom_site_type_symbol
 _atom_site_label
 _atom_site_symmetry_multiplicity
 _atom_site_fract_x
 _atom_site_fract_y
 _atom_site_fract_z
 _atom_site_occupancy
  Ca  Ca0_0  1  0.30955150  0.30955150  0.13159750  1
  Ca  Ca0_1  1  0.30955150  0.30955150  0.63159750  1
  Ca  Ca0_2  1  0.30955150  0.80955150  0.13159750  1
  Ca  Ca0_3  1  0.30955150  0.80955150  0.63159750  1
  Ca  Ca0_4  1  0.80955150  0.30955150  0.13159750  1
  Ca  Ca0_5  1  0.80955150  0.30955150  0.63159750  1
  Ca  Ca0_6  1  0.80955150  0.80955150  0.13159750  1
  Ca  Ca0_7  1  0.80955150  0.80955150  0.63159750  1
  Ca  Ca1_0  1  0.46923650  0.46923650  0.31070000  1
  Ca  Ca1_1  1  0.46923650  0.46923650  0.81070000  1
  Ca  Ca1_2  1  0.46923650  0.96923650  0.31070000  1
  Ca  Ca1_3  1  0.46923650  0.96923650  0.81070000  1
  Ca  Ca1_4  1  0.96923650  0.46923650  0.31070000  1
  Ca  Ca1_5  1  0.96923650  0.46923650  0.81070000  1
  Ca  Ca1_6  1  0.96923650  0.96923650  0.31070000  1
  Ca  Ca1_7  1  0.96923650  0.96923650  0.81070000  1
  Mg  Mg0_0  1  0.49712250  0.49712250  0.00111450  1
  Mg  Mg0_1  1  0.49712250  0.49712250  0.50111450  1
  Mg  Mg0_2  1  0.49712250  0.99712250  0.00111450  1
  Mg  Mg0_3  1  0.49712250  0.99712250  0.50111450  1
  Mg  Mg0_4  1  0.99712250  0.49712250  0.00111450  1
  Mg  Mg0_5  1  0.99712250  0.49712250  0.50111450  1
  Mg  Mg0_6  1  0.99712250  0.99712250  0.00111450  1
  Mg  Mg0_7  1  0.99712250  0.99712250  0.50111450  1
  Mg  Mg1_0  1  0.16792100  0.16792100  0.16060950  1
  Mg  Mg1_1  1  0.16792100  0.16792100  0.66060950  1
  Mg  Mg1_2  1  0.16792100  0.66792100  0.16060950  1
  Mg  Mg1_3  1  0.16792100  0.66792100  0.66060950  1
  Mg  Mg1_4  1  0.66792100  0.16792100  0.16060950  1
  Mg  Mg1_5  1  0.66792100  0.16792100  0.66060950  1
  Mg  Mg1_6  1  0.66792100  0.66792100  0.16060950  1
  Mg  Mg1_7  1  0.66792100  0.66792100  0.66060950  1
  Mg  Mg2_0  1  0.33434150  0.33434150  0.33919600  1
  Mg  Mg2_1  1  0.33434150  0.33434150  0.83919600  1
  Mg  Mg2_2  1  0.33434150  0.83434150  0.33919600  1
  Mg  Mg2_3  1  0.33434150  0.83434150  0.83919600  1
  Mg  Mg2_4  1  0.83434150  0.33434150  0.33919600  1
  Mg  Mg2_5  1  0.83434150  0.33434150  0.83919600  1
  Mg  Mg2_6  1  0.83434150  0.83434150  0.33919600  1
  Mg  Mg2_7  1  0.83434150  0.83434150  0.83919600  1
  Mg  Mg3_0  1  0.13849400  0.13849400  0.47344900  1
  Mg  Mg3_1  1  0.13849400  0.13849400  0.97344900  1
  Mg  Mg3_2  1  0.13849400  0.63849400  0.47344900  1
  Mg  Mg3_3  1  0.13849400  0.63849400  0.97344900  1
  Mg  Mg3_4  1  0.63849400  0.13849400  0.47344900  1
  Mg  Mg3_5  1  0.63849400  0.13849400  0.97344900  1
  Mg  Mg3_6  1  0.63849400  0.63849400  0.47344900  1
  Mg  Mg3_7  1  0.63849400  0.63849400  0.97344900  1
loop_
_geom_bond_atom_site_label_1
_geom_bond_atom_site_label_2
_geom_bond_distance
_geom_bond_site_symmetry_2
Ca0_0 Mg3_5 3.367279 1_554
Ca0_0 Mg3_3 3.367279 1_554
Ca0_0 Mg0_2 3.368245 1_545
Ca0_0 Mg0_4 3.368245 1_455
Ca0_0 Mg1_2 3.429564 1_555
Ca0_0 Mg1_4 3.429564 1_555
Ca0_0 Ca0_6 3.449624 1_455
Ca0_0 Ca0_6 3.449624 1_545
Ca0_0 Mg2_0 3.486856 1_555
Ca0_0 Mg1_0 3.633180 1_555
Ca0_0 Ca1_4 3.712839 1_455
Ca0_0 Ca1_2 3.712839 1_545
Ca0_1 Mg3_4 3.367279 1_555
Ca0_1 Mg3_2 3.367279 1_555
Ca0_1 Mg0_3 3.368245 1_545
Ca0_1 Mg0_5 3.368245 1_455
Ca0_1 Mg1_3 3.429564 1_555
Ca0_1 Mg1_5 3.429564 1_555
Ca0_1 Ca0_7 3.449624 1_455
Ca0_1 Ca0_7 3.449624 1_545
Ca0_1 Mg2_1 3.486856 1_555
Ca0_1 Mg1_1 3.633180 1_555
Ca0_1 Ca1_5 3.712839 1_455
Ca0_1 Ca1_3 3.712839 1_545
Ca0_2 Mg3_1 3.367279 1_564
Ca0_2 Mg3_7 3.367279 1_554
Ca0_2 Mg0_6 3.368245 1_455
Ca0_2 Mg0_0 3.368245 1_555
Ca0_2 Mg1_6 3.429564 1_555
Ca0_2 Mg1_0 3.429564 1_565
Ca0_2 Ca0_4 3.449624 1_555
Ca0_2 Ca0_4 3.449624 1_465
Ca0_2 Mg2_2 3.486856 1_555
Ca0_2 Mg1_2 3.633180 1_555
Ca0_2 Ca1_6 3.712839 1_455
Ca0_2 Ca1_0 3.712839 1_555
Ca0_3 Mg3_6 3.367279 1_555
Ca0_3 Mg3_0 3.367279 1_565
Ca0_3 Mg0_1 3.368245 1_555
Ca0_3 Mg0_7 3.368245 1_455
Ca0_3 Mg1_7 3.429564 1_555
Ca0_3 Mg1_1 3.429564 1_565
Ca0_3 Ca0_5 3.449624 1_555
Ca0_3 Ca0_5 3.449624 1_465
Ca0_3 Mg2_3 3.486856 1_555
Ca0_3 Mg1_3 3.633180 1_555
Ca0_3 Ca1_1 3.712839 1_555
Ca0_3 Ca1_7 3.712839 1_455
Ca0_4 Mg3_1 3.367279 1_654
Ca0_4 Mg3_7 3.367279 1_554
Ca0_4 Mg0_6 3.368245 1_545
Ca0_4 Mg0_0 3.368245 1_555
Ca0_4 Mg1_0 3.429564 1_655
Ca0_4 Mg1_6 3.429564 1_555
Ca0_4 Mg2_4 3.486856 1_555
Ca0_4 Mg1_4 3.633180 1_555
Ca0_4 Ca1_0 3.712839 1_555
Ca0_4 Ca1_6 3.712839 1_545
Ca0_5 Mg3_6 3.367279 1_555
Ca0_5 Mg3_0 3.367279 1_655
Ca0_5 Mg0_7 3.368245 1_545
Ca0_5 Mg0_1 3.368245 1_555
Ca0_5 Mg1_7 3.429564 1_555
Ca0_5 Mg1_1 3.429564 1_655
Ca0_5 Mg2_5 3.486856 1_555
Ca0_5 Mg1_5 3.633180 1_555
Ca0_5 Ca1_1 3.712839 1_555
Ca0_5 Ca1_7 3.712839 1_545
Ca0_6 Mg3_3 3.367279 1_654
Ca0_6 Mg3_5 3.367279 1_564
Ca0_6 Mg0_2 3.368245 1_555
Ca0_6 Mg0_4 3.368245 1_555
Ca0_6 Mg1_4 3.429564 1_565
Ca0_6 Mg1_2 3.429564 1_655
Ca0_6 Mg2_6 3.486856 1_555
Ca0_6 Mg1_6 3.633180 1_555
Ca0_6 Ca1_2 3.712839 1_555
Ca0_6 Ca1_4 3.712839 1_555
Ca0_7 Mg3_2 3.367279 1_655
Ca0_7 Mg3_4 3.367279 1_565
Ca0_7 Mg0_5 3.368245 1_555
Ca0_7 Mg0_3 3.368245 1_555
Ca0_7 Mg1_3 3.429564 1_655
Ca0_7 Mg1_5 3.429564 1_565
Ca0_7 Mg2_7 3.486856 1_555
Ca0_7 Mg1_7 3.633180 1_555
Ca0_7 Ca1_5 3.712839 1_555
Ca0_7 Ca1_3 3.712839 1_555
Ca1_0 Mg0_1 3.252428 1_555
Ca1_0 Mg1_4 3.433223 1_555
Ca1_0 Mg1_2 3.433223 1_555
Ca1_0 Mg3_2 3.433864 1_555
Ca1_0 Mg3_4 3.433864 1_555
Ca1_0 Ca1_6 3.449624 1_455
Ca1_0 Ca1_6 3.449624 1_545
Ca1_0 Mg2_0 3.459213 1_555
Ca1_0 Mg2_4 3.578662 1_555
Ca1_0 Mg2_2 3.578662 1_555
Ca1_1 Mg0_0 3.252428 1_556
Ca1_1 Mg1_5 3.433223 1_555
Ca1_1 Mg1_3 3.433223 1_555
Ca1_1 Mg3_5 3.433864 1_555
Ca1_1 Mg3_3 3.433864 1_555
Ca1_1 Ca1_7 3.449624 1_455
Ca1_1 Ca1_7 3.449624 1_545
Ca1_1 Mg2_1 3.459213 1_555
Ca1_1 Mg2_5 3.578662 1_555
Ca1_1 Mg2_3 3.578662 1_555
Ca1_2 Mg0_3 3.252428 1_555
Ca1_2 Mg1_6 3.433223 1_555
Ca1_2 Mg1_0 3.433223 1_565
Ca1_2 Mg3_0 3.433864 1_565
Ca1_2 Mg3_6 3.433864 1_555
Ca1_2 Ca1_4 3.449624 1_555
Ca1_2 Ca1_4 3.449624 1_465
Ca1_2 Mg2_2 3.459213 1_555
Ca1_2 Mg2_0 3.578662 1_565
Ca1_2 Mg2_6 3.578662 1_555
Ca1_3 Mg0_2 3.252428 1_556
Ca1_3 Mg1_1 3.433223 1_565
Ca1_3 Mg1_7 3.433223 1_555
Ca1_3 Mg3_7 3.433864 1_555
Ca1_3 Mg3_1 3.433864 1_565
Ca1_3 Ca1_5 3.449624 1_555
Ca1_3 Ca1_5 3.449624 1_465
Ca1_3 Mg2_3 3.459213 1_555
Ca1_3 Mg2_1 3.578662 1_565
Ca1_3 Mg2_7 3.578662 1_555
Ca1_4 Mg0_5 3.252428 1_555
Ca1_4 Mg1_6 3.433223 1_555
Ca1_4 Mg1_0 3.433223 1_655
Ca1_4 Mg3_0 3.433864 1_655
Ca1_4 Mg3_6 3.433864 1_555
Ca1_4 Mg2_4 3.459213 1_555
Ca1_4 Mg2_0 3.578662 1_655
Ca1_4 Mg2_6 3.578662 1_555
Ca1_5 Mg0_4 3.252428 1_556
Ca1_5 Mg1_1 3.433223 1_655
Ca1_5 Mg1_7 3.433223 1_555
Ca1_5 Mg3_7 3.433864 1_555
Ca1_5 Mg3_1 3.433864 1_655
Ca1_5 Mg2_5 3.459213 1_555
Ca1_5 Mg2_1 3.578662 1_655
Ca1_5 Mg2_7 3.578662 1_555
Ca1_6 Mg0_7 3.252428 1_555
Ca1_6 Mg1_2 3.433223 1_655
Ca1_6 Mg1_4 3.433223 1_565
Ca1_6 Mg3_2 3.433864 1_655
Ca1_6 Mg3_4 3.433864 1_565
Ca1_6 Mg2_6 3.459213 1_555
Ca1_6 Mg2_2 3.578662 1_655
Ca1_6 Mg2_4 3.578662 1_565
Ca1_7 Mg0_6 3.252428 1_556
Ca1_7 Mg1_5 3.433223 1_565
Ca1_7 Mg1_3 3.433223 1_655
Ca1_7 Mg3_5 3.433864 1_565
Ca1_7 Mg3_3 3.433864 1_655
Ca1_7 Mg2_7 3.459213 1_555
Ca1_7 Mg2_3 3.578662 1_655
Ca1_7 Mg2_5 3.578662 1_565
Mg0_0 Mg1_2 3.383531 1_555
Mg0_0 Mg1_4 3.383531 1_555
Mg0_0 Mg3_3 3.428825 1_554
Mg0_0 Mg3_5 3.428825 1_554
Mg0_0 Mg0_6 3.449624 1_455
Mg0_0 Mg0_6 3.449624 1_545
Mg0_0 Mg2_3 3.506451 1_554
Mg0_0 Mg2_5 3.506451 1_554
Mg0_1 Mg1_5 3.383531 1_555
Mg0_1 Mg1_3 3.383531 1_555
Mg0_1 Mg3_2 3.428825 1_555
Mg0_1 Mg3_4 3.428825 1_555
Mg0_1 Mg0_7 3.449624 1_545
Mg0_1 Mg0_7 3.449624 1_455
Mg0_1 Mg2_4 3.506451 1_555
Mg0_1 Mg2_2 3.506451 1_555
Mg0_2 Mg1_0 3.383531 1_565
Mg0_2 Mg1_6 3.383531 1_555
Mg0_2 Mg3_7 3.428825 1_554
Mg0_2 Mg3_1 3.428825 1_564
Mg0_2 Mg0_4 3.449624 1_465
Mg0_2 Mg0_4 3.449624 1_555
Mg0_2 Mg2_1 3.506451 1_564
Mg0_2 Mg2_7 3.506451 1_554
Mg0_3 Mg1_1 3.383531 1_565
Mg0_3 Mg1_7 3.383531 1_555
Mg0_3 Mg3_0 3.428825 1_565
Mg0_3 Mg3_6 3.428825 1_555
Mg0_3 Mg0_5 3.449624 1_555
Mg0_3 Mg0_5 3.449624 1_465
Mg0_3 Mg2_0 3.506451 1_565
Mg0_3 Mg2_6 3.506451 1_555
Mg0_4 Mg1_0 3.383531 1_655
Mg0_4 Mg1_6 3.383531 1_555
Mg0_4 Mg3_7 3.428825 1_554
Mg0_4 Mg3_1 3.428825 1_654
Mg0_4 Mg2_1 3.506451 1_654
Mg0_4 Mg2_7 3.506451 1_554
Mg0_5 Mg1_1 3.383531 1_655
Mg0_5 Mg1_7 3.383531 1_555
Mg0_5 Mg3_0 3.428825 1_655
Mg0_5 Mg3_6 3.428825 1_555
Mg0_5 Mg2_0 3.506451 1_655
Mg0_5 Mg2_6 3.506451 1_555
Mg0_6 Mg1_2 3.383531 1_655
Mg0_6 Mg1_4 3.383531 1_565
Mg0_6 Mg3_5 3.428825 1_564
Mg0_6 Mg3_3 3.428825 1_654
Mg0_6 Mg2_3 3.506451 1_654
Mg0_6 Mg2_5 3.506451 1_564
Mg0_7 Mg1_3 3.383531 1_655
Mg0_7 Mg1_5 3.383531 1_565
Mg0_7 Mg3_2 3.428825 1_655
Mg0_7 Mg3_4 3.428825 1_565
Mg0_7 Mg2_4 3.506451 1_565
Mg0_7 Mg2_2 3.506451 1_655
Mg1_0 Mg3_1 3.219357 1_554
Mg1_0 Mg1_6 3.449624 1_455
Mg1_0 Mg1_6 3.449624 1_545
Mg1_1 Mg3_0 3.219357 1_555
Mg1_1 Mg1_7 3.449624 1_545
Mg1_1 Mg1_7 3.449624 1_455
Mg1_2 Mg3_3 3.219357 1_554
Mg1_2 Mg1_4 3.449624 1_465
Mg1_2 Mg1_4 3.449624 1_555
Mg1_3 Mg3_2 3.219357 1_555
Mg1_3 Mg1_5 3.449624 1_555
Mg1_3 Mg1_5 3.449624 1_465
Mg1_4 Mg3_5 3.219357 1_554
Mg1_5 Mg3_4 3.219357 1_555
Mg1_6 Mg3_7 3.219357 1_554
Mg1_7 Mg3_6 3.219357 1_555
Mg2_0 Mg3_2 3.283819 1_555
Mg2_0 Mg3_4 3.283819 1_555
Mg2_0 Mg2_6 3.449624 1_545
Mg2_0 Mg2_6 3.449624 1_455
Mg2_1 Mg3_5 3.283819 1_555
Mg2_1 Mg3_3 3.283819 1_555
Mg2_1 Mg2_7 3.449624 1_455
Mg2_1 Mg2_7 3.449624 1_545
Mg2_2 Mg3_6 3.283819 1_555
Mg2_2 Mg3_0 3.283819 1_565
Mg2_2 Mg2_4 3.449624 1_465
Mg2_2 Mg2_4 3.449624 1_555
Mg2_3 Mg3_1 3.283819 1_565
Mg2_3 Mg3_7 3.283819 1_555
Mg2_3 Mg2_5 3.449624 1_555
Mg2_3 Mg2_5 3.449624 1_465
Mg2_4 Mg3_6 3.283819 1_555
Mg2_4 Mg3_0 3.283819 1_655
Mg2_5 Mg3_1 3.283819 1_655
Mg2_5 Mg3_7 3.283819 1_555
Mg2_6 Mg3_2 3.283819 1_655
Mg2_6 Mg3_4 3.283819 1_565
Mg2_7 Mg3_5 3.283819 1_565
Mg2_7 Mg3_3 3.283819 1_655
Mg3_0 Mg3_6 3.449624 1_455
Mg3_0 Mg3_6 3.449624 1_545
Mg3_1 Mg3_7 3.449624 1_545
Mg3_1 Mg3_7 3.449624 1_455
Mg3_2 Mg3_4 3.449624 1_555
Mg3_2 Mg3_4 3.449624 1_465
Mg3_3 Mg3_5 3.449624 1_465
Mg3_3 Mg3_5 3.449624 1_555
