# generated using pymatgen
data_VRe2W
_symmetry_space_group_name_H-M   'P 1'
_cell_length_a   10.33422941
_cell_length_b   10.33422941
_cell_length_c   10.33422941
_cell_angle_alpha   125.74409740
_cell_angle_beta   118.77738683
_cell_angle_gamma   86.24019823
_symmetry_Int_Tables_number   1
_chemical_formula_structural   VRe2W
_chemical_formula_sum   'V1 Re2 W1'
_cell_volume   748.19367733
_cell_formula_units_Z   1
loop_
 _symmetry_equiv_pos_site_id
 _symmetry_equiv_pos_as_xyz
  1  'x, y, z'
loop_
 _atom_site_type_symbol
 _atom_site_label
 _atom_site_symmetry_multiplicity
 _atom_site_fract_x
 _atom_site_fract_y
 _atom_site_fract_z
 _atom_site_occupancy
  V  V0  1  0.00000000  0.00000000  0.00000000  1
  Re  Re0  1  0.00000000  0.25210400  0.25210400  1
  Re  Re1  1  0.00000000  0.74789600  0.74789600  1
  W  W0  1  0.00000000  0.50000000  0.50000000  1
loop_
_geom_bond_atom_site_label_1
_geom_bond_atom_site_label_2
_geom_bond_distance
_geom_bond_site_symmetry_2
Re0 W0 2.336268 1_555
Re0 V0 2.375925 1_555
Re1 W0 2.336268 1_555
Re1 V0 2.375925 1_566
