# generated using pymatgen
data_SnO2
_symmetry_space_group_name_H-M   'P 1'
_cell_length_a   6.39715262
_cell_length_b   6.39715262
_cell_length_c   6.39715262
_cell_angle_alpha   60.00000000
_cell_angle_beta   60.00000000
_cell_angle_gamma   60.00000000
_symmetry_Int_Tables_number   1
_chemical_formula_structural   SnO2
_chemical_formula_sum   'Sn4 O8'
_cell_volume   185.11650356
_cell_formula_units_Z   4
loop_
 _symmetry_equiv_pos_site_id
 _symmetry_equiv_pos_as_xyz
  1  'x, y, z'
loop_
 _atom_site_type_symbol
 _atom_site_label
 _atom_site_symmetry_multiplicity
 _atom_site_fract_x
 _atom_site_fract_y
 _atom_site_fract_z
 _atom_site_occupancy
  Sn  Sn0  1  0.62500000  0.62500000  0.12500000  1
  Sn  Sn1  1  0.12500000  0.62500000  0.62500000  1
  Sn  Sn2  1  0.62500000  0.12500000  0.62500000  1
  Sn  Sn3  1  0.62500000  0.62500000  0.62500000  1
  O  O0  1  0.39075600  0.39075600  0.39075600  1
  O  O1  1  0.39075600  0.82773200  0.39075600  1
  O  O2  1  0.39075600  0.39075600  0.82773200  1
  O  O3  1  0.82773200  0.39075600  0.39075600  1
  O  O4  1  0.42226800  0.85924400  0.85924400  1
  O  O5  1  0.85924400  0.85924400  0.42226800  1
  O  O6  1  0.85924400  0.42226800  0.85924400  1
  O  O7  1  0.85924400  0.85924400  0.85924400  1
loop_
_geom_bond_atom_site_label_1
_geom_bond_atom_site_label_2
_geom_bond_distance
_geom_bond_site_symmetry_2
O0 Sn2 2.128758 1_555
O0 Sn1 2.128758 1_555
O0 Sn0 2.128758 1_555
O1 Sn3 2.128758 1_555
O1 Sn1 2.128758 1_555
O1 Sn0 2.128758 1_555
O2 Sn2 2.128758 1_555
O2 Sn3 2.128758 1_555
O2 Sn1 2.128758 1_555
O3 Sn2 2.128758 1_555
O3 Sn3 2.128758 1_555
O3 Sn0 2.128758 1_555
O4 Sn2 2.128758 1_565
O4 Sn0 2.128758 1_556
O4 Sn3 2.128758 1_555
O5 Sn2 2.128758 1_565
O5 Sn1 2.128758 1_655
O5 Sn3 2.128758 1_555
O6 Sn1 2.128758 1_655
O6 Sn0 2.128758 1_556
O6 Sn3 2.128758 1_555
O7 Sn1 2.128758 1_655
O7 Sn0 2.128758 1_556
O7 Sn2 2.128758 1_565
