# generated using pymatgen
data_Sr3BiN
_symmetry_space_group_name_H-M   'P 1'
_cell_length_a   6.23000000
_cell_length_b   6.23000000
_cell_length_c   6.23000000
_cell_angle_alpha   90.00000000
_cell_angle_beta   90.00000000
_cell_angle_gamma   90.00000000
_symmetry_Int_Tables_number   1
_chemical_formula_structural   Sr3BiN
_chemical_formula_sum   'Sr3 Bi1 N1'
_cell_volume   241.80436700
_cell_formula_units_Z   1
loop_
 _symmetry_equiv_pos_site_id
 _symmetry_equiv_pos_as_xyz
  1  'x, y, z'
loop_
 _atom_site_type_symbol
 _atom_site_label
 _atom_site_symmetry_multiplicity
 _atom_site_fract_x
 _atom_site_fract_y
 _atom_site_fract_z
 _atom_site_occupancy
  Sr  Sr0  1  0.00000000  0.50000000  0.50000000  1
  Sr  Sr1  1  0.50000000  0.00000000  0.50000000  1
  Sr  Sr2  1  0.50000000  0.50000000  0.00000000  1
  Bi  Bi0  1  0.50000000  0.50000000  0.50000000  1
  N  N0  1  0.00000000  0.00000000  0.00000000  1
loop_
_geom_bond_atom_site_label_1
_geom_bond_atom_site_label_2
_geom_bond_distance
_geom_bond_site_symmetry_2
Bi0 Sr1 3.115000 1_565
Bi0 Sr0 3.115000 1_655
Bi0 Sr1 3.115000 1_555
Bi0 Sr2 3.115000 1_556
Bi0 Sr2 3.115000 1_555
Bi0 Sr0 3.115000 1_555
