# generated using pymatgen
data_Lu2Ga8Fe
_symmetry_space_group_name_H-M   'P 1'
_cell_length_a   4.24676700
_cell_length_b   4.24676700
_cell_length_c   10.95866200
_cell_angle_alpha   90.00000000
_cell_angle_beta   90.00000000
_cell_angle_gamma   90.00000000
_symmetry_Int_Tables_number   1
_chemical_formula_structural   Lu2Ga8Fe
_chemical_formula_sum   'Lu2 Ga8 Fe1'
_cell_volume   197.63979741
_cell_formula_units_Z   1
loop_
 _symmetry_equiv_pos_site_id
 _symmetry_equiv_pos_as_xyz
  1  'x, y, z'
loop_
 _atom_site_type_symbol
 _atom_site_label
 _atom_site_symmetry_multiplicity
 _atom_site_fract_x
 _atom_site_fract_y
 _atom_site_fract_z
 _atom_site_occupancy
  Lu  Lu0  1  0.00000000  0.00000000  0.69646200  1
  Lu  Lu1  1  0.00000000  0.00000000  0.30353800  1
  Ga  Ga0  1  0.50000000  0.00000000  0.88375600  1
  Ga  Ga1  1  0.00000000  0.50000000  0.88375600  1
  Ga  Ga2  1  0.50000000  0.00000000  0.11624400  1
  Ga  Ga3  1  0.00000000  0.50000000  0.11624400  1
  Ga  Ga4  1  0.50000000  0.00000000  0.50000000  1
  Ga  Ga5  1  0.00000000  0.50000000  0.50000000  1
  Ga  Ga6  1  0.50000000  0.50000000  0.69599900  1
  Ga  Ga7  1  0.50000000  0.50000000  0.30400100  1
  Fe  Fe0  1  0.00000000  0.00000000  0.00000000  1
loop_
_geom_bond_atom_site_label_1
_geom_bond_atom_site_label_2
_geom_bond_distance
_geom_bond_site_symmetry_2
Ga0 Ga2 2.547757 1_556
Ga0 Lu0 2.953215 1_555
Ga0 Lu0 2.953215 1_655
Ga0 Ga6 2.956744 1_555
Ga0 Ga6 2.956744 1_545
Ga0 Ga1 3.002918 1_555
Ga0 Ga1 3.002918 1_545
Ga0 Ga1 3.002918 1_645
Ga0 Ga1 3.002918 1_655
Ga1 Ga3 2.547757 1_556
Ga1 Lu0 2.953215 1_555
Ga1 Lu0 2.953215 1_565
Ga1 Ga6 2.956744 1_555
Ga1 Ga6 2.956744 1_455
Ga2 Lu1 2.953215 1_555
Ga2 Lu1 2.953215 1_655
Ga2 Ga7 2.956744 1_545
Ga2 Ga7 2.956744 1_555
Ga2 Ga3 3.002918 1_645
Ga2 Ga3 3.002918 1_655
Ga2 Ga3 3.002918 1_545
Ga2 Ga3 3.002918 1_555
Ga3 Lu1 2.953215 1_565
Ga3 Lu1 2.953215 1_555
Ga3 Ga7 2.956744 1_555
Ga3 Ga7 2.956744 1_455
Ga4 Ga5 3.002918 1_555
Ga4 Ga5 3.002918 1_645
Ga4 Ga5 3.002918 1_655
Ga4 Ga5 3.002918 1_545
Ga4 Ga6 3.020294 1_555
Ga4 Ga6 3.020294 1_545
Ga4 Ga7 3.020294 1_545
Ga4 Ga7 3.020294 1_555
Ga4 Lu0 3.023904 1_655
Ga4 Lu0 3.023904 1_555
Ga4 Lu1 3.023904 1_555
Ga4 Lu1 3.023904 1_655
Ga5 Ga6 3.020294 1_555
Ga5 Ga6 3.020294 1_455
Ga5 Ga7 3.020294 1_555
Ga5 Ga7 3.020294 1_455
Ga5 Lu0 3.023904 1_565
Ga5 Lu0 3.023904 1_555
Ga5 Lu1 3.023904 1_555
Ga5 Lu1 3.023904 1_565
Ga6 Lu0 3.002922 1_665
Ga6 Lu0 3.002922 1_555
Ga6 Lu0 3.002922 1_655
Ga6 Lu0 3.002922 1_565
Ga7 Lu1 3.002922 1_555
Ga7 Lu1 3.002922 1_655
Ga7 Lu1 3.002922 1_665
Ga7 Lu1 3.002922 1_565
Fe0 Ga0 2.476192 1_454
Fe0 Ga1 2.476192 1_554
Fe0 Ga3 2.476192 1_545
Fe0 Ga1 2.476192 1_544
Fe0 Ga2 2.476192 1_455
Fe0 Ga0 2.476192 1_554
Fe0 Ga3 2.476192 1_555
Fe0 Ga2 2.476192 1_555
