# generated using pymatgen
data_Li9Mn2Co5O16
_symmetry_space_group_name_H-M   'P 1'
_cell_length_a   2.92884100
_cell_length_b   9.76328500
_cell_length_c   10.23107670
_cell_angle_alpha   79.68459267
_cell_angle_beta   90.00000000
_cell_angle_gamma   90.00000000
_symmetry_Int_Tables_number   1
_chemical_formula_structural   Li9Mn2Co5O16
_chemical_formula_sum   'Li9 Mn2 Co5 O16'
_cell_volume   287.83010726
_cell_formula_units_Z   1
loop_
 _symmetry_equiv_pos_site_id
 _symmetry_equiv_pos_as_xyz
  1  'x, y, z'
loop_
 _atom_site_type_symbol
 _atom_site_label
 _atom_site_symmetry_multiplicity
 _atom_site_fract_x
 _atom_site_fract_y
 _atom_site_fract_z
 _atom_site_occupancy
  Li  Li0  1  0.50000000  0.24363100  0.12238600  1
  Li  Li1  1  0.50000000  0.24785700  0.62685200  1
  Li  Li2  1  0.00000000  0.00517500  0.24090200  1
  Li  Li3  1  0.00000000  0.99482500  0.75909800  1
  Li  Li4  1  0.50000000  0.75214300  0.37314800  1
  Li  Li5  1  0.50000000  0.75636900  0.87761400  1
  Li  Li6  1  0.00000000  0.50000000  0.00000000  1
  Li  Li7  1  0.00000000  0.50000000  0.50000000  1
  Li  Li8  1  0.50000000  0.00000000  0.00000000  1
  Mn  Mn0  1  0.00000000  0.24210000  0.88236300  1
  Mn  Mn1  1  0.00000000  0.75790000  0.11763700  1
  Co  Co0  1  0.00000000  0.25073700  0.37486200  1
  Co  Co1  1  0.50000000  0.00000000  0.50000000  1
  Co  Co2  1  0.00000000  0.74926300  0.62513800  1
  Co  Co3  1  0.50000000  0.50119800  0.25072600  1
  Co  Co4  1  0.50000000  0.49880200  0.74927400  1
  O  O0  1  0.50000000  0.36343200  0.92843000  1
  O  O1  1  0.50000000  0.37030200  0.43070400  1
  O  O2  1  0.00000000  0.13701800  0.04837600  1
  O  O3  1  0.00000000  0.11790700  0.55529000  1
  O  O4  1  0.50000000  0.86006200  0.18098200  1
  O  O5  1  0.50000000  0.86740900  0.68050700  1
  O  O6  1  0.00000000  0.61475800  0.80427700  1
  O  O7  1  0.00000000  0.62470100  0.29779600  1
  O  O8  1  0.50000000  0.13259100  0.31949300  1
  O  O9  1  0.50000000  0.13993800  0.81901800  1
  O  O10  1  0.00000000  0.88209300  0.44471000  1
  O  O11  1  0.00000000  0.86298200  0.95162400  1
  O  O12  1  0.50000000  0.62969800  0.56929600  1
  O  O13  1  0.50000000  0.63656800  0.07157000  1
  O  O14  1  0.00000000  0.38524200  0.19572300  1
  O  O15  1  0.00000000  0.37529900  0.70220400  1
loop_
_geom_bond_atom_site_label_1
_geom_bond_atom_site_label_2
_geom_bond_distance
_geom_bond_site_symmetry_2
Li0 O2 2.020794 1_655
Li0 O2 2.020794 1_555
Li0 O8 2.111654 1_555
Li0 O0 2.115326 1_554
Li0 O14 2.233959 1_555
Li0 O14 2.233959 1_655
Li1 O9 2.057594 1_555
Li1 O1 2.144113 1_555
Li1 O3 2.150106 1_655
Li1 O3 2.150106 1_555
Li1 O15 2.151874 1_555
Li1 O15 2.151874 1_655
Li2 O2 2.151464 1_555
Li2 O8 2.167214 1_455
Li2 O8 2.167214 1_555
Li2 O4 2.199699 1_445
Li2 O4 2.199699 1_545
Li2 O10 2.212378 1_545
Li3 O11 2.151464 1_555
Li3 O5 2.167214 1_455
Li3 O5 2.167214 1_555
Li3 O9 2.199699 1_565
Li3 O9 2.199699 1_465
Li3 O3 2.212378 1_565
Li4 O4 2.057594 1_555
Li4 O12 2.144113 1_555
Li4 O10 2.150106 1_655
Li4 O10 2.150106 1_555
Li4 O7 2.151874 1_655
Li4 O7 2.151874 1_555
Li5 O11 2.020794 1_655
Li5 O11 2.020794 1_555
Li5 O5 2.111654 1_555
Li5 O13 2.115326 1_556
Li5 O6 2.233959 1_555
Li5 O6 2.233959 1_655
Li6 O14 2.112265 1_555
Li6 O6 2.112265 1_554
Li6 O0 2.192758 1_554
Li6 O0 2.192758 1_454
Li6 O13 2.192758 1_455
Li6 O13 2.192758 1_555
Li7 O12 2.138258 1_555
Li7 O12 2.138258 1_455
Li7 O1 2.138258 1_555
Li7 O1 2.138258 1_455
Li7 O15 2.204550 1_555
Li7 O7 2.204550 1_555
Li8 O4 2.095045 1_545
Li8 O9 2.095045 1_554
Li8 O2 2.101470 1_655
Li8 O2 2.101470 1_555
Li8 O11 2.101470 1_544
Li8 O11 2.101470 1_644
Mn0 O2 1.820266 1_556
Mn0 O9 1.947032 1_455
Mn0 O9 1.947032 1_555
Mn0 O0 1.992459 1_455
Mn0 O0 1.992459 1_555
Mn0 O15 2.056745 1_555
Mn1 O11 1.820266 1_554
Mn1 O4 1.947032 1_455
Mn1 O4 1.947032 1_555
Mn1 O13 1.992459 1_455
Mn1 O13 1.992459 1_555
Mn1 O7 2.056745 1_555
Co0 O8 2.007485 1_555
Co0 O8 2.007485 1_455
Co0 O1 2.018041 1_455
Co0 O1 2.018041 1_555
Co0 O14 2.054667 1_555
Co0 O3 2.057206 1_555
Co1 O3 2.005716 1_655
Co1 O3 2.005716 1_555
Co1 O10 2.005716 1_545
Co1 O10 2.005716 1_645
Co1 O5 2.056745 1_545
Co1 O8 2.056745 1_555
Co2 O5 2.007485 1_455
Co2 O5 2.007485 1_555
Co2 O12 2.018041 1_455
Co2 O12 2.018041 1_555
Co2 O6 2.054667 1_555
Co2 O10 2.057206 1_555
Co3 O14 1.992747 1_555
Co3 O14 1.992747 1_655
Co3 O7 2.009564 1_555
Co3 O7 2.009564 1_655
Co3 O1 2.044772 1_555
Co3 O13 2.058864 1_555
Co4 O6 1.992747 1_555
Co4 O6 1.992747 1_655
Co4 O15 2.009564 1_655
Co4 O15 2.009564 1_555
Co4 O12 2.044772 1_555
Co4 O0 2.058864 1_555
