# generated using pymatgen
data_MgTiBiO5
_symmetry_space_group_name_H-M   'P 1'
_cell_length_a   5.26742100
_cell_length_b   10.45757200
_cell_length_c   15.22818100
_cell_angle_alpha   90.00000000
_cell_angle_beta   90.00000000
_cell_angle_gamma   90.00000000
_symmetry_Int_Tables_number   1
_chemical_formula_structural   MgTiBiO5
_chemical_formula_sum   'Mg8 Ti8 Bi8 O40'
_cell_volume   838.83573674
_cell_formula_units_Z   8
loop_
 _symmetry_equiv_pos_site_id
 _symmetry_equiv_pos_as_xyz
  1  'x, y, z'
loop_
 _atom_site_type_symbol
 _atom_site_label
 _atom_site_symmetry_multiplicity
 _atom_site_fract_x
 _atom_site_fract_y
 _atom_site_fract_z
 _atom_site_occupancy
  Mg  Mg0  1  0.49229700  0.36762400  0.54797300  1
  Mg  Mg1  1  0.99229700  0.13237600  0.54797300  1
  Mg  Mg2  1  0.99229700  0.63237600  0.95202700  1
  Mg  Mg3  1  0.00770300  0.36762400  0.04797300  1
  Mg  Mg4  1  0.50770300  0.13237600  0.04797300  1
  Mg  Mg5  1  0.00770300  0.86762400  0.45202700  1
  Mg  Mg6  1  0.50770300  0.63237600  0.45202700  1
  Mg  Mg7  1  0.49229700  0.86762400  0.95202700  1
  Ti  Ti0  1  0.99714000  0.38297600  0.41961700  1
  Ti  Ti1  1  0.50286000  0.88297600  0.58038300  1
  Ti  Ti2  1  0.00286000  0.61702400  0.58038300  1
  Ti  Ti3  1  0.49714000  0.11702400  0.41961700  1
  Ti  Ti4  1  0.00286000  0.11702400  0.91961700  1
  Ti  Ti5  1  0.99714000  0.88297600  0.08038300  1
  Ti  Ti6  1  0.50286000  0.38297600  0.91961700  1
  Ti  Ti7  1  0.49714000  0.61702400  0.08038300  1
  Bi  Bi0  1  0.01159100  0.85725700  0.76158700  1
  Bi  Bi1  1  0.98840900  0.14274300  0.23841300  1
  Bi  Bi2  1  0.48840900  0.35725700  0.23841300  1
  Bi  Bi3  1  0.98840900  0.64274300  0.26158700  1
  Bi  Bi4  1  0.51159100  0.14274300  0.73841300  1
  Bi  Bi5  1  0.51159100  0.64274300  0.76158700  1
  Bi  Bi6  1  0.48840900  0.85725700  0.26158700  1
  Bi  Bi7  1  0.01159100  0.35725700  0.73841300  1
  O  O0  1  0.82997000  0.30432700  0.31993600  1
  O  O1  1  0.25481800  0.02351100  0.96934500  1
  O  O2  1  0.24518200  0.52351100  0.03065500  1
  O  O3  1  0.34623700  0.79910200  0.83616900  1
  O  O4  1  0.15376300  0.29910200  0.16383100  1
  O  O5  1  0.82997000  0.80432700  0.18006400  1
  O  O6  1  0.15376300  0.79910200  0.33616900  1
  O  O7  1  0.67003000  0.80432700  0.68006400  1
  O  O8  1  0.25481800  0.52351100  0.53065500  1
  O  O9  1  0.17003000  0.69567300  0.68006400  1
  O  O10  1  0.67003000  0.30432700  0.81993600  1
  O  O11  1  0.68743600  0.22165200  0.48608000  1
  O  O12  1  0.75481800  0.97648900  0.53065500  1
  O  O13  1  0.65376300  0.70089800  0.33616900  1
  O  O14  1  0.20930900  0.99264900  0.15416700  1
  O  O15  1  0.75481800  0.47648900  0.96934500  1
  O  O16  1  0.17003000  0.19567300  0.81993600  1
  O  O17  1  0.84623700  0.20089800  0.66383100  1
  O  O18  1  0.18743600  0.77834800  0.01392000  1
  O  O19  1  0.24518200  0.02351100  0.46934500  1
  O  O20  1  0.31256400  0.77834800  0.51392000  1
  O  O21  1  0.79069100  0.00735100  0.84583300  1
  O  O22  1  0.65376300  0.20089800  0.16383100  1
  O  O23  1  0.70930900  0.00735100  0.34583300  1
  O  O24  1  0.31256400  0.27834800  0.98608000  1
  O  O25  1  0.18743600  0.27834800  0.48608000  1
  O  O26  1  0.74518200  0.47648900  0.46934500  1
  O  O27  1  0.74518200  0.97648900  0.03065500  1
  O  O28  1  0.70930900  0.50735100  0.15416700  1
  O  O29  1  0.81256400  0.72165200  0.51392000  1
  O  O30  1  0.81256400  0.22165200  0.98608000  1
  O  O31  1  0.68743600  0.72165200  0.01392000  1
  O  O32  1  0.79069100  0.50735100  0.65416700  1
  O  O33  1  0.84623700  0.70089800  0.83616900  1
  O  O34  1  0.34623700  0.29910200  0.66383100  1
  O  O35  1  0.20930900  0.49264900  0.34583300  1
  O  O36  1  0.29069100  0.49264900  0.84583300  1
  O  O37  1  0.32997000  0.19567300  0.31993600  1
  O  O38  1  0.29069100  0.99264900  0.65416700  1
  O  O39  1  0.32997000  0.69567300  0.18006400  1
loop_
_geom_bond_atom_site_label_1
_geom_bond_atom_site_label_2
_geom_bond_distance
_geom_bond_site_symmetry_2
Mg0 O34 2.053818 1_555
Mg0 O11 2.067636 1_555
Mg0 O8 2.071679 1_555
Mg0 O25 2.082945 1_555
Mg0 O26 2.122295 1_555
Mg0 O32 2.687139 1_555
Mg1 O17 2.053818 1_555
Mg1 O25 2.067636 1_655
Mg1 O12 2.071679 1_545
Mg1 O11 2.082945 1_555
Mg1 O19 2.122295 1_655
Mg1 O38 2.687139 1_645
Mg2 O33 2.053818 1_555
Mg2 O18 2.067636 1_656
Mg2 O15 2.071679 1_555
Mg2 O31 2.082945 1_556
Mg2 O2 2.122295 1_656
Mg2 O36 2.687139 1_655
Mg3 O4 2.053818 1_555
Mg3 O30 2.067636 1_454
Mg3 O2 2.071679 1_555
Mg3 O24 2.082945 1_554
Mg3 O15 2.122295 1_454
Mg3 O28 2.687139 1_455
Mg4 O22 2.053818 1_555
Mg4 O24 2.067636 1_554
Mg4 O27 2.071679 1_545
Mg4 O30 2.082945 1_554
Mg4 O1 2.122295 1_554
Mg4 O14 2.687139 1_545
Mg5 O6 2.053818 1_555
Mg5 O29 2.067636 1_455
Mg5 O19 2.071679 1_565
Mg5 O20 2.082945 1_555
Mg5 O12 2.122295 1_455
Mg5 O23 2.687139 1_465
Mg6 O13 2.053818 1_555
Mg6 O20 2.067636 1_555
Mg6 O26 2.071679 1_555
Mg6 O29 2.082945 1_555
Mg6 O8 2.122295 1_555
Mg6 O35 2.687139 1_555
Mg7 O3 2.053818 1_555
Mg7 O31 2.067636 1_556
Mg7 O1 2.071679 1_565
Mg7 O18 2.082945 1_556
Mg7 O27 2.122295 1_556
Mg7 O21 2.687139 1_565
Bi0 O33 2.173066 1_455
Bi0 O3 2.183339 1_555
Bi0 O7 2.254883 1_455
Bi0 O9 2.256775 1_555
Bi0 O21 2.337407 1_465
Bi0 O38 2.615698 1_555
Bi1 O4 2.173066 1_655
Bi1 O22 2.183339 1_555
Bi1 O37 2.254883 1_655
Bi1 O0 2.256775 1_555
Bi1 O14 2.337407 1_645
Bi1 O23 2.615698 1_555
Bi2 O22 2.173066 1_555
Bi2 O4 2.183339 1_555
Bi2 O0 2.254883 1_555
Bi2 O37 2.256775 1_555
Bi2 O28 2.337407 1_555
Bi2 O35 2.615698 1_555
Bi3 O6 2.173066 1_655
Bi3 O13 2.183339 1_555
Bi3 O39 2.254883 1_655
Bi3 O5 2.256775 1_555
Bi3 O35 2.337407 1_655
Bi3 O28 2.615698 1_555
Bi4 O34 2.173066 1_555
Bi4 O17 2.183339 1_555
Bi4 O16 2.254883 1_555
Bi4 O10 2.256775 1_555
Bi4 O38 2.337407 1_545
Bi4 O21 2.615698 1_555
Bi5 O3 2.173066 1_555
Bi5 O33 2.183339 1_555
Bi5 O9 2.254883 1_555
Bi5 O7 2.256775 1_555
Bi5 O36 2.337407 1_555
Bi5 O32 2.615698 1_555
Bi6 O13 2.173066 1_555
Bi6 O6 2.183339 1_555
Bi6 O5 2.254883 1_555
Bi6 O39 2.256775 1_555
Bi6 O23 2.337407 1_565
Bi6 O14 2.615698 1_555
Bi7 O17 2.173066 1_455
Bi7 O34 2.183339 1_555
Bi7 O10 2.254883 1_455
Bi7 O16 2.256775 1_555
Bi7 O32 2.337407 1_455
Bi7 O36 2.615698 1_555
O0 Ti0 1.938053 1_555
O1 Ti4 1.814154 1_555
O2 Ti7 1.814154 1_555
O5 Ti5 1.938053 1_555
O7 Ti1 1.938053 1_555
O8 Ti2 1.814154 1_555
O9 Ti2 1.938053 1_555
O10 Ti6 1.938053 1_555
O11 Ti3 1.796187 1_555
O12 Ti1 1.814154 1_555
O14 Ti5 1.956239 1_455
O15 Ti6 1.814154 1_555
O16 Ti4 1.938053 1_555
O18 Ti5 1.796187 1_455
O19 Ti3 1.814154 1_555
O20 Ti1 1.796187 1_555
O21 Ti4 1.956239 1_655
O23 Ti3 1.956239 1_555
O24 Ti6 1.796187 1_555
O25 Ti0 1.796187 1_455
O26 Ti0 1.814154 1_555
O27 Ti5 1.814154 1_555
O28 Ti7 1.956239 1_555
O29 Ti2 1.796187 1_655
O30 Ti4 1.796187 1_655
O31 Ti7 1.796187 1_555
O32 Ti2 1.956239 1_655
O35 Ti0 1.956239 1_455
O36 Ti6 1.956239 1_555
O37 Ti3 1.938053 1_555
O38 Ti1 1.956239 1_555
O39 Ti7 1.938053 1_555
