# generated using pymatgen
data_V3N4
_symmetry_space_group_name_H-M   'P 1'
_cell_length_a   7.84090532
_cell_length_b   7.84090532
_cell_length_c   2.84938600
_cell_angle_alpha   90.00000000
_cell_angle_beta   90.00000000
_cell_angle_gamma   119.99999427
_symmetry_Int_Tables_number   1
_chemical_formula_structural   V3N4
_chemical_formula_sum   'V6 N8'
_cell_volume   151.71005382
_cell_formula_units_Z   2
loop_
 _symmetry_equiv_pos_site_id
 _symmetry_equiv_pos_as_xyz
  1  'x, y, z'
loop_
 _atom_site_type_symbol
 _atom_site_label
 _atom_site_symmetry_multiplicity
 _atom_site_fract_x
 _atom_site_fract_y
 _atom_site_fract_z
 _atom_site_occupancy
  V  V0  1  0.53198900  0.66961200  0.75000000  1
  V  V1  1  0.13762300  0.46801100  0.75000000  1
  V  V2  1  0.33038800  0.86237700  0.75000000  1
  V  V3  1  0.46801100  0.33038800  0.25000000  1
  V  V4  1  0.86237700  0.53198900  0.25000000  1
  V  V5  1  0.66961200  0.13762300  0.25000000  1
  N  N0  1  0.63038600  0.95121000  0.75000000  1
  N  N1  1  0.32082400  0.36961400  0.75000000  1
  N  N2  1  0.04879000  0.67917600  0.75000000  1
  N  N3  1  0.36961400  0.04879000  0.25000000  1
  N  N4  1  0.67917600  0.63038600  0.25000000  1
  N  N5  1  0.95121000  0.32082400  0.25000000  1
  N  N6  1  0.66666700  0.33333300  0.75000000  1
  N  N7  1  0.33333300  0.66666700  0.25000000  1
loop_
_geom_bond_atom_site_label_1
_geom_bond_atom_site_label_2
_geom_bond_distance
_geom_bond_site_symmetry_2
N0 V0 1.940858 1_555
N0 V5 1.952231 1_565
N0 V5 1.952231 1_566
N0 V2 2.092808 1_555
N1 V1 1.940858 1_555
N1 V3 1.952231 1_556
N1 V3 1.952231 1_555
N1 V0 2.092808 1_555
N2 V2 1.940858 1_555
N2 V4 1.952231 1_456
N2 V4 1.952231 1_455
N2 V1 2.092808 1_555
N3 V3 1.940858 1_555
N3 V2 1.952231 1_544
N3 V2 1.952231 1_545
N3 V5 2.092808 1_555
N4 V4 1.940858 1_555
N4 V0 1.952231 1_555
N4 V0 1.952231 1_554
N4 V3 2.092808 1_555
N5 V5 1.940858 1_555
N5 V1 1.952231 1_654
N5 V1 1.952231 1_655
N5 V4 2.092808 1_555
N6 V5 2.102509 1_556
N6 V5 2.102509 1_555
N6 V4 2.102512 1_556
N6 V4 2.102512 1_555
N6 V3 2.102514 1_555
N6 V3 2.102514 1_556
N7 V2 2.102509 1_555
N7 V2 2.102509 1_554
N7 V1 2.102512 1_554
N7 V1 2.102512 1_555
N7 V0 2.102514 1_555
N7 V0 2.102514 1_554
