# generated using pymatgen
data_DyBeCu4
_symmetry_space_group_name_H-M   'P 1'
_cell_length_a   5.06439412
_cell_length_b   5.06439412
_cell_length_c   3.85787800
_cell_angle_alpha   90.00000000
_cell_angle_beta   90.00000000
_cell_angle_gamma   120.00000160
_symmetry_Int_Tables_number   1
_chemical_formula_structural   DyBeCu4
_chemical_formula_sum   'Dy1 Be1 Cu4'
_cell_volume   85.69078206
_cell_formula_units_Z   1
loop_
 _symmetry_equiv_pos_site_id
 _symmetry_equiv_pos_as_xyz
  1  'x, y, z'
loop_
 _atom_site_type_symbol
 _atom_site_label
 _atom_site_symmetry_multiplicity
 _atom_site_fract_x
 _atom_site_fract_y
 _atom_site_fract_z
 _atom_site_occupancy
  Dy  Dy0  1  0.33333300  0.66666700  0.00000000  1
  Be  Be0  1  0.66666700  0.33333300  0.00000000  1
  Cu  Cu0  1  0.00000000  0.00000000  0.00000000  1
  Cu  Cu1  1  0.34344500  0.17172300  0.50000000  1
  Cu  Cu2  1  0.82827700  0.17172300  0.50000000  1
  Cu  Cu3  1  0.82827700  0.65655500  0.50000000  1
loop_
_geom_bond_atom_site_label_1
_geom_bond_atom_site_label_2
_geom_bond_distance
_geom_bond_site_symmetry_2
Be0 Cu2 2.393830 1_555
Be0 Cu2 2.393830 1_554
Be0 Cu1 2.393835 1_554
Be0 Cu3 2.393835 1_555
Be0 Cu1 2.393835 1_555
Be0 Cu3 2.393835 1_554
Be0 Dy0 2.923926 1_545
Be0 Dy0 2.923926 1_655
Be0 Dy0 2.923935 1_555
Cu0 Cu1 2.447404 1_554
Cu0 Cu3 2.447404 1_445
Cu0 Cu3 2.447404 1_444
Cu0 Cu1 2.447404 1_555
Cu0 Cu2 2.447407 1_455
Cu0 Cu2 2.447407 1_454
Cu0 Dy0 2.923926 1_545
Cu0 Dy0 2.923931 1_555
Cu0 Dy0 2.923931 1_445
Cu1 Cu3 2.455380 1_555
Cu1 Cu2 2.455380 1_555
Cu1 Cu3 2.609014 1_445
Cu1 Cu2 2.609014 1_455
Cu1 Dy0 3.183519 1_546
Cu1 Dy0 3.183519 1_545
Cu1 Dy0 3.183519 1_556
Cu1 Dy0 3.183519 1_555
Cu2 Cu3 2.455380 1_555
Cu2 Cu3 2.609014 1_545
Cu2 Dy0 3.183519 1_546
Cu2 Dy0 3.183519 1_545
Cu2 Dy0 3.183519 1_655
Cu2 Dy0 3.183519 1_656
Cu3 Dy0 3.183519 1_655
Cu3 Dy0 3.183519 1_656
Cu3 Dy0 3.183519 1_555
Cu3 Dy0 3.183519 1_556
