# generated using pymatgen
data_ReH3CSO6
_symmetry_space_group_name_H-M   'P 1'
_cell_length_a   6.01249763
_cell_length_b   13.13551958
_cell_length_c   17.02038074
_cell_angle_alpha   103.14116558
_cell_angle_beta   95.87078418
_cell_angle_gamma   99.51134767
_symmetry_Int_Tables_number   1
_chemical_formula_structural   ReH3CSO6
_chemical_formula_sum   'Re8 H24 C8 S8 O48'
_cell_volume   1277.26593083
_cell_formula_units_Z   8
loop_
 _symmetry_equiv_pos_site_id
 _symmetry_equiv_pos_as_xyz
  1  'x, y, z'
loop_
 _atom_site_type_symbol
 _atom_site_label
 _atom_site_symmetry_multiplicity
 _atom_site_fract_x
 _atom_site_fract_y
 _atom_site_fract_z
 _atom_site_occupancy
  Re  Re0  1  0.76191200  0.38116300  0.95519400  1
  Re  Re1  1  0.23808800  0.61883700  0.04480600  1
  Re  Re2  1  0.61008300  0.10882100  0.81502200  1
  Re  Re3  1  0.38991700  0.89117900  0.18497800  1
  Re  Re4  1  0.85146400  0.89243000  0.68793200  1
  Re  Re5  1  0.14853600  0.10757000  0.31206800  1
  Re  Re6  1  0.73116500  0.61332900  0.56111600  1
  Re  Re7  1  0.26883500  0.38667100  0.43888400  1
  H  H0  1  0.70127600  0.18453200  0.04229800  1
  H  H1  1  0.29872400  0.81546800  0.95770200  1
  H  H2  1  0.75981800  0.05180400  0.01281300  1
  H  H3  1  0.24018200  0.94819600  0.98718700  1
  H  H4  1  0.92935300  0.14767100  0.10004800  1
  H  H5  1  0.07064700  0.85232900  0.89995200  1
  H  H6  1  0.20792500  0.30446500  0.71294700  1
  H  H7  1  0.79207500  0.69553500  0.28705200  1
  H  H8  1  0.01530600  0.34817500  0.64399000  1
  H  H9  1  0.98469400  0.65182500  0.35601000  1
  H  H10  1  0.16963700  0.44090400  0.73573000  1
  H  H11  1  0.83036300  0.55909600  0.26427000  1
  H  H12  1  0.82829500  0.64149200  0.77668900  1
  H  H13  1  0.17170500  0.35850800  0.22331100  1
  H  H14  1  0.65089800  0.66975200  0.85641300  1
  H  H15  1  0.34910200  0.33024800  0.14358700  1
  H  H16  1  0.57878300  0.54562400  0.77929800  1
  H  H17  1  0.42121700  0.45437600  0.22070200  1
  H  H18  1  0.85026300  0.88768400  0.48549800  1
  H  H19  1  0.14973700  0.11231600  0.51450200  1
  H  H20  1  0.66295100  0.81724500  0.39214100  1
  H  H21  1  0.33704900  0.18275500  0.60785900  1
  H  H22  1  0.62696800  0.94687100  0.44563600  1
  H  H23  1  0.37303200  0.05312900  0.55436400  1
  C  C0  1  0.83416500  0.13635100  0.03927800  1
  C  C1  1  0.16583500  0.86364900  0.96072200  1
  C  C2  1  0.08795600  0.35771800  0.70755900  1
  C  C3  1  0.91204400  0.64228200  0.29244100  1
  C  C4  1  0.65472600  0.63069900  0.79248600  1
  C  C5  1  0.34527400  0.36930100  0.20751400  1
  C  C6  1  0.67723400  0.87237800  0.45216000  1
  C  C7  1  0.32276600  0.12762200  0.54784000  1
  S  S0  1  0.03153900  0.17883500  0.97662400  1
  S  S1  1  0.96846100  0.82116500  0.02337600  1
  S  S2  1  0.85661800  0.32636500  0.76023000  1
  S  S3  1  0.14338200  0.67363500  0.23977000  1
  S  S4  1  0.48038800  0.68856300  0.73188500  1
  S  S5  1  0.51961200  0.31143700  0.26811500  1
  S  S6  1  0.48203000  0.81284400  0.50782000  1
  S  S7  1  0.51797000  0.18715600  0.49218000  1
  O  O0  1  0.55925500  0.44120400  0.91552000  1
  O  O1  1  0.44074500  0.55879600  0.08448000  1
  O  O2  1  0.66958100  0.36753400  0.04533900  1
  O  O3  1  0.33041900  0.63246600  0.95466100  1
  O  O4  1  0.37506600  0.12135400  0.75386100  1
  O  O5  1  0.62493400  0.87864600  0.24613900  1
  O  O6  1  0.49140700  0.02741300  0.87195300  1
  O  O7  1  0.50859300  0.97258700  0.12804700  1
  O  O8  1  0.05364900  0.89602000  0.76795500  1
  O  O9  1  0.94635100  0.10398000  0.23204500  1
  O  O10  1  0.00857700  0.95847700  0.62917100  1
  O  O11  1  0.99142300  0.04152300  0.37082900  1
  O  O12  1  0.91157300  0.61740800  0.48920800  1
  O  O13  1  0.08842700  0.38259200  0.51079200  1
  O  O14  1  0.85649000  0.54499900  0.62230200  1
  O  O15  1  0.14351000  0.45500100  0.37769800  1
  O  O16  1  0.00000000  0.50000000  0.00000000  1
  O  O17  1  0.62932800  0.24138700  0.89215300  1
  O  O18  1  0.37067200  0.75861300  0.10784700  1
  O  O19  1  0.71760000  0.00517300  0.74053800  1
  O  O20  1  0.28240000  0.99482700  0.25946200  1
  O  O21  1  0.85665900  0.75322000  0.62693000  1
  O  O22  1  0.14334100  0.24678000  0.37307000  1
  O  O23  1  0.50000000  0.50000000  0.50000000  1
  O  O24  1  0.25285500  0.15859700  0.00195300  1
  O  O25  1  0.74714500  0.84140300  0.99804700  1
  O  O26  1  0.03803700  0.29604800  0.98481000  1
  O  O27  1  0.96196300  0.70395200  0.01519000  1
  O  O28  1  0.94034900  0.11876400  0.88968500  1
  O  O29  1  0.05965100  0.88123600  0.11031500  1
  O  O30  1  0.65371600  0.35474000  0.72469400  1
  O  O31  1  0.34628400  0.64526000  0.27530600  1
  O  O32  1  0.83284300  0.20878500  0.75510000  1
  O  O33  1  0.16715700  0.79121500  0.24490000  1
  O  O34  1  0.93822400  0.38677000  0.84799800  1
  O  O35  1  0.06177600  0.61323000  0.15200200  1
  O  O36  1  0.25610600  0.67939900  0.75568200  1
  O  O37  1  0.74389400  0.32060100  0.24431800  1
  O  O38  1  0.59822500  0.80268200  0.74463600  1
  O  O39  1  0.40177500  0.19731800  0.25536400  1
  O  O40  1  0.47345700  0.62998600  0.64445000  1
  O  O41  1  0.52654300  0.37001400  0.35555000  1
  O  O42  1  0.25312900  0.81705000  0.47629500  1
  O  O43  1  0.74687100  0.18295000  0.52370500  1
  O  O44  1  0.51858100  0.70069800  0.49932700  1
  O  O45  1  0.48141900  0.29930200  0.50067300  1
  O  O46  1  0.54733100  0.87398100  0.59587300  1
  O  O47  1  0.45266900  0.12601900  0.40412700  1
loop_
_geom_bond_atom_site_label_1
_geom_bond_atom_site_label_2
_geom_bond_distance
_geom_bond_site_symmetry_2
C0 H4 1.095599 1_555
C0 H0 1.096495 1_555
C0 H2 1.096978 1_555
C1 H5 1.095599 1_555
C1 H1 1.096495 1_555
C1 H3 1.096978 1_555
C2 H6 1.095627 1_555
C2 H8 1.095775 1_555
C2 H10 1.096044 1_555
C3 H7 1.095630 1_555
C3 H9 1.095775 1_555
C3 H11 1.096044 1_555
C4 H14 1.096717 1_555
C4 H16 1.097284 1_555
C4 H12 1.098769 1_555
C5 H15 1.096717 1_555
C5 H17 1.097284 1_555
C5 H13 1.098769 1_555
C6 H20 1.095677 1_555
C6 H22 1.096090 1_555
C6 H18 1.096784 1_555
C7 H21 1.095677 1_555
C7 H23 1.096090 1_555
C7 H19 1.096784 1_555
O0 Re0 1.718747 1_555
O1 Re1 1.718747 1_555
O2 Re0 1.720642 1_554
O3 Re1 1.720642 1_556
O4 Re2 1.720848 1_555
O5 Re3 1.720848 1_555
O6 Re2 1.718133 1_555
O7 Re3 1.718133 1_555
O8 Re4 1.717043 1_455
O9 Re5 1.717043 1_655
O10 Re4 1.721117 1_455
O11 Re5 1.721117 1_655
O12 Re6 1.720342 1_555
O13 Re7 1.720342 1_555
O14 Re6 1.716367 1_555
O15 Re7 1.716367 1_555
O16 Re1 1.887949 1_555
O16 Re0 1.887949 1_454
O17 Re0 1.898238 1_555
O17 Re2 1.905760 1_555
O18 Re1 1.898238 1_555
O18 Re3 1.905760 1_555
O19 Re2 1.884775 1_555
O19 Re4 1.892374 1_545
O20 Re3 1.884775 1_555
O20 Re5 1.892374 1_565
O21 Re4 1.893403 1_555
O21 Re6 1.906203 1_555
O22 Re5 1.893403 1_555
O22 Re7 1.906203 1_555
O23 Re6 1.883135 1_555
O23 Re7 1.883135 1_555
O24 S0 1.441821 1_554
O25 S1 1.441821 1_556
O26 S0 1.507626 1_555
O26 Re0 2.226846 1_455
O27 S1 1.507626 1_555
O27 Re1 2.226846 1_655
O28 S0 1.507643 1_655
O28 Re2 2.213068 1_555
O29 S1 1.507643 1_455
O29 Re3 2.213068 1_555
O30 S2 1.447360 1_555
O31 S3 1.447360 1_555
O32 S2 1.508848 1_555
O32 Re2 2.205759 1_555
O33 S3 1.508848 1_555
O33 Re3 2.205759 1_555
O34 S2 1.511397 1_555
O34 Re0 2.211111 1_555
O35 S3 1.511397 1_555
O35 Re1 2.211111 1_555
O36 S4 1.441263 1_555
O37 S5 1.441263 1_555
O38 S4 1.505235 1_555
O38 Re4 2.205515 1_555
O39 S5 1.505235 1_555
O39 Re5 2.205515 1_555
O40 S4 1.504825 1_555
O40 Re6 2.209307 1_555
O41 S5 1.504825 1_555
O41 Re7 2.209307 1_555
O42 S6 1.439656 1_555
O43 S7 1.439656 1_555
O44 S6 1.501954 1_555
O44 Re6 2.194395 1_555
O45 S7 1.501954 1_555
O45 Re7 2.194395 1_555
O46 S6 1.507754 1_555
O46 Re4 2.225392 1_555
O47 S7 1.507754 1_555
O47 Re5 2.225392 1_555
