# generated using pymatgen
data_PrV2IO9
_symmetry_space_group_name_H-M   'P 1'
_cell_length_a   7.05114900
_cell_length_b   7.24510842
_cell_length_c   14.54448389
_cell_angle_alpha   90.00000000
_cell_angle_beta   90.00000000
_cell_angle_gamma   90.00000000
_symmetry_Int_Tables_number   1
_chemical_formula_structural   PrV2IO9
_chemical_formula_sum   'Pr4 V8 I4 O36'
_cell_volume   743.02443445
_cell_formula_units_Z   4
loop_
 _symmetry_equiv_pos_site_id
 _symmetry_equiv_pos_as_xyz
  1  'x, y, z'
loop_
 _atom_site_type_symbol
 _atom_site_label
 _atom_site_symmetry_multiplicity
 _atom_site_fract_x
 _atom_site_fract_y
 _atom_site_fract_z
 _atom_site_occupancy
  Pr  Pr0  1  0.85094905  0.25000000  0.95273528  1
  Pr  Pr1  1  0.14905095  0.75000000  0.04726472  1
  Pr  Pr2  1  0.85094905  0.75000000  0.54726472  1
  Pr  Pr3  1  0.14905095  0.25000000  0.45273528  1
  V  V0  1  0.46526831  -0.00000000  0.25000000  1
  V  V1  1  0.53473169  0.50000000  0.75000000  1
  V  V2  1  0.53473169  -0.00000000  0.75000000  1
  V  V3  1  0.46526831  0.50000000  0.25000000  1
  V  V4  1  0.81901844  0.25000000  0.22856681  1
  V  V5  1  0.18098156  0.75000000  0.77143319  1
  V  V6  1  0.81901844  0.75000000  0.27143319  1
  V  V7  1  0.18098156  0.25000000  0.72856681  1
  I  I0  1  0.29646411  0.25000000  0.05614501  1
  I  I1  1  0.70353589  0.75000000  0.94385499  1
  I  I2  1  0.29646411  0.75000000  0.44385499  1
  I  I3  1  0.70353589  0.25000000  0.55614501  1
  O  O0  1  0.17504277  0.07145748  0.98959325  1
  O  O1  1  0.82495723  0.57145748  0.01040675  1
  O  O2  1  0.17504277  0.92854252  0.51040675  1
  O  O3  1  0.82495723  0.42854252  0.48959325  1
  O  O4  1  0.82495723  0.92854252  0.01040675  1
  O  O5  1  0.17504277  0.42854252  0.98959325  1
  O  O6  1  0.82495723  0.07145748  0.48959325  1
  O  O7  1  0.17504277  0.57145748  0.51040675  1
  O  O8  1  0.52406772  0.25000000  0.00232454  1
  O  O9  1  0.47593228  0.75000000  0.99767546  1
  O  O10  1  0.52406772  0.75000000  0.49767546  1
  O  O11  1  0.47593228  0.25000000  0.50232454  1
  O  O12  1  0.33138425  0.95636569  0.15791102  1
  O  O13  1  0.66861575  0.45636569  0.84208898  1
  O  O14  1  0.33138425  0.04363431  0.34208898  1
  O  O15  1  0.66861575  0.54363431  0.65791102  1
  O  O16  1  0.66861575  0.04363431  0.84208898  1
  O  O17  1  0.33138425  0.54363431  0.15791102  1
  O  O18  1  0.66861575  0.95636569  0.65791102  1
  O  O19  1  0.33138425  0.45636569  0.34208898  1
  O  O20  1  0.53215851  0.75000000  0.27844066  1
  O  O21  1  0.46784149  0.25000000  0.72155934  1
  O  O22  1  0.53215851  0.25000000  0.22155934  1
  O  O23  1  0.46784149  0.75000000  0.77844066  1
  O  O24  1  0.73971653  -0.00000000  0.25000000  1
  O  O25  1  0.26028347  0.50000000  0.75000000  1
  O  O26  1  0.26028347  -0.00000000  0.75000000  1
  O  O27  1  0.73971653  0.50000000  0.25000000  1
  O  O28  1  0.98951474  0.25000000  0.30610667  1
  O  O29  1  0.01048526  0.75000000  0.69389333  1
  O  O30  1  0.98951474  0.75000000  0.19389333  1
  O  O31  1  0.01048526  0.25000000  0.80610667  1
  O  O32  1  0.91797008  0.25000000  0.12494226  1
  O  O33  1  0.08202992  0.75000000  0.87505774  1
  O  O34  1  0.91797008  0.75000000  0.37505774  1
  O  O35  1  0.08202992  0.25000000  0.62494226  1
loop_
_geom_bond_atom_site_label_1
_geom_bond_atom_site_label_2
_geom_bond_distance
_geom_bond_site_symmetry_2
I0 O8 1.785598 1_555
I0 O0 1.828457 1_554
I0 O5 1.828457 1_554
I1 O9 1.785598 1_555
I1 O1 1.828457 1_556
I1 O4 1.828457 1_556
I2 O10 1.785598 1_555
I2 O7 1.828457 1_555
I2 O2 1.828457 1_555
I3 O11 1.785598 1_555
I3 O3 1.828457 1_555
I3 O6 1.828457 1_555
O0 Pr1 2.482215 1_546
O0 Pr0 2.680106 1_455
O1 Pr0 2.482215 1_554
O1 Pr1 2.680106 1_655
O2 Pr3 2.482215 1_565
O2 Pr2 2.680106 1_455
O3 Pr2 2.482215 1_555
O3 Pr3 2.680106 1_655
O4 Pr0 2.482215 1_564
O4 Pr1 2.680106 1_655
O5 Pr1 2.482215 1_556
O5 Pr0 2.680106 1_455
O6 Pr2 2.482215 1_545
O6 Pr3 2.680106 1_655
O7 Pr3 2.482215 1_555
O7 Pr2 2.680106 1_455
O8 Pr0 2.415101 1_554
O9 Pr1 2.415101 1_556
O10 Pr2 2.415101 1_555
O11 Pr3 2.415101 1_555
O12 V0 1.668863 1_565
O12 Pr1 2.545230 1_555
O13 V1 1.668863 1_555
O13 Pr0 2.545230 1_555
O14 V0 1.668863 1_555
O14 Pr3 2.545230 1_555
O15 V1 1.668863 1_555
O15 Pr2 2.545230 1_555
O16 V2 1.668863 1_555
O16 Pr0 2.545230 1_555
O17 V3 1.668863 1_555
O17 Pr1 2.545230 1_555
O18 V2 1.668863 1_565
O18 Pr2 2.545230 1_555
O19 V3 1.668863 1_555
O19 Pr3 2.545230 1_555
O20 V3 1.916844 1_555
O20 V0 1.916844 1_565
O20 V6 2.025258 1_555
O21 V1 1.916844 1_555
O21 V2 1.916844 1_555
O21 V7 2.025258 1_555
O22 V3 1.916844 1_555
O22 V0 1.916844 1_555
O22 V4 2.025258 1_555
O23 V1 1.916844 1_555
O23 V2 1.916844 1_565
O23 V5 2.025258 1_555
O24 V6 1.921087 1_545
O24 V4 1.921087 1_555
O24 V0 1.935175 1_555
O25 V7 1.921087 1_555
O25 V5 1.921087 1_555
O25 V1 1.935175 1_555
O26 V7 1.921087 1_555
O26 V5 1.921087 1_545
O26 V2 1.935175 1_555
O27 V4 1.921087 1_555
O27 V6 1.921087 1_555
O27 V3 1.935175 1_555
O28 V4 1.648379 1_555
O28 Pr3 2.411135 1_655
O29 V5 1.648379 1_555
O29 Pr2 2.411135 1_455
O30 V6 1.648379 1_555
O30 Pr1 2.411135 1_655
O31 V7 1.648379 1_555
O31 Pr0 2.411135 1_455
O32 V4 1.660833 1_555
O32 Pr0 2.548854 1_554
O33 V5 1.660833 1_555
O33 Pr1 2.548854 1_556
O34 V6 1.660833 1_555
O34 Pr2 2.548854 1_555
O35 V7 1.660833 1_555
O35 Pr3 2.548854 1_555
