# generated using pymatgen
data_Mg14VW
_symmetry_space_group_name_H-M   'P 1'
_cell_length_a   6.24063582
_cell_length_b   6.24063534
_cell_length_c   9.97979938
_cell_angle_alpha   90.00000000
_cell_angle_beta   90.00000000
_cell_angle_gamma   120.00000255
_symmetry_Int_Tables_number   1
_chemical_formula_structural   Mg14VW
_chemical_formula_sum   'Mg14 V1 W1'
_cell_volume   336.59687297
_cell_formula_units_Z   1
loop_
 _symmetry_equiv_pos_site_id
 _symmetry_equiv_pos_as_xyz
  1  'x, y, z'
loop_
 _atom_site_type_symbol
 _atom_site_label
 _atom_site_symmetry_multiplicity
 _atom_site_fract_x
 _atom_site_fract_y
 _atom_site_fract_z
 _atom_site_occupancy
  Mg  Mg0  1  0.16899852  0.83449876  0.12500000  1
  Mg  Mg1  1  0.16844082  0.83421991  0.62500000  1
  Mg  Mg2  1  0.66550124  0.33100148  0.12500000  1
  Mg  Mg3  1  0.66578009  0.33155918  0.62500000  1
  Mg  Mg4  1  0.66550124  0.83449876  0.12500000  1
  Mg  Mg5  1  0.66578009  0.83421991  0.62500000  1
  Mg  Mg6  1  0.32609304  0.17390696  0.37936784  1
  Mg  Mg7  1  0.32609304  0.17390696  0.87063216  1
  Mg  Mg8  1  0.32609304  0.65218707  0.37936784  1
  Mg  Mg9  1  0.32609304  0.65218707  0.87063216  1
  Mg  Mg10  1  0.84781293  0.17390696  0.37936784  1
  Mg  Mg11  1  0.84781293  0.17390696  0.87063216  1
  Mg  Mg12  1  0.83333300  0.66666700  0.37507307  1
  Mg  Mg13  1  0.83333300  0.66666700  0.87492693  1
  V  V0  1  0.16666700  0.33333300  0.12500000  1
  W  W0  1  0.16666700  0.33333300  0.62500000  1
loop_
_geom_bond_atom_site_label_1
_geom_bond_atom_site_label_2
_geom_bond_distance
_geom_bond_site_symmetry_2
Mg0 Mg12 3.085360 1_455
Mg0 Mg13 3.085360 1_454
Mg0 Mg2 3.098492 1_565
Mg0 Mg4 3.098493 1_555
Mg0 V0 3.120343 1_555
Mg0 V0 3.120343 1_565
Mg0 Mg9 3.132917 1_554
Mg0 Mg8 3.132917 1_555
Mg0 Mg6 3.132924 1_565
Mg0 Mg7 3.132924 1_564
Mg0 Mg2 3.142143 1_455
Mg0 Mg4 3.142143 1_455
Mg1 Mg9 3.063540 1_555
Mg1 Mg8 3.063540 1_555
Mg1 Mg6 3.063546 1_565
Mg1 Mg7 3.063546 1_565
Mg1 Mg12 3.082409 1_455
Mg1 Mg13 3.082409 1_455
Mg1 W0 3.120332 1_555
Mg1 W0 3.120332 1_565
Mg2 Mg4 3.098492 1_545
Mg2 V0 3.120343 1_655
Mg2 V0 3.120343 1_555
Mg2 Mg7 3.132924 1_554
Mg2 Mg6 3.132924 1_555
Mg2 Mg4 3.142143 1_555
Mg3 Mg6 3.063547 1_555
Mg3 Mg7 3.063547 1_555
Mg3 W0 3.120333 1_655
Mg3 W0 3.120333 1_555
Mg4 V0 3.120343 1_555
Mg4 V0 3.120343 1_665
Mg4 Mg8 3.132923 1_555
Mg4 Mg9 3.132923 1_554
Mg5 Mg8 3.063546 1_555
Mg5 Mg9 3.063546 1_555
Mg5 W0 3.120332 1_555
Mg5 W0 3.120332 1_665
Mg6 Mg8 2.984772 1_555
Mg6 W0 2.996458 1_555
Mg6 V0 3.068189 1_555
Mg6 Mg8 3.255864 1_545
Mg7 Mg9 2.984772 1_555
Mg7 W0 2.996458 1_555
Mg7 V0 3.068189 1_556
Mg7 Mg9 3.255864 1_545
Mg8 W0 2.996464 1_555
Mg8 V0 3.068195 1_555
Mg9 W0 2.996464 1_555
Mg9 V0 3.068195 1_556
Mg10 Mg8 2.984772 1_655
Mg10 Mg6 2.984772 1_655
Mg10 W0 2.996464 1_655
Mg10 Mg3 3.063540 1_555
Mg10 Mg5 3.063546 1_545
Mg10 V0 3.068195 1_655
Mg10 Mg12 3.121593 1_545
Mg10 Mg12 3.121593 1_555
Mg10 Mg2 3.132917 1_555
Mg10 Mg4 3.132923 1_545
Mg10 Mg8 3.255864 1_545
Mg10 Mg6 3.255864 1_555
Mg11 Mg9 2.984772 1_655
Mg11 Mg7 2.984772 1_655
Mg11 W0 2.996464 1_655
Mg11 Mg3 3.063540 1_555
Mg11 Mg5 3.063546 1_545
Mg11 V0 3.068195 1_656
Mg11 Mg13 3.121593 1_545
Mg11 Mg13 3.121593 1_555
Mg11 Mg2 3.132917 1_556
Mg11 Mg4 3.132923 1_546
Mg11 Mg9 3.255864 1_545
Mg11 Mg7 3.255864 1_555
Mg12 Mg5 3.082402 1_555
Mg12 Mg3 3.082409 1_555
Mg12 Mg4 3.085354 1_555
Mg12 Mg2 3.085360 1_555
Mg12 Mg6 3.121593 1_665
Mg12 Mg6 3.121593 1_555
Mg12 Mg8 3.121593 1_555
Mg12 Mg8 3.121593 1_655
Mg13 Mg5 3.082402 1_555
Mg13 Mg3 3.082409 1_555
Mg13 Mg4 3.085354 1_556
Mg13 Mg2 3.085360 1_556
Mg13 Mg7 3.121593 1_665
Mg13 Mg7 3.121593 1_555
Mg13 Mg9 3.121593 1_555
Mg13 Mg9 3.121593 1_655
