# generated using pymatgen
data_NaMo2H25(C4O5)2
_symmetry_space_group_name_H-M   'P 1'
_cell_length_a   9.36029778
_cell_length_b   14.54154480
_cell_length_c   15.07901488
_cell_angle_alpha   90.00000000
_cell_angle_beta   98.73876488
_cell_angle_gamma   90.00000000
_symmetry_Int_Tables_number   1
_chemical_formula_structural   NaMo2H25(C4O5)2
_chemical_formula_sum   'Na4 Mo8 H100 C32 O40'
_cell_volume   2028.62654368
_cell_formula_units_Z   4
loop_
 _symmetry_equiv_pos_site_id
 _symmetry_equiv_pos_as_xyz
  1  'x, y, z'
loop_
 _atom_site_type_symbol
 _atom_site_label
 _atom_site_symmetry_multiplicity
 _atom_site_fract_x
 _atom_site_fract_y
 _atom_site_fract_z
 _atom_site_occupancy
  Na  Na0  1  0.78755402  0.77539353  0.66257269  1
  Na  Na1  1  0.21244598  0.27539353  0.83742731  1
  Na  Na2  1  0.21244598  0.22460647  0.33742731  1
  Na  Na3  1  0.78755402  0.72460647  0.16257269  1
  Mo  Mo0  1  0.09506189  0.80016536  0.56175232  1
  Mo  Mo1  1  0.90493811  0.30016536  0.93824768  1
  Mo  Mo2  1  0.90493811  0.19983464  0.43824768  1
  Mo  Mo3  1  0.09506189  0.69983464  0.06175232  1
  Mo  Mo4  1  0.42993378  0.79842743  0.56937593  1
  Mo  Mo5  1  0.57006622  0.29842743  0.93062407  1
  Mo  Mo6  1  0.57006622  0.20157257  0.43062407  1
  Mo  Mo7  1  0.42993378  0.70157257  0.06937593  1
  H  H0  1  0.91207154  0.72601664  0.85497050  1
  H  H1  1  0.08792846  0.22601664  0.64502950  1
  H  H2  1  0.08792846  0.27398336  0.14502950  1
  H  H3  1  0.91207154  0.77398336  0.35497050  1
  H  H4  1  0.08180043  0.58077059  0.56431042  1
  H  H5  1  0.91819957  0.08077059  0.93568958  1
  H  H6  1  0.91819957  0.41922941  0.43568958  1
  H  H7  1  0.08180043  0.91922941  0.06431042  1
  H  H8  1  0.91718003  0.56267563  0.60840398  1
  H  H9  1  0.08281997  0.06267563  0.89159602  1
  H  H10  1  0.08281997  0.43732437  0.39159602  1
  H  H11  1  0.91718003  0.93732437  0.10840398  1
  H  H12  1  0.91206417  0.59675200  0.49390950  1
  H  H13  1  0.08793583  0.09675200  0.00609050  1
  H  H14  1  0.08793583  0.40324800  0.50609050  1
  H  H15  1  0.91206417  0.90324800  0.99390950  1
  H  H16  1  0.14214288  0.94707287  0.72099062  1
  H  H17  1  0.85785712  0.44707287  0.77900938  1
  H  H18  1  0.85785712  0.05292713  0.27900938  1
  H  H19  1  0.14214288  0.55292713  0.22099062  1
  H  H20  1  0.00666259  0.01398883  0.65304601  1
  H  H21  1  0.99333741  0.51398883  0.84695399  1
  H  H22  1  0.99333741  0.98601117  0.34695399  1
  H  H23  1  0.00666259  0.48601117  0.15304601  1
  H  H24  1  0.96292559  0.95308750  0.74847185  1
  H  H25  1  0.03707441  0.45308750  0.75152815  1
  H  H26  1  0.03707441  0.04691250  0.25152815  1
  H  H27  1  0.96292559  0.54691250  0.24847185  1
  H  H28  1  0.18671220  0.67840065  0.75061710  1
  H  H29  1  0.81328780  0.17840065  0.74938290  1
  H  H30  1  0.81328780  0.32159935  0.24938290  1
  H  H31  1  0.18671220  0.82159935  0.25061710  1
  H  H32  1  0.28720149  0.62482943  0.67320389  1
  H  H33  1  0.71279851  0.12482943  0.82679611  1
  H  H34  1  0.71279851  0.37517057  0.32679611  1
  H  H35  1  0.28720149  0.87517057  0.17320389  1
  H  H36  1  0.37948894  0.68428162  0.76924959  1
  H  H37  1  0.62051106  0.18428162  0.73075041  1
  H  H38  1  0.62051106  0.31571838  0.23075041  1
  H  H39  1  0.37948894  0.81571838  0.26924959  1
  H  H40  1  0.33067531  0.62181565  0.42326947  1
  H  H41  1  0.66932469  0.12181565  0.07673053  1
  H  H42  1  0.66932469  0.37818435  0.57673053  1
  H  H43  1  0.33067531  0.87818435  0.92326947  1
  H  H44  1  0.13862874  0.62620439  0.41516802  1
  H  H45  1  0.86137126  0.12620439  0.08483198  1
  H  H46  1  0.86137126  0.37379561  0.58483198  1
  H  H47  1  0.13862874  0.87379561  0.91516802  1
  H  H48  1  0.23406153  0.71933150  0.37319756  1
  H  H49  1  0.76593847  0.21933150  0.12680244  1
  H  H50  1  0.76593847  0.28066850  0.62680244  1
  H  H51  1  0.23406153  0.78066850  0.87319756  1
  H  H52  1  0.16458217  0.02567684  0.54008103  1
  H  H53  1  0.83541783  0.52567684  0.95991897  1
  H  H54  1  0.83541783  0.97432316  0.45991897  1
  H  H55  1  0.16458217  0.47432316  0.04008103  1
  H  H56  1  0.35642256  0.02428057  0.54459566  1
  H  H57  1  0.64357744  0.52428057  0.95540434  1
  H  H58  1  0.64357744  0.97571943  0.45540434  1
  H  H59  1  0.35642256  0.47571943  0.04459566  1
  H  H60  1  0.24296432  0.97466590  0.45040551  1
  H  H61  1  0.75703568  0.47466590  0.04959449  1
  H  H62  1  0.75703568  0.02533410  0.54959449  1
  H  H63  1  0.24296432  0.52533410  0.95040551  1
  H  H64  1  0.61390291  0.55952846  0.63252389  1
  H  H65  1  0.38609709  0.05952846  0.86747611  1
  H  H66  1  0.38609709  0.44047154  0.36747611  1
  H  H67  1  0.61390291  0.94047154  0.13252389  1
  H  H68  1  0.43798818  0.57924177  0.57104632  1
  H  H69  1  0.56201182  0.07924177  0.92895368  1
  H  H70  1  0.56201182  0.42075823  0.42895368  1
  H  H71  1  0.43798818  0.92075823  0.07104632  1
  H  H72  1  0.59331256  0.58741110  0.51567199  1
  H  H73  1  0.40668744  0.08741110  0.98432801  1
  H  H74  1  0.40668744  0.41258890  0.48432801  1
  H  H75  1  0.59331256  0.91258890  0.01567199  1
  H  H76  1  0.64129933  0.95639155  0.75828828  1
  H  H77  1  0.35870067  0.45639155  0.74171172  1
  H  H78  1  0.35870067  0.04360845  0.24171172  1
  H  H79  1  0.64129933  0.54360845  0.25828828  1
  H  H80  1  0.56182779  0.01093719  0.65648735  1
  H  H81  1  0.43817221  0.51093719  0.84351265  1
  H  H82  1  0.43817221  0.98906281  0.34351265  1
  H  H83  1  0.56182779  0.48906281  0.15648735  1
  H  H84  1  0.44981316  0.95186452  0.72419567  1
  H  H85  1  0.55018684  0.45186452  0.77580433  1
  H  H86  1  0.55018684  0.04813548  0.27580433  1
  H  H87  1  0.44981316  0.54813548  0.22419567  1
  H  H88  1  0.73019034  0.77379934  0.93145633  1
  H  H89  1  0.26980966  0.27379934  0.56854367  1
  H  H90  1  0.26980966  0.22620066  0.06854367  1
  H  H91  1  0.73019034  0.72620066  0.43145633  1
  H  H92  1  0.61790985  0.78531602  0.82483544  1
  H  H93  1  0.38209015  0.28531602  0.67516456  1
  H  H94  1  0.38209015  0.21468398  0.17516456  1
  H  H95  1  0.61790985  0.71468398  0.32483544  1
  H  H96  1  0.67408641  0.67411780  0.86620839  1
  H  H97  1  0.32591359  0.17411780  0.63379161  1
  H  H98  1  0.32591359  0.32588220  0.13379161  1
  H  H99  1  0.67408641  0.82588220  0.36620839  1
  C  C0  1  0.97025261  0.60571556  0.56285682  1
  C  C1  1  0.02974739  0.10571556  0.93714318  1
  C  C2  1  0.02974739  0.39428444  0.43714318  1
  C  C3  1  0.97025261  0.89428444  0.06285682  1
  C  C4  1  0.02652480  0.95027556  0.69269611  1
  C  C5  1  0.97347520  0.45027556  0.80730389  1
  C  C6  1  0.97347520  0.04972444  0.30730389  1
  C  C7  1  0.02652480  0.54972444  0.19269611  1
  C  C8  1  0.28313835  0.68495855  0.71735015  1
  C  C9  1  0.71686165  0.18495855  0.78264985  1
  C  C10  1  0.71686165  0.31504145  0.28264985  1
  C  C11  1  0.28313835  0.81504145  0.21735015  1
  C  C12  1  0.23808112  0.66769985  0.42681143  1
  C  C13  1  0.76191888  0.16769985  0.07318857  1
  C  C14  1  0.76191888  0.33230015  0.57318857  1
  C  C15  1  0.23808112  0.83230015  0.92681143  1
  C  C16  1  0.25634760  0.98537388  0.52350474  1
  C  C17  1  0.74365240  0.48537388  0.97649526  1
  C  C18  1  0.74365240  0.01462612  0.47649526  1
  C  C19  1  0.25634760  0.51462612  0.02350474  1
  C  C20  1  0.55180437  0.60150185  0.57913456  1
  C  C21  1  0.44819563  0.10150185  0.92086544  1
  C  C22  1  0.44819563  0.39849815  0.42086544  1
  C  C23  1  0.55180437  0.89849815  0.07913456  1
  C  C24  1  0.55511021  0.95052267  0.69994789  1
  C  C25  1  0.44488979  0.45052267  0.80005211  1
  C  C26  1  0.44488979  0.04947733  0.30005211  1
  C  C27  1  0.55511021  0.54947733  0.19994789  1
  C  C28  1  0.70733523  0.74640556  0.86263089  1
  C  C29  1  0.29266477  0.24640556  0.63736911  1
  C  C30  1  0.29266477  0.25359444  0.13736911  1
  C  C31  1  0.70733523  0.75359444  0.36263089  1
  O  O0  1  0.02554297  0.82774263  0.45078608  1
  O  O1  1  0.97445703  0.32774263  0.04921392  1
  O  O2  1  0.97445703  0.17225737  0.54921392  1
  O  O3  1  0.02554297  0.67225737  0.95078608  1
  O  O4  1  0.96616780  0.69868686  0.59049227  1
  O  O5  1  0.03383220  0.19868686  0.90950773  1
  O  O6  1  0.03383220  0.30131314  0.40950773  1
  O  O7  1  0.96616780  0.80131314  0.09049227  1
  O  O8  1  0.98334400  0.87097338  0.64017727  1
  O  O9  1  0.01665600  0.37097338  0.85982273  1
  O  O10  1  0.01665600  0.12902662  0.35982273  1
  O  O11  1  0.98334400  0.62902662  0.14017727  1
  O  O12  1  0.27725001  0.76885816  0.66759775  1
  O  O13  1  0.72274999  0.26885816  0.83240225  1
  O  O14  1  0.72274999  0.23114184  0.33240225  1
  O  O15  1  0.27725001  0.73114184  0.16759775  1
  O  O16  1  0.25261399  0.70891537  0.51367880  1
  O  O17  1  0.74738601  0.20891537  0.98632120  1
  O  O18  1  0.74738601  0.29108463  0.48632120  1
  O  O19  1  0.25261399  0.79108463  0.01367880  1
  O  O20  1  0.26354149  0.89949214  0.57010632  1
  O  O21  1  0.73645851  0.39949214  0.92989368  1
  O  O22  1  0.73645851  0.10050786  0.42989368  1
  O  O23  1  0.26354149  0.60050786  0.07010632  1
  O  O24  1  0.45858181  0.83122763  0.46336725  1
  O  O25  1  0.54141819  0.33122763  0.03663275  1
  O  O26  1  0.54141819  0.16877237  0.53663275  1
  O  O27  1  0.45858181  0.66877237  0.96336725  1
  O  O28  1  0.56858777  0.69544225  0.60294520  1
  O  O29  1  0.43141223  0.19544225  0.89705480  1
  O  O30  1  0.43141223  0.30455775  0.39705480  1
  O  O31  1  0.56858777  0.80455775  0.10294520  1
  O  O32  1  0.57499218  0.86698366  0.65456255  1
  O  O33  1  0.42500782  0.36698366  0.84543745  1
  O  O34  1  0.42500782  0.13301634  0.34543745  1
  O  O35  1  0.57499218  0.63301634  0.15456255  1
  O  O36  1  0.83035692  0.75611211  0.81685375  1
  O  O37  1  0.16964308  0.25611211  0.68314625  1
  O  O38  1  0.16964308  0.24388789  0.18314625  1
  O  O39  1  0.83035692  0.74388789  0.31685375  1
loop_
_geom_bond_atom_site_label_1
_geom_bond_atom_site_label_2
_geom_bond_distance
_geom_bond_site_symmetry_2
Na0 O36 2.316912 1_555
Na0 O8 2.364841 1_555
Na0 O32 2.382037 1_555
Na0 O4 2.402683 1_555
Na0 O28 2.408516 1_555
Na1 O37 2.316912 1_555
Na1 O9 2.364841 1_555
Na1 O33 2.382037 1_555
Na1 O5 2.402683 1_555
Na1 O29 2.408516 1_555
Na2 O38 2.316912 1_555
Na2 O10 2.364841 1_555
Na2 O34 2.382037 1_555
Na2 O6 2.402683 1_555
Na2 O30 2.408516 1_555
Na3 O39 2.316912 1_555
Na3 O11 2.364841 1_555
Na3 O35 2.382037 1_555
Na3 O7 2.402683 1_555
Na3 O31 2.408516 1_555
Mo0 O0 1.747342 1_555
Mo0 O8 1.981905 1_455
Mo0 O4 1.994956 1_455
Mo0 O20 2.128070 1_555
Mo0 O16 2.187662 1_555
Mo0 O12 2.199032 1_555
Mo1 O1 1.747342 1_556
Mo1 O9 1.981905 1_655
Mo1 O5 1.994956 1_655
Mo1 O21 2.128070 1_555
Mo1 O17 2.187662 1_555
Mo1 O13 2.199032 1_555
Mo2 O2 1.747342 1_555
Mo2 O10 1.981905 1_655
Mo2 O6 1.994956 1_655
Mo2 O22 2.128070 1_555
Mo2 O18 2.187662 1_555
Mo2 O14 2.199032 1_555
Mo3 O3 1.747342 1_554
Mo3 O11 1.981905 1_455
Mo3 O7 1.994956 1_455
Mo3 O23 2.128070 1_555
Mo3 O19 2.187662 1_555
Mo3 O15 2.199032 1_555
Mo4 O24 1.727679 1_555
Mo4 O32 1.989342 1_555
Mo4 O28 1.995921 1_555
Mo4 O20 2.142642 1_555
Mo4 O16 2.175061 1_555
Mo4 O12 2.250379 1_555
Mo5 O25 1.727679 1_556
Mo5 O33 1.989342 1_555
Mo5 O29 1.995921 1_555
Mo5 O21 2.142642 1_555
Mo5 O17 2.175061 1_555
Mo5 O13 2.250379 1_555
Mo6 O26 1.727679 1_555
Mo6 O34 1.989342 1_555
Mo6 O30 1.995921 1_555
Mo6 O22 2.142642 1_555
Mo6 O18 2.175061 1_555
Mo6 O14 2.250379 1_555
Mo7 O27 1.727679 1_554
Mo7 O35 1.989342 1_555
Mo7 O31 1.995921 1_555
Mo7 O23 2.142642 1_555
Mo7 O19 2.175061 1_555
Mo7 O15 2.250379 1_555
H0 O36 0.986572 1_555
H1 O37 0.986572 1_555
H2 O38 0.986572 1_555
H3 O39 0.986572 1_555
C0 H8 1.101758 1_555
C0 H4 1.102404 1_655
C0 H12 1.105654 1_555
C0 O4 1.416938 1_555
C1 H9 1.101758 1_555
C1 H5 1.102404 1_455
C1 H13 1.105654 1_556
C1 O5 1.416938 1_555
C2 H10 1.101758 1_555
C2 H6 1.102404 1_455
C2 H14 1.105654 1_555
C2 O6 1.416938 1_555
C3 H11 1.101758 1_555
C3 H7 1.102404 1_655
C3 H15 1.105654 1_554
C3 O7 1.416938 1_555
C4 H16 1.102316 1_555
C4 H24 1.102521 1_455
C4 H20 1.103013 1_565
C4 O8 1.422349 1_455
C5 H17 1.102316 1_555
C5 H25 1.102521 1_655
C5 H21 1.103013 1_555
C5 O9 1.422349 1_655
C6 H18 1.102316 1_555
C6 H26 1.102521 1_655
C6 H22 1.103013 1_545
C6 O10 1.422349 1_655
C7 H19 1.102316 1_555
C7 H27 1.102521 1_455
C7 H23 1.103013 1_555
C7 O11 1.422349 1_455
C8 H36 1.100661 1_555
C8 H28 1.101341 1_555
C8 H32 1.103085 1_555
C8 O12 1.428906 1_555
C9 H37 1.100661 1_555
C9 H29 1.101341 1_555
C9 H33 1.103085 1_555
C9 O13 1.428906 1_555
C10 H38 1.100661 1_555
C10 H30 1.101341 1_555
C10 H34 1.103085 1_555
C10 O14 1.428906 1_555
C11 H39 1.100661 1_555
C11 H31 1.101341 1_555
C11 H35 1.103085 1_555
C11 O15 1.428906 1_555
C12 H48 1.099755 1_555
C12 H44 1.100839 1_555
C12 H40 1.101497 1_555
C12 O16 1.428054 1_555
C13 H49 1.099755 1_555
C13 H45 1.100839 1_555
C13 H41 1.101497 1_555
C13 O17 1.428054 1_554
C14 H50 1.099755 1_555
C14 H46 1.100839 1_555
C14 H42 1.101497 1_555
C14 O18 1.428054 1_555
C15 H51 1.099755 1_555
C15 H47 1.100839 1_555
C15 H43 1.101497 1_555
C15 O19 1.428054 1_556
C16 H56 1.099170 1_565
C16 H52 1.099540 1_565
C16 H60 1.101348 1_555
C16 O20 1.429541 1_555
C17 H57 1.099170 1_555
C17 H53 1.099540 1_555
C17 H61 1.101348 1_556
C17 O21 1.429541 1_555
C18 H58 1.099170 1_545
C18 H54 1.099540 1_545
C18 H62 1.101348 1_555
C18 O22 1.429541 1_555
C19 H59 1.099170 1_555
C19 H55 1.099540 1_555
C19 H63 1.101348 1_554
C19 O23 1.429541 1_555
C20 H68 1.102339 1_555
C20 H64 1.102873 1_555
C20 H72 1.105294 1_555
C20 O28 1.415102 1_555
C21 H69 1.102339 1_555
C21 H65 1.102873 1_555
C21 H73 1.105294 1_555
C21 O29 1.415102 1_555
C22 H70 1.102339 1_555
C22 H66 1.102873 1_555
C22 H74 1.105294 1_555
C22 O30 1.415102 1_555
C23 H71 1.102339 1_555
C23 H67 1.102873 1_555
C23 H75 1.105294 1_555
C23 O31 1.415102 1_555
C24 H84 1.102271 1_555
C24 H76 1.102898 1_555
C24 H80 1.103515 1_565
C24 O32 1.420351 1_555
C25 H85 1.102271 1_555
C25 H77 1.102898 1_555
C25 H81 1.103515 1_555
C25 O33 1.420351 1_555
C26 H86 1.102271 1_555
C26 H78 1.102898 1_555
C26 H82 1.103515 1_545
C26 O34 1.420351 1_555
C27 H87 1.102271 1_555
C27 H79 1.102898 1_555
C27 H83 1.103515 1_555
C27 O35 1.420351 1_555
C28 H92 1.095742 1_555
C28 H96 1.099927 1_555
C28 H88 1.101841 1_555
C28 O36 1.436637 1_555
C29 H93 1.095742 1_555
C29 H97 1.099927 1_555
C29 H89 1.101841 1_555
C29 O37 1.436637 1_555
C30 H94 1.095742 1_555
C30 H98 1.099927 1_555
C30 H90 1.101841 1_555
C30 O38 1.436637 1_555
C31 H95 1.095742 1_555
C31 H99 1.099927 1_555
C31 H91 1.101841 1_555
C31 O39 1.436637 1_555
