# generated using pymatgen
data_LiLa3Ti4O12
_symmetry_space_group_name_H-M   'P 1'
_cell_length_a   8.79821677
_cell_length_b   8.79821677
_cell_length_c   8.79821677
_cell_angle_alpha   143.18928863
_cell_angle_beta   143.18928863
_cell_angle_gamma   53.04133249
_symmetry_Int_Tables_number   1
_chemical_formula_structural   LiLa3Ti4O12
_chemical_formula_sum   'Li1 La3 Ti4 O12'
_cell_volume   243.00207319
_cell_formula_units_Z   1
loop_
 _symmetry_equiv_pos_site_id
 _symmetry_equiv_pos_as_xyz
  1  'x, y, z'
loop_
 _atom_site_type_symbol
 _atom_site_label
 _atom_site_symmetry_multiplicity
 _atom_site_fract_x
 _atom_site_fract_y
 _atom_site_fract_z
 _atom_site_occupancy
  Li  Li0  1  0.50000000  0.50000000  0.00000000  1
  La  La0  1  0.74846800  0.74846800  0.00000000  1
  La  La1  1  0.25153200  0.25153200  0.00000000  1
  La  La2  1  0.00000000  0.00000000  0.00000000  1
  Ti  Ti0  1  0.87739900  0.37739900  0.50000000  1
  Ti  Ti1  1  0.37739900  0.87739900  0.50000000  1
  Ti  Ti2  1  0.12260100  0.62260100  0.50000000  1
  Ti  Ti3  1  0.62260100  0.12260100  0.50000000  1
  O  O0  1  0.00000000  0.50000000  0.50000000  1
  O  O1  1  0.50000000  0.00000000  0.50000000  1
  O  O2  1  0.62684400  0.11728100  0.00000000  1
  O  O3  1  0.11728100  0.62684400  0.00000000  1
  O  O4  1  0.88271900  0.37315600  0.00000000  1
  O  O5  1  0.37315600  0.88271900  0.00000000  1
  O  O6  1  0.11728100  0.11728100  0.49043700  1
  O  O7  1  0.62684400  0.62684400  0.50956300  1
  O  O8  1  0.37315600  0.37315600  0.49043700  1
  O  O9  1  0.88271900  0.88271900  0.50956300  1
  O  O10  1  0.75000000  0.25000000  0.50000000  1
  O  O11  1  0.25000000  0.75000000  0.50000000  1
loop_
_geom_bond_atom_site_label_1
_geom_bond_atom_site_label_2
_geom_bond_distance
_geom_bond_site_symmetry_2
La0 O6 2.738444 1_665
La0 O3 2.738444 1_655
La0 O2 2.738444 1_565
La0 O7 2.738444 1_554
La0 O9 2.758411 1_555
La0 O5 2.758411 1_555
La0 O8 2.758411 1_554
La0 O4 2.758411 1_555
La0 O11 2.778034 1_655
La0 O11 2.778034 1_554
La0 O10 2.778034 1_554
La0 O10 2.778034 1_565
La1 O9 2.738444 1_444
La1 O4 2.738444 1_455
La1 O5 2.738444 1_545
La1 O8 2.738444 1_555
La1 O2 2.758411 1_555
La1 O7 2.758411 1_555
La1 O6 2.758411 1_554
La1 O3 2.758411 1_555
La1 O10 2.778034 1_454
La1 O11 2.778034 1_555
La1 O10 2.778034 1_555
La1 O11 2.778034 1_544
La2 O0 2.777929 1_555
La2 O0 2.777929 1_544
La2 O1 2.777929 1_555
La2 O1 2.777929 1_454
La2 O8 2.787451 1_555
La2 O5 2.787451 1_545
La2 O4 2.787451 1_455
La2 O3 2.787451 1_545
La2 O2 2.787451 1_455
La2 O6 2.787451 1_555
La2 O7 2.787451 1_444
La2 O9 2.787451 1_444
O0 Ti2 1.930331 1_555
O0 Ti0 1.930331 1_455
O1 Ti3 1.930331 1_555
O1 Ti1 1.930331 1_545
O2 Ti1 1.966448 1_544
O2 Ti0 1.966448 1_555
O3 Ti1 1.966448 1_555
O3 Ti0 1.966448 1_454
O4 Ti3 1.966448 1_554
O4 Ti2 1.966448 1_655
O5 Ti3 1.966448 1_565
O5 Ti2 1.966448 1_554
O6 Ti0 1.966448 1_455
O6 Ti1 1.966448 1_545
O7 Ti1 1.966448 1_555
O7 Ti0 1.966448 1_555
O8 Ti2 1.966448 1_555
O8 Ti3 1.966448 1_555
O9 Ti3 1.966448 1_565
O9 Ti2 1.966448 1_655
O10 Ti0 2.005874 1_555
O10 Ti3 2.005874 1_555
O11 Ti1 2.005874 1_555
O11 Ti2 2.005874 1_555
