# generated using pymatgen
data_Ba3Sm
_symmetry_space_group_name_H-M   'P 1'
_cell_length_a   8.48609488
_cell_length_b   8.48609488
_cell_length_c   6.74845100
_cell_angle_alpha   90.00000000
_cell_angle_beta   90.00000000
_cell_angle_gamma   120.00000687
_symmetry_Int_Tables_number   1
_chemical_formula_structural   Ba3Sm
_chemical_formula_sum   'Ba6 Sm2'
_cell_volume   420.87241976
_cell_formula_units_Z   2
loop_
 _symmetry_equiv_pos_site_id
 _symmetry_equiv_pos_as_xyz
  1  'x, y, z'
loop_
 _atom_site_type_symbol
 _atom_site_label
 _atom_site_symmetry_multiplicity
 _atom_site_fract_x
 _atom_site_fract_y
 _atom_site_fract_z
 _atom_site_occupancy
  Ba  Ba0  1  0.82737900  0.17262100  0.75000000  1
  Ba  Ba1  1  0.34524200  0.17262100  0.75000000  1
  Ba  Ba2  1  0.82737900  0.65475800  0.75000000  1
  Ba  Ba3  1  0.17262100  0.82737900  0.25000000  1
  Ba  Ba4  1  0.65475800  0.82737900  0.25000000  1
  Ba  Ba5  1  0.17262100  0.34524200  0.25000000  1
  Sm  Sm0  1  0.66666700  0.33333300  0.25000000  1
  Sm  Sm1  1  0.33333300  0.66666700  0.75000000  1
loop_
_geom_bond_atom_site_label_1
_geom_bond_atom_site_label_2
_geom_bond_distance
_geom_bond_site_symmetry_2
Ba0 Ba2 4.091460 1_555
Ba0 Ba1 4.091460 1_555
Ba0 Sm0 4.118907 1_556
Ba0 Sm0 4.118907 1_555
Ba0 Ba5 4.221730 1_655
Ba0 Ba5 4.221730 1_656
Ba0 Ba4 4.221730 1_545
Ba0 Ba4 4.221730 1_546
Ba0 Sm1 4.243949 1_545
Ba0 Sm1 4.243949 1_655
Ba0 Ba1 4.394635 1_655
Ba0 Ba2 4.394635 1_545
Ba1 Ba2 4.091460 1_555
Ba1 Sm0 4.118911 1_555
Ba1 Sm0 4.118911 1_556
Ba1 Ba3 4.221730 1_545
Ba1 Ba3 4.221730 1_546
Ba1 Ba5 4.221730 1_555
Ba1 Ba5 4.221730 1_556
Ba1 Sm1 4.243946 1_545
Ba1 Sm1 4.243954 1_555
Ba1 Ba2 4.394634 1_445
Ba2 Sm0 4.118911 1_555
Ba2 Sm0 4.118911 1_556
Ba2 Ba3 4.221730 1_655
Ba2 Ba3 4.221730 1_656
Ba2 Ba4 4.221730 1_556
Ba2 Ba4 4.221730 1_555
Ba2 Sm1 4.243946 1_655
Ba2 Sm1 4.243954 1_555
Ba3 Ba4 4.091460 1_555
Ba3 Ba5 4.091460 1_555
Ba3 Sm1 4.118907 1_554
Ba3 Sm1 4.118907 1_555
Ba3 Sm0 4.243949 1_455
Ba3 Sm0 4.243949 1_565
Ba3 Ba4 4.394635 1_455
Ba3 Ba5 4.394635 1_565
Ba4 Ba5 4.091460 1_555
Ba4 Sm1 4.118911 1_555
Ba4 Sm1 4.118911 1_554
Ba4 Sm0 4.243946 1_565
Ba4 Sm0 4.243954 1_555
Ba4 Ba5 4.394634 1_665
Ba5 Sm1 4.118911 1_555
Ba5 Sm1 4.118911 1_554
Ba5 Sm0 4.243946 1_455
Ba5 Sm0 4.243954 1_555
