# generated using pymatgen
data_Mg(AgO2)2
_symmetry_space_group_name_H-M   'P 1'
_cell_length_a   3.12761500
_cell_length_b   9.54401600
_cell_length_c   11.02997700
_cell_angle_alpha   90.00000000
_cell_angle_beta   90.00000000
_cell_angle_gamma   90.00000000
_symmetry_Int_Tables_number   1
_chemical_formula_structural   Mg(AgO2)2
_chemical_formula_sum   'Mg4 Ag8 O16'
_cell_volume   329.24489730
_cell_formula_units_Z   4
loop_
 _symmetry_equiv_pos_site_id
 _symmetry_equiv_pos_as_xyz
  1  'x, y, z'
loop_
 _atom_site_type_symbol
 _atom_site_label
 _atom_site_symmetry_multiplicity
 _atom_site_fract_x
 _atom_site_fract_y
 _atom_site_fract_z
 _atom_site_occupancy
  Mg  Mg0  1  0.25000000  0.75019200  0.34152400  1
  Mg  Mg1  1  0.75000000  0.24980800  0.65847600  1
  Mg  Mg2  1  0.25000000  0.25019200  0.15847600  1
  Mg  Mg3  1  0.75000000  0.74980800  0.84152400  1
  Ag  Ag0  1  0.75000000  0.91386600  0.10706600  1
  Ag  Ag1  1  0.25000000  0.58613400  0.60706600  1
  Ag  Ag2  1  0.75000000  0.41386600  0.39293400  1
  Ag  Ag3  1  0.25000000  0.08613400  0.89293400  1
  Ag  Ag4  1  0.25000000  0.06658600  0.38911200  1
  Ag  Ag5  1  0.75000000  0.93341400  0.61088800  1
  Ag  Ag6  1  0.25000000  0.56658600  0.11088800  1
  Ag  Ag7  1  0.75000000  0.43341400  0.88911200  1
  O  O0  1  0.75000000  0.37321000  0.07237000  1
  O  O1  1  0.25000000  0.62679000  0.92763000  1
  O  O2  1  0.75000000  0.87321000  0.42763000  1
  O  O3  1  0.25000000  0.12679000  0.57237000  1
  O  O4  1  0.75000000  0.52338300  0.72366600  1
  O  O5  1  0.25000000  0.47661700  0.27633400  1
  O  O6  1  0.75000000  0.02338300  0.77633400  1
  O  O7  1  0.25000000  0.97661700  0.22366600  1
  O  O8  1  0.75000000  0.12220100  0.03945500  1
  O  O9  1  0.25000000  0.87779900  0.96054500  1
  O  O10  1  0.75000000  0.62220100  0.46054500  1
  O  O11  1  0.25000000  0.37779900  0.53945500  1
  O  O12  1  0.25000000  0.27710100  0.79576000  1
  O  O13  1  0.75000000  0.72289900  0.20424000  1
  O  O14  1  0.75000000  0.22289900  0.29576000  1
  O  O15  1  0.25000000  0.77710100  0.70424000  1
loop_
_geom_bond_atom_site_label_1
_geom_bond_atom_site_label_2
_geom_bond_distance
_geom_bond_site_symmetry_2
Mg0 O2 2.173934 1_455
Mg0 O2 2.173934 1_555
Mg0 O13 2.192320 1_455
Mg0 O13 2.192320 1_555
Mg0 O10 2.379310 1_555
Mg0 O10 2.379310 1_455
Mg0 O7 2.521877 1_555
Mg0 O5 2.708204 1_555
Mg1 O3 2.173934 1_555
Mg1 O3 2.173934 1_655
Mg1 O12 2.192320 1_655
Mg1 O12 2.192320 1_555
Mg1 O11 2.379310 1_555
Mg1 O11 2.379310 1_655
Mg1 O6 2.521877 1_555
Mg1 O4 2.708204 1_555
Mg2 O0 2.173934 1_455
Mg2 O0 2.173934 1_555
Mg2 O14 2.192320 1_455
Mg2 O14 2.192320 1_555
Mg2 O8 2.379310 1_455
Mg2 O8 2.379310 1_555
Mg2 O5 2.521877 1_555
Mg2 O7 2.708204 1_545
Mg3 O1 2.173934 1_655
Mg3 O1 2.173934 1_555
Mg3 O15 2.192320 1_555
Mg3 O15 2.192320 1_655
Mg3 O9 2.379310 1_555
Mg3 O9 2.379310 1_655
Mg3 O4 2.521877 1_555
Mg3 O6 2.708204 1_565
Ag0 O7 2.111448 1_555
Ag0 O7 2.111448 1_655
Ag0 O13 2.114392 1_555
Ag0 O8 2.123602 1_565
Ag0 O9 2.275047 1_554
Ag0 O9 2.275047 1_654
Ag1 O4 2.111448 1_455
Ag1 O4 2.111448 1_555
Ag1 O15 2.114392 1_555
Ag1 O11 2.123602 1_555
Ag1 O10 2.275047 1_555
Ag1 O10 2.275047 1_455
Ag2 O5 2.111448 1_555
Ag2 O5 2.111448 1_655
Ag2 O14 2.114392 1_555
Ag2 O10 2.123602 1_555
Ag2 O11 2.275047 1_655
Ag2 O11 2.275047 1_555
Ag3 O6 2.111448 1_555
Ag3 O6 2.111448 1_455
Ag3 O12 2.114392 1_555
Ag3 O9 2.123602 1_545
Ag3 O8 2.275047 1_556
Ag3 O8 2.275047 1_456
Ag4 O7 2.016790 1_545
Ag4 O3 2.101412 1_555
Ag4 O14 2.394022 1_455
Ag4 O14 2.394022 1_555
Ag4 O2 2.456048 1_545
Ag4 O2 2.456048 1_445
Ag5 O6 2.016790 1_565
Ag5 O2 2.101412 1_555
Ag5 O15 2.394022 1_655
Ag5 O15 2.394022 1_555
Ag5 O3 2.456048 1_665
Ag5 O3 2.456048 1_565
Ag6 O5 2.016790 1_555
Ag6 O1 2.101412 1_554
Ag6 O13 2.394022 1_555
Ag6 O13 2.394022 1_455
Ag6 O0 2.456048 1_555
Ag6 O0 2.456048 1_455
Ag7 O4 2.016790 1_555
Ag7 O0 2.101412 1_556
Ag7 O12 2.394022 1_555
Ag7 O12 2.394022 1_655
Ag7 O1 2.456048 1_655
Ag7 O1 2.456048 1_555
