# generated using pymatgen
data_Mn3Fe8CuO16
_symmetry_space_group_name_H-M   'P 1'
_cell_length_a   6.11371311
_cell_length_b   6.11371311
_cell_length_c   10.60908532
_cell_angle_alpha   73.25362216
_cell_angle_beta   90.00000000
_cell_angle_gamma   120.00000000
_symmetry_Int_Tables_number   1
_chemical_formula_structural   Mn3Fe8CuO16
_chemical_formula_sum   'Mn3 Fe8 Cu1 O16'
_cell_volume   323.84988159
_cell_formula_units_Z   1
loop_
 _symmetry_equiv_pos_site_id
 _symmetry_equiv_pos_as_xyz
  1  'x, y, z'
loop_
 _atom_site_type_symbol
 _atom_site_label
 _atom_site_symmetry_multiplicity
 _atom_site_fract_x
 _atom_site_fract_y
 _atom_site_fract_z
 _atom_site_occupancy
  Mn  Mn0  1  0.81275500  0.12551000  0.56173500  1
  Mn  Mn1  1  0.18775200  0.87550400  0.43674300  1
  Mn  Mn2  1  0.68705400  0.87410800  0.93883800  1
  Fe  Fe0  1  0.99983100  0.49966200  0.00050700  1
  Fe  Fe1  1  0.49990600  0.49981200  0.50028200  1
  Fe  Fe2  1  0.75015100  0.00030200  0.24867700  1
  Fe  Fe3  1  0.24988500  0.99976900  0.75158600  1
  Fe  Fe4  1  0.75015100  0.50117200  0.24867700  1
  Fe  Fe5  1  0.24988500  0.49852900  0.75158600  1
  Fe  Fe6  1  0.25102200  0.50117200  0.24867700  1
  Fe  Fe7  1  0.74864400  0.49852900  0.75158600  1
  Cu  Cu0  1  0.31243300  0.12486600  0.06270100  1
  O  O0  1  0.88223200  0.26446500  0.35330300  1
  O  O1  1  0.37994100  0.25988100  0.86017800  1
  O  O2  1  0.10937800  0.71875500  0.12928700  1
  O  O3  1  0.60460500  0.70921000  0.63224700  1
  O  O4  1  0.10937800  0.26133600  0.12928700  1
  O  O5  1  0.60460500  0.26314800  0.63224700  1
  O  O6  1  0.65195800  0.26133600  0.12928700  1
  O  O7  1  0.15854400  0.26314800  0.63224700  1
  O  O8  1  0.61819600  0.73639100  0.14541300  1
  O  O9  1  0.11833300  0.73666700  0.64500000  1
  O  O10  1  0.39534500  0.29069100  0.36823100  1
  O  O11  1  0.89485500  0.28971000  0.86840600  1
  O  O12  1  0.39534500  0.73642400  0.36823100  1
  O  O13  1  0.89485500  0.73673900  0.86840600  1
  O  O14  1  0.84107900  0.73642400  0.36823100  1
  O  O15  1  0.34188500  0.73673900  0.86840600  1
loop_
_geom_bond_atom_site_label_1
_geom_bond_atom_site_label_2
_geom_bond_distance
_geom_bond_site_symmetry_2
Mn0 O3 2.078634 1_545
Mn0 O5 2.078634 1_555
Mn0 O7 2.078639 1_655
Mn0 O0 2.085294 1_555
Mn1 O12 2.073020 1_555
Mn1 O14 2.073020 1_455
Mn1 O10 2.073030 1_565
Mn1 O9 2.083544 1_555
Mn2 O8 2.066716 1_556
Mn2 O15 2.075147 1_555
Mn2 O11 2.075152 1_565
Mn2 O13 2.075152 1_555
Fe0 O13 2.058270 1_554
Fe0 O11 2.058270 1_554
Fe0 O15 2.058274 1_654
Fe0 O2 2.065634 1_655
Fe0 O6 2.065634 1_555
Fe0 O4 2.065634 1_655
Fe1 O10 2.054442 1_555
Fe1 O12 2.054446 1_555
Fe1 O14 2.054446 1_555
Fe1 O7 2.054776 1_555
Fe1 O3 2.054780 1_555
Fe1 O5 2.054780 1_555
Fe2 O8 2.042378 1_545
Fe2 O0 2.054587 1_555
Fe2 O14 2.058660 1_545
Fe2 O12 2.058660 1_545
Fe2 O4 2.074790 1_655
Fe2 O6 2.074790 1_555
Fe3 O13 2.047998 1_455
Fe3 O15 2.047998 1_555
Fe3 O5 2.057181 1_565
Fe3 O7 2.057181 1_565
Fe3 O9 2.065761 1_555
Fe3 O1 2.068740 1_565
Fe4 O8 2.042374 1_555
Fe4 O0 2.054583 1_555
Fe4 O14 2.058660 1_555
Fe4 O10 2.058660 1_555
Fe4 O6 2.074785 1_555
Fe4 O2 2.074790 1_655
Fe5 O15 2.047998 1_555
Fe5 O11 2.047999 1_455
Fe5 O3 2.057181 1_555
Fe5 O7 2.057181 1_555
Fe5 O9 2.065770 1_555
Fe5 O1 2.068740 1_555
Fe6 O8 2.042374 1_555
Fe6 O0 2.054592 1_455
Fe6 O10 2.058651 1_555
Fe6 O12 2.058659 1_555
Fe6 O4 2.074786 1_555
Fe6 O2 2.074790 1_555
Fe7 O13 2.047999 1_555
Fe7 O11 2.047999 1_555
Fe7 O5 2.057181 1_555
Fe7 O3 2.057181 1_555
Fe7 O9 2.065765 1_655
Fe7 O1 2.068736 1_555
Cu0 O1 2.026177 1_554
Cu0 O6 2.027728 1_555
Cu0 O2 2.027728 1_545
Cu0 O4 2.027728 1_555
