# generated using pymatgen
data_Na3H4Au(SO2)4
_symmetry_space_group_name_H-M   'P 1'
_cell_length_a   11.60828700
_cell_length_b   5.51016600
_cell_length_c   18.42989338
_cell_angle_alpha   82.11719099
_cell_angle_beta   90.00000000
_cell_angle_gamma   90.00000000
_symmetry_Int_Tables_number   1
_chemical_formula_structural   Na3H4Au(SO2)4
_chemical_formula_sum   'Na12 H16 Au4 S16 O32'
_cell_volume   1167.70283020
_cell_formula_units_Z   4
loop_
 _symmetry_equiv_pos_site_id
 _symmetry_equiv_pos_as_xyz
  1  'x, y, z'
loop_
 _atom_site_type_symbol
 _atom_site_label
 _atom_site_symmetry_multiplicity
 _atom_site_fract_x
 _atom_site_fract_y
 _atom_site_fract_z
 _atom_site_occupancy
  Na  Na0  1  0.82432600  0.65473400  0.71631500  1
  Na  Na1  1  0.32432600  0.34526600  0.78368500  1
  Na  Na2  1  0.17567400  0.34526600  0.28368500  1
  Na  Na3  1  0.67567400  0.65473400  0.21631500  1
  Na  Na4  1  0.58748000  0.31739600  0.87506300  1
  Na  Na5  1  0.08748000  0.68260400  0.62493700  1
  Na  Na6  1  0.41252000  0.68260400  0.12493700  1
  Na  Na7  1  0.91252000  0.31739600  0.37506300  1
  Na  Na8  1  0.39813200  0.75997700  0.91259900  1
  Na  Na9  1  0.89813200  0.24002300  0.58740100  1
  Na  Na10  1  0.60186800  0.24002300  0.08740100  1
  Na  Na11  1  0.10186800  0.75997700  0.41259900  1
  H  H0  1  0.80593400  0.52738000  0.86948600  1
  H  H1  1  0.30593400  0.47262000  0.63051400  1
  H  H2  1  0.19406600  0.47262000  0.13051400  1
  H  H3  1  0.69406600  0.52738000  0.36948600  1
  H  H4  1  0.82828200  0.27783100  0.84139500  1
  H  H5  1  0.32828200  0.72216900  0.65860500  1
  H  H6  1  0.17171800  0.72216900  0.15860500  1
  H  H7  1  0.67171800  0.27783100  0.34139500  1
  H  H8  1  0.20514500  0.80836500  0.80243500  1
  H  H9  1  0.70514500  0.19163500  0.69756500  1
  H  H10  1  0.79485500  0.19163500  0.19756500  1
  H  H11  1  0.29485500  0.80836500  0.30243500  1
  H  H12  1  0.17916900  0.62626000  0.87353000  1
  H  H13  1  0.67916900  0.37374000  0.62647000  1
  H  H14  1  0.82083100  0.37374000  0.12647000  1
  H  H15  1  0.32083100  0.62626000  0.37353000  1
  Au  Au0  1  0.56500100  0.85150600  0.57142800  1
  Au  Au1  1  0.06500100  0.14849400  0.92857200  1
  Au  Au2  1  0.43499900  0.14849400  0.42857200  1
  Au  Au3  1  0.93499900  0.85150600  0.07142800  1
  S  S0  1  0.46045800  0.02551300  0.65759200  1
  S  S1  1  0.96045800  0.97448700  0.84240800  1
  S  S2  1  0.53954200  0.97448700  0.34240800  1
  S  S3  1  0.03954200  0.02551300  0.15759200  1
  S  S4  1  0.67296100  0.64748400  0.49399600  1
  S  S5  1  0.17296100  0.35251600  0.00600400  1
  S  S6  1  0.32703900  0.35251600  0.50600400  1
  S  S7  1  0.82703900  0.64748400  0.99399600  1
  S  S8  1  0.53453500  0.87909600  0.75805900  1
  S  S9  1  0.03453500  0.12090400  0.74194100  1
  S  S10  1  0.46546500  0.12090400  0.24194100  1
  S  S11  1  0.96546500  0.87909600  0.25805900  1
  S  S12  1  0.84031200  0.78185000  0.50026000  1
  S  S13  1  0.34031200  0.21815000  0.99974000  1
  S  S14  1  0.15968800  0.21815000  0.49974000  1
  S  S15  1  0.65968800  0.78185000  0.00026000  1
  O  O0  1  0.48158800  0.03290300  0.80997300  1
  O  O1  1  0.98158800  0.96709700  0.69002700  1
  O  O2  1  0.51841200  0.96709700  0.19002700  1
  O  O3  1  0.01841200  0.03290300  0.30997300  1
  O  O4  1  0.66078000  0.91476800  0.75289200  1
  O  O5  1  0.16078000  0.08523200  0.74710800  1
  O  O6  1  0.33922000  0.08523200  0.24710800  1
  O  O7  1  0.83922000  0.91476800  0.25289200  1
  O  O8  1  0.50232400  0.61968000  0.77787400  1
  O  O9  1  0.00232400  0.38032000  0.72212600  1
  O  O10  1  0.49767600  0.38032000  0.22212600  1
  O  O11  1  0.99767600  0.61968000  0.27787400  1
  O  O12  1  0.84269100  0.05080200  0.48192400  1
  O  O13  1  0.34269100  0.94919800  0.01807600  1
  O  O14  1  0.15730900  0.94919800  0.51807600  1
  O  O15  1  0.65730900  0.05080200  0.98192400  1
  O  O16  1  0.90493000  0.65715200  0.44687000  1
  O  O17  1  0.40493000  0.34284800  0.05313000  1
  O  O18  1  0.09507000  0.34284800  0.55313000  1
  O  O19  1  0.59507000  0.65715200  0.94687000  1
  O  O20  1  0.88292600  0.70606200  0.57619100  1
  O  O21  1  0.38292600  0.29393800  0.92380900  1
  O  O22  1  0.11707400  0.29393800  0.42380900  1
  O  O23  1  0.61707400  0.70606200  0.07619100  1
  O  O24  1  0.77716300  0.42324300  0.83433600  1
  O  O25  1  0.27716300  0.57675700  0.66566400  1
  O  O26  1  0.22283700  0.57675700  0.16566400  1
  O  O27  1  0.72283700  0.42324300  0.33433600  1
  O  O28  1  0.23949800  0.67544400  0.83737300  1
  O  O29  1  0.73949800  0.32455600  0.66262700  1
  O  O30  1  0.76050200  0.32455600  0.16262700  1
  O  O31  1  0.26050200  0.67544400  0.33737300  1
loop_
_geom_bond_atom_site_label_1
_geom_bond_atom_site_label_2
_geom_bond_distance
_geom_bond_site_symmetry_2
Na0 O29 2.398426 1_555
Na0 O24 2.428348 1_555
Na0 O1 2.510186 1_555
Na0 O4 2.525198 1_555
Na0 O9 2.553976 1_655
Na0 O20 2.647930 1_555
Na1 O28 2.398426 1_555
Na1 O25 2.428348 1_555
Na1 O0 2.510186 1_555
Na1 O5 2.525198 1_555
Na1 O8 2.553976 1_555
Na1 O21 2.647930 1_555
Na2 O31 2.398426 1_555
Na2 O26 2.428348 1_555
Na2 O3 2.510186 1_555
Na2 O6 2.525198 1_555
Na2 O11 2.553976 1_455
Na2 O22 2.647930 1_555
Na3 O30 2.398426 1_555
Na3 O27 2.428348 1_555
Na3 O2 2.510186 1_555
Na3 O7 2.525198 1_555
Na3 O10 2.553976 1_555
Na3 O23 2.647930 1_555
Na4 O24 2.373145 1_555
Na4 O15 2.429010 1_555
Na4 O0 2.433769 1_555
Na4 O19 2.437933 1_555
Na4 O8 2.478203 1_555
Na4 O21 2.535804 1_555
Na5 O25 2.373145 1_555
Na5 O14 2.429010 1_555
Na5 O1 2.433769 1_455
Na5 O18 2.437933 1_555
Na5 O9 2.478203 1_555
Na5 O20 2.535804 1_455
Na6 O26 2.373145 1_555
Na6 O13 2.429010 1_555
Na6 O2 2.433769 1_555
Na6 O17 2.437933 1_555
Na6 O10 2.478203 1_555
Na6 O23 2.535804 1_555
Na7 O27 2.373145 1_555
Na7 O12 2.429010 1_555
Na7 O3 2.433769 1_655
Na7 O16 2.437933 1_555
Na7 O11 2.478203 1_555
Na7 O22 2.535804 1_655
Na8 O28 2.388980 1_555
Na8 O13 2.415801 1_556
Na8 O19 2.418285 1_555
Na8 O0 2.448937 1_565
Na8 O21 2.553957 1_555
Na9 O29 2.388980 1_555
Na9 O12 2.415801 1_555
Na9 O18 2.418285 1_655
Na9 O1 2.448937 1_545
Na9 O20 2.553957 1_555
Na10 O30 2.388980 1_555
Na10 O15 2.415801 1_554
Na10 O17 2.418285 1_555
Na10 O2 2.448937 1_545
Na10 O23 2.553957 1_555
Na11 O31 2.388980 1_555
Na11 O14 2.415801 1_555
Na11 O16 2.418285 1_455
Na11 O3 2.448937 1_565
Na11 O22 2.553957 1_555
H0 O24 0.981032 1_555
H1 O25 0.981032 1_555
H2 O26 0.981032 1_555
H3 O27 0.981032 1_555
H4 O24 0.991188 1_555
H5 O25 0.991188 1_555
H6 O26 0.991188 1_555
H7 O27 0.991188 1_555
H8 O28 0.990309 1_555
H9 O29 0.990309 1_555
H10 O30 0.990309 1_555
H11 O31 0.990309 1_555
H12 O28 0.978981 1_555
H13 O29 0.978981 1_555
H14 O30 0.978981 1_555
H15 O31 0.978981 1_555
Au0 S4 2.304553 1_555
Au0 S0 2.308985 1_565
Au1 S5 2.304553 1_556
Au1 S1 2.308985 1_445
Au2 S6 2.304553 1_555
Au2 S2 2.308985 1_545
Au3 S7 2.304553 1_554
Au3 S3 2.308985 1_665
S0 S8 2.099761 1_545
S1 S9 2.099761 1_665
S10 S2 2.099761 1_545
S11 S3 2.099761 1_665
S12 S4 2.087787 1_555
S13 S5 2.087787 1_556
S14 S6 2.087787 1_555
S15 S7 2.087787 1_554
O0 S8 1.494606 1_545
O1 S9 1.494606 1_665
O2 S10 1.494606 1_565
O3 S11 1.494606 1_445
O4 S8 1.479941 1_555
O5 S9 1.479941 1_555
O6 S10 1.479941 1_555
O7 S11 1.479941 1_555
O8 S8 1.474194 1_555
O9 S9 1.474194 1_555
O10 S10 1.474194 1_555
O11 S11 1.474194 1_555
O12 S12 1.474391 1_545
O13 S13 1.474391 1_564
O14 S14 1.474391 1_565
O15 S15 1.474391 1_546
O16 S12 1.479332 1_555
O17 S13 1.479332 1_554
O18 S14 1.479332 1_555
O19 S15 1.479332 1_556
O20 S12 1.489000 1_555
O21 S13 1.489000 1_555
O22 S14 1.489000 1_555
O23 S15 1.489000 1_555
