# generated using pymatgen
data_MgCr2Cu2(WO4)4
_symmetry_space_group_name_H-M   'P 1'
_cell_length_a   5.02669897
_cell_length_b   7.61587648
_cell_length_c   7.61584458
_cell_angle_alpha   100.99609201
_cell_angle_beta   90.40490103
_cell_angle_gamma   90.40471404
_symmetry_Int_Tables_number   1
_chemical_formula_structural   MgCr2Cu2(WO4)4
_chemical_formula_sum   'Mg1 Cr2 Cu2 W4 O16'
_cell_volume   286.18468317
_cell_formula_units_Z   1
loop_
 _symmetry_equiv_pos_site_id
 _symmetry_equiv_pos_as_xyz
  1  'x, y, z'
loop_
 _atom_site_type_symbol
 _atom_site_label
 _atom_site_symmetry_multiplicity
 _atom_site_fract_x
 _atom_site_fract_y
 _atom_site_fract_z
 _atom_site_occupancy
  Mg  Mg0  1  0.75000100  0.05393700  0.94606300  1
  Cr  Cr0  1  0.74999800  0.82161200  0.17838400  1
  Cr  Cr1  1  0.25000500  0.17989500  0.82010200  1
  Cu  Cu0  1  0.75000600  0.33315500  0.66685400  1
  Cu  Cu1  1  0.24999800  0.66017100  0.33982600  1
  W  W0  1  0.76238500  0.36377900  0.18478000  1
  W  W1  1  0.24596400  0.66364300  0.83525600  1
  W  W2  1  0.73761400  0.81522000  0.63621700  1
  W  W3  1  0.25403600  0.16474600  0.33635600  1
  O  O0  1  0.42242700  0.70178900  0.05542100  1
  O  O1  1  0.58365000  0.29191200  0.94532100  1
  O  O2  1  0.07757100  0.94458000  0.29821200  1
  O  O3  1  0.91635200  0.05467600  0.70808600  1
  O  O4  1  0.92099600  0.80687000  0.92679300  1
  O  O5  1  0.06467300  0.19491400  0.07473900  1
  O  O6  1  0.57900500  0.07320700  0.19313000  1
  O  O7  1  0.43532400  0.92526200  0.80508400  1
  O  O8  1  0.90872800  0.58720000  0.19320500  1
  O  O9  1  0.11330100  0.43290000  0.81863500  1
  O  O10  1  0.59126400  0.80679500  0.41280400  1
  O  O11  1  0.38670100  0.18136400  0.56709800  1
  O  O12  1  0.56484200  0.59066800  0.69596300  1
  O  O13  1  0.41531100  0.40016300  0.30785700  1
  O  O14  1  0.93515900  0.30403700  0.40933200  1
  O  O15  1  0.08468800  0.69214500  0.59983800  1
loop_
_geom_bond_atom_site_label_1
_geom_bond_atom_site_label_2
_geom_bond_distance
_geom_bond_site_symmetry_2
Mg0 O1 2.002313 1_555
Mg0 O3 2.002318 1_555
Mg0 O5 2.041517 1_656
Mg0 O7 2.041539 1_545
Mg0 O6 2.054303 1_556
Mg0 O4 2.054306 1_545
Cr0 O8 1.982982 1_555
Cr0 O10 1.983034 1_555
Cr0 O0 2.012957 1_555
Cr0 O2 2.012993 1_655
Cr0 O4 2.089347 1_554
Cr0 O6 2.089365 1_565
Cr1 O1 2.024064 1_555
Cr1 O3 2.024095 1_455
Cr1 O11 2.052269 1_555
Cr1 O9 2.052293 1_555
Cr1 O7 2.141021 1_545
Cr1 O5 2.141071 1_556
Cu0 O12 2.150481 1_555
Cu0 O14 2.150508 1_555
Cu0 O9 2.205393 1_655
Cu0 O11 2.205491 1_555
Cu0 O1 2.360303 1_555
Cu0 O3 2.360349 1_555
Cu1 O8 2.054573 1_455
Cu1 O10 2.054579 1_555
Cu1 O13 2.124414 1_555
Cu1 O15 2.124428 1_555
Cu1 O0 2.414074 1_555
Cu1 O2 2.414095 1_555
O0 W1 1.863381 1_554
O1 W0 2.005420 1_556
O2 W3 1.863401 1_565
O3 W2 2.005417 1_545
O4 W1 2.023706 1_655
O4 W2 2.403485 1_555
O5 W0 2.073556 1_455
O5 W3 2.253788 1_555
O6 W3 2.023710 1_555
O6 W0 2.403465 1_555
O7 W2 2.073573 1_555
O7 W1 2.253814 1_555
O8 W0 1.838619 1_555
O9 W1 1.856409 1_555
O10 W2 1.838568 1_555
O11 W3 1.856399 1_555
O12 W1 1.953267 1_555
O12 W2 2.041418 1_555
O13 W0 1.982421 1_555
O13 W3 2.012270 1_555
O14 W3 1.953257 1_655
O14 W0 2.041402 1_555
O15 W2 1.982412 1_455
O15 W1 2.012276 1_555
