# generated using pymatgen
data_Te3MoWSe
_symmetry_space_group_name_H-M   'P 1'
_cell_length_a   3.50031054
_cell_length_b   3.50031054
_cell_length_c   39.59917600
_cell_angle_alpha   90.00000000
_cell_angle_beta   90.00000000
_cell_angle_gamma   120.00001013
_symmetry_Int_Tables_number   1
_chemical_formula_structural   Te3MoWSe
_chemical_formula_sum   'Te6 Mo2 W2 Se2'
_cell_volume   420.17468854
_cell_formula_units_Z   2
loop_
 _symmetry_equiv_pos_site_id
 _symmetry_equiv_pos_as_xyz
  1  'x, y, z'
loop_
 _atom_site_type_symbol
 _atom_site_label
 _atom_site_symmetry_multiplicity
 _atom_site_fract_x
 _atom_site_fract_y
 _atom_site_fract_z
 _atom_site_occupancy
  Te  Te0  1  0.00000000  0.00000000  0.70403400  1
  Te  Te1  1  0.33333300  0.66666700  0.04743500  1
  Te  Te2  1  0.33333300  0.66666700  0.42344300  1
  Te  Te3  1  0.33333300  0.66666700  0.14044200  1
  Te  Te4  1  0.33333300  0.66666700  0.51585700  1
  Te  Te5  1  0.00000000  0.00000000  0.61102800  1
  Mo  Mo0  1  0.00000000  0.00000000  0.46964100  1
  Mo  Mo1  1  0.33333300  0.66666700  0.28179900  1
  W  W0  1  0.00000000  0.00000000  0.09392600  1
  W  W1  1  0.33333300  0.66666700  0.65755200  1
  Se  Se0  1  0.00000000  0.00000000  0.32265900  1
  Se  Se1  1  0.00000000  0.00000000  0.24093300  1
loop_
_geom_bond_atom_site_label_1
_geom_bond_atom_site_label_2
_geom_bond_distance
_geom_bond_site_symmetry_2
Te0 W1 2.733503 1_545
Te0 W1 2.733505 1_555
Te0 W1 2.733505 1_445
Te1 W0 2.733743 1_565
Te1 W0 2.733745 1_665
Te1 W0 2.733745 1_555
Te3 W0 2.734410 1_565
Te3 W0 2.734412 1_665
Te3 W0 2.734412 1_555
Te5 W1 2.734623 1_545
Te5 W1 2.734625 1_445
Te5 W1 2.734625 1_555
Mo0 Te2 2.725943 1_545
Mo0 Te2 2.725945 1_555
Mo0 Te2 2.725945 1_445
Mo0 Te4 2.726421 1_545
Mo0 Te4 2.726423 1_445
Mo0 Te4 2.726423 1_555
Mo1 Se0 2.588831 1_565
Mo1 Se0 2.588833 1_665
Mo1 Se0 2.588833 1_555
Mo1 Se1 2.588980 1_565
Mo1 Se1 2.588982 1_555
Mo1 Se1 2.588982 1_665
