# generated using pymatgen
data_CsLiAcO3
_symmetry_space_group_name_H-M   'P 1'
_cell_length_a   4.70582000
_cell_length_b   5.40339700
_cell_length_c   4.70956800
_cell_angle_alpha   90.00000000
_cell_angle_beta   90.00000000
_cell_angle_gamma   90.00000000
_symmetry_Int_Tables_number   1
_chemical_formula_structural   CsLiAcO3
_chemical_formula_sum   'Cs1 Li1 Ac1 O3'
_cell_volume   119.75213375
_cell_formula_units_Z   1
loop_
 _symmetry_equiv_pos_site_id
 _symmetry_equiv_pos_as_xyz
  1  'x, y, z'
loop_
 _atom_site_type_symbol
 _atom_site_label
 _atom_site_symmetry_multiplicity
 _atom_site_fract_x
 _atom_site_fract_y
 _atom_site_fract_z
 _atom_site_occupancy
  Cs  Cs0  1  0.00000000  0.00000000  0.00000000  1
  Li  Li0  1  0.00000000  0.50000000  0.00000000  1
  Ac  Ac0  1  0.49999900  0.49999900  0.49999900  1
  O  O0  1  0.49999900  0.49999900  0.00000000  1
  O  O1  1  0.49999900  0.00000000  0.49999900  1
  O  O2  1  0.00000000  0.49999900  0.49999900  1
loop_
_geom_bond_atom_site_label_1
_geom_bond_atom_site_label_2
_geom_bond_distance
_geom_bond_site_symmetry_2
Cs0 Li0 2.701699 1_555
Cs0 Li0 2.701699 1_545
Cs0 O1 3.328836 1_555
Cs0 O1 3.328843 1_455
Cs0 O1 3.328843 1_554
Cs0 O1 3.328849 1_454
Li0 O0 2.352905 1_555
Li0 O0 2.352915 1_455
Li0 O2 2.354779 1_555
Li0 O2 2.354789 1_554
Ac0 O2 2.352905 1_555
Ac0 O2 2.352915 1_655
Ac0 O0 2.354779 1_555
Ac0 O0 2.354789 1_556
Ac0 O1 2.701693 1_555
Ac0 O1 2.701704 1_565
