# generated using pymatgen
data_Ce3Al4Co3
_symmetry_space_group_name_H-M   'P 1'
_cell_length_a   4.18738100
_cell_length_b   24.27635700
_cell_length_c   7.00410000
_cell_angle_alpha   90.00000000
_cell_angle_beta   90.00000000
_cell_angle_gamma   90.00000000
_symmetry_Int_Tables_number   1
_chemical_formula_structural   Ce3Al4Co3
_chemical_formula_sum   'Ce12 Al16 Co12'
_cell_volume   711.99727522
_cell_formula_units_Z   4
loop_
 _symmetry_equiv_pos_site_id
 _symmetry_equiv_pos_as_xyz
  1  'x, y, z'
loop_
 _atom_site_type_symbol
 _atom_site_label
 _atom_site_symmetry_multiplicity
 _atom_site_fract_x
 _atom_site_fract_y
 _atom_site_fract_z
 _atom_site_occupancy
  Ce  Ce0  1  0.75000000  0.96208900  0.35074400  1
  Ce  Ce1  1  0.25000000  0.03791100  0.64925600  1
  Ce  Ce2  1  0.25000000  0.53791100  0.85074400  1
  Ce  Ce3  1  0.75000000  0.46208900  0.14925600  1
  Ce  Ce4  1  0.75000000  0.86705400  0.97319600  1
  Ce  Ce5  1  0.25000000  0.13294600  0.02680400  1
  Ce  Ce6  1  0.25000000  0.63294600  0.47319600  1
  Ce  Ce7  1  0.75000000  0.36705400  0.52680400  1
  Ce  Ce8  1  0.75000000  0.82798000  0.46742500  1
  Ce  Ce9  1  0.25000000  0.17202000  0.53257500  1
  Ce  Ce10  1  0.25000000  0.67202000  0.96742500  1
  Ce  Ce11  1  0.75000000  0.32798000  0.03257500  1
  Al  Al0  1  0.75000000  0.53733100  0.51200000  1
  Al  Al1  1  0.25000000  0.46266900  0.48800000  1
  Al  Al2  1  0.25000000  0.96266900  0.01200000  1
  Al  Al3  1  0.75000000  0.03733100  0.98800000  1
  Al  Al4  1  0.75000000  0.71488200  0.27073200  1
  Al  Al5  1  0.25000000  0.28511800  0.72926800  1
  Al  Al6  1  0.25000000  0.78511800  0.77073200  1
  Al  Al7  1  0.75000000  0.21488200  0.22926800  1
  Al  Al8  1  0.75000000  0.71329000  0.66967000  1
  Al  Al9  1  0.25000000  0.28671000  0.33033000  1
  Al  Al10  1  0.25000000  0.78671000  0.16967000  1
  Al  Al11  1  0.75000000  0.21329000  0.83033000  1
  Al  Al12  1  0.75000000  0.59174200  0.14679700  1
  Al  Al13  1  0.25000000  0.40825800  0.85320300  1
  Al  Al14  1  0.25000000  0.90825800  0.64679700  1
  Al  Al15  1  0.75000000  0.09174200  0.35320300  1
  Co  Co0  1  0.75000000  0.94755000  0.79572700  1
  Co  Co1  1  0.25000000  0.05245000  0.20427300  1
  Co  Co2  1  0.25000000  0.55245000  0.29572700  1
  Co  Co3  1  0.75000000  0.44755000  0.70427300  1
  Co  Co4  1  0.75000000  0.77072000  0.96961200  1
  Co  Co5  1  0.25000000  0.22928000  0.03038800  1
  Co  Co6  1  0.25000000  0.72928000  0.46961200  1
  Co  Co7  1  0.75000000  0.27072000  0.53038800  1
  Co  Co8  1  0.75000000  0.61014700  0.77700600  1
  Co  Co9  1  0.25000000  0.38985300  0.22299400  1
  Co  Co10  1  0.25000000  0.88985300  0.27700600  1
  Co  Co11  1  0.75000000  0.11014700  0.72299400  1
loop_
_geom_bond_atom_site_label_1
_geom_bond_atom_site_label_2
_geom_bond_distance
_geom_bond_site_symmetry_2
Ce0 Co10 2.779476 1_655
Ce0 Co10 2.779476 1_555
Ce0 Co0 3.136627 1_555
Ce0 Co1 3.201257 1_565
Ce0 Co1 3.201257 1_665
Ce0 Ce8 3.356684 1_555
Ce0 Ce1 3.484699 1_665
Ce0 Ce1 3.484699 1_565
Ce0 Ce4 3.509344 1_554
Ce1 Co11 2.779476 1_455
Ce1 Co11 2.779476 1_555
Ce1 Co1 3.136627 1_555
Ce1 Co0 3.201257 1_545
Ce1 Co0 3.201257 1_445
Ce1 Ce9 3.356684 1_555
Ce1 Ce5 3.509344 1_556
Ce2 Co8 2.779476 1_555
Ce2 Co8 2.779476 1_455
Ce2 Co2 3.136627 1_556
Ce2 Co3 3.201257 1_555
Ce2 Co3 3.201257 1_455
Ce2 Ce3 3.484699 1_556
Ce2 Ce3 3.484699 1_456
Ce2 Ce6 3.509344 1_555
Ce3 Co9 2.779476 1_555
Ce3 Co9 2.779476 1_655
Ce3 Co3 3.136627 1_554
Ce3 Co2 3.201257 1_655
Ce3 Co2 3.201257 1_555
Ce3 Ce7 3.509344 1_555
Ce4 Co0 2.315983 1_555
Ce4 Co4 2.338773 1_555
Ce4 Co10 3.036100 1_556
Ce4 Co10 3.036100 1_656
Ce5 Co1 2.315983 1_555
Ce5 Co5 2.338773 1_555
Ce5 Co11 3.036100 1_554
Ce5 Co11 3.036100 1_454
Ce6 Co2 2.315983 1_555
Ce6 Co6 2.338773 1_555
Ce6 Co8 3.036100 1_455
Ce6 Co8 3.036100 1_555
Ce7 Co3 2.315983 1_555
Ce7 Co7 2.338773 1_555
Ce7 Co9 3.036100 1_655
Ce7 Co9 3.036100 1_555
Ce8 Co10 2.901463 1_655
Ce8 Co10 2.901463 1_555
Ce8 Co6 3.181974 1_555
Ce8 Co6 3.181974 1_655
Ce9 Co11 2.901463 1_455
Ce9 Co11 2.901463 1_555
Ce9 Co7 3.181974 1_455
Ce9 Co7 3.181974 1_555
Ce10 Co8 2.901463 1_455
Ce10 Co8 2.901463 1_555
Ce10 Co4 3.181974 1_555
Ce10 Co4 3.181974 1_455
Ce10 Ce2 3.356684 1_555
Ce11 Co9 2.901463 1_555
Ce11 Co9 2.901463 1_655
Ce11 Co5 3.181974 1_655
Ce11 Co5 3.181974 1_555
Ce11 Ce3 3.356684 1_555
Al0 Co3 2.562042 1_555
Al0 Co8 2.563201 1_555
Al0 Co2 2.610147 1_655
Al0 Co2 2.610147 1_555
Al0 Al1 2.774352 1_655
Al0 Al1 2.774352 1_555
Al0 Al12 2.878841 1_555
Al0 Ce3 3.129154 1_555
Al0 Ce6 3.137723 1_555
Al0 Ce6 3.137723 1_655
Al0 Ce2 3.164325 1_655
Al0 Ce2 3.164325 1_555
Al1 Co2 2.562042 1_555
Al1 Co9 2.563201 1_555
Al1 Co3 2.610147 1_455
Al1 Co3 2.610147 1_555
Al1 Al13 2.878841 1_555
Al1 Ce2 3.129154 1_555
Al1 Ce7 3.137723 1_455
Al1 Ce7 3.137723 1_555
Al1 Ce3 3.164325 1_555
Al1 Ce3 3.164325 1_455
Al2 Co1 2.562042 1_565
Al2 Co10 2.563201 1_555
Al2 Co0 2.610147 1_454
Al2 Co0 2.610147 1_554
Al2 Al3 2.774352 1_564
Al2 Al3 2.774352 1_464
Al2 Ce1 3.129154 1_564
Al2 Ce4 3.137723 1_454
Al2 Ce4 3.137723 1_554
Al2 Ce0 3.164325 1_455
Al2 Ce0 3.164325 1_555
Al3 Co0 2.562042 1_545
Al3 Co11 2.563201 1_555
Al3 Co1 2.610147 1_556
Al3 Co1 2.610147 1_656
Al3 Ce0 3.129154 1_546
Al3 Ce5 3.137723 1_556
Al3 Ce5 3.137723 1_656
Al3 Ce1 3.164325 1_555
Al3 Ce1 3.164325 1_655
Al4 Co4 2.507128 1_554
Al4 Co6 2.538916 1_555
Al4 Co6 2.538916 1_655
Al4 Al8 2.794469 1_555
Al4 Ce8 3.071856 1_555
Al4 Ce10 3.159002 1_554
Al4 Ce10 3.159002 1_654
Al4 Ce6 3.217302 1_655
Al4 Ce6 3.217302 1_555
Al5 Co5 2.507128 1_556
Al5 Co7 2.538916 1_455
Al5 Co7 2.538916 1_555
Al5 Al9 2.794469 1_555
Al5 Ce9 3.071856 1_555
Al5 Ce11 3.159002 1_456
Al5 Ce11 3.159002 1_556
Al5 Ce7 3.217302 1_555
Al5 Ce7 3.217302 1_455
Al6 Co6 2.507128 1_555
Al6 Co4 2.538916 1_555
Al6 Co4 2.538916 1_455
Al6 Al8 2.815165 1_455
Al6 Al8 2.815165 1_555
Al6 Ce10 3.071856 1_555
Al6 Ce8 3.159002 1_555
Al6 Ce8 3.159002 1_455
Al6 Ce4 3.217302 1_455
Al6 Ce4 3.217302 1_555
Al7 Co7 2.507128 1_555
Al7 Co5 2.538916 1_555
Al7 Co5 2.538916 1_655
Al7 Al9 2.815165 1_555
Al7 Al9 2.815165 1_655
Al7 Ce11 3.071856 1_555
Al7 Ce9 3.159002 1_655
Al7 Ce9 3.159002 1_555
Al7 Ce5 3.217302 1_555
Al7 Ce5 3.217302 1_655
Al8 Co4 2.521355 1_555
Al8 Co6 2.549050 1_555
Al8 Co6 2.549050 1_655
Al8 Co8 2.614362 1_555
Al8 Ce10 3.120360 1_555
Al8 Ce10 3.120360 1_655
Al8 Ce8 3.123888 1_555
Al8 Ce6 3.175145 1_555
Al8 Ce6 3.175145 1_655
Al9 Co5 2.521355 1_555
Al9 Co7 2.549050 1_455
Al9 Co7 2.549050 1_555
Al9 Co9 2.614362 1_555
Al9 Ce11 3.120360 1_455
Al9 Ce11 3.120360 1_555
Al9 Ce9 3.123888 1_555
Al9 Ce7 3.175145 1_455
Al9 Ce7 3.175145 1_555
Al10 Co6 2.521355 1_555
Al10 Co4 2.549050 1_554
Al10 Co4 2.549050 1_454
Al10 Co10 2.614362 1_555
Al10 Al6 2.794469 1_554
Al10 Al4 2.815165 1_555
Al10 Al4 2.815165 1_455
Al10 Ce8 3.120360 1_555
Al10 Ce8 3.120360 1_455
Al10 Ce10 3.123888 1_554
Al10 Ce4 3.175145 1_554
Al10 Ce4 3.175145 1_454
Al11 Co7 2.521355 1_555
Al11 Co5 2.549050 1_656
Al11 Co5 2.549050 1_556
Al11 Co11 2.614362 1_555
Al11 Al7 2.794469 1_556
Al11 Al5 2.815165 1_555
Al11 Al5 2.815165 1_655
Al11 Ce9 3.120360 1_655
Al11 Ce9 3.120360 1_555
Al11 Ce11 3.123888 1_556
Al11 Ce5 3.175145 1_656
Al11 Ce5 3.175145 1_556
Al12 Co2 2.526164 1_655
Al12 Co2 2.526164 1_555
Al12 Co8 2.628310 1_554
Al12 Al4 3.112872 1_555
Al12 Ce10 3.124096 1_654
Al12 Ce10 3.124096 1_554
Al12 Ce3 3.147550 1_555
Al12 Ce2 3.223519 1_654
Al12 Ce2 3.223519 1_554
Al13 Co3 2.526164 1_455
Al13 Co3 2.526164 1_555
Al13 Co9 2.628310 1_556
Al13 Al5 3.112872 1_555
Al13 Ce11 3.124096 1_556
Al13 Ce11 3.124096 1_456
Al13 Ce2 3.147550 1_555
Al13 Ce3 3.223519 1_456
Al13 Ce3 3.223519 1_556
Al14 Co0 2.526164 1_555
Al14 Co0 2.526164 1_455
Al14 Co10 2.628310 1_555
Al14 Al2 2.878841 1_556
Al14 Al6 3.112872 1_555
Al14 Ce8 3.124096 1_455
Al14 Ce8 3.124096 1_555
Al14 Ce1 3.147550 1_565
Al14 Ce0 3.223519 1_455
Al14 Ce0 3.223519 1_555
Al15 Co1 2.526164 1_555
Al15 Co1 2.526164 1_655
Al15 Co11 2.628310 1_555
Al15 Al3 2.878841 1_554
Al15 Al7 3.112872 1_555
Al15 Ce9 3.124096 1_655
Al15 Ce9 3.124096 1_555
Al15 Ce0 3.147550 1_545
Al15 Ce1 3.223519 1_555
Al15 Ce1 3.223519 1_655
