# generated using pymatgen
data_DyMnGa
_symmetry_space_group_name_H-M   'P 1'
_cell_length_a   7.20771502
_cell_length_b   7.20771502
_cell_length_c   3.96171700
_cell_angle_alpha   90.00000000
_cell_angle_beta   90.00000000
_cell_angle_gamma   120.71551078
_symmetry_Int_Tables_number   1
_chemical_formula_structural   DyMnGa
_chemical_formula_sum   'Dy3 Mn3 Ga3'
_cell_volume   176.94271078
_cell_formula_units_Z   3
loop_
 _symmetry_equiv_pos_site_id
 _symmetry_equiv_pos_as_xyz
  1  'x, y, z'
loop_
 _atom_site_type_symbol
 _atom_site_label
 _atom_site_symmetry_multiplicity
 _atom_site_fract_x
 _atom_site_fract_y
 _atom_site_fract_z
 _atom_site_occupancy
  Dy  Dy0  1  0.11893300  0.53041700  0.50000000  1
  Dy  Dy1  1  0.53041700  0.11893300  0.50000000  1
  Dy  Dy2  1  0.95035300  0.95035300  0.50000000  1
  Mn  Mn0  1  0.19365700  0.86460000  0.00000000  1
  Mn  Mn1  1  0.86460000  0.19365700  0.00000000  1
  Mn  Mn2  1  0.29022100  0.29022100  0.00000000  1
  Ga  Ga0  1  0.52329500  0.52329500  0.50000000  1
  Ga  Ga1  1  0.52209100  0.78043300  0.00000000  1
  Ga  Ga2  1  0.78043300  0.52209100  0.00000000  1
loop_
_geom_bond_atom_site_label_1
_geom_bond_atom_site_label_2
_geom_bond_distance
_geom_bond_site_symmetry_2
Dy0 Mn1 2.937762 1_455
Dy0 Mn1 2.937762 1_456
Dy0 Ga0 2.941077 1_555
Dy0 Mn0 2.947955 1_556
Dy0 Mn0 2.947955 1_555
Dy0 Ga2 3.119377 1_455
Dy0 Ga2 3.119377 1_456
Dy0 Ga1 3.204028 1_556
Dy0 Ga1 3.204028 1_555
Dy0 Mn2 3.260180 1_555
Dy0 Mn2 3.260180 1_556
Dy1 Mn0 2.937762 1_545
Dy1 Mn0 2.937762 1_546
Dy1 Ga0 2.941077 1_555
Dy1 Mn1 2.947955 1_555
Dy1 Mn1 2.947955 1_556
Dy1 Ga1 3.119377 1_545
Dy1 Ga1 3.119377 1_546
Dy1 Ga2 3.204028 1_556
Dy1 Ga2 3.204028 1_555
Dy1 Mn2 3.260180 1_555
Dy1 Mn2 3.260180 1_556
Dy2 Mn0 2.913493 1_656
Dy2 Mn1 2.913493 1_565
Dy2 Mn0 2.913493 1_655
Dy2 Mn1 2.913493 1_566
Dy2 Ga0 3.044763 1_555
Dy2 Mn2 3.129755 1_666
Dy2 Mn2 3.129755 1_665
Dy2 Ga1 3.330177 1_555
Dy2 Ga1 3.330177 1_556
Dy2 Ga2 3.330177 1_555
Dy2 Ga2 3.330177 1_556
Mn0 Mn2 2.777472 1_565
Mn1 Mn2 2.777472 1_655
Ga0 Mn2 2.585565 1_556
Ga0 Mn2 2.585565 1_555
Ga0 Ga2 2.715753 1_556
Ga0 Ga1 2.715753 1_556
Ga0 Ga1 2.715753 1_555
Ga0 Ga2 2.715753 1_555
Ga1 Mn0 2.727451 1_555
Ga1 Mn1 2.730224 1_565
Ga1 Mn2 3.040566 1_555
Ga2 Mn1 2.727451 1_555
Ga2 Mn0 2.730224 1_655
Ga2 Mn2 3.040566 1_555
