# generated using pymatgen
data_NaB(H4N)2
_symmetry_space_group_name_H-M   'P 1'
_cell_length_a   6.75671700
_cell_length_b   7.66030200
_cell_length_c   9.13419266
_cell_angle_alpha   72.30417809
_cell_angle_beta   90.00000000
_cell_angle_gamma   90.00000000
_symmetry_Int_Tables_number   1
_chemical_formula_structural   NaB(H4N)2
_chemical_formula_sum   'Na4 B4 H32 N8'
_cell_volume   450.40219686
_cell_formula_units_Z   4
loop_
 _symmetry_equiv_pos_site_id
 _symmetry_equiv_pos_as_xyz
  1  'x, y, z'
loop_
 _atom_site_type_symbol
 _atom_site_label
 _atom_site_symmetry_multiplicity
 _atom_site_fract_x
 _atom_site_fract_y
 _atom_site_fract_z
 _atom_site_occupancy
  Na  Na0  1  0.24806200  0.40227400  0.64328300  1
  Na  Na1  1  0.74806200  0.59772600  0.85671700  1
  Na  Na2  1  0.75193800  0.59772600  0.35671700  1
  Na  Na3  1  0.25193800  0.40227400  0.14328300  1
  B  B0  1  0.29013300  0.67765700  0.31051000  1
  B  B1  1  0.79013300  0.32234300  0.18949000  1
  B  B2  1  0.70986700  0.32234300  0.68949000  1
  B  B3  1  0.20986700  0.67765700  0.81051000  1
  H  H0  1  0.19032600  0.53654200  0.34172700  1
  H  H1  1  0.69032600  0.46345800  0.15827300  1
  H  H2  1  0.80967400  0.46345800  0.65827300  1
  H  H3  1  0.30967400  0.53654200  0.84172700  1
  H  H4  1  0.43632600  0.65055400  0.39428500  1
  H  H5  1  0.93632600  0.34944600  0.10571500  1
  H  H6  1  0.56367400  0.34944600  0.60571500  1
  H  H7  1  0.06367400  0.65055400  0.89428500  1
  H  H8  1  0.19154900  0.80004700  0.33542600  1
  H  H9  1  0.69154900  0.19995300  0.16457400  1
  H  H10  1  0.80845100  0.19995300  0.66457400  1
  H  H11  1  0.30845100  0.80004700  0.83542600  1
  H  H12  1  0.33979300  0.72269200  0.17407700  1
  H  H13  1  0.83979300  0.27730800  0.32592300  1
  H  H14  1  0.66020700  0.27730800  0.82592300  1
  H  H15  1  0.16020700  0.72269200  0.67407700  1
  H  H16  1  0.31877900  0.04216500  0.10200200  1
  H  H17  1  0.81877900  0.95783500  0.39799800  1
  H  H18  1  0.68122100  0.95783500  0.89799800  1
  H  H19  1  0.18122100  0.04216500  0.60200200  1
  H  H20  1  0.45479700  0.19132200  0.97305700  1
  H  H21  1  0.95479700  0.80867800  0.52694300  1
  H  H22  1  0.54520300  0.80867800  0.02694300  1
  H  H23  1  0.04520300  0.19132200  0.47305700  1
  H  H24  1  0.19034500  0.02443300  0.88290200  1
  H  H25  1  0.69034500  0.97556700  0.61709800  1
  H  H26  1  0.80965500  0.97556700  0.11709800  1
  H  H27  1  0.30965500  0.02443300  0.38290200  1
  H  H28  1  0.04636100  0.18049700  0.91922100  1
  H  H29  1  0.54636100  0.81950300  0.58077900  1
  H  H30  1  0.95363900  0.81950300  0.08077900  1
  H  H31  1  0.45363900  0.18049700  0.41922100  1
  N  N0  1  0.18798400  0.15473500  0.89270800  1
  N  N1  1  0.68798400  0.84526500  0.60729200  1
  N  N2  1  0.81201600  0.84526500  0.10729200  1
  N  N3  1  0.31201600  0.15473500  0.39270800  1
  N  N4  1  0.31445000  0.16557300  0.01686200  1
  N  N5  1  0.81445000  0.83442700  0.48313800  1
  N  N6  1  0.68555000  0.83442700  0.98313800  1
  N  N7  1  0.18555000  0.16557300  0.51686200  1
loop_
_geom_bond_atom_site_label_1
_geom_bond_atom_site_label_2
_geom_bond_distance
_geom_bond_site_symmetry_2
B0 H8 1.226457 1_555
B0 H4 1.227924 1_555
B0 H0 1.231755 1_555
B0 H12 1.234207 1_555
B1 H9 1.226457 1_555
B1 H5 1.227924 1_555
B1 H1 1.231755 1_555
B1 H13 1.234207 1_555
B2 H10 1.226457 1_555
B2 H6 1.227924 1_555
B2 H2 1.231755 1_555
B2 H14 1.234207 1_555
B3 H11 1.226457 1_555
B3 H7 1.227924 1_555
B3 H3 1.231755 1_555
B3 H15 1.234207 1_555
H0 Na3 2.377011 1_555
H1 Na2 2.377011 1_555
H2 Na1 2.377011 1_555
H3 Na0 2.377011 1_555
H4 Na2 2.216642 1_555
H5 Na3 2.216642 1_655
H6 Na0 2.216642 1_555
H7 Na1 2.216642 1_455
H16 N4 1.025859 1_555
H17 N5 1.025859 1_555
H18 N6 1.025859 1_555
H19 N7 1.025859 1_555
H20 N4 1.024827 1_556
H21 N5 1.024827 1_555
H22 N6 1.024827 1_554
H23 N7 1.024827 1_555
H24 N0 1.029047 1_555
H25 N1 1.029047 1_555
H26 N2 1.029047 1_555
H27 N3 1.029047 1_555
H28 N0 1.020940 1_555
H29 N1 1.020940 1_555
H30 N2 1.020940 1_555
H31 N3 1.020940 1_555
N0 Na0 2.514902 1_555
N1 Na1 2.514902 1_555
N2 Na2 2.514902 1_555
N3 Na3 2.514902 1_555
N4 Na3 2.464231 1_555
N5 Na2 2.464231 1_555
N6 Na1 2.464231 1_555
N7 Na0 2.464231 1_555
