# generated using pymatgen
data_TiCd3
_symmetry_space_group_name_H-M   'P 1'
_cell_length_a   6.20315045
_cell_length_b   6.20315045
_cell_length_c   4.83173700
_cell_angle_alpha   90.00000000
_cell_angle_beta   90.00000000
_cell_angle_gamma   120.00000477
_symmetry_Int_Tables_number   1
_chemical_formula_structural   TiCd3
_chemical_formula_sum   'Ti2 Cd6'
_cell_volume   161.01210450
_cell_formula_units_Z   2
loop_
 _symmetry_equiv_pos_site_id
 _symmetry_equiv_pos_as_xyz
  1  'x, y, z'
loop_
 _atom_site_type_symbol
 _atom_site_label
 _atom_site_symmetry_multiplicity
 _atom_site_fract_x
 _atom_site_fract_y
 _atom_site_fract_z
 _atom_site_occupancy
  Ti  Ti0  1  0.33333300  0.66666700  0.75000000  1
  Ti  Ti1  1  0.66666700  0.33333300  0.25000000  1
  Cd  Cd0  1  0.16998400  0.33996800  0.25000000  1
  Cd  Cd1  1  0.66003200  0.83001600  0.25000000  1
  Cd  Cd2  1  0.16998400  0.83001600  0.25000000  1
  Cd  Cd3  1  0.83001600  0.66003200  0.75000000  1
  Cd  Cd4  1  0.33996800  0.16998400  0.75000000  1
  Cd  Cd5  1  0.83001600  0.16998400  0.75000000  1
loop_
_geom_bond_atom_site_label_1
_geom_bond_atom_site_label_2
_geom_bond_distance
_geom_bond_site_symmetry_2
Cd0 Ti0 2.986074 1_555
Cd0 Ti0 2.986074 1_554
Cd0 Cd5 3.028519 1_454
Cd0 Cd5 3.028519 1_455
Cd0 Cd4 3.028519 1_554
Cd0 Cd4 3.028519 1_555
Cd0 Cd1 3.039841 1_555
Cd0 Cd2 3.039841 1_555
Cd0 Ti1 3.101777 1_455
Cd0 Ti1 3.101783 1_555
Cd0 Cd1 3.163309 1_445
Cd0 Cd2 3.163309 1_545
Cd1 Ti0 2.986074 1_555
Cd1 Ti0 2.986074 1_554
Cd1 Cd5 3.028519 1_565
Cd1 Cd5 3.028519 1_564
Cd1 Cd3 3.028519 1_555
Cd1 Cd3 3.028519 1_554
Cd1 Cd2 3.039841 1_555
Cd1 Ti1 3.101777 1_565
Cd1 Ti1 3.101783 1_555
Cd1 Cd2 3.163309 1_655
Cd2 Ti0 2.986071 1_555
Cd2 Ti0 2.986071 1_554
Cd2 Cd4 3.028519 1_565
Cd2 Cd4 3.028519 1_564
Cd2 Cd3 3.028519 1_454
Cd2 Cd3 3.028519 1_455
Cd2 Ti1 3.101780 1_455
Cd2 Ti1 3.101780 1_565
Cd3 Ti1 2.986074 1_555
Cd3 Ti1 2.986074 1_556
Cd3 Cd4 3.039841 1_555
Cd3 Cd5 3.039841 1_555
Cd3 Ti0 3.101777 1_655
Cd3 Ti0 3.101783 1_555
Cd3 Cd4 3.163309 1_665
Cd3 Cd5 3.163309 1_565
Cd4 Ti1 2.986074 1_555
Cd4 Ti1 2.986074 1_556
Cd4 Cd5 3.039841 1_555
Cd4 Ti0 3.101777 1_545
Cd4 Ti0 3.101783 1_555
Cd4 Cd5 3.163309 1_455
Cd5 Ti1 2.986071 1_555
Cd5 Ti1 2.986071 1_556
Cd5 Ti0 3.101780 1_545
Cd5 Ti0 3.101780 1_655
