# generated using pymatgen
data_Mg4Si7
_symmetry_space_group_name_H-M   'P 1'
_cell_length_a   4.02618300
_cell_length_b   6.90226412
_cell_length_c   15.20588562
_cell_angle_alpha   84.58558332
_cell_angle_beta   83.85528374
_cell_angle_gamma   88.98308090
_symmetry_Int_Tables_number   1
_chemical_formula_structural   Mg4Si7
_chemical_formula_sum   'Mg8 Si14'
_cell_volume   418.25337119
_cell_formula_units_Z   2
loop_
 _symmetry_equiv_pos_site_id
 _symmetry_equiv_pos_as_xyz
  1  'x, y, z'
loop_
 _atom_site_type_symbol
 _atom_site_label
 _atom_site_symmetry_multiplicity
 _atom_site_fract_x
 _atom_site_fract_y
 _atom_site_fract_z
 _atom_site_occupancy
  Mg  Mg0  1  0.13504500  0.35461000  0.91404300  1
  Mg  Mg1  1  0.31566400  0.81562200  0.51492200  1
  Mg  Mg2  1  0.88607800  0.68518100  0.35844300  1
  Mg  Mg3  1  0.75658600  0.96628300  0.65433400  1
  Mg  Mg4  1  0.19212500  0.94695800  0.83102000  1
  Mg  Mg5  1  0.48447300  0.27494600  0.09609400  1
  Mg  Mg6  1  0.84667100  0.14547700  0.43236700  1
  Mg  Mg7  1  0.79026200  0.49245900  0.57961800  1
  Si  Si0  1  0.66529200  0.74695000  0.94466800  1
  Si  Si1  1  0.63809500  0.09496600  0.93881400  1
  Si  Si2  1  0.14254800  0.62822500  0.02138600  1
  Si  Si3  1  0.96790500  0.73447200  0.16390500  1
  Si  Si4  1  0.28855500  0.18835800  0.56018900  1
  Si  Si5  1  0.34673500  0.46091800  0.45002500  1
  Si  Si6  1  0.45272200  0.91685600  0.18565800  1
  Si  Si7  1  0.70336500  0.25513000  0.79075700  1
  Si  Si8  1  0.24086700  0.66884500  0.69968800  1
  Si  Si9  1  0.91835600  0.39702100  0.22123000  1
  Si  Si10  1  0.39216700  0.97404000  0.33972800  1
  Si  Si11  1  0.70143100  0.62121100  0.79889000  1
  Si  Si12  1  0.23854800  0.30637400  0.70116700  1
  Si  Si13  1  0.38924900  0.32512700  0.30664200  1
loop_
_geom_bond_atom_site_label_1
_geom_bond_atom_site_label_2
_geom_bond_distance
_geom_bond_site_symmetry_2
Mg0 Si2 2.612686 1_556
Mg0 Si1 2.682425 1_455
Mg0 Si1 2.713454 1_555
Mg0 Si7 2.826552 1_455
Mg0 Si7 2.913828 1_555
Mg0 Si11 3.071212 1_455
Mg0 Si11 3.215329 1_555
Mg1 Si5 2.720676 1_555
Mg1 Si4 2.722636 1_565
Mg1 Si10 2.770172 1_555
Mg1 Si8 2.881503 1_555
Mg2 Si5 2.796329 1_655
Mg2 Si10 2.807833 1_555
Mg2 Si5 2.848837 1_555
Mg2 Si10 2.849733 1_655
Mg2 Si3 2.929197 1_555
Mg2 Si9 3.006995 1_555
Mg3 Si4 2.830309 1_565
Mg3 Si4 2.834123 1_665
Mg3 Si8 2.893221 1_655
Mg3 Si8 2.929046 1_555
Mg3 Si7 2.999032 1_565
Mg3 Si11 3.078977 1_555
Mg4 Si1 2.822323 1_565
Mg4 Si1 2.856290 1_465
Mg4 Si0 2.874085 1_455
Mg4 Si8 2.887504 1_555
Mg4 Si7 2.938586 1_465
Mg4 Si0 2.946634 1_555
Mg4 Si7 2.962427 1_565
Mg4 Si12 3.016792 1_565
Mg4 Si11 3.054167 1_555
Mg4 Si11 3.125485 1_455
Mg5 Si6 2.705324 1_545
Mg5 Si1 2.803959 1_554
Mg5 Si9 2.906661 1_555
Mg5 Si2 2.970601 1_555
Mg5 Si9 2.971821 1_455
Mg6 Si10 2.770629 1_545
Mg6 Si10 2.787134 1_645
Mg6 Si4 2.810359 1_655
Mg6 Si4 2.839837 1_555
Mg6 Si5 2.950104 1_555
Mg6 Si13 2.952838 1_655
Mg6 Si13 2.968071 1_555
Mg6 Si5 3.041015 1_655
Mg7 Si5 2.822667 1_555
Mg7 Si5 2.840549 1_655
Mg7 Si4 2.891125 1_655
Mg7 Si12 2.916715 1_655
Mg7 Si12 2.962145 1_555
Mg7 Si4 2.994755 1_555
Mg7 Si8 3.027832 1_555
Mg7 Si8 3.051890 1_655
Si0 Si1 2.396328 1_565
Si0 Si2 2.411889 1_556
Si0 Si2 2.442995 1_656
Si0 Si11 2.444915 1_555
Si1 Si7 2.402845 1_555
Si2 Si3 2.384125 1_455
Si3 Si6 2.410047 1_655
Si3 Si9 2.412632 1_555
Si3 Si6 2.415690 1_555
Si4 Si5 2.395224 1_555
Si10 Si6 2.398461 1_555
Si10 Si13 2.428124 1_565
Si11 Si8 2.511094 1_555
Si11 Si8 2.516134 1_655
Si11 Si7 2.541275 1_555
Si12 Si4 2.351770 1_555
Si12 Si7 2.431994 1_555
Si12 Si7 2.435485 1_455
Si12 Si8 2.500023 1_555
Si13 Si9 2.407224 1_555
Si13 Si9 2.428908 1_455
Si13 Si5 2.441593 1_555
