# generated using pymatgen
data_Nd20(Si3Ru)3
_symmetry_space_group_name_H-M   'P 1'
_cell_length_a   7.81436607
_cell_length_b   7.81436607
_cell_length_c   13.87137300
_cell_angle_alpha   90.00000000
_cell_angle_beta   90.00000000
_cell_angle_gamma   91.16435308
_symmetry_Int_Tables_number   1
_chemical_formula_structural   Nd20(Si3Ru)3
_chemical_formula_sum   'Nd20 Si9 Ru3'
_cell_volume   846.87102075
_cell_formula_units_Z   1
loop_
 _symmetry_equiv_pos_site_id
 _symmetry_equiv_pos_as_xyz
  1  'x, y, z'
loop_
 _atom_site_type_symbol
 _atom_site_label
 _atom_site_symmetry_multiplicity
 _atom_site_fract_x
 _atom_site_fract_y
 _atom_site_fract_z
 _atom_site_occupancy
  Nd  Nd0  1  0.99507100  0.49864400  0.00000000  1
  Nd  Nd1  1  0.49185800  0.99398500  0.50000000  1
  Nd  Nd2  1  0.50135600  0.00492900  0.00000000  1
  Nd  Nd3  1  0.00601500  0.50814200  0.50000000  1
  Nd  Nd4  1  0.67571800  0.32428200  0.64920700  1
  Nd  Nd5  1  0.18143900  0.81856100  0.14056100  1
  Nd  Nd6  1  0.32219700  0.67780300  0.64461200  1
  Nd  Nd7  1  0.82280500  0.17719500  0.14531700  1
  Nd  Nd8  1  0.16995600  0.16875700  0.64585800  1
  Nd  Nd9  1  0.66467500  0.66763100  0.14072100  1
  Nd  Nd10  1  0.83124300  0.83004400  0.64585800  1
  Nd  Nd11  1  0.33236900  0.33532500  0.14072100  1
  Nd  Nd12  1  0.82280500  0.17719500  0.85468300  1
  Nd  Nd13  1  0.32219700  0.67780300  0.35538800  1
  Nd  Nd14  1  0.18143900  0.81856100  0.85943900  1
  Nd  Nd15  1  0.67571800  0.32428200  0.35079300  1
  Nd  Nd16  1  0.33236900  0.33532500  0.85927900  1
  Nd  Nd17  1  0.83124300  0.83004400  0.35414200  1
  Nd  Nd18  1  0.66467500  0.66763100  0.85927900  1
  Nd  Nd19  1  0.16995600  0.16875700  0.35414200  1
  Si  Si0  1  0.87754800  0.12245200  0.50000000  1
  Si  Si1  1  0.11423500  0.11401900  0.00000000  1
  Si  Si2  1  0.61800500  0.61036200  0.50000000  1
  Si  Si3  1  0.88598100  0.88576500  0.00000000  1
  Si  Si4  1  0.38963800  0.38199500  0.50000000  1
  Si  Si5  1  0.50080100  0.99988700  0.74875800  1
  Si  Si6  1  0.00011300  0.49919900  0.25124200  1
  Si  Si7  1  0.00011300  0.49919900  0.74875800  1
  Si  Si8  1  0.50080100  0.99988700  0.25124200  1
  Ru  Ru0  1  0.11550600  0.88449400  0.50000000  1
  Ru  Ru1  1  0.63002300  0.36997700  0.00000000  1
  Ru  Ru2  1  0.37213100  0.62786900  0.00000000  1
loop_
_geom_bond_atom_site_label_1
_geom_bond_atom_site_label_2
_geom_bond_distance
_geom_bond_site_symmetry_2
Nd0 Ru1 3.005295 1_555
Nd0 Ru2 3.095250 1_655
Nd0 Si3 3.159552 1_555
Nd0 Si1 3.164569 1_655
Nd0 Si7 3.485296 1_654
Nd0 Si6 3.485296 1_655
Nd1 Ru0 3.046144 1_555
Nd1 Si4 3.151163 1_565
Nd1 Si0 3.157302 1_565
Nd1 Si2 3.174657 1_555
Nd1 Si8 3.451612 1_555
Nd1 Si5 3.451612 1_555
Nd2 Ru1 3.005295 1_555
Nd2 Ru2 3.095250 1_545
Nd2 Si1 3.159552 1_555
Nd2 Si3 3.164569 1_545
Nd2 Si5 3.485296 1_544
Nd2 Si8 3.485296 1_545
Nd3 Ru0 3.046144 1_555
Nd3 Si2 3.151163 1_455
Nd3 Si0 3.157302 1_455
Nd3 Si4 3.174657 1_555
Nd3 Si6 3.451612 1_555
Nd3 Si7 3.451612 1_555
Nd4 Si0 3.059367 1_555
Nd4 Si2 3.086367 1_555
Nd4 Si4 3.086367 1_555
Nd4 Si7 3.171804 1_655
Nd4 Si5 3.171804 1_545
Nd5 Ru2 2.886673 1_555
Nd5 Si3 3.075276 1_455
Nd5 Si1 3.075276 1_565
Nd5 Si6 3.232529 1_555
Nd5 Si8 3.232529 1_555
Nd6 Ru0 3.057352 1_555
Nd6 Si2 3.113587 1_555
Nd6 Si4 3.113587 1_555
Nd6 Si5 3.197946 1_555
Nd6 Si7 3.197946 1_555
Nd7 Ru1 2.948621 1_555
Nd7 Si3 3.088515 1_545
Nd7 Si1 3.088515 1_655
Nd7 Si8 3.204454 1_545
Nd7 Si6 3.204454 1_655
Nd8 Ru0 3.028284 1_545
Nd8 Si0 3.067902 1_455
Nd8 Si4 3.114625 1_555
Nd8 Si5 3.255979 1_545
Nd8 Si7 3.256667 1_555
Nd9 Ru2 3.017277 1_555
Nd9 Ru1 3.044368 1_555
Nd9 Si3 3.096251 1_555
Nd9 Si8 3.296430 1_555
Nd9 Si6 3.330731 1_655
Nd10 Ru0 3.028284 1_655
Nd10 Si0 3.067902 1_565
Nd10 Si2 3.114625 1_555
Nd10 Si7 3.255979 1_655
Nd10 Si5 3.256667 1_555
Nd11 Ru2 3.017277 1_555
Nd11 Ru1 3.044368 1_555
Nd11 Si1 3.096251 1_555
Nd11 Si6 3.296430 1_555
Nd11 Si8 3.330731 1_545
Nd12 Ru1 2.948621 1_556
Nd12 Si3 3.088515 1_546
Nd12 Si1 3.088515 1_656
Nd12 Si5 3.204454 1_545
Nd12 Si7 3.204454 1_655
Nd13 Ru0 3.057352 1_555
Nd13 Si2 3.113587 1_555
Nd13 Si4 3.113587 1_555
Nd13 Si8 3.197946 1_555
Nd13 Si6 3.197946 1_555
Nd14 Ru2 2.886673 1_556
Nd14 Si3 3.075276 1_456
Nd14 Si1 3.075276 1_566
Nd14 Si7 3.232529 1_555
Nd14 Si5 3.232529 1_555
Nd15 Si0 3.059367 1_555
Nd15 Si2 3.086367 1_555
Nd15 Si4 3.086367 1_555
Nd15 Si6 3.171804 1_655
Nd15 Si8 3.171804 1_545
Nd16 Ru2 3.017277 1_556
Nd16 Ru1 3.044368 1_556
Nd16 Si1 3.096251 1_556
Nd16 Si7 3.296430 1_555
Nd16 Si5 3.330731 1_545
Nd17 Ru0 3.028284 1_655
Nd17 Si0 3.067902 1_565
Nd17 Si2 3.114625 1_555
Nd17 Si6 3.255979 1_655
Nd17 Si8 3.256667 1_555
Nd18 Ru2 3.017277 1_556
Nd18 Ru1 3.044368 1_556
Nd18 Si3 3.096251 1_556
Nd18 Si5 3.296430 1_555
Nd18 Si7 3.330731 1_655
Nd19 Ru0 3.028284 1_545
Nd19 Si0 3.067902 1_455
Nd19 Si4 3.114625 1_555
Nd19 Si8 3.255979 1_545
Nd19 Si6 3.256667 1_555
Si1 Si3 2.496716 1_445
Si2 Si4 2.497952 1_555
Ru0 Si0 2.656301 1_465
