# generated using pymatgen
data_RbSr(BH4)3
_symmetry_space_group_name_H-M   'P 1'
_cell_length_a   8.45537900
_cell_length_b   8.69049800
_cell_length_c   12.34583000
_cell_angle_alpha   90.00000000
_cell_angle_beta   90.00000000
_cell_angle_gamma   90.00000000
_symmetry_Int_Tables_number   1
_chemical_formula_structural   RbSr(BH4)3
_chemical_formula_sum   'Rb4 Sr4 B12 H48'
_cell_volume   907.18954280
_cell_formula_units_Z   4
loop_
 _symmetry_equiv_pos_site_id
 _symmetry_equiv_pos_as_xyz
  1  'x, y, z'
loop_
 _atom_site_type_symbol
 _atom_site_label
 _atom_site_symmetry_multiplicity
 _atom_site_fract_x
 _atom_site_fract_y
 _atom_site_fract_z
 _atom_site_occupancy
  Rb  Rb0  1  0.45662800  0.03191700  0.27269400  1
  Rb  Rb1  1  0.54337200  0.96808300  0.77269400  1
  Rb  Rb2  1  0.04337200  0.53191700  0.77269400  1
  Rb  Rb3  1  0.95662800  0.46808300  0.27269400  1
  Sr  Sr0  1  0.50440100  0.47977700  0.99940900  1
  Sr  Sr1  1  0.49559900  0.52022300  0.49940900  1
  Sr  Sr2  1  0.99559900  0.97977700  0.49940900  1
  Sr  Sr3  1  0.00440100  0.02022300  0.99940900  1
  B  B0  1  0.77147800  0.78833800  0.96833100  1
  B  B1  1  0.22852200  0.21166200  0.46833100  1
  B  B2  1  0.72852200  0.28833800  0.46833100  1
  B  B3  1  0.27147800  0.71166200  0.96833100  1
  B  B4  1  0.30864100  0.19805100  0.98928400  1
  B  B5  1  0.69135900  0.80194900  0.48928400  1
  B  B6  1  0.19135900  0.69805100  0.48928400  1
  B  B7  1  0.80864100  0.30194900  0.98928400  1
  B  B8  1  0.43076800  0.48074600  0.72176100  1
  B  B9  1  0.56923200  0.51925400  0.22176100  1
  B  B10  1  0.06923200  0.98074600  0.22176100  1
  B  B11  1  0.93076800  0.01925400  0.72176100  1
  H  H0  1  0.73318200  0.92463600  0.95704600  1
  H  H1  1  0.26681800  0.07536400  0.45704600  1
  H  H2  1  0.76681800  0.42463600  0.45704600  1
  H  H3  1  0.23318200  0.57536400  0.95704600  1
  H  H4  1  0.84647200  0.74661000  0.88897000  1
  H  H5  1  0.15352800  0.25339000  0.38897000  1
  H  H6  1  0.65352800  0.24661000  0.38897000  1
  H  H7  1  0.34647200  0.75339000  0.88897000  1
  H  H8  1  0.64794600  0.71781500  0.97760200  1
  H  H9  1  0.35205400  0.28218500  0.47760200  1
  H  H10  1  0.85205400  0.21781500  0.47760200  1
  H  H11  1  0.14794600  0.78218500  0.97760200  1
  H  H12  1  0.85145100  0.77454700  0.05071100  1
  H  H13  1  0.14854900  0.22545300  0.55071100  1
  H  H14  1  0.64854900  0.27454700  0.55071100  1
  H  H15  1  0.35145100  0.72545300  0.05071100  1
  H  H16  1  0.34389500  0.26071600  0.07551400  1
  H  H17  1  0.65610500  0.73928400  0.57551400  1
  H  H18  1  0.15610500  0.76071600  0.57551400  1
  H  H19  1  0.84389500  0.23928400  0.07551400  1
  H  H20  1  0.40481800  0.22787000  0.91785100  1
  H  H21  1  0.59518200  0.77213000  0.41785100  1
  H  H22  1  0.09518200  0.72787000  0.41785100  1
  H  H23  1  0.90481800  0.27213000  0.91785100  1
  H  H24  1  0.17981800  0.24945100  0.96020100  1
  H  H25  1  0.82018200  0.75054900  0.46020100  1
  H  H26  1  0.32018200  0.74945100  0.46020100  1
  H  H27  1  0.67981800  0.25054900  0.96020100  1
  H  H28  1  0.30743400  0.05890200  0.00335800  1
  H  H29  1  0.69256600  0.94109800  0.50335800  1
  H  H30  1  0.19256600  0.55890200  0.50335800  1
  H  H31  1  0.80743400  0.44109800  0.00335800  1
  H  H32  1  0.57528000  0.48242400  0.70802200  1
  H  H33  1  0.42472100  0.51757600  0.20802200  1
  H  H34  1  0.92472000  0.98242400  0.20802200  1
  H  H35  1  0.07527900  0.01757600  0.70802200  1
  H  H36  1  0.36810300  0.39662600  0.65429400  1
  H  H37  1  0.63189700  0.60337400  0.15429400  1
  H  H38  1  0.13189700  0.89662600  0.15429400  1
  H  H39  1  0.86810300  0.10337400  0.65429400  1
  H  H40  1  0.37832600  0.61197300  0.71259000  1
  H  H41  1  0.62167400  0.38802700  0.21259000  1
  H  H42  1  0.12167400  0.11197300  0.21259000  1
  H  H43  1  0.87832600  0.88802700  0.71259000  1
  H  H44  1  0.39595700  0.42456800  0.80892200  1
  H  H45  1  0.60404300  0.57543200  0.30892200  1
  H  H46  1  0.10404300  0.92456800  0.30892200  1
  H  H47  1  0.89595700  0.07543200  0.80892200  1
loop_
_geom_bond_atom_site_label_1
_geom_bond_atom_site_label_2
_geom_bond_distance
_geom_bond_site_symmetry_2
B0 H8 1.216439 1_555
B0 H4 1.222111 1_555
B0 H12 1.227193 1_556
B0 H0 1.235838 1_555
B1 H9 1.216439 1_555
B1 H5 1.222111 1_555
B1 H13 1.227193 1_555
B1 H1 1.235838 1_555
B2 H10 1.216439 1_555
B2 H6 1.222111 1_555
B2 H14 1.227193 1_555
B2 H2 1.235838 1_555
B3 H11 1.216439 1_555
B3 H7 1.222111 1_555
B3 H15 1.227193 1_556
B3 H3 1.235838 1_555
B4 H28 1.221736 1_556
B4 H20 1.227280 1_555
B4 H24 1.230818 1_555
B4 H16 1.232382 1_556
B5 H29 1.221736 1_555
B5 H21 1.227280 1_555
B5 H25 1.230818 1_555
B5 H17 1.232382 1_555
B6 H30 1.221736 1_555
B6 H22 1.227280 1_555
B6 H26 1.230818 1_555
B6 H18 1.232382 1_555
B7 H31 1.221736 1_556
B7 H23 1.227280 1_555
B7 H27 1.230818 1_555
B7 H19 1.232382 1_556
B8 H44 1.217755 1_555
B8 H36 1.228396 1_555
B8 H40 1.228826 1_555
B8 H32 1.233707 1_555
B9 H45 1.217755 1_555
B9 H37 1.228396 1_555
B9 H41 1.228826 1_555
B9 H33 1.233698 1_555
B10 H46 1.217755 1_555
B10 H38 1.228396 1_555
B10 H42 1.228826 1_565
B10 H34 1.233707 1_455
B11 H47 1.217755 1_555
B11 H39 1.228396 1_555
B11 H43 1.228826 1_545
B11 H35 1.233698 1_655
H0 Sr3 2.494521 1_665
H0 Rb1 2.810408 1_555
H1 Sr2 2.494521 1_445
H1 Rb0 2.810408 1_555
H2 Sr1 2.494521 1_555
H2 Rb3 2.810408 1_555
H3 Sr0 2.494521 1_555
H3 Rb2 2.810408 1_555
H4 Rb2 2.883344 1_655
H5 Rb3 2.883344 1_455
H6 Rb0 2.883344 1_555
H7 Rb1 2.883344 1_555
H8 Sr0 2.413505 1_555
H9 Sr1 2.413505 1_555
H10 Sr2 2.413505 1_545
H11 Sr3 2.413505 1_565
H12 Sr3 2.575281 1_664
H13 Sr2 2.575281 1_445
H14 Sr1 2.575281 1_555
H15 Sr0 2.575281 1_554
H16 Sr0 2.519702 1_554
H17 Sr1 2.519702 1_555
H18 Sr2 2.519702 1_455
H19 Sr3 2.519702 1_654
H20 Sr0 2.552532 1_555
H20 Rb1 3.111455 1_545
H21 Sr1 2.552532 1_555
H21 Rb0 3.111455 1_565
H22 Sr2 2.552532 1_455
H22 Rb3 3.111455 1_455
H23 Sr3 2.552532 1_655
H23 Rb2 3.111455 1_655
H24 Sr3 2.530361 1_555
H25 Sr2 2.530361 1_555
H26 Sr1 2.530361 1_555
H27 Sr0 2.530361 1_555
H28 Sr3 2.584674 1_554
H29 Sr2 2.584674 1_555
H30 Sr1 2.584674 1_555
H31 Sr0 2.584674 1_554
H32 Sr1 2.682355 1_555
H33 Sr0 2.682353 1_554
H34 Sr3 2.682355 1_664
H35 Sr2 2.682353 1_445
H36 Sr1 2.443833 1_555
H37 Sr0 2.443833 1_554
H38 Sr3 2.443833 1_564
H39 Sr2 2.443833 1_545
H40 Rb2 3.009285 1_555
H41 Rb3 3.009285 1_555
H42 Rb0 3.009285 1_555
H43 Rb1 3.009285 1_555
H44 Sr0 2.569350 1_555
H45 Sr1 2.569350 1_555
H46 Sr2 2.569350 1_455
H47 Sr3 2.569350 1_655
