# generated using pymatgen
data_K3DyF6
_symmetry_space_group_name_H-M   'P 1'
_cell_length_a   6.82766221
_cell_length_b   6.82766221
_cell_length_c   6.82766221
_cell_angle_alpha   95.40279345
_cell_angle_beta   116.93128419
_cell_angle_gamma   116.93128419
_symmetry_Int_Tables_number   1
_chemical_formula_structural   K3DyF6
_chemical_formula_sum   'K3 Dy1 F6'
_cell_volume   234.37277871
_cell_formula_units_Z   1
loop_
 _symmetry_equiv_pos_site_id
 _symmetry_equiv_pos_as_xyz
  1  'x, y, z'
loop_
 _atom_site_type_symbol
 _atom_site_label
 _atom_site_symmetry_multiplicity
 _atom_site_fract_x
 _atom_site_fract_y
 _atom_site_fract_z
 _atom_site_occupancy
  K  K0  1  0.50000000  0.75000000  0.25000000  1
  K  K1  1  0.50000000  0.25000000  0.75000000  1
  K  K2  1  0.00000000  0.50000000  0.50000000  1
  Dy  Dy0  1  0.00000000  0.00000000  0.00000000  1
  F  F0  1  0.69507200  0.69507200  0.00000000  1
  F  F1  1  0.30492800  0.30492800  0.00000000  1
  F  F2  1  0.69507200  0.00000000  0.69507200  1
  F  F3  1  0.30492800  0.00000000  0.30492800  1
  F  F4  1  0.00000000  0.76146800  0.76146800  1
  F  F5  1  0.00000000  0.23853200  0.23853200  1
loop_
_geom_bond_atom_site_label_1
_geom_bond_atom_site_label_2
_geom_bond_distance
_geom_bond_site_symmetry_2
Dy0 F2 2.177756 1_454
Dy0 F3 2.177756 1_555
Dy0 F0 2.177756 1_445
Dy0 F1 2.177756 1_555
Dy0 F5 2.192099 1_555
Dy0 F4 2.192099 1_544
F0 K0 2.686895 1_555
F0 K1 2.686895 1_554
F1 K0 2.686895 1_555
F1 K1 2.686895 1_554
F2 K0 2.686895 1_545
F2 K1 2.686895 1_555
F3 K1 2.686895 1_555
F3 K0 2.686895 1_545
F4 K2 2.402880 1_555
F5 K2 2.402880 1_555
