# generated using pymatgen
data_SrLiAlO3
_symmetry_space_group_name_H-M   'P 1'
_cell_length_a   3.69120700
_cell_length_b   5.01164000
_cell_length_c   3.69120700
_cell_angle_alpha   90.00000000
_cell_angle_beta   90.00000000
_cell_angle_gamma   90.00000000
_symmetry_Int_Tables_number   1
_chemical_formula_structural   SrLiAlO3
_chemical_formula_sum   'Sr1 Li1 Al1 O3'
_cell_volume   68.28364069
_cell_formula_units_Z   1
loop_
 _symmetry_equiv_pos_site_id
 _symmetry_equiv_pos_as_xyz
  1  'x, y, z'
loop_
 _atom_site_type_symbol
 _atom_site_label
 _atom_site_symmetry_multiplicity
 _atom_site_fract_x
 _atom_site_fract_y
 _atom_site_fract_z
 _atom_site_occupancy
  Sr  Sr0  1  0.00000000  0.00000000  0.00000000  1
  Li  Li0  1  0.00000000  0.50000000  0.00000000  1
  Al  Al0  1  0.50000100  0.50000100  0.50000100  1
  O  O0  1  0.50000100  0.50000100  0.00000000  1
  O  O1  1  0.50000100  0.00000000  0.50000100  1
  O  O2  1  0.00000000  0.50000100  0.50000100  1
loop_
_geom_bond_atom_site_label_1
_geom_bond_atom_site_label_2
_geom_bond_distance
_geom_bond_site_symmetry_2
Li0 O2 1.845600 1_554
Li0 O0 1.845600 1_455
Li0 O2 1.845607 1_555
Li0 O0 1.845607 1_555
Al0 O0 1.845600 1_556
Al0 O2 1.845600 1_655
Al0 O2 1.845607 1_555
Al0 O0 1.845607 1_555
Al0 O1 2.505815 1_565
Al0 O1 2.505825 1_555
O1 Sr0 2.610072 1_656
O1 Sr0 2.610078 1_655
O1 Sr0 2.610078 1_556
O1 Sr0 2.610083 1_555
