# generated using pymatgen
data_Li9Mn2Co5O16
_symmetry_space_group_name_H-M   'P 1'
_cell_length_a   2.90557000
_cell_length_b   10.22991800
_cell_length_c   10.32855450
_cell_angle_alpha   70.06105042
_cell_angle_beta   90.00000000
_cell_angle_gamma   90.00000000
_symmetry_Int_Tables_number   1
_chemical_formula_structural   Li9Mn2Co5O16
_chemical_formula_sum   'Li9 Mn2 Co5 O16'
_cell_volume   288.60045186
_cell_formula_units_Z   1
loop_
 _symmetry_equiv_pos_site_id
 _symmetry_equiv_pos_as_xyz
  1  'x, y, z'
loop_
 _atom_site_type_symbol
 _atom_site_label
 _atom_site_symmetry_multiplicity
 _atom_site_fract_x
 _atom_site_fract_y
 _atom_site_fract_z
 _atom_site_occupancy
  Li  Li0  1  0.50000000  0.99538000  0.74669800  1
  Li  Li1  1  0.50000000  0.00028300  0.25583100  1
  Li  Li2  1  0.00000000  0.74514900  0.74169800  1
  Li  Li3  1  0.00000000  0.74537300  0.26216100  1
  Li  Li4  1  0.50000000  0.49773700  0.73751100  1
  Li  Li5  1  0.50000000  0.50549200  0.25984100  1
  Li  Li6  1  0.00000000  0.26245500  0.74010400  1
  Li  Li7  1  0.00000000  0.25179800  0.25497500  1
  Li  Li8  1  0.00000000  0.49870300  0.50406900  1
  Mn  Mn0  1  0.00000000  0.00137800  0.00006900  1
  Mn  Mn1  1  0.50000000  0.25581400  0.50449800  1
  Co  Co0  1  0.00000000  0.99501700  0.49893100  1
  Co  Co1  1  0.50000000  0.74382700  0.99946500  1
  Co  Co2  1  0.50000000  0.73498700  0.49192800  1
  Co  Co3  1  0.00000000  0.49466100  0.00046500  1
  Co  Co4  1  0.50000000  0.25708500  0.99990200  1
  O  O0  1  0.50000000  0.10845700  0.88737700  1
  O  O1  1  0.50000000  0.12542500  0.38937000  1
  O  O2  1  0.00000000  0.87559800  0.89037100  1
  O  O3  1  0.00000000  0.87090700  0.38633700  1
  O  O4  1  0.50000000  0.62121000  0.88552700  1
  O  O5  1  0.50000000  0.63511700  0.37762100  1
  O  O6  1  0.00000000  0.37113200  0.88102100  1
  O  O7  1  0.00000000  0.36081700  0.39128400  1
  O  O8  1  0.50000000  0.88339900  0.61327400  1
  O  O9  1  0.50000000  0.88942200  0.11117600  1
  O  O10  1  0.00000000  0.63664000  0.61364400  1
  O  O11  1  0.00000000  0.63528400  0.11430700  1
  O  O12  1  0.50000000  0.36190800  0.61700400  1
  O  O13  1  0.50000000  0.38215900  0.12154400  1
  O  O14  1  0.00000000  0.13414200  0.61153400  1
  O  O15  1  0.00000000  0.12324200  0.11046100  1
loop_
_geom_bond_atom_site_label_1
_geom_bond_atom_site_label_2
_geom_bond_distance
_geom_bond_site_symmetry_2
Li0 O8 2.070774 1_555
Li0 O2 2.138684 1_555
Li0 O2 2.138684 1_655
Li0 O0 2.143763 1_565
Li0 O14 2.173240 1_565
Li0 O14 2.173240 1_665
Li1 O3 2.112447 1_545
Li1 O3 2.112447 1_645
Li1 O15 2.158488 1_655
Li1 O15 2.158488 1_555
Li1 O9 2.161969 1_545
Li1 O1 2.178429 1_555
Li2 O10 1.995701 1_555
Li2 O8 2.142602 1_455
Li2 O8 2.142602 1_555
Li2 O4 2.154146 1_455
Li2 O4 2.154146 1_555
Li2 O2 2.352971 1_555
Li3 O5 1.971678 1_455
Li3 O5 1.971678 1_555
Li3 O3 2.101783 1_555
Li3 O11 2.184815 1_555
Li3 O9 2.268628 1_455
Li3 O9 2.268628 1_555
Li4 O10 2.127583 1_555
Li4 O10 2.127583 1_655
Li4 O12 2.158593 1_555
Li4 O6 2.162348 1_655
Li4 O6 2.162348 1_555
Li4 O4 2.291226 1_555
Li5 O5 2.082908 1_555
Li5 O11 2.184440 1_555
Li5 O11 2.184440 1_655
Li5 O7 2.184888 1_655
Li5 O7 2.184888 1_555
Li5 O13 2.204852 1_555
Li6 O12 1.969770 1_555
Li6 O12 1.969770 1_455
Li6 O6 2.111402 1_555
Li6 O14 2.162242 1_555
Li6 O0 2.296046 1_555
Li6 O0 2.296046 1_455
Li7 O7 2.072873 1_555
Li7 O1 2.117731 1_455
Li7 O1 2.117731 1_555
Li7 O13 2.129512 1_555
Li7 O13 2.129512 1_455
Li7 O15 2.301363 1_555
Li8 O12 2.077549 1_455
Li8 O12 2.077549 1_555
Li8 O10 2.088356 1_555
Li8 O7 2.113622 1_555
Li8 O5 2.126185 1_555
Li8 O5 2.126185 1_455
Mn0 O0 1.948250 1_454
Mn0 O0 1.948250 1_554
Mn0 O15 1.955417 1_555
Mn0 O9 1.960309 1_445
Mn0 O9 1.960309 1_545
Mn0 O2 1.983359 1_544
Mn1 O12 1.840767 1_555
Mn1 O7 1.942960 1_555
Mn1 O7 1.942960 1_655
Mn1 O14 1.985831 1_555
Mn1 O14 1.985831 1_655
Mn1 O1 2.067599 1_555
Co0 O8 1.972158 1_555
Co0 O8 1.972158 1_455
Co0 O3 1.992841 1_555
Co0 O1 2.034998 1_565
Co0 O1 2.034998 1_465
Co0 O14 2.123013 1_565
Co1 O11 1.962701 1_656
Co1 O11 1.962701 1_556
Co1 O4 1.991258 1_555
Co1 O2 2.039949 1_555
Co1 O2 2.039949 1_655
Co1 O9 2.172962 1_556
Co2 O5 1.805643 1_555
Co2 O10 1.959738 1_555
Co2 O10 1.959738 1_655
Co2 O3 2.049168 1_555
Co2 O3 2.049168 1_655
Co2 O8 2.274580 1_555
Co3 O13 2.004350 1_555
Co3 O13 2.004350 1_455
Co3 O4 2.036578 1_554
Co3 O4 2.036578 1_454
Co3 O6 2.045039 1_554
Co3 O11 2.146085 1_555
Co4 O6 2.000592 1_555
Co4 O6 2.000592 1_655
Co4 O15 2.054969 1_556
Co4 O15 2.054969 1_656
Co4 O13 2.076541 1_556
Co4 O0 2.206300 1_555
