# generated using pymatgen
data_NaSiAu3
_symmetry_space_group_name_H-M   'P 1'
_cell_length_a   8.96901855
_cell_length_b   8.96901855
_cell_length_c   8.96901855
_cell_angle_alpha   90.00000000
_cell_angle_beta   90.00000000
_cell_angle_gamma   90.00000000
_symmetry_Int_Tables_number   1
_chemical_formula_structural   NaSiAu3
_chemical_formula_sum   'Na8 Si8 Au24'
_cell_volume   721.49739387
_cell_formula_units_Z   8
loop_
 _symmetry_equiv_pos_site_id
 _symmetry_equiv_pos_as_xyz
  1  'x, y, z'
loop_
 _atom_site_type_symbol
 _atom_site_label
 _atom_site_symmetry_multiplicity
 _atom_site_fract_x
 _atom_site_fract_y
 _atom_site_fract_z
 _atom_site_occupancy
  Na  Na0  1  0.09715039  0.09715039  0.09715039  1
  Na  Na1  1  0.40284961  0.90284961  0.59715039  1
  Na  Na2  1  0.59715039  0.40284961  0.90284961  1
  Na  Na3  1  0.90284961  0.59715039  0.40284961  1
  Na  Na4  1  0.90284961  0.90284961  0.90284961  1
  Na  Na5  1  0.59715039  0.09715039  0.40284961  1
  Na  Na6  1  0.40284961  0.59715039  0.09715039  1
  Na  Na7  1  0.09715039  0.40284961  0.59715039  1
  Si  Si0  1  0.12407809  0.87592191  0.37592191  1
  Si  Si1  1  0.87592191  0.37592191  0.12407809  1
  Si  Si2  1  0.62407809  0.62407809  0.62407809  1
  Si  Si3  1  0.62407809  0.87592191  0.12407809  1
  Si  Si4  1  0.87592191  0.12407809  0.62407809  1
  Si  Si5  1  0.12407809  0.62407809  0.87592191  1
  Si  Si6  1  0.37592191  0.37592191  0.37592191  1
  Si  Si7  1  0.37592191  0.12407809  0.87592191  1
  Au  Au0  1  0.59462895  0.72761503  0.37221687  1
  Au  Au1  1  0.72761503  0.37221687  0.59462895  1
  Au  Au2  1  0.77238497  0.62778313  0.09462895  1
  Au  Au3  1  0.27238497  0.87221687  0.90537105  1
  Au  Au4  1  0.62778313  0.09462895  0.77238497  1
  Au  Au5  1  0.59462895  0.77238497  0.87221687  1
  Au  Au6  1  0.87221687  0.59462895  0.77238497  1
  Au  Au7  1  0.62778313  0.40537105  0.27238497  1
  Au  Au8  1  0.09462895  0.72761503  0.12778313  1
  Au  Au9  1  0.12778313  0.09462895  0.72761503  1
  Au  Au10  1  0.90537105  0.22761503  0.37221687  1
  Au  Au11  1  0.40537105  0.27238497  0.62778313  1
  Au  Au12  1  0.37221687  0.90537105  0.22761503  1
  Au  Au13  1  0.27238497  0.62778313  0.40537105  1
  Au  Au14  1  0.22761503  0.37221687  0.90537105  1
  Au  Au15  1  0.72761503  0.12778313  0.09462895  1
  Au  Au16  1  0.09462895  0.77238497  0.62778313  1
  Au  Au17  1  0.87221687  0.90537105  0.27238497  1
  Au  Au18  1  0.90537105  0.27238497  0.87221687  1
  Au  Au19  1  0.37221687  0.59462895  0.72761503  1
  Au  Au20  1  0.12778313  0.40537105  0.22761503  1
  Au  Au21  1  0.40537105  0.22761503  0.12778313  1
  Au  Au22  1  0.22761503  0.12778313  0.40537105  1
  Au  Au23  1  0.77238497  0.87221687  0.59462895  1
loop_
_geom_bond_atom_site_label_1
_geom_bond_atom_site_label_2
_geom_bond_distance
_geom_bond_site_symmetry_2
Na0 Na4 3.018423 1_444
Na0 Si7 3.201082 1_554
Na0 Si0 3.201082 1_545
Na0 Si1 3.201082 1_455
Na1 Na5 3.018423 1_565
Na1 Si2 3.201082 1_555
Na1 Si0 3.201082 1_555
Na1 Si7 3.201082 1_565
Na2 Na6 3.018423 1_556
Na2 Si2 3.201082 1_555
Na2 Si7 3.201082 1_555
Na2 Si1 3.201082 1_556
Na3 Na7 3.018423 1_655
Na3 Si2 3.201082 1_555
Na3 Si0 3.201082 1_655
Na3 Si1 3.201082 1_555
Na4 Si3 3.201082 1_556
Na4 Si5 3.201082 1_655
Na4 Si4 3.201082 1_565
Na5 Si4 3.201082 1_555
Na5 Si6 3.201082 1_555
Na5 Si3 3.201082 1_545
Na6 Si3 3.201082 1_555
Na6 Si6 3.201082 1_555
Na6 Si5 3.201082 1_554
Na7 Si5 3.201082 1_555
Na7 Si6 3.201082 1_555
Na7 Si4 3.201082 1_455
Au0 Si2 2.456614 1_555
Au0 Si3 2.606191 1_555
Au0 Au23 2.864110 1_555
Au0 Au12 2.864110 1_555
Au0 Na3 3.014436 1_555
Au0 Au7 3.040309 1_555
Au0 Au13 3.040309 1_555
Au0 Na1 3.082024 1_555
Au0 Au17 3.089025 1_555
Au0 Au2 3.089025 1_555
Au0 Na6 3.227126 1_555
Au0 Na5 3.325814 1_565
Au1 Si2 2.456614 1_555
Au1 Si4 2.606191 1_555
Au1 Au6 2.864110 1_555
Au1 Au10 2.864110 1_555
Au1 Na2 3.014436 1_555
Au1 Au7 3.040309 1_555
Au1 Au11 3.040309 1_555
Au1 Na3 3.082024 1_555
Au1 Au18 3.089025 1_555
Au1 Au4 3.089025 1_555
Au1 Na5 3.227126 1_555
Au1 Na7 3.325814 1_655
Au2 Si1 2.456614 1_555
Au2 Si3 2.606191 1_555
Au2 Au5 2.864110 1_554
Au2 Au7 2.864110 1_555
Au2 Na3 3.014436 1_555
Au2 Au8 3.040309 1_655
Au2 Au6 3.040309 1_554
Au2 Na2 3.082024 1_554
Au2 Na4 3.227126 1_554
Au2 Na6 3.325814 1_555
Au3 Si7 2.456614 1_565
Au3 Si5 2.606191 1_555
Au3 Au9 2.864110 1_565
Au3 Au8 2.864110 1_556
Au3 Na1 3.014436 1_555
Au3 Au5 3.040309 1_555
Au3 Na0 3.082024 1_566
Au3 Na6 3.227126 1_556
Au3 Na4 3.325814 1_455
Au4 Si7 2.456614 1_555
Au4 Si4 2.606191 1_555
Au4 Na2 3.014436 1_555
Au4 Au5 3.040309 1_545
Au4 Na1 3.082024 1_545
Au4 Na4 3.227126 1_545
Au4 Na5 3.325814 1_555
Au5 Si3 2.456614 1_556
Au5 Si2 2.606191 1_555
Au5 Na4 3.014436 1_555
Au5 Na6 3.082024 1_556
Au5 Au6 3.089025 1_555
Au5 Na1 3.227126 1_555
Au5 Na2 3.325814 1_555
Au6 Si5 2.456614 1_655
Au6 Si2 2.606191 1_555
Au6 Na4 3.014436 1_555
Au6 Na7 3.082024 1_655
Au6 Na2 3.227126 1_555
Au6 Na3 3.325814 1_555
Au7 Si6 2.456614 1_555
Au7 Si1 2.606191 1_555
Au7 Na5 3.014436 1_555
Au7 Na6 3.082024 1_555
Au7 Na3 3.227126 1_555
Au7 Na2 3.325814 1_554
Au8 Si5 2.456614 1_554
Au8 Si0 2.606191 1_555
Au8 Na6 3.014436 1_555
Au8 Na4 3.082024 1_454
Au8 Na3 3.227126 1_455
Au8 Na0 3.325814 1_565
Au9 Si4 2.456614 1_455
Au9 Si7 2.606191 1_555
Au9 Na7 3.014436 1_555
Au9 Na4 3.082024 1_445
Au9 Na1 3.227126 1_545
Au9 Na0 3.325814 1_556
Au10 Si4 2.456614 1_555
Au10 Si1 2.606191 1_555
Au10 Au20 2.864110 1_655
Au10 Na5 3.014436 1_555
Au10 Au22 3.040309 1_655
Au10 Au17 3.040309 1_545
Au10 Na7 3.082024 1_655
Au10 Au15 3.089025 1_555
Au10 Au7 3.089025 1_555
Au10 Na0 3.227126 1_655
Au10 Na3 3.325814 1_555
Au11 Si6 2.456614 1_555
Au11 Si7 2.606191 1_555
Au11 Au22 2.864110 1_555
Au11 Au4 2.864110 1_555
Au11 Na7 3.014436 1_555
Au11 Au19 3.040309 1_555
Au11 Na5 3.082024 1_555
Au11 Au9 3.089025 1_555
Au11 Au14 3.089025 1_555
Au11 Na2 3.227126 1_555
Au11 Na1 3.325814 1_545
Au12 Si3 2.456614 1_555
Au12 Si0 2.606191 1_555
Au12 Au22 2.864110 1_565
Au12 Na6 3.014436 1_555
Au12 Au21 3.040309 1_565
Au12 Au3 3.040309 1_554
Au12 Na5 3.082024 1_565
Au12 Au8 3.089025 1_555
Au12 Au13 3.089025 1_555
Au12 Na0 3.227126 1_565
Au12 Na1 3.325814 1_555
Au13 Si6 2.456614 1_555
Au13 Si0 2.606191 1_555
Au13 Au16 2.864110 1_555
Au13 Au20 2.864110 1_555
Au13 Na6 3.014436 1_555
Au13 Au19 3.040309 1_555
Au13 Na7 3.082024 1_555
Au13 Au8 3.089025 1_555
Au13 Na1 3.227126 1_555
Au13 Na3 3.325814 1_455
Au14 Si5 2.456614 1_555
Au14 Si7 2.606191 1_555
Au14 Au21 2.864110 1_556
Au14 Au19 2.864110 1_555
Au14 Na7 3.014436 1_555
Au14 Au20 3.040309 1_556
Au14 Au18 3.040309 1_455
Au14 Na6 3.082024 1_556
Au14 Au9 3.089025 1_555
Au14 Na0 3.227126 1_556
Au14 Na2 3.325814 1_555
Au15 Si3 2.456614 1_545
Au15 Si1 2.606191 1_555
Au15 Au17 2.864110 1_545
Au15 Au18 2.864110 1_554
Au15 Na5 3.014436 1_555
Au15 Au4 3.040309 1_554
Au15 Au21 3.040309 1_555
Au15 Na4 3.082024 1_544
Au15 Au7 3.089025 1_555
Au15 Na2 3.227126 1_554
Au15 Na0 3.325814 1_655
Au16 Si0 2.456614 1_555
Au16 Si5 2.606191 1_555
Au16 Au6 2.864110 1_455
Au16 Na1 3.014436 1_555
Au16 Au23 3.040309 1_455
Au16 Au9 3.040309 1_565
Au16 Na3 3.082024 1_455
Au16 Au3 3.089025 1_555
Au16 Au19 3.089025 1_555
Au16 Na4 3.227126 1_455
Au16 Na7 3.325814 1_555
Au17 Si0 2.456614 1_655
Au17 Si3 2.606191 1_555
Au17 Au8 2.864110 1_655
Au17 Na3 3.014436 1_555
Au17 Au23 3.040309 1_555
Au17 Na0 3.082024 1_665
Au17 Au2 3.089025 1_555
Au17 Na5 3.227126 1_565
Au17 Na4 3.325814 1_554
Au18 Si1 2.456614 1_556
Au18 Si4 2.606191 1_555
Au18 Au9 2.864110 1_655
Au18 Na2 3.014436 1_555
Au18 Au6 3.040309 1_555
Au18 Na0 3.082024 1_656
Au18 Au4 3.089025 1_555
Au18 Na7 3.227126 1_655
Au18 Na4 3.325814 1_545
Au19 Si2 2.456614 1_555
Au19 Si5 2.606191 1_555
Au19 Au5 2.864110 1_555
Au19 Na1 3.014436 1_555
Au19 Na2 3.082024 1_555
Au19 Au3 3.089025 1_555
Au19 Na7 3.227126 1_555
Au19 Na6 3.325814 1_556
Au20 Si1 2.456614 1_455
Au20 Si6 2.606191 1_555
Au20 Na0 3.014436 1_555
Au20 Au8 3.040309 1_555
Au20 Na3 3.082024 1_455
Au20 Au22 3.089025 1_555
Au20 Au21 3.089025 1_555
Au20 Na6 3.227126 1_555
Au20 Na7 3.325814 1_555
Au21 Si7 2.456614 1_554
Au21 Si6 2.606191 1_555
Au21 Au7 2.864110 1_555
Au21 Na0 3.014436 1_555
Au21 Na2 3.082024 1_554
Au21 Au22 3.089025 1_555
Au21 Na5 3.227126 1_555
Au21 Na6 3.325814 1_555
Au22 Si0 2.456614 1_545
Au22 Si6 2.606191 1_555
Au22 Na0 3.014436 1_555
Au22 Au9 3.040309 1_555
Au22 Na1 3.082024 1_545
Au22 Na7 3.227126 1_555
Au22 Na5 3.325814 1_555
Au23 Si4 2.456614 1_565
Au23 Si2 2.606191 1_555
Au23 Au4 2.864110 1_565
Au23 Na4 3.014436 1_555
Au23 Na5 3.082024 1_565
Au23 Au5 3.089025 1_555
Au23 Au6 3.089025 1_555
Au23 Na3 3.227126 1_555
Au23 Na1 3.325814 1_555
