# generated using pymatgen
data_KDyI3
_symmetry_space_group_name_H-M   'P 1'
_cell_length_a   8.23617497
_cell_length_b   8.23617497
_cell_length_c   11.66815900
_cell_angle_alpha   90.00000000
_cell_angle_beta   90.00000000
_cell_angle_gamma   149.71905729
_symmetry_Int_Tables_number   1
_chemical_formula_structural   KDyI3
_chemical_formula_sum   'K2 Dy2 I6'
_cell_volume   399.10863380
_cell_formula_units_Z   2
loop_
 _symmetry_equiv_pos_site_id
 _symmetry_equiv_pos_as_xyz
  1  'x, y, z'
loop_
 _atom_site_type_symbol
 _atom_site_label
 _atom_site_symmetry_multiplicity
 _atom_site_fract_x
 _atom_site_fract_y
 _atom_site_fract_z
 _atom_site_occupancy
  K  K0  1  0.24691700  0.75308300  0.25000000  1
  K  K1  1  0.75308300  0.24691700  0.75000000  1
  Dy  Dy0  1  0.00000000  0.00000000  0.00000000  1
  Dy  Dy1  1  0.00000000  0.00000000  0.50000000  1
  I  I0  1  0.63492800  0.36507200  0.05531200  1
  I  I1  1  0.36507200  0.63492800  0.94468800  1
  I  I2  1  0.36507200  0.63492800  0.55531200  1
  I  I3  1  0.63492800  0.36507200  0.44468800  1
  I  I4  1  0.92878700  0.07121300  0.25000000  1
  I  I5  1  0.07121300  0.92878700  0.75000000  1
loop_
_geom_bond_atom_site_label_1
_geom_bond_atom_site_label_2
_geom_bond_distance
_geom_bond_site_symmetry_2
Dy0 I0 3.105957 1_445
Dy0 I1 3.105957 1_444
Dy0 I1 3.105957 1_554
Dy0 I0 3.105957 1_555
Dy0 I4 3.129103 1_455
Dy0 I5 3.129103 1_544
Dy1 I3 3.105957 1_445
Dy1 I2 3.105957 1_445
Dy1 I3 3.105957 1_555
Dy1 I2 3.105957 1_555
Dy1 I4 3.129103 1_455
Dy1 I5 3.129103 1_545
I0 K0 3.599835 1_655
I0 K0 3.599835 1_545
I0 K1 4.027472 1_554
I1 K1 3.599835 1_565
I1 K1 3.599835 1_455
I1 K0 4.027472 1_556
I2 K1 3.599835 1_565
I2 K1 3.599835 1_455
I2 K0 4.027472 1_555
I3 K0 3.599835 1_655
I3 K0 3.599835 1_545
I3 K1 4.027472 1_555
I4 K0 3.604203 1_655
I4 K0 3.604203 1_545
I5 K1 3.604203 1_565
I5 K1 3.604203 1_455
