# generated using pymatgen
data_Co7(AsO6)2
_symmetry_space_group_name_H-M   'P 1'
_cell_length_a   10.52989221
_cell_length_b   10.52989221
_cell_length_c   10.52989221
_cell_angle_alpha   147.34140177
_cell_angle_beta   132.01205514
_cell_angle_gamma   59.25701313
_symmetry_Int_Tables_number   1
_chemical_formula_structural   Co7(AsO6)2
_chemical_formula_sum   'Co14 As4 O24'
_cell_volume   464.12644910
_cell_formula_units_Z   2
loop_
 _symmetry_equiv_pos_site_id
 _symmetry_equiv_pos_as_xyz
  1  'x, y, z'
loop_
 _atom_site_type_symbol
 _atom_site_label
 _atom_site_symmetry_multiplicity
 _atom_site_fract_x
 _atom_site_fract_y
 _atom_site_fract_z
 _atom_site_occupancy
  Co  Co0  1  0.79908100  0.42823100  0.37085100  1
  Co  Co1  1  0.16186500  0.66186500  0.00000000  1
  Co  Co2  1  0.16186500  0.16186500  0.50000000  1
  Co  Co3  1  0.81647500  0.83612800  0.98034600  1
  Co  Co4  1  0.83813500  0.83813500  0.50000000  1
  Co  Co5  1  0.18352500  0.16387200  0.01965400  1
  Co  Co6  1  0.20091900  0.57176900  0.62914900  1
  Co  Co7  1  0.64421800  0.66387200  0.98034600  1
  Co  Co8  1  0.00000000  0.00000000  0.50000000  1
  Co  Co9  1  0.83813500  0.33813500  0.00000000  1
  Co  Co10  1  0.35578200  0.33612800  0.01965400  1
  Co  Co11  1  0.44262000  0.07176900  0.37085100  1
  Co  Co12  1  0.55738000  0.92823100  0.62914900  1
  Co  Co13  1  0.00000000  0.50000000  0.00000000  1
  As  As0  1  0.37242500  0.75000000  0.62242500  1
  As  As1  1  0.62757500  0.25000000  0.37757500  1
  As  As2  1  0.00000000  0.00000000  0.00000000  1
  As  As3  1  0.50000000  0.50000000  0.00000000  1
  O  O0  1  0.92193300  0.14570700  0.21578500  1
  O  O1  1  0.74125400  0.00783400  0.24908800  1
  O  O2  1  0.74125400  0.49216600  0.73342100  1
  O  O3  1  0.72824500  0.50920000  0.21904600  1
  O  O4  1  0.42992200  0.20614800  0.78421500  1
  O  O5  1  0.20984600  0.99080000  0.21904600  1
  O  O6  1  0.25874600  0.99216600  0.75091200  1
  O  O7  1  0.42992200  0.64570700  0.22377400  1
  O  O8  1  0.92193300  0.70614800  0.77622600  1
  O  O9  1  0.94669400  0.16913000  0.77756400  1
  O  O10  1  0.89156600  0.66913000  0.22243600  1
  O  O11  1  0.57007800  0.79385200  0.21578500  1
  O  O12  1  0.07806700  0.85429300  0.78421500  1
  O  O13  1  0.27175500  0.49080000  0.78095400  1
  O  O14  1  0.56406600  0.82881500  0.73525100  1
  O  O15  1  0.59356400  0.32881500  0.26474900  1
  O  O16  1  0.25874600  0.50783400  0.26657900  1
  O  O17  1  0.43593400  0.17118500  0.26474900  1
  O  O18  1  0.40643600  0.67118500  0.73525100  1
  O  O19  1  0.07806700  0.29385200  0.22377400  1
  O  O20  1  0.05330600  0.83087000  0.22243600  1
  O  O21  1  0.79015400  0.00920000  0.78095400  1
  O  O22  1  0.57007800  0.35429300  0.77622600  1
  O  O23  1  0.10843400  0.33087000  0.77756400  1
loop_
_geom_bond_atom_site_label_1
_geom_bond_atom_site_label_2
_geom_bond_distance
_geom_bond_site_symmetry_2
Co0 O3 1.971567 1_555
Co0 O8 1.975733 1_555
Co0 O0 1.975738 1_555
Co0 O15 2.034137 1_555
Co1 O5 2.085550 1_555
Co1 O13 2.085559 1_554
Co1 O23 2.108406 1_554
Co1 O20 2.108406 1_555
Co1 O7 2.197626 1_555
Co1 O8 2.197626 1_454
Co2 O5 2.085550 1_545
Co2 O13 2.085555 1_555
Co2 O20 2.108406 1_545
Co2 O23 2.108406 1_555
Co2 O4 2.197626 1_555
Co2 O0 2.197626 1_455
Co3 O20 2.075431 1_656
Co3 O8 2.100904 1_555
Co3 O0 2.100907 1_566
Co3 O14 2.103205 1_555
Co3 O1 2.196674 1_566
Co3 O2 2.196675 1_555
Co4 O21 2.085550 1_565
Co4 O3 2.085555 1_555
Co4 O9 2.108406 1_565
Co4 O10 2.108406 1_555
Co4 O12 2.197626 1_655
Co4 O11 2.197626 1_555
Co5 O9 2.075431 1_454
Co5 O19 2.100904 1_555
Co5 O12 2.100907 1_544
Co5 O17 2.103205 1_555
Co5 O6 2.196674 1_544
Co5 O16 2.196675 1_555
Co6 O13 1.971567 1_555
Co6 O19 1.975733 1_555
Co6 O12 1.975738 1_555
Co6 O18 2.034137 1_555
Co7 O10 2.075434 1_556
Co7 O11 2.100913 1_556
Co7 O22 2.100913 1_555
Co7 O18 2.103200 1_555
Co7 O2 2.196657 1_555
Co7 O1 2.196666 1_566
Co8 O9 2.106798 1_455
Co8 O23 2.106798 1_555
Co8 O10 2.106798 1_445
Co8 O20 2.106798 1_545
Co8 O6 2.216325 1_545
Co8 O1 2.216325 1_455
Co9 O21 2.085550 1_554
Co9 O3 2.085559 1_555
Co9 O9 2.108406 1_554
Co9 O10 2.108406 1_555
Co9 O19 2.197626 1_655
Co9 O22 2.197626 1_554
Co10 O23 2.075434 1_554
Co10 O7 2.100913 1_555
Co10 O4 2.100913 1_554
Co10 O15 2.103200 1_555
Co10 O16 2.196657 1_555
Co10 O6 2.196666 1_544
Co11 O5 1.971567 1_545
Co11 O22 1.975734 1_555
Co11 O11 1.975734 1_545
Co11 O17 2.034147 1_555
Co12 O21 1.971567 1_565
Co12 O7 1.975734 1_555
Co12 O4 1.975734 1_565
Co12 O14 2.034147 1_555
Co13 O9 2.106798 1_454
Co13 O23 2.106798 1_554
Co13 O10 2.106798 1_455
Co13 O20 2.106798 1_555
Co13 O16 2.216320 1_555
Co13 O2 2.216320 1_454
As0 O6 1.733145 1_555
As0 O16 1.733149 1_555
As0 O14 1.736448 1_555
As0 O18 1.736448 1_555
As1 O1 1.733145 1_555
As1 O2 1.733149 1_555
As1 O15 1.736448 1_555
As1 O17 1.736448 1_555
As2 O0 1.879722 1_455
As2 O8 1.879722 1_444
As2 O19 1.879722 1_555
As2 O12 1.879722 1_544
As2 O5 1.883403 1_545
As2 O21 1.883403 1_454
As3 O22 1.879722 1_554
As3 O11 1.879722 1_555
As3 O4 1.879722 1_554
As3 O7 1.879722 1_555
As3 O3 1.883398 1_555
As3 O13 1.883398 1_554
