# generated using pymatgen
data_NaV4Bi13O30
_symmetry_space_group_name_H-M   'P 1'
_cell_length_a   11.66619937
_cell_length_b   11.66619937
_cell_length_c   26.99214812
_cell_angle_alpha   96.28621645
_cell_angle_beta   96.17263846
_cell_angle_gamma   119.85985198
_symmetry_Int_Tables_number   1
_chemical_formula_structural   NaV4Bi13O30
_chemical_formula_sum   'Na4 V16 Bi52 O120'
_cell_volume   3110.33869551
_cell_formula_units_Z   4
loop_
 _symmetry_equiv_pos_site_id
 _symmetry_equiv_pos_as_xyz
  1  'x, y, z'
loop_
 _atom_site_type_symbol
 _atom_site_label
 _atom_site_symmetry_multiplicity
 _atom_site_fract_x
 _atom_site_fract_y
 _atom_site_fract_z
 _atom_site_occupancy
  Na  Na0  1  0.80234608  0.10048376  0.18490442  1
  Na  Na1  1  0.91557934  0.61744166  0.81509558  1
  Na  Na2  1  0.39745355  0.60472321  0.31374468  1
  Na  Na3  1  0.29097853  0.08370886  0.68625532  1
  V  V0  1  0.35169988  0.62431984  0.55323906  1
  V  V1  1  0.07108078  0.79846082  0.44676094  1
  V  V2  1  0.13823056  0.92280344  0.05544102  1
  V  V3  1  0.86736242  0.08278954  0.94455898  1
  V  V4  1  0.41668856  0.92457604  0.30954691  1
  V  V5  1  0.61502913  0.10714165  0.69045309  1
  V  V6  1  0.73288888  0.60015938  0.31162142  1
  V  V7  1  0.28853796  0.42126745  0.68837858  1
  V  V8  1  0.76005675  0.12349251  0.44278750  1
  V  V9  1  0.68070501  0.31726924  0.55721250  1
  V  V10  1  0.82211001  0.81913867  0.18804236  1
  V  V11  1  0.63109632  0.63406765  0.81195764  1
  V  V12  1  0.46066246  0.60308399  0.06318178  1
  V  V13  1  0.53990222  0.39748068  0.93681822  1
  V  V14  1  0.47560965  0.12013735  0.18372019  1
  V  V15  1  0.93641716  0.29188946  0.81627981  1
  Bi  Bi0  1  0.38997867  0.12176966  0.42905329  1
  Bi  Bi1  1  0.69271637  0.96092538  0.57094671  1
  Bi  Bi2  1  0.81984151  0.24872559  0.07443351  1
  Bi  Bi3  1  0.17429208  0.74540800  0.92556649  1
  Bi  Bi4  1  0.24470157  0.92348218  0.80540667  1
  Bi  Bi5  1  0.11807551  0.43929490  0.19459333  1
  Bi  Bi6  1  0.48223551  0.25151910  0.06005430  1
  Bi  Bi7  1  0.19146480  0.42218121  0.93994570  1
  Bi  Bi8  1  0.80238563  0.43761583  0.19533081  1
  Bi  Bi9  1  0.24228501  0.60705482  0.80466919  1
  Bi  Bi10  1  0.41530116  0.45915563  0.42462086  1
  Bi  Bi11  1  0.03453477  0.99068030  0.57537914  1
  Bi  Bi12  1  0.47248837  0.91904304  0.05916079  1
  Bi  Bi13  1  0.85988224  0.41332758  0.94083921  1
  Bi  Bi14  1  0.63781320  0.78655948  0.68749795  1
  Bi  Bi15  1  0.09906153  0.95031525  0.31250205  1
  Bi  Bi16  1  0.16363339  0.13935919  0.19124549  1
  Bi  Bi17  1  0.94811370  0.97238790  0.80875451  1
  Bi  Bi18  1  0.70162302  0.65636727  0.56522288  1
  Bi  Bi19  1  0.09114438  0.13640014  0.43477712  1
  Bi  Bi20  1  0.79645620  0.58180231  0.06764846  1
  Bi  Bi21  1  0.51415384  0.72880773  0.93235154  1
  Bi  Bi22  1  0.75288871  0.94060711  0.30896413  1
  Bi  Bi23  1  0.63164298  0.44392458  0.69103587  1
  Bi  Bi24  1  0.07680470  0.26514508  0.30368776  1
  Bi  Bi25  1  0.96145732  0.77311694  0.69631224  1
  Bi  Bi26  1  0.35431366  0.28675180  0.56127093  1
  Bi  Bi27  1  0.72548087  0.79304273  0.43872907  1
  Bi  Bi28  1  0.10431674  0.59443994  0.06480535  1
  Bi  Bi29  1  0.52963460  0.03951139  0.93519465  1
  Bi  Bi30  1  0.45599641  0.46645829  0.18474799  1
  Bi  Bi31  1  0.28171030  0.27124842  0.81525201  1
  Bi  Bi32  1  0.26135837  0.74443050  0.68612278  1
  Bi  Bi33  1  0.05830772  0.57523559  0.31387722  1
  Bi  Bi34  1  0.41635029  0.27711174  0.30251016  1
  Bi  Bi35  1  0.97460159  0.11384014  0.69748984  1
  Bi  Bi36  1  0.73033195  0.44563935  0.43097494  1
  Bi  Bi37  1  0.01466441  0.29935701  0.56902506  1
  Bi  Bi38  1  0.80828403  0.92941578  0.06067900  1
  Bi  Bi39  1  0.86873677  0.74760502  0.93932100  1
  Bi  Bi40  1  0.08889941  0.47058530  0.43343388  1
  Bi  Bi41  1  0.03715142  0.65546553  0.56656612  1
  Bi  Bi42  1  0.74832774  0.25120638  0.30765774  1
  Bi  Bi43  1  0.94354863  0.44067000  0.69234226  1
  Bi  Bi44  1  0.39508107  0.78620216  0.43034091  1
  Bi  Bi45  1  0.35586126  0.96474017  0.56965909  1
  Bi  Bi46  1  0.12225067  0.77025598  0.18531497  1
  Bi  Bi47  1  0.58494101  0.93693570  0.81468503  1
  Bi  Bi48  1  0.14060155  0.27537204  0.06396118  1
  Bi  Bi49  1  0.21141086  0.07664037  0.93603882  1
  Bi  Bi50  1  0.43965075  0.77672959  0.19278297  1
  Bi  Bi51  1  0.58394663  0.24686778  0.80721703  1
  O  O0  1  0.50276434  0.68402310  0.41716686  1
  O  O1  1  0.26685623  0.08559748  0.58283314  1
  O  O2  1  0.62738156  0.22798209  0.22761829  1
  O  O3  1  0.00036381  0.39976327  0.77238171  1
  O  O4  1  0.19254867  0.53257151  0.56867647  1
  O  O5  1  0.96389504  0.62387220  0.43132353  1
  O  O6  1  0.34410711  0.06340911  0.21598588  1
  O  O7  1  0.84742323  0.12812124  0.78401412  1
  O  O8  1  0.47753486  0.08186782  0.64744895  1
  O  O9  1  0.43441887  0.83008591  0.35255105  1
  O  O10  1  0.02457074  0.58209889  0.21855092  1
  O  O11  1  0.36354797  0.80601982  0.78144908  1
  O  O12  1  0.58051950  0.72145155  0.03366213  1
  O  O13  1  0.68778942  0.54685736  0.96633787  1
  O  O14  1  0.53570916  0.08289432  0.84770825  1
  O  O15  1  0.23518607  0.68800091  0.15229175  1
  O  O16  1  0.37977592  0.04301720  0.33684025  1
  O  O17  1  0.70617695  0.04293567  0.66315975  1
  O  O18  1  0.56638468  0.99806290  0.28655779  1
  O  O19  1  0.71150511  0.27982689  0.71344221  1
  O  O20  1  0.30025681  0.54105411  0.02730114  1
  O  O21  1  0.51375297  0.27295567  0.97269886  1
  O  O22  1  0.19256129  0.87250445  0.71975095  1
  O  O23  1  0.15275350  0.47281034  0.28024905  1
  O  O24  1  0.47042184  0.68192035  0.12421838  1
  O  O25  1  0.55770197  0.34620345  0.87578162  1
  O  O26  1  0.16796635  0.33956854  0.41573693  1
  O  O27  1  0.92383161  0.75222943  0.58426307  1
  O  O28  1  0.86296113  0.30671685  0.15803506  1
  O  O29  1  0.14868180  0.70492607  0.84196494  1
  O  O30  1  0.85233077  0.93010720  0.14560095  1
  O  O31  1  0.78450625  0.70672982  0.85439905  1
  O  O32  1  0.88856298  0.48529576  0.02362106  1
  O  O33  1  0.46167470  0.86494193  0.97637894  1
  O  O34  1  0.76560183  0.44091349  0.52071103  1
  O  O35  1  0.92020246  0.24489080  0.47928897  1
  O  O36  1  0.48339037  0.46996802  0.06986314  1
  O  O37  1  0.40010487  0.41352722  0.93013686  1
  O  O38  1  0.69303714  0.01323334  0.08401362  1
  O  O39  1  0.92921973  0.60902352  0.91598638  1
  O  O40  1  0.70149258  0.71925227  0.34232355  1
  O  O41  1  0.37692872  0.35916903  0.65767645  1
  O  O42  1  0.36951737  0.41352603  0.34279852  1
  O  O43  1  0.07072750  0.02671885  0.65720148  1
  O  O44  1  0.16911907  0.90198056  0.11618281  1
  O  O45  1  0.78579776  0.05293626  0.88381719  1
  O  O46  1  0.23097807  0.31795668  0.14252846  1
  O  O47  1  0.17542822  0.08844961  0.85747154  1
  O  O48  1  0.84172852  0.14019213  0.28054654  1
  O  O49  1  0.85964559  0.56118198  0.71945346  1
  O  O50  1  0.55530249  0.11631922  0.04376710  1
  O  O51  1  0.07255212  0.51153539  0.95623290  1
  O  O52  1  0.03885219  0.61117564  0.64350028  1
  O  O53  1  0.96767536  0.39535191  0.35649972  1
  O  O54  1  0.50211962  0.31965614  0.41099764  1
  O  O55  1  0.90865850  0.09112197  0.58900236  1
  O  O56  1  0.66411641  0.19301326  0.42617907  1
  O  O57  1  0.76683419  0.23793734  0.57382093  1
  O  O58  1  0.22234372  0.60370198  0.38891473  1
  O  O59  1  0.21478725  0.83342899  0.61108527  1
  O  O60  1  0.54837063  0.03412479  0.74134357  1
  O  O61  1  0.29278122  0.80702706  0.25865643  1
  O  O62  1  0.72386873  0.82811169  0.61650369  1
  O  O63  1  0.21160800  0.10736504  0.38349631  1
  O  O64  1  0.29453850  0.20968491  0.47807605  1
  O  O65  1  0.73160886  0.81646246  0.52192395  1
  O  O66  1  0.48854549  0.98812353  0.15271026  1
  O  O67  1  0.83541327  0.33583523  0.84728974  1
  O  O68  1  0.98061394  0.88496838  0.22600373  1
  O  O69  1  0.65896465  0.75461021  0.77399627  1
  O  O70  1  0.37550976  0.58329440  0.21889168  1
  O  O71  1  0.36440273  0.15661808  0.78110832  1
  O  O72  1  0.94876878  0.14937550  0.08212448  1
  O  O73  1  0.06725102  0.86664430  0.91787552  1
  O  O74  1  0.34901721  0.32213198  0.23132983  1
  O  O75  1  0.09080215  0.11768738  0.76867017  1
  O  O76  1  0.89509745  0.68148836  0.30079127  1
  O  O77  1  0.38069709  0.59430618  0.69920873  1
  O  O78  1  0.79581064  0.06203137  0.38818300  1
  O  O79  1  0.67384837  0.40762764  0.61181700  1
  O  O80  1  0.43613225  0.53498817  0.55034570  1
  O  O81  1  0.98464247  0.88578655  0.44965430  1
  O  O82  1  0.13966142  0.07327774  0.05568169  1
  O  O83  1  0.01759605  0.08397972  0.94431831  1
  O  O84  1  0.97775736  0.61965976  0.11672839  1
  O  O85  1  0.50293136  0.86102897  0.88327161  1
  O  O86  1  0.61718882  0.51313932  0.25446775  1
  O  O87  1  0.25867157  0.36272107  0.74553225  1
  O  O88  1  0.76889218  0.66001934  0.15552198  1
  O  O89  1  0.50449736  0.61337020  0.84447802  1
  O  O90  1  0.97749158  0.78433479  0.02478253  1
  O  O91  1  0.75955227  0.95270905  0.97521747  1
  O  O92  1  0.70536923  0.47089280  0.34684895  1
  O  O93  1  0.12404385  0.35852028  0.65315105  1
  O  O94  1  0.70571820  0.82537061  0.22348158  1
  O  O95  1  0.60188903  0.48223662  0.77651842  1
  O  O96  1  0.05192426  0.22993940  0.21871988  1
  O  O97  1  0.01121951  0.83320438  0.78128012  1
  O  O98  1  0.96603112  0.01724233  0.33117720  1
  O  O99  1  0.68606513  0.63485392  0.66882280  1
  O  O100  1  0.46343167  0.22286542  0.14265423  1
  O  O101  1  0.08021119  0.32077744  0.85734577  1
  O  O102  1  0.51292687  0.20076279  0.52767366  1
  O  O103  1  0.67308913  0.98525321  0.47232634  1
  O  O104  1  0.05892819  0.41105180  0.08794271  1
  O  O105  1  0.32310909  0.97098548  0.91205729  1
  O  O106  1  0.66973381  0.59084537  0.45204792  1
  O  O107  1  0.13879744  0.21768588  0.54795208  1
  O  O108  1  0.26240839  0.92609785  0.02333116  1
  O  O109  1  0.90276669  0.23907723  0.97666884  1
  O  O110  1  0.31890962  0.65289428  0.49175867  1
  O  O111  1  0.16113561  0.82715094  0.50824133  1
  O  O112  1  0.19460600  0.13688370  0.27913420  1
  O  O113  1  0.85774949  0.91547179  0.72086580  1
  O  O114  1  0.87058979  0.40495231  0.26779199  1
  O  O115  1  0.13716032  0.60279780  0.73220801  1
  O  O116  1  0.69187861  0.38640733  0.08946896  1
  O  O117  1  0.29693837  0.60240965  0.91053104  1
  O  O118  1  0.44903071  0.77804679  0.59389620  1
  O  O119  1  0.18415059  0.85513451  0.40610380  1
loop_
_geom_bond_atom_site_label_1
_geom_bond_atom_site_label_2
_geom_bond_distance
_geom_bond_site_symmetry_2
Na0 O28 2.369167 1_555
Na0 O30 2.498332 1_545
Na0 O96 2.517840 1_655
Na0 O48 2.522177 1_555
Na0 O38 2.726178 1_555
Na1 O29 2.369167 1_655
Na1 O31 2.498332 1_555
Na1 O97 2.517840 1_655
Na1 O49 2.522177 1_555
Na1 O39 2.726178 1_555
Na2 O42 2.326094 1_555
Na2 O23 2.469986 1_555
Na2 O70 2.517589 1_555
Na2 O9 2.523143 1_555
Na2 O0 2.779090 1_555
Na3 O43 2.326094 1_555
Na3 O22 2.469986 1_545
Na3 O71 2.517589 1_555
Na3 O8 2.523143 1_555
Na3 O1 2.779090 1_555
Bi0 O54 2.157476 1_555
Bi0 O63 2.219638 1_555
Bi0 O64 2.280206 1_555
Bi0 O16 2.525892 1_555
Bi0 O102 2.705212 1_555
Bi0 O119 2.765157 1_545
Bi1 O55 2.157476 1_565
Bi1 O62 2.219638 1_555
Bi1 O65 2.280206 1_555
Bi1 O17 2.525892 1_565
Bi1 O103 2.705212 1_555
Bi1 O118 2.765157 1_555
Bi2 O28 2.210341 1_555
Bi2 O72 2.317371 1_555
Bi2 O104 2.422684 1_655
Bi2 O38 2.448233 1_555
Bi2 O50 2.649403 1_555
Bi2 O116 2.710799 1_555
Bi3 O29 2.210341 1_555
Bi3 O73 2.317371 1_555
Bi3 O105 2.422684 1_555
Bi3 O39 2.448233 1_455
Bi3 O51 2.649403 1_555
Bi3 O117 2.710799 1_555
Bi4 O22 2.259516 1_555
Bi4 O97 2.358902 1_555
Bi4 O11 2.471640 1_555
Bi4 O71 2.565779 1_565
Bi4 O29 2.583463 1_555
Bi4 O47 2.744569 1_565
Bi4 O105 2.830283 1_555
Bi5 O23 2.259516 1_555
Bi5 O96 2.358902 1_555
Bi5 O10 2.471640 1_555
Bi5 O70 2.565779 1_555
Bi5 O28 2.583463 1_455
Bi5 O46 2.744569 1_555
Bi5 O104 2.830283 1_555
Bi6 O116 2.136530 1_555
Bi6 O50 2.162217 1_555
Bi6 O100 2.307841 1_555
Bi6 O21 2.445709 1_554
Bi6 O36 2.526313 1_555
Bi7 O117 2.136530 1_555
Bi7 O51 2.162217 1_555
Bi7 O101 2.307841 1_555
Bi7 O20 2.445709 1_556
Bi7 O37 2.526313 1_555
Bi8 O114 2.175834 1_555
Bi8 O28 2.176185 1_555
Bi8 O10 2.240857 1_655
Bi8 O2 2.605067 1_555
Bi9 O115 2.175834 1_555
Bi9 O29 2.176185 1_555
Bi9 O11 2.240857 1_555
Bi9 O3 2.605067 1_555
Bi10 O42 2.156881 1_555
Bi10 O54 2.323784 1_555
Bi10 O0 2.336214 1_555
Bi10 O26 2.469650 1_555
Bi10 O106 2.540950 1_555
Bi11 O43 2.156881 1_565
Bi11 O55 2.323784 1_465
Bi11 O1 2.336214 1_565
Bi11 O27 2.469650 1_455
Bi11 O107 2.540950 1_565
Bi12 O50 2.117651 1_565
Bi12 O38 2.220297 1_565
Bi12 O33 2.226732 1_554
Bi12 O66 2.522503 1_555
Bi12 O108 2.580165 1_555
Bi13 O51 2.117651 1_655
Bi13 O39 2.220297 1_555
Bi13 O32 2.226732 1_556
Bi13 O67 2.522503 1_555
Bi13 O109 2.580165 1_555
Bi14 O99 2.135640 1_555
Bi14 O113 2.240622 1_555
Bi14 O62 2.246684 1_555
Bi14 O69 2.410239 1_555
Bi15 O98 2.135640 1_465
Bi15 O112 2.240622 1_565
Bi15 O63 2.246684 1_565
Bi15 O68 2.410239 1_455
Bi16 O96 2.184616 1_555
Bi16 O74 2.189564 1_555
Bi16 O112 2.366492 1_555
Bi16 O46 2.424823 1_555
Bi16 O6 2.710858 1_555
Bi17 O97 2.184616 1_655
Bi17 O75 2.189564 1_665
Bi17 O113 2.366492 1_555
Bi17 O47 2.424823 1_665
Bi17 O7 2.710859 1_565
Bi18 O62 2.189834 1_555
Bi18 O65 2.211780 1_555
Bi18 O27 2.221665 1_555
Bi18 O80 2.645797 1_555
Bi19 O63 2.189834 1_555
Bi19 O64 2.211780 1_555
Bi19 O26 2.221665 1_555
Bi19 O81 2.645797 1_445
Bi20 O116 2.170443 1_555
Bi20 O84 2.182391 1_555
Bi20 O32 2.240701 1_555
Bi20 O88 2.558159 1_555
Bi20 O90 2.745393 1_555
Bi20 O13 2.783350 1_554
Bi21 O117 2.170443 1_555
Bi21 O85 2.182391 1_555
Bi21 O33 2.240701 1_555
Bi21 O89 2.558159 1_555
Bi21 O91 2.745394 1_555
Bi21 O12 2.783350 1_556
Bi22 O98 2.165670 1_565
Bi22 O78 2.286866 1_565
Bi22 O48 2.289779 1_565
Bi22 O94 2.396881 1_555
Bi22 O18 2.609054 1_555
Bi22 O40 2.631054 1_555
Bi23 O99 2.165670 1_555
Bi23 O79 2.286866 1_555
Bi23 O49 2.289779 1_555
Bi23 O95 2.396881 1_555
Bi23 O19 2.609054 1_555
Bi23 O41 2.631054 1_555
Bi24 O96 2.246058 1_555
Bi24 O23 2.318050 1_555
Bi24 O48 2.342556 1_455
Bi24 O112 2.567737 1_555
Bi24 O98 2.745778 1_455
Bi24 O53 2.793228 1_455
Bi25 O97 2.246058 1_655
Bi25 O22 2.318050 1_655
Bi25 O49 2.342556 1_555
Bi25 O113 2.567737 1_555
Bi25 O99 2.745778 1_555
Bi25 O52 2.793228 1_655
Bi26 O107 2.196561 1_555
Bi26 O1 2.220222 1_555
Bi26 O64 2.221302 1_555
Bi26 O41 2.589157 1_555
Bi26 O80 2.622929 1_555
Bi26 O102 2.694961 1_555
Bi27 O106 2.196561 1_555
Bi27 O0 2.220222 1_555
Bi27 O65 2.221302 1_555
Bi27 O40 2.589157 1_555
Bi27 O81 2.622929 1_555
Bi27 O103 2.694961 1_555
Bi28 O104 2.117378 1_555
Bi28 O84 2.240095 1_455
Bi28 O32 2.255981 1_455
Bi28 O15 2.469737 1_555
Bi29 O105 2.117379 1_545
Bi29 O85 2.240094 1_545
Bi29 O33 2.255981 1_545
Bi29 O14 2.469737 1_555
Bi30 O74 2.163816 1_555
Bi30 O70 2.185024 1_555
Bi30 O86 2.317139 1_555
Bi30 O46 2.363680 1_555
Bi31 O75 2.163816 1_555
Bi31 O71 2.185024 1_555
Bi31 O87 2.317139 1_555
Bi31 O47 2.363680 1_555
Bi32 O22 2.180436 1_555
Bi32 O115 2.197881 1_555
Bi32 O52 2.329449 1_555
Bi32 O59 2.502224 1_555
Bi32 O11 2.576951 1_555
Bi32 O77 2.754651 1_555
Bi33 O23 2.180436 1_555
Bi33 O114 2.197881 1_455
Bi33 O53 2.329449 1_455
Bi33 O58 2.502224 1_555
Bi33 O10 2.576951 1_555
Bi33 O76 2.754651 1_455
Bi34 O42 2.151363 1_555
Bi34 O74 2.211689 1_555
Bi34 O112 2.230555 1_555
Bi35 O43 2.151363 1_655
Bi35 O75 2.211689 1_655
Bi35 O113 2.230556 1_545
Bi36 O106 2.181954 1_555
Bi36 O54 2.271659 1_555
Bi36 O92 2.327573 1_555
Bi36 O34 2.424202 1_555
Bi36 O5 2.469137 1_555
Bi36 O56 2.631984 1_555
Bi37 O107 2.181954 1_555
Bi37 O55 2.271659 1_455
Bi37 O93 2.327573 1_555
Bi37 O35 2.424202 1_455
Bi37 O4 2.469137 1_555
Bi37 O57 2.631984 1_455
Bi38 O38 2.125296 1_565
Bi38 O72 2.211080 1_565
Bi38 O30 2.292801 1_555
Bi38 O91 2.393203 1_554
Bi38 O12 2.500995 1_555
Bi39 O39 2.125296 1_555
Bi39 O73 2.211081 1_655
Bi39 O31 2.292801 1_555
Bi39 O90 2.393203 1_556
Bi39 O13 2.500995 1_555
Bi40 O58 2.163996 1_555
Bi40 O26 2.180366 1_555
Bi40 O53 2.194546 1_455
Bi40 O110 2.622538 1_555
Bi40 O5 2.815877 1_455
Bi40 O35 2.900945 1_455
Bi41 O59 2.163996 1_555
Bi41 O27 2.180366 1_455
Bi41 O52 2.194546 1_555
Bi41 O111 2.622538 1_555
Bi41 O4 2.815877 1_555
Bi41 O34 2.900945 1_455
Bi42 O114 2.148187 1_555
Bi42 O48 2.183868 1_555
Bi42 O2 2.359527 1_555
Bi42 O53 2.370277 1_555
Bi42 O18 2.584776 1_545
Bi43 O115 2.148187 1_655
Bi43 O49 2.183868 1_555
Bi43 O3 2.359527 1_655
Bi43 O52 2.370277 1_655
Bi43 O19 2.584776 1_555
Bi44 O58 2.136835 1_555
Bi44 O0 2.149415 1_555
Bi44 O9 2.256145 1_555
Bi44 O110 2.337063 1_555
Bi45 O59 2.136836 1_555
Bi45 O1 2.149415 1_565
Bi45 O8 2.256145 1_565
Bi45 O111 2.337063 1_555
Bi46 O15 2.185277 1_555
Bi46 O84 2.241231 1_455
Bi46 O10 2.254338 1_555
Bi46 O44 2.480573 1_555
Bi46 O61 2.485592 1_555
Bi46 O68 2.828030 1_455
Bi47 O14 2.185277 1_565
Bi47 O85 2.241231 1_555
Bi47 O11 2.254338 1_555
Bi47 O45 2.480573 1_565
Bi47 O60 2.485592 1_565
Bi47 O69 2.828030 1_555
Bi48 O72 2.127808 1_455
Bi48 O46 2.150044 1_555
Bi48 O104 2.289627 1_555
Bi48 O82 2.338166 1_555
Bi49 O73 2.127808 1_545
Bi49 O47 2.150044 1_555
Bi49 O105 2.289627 1_545
Bi49 O83 2.338166 1_555
Bi50 O15 2.165354 1_555
Bi50 O24 2.206202 1_555
Bi50 O70 2.220196 1_555
Bi50 O66 2.625523 1_555
Bi50 O61 2.709760 1_555
Bi50 O94 2.869392 1_555
Bi51 O14 2.165354 1_555
Bi51 O25 2.206202 1_555
Bi51 O71 2.220196 1_555
Bi51 O67 2.625523 1_555
Bi51 O60 2.709760 1_555
Bi51 O95 2.869392 1_555
O2 V14 1.768074 1_555
O3 V15 1.768074 1_455
O4 V0 1.746923 1_555
O5 V1 1.746923 1_655
O6 V14 1.718317 1_555
O7 V15 1.718317 1_555
O8 V5 1.749561 1_555
O9 V4 1.749561 1_555
O12 V12 1.747800 1_555
O13 V13 1.747800 1_555
O16 V4 1.753636 1_545
O17 V5 1.753636 1_555
O18 V4 1.740284 1_555
O19 V5 1.740284 1_555
O20 V12 1.752665 1_555
O21 V13 1.752665 1_555
O24 V12 1.759745 1_555
O25 V13 1.759745 1_555
O30 V10 1.752070 1_555
O31 V11 1.752070 1_555
O34 V9 1.769417 1_555
O35 V8 1.769417 1_555
O36 V12 1.724985 1_555
O37 V13 1.724985 1_555
O40 V6 1.752461 1_555
O41 V7 1.752461 1_555
O44 V2 1.710067 1_555
O45 V3 1.710066 1_555
O56 V8 1.728334 1_555
O57 V9 1.728334 1_555
O60 V5 1.744590 1_555
O61 V4 1.744590 1_555
O66 V14 1.752595 1_565
O67 V15 1.752595 1_555
O68 V10 1.750760 1_555
O69 V11 1.750760 1_555
O76 V6 1.720041 1_555
O77 V7 1.720041 1_555
O78 V8 1.749012 1_555
O79 V9 1.749012 1_555
O80 V0 1.755943 1_555
O81 V1 1.755943 1_655
O82 V2 1.746503 1_545
O83 V3 1.746503 1_455
O86 V6 1.754196 1_555
O87 V7 1.754196 1_555
O88 V10 1.726340 1_555
O89 V11 1.726340 1_555
O90 V2 1.779867 1_655
O91 V3 1.779866 1_565
O92 V6 1.782975 1_555
O93 V7 1.782975 1_555
O94 V10 1.768187 1_555
O95 V11 1.768187 1_555
O100 V14 1.764009 1_555
O101 V15 1.764009 1_455
O102 V9 1.758472 1_555
O103 V8 1.758472 1_565
O108 V2 1.753061 1_555
O109 V3 1.753061 1_555
O110 V0 1.767192 1_555
O111 V1 1.767192 1_555
O118 V0 1.727208 1_555
O119 V1 1.727208 1_555
