# generated using pymatgen
data_Li2Si3Ni2O9
_symmetry_space_group_name_H-M   'P 1'
_cell_length_a   9.98011001
_cell_length_b   9.98014218
_cell_length_c   12.14395101
_cell_angle_alpha   89.99613347
_cell_angle_beta   90.00291134
_cell_angle_gamma   119.99687870
_symmetry_Int_Tables_number   1
_chemical_formula_structural   Li2Si3Ni2O9
_chemical_formula_sum   'Li12 Si18 Ni12 O54'
_cell_volume   1047.55383869
_cell_formula_units_Z   6
loop_
 _symmetry_equiv_pos_site_id
 _symmetry_equiv_pos_as_xyz
  1  'x, y, z'
loop_
 _atom_site_type_symbol
 _atom_site_label
 _atom_site_symmetry_multiplicity
 _atom_site_fract_x
 _atom_site_fract_y
 _atom_site_fract_z
 _atom_site_occupancy
  Li  Li0  1  0.14537700  0.98714900  0.17383800  1
  Li  Li1  1  0.20011500  0.76415600  0.01659000  1
  Li  Li2  1  0.23581200  0.43592500  0.68320700  1
  Li  Li3  1  0.01293500  0.15832100  0.84050700  1
  Li  Li4  1  0.56410700  0.79989000  0.34992200  1
  Li  Li5  1  0.17482400  0.01697000  0.67098700  1
  Li  Li6  1  0.33335300  0.28069000  0.78884900  1
  Li  Li7  1  0.84176700  0.85459900  0.50716700  1
  Li  Li8  1  0.84198000  0.82517700  0.00431400  1
  Li  Li9  1  0.71939400  0.05267500  0.45549400  1
  Li  Li10  1  0.94732600  0.66669600  0.12212000  1
  Li  Li11  1  0.98316500  0.15789300  0.33761000  1
  Si  Si0  1  0.12870100  0.95238000  0.91979600  1
  Si  Si1  1  0.29781600  0.82237700  0.76519200  1
  Si  Si2  1  0.19199900  0.50709700  0.89202500  1
  Si  Si3  1  0.31508900  0.80798100  0.22535600  1
  Si  Si4  1  0.04763000  0.17635300  0.58643600  1
  Si  Si5  1  0.17766900  0.47547800  0.43183900  1
  Si  Si6  1  0.18542400  0.01562800  0.42834200  1
  Si  Si7  1  0.49290600  0.68491800  0.55868700  1
  Si  Si8  1  0.52453500  0.70215900  0.09854800  1
  Si  Si9  1  0.61730000  0.49786900  0.44444200  1
  Si  Si10  1  0.48210000  0.20064600  0.57806800  1
  Si  Si11  1  0.82364500  0.87121000  0.25312900  1
  Si  Si12  1  0.83016900  0.81456500  0.76166500  1
  Si  Si13  1  0.71851500  0.51789500  0.91139900  1
  Si  Si14  1  0.50212900  0.11940400  0.11112500  1
  Si  Si15  1  0.88057500  0.38274700  0.77777200  1
  Si  Si16  1  0.79935200  0.28142000  0.24473800  1
  Si  Si17  1  0.98437300  0.16978700  0.09497600  1
  Ni  Ni0  1  0.33128400  0.84313800  0.49214000  1
  Ni  Ni1  1  0.15684700  0.48814800  0.15882200  1
  Ni  Ni2  1  0.51184500  0.66870500  0.82549900  1
  Ni  Ni3  1  0.33342500  0.32470500  0.24259600  1
  Ni  Ni4  1  0.36950600  0.33269900  0.00337100  1
  Ni  Ni5  1  0.51059400  0.16001900  0.84155000  1
  Ni  Ni6  1  0.64943900  0.48938400  0.17490600  1
  Ni  Ni7  1  0.99125700  0.66660500  0.57591600  1
  Ni  Ni8  1  0.96321600  0.63046200  0.33667800  1
  Ni  Ni9  1  0.66729000  0.03683100  0.67000800  1
  Ni  Ni10  1  0.67533500  0.00874800  0.90925300  1
  Ni  Ni11  1  0.83996100  0.35051900  0.50821600  1
  O  O0  1  0.10666900  0.82587900  0.43375000  1
  O  O1  1  0.06635900  0.87170600  0.03781200  1
  O  O2  1  0.19602700  0.84903200  0.86050900  1
  O  O3  1  0.13032800  0.68047500  0.21835200  1
  O  O4  1  0.04770600  0.52675500  0.44582100  1
  O  O5  1  0.04297900  0.38365400  0.81560100  1
  O  O6  1  0.21850200  0.80279200  0.64436900  1
  O  O7  1  0.14215300  0.55048100  0.00517000  1
  O  O8  1  0.34060800  0.95706400  0.14901600  1
  O  O9  1  0.28819100  0.66223000  0.81123400  1
  O  O10  1  0.15101600  0.34695500  0.52707100  1
  O  O11  1  0.40831100  0.85771000  0.33849500  1
  O  O12  1  0.12829300  0.19473300  0.70445300  1
  O  O13  1  0.19728700  0.41584300  0.31099700  1
  O  O14  1  0.47905700  0.95232800  0.77915300  1
  O  O15  1  0.37404000  0.71195500  0.14441600  1
  O  O16  1  0.31948600  0.44982600  0.88504400  1
  O  O17  1  0.17413600  0.28069900  0.10044700  1
  O  O18  1  0.07985400  0.05345100  0.51471500  1
  O  O19  1  0.33781700  0.62595600  0.47786800  1
  O  O20  1  0.20469500  0.10405300  0.31379000  1
  O  O21  1  0.44945200  0.59171300  0.67185400  1
  O  O22  1  0.55021500  0.86970100  0.55167500  1
  O  O23  1  0.58441900  0.78148100  0.97773400  1
  O  O24  1  0.25674000  0.13226500  0.91160000  1
  O  O25  1  0.47318700  0.52090900  0.11250900  1
  O  O26  1  0.65290800  0.80384800  0.19392000  1
  O  O27  1  0.61639100  0.65937000  0.48230100  1
  O  O28  1  0.35132600  0.06452600  0.49293900  1
  O  O29  1  0.71921800  0.89338400  0.76710200  1
  O  O30  1  0.54122400  0.44804700  0.32264200  1
  O  O31  1  0.40353300  0.16773000  0.69893400  1
  O  O32  1  0.80544000  0.93364200  0.37113800  1
  O  O33  1  0.50589600  0.36528200  0.53301500  1
  O  O34  1  0.46224600  0.25908500  0.12778300  1
  O  O35  1  0.54946300  0.36601300  0.89835500  1
  O  O36  1  0.71320900  0.64871900  0.82630200  1
  O  O37  1  0.55189500  0.09312800  0.98930200  1
  O  O38  1  0.76413700  0.59644300  0.03226800  1
  O  O39  1  0.89918800  0.79518800  0.64709000  1
  O  O40  1  0.87548800  0.74315300  0.24492100  1
  O  O41  1  0.63398200  0.18346300  0.56503100  1
  O  O42  1  0.79688800  0.53780300  0.46109700  1
  O  O43  1  0.97362400  0.92015200  0.84798200  1
  O  O44  1  0.63477100  0.14055600  0.19963900  1
  O  O45  1  0.85938600  0.49417500  0.86630500  1
  O  O46  1  0.81651800  0.45047900  0.23167700  1
  O  O47  1  0.74092700  0.20317000  0.79443900  1
  O  O48  1  0.83229600  0.23580000  0.36561900  1
  O  O49  1  0.90679100  0.45878700  0.65595200  1
  O  O50  1  0.86775500  0.12456500  0.57825700  1
  O  O51  1  0.93549300  0.28675400  0.15965000  1
  O  O52  1  0.89599900  0.10084000  0.98038000  1
  O  O53  1  0.94640100  0.02623500  0.18124400  1
loop_
_geom_bond_atom_site_label_1
_geom_bond_atom_site_label_2
_geom_bond_distance
_geom_bond_site_symmetry_2
Li0 O1 1.941571 1_555
Li0 O20 1.977313 1_565
Li0 O8 2.135982 1_555
Li0 O53 2.208675 1_465
Li1 O7 1.915204 1_555
Li1 O2 2.084760 1_554
Li1 O1 2.105530 1_555
Li1 O8 2.357918 1_555
Li1 O15 2.568636 1_555
Li2 O21 1.915127 1_555
Li2 O10 2.085313 1_555
Li2 O12 2.104637 1_555
Li2 O5 2.357358 1_555
Li2 O9 2.571273 1_555
Li3 O12 1.941435 1_555
Li3 O52 1.976610 1_455
Li3 O5 2.136449 1_555
Li3 O43 2.208985 1_445
Li4 O11 1.914930 1_555
Li4 O26 2.083555 1_555
Li4 O32 2.105822 1_555
Li4 O27 2.356849 1_555
Li4 O19 2.570585 1_555
Li5 O31 2.038383 1_555
Li5 O12 2.086182 1_555
Li5 O18 2.230957 1_555
Li5 O6 2.407347 1_545
Li5 O39 2.542145 1_445
Li6 O31 1.934831 1_555
Li6 O24 1.966806 1_555
Li6 O12 2.054029 1_555
Li6 O16 2.113536 1_555
Li6 O35 2.304085 1_555
Li7 O32 1.941223 1_555
Li7 O39 1.976572 1_555
Li7 O27 2.136504 1_555
Li7 O18 2.208569 1_665
Li8 O38 2.038769 1_555
Li8 O1 2.087072 1_655
Li8 O43 2.232406 1_554
Li8 O23 2.404338 1_554
Li8 O52 2.541818 1_564
Li9 O48 1.934365 1_555
Li9 O50 1.966564 1_555
Li9 O32 2.053889 1_545
Li9 O22 2.113449 1_545
Li9 O41 2.304939 1_555
Li10 O38 1.934651 1_555
Li10 O40 1.966594 1_555
Li10 O1 2.053092 1_655
Li10 O3 2.113991 1_655
Li10 O46 2.305170 1_555
Li11 O48 2.039123 1_555
Li11 O32 2.086000 1_545
Li11 O53 2.232747 1_555
Li11 O13 2.407822 1_655
Li11 O20 2.539371 1_655
Ni0 O11 1.995458 1_555
Ni0 O6 2.096077 1_555
Ni0 O28 2.116606 1_565
Ni0 O22 2.188083 1_555
Ni0 O19 2.207654 1_555
Ni0 O0 2.274067 1_555
Ni1 O7 1.995315 1_555
Ni1 O13 2.095161 1_555
Ni1 O51 2.116704 1_455
Ni1 O3 2.187494 1_555
Ni1 O15 2.208401 1_555
Ni1 O17 2.275118 1_555
Ni2 O21 1.995305 1_555
Ni2 O23 2.096242 1_555
Ni2 O36 2.116441 1_555
Ni2 O16 2.187895 1_555
Ni2 O9 2.207295 1_555
Ni2 O29 2.274613 1_555
Ni3 O30 2.051448 1_555
Ni3 O20 2.102001 1_555
Ni3 O13 2.144577 1_555
Ni3 O34 2.206354 1_555
Ni3 O17 2.236458 1_555
Ni3 O25 2.354644 1_555
Ni4 O24 2.063777 1_554
Ni4 O16 2.064866 1_554
Ni4 O34 2.087753 1_555
Ni4 O35 2.089412 1_554
Ni4 O25 2.100546 1_555
Ni4 O17 2.109320 1_555
Ni5 O35 2.013855 1_555
Ni5 O37 2.027303 1_555
Ni5 O31 2.056487 1_555
Ni5 O14 2.077869 1_545
Ni5 O47 2.192545 1_555
Ni6 O46 2.013389 1_555
Ni6 O30 2.027306 1_555
Ni6 O38 2.056557 1_555
Ni6 O25 2.078583 1_555
Ni6 O34 2.192477 1_555
Ni7 O49 2.051486 1_555
Ni7 O39 2.101771 1_555
Ni7 O6 2.144677 1_655
Ni7 O42 2.205945 1_555
Ni7 O0 2.236783 1_655
Ni7 O4 2.355424 1_655
Ni8 O40 2.063353 1_555
Ni8 O3 2.064766 1_655
Ni8 O42 2.087763 1_555
Ni8 O46 2.089617 1_555
Ni8 O4 2.100329 1_655
Ni8 O0 2.109788 1_655
Ni9 O50 2.063805 1_555
Ni9 O22 2.064911 1_545
Ni9 O47 2.087985 1_555
Ni9 O41 2.088873 1_555
Ni9 O14 2.100736 1_545
Ni9 O29 2.109498 1_545
Ni10 O37 2.051694 1_555
Ni10 O52 2.101609 1_555
Ni10 O23 2.145095 1_545
Ni10 O47 2.206181 1_555
Ni10 O29 2.236510 1_545
Ni10 O14 2.355278 1_545
Ni11 O41 2.013601 1_555
Ni11 O49 2.027489 1_555
Ni11 O48 2.056236 1_555
Ni11 O4 2.078467 1_655
Ni11 O42 2.192959 1_555
O0 Si6 1.649230 1_565
O1 Si0 1.608851 1_554
O2 Si1 1.647116 1_555
O2 Si0 1.651306 1_555
O3 Si3 1.637199 1_555
O4 Si5 1.623817 1_555
O5 Si2 1.661005 1_555
O5 Si15 1.680299 1_455
O6 Si1 1.631830 1_555
O7 Si2 1.593242 1_554
O8 Si3 1.661028 1_555
O8 Si14 1.680400 1_565
O9 Si1 1.650078 1_555
O9 Si2 1.671823 1_555
O10 Si5 1.646865 1_555
O10 Si4 1.651243 1_555
O11 Si3 1.593082 1_555
O12 Si4 1.608732 1_555
O13 Si5 1.631801 1_555
O14 Si1 1.623845 1_555
O15 Si8 1.650036 1_555
O15 Si3 1.671737 1_555
O16 Si2 1.637039 1_555
O17 Si17 1.649310 1_455
O18 Si6 1.658498 1_555
O18 Si4 1.661663 1_555
O19 Si5 1.649945 1_555
O19 Si7 1.671660 1_555
O20 Si6 1.606591 1_555
O21 Si7 1.593283 1_555
O22 Si7 1.637260 1_555
O23 Si8 1.631960 1_556
O24 Si0 1.603725 1_545
O25 Si8 1.623745 1_555
O26 Si8 1.647024 1_555
O26 Si11 1.651361 1_555
O27 Si7 1.660917 1_555
O27 Si9 1.680503 1_555
O28 Si6 1.669411 1_555
O28 Si10 1.686666 1_555
O29 Si12 1.649310 1_555
O30 Si9 1.622969 1_555
O31 Si10 1.618531 1_555
O32 Si11 1.608833 1_555
O33 Si10 1.632546 1_555
O33 Si9 1.634914 1_555
O34 Si14 1.642426 1_555
O35 Si13 1.616200 1_555
O36 Si12 1.669226 1_555
O36 Si13 1.686533 1_555
O37 Si14 1.623106 1_556
O38 Si13 1.618502 1_554
O39 Si12 1.606602 1_555
O40 Si11 1.603808 1_555
O41 Si10 1.616189 1_555
O42 Si9 1.642510 1_555
O43 Si12 1.658443 1_555
O43 Si0 1.661777 1_655
O44 Si16 1.632592 1_555
O44 Si14 1.634887 1_555
O45 Si13 1.632602 1_555
O45 Si15 1.634830 1_555
O46 Si16 1.616231 1_555
O47 Si15 1.642494 1_555
O48 Si16 1.618603 1_555
O49 Si15 1.623045 1_555
O50 Si4 1.603709 1_655
O51 Si17 1.669461 1_555
O51 Si16 1.686546 1_555
O52 Si17 1.606620 1_556
O53 Si17 1.658509 1_555
O53 Si11 1.661735 1_545
