# generated using pymatgen
data_U(AlAu)2
_symmetry_space_group_name_H-M   'P 1'
_cell_length_a   4.33676900
_cell_length_b   4.33676900
_cell_length_c   10.43178000
_cell_angle_alpha   90.00000000
_cell_angle_beta   90.00000000
_cell_angle_gamma   90.00000000
_symmetry_Int_Tables_number   1
_chemical_formula_structural   U(AlAu)2
_chemical_formula_sum   'U2 Al4 Au4'
_cell_volume   196.19638416
_cell_formula_units_Z   2
loop_
 _symmetry_equiv_pos_site_id
 _symmetry_equiv_pos_as_xyz
  1  'x, y, z'
loop_
 _atom_site_type_symbol
 _atom_site_label
 _atom_site_symmetry_multiplicity
 _atom_site_fract_x
 _atom_site_fract_y
 _atom_site_fract_z
 _atom_site_occupancy
  U  U0  1  0.00000000  0.50000000  0.24792800  1
  U  U1  1  0.50000000  0.00000000  0.75207200  1
  Al  Al0  1  0.00000000  0.00000000  0.50000000  1
  Al  Al1  1  0.50000000  0.50000000  0.50000000  1
  Al  Al2  1  0.00000000  0.50000000  0.86640900  1
  Al  Al3  1  0.50000000  0.00000000  0.13359100  1
  Au  Au0  1  0.00000000  0.00000000  0.00000000  1
  Au  Au1  1  0.50000000  0.50000000  0.00000000  1
  Au  Au2  1  0.00000000  0.50000000  0.63204200  1
  Au  Au3  1  0.50000000  0.00000000  0.36795800  1
loop_
_geom_bond_atom_site_label_1
_geom_bond_atom_site_label_2
_geom_bond_distance
_geom_bond_site_symmetry_2
Al0 Au2 2.568893 1_545
Al0 Au3 2.568893 1_455
Al0 Au2 2.568893 1_555
Al0 Au3 2.568893 1_555
Al0 U1 3.408295 1_555
Al0 U1 3.408295 1_455
Al0 U0 3.408295 1_545
Al0 U0 3.408295 1_555
Al1 Au3 2.568893 1_565
Al1 Au2 2.568893 1_555
Al1 Au2 2.568893 1_655
Al1 Au3 2.568893 1_555
Al1 U1 3.408295 1_565
Al1 U1 3.408295 1_555
Al1 U0 3.408295 1_555
Al1 U0 3.408295 1_655
Al2 Au2 2.444865 1_555
Al2 Au0 2.577594 1_566
Al2 Au1 2.577594 1_456
Al2 Au0 2.577594 1_556
Al2 Au1 2.577594 1_556
Al2 U1 3.290351 1_565
Al2 U1 3.290351 1_465
Al2 U1 3.290351 1_555
Al2 U1 3.290351 1_455
Al3 Au3 2.444865 1_555
Al3 Au0 2.577594 1_655
Al3 Au1 2.577594 1_545
Al3 Au0 2.577594 1_555
Al3 Au1 2.577594 1_555
Al3 U0 3.290351 1_645
Al3 U0 3.290351 1_545
Al3 U0 3.290351 1_655
Al3 U0 3.290351 1_555
Au0 U0 3.375055 1_545
Au0 U0 3.375055 1_555
Au0 U1 3.375055 1_454
Au0 U1 3.375055 1_554
Au1 U0 3.375055 1_655
Au1 U0 3.375055 1_555
Au1 U1 3.375055 1_564
Au1 U1 3.375055 1_554
Au2 U1 3.312341 1_565
Au2 U1 3.312341 1_465
Au2 U1 3.312341 1_555
Au2 U1 3.312341 1_455
Au3 U0 3.312341 1_545
Au3 U0 3.312341 1_555
Au3 U0 3.312341 1_655
Au3 U0 3.312341 1_645
