# generated using pymatgen
data_GdLuRh2
_symmetry_space_group_name_H-M   'P 1'
_cell_length_a   4.83668392
_cell_length_b   4.83668392
_cell_length_c   4.83668392
_cell_angle_alpha   60.00000000
_cell_angle_beta   60.00000000
_cell_angle_gamma   60.00000000
_symmetry_Int_Tables_number   1
_chemical_formula_structural   GdLuRh2
_chemical_formula_sum   'Gd1 Lu1 Rh2'
_cell_volume   80.00702533
_cell_formula_units_Z   1
loop_
 _symmetry_equiv_pos_site_id
 _symmetry_equiv_pos_as_xyz
  1  'x, y, z'
loop_
 _atom_site_type_symbol
 _atom_site_label
 _atom_site_symmetry_multiplicity
 _atom_site_fract_x
 _atom_site_fract_y
 _atom_site_fract_z
 _atom_site_occupancy
  Gd  Gd0  1  0.50000000  0.50000000  0.50000000  1
  Lu  Lu0  1  0.00000000  0.00000000  0.00000000  1
  Rh  Rh0  1  0.25000000  0.25000000  0.25000000  1
  Rh  Rh1  1  0.75000000  0.75000000  0.75000000  1
loop_
_geom_bond_atom_site_label_1
_geom_bond_atom_site_label_2
_geom_bond_distance
_geom_bond_site_symmetry_2
Gd0 Rh1 2.961852 1_545
Gd0 Rh0 2.961852 1_555
Gd0 Rh0 2.961852 1_556
Gd0 Rh0 2.961852 1_565
Gd0 Rh1 2.961852 1_455
Gd0 Rh1 2.961852 1_554
Gd0 Rh0 2.961852 1_655
Gd0 Rh1 2.961852 1_555
Lu0 Rh1 2.961852 1_445
Lu0 Rh1 2.961852 1_444
Lu0 Rh1 2.961852 1_454
Lu0 Rh0 2.961852 1_545
Lu0 Rh1 2.961852 1_544
Lu0 Rh0 2.961852 1_555
Lu0 Rh0 2.961852 1_455
Lu0 Rh0 2.961852 1_554
