# generated using pymatgen
data_Pu2TeO2
_symmetry_space_group_name_H-M   'P 1'
_cell_length_a   6.99575880
_cell_length_b   6.99575880
_cell_length_c   6.99575880
_cell_angle_alpha   146.82725716
_cell_angle_beta   146.82725716
_cell_angle_gamma   47.61962444
_symmetry_Int_Tables_number   1
_chemical_formula_structural   Pu2TeO2
_chemical_formula_sum   'Pu2 Te1 O2'
_cell_volume   102.09991513
_cell_formula_units_Z   1
loop_
 _symmetry_equiv_pos_site_id
 _symmetry_equiv_pos_as_xyz
  1  'x, y, z'
loop_
 _atom_site_type_symbol
 _atom_site_label
 _atom_site_symmetry_multiplicity
 _atom_site_fract_x
 _atom_site_fract_y
 _atom_site_fract_z
 _atom_site_occupancy
  Pu  Pu0  1  0.34307639  0.34307639  0.00000000  1
  Pu  Pu1  1  0.65692361  0.65692361  -0.00000000  1
  Te  Te0  1  -0.00000000  -0.00000000  -0.00000000  1
  O  O0  1  0.75000000  0.25000000  0.50000000  1
  O  O1  1  0.25000000  0.75000000  0.50000000  1
loop_
_geom_bond_atom_site_label_1
_geom_bond_atom_site_label_2
_geom_bond_distance
_geom_bond_site_symmetry_2
Pu0 Te0 3.465707 1_666
Pu0 Te0 3.465707 1_655
Pu0 Te0 3.465707 1_565
Pu0 Te0 3.465707 1_554
Pu1 Te0 3.465707 1_565
Pu1 Te0 3.465707 1_554
Pu1 Te0 3.465707 1_655
Pu1 Te0 3.465707 1_666
O0 Pu0 2.325424 1_656
O0 Pu1 2.325424 1_545
O0 Pu0 2.325424 1_555
O0 Pu1 2.325424 1_556
O1 Pu0 2.325424 1_566
O1 Pu1 2.325424 1_455
O1 Pu0 2.325424 1_555
O1 Pu1 2.325424 1_556
