# generated using pymatgen
data_Hf3Ti2Ga3
_symmetry_space_group_name_H-M   'P 1'
_cell_length_a   7.83159312
_cell_length_b   7.83159312
_cell_length_c   5.44155208
_cell_angle_alpha   90.00000000
_cell_angle_beta   90.00000000
_cell_angle_gamma   120.00000660
_symmetry_Int_Tables_number   1
_chemical_formula_structural   Hf3Ti2Ga3
_chemical_formula_sum   'Hf6 Ti4 Ga6'
_cell_volume   289.03712276
_cell_formula_units_Z   2
loop_
 _symmetry_equiv_pos_site_id
 _symmetry_equiv_pos_as_xyz
  1  'x, y, z'
loop_
 _atom_site_type_symbol
 _atom_site_label
 _atom_site_symmetry_multiplicity
 _atom_site_fract_x
 _atom_site_fract_y
 _atom_site_fract_z
 _atom_site_occupancy
  Hf  Hf0  1  0.24206766  0.00000000  0.25000000  1
  Hf  Hf1  1  0.75793234  -0.00000000  0.75000000  1
  Hf  Hf2  1  0.00000000  0.24206866  0.25000000  1
  Hf  Hf3  1  -0.00000000  0.75793134  0.75000000  1
  Hf  Hf4  1  0.75793134  0.75793134  0.25000000  1
  Hf  Hf5  1  0.24206866  0.24206866  0.75000000  1
  Ti  Ti0  1  0.33333300  0.66666700  0.00000000  1
  Ti  Ti1  1  0.66666700  0.33333300  -0.00000000  1
  Ti  Ti2  1  0.66666700  0.33333300  0.50000000  1
  Ti  Ti3  1  0.33333300  0.66666700  0.50000000  1
  Ga  Ga0  1  0.60046951  0.00000000  0.25000000  1
  Ga  Ga1  1  0.39953049  -0.00000000  0.75000000  1
  Ga  Ga2  1  0.00000000  0.60046951  0.25000000  1
  Ga  Ga3  1  -0.00000000  0.39953049  0.75000000  1
  Ga  Ga4  1  0.39953049  0.39953049  0.25000000  1
  Ga  Ga5  1  0.60046951  0.60046951  0.75000000  1
loop_
_geom_bond_atom_site_label_1
_geom_bond_atom_site_label_2
_geom_bond_distance
_geom_bond_site_symmetry_2
Hf0 Hf4 3.283586 1_445
Hf0 Hf2 3.283586 1_555
Hf0 Hf3 3.316112 1_544
Hf0 Hf3 3.316112 1_545
Hf0 Hf5 3.316112 1_554
Hf0 Hf5 3.316112 1_555
Hf0 Ti3 3.322991 1_545
Hf0 Ti0 3.322991 1_545
Hf0 Ti1 3.322995 1_555
Hf0 Ti2 3.322995 1_555
Hf1 Hf5 3.283586 1_655
Hf1 Hf3 3.283586 1_645
Hf1 Hf2 3.316112 1_655
Hf1 Hf2 3.316112 1_656
Hf1 Hf4 3.316112 1_546
Hf1 Hf4 3.316112 1_545
Hf1 Ti2 3.322991 1_555
Hf1 Ti1 3.322991 1_556
Hf1 Ti3 3.322995 1_545
Hf1 Ti0 3.322995 1_546
Hf2 Hf4 3.283593 1_445
Hf2 Hf5 3.316115 1_555
Hf2 Hf5 3.316115 1_554
Hf2 Ti1 3.322986 1_455
Hf2 Ti2 3.322986 1_455
Hf2 Ti3 3.322991 1_555
Hf2 Ti0 3.322991 1_555
Hf3 Hf5 3.283593 1_565
Hf3 Hf4 3.316115 1_455
Hf3 Hf4 3.316115 1_456
Hf3 Ti3 3.322986 1_555
Hf3 Ti0 3.322986 1_556
Hf3 Ti2 3.322991 1_455
Hf3 Ti1 3.322991 1_456
Hf4 Ti2 3.322993 1_555
Hf4 Ti3 3.322993 1_555
Hf4 Ti0 3.322993 1_555
Hf4 Ti1 3.322993 1_555
Hf5 Ti3 3.322993 1_555
Hf5 Ti0 3.322993 1_556
Hf5 Ti2 3.322993 1_555
Hf5 Ti1 3.322993 1_556
Ti0 Ti3 2.720776 1_554
Ti0 Ti3 2.720776 1_555
Ti1 Ti2 2.720776 1_555
Ti1 Ti2 2.720776 1_554
Ga0 Hf2 2.729937 1_655
Ga0 Hf4 2.729937 1_545
Ga0 Ti2 2.753344 1_555
Ga0 Ti1 2.753344 1_555
Ga0 Ti3 2.753346 1_545
Ga0 Ti0 2.753346 1_545
Ga0 Hf0 2.806857 1_555
Ga0 Hf1 2.987201 1_555
Ga0 Hf1 2.987201 1_554
Ga1 Hf3 2.729937 1_545
Ga1 Hf5 2.729937 1_555
Ga1 Ti3 2.753344 1_545
Ga1 Ti0 2.753344 1_546
Ga1 Ti2 2.753346 1_555
Ga1 Ti1 2.753346 1_556
Ga1 Hf1 2.806857 1_555
Ga1 Hf0 2.987201 1_555
Ga1 Hf0 2.987201 1_556
Ga2 Hf0 2.729936 1_565
Ga2 Hf4 2.729937 1_455
Ga2 Ti3 2.753344 1_555
Ga2 Ti0 2.753344 1_555
Ga2 Ti1 2.753346 1_455
Ga2 Ti2 2.753346 1_455
Ga2 Hf2 2.806850 1_555
Ga2 Hf3 2.987197 1_554
Ga2 Hf3 2.987197 1_555
Ga3 Hf1 2.729936 1_455
Ga3 Hf5 2.729937 1_555
Ga3 Ti1 2.753344 1_456
Ga3 Ti2 2.753344 1_455
Ga3 Ti0 2.753346 1_556
Ga3 Ti3 2.753346 1_555
Ga3 Hf3 2.806850 1_555
Ga3 Hf2 2.987197 1_555
Ga3 Hf2 2.987197 1_556
Ga4 Hf0 2.729936 1_555
Ga4 Hf2 2.729937 1_555
Ga4 Ti3 2.753351 1_555
Ga4 Ti2 2.753351 1_555
Ga4 Ti1 2.753351 1_555
Ga4 Ti0 2.753351 1_555
Ga4 Hf4 2.806849 1_555
Ga4 Hf5 2.987197 1_554
Ga4 Hf5 2.987197 1_555
Ga5 Hf1 2.729936 1_565
Ga5 Hf3 2.729937 1_655
Ga5 Ti2 2.753351 1_555
Ga5 Ti1 2.753351 1_556
Ga5 Ti3 2.753351 1_555
Ga5 Ti0 2.753351 1_556
Ga5 Hf5 2.806849 1_555
Ga5 Hf4 2.987197 1_555
Ga5 Hf4 2.987197 1_556
