# generated using pymatgen
data_BeH48C20I6(N2O)4
_symmetry_space_group_name_H-M   'P 1'
_cell_length_a   11.67209067
_cell_length_b   11.67209067
_cell_length_c   19.59155727
_cell_angle_alpha   92.72099636
_cell_angle_beta   106.06710697
_cell_angle_gamma   117.11461504
_symmetry_Int_Tables_number   1
_chemical_formula_structural   BeH48C20I6(N2O)4
_chemical_formula_sum   'Be2 H96 C40 I12 N16 O8'
_cell_volume   2235.43879375
_cell_formula_units_Z   2
loop_
 _symmetry_equiv_pos_site_id
 _symmetry_equiv_pos_as_xyz
  1  'x, y, z'
loop_
 _atom_site_type_symbol
 _atom_site_label
 _atom_site_symmetry_multiplicity
 _atom_site_fract_x
 _atom_site_fract_y
 _atom_site_fract_z
 _atom_site_occupancy
  Be  Be0  1  0.75601033  0.00601033  0.75000000  1
  Be  Be1  1  0.24398967  0.99398967  0.25000000  1
  H  H0  1  0.72687839  0.77164209  0.69262916  1
  H  H1  1  0.57901293  0.03424923  0.80737084  1
  H  H2  1  0.27312161  0.22835791  0.30737084  1
  H  H3  1  0.42098707  0.96575077  0.19262916  1
  H  H4  1  0.64855194  0.66926940  0.75014174  1
  H  H5  1  0.41912767  0.89841020  0.74985826  1
  H  H6  1  0.35144806  0.33073060  0.24985826  1
  H  H7  1  0.58087233  0.10158980  0.25014174  1
  H  H8  1  0.62948074  0.59715575  0.66272453  1
  H  H9  1  0.43443122  0.96675621  0.83727547  1
  H  H10  1  0.37051926  0.40284425  0.33727547  1
  H  H11  1  0.56556878  0.03324379  0.16272453  1
  H  H12  1  0.30224267  0.59110054  0.64381009  1
  H  H13  1  0.44729045  0.65843258  0.85618991  1
  H  H14  1  0.69775733  0.40889946  0.35618991  1
  H  H15  1  0.55270955  0.34156742  0.14381009  1
  H  H16  1  0.36291470  0.49346551  0.60830425  1
  H  H17  1  0.38516125  0.75461044  0.89169575  1
  H  H18  1  0.63708530  0.50653449  0.39169575  1
  H  H19  1  0.61483875  0.24538956  0.10830425  1
  H  H20  1  0.40295351  0.53510025  0.70380277  1
  H  H21  1  0.33129748  0.69915073  0.79619723  1
  H  H22  1  0.59704649  0.46489975  0.29619723  1
  H  H23  1  0.66870252  0.30084927  0.20380277  1
  H  H24  1  0.35625645  0.61848580  0.52804750  1
  H  H25  1  0.59043829  0.82820894  0.97195250  1
  H  H26  1  0.64374355  0.38151420  0.47195250  1
  H  H27  1  0.40956171  0.17179106  0.02804750  1
  H  H28  1  0.21462904  0.63891319  0.53248731  1
  H  H29  1  0.60642588  0.68214173  0.96751269  1
  H  H30  1  0.78537096  0.36108681  0.46751269  1
  H  H31  1  0.39357412  0.31785827  0.03248731  1
  H  H32  1  0.31779523  0.72964237  0.48117062  1
  H  H33  1  0.74847175  0.83662461  0.01882938  1
  H  H34  1  0.68220477  0.27035763  0.51882938  1
  H  H35  1  0.25152825  0.16337539  0.98117062  1
  H  H36  1  0.45363064  0.98540826  0.63701292  1
  H  H37  1  0.84839534  0.81661772  0.86298708  1
  H  H38  1  0.54636936  0.01459174  0.36298708  1
  H  H39  1  0.15160466  0.18338228  0.13701292  1
  H  H40  1  0.42914651  0.95893473  0.54197218  1
  H  H41  1  0.91696255  0.88717433  0.95802782  1
  H  H42  1  0.57085349  0.04106527  0.45802782  1
  H  H43  1  0.08303745  0.11282567  0.04197218  1
  H  H44  1  0.28566709  0.88375786  0.57183401  1
  H  H45  1  0.81192385  0.71383308  0.92816599  1
  H  H46  1  0.71433291  0.11624214  0.42816599  1
  H  H47  1  0.18807615  0.28616692  0.07183401  1
  H  H48  1  0.14673879  0.06170356  0.63935176  1
  H  H49  1  0.92235181  0.50738704  0.86064824  1
  H  H50  1  0.85326121  0.93829644  0.36064824  1
  H  H51  1  0.07764819  0.49261296  0.13935176  1
  H  H52  1  0.29108982  0.13650634  0.72180221  1
  H  H53  1  0.91470413  0.56928760  0.77819779  1
  H  H54  1  0.70891018  0.86349366  0.27819779  1
  H  H55  1  0.08529587  0.43071240  0.22180221  1
  H  H56  1  0.19334038  0.96133216  0.69320768  1
  H  H57  1  0.76812449  0.50013270  0.80679232  1
  H  H58  1  0.80665962  0.03866784  0.30679232  1
  H  H59  1  0.23187551  0.49986730  0.19320768  1
  H  H60  1  0.05727232  0.99216844  0.83091365  1
  H  H61  1  0.66125479  0.22635867  0.66908635  1
  H  H62  1  0.94272768  0.00783156  0.16908635  1
  H  H63  1  0.33874521  0.77364133  0.33091365  1
  H  H64  1  0.07391597  0.87366646  0.77838458  1
  H  H65  1  0.59528188  0.29553139  0.72161542  1
  H  H66  1  0.92608403  0.12633354  0.22161542  1
  H  H67  1  0.40471812  0.70446861  0.27838458  1
  H  H68  1  0.22197525  0.02437005  0.82864542  1
  H  H69  1  0.69572463  0.39332984  0.67135458  1
  H  H70  1  0.77802475  0.97562995  0.17135458  1
  H  H71  1  0.30427537  0.60667016  0.32864542  1
  H  H72  1  0.20894009  0.28040492  0.71564686  1
  H  H73  1  0.06475806  0.49329322  0.78435314  1
  H  H74  1  0.79105991  0.71959508  0.28435314  1
  H  H75  1  0.93524194  0.50670678  0.21564686  1
  H  H76  1  0.14794157  0.25245085  0.61858981  1
  H  H77  1  0.13386105  0.52935176  0.88141019  1
  H  H78  1  0.85205843  0.74754915  0.38141019  1
  H  H79  1  0.86613895  0.47064824  0.11858981  1
  H  H80  1  0.10947719  0.35131572  0.67059849  1
  H  H81  1  0.18071723  0.43887870  0.82940151  1
  H  H82  1  0.89052281  0.64868428  0.32940151  1
  H  H83  1  0.81928277  0.56112130  0.17059849  1
  H  H84  1  0.78366914  0.05543554  0.61713459  1
  H  H85  1  0.93830095  0.16653455  0.88286541  1
  H  H86  1  0.21633086  0.94456446  0.38286541  1
  H  H87  1  0.06169905  0.83346545  0.11713459  1
  H  H88  1  0.86416374  0.23202116  0.63742530  1
  H  H89  1  0.09459586  0.22673844  0.86257470  1
  H  H90  1  0.13583626  0.76797884  0.36257470  1
  H  H91  1  0.90540414  0.77326156  0.13742530  1
  H  H92  1  0.88135120  0.15092977  0.56469304  1
  H  H93  1  0.08623673  0.31665815  0.93530696  1
  H  H94  1  0.11864880  0.84907023  0.43530696  1
  H  H95  1  0.91376327  0.68334185  0.06469304  1
  C  C0  1  0.63748136  0.68309608  0.69389482  1
  C  C1  1  0.48920125  0.94358654  0.80610518  1
  C  C2  1  0.36251864  0.31690392  0.30610518  1
  C  C3  1  0.51079875  0.05641346  0.19389482  1
  C  C4  1  0.38784588  0.57135134  0.65291158  1
  C  C5  1  0.41843976  0.73493430  0.84708842  1
  C  C6  1  0.61215412  0.42864866  0.34708842  1
  C  C7  1  0.58156024  0.26506570  0.15291158  1
  C  C8  1  0.31943669  0.68887370  0.53071562  1
  C  C9  1  0.65815807  0.78872107  0.96928438  1
  C  C10  1  0.68056331  0.31112630  0.46928438  1
  C  C11  1  0.34184193  0.21127893  0.03071562  1
  C  C12  1  0.39466987  0.91382788  0.58579114  1
  C  C13  1  0.82803673  0.80887872  0.91420886  1
  C  C14  1  0.60533013  0.08617212  0.41420886  1
  C  C15  1  0.17196327  0.19112128  0.08579114  1
  C  C16  1  0.18748424  0.05284971  0.69501078  1
  C  C17  1  0.85783893  0.49247346  0.80498922  1
  C  C18  1  0.81251576  0.94715029  0.30498922  1
  C  C19  1  0.14216107  0.50752654  0.19501078  1
  C  C20  1  0.11256591  0.97922905  0.79714707  1
  C  C21  1  0.68208199  0.31541885  0.70285293  1
  C  C22  1  0.88743409  0.02077095  0.20285293  1
  C  C23  1  0.31791801  0.68458115  0.29714707  1
  C  C24  1  0.12330307  0.26410146  0.66803271  1
  C  C25  1  0.09606874  0.45527035  0.83196729  1
  C  C26  1  0.87669693  0.73589854  0.33196729  1
  C  C27  1  0.90393126  0.54472965  0.16803271  1
  C  C28  1  0.87370119  0.14685277  0.61938573  1
  C  C29  1  0.02746704  0.25431546  0.88061427  1
  C  C30  1  0.12629881  0.85314723  0.38061427  1
  C  C31  1  0.97253296  0.74568454  0.11938573  1
  C  C32  1  0.51926014  0.80543996  0.64479757  1
  C  C33  1  0.66064239  0.87446257  0.85520243  1
  C  C34  1  0.48073986  0.19456004  0.35520243  1
  C  C35  1  0.33935761  0.12553743  0.14479757  1
  C  C36  1  0.99045995  0.06646376  0.71313041  1
  C  C37  1  0.85333335  0.27732954  0.78686959  1
  C  C38  1  0.00954005  0.93353624  0.28686959  1
  C  C39  1  0.14666665  0.72267046  0.21313041  1
  I  I0  1  0.65644533  0.78208034  0.47452468  1
  I  I1  1  0.80755566  0.18192065  0.02547532  1
  I  I2  1  0.34355467  0.21791966  0.52547532  1
  I  I3  1  0.19244434  0.81807935  0.97452468  1
  I  I4  1  0.85534423  0.71035856  0.55909309  1
  I  I5  1  0.65126547  0.29625114  0.94090691  1
  I  I6  1  0.14465577  0.28964144  0.44090691  1
  I  I7  1  0.34873453  0.70374886  0.05909309  1
  I  I8  1  0.05039869  0.62988337  0.64579081  1
  I  I9  1  0.48409256  0.40460788  0.85420919  1
  I  I10  1  0.94960131  0.37011663  0.35420919  1
  I  I11  1  0.51590744  0.59539212  0.14579081  1
  N  N0  1  0.51428944  0.69150944  0.66127581  1
  N  N1  1  0.53023363  0.85301364  0.83872419  1
  N  N2  1  0.48571056  0.30849056  0.33872419  1
  N  N3  1  0.46976637  0.14698636  0.16127581  1
  N  N4  1  0.41074933  0.79811621  0.59257208  1
  N  N5  1  0.70554413  0.81817724  0.90742792  1
  N  N6  1  0.58925067  0.20188379  0.40742792  1
  N  N7  1  0.29445587  0.18182276  0.09257208  1
  N  N8  1  0.09733310  0.04312609  0.73593883  1
  N  N9  1  0.80718726  0.36139427  0.76406117  1
  N  N10  1  0.90266690  0.95687391  0.26406117  1
  N  N11  1  0.19281274  0.63860573  0.23593883  1
  N  N12  1  0.99635603  0.15190360  0.66761633  1
  N  N13  1  0.98428727  0.32873970  0.83238367  1
  N  N14  1  0.00364397  0.84809640  0.33238367  1
  N  N15  1  0.01571273  0.67126030  0.16761633  1
  O  O0  1  0.62190701  0.91936914  0.67708616  1
  O  O1  1  0.74228298  0.94482084  0.82291384  1
  O  O2  1  0.37809299  0.08063086  0.32291384  1
  O  O3  1  0.25771702  0.05517916  0.17708616  1
  O  O4  1  0.88857829  0.00700234  0.73548620  1
  O  O5  1  0.77151614  0.15309209  0.76451380  1
  O  O6  1  0.11142171  0.99299766  0.26451380  1
  O  O7  1  0.22848386  0.84690791  0.23548620  1
loop_
_geom_bond_atom_site_label_1
_geom_bond_atom_site_label_2
_geom_bond_distance
_geom_bond_site_symmetry_2
Be0 O0 1.641833 1_545
Be0 O1 1.641833 1_545
Be0 O5 1.644016 1_555
Be0 O4 1.644016 1_555
Be1 O2 1.641833 1_565
Be1 O3 1.641833 1_565
Be1 O6 1.644016 1_555
Be1 O7 1.644016 1_555
C0 H0 1.091460 1_555
C0 H8 1.101247 1_555
C0 H4 1.101883 1_555
C0 N0 1.453152 1_555
C1 H1 1.091460 1_565
C1 H9 1.101247 1_555
C1 H5 1.101883 1_555
C1 N1 1.453152 1_555
C2 H2 1.091460 1_555
C2 H10 1.101247 1_555
C2 H6 1.101883 1_555
C2 N2 1.453152 1_555
C3 H3 1.091460 1_545
C3 H11 1.101247 1_555
C3 H7 1.101883 1_555
C3 N3 1.453152 1_555
C4 H12 1.094762 1_555
C4 H20 1.102254 1_555
C4 H16 1.103418 1_555
C4 N0 1.459291 1_555
C5 H13 1.094762 1_555
C5 H21 1.102254 1_555
C5 H17 1.103418 1_555
C5 N1 1.459291 1_555
C6 H14 1.094762 1_555
C6 H22 1.102254 1_555
C6 H18 1.103418 1_555
C6 N2 1.459291 1_555
C7 H15 1.094762 1_555
C7 H23 1.102254 1_555
C7 H19 1.103418 1_555
C7 N3 1.459291 1_555
C8 H24 1.092072 1_555
C8 H32 1.100393 1_555
C8 H28 1.101335 1_555
C8 N4 1.459442 1_555
C9 H25 1.092072 1_555
C9 H33 1.100393 1_556
C9 H29 1.101335 1_555
C9 N5 1.459442 1_555
C10 H26 1.092072 1_555
C10 H34 1.100393 1_555
C10 H30 1.101335 1_555
C10 N6 1.459442 1_555
C11 H27 1.092072 1_555
C11 H35 1.100393 1_554
C11 H31 1.101335 1_555
C11 N7 1.459442 1_555
C12 H36 1.092109 1_555
C12 H44 1.099067 1_555
C12 H40 1.103237 1_555
C12 N4 1.453024 1_555
C13 H37 1.092110 1_555
C13 H45 1.099067 1_555
C13 H41 1.103237 1_555
C13 N5 1.453024 1_555
C14 H38 1.092109 1_555
C14 H46 1.099067 1_555
C14 H42 1.103237 1_555
C14 N6 1.453024 1_555
C15 H39 1.092110 1_555
C15 H47 1.099067 1_555
C15 H43 1.103237 1_555
C15 N7 1.453024 1_555
C16 H48 1.092875 1_555
C16 H56 1.100584 1_545
C16 H52 1.102260 1_555
C16 N8 1.459412 1_555
C17 H49 1.092875 1_555
C17 H57 1.100583 1_555
C17 H53 1.102260 1_555
C17 N9 1.459412 1_555
C18 H50 1.092875 1_555
C18 H58 1.100584 1_565
C18 H54 1.102260 1_555
C18 N10 1.459412 1_555
C19 H51 1.092875 1_555
C19 H59 1.100583 1_555
C19 H55 1.102260 1_555
C19 N11 1.459412 1_555
C20 H60 1.092094 1_555
C20 H68 1.099466 1_565
C20 H64 1.102416 1_555
C20 N8 1.453828 1_565
C21 H61 1.092094 1_555
C21 H69 1.099466 1_555
C21 H65 1.102416 1_555
C21 N9 1.453828 1_555
C22 H62 1.092094 1_555
C22 H70 1.099466 1_545
C22 H66 1.102416 1_555
C22 N10 1.453828 1_545
C23 H63 1.092094 1_555
C23 H71 1.099466 1_555
C23 H67 1.102416 1_555
C23 N11 1.453828 1_555
C24 H72 1.095060 1_555
C24 H80 1.101915 1_555
C24 H76 1.103106 1_555
C24 N12 1.460857 1_455
C25 H73 1.095060 1_555
C25 H81 1.101915 1_555
C25 H77 1.103106 1_555
C25 N13 1.460857 1_455
C26 H74 1.095060 1_555
C26 H82 1.101915 1_555
C26 H78 1.103106 1_555
C26 N14 1.460857 1_655
C27 H75 1.095060 1_555
C27 H83 1.101915 1_555
C27 H79 1.103106 1_555
C27 N15 1.460857 1_655
C28 H84 1.092050 1_555
C28 H92 1.101049 1_555
C28 H88 1.102188 1_555
C28 N12 1.454271 1_555
C29 H85 1.092050 1_455
C29 H93 1.101049 1_555
C29 H89 1.102188 1_555
C29 N13 1.454271 1_455
C30 H86 1.092050 1_555
C30 H94 1.101049 1_555
C30 H90 1.102188 1_555
C30 N14 1.454271 1_555
C31 H87 1.092050 1_655
C31 H95 1.101049 1_555
C31 H91 1.102188 1_555
C31 N15 1.454271 1_655
C32 O0 1.285409 1_555
C32 N4 1.354265 1_555
C32 N0 1.362635 1_555
C33 O1 1.285409 1_555
C33 N5 1.354265 1_555
C33 N1 1.362636 1_555
C34 O2 1.285409 1_555
C34 N6 1.354265 1_555
C34 N2 1.362635 1_555
C35 O3 1.285409 1_555
C35 N7 1.354265 1_555
C35 N3 1.362636 1_555
C36 O4 1.285490 1_555
C36 N8 1.357469 1_655
C36 N12 1.360227 1_555
C37 O5 1.285490 1_555
C37 N9 1.357469 1_555
C37 N13 1.360227 1_555
C38 O6 1.285490 1_555
C38 N10 1.357469 1_455
C38 N14 1.360227 1_555
C39 O7 1.285490 1_555
C39 N11 1.357469 1_555
C39 N15 1.360227 1_555
I0 I4 2.934231 1_555
I1 I5 2.934231 1_554
I2 I6 2.934231 1_555
I3 I7 2.934231 1_556
I4 I8 2.985133 1_655
I5 I9 2.985133 1_555
I10 I6 2.985133 1_655
I11 I7 2.985133 1_555
