# generated using pymatgen
data_PrGdAl4
_symmetry_space_group_name_H-M   'P 1'
_cell_length_a   5.63928091
_cell_length_b   5.63928091
_cell_length_c   5.63928091
_cell_angle_alpha   60.00000000
_cell_angle_beta   60.00000000
_cell_angle_gamma   60.00000000
_symmetry_Int_Tables_number   1
_chemical_formula_structural   PrGdAl4
_chemical_formula_sum   'Pr1 Gd1 Al4'
_cell_volume   126.81078395
_cell_formula_units_Z   1
loop_
 _symmetry_equiv_pos_site_id
 _symmetry_equiv_pos_as_xyz
  1  'x, y, z'
loop_
 _atom_site_type_symbol
 _atom_site_label
 _atom_site_symmetry_multiplicity
 _atom_site_fract_x
 _atom_site_fract_y
 _atom_site_fract_z
 _atom_site_occupancy
  Pr  Pr0  1  -0.00000000  -0.00000000  -0.00000000  1
  Gd  Gd0  1  0.25000000  0.25000000  0.25000000  1
  Al  Al0  1  0.62486703  0.62486703  0.12539892  1
  Al  Al1  1  0.62486703  0.12539892  0.62486703  1
  Al  Al2  1  0.12539892  0.62486703  0.62486703  1
  Al  Al3  1  0.62486703  0.62486703  0.62486703  1
loop_
_geom_bond_atom_site_label_1
_geom_bond_atom_site_label_2
_geom_bond_distance
_geom_bond_site_symmetry_2
Gd0 Pr0 3.453340 1_655
Gd0 Pr0 3.453340 1_555
Gd0 Pr0 3.453340 1_556
Gd0 Pr0 3.453340 1_565
Al0 Al1 2.816641 1_555
Al0 Al2 2.816641 1_555
Al0 Al3 2.816641 1_555
Al0 Al1 2.822640 1_564
Al0 Al3 2.822640 1_554
Al0 Al2 2.822640 1_654
Al0 Gd0 3.306002 1_565
Al0 Gd0 3.306002 1_655
Al0 Gd0 3.306002 1_555
Al0 Pr0 3.306642 1_665
Al0 Pr0 3.306642 1_565
Al0 Pr0 3.306642 1_655
Al1 Al2 2.816641 1_555
Al1 Al3 2.816641 1_555
Al1 Al2 2.822640 1_645
Al1 Al3 2.822640 1_545
Al1 Gd0 3.306002 1_655
Al1 Gd0 3.306002 1_556
Al1 Gd0 3.306002 1_555
Al1 Pr0 3.306642 1_656
Al1 Pr0 3.306642 1_556
Al1 Pr0 3.306642 1_655
Al2 Al3 2.816641 1_555
Al2 Al3 2.822640 1_455
Al2 Gd0 3.306002 1_565
Al2 Gd0 3.306002 1_556
Al2 Gd0 3.306002 1_555
Al2 Pr0 3.306642 1_566
Al2 Pr0 3.306642 1_556
Al2 Pr0 3.306642 1_565
Al3 Gd0 3.306002 1_565
Al3 Gd0 3.306002 1_556
Al3 Gd0 3.306002 1_655
Al3 Pr0 3.306642 1_566
Al3 Pr0 3.306642 1_656
Al3 Pr0 3.306642 1_665
