# generated using pymatgen
data_NaCr5Se8
_symmetry_space_group_name_H-M   'P 1'
_cell_length_a   9.63815823
_cell_length_b   9.63815823
_cell_length_c   9.00421713
_cell_angle_alpha   75.17434445
_cell_angle_beta   75.17434445
_cell_angle_gamma   22.09023700
_symmetry_Int_Tables_number   1
_chemical_formula_structural   NaCr5Se8
_chemical_formula_sum   'Na1 Cr5 Se8'
_cell_volume   303.67836373
_cell_formula_units_Z   1
loop_
 _symmetry_equiv_pos_site_id
 _symmetry_equiv_pos_as_xyz
  1  'x, y, z'
loop_
 _atom_site_type_symbol
 _atom_site_label
 _atom_site_symmetry_multiplicity
 _atom_site_fract_x
 _atom_site_fract_y
 _atom_site_fract_z
 _atom_site_occupancy
  Na  Na0  1  0.50000000  0.50000000  0.50000000  1
  Cr  Cr0  1  0.00000000  0.00000000  0.00000000  1
  Cr  Cr1  1  0.34208500  0.34208500  0.97834500  1
  Cr  Cr2  1  0.65791500  0.65791500  0.02165500  1
  Cr  Cr3  1  0.29580500  0.29580500  0.33540500  1
  Cr  Cr4  1  0.70419500  0.70419500  0.66459500  1
  Se  Se0  1  0.57419700  0.57419700  0.84147900  1
  Se  Se1  1  0.42580300  0.42580300  0.15852100  1
  Se  Se2  1  0.08488600  0.08488600  0.17728200  1
  Se  Se3  1  0.91511400  0.91511400  0.82271800  1
  Se  Se4  1  0.16916500  0.16916500  0.50922000  1
  Se  Se5  1  0.83083500  0.83083500  0.49078000  1
  Se  Se6  1  0.23903200  0.23903200  0.84236700  1
  Se  Se7  1  0.76096800  0.76096800  0.15763300  1
loop_
_geom_bond_atom_site_label_1
_geom_bond_atom_site_label_2
_geom_bond_distance
_geom_bond_site_symmetry_2
Na0 Se3 3.463992 1_545
Na0 Se3 3.463992 1_455
Na0 Se2 3.463992 1_565
Na0 Se2 3.463992 1_655
Cr0 Se0 2.524417 1_454
Cr0 Se0 2.524417 1_544
Cr0 Se1 2.524417 1_545
Cr0 Se1 2.524417 1_455
Cr0 Se2 2.542440 1_555
Cr0 Se3 2.542440 1_444
Cr1 Se3 2.504524 1_545
Cr1 Se3 2.504524 1_455
Cr1 Se1 2.545685 1_556
Cr1 Se6 2.558333 1_555
Cr1 Se7 2.660655 1_456
Cr1 Se7 2.660655 1_546
Cr2 Se2 2.504524 1_565
Cr2 Se2 2.504524 1_655
Cr2 Se0 2.545685 1_554
Cr2 Se7 2.558333 1_555
Cr2 Se6 2.660655 1_654
Cr2 Se6 2.660655 1_564
Cr3 Se4 2.496945 1_555
Cr3 Se5 2.507891 1_455
Cr3 Se5 2.507891 1_545
Cr3 Se1 2.557964 1_555
Cr3 Se7 2.637476 1_455
Cr3 Se7 2.637476 1_545
Cr4 Se5 2.496945 1_555
Cr4 Se4 2.507891 1_655
Cr4 Se4 2.507891 1_565
Cr4 Se0 2.557964 1_555
Cr4 Se6 2.637476 1_565
Cr4 Se6 2.637476 1_655
