# generated using pymatgen
data_LiCa3As2H
_symmetry_space_group_name_H-M   'P 1'
_cell_length_a   4.28336000
_cell_length_b   11.48061500
_cell_length_c   11.87829200
_cell_angle_alpha   90.00000000
_cell_angle_beta   90.00000000
_cell_angle_gamma   90.00000000
_symmetry_Int_Tables_number   1
_chemical_formula_structural   LiCa3As2H
_chemical_formula_sum   'Li4 Ca12 As8 H4'
_cell_volume   584.12222001
_cell_formula_units_Z   4
loop_
 _symmetry_equiv_pos_site_id
 _symmetry_equiv_pos_as_xyz
  1  'x, y, z'
loop_
 _atom_site_type_symbol
 _atom_site_label
 _atom_site_symmetry_multiplicity
 _atom_site_fract_x
 _atom_site_fract_y
 _atom_site_fract_z
 _atom_site_occupancy
  Li  Li0  1  0.25000000  0.13199300  0.86143800  1
  Li  Li1  1  0.25000000  0.63199300  0.63856200  1
  Li  Li2  1  0.75000000  0.86800700  0.13856200  1
  Li  Li3  1  0.75000000  0.36800700  0.36143800  1
  Ca  Ca0  1  0.25000000  0.06008600  0.62158900  1
  Ca  Ca1  1  0.25000000  0.56008600  0.87841100  1
  Ca  Ca2  1  0.75000000  0.93991400  0.37841100  1
  Ca  Ca3  1  0.75000000  0.43991400  0.12158900  1
  Ca  Ca4  1  0.25000000  0.36474500  0.56113300  1
  Ca  Ca5  1  0.25000000  0.86474500  0.93886700  1
  Ca  Ca6  1  0.75000000  0.63525500  0.43886700  1
  Ca  Ca7  1  0.75000000  0.13525500  0.06113300  1
  Ca  Ca8  1  0.25000000  0.20962500  0.29602600  1
  Ca  Ca9  1  0.25000000  0.70962500  0.20397400  1
  Ca  Ca10  1  0.75000000  0.79037500  0.70397400  1
  Ca  Ca11  1  0.75000000  0.29037500  0.79602600  1
  As  As0  1  0.25000000  0.48151500  0.32441700  1
  As  As1  1  0.25000000  0.98151500  0.17558300  1
  As  As2  1  0.75000000  0.51848500  0.67558300  1
  As  As3  1  0.75000000  0.01848500  0.82441700  1
  As  As4  1  0.25000000  0.31607100  0.98598000  1
  As  As5  1  0.25000000  0.81607100  0.51402000  1
  As  As6  1  0.75000000  0.68392900  0.01402000  1
  As  As7  1  0.75000000  0.18392900  0.48598000  1
  H  H0  1  0.25000000  0.23619200  0.72022100  1
  H  H1  1  0.25000000  0.73619200  0.77977900  1
  H  H2  1  0.75000000  0.76380800  0.27977900  1
  H  H3  1  0.75000000  0.26380800  0.22022100  1
loop_
_geom_bond_atom_site_label_1
_geom_bond_atom_site_label_2
_geom_bond_distance
_geom_bond_site_symmetry_2
Ca0 H0 2.336727 1_555
Ca1 H1 2.336727 1_555
Ca2 H2 2.336727 1_555
Ca3 H3 2.336727 1_555
Ca4 H0 2.397734 1_555
Ca5 H1 2.397734 1_555
Ca6 H2 2.397734 1_555
Ca7 H3 2.397734 1_555
Ca8 H3 2.405104 1_555
Ca8 H3 2.405104 1_455
Ca9 H2 2.405104 1_455
Ca9 H2 2.405104 1_555
Ca10 H1 2.405104 1_555
Ca10 H1 2.405104 1_655
Ca11 H0 2.405104 1_555
Ca11 H0 2.405104 1_655
As0 Li3 2.545260 1_555
As0 Li3 2.545260 1_455
As0 Ca9 2.984145 1_555
As0 Ca6 3.090353 1_455
As0 Ca6 3.090353 1_555
As0 Ca4 3.115012 1_555
As0 Ca8 3.139629 1_555
As0 Ca3 3.258740 1_455
As0 Ca3 3.258740 1_555
As1 Li2 2.545260 1_455
As1 Li2 2.545260 1_555
As1 Ca8 2.984145 1_565
As1 Ca7 3.090353 1_465
As1 Ca7 3.090353 1_565
As1 Ca5 3.115012 1_554
As1 Ca9 3.139629 1_555
As1 Ca2 3.258740 1_555
As1 Ca2 3.258740 1_455
As2 Li1 2.545260 1_655
As2 Li1 2.545260 1_555
As2 Ca11 2.984145 1_555
As2 Ca4 3.090353 1_555
As2 Ca4 3.090353 1_655
As2 Ca6 3.115012 1_555
As2 Ca10 3.139629 1_555
As2 Ca1 3.258740 1_655
As2 Ca1 3.258740 1_555
As3 Li0 2.545260 1_555
As3 Li0 2.545260 1_655
As3 Ca10 2.984145 1_545
As3 Ca5 3.090353 1_545
As3 Ca5 3.090353 1_645
As3 Ca7 3.115012 1_556
As3 Ca11 3.139629 1_555
As3 Ca0 3.258740 1_655
As3 Ca0 3.258740 1_555
As4 Li0 2.579656 1_555
As4 Ca3 3.033641 1_556
As4 Ca3 3.033641 1_456
As4 Ca1 3.079073 1_555
As4 Ca7 3.113352 1_456
As4 Ca7 3.113352 1_556
As4 Ca11 3.124875 1_555
As4 Ca11 3.124875 1_455
As5 Li1 2.579656 1_555
As5 Ca2 3.033641 1_555
As5 Ca2 3.033641 1_455
As5 Ca0 3.079073 1_565
As5 Ca6 3.113352 1_555
As5 Ca6 3.113352 1_455
As5 Ca10 3.124875 1_555
As5 Ca10 3.124875 1_455
As6 Li2 2.579656 1_555
As6 Ca1 3.033641 1_554
As6 Ca1 3.033641 1_654
As6 Ca3 3.079073 1_555
As6 Ca5 3.113352 1_654
As6 Ca5 3.113352 1_554
As6 Ca9 3.124875 1_655
As6 Ca9 3.124875 1_555
As7 Li3 2.579656 1_555
As7 Ca0 3.033641 1_655
As7 Ca0 3.033641 1_555
As7 Ca2 3.079073 1_545
As7 Ca4 3.113352 1_655
As7 Ca4 3.113352 1_555
As7 Ca8 3.124875 1_555
As7 Ca8 3.124875 1_655
H0 Li0 2.060288 1_555
H1 Li1 2.060288 1_555
H2 Li2 2.060288 1_555
H3 Li3 2.060288 1_555
