# generated using pymatgen
data_Dy6Ga19Pt3
_symmetry_space_group_name_H-M   'P 1'
_cell_length_a   8.10227986
_cell_length_b   8.10227986
_cell_length_c   15.62596792
_cell_angle_alpha   77.28472008
_cell_angle_beta   77.28472008
_cell_angle_gamma   31.58812731
_symmetry_Int_Tables_number   1
_chemical_formula_structural   Dy6Ga19Pt3
_chemical_formula_sum   'Dy6 Ga19 Pt3'
_cell_volume   523.07608527
_cell_formula_units_Z   1
loop_
 _symmetry_equiv_pos_site_id
 _symmetry_equiv_pos_as_xyz
  1  'x, y, z'
loop_
 _atom_site_type_symbol
 _atom_site_label
 _atom_site_symmetry_multiplicity
 _atom_site_fract_x
 _atom_site_fract_y
 _atom_site_fract_z
 _atom_site_occupancy
  Dy  Dy0  1  0.74921500  0.74921500  0.75165700  1
  Dy  Dy1  1  0.25148800  0.25148800  0.24746300  1
  Dy  Dy2  1  0.60126300  0.60126300  0.59383700  1
  Dy  Dy3  1  0.09318500  0.09318500  0.09186100  1
  Dy  Dy4  1  0.90750400  0.90750400  0.90737000  1
  Dy  Dy5  1  0.39954100  0.39954100  0.40728100  1
  Ga  Ga0  1  0.82009500  0.82009500  0.54014800  1
  Ga  Ga1  1  0.31798000  0.31798000  0.04531400  1
  Ga  Ga2  1  0.68373100  0.68373100  0.95599600  1
  Ga  Ga3  1  0.17977900  0.17977900  0.45816200  1
  Ga  Ga4  1  0.54566100  0.54566100  0.81526000  1
  Ga  Ga5  1  0.03848500  0.03848500  0.32151900  1
  Ga  Ga6  1  0.96081200  0.96081200  0.67699400  1
  Ga  Ga7  1  0.45500500  0.45500500  0.18106700  1
  Ga  Ga8  1  0.26926400  0.26926400  0.89478100  1
  Ga  Ga9  1  0.76161800  0.76161800  0.39303200  1
  Ga  Ga10  1  0.23859800  0.23859800  0.60435900  1
  Ga  Ga11  1  0.73259000  0.73259000  0.10943300  1
  Ga  Ga12  1  0.39747800  0.39747800  0.76437400  1
  Ga  Ga13  1  0.89166100  0.89166100  0.26769500  1
  Ga  Ga14  1  0.10894200  0.10894200  0.73149000  1
  Ga  Ga15  1  0.60295900  0.60295900  0.23506400  1
  Ga  Ga16  1  0.49576900  0.49576900  0.00272800  1
  Ga  Ga17  1  0.00007000  0.00007000  0.49982200  1
  Ga  Ga18  1  0.10268600  0.10268600  0.89796300  1
  Pt  Pt0  1  0.59556000  0.59556000  0.40029400  1
  Pt  Pt1  1  0.40277000  0.40277000  0.60120100  1
  Pt  Pt2  1  0.89629200  0.89629200  0.10383400  1
loop_
_geom_bond_atom_site_label_1
_geom_bond_atom_site_label_2
_geom_bond_distance
_geom_bond_site_symmetry_2
Dy0 Ga4 3.101407 1_555
Dy0 Ga2 3.121903 1_555
Dy0 Ga14 3.172058 1_565
Dy0 Ga14 3.172058 1_655
Dy0 Ga8 3.206645 1_565
Dy0 Ga8 3.206645 1_655
Dy0 Ga10 3.219115 1_565
Dy0 Ga10 3.219115 1_655
Dy0 Ga12 3.233805 1_565
Dy0 Ga12 3.233805 1_655
Dy0 Ga0 3.236303 1_555
Dy0 Ga6 3.238221 1_555
Dy1 Ga1 3.091041 1_555
Dy1 Ga7 3.104935 1_555
Dy1 Ga11 3.145295 1_545
Dy1 Ga11 3.145295 1_455
Dy1 Ga13 3.171208 1_455
Dy1 Ga13 3.171208 1_545
Dy1 Ga9 3.197914 1_455
Dy1 Ga9 3.197914 1_545
Dy1 Ga3 3.225806 1_555
Dy1 Ga15 3.235715 1_545
Dy1 Ga15 3.235715 1_455
Dy1 Ga5 3.257590 1_555
Dy2 Pt0 3.045868 1_555
Dy2 Pt1 3.070779 1_555
Dy2 Ga14 3.101946 1_565
Dy2 Ga14 3.101946 1_655
Dy2 Ga10 3.104371 1_565
Dy2 Ga10 3.104371 1_655
Dy2 Ga3 3.109557 1_565
Dy2 Ga3 3.109557 1_655
Dy2 Ga6 3.169550 1_455
Dy2 Ga6 3.169550 1_545
Dy2 Ga17 3.251403 1_565
Dy2 Ga17 3.251403 1_655
Dy2 Ga0 3.322245 1_555
Dy2 Ga4 3.369062 1_555
Dy3 Ga18 2.999426 1_554
Dy3 Pt2 3.032787 1_445
Dy3 Ga11 3.152259 1_455
Dy3 Ga11 3.152259 1_545
Dy3 Ga2 3.161105 1_454
Dy3 Ga2 3.161105 1_544
Dy3 Ga15 3.170135 1_545
Dy3 Ga15 3.170135 1_455
Dy3 Ga7 3.174060 1_545
Dy3 Ga7 3.174060 1_455
Dy3 Ga16 3.174637 1_545
Dy3 Ga16 3.174637 1_455
Dy3 Ga1 3.413057 1_555
Dy3 Ga5 3.493630 1_555
Dy4 Ga18 3.013205 1_665
Dy4 Pt2 3.034726 1_556
Dy4 Ga8 3.121271 1_565
Dy4 Ga8 3.121271 1_655
Dy4 Ga16 3.148959 1_656
Dy4 Ga16 3.148959 1_566
Dy4 Ga12 3.168642 1_565
Dy4 Ga12 3.168642 1_655
Dy4 Ga1 3.175148 1_656
Dy4 Ga1 3.175148 1_566
Dy4 Ga4 3.187034 1_565
Dy4 Ga4 3.187034 1_655
Dy4 Ga2 3.396948 1_555
Dy4 Ga6 3.504414 1_555
Dy5 Pt0 3.033369 1_555
Dy5 Pt1 3.042100 1_555
Dy5 Ga0 3.087352 1_545
Dy5 Ga0 3.087352 1_455
Dy5 Ga9 3.123620 1_545
Dy5 Ga9 3.123620 1_455
Dy5 Ga13 3.123854 1_455
Dy5 Ga13 3.123854 1_545
Dy5 Ga5 3.166188 1_655
Dy5 Ga5 3.166188 1_565
Dy5 Ga17 3.232404 1_565
Dy5 Ga17 3.232404 1_655
Dy5 Ga3 3.335867 1_555
Dy5 Ga7 3.441554 1_555
Ga0 Ga10 2.627078 1_655
Ga0 Ga10 2.627078 1_565
Ga0 Ga9 2.659882 1_555
Ga0 Ga17 2.731932 1_665
Ga0 Pt1 2.828058 1_655
Ga0 Pt1 2.828058 1_565
Ga1 Ga8 2.631996 1_554
Ga1 Ga11 2.651345 1_455
Ga1 Ga11 2.651345 1_545
Ga1 Ga16 2.698906 1_555
Ga1 Pt2 2.775136 1_545
Ga1 Pt2 2.775136 1_455
Ga2 Ga8 2.640713 1_565
Ga2 Ga8 2.640713 1_655
Ga3 Ga9 2.633118 1_545
Ga3 Ga9 2.633118 1_455
Ga3 Pt0 2.819342 1_455
Ga3 Pt0 2.819342 1_545
Ga5 Pt0 2.769777 1_545
Ga5 Pt0 2.769777 1_455
Ga6 Pt1 2.752342 1_655
Ga6 Pt1 2.752342 1_565
Ga7 Pt2 2.768272 1_455
Ga7 Pt2 2.768272 1_545
Ga9 Pt0 2.565728 1_555
Ga10 Ga14 2.489232 1_555
Ga10 Pt1 2.549062 1_555
Ga10 Ga3 2.649244 1_555
Ga11 Ga15 2.474702 1_555
Ga11 Pt2 2.533988 1_555
Ga11 Ga2 2.676668 1_554
Ga12 Ga8 2.507087 1_555
Ga12 Pt1 2.532135 1_555
Ga12 Ga4 2.609897 1_555
Ga12 Ga6 2.661949 1_455
Ga12 Ga6 2.661949 1_545
Ga13 Ga9 2.476013 1_555
Ga13 Pt2 2.544940 1_555
Ga13 Ga5 2.613346 1_665
Ga13 Ga7 2.656979 1_565
Ga13 Ga7 2.656979 1_655
Ga14 Ga18 2.580736 1_555
Ga14 Ga4 2.638078 1_455
Ga14 Ga4 2.638078 1_545
Ga14 Ga6 2.638170 1_445
Ga15 Pt0 2.557955 1_555
Ga15 Ga7 2.631493 1_555
Ga15 Ga5 2.660390 1_565
Ga15 Ga5 2.660390 1_655
Ga16 Ga7 2.712836 1_555
Ga16 Ga4 2.853743 1_554
Ga16 Ga2 2.853771 1_554
Ga16 Pt2 2.940096 1_455
Ga16 Pt2 2.940096 1_545
Ga16 Ga18 3.012307 1_564
Ga16 Ga18 3.012307 1_654
Ga17 Ga6 2.695166 1_445
Ga17 Ga5 2.712558 1_555
Ga17 Ga3 2.727887 1_555
Ga17 Pt0 2.905098 1_455
Ga17 Pt0 2.905098 1_545
Ga17 Pt1 2.928324 1_455
Ga17 Pt1 2.928324 1_545
Ga18 Ga8 2.586493 1_555
Ga18 Ga2 2.794072 1_455
Ga18 Ga2 2.794072 1_545
Ga18 Ga4 2.801728 1_455
Ga18 Ga4 2.801728 1_545
