# generated using pymatgen
data_RbCr(SO4)2
_symmetry_space_group_name_H-M   'P 1'
_cell_length_a   5.07931093
_cell_length_b   9.86226908
_cell_length_c   8.80530476
_cell_angle_alpha   63.39026047
_cell_angle_beta   90.06184075
_cell_angle_gamma   75.06391408
_symmetry_Int_Tables_number   1
_chemical_formula_structural   RbCr(SO4)2
_chemical_formula_sum   'Rb2 Cr2 S4 O16'
_cell_volume   377.56137294
_cell_formula_units_Z   2
loop_
 _symmetry_equiv_pos_site_id
 _symmetry_equiv_pos_as_xyz
  1  'x, y, z'
loop_
 _atom_site_type_symbol
 _atom_site_label
 _atom_site_symmetry_multiplicity
 _atom_site_fract_x
 _atom_site_fract_y
 _atom_site_fract_z
 _atom_site_occupancy
  Rb  Rb0  1  0.24970300  0.49992100  0.25002100  1
  Rb  Rb1  1  0.74963400  0.49993900  0.75001300  1
  Cr  Cr0  1  0.50030200  0.00005500  0.50003400  1
  Cr  Cr1  1  0.00032100  0.99991900  0.00000500  1
  S  S0  1  0.60342000  0.79365600  0.93669900  1
  S  S1  1  0.10293100  0.79379500  0.43659100  1
  S  S2  1  0.39716000  0.20626700  0.06337500  1
  S  S3  1  0.89668600  0.20626100  0.56343700  1
  O  O0  1  0.69011700  0.62063800  0.02379900  1
  O  O1  1  0.18886700  0.62080800  0.52373900  1
  O  O2  1  0.31009900  0.37928700  0.97622300  1
  O  O3  1  0.80927700  0.37930100  0.47629900  1
  O  O4  1  0.83526600  0.85184500  0.96157200  1
  O  O5  1  0.33511100  0.85170400  0.46158100  1
  O  O6  1  0.36240200  0.85156000  0.01062500  1
  O  O7  1  0.86195900  0.85212500  0.51027300  1
  O  O8  1  0.68736800  0.14826600  0.03846900  1
  O  O9  1  0.18671800  0.14841600  0.53831900  1
  O  O10  1  0.52520200  0.85149700  0.75009200  1
  O  O11  1  0.02514700  0.85148300  0.25002600  1
  O  O12  1  0.21391700  0.14836900  0.98929900  1
  O  O13  1  0.71348500  0.14836000  0.48939900  1
  O  O14  1  0.37739700  0.14836300  0.24999900  1
  O  O15  1  0.87750900  0.14816500  0.75011000  1
loop_
_geom_bond_atom_site_label_1
_geom_bond_atom_site_label_2
_geom_bond_distance
_geom_bond_site_symmetry_2
Cr0 O7 2.002839 1_545
Cr0 O13 2.003613 1_555
Cr0 O14 2.004461 1_555
Cr0 O10 2.006154 1_545
Cr0 O9 2.008279 1_555
Cr0 O5 2.008787 1_545
Cr1 O15 2.003356 1_464
Cr1 O6 2.005462 1_555
Cr1 O11 2.005683 1_555
Cr1 O4 2.005792 1_454
Cr1 O12 2.006180 1_564
Cr1 O8 2.007039 1_465
O0 S0 1.460597 1_554
O0 Rb0 3.095641 1_655
O0 Rb0 3.106037 1_555
O0 Rb1 3.115603 1_554
O1 S1 1.460342 1_555
O1 Rb1 3.100557 1_555
O1 Rb1 3.101760 1_455
O1 Rb0 3.116344 1_555
O2 S2 1.460615 1_556
O2 Rb1 3.099337 1_455
O2 Rb1 3.102148 1_555
O2 Rb0 3.115252 1_556
O3 S3 1.460787 1_555
O3 Rb0 3.095958 1_555
O3 Rb0 3.106050 1_655
O3 Rb1 3.114580 1_555
O4 S0 1.491472 1_555
O4 Rb0 3.354664 1_656
O5 S1 1.491503 1_555
O5 Rb1 3.353941 1_555
O6 S0 1.490928 1_554
O6 Rb0 3.357840 1_555
O7 S1 1.490998 1_655
O7 Rb1 3.361803 1_555
O8 S2 1.492170 1_555
O8 Rb1 3.355001 1_554
O9 S3 1.491674 1_455
O9 Rb0 3.354723 1_555
O10 S0 1.491720 1_555
O10 Rb1 3.359384 1_555
O11 S1 1.491281 1_555
O11 Rb0 3.359166 1_555
O12 S2 1.491335 1_556
O12 Rb1 3.354490 1_455
O13 S3 1.490999 1_555
O13 Rb0 3.353464 1_555
O14 S2 1.491916 1_555
O14 Rb0 3.359057 1_555
O15 S3 1.491646 1_555
O15 Rb1 3.360598 1_555
