# generated using pymatgen
data_LiMnF3
_symmetry_space_group_name_H-M   'P 1'
_cell_length_a   3.25814200
_cell_length_b   4.91663000
_cell_length_c   7.67298100
_cell_angle_alpha   90.00000000
_cell_angle_beta   90.00000000
_cell_angle_gamma   90.00000000
_symmetry_Int_Tables_number   1
_chemical_formula_structural   LiMnF3
_chemical_formula_sum   'Li2 Mn2 F6'
_cell_volume   122.91408651
_cell_formula_units_Z   2
loop_
 _symmetry_equiv_pos_site_id
 _symmetry_equiv_pos_as_xyz
  1  'x, y, z'
loop_
 _atom_site_type_symbol
 _atom_site_label
 _atom_site_symmetry_multiplicity
 _atom_site_fract_x
 _atom_site_fract_y
 _atom_site_fract_z
 _atom_site_occupancy
  Li  Li0  1  0.50000000  0.03283500  0.75000000  1
  Li  Li1  1  0.50000000  0.96716600  0.25000000  1
  Mn  Mn0  1  0.00000000  0.50000000  0.00000000  1
  Mn  Mn1  1  0.00000000  0.50000000  0.50000000  1
  F  F0  1  0.50000000  0.24919300  0.42527100  1
  F  F1  1  0.50000000  0.24919300  0.07472900  1
  F  F2  1  0.00000000  0.26436400  0.75000000  1
  F  F3  1  0.00000000  0.73563600  0.25000000  1
  F  F4  1  0.50000000  0.75080700  0.92527100  1
  F  F5  1  0.50000000  0.75080700  0.57472900  1
loop_
_geom_bond_atom_site_label_1
_geom_bond_atom_site_label_2
_geom_bond_distance
_geom_bond_site_symmetry_2
F0 Li1 1.931669 1_545
F0 Mn1 2.122086 1_555
F0 Mn1 2.122086 1_655
F1 Li1 1.931669 1_545
F1 Mn0 2.122086 1_655
F1 Mn0 2.122086 1_555
F2 Li0 1.987384 1_455
F2 Li0 1.987384 1_555
F2 Mn1 2.240953 1_555
F2 Mn0 2.240953 1_556
F3 Li1 1.987387 1_555
F3 Li1 1.987387 1_455
F3 Mn1 2.240953 1_555
F3 Mn0 2.240953 1_555
F4 Li0 1.931673 1_565
F4 Mn0 2.122086 1_656
F4 Mn0 2.122086 1_556
F5 Li0 1.931673 1_565
F5 Mn1 2.122086 1_655
F5 Mn1 2.122086 1_555
