# generated using pymatgen
data_PbS
_symmetry_space_group_name_H-M   'P 1'
_cell_length_a   7.96486250
_cell_length_b   7.96486250
_cell_length_c   4.06992800
_cell_angle_alpha   90.00000000
_cell_angle_beta   90.00000000
_cell_angle_gamma   91.18234491
_symmetry_Int_Tables_number   1
_chemical_formula_structural   PbS
_chemical_formula_sum   'Pb4 S4'
_cell_volume   258.13733163
_cell_formula_units_Z   4
loop_
 _symmetry_equiv_pos_site_id
 _symmetry_equiv_pos_as_xyz
  1  'x, y, z'
loop_
 _atom_site_type_symbol
 _atom_site_label
 _atom_site_symmetry_multiplicity
 _atom_site_fract_x
 _atom_site_fract_y
 _atom_site_fract_z
 _atom_site_occupancy
  Pb  Pb0  1  0.66311200  0.33914900  0.00000000  1
  Pb  Pb1  1  0.33914900  0.66311200  0.00000000  1
  Pb  Pb2  1  0.13738700  0.13738700  0.50000000  1
  Pb  Pb3  1  0.82373100  0.82373100  0.00000000  1
  S  S0  1  0.77482200  0.11785200  0.50000000  1
  S  S1  1  0.11785200  0.77482200  0.50000000  1
  S  S2  1  0.31089600  0.31089600  0.00000000  1
  S  S3  1  0.63725100  0.63725100  0.50000000  1
loop_
_geom_bond_atom_site_label_1
_geom_bond_atom_site_label_2
_geom_bond_distance
_geom_bond_site_symmetry_2
Pb0 S2 2.809731 1_555
Pb0 S0 2.846792 1_554
Pb0 S0 2.846792 1_555
Pb0 S3 3.137067 1_555
Pb0 S3 3.137067 1_554
Pb1 S2 2.809731 1_555
Pb1 S1 2.846792 1_554
Pb1 S1 2.846792 1_555
Pb1 S3 3.137067 1_555
Pb1 S3 3.137067 1_554
Pb2 S2 2.807485 1_555
Pb2 S2 2.807485 1_556
Pb2 S1 2.888761 1_545
Pb2 S0 2.888761 1_455
Pb3 S3 2.908985 1_555
Pb3 S3 2.908985 1_554
Pb3 S0 3.133436 1_565
Pb3 S1 3.133436 1_654
Pb3 S1 3.133436 1_655
Pb3 S0 3.133436 1_564
