# generated using pymatgen
data_Nd3GaFeS7
_symmetry_space_group_name_H-M   'P 1'
_cell_length_a   9.97907076
_cell_length_b   9.97907076
_cell_length_c   6.10608100
_cell_angle_alpha   90.00000000
_cell_angle_beta   90.00000000
_cell_angle_gamma   120.00000502
_symmetry_Int_Tables_number   1
_chemical_formula_structural   Nd3GaFeS7
_chemical_formula_sum   'Nd6 Ga2 Fe2 S14'
_cell_volume   526.59093040
_cell_formula_units_Z   2
loop_
 _symmetry_equiv_pos_site_id
 _symmetry_equiv_pos_as_xyz
  1  'x, y, z'
loop_
 _atom_site_type_symbol
 _atom_site_label
 _atom_site_symmetry_multiplicity
 _atom_site_fract_x
 _atom_site_fract_y
 _atom_site_fract_z
 _atom_site_occupancy
  Nd  Nd0  1  0.62438500  0.77358700  0.02403900  1
  Nd  Nd1  1  0.22641300  0.85079800  0.02403900  1
  Nd  Nd2  1  0.14920200  0.37561500  0.02403900  1
  Nd  Nd3  1  0.37561500  0.22641300  0.52403800  1
  Nd  Nd4  1  0.77358700  0.14920200  0.52403800  1
  Nd  Nd5  1  0.85079800  0.62438500  0.52403800  1
  Ga  Ga0  1  0.66666700  0.33333300  0.94624100  1
  Ga  Ga1  1  0.33333300  0.66666700  0.44624100  1
  Fe  Fe0  1  0.00000000  0.00000000  0.32540000  1
  Fe  Fe1  1  0.00000000  0.00000000  0.82540000  1
  S  S0  1  0.48164300  0.90807600  0.29594600  1
  S  S1  1  0.09192400  0.57356800  0.29594600  1
  S  S2  1  0.42643200  0.51835700  0.29594600  1
  S  S3  1  0.51835700  0.09192400  0.79594600  1
  S  S4  1  0.90807600  0.42643200  0.79594600  1
  S  S5  1  0.57356800  0.48164300  0.79594600  1
  S  S6  1  0.66666700  0.33333300  0.31651100  1
  S  S7  1  0.33333300  0.66666700  0.81651100  1
  S  S8  1  0.90638100  0.76801800  0.08839300  1
  S  S9  1  0.23198200  0.13836300  0.08839300  1
  S  S10  1  0.86163700  0.09361900  0.08839300  1
  S  S11  1  0.09361900  0.23198200  0.58839300  1
  S  S12  1  0.76801800  0.86163700  0.58839300  1
  S  S13  1  0.13836300  0.90638100  0.58839300  1
loop_
_geom_bond_atom_site_label_1
_geom_bond_atom_site_label_2
_geom_bond_distance
_geom_bond_site_symmetry_2
Nd0 S7 2.842701 1_554
Nd0 S2 2.848591 1_555
Nd0 S8 2.869287 1_555
Nd0 S10 2.897908 1_565
Nd0 S0 2.915205 1_555
Nd0 S12 2.939921 1_554
Nd0 S5 3.034311 1_554
Nd1 S7 2.842693 1_554
Nd1 S0 2.848589 1_555
Nd1 S9 2.869287 1_565
Nd1 S8 2.897908 1_455
Nd1 S1 2.915198 1_555
Nd1 S13 2.939921 1_554
Nd1 S3 3.034308 1_564
Nd2 S7 2.842700 1_554
Nd2 S1 2.848597 1_555
Nd2 S10 2.869287 1_455
Nd2 S9 2.897908 1_555
Nd2 S2 2.915198 1_555
Nd2 S11 2.939921 1_554
Nd2 S4 3.034302 1_454
Nd3 S6 2.842698 1_555
Nd3 S5 2.848595 1_555
Nd3 S11 2.869288 1_555
Nd3 S13 2.897909 1_545
Nd3 S3 2.915208 1_555
Nd3 S9 2.939915 1_555
Nd3 S2 3.034308 1_555
Nd4 S6 2.842690 1_555
Nd4 S3 2.848592 1_555
Nd4 S12 2.869288 1_545
Nd4 S11 2.897909 1_655
Nd4 S4 2.915201 1_555
Nd4 S10 2.939915 1_555
Nd4 S0 3.034305 1_545
Nd5 S6 2.842697 1_555
Nd5 S4 2.848600 1_555
Nd5 S13 2.869288 1_655
Nd5 S12 2.897909 1_555
Nd5 S5 2.915201 1_555
Nd5 S8 2.939915 1_555
Nd5 S1 3.034300 1_655
Ga0 S6 2.260899 1_556
Ga0 S3 2.295796 1_555
Ga0 S4 2.295796 1_555
Ga0 S5 2.295797 1_555
Ga1 S7 2.260899 1_555
Ga1 S0 2.295796 1_555
Ga1 S1 2.295796 1_555
Ga1 S2 2.295797 1_555
Fe0 S9 2.482635 1_555
Fe0 S8 2.482635 1_445
Fe0 S10 2.482636 1_455
Fe0 S12 2.578355 1_445
Fe0 S11 2.578355 1_555
Fe0 S13 2.578355 1_545
Fe1 S12 2.482635 1_445
Fe1 S11 2.482635 1_555
Fe1 S13 2.482636 1_545
Fe1 S9 2.578355 1_556
Fe1 S8 2.578355 1_446
Fe1 S10 2.578355 1_456
