# generated using pymatgen
data_K2Na2MoW3O10
_symmetry_space_group_name_H-M   'P 1'
_cell_length_a   11.57522938
_cell_length_b   11.75397071
_cell_length_c   17.55747926
_cell_angle_alpha   109.52438285
_cell_angle_beta   109.07724644
_cell_angle_gamma   89.96248788
_symmetry_Int_Tables_number   1
_chemical_formula_structural   K2Na2MoW3O10
_chemical_formula_sum   'K16 Na16 Mo8 W24 O80'
_cell_volume   2111.90623861
_cell_formula_units_Z   8
loop_
 _symmetry_equiv_pos_site_id
 _symmetry_equiv_pos_as_xyz
  1  'x, y, z'
loop_
 _atom_site_type_symbol
 _atom_site_label
 _atom_site_symmetry_multiplicity
 _atom_site_fract_x
 _atom_site_fract_y
 _atom_site_fract_z
 _atom_site_occupancy
  K  K0  1  0.30474500  0.06765600  0.10821600  1
  K  K1  1  0.30213000  0.55997100  0.10597400  1
  K  K2  1  0.80565200  0.06330400  0.11025600  1
  K  K3  1  0.80376000  0.56220200  0.10754400  1
  K  K4  1  0.20204900  0.93423900  0.39328400  1
  K  K5  1  0.19243400  0.92843000  0.88221300  1
  K  K6  1  0.70190100  0.43683600  0.39633000  1
  K  K7  1  0.69204700  0.42862000  0.88401400  1
  K  K8  1  0.69963100  0.93286200  0.39398900  1
  K  K9  1  0.05939600  0.29395400  0.10941600  1
  K  K10  1  0.05266000  0.79116600  0.10495600  1
  K  K11  1  0.55322800  0.29215700  0.10784100  1
  K  K12  1  0.55369800  0.79421500  0.10458200  1
  K  K13  1  0.45227800  0.71274500  0.39488100  1
  K  K14  1  0.44060500  0.70568700  0.88255600  1
  K  K15  1  0.94182400  0.70323700  0.88218500  1
  Na  Na0  1  0.29963800  0.07050900  0.60311000  1
  Na  Na1  1  0.30141400  0.56362900  0.59992100  1
  Na  Na2  1  0.80170600  0.06710900  0.60317300  1
  Na  Na3  1  0.79815200  0.56836100  0.60167400  1
  Na  Na4  1  0.20401000  0.43921800  0.40632100  1
  Na  Na5  1  0.19902700  0.43445600  0.89795700  1
  Na  Na6  1  0.69698800  0.93337700  0.89654400  1
  Na  Na7  1  0.05153100  0.28208000  0.60270400  1
  Na  Na8  1  0.05023100  0.78651300  0.60049900  1
  Na  Na9  1  0.55087600  0.28507900  0.60160300  1
  Na  Na10  1  0.55284200  0.78566100  0.60226600  1
  Na  Na11  1  0.45465800  0.21557700  0.40797500  1
  Na  Na12  1  0.44714800  0.21170700  0.89700700  1
  Na  Na13  1  0.95284100  0.21799900  0.40667000  1
  Na  Na14  1  0.94926100  0.21247300  0.89718300  1
  Na  Na15  1  0.95112300  0.71711100  0.40408000  1
  Mo  Mo0  1  0.00613900  0.99811800  0.99580800  1
  Mo  Mo1  1  0.00294800  0.49524500  0.99403100  1
  Mo  Mo2  1  0.50394100  0.99767000  0.99351400  1
  Mo  Mo3  1  0.51460200  0.00588700  0.50639700  1
  Mo  Mo4  1  0.50464100  0.49584600  0.99465100  1
  Mo  Mo5  1  0.25516900  0.24885000  0.99511400  1
  Mo  Mo6  1  0.25289700  0.74441800  0.99234600  1
  Mo  Mo7  1  0.75351500  0.74808800  0.99388500  1
  W  W0  1  0.01585700  0.00191100  0.50449300  1
  W  W1  1  0.01480200  0.50222800  0.50241500  1
  W  W2  1  0.51610500  0.50178400  0.50665300  1
  W  W3  1  0.26484900  0.25434700  0.50561300  1
  W  W4  1  0.26498400  0.75000500  0.50410700  1
  W  W5  1  0.75589200  0.24402900  0.99320200  1
  W  W6  1  0.76793700  0.25156900  0.50600200  1
  W  W7  1  0.76526100  0.75346500  0.50661700  1
  W  W8  1  0.09886200  0.10901900  0.25927100  1
  W  W9  1  0.08763600  0.09813400  0.74774500  1
  W  W10  1  0.09600800  0.59299700  0.25588100  1
  W  W11  1  0.08737900  0.58275300  0.73822000  1
  W  W12  1  0.59657700  0.10150600  0.25692000  1
  W  W13  1  0.58458400  0.08878400  0.74560400  1
  W  W14  1  0.59842600  0.59246600  0.24997100  1
  W  W15  1  0.58708800  0.58956300  0.74260200  1
  W  W16  1  0.34681500  0.40352300  0.25988100  1
  W  W17  1  0.33658200  0.39976000  0.74836900  1
  W  W18  1  0.34836800  0.91216100  0.24950500  1
  W  W19  1  0.33664400  0.90793700  0.73966100  1
  W  W20  1  0.85595100  0.40473600  0.25355300  1
  W  W21  1  0.84144400  0.39941700  0.74369300  1
  W  W22  1  0.85259500  0.90931700  0.25269800  1
  W  W23  1  0.83455900  0.91170400  0.74727200  1
  O  O0  1  0.13009500  0.12419900  0.48988500  1
  O  O1  1  0.12359000  0.12169900  0.98464700  1
  O  O2  1  0.12886500  0.61632500  0.48331200  1
  O  O3  1  0.12298500  0.61277200  0.98253700  1
  O  O4  1  0.63272900  0.12529500  0.49483200  1
  O  O5  1  0.62423200  0.11491900  0.98150200  1
  O  O6  1  0.63251900  0.62279100  0.49406600  1
  O  O7  1  0.62300500  0.61788900  0.98480000  1
  O  O8  1  0.13176100  0.37650200  0.00221500  1
  O  O9  1  0.14836800  0.38782900  0.52162300  1
  O  O10  1  0.13411300  0.87511200  0.00431300  1
  O  O11  1  0.14723800  0.88206900  0.52129900  1
  O  O12  1  0.63287700  0.37327700  0.00362000  1
  O  O13  1  0.64888600  0.38478300  0.52383900  1
  O  O14  1  0.63396200  0.87759600  0.00322700  1
  O  O15  1  0.64893800  0.88840900  0.52604200  1
  O  O16  1  0.38230200  0.12282200  0.48944400  1
  O  O17  1  0.37421600  0.11902700  0.98178300  1
  O  O18  1  0.38095800  0.61631500  0.49207300  1
  O  O19  1  0.37172200  0.61345100  0.98374000  1
  O  O20  1  0.88366100  0.11984300  0.48848100  1
  O  O21  1  0.87496900  0.11478400  0.98289400  1
  O  O22  1  0.88453300  0.62237900  0.49161400  1
  O  O23  1  0.87276100  0.61629800  0.98498700  1
  O  O24  1  0.38291400  0.37696600  0.00261100  1
  O  O25  1  0.39839400  0.38599400  0.52169500  1
  O  O26  1  0.38217300  0.87757900  0.00406100  1
  O  O27  1  0.39904100  0.89027000  0.52602500  1
  O  O28  1  0.88519400  0.37558300  0.00444100  1
  O  O29  1  0.90000200  0.38618700  0.52207900  1
  O  O30  1  0.88105500  0.87778900  0.00359000  1
  O  O31  1  0.89816700  0.88655600  0.52231500  1
  O  O32  1  0.07403100  0.08220700  0.13725900  1
  O  O33  1  0.09243900  0.10738800  0.63937100  1
  O  O34  1  0.07152500  0.58437600  0.14014500  1
  O  O35  1  0.09224800  0.61227500  0.63867200  1
  O  O36  1  0.57216300  0.08217500  0.13606300  1
  O  O37  1  0.58680600  0.11185500  0.64254100  1
  O  O38  1  0.57382700  0.58907300  0.13471200  1
  O  O39  1  0.59542700  0.61309500  0.64027300  1
  O  O40  1  0.44692500  0.39104100  0.36759100  1
  O  O41  1  0.43930300  0.39291100  0.85758700  1
  O  O42  1  0.44828500  0.91601800  0.36481900  1
  O  O43  1  0.44177200  0.91316700  0.85436400  1
  O  O44  1  0.95327300  0.39243400  0.36458000  1
  O  O45  1  0.93596500  0.39667700  0.85628400  1
  O  O46  1  0.94746900  0.89778600  0.36537800  1
  O  O47  1  0.94444900  0.91084400  0.85829000  1
  O  O48  1  0.32542800  0.30937200  0.13851900  1
  O  O49  1  0.34007400  0.28245500  0.64002700  1
  O  O50  1  0.32583700  0.79736400  0.13814400  1
  O  O51  1  0.33933900  0.77590200  0.63995100  1
  O  O52  1  0.82999300  0.29905900  0.13517500  1
  O  O53  1  0.85019100  0.27635800  0.63979700  1
  O  O54  1  0.82969500  0.79971300  0.13875100  1
  O  O55  1  0.83919300  0.78667400  0.64332300  1
  O  O56  1  0.20187100  0.22604400  0.36712400  1
  O  O57  1  0.19068200  0.21283200  0.85729800  1
  O  O58  1  0.20661900  0.70538000  0.36660600  1
  O  O59  1  0.18745000  0.69124700  0.85489100  1
  O  O60  1  0.70717700  0.20875800  0.36754500  1
  O  O61  1  0.70270100  0.19489100  0.85652300  1
  O  O62  1  0.70078000  0.69925600  0.36683400  1
  O  O63  1  0.68209500  0.70663200  0.85581400  1
  O  O64  1  0.44207400  0.07896400  0.27282700  1
  O  O65  1  0.41756700  0.07020300  0.74997800  1
  O  O66  1  0.43873000  0.54519400  0.25007200  1
  O  O67  1  0.41737500  0.54040400  0.73036500  1
  O  O68  1  0.94551500  0.07466200  0.27517600  1
  O  O69  1  0.92190400  0.06594300  0.74996700  1
  O  O70  1  0.93687100  0.56876700  0.26743100  1
  O  O71  1  0.91651400  0.54361200  0.72801300  1
  O  O72  1  0.19055400  0.44845600  0.27286200  1
  O  O73  1  0.17155800  0.43261700  0.75170400  1
  O  O74  1  0.18528500  0.95542300  0.24728600  1
  O  O75  1  0.16552800  0.93858300  0.72913900  1
  O  O76  1  0.69536400  0.44985800  0.25457500  1
  O  O77  1  0.67181300  0.43538700  0.73262300  1
  O  O78  1  0.68956500  0.95352200  0.24909600  1
  O  O79  1  0.66598700  0.93445500  0.74842700  1
loop_
_geom_bond_atom_site_label_1
_geom_bond_atom_site_label_2
_geom_bond_distance
_geom_bond_site_symmetry_2
K0 O10 2.691059 1_545
K0 O48 2.705478 1_555
K0 O1 2.730037 1_554
K0 O26 2.734361 1_545
K0 O64 2.763668 1_555
K0 O17 2.828848 1_554
K0 O32 2.872714 1_555
K0 O36 2.967396 1_555
K1 O66 2.570905 1_555
K1 O8 2.624776 1_555
K1 O50 2.650736 1_555
K1 O24 2.700410 1_555
K1 O3 2.709567 1_554
K1 O19 2.771706 1_554
K1 O34 2.915175 1_555
K1 O38 3.018458 1_555
K1 O48 3.177836 1_555
K2 O52 2.656997 1_555
K2 O14 2.658604 1_545
K2 O30 2.712983 1_545
K2 O5 2.774910 1_554
K2 O68 2.775023 1_555
K2 O21 2.843979 1_554
K2 O36 2.879509 1_555
K2 O32 2.982032 1_655
K2 O54 3.297087 1_545
K3 O54 2.656137 1_555
K3 O12 2.666679 1_555
K3 O70 2.699703 1_555
K3 O28 2.726820 1_555
K3 O7 2.728370 1_554
K3 O23 2.776882 1_554
K3 O38 2.852911 1_555
K3 O34 2.956982 1_655
K3 O52 3.286257 1_555
K4 O58 2.575290 1_555
K4 O74 2.602281 1_555
K4 O0 2.635411 1_565
K4 O16 2.705370 1_565
K4 O11 2.772049 1_555
K4 O46 2.832831 1_455
K4 O27 2.868430 1_555
K4 O42 3.046032 1_555
K5 O75 2.646049 1_555
K5 O59 2.663405 1_555
K5 O1 2.689555 1_565
K5 O10 2.699780 1_556
K5 O17 2.736114 1_565
K5 O26 2.745767 1_556
K5 O47 2.759245 1_455
K5 O43 3.076405 1_555
K6 O76 2.520930 1_555
K6 O60 2.561309 1_555
K6 O6 2.599717 1_555
K6 O22 2.698047 1_555
K6 O13 2.752625 1_555
K6 O29 2.838036 1_555
K6 O40 2.846434 1_555
K6 O44 3.148531 1_555
K7 O77 2.619298 1_555
K7 O61 2.635842 1_555
K7 O7 2.647620 1_555
K7 O12 2.675073 1_556
K7 O23 2.711589 1_555
K7 O28 2.765294 1_556
K7 O41 2.816826 1_555
K7 O45 3.020701 1_555
K8 O78 2.600651 1_555
K8 O62 2.626015 1_555
K8 O4 2.658513 1_565
K8 O20 2.716450 1_565
K8 O15 2.773499 1_555
K8 O42 2.779387 1_555
K8 O31 2.843812 1_555
K8 O46 3.074780 1_555
K9 O28 2.670888 1_455
K9 O32 2.687138 1_555
K9 O8 2.727268 1_555
K9 O72 2.740483 1_555
K9 O1 2.747319 1_554
K9 O21 2.775969 1_454
K9 O52 2.833009 1_455
K9 O48 2.947337 1_555
K9 O34 3.268580 1_555
K10 O74 2.569098 1_555
K10 O30 2.654696 1_455
K10 O10 2.690840 1_555
K10 O23 2.691136 1_454
K10 O34 2.692974 1_555
K10 O3 2.794311 1_554
K10 O54 2.825581 1_455
K10 O50 3.018463 1_555
K11 O76 2.611753 1_555
K11 O36 2.670383 1_555
K11 O24 2.672313 1_555
K11 O17 2.707469 1_554
K11 O12 2.716187 1_555
K11 O5 2.834877 1_554
K11 O48 2.852865 1_555
K11 O52 3.077234 1_555
K12 O78 2.576272 1_555
K12 O26 2.622929 1_555
K12 O38 2.630490 1_555
K12 O14 2.690380 1_555
K12 O19 2.743013 1_554
K12 O7 2.747577 1_554
K12 O50 2.882099 1_555
K12 O54 3.048259 1_555
K12 O36 3.237353 1_565
K13 O66 2.600042 1_555
K13 O42 2.610775 1_555
K13 O18 2.663283 1_555
K13 O6 2.712224 1_555
K13 O58 2.718197 1_555
K13 O27 2.783863 1_555
K13 O15 2.854730 1_555
K13 O62 3.068361 1_555
K14 O43 2.646466 1_555
K14 O67 2.654757 1_555
K14 O26 2.674138 1_556
K14 O19 2.679857 1_555
K14 O7 2.739173 1_555
K14 O14 2.761465 1_556
K14 O59 2.804761 1_555
K14 O63 2.982574 1_555
K15 O47 2.612330 1_555
K15 O71 2.649689 1_555
K15 O23 2.668006 1_555
K15 O30 2.702371 1_556
K15 O3 2.732497 1_655
K15 O10 2.761128 1_656
K15 O63 2.890815 1_555
K15 O59 3.029544 1_655
Na0 O49 2.359919 1_555
Na0 O65 2.493585 1_555
Na0 O11 2.510618 1_545
Na0 O0 2.547206 1_555
Na0 O27 2.596545 1_545
Na0 O33 2.675395 1_555
Na0 O16 2.710294 1_555
Na1 O67 2.351475 1_555
Na1 O51 2.353631 1_555
Na1 O9 2.410830 1_555
Na1 O25 2.567861 1_555
Na1 O2 2.595665 1_555
Na1 O18 2.596336 1_555
Na1 O35 2.732533 1_555
Na2 O53 2.342310 1_555
Na2 O15 2.431238 1_545
Na2 O69 2.501628 1_555
Na2 O4 2.519433 1_555
Na2 O31 2.604840 1_545
Na2 O20 2.724503 1_555
Na2 O37 2.796667 1_555
Na3 O71 2.307874 1_555
Na3 O55 2.421833 1_555
Na3 O13 2.449325 1_555
Na3 O6 2.468432 1_555
Na3 O29 2.646016 1_555
Na3 O39 2.653672 1_555
Na3 O22 2.687174 1_555
Na4 O72 2.336263 1_555
Na4 O56 2.364066 1_555
Na4 O2 2.408879 1_555
Na4 O9 2.558921 1_555
Na4 O18 2.586493 1_555
Na4 O25 2.724558 1_555
Na4 O44 2.757782 1_455
Na5 O57 2.452964 1_555
Na5 O73 2.474779 1_555
Na5 O3 2.478811 1_555
Na5 O8 2.487340 1_556
Na5 O19 2.571024 1_555
Na5 O24 2.575841 1_556
Na5 O45 2.886659 1_455
Na6 O5 2.485724 1_565
Na6 O14 2.487027 1_556
Na6 O63 2.508035 1_555
Na6 O79 2.510747 1_555
Na6 O30 2.588469 1_556
Na6 O21 2.625373 1_565
Na6 O43 2.790212 1_555
Na7 O33 2.353262 1_555
Na7 O29 2.471772 1_455
Na7 O20 2.517011 1_455
Na7 O73 2.537356 1_555
Na7 O53 2.623319 1_455
Na7 O0 2.629196 1_555
Na7 O9 2.656246 1_555
Na8 O75 2.326274 1_555
Na8 O35 2.362855 1_555
Na8 O31 2.421176 1_455
Na8 O22 2.489599 1_455
Na8 O11 2.553871 1_555
Na8 O2 2.744830 1_555
Na8 O55 2.780708 1_455
Na9 O77 2.356772 1_555
Na9 O37 2.369992 1_555
Na9 O25 2.445708 1_555
Na9 O16 2.511052 1_555
Na9 O13 2.570679 1_555
Na9 O4 2.597032 1_555
Na9 O49 2.738639 1_555
Na10 O39 2.343248 1_555
Na10 O27 2.452059 1_555
Na10 O79 2.483052 1_555
Na10 O15 2.557746 1_555
Na10 O18 2.564863 1_555
Na10 O6 2.614663 1_555
Na10 O51 2.771008 1_555
Na11 O64 2.336163 1_555
Na11 O40 2.387457 1_555
Na11 O16 2.400582 1_555
Na11 O25 2.568669 1_555
Na11 O4 2.593135 1_555
Na11 O13 2.731341 1_555
Na11 O56 2.788918 1_555
Na12 O41 2.442864 1_555
Na12 O17 2.453830 1_555
Na12 O65 2.469934 1_555
Na12 O24 2.501140 1_556
Na12 O12 2.594405 1_556
Na12 O5 2.614181 1_555
Na12 O57 2.819985 1_555
Na13 O68 2.334113 1_555
Na13 O44 2.401056 1_555
Na13 O20 2.428239 1_555
Na13 O29 2.553240 1_555
Na13 O0 2.583428 1_655
Na13 O60 2.691370 1_555
Na13 O9 2.739994 1_655
Na14 O45 2.488704 1_555
Na14 O69 2.497517 1_555
Na14 O28 2.503942 1_556
Na14 O21 2.514915 1_555
Na14 O1 2.575898 1_655
Na14 O8 2.581231 1_656
Na14 O61 2.695908 1_555
Na15 O70 2.401899 1_555
Na15 O46 2.432910 1_555
Na15 O22 2.472909 1_555
Na15 O31 2.592000 1_555
Na15 O2 2.607471 1_655
Na15 O11 2.726313 1_655
Na15 O62 2.745749 1_555
Mo0 O21 2.053584 1_465
Mo0 O10 2.074585 1_556
Mo0 O1 2.088935 1_565
Mo0 O30 2.092020 1_456
Mo0 O47 2.147152 1_455
Mo0 O32 2.201554 1_566
Mo1 O8 2.045264 1_556
Mo1 O28 2.051024 1_456
Mo1 O3 2.061977 1_555
Mo1 O23 2.076632 1_455
Mo1 O45 2.166806 1_455
Mo1 O34 2.276487 1_556
Mo2 O5 2.066704 1_565
Mo2 O14 2.067945 1_556
Mo2 O17 2.079257 1_565
Mo2 O26 2.088387 1_556
Mo2 O43 2.168623 1_555
Mo2 O36 2.218471 1_566
Mo3 O4 2.062820 1_555
Mo3 O16 2.072592 1_555
Mo3 O27 2.090831 1_545
Mo3 O15 2.099653 1_545
Mo3 O37 2.160793 1_555
Mo3 O42 2.209679 1_545
Mo4 O24 2.054064 1_556
Mo4 O7 2.070782 1_555
Mo4 O19 2.072743 1_555
Mo4 O12 2.073574 1_556
Mo4 O41 2.166188 1_555
Mo4 O38 2.191347 1_556
Mo5 O24 2.052963 1_556
Mo5 O1 2.055121 1_555
Mo5 O17 2.061914 1_555
Mo5 O8 2.072659 1_556
Mo5 O57 2.174026 1_555
Mo5 O48 2.229785 1_556
Mo6 O19 2.064445 1_555
Mo6 O10 2.065140 1_556
Mo6 O26 2.077970 1_556
Mo6 O3 2.083488 1_555
Mo6 O59 2.141531 1_555
Mo6 O50 2.275084 1_556
Mo7 O30 2.048778 1_556
Mo7 O14 2.058610 1_556
Mo7 O23 2.074996 1_555
Mo7 O7 2.081331 1_555
Mo7 O63 2.167591 1_555
Mo7 O54 2.262309 1_556
O0 W3 2.070896 1_555
O0 W0 2.085899 1_555
O2 W1 2.060746 1_555
O2 W4 2.080499 1_555
O4 W6 2.073315 1_555
O5 W5 2.063430 1_555
O6 W2 2.072413 1_555
O6 W7 2.079442 1_555
O9 W1 2.066796 1_555
O9 W3 2.075737 1_555
O11 W4 2.076353 1_555
O11 W0 2.089423 1_565
O12 W5 2.085812 1_554
O13 W2 2.077502 1_555
O13 W6 2.097690 1_555
O15 W7 2.093058 1_555
O16 W3 2.067627 1_555
O18 W4 2.068027 1_555
O18 W2 2.071423 1_555
O20 W6 2.057792 1_555
O20 W0 2.078101 1_655
O21 W5 2.053516 1_555
O22 W1 2.072067 1_655
O22 W7 2.076802 1_555
O25 W2 2.063116 1_555
O25 W3 2.071089 1_555
O27 W4 2.112589 1_555
O28 W5 2.067863 1_554
O29 W6 2.083931 1_555
O29 W1 2.088629 1_655
O31 W7 2.080303 1_555
O31 W0 2.087296 1_665
O32 W8 1.979247 1_555
O33 W9 1.960350 1_555
O33 W0 2.144202 1_555
O34 W10 1.925021 1_555
O35 W11 1.910036 1_555
O35 W1 2.175137 1_555
O36 W12 1.979890 1_555
O37 W13 1.925359 1_555
O38 W14 1.935785 1_555
O39 W15 1.938890 1_555
O39 W2 2.144881 1_555
O40 W16 1.921818 1_555
O40 W2 2.212665 1_555
O41 W17 1.926144 1_555
O42 W18 1.961335 1_555
O43 W19 1.963602 1_555
O44 W20 1.960268 1_555
O44 W1 2.194595 1_655
O45 W21 1.932508 1_555
O46 W22 1.974127 1_555
O46 W0 2.197639 1_665
O47 W23 1.951890 1_555
O48 W16 1.976281 1_555
O49 W17 1.954027 1_555
O49 W3 2.138400 1_555
O50 W18 1.901386 1_555
O51 W19 1.921949 1_555
O51 W4 2.166845 1_555
O52 W20 1.954386 1_555
O52 W5 2.212009 1_554
O53 W21 1.945986 1_555
O53 W6 2.142550 1_555
O54 W22 1.914017 1_555
O55 W23 1.940265 1_555
O55 W7 2.162693 1_555
O56 W8 1.919567 1_555
O56 W3 2.203479 1_555
O57 W9 1.925896 1_555
O58 W10 1.955043 1_555
O58 W4 2.155846 1_555
O59 W11 1.966957 1_555
O60 W12 1.934096 1_555
O60 W6 2.173156 1_555
O61 W13 1.963572 1_555
O61 W5 2.140004 1_555
O62 W14 1.969922 1_555
O62 W7 2.178143 1_555
O63 W15 1.949028 1_555
O64 W12 1.929557 1_555
O64 W18 2.089009 1_545
O65 W13 1.974818 1_555
O65 W19 2.051438 1_545
O66 W14 1.931294 1_555
O66 W16 2.061138 1_555
O67 W15 1.970220 1_555
O67 W17 2.062013 1_555
O68 W8 1.947335 1_655
O68 W22 2.074181 1_545
O69 W9 1.970947 1_655
O69 W23 2.055458 1_545
O70 W10 1.949062 1_655
O70 W20 2.047712 1_555
O71 W11 1.967197 1_655
O71 W21 2.042944 1_555
O72 W16 1.946855 1_555
O72 W10 2.072630 1_555
O73 W17 1.964291 1_555
O73 W11 2.060543 1_555
O74 W18 1.946150 1_555
O74 W8 2.045888 1_565
O75 W19 1.972672 1_555
O75 W9 2.053637 1_565
O76 W20 1.936753 1_555
O76 W14 2.025856 1_555
O77 W21 1.968833 1_555
O77 W15 2.043100 1_555
O78 W22 1.943661 1_555
O78 W12 2.034064 1_565
O79 W23 1.975068 1_555
O79 W13 2.051379 1_565
