# generated using pymatgen
data_Y(NiO2)2
_symmetry_space_group_name_H-M   'P 1'
_cell_length_a   6.18918128
_cell_length_b   6.18918128
_cell_length_c   6.18918180
_cell_angle_alpha   60.38647605
_cell_angle_beta   60.38647605
_cell_angle_gamma   60.38646927
_symmetry_Int_Tables_number   1
_chemical_formula_structural   Y(NiO2)2
_chemical_formula_sum   'Y2 Ni4 O8'
_cell_volume   169.10801850
_cell_formula_units_Z   2
loop_
 _symmetry_equiv_pos_site_id
 _symmetry_equiv_pos_as_xyz
  1  'x, y, z'
loop_
 _atom_site_type_symbol
 _atom_site_label
 _atom_site_symmetry_multiplicity
 _atom_site_fract_x
 _atom_site_fract_y
 _atom_site_fract_z
 _atom_site_occupancy
  Y  Y0  1  0.62089100  0.62089100  0.62089100  1
  Y  Y1  1  0.37910900  0.37910900  0.37910900  1
  Ni  Ni0  1  0.50000000  0.00000000  0.00000000  1
  Ni  Ni1  1  0.00000000  0.00000000  0.00000000  1
  Ni  Ni2  1  0.00000000  0.50000000  0.00000000  1
  Ni  Ni3  1  0.00000000  0.00000000  0.50000000  1
  O  O0  1  0.76423300  0.19802700  0.76423300  1
  O  O1  1  0.23576700  0.23576700  0.80197300  1
  O  O2  1  0.80197300  0.23576700  0.23576700  1
  O  O3  1  0.23846900  0.23846900  0.23846900  1
  O  O4  1  0.76423300  0.76423300  0.19802700  1
  O  O5  1  0.23576700  0.80197300  0.23576700  1
  O  O6  1  0.19802700  0.76423300  0.76423300  1
  O  O7  1  0.76153100  0.76153100  0.76153100  1
loop_
_geom_bond_atom_site_label_1
_geom_bond_atom_site_label_2
_geom_bond_distance
_geom_bond_site_symmetry_2
Ni0 O1 2.039828 1_554
Ni0 O4 2.039828 1_545
Ni0 O5 2.039828 1_545
Ni0 O0 2.039828 1_554
Ni0 O3 2.099412 1_555
Ni0 O7 2.099412 1_544
Ni1 O6 2.080880 1_544
Ni1 O0 2.080880 1_454
Ni1 O2 2.080880 1_455
Ni1 O5 2.080880 1_545
Ni1 O4 2.080880 1_445
Ni1 O1 2.080880 1_554
Ni2 O1 2.039828 1_554
Ni2 O4 2.039828 1_455
Ni2 O2 2.039828 1_455
Ni2 O6 2.039828 1_554
Ni2 O3 2.099412 1_555
Ni2 O7 2.099412 1_454
Ni3 O2 2.039828 1_455
Ni3 O5 2.039828 1_545
Ni3 O0 2.039828 1_455
Ni3 O6 2.039828 1_545
Ni3 O3 2.099412 1_555
Ni3 O7 2.099412 1_445
O0 Y0 2.147610 1_555
O1 Y1 2.147610 1_555
O2 Y1 2.147610 1_555
O3 Y1 2.125901 1_555
O4 Y0 2.147610 1_555
O5 Y1 2.147610 1_555
O6 Y0 2.147610 1_555
O7 Y0 2.125901 1_555
