# generated using pymatgen
data_HfCrAgS4
_symmetry_space_group_name_H-M   'P 1'
_cell_length_a   11.91820900
_cell_length_b   7.17329100
_cell_length_c   12.92445600
_cell_angle_alpha   90.00000000
_cell_angle_beta   90.00000000
_cell_angle_gamma   90.00000000
_symmetry_Int_Tables_number   1
_chemical_formula_structural   HfCrAgS4
_chemical_formula_sum   'Hf8 Cr8 Ag8 S32'
_cell_volume   1104.94769095
_cell_formula_units_Z   8
loop_
 _symmetry_equiv_pos_site_id
 _symmetry_equiv_pos_as_xyz
  1  'x, y, z'
loop_
 _atom_site_type_symbol
 _atom_site_label
 _atom_site_symmetry_multiplicity
 _atom_site_fract_x
 _atom_site_fract_y
 _atom_site_fract_z
 _atom_site_occupancy
  Hf  Hf0  1  0.11265500  0.89933700  0.68774200  1
  Hf  Hf1  1  0.88734500  0.10066300  0.18774200  1
  Hf  Hf2  1  0.38734500  0.89933700  0.18774200  1
  Hf  Hf3  1  0.61265500  0.10066300  0.68774200  1
  Hf  Hf4  1  0.11851600  0.37134900  0.33230900  1
  Hf  Hf5  1  0.88148300  0.62865100  0.83230900  1
  Hf  Hf6  1  0.38148300  0.37134900  0.83230900  1
  Hf  Hf7  1  0.61851700  0.62865100  0.33230900  1
  Cr  Cr0  1  0.16163000  0.62665800  0.94071200  1
  Cr  Cr1  1  0.83837000  0.37334200  0.44071200  1
  Cr  Cr2  1  0.33837000  0.62665800  0.44071200  1
  Cr  Cr3  1  0.66163000  0.37334200  0.94071200  1
  Cr  Cr4  1  0.12698100  0.13506900  0.01788700  1
  Cr  Cr5  1  0.87301900  0.86493100  0.51788700  1
  Cr  Cr6  1  0.37301900  0.13506900  0.51788700  1
  Cr  Cr7  1  0.62698100  0.86493100  0.01788700  1
  Ag  Ag0  1  0.10677400  0.37578900  0.67127300  1
  Ag  Ag1  1  0.89322600  0.62421100  0.17127300  1
  Ag  Ag2  1  0.39322600  0.37578900  0.17127300  1
  Ag  Ag3  1  0.60677400  0.62421100  0.67127300  1
  Ag  Ag4  1  0.11530900  0.88465600  0.32212500  1
  Ag  Ag5  1  0.88469100  0.11534400  0.82212500  1
  Ag  Ag6  1  0.38469100  0.88465600  0.82212500  1
  Ag  Ag7  1  0.61530900  0.11534400  0.32212500  1
  S  S0  1  0.03362800  0.86184200  0.87918500  1
  S  S1  1  0.96637200  0.13815800  0.37918500  1
  S  S2  1  0.46637200  0.86184200  0.37918500  1
  S  S3  1  0.53362800  0.13815800  0.87918500  1
  S  S4  1  0.03823800  0.34728500  0.14739100  1
  S  S5  1  0.96176200  0.65271500  0.64739100  1
  S  S6  1  0.46176200  0.34728500  0.64739100  1
  S  S7  1  0.53823800  0.65271500  0.14739100  1
  S  S8  1  0.02373400  0.39579300  0.89603300  1
  S  S9  1  0.97626600  0.60420700  0.39603300  1
  S  S10  1  0.47626600  0.39579300  0.39603300  1
  S  S11  1  0.52373400  0.60420700  0.89603300  1
  S  S12  1  0.03185900  0.89366600  0.12539100  1
  S  S13  1  0.96814100  0.10633400  0.62539100  1
  S  S14  1  0.46814100  0.89366600  0.62539100  1
  S  S15  1  0.53185900  0.10633400  0.12539100  1
  S  S16  1  0.22868500  0.87988600  0.52063900  1
  S  S17  1  0.77131500  0.12011400  0.02063900  1
  S  S18  1  0.27131500  0.87988600  0.02063900  1
  S  S19  1  0.72868500  0.12011400  0.52063900  1
  S  S20  1  0.22821900  0.37507700  0.50263700  1
  S  S21  1  0.77178100  0.62492300  0.00263700  1
  S  S22  1  0.27178100  0.37507700  0.00263700  1
  S  S23  1  0.72821900  0.62492300  0.50263700  1
  S  S24  1  0.23231500  0.13472800  0.77685000  1
  S  S25  1  0.76768500  0.86527200  0.27685000  1
  S  S26  1  0.26768500  0.13472800  0.27685000  1
  S  S27  1  0.73231500  0.86527200  0.77685000  1
  S  S28  1  0.23947200  0.62450300  0.77682600  1
  S  S29  1  0.76052800  0.37549700  0.27682600  1
  S  S30  1  0.26052800  0.62450300  0.27682600  1
  S  S31  1  0.73947200  0.37549700  0.77682600  1
loop_
_geom_bond_atom_site_label_1
_geom_bond_atom_site_label_2
_geom_bond_distance
_geom_bond_site_symmetry_2
Hf0 S13 2.412604 1_465
Hf0 S24 2.492254 1_565
Hf0 S16 2.568300 1_555
Hf0 S5 2.576007 1_455
Hf0 S0 2.661125 1_555
Hf0 S28 2.738016 1_555
Hf1 S12 2.412604 1_645
Hf1 S25 2.492254 1_545
Hf1 S17 2.568300 1_555
Hf1 S4 2.576007 1_655
Hf1 S1 2.661125 1_555
Hf1 S29 2.738016 1_555
Hf2 S15 2.412604 1_565
Hf2 S26 2.492254 1_565
Hf2 S18 2.568300 1_555
Hf2 S7 2.576007 1_555
Hf2 S2 2.661125 1_555
Hf2 S30 2.738016 1_555
Hf3 S14 2.412604 1_545
Hf3 S27 2.492254 1_545
Hf3 S19 2.568300 1_555
Hf3 S6 2.576007 1_555
Hf3 S3 2.661125 1_555
Hf3 S31 2.738016 1_555
Hf4 S9 2.518466 1_455
Hf4 S1 2.540301 1_455
Hf4 S26 2.560360 1_555
Hf4 S20 2.560532 1_555
Hf4 S4 2.580143 1_555
Hf4 S30 2.583899 1_555
Hf5 S8 2.518475 1_655
Hf5 S0 2.540310 1_655
Hf5 S27 2.560351 1_555
Hf5 S21 2.560526 1_556
Hf5 S5 2.580147 1_555
Hf5 S31 2.583891 1_555
Hf6 S11 2.518475 1_555
Hf6 S3 2.540310 1_555
Hf6 S24 2.560351 1_555
Hf6 S22 2.560526 1_556
Hf6 S6 2.580147 1_555
Hf6 S28 2.583891 1_555
Hf7 S10 2.518475 1_555
Hf7 S2 2.540310 1_555
Hf7 S25 2.560351 1_555
Hf7 S23 2.560526 1_555
Hf7 S7 2.580147 1_555
Hf7 S29 2.583891 1_555
Cr0 S28 2.312454 1_555
Cr0 S22 2.370826 1_556
Cr0 S8 2.403538 1_555
Cr0 S0 2.409519 1_555
Cr0 S18 2.464875 1_556
Cr1 S29 2.312454 1_555
Cr1 S23 2.370826 1_555
Cr1 S9 2.403538 1_555
Cr1 S1 2.409519 1_555
Cr1 S19 2.464875 1_555
Cr2 S30 2.312454 1_555
Cr2 S20 2.370826 1_555
Cr2 S10 2.403538 1_555
Cr2 S2 2.409519 1_555
Cr2 S16 2.464875 1_555
Cr3 S31 2.312454 1_555
Cr3 S21 2.370826 1_556
Cr3 S11 2.403538 1_555
Cr3 S3 2.409519 1_555
Cr3 S17 2.464875 1_556
Cr4 S22 2.445640 1_555
Cr4 S12 2.492866 1_545
Cr4 S4 2.497499 1_555
Cr4 S18 2.512190 1_545
Cr4 S8 2.737208 1_554
Cr4 S0 2.879725 1_544
Cr5 S23 2.445640 1_555
Cr5 S13 2.492866 1_565
Cr5 S5 2.497499 1_555
Cr5 S19 2.512190 1_565
Cr5 S9 2.737208 1_555
Cr5 S1 2.879725 1_565
Cr6 S20 2.445640 1_555
Cr6 S14 2.492866 1_545
Cr6 S6 2.497499 1_555
Cr6 S16 2.512190 1_545
Cr6 S10 2.737208 1_555
Cr6 S2 2.879725 1_545
Cr7 S21 2.445640 1_555
Cr7 S15 2.492866 1_565
Cr7 S7 2.497499 1_555
Cr7 S17 2.512190 1_565
Cr7 S11 2.737208 1_554
Cr7 S3 2.879725 1_564
Ag0 S13 2.611058 1_455
Ag0 S20 2.616363 1_555
Ag0 S5 2.651094 1_455
Ag0 S24 2.662846 1_555
Ag0 S28 2.746871 1_555
Ag0 S8 3.072218 1_555
Ag1 S12 2.611058 1_655
Ag1 S21 2.616363 1_555
Ag1 S4 2.651094 1_655
Ag1 S25 2.662846 1_555
Ag1 S29 2.746871 1_555
Ag1 S9 3.072218 1_555
Ag2 S15 2.611058 1_555
Ag2 S22 2.616363 1_555
Ag2 S7 2.651094 1_555
Ag2 S26 2.662846 1_555
Ag2 S30 2.746871 1_555
Ag2 S10 3.072218 1_555
Ag3 S14 2.611058 1_555
Ag3 S23 2.616363 1_555
Ag3 S6 2.651094 1_555
Ag3 S27 2.662846 1_555
Ag3 S31 2.746871 1_555
Ag3 S11 3.072218 1_555
Ag4 S30 2.611665 1_555
Ag4 S26 2.618835 1_565
Ag4 S1 2.646024 1_465
Ag4 S12 2.731040 1_555
Ag4 S9 2.775910 1_455
Ag4 S16 2.899958 1_555
Ag5 S31 2.611665 1_555
Ag5 S27 2.618835 1_545
Ag5 S0 2.646024 1_645
Ag5 S13 2.731040 1_555
Ag5 S8 2.775910 1_655
Ag5 S17 2.899958 1_556
Ag6 S28 2.611665 1_555
Ag6 S24 2.618835 1_565
Ag6 S3 2.646024 1_565
Ag6 S14 2.731040 1_555
Ag6 S11 2.775910 1_555
Ag6 S18 2.899958 1_556
Ag7 S29 2.611665 1_555
Ag7 S25 2.618835 1_545
Ag7 S2 2.646024 1_545
Ag7 S15 2.731040 1_555
Ag7 S10 2.775910 1_555
Ag7 S19 2.899958 1_555
