# generated using pymatgen
data_Al(NiS2)2
_symmetry_space_group_name_H-M   'P 1'
_cell_length_a   6.80435457
_cell_length_b   6.80435457
_cell_length_c   6.80435457
_cell_angle_alpha   119.80476630
_cell_angle_beta   118.74219182
_cell_angle_gamma   91.26545541
_symmetry_Int_Tables_number   1
_chemical_formula_structural   Al(NiS2)2
_chemical_formula_sum   'Al2 Ni4 S8'
_cell_volume   225.12767661
_cell_formula_units_Z   2
loop_
 _symmetry_equiv_pos_site_id
 _symmetry_equiv_pos_as_xyz
  1  'x, y, z'
loop_
 _atom_site_type_symbol
 _atom_site_label
 _atom_site_symmetry_multiplicity
 _atom_site_fract_x
 _atom_site_fract_y
 _atom_site_fract_z
 _atom_site_occupancy
  Al  Al0  1  0.50000000  -0.00000000  0.50000000  1
  Al  Al1  1  -0.00000000  -0.00000000  0.00000000  1
  Ni  Ni0  1  0.50000000  0.50000000  0.50000000  1
  Ni  Ni1  1  0.50000000  0.50000000  0.00000000  1
  Ni  Ni2  1  0.50000000  -0.00000000  0.00000000  1
  Ni  Ni3  1  -0.00000000  0.50000000  0.50000000  1
  S  S0  1  0.72242733  0.25030453  0.47212280  1
  S  S1  1  0.74528872  0.74791222  0.50262350  1
  S  S2  1  0.27818174  0.25030453  0.02787720  1
  S  S3  1  0.25471128  0.75733477  0.00262350  1
  S  S4  1  0.72181826  0.74969547  0.97212280  1
  S  S5  1  0.25471128  0.25208778  0.49737650  1
  S  S6  1  0.74528872  0.24266523  0.99737650  1
  S  S7  1  0.27757267  0.74969547  0.52787720  1
loop_
_geom_bond_atom_site_label_1
_geom_bond_atom_site_label_2
_geom_bond_distance
_geom_bond_site_symmetry_2
Al0 S0 2.389717 1_555
Al0 S7 2.389717 1_545
Al0 S3 2.420012 1_545
Al0 S6 2.420012 1_555
Al0 S5 2.420012 1_555
Al0 S1 2.420012 1_545
Al1 S4 2.389717 1_444
Al1 S2 2.389717 1_555
Al1 S5 2.420012 1_555
Al1 S1 2.420012 1_444
Al1 S3 2.420012 1_545
Al1 S6 2.420012 1_454
Ni0 S0 2.298379 1_555
Ni0 S7 2.298379 1_555
Ni0 S4 2.298379 1_555
Ni0 S2 2.298379 1_555
Ni0 S1 2.334226 1_555
Ni0 S5 2.334226 1_555
Ni1 S2 2.383940 1_555
Ni1 S4 2.383940 1_554
Ni1 S6 2.445126 1_554
Ni1 S3 2.445126 1_555
Ni1 S1 2.445126 1_555
Ni1 S5 2.445126 1_554
Ni2 S4 2.298379 1_544
Ni2 S2 2.298379 1_555
Ni2 S7 2.298379 1_544
Ni2 S0 2.298379 1_555
Ni2 S3 2.334226 1_545
Ni2 S6 2.334226 1_554
Ni3 S0 2.383940 1_455
Ni3 S7 2.383940 1_555
Ni3 S3 2.445126 1_556
Ni3 S6 2.445126 1_454
Ni3 S1 2.445126 1_455
Ni3 S5 2.445126 1_555
