# generated using pymatgen
data_V2Zn(PO5)2
_symmetry_space_group_name_H-M   'P 1'
_cell_length_a   9.89250510
_cell_length_b   8.89628922
_cell_length_c   6.68798720
_cell_angle_alpha   77.37375756
_cell_angle_beta   61.34797917
_cell_angle_gamma   41.27826327
_symmetry_Int_Tables_number   1
_chemical_formula_structural   V2Zn(PO5)2
_chemical_formula_sum   'V4 Zn2 P4 O20'
_cell_volume   330.38008921
_cell_formula_units_Z   2
loop_
 _symmetry_equiv_pos_site_id
 _symmetry_equiv_pos_as_xyz
  1  'x, y, z'
loop_
 _atom_site_type_symbol
 _atom_site_label
 _atom_site_symmetry_multiplicity
 _atom_site_fract_x
 _atom_site_fract_y
 _atom_site_fract_z
 _atom_site_occupancy
  V  V0  1  0.87879300  0.38234400  0.38884700  1
  V  V1  1  0.35001700  0.38884700  0.38234400  1
  V  V2  1  0.86765600  0.37120700  0.89998300  1
  V  V3  1  0.86115300  0.89998300  0.37120700  1
  Zn  Zn0  1  0.50631300  0.99368700  0.99368700  1
  Zn  Zn1  1  0.25631300  0.74368700  0.74368700  1
  P  P0  1  0.03601500  0.54776600  0.96294400  1
  P  P1  1  0.70223400  0.21398500  0.79672600  1
  P  P2  1  0.45327400  0.96294400  0.54776600  1
  P  P3  1  0.28705600  0.79672600  0.21398500  1
  O  O0  1  0.58652700  0.72135200  0.44374800  1
  O  O1  1  0.65670700  0.17854100  0.33750800  1
  O  O2  1  0.30687000  0.66183600  0.41530800  1
  O  O3  1  0.80625200  0.00162700  0.66347300  1
  O  O4  1  0.21588100  0.08260200  0.75711300  1
  O  O5  1  0.42703300  0.10155700  0.34904800  1
  O  O6  1  0.07145900  0.59329300  0.42275600  1
  O  O7  1  0.82724400  0.33750800  0.17854100  1
  O  O8  1  0.91249200  0.42275600  0.59329300  1
  O  O9  1  0.16739800  0.03411900  0.30559600  1
  O  O10  1  0.24837300  0.44374800  0.72135200  1
  O  O11  1  0.49288700  0.30559600  0.03411900  1
  O  O12  1  0.94440400  0.75711300  0.08260200  1
  O  O13  1  0.14844300  0.82296700  0.12763800  1
  O  O14  1  0.12236200  0.34904800  0.10155700  1
  O  O15  1  0.90095200  0.12763800  0.82296700  1
  O  O16  1  0.83469200  0.63401400  0.94313000  1
  O  O17  1  0.61598600  0.41530800  0.66183600  1
  O  O18  1  0.52864800  0.66347300  0.00162700  1
  O  O19  1  0.58816400  0.94313000  0.63401400  1
loop_
_geom_bond_atom_site_label_1
_geom_bond_atom_site_label_2
_geom_bond_distance
_geom_bond_site_symmetry_2
O0 P2 1.535216 1_555
O0 V0 1.987434 1_555
O1 V3 1.715277 1_545
O1 V1 1.906896 1_555
O2 P3 1.576248 1_555
O2 Zn1 2.168424 1_555
O2 V1 2.171319 1_555
O3 P1 1.535223 1_555
O3 V3 1.987438 1_545
O4 P2 1.532817 1_545
O4 V2 1.998544 1_455
O5 P2 1.577199 1_545
O5 V1 2.078850 1_555
O5 Zn0 2.294091 1_544
O6 V1 1.715279 1_555
O6 V3 1.906899 1_455
O7 V2 1.715278 1_554
O7 V0 1.906904 1_555
O8 V0 1.715272 1_555
O8 V2 1.906898 1_555
O9 P3 1.532814 1_545
O9 V0 1.998543 1_455
O10 P0 1.535220 1_555
O10 V1 1.987431 1_555
O11 P1 1.532819 1_554
O11 V1 1.998545 1_555
O12 P0 1.532822 1_654
O12 V3 1.998539 1_555
O13 P3 1.577204 1_555
O13 V3 2.078849 1_455
O13 Zn1 2.294091 1_554
O14 P0 1.577199 1_554
O14 V0 2.078844 1_455
O14 Zn0 2.294091 1_544
O15 P1 1.577195 1_555
O15 V2 2.078842 1_555
O15 Zn1 2.294091 1_645
O16 P0 1.576244 1_655
O16 Zn0 2.168424 1_555
O16 V2 2.171328 1_555
O17 P1 1.576248 1_555
O17 Zn1 2.168424 1_555
O17 V0 2.171326 1_555
O18 P3 1.535218 1_555
O18 V2 1.987432 1_554
O19 P2 1.576253 1_555
O19 Zn0 2.168424 1_555
O19 V3 2.171321 1_555
