# generated using pymatgen
data_Ho4(CoB2)3
_symmetry_space_group_name_H-M   'P 1'
_cell_length_a   5.28522242
_cell_length_b   5.28522300
_cell_length_c   7.88364342
_cell_angle_alpha   70.41519381
_cell_angle_beta   70.41519550
_cell_angle_gamma   60.00000262
_symmetry_Int_Tables_number   1
_chemical_formula_structural   Ho4(CoB2)3
_chemical_formula_sum   'Ho4 Co3 B6'
_cell_volume   175.84955628
_cell_formula_units_Z   1
loop_
 _symmetry_equiv_pos_site_id
 _symmetry_equiv_pos_as_xyz
  1  'x, y, z'
loop_
 _atom_site_type_symbol
 _atom_site_label
 _atom_site_symmetry_multiplicity
 _atom_site_fract_x
 _atom_site_fract_y
 _atom_site_fract_z
 _atom_site_occupancy
  Ho  Ho0  1  0.74502100  0.74502100  0.76493600  1
  Ho  Ho1  1  0.25497900  0.25497900  0.23506400  1
  Ho  Ho2  1  0.58841800  0.58841800  0.23474600  1
  Ho  Ho3  1  0.41158200  0.41158200  0.76525400  1
  Co  Co0  1  0.00000000  0.00000000  0.00000000  1
  Co  Co1  1  0.88739700  0.88739700  0.33781000  1
  Co  Co2  1  0.11260300  0.11260300  0.66219000  1
  B  B0  1  0.50000000  0.16821900  0.50000000  1
  B  B1  1  0.83178100  0.50000000  0.50000000  1
  B  B2  1  0.16821900  0.83178100  0.50000000  1
  B  B3  1  0.16821900  0.50000000  0.50000000  1
  B  B4  1  0.83178100  0.16821900  0.50000000  1
  B  B5  1  0.50000000  0.83178100  0.50000000  1
loop_
_geom_bond_atom_site_label_1
_geom_bond_atom_site_label_2
_geom_bond_distance
_geom_bond_site_symmetry_2
Co0 Co2 2.455594 1_554
Co0 Co1 2.455594 1_445
Co0 Ho2 3.496142 1_545
Co0 Ho3 3.496142 1_454
Co0 Ho2 3.496143 1_445
Co0 Ho3 3.496143 1_554
Co0 Ho2 3.496143 1_455
Co0 Ho3 3.496143 1_544
Co0 Ho0 3.497270 1_544
Co0 Ho1 3.497270 1_455
Co0 Ho0 3.497270 1_454
Co0 Ho1 3.497270 1_545
Co0 Ho1 3.497274 1_555
Co0 Ho0 3.497274 1_444
B0 B4 1.753536 1_555
B0 B3 1.753537 1_555
B0 B5 1.778150 1_545
B0 Co1 2.123266 1_545
B0 Co2 2.123268 1_555
B0 Ho3 2.606289 1_555
B0 Ho2 2.606289 1_555
B0 Ho1 2.612888 1_555
B0 Ho0 2.612890 1_545
B1 B5 1.753537 1_555
B1 B4 1.753537 1_555
B1 B3 1.778150 1_655
B1 Co2 2.123266 1_655
B1 Co1 2.123268 1_555
B1 Ho2 2.606289 1_555
B1 Ho3 2.606289 1_555
B1 Ho0 2.612888 1_555
B1 Ho1 2.612890 1_655
B2 B5 1.753536 1_555
B2 B3 1.753537 1_555
B2 B4 1.778150 1_465
B2 Co1 2.123263 1_455
B2 Co2 2.123263 1_565
B2 Ho3 2.606289 1_555
B2 Ho2 2.606289 1_555
B2 Ho0 2.612892 1_455
B2 Ho1 2.612892 1_565
B3 Co1 2.123266 1_455
B3 Co2 2.123268 1_555
B3 Ho3 2.606289 1_555
B3 Ho2 2.606289 1_555
B3 Ho1 2.612888 1_555
B3 Ho0 2.612890 1_455
B4 Co2 2.123263 1_655
B4 Co1 2.123263 1_545
B4 Ho2 2.606289 1_555
B4 Ho3 2.606289 1_555
B4 Ho1 2.612892 1_655
B4 Ho0 2.612892 1_545
B5 Co2 2.123266 1_565
B5 Co1 2.123268 1_555
B5 Ho2 2.606289 1_555
B5 Ho3 2.606289 1_555
B5 Ho0 2.612888 1_555
B5 Ho1 2.612890 1_565
