# generated using pymatgen
data_Mn7SnN2
_symmetry_space_group_name_H-M   'P 1'
_cell_length_a   3.84300600
_cell_length_b   3.84300600
_cell_length_c   7.72999100
_cell_angle_alpha   90.00000000
_cell_angle_beta   90.00000000
_cell_angle_gamma   90.00000000
_symmetry_Int_Tables_number   1
_chemical_formula_structural   Mn7SnN2
_chemical_formula_sum   'Mn7 Sn1 N2'
_cell_volume   114.16188033
_cell_formula_units_Z   1
loop_
 _symmetry_equiv_pos_site_id
 _symmetry_equiv_pos_as_xyz
  1  'x, y, z'
loop_
 _atom_site_type_symbol
 _atom_site_label
 _atom_site_symmetry_multiplicity
 _atom_site_fract_x
 _atom_site_fract_y
 _atom_site_fract_z
 _atom_site_occupancy
  Mn  Mn0  1  0.50000000  0.50000000  0.00000000  1
  Mn  Mn1  1  0.50000000  0.50000000  0.50000000  1
  Mn  Mn2  1  0.50000000  0.00000000  0.24863900  1
  Mn  Mn3  1  0.50000000  0.00000000  0.75136100  1
  Mn  Mn4  1  0.00000000  0.50000000  0.24863900  1
  Mn  Mn5  1  0.00000000  0.50000000  0.75136100  1
  Mn  Mn6  1  0.00000000  0.00000000  0.50000000  1
  Sn  Sn0  1  0.00000000  0.00000000  0.00000000  1
  N  N0  1  0.50000000  0.50000000  0.25362300  1
  N  N1  1  0.50000000  0.50000000  0.74637700  1
loop_
_geom_bond_atom_site_label_1
_geom_bond_atom_site_label_2
_geom_bond_distance
_geom_bond_site_symmetry_2
Mn0 N0 1.960504 1_555
Mn0 N1 1.960504 1_554
Mn0 Sn0 2.717416 1_555
Mn0 Sn0 2.717416 1_655
Mn0 Sn0 2.717416 1_665
Mn0 Sn0 2.717416 1_565
Mn1 N1 1.904492 1_555
Mn1 N0 1.904492 1_555
Mn1 Mn6 2.717416 1_565
Mn1 Mn6 2.717416 1_655
Mn1 Mn6 2.717416 1_665
Mn1 Mn6 2.717416 1_555
Mn2 N0 1.921889 1_555
Mn2 N0 1.921889 1_545
Mn2 Sn0 2.717751 1_555
Mn2 Sn0 2.717751 1_655
Mn2 Mn6 2.732672 1_555
Mn2 Mn6 2.732672 1_655
Mn3 N1 1.921889 1_545
Mn3 N1 1.921889 1_555
Mn3 Sn0 2.717751 1_656
Mn3 Sn0 2.717751 1_556
Mn3 Mn6 2.732672 1_555
Mn3 Mn6 2.732672 1_655
Mn4 N0 1.921889 1_555
Mn4 N0 1.921889 1_455
Mn4 Sn0 2.717751 1_555
Mn4 Sn0 2.717751 1_565
Mn4 Mn6 2.732672 1_555
Mn4 Mn6 2.732672 1_565
Mn5 N1 1.921889 1_455
Mn5 N1 1.921889 1_555
Mn5 Sn0 2.717751 1_566
Mn5 Sn0 2.717751 1_556
Mn5 Mn6 2.732672 1_555
Mn5 Mn6 2.732672 1_565
