# generated using pymatgen
data_Cr2NiO4
_symmetry_space_group_name_H-M   'P 1'
_cell_length_a   5.84269732
_cell_length_b   5.92279520
_cell_length_c   5.95569652
_cell_angle_alpha   59.05547855
_cell_angle_beta   60.66484075
_cell_angle_gamma   90.04302093
_symmetry_Int_Tables_number   1
_chemical_formula_structural   Cr2NiO4
_chemical_formula_sum   'Cr4 Ni2 O8'
_cell_volume   145.03058009
_cell_formula_units_Z   2
loop_
 _symmetry_equiv_pos_site_id
 _symmetry_equiv_pos_as_xyz
  1  'x, y, z'
loop_
 _atom_site_type_symbol
 _atom_site_label
 _atom_site_symmetry_multiplicity
 _atom_site_fract_x
 _atom_site_fract_y
 _atom_site_fract_z
 _atom_site_occupancy
  Cr  Cr0  1  -0.00002294  0.99989343  0.50021246  1
  Cr  Cr1  1  0.99993335  0.49996403  1.00003364  1
  Cr  Cr2  1  0.99993195  0.00000694  1.00001577  1
  Cr  Cr3  1  0.50030667  0.00014473  0.49971756  1
  Ni  Ni0  1  0.62679791  0.37052206  0.74544981  1
  Ni  Ni1  1  0.37216726  0.62937894  0.25469170  1
  O  O0  1  0.24224185  0.76158555  0.97550398  1
  O  O1  1  0.76106668  0.78124135  0.47792500  1
  O  O2  1  0.76504737  0.23929599  0.47099498  1
  O  O3  1  0.78169432  0.76106579  0.97631659  1
  O  O4  1  0.75810183  0.23864432  0.02362002  1
  O  O5  1  0.23935878  0.21874666  0.52201230  1
  O  O6  1  0.23570212  0.76077083  0.52894681  1
  O  O7  1  0.21767385  0.23873839  0.02456137  1
loop_
_geom_bond_atom_site_label_1
_geom_bond_atom_site_label_2
_geom_bond_distance
_geom_bond_site_symmetry_2
Cr0 O2 1.976896 1_465
Cr0 O6 1.979042 1_555
Cr0 O7 1.997357 1_565
Cr0 O3 1.999162 1_455
Cr0 O1 1.999707 1_455
Cr0 O5 2.000377 1_565
Cr1 O2 1.976369 1_556
Cr1 O6 1.976916 1_655
Cr1 O7 1.996550 1_656
Cr1 O0 1.996982 1_655
Cr1 O4 1.997575 1_556
Cr1 O3 1.998037 1_555
Cr2 O4 2.006634 1_556
Cr2 O3 2.006898 1_545
Cr2 O7 2.007795 1_656
Cr2 O0 2.008040 1_645
Cr2 O1 2.010037 1_546
Cr2 O5 2.010471 1_655
Cr3 O6 1.977289 1_545
Cr3 O2 1.978996 1_555
Cr3 O0 1.998058 1_545
Cr3 O4 1.999243 1_555
Cr3 O5 1.999975 1_555
Cr3 O1 2.000315 1_545
Ni0 O7 1.963635 1_556
Ni0 O1 1.964181 1_555
Ni0 O4 1.964366 1_556
Ni0 O2 1.985480 1_555
Ni1 O0 1.962863 1_554
Ni1 O5 1.963791 1_555
Ni1 O3 1.965353 1_554
Ni1 O6 1.985284 1_555
