# generated using pymatgen
data_Sm2(InSn)3
_symmetry_space_group_name_H-M   'P 1'
_cell_length_a   4.73800562
_cell_length_b   4.81362361
_cell_length_c   9.09693752
_cell_angle_alpha   90.00000000
_cell_angle_beta   90.00000000
_cell_angle_gamma   90.00000000
_symmetry_Int_Tables_number   1
_chemical_formula_structural   Sm2(InSn)3
_chemical_formula_sum   'Sm2 In3 Sn3'
_cell_volume   207.47363312
_cell_formula_units_Z   1
loop_
 _symmetry_equiv_pos_site_id
 _symmetry_equiv_pos_as_xyz
  1  'x, y, z'
loop_
 _atom_site_type_symbol
 _atom_site_label
 _atom_site_symmetry_multiplicity
 _atom_site_fract_x
 _atom_site_fract_y
 _atom_site_fract_z
 _atom_site_occupancy
  Sm  Sm0  1  -0.00000000  0.00000000  0.24716908  1
  Sm  Sm1  1  -0.00000000  0.00000000  0.75283092  1
  In  In0  1  0.50000000  0.50000000  0.25235574  1
  In  In1  1  0.50000000  0.50000000  0.74764426  1
  In  In2  1  0.00000000  0.50000000  0.50000000  1
  Sn  Sn0  1  0.00000000  0.50000000  0.00000000  1
  Sn  Sn1  1  0.50000000  0.00000000  0.50000000  1
  Sn  Sn2  1  0.50000000  0.00000000  0.00000000  1
loop_
_geom_bond_atom_site_label_1
_geom_bond_atom_site_label_2
_geom_bond_distance
_geom_bond_site_symmetry_2
Sm0 Sn2 3.266167 1_555
Sm0 Sn2 3.266167 1_455
Sm0 Sn0 3.293693 1_555
Sm0 Sn0 3.293693 1_545
Sm0 Sn1 3.301835 1_455
Sm0 Sn1 3.301835 1_555
Sm1 Sn2 3.266167 1_456
Sm1 Sn2 3.266167 1_556
Sm1 Sn0 3.293693 1_556
Sm1 Sn0 3.293693 1_546
Sm1 Sn1 3.301835 1_455
Sm1 Sn1 3.301835 1_555
In0 In2 3.269144 1_555
In0 In2 3.269144 1_655
In0 Sn1 3.296645 1_555
In0 Sn1 3.296645 1_565
In0 Sn0 3.298825 1_655
In0 Sn0 3.298825 1_555
In0 Sn2 3.326081 1_555
In0 Sn2 3.326081 1_565
In0 Sm0 3.377446 1_665
In0 Sm0 3.377446 1_655
In0 Sm0 3.377446 1_565
In0 Sm0 3.377446 1_555
In1 In2 3.269144 1_555
In1 In2 3.269144 1_655
In1 Sn1 3.296645 1_565
In1 Sn1 3.296645 1_555
In1 Sn0 3.298825 1_556
In1 Sn0 3.298825 1_656
In1 Sn2 3.326081 1_566
In1 Sn2 3.326081 1_556
In1 Sm1 3.377446 1_565
In1 Sm1 3.377446 1_655
In1 Sm1 3.377446 1_665
In1 Sm1 3.377446 1_555
In2 Sm1 3.329066 1_565
In2 Sm0 3.329066 1_555
In2 Sm1 3.329066 1_555
In2 Sm0 3.329066 1_565
In2 Sn1 3.377117 1_465
In2 Sn1 3.377117 1_565
In2 Sn1 3.377117 1_555
In2 Sn1 3.377117 1_455
Sn0 Sn2 3.377117 1_565
Sn0 Sn2 3.377117 1_555
Sn0 Sn2 3.377117 1_465
Sn0 Sn2 3.377117 1_455
