# generated using pymatgen
data_Li7Fe5O12
_symmetry_space_group_name_H-M   'P 1'
_cell_length_a   5.13163948
_cell_length_b   5.13163948
_cell_length_c   9.89072129
_cell_angle_alpha   85.06783541
_cell_angle_beta   85.06783541
_cell_angle_gamma   119.97155046
_symmetry_Int_Tables_number   1
_chemical_formula_structural   Li7Fe5O12
_chemical_formula_sum   'Li7 Fe5 O12'
_cell_volume   222.27141765
_cell_formula_units_Z   1
loop_
 _symmetry_equiv_pos_site_id
 _symmetry_equiv_pos_as_xyz
  1  'x, y, z'
loop_
 _atom_site_type_symbol
 _atom_site_label
 _atom_site_symmetry_multiplicity
 _atom_site_fract_x
 _atom_site_fract_y
 _atom_site_fract_z
 _atom_site_occupancy
  Li  Li0  1  0.17814100  0.35054400  0.74367000  1
  Li  Li1  1  0.64945600  0.82185900  0.25633000  1
  Li  Li2  1  0.25016100  0.74983900  0.50000000  1
  Li  Li3  1  0.99288800  0.50931200  0.25409400  1
  Li  Li4  1  0.49068800  0.00711200  0.74590600  1
  Li  Li5  1  0.82888100  0.66033600  0.74750500  1
  Li  Li6  1  0.33966400  0.17111900  0.25249500  1
  Fe  Fe0  1  0.41389900  0.58610100  0.00000000  1
  Fe  Fe1  1  0.74823300  0.25176700  0.00000000  1
  Fe  Fe2  1  0.08026900  0.91973100  0.00000000  1
  Fe  Fe3  1  0.91729900  0.08270100  0.50000000  1
  Fe  Fe4  1  0.58409100  0.41590900  0.50000000  1
  O  O0  1  0.56271500  0.69461100  0.61186000  1
  O  O1  1  0.30538900  0.43728500  0.38814000  1
  O  O2  1  0.78538200  0.95834300  0.88363400  1
  O  O3  1  0.04165700  0.21461800  0.11636600  1
  O  O4  1  0.12047500  0.62572800  0.88235500  1
  O  O5  1  0.63702400  0.15290900  0.38732900  1
  O  O6  1  0.84709100  0.36297600  0.61267100  1
  O  O7  1  0.37427200  0.87952500  0.11764500  1
  O  O8  1  0.71068400  0.54815400  0.11413600  1
  O  O9  1  0.92033700  0.76923400  0.38765200  1
  O  O10  1  0.45184600  0.28931600  0.88586400  1
  O  O11  1  0.23076600  0.07966300  0.61234800  1
loop_
_geom_bond_atom_site_label_1
_geom_bond_atom_site_label_2
_geom_bond_distance
_geom_bond_site_symmetry_2
Li0 O11 2.077855 1_555
Li0 O0 2.095728 1_555
Li0 O4 2.155011 1_555
Li0 O10 2.180385 1_555
Li0 O2 2.239979 1_445
Li0 O6 2.245312 1_455
Li1 O9 2.077855 1_555
Li1 O1 2.095728 1_555
Li1 O7 2.155011 1_555
Li1 O8 2.180385 1_555
Li1 O3 2.239979 1_665
Li1 O5 2.245312 1_565
Li2 O6 2.140525 1_455
Li2 O5 2.140525 1_565
Li2 O11 2.140574 1_565
Li2 O9 2.140574 1_455
Li2 O0 2.140636 1_555
Li2 O1 2.140636 1_555
Li3 O5 2.061831 1_555
Li3 O9 2.092194 1_555
Li3 O8 2.153797 1_555
Li3 O7 2.156604 1_655
Li3 O3 2.208844 1_655
Li3 O1 2.310761 1_655
Li4 O6 2.061831 1_555
Li4 O11 2.092194 1_555
Li4 O10 2.153797 1_555
Li4 O4 2.156604 1_545
Li4 O2 2.208844 1_545
Li4 O0 2.310761 1_545
Li5 O0 2.052084 1_555
Li5 O6 2.141661 1_555
Li5 O4 2.148840 1_655
Li5 O10 2.158075 1_555
Li5 O2 2.201080 1_555
Li5 O11 2.295204 1_665
Li6 O1 2.052084 1_555
Li6 O5 2.141661 1_555
Li6 O7 2.148840 1_545
Li6 O8 2.158075 1_555
Li6 O3 2.201080 1_555
Li6 O9 2.295204 1_445
Fe0 O8 2.045964 1_555
Fe0 O10 2.045964 1_554
Fe0 O2 2.052795 1_554
Fe0 O3 2.052795 1_555
Fe0 O4 2.056476 1_554
Fe0 O7 2.056476 1_555
Fe1 O2 2.043369 1_544
Fe1 O3 2.043369 1_655
Fe1 O10 2.043394 1_554
Fe1 O8 2.043394 1_555
Fe1 O4 2.063195 1_654
Fe1 O7 2.063195 1_545
Fe2 O8 2.038554 1_455
Fe2 O10 2.038554 1_564
Fe2 O2 2.052735 1_454
Fe2 O3 2.052735 1_565
Fe2 O4 2.060182 1_554
Fe2 O7 2.060182 1_555
Fe3 O11 2.037657 1_655
Fe3 O9 2.037657 1_545
Fe3 O0 2.038504 1_545
Fe3 O1 2.038504 1_655
Fe3 O5 2.040738 1_555
Fe3 O6 2.040738 1_555
Fe4 O0 1.920816 1_555
Fe4 O1 1.920816 1_555
Fe4 O11 1.922904 1_555
Fe4 O9 1.922904 1_555
Fe4 O6 1.926135 1_555
Fe4 O5 1.926135 1_555
