# generated using pymatgen
data_Sr2Ca6Co7CuO20
_symmetry_space_group_name_H-M   'P 1'
_cell_length_a   10.71622301
_cell_length_b   11.10965749
_cell_length_c   17.10354551
_cell_angle_alpha   108.83270828
_cell_angle_beta   108.16181004
_cell_angle_gamma   90.14809120
_symmetry_Int_Tables_number   1
_chemical_formula_structural   Sr2Ca6Co7CuO20
_chemical_formula_sum   'Sr8 Ca24 Co28 Cu4 O80'
_cell_volume   1819.11581066
_cell_formula_units_Z   4
loop_
 _symmetry_equiv_pos_site_id
 _symmetry_equiv_pos_as_xyz
  1  'x, y, z'
loop_
 _atom_site_type_symbol
 _atom_site_label
 _atom_site_symmetry_multiplicity
 _atom_site_fract_x
 _atom_site_fract_y
 _atom_site_fract_z
 _atom_site_occupancy
  Sr  Sr0  1  0.30691000  0.56215000  0.61395000  1
  Sr  Sr1  1  0.80889600  0.05910100  0.61215800  1
  Sr  Sr2  1  0.20084200  0.44181200  0.89115600  1
  Sr  Sr3  1  0.06205000  0.30008300  0.61273800  1
  Sr  Sr4  1  0.05677200  0.79758500  0.61184000  1
  Sr  Sr5  1  0.56014800  0.30390000  0.61461600  1
  Sr  Sr6  1  0.44816200  0.19999100  0.88854900  1
  Sr  Sr7  1  0.94588000  0.20169600  0.38334200  1
  Ca  Ca0  1  0.30409900  0.06467900  0.10904600  1
  Ca  Ca1  1  0.30956000  0.06276800  0.60654100  1
  Ca  Ca2  1  0.30514800  0.56589500  0.10936900  1
  Ca  Ca3  1  0.80364100  0.06679900  0.10611300  1
  Ca  Ca4  1  0.80687300  0.56409500  0.10836700  1
  Ca  Ca5  1  0.80632900  0.56459000  0.60841400  1
  Ca  Ca6  1  0.19534400  0.43787900  0.39020700  1
  Ca  Ca7  1  0.20060100  0.93351500  0.38900100  1
  Ca  Ca8  1  0.19806100  0.93255000  0.89634600  1
  Ca  Ca9  1  0.69152000  0.43569000  0.38910900  1
  Ca  Ca10  1  0.69950600  0.43806900  0.89422100  1
  Ca  Ca11  1  0.69403400  0.92741900  0.38829600  1
  Ca  Ca12  1  0.69571000  0.93760200  0.89166000  1
  Ca  Ca13  1  0.05564400  0.29416300  0.10921900  1
  Ca  Ca14  1  0.05617500  0.79140300  0.10857000  1
  Ca  Ca15  1  0.55585700  0.29354200  0.10946000  1
  Ca  Ca16  1  0.55313600  0.79360600  0.10896300  1
  Ca  Ca17  1  0.55391000  0.79392600  0.60781400  1
  Ca  Ca18  1  0.44395300  0.20820700  0.38836300  1
  Ca  Ca19  1  0.44381100  0.70528400  0.39059200  1
  Ca  Ca20  1  0.44444600  0.70629300  0.89281500  1
  Ca  Ca21  1  0.95020700  0.20803700  0.89520800  1
  Ca  Ca22  1  0.94435400  0.70279200  0.38867500  1
  Ca  Ca23  1  0.95056400  0.70587100  0.89403700  1
  Co  Co0  1  0.00561600  0.00052500  0.00105400  1
  Co  Co1  1  0.00260900  0.99430800  0.49429600  1
  Co  Co2  1  0.00726300  0.49995700  0.00278200  1
  Co  Co3  1  0.00105500  0.50039700  0.49810800  1
  Co  Co4  1  0.50393700  0.99825100  0.99925200  1
  Co  Co5  1  0.50466600  0.99762200  0.49680800  1
  Co  Co6  1  0.50791400  0.50109800  0.00246900  1
  Co  Co7  1  0.50380800  0.50176500  0.49942300  1
  Co  Co8  1  0.25610300  0.25157100  0.00306200  1
  Co  Co9  1  0.25657900  0.24948800  0.49996400  1
  Co  Co10  1  0.25517100  0.75127400  0.00213500  1
  Co  Co11  1  0.25480500  0.75138200  0.50122200  1
  Co  Co12  1  0.75752600  0.25189100  0.00232700  1
  Co  Co13  1  0.75028900  0.24826100  0.49426000  1
  Co  Co14  1  0.75600100  0.74880900  0.99922800  1
  Co  Co15  1  0.75022200  0.74441000  0.49471000  1
  Co  Co16  1  0.10929200  0.09050200  0.24514500  1
  Co  Co17  1  0.11057900  0.09074800  0.75526600  1
  Co  Co18  1  0.10746600  0.59504800  0.24987500  1
  Co  Co19  1  0.60444700  0.09188600  0.24845100  1
  Co  Co20  1  0.61168400  0.09236800  0.74916400  1
  Co  Co21  1  0.60544300  0.59186500  0.24714700  1
  Co  Co22  1  0.35656000  0.40605600  0.24930500  1
  Co  Co23  1  0.35766300  0.90426500  0.24844700  1
  Co  Co24  1  0.85667600  0.40856800  0.24836600  1
  Co  Co25  1  0.86143300  0.41137300  0.75387500  1
  Co  Co26  1  0.85637900  0.90144600  0.24631200  1
  Co  Co27  1  0.85902100  0.90097500  0.75421200  1
  Cu  Cu0  1  0.10351800  0.59952000  0.75220500  1
  Cu  Cu1  1  0.61916300  0.60762000  0.75373000  1
  Cu  Cu2  1  0.36898800  0.40916100  0.75404500  1
  Cu  Cu3  1  0.35960700  0.90437000  0.75076200  1
  O  O0  1  0.13184000  0.12227600  0.48710800  1
  O  O1  1  0.12344800  0.11950400  0.98826700  1
  O  O2  1  0.12052100  0.62355300  0.48487000  1
  O  O3  1  0.12434600  0.62641500  0.99390500  1
  O  O4  1  0.62834800  0.12336400  0.48555900  1
  O  O5  1  0.62887500  0.12210500  0.99186300  1
  O  O6  1  0.62177800  0.61851600  0.48617600  1
  O  O7  1  0.62783000  0.62790200  0.99127200  1
  O  O8  1  0.13654200  0.38212500  0.01779100  1
  O  O9  1  0.12899700  0.37967500  0.50339100  1
  O  O10  1  0.13550700  0.88247600  0.01585000  1
  O  O11  1  0.13161000  0.88520000  0.50552900  1
  O  O12  1  0.63964100  0.38516600  0.01619500  1
  O  O13  1  0.63202600  0.38325200  0.50965600  1
  O  O14  1  0.63047300  0.88562200  0.01363200  1
  O  O15  1  0.62890600  0.87343800  0.50612900  1
  O  O16  1  0.37532200  0.11475800  0.48383000  1
  O  O17  1  0.37799100  0.11342800  0.99473700  1
  O  O18  1  0.37139900  0.61651500  0.48428500  1
  O  O19  1  0.38100800  0.62303900  0.99432100  1
  O  O20  1  0.87866600  0.10902000  0.48762400  1
  O  O21  1  0.87256900  0.11552700  0.98720400  1
  O  O22  1  0.86679200  0.61068000  0.48402000  1
  O  O23  1  0.87402300  0.61401200  0.98670200  1
  O  O24  1  0.38993300  0.38458500  0.01840300  1
  O  O25  1  0.37709400  0.37437100  0.50281400  1
  O  O26  1  0.38445500  0.88102500  0.01536900  1
  O  O27  1  0.37970000  0.88153100  0.50812700  1
  O  O28  1  0.88556900  0.38145200  0.01260000  1
  O  O29  1  0.87467700  0.37356200  0.50489100  1
  O  O30  1  0.88211900  0.87964200  0.01357700  1
  O  O31  1  0.87929800  0.87305900  0.50381800  1
  O  O32  1  0.08575400  0.09961100  0.13727100  1
  O  O33  1  0.08652100  0.08862800  0.64393500  1
  O  O34  1  0.08566100  0.60221200  0.14215700  1
  O  O35  1  0.06534900  0.58437300  0.63221200  1
  O  O36  1  0.58700500  0.10192900  0.14268100  1
  O  O37  1  0.58266000  0.09291600  0.63889700  1
  O  O38  1  0.58540500  0.59968200  0.13911100  1
  O  O39  1  0.57887000  0.59401700  0.63522300  1
  O  O40  1  0.44385000  0.40107500  0.35775900  1
  O  O41  1  0.45302300  0.41338600  0.87028700  1
  O  O42  1  0.44355200  0.89573900  0.35557400  1
  O  O43  1  0.44615300  0.90678000  0.86640100  1
  O  O44  1  0.94325700  0.40988100  0.35783200  1
  O  O45  1  0.94710200  0.39765800  0.85967100  1
  O  O46  1  0.94521900  0.89901700  0.35613600  1
  O  O47  1  0.94472400  0.89788900  0.86385300  1
  O  O48  1  0.33520000  0.28882800  0.14235900  1
  O  O49  1  0.32912100  0.29304500  0.63588200  1
  O  O50  1  0.33567500  0.79003900  0.14018700  1
  O  O51  1  0.32779100  0.79713200  0.63307800  1
  O  O52  1  0.83957900  0.29047600  0.14253900  1
  O  O53  1  0.83381400  0.29802400  0.64360400  1
  O  O54  1  0.83343500  0.78574000  0.13891300  1
  O  O55  1  0.83005900  0.79107800  0.64396400  1
  O  O56  1  0.19119000  0.20814000  0.35206500  1
  O  O57  1  0.19325500  0.20730700  0.86231200  1
  O  O58  1  0.19269100  0.70928600  0.35833600  1
  O  O59  1  0.19448600  0.71073400  0.86936300  1
  O  O60  1  0.68778600  0.21050800  0.35715800  1
  O  O61  1  0.69121300  0.21023300  0.85677800  1
  O  O62  1  0.69257400  0.70619100  0.35426100  1
  O  O63  1  0.70088500  0.71811900  0.86764200  1
  O  O64  1  0.42341800  0.06775900  0.24917800  1
  O  O65  1  0.43333300  0.05955800  0.74188900  1
  O  O66  1  0.42471300  0.56826200  0.24911200  1
  O  O67  1  0.44591100  0.57238600  0.75962400  1
  O  O68  1  0.92629400  0.05677600  0.23915600  1
  O  O69  1  0.93302400  0.06415200  0.75916800  1
  O  O70  1  0.92440500  0.57055500  0.24808800  1
  O  O71  1  0.92252200  0.57240900  0.75216100  1
  O  O72  1  0.17491800  0.43244500  0.24929000  1
  O  O73  1  0.19451000  0.44949000  0.75086000  1
  O  O74  1  0.17619100  0.92937600  0.24799300  1
  O  O75  1  0.18318800  0.93528700  0.76132200  1
  O  O76  1  0.67441700  0.43079400  0.24827100  1
  O  O77  1  0.69402500  0.44530800  0.75999700  1
  O  O78  1  0.67617000  0.93133500  0.24978400  1
  O  O79  1  0.67716600  0.92986500  0.75098600  1
loop_
_geom_bond_atom_site_label_1
_geom_bond_atom_site_label_2
_geom_bond_distance
_geom_bond_site_symmetry_2
Ca0 O64 2.327420 1_555
Ca0 O48 2.366053 1_555
Ca0 O10 2.450507 1_545
Ca0 O26 2.496036 1_545
Ca0 O17 2.527686 1_554
Ca0 O32 2.538972 1_555
Ca0 O1 2.590633 1_554
Ca0 O36 2.906178 1_555
Ca1 O65 2.293219 1_555
Ca1 O49 2.437920 1_555
Ca1 O27 2.461866 1_545
Ca1 O11 2.497848 1_545
Ca1 O0 2.586506 1_555
Ca1 O16 2.633963 1_555
Ca1 O33 2.653720 1_555
Ca1 O37 2.801613 1_555
Ca2 O66 2.324888 1_555
Ca2 O50 2.372056 1_555
Ca2 O8 2.457289 1_555
Ca2 O24 2.484135 1_555
Ca2 O3 2.566065 1_554
Ca2 O34 2.586624 1_555
Ca2 O19 2.595555 1_554
Ca2 O38 2.887550 1_555
Ca3 O68 2.284237 1_555
Ca3 O52 2.357439 1_555
Ca3 O14 2.468271 1_545
Ca3 O5 2.490604 1_554
Ca3 O30 2.499935 1_545
Ca3 O21 2.572956 1_554
Ca3 O36 2.585577 1_555
Ca3 O32 2.901905 1_655
Ca4 O70 2.305368 1_555
Ca4 O54 2.343181 1_555
Ca4 O12 2.417752 1_555
Ca4 O28 2.497113 1_555
Ca4 O38 2.591134 1_555
Ca4 O7 2.592848 1_554
Ca4 O23 2.613802 1_554
Ca4 O34 2.863197 1_655
Ca5 O71 2.357055 1_555
Ca5 O55 2.382900 1_555
Ca5 O13 2.493471 1_555
Ca5 O29 2.562416 1_555
Ca5 O22 2.601846 1_555
Ca5 O39 2.619663 1_555
Ca5 O6 2.622665 1_555
Ca5 O35 2.674574 1_655
Ca6 O72 2.331874 1_555
Ca6 O56 2.418314 1_555
Ca6 O18 2.472571 1_555
Ca6 O2 2.486162 1_555
Ca6 O9 2.516933 1_555
Ca6 O25 2.558622 1_555
Ca6 O44 2.579337 1_455
Ca6 O40 2.889198 1_555
Ca7 O74 2.328534 1_555
Ca7 O58 2.369717 1_555
Ca7 O16 2.483867 1_565
Ca7 O0 2.502649 1_565
Ca7 O11 2.532614 1_555
Ca7 O27 2.548735 1_555
Ca7 O46 2.617066 1_455
Ca7 O42 2.839007 1_555
Ca8 O75 2.274974 1_555
Ca8 O59 2.354033 1_555
Ca8 O1 2.471642 1_565
Ca8 O17 2.522253 1_565
Ca8 O10 2.553988 1_556
Ca8 O26 2.585521 1_556
Ca8 O47 2.596774 1_455
Ca8 O43 2.858427 1_555
Ca9 O76 2.340756 1_555
Ca9 O60 2.379483 1_555
Ca9 O22 2.446496 1_555
Ca9 O6 2.458578 1_555
Ca9 O40 2.540472 1_555
Ca9 O13 2.567060 1_555
Ca9 O29 2.591663 1_555
Ca9 O44 2.906960 1_555
Ca10 O77 2.305504 1_555
Ca10 O61 2.396189 1_555
Ca10 O23 2.441529 1_555
Ca10 O7 2.517175 1_555
Ca10 O41 2.543484 1_555
Ca10 O12 2.594831 1_556
Ca10 O28 2.604351 1_556
Ca10 O45 2.898799 1_555
Ca11 O78 2.331261 1_555
Ca11 O62 2.334559 1_555
Ca11 O4 2.530139 1_565
Ca11 O31 2.557605 1_555
Ca11 O20 2.557795 1_565
Ca11 O15 2.561922 1_555
Ca11 O42 2.563897 1_555
Ca11 O46 2.909125 1_555
Ca12 O79 2.324684 1_555
Ca12 O63 2.342165 1_555
Ca12 O21 2.476721 1_565
Ca12 O5 2.481232 1_565
Ca12 O43 2.575913 1_555
Ca12 O14 2.618993 1_556
Ca12 O30 2.651400 1_556
Ca12 O47 2.864172 1_555
Ca13 O72 2.331957 1_555
Ca13 O32 2.362751 1_555
Ca13 O8 2.445226 1_555
Ca13 O28 2.481766 1_455
Ca13 O52 2.554351 1_455
Ca13 O21 2.626077 1_454
Ca13 O1 2.631623 1_554
Ca13 O48 2.874640 1_555
Ca14 O74 2.325542 1_555
Ca14 O34 2.348916 1_555
Ca14 O10 2.476544 1_555
Ca14 O30 2.495655 1_455
Ca14 O3 2.513743 1_554
Ca14 O54 2.600630 1_455
Ca14 O23 2.613499 1_454
Ca14 O50 2.873951 1_555
Ca15 O76 2.312628 1_555
Ca15 O36 2.373226 1_555
Ca15 O24 2.431064 1_555
Ca15 O12 2.514606 1_555
Ca15 O17 2.569250 1_554
Ca15 O48 2.599729 1_555
Ca15 O5 2.607844 1_554
Ca15 O52 2.916517 1_555
Ca16 O78 2.347610 1_555
Ca16 O38 2.374223 1_555
Ca16 O26 2.445843 1_555
Ca16 O19 2.483200 1_554
Ca16 O14 2.510881 1_555
Ca16 O50 2.550758 1_555
Ca16 O7 2.588672 1_554
Ca16 O54 2.891985 1_555
Ca17 O79 2.368027 1_555
Ca17 O39 2.412649 1_555
Ca17 O15 2.512063 1_555
Ca17 O27 2.536909 1_555
Ca17 O51 2.588985 1_555
Ca17 O18 2.624766 1_555
Ca17 O6 2.643465 1_555
Ca17 O55 2.830736 1_555
Ca18 O64 2.328875 1_555
Ca18 O40 2.364083 1_555
Ca18 O16 2.474666 1_555
Ca18 O25 2.510217 1_555
Ca18 O4 2.555403 1_555
Ca18 O56 2.583343 1_555
Ca18 O13 2.629851 1_555
Ca18 O60 2.826829 1_555
Ca19 O66 2.350776 1_555
Ca19 O42 2.377578 1_555
Ca19 O18 2.436026 1_555
Ca19 O6 2.514419 1_555
Ca19 O15 2.546215 1_555
Ca19 O58 2.576638 1_555
Ca19 O27 2.583370 1_555
Ca19 O62 2.920494 1_555
Ca20 O67 2.288517 1_555
Ca20 O43 2.412483 1_555
Ca20 O19 2.470008 1_555
Ca20 O7 2.519681 1_555
Ca20 O59 2.584961 1_555
Ca20 O26 2.606681 1_556
Ca20 O14 2.639472 1_556
Ca20 O63 2.920051 1_555
Ca21 O69 2.309353 1_555
Ca21 O45 2.371248 1_555
Ca21 O21 2.465758 1_555
Ca21 O1 2.474944 1_655
Ca21 O28 2.568927 1_556
Ca21 O8 2.622173 1_656
Ca21 O61 2.647476 1_555
Ca21 O57 2.830381 1_655
Ca22 O70 2.320142 1_555
Ca22 O46 2.418382 1_555
Ca22 O2 2.460329 1_655
Ca22 O22 2.513032 1_555
Ca22 O31 2.529864 1_555
Ca22 O62 2.579268 1_555
Ca22 O11 2.644204 1_655
Ca22 O58 2.870660 1_655
Ca23 O71 2.323208 1_555
Ca23 O47 2.347929 1_555
Ca23 O23 2.465049 1_555
Ca23 O3 2.482707 1_655
Ca23 O63 2.582590 1_555
Ca23 O30 2.615161 1_556
Ca23 O10 2.623890 1_656
Ca23 O59 2.777639 1_655
Co0 O21 1.927568 1_454
Co0 O10 1.930193 1_545
Co0 O1 1.933816 1_554
Co0 O30 1.988496 1_445
Co0 O32 2.114065 1_555
Co0 O47 2.132297 1_444
Co1 O20 1.846460 1_465
Co1 O11 1.846810 1_555
Co1 O31 1.963108 1_455
Co1 O0 2.040331 1_565
Co1 O46 2.135052 1_455
Co1 O33 2.299108 1_565
Co2 O8 1.924443 1_555
Co2 O23 1.925992 1_454
Co2 O28 1.931981 1_455
Co2 O3 1.954074 1_554
Co2 O34 2.162663 1_555
Co2 O45 2.216985 1_454
Co3 O22 1.900763 1_455
Co3 O9 1.922819 1_555
Co3 O2 1.983411 1_555
Co3 O29 2.006674 1_455
Co3 O35 2.058139 1_555
Co3 O44 2.159596 1_455
Co4 O14 1.861295 1_556
Co4 O17 1.863498 1_565
Co4 O26 1.963333 1_556
Co4 O5 1.977388 1_565
Co4 O43 2.051335 1_555
Co4 O36 2.223994 1_566
Co5 O16 1.915199 1_565
Co5 O15 1.928882 1_555
Co5 O27 1.951445 1_555
Co5 O4 2.016954 1_565
Co5 O42 2.188590 1_555
Co5 O37 2.189405 1_565
Co6 O12 1.924745 1_555
Co6 O19 1.928064 1_554
Co6 O24 1.944830 1_555
Co6 O7 1.997707 1_554
Co6 O41 2.037744 1_554
Co6 O38 2.117522 1_555
Co7 O13 1.913189 1_555
Co7 O6 1.921381 1_555
Co7 O18 1.923280 1_555
Co7 O25 1.985569 1_555
Co7 O39 2.094362 1_555
Co7 O40 2.193352 1_555
Co8 O1 1.939811 1_554
Co8 O8 1.945163 1_555
Co8 O24 1.952814 1_555
Co8 O17 2.016673 1_554
Co8 O48 2.160686 1_555
Co8 O57 2.171150 1_554
Co9 O0 1.854437 1_555
Co9 O25 1.871627 1_555
Co9 O16 1.974297 1_555
Co9 O9 1.992483 1_555
Co9 O49 2.094713 1_555
Co9 O56 2.289981 1_555
Co10 O26 1.905805 1_555
Co10 O3 1.910576 1_554
Co10 O10 1.949487 1_555
Co10 O19 1.966032 1_554
Co10 O59 2.049429 1_554
Co10 O50 2.139297 1_555
Co11 O2 1.909946 1_555
Co11 O27 1.917587 1_555
Co11 O18 1.960895 1_555
Co11 O11 1.989617 1_555
Co11 O51 2.028381 1_555
Co11 O58 2.209215 1_555
Co12 O28 1.913546 1_555
Co12 O5 1.918601 1_554
Co12 O12 1.952989 1_555
Co12 O21 1.958908 1_554
Co12 O52 2.174334 1_555
Co12 O61 2.251216 1_554
Co13 O4 1.841506 1_555
Co13 O29 1.850291 1_555
Co13 O13 1.971673 1_555
Co13 O20 2.072059 1_555
Co13 O60 2.123131 1_555
Co13 O53 2.300383 1_555
Co14 O7 1.861523 1_555
Co14 O30 1.884746 1_556
Co14 O23 1.964616 1_555
Co14 O14 2.038594 1_556
Co14 O63 2.050638 1_555
Co14 O54 2.166623 1_556
Co15 O6 1.898702 1_555
Co15 O31 1.921454 1_555
Co15 O15 1.941712 1_555
Co15 O22 1.943656 1_555
Co15 O62 2.178851 1_555
Co15 O55 2.301981 1_555
Co16 O56 1.809147 1_555
Co16 O32 1.818941 1_555
Co16 O74 1.939531 1_545
Co16 O68 1.960302 1_455
Co17 O57 1.807226 1_555
Co17 O33 1.832431 1_555
Co17 O75 1.916063 1_545
Co17 O69 1.949637 1_455
Co18 O34 1.811522 1_555
Co18 O58 1.817673 1_555
Co18 O72 1.945632 1_555
Co18 O70 1.969220 1_455
Co19 O36 1.799901 1_555
Co19 O60 1.835233 1_555
Co19 O78 1.948114 1_545
Co19 O64 1.962116 1_555
Co20 O61 1.813569 1_555
Co20 O37 1.815310 1_555
Co20 O65 1.902652 1_555
Co20 O79 1.944715 1_545
Co21 O62 1.807366 1_555
Co21 O38 1.823281 1_555
Co21 O76 1.941390 1_555
Co21 O66 1.965834 1_555
Co22 O48 1.814885 1_555
Co22 O40 1.817619 1_555
Co22 O66 1.944054 1_555
Co22 O72 1.969153 1_555
Co23 O42 1.809543 1_555
Co23 O50 1.817660 1_555
Co23 O64 1.941413 1_565
Co23 O74 1.963291 1_555
Co24 O44 1.807148 1_555
Co24 O52 1.813802 1_555
Co24 O70 1.940712 1_555
Co24 O76 1.968872 1_555
Co25 O45 1.812016 1_555
Co25 O53 1.829534 1_555
Co25 O77 1.861875 1_555
Co25 O71 1.915699 1_555
Co26 O54 1.810915 1_555
Co26 O46 1.831240 1_555
Co26 O68 1.934185 1_565
Co26 O78 1.976168 1_555
Co27 O55 1.813684 1_555
Co27 O47 1.824618 1_555
Co27 O69 1.942661 1_565
Co27 O79 1.962526 1_555
Cu0 O35 1.913359 1_555
Cu0 O59 1.915666 1_555
Cu0 O73 1.930576 1_555
Cu0 O71 1.961801 1_455
Cu1 O63 1.859157 1_555
Cu1 O39 1.890468 1_555
Cu1 O67 1.936175 1_555
Cu1 O77 1.996340 1_555
Cu2 O41 1.894545 1_555
Cu2 O73 1.912132 1_555
Cu2 O49 1.925309 1_555
Cu2 O67 1.951529 1_555
Cu3 O43 1.896012 1_555
Cu3 O51 1.899719 1_555
Cu3 O65 1.963754 1_565
Cu3 O75 1.975077 1_555
O0 Sr7 2.591287 1_455
O0 Sr3 2.710637 1_555
O2 Sr4 2.672416 1_555
O2 Sr0 2.749419 1_555
O3 Sr2 2.558578 1_555
O4 Sr1 2.708344 1_555
O4 Sr5 2.753951 1_555
O5 Sr6 2.546357 1_555
O8 Sr2 2.731467 1_554
O9 Sr0 2.564754 1_555
O9 Sr3 2.587494 1_555
O9 Sr7 2.612144 1_455
O11 Sr4 2.635245 1_555
O12 Sr6 2.737661 1_554
O13 Sr5 2.544292 1_555
O15 Sr1 2.578264 1_565
O16 Sr5 2.742990 1_555
O17 Sr6 2.600794 1_555
O18 Sr0 2.752956 1_555
O19 Sr2 2.541113 1_555
O20 Sr7 2.596673 1_555
O20 Sr1 2.675187 1_555
O20 Sr3 2.714966 1_655
O22 Sr4 2.740173 1_655
O24 Sr2 2.719852 1_554
O24 Sr6 2.730885 1_554
O25 Sr5 2.598768 1_555
O25 Sr0 2.621081 1_555
O29 Sr3 2.602360 1_655
O29 Sr7 2.642636 1_555
O31 Sr4 2.559585 1_655
O31 Sr1 2.584889 1_565
O33 Sr3 2.568540 1_555
O33 Sr1 2.850614 1_455
O33 Sr4 3.097971 1_545
O35 Sr4 2.500932 1_555
O35 Sr0 2.705003 1_555
O35 Sr3 3.066003 1_555
O37 Sr5 2.508732 1_555
O37 Sr1 2.610165 1_555
O39 Sr0 2.828748 1_555
O39 Sr5 3.126023 1_555
O41 Sr6 2.491642 1_555
O41 Sr2 2.839580 1_555
O44 Sr7 2.486905 1_555
O45 Sr2 2.614199 1_655
O49 Sr5 2.619972 1_555
O49 Sr3 2.769240 1_555
O49 Sr0 3.131694 1_555
O51 Sr0 2.524307 1_555
O51 Sr4 2.812563 1_555
O53 Sr1 2.528099 1_555
O53 Sr3 2.659650 1_655
O53 Sr5 2.822421 1_555
O55 Sr4 2.658288 1_655
O55 Sr1 3.191565 1_565
O56 Sr7 2.846452 1_455
O57 Sr2 2.486270 1_555
O57 Sr6 2.632557 1_555
O59 Sr2 3.126291 1_555
O60 Sr7 2.667825 1_555
O61 Sr6 2.830691 1_555
O65 Sr6 2.444395 1_555
O67 Sr0 2.437637 1_555
O68 Sr7 2.414542 1_555
O69 Sr1 2.432733 1_555
O73 Sr3 2.390945 1_555
O73 Sr2 2.408409 1_555
O75 Sr4 2.452979 1_555
O77 Sr5 2.439589 1_555
