# generated using pymatgen
data_Li9Mn2Co5O16
_symmetry_space_group_name_H-M   'P 1'
_cell_length_a   5.92816245
_cell_length_b   5.92816245
_cell_length_c   9.71321167
_cell_angle_alpha   81.48756945
_cell_angle_beta   81.48756945
_cell_angle_gamma   58.74788393
_symmetry_Int_Tables_number   1
_chemical_formula_structural   Li9Mn2Co5O16
_chemical_formula_sum   'Li9 Mn2 Co5 O16'
_cell_volume   287.57897230
_cell_formula_units_Z   1
loop_
 _symmetry_equiv_pos_site_id
 _symmetry_equiv_pos_as_xyz
  1  'x, y, z'
loop_
 _atom_site_type_symbol
 _atom_site_label
 _atom_site_symmetry_multiplicity
 _atom_site_fract_x
 _atom_site_fract_y
 _atom_site_fract_z
 _atom_site_occupancy
  Li  Li0  1  0.49943500  0.00043800  0.00017800  1
  Li  Li1  1  0.00043800  0.49943500  0.00017800  1
  Li  Li2  1  0.12578100  0.12578100  0.24654700  1
  Li  Li3  1  0.62580700  0.62580700  0.23759600  1
  Li  Li4  1  0.74916100  0.25049500  0.50063900  1
  Li  Li5  1  0.25049500  0.74916100  0.50063900  1
  Li  Li6  1  0.37716900  0.37716900  0.75735300  1
  Li  Li7  1  0.87187800  0.87187800  0.75509400  1
  Li  Li8  1  0.49965400  0.49965400  0.00063900  1
  Mn  Mn0  1  0.00096900  0.00096900  0.99994900  1
  Mn  Mn1  1  0.25132900  0.25132900  0.50136600  1
  Co  Co0  1  0.62600700  0.13392900  0.24382600  1
  Co  Co1  1  0.13392900  0.62600700  0.24382600  1
  Co  Co2  1  0.74622000  0.74622000  0.49839500  1
  Co  Co3  1  0.86212400  0.37757600  0.75707400  1
  Co  Co4  1  0.37757600  0.86212400  0.75707400  1
  O  O0  1  0.71395100  0.18005600  0.87667600  1
  O  O1  1  0.18005600  0.71395100  0.87667600  1
  O  O2  1  0.31650100  0.31650100  0.14126500  1
  O  O3  1  0.82538700  0.82538700  0.11726500  1
  O  O4  1  0.95356900  0.43655400  0.38583200  1
  O  O5  1  0.43655400  0.95356900  0.38583200  1
  O  O6  1  0.56788800  0.56788800  0.62745100  1
  O  O7  1  0.08094600  0.08094600  0.62611800  1
  O  O8  1  0.28999600  0.81809700  0.12140300  1
  O  O9  1  0.81809700  0.28999600  0.12140300  1
  O  O10  1  0.92535500  0.92535500  0.36655400  1
  O  O11  1  0.42489600  0.42489600  0.38033900  1
  O  O12  1  0.54668300  0.06160500  0.61590100  1
  O  O13  1  0.06160500  0.54668300  0.61590100  1
  O  O14  1  0.17389500  0.17389500  0.88338200  1
  O  O15  1  0.68664900  0.68664900  0.85762900  1
loop_
_geom_bond_atom_site_label_1
_geom_bond_atom_site_label_2
_geom_bond_distance
_geom_bond_site_symmetry_2
Li0 O14 2.076641 1_554
Li0 O3 2.079582 1_545
Li0 O8 2.163194 1_545
Li0 O0 2.182952 1_554
Li0 O15 2.185090 1_544
Li0 O2 2.185536 1_555
Li1 O14 2.076641 1_554
Li1 O3 2.079582 1_455
Li1 O9 2.163194 1_455
Li1 O1 2.182952 1_554
Li1 O15 2.185090 1_454
Li1 O2 2.185536 1_555
Li2 O9 2.053256 1_455
Li2 O8 2.053256 1_545
Li2 O2 2.060135 1_555
Li2 O5 2.155028 1_545
Li2 O4 2.155028 1_455
Li2 O10 2.197034 1_445
Li3 O8 2.113260 1_555
Li3 O9 2.113260 1_555
Li3 O3 2.190762 1_555
Li3 O4 2.279324 1_555
Li3 O5 2.279324 1_555
Li3 O11 2.292080 1_555
Li4 O11 2.091574 1_555
Li4 O6 2.099650 1_555
Li4 O4 2.133342 1_555
Li4 O12 2.138630 1_555
Li4 O7 2.158721 1_655
Li4 O10 2.180340 1_545
Li5 O11 2.091574 1_555
Li5 O6 2.099650 1_555
Li5 O5 2.133342 1_555
Li5 O13 2.138630 1_555
Li5 O7 2.158721 1_565
Li5 O10 2.180340 1_455
Li6 O0 2.134984 1_555
Li6 O1 2.134984 1_555
Li6 O6 2.151818 1_555
Li6 O13 2.190602 1_555
Li6 O12 2.190602 1_555
Li6 O14 2.244124 1_555
Li7 O15 2.001746 1_555
Li7 O1 2.036050 1_655
Li7 O0 2.036050 1_565
Li7 O12 2.209304 1_565
Li7 O13 2.209304 1_655
Li7 O7 2.305674 1_665
Li8 O8 2.067327 1_555
Li8 O9 2.067327 1_555
Li8 O0 2.092461 1_554
Li8 O1 2.092461 1_554
Li8 O2 2.137431 1_555
Li8 O15 2.179587 1_554
Mn0 O14 1.946007 1_555
Mn0 O8 1.948114 1_546
Mn0 O9 1.948114 1_456
Mn0 O0 1.951503 1_455
Mn0 O1 1.951503 1_545
Mn0 O3 1.971609 1_446
Mn1 O13 1.931638 1_555
Mn1 O12 1.931638 1_555
Mn1 O5 1.947146 1_545
Mn1 O4 1.947146 1_455
Mn1 O7 1.960270 1_555
Mn1 O11 1.970200 1_555
Co0 O2 1.921384 1_555
Co0 O9 1.983258 1_555
Co0 O10 2.003055 1_545
Co0 O11 2.056743 1_555
Co0 O3 2.060606 1_545
Co0 O5 2.158216 1_545
Co1 O2 1.921384 1_555
Co1 O8 1.983258 1_555
Co1 O10 2.003055 1_455
Co1 O11 2.056743 1_555
Co1 O3 2.060606 1_455
Co1 O4 2.158216 1_455
Co2 O5 1.982746 1_555
Co2 O4 1.982746 1_555
Co2 O13 2.033426 1_655
Co2 O12 2.033426 1_565
Co2 O6 2.044908 1_555
Co2 O10 2.064050 1_555
Co3 O15 1.909060 1_555
Co3 O0 1.963327 1_555
Co3 O6 2.021953 1_555
Co3 O7 2.049334 1_655
Co3 O14 2.072733 1_655
Co3 O13 2.151000 1_655
Co4 O15 1.909060 1_555
Co4 O1 1.963327 1_555
Co4 O6 2.021953 1_555
Co4 O7 2.049334 1_565
Co4 O14 2.072733 1_565
Co4 O12 2.151000 1_565
