# generated using pymatgen
data_ZnOs
_symmetry_space_group_name_H-M   'P 1'
_cell_length_a   5.51592373
_cell_length_b   5.51592373
_cell_length_c   8.64427400
_cell_angle_alpha   90.00000000
_cell_angle_beta   90.00000000
_cell_angle_gamma   119.99999679
_symmetry_Int_Tables_number   1
_chemical_formula_structural   ZnOs
_chemical_formula_sum   'Zn8 Os8'
_cell_volume   227.76955609
_cell_formula_units_Z   8
loop_
 _symmetry_equiv_pos_site_id
 _symmetry_equiv_pos_as_xyz
  1  'x, y, z'
loop_
 _atom_site_type_symbol
 _atom_site_label
 _atom_site_symmetry_multiplicity
 _atom_site_fract_x
 _atom_site_fract_y
 _atom_site_fract_z
 _atom_site_occupancy
  Zn  Zn0_0  1  0.00000000  0.00000000  0.00000000  1
  Zn  Zn0_1  1  0.00000000  0.00000000  0.50000000  1
  Zn  Zn0_2  1  0.00000000  0.50000000  0.00000000  1
  Zn  Zn0_3  1  0.00000000  0.50000000  0.50000000  1
  Zn  Zn0_4  1  0.50000000  0.00000000  0.00000000  1
  Zn  Zn0_5  1  0.50000000  0.00000000  0.50000000  1
  Zn  Zn0_6  1  0.50000000  0.50000000  0.00000000  1
  Zn  Zn0_7  1  0.50000000  0.50000000  0.50000000  1
  Os  Os0_0  1  0.16666650  0.33333350  0.25000000  1
  Os  Os0_1  1  0.16666650  0.33333350  0.75000000  1
  Os  Os0_2  1  0.16666650  0.83333350  0.25000000  1
  Os  Os0_3  1  0.16666650  0.83333350  0.75000000  1
  Os  Os0_4  1  0.66666650  0.33333350  0.25000000  1
  Os  Os0_5  1  0.66666650  0.33333350  0.75000000  1
  Os  Os0_6  1  0.66666650  0.83333350  0.25000000  1
  Os  Os0_7  1  0.66666650  0.83333350  0.75000000  1
loop_
_geom_bond_atom_site_label_1
_geom_bond_atom_site_label_2
_geom_bond_distance
_geom_bond_site_symmetry_2
Zn0_0 Zn0_4 2.757962 1_455
Zn0_0 Zn0_4 2.757962 1_555
Zn0_0 Zn0_2 2.757962 1_555
Zn0_0 Zn0_2 2.757962 1_545
Zn0_0 Zn0_6 2.757962 1_445
Zn0_0 Zn0_6 2.757962 1_555
Zn0_1 Zn0_3 2.757962 1_555
Zn0_1 Zn0_5 2.757962 1_555
Zn0_1 Zn0_5 2.757962 1_455
Zn0_1 Zn0_3 2.757962 1_545
Zn0_1 Zn0_7 2.757962 1_445
Zn0_1 Zn0_7 2.757962 1_555
Zn0_2 Zn0_6 2.757962 1_455
Zn0_2 Zn0_6 2.757962 1_555
Zn0_2 Zn0_4 2.757962 1_565
Zn0_2 Zn0_4 2.757962 1_455
Zn0_3 Zn0_7 2.757962 1_555
Zn0_3 Zn0_7 2.757962 1_455
Zn0_3 Zn0_5 2.757962 1_565
Zn0_3 Zn0_5 2.757962 1_455
Zn0_4 Zn0_6 2.757962 1_555
Zn0_4 Zn0_6 2.757962 1_545
Zn0_5 Zn0_7 2.757962 1_555
Zn0_5 Zn0_7 2.757962 1_545
Os0_0 Zn0_2 2.684337 1_555
Os0_0 Zn0_3 2.684337 1_555
Os0_0 Zn0_0 2.684338 1_555
Os0_0 Zn0_1 2.684338 1_555
Os0_0 Zn0_7 2.684338 1_555
Os0_0 Zn0_6 2.684338 1_555
Os0_0 Os0_2 2.757962 1_555
Os0_0 Os0_4 2.757962 1_455
Os0_0 Os0_2 2.757962 1_545
Os0_0 Os0_4 2.757962 1_555
Os0_0 Os0_6 2.757962 1_445
Os0_0 Os0_6 2.757962 1_555
Os0_1 Zn0_2 2.684337 1_556
Os0_1 Zn0_3 2.684337 1_555
Os0_1 Zn0_1 2.684338 1_555
Os0_1 Zn0_6 2.684338 1_556
Os0_1 Zn0_7 2.684338 1_555
Os0_1 Zn0_0 2.684338 1_556
Os0_1 Os0_5 2.757962 1_455
Os0_1 Os0_3 2.757962 1_555
Os0_1 Os0_5 2.757962 1_555
Os0_1 Os0_3 2.757962 1_545
Os0_1 Os0_7 2.757962 1_445
Os0_1 Os0_7 2.757962 1_555
Os0_2 Zn0_1 2.684337 1_565
Os0_2 Zn0_0 2.684337 1_565
Os0_2 Zn0_3 2.684338 1_555
Os0_2 Zn0_5 2.684338 1_565
Os0_2 Zn0_4 2.684338 1_565
Os0_2 Zn0_2 2.684338 1_555
Os0_2 Os0_6 2.757962 1_455
Os0_2 Os0_6 2.757962 1_555
Os0_2 Os0_4 2.757962 1_455
Os0_2 Os0_4 2.757962 1_565
Os0_3 Zn0_0 2.684337 1_566
Os0_3 Zn0_1 2.684337 1_565
Os0_3 Zn0_3 2.684338 1_555
Os0_3 Zn0_5 2.684338 1_565
Os0_3 Zn0_4 2.684338 1_566
Os0_3 Zn0_2 2.684338 1_556
Os0_3 Os0_7 2.757962 1_455
Os0_3 Os0_7 2.757962 1_555
Os0_3 Os0_5 2.757962 1_455
Os0_3 Os0_5 2.757962 1_565
Os0_4 Zn0_6 2.684337 1_555
Os0_4 Zn0_7 2.684337 1_555
Os0_4 Zn0_3 2.684338 1_655
Os0_4 Zn0_2 2.684338 1_655
Os0_4 Zn0_4 2.684338 1_555
Os0_4 Zn0_5 2.684338 1_555
Os0_4 Os0_6 2.757962 1_555
Os0_4 Os0_6 2.757962 1_545
Os0_5 Zn0_6 2.684337 1_556
Os0_5 Zn0_7 2.684337 1_555
Os0_5 Zn0_4 2.684338 1_556
Os0_5 Zn0_5 2.684338 1_555
Os0_5 Zn0_3 2.684338 1_655
Os0_5 Zn0_2 2.684338 1_656
Os0_5 Os0_7 2.757962 1_555
Os0_5 Os0_7 2.757962 1_545
Os0_6 Zn0_5 2.684337 1_565
Os0_6 Zn0_4 2.684337 1_565
Os0_6 Zn0_1 2.684338 1_665
Os0_6 Zn0_0 2.684338 1_665
Os0_6 Zn0_6 2.684338 1_555
Os0_6 Zn0_7 2.684338 1_555
Os0_7 Zn0_4 2.684337 1_566
Os0_7 Zn0_5 2.684337 1_565
Os0_7 Zn0_0 2.684338 1_666
Os0_7 Zn0_1 2.684338 1_665
Os0_7 Zn0_6 2.684338 1_556
Os0_7 Zn0_7 2.684338 1_555
