# generated using pymatgen
data_Tl2SiSe3
_symmetry_space_group_name_H-M   'P 1'
_cell_length_a   6.97528012
_cell_length_b   6.98935888
_cell_length_c   8.79717409
_cell_angle_alpha   111.85036478
_cell_angle_beta   90.29043081
_cell_angle_gamma   113.26571355
_symmetry_Int_Tables_number   1
_chemical_formula_structural   Tl2SiSe3
_chemical_formula_sum   'Tl4 Si2 Se6'
_cell_volume   359.84082406
_cell_formula_units_Z   2
loop_
 _symmetry_equiv_pos_site_id
 _symmetry_equiv_pos_as_xyz
  1  'x, y, z'
loop_
 _atom_site_type_symbol
 _atom_site_label
 _atom_site_symmetry_multiplicity
 _atom_site_fract_x
 _atom_site_fract_y
 _atom_site_fract_z
 _atom_site_occupancy
  Tl  Tl0  1  0.67631855  0.26385255  0.89652779  1
  Tl  Tl1  1  0.32368145  0.73614745  0.10347221  1
  Tl  Tl2  1  0.94459997  0.12017324  0.33045648  1
  Tl  Tl3  1  0.05540003  0.87982676  0.66954352  1
  Si  Si0  1  0.45354559  0.56853735  0.67961967  1
  Si  Si1  1  0.54645441  0.43146265  0.32038033  1
  Se  Se0  1  0.29208860  0.24353087  0.09471986  1
  Se  Se1  1  0.70791140  0.75646913  0.90528014  1
  Se  Se2  1  0.12231092  0.48660431  0.73038359  1
  Se  Se3  1  0.87768908  0.51339569  0.26961641  1
  Se  Se4  1  0.52901288  0.76164698  0.50587809  1
  Se  Se5  1  0.47098712  0.23835302  0.49412191  1
loop_
_geom_bond_atom_site_label_1
_geom_bond_atom_site_label_2
_geom_bond_distance
_geom_bond_site_symmetry_2
Se0 Si1 2.235283 1_555
Se0 Tl0 3.189679 1_554
Se0 Tl2 3.263437 1_455
Se0 Tl1 3.333518 1_555
Se1 Si0 2.235283 1_555
Se1 Tl1 3.189679 1_556
Se1 Tl3 3.263437 1_655
Se1 Tl0 3.333518 1_555
Se2 Si0 2.240793 1_555
Se2 Tl1 3.089353 1_556
Se2 Tl3 3.188042 1_555
Se2 Tl2 3.348792 1_455
Se3 Si1 2.240793 1_555
Se3 Tl0 3.089353 1_554
Se3 Tl2 3.188042 1_555
Se3 Tl3 3.348792 1_655
Se4 Si0 2.327531 1_555
Se4 Si1 2.328979 1_555
Se5 Si1 2.327531 1_555
Se5 Si0 2.328979 1_555
