# generated using pymatgen
data_Sm2Sc2O5
_symmetry_space_group_name_H-M   'P 1'
_cell_length_a   8.89837052
_cell_length_b   8.89837052
_cell_length_c   8.89837052
_cell_angle_alpha   142.86429160
_cell_angle_beta   142.79186255
_cell_angle_gamma   53.58341285
_symmetry_Int_Tables_number   1
_chemical_formula_structural   Sm2Sc2O5
_chemical_formula_sum   'Sm4 Sc4 O10'
_cell_volume   255.57047314
_cell_formula_units_Z   2
loop_
 _symmetry_equiv_pos_site_id
 _symmetry_equiv_pos_as_xyz
  1  'x, y, z'
loop_
 _atom_site_type_symbol
 _atom_site_label
 _atom_site_symmetry_multiplicity
 _atom_site_fract_x
 _atom_site_fract_y
 _atom_site_fract_z
 _atom_site_occupancy
  Sm  Sm0  1  0.67920000  0.11480900  0.52278400  1
  Sm  Sm1  1  0.40797600  0.88519100  0.56439100  1
  Sm  Sm2  1  0.17920000  0.65641500  0.56439100  1
  Sm  Sm3  1  0.90797600  0.34358500  0.52278400  1
  Sc  Sc0  1  0.01863100  0.00000000  0.01863100  1
  Sc  Sc1  1  0.51863100  0.50000000  0.01863100  1
  Sc  Sc2  1  0.26449800  0.28963100  0.05413000  1
  Sc  Sc3  1  0.76449800  0.71036900  0.97486700  1
  O  O0  1  0.73053200  0.22045500  0.03281400  1
  O  O1  1  0.81235900  0.77954500  0.51007700  1
  O  O2  1  0.23053200  0.19771800  0.51007700  1
  O  O3  1  0.31235900  0.80228200  0.03281400  1
  O  O4  1  0.09647400  0.24978500  0.09254900  1
  O  O5  1  0.84276400  0.75021500  0.84668900  1
  O  O6  1  0.59647400  0.50392500  0.84668900  1
  O  O7  1  0.34276400  0.49607500  0.09254900  1
  O  O8  1  0.53064500  0.01926100  0.04990700  1
  O  O9  1  0.03064500  0.98073900  0.51138400  1
loop_
_geom_bond_atom_site_label_1
_geom_bond_atom_site_label_2
_geom_bond_distance
_geom_bond_site_symmetry_2
O0 Sc1 2.076429 1_555
O0 Sc0 2.141477 1_655
O0 Sm1 2.407365 1_544
O0 Sm3 2.484839 1_555
O1 Sc1 2.076429 1_555
O1 Sc0 2.141477 1_666
O1 Sm0 2.407370 1_565
O1 Sm2 2.484847 1_655
O2 Sc0 2.076429 1_555
O2 Sc1 2.141477 1_556
O2 Sm3 2.407360 1_455
O2 Sm1 2.484847 1_545
O3 Sc0 2.076429 1_565
O3 Sc1 2.141477 1_555
O3 Sm2 2.407365 1_554
O3 Sm0 2.484849 1_565
O4 Sc2 2.028522 1_555
O4 Sc0 2.150347 1_555
O4 Sm2 2.297729 1_555
O4 Sm0 2.556103 1_454
O5 Sc3 2.028530 1_555
O5 Sc0 2.150347 1_666
O5 Sm3 2.297731 1_555
O5 Sm1 2.556099 1_555
O6 Sc3 2.028530 1_555
O6 Sc1 2.150347 1_556
O6 Sm0 2.297732 1_555
O6 Sm2 2.556099 1_555
O7 Sc2 2.028537 1_555
O7 Sc1 2.150347 1_555
O7 Sm1 2.297729 1_555
O7 Sm3 2.556102 1_454
O8 Sc2 2.151965 1_555
O8 Sc3 2.197058 1_544
O8 Sm0 2.635574 1_555
O8 Sm3 2.635596 1_555
O8 Sm2 2.663867 1_544
O8 Sm1 2.663878 1_544
O9 Sc3 2.151965 1_454
O9 Sc2 2.197061 1_566
O9 Sm1 2.635591 1_555
O9 Sm2 2.635591 1_555
O9 Sm0 2.663864 1_465
O9 Sm3 2.663875 1_465
