# generated using pymatgen
data_CdAg2GeS4
_symmetry_space_group_name_H-M   'P 1'
_cell_length_a   6.61772694
_cell_length_b   7.99495475
_cell_length_c   13.79879972
_cell_angle_alpha   90.00000000
_cell_angle_beta   90.00000000
_cell_angle_gamma   90.00000000
_symmetry_Int_Tables_number   1
_chemical_formula_structural   CdAg2GeS4
_chemical_formula_sum   'Cd4 Ag8 Ge4 S16'
_cell_volume   730.07279365
_cell_formula_units_Z   4
loop_
 _symmetry_equiv_pos_site_id
 _symmetry_equiv_pos_as_xyz
  1  'x, y, z'
loop_
 _atom_site_type_symbol
 _atom_site_label
 _atom_site_symmetry_multiplicity
 _atom_site_fract_x
 _atom_site_fract_y
 _atom_site_fract_z
 _atom_site_occupancy
  Cd  Cd0  1  0.79557601  0.01327191  0.84140350  1
  Cd  Cd1  1  0.29557601  0.98672809  0.15859650  1
  Cd  Cd2  1  0.29557601  0.51327191  0.65859650  1
  Cd  Cd3  1  0.79557601  0.48672809  0.34140350  1
  Ag  Ag0  1  0.28495565  0.26036463  0.92399057  1
  Ag  Ag1  1  0.78495565  0.73963537  0.07600943  1
  Ag  Ag2  1  0.78495565  0.76036463  0.57600943  1
  Ag  Ag3  1  0.28495565  0.23963537  0.42399057  1
  Ag  Ag4  1  0.80399088  0.50051365  0.84021227  1
  Ag  Ag5  1  0.30399088  0.49948635  0.15978773  1
  Ag  Ag6  1  0.30399088  0.00051365  0.65978773  1
  Ag  Ag7  1  0.80399088  0.99948635  0.34021227  1
  Ge  Ge0  1  0.78824912  0.24113940  0.08990613  1
  Ge  Ge1  1  0.28824912  0.75886060  0.91009387  1
  Ge  Ge2  1  0.28824912  0.74113940  0.41009387  1
  Ge  Ge3  1  0.78824912  0.25886060  0.58990613  1
  S  S0  1  0.66835847  0.25893621  0.93929318  1
  S  S1  1  0.16835847  0.74106379  0.06070682  1
  S  S2  1  0.16835847  0.75893621  0.56070682  1
  S  S3  1  0.66835847  0.24106379  0.43929318  1
  S  S4  1  0.67954141  0.01050831  0.16471749  1
  S  S5  1  0.17954141  0.98949169  0.83528251  1
  S  S6  1  0.17954141  0.51050831  0.33528251  1
  S  S7  1  0.67954141  0.48949169  0.66471749  1
  S  S8  1  0.12466343  0.24546879  0.09131439  1
  S  S9  1  0.62466343  0.75453121  0.90868561  1
  S  S10  1  0.62466343  0.74546879  0.40868561  1
  S  S11  1  0.12466343  0.25453121  0.59131439  1
  S  S12  1  0.68055604  0.47326248  0.16472278  1
  S  S13  1  0.18055604  0.52673752  0.83527722  1
  S  S14  1  0.18055604  0.97326248  0.33527722  1
  S  S15  1  0.68055604  0.02673752  0.66472278  1
loop_
_geom_bond_atom_site_label_1
_geom_bond_atom_site_label_2
_geom_bond_distance
_geom_bond_site_symmetry_2
Cd0 S0 2.528028 1_555
Cd0 S9 2.533855 1_545
Cd0 S5 2.549480 1_645
Cd0 S15 2.556311 1_555
Cd1 S1 2.528028 1_555
Cd1 S8 2.533855 1_565
Cd1 S4 2.549480 1_565
Cd1 S14 2.556311 1_555
Cd2 S2 2.528028 1_555
Cd2 S11 2.533855 1_555
Cd2 S7 2.549480 1_555
Cd2 S13 2.556311 1_555
Cd3 S3 2.528028 1_555
Cd3 S10 2.533855 1_555
Cd3 S6 2.549480 1_655
Cd3 S12 2.556311 1_555
Ag0 S8 2.543676 1_556
Ag0 S0 2.546052 1_555
Ag0 S13 2.551706 1_555
Ag0 S5 2.583579 1_545
Ag1 S9 2.543676 1_554
Ag1 S1 2.546052 1_655
Ag1 S12 2.551706 1_555
Ag1 S4 2.583579 1_565
Ag2 S10 2.543676 1_555
Ag2 S2 2.546052 1_655
Ag2 S15 2.551706 1_565
Ag2 S7 2.583579 1_555
Ag3 S11 2.543676 1_555
Ag3 S3 2.546052 1_555
Ag3 S14 2.551706 1_545
Ag3 S6 2.583579 1_555
Ag4 S13 2.501736 1_655
Ag4 S0 2.530847 1_555
Ag4 S9 2.534853 1_555
Ag4 S7 2.559349 1_555
Ag5 S12 2.501736 1_555
Ag5 S1 2.530847 1_555
Ag5 S8 2.534853 1_555
Ag5 S6 2.559349 1_555
Ag6 S15 2.501736 1_555
Ag6 S2 2.530847 1_545
Ag6 S11 2.534853 1_555
Ag6 S5 2.559349 1_545
Ag7 S14 2.501736 1_655
Ag7 S3 2.530847 1_565
Ag7 S10 2.534853 1_555
Ag7 S4 2.559349 1_565
Ge0 S8 2.226652 1_655
Ge0 S0 2.229119 1_554
Ge0 S4 2.232287 1_555
Ge0 S12 2.240038 1_555
Ge1 S9 2.226652 1_555
Ge1 S1 2.229119 1_556
Ge1 S5 2.232287 1_555
Ge1 S13 2.240038 1_555
Ge2 S10 2.226652 1_555
Ge2 S2 2.229119 1_555
Ge2 S6 2.232287 1_555
Ge2 S14 2.240038 1_555
Ge3 S11 2.226652 1_655
Ge3 S3 2.229119 1_555
Ge3 S7 2.232287 1_555
Ge3 S15 2.240038 1_555
