# generated using pymatgen
data_MgGa2
_symmetry_space_group_name_H-M   'P 1'
_cell_length_a   11.02794160
_cell_length_b   11.02794160
_cell_length_c   13.58090773
_cell_angle_alpha   72.09492899
_cell_angle_beta   72.09492899
_cell_angle_gamma   34.61424764
_symmetry_Int_Tables_number   1
_chemical_formula_structural   MgGa2
_chemical_formula_sum   'Mg16 Ga32'
_cell_volume   888.24017100
_cell_formula_units_Z   16
loop_
 _symmetry_equiv_pos_site_id
 _symmetry_equiv_pos_as_xyz
  1  'x, y, z'
loop_
 _atom_site_type_symbol
 _atom_site_label
 _atom_site_symmetry_multiplicity
 _atom_site_fract_x
 _atom_site_fract_y
 _atom_site_fract_z
 _atom_site_occupancy
  Mg  Mg0_0  1  0.25951409  0.25951409  0.10793148  1
  Mg  Mg0_1  1  0.25951409  0.25951409  0.60793148  1
  Mg  Mg0_2  1  0.25951410  0.75951410  0.10793148  1
  Mg  Mg0_3  1  0.25951410  0.75951410  0.60793148  1
  Mg  Mg0_4  1  0.75951410  0.25951410  0.10793148  1
  Mg  Mg0_5  1  0.75951410  0.25951410  0.60793148  1
  Mg  Mg0_6  1  0.75951409  0.75951409  0.10793148  1
  Mg  Mg0_7  1  0.75951409  0.75951409  0.60793148  1
  Mg  Mg1_0  1  0.24048590  0.24048590  0.39206852  1
  Mg  Mg1_1  1  0.24048590  0.24048590  0.89206852  1
  Mg  Mg1_2  1  0.24048591  0.74048590  0.39206852  1
  Mg  Mg1_3  1  0.24048590  0.74048590  0.89206852  1
  Mg  Mg1_4  1  0.74048590  0.24048591  0.39206852  1
  Mg  Mg1_5  1  0.74048590  0.24048590  0.89206852  1
  Mg  Mg1_6  1  0.74048590  0.74048590  0.39206852  1
  Mg  Mg1_7  1  0.74048590  0.74048590  0.89206852  1
  Ga  Ga0_0  1  0.40382303  0.40382303  0.06665370  1
  Ga  Ga0_1  1  0.40382303  0.40382303  0.56665370  1
  Ga  Ga0_2  1  0.40382303  0.90382303  0.06665370  1
  Ga  Ga0_3  1  0.40382303  0.90382303  0.56665370  1
  Ga  Ga0_4  1  0.90382303  0.40382303  0.06665370  1
  Ga  Ga0_5  1  0.90382303  0.40382303  0.56665370  1
  Ga  Ga0_6  1  0.90382303  0.90382303  0.06665370  1
  Ga  Ga0_7  1  0.90382303  0.90382303  0.56665370  1
  Ga  Ga1_0  1  0.07572356  0.07572356  0.22752897  1
  Ga  Ga1_1  1  0.07572356  0.07572356  0.72752898  1
  Ga  Ga1_2  1  0.07572356  0.57572356  0.22752898  1
  Ga  Ga1_3  1  0.07572356  0.57572356  0.72752898  1
  Ga  Ga1_4  1  0.57572356  0.07572356  0.22752897  1
  Ga  Ga1_5  1  0.57572356  0.07572356  0.72752898  1
  Ga  Ga1_6  1  0.57572356  0.57572356  0.22752898  1
  Ga  Ga1_7  1  0.57572356  0.57572356  0.72752898  1
  Ga  Ga2_0  1  0.42427644  0.42427644  0.27247103  1
  Ga  Ga2_1  1  0.42427644  0.42427644  0.77247103  1
  Ga  Ga2_2  1  0.42427644  0.92427644  0.27247103  1
  Ga  Ga2_3  1  0.42427644  0.92427644  0.77247103  1
  Ga  Ga2_4  1  0.92427644  0.42427644  0.27247103  1
  Ga  Ga2_5  1  0.92427644  0.42427644  0.77247103  1
  Ga  Ga2_6  1  0.92427644  0.92427644  0.27247103  1
  Ga  Ga2_7  1  0.92427644  0.92427644  0.77247103  1
  Ga  Ga3_0  1  0.09617696  0.09617696  0.43334630  1
  Ga  Ga3_1  1  0.09617696  0.09617696  0.93334630  1
  Ga  Ga3_2  1  0.09617696  0.59617696  0.43334630  1
  Ga  Ga3_3  1  0.09617697  0.59617696  0.93334630  1
  Ga  Ga3_4  1  0.59617696  0.09617696  0.43334630  1
  Ga  Ga3_5  1  0.59617696  0.09617697  0.93334630  1
  Ga  Ga3_6  1  0.59617696  0.59617696  0.43334630  1
  Ga  Ga3_7  1  0.59617696  0.59617696  0.93334630  1
loop_
_geom_bond_atom_site_label_1
_geom_bond_atom_site_label_2
_geom_bond_distance
_geom_bond_site_symmetry_2
Mg0_0 Mg1_1 3.084061 1_554
Mg0_0 Mg0_6 3.280742 1_455
Mg0_0 Mg0_6 3.280742 1_545
Mg0_1 Mg1_0 3.084061 1_555
Mg0_1 Mg0_7 3.280742 1_545
Mg0_1 Mg0_7 3.280742 1_455
Mg0_2 Mg1_3 3.084061 1_554
Mg0_2 Mg0_4 3.280742 1_555
Mg0_2 Mg0_4 3.280742 1_465
Mg0_3 Mg1_2 3.084061 1_555
Mg0_3 Mg0_5 3.280742 1_555
Mg0_3 Mg0_5 3.280742 1_465
Mg0_4 Mg1_5 3.084061 1_554
Mg0_5 Mg1_4 3.084061 1_555
Mg0_6 Mg1_7 3.084061 1_554
Mg0_7 Mg1_6 3.084061 1_555
Mg1_0 Mg1_6 3.280742 1_455
Mg1_0 Mg1_6 3.280742 1_545
Mg1_1 Mg1_7 3.280742 1_545
Mg1_1 Mg1_7 3.280742 1_455
Mg1_2 Mg1_4 3.280742 1_555
Mg1_2 Mg1_4 3.280742 1_465
Mg1_3 Mg1_5 3.280742 1_555
Mg1_3 Mg1_5 3.280742 1_465
Ga0_0 Ga1_4 2.802640 1_555
Ga0_0 Ga1_2 2.802640 1_555
Ga0_0 Mg0_0 2.907088 1_555
Ga0_0 Mg0_4 2.960025 1_555
Ga0_0 Mg0_2 2.960025 1_555
Ga0_0 Ga2_0 2.962077 1_555
Ga0_0 Mg1_5 2.975922 1_554
Ga0_0 Mg1_3 2.975922 1_554
Ga0_0 Ga3_5 2.976128 1_554
Ga0_0 Ga3_3 2.976128 1_554
Ga0_1 Ga1_3 2.802640 1_555
Ga0_1 Ga1_5 2.802640 1_555
Ga0_1 Mg0_1 2.907088 1_555
Ga0_1 Mg0_3 2.960025 1_555
Ga0_1 Mg0_5 2.960025 1_555
Ga0_1 Ga2_1 2.962077 1_555
Ga0_1 Mg1_4 2.975922 1_555
Ga0_1 Mg1_2 2.975922 1_555
Ga0_1 Ga3_2 2.976128 1_555
Ga0_1 Ga3_4 2.976128 1_555
Ga0_2 Ga1_0 2.802640 1_565
Ga0_2 Ga1_6 2.802640 1_555
Ga0_2 Mg0_2 2.907088 1_555
Ga0_2 Mg0_6 2.960025 1_555
Ga0_2 Mg0_0 2.960025 1_565
Ga0_2 Ga2_2 2.962077 1_555
Ga0_2 Mg1_7 2.975922 1_554
Ga0_2 Mg1_1 2.975922 1_564
Ga0_2 Ga3_7 2.976128 1_554
Ga0_2 Ga3_1 2.976128 1_564
Ga0_3 Ga1_1 2.802640 1_565
Ga0_3 Ga1_7 2.802640 1_555
Ga0_3 Mg0_3 2.907088 1_555
Ga0_3 Mg0_7 2.960025 1_555
Ga0_3 Mg0_1 2.960025 1_565
Ga0_3 Ga2_3 2.962077 1_555
Ga0_3 Mg1_0 2.975922 1_565
Ga0_3 Mg1_6 2.975922 1_555
Ga0_3 Ga3_0 2.976128 1_565
Ga0_3 Ga3_6 2.976128 1_555
Ga0_4 Ga1_6 2.802640 1_555
Ga0_4 Ga1_0 2.802640 1_655
Ga0_4 Mg0_4 2.907088 1_555
Ga0_4 Mg0_6 2.960025 1_555
Ga0_4 Mg0_0 2.960025 1_655
Ga0_4 Ga2_4 2.962077 1_555
Ga0_4 Mg1_7 2.975922 1_554
Ga0_4 Mg1_1 2.975922 1_654
Ga0_4 Ga3_7 2.976128 1_554
Ga0_4 Ga3_1 2.976128 1_654
Ga0_5 Ga1_1 2.802640 1_655
Ga0_5 Ga1_7 2.802640 1_555
Ga0_5 Mg0_5 2.907088 1_555
Ga0_5 Mg0_7 2.960025 1_555
Ga0_5 Mg0_1 2.960025 1_655
Ga0_5 Ga2_5 2.962077 1_555
Ga0_5 Mg1_0 2.975922 1_655
Ga0_5 Mg1_6 2.975922 1_555
Ga0_5 Ga3_0 2.976128 1_655
Ga0_5 Ga3_6 2.976128 1_555
Ga0_6 Ga1_4 2.802640 1_565
Ga0_6 Ga1_2 2.802640 1_655
Ga0_6 Mg0_6 2.907088 1_555
Ga0_6 Mg0_2 2.960025 1_655
Ga0_6 Mg0_4 2.960025 1_565
Ga0_6 Ga2_6 2.962077 1_555
Ga0_6 Mg1_3 2.975922 1_654
Ga0_6 Mg1_5 2.975922 1_564
Ga0_6 Ga3_5 2.976128 1_564
Ga0_6 Ga3_3 2.976128 1_654
Ga0_7 Ga1_3 2.802640 1_655
Ga0_7 Ga1_5 2.802640 1_565
Ga0_7 Mg0_7 2.907088 1_555
Ga0_7 Mg0_5 2.960025 1_565
Ga0_7 Mg0_3 2.960025 1_655
Ga0_7 Ga2_7 2.962077 1_555
Ga0_7 Mg1_2 2.975922 1_655
Ga0_7 Mg1_4 2.975922 1_565
Ga0_7 Ga3_2 2.976128 1_655
Ga0_7 Ga3_4 2.976128 1_565
Ga1_0 Ga2_2 2.861084 1_545
Ga1_0 Ga2_4 2.861084 1_455
Ga1_0 Mg1_4 2.884905 1_455
Ga1_0 Mg1_2 2.884905 1_545
Ga1_0 Mg0_4 2.954858 1_455
Ga1_0 Mg0_2 2.954858 1_545
Ga1_0 Ga3_0 2.962077 1_555
Ga1_0 Ga2_6 3.047796 1_445
Ga1_1 Ga2_5 2.861084 1_455
Ga1_1 Ga2_3 2.861084 1_545
Ga1_1 Mg1_5 2.884905 1_455
Ga1_1 Mg1_3 2.884905 1_545
Ga1_1 Mg0_5 2.954858 1_455
Ga1_1 Mg0_3 2.954858 1_545
Ga1_1 Ga3_1 2.962077 1_555
Ga1_1 Ga2_7 3.047796 1_445
Ga1_2 Ga2_6 2.861084 1_455
Ga1_2 Ga2_0 2.861084 1_555
Ga1_2 Mg1_0 2.884905 1_555
Ga1_2 Mg1_6 2.884905 1_455
Ga1_2 Mg0_0 2.954858 1_555
Ga1_2 Mg0_6 2.954858 1_455
Ga1_2 Ga3_2 2.962077 1_555
Ga1_2 Ga2_4 3.047796 1_455
Ga1_3 Ga2_7 2.861084 1_455
Ga1_3 Ga2_1 2.861084 1_555
Ga1_3 Mg1_1 2.884905 1_555
Ga1_3 Mg1_7 2.884905 1_455
Ga1_3 Mg0_1 2.954858 1_555
Ga1_3 Mg0_7 2.954858 1_455
Ga1_3 Ga3_3 2.962077 1_555
Ga1_3 Ga2_5 3.047796 1_455
Ga1_4 Ga2_0 2.861084 1_555
Ga1_4 Ga2_6 2.861084 1_545
Ga1_4 Mg1_0 2.884905 1_555
Ga1_4 Mg1_6 2.884905 1_545
Ga1_4 Mg0_0 2.954858 1_555
Ga1_4 Mg0_6 2.954858 1_545
Ga1_4 Ga3_4 2.962077 1_555
Ga1_4 Ga2_2 3.047796 1_545
Ga1_5 Ga2_7 2.861084 1_545
Ga1_5 Ga2_1 2.861084 1_555
Ga1_5 Mg1_1 2.884905 1_555
Ga1_5 Mg1_7 2.884905 1_545
Ga1_5 Mg0_1 2.954858 1_555
Ga1_5 Mg0_7 2.954858 1_545
Ga1_5 Ga3_5 2.962077 1_555
Ga1_5 Ga2_3 3.047796 1_545
Ga1_6 Ga2_2 2.861084 1_555
Ga1_6 Ga2_4 2.861084 1_555
Ga1_6 Mg1_2 2.884905 1_555
Ga1_6 Mg1_4 2.884905 1_555
Ga1_6 Mg0_4 2.954858 1_555
Ga1_6 Mg0_2 2.954858 1_555
Ga1_6 Ga3_6 2.962077 1_555
Ga1_6 Ga2_0 3.047796 1_555
Ga1_7 Ga2_3 2.861084 1_555
Ga1_7 Ga2_5 2.861084 1_555
Ga1_7 Mg1_5 2.884905 1_555
Ga1_7 Mg1_3 2.884905 1_555
Ga1_7 Mg0_5 2.954858 1_555
Ga1_7 Mg0_3 2.954858 1_555
Ga1_7 Ga3_7 2.962077 1_555
Ga1_7 Ga2_1 3.047796 1_555
Ga2_0 Ga3_2 2.802640 1_555
Ga2_0 Ga3_4 2.802640 1_555
Ga2_0 Mg0_4 2.884905 1_555
Ga2_0 Mg0_2 2.884905 1_555
Ga2_0 Mg1_4 2.954858 1_555
Ga2_0 Mg1_2 2.954858 1_555
Ga2_1 Ga3_3 2.802640 1_555
Ga2_1 Ga3_5 2.802640 1_555
Ga2_1 Mg0_3 2.884905 1_555
Ga2_1 Mg0_5 2.884905 1_555
Ga2_1 Mg1_3 2.954858 1_555
Ga2_1 Mg1_5 2.954858 1_555
Ga2_2 Ga3_0 2.802640 1_565
Ga2_2 Ga3_6 2.802640 1_555
Ga2_2 Mg0_6 2.884905 1_555
Ga2_2 Mg0_0 2.884905 1_565
Ga2_2 Mg1_0 2.954858 1_565
Ga2_2 Mg1_6 2.954858 1_555
Ga2_3 Ga3_7 2.802640 1_555
Ga2_3 Ga3_1 2.802640 1_565
Ga2_3 Mg0_7 2.884905 1_555
Ga2_3 Mg0_1 2.884905 1_565
Ga2_3 Mg1_7 2.954858 1_555
Ga2_3 Mg1_1 2.954858 1_565
Ga2_4 Ga3_0 2.802640 1_655
Ga2_4 Ga3_6 2.802640 1_555
Ga2_4 Mg0_6 2.884905 1_555
Ga2_4 Mg0_0 2.884905 1_655
Ga2_4 Mg1_0 2.954858 1_655
Ga2_4 Mg1_6 2.954858 1_555
Ga2_5 Ga3_7 2.802640 1_555
Ga2_5 Ga3_1 2.802640 1_655
Ga2_5 Mg0_7 2.884905 1_555
Ga2_5 Mg0_1 2.884905 1_655
Ga2_5 Mg1_7 2.954858 1_555
Ga2_5 Mg1_1 2.954858 1_655
Ga2_6 Ga3_2 2.802640 1_655
Ga2_6 Ga3_4 2.802640 1_565
Ga2_6 Mg0_2 2.884905 1_655
Ga2_6 Mg0_4 2.884905 1_565
Ga2_6 Mg1_2 2.954858 1_655
Ga2_6 Mg1_4 2.954858 1_565
Ga2_7 Ga3_3 2.802640 1_655
Ga2_7 Ga3_5 2.802640 1_565
Ga2_7 Mg0_5 2.884905 1_565
Ga2_7 Mg0_3 2.884905 1_655
Ga2_7 Mg1_5 2.954858 1_565
Ga2_7 Mg1_3 2.954858 1_655
Ga3_0 Mg1_0 2.907088 1_555
Ga3_0 Mg1_2 2.960025 1_545
Ga3_0 Mg1_4 2.960025 1_455
Ga3_0 Mg0_3 2.975922 1_545
Ga3_0 Mg0_5 2.975922 1_455
Ga3_1 Mg1_1 2.907088 1_555
Ga3_1 Mg1_3 2.960025 1_545
Ga3_1 Mg1_5 2.960025 1_455
Ga3_1 Mg0_2 2.975922 1_546
Ga3_1 Mg0_4 2.975922 1_456
Ga3_2 Mg1_2 2.907088 1_555
Ga3_2 Mg1_6 2.960025 1_455
Ga3_2 Mg1_0 2.960025 1_555
Ga3_2 Mg0_1 2.975922 1_555
Ga3_2 Mg0_7 2.975922 1_455
Ga3_3 Mg1_3 2.907088 1_555
Ga3_3 Mg1_1 2.960025 1_555
Ga3_3 Mg1_7 2.960025 1_455
Ga3_3 Mg0_0 2.975922 1_556
Ga3_3 Mg0_6 2.975922 1_456
Ga3_4 Mg1_4 2.907088 1_555
Ga3_4 Mg1_6 2.960025 1_545
Ga3_4 Mg1_0 2.960025 1_555
Ga3_4 Mg0_1 2.975922 1_555
Ga3_4 Mg0_7 2.975922 1_545
Ga3_5 Mg1_5 2.907088 1_555
Ga3_5 Mg1_1 2.960025 1_555
Ga3_5 Mg1_7 2.960025 1_545
Ga3_5 Mg0_0 2.975922 1_556
Ga3_5 Mg0_6 2.975922 1_546
Ga3_6 Mg1_6 2.907088 1_555
Ga3_6 Mg1_2 2.960025 1_555
Ga3_6 Mg1_4 2.960025 1_555
Ga3_6 Mg0_5 2.975922 1_555
Ga3_6 Mg0_3 2.975922 1_555
Ga3_7 Mg1_7 2.907088 1_555
Ga3_7 Mg1_5 2.960025 1_555
Ga3_7 Mg1_3 2.960025 1_555
Ga3_7 Mg0_2 2.975922 1_556
Ga3_7 Mg0_4 2.975922 1_556
