# generated using pymatgen
data_YbZn3
_symmetry_space_group_name_H-M   'P 1'
_cell_length_a   6.21712149
_cell_length_b   6.21712149
_cell_length_c   4.64722200
_cell_angle_alpha   90.00000000
_cell_angle_beta   90.00000000
_cell_angle_gamma   119.99999456
_symmetry_Int_Tables_number   1
_chemical_formula_structural   YbZn3
_chemical_formula_sum   'Yb2 Zn6'
_cell_volume   155.56173668
_cell_formula_units_Z   2
loop_
 _symmetry_equiv_pos_site_id
 _symmetry_equiv_pos_as_xyz
  1  'x, y, z'
loop_
 _atom_site_type_symbol
 _atom_site_label
 _atom_site_symmetry_multiplicity
 _atom_site_fract_x
 _atom_site_fract_y
 _atom_site_fract_z
 _atom_site_occupancy
  Yb  Yb0  1  0.33333300  0.66666700  0.75000000  1
  Yb  Yb1  1  0.66666700  0.33333300  0.25000000  1
  Zn  Zn0  1  0.15036100  0.30072200  0.25000000  1
  Zn  Zn1  1  0.69927800  0.84963900  0.25000000  1
  Zn  Zn2  1  0.15036100  0.84963900  0.25000000  1
  Zn  Zn3  1  0.84963900  0.69927800  0.75000000  1
  Zn  Zn4  1  0.30072200  0.15036100  0.75000000  1
  Zn  Zn5  1  0.84963900  0.15036100  0.75000000  1
loop_
_geom_bond_atom_site_label_1
_geom_bond_atom_site_label_2
_geom_bond_distance
_geom_bond_site_symmetry_2
Yb0 Zn2 3.046521 1_556
Yb0 Zn2 3.046521 1_555
Yb0 Zn0 3.046525 1_555
Yb0 Zn0 3.046525 1_556
Yb0 Zn1 3.046525 1_555
Yb0 Zn1 3.046525 1_556
Yb0 Zn3 3.113513 1_455
Yb0 Zn4 3.113513 1_565
Yb0 Zn5 3.113516 1_565
Yb0 Zn5 3.113516 1_455
Yb0 Zn3 3.113519 1_555
Yb0 Zn4 3.113519 1_555
Yb1 Zn5 3.046521 1_555
Yb1 Zn5 3.046521 1_554
Yb1 Zn3 3.046525 1_554
Yb1 Zn3 3.046525 1_555
Yb1 Zn4 3.046525 1_554
Yb1 Zn4 3.046525 1_555
Yb1 Zn1 3.113513 1_545
Yb1 Zn0 3.113513 1_655
Yb1 Zn2 3.113516 1_545
Yb1 Zn2 3.113516 1_655
Yb1 Zn0 3.113519 1_555
Yb1 Zn1 3.113519 1_555
Zn0 Zn2 2.804438 1_545
Zn0 Zn1 2.804438 1_445
Zn0 Zn4 2.832100 1_555
Zn0 Zn4 2.832100 1_554
Zn0 Zn5 2.832100 1_455
Zn0 Zn5 2.832100 1_454
Zn1 Zn2 2.804438 1_655
Zn1 Zn3 2.832100 1_554
Zn1 Zn3 2.832100 1_555
Zn1 Zn5 2.832100 1_565
Zn1 Zn5 2.832100 1_564
Zn2 Zn3 2.832100 1_454
Zn2 Zn4 2.832100 1_564
Zn2 Zn3 2.832100 1_455
Zn2 Zn4 2.832100 1_565
Zn3 Zn5 2.804438 1_565
Zn3 Zn4 2.804438 1_665
Zn4 Zn5 2.804438 1_455
