# generated using pymatgen
data_HoUTe3
_symmetry_space_group_name_H-M   'P 1'
_cell_length_a   4.27599400
_cell_length_b   11.85641800
_cell_length_c   12.06082000
_cell_angle_alpha   90.00000000
_cell_angle_beta   90.00000000
_cell_angle_gamma   90.00000000
_symmetry_Int_Tables_number   1
_chemical_formula_structural   HoUTe3
_chemical_formula_sum   'Ho4 U4 Te12'
_cell_volume   611.45911742
_cell_formula_units_Z   4
loop_
 _symmetry_equiv_pos_site_id
 _symmetry_equiv_pos_as_xyz
  1  'x, y, z'
loop_
 _atom_site_type_symbol
 _atom_site_label
 _atom_site_symmetry_multiplicity
 _atom_site_fract_x
 _atom_site_fract_y
 _atom_site_fract_z
 _atom_site_occupancy
  Ho  Ho0  1  0.75000000  0.49662800  0.69383100  1
  Ho  Ho1  1  0.75000000  0.00337200  0.19383100  1
  Ho  Ho2  1  0.25000000  0.50337200  0.30616900  1
  Ho  Ho3  1  0.25000000  0.99662800  0.80616900  1
  U  U0  1  0.25000000  0.18859600  0.49258400  1
  U  U1  1  0.25000000  0.31140400  0.99258400  1
  U  U2  1  0.75000000  0.81140400  0.50741600  1
  U  U3  1  0.75000000  0.68859600  0.00741600  1
  Te  Te0  1  0.25000000  0.30090700  0.72983600  1
  Te  Te1  1  0.25000000  0.19909300  0.22983600  1
  Te  Te2  1  0.75000000  0.69909300  0.27016400  1
  Te  Te3  1  0.75000000  0.80090700  0.77016400  1
  Te  Te4  1  0.75000000  0.05346000  0.62345400  1
  Te  Te5  1  0.75000000  0.44654000  0.12345400  1
  Te  Te6  1  0.25000000  0.94654000  0.37654600  1
  Te  Te7  1  0.25000000  0.55346000  0.87654600  1
  Te  Te8  1  0.25000000  0.62220400  0.54519800  1
  Te  Te9  1  0.25000000  0.87779600  0.04519800  1
  Te  Te10  1  0.75000000  0.37779600  0.45480200  1
  Te  Te11  1  0.75000000  0.12220400  0.95480200  1
loop_
_geom_bond_atom_site_label_1
_geom_bond_atom_site_label_2
_geom_bond_distance
_geom_bond_site_symmetry_2
Ho0 Te7 3.143459 1_555
Ho0 Te7 3.143459 1_655
Ho0 Te8 3.162490 1_655
Ho0 Te8 3.162490 1_555
Ho0 Te0 3.185052 1_655
Ho0 Te0 3.185052 1_555
Ho0 Te10 3.208752 1_555
Ho0 Te3 3.723275 1_555
Ho1 Te6 3.143459 1_545
Ho1 Te6 3.143459 1_645
Ho1 Te9 3.162490 1_645
Ho1 Te9 3.162490 1_545
Ho1 Te1 3.185052 1_655
Ho1 Te1 3.185052 1_555
Ho1 Te11 3.208752 1_554
Ho1 Te2 3.723275 1_545
Ho2 Te5 3.143459 1_455
Ho2 Te5 3.143459 1_555
Ho2 Te10 3.162490 1_455
Ho2 Te10 3.162490 1_555
Ho2 Te2 3.185052 1_455
Ho2 Te2 3.185052 1_555
Ho2 Te8 3.208752 1_555
Ho2 Te1 3.723275 1_555
Ho3 Te4 3.143459 1_565
Ho3 Te4 3.143459 1_465
Ho3 Te11 3.162490 1_565
Ho3 Te11 3.162490 1_465
Ho3 Te3 3.185052 1_455
Ho3 Te3 3.185052 1_555
Ho3 Te9 3.208752 1_556
Ho3 Te0 3.723275 1_565
Te0 U0 3.156120 1_555
Te0 U1 3.171399 1_555
Te1 U1 3.156120 1_554
Te1 U0 3.171399 1_555
Te2 U2 3.156120 1_555
Te2 U3 3.171399 1_555
Te3 U3 3.156120 1_556
Te3 U2 3.171399 1_555
Te4 U0 3.103146 1_555
Te4 U0 3.103146 1_655
Te4 U2 3.192971 1_545
Te5 U1 3.103146 1_654
Te5 U1 3.103146 1_554
Te5 U3 3.192971 1_555
Te6 U2 3.103146 1_455
Te6 U2 3.103146 1_555
Te6 U0 3.192971 1_565
Te7 U3 3.103146 1_456
Te7 U3 3.103146 1_556
Te7 U1 3.192971 1_555
Te8 U2 3.132216 1_555
Te8 U2 3.132216 1_455
Te9 U3 3.132216 1_455
Te9 U3 3.132216 1_555
Te10 U0 3.132216 1_555
Te10 U0 3.132216 1_655
Te11 U1 3.132216 1_555
Te11 U1 3.132216 1_655
