# generated using pymatgen
data_Yb9B5S21
_symmetry_space_group_name_H-M   'P 1'
_cell_length_a   11.30915500
_cell_length_b   11.35078433
_cell_length_c   11.46004318
_cell_angle_alpha   91.85083526
_cell_angle_beta   92.05181969
_cell_angle_gamma   90.66186396
_symmetry_Int_Tables_number   1
_chemical_formula_structural   Yb9B5S21
_chemical_formula_sum   'Yb18 B10 S42'
_cell_volume   1469.27119472
_cell_formula_units_Z   2
loop_
 _symmetry_equiv_pos_site_id
 _symmetry_equiv_pos_as_xyz
  1  'x, y, z'
loop_
 _atom_site_type_symbol
 _atom_site_label
 _atom_site_symmetry_multiplicity
 _atom_site_fract_x
 _atom_site_fract_y
 _atom_site_fract_z
 _atom_site_occupancy
  Yb  Yb0  1  0.43687000  0.27854300  0.06326100  1
  Yb  Yb1  1  0.81855600  0.57571500  0.42606600  1
  Yb  Yb2  1  0.13342900  0.92789600  0.72651900  1
  Yb  Yb3  1  0.57184100  0.41939000  0.81338900  1
  Yb  Yb4  1  0.92285100  0.73665500  0.13863300  1
  Yb  Yb5  1  0.28258900  0.06384100  0.43518700  1
  Yb  Yb6  1  0.74772700  0.13402900  0.92767800  1
  Yb  Yb7  1  0.05916900  0.43409800  0.27742000  1
  Yb  Yb8  1  0.42482700  0.82555100  0.58222100  1
  Yb  Yb9  1  0.90176400  0.10028400  0.29026300  1
  Yb  Yb10  1  0.22684500  0.42873600  0.62602500  1
  Yb  Yb11  1  0.55113100  0.78697200  0.90740800  1
  Yb  Yb12  1  0.78502400  0.90908400  0.55213300  1
  Yb  Yb13  1  0.09990300  0.28783300  0.90770600  1
  Yb  Yb14  1  0.42715200  0.62297500  0.22513600  1
  Yb  Yb15  1  0.62623700  0.23805700  0.43321500  1
  Yb  Yb16  1  0.90652700  0.54797100  0.78349200  1
  Yb  Yb17  1  0.29582700  0.90244700  0.11417900  1
  B  B0  1  0.56689400  0.91355100  0.27226900  1
  B  B1  1  0.91541100  0.26536100  0.56649900  1
  B  B2  1  0.26300600  0.57157800  0.91444500  1
  B  B3  1  0.08169900  0.74241400  0.40679300  1
  B  B4  1  0.41427800  0.07972500  0.74812400  1
  B  B5  1  0.74677800  0.41057200  0.07553100  1
  B  B6  1  0.80494500  0.80385500  0.80501700  1
  B  B7  1  0.12807200  0.12254200  0.12759000  1
  B  B8  1  0.30234400  0.30467900  0.30382600  1
  B  B9  1  0.61711100  0.62152100  0.62286400  1
  S  S0  1  0.92319900  0.80131000  0.37557000  1
  S  S1  1  0.27108900  0.15096700  0.68543000  1
  S  S2  1  0.58804400  0.47612600  0.05767100  1
  S  S3  1  0.15024000  0.69782300  0.25840400  1
  S  S4  1  0.48070000  0.06515500  0.59264400  1
  S  S5  1  0.80756000  0.37503900  0.92291500  1
  S  S6  1  0.07144300  0.58772500  0.47563500  1
  S  S7  1  0.37202000  0.92671500  0.80513000  1
  S  S8  1  0.69290600  0.26588300  0.14292000  1
  S  S9  1  0.63290000  0.79233000  0.17113800  1
  S  S10  1  0.95217500  0.09338300  0.55603400  1
  S  S11  1  0.31521200  0.42080100  0.87080700  1
  S  S12  1  0.42011900  0.86695600  0.32804700  1
  S  S13  1  0.79565000  0.16405200  0.63109800  1
  S  S14  1  0.09238500  0.57433200  0.95231100  1
  S  S15  1  0.55487000  0.94742800  0.10100800  1
  S  S16  1  0.87071200  0.32157000  0.41991400  1
  S  S17  1  0.16155400  0.64232700  0.79630400  1
  S  S18  1  0.92263800  0.77713600  0.70164500  1
  S  S19  1  0.24733600  0.12175000  0.02091900  1
  S  S20  1  0.58029200  0.46590500  0.34232200  1
  S  S21  1  0.12720800  0.01391500  0.24556900  1
  S  S22  1  0.45666900  0.35153300  0.57403500  1
  S  S23  1  0.78123200  0.70021800  0.92175500  1
  S  S24  1  0.46575000  0.49425100  0.47215700  1
  S  S25  1  0.69993600  0.92277600  0.78027400  1
  S  S26  1  0.01514000  0.23838400  0.12569800  1
  S  S27  1  0.85001300  0.96566700  0.07896000  1
  S  S28  1  0.19139700  0.28922700  0.41530800  1
  S  S29  1  0.49213800  0.63474600  0.72114300  1
  S  S30  1  0.63360800  0.72523100  0.50559400  1
  S  S31  1  0.97776800  0.07069300  0.84808000  1
  S  S32  1  0.28571200  0.41843900  0.19418100  1
  S  S33  1  0.41941100  0.19565200  0.29017700  1
  S  S34  1  0.71879600  0.49789900  0.63397500  1
  S  S35  1  0.00834500  0.97680100  0.99687600  1
  S  S36  1  0.35476100  0.68097700  0.00548100  1
  S  S37  1  0.67498600  0.01096400  0.35703200  1
  S  S38  1  0.00875300  0.34915300  0.67960200  1
  S  S39  1  0.18210800  0.84763100  0.50826000  1
  S  S40  1  0.51595200  0.17806900  0.85113100  1
  S  S41  1  0.84466900  0.51338900  0.18015500  1
loop_
_geom_bond_atom_site_label_1
_geom_bond_atom_site_label_2
_geom_bond_distance
_geom_bond_site_symmetry_2
B0 S37 1.864107 1_565
B0 S12 1.876467 1_555
B0 S9 1.943281 1_555
B0 S15 2.012270 1_555
B1 S38 1.870340 1_655
B1 S16 1.870947 1_555
B1 S13 1.948231 1_555
B1 S10 2.001270 1_555
B2 S36 1.875152 1_556
B2 S11 1.875337 1_555
B2 S17 1.942837 1_555
B2 S14 1.993248 1_555
B3 S0 1.945563 1_455
B3 S3 1.948520 1_555
B3 S6 1.951967 1_555
B3 S39 1.962740 1_555
B4 S7 1.935993 1_545
B4 S40 1.936430 1_555
B4 S1 1.943420 1_555
B4 S4 1.961156 1_555
B5 S5 1.934182 1_554
B5 S8 1.938392 1_555
B5 S41 1.951899 1_555
B5 S2 1.957678 1_555
B6 S25 1.830421 1_555
B6 S23 1.834549 1_555
B6 S18 1.834660 1_555
B7 S26 1.843701 1_555
B7 S19 1.852378 1_555
B7 S21 1.859238 1_555
B7 S35 2.541039 1_544
B8 S33 1.830011 1_555
B8 S28 1.833436 1_555
B8 S32 1.837151 1_555
B9 S30 1.828052 1_555
B9 S34 1.829200 1_555
B9 S29 1.842970 1_555
S0 Yb4 2.789615 1_555
S0 Yb12 2.853642 1_555
S0 Yb1 2.892611 1_555
S1 Yb5 3.010924 1_555
S1 Yb2 3.015797 1_545
S1 Yb10 3.287140 1_555
S1 Yb13 3.580103 1_555
S2 Yb0 2.808087 1_555
S2 Yb3 2.851227 1_554
S2 Yb14 3.144171 1_555
S3 Yb4 2.916125 1_455
S3 Yb7 3.171151 1_555
S3 Yb14 3.286390 1_555
S3 Yb17 3.345421 1_555
S4 Yb8 2.782836 1_545
S4 Yb5 2.825598 1_555
S4 Yb15 3.204867 1_555
S5 Yb6 2.813213 1_555
S5 Yb16 2.817543 1_555
S5 Yb3 2.960998 1_555
S5 Yb13 3.470816 1_655
S6 Yb7 2.817086 1_555
S6 Yb1 2.896581 1_455
S6 Yb10 3.061552 1_555
S7 Yb2 2.814240 1_555
S7 Yb11 2.831465 1_555
S7 Yb8 2.852461 1_555
S8 Yb6 2.932801 1_554
S8 Yb0 3.011154 1_555
S8 Yb15 3.460891 1_555
S9 Yb14 3.093379 1_555
S9 Yb11 3.127327 1_554
S9 Yb4 3.377983 1_555
S10 S13 2.148070 1_555
S10 Yb12 2.801450 1_545
S10 Yb9 3.082181 1_555
S10 Yb2 3.403918 1_645
S11 Yb13 2.901012 1_555
S11 Yb10 2.948508 1_555
S11 Yb3 2.998912 1_555
S11 Yb0 3.070635 1_556
S12 Yb17 2.824068 1_555
S12 Yb8 2.964167 1_555
S12 Yb14 2.977835 1_555
S12 Yb5 2.993460 1_565
S13 Yb12 3.004015 1_545
S13 Yb15 3.060745 1_555
S13 Yb6 3.487735 1_555
S14 S17 2.139930 1_555
S14 Yb16 2.812001 1_455
S14 Yb13 3.278121 1_555
S14 Yb4 3.427934 1_456
S15 S9 2.144866 1_555
S15 Yb11 2.823452 1_554
S15 Yb17 2.977895 1_555
S16 Yb9 2.908023 1_555
S16 Yb15 2.923172 1_555
S16 Yb1 2.950218 1_555
S16 Yb7 3.026805 1_655
S17 Yb16 3.061870 1_455
S17 Yb10 3.173321 1_555
S17 Yb2 3.379451 1_555
S18 Yb12 2.762185 1_555
S18 Yb16 2.799666 1_555
S18 Yb2 2.918566 1_655
S19 Yb0 2.789075 1_555
S19 Yb17 2.792997 1_545
S19 Yb13 2.844807 1_554
S20 S24 2.027837 1_555
S20 Yb14 2.835670 1_555
S20 Yb15 2.865311 1_555
S20 Yb1 3.065171 1_555
S21 Yb17 2.764561 1_545
S21 Yb5 2.784794 1_555
S21 Yb9 2.800469 1_455
S22 S24 2.030973 1_555
S22 Yb10 2.829858 1_555
S22 Yb15 2.843461 1_555
S22 Yb3 3.065674 1_555
S23 Yb16 2.746880 1_555
S23 Yb11 2.794179 1_555
S23 Yb4 2.923487 1_556
S24 Yb14 3.245408 1_555
S24 Yb10 3.367727 1_555
S25 Yb11 2.755291 1_555
S25 Yb12 2.818355 1_555
S25 Yb6 2.922087 1_565
S26 Yb13 2.779311 1_554
S26 Yb7 2.805208 1_555
S26 Yb9 2.824106 1_455
S27 S35 2.056740 1_654
S27 Yb4 2.833264 1_555
S27 Yb6 2.849101 1_564
S27 Yb9 2.860078 1_565
S28 Yb7 2.737284 1_555
S28 Yb5 2.782482 1_555
S28 Yb10 2.858091 1_555
S29 Yb11 2.760501 1_555
S29 Yb8 2.824671 1_555
S29 Yb3 2.838134 1_555
S30 Yb12 2.711442 1_555
S30 Yb8 2.790837 1_555
S30 Yb1 2.864312 1_555
S31 S35 2.060780 1_645
S31 Yb2 2.786136 1_645
S31 Yb13 2.862608 1_655
S31 Yb6 2.878868 1_555
S32 Yb7 2.771286 1_555
S32 Yb0 2.790578 1_555
S32 Yb14 2.809780 1_555
S33 Yb5 2.772301 1_555
S33 Yb0 2.806633 1_555
S33 Yb15 2.835180 1_555
S34 Yb16 2.723086 1_555
S34 Yb1 2.834681 1_555
S34 Yb3 2.848246 1_555
S35 Yb4 3.367762 1_456
S35 Yb2 3.482756 1_555
S35 Yb17 3.593510 1_556
S36 Yb14 2.722535 1_555
S36 Yb11 2.801235 1_554
S36 Yb17 2.865538 1_555
S37 Yb15 2.762709 1_555
S37 Yb12 2.808211 1_545
S37 Yb9 2.884696 1_555
S38 Yb10 2.714608 1_555
S38 Yb16 2.798605 1_455
S38 Yb13 2.884725 1_555
S39 Yb2 2.711531 1_555
S39 Yb5 2.855155 1_565
S39 Yb8 2.859892 1_555
S40 Yb6 2.789974 1_555
S40 Yb0 2.830287 1_556
S40 Yb3 2.854085 1_555
S41 Yb4 2.736209 1_555
S41 Yb7 2.803335 1_655
S41 Yb1 2.909520 1_555
