# generated using pymatgen
data_Sr2Ge2O5
_symmetry_space_group_name_H-M   'P 1'
_cell_length_a   4.03313800
_cell_length_b   4.03313800
_cell_length_c   7.30155100
_cell_angle_alpha   90.00000000
_cell_angle_beta   90.00000000
_cell_angle_gamma   90.00000000
_symmetry_Int_Tables_number   1
_chemical_formula_structural   Sr2Ge2O5
_chemical_formula_sum   'Sr2 Ge2 O5'
_cell_volume   118.76850441
_cell_formula_units_Z   1
loop_
 _symmetry_equiv_pos_site_id
 _symmetry_equiv_pos_as_xyz
  1  'x, y, z'
loop_
 _atom_site_type_symbol
 _atom_site_label
 _atom_site_symmetry_multiplicity
 _atom_site_fract_x
 _atom_site_fract_y
 _atom_site_fract_z
 _atom_site_occupancy
  Sr  Sr0  1  0.00000000  0.00000000  0.00000000  1
  Sr  Sr1  1  0.00000000  0.00000000  0.50000000  1
  Ge  Ge0  1  0.50000000  0.50000000  0.24089800  1
  Ge  Ge1  1  0.50000000  0.50000000  0.75910200  1
  O  O0  1  0.50000000  0.00000000  0.23292700  1
  O  O1  1  0.50000000  0.00000000  0.76707300  1
  O  O2  1  0.00000000  0.50000000  0.23292700  1
  O  O3  1  0.00000000  0.50000000  0.76707300  1
  O  O4  1  0.50000000  0.50000000  0.50000000  1
loop_
_geom_bond_atom_site_label_1
_geom_bond_atom_site_label_2
_geom_bond_distance
_geom_bond_site_symmetry_2
Ge0 O4 1.891846 1_555
Ge0 O0 2.017409 1_565
Ge0 O0 2.017409 1_555
Ge0 O2 2.017409 1_655
Ge0 O2 2.017409 1_555
Ge1 O4 1.891846 1_555
Ge1 O1 2.017409 1_555
Ge1 O3 2.017409 1_655
Ge1 O1 2.017409 1_565
Ge1 O3 2.017409 1_555
O0 Sr0 2.637997 1_655
O0 Sr0 2.637997 1_555
O0 Sr1 2.805216 1_655
O0 Sr1 2.805216 1_555
O1 Sr0 2.637997 1_556
O1 Sr0 2.637997 1_656
O1 Sr1 2.805216 1_655
O1 Sr1 2.805216 1_555
O2 Sr0 2.637997 1_565
O2 Sr0 2.637997 1_555
O2 Sr1 2.805216 1_555
O2 Sr1 2.805216 1_565
O3 Sr0 2.637997 1_556
O3 Sr0 2.637997 1_566
O3 Sr1 2.805216 1_555
O3 Sr1 2.805216 1_565
O4 Sr1 2.851859 1_555
O4 Sr1 2.851859 1_655
O4 Sr1 2.851859 1_565
O4 Sr1 2.851859 1_665
