# generated using pymatgen
data_CsTh2(PO4)3
_symmetry_space_group_name_H-M   'P 1'
_cell_length_a   9.63811912
_cell_length_b   9.63811912
_cell_length_c   8.17159341
_cell_angle_alpha   77.84138862
_cell_angle_beta   77.84138862
_cell_angle_gamma   42.47818344
_symmetry_Int_Tables_number   1
_chemical_formula_structural   CsTh2(PO4)3
_chemical_formula_sum   'Cs2 Th4 P6 O24'
_cell_volume   499.35943489
_cell_formula_units_Z   2
loop_
 _symmetry_equiv_pos_site_id
 _symmetry_equiv_pos_as_xyz
  1  'x, y, z'
loop_
 _atom_site_type_symbol
 _atom_site_label
 _atom_site_symmetry_multiplicity
 _atom_site_fract_x
 _atom_site_fract_y
 _atom_site_fract_z
 _atom_site_occupancy
  Cs  Cs0  1  0.41105182  0.58894818  0.75000000  1
  Cs  Cs1  1  0.58894818  0.41105182  0.25000000  1
  Th  Th0  1  0.93850715  0.75176459  0.53206212  1
  Th  Th1  1  0.24823541  0.06149285  0.96793788  1
  Th  Th2  1  0.06149285  0.24823541  0.46793788  1
  Th  Th3  1  0.75176459  0.93850715  0.03206212  1
  P  P0  1  0.78453592  0.60129295  0.82087050  1
  P  P1  1  0.39870705  0.21546408  0.67912950  1
  P  P2  1  0.21546408  0.39870705  0.17912950  1
  P  P3  1  0.60129295  0.78453592  0.32087050  1
  P  P4  1  0.90968030  0.09031970  0.75000000  1
  P  P5  1  0.09031970  0.90968030  0.25000000  1
  O  O0  1  0.95750254  0.89906950  0.74235128  1
  O  O1  1  0.10093050  0.04249746  0.75764872  1
  O  O2  1  0.04249746  0.10093050  0.25764872  1
  O  O3  1  0.89906950  0.95750254  0.24235128  1
  O  O4  1  0.82002873  0.23461999  0.58923872  1
  O  O5  1  0.76538001  0.17997127  0.91076128  1
  O  O6  1  0.17997127  0.76538001  0.41076128  1
  O  O7  1  0.23461999  0.82002873  0.08923872  1
  O  O8  1  0.83054908  0.72357439  0.83086118  1
  O  O9  1  0.27642561  0.16945092  0.66913882  1
  O  O10  1  0.16945092  0.27642561  0.16913882  1
  O  O11  1  0.72357439  0.83054908  0.33086118  1
  O  O12  1  0.55421070  0.74091744  0.85495089  1
  O  O13  1  0.25908256  0.44578930  0.64504911  1
  O  O14  1  0.44578930  0.25908256  0.14504911  1
  O  O15  1  0.74091744  0.55421070  0.35495089  1
  O  O16  1  0.85616664  0.55244240  0.63302245  1
  O  O17  1  0.44755760  0.14383336  0.86697755  1
  O  O18  1  0.14383336  0.44755760  0.36697755  1
  O  O19  1  0.55244240  0.85616664  0.13302245  1
  O  O20  1  0.91186597  0.40014614  0.93161594  1
  O  O21  1  0.59985386  0.08813403  0.56838406  1
  O  O22  1  0.08813403  0.59985386  0.06838406  1
  O  O23  1  0.40014614  0.91186597  0.43161594  1
loop_
_geom_bond_atom_site_label_1
_geom_bond_atom_site_label_2
_geom_bond_distance
_geom_bond_site_symmetry_2
Cs0 O5 2.962767 1_555
Cs0 O4 2.962767 1_555
Cs0 O12 2.965350 1_555
Cs0 O13 2.965350 1_555
Cs0 O0 2.968161 1_455
Cs0 O1 2.968161 1_565
Cs0 O6 3.250412 1_555
Cs0 O7 3.250412 1_556
Cs0 O23 3.562050 1_555
Cs0 O22 3.562050 1_556
Cs1 O7 2.962767 1_555
Cs1 O6 2.962767 1_555
Cs1 O15 2.965350 1_555
Cs1 O14 2.965350 1_555
Cs1 O3 2.968161 1_545
Cs1 O2 2.968161 1_655
Cs1 O5 3.250412 1_554
Cs1 O4 3.250412 1_555
Cs1 O20 3.562050 1_554
Cs1 O21 3.562050 1_555
O0 P4 1.548305 1_565
O0 Th0 2.558455 1_555
O0 Th3 2.640241 1_556
O1 P4 1.548305 1_455
O1 Th1 2.558455 1_555
O1 Th2 2.640241 1_555
O2 P5 1.548305 1_545
O2 Th2 2.558455 1_555
O2 Th1 2.640241 1_554
O3 P5 1.548305 1_655
O3 Th3 2.558455 1_555
O3 Th0 2.640241 1_555
O4 P4 1.530533 1_555
O4 Th2 2.416578 1_655
O5 P4 1.530533 1_555
O5 Th3 2.416578 1_546
O6 P5 1.530533 1_555
O6 Th0 2.416578 1_455
O7 P5 1.530533 1_555
O7 Th1 2.416578 1_564
O8 P0 1.555348 1_555
O8 Th3 2.481852 1_556
O8 Th0 2.487084 1_555
O9 P1 1.555348 1_555
O9 Th2 2.481852 1_555
O9 Th1 2.487084 1_555
O10 P2 1.555348 1_555
O10 Th1 2.481852 1_554
O10 Th2 2.487084 1_555
O11 P3 1.555348 1_555
O11 Th0 2.481852 1_555
O11 Th3 2.487084 1_555
O12 P0 1.519000 1_555
O12 Th1 2.389564 1_565
O13 P1 1.519000 1_555
O13 Th0 2.389564 1_455
O14 P2 1.519000 1_555
O14 Th3 2.389564 1_545
O15 P3 1.519000 1_555
O15 Th2 2.389564 1_655
O16 P0 1.559855 1_555
O16 Th0 2.511274 1_555
O16 Th2 2.513049 1_655
O17 P1 1.559855 1_555
O17 Th1 2.511274 1_555
O17 Th3 2.513049 1_546
O18 P2 1.559855 1_555
O18 Th2 2.511274 1_555
O18 Th0 2.513049 1_455
O19 P3 1.559855 1_555
O19 Th3 2.511274 1_555
O19 Th1 2.513049 1_564
O20 P0 1.517508 1_555
O20 Th1 2.374974 1_655
O21 P1 1.517508 1_555
O21 Th0 2.374974 1_545
O22 P2 1.517508 1_555
O22 Th3 2.374974 1_455
O23 P3 1.517508 1_555
O23 Th2 2.374974 1_565
