# generated using pymatgen
data_V2Bi8O17
_symmetry_space_group_name_H-M   'P 1'
_cell_length_a   6.33932008
_cell_length_b   6.17639509
_cell_length_c   14.27849071
_cell_angle_alpha   106.10412956
_cell_angle_beta   95.07218511
_cell_angle_gamma   96.77446021
_symmetry_Int_Tables_number   1
_chemical_formula_structural   V2Bi8O17
_chemical_formula_sum   'V2 Bi8 O17'
_cell_volume   529.05743464
_cell_formula_units_Z   1
loop_
 _symmetry_equiv_pos_site_id
 _symmetry_equiv_pos_as_xyz
  1  'x, y, z'
loop_
 _atom_site_type_symbol
 _atom_site_label
 _atom_site_symmetry_multiplicity
 _atom_site_fract_x
 _atom_site_fract_y
 _atom_site_fract_z
 _atom_site_occupancy
  V  V0  1  0.69328000  0.34856000  0.50269900  1
  V  V1  1  0.67708600  0.31117500  0.01103800  1
  Bi  Bi0  1  0.33458400  0.98400100  0.32814300  1
  Bi  Bi1  1  0.28592100  0.97168300  0.82286600  1
  Bi  Bi2  1  0.19487000  0.38150700  0.60536700  1
  Bi  Bi3  1  0.26026400  0.34607900  0.17281900  1
  Bi  Bi4  1  0.88934300  0.78912800  0.43580900  1
  Bi  Bi5  1  0.73028000  0.92704000  0.15875700  1
  Bi  Bi6  1  0.60642400  0.56060900  0.81547300  1
  Bi  Bi7  1  0.76195900  0.95630700  0.67376300  1
  O  O0  1  0.37994200  0.73166400  0.89680100  1
  O  O1  1  0.41074500  0.26504000  0.03806400  1
  O  O2  1  0.40019100  0.32073700  0.48404800  1
  O  O3  1  0.48952300  0.19362100  0.24680300  1
  O  O4  1  0.37586300  0.28463900  0.72281800  1
  O  O5  1  0.45004300  0.68720600  0.23038900  1
  O  O6  1  0.47733600  0.76314400  0.71547700  1
  O  O7  1  0.66884600  0.70022300  0.52987900  1
  O  O8  1  0.67489600  0.05415700  0.41975800  1
  O  O9  1  0.77324800  0.33740100  0.61704000  1
  O  O10  1  0.83627600  0.15888200  0.06837300  1
  O  O11  1  0.66258900  0.21990600  0.88447600  1
  O  O12  1  0.06380400  0.01284600  0.56546300  1
  O  O13  1  0.04694800  0.03044800  0.23194500  1
  O  O14  1  0.97454000  0.78595600  0.74327600  1
  O  O15  1  0.93945400  0.44461200  0.46114700  1
  O  O16  1  0.78174800  0.59742900  0.04951000  1
loop_
_geom_bond_atom_site_label_1
_geom_bond_atom_site_label_2
_geom_bond_distance
_geom_bond_site_symmetry_2
Bi0 O3 2.173876 1_565
Bi0 O5 2.218559 1_555
Bi0 O13 2.278808 1_565
Bi0 O8 2.349274 1_565
Bi0 O2 2.552998 1_565
Bi1 O0 2.152390 1_555
Bi1 O14 2.202212 1_455
Bi1 O6 2.254923 1_555
Bi1 O11 2.615858 1_565
Bi1 O4 2.741886 1_565
Bi2 O4 2.205714 1_555
Bi2 O12 2.224839 1_555
Bi2 O2 2.233599 1_555
Bi2 O15 2.649278 1_455
Bi2 O9 2.679182 1_455
Bi2 O6 2.772155 1_555
Bi3 O3 2.172114 1_555
Bi3 O1 2.183030 1_555
Bi3 O5 2.197398 1_555
Bi3 O13 2.614333 1_555
Bi4 O12 2.101892 1_665
Bi4 O7 2.149318 1_555
Bi4 O8 2.293072 1_565
Bi4 O15 2.307782 1_555
Bi5 O13 2.118059 1_665
Bi5 O10 2.262528 1_565
Bi5 O16 2.273580 1_555
Bi5 O3 2.530742 1_565
Bi5 O5 2.633884 1_555
Bi6 O0 2.120868 1_555
Bi6 O4 2.147366 1_555
Bi6 O6 2.301926 1_555
Bi6 O11 2.605875 1_555
Bi7 O14 2.141401 1_555
Bi7 O7 2.198518 1_555
Bi7 O6 2.260546 1_555
Bi7 O12 2.615294 1_665
Bi7 O9 2.688774 1_565
O1 V1 1.773013 1_555
O2 V0 1.834217 1_555
O7 V0 2.124759 1_555
O8 V0 1.858340 1_555
O9 V0 1.688639 1_555
O10 V1 1.754545 1_555
O11 V1 1.727760 1_556
O15 V0 1.811053 1_555
O16 V1 1.728543 1_555
