# generated using pymatgen
data_Zn3(AsO4)2
_symmetry_space_group_name_H-M   'P 1'
_cell_length_a   8.48028996
_cell_length_b   5.29409849
_cell_length_c   8.85705883
_cell_angle_alpha   60.28250237
_cell_angle_beta   90.00000000
_cell_angle_gamma   90.00000000
_symmetry_Int_Tables_number   1
_chemical_formula_structural   Zn3(AsO4)2
_chemical_formula_sum   'Zn6 As4 O16'
_cell_volume   345.34418864
_cell_formula_units_Z   2
loop_
 _symmetry_equiv_pos_site_id
 _symmetry_equiv_pos_as_xyz
  1  'x, y, z'
loop_
 _atom_site_type_symbol
 _atom_site_label
 _atom_site_symmetry_multiplicity
 _atom_site_fract_x
 _atom_site_fract_y
 _atom_site_fract_z
 _atom_site_occupancy
  Zn  Zn0  1  0.13871884  0.48032874  0.11209105  1
  Zn  Zn1  1  0.63871884  0.51967126  0.38790895  1
  Zn  Zn2  1  0.86128116  0.51967126  0.88790895  1
  Zn  Zn3  1  0.36128116  0.48032874  0.61209105  1
  Zn  Zn4  1  0.00000000  0.50000000  0.50000000  1
  Zn  Zn5  1  0.50000000  0.50000000  0.00000000  1
  As  As0  1  0.30739482  0.85424230  0.19165806  1
  As  As1  1  0.80739482  0.14575770  0.30834194  1
  As  As2  1  0.69260518  0.14575770  0.80834194  1
  As  As3  1  0.19260518  0.85424230  0.69165806  1
  O  O0  1  0.06667916  0.71109434  0.86326427  1
  O  O1  1  0.56667916  0.28890566  0.63673573  1
  O  O2  1  0.93332084  0.28890566  0.13673573  1
  O  O3  1  0.43332084  0.71109434  0.36326427  1
  O  O4  1  0.19792139  0.21724232  0.61585891  1
  O  O5  1  0.69792139  0.78275768  0.88414109  1
  O  O6  1  0.80207861  0.78275768  0.38414109  1
  O  O7  1  0.30207861  0.21724232  0.11585891  1
  O  O8  1  0.13616926  0.78245502  0.53355595  1
  O  O9  1  0.63616926  0.21754498  0.96644405  1
  O  O10  1  0.12932210  0.67689744  0.25305822  1
  O  O11  1  0.62932210  0.32310256  0.24694178  1
  O  O12  1  0.87067790  0.32310256  0.74694178  1
  O  O13  1  0.37067790  0.67689744  0.75305822  1
  O  O14  1  0.36383074  0.78245502  0.03355595  1
  O  O15  1  0.86383074  0.21754498  0.46644405  1
loop_
_geom_bond_atom_site_label_1
_geom_bond_atom_site_label_2
_geom_bond_distance
_geom_bond_site_symmetry_2
As0 O14 1.691751 1_555
As0 O7 1.693149 1_565
As0 O3 1.697903 1_555
As0 O10 1.717978 1_555
As1 O15 1.691751 1_555
As1 O6 1.693149 1_545
As1 O2 1.697903 1_555
As1 O11 1.717978 1_555
As2 O9 1.691751 1_555
As2 O5 1.693149 1_545
As2 O1 1.697903 1_555
As2 O12 1.717978 1_555
As3 O8 1.691751 1_555
As3 O4 1.693149 1_565
As3 O0 1.697903 1_555
As3 O13 1.717978 1_555
O0 Zn2 1.972137 1_455
O0 Zn0 2.013301 1_556
O1 Zn3 1.972137 1_555
O1 Zn1 2.013301 1_555
O2 Zn0 1.972137 1_655
O2 Zn2 2.013301 1_554
O3 Zn1 1.972137 1_555
O3 Zn3 2.013301 1_555
O4 Zn3 1.952972 1_555
O4 Zn4 2.141966 1_555
O5 Zn2 1.952972 1_555
O5 Zn5 2.141966 1_556
O6 Zn1 1.952972 1_555
O6 Zn4 2.141966 1_655
O7 Zn0 1.952972 1_555
O7 Zn5 2.141966 1_555
O8 Zn4 2.024468 1_555
O8 Zn3 2.362936 1_555
O9 Zn5 2.024468 1_556
O9 Zn2 2.362936 1_555
O10 Zn0 1.984036 1_555
O10 Zn4 2.198347 1_555
O11 Zn1 1.984036 1_555
O11 Zn5 2.198347 1_555
O12 Zn2 1.984036 1_555
O12 Zn4 2.198347 1_655
O13 Zn3 1.984036 1_555
O13 Zn5 2.198347 1_556
O14 Zn5 2.024468 1_555
O14 Zn0 2.362936 1_555
O15 Zn4 2.024468 1_655
O15 Zn1 2.362936 1_555
