# generated using pymatgen
data_Pr2Fe14C
_symmetry_space_group_name_H-M   'P 1'
_cell_length_a   8.77659000
_cell_length_b   8.77659000
_cell_length_c   11.96674200
_cell_angle_alpha   90.00000000
_cell_angle_beta   90.00000000
_cell_angle_gamma   90.00000000
_symmetry_Int_Tables_number   1
_chemical_formula_structural   Pr2Fe14C
_chemical_formula_sum   'Pr8 Fe56 C4'
_cell_volume   921.78056942
_cell_formula_units_Z   4
loop_
 _symmetry_equiv_pos_site_id
 _symmetry_equiv_pos_as_xyz
  1  'x, y, z'
loop_
 _atom_site_type_symbol
 _atom_site_label
 _atom_site_symmetry_multiplicity
 _atom_site_fract_x
 _atom_site_fract_y
 _atom_site_fract_z
 _atom_site_occupancy
  Pr  Pr0  1  0.23900500  0.76099500  0.50000000  1
  Pr  Pr1  1  0.76099500  0.23900500  0.50000000  1
  Pr  Pr2  1  0.26099500  0.26099500  0.00000000  1
  Pr  Pr3  1  0.73900500  0.73900500  0.00000000  1
  Pr  Pr4  1  0.64248900  0.64248900  0.50000000  1
  Pr  Pr5  1  0.35751100  0.35751100  0.50000000  1
  Pr  Pr6  1  0.85751100  0.14248900  0.00000000  1
  Pr  Pr7  1  0.14248900  0.85751100  0.00000000  1
  Fe  Fe0  1  0.00000000  0.50000000  0.50000000  1
  Fe  Fe1  1  0.50000000  0.00000000  0.00000000  1
  Fe  Fe2  1  0.50000000  0.00000000  0.50000000  1
  Fe  Fe3  1  0.00000000  0.50000000  0.00000000  1
  Fe  Fe4  1  0.50000000  0.50000000  0.10660900  1
  Fe  Fe5  1  0.00000000  0.00000000  0.60660900  1
  Fe  Fe6  1  0.50000000  0.50000000  0.89339100  1
  Fe  Fe7  1  0.00000000  0.00000000  0.39339100  1
  Fe  Fe8  1  0.18307100  0.81692900  0.25484700  1
  Fe  Fe9  1  0.81692900  0.18307100  0.25484700  1
  Fe  Fe10  1  0.31692900  0.31692900  0.75484700  1
  Fe  Fe11  1  0.68307100  0.68307100  0.75484700  1
  Fe  Fe12  1  0.81692900  0.18307100  0.74515300  1
  Fe  Fe13  1  0.18307100  0.81692900  0.74515300  1
  Fe  Fe14  1  0.68307100  0.68307100  0.24515300  1
  Fe  Fe15  1  0.31692900  0.31692900  0.24515300  1
  Fe  Fe16  1  0.40182500  0.59817500  0.29102800  1
  Fe  Fe17  1  0.59817500  0.40182500  0.29102800  1
  Fe  Fe18  1  0.09817500  0.09817500  0.79102800  1
  Fe  Fe19  1  0.90182500  0.90182500  0.79102800  1
  Fe  Fe20  1  0.59817500  0.40182500  0.70897200  1
  Fe  Fe21  1  0.40182500  0.59817500  0.70897200  1
  Fe  Fe22  1  0.90182500  0.90182500  0.20897200  1
  Fe  Fe23  1  0.09817500  0.09817500  0.20897200  1
  Fe  Fe24  1  0.13992400  0.53611400  0.32252800  1
  Fe  Fe25  1  0.86007600  0.46388600  0.32252800  1
  Fe  Fe26  1  0.36007600  0.03611400  0.82252800  1
  Fe  Fe27  1  0.63992400  0.96388600  0.82252800  1
  Fe  Fe28  1  0.86007600  0.46388600  0.67747200  1
  Fe  Fe29  1  0.13992400  0.53611400  0.67747200  1
  Fe  Fe30  1  0.63992400  0.96388600  0.17747200  1
  Fe  Fe31  1  0.36007600  0.03611400  0.17747200  1
  Fe  Fe32  1  0.53611400  0.13992400  0.32252800  1
  Fe  Fe33  1  0.46388600  0.86007600  0.32252800  1
  Fe  Fe34  1  0.03611400  0.36007600  0.82252800  1
  Fe  Fe35  1  0.96388600  0.63992400  0.82252800  1
  Fe  Fe36  1  0.46388600  0.86007600  0.67747200  1
  Fe  Fe37  1  0.53611400  0.13992400  0.67747200  1
  Fe  Fe38  1  0.96388600  0.63992400  0.17747200  1
  Fe  Fe39  1  0.03611400  0.36007600  0.17747200  1
  Fe  Fe40  1  0.93371200  0.72546200  0.37896300  1
  Fe  Fe41  1  0.06628800  0.27453800  0.37896300  1
  Fe  Fe42  1  0.56628800  0.22546200  0.87896300  1
  Fe  Fe43  1  0.43371200  0.77453800  0.87896300  1
  Fe  Fe44  1  0.06628800  0.27453800  0.62103700  1
  Fe  Fe45  1  0.93371200  0.72546200  0.62103700  1
  Fe  Fe46  1  0.43371200  0.77453800  0.12103700  1
  Fe  Fe47  1  0.56628800  0.22546200  0.12103700  1
  Fe  Fe48  1  0.72546200  0.93371200  0.37896300  1
  Fe  Fe49  1  0.27453800  0.06628800  0.37896300  1
  Fe  Fe50  1  0.22546200  0.56628800  0.87896300  1
  Fe  Fe51  1  0.77453800  0.43371200  0.87896300  1
  Fe  Fe52  1  0.27453800  0.06628800  0.62103700  1
  Fe  Fe53  1  0.72546200  0.93371200  0.62103700  1
  Fe  Fe54  1  0.77453800  0.43371200  0.12103700  1
  Fe  Fe55  1  0.22546200  0.56628800  0.12103700  1
  C  C0  1  0.87503500  0.87503500  0.50000000  1
  C  C1  1  0.12496500  0.12496500  0.50000000  1
  C  C2  1  0.62496500  0.37503500  0.00000000  1
  C  C3  1  0.37503500  0.62496500  0.00000000  1
loop_
_geom_bond_atom_site_label_1
_geom_bond_atom_site_label_2
_geom_bond_distance
_geom_bond_site_symmetry_2
Fe0 Fe29 2.473650 1_555
Fe0 Fe24 2.473650 1_555
Fe0 Fe28 2.473650 1_455
Fe0 Fe25 2.473650 1_455
Fe0 Fe45 2.520315 1_455
Fe0 Fe40 2.520315 1_455
Fe0 Fe44 2.520315 1_555
Fe0 Fe41 2.520315 1_555
Fe0 Pr1 3.105993 1_455
Fe0 Pr0 3.105993 1_555
Fe0 Pr5 3.377759 1_555
Fe0 Pr4 3.377759 1_455
Fe1 Fe30 2.473650 1_545
Fe1 Fe31 2.473650 1_555
Fe1 Fe27 2.473650 1_544
Fe1 Fe26 2.473650 1_554
Fe1 Fe46 2.520315 1_545
Fe1 Fe47 2.520315 1_555
Fe1 Fe42 2.520315 1_554
Fe1 Fe43 2.520315 1_544
Fe1 Pr2 3.105993 1_555
Fe1 Pr3 3.105993 1_545
Fe1 Pr6 3.377759 1_555
Fe1 Pr7 3.377759 1_545
Fe2 Fe37 2.473650 1_555
Fe2 Fe32 2.473650 1_555
Fe2 Fe36 2.473650 1_545
Fe2 Fe33 2.473650 1_545
Fe2 Fe53 2.520315 1_545
Fe2 Fe48 2.520315 1_545
Fe2 Fe52 2.520315 1_555
Fe2 Fe49 2.520315 1_555
Fe2 Pr0 3.105993 1_545
Fe2 Pr1 3.105993 1_555
Fe2 Pr5 3.377759 1_555
Fe2 Pr4 3.377759 1_545
Fe3 Fe38 2.473650 1_455
Fe3 Fe39 2.473650 1_555
Fe3 Fe35 2.473650 1_454
Fe3 Fe34 2.473650 1_554
Fe3 Fe54 2.520315 1_455
Fe3 Fe55 2.520315 1_555
Fe3 Fe50 2.520315 1_554
Fe3 Fe51 2.520315 1_454
Fe3 Pr2 3.105993 1_555
Fe3 Pr3 3.105993 1_455
Fe3 Pr7 3.377759 1_555
Fe3 Pr6 3.377759 1_455
Fe4 Pr3 3.229215 1_555
Fe4 Pr2 3.229215 1_555
Fe5 Pr0 3.229215 1_545
Fe5 Pr1 3.229215 1_455
Fe6 Pr3 3.229215 1_556
Fe6 Pr2 3.229215 1_556
Fe7 Fe9 2.812814 1_455
Fe7 Fe8 2.812814 1_545
Fe7 Pr1 3.229215 1_455
Fe7 Pr0 3.229215 1_545
Fe8 Pr0 3.014710 1_555
Fe8 Pr7 3.091006 1_555
Fe9 Pr1 3.014710 1_555
Fe9 Pr6 3.091006 1_555
Fe10 Fe26 2.621758 1_555
Fe10 Fe34 2.621758 1_555
Fe10 Fe20 2.636180 1_555
Fe10 Fe21 2.636180 1_555
Fe10 Fe37 2.640324 1_555
Fe10 Fe29 2.640324 1_555
Fe10 Fe52 2.746177 1_555
Fe10 Fe44 2.746177 1_555
Fe10 Fe18 2.749473 1_555
Fe10 Fe50 2.764068 1_555
Fe10 Fe42 2.764068 1_555
Fe10 Fe6 2.812814 1_555
Fe10 Pr2 3.014710 1_556
Fe10 Pr5 3.091006 1_555
Fe11 Fe35 2.621758 1_555
Fe11 Fe27 2.621758 1_555
Fe11 Fe21 2.636180 1_555
Fe11 Fe20 2.636180 1_555
Fe11 Fe36 2.640324 1_555
Fe11 Fe28 2.640324 1_555
Fe11 Fe45 2.746177 1_555
Fe11 Fe53 2.746177 1_555
Fe11 Fe19 2.749473 1_555
Fe11 Fe51 2.764068 1_555
Fe11 Fe43 2.764068 1_555
Fe11 Fe6 2.812814 1_555
Fe11 Pr3 3.014710 1_556
Fe11 Pr4 3.091006 1_555
Fe12 Fe37 2.621758 1_555
Fe12 Fe28 2.621758 1_555
Fe12 Fe19 2.636180 1_545
Fe12 Fe18 2.636180 1_655
Fe12 Fe34 2.640324 1_655
Fe12 Fe27 2.640324 1_545
Fe12 Fe42 2.746177 1_555
Fe12 Fe51 2.746177 1_555
Fe12 Fe20 2.749473 1_555
Fe12 Fe53 2.764068 1_545
Fe12 Fe44 2.764068 1_655
Fe12 Fe5 2.812814 1_655
Fe12 Pr1 3.014710 1_555
Fe12 Pr6 3.091006 1_556
Fe13 Fe29 2.621758 1_555
Fe13 Fe36 2.621758 1_555
Fe13 Fe19 2.636180 1_455
Fe13 Fe18 2.636180 1_565
Fe13 Fe35 2.640324 1_455
Fe13 Fe26 2.640324 1_565
Fe13 Fe50 2.746177 1_555
Fe13 Fe43 2.746177 1_555
Fe13 Fe21 2.749473 1_555
Fe13 Fe45 2.764068 1_455
Fe13 Fe52 2.764068 1_565
Fe13 Fe5 2.812814 1_565
Fe13 Pr0 3.014710 1_555
Fe13 Pr7 3.091006 1_556
Fe14 Fe30 2.621758 1_555
Fe14 Fe38 2.621758 1_555
Fe14 Fe16 2.636180 1_555
Fe14 Fe17 2.636180 1_555
Fe14 Fe25 2.640324 1_555
Fe14 Fe33 2.640324 1_555
Fe14 Fe40 2.746177 1_555
Fe14 Fe48 2.746177 1_555
Fe14 Fe22 2.749473 1_555
Fe14 Fe54 2.764068 1_555
Fe14 Fe46 2.764068 1_555
Fe14 Fe4 2.812814 1_555
Fe14 Pr3 3.014710 1_555
Fe14 Pr4 3.091006 1_555
Fe15 Fe31 2.621758 1_555
Fe15 Fe39 2.621758 1_555
Fe15 Fe16 2.636180 1_555
Fe15 Fe17 2.636180 1_555
Fe15 Fe32 2.640324 1_555
Fe15 Fe24 2.640324 1_555
Fe15 Fe41 2.746177 1_555
Fe15 Fe49 2.746177 1_555
Fe15 Fe23 2.749473 1_555
Fe15 Fe55 2.764068 1_555
Fe15 Fe47 2.764068 1_555
Fe15 Fe4 2.812814 1_555
Fe15 Pr2 3.014710 1_555
Fe15 Pr5 3.091006 1_555
Fe16 Fe33 2.392138 1_555
Fe16 Fe24 2.392138 1_555
Fe16 Fe17 2.437091 1_555
Fe16 Fe4 2.520959 1_555
Fe16 Fe46 2.571446 1_555
Fe16 Fe55 2.571446 1_555
Fe16 Fe8 2.749473 1_555
Fe16 Pr0 3.215226 1_555
Fe16 Pr4 3.296401 1_555
Fe16 Pr5 3.296401 1_555
Fe17 Fe25 2.392138 1_555
Fe17 Fe32 2.392138 1_555
Fe17 Fe4 2.520959 1_555
Fe17 Fe54 2.571446 1_555
Fe17 Fe47 2.571446 1_555
Fe17 Fe9 2.749473 1_555
Fe17 Pr1 3.215226 1_555
Fe17 Pr4 3.296401 1_555
Fe17 Pr5 3.296401 1_555
Fe18 Fe34 2.392138 1_555
Fe18 Fe26 2.392138 1_555
Fe18 Fe19 2.437091 1_445
Fe18 Fe5 2.520959 1_555
Fe18 Fe44 2.571446 1_555
Fe18 Fe52 2.571446 1_555
Fe18 Pr2 3.215226 1_556
Fe18 Pr7 3.296401 1_546
Fe18 Pr6 3.296401 1_456
Fe19 Fe27 2.392138 1_555
Fe19 Fe35 2.392138 1_555
Fe19 Fe5 2.520959 1_665
Fe19 Fe45 2.571446 1_555
Fe19 Fe53 2.571446 1_555
Fe19 Pr3 3.215226 1_556
Fe19 Pr6 3.296401 1_566
Fe19 Pr7 3.296401 1_656
Fe20 Fe28 2.392138 1_555
Fe20 Fe37 2.392138 1_555
Fe20 Fe21 2.437091 1_555
Fe20 Fe6 2.520959 1_555
Fe20 Fe51 2.571446 1_555
Fe20 Fe42 2.571446 1_555
Fe20 Pr1 3.215226 1_555
Fe20 Pr4 3.296401 1_555
Fe20 Pr5 3.296401 1_555
Fe21 Fe36 2.392138 1_555
Fe21 Fe29 2.392138 1_555
Fe21 Fe6 2.520959 1_555
Fe21 Fe43 2.571446 1_555
Fe21 Fe50 2.571446 1_555
Fe21 Pr0 3.215226 1_555
Fe21 Pr4 3.296401 1_555
Fe21 Pr5 3.296401 1_555
Fe22 Fe38 2.392138 1_555
Fe22 Fe30 2.392138 1_555
Fe22 Fe23 2.437091 1_665
Fe22 Fe7 2.520959 1_665
Fe22 Fe48 2.571446 1_555
Fe22 Fe40 2.571446 1_555
Fe22 Fe8 2.636180 1_655
Fe22 Fe9 2.636180 1_565
Fe22 Pr3 3.215226 1_555
Fe22 Pr7 3.296401 1_655
Fe22 Pr6 3.296401 1_565
Fe23 Fe39 2.392138 1_555
Fe23 Fe31 2.392138 1_555
Fe23 Fe7 2.520959 1_555
Fe23 Fe41 2.571446 1_555
Fe23 Fe49 2.571446 1_555
Fe23 Fe8 2.636180 1_545
Fe23 Fe9 2.636180 1_455
Fe23 Pr2 3.215226 1_555
Fe23 Pr6 3.296401 1_455
Fe23 Pr7 3.296401 1_545
Fe24 Fe41 2.478750 1_555
Fe24 Fe39 2.496063 1_555
Fe24 Fe38 2.496063 1_455
Fe24 Fe25 2.536598 1_455
Fe24 Fe55 2.539207 1_555
Fe24 Fe40 2.548192 1_455
Fe24 Fe8 2.621758 1_555
Fe24 Pr0 3.026880 1_555
Fe24 Pr5 3.257967 1_555
Fe25 Fe40 2.478750 1_555
Fe25 Fe39 2.496063 1_655
Fe25 Fe38 2.496063 1_555
Fe25 Fe54 2.539207 1_555
Fe25 Fe41 2.548192 1_655
Fe25 Fe9 2.621758 1_555
Fe25 Pr1 3.026880 1_555
Fe25 Pr4 3.257967 1_555
Fe26 Fe43 2.478750 1_545
Fe26 Fe36 2.496063 1_545
Fe26 Fe37 2.496063 1_555
Fe26 Fe27 2.536598 1_545
Fe26 Fe52 2.539207 1_555
Fe26 Fe42 2.548192 1_555
Fe26 Pr2 3.026880 1_556
Fe26 Pr7 3.257967 1_546
Fe27 Fe42 2.478750 1_565
Fe27 Fe36 2.496063 1_555
Fe27 Fe37 2.496063 1_565
Fe27 Fe53 2.539207 1_555
Fe27 Fe43 2.548192 1_555
Fe27 Pr3 3.026880 1_556
Fe27 Pr6 3.257967 1_566
Fe28 Fe45 2.478750 1_555
Fe28 Fe34 2.496063 1_655
Fe28 Fe35 2.496063 1_555
Fe28 Fe29 2.536598 1_655
Fe28 Fe51 2.539207 1_555
Fe28 Fe44 2.548192 1_655
Fe28 Pr1 3.026880 1_555
Fe28 Pr4 3.257967 1_555
Fe29 Fe44 2.478750 1_555
Fe29 Fe34 2.496063 1_555
Fe29 Fe35 2.496063 1_455
Fe29 Fe50 2.539207 1_555
Fe29 Fe45 2.548192 1_455
Fe29 Pr0 3.026880 1_555
Fe29 Pr5 3.257967 1_555
Fe30 Fe47 2.478750 1_565
Fe30 Fe33 2.496063 1_555
Fe30 Fe32 2.496063 1_565
Fe30 Fe31 2.536598 1_565
Fe30 Fe48 2.539207 1_555
Fe30 Fe46 2.548192 1_555
Fe30 Fe9 2.640324 1_565
Fe30 Pr3 3.026880 1_555
Fe30 Pr6 3.257967 1_565
Fe31 Fe46 2.478750 1_545
Fe31 Fe33 2.496063 1_545
Fe31 Fe32 2.496063 1_555
Fe31 Fe49 2.539207 1_555
Fe31 Fe47 2.548192 1_555
Fe31 Fe8 2.640324 1_545
Fe31 Pr2 3.026880 1_555
Fe31 Pr7 3.257967 1_545
Fe32 Fe49 2.478750 1_555
Fe32 Fe33 2.536598 1_545
Fe32 Fe47 2.539207 1_555
Fe32 Fe48 2.548192 1_545
Fe32 Fe9 2.621758 1_555
Fe32 Pr1 3.026880 1_555
Fe32 Pr5 3.257967 1_555
Fe33 Fe48 2.478750 1_555
Fe33 Fe46 2.539207 1_555
Fe33 Fe49 2.548192 1_565
Fe33 Fe8 2.621758 1_555
Fe33 Pr0 3.026880 1_555
Fe33 Pr4 3.257967 1_555
Fe34 Fe51 2.478750 1_455
Fe34 Fe35 2.536598 1_455
Fe34 Fe44 2.539207 1_555
Fe34 Fe50 2.548192 1_555
Fe34 Pr2 3.026880 1_556
Fe34 Pr6 3.257967 1_456
Fe35 Fe50 2.478750 1_655
Fe35 Fe45 2.539207 1_555
Fe35 Fe51 2.548192 1_555
Fe35 Pr3 3.026880 1_556
Fe35 Pr7 3.257967 1_656
Fe36 Fe53 2.478750 1_555
Fe36 Fe37 2.536598 1_565
Fe36 Fe43 2.539207 1_555
Fe36 Fe52 2.548192 1_565
Fe36 Pr0 3.026880 1_555
Fe36 Pr4 3.257967 1_555
Fe37 Fe52 2.478750 1_555
Fe37 Fe42 2.539207 1_555
Fe37 Fe53 2.548192 1_545
Fe37 Pr1 3.026880 1_555
Fe37 Pr5 3.257967 1_555
Fe38 Fe55 2.478750 1_655
Fe38 Fe39 2.536598 1_655
Fe38 Fe40 2.539207 1_555
Fe38 Fe54 2.548192 1_555
Fe38 Fe8 2.640324 1_655
Fe38 Pr3 3.026880 1_555
Fe38 Pr7 3.257967 1_655
Fe39 Fe54 2.478750 1_455
Fe39 Fe41 2.539207 1_555
Fe39 Fe55 2.548192 1_555
Fe39 Fe9 2.640324 1_455
Fe39 Pr2 3.026880 1_555
Fe39 Pr6 3.257967 1_455
Fe40 Fe8 2.764068 1_655
Fe40 Pr4 3.026727 1_555
Fe40 Pr0 3.061785 1_655
Fe41 Fe9 2.764068 1_455
Fe41 Pr5 3.026727 1_555
Fe41 Pr1 3.061785 1_455
Fe42 Pr6 3.026727 1_556
Fe42 Pr2 3.061785 1_556
Fe43 Pr7 3.026727 1_556
Fe43 Pr3 3.061785 1_556
Fe44 Pr5 3.026727 1_555
Fe44 Pr1 3.061785 1_455
Fe45 Pr4 3.026727 1_555
Fe45 Pr0 3.061785 1_655
Fe46 Fe8 2.746177 1_555
Fe46 Pr7 3.026727 1_555
Fe46 Pr3 3.061785 1_555
Fe47 Fe9 2.746177 1_555
Fe47 Pr6 3.026727 1_555
Fe47 Pr2 3.061785 1_555
Fe48 Fe9 2.764068 1_565
Fe48 Pr4 3.026727 1_555
Fe48 Pr1 3.061785 1_565
Fe49 Fe8 2.764068 1_545
Fe49 Pr5 3.026727 1_555
Fe49 Pr0 3.061785 1_545
Fe50 Pr7 3.026727 1_556
Fe50 Pr2 3.061785 1_556
Fe51 Pr6 3.026727 1_556
Fe51 Pr3 3.061785 1_556
Fe52 Pr5 3.026727 1_555
Fe52 Pr0 3.061785 1_545
Fe53 Pr4 3.026727 1_555
Fe53 Pr1 3.061785 1_565
Fe54 Fe9 2.746177 1_555
Fe54 Pr6 3.026727 1_555
Fe54 Pr3 3.061785 1_555
Fe55 Fe8 2.746177 1_555
Fe55 Pr7 3.026727 1_555
Fe55 Pr2 3.061785 1_555
C0 Fe5 2.008324 1_665
C0 Fe7 2.008324 1_665
C0 Fe45 2.021488 1_555
C0 Fe53 2.021488 1_555
C0 Fe48 2.021488 1_555
C0 Fe40 2.021488 1_555
C0 Pr4 2.886355 1_555
C1 Fe5 2.008324 1_555
C1 Fe7 2.008324 1_555
C1 Fe44 2.021488 1_555
C1 Fe52 2.021488 1_555
C1 Fe49 2.021488 1_555
C1 Fe41 2.021488 1_555
C1 Pr5 2.886355 1_555
C2 Fe4 2.008324 1_555
C2 Fe6 2.008324 1_554
C2 Fe54 2.021488 1_555
C2 Fe47 2.021488 1_555
C2 Fe42 2.021488 1_554
C2 Fe51 2.021488 1_554
C2 Pr6 2.886355 1_555
C3 Fe4 2.008324 1_555
C3 Fe6 2.008324 1_554
C3 Fe55 2.021488 1_555
C3 Fe46 2.021488 1_555
C3 Fe43 2.021488 1_554
C3 Fe50 2.021488 1_554
C3 Pr7 2.886355 1_555
