# generated using pymatgen
data_Zr4Os2N
_symmetry_space_group_name_H-M   'P 1'
_cell_length_a   8.76593167
_cell_length_b   8.76593167
_cell_length_c   8.76593167
_cell_angle_alpha   60.00000000
_cell_angle_beta   60.00000000
_cell_angle_gamma   60.00000000
_symmetry_Int_Tables_number   1
_chemical_formula_structural   Zr4Os2N
_chemical_formula_sum   'Zr16 Os8 N4'
_cell_volume   476.29853512
_cell_formula_units_Z   4
loop_
 _symmetry_equiv_pos_site_id
 _symmetry_equiv_pos_as_xyz
  1  'x, y, z'
loop_
 _atom_site_type_symbol
 _atom_site_label
 _atom_site_symmetry_multiplicity
 _atom_site_fract_x
 _atom_site_fract_y
 _atom_site_fract_z
 _atom_site_occupancy
  Zr  Zr0  1  0.12500000  0.62500000  0.62500000  1
  Zr  Zr1  1  0.62500000  0.12500000  0.62500000  1
  Zr  Zr2  1  0.62500000  0.62500000  0.12500000  1
  Zr  Zr3  1  0.62500000  0.62500000  0.62500000  1
  Zr  Zr4  1  0.81489452  0.81489452  0.18510548  1
  Zr  Zr5  1  0.18510548  0.18510548  0.81489452  1
  Zr  Zr6  1  0.81489452  0.18510548  0.81489452  1
  Zr  Zr7  1  0.18510548  0.81489452  0.18510548  1
  Zr  Zr8  1  0.18510548  0.81489452  0.81489452  1
  Zr  Zr9  1  0.81489452  0.18510548  0.18510548  1
  Zr  Zr10  1  0.43510548  0.43510548  0.06489452  1
  Zr  Zr11  1  0.06489452  0.06489452  0.43510548  1
  Zr  Zr12  1  0.43510548  0.06489452  0.43510548  1
  Zr  Zr13  1  0.06489452  0.43510548  0.06489452  1
  Zr  Zr14  1  0.06489452  0.43510548  0.43510548  1
  Zr  Zr15  1  0.43510548  0.06489452  0.06489452  1
  Os  Os0  1  0.75941168  0.41352911  0.41352911  1
  Os  Os1  1  0.41352911  0.75941168  0.41352911  1
  Os  Os2  1  0.41352911  0.41352911  0.75941168  1
  Os  Os3  1  0.41352911  0.41352911  0.41352911  1
  Os  Os4  1  0.49058832  0.83647089  0.83647089  1
  Os  Os5  1  0.83647089  0.49058832  0.83647089  1
  Os  Os6  1  0.83647089  0.83647089  0.49058832  1
  Os  Os7  1  0.83647089  0.83647089  0.83647089  1
  N  N0  1  0.62500000  0.12500000  0.12500000  1
  N  N1  1  0.12500000  0.62500000  0.12500000  1
  N  N2  1  0.12500000  0.12500000  0.62500000  1
  N  N3  1  0.12500000  0.12500000  0.12500000  1
loop_
_geom_bond_atom_site_label_1
_geom_bond_atom_site_label_2
_geom_bond_distance
_geom_bond_site_symmetry_2
Os0 Zr2 2.707204 1_555
Os0 Zr1 2.707204 1_555
Os0 Zr3 2.707211 1_555
Os0 Zr13 2.879424 1_655
Os0 Zr11 2.879424 1_655
Os0 Zr14 2.879429 1_655
Os1 Zr2 2.707204 1_555
Os1 Zr0 2.707204 1_555
Os1 Zr3 2.707211 1_555
Os1 Zr15 2.879424 1_565
Os1 Zr11 2.879424 1_565
Os1 Zr12 2.879429 1_565
Os2 Zr0 2.707204 1_555
Os2 Zr1 2.707204 1_555
Os2 Zr3 2.707211 1_555
Os2 Zr13 2.879424 1_556
Os2 Zr15 2.879424 1_556
Os2 Zr10 2.879429 1_556
Os3 Zr0 2.707209 1_555
Os3 Zr2 2.707209 1_555
Os3 Zr1 2.707209 1_555
Os3 Zr10 2.879421 1_555
Os3 Zr14 2.879421 1_555
Os3 Zr12 2.879421 1_555
Os4 Zr1 2.707204 1_565
Os4 Zr2 2.707204 1_556
Os4 Zr3 2.707211 1_555
Os4 Zr7 2.879424 1_556
Os4 Zr5 2.879424 1_565
Os4 Zr8 2.879429 1_555
Os5 Zr0 2.707204 1_655
Os5 Zr2 2.707204 1_556
Os5 Zr3 2.707211 1_555
Os5 Zr5 2.879424 1_655
Os5 Zr9 2.879424 1_556
Os5 Zr6 2.879429 1_555
Os6 Zr0 2.707204 1_655
Os6 Zr1 2.707204 1_565
Os6 Zr3 2.707211 1_555
Os6 Zr9 2.879424 1_565
Os6 Zr7 2.879424 1_655
Os6 Zr4 2.879429 1_555
Os7 Zr0 2.707209 1_655
Os7 Zr2 2.707209 1_556
Os7 Zr1 2.707209 1_565
Os7 Zr6 2.879421 1_565
Os7 Zr8 2.879421 1_655
Os7 Zr4 2.879421 1_556
N0 Zr12 2.314693 1_555
N0 Zr6 2.314693 1_554
N0 Zr15 2.314693 1_555
N0 Zr4 2.314693 1_545
N0 Zr10 2.314693 1_555
N0 Zr9 2.314693 1_555
N1 Zr4 2.314693 1_455
N1 Zr13 2.314693 1_555
N1 Zr10 2.314693 1_555
N1 Zr14 2.314693 1_555
N1 Zr8 2.314693 1_554
N1 Zr7 2.314693 1_555
N2 Zr6 2.314693 1_455
N2 Zr12 2.314693 1_555
N2 Zr14 2.314693 1_555
N2 Zr8 2.314693 1_545
N2 Zr11 2.314693 1_555
N2 Zr5 2.314693 1_555
N3 Zr9 2.314693 1_455
N3 Zr7 2.314693 1_545
N3 Zr5 2.314693 1_554
N3 Zr15 2.314693 1_555
N3 Zr13 2.314693 1_555
N3 Zr11 2.314693 1_555
