# generated using pymatgen
data_Li7Mn2(CoO4)3
_symmetry_space_group_name_H-M   'P 1'
_cell_length_a   5.80738900
_cell_length_b   6.55659831
_cell_length_c   6.59002183
_cell_angle_alpha   96.74899119
_cell_angle_beta   115.99443384
_cell_angle_gamma   102.78905393
_symmetry_Int_Tables_number   1
_chemical_formula_structural   Li7Mn2(CoO4)3
_chemical_formula_sum   'Li7 Mn2 Co3 O12'
_cell_volume   213.25668715
_cell_formula_units_Z   1
loop_
 _symmetry_equiv_pos_site_id
 _symmetry_equiv_pos_as_xyz
  1  'x, y, z'
loop_
 _atom_site_type_symbol
 _atom_site_label
 _atom_site_symmetry_multiplicity
 _atom_site_fract_x
 _atom_site_fract_y
 _atom_site_fract_z
 _atom_site_occupancy
  Li  Li0  1  0.25543200  0.34325700  0.83225400  1
  Li  Li1  1  0.74393300  0.99540800  0.50220500  1
  Li  Li2  1  0.24780400  0.66521600  0.16786800  1
  Li  Li3  1  0.74615700  0.33991800  0.83103700  1
  Li  Li4  1  0.25452400  0.99286100  0.50042500  1
  Li  Li5  1  0.74602500  0.66090900  0.15838400  1
  Li  Li6  1  0.49988900  0.66569300  0.67028000  1
  Mn  Mn0  1  0.99646200  0.99844400  0.99589700  1
  Mn  Mn1  1  0.50138700  0.99654700  0.99787300  1
  Co  Co0  1  0.01744400  0.34383700  0.34739300  1
  Co  Co1  1  0.00332000  0.65612300  0.66432800  1
  Co  Co2  1  0.50780400  0.35675700  0.34308700  1
  O  O0  1  0.36528800  0.01092400  0.22400000  1
  O  O1  1  0.88969500  0.68953700  0.90845900  1
  O  O2  1  0.34974300  0.32065200  0.56117400  1
  O  O3  1  0.85860600  0.99760900  0.21735500  1
  O  O4  1  0.37744600  0.68957800  0.91886400  1
  O  O5  1  0.86928100  0.33365100  0.57808600  1
  O  O6  1  0.11178700  0.66396400  0.42872400  1
  O  O7  1  0.63549800  0.31311000  0.09563100  1
  O  O8  1  0.13905000  0.99940200  0.77726500  1
  O  O9  1  0.62170200  0.65161900  0.41307900  1
  O  O10  1  0.12171800  0.31397000  0.08687600  1
  O  O11  1  0.64000500  0.00101400  0.77945600  1
loop_
_geom_bond_atom_site_label_1
_geom_bond_atom_site_label_2
_geom_bond_distance
_geom_bond_site_symmetry_2
Li0 O2 2.084374 1_555
Li0 O5 2.111532 1_455
Li0 O8 2.142348 1_545
Li0 O10 2.146464 1_556
Li0 O4 2.147655 1_555
Li0 O7 2.199771 1_556
Li1 O5 2.098522 1_565
Li1 O9 2.131840 1_555
Li1 O11 2.159756 1_565
Li1 O0 2.194530 1_565
Li1 O8 2.206331 1_655
Li1 O3 2.250637 1_555
Li2 O1 2.089835 1_454
Li2 O4 2.091971 1_554
Li2 O9 2.092350 1_555
Li2 O0 2.153404 1_565
Li2 O10 2.178690 1_555
Li2 O6 2.184000 1_555
Li3 O5 2.081680 1_555
Li3 O11 2.113160 1_555
Li3 O7 2.118626 1_556
Li3 O10 2.153317 1_656
Li3 O2 2.169830 1_555
Li3 O1 2.171680 1_555
Li4 O2 2.040257 1_565
Li4 O6 2.046078 1_555
Li4 O11 2.170526 1_565
Li4 O0 2.188678 1_565
Li4 O8 2.201518 1_555
Li4 O3 2.247893 1_455
Li5 O6 2.083711 1_655
Li5 O3 2.094909 1_555
Li5 O4 2.096365 1_554
Li5 O9 2.099754 1_555
Li5 O1 2.156827 1_554
Li5 O7 2.163514 1_555
Li6 O4 2.055200 1_555
Li6 O1 2.069712 1_555
Li6 O11 2.082416 1_565
Li6 O9 2.103573 1_555
Li6 O6 2.110332 1_555
Li6 O2 2.142442 1_555
Mn0 O1 1.917074 1_555
Mn0 O11 1.937238 1_565
Mn0 O3 1.948064 1_556
Mn0 O8 1.951213 1_655
Mn0 O10 1.956624 1_666
Mn0 O0 1.981237 1_666
Mn1 O4 1.903640 1_555
Mn1 O11 1.932834 1_565
Mn1 O3 1.938230 1_556
Mn1 O7 1.964651 1_566
Mn1 O8 1.970783 1_555
Mn1 O0 1.971453 1_566
Co0 O2 1.878573 1_555
Co0 O6 1.990494 1_555
Co0 O5 2.049660 1_455
Co0 O7 2.052073 1_455
Co0 O10 2.058467 1_555
Co0 O3 2.159004 1_445
Co1 O6 1.916203 1_555
Co1 O1 1.995865 1_455
Co1 O5 2.000102 1_455
Co1 O4 2.022444 1_555
Co1 O9 2.096880 1_455
Co1 O8 2.132527 1_555
Co2 O9 1.828855 1_555
Co2 O2 2.025912 1_555
Co2 O5 2.043110 1_555
Co2 O10 2.061190 1_555
Co2 O7 2.082172 1_555
Co2 O0 2.150333 1_555
