# generated using pymatgen
data_SrMg6B
_symmetry_space_group_name_H-M   'P 1'
_cell_length_a   7.60657784
_cell_length_b   7.60657784
_cell_length_c   4.66552000
_cell_angle_alpha   90.00000000
_cell_angle_beta   90.00000000
_cell_angle_gamma   134.51911264
_symmetry_Int_Tables_number   1
_chemical_formula_structural   SrMg6B
_chemical_formula_sum   'Sr1 Mg6 B1'
_cell_volume   192.47677149
_cell_formula_units_Z   1
loop_
 _symmetry_equiv_pos_site_id
 _symmetry_equiv_pos_as_xyz
  1  'x, y, z'
loop_
 _atom_site_type_symbol
 _atom_site_label
 _atom_site_symmetry_multiplicity
 _atom_site_fract_x
 _atom_site_fract_y
 _atom_site_fract_z
 _atom_site_occupancy
  Sr  Sr0  1  0.79899000  0.20101000  0.50000000  1
  Mg  Mg0  1  0.30124000  0.19159400  0.50000000  1
  Mg  Mg1  1  0.80840600  0.69876000  0.50000000  1
  Mg  Mg2  1  0.18659300  0.34840000  0.00000000  1
  Mg  Mg3  1  0.65160000  0.81340700  0.00000000  1
  Mg  Mg4  1  0.63225200  0.36774800  0.00000000  1
  Mg  Mg5  1  0.20339400  0.79660600  0.00000000  1
  B  B0  1  0.41752400  0.58247600  0.50000000  1
loop_
_geom_bond_atom_site_label_1
_geom_bond_atom_site_label_2
_geom_bond_distance
_geom_bond_site_symmetry_2
Mg0 Mg4 2.974194 1_556
Mg0 Mg4 2.974194 1_555
Mg0 Mg5 3.447753 1_545
Mg0 Mg5 3.447753 1_546
Mg1 Mg4 2.974194 1_556
Mg1 Mg4 2.974194 1_555
Mg1 Mg5 3.447753 1_656
Mg1 Mg5 3.447753 1_655
Mg2 Sr0 3.279653 1_455
Mg2 Sr0 3.279653 1_454
Mg2 Mg4 3.288425 1_555
Mg2 Mg5 3.320959 1_555
Mg3 Sr0 3.279653 1_565
Mg3 Sr0 3.279653 1_564
Mg3 Mg4 3.288425 1_555
Mg3 Mg5 3.320959 1_555
Mg4 Mg5 3.105180 1_545
Mg4 Mg5 3.105180 1_655
Mg4 Sr0 3.303740 1_554
Mg4 Sr0 3.303740 1_555
Mg5 Sr0 3.985797 1_455
Mg5 Sr0 3.985797 1_454
Mg5 Sr0 3.985797 1_565
Mg5 Sr0 3.985797 1_564
B0 Mg0 2.436146 1_555
B0 Mg1 2.436146 1_555
B0 Mg3 2.704026 1_555
B0 Mg3 2.704026 1_556
B0 Mg2 2.704026 1_556
B0 Mg2 2.704026 1_555
B0 Sr0 3.378123 1_455
B0 Sr0 3.378123 1_565
