# generated using pymatgen
data_CeAl3Pt2
_symmetry_space_group_name_H-M   'P 1'
_cell_length_a   5.46698175
_cell_length_b   5.46698175
_cell_length_c   4.23221700
_cell_angle_alpha   90.00000000
_cell_angle_beta   90.00000000
_cell_angle_gamma   119.99999692
_symmetry_Int_Tables_number   1
_chemical_formula_structural   CeAl3Pt2
_chemical_formula_sum   'Ce1 Al3 Pt2'
_cell_volume   109.54531790
_cell_formula_units_Z   1
loop_
 _symmetry_equiv_pos_site_id
 _symmetry_equiv_pos_as_xyz
  1  'x, y, z'
loop_
 _atom_site_type_symbol
 _atom_site_label
 _atom_site_symmetry_multiplicity
 _atom_site_fract_x
 _atom_site_fract_y
 _atom_site_fract_z
 _atom_site_occupancy
  Ce  Ce0  1  0.00000000  0.00000000  0.00000000  1
  Al  Al0  1  0.50000000  0.00000000  0.50000000  1
  Al  Al1  1  0.00000000  0.50000000  0.50000000  1
  Al  Al2  1  0.50000000  0.50000000  0.50000000  1
  Pt  Pt0  1  0.33333300  0.66666700  0.00000000  1
  Pt  Pt1  1  0.66666700  0.33333300  0.00000000  1
loop_
_geom_bond_atom_site_label_1
_geom_bond_atom_site_label_2
_geom_bond_distance
_geom_bond_site_symmetry_2
Ce0 Pt0 3.156360 1_545
Ce0 Pt1 3.156360 1_455
Ce0 Pt1 3.156365 1_445
Ce0 Pt0 3.156365 1_555
Ce0 Pt0 3.156365 1_445
Ce0 Pt1 3.156365 1_555
Al0 Pt1 2.639805 1_556
Al0 Pt0 2.639805 1_545
Al0 Pt0 2.639805 1_546
Al0 Pt1 2.639805 1_555
Al1 Pt0 2.639805 1_556
Al1 Pt0 2.639805 1_555
Al1 Pt1 2.639805 1_455
Al1 Pt1 2.639805 1_456
Al2 Pt1 2.639807 1_556
Al2 Pt0 2.639807 1_556
Al2 Pt0 2.639807 1_555
Al2 Pt1 2.639807 1_555
