# generated using pymatgen
data_KMg14Al
_symmetry_space_group_name_H-M   'P 1'
_cell_length_a   6.46356787
_cell_length_b   6.51808475
_cell_length_c   10.56004140
_cell_angle_alpha   90.00000000
_cell_angle_beta   90.00000000
_cell_angle_gamma   120.27941067
_symmetry_Int_Tables_number   1
_chemical_formula_structural   KMg14Al
_chemical_formula_sum   'K1 Mg14 Al1'
_cell_volume   384.20136394
_cell_formula_units_Z   1
loop_
 _symmetry_equiv_pos_site_id
 _symmetry_equiv_pos_as_xyz
  1  'x, y, z'
loop_
 _atom_site_type_symbol
 _atom_site_label
 _atom_site_symmetry_multiplicity
 _atom_site_fract_x
 _atom_site_fract_y
 _atom_site_fract_z
 _atom_site_occupancy
  K  K0  1  0.16687814  0.83343857  0.12500000  1
  Mg  Mg0  1  0.16589717  0.33294809  0.62500000  1
  Mg  Mg1  1  0.16975305  0.83487603  0.62500000  1
  Mg  Mg2  1  0.66238158  0.33924186  0.12500000  1
  Mg  Mg3  1  0.66720708  0.33094688  0.62500000  1
  Mg  Mg4  1  0.66238158  0.82313872  0.12500000  1
  Mg  Mg5  1  0.66720708  0.83625919  0.62500000  1
  Mg  Mg6  1  0.33363812  0.17730516  0.38261541  1
  Mg  Mg7  1  0.33363812  0.17730516  0.86738459  1
  Mg  Mg8  1  0.33363812  0.65633396  0.38261541  1
  Mg  Mg9  1  0.33363812  0.65633396  0.86738459  1
  Mg  Mg10  1  0.83620827  0.16810464  0.36576642  1
  Mg  Mg11  1  0.83620827  0.16810464  0.88423358  1
  Mg  Mg12  1  0.82235919  0.66118010  0.38885159  1
  Mg  Mg13  1  0.82235919  0.66118010  0.86114841  1
  Al  Al0  1  0.18660691  0.34330295  0.12500000  1
loop_
_geom_bond_atom_site_label_1
_geom_bond_atom_site_label_2
_geom_bond_distance
_geom_bond_site_symmetry_2
K0 Mg2 3.227517 1_455
K0 Mg4 3.227518 1_455
K0 Mg2 3.237090 1_565
K0 Mg4 3.237090 1_555
K0 Mg9 3.339145 1_554
K0 Mg8 3.339145 1_555
K0 Mg6 3.339152 1_565
K0 Mg7 3.339152 1_564
K0 Mg12 3.385473 1_455
K0 Mg13 3.385473 1_454
Mg0 Mg6 3.140924 1_555
Mg0 Mg7 3.140924 1_555
Mg0 Mg8 3.140930 1_555
Mg0 Mg9 3.140930 1_555
Mg0 Mg5 3.216760 1_445
Mg0 Mg3 3.216760 1_455
Mg0 Mg5 3.246847 1_555
Mg0 Mg3 3.246847 1_555
Mg0 Mg1 3.259113 1_555
Mg0 Mg1 3.259113 1_545
Mg0 Mg11 3.298565 1_455
Mg0 Mg10 3.298565 1_455
Mg1 Mg13 3.158916 1_455
Mg1 Mg12 3.158916 1_455
Mg1 Mg8 3.204847 1_555
Mg1 Mg9 3.204847 1_555
Mg1 Mg6 3.204854 1_565
Mg1 Mg7 3.204854 1_565
Mg1 Mg3 3.210791 1_565
Mg1 Mg5 3.210792 1_555
Mg1 Mg3 3.252795 1_455
Mg1 Mg5 3.252795 1_455
Mg2 Mg4 3.154081 1_555
Mg2 Mg7 3.281482 1_554
Mg2 Mg6 3.281482 1_555
Mg2 Mg4 3.364004 1_545
Mg3 Mg6 3.166316 1_555
Mg3 Mg7 3.166316 1_555
Mg3 Mg5 3.224416 1_545
Mg3 Mg5 3.293668 1_555
Mg4 Mg9 3.281482 1_554
Mg4 Mg8 3.281482 1_555
Mg5 Mg9 3.166316 1_555
Mg5 Mg8 3.166316 1_555
Mg6 Mg8 3.122350 1_555
Mg6 Mg8 3.395734 1_545
Mg7 Mg9 3.122350 1_555
Mg7 Mg9 3.395734 1_545
Mg10 Mg8 3.190320 1_655
Mg10 Mg6 3.190320 1_655
Mg10 Mg2 3.199194 1_555
Mg10 Mg4 3.199201 1_545
Mg10 Mg12 3.269061 1_545
Mg10 Mg12 3.269061 1_555
Mg10 Mg8 3.283867 1_545
Mg10 Mg6 3.283867 1_555
Mg10 Mg3 3.314071 1_555
Mg10 Mg5 3.314077 1_545
Mg11 Mg9 3.190320 1_655
Mg11 Mg7 3.190320 1_655
Mg11 Mg2 3.199194 1_556
Mg11 Mg4 3.199201 1_546
Mg11 Mg13 3.269061 1_545
Mg11 Mg13 3.269061 1_555
Mg11 Mg9 3.283867 1_545
Mg11 Mg7 3.283867 1_555
Mg11 Mg3 3.314071 1_555
Mg11 Mg5 3.314077 1_545
Mg12 Mg5 3.111393 1_555
Mg12 Mg3 3.111400 1_555
Mg12 Mg6 3.143763 1_555
Mg12 Mg8 3.143763 1_555
Mg12 Mg6 3.321378 1_665
Mg12 Mg8 3.321378 1_655
Mg12 Mg4 3.323822 1_555
Mg12 Mg2 3.323828 1_555
Mg13 Mg5 3.111393 1_555
Mg13 Mg3 3.111400 1_555
Mg13 Mg7 3.143763 1_555
Mg13 Mg9 3.143763 1_555
Mg13 Mg7 3.321378 1_665
Mg13 Mg9 3.321378 1_655
Mg13 Mg4 3.323822 1_556
Mg13 Mg2 3.323828 1_556
Al0 Mg4 3.088633 1_555
Al0 Mg2 3.088633 1_555
Al0 Mg10 3.207752 1_455
Al0 Mg11 3.207752 1_454
Al0 Mg7 3.242149 1_554
Al0 Mg6 3.242149 1_555
Al0 Mg9 3.242155 1_554
Al0 Mg8 3.242155 1_555
Al0 K0 3.260902 1_545
Al0 K0 3.260902 1_555
Al0 Mg4 3.375096 1_445
Al0 Mg2 3.375097 1_455
