# generated using pymatgen
data_YNiP
_symmetry_space_group_name_H-M   'P 1'
_cell_length_a   5.30577527
_cell_length_b   5.30577527
_cell_length_c   11.70857500
_cell_angle_alpha   90.00000000
_cell_angle_beta   90.00000000
_cell_angle_gamma   141.47569212
_symmetry_Int_Tables_number   1
_chemical_formula_structural   YNiP
_chemical_formula_sum   'Y4 Ni4 P4'
_cell_volume   205.29711461
_cell_formula_units_Z   4
loop_
 _symmetry_equiv_pos_site_id
 _symmetry_equiv_pos_as_xyz
  1  'x, y, z'
loop_
 _atom_site_type_symbol
 _atom_site_label
 _atom_site_symmetry_multiplicity
 _atom_site_fract_x
 _atom_site_fract_y
 _atom_site_fract_z
 _atom_site_occupancy
  Y  Y0  1  0.69623200  0.30376800  0.61268000  1
  Y  Y1  1  0.30376800  0.69623200  0.38732000  1
  Y  Y2  1  0.30376800  0.69623200  0.11268000  1
  Y  Y3  1  0.69623200  0.30376800  0.88732000  1
  Ni  Ni0  1  0.00000000  0.00000000  0.50000000  1
  Ni  Ni1  1  0.00000000  0.00000000  0.00000000  1
  Ni  Ni2  1  0.97560700  0.02439300  0.75000000  1
  Ni  Ni3  1  0.02439300  0.97560700  0.25000000  1
  P  P0  1  0.58565900  0.41434100  0.11726900  1
  P  P1  1  0.41434100  0.58565900  0.88273100  1
  P  P2  1  0.41434100  0.58565900  0.61726900  1
  P  P3  1  0.58565900  0.41434100  0.38273100  1
loop_
_geom_bond_atom_site_label_1
_geom_bond_atom_site_label_2
_geom_bond_distance
_geom_bond_site_symmetry_2
Ni0 P2 2.384373 1_555
Ni0 P3 2.384373 1_555
Ni0 P2 2.384373 1_445
Ni0 P3 2.384373 1_445
Ni0 Y1 2.944223 1_445
Ni0 Y0 2.944223 1_555
Ni0 Y0 2.944223 1_445
Ni0 Y1 2.944223 1_555
Ni1 P0 2.384373 1_555
Ni1 P0 2.384373 1_445
Ni1 P1 2.384373 1_554
Ni1 P1 2.384373 1_444
Ni1 Y3 2.944223 1_554
Ni1 Y3 2.944223 1_444
Ni1 Y2 2.944223 1_445
Ni1 Y2 2.944223 1_555
Ni2 P1 2.419816 1_655
Ni2 P1 2.419816 1_545
Ni2 P2 2.419816 1_655
Ni2 P2 2.419816 1_545
Ni3 P3 2.419816 1_565
Ni3 P0 2.419816 1_565
Ni3 P0 2.419816 1_455
Ni3 P3 2.419816 1_455
P0 Y2 2.800063 1_545
P0 Y2 2.800063 1_655
P0 Y2 2.824356 1_555
P0 Y3 2.911324 1_554
P1 Y3 2.800063 1_455
P1 Y3 2.800063 1_565
P1 Y3 2.824356 1_555
P1 Y2 2.911324 1_556
P2 Y0 2.800063 1_455
P2 Y0 2.800063 1_565
P2 Y0 2.824356 1_555
P2 Y1 2.911324 1_555
P3 Y1 2.800063 1_545
P3 Y1 2.800063 1_655
P3 Y1 2.824356 1_555
P3 Y0 2.911324 1_555
