# generated using pymatgen
data_SnTe5Pb4
_symmetry_space_group_name_H-M   'P 1'
_cell_length_a   18.91976430
_cell_length_b   18.91976430
_cell_length_c   18.91976464
_cell_angle_alpha   14.14478483
_cell_angle_beta   14.14478483
_cell_angle_gamma   14.14478434
_symmetry_Int_Tables_number   1
_chemical_formula_structural   SnTe5Pb4
_chemical_formula_sum   'Sn1 Te5 Pb4'
_cell_volume   352.03377541
_cell_formula_units_Z   1
loop_
 _symmetry_equiv_pos_site_id
 _symmetry_equiv_pos_as_xyz
  1  'x, y, z'
loop_
 _atom_site_type_symbol
 _atom_site_label
 _atom_site_symmetry_multiplicity
 _atom_site_fract_x
 _atom_site_fract_y
 _atom_site_fract_z
 _atom_site_occupancy
  Sn  Sn0  1  0.00000000  0.00000000  0.00000000  1
  Te  Te0  1  0.69923900  0.69923900  0.69923900  1
  Te  Te1  1  0.50000000  0.50000000  0.50000000  1
  Te  Te2  1  0.09994800  0.09994800  0.09994800  1
  Te  Te3  1  0.30076100  0.30076100  0.30076100  1
  Te  Te4  1  0.90005200  0.90005200  0.90005200  1
  Pb  Pb0  1  0.60003200  0.60003200  0.60003200  1
  Pb  Pb1  1  0.19998200  0.19998200  0.19998200  1
  Pb  Pb2  1  0.80001800  0.80001800  0.80001800  1
  Pb  Pb3  1  0.39996800  0.39996800  0.39996800  1
loop_
_geom_bond_atom_site_label_1
_geom_bond_atom_site_label_2
_geom_bond_distance
_geom_bond_site_symmetry_2
Sn0 Te0 3.253324 1_454
Sn0 Te0 3.253324 1_544
Sn0 Te3 3.253324 1_545
Sn0 Te3 3.253324 1_455
Sn0 Te0 3.253324 1_445
Sn0 Te3 3.253324 1_554
Pb0 Te4 3.276922 1_545
Pb0 Te4 3.276922 1_455
Pb0 Te4 3.276922 1_554
Pb0 Te3 3.301138 1_655
Pb0 Te3 3.301138 1_565
Pb0 Te3 3.301138 1_556
Pb1 Te1 3.276986 1_455
Pb1 Te1 3.276986 1_545
Pb1 Te1 3.276987 1_554
Pb1 Te4 3.279813 1_454
Pb1 Te4 3.279813 1_544
Pb1 Te4 3.279813 1_445
Pb2 Te1 3.276986 1_655
Pb2 Te1 3.276986 1_565
Pb2 Te1 3.276987 1_556
Pb2 Te2 3.279813 1_656
Pb2 Te2 3.279813 1_566
Pb2 Te2 3.279813 1_665
Pb3 Te2 3.276922 1_565
Pb3 Te2 3.276922 1_655
Pb3 Te2 3.276922 1_556
Pb3 Te0 3.301138 1_545
Pb3 Te0 3.301138 1_455
Pb3 Te0 3.301138 1_554
