# generated using pymatgen
data_Sm2NiGe3
_symmetry_space_group_name_H-M   'P 1'
_cell_length_a   4.16399300
_cell_length_b   4.22180912
_cell_length_c   7.14678434
_cell_angle_alpha   89.99702521
_cell_angle_beta   90.00000000
_cell_angle_gamma   90.00000000
_symmetry_Int_Tables_number   1
_chemical_formula_structural   Sm2NiGe3
_chemical_formula_sum   'Sm2 Ni1 Ge3'
_cell_volume   125.63749285
_cell_formula_units_Z   1
loop_
 _symmetry_equiv_pos_site_id
 _symmetry_equiv_pos_as_xyz
  1  'x, y, z'
loop_
 _atom_site_type_symbol
 _atom_site_label
 _atom_site_symmetry_multiplicity
 _atom_site_fract_x
 _atom_site_fract_y
 _atom_site_fract_z
 _atom_site_occupancy
  Sm  Sm0  1  0.00000000  0.99991400  0.00341600  1
  Sm  Sm1  1  0.00000000  0.49990500  0.49879500  1
  Ni  Ni0  1  0.50000000  0.00003000  0.32352800  1
  Ge  Ge0  1  0.50000000  0.49999200  0.83872100  1
  Ge  Ge1  1  0.50000000  0.50001000  0.18983300  1
  Ge  Ge2  1  0.50000000  0.99994900  0.64570800  1
loop_
_geom_bond_atom_site_label_1
_geom_bond_atom_site_label_2
_geom_bond_distance
_geom_bond_site_symmetry_2
Ni0 Sm0 3.093317 1_545
Ni0 Sm0 3.093317 1_645
Ni0 Sm1 3.218333 1_655
Ni0 Sm1 3.218333 1_555
Ni0 Sm1 3.218940 1_645
Ni0 Sm1 3.218940 1_545
Ge0 Ge1 2.509322 1_556
Ge0 Ge2 2.521439 1_555
Ge0 Ge2 2.521863 1_545
Ge0 Sm0 3.189815 1_556
Ge0 Sm0 3.189815 1_656
Ge0 Sm0 3.190170 1_646
Ge0 Sm0 3.190170 1_546
Ge0 Sm1 3.199467 1_555
Ge0 Sm1 3.199467 1_655
Ge1 Ni0 2.316962 1_555
Ge1 Ni0 2.317206 1_565
Ge1 Sm1 3.034856 1_655
Ge1 Sm1 3.034856 1_555
Ge1 Sm0 3.250169 1_655
Ge1 Sm0 3.250169 1_555
Ge1 Sm0 3.250786 1_545
Ge1 Sm0 3.250786 1_645
Ge2 Ni0 2.302551 1_565
Ge2 Sm1 3.145158 1_565
Ge2 Sm1 3.145158 1_665
Ge2 Sm1 3.145481 1_655
Ge2 Sm1 3.145481 1_555
Ge2 Sm0 3.297000 1_556
Ge2 Sm0 3.297000 1_656
