# generated using pymatgen
data_VCu2HO5
_symmetry_space_group_name_H-M   'P 1'
_cell_length_a   6.18473500
_cell_length_b   8.59511000
_cell_length_c   15.20992800
_cell_angle_alpha   90.00000000
_cell_angle_beta   90.00000000
_cell_angle_gamma   90.00000000
_symmetry_Int_Tables_number   1
_chemical_formula_structural   VCu2HO5
_chemical_formula_sum   'V8 Cu16 H8 O40'
_cell_volume   808.53661758
_cell_formula_units_Z   8
loop_
 _symmetry_equiv_pos_site_id
 _symmetry_equiv_pos_as_xyz
  1  'x, y, z'
loop_
 _atom_site_type_symbol
 _atom_site_label
 _atom_site_symmetry_multiplicity
 _atom_site_fract_x
 _atom_site_fract_y
 _atom_site_fract_z
 _atom_site_occupancy
  V  V0  1  0.77674700  0.77783000  0.65234800  1
  V  V1  1  0.72325300  0.22217000  0.15234800  1
  V  V2  1  0.27674700  0.72217000  0.34765200  1
  V  V3  1  0.22325300  0.27783000  0.84765200  1
  V  V4  1  0.28728100  0.43569600  0.58165300  1
  V  V5  1  0.21271900  0.56430400  0.08165300  1
  V  V6  1  0.78728100  0.06430400  0.41834700  1
  V  V7  1  0.71271900  0.93569600  0.91834700  1
  Cu  Cu0  1  0.28621600  0.83393100  0.57574700  1
  Cu  Cu1  1  0.21378400  0.16606900  0.07574700  1
  Cu  Cu2  1  0.78621600  0.66606900  0.42425300  1
  Cu  Cu3  1  0.71378400  0.33393100  0.92425300  1
  Cu  Cu4  1  0.02393500  0.11698500  0.64081200  1
  Cu  Cu5  1  0.47606500  0.88301500  0.14081200  1
  Cu  Cu6  1  0.52393500  0.38301500  0.35918800  1
  Cu  Cu7  1  0.97606500  0.61698500  0.85918800  1
  Cu  Cu8  1  0.76633700  0.39843500  0.71402700  1
  Cu  Cu9  1  0.73366300  0.60156500  0.21402700  1
  Cu  Cu10  1  0.26633700  0.10156500  0.28597300  1
  Cu  Cu11  1  0.23366300  0.89843500  0.78597300  1
  Cu  Cu12  1  0.53693100  0.12025100  0.63413400  1
  Cu  Cu13  1  0.96306900  0.87974900  0.13413400  1
  Cu  Cu14  1  0.03693100  0.37974900  0.36586600  1
  Cu  Cu15  1  0.46306900  0.62025100  0.86586600  1
  H  H0  1  0.26048200  0.10415700  0.50490800  1
  H  H1  1  0.23951800  0.89584300  0.00490800  1
  H  H2  1  0.76048200  0.39584300  0.49509200  1
  H  H3  1  0.73951800  0.60415700  0.99509200  1
  H  H4  1  0.75966500  0.13630400  0.77701300  1
  H  H5  1  0.74033500  0.86369600  0.27701300  1
  H  H6  1  0.25966500  0.36369600  0.22298700  1
  H  H7  1  0.24033500  0.63630400  0.72298700  1
  O  O0  1  0.78715900  0.70882300  0.54803000  1
  O  O1  1  0.71284100  0.29117700  0.04803000  1
  O  O2  1  0.28715900  0.79117700  0.45197000  1
  O  O3  1  0.21284100  0.20882300  0.95197000  1
  O  O4  1  0.75687700  0.62043600  0.72375000  1
  O  O5  1  0.74312300  0.37956400  0.22375000  1
  O  O6  1  0.25687700  0.87956400  0.27625000  1
  O  O7  1  0.24312300  0.12043600  0.77625000  1
  O  O8  1  0.01867700  0.89361900  0.67698900  1
  O  O9  1  0.48132300  0.10638100  0.17698900  1
  O  O10  1  0.51867700  0.60638100  0.32301100  1
  O  O11  1  0.98132300  0.39361900  0.82301100  1
  O  O12  1  0.54022000  0.89497800  0.66535100  1
  O  O13  1  0.95978000  0.10502200  0.16535200  1
  O  O14  1  0.04022000  0.60502200  0.33464900  1
  O  O15  1  0.45978000  0.39497800  0.83464900  1
  O  O16  1  0.27637900  0.06244500  0.56494600  1
  O  O17  1  0.22362200  0.93755500  0.06494600  1
  O  O18  1  0.77637800  0.43755500  0.43505400  1
  O  O19  1  0.72362200  0.56244500  0.93505400  1
  O  O20  1  0.77237400  0.17187400  0.71386300  1
  O  O21  1  0.72762600  0.82812600  0.21386300  1
  O  O22  1  0.27237400  0.32812600  0.28613700  1
  O  O23  1  0.22762600  0.67187400  0.78613700  1
  O  O24  1  0.53381400  0.35033800  0.62147600  1
  O  O25  1  0.96618600  0.64966200  0.12147600  1
  O  O26  1  0.03381400  0.14966200  0.37852400  1
  O  O27  1  0.46618600  0.85033800  0.87852400  1
  O  O28  1  0.27261900  0.62808800  0.61823300  1
  O  O29  1  0.22738100  0.37191200  0.11823300  1
  O  O30  1  0.77261900  0.87191200  0.38176700  1
  O  O31  1  0.72738100  0.12808800  0.88176700  1
  O  O32  1  0.06166300  0.33942000  0.62367300  1
  O  O33  1  0.43833700  0.66058000  0.12367300  1
  O  O34  1  0.56166300  0.16058000  0.37632700  1
  O  O35  1  0.93833700  0.83942000  0.87632700  1
  O  O36  1  0.28773600  0.42106800  0.47024600  1
  O  O37  1  0.21226400  0.57893200  0.97024600  1
  O  O38  1  0.78773600  0.07893200  0.52975400  1
  O  O39  1  0.71226400  0.92106800  0.02975400  1
loop_
_geom_bond_atom_site_label_1
_geom_bond_atom_site_label_2
_geom_bond_distance
_geom_bond_site_symmetry_2
Cu0 O28 1.885439 1_555
Cu0 O2 1.918177 1_555
Cu0 O16 1.971900 1_565
Cu0 O12 2.144903 1_555
Cu0 O8 2.317828 1_555
Cu1 O29 1.885439 1_555
Cu1 O3 1.918177 1_554
Cu1 O17 1.971900 1_545
Cu1 O13 2.144912 1_455
Cu1 O9 2.317828 1_555
Cu2 O30 1.885439 1_555
Cu2 O0 1.918177 1_555
Cu2 O18 1.971900 1_555
Cu2 O14 2.144903 1_655
Cu2 O10 2.317828 1_555
Cu3 O31 1.885439 1_555
Cu3 O1 1.918177 1_556
Cu3 O19 1.971900 1_555
Cu3 O15 2.144903 1_555
Cu3 O11 2.317828 1_555
Cu4 O32 1.943601 1_555
Cu4 O20 1.969200 1_455
Cu4 O16 1.997231 1_555
Cu4 O8 1.997417 1_545
Cu4 O38 2.257064 1_455
Cu4 O7 2.466210 1_555
Cu5 O33 1.943601 1_555
Cu5 O21 1.969200 1_555
Cu5 O17 1.997226 1_555
Cu5 O9 1.997417 1_565
Cu5 O39 2.257064 1_555
Cu5 O6 2.466210 1_555
Cu6 O34 1.943601 1_555
Cu6 O22 1.969200 1_555
Cu6 O18 1.997226 1_555
Cu6 O10 1.997417 1_555
Cu6 O36 2.257064 1_555
Cu6 O5 2.466210 1_555
Cu7 O35 1.943601 1_555
Cu7 O23 1.969200 1_655
Cu7 O19 1.997226 1_555
Cu7 O11 1.997417 1_555
Cu7 O37 2.257064 1_655
Cu7 O4 2.466210 1_555
Cu8 O4 1.914739 1_555
Cu8 O20 1.947676 1_555
Cu8 O24 2.054413 1_555
Cu8 O11 2.125418 1_555
Cu8 O32 2.341385 1_655
Cu8 O15 2.638474 1_555
Cu9 O5 1.914739 1_555
Cu9 O21 1.947676 1_555
Cu9 O25 2.054413 1_555
Cu9 O10 2.125418 1_555
Cu9 O33 2.341385 1_555
Cu9 O14 2.638474 1_655
Cu10 O6 1.914739 1_545
Cu10 O22 1.947676 1_555
Cu10 O26 2.054413 1_555
Cu10 O9 2.125418 1_555
Cu10 O34 2.341385 1_555
Cu10 O13 2.638464 1_455
Cu11 O7 1.914739 1_565
Cu11 O23 1.947676 1_555
Cu11 O27 2.054413 1_555
Cu11 O8 2.125418 1_555
Cu11 O35 2.341385 1_455
Cu11 O12 2.638474 1_555
Cu12 O20 1.946235 1_555
Cu12 O24 1.987066 1_555
Cu12 O16 1.987723 1_555
Cu12 O12 1.993717 1_545
Cu12 O38 2.247831 1_555
Cu13 O21 1.946235 1_555
Cu13 O25 1.987066 1_555
Cu13 O17 1.987728 1_655
Cu13 O13 1.993720 1_565
Cu13 O39 2.247831 1_555
Cu14 O22 1.946235 1_555
Cu14 O26 1.987066 1_555
Cu14 O18 1.987728 1_455
Cu14 O14 1.993717 1_555
Cu14 O36 2.247831 1_555
Cu15 O23 1.946235 1_555
Cu15 O27 1.987066 1_555
Cu15 O19 1.987728 1_555
Cu15 O15 1.993717 1_555
Cu15 O37 2.247831 1_555
H0 O16 0.985946 1_555
H1 O17 0.985945 1_555
H2 O18 0.985945 1_555
H3 O19 0.985945 1_555
H4 O20 1.011050 1_555
H4 O31 1.607315 1_555
H5 O21 1.011050 1_555
H5 O30 1.607315 1_555
H6 O22 1.011050 1_555
H6 O29 1.607315 1_555
H7 O23 1.011050 1_555
H7 O28 1.607315 1_555
O0 V0 1.695129 1_555
O1 V1 1.695129 1_555
O2 V2 1.695129 1_555
O3 V3 1.695129 1_555
O4 V0 1.739155 1_555
O5 V1 1.739155 1_555
O6 V2 1.739155 1_555
O7 V3 1.739155 1_555
O8 V0 1.835691 1_455
O9 V1 1.835691 1_555
O10 V2 1.835691 1_555
O11 V3 1.835691 1_655
O12 V0 1.786872 1_555
O13 V1 1.786874 1_555
O14 V2 1.786872 1_555
O15 V3 1.786872 1_555
O24 V4 1.797213 1_555
O25 V5 1.797213 1_655
O26 V6 1.797213 1_455
O27 V7 1.797213 1_555
O28 V4 1.747076 1_555
O29 V5 1.747076 1_555
O30 V6 1.747076 1_565
O31 V7 1.747076 1_545
O32 V4 1.743658 1_555
O33 V5 1.743658 1_555
O34 V6 1.743658 1_555
O35 V7 1.743658 1_555
O36 V4 1.699153 1_555
O37 V5 1.699153 1_556
O38 V6 1.699153 1_555
O39 V7 1.699153 1_554
