# generated using pymatgen
data_Li2Mn3O6
_symmetry_space_group_name_H-M   'P 1'
_cell_length_a   2.88156900
_cell_length_b   10.34564617
_cell_length_c   7.45278340
_cell_angle_alpha   79.13191724
_cell_angle_beta   101.14910003
_cell_angle_gamma   89.99944907
_symmetry_Int_Tables_number   1
_chemical_formula_structural   Li2Mn3O6
_chemical_formula_sum   'Li4 Mn6 O12'
_cell_volume   213.92373679
_cell_formula_units_Z   2
loop_
 _symmetry_equiv_pos_site_id
 _symmetry_equiv_pos_as_xyz
  1  'x, y, z'
loop_
 _atom_site_type_symbol
 _atom_site_label
 _atom_site_symmetry_multiplicity
 _atom_site_fract_x
 _atom_site_fract_y
 _atom_site_fract_z
 _atom_site_occupancy
  Li  Li0  1  0.81759700  0.03615200  0.63546000  1
  Li  Li1  1  0.81759300  0.53615600  0.63545000  1
  Li  Li2  1  0.18198500  0.46389700  0.36444300  1
  Li  Li3  1  0.18198300  0.96390000  0.36443400  1
  Mn  Mn0  1  0.00004100  0.00003200  0.00012400  1
  Mn  Mn1  1  0.35109100  0.77487600  0.70205400  1
  Mn  Mn2  1  0.64903000  0.22513800  0.29804100  1
  Mn  Mn3  1  0.00013400  0.50002100  0.00015500  1
  Mn  Mn4  1  0.35099400  0.27487400  0.70207800  1
  Mn  Mn5  1  0.64900900  0.72514200  0.29801800  1
  O  O0  1  0.57114800  0.05977300  0.14225300  1
  O  O1  1  0.57115300  0.55977600  0.14225200  1
  O  O2  1  0.42882600  0.44017300  0.85757000  1
  O  O3  1  0.42882400  0.94017000  0.85756500  1
  O  O4  1  0.09108400  0.33580300  0.18209400  1
  O  O5  1  0.09107500  0.83580200  0.18208400  1
  O  O6  1  0.90896700  0.16417800  0.81791200  1
  O  O7  1  0.90899200  0.66417600  0.81791000  1
  O  O8  1  0.22677100  0.13359000  0.45343700  1
  O  O9  1  0.22676300  0.63359000  0.45342000  1
  O  O10  1  0.77328200  0.36639000  0.54662600  1
  O  O11  1  0.77329900  0.86638300  0.54661900  1
loop_
_geom_bond_atom_site_label_1
_geom_bond_atom_site_label_2
_geom_bond_distance
_geom_bond_site_symmetry_2
Li0 O11 1.986296 1_545
Li0 O6 2.052647 1_555
Li0 O8 2.084735 1_555
Li0 O8 2.085565 1_655
Li0 O3 2.253532 1_545
Li0 O3 2.254075 1_645
Li1 O10 1.986205 1_555
Li1 O7 2.052645 1_555
Li1 O9 2.084749 1_555
Li1 O9 2.085577 1_655
Li1 O2 2.253607 1_555
Li1 O2 2.254146 1_655
Li2 O9 1.986046 1_555
Li2 O4 2.052606 1_555
Li2 O10 2.085682 1_455
Li2 O10 2.086410 1_555
Li2 O1 2.253347 1_455
Li2 O1 2.254417 1_555
Li3 O8 1.986112 1_565
Li3 O5 2.052644 1_555
Li3 O11 2.085692 1_455
Li3 O11 2.086491 1_555
Li3 O0 2.253296 1_465
Li3 O0 2.254337 1_565
Mn0 O0 1.945396 1_455
Mn0 O0 1.945522 1_555
Mn0 O5 1.946332 1_545
Mn0 O6 1.946640 1_454
Mn0 O3 1.947698 1_444
Mn0 O3 1.948020 1_544
Mn1 O7 1.931811 1_555
Mn1 O7 1.931996 1_455
Mn1 O11 1.962105 1_555
Mn1 O11 1.962337 1_455
Mn1 O3 2.228179 1_555
Mn1 O9 2.542288 1_555
Mn2 O4 1.931842 1_555
Mn2 O4 1.932029 1_655
Mn2 O8 1.962191 1_555
Mn2 O8 1.962289 1_655
Mn2 O0 2.230148 1_555
Mn2 O10 2.541742 1_555
Mn3 O1 1.945290 1_555
Mn3 O1 1.945472 1_455
Mn3 O4 1.946161 1_555
Mn3 O7 1.946833 1_454
Mn3 O2 1.947906 1_554
Mn3 O2 1.947916 1_454
Mn4 O6 1.931745 1_455
Mn4 O6 1.931916 1_555
Mn4 O10 1.962245 1_455
Mn4 O10 1.962387 1_555
Mn4 O2 2.228132 1_555
Mn4 O8 2.542316 1_555
Mn5 O5 1.931773 1_555
Mn5 O5 1.931984 1_655
Mn5 O9 1.962206 1_555
Mn5 O9 1.962347 1_655
Mn5 O1 2.230051 1_555
Mn5 O11 2.541757 1_555
