# generated using pymatgen
data_Li4Co3O7
_symmetry_space_group_name_H-M   'P 1'
_cell_length_a   5.08545800
_cell_length_b   5.13142153
_cell_length_c   10.33392417
_cell_angle_alpha   84.96672674
_cell_angle_beta   76.61225533
_cell_angle_gamma   70.44622270
_symmetry_Int_Tables_number   1
_chemical_formula_structural   Li4Co3O7
_chemical_formula_sum   'Li8 Co6 O14'
_cell_volume   247.19679813
_cell_formula_units_Z   2
loop_
 _symmetry_equiv_pos_site_id
 _symmetry_equiv_pos_as_xyz
  1  'x, y, z'
loop_
 _atom_site_type_symbol
 _atom_site_label
 _atom_site_symmetry_multiplicity
 _atom_site_fract_x
 _atom_site_fract_y
 _atom_site_fract_z
 _atom_site_occupancy
  Li  Li0  1  0.00000000  0.50000000  0.50000000  1
  Li  Li1  1  0.57186000  0.49801600  0.35903400  1
  Li  Li2  1  0.14233900  0.50136000  0.21488000  1
  Li  Li3  1  0.71622100  0.50061000  0.06900400  1
  Li  Li4  1  0.28377900  0.49939000  0.93099600  1
  Li  Li5  1  0.85766100  0.49864000  0.78512000  1
  Li  Li6  1  0.42814000  0.50198400  0.64096600  1
  Li  Li7  1  0.50000000  0.00000000  0.50000000  1
  Co  Co0  1  0.92449000  0.99967100  0.63889100  1
  Co  Co1  1  0.07551000  0.00032900  0.36110900  1
  Co  Co2  1  0.64015400  0.99549000  0.22191400  1
  Co  Co3  1  0.21372300  0.00060700  0.06964500  1
  Co  Co4  1  0.78627700  0.99939300  0.93035500  1
  Co  Co5  1  0.35984600  0.00451000  0.77808600  1
  O  O0  1  0.69545300  0.77821100  0.64715900  1
  O  O1  1  0.21592600  0.77761200  0.49837300  1
  O  O2  1  0.83322900  0.78092700  0.35039500  1
  O  O3  1  0.37697000  0.77287100  0.22324700  1
  O  O4  1  0.96074300  0.76364800  0.06616300  1
  O  O5  1  0.51947400  0.77029700  0.92933500  1
  O  O6  1  0.09240100  0.77685500  0.77762300  1
  O  O7  1  0.30454700  0.22178900  0.35284100  1
  O  O8  1  0.90759900  0.22314500  0.22237700  1
  O  O9  1  0.48052600  0.22970300  0.07066500  1
  O  O10  1  0.03925700  0.23635200  0.93383700  1
  O  O11  1  0.62303000  0.22712900  0.77675300  1
  O  O12  1  0.16677100  0.21907300  0.64960500  1
  O  O13  1  0.78407400  0.22238800  0.50162700  1
loop_
_geom_bond_atom_site_label_1
_geom_bond_atom_site_label_2
_geom_bond_distance
_geom_bond_site_symmetry_2
Li0 O1 2.066334 1_555
Li0 O13 2.066334 1_455
Li0 O7 2.135327 1_555
Li0 O0 2.135327 1_455
Li0 O2 2.141318 1_455
Li0 O12 2.141318 1_555
Li1 O3 2.074022 1_555
Li1 O8 2.125995 1_555
Li1 O13 2.164584 1_555
Li1 O1 2.196675 1_555
Li1 O2 2.257475 1_555
Li1 O7 2.281938 1_555
Li2 O7 2.040751 1_555
Li2 O2 2.076964 1_455
Li2 O4 2.118596 1_455
Li2 O8 2.132553 1_455
Li2 O3 2.134019 1_555
Li2 O9 2.166765 1_555
Li3 O10 2.065719 1_654
Li3 O5 2.095429 1_554
Li3 O4 2.113924 1_555
Li3 O9 2.114498 1_555
Li3 O8 2.208444 1_555
Li3 O3 2.229986 1_555
Li4 O4 2.065719 1_456
Li4 O9 2.095429 1_556
Li4 O10 2.113924 1_555
Li4 O5 2.114498 1_555
Li4 O6 2.208444 1_555
Li4 O11 2.229986 1_555
Li5 O0 2.040751 1_555
Li5 O12 2.076964 1_655
Li5 O10 2.118596 1_655
Li5 O6 2.132553 1_655
Li5 O11 2.134019 1_555
Li5 O5 2.166765 1_555
Li6 O11 2.074022 1_555
Li6 O6 2.125995 1_555
Li6 O1 2.164584 1_555
Li6 O13 2.196675 1_555
Li6 O12 2.257475 1_555
Li6 O0 2.281938 1_555
Li7 O7 2.057888 1_555
Li7 O0 2.057888 1_545
Li7 O2 2.083784 1_545
Li7 O12 2.083784 1_555
Li7 O1 2.123133 1_545
Li7 O13 2.123133 1_555
Co0 O13 1.861834 1_565
Co0 O0 1.865013 1_555
Co0 O6 1.928086 1_655
Co0 O1 1.940839 1_655
Co0 O12 1.952298 1_665
Co0 O11 1.955719 1_565
Co1 O1 1.861834 1_545
Co1 O7 1.865013 1_555
Co1 O8 1.928086 1_455
Co1 O13 1.940839 1_455
Co1 O2 1.952298 1_445
Co1 O3 1.955719 1_545
Co2 O2 1.887505 1_555
Co2 O7 1.992896 1_565
Co2 O3 2.026980 1_555
Co2 O9 2.037462 1_565
Co2 O8 2.069312 1_565
Co2 O4 2.118116 1_555
Co3 O10 1.944343 1_554
Co3 O5 1.985782 1_544
Co3 O8 2.051124 1_455
Co3 O3 2.051767 1_545
Co3 O4 2.052115 1_445
Co3 O9 2.073540 1_555
Co4 O4 1.944343 1_556
Co4 O9 1.985782 1_566
Co4 O6 2.051124 1_655
Co4 O11 2.051767 1_565
Co4 O10 2.052115 1_665
Co4 O5 2.073540 1_555
Co5 O12 1.887505 1_555
Co5 O0 1.992896 1_545
Co5 O11 2.026980 1_555
Co5 O5 2.037462 1_545
Co5 O6 2.069312 1_545
Co5 O10 2.118116 1_555
