# generated using pymatgen
data_BeAlPt2
_symmetry_space_group_name_H-M   'P 1'
_cell_length_a   9.93700146
_cell_length_b   9.93700146
_cell_length_c   9.93700146
_cell_angle_alpha   127.55910442
_cell_angle_beta   117.35784954
_cell_angle_gamma   86.03620929
_symmetry_Int_Tables_number   1
_chemical_formula_structural   BeAlPt2
_chemical_formula_sum   'Be1 Al1 Pt2'
_cell_volume   659.08430910
_cell_formula_units_Z   1
loop_
 _symmetry_equiv_pos_site_id
 _symmetry_equiv_pos_as_xyz
  1  'x, y, z'
loop_
 _atom_site_type_symbol
 _atom_site_label
 _atom_site_symmetry_multiplicity
 _atom_site_fract_x
 _atom_site_fract_y
 _atom_site_fract_z
 _atom_site_occupancy
  Be  Be0  1  0.00000000  0.00000000  0.00000000  1
  Al  Al0  1  0.00000000  0.50000000  0.50000000  1
  Pt  Pt0  1  0.00000000  0.23774800  0.23774800  1
  Pt  Pt1  1  0.00000000  0.76225200  0.76225200  1
loop_
_geom_bond_atom_site_label_1
_geom_bond_atom_site_label_2
_geom_bond_distance
_geom_bond_site_symmetry_2
Be0 Pt1 2.087630 1_544
Be0 Pt0 2.087630 1_555
Al0 Pt0 2.302796 1_555
Al0 Pt1 2.302796 1_555
