# generated using pymatgen
data_LiFe2(PO4)2
_symmetry_space_group_name_H-M   'P 1'
_cell_length_a   5.41476000
_cell_length_b   6.36602400
_cell_length_c   8.15662900
_cell_angle_alpha   90.00000000
_cell_angle_beta   90.00000000
_cell_angle_gamma   90.00000000
_symmetry_Int_Tables_number   1
_chemical_formula_structural   LiFe2(PO4)2
_chemical_formula_sum   'Li2 Fe4 P4 O16'
_cell_volume   281.16301562
_cell_formula_units_Z   2
loop_
 _symmetry_equiv_pos_site_id
 _symmetry_equiv_pos_as_xyz
  1  'x, y, z'
loop_
 _atom_site_type_symbol
 _atom_site_label
 _atom_site_symmetry_multiplicity
 _atom_site_fract_x
 _atom_site_fract_y
 _atom_site_fract_z
 _atom_site_occupancy
  Li  Li0  1  0.50000000  0.00674300  0.42063700  1
  Li  Li1  1  0.00000000  0.99325700  0.92063700  1
  Fe  Fe0  1  0.50000000  0.74143100  0.75033200  1
  Fe  Fe1  1  0.00000000  0.25856900  0.25033200  1
  Fe  Fe2  1  0.50000000  0.26234400  0.75490000  1
  Fe  Fe3  1  0.00000000  0.73765600  0.25490000  1
  P  P0  1  0.50000000  0.51255600  0.40043600  1
  P  P1  1  0.00000000  0.48744400  0.90043600  1
  P  P2  1  0.50000000  0.98706500  0.09401200  1
  P  P3  1  0.00000000  0.01293500  0.59401200  1
  O  O0  1  0.50000000  0.71340800  0.50390100  1
  O  O1  1  0.00000000  0.68988900  0.00657500  1
  O  O2  1  0.73559100  0.51329300  0.28831600  1
  O  O3  1  0.26440900  0.51329300  0.28831600  1
  O  O4  1  0.23559100  0.48670700  0.78831600  1
  O  O5  1  0.76440900  0.48670700  0.78831600  1
  O  O6  1  0.50000000  0.31011100  0.50657500  1
  O  O7  1  0.00000000  0.28659200  0.00390100  1
  O  O8  1  0.50000000  0.18700700  0.98935100  1
  O  O9  1  0.00000000  0.20897200  0.49059900  1
  O  O10  1  0.73219500  0.98762800  0.21342300  1
  O  O11  1  0.26780500  0.98762800  0.21342300  1
  O  O12  1  0.23219500  0.01237200  0.71342300  1
  O  O13  1  0.76780500  0.01237200  0.71342300  1
  O  O14  1  0.50000000  0.79102800  0.99059900  1
  O  O15  1  0.00000000  0.81299300  0.48935100  1
loop_
_geom_bond_atom_site_label_1
_geom_bond_atom_site_label_2
_geom_bond_distance
_geom_bond_site_symmetry_2
Li0 O0 1.987045 1_545
Li0 O6 2.054524 1_555
Li0 O10 2.110030 1_545
Li0 O11 2.110030 1_545
Li1 O7 1.987045 1_566
Li1 O1 2.054524 1_556
Li1 O12 2.110030 1_565
Li1 O13 2.110030 1_465
Fe0 O14 1.985040 1_555
Fe0 O0 2.017947 1_555
Fe0 O4 2.185247 1_555
Fe0 O5 2.185247 1_555
Fe0 O13 2.273415 1_565
Fe0 O12 2.273415 1_565
Fe1 O9 1.985040 1_555
Fe1 O7 2.017947 1_555
Fe1 O3 2.185247 1_555
Fe1 O2 2.185247 1_455
Fe1 O11 2.273415 1_545
Fe1 O10 2.273415 1_445
Fe2 O8 1.971552 1_555
Fe2 O4 2.040620 1_555
Fe2 O5 2.040620 1_555
Fe2 O6 2.048194 1_555
Fe2 O13 2.179351 1_555
Fe2 O12 2.179351 1_555
Fe3 O15 1.971552 1_555
Fe3 O2 2.040620 1_455
Fe3 O3 2.040620 1_555
Fe3 O1 2.048194 1_555
Fe3 O11 2.179351 1_555
Fe3 O10 2.179351 1_455
O0 P0 1.532025 1_555
O1 P1 1.552555 1_554
O2 P0 1.569618 1_555
O3 P0 1.569618 1_555
O4 P1 1.569618 1_555
O5 P1 1.569618 1_655
O6 P0 1.552555 1_555
O7 P1 1.532025 1_554
O8 P2 1.532606 1_546
O9 P3 1.506300 1_555
O10 P2 1.590417 1_555
O11 P2 1.590417 1_555
O12 P3 1.590417 1_555
O13 P3 1.590417 1_655
O14 P2 1.506300 1_556
O15 P3 1.532606 1_565
