# generated using pymatgen
data_ZrVCo
_symmetry_space_group_name_H-M   'P 1'
_cell_length_a   5.11037673
_cell_length_b   5.10795817
_cell_length_c   8.05905300
_cell_angle_alpha   90.00000000
_cell_angle_beta   90.00000000
_cell_angle_gamma   59.98570761
_symmetry_Int_Tables_number   1
_chemical_formula_structural   ZrVCo
_chemical_formula_sum   'Zr4 V4 Co4'
_cell_volume   182.15971089
_cell_formula_units_Z   4
loop_
 _symmetry_equiv_pos_site_id
 _symmetry_equiv_pos_as_xyz
  1  'x, y, z'
loop_
 _atom_site_type_symbol
 _atom_site_label
 _atom_site_symmetry_multiplicity
 _atom_site_fract_x
 _atom_site_fract_y
 _atom_site_fract_z
 _atom_site_occupancy
  Zr  Zr0  1  0.33587700  0.32825300  0.57195300  1
  Zr  Zr1  1  0.66689900  0.66622900  0.44666200  1
  Zr  Zr2  1  0.66689900  0.66622900  0.05333800  1
  Zr  Zr3  1  0.33587700  0.32825300  0.92804700  1
  V  V0  1  0.65924400  0.17811400  0.25000000  1
  V  V1  1  0.16271200  0.17802400  0.25000000  1
  V  V2  1  0.00345700  0.99302300  0.51218500  1
  V  V3  1  0.00345700  0.99302300  0.98781500  1
  Co  Co0  1  0.82801500  0.34390000  0.75000000  1
  Co  Co1  1  0.33945900  0.82885200  0.75000000  1
  Co  Co2  1  0.83176100  0.82871800  0.75000000  1
  Co  Co3  1  0.16634400  0.66738200  0.25000000  1
loop_
_geom_bond_atom_site_label_1
_geom_bond_atom_site_label_2
_geom_bond_distance
_geom_bond_site_symmetry_2
Zr0 Zr3 2.869780 1_555
Zr0 Zr1 3.097329 1_545
Zr0 Zr1 3.127790 1_455
Zr0 Zr1 3.127815 1_555
Zr1 Zr2 3.169819 1_555
Zr2 Zr3 3.097329 1_564
Zr2 Zr3 3.127790 1_654
Zr2 Zr3 3.127815 1_554
V0 V1 2.537696 1_555
V0 V1 2.572681 1_655
V0 V2 2.605562 1_645
V0 V3 2.605562 1_644
V0 Zr3 2.963655 1_554
V0 Zr0 2.963655 1_555
V0 Zr2 2.971102 1_555
V0 Zr1 2.971102 1_555
V0 Zr2 3.041008 1_545
V0 Zr1 3.041008 1_545
V1 V3 2.605639 1_544
V1 V2 2.605639 1_545
V1 Zr3 2.963691 1_554
V1 Zr0 2.963691 1_555
V1 Zr1 2.971432 1_455
V1 Zr2 2.971432 1_455
V1 Zr2 3.040761 1_545
V1 Zr1 3.040761 1_545
V2 Zr0 2.979460 1_555
V2 Zr1 2.982561 1_455
V2 Zr1 2.983014 1_555
V2 Zr0 2.993111 1_465
V2 Zr0 2.993356 1_565
V2 Zr1 3.024040 1_465
V3 Zr3 2.979460 1_555
V3 Zr2 2.982561 1_456
V3 Zr2 2.983014 1_556
V3 Zr3 2.993111 1_465
V3 Zr3 2.993356 1_565
V3 Zr2 3.024040 1_466
Co0 V2 2.466107 1_645
Co0 V3 2.466107 1_645
Co0 Co2 2.486061 1_555
Co0 Co1 2.486431 1_555
Co0 Co1 2.621733 1_645
Co0 Co2 2.622005 1_545
Co0 Zr1 2.829955 1_555
Co0 Zr2 2.829955 1_556
Co0 Zr0 2.931156 1_555
Co0 Zr3 2.931156 1_555
Co0 Zr0 2.931501 1_655
Co0 Zr3 2.931501 1_655
Co1 V3 2.425760 1_555
Co1 V2 2.425760 1_555
Co1 Co2 2.515506 1_555
Co1 Co2 2.594870 1_455
Co1 Zr1 2.841767 1_555
Co1 Zr2 2.841767 1_556
Co1 Zr3 2.918856 1_565
Co1 Zr0 2.918856 1_565
Co1 Zr3 2.940156 1_555
Co1 Zr0 2.940156 1_555
Co2 V2 2.425733 1_655
Co2 V3 2.425733 1_655
Co2 Zr1 2.841553 1_555
Co2 Zr2 2.841553 1_556
Co2 Zr3 2.919346 1_565
Co2 Zr0 2.919346 1_565
Co2 Zr0 2.939761 1_655
Co2 Zr3 2.939761 1_655
Co3 V0 2.508549 1_555
Co3 V1 2.508956 1_555
Co3 V2 2.557165 1_555
Co3 V3 2.557165 1_554
Co3 V1 2.599103 1_565
Co3 V0 2.599616 1_465
Co3 Zr3 2.997003 1_554
Co3 Zr0 2.997003 1_555
Co3 Zr2 3.006724 1_555
Co3 Zr1 3.006724 1_555
Co3 Zr1 3.006911 1_455
Co3 Zr2 3.006911 1_455
