# generated using pymatgen
data_EuPaO4
_symmetry_space_group_name_H-M   'P 1'
_cell_length_a   3.81125906
_cell_length_b   3.81126008
_cell_length_c   5.46626558
_cell_angle_alpha   90.00000000
_cell_angle_beta   90.00000000
_cell_angle_gamma   90.00000000
_symmetry_Int_Tables_number   1
_chemical_formula_structural   EuPaO4
_chemical_formula_sum   'Eu1 Pa1 O4'
_cell_volume   79.40133126
_cell_formula_units_Z   1
loop_
 _symmetry_equiv_pos_site_id
 _symmetry_equiv_pos_as_xyz
  1  'x, y, z'
loop_
 _atom_site_type_symbol
 _atom_site_label
 _atom_site_symmetry_multiplicity
 _atom_site_fract_x
 _atom_site_fract_y
 _atom_site_fract_z
 _atom_site_occupancy
  Eu  Eu0  1  -0.00000000  -0.00000000  -0.00000000  1
  Pa  Pa0  1  0.50000000  0.50000000  0.50000000  1
  O  O0  1  0.50000000  0.00000000  0.73474537  1
  O  O1  1  -0.00000000  0.50000000  0.26525463  1
  O  O2  1  0.50000000  -0.00000000  0.26525463  1
  O  O3  1  -0.00000000  0.50000000  0.73474537  1
loop_
_geom_bond_atom_site_label_1
_geom_bond_atom_site_label_2
_geom_bond_distance
_geom_bond_site_symmetry_2
Eu0 O0 2.394532 1_454
Eu0 O2 2.394532 1_455
Eu0 O2 2.394532 1_555
Eu0 O0 2.394532 1_554
Eu0 O1 2.394533 1_555
Eu0 O3 2.394533 1_544
Eu0 O1 2.394533 1_545
Eu0 O3 2.394533 1_554
O0 Pa0 2.297385 1_555
O0 Pa0 2.297385 1_545
O1 Pa0 2.297385 1_555
O1 Pa0 2.297385 1_455
O2 Pa0 2.297385 1_555
O2 Pa0 2.297385 1_545
O3 Pa0 2.297385 1_455
O3 Pa0 2.297385 1_555
