# generated using pymatgen
data_LiDySn
_symmetry_space_group_name_H-M   'P 1'
_cell_length_a   9.36957391
_cell_length_b   9.36957391
_cell_length_c   7.33331300
_cell_angle_alpha   90.00000000
_cell_angle_beta   90.00000000
_cell_angle_gamma   119.99999935
_symmetry_Int_Tables_number   1
_chemical_formula_structural   LiDySn
_chemical_formula_sum   'Li8 Dy8 Sn8'
_cell_volume   557.53294989
_cell_formula_units_Z   8
loop_
 _symmetry_equiv_pos_site_id
 _symmetry_equiv_pos_as_xyz
  1  'x, y, z'
loop_
 _atom_site_type_symbol
 _atom_site_label
 _atom_site_symmetry_multiplicity
 _atom_site_fract_x
 _atom_site_fract_y
 _atom_site_fract_z
 _atom_site_occupancy
  Li  Li0  1  0.16610400  0.33220800  0.28881000  1
  Li  Li1  1  0.16610400  0.83389600  0.28881000  1
  Li  Li2  1  0.66779200  0.83389600  0.28881000  1
  Li  Li3  1  0.83389600  0.66779200  0.78881000  1
  Li  Li4  1  0.83389600  0.16610400  0.78881000  1
  Li  Li5  1  0.33220800  0.16610400  0.78881000  1
  Li  Li6  1  0.33333300  0.66666700  0.66131700  1
  Li  Li7  1  0.66666700  0.33333300  0.16131700  1
  Dy  Dy0  1  0.51344300  0.02688500  0.49505400  1
  Dy  Dy1  1  0.51344300  0.48655700  0.49505400  1
  Dy  Dy2  1  0.97311500  0.48655700  0.49505400  1
  Dy  Dy3  1  0.48655700  0.97311500  0.99505400  1
  Dy  Dy4  1  0.48655700  0.51344300  0.99505400  1
  Dy  Dy5  1  0.02688500  0.51344300  0.99505400  1
  Dy  Dy6  1  0.00000000  0.00000000  0.50280100  1
  Dy  Dy7  1  0.00000000  0.00000000  0.00280100  1
  Sn  Sn0  1  0.16733700  0.33467400  0.73012900  1
  Sn  Sn1  1  0.16733700  0.83266300  0.73012900  1
  Sn  Sn2  1  0.66532600  0.83266300  0.73012900  1
  Sn  Sn3  1  0.83266300  0.66532600  0.23012900  1
  Sn  Sn4  1  0.83266300  0.16733700  0.23012900  1
  Sn  Sn5  1  0.33467400  0.16733700  0.23012900  1
  Sn  Sn6  1  0.33333300  0.66666700  0.26490100  1
  Sn  Sn7  1  0.66666700  0.33333300  0.76490100  1
loop_
_geom_bond_atom_site_label_1
_geom_bond_atom_site_label_2
_geom_bond_distance
_geom_bond_site_symmetry_2
Li0 Sn6 2.719555 1_555
Li0 Sn5 2.739699 1_555
Li0 Sn4 2.739699 1_455
Li0 Sn0 3.236392 1_555
Li1 Sn6 2.719547 1_555
Li1 Sn5 2.739699 1_565
Li1 Sn3 2.739699 1_455
Li1 Sn1 3.236392 1_555
Li2 Sn6 2.719555 1_555
Li2 Sn3 2.739699 1_555
Li2 Sn4 2.739699 1_565
Li2 Sn2 3.236392 1_555
Li3 Sn7 2.719555 1_555
Li3 Sn2 2.739699 1_555
Li3 Sn1 2.739699 1_655
Li3 Sn3 3.236392 1_556
Li4 Sn7 2.719547 1_555
Li4 Sn0 2.739699 1_655
Li4 Sn2 2.739699 1_545
Li4 Sn4 3.236392 1_556
Li5 Sn7 2.719555 1_555
Li5 Sn0 2.739699 1_555
Li5 Sn1 2.739699 1_545
Li5 Sn5 3.236392 1_556
Li6 Sn1 2.740734 1_555
Li6 Sn2 2.740742 1_555
Li6 Sn0 2.740742 1_555
Li6 Sn6 2.907043 1_555
Li7 Sn4 2.740734 1_555
Li7 Sn3 2.740742 1_555
Li7 Sn5 2.740742 1_555
Li7 Sn7 2.907043 1_554
Dy0 Li6 3.167019 1_545
Dy0 Sn7 3.177917 1_555
Dy0 Li2 3.203695 1_545
Dy0 Li1 3.203702 1_545
Dy0 Sn4 3.242833 1_555
Dy0 Sn5 3.242840 1_555
Dy0 Sn2 3.301240 1_545
Dy0 Sn1 3.301247 1_545
Dy0 Sn6 3.375209 1_545
Dy0 Li4 3.382400 1_555
Dy0 Li5 3.382407 1_555
Dy0 Li7 3.488979 1_555
Dy0 Dy3 3.692524 1_544
Dy0 Dy3 3.692524 1_545
Dy1 Li6 3.167034 1_555
Dy1 Sn7 3.177917 1_555
Dy1 Li0 3.203703 1_555
Dy1 Li2 3.203703 1_555
Dy1 Sn3 3.242834 1_555
Dy1 Sn5 3.242834 1_555
Dy1 Sn2 3.301248 1_555
Dy1 Sn0 3.301248 1_555
Dy1 Sn6 3.375223 1_555
Dy1 Li5 3.382401 1_555
Dy1 Li3 3.382401 1_555
Dy1 Li7 3.488979 1_555
Dy1 Dy4 3.692526 1_554
Dy1 Dy4 3.692526 1_555
Dy2 Li6 3.167019 1_655
Dy2 Sn7 3.177917 1_555
Dy2 Li0 3.203695 1_655
Dy2 Li1 3.203702 1_655
Dy2 Sn4 3.242833 1_555
Dy2 Sn3 3.242840 1_555
Dy2 Sn0 3.301240 1_655
Dy2 Sn1 3.301247 1_655
Dy2 Sn6 3.375209 1_655
Dy2 Li4 3.382400 1_555
Dy2 Li3 3.382407 1_555
Dy2 Li7 3.488979 1_555
Dy2 Dy5 3.692524 1_655
Dy2 Dy5 3.692524 1_654
Dy3 Li7 3.167019 1_566
Dy3 Sn6 3.177917 1_556
Dy3 Li5 3.203695 1_565
Dy3 Li4 3.203702 1_565
Dy3 Sn1 3.242833 1_555
Dy3 Sn2 3.242840 1_555
Dy3 Sn5 3.301240 1_566
Dy3 Sn4 3.301247 1_566
Dy3 Sn7 3.375209 1_565
Dy3 Li1 3.382400 1_556
Dy3 Li2 3.382407 1_556
Dy3 Li6 3.488979 1_555
Dy4 Li7 3.167034 1_556
Dy4 Sn6 3.177917 1_556
Dy4 Li5 3.203703 1_555
Dy4 Li3 3.203703 1_555
Dy4 Sn2 3.242834 1_555
Dy4 Sn0 3.242834 1_555
Dy4 Sn3 3.301248 1_556
Dy4 Sn5 3.301248 1_556
Dy4 Sn7 3.375223 1_555
Dy4 Li0 3.382401 1_556
Dy4 Li2 3.382401 1_556
Dy4 Li6 3.488979 1_555
Dy5 Li7 3.167019 1_456
Dy5 Sn6 3.177917 1_556
Dy5 Li3 3.203695 1_455
Dy5 Li4 3.203702 1_455
Dy5 Sn1 3.242833 1_555
Dy5 Sn0 3.242840 1_555
Dy5 Sn3 3.301240 1_456
Dy5 Sn4 3.301247 1_456
Dy5 Sn7 3.375209 1_455
Dy5 Li1 3.382400 1_556
Dy5 Li0 3.382407 1_556
Dy5 Li6 3.488979 1_555
Dy6 Li1 3.119137 1_545
Dy6 Li0 3.119137 1_555
Dy6 Li2 3.119137 1_445
Dy6 Sn1 3.186506 1_545
Dy6 Sn0 3.186506 1_555
Dy6 Sn2 3.186506 1_445
Dy6 Sn4 3.372398 1_455
Dy6 Sn5 3.372398 1_555
Dy6 Sn3 3.372398 1_445
Dy6 Li4 3.415478 1_455
Dy6 Li5 3.415478 1_555
Dy6 Li3 3.415478 1_445
Dy6 Dy7 3.666656 1_556
Dy6 Dy7 3.666657 1_555
Dy7 Li4 3.119137 1_454
Dy7 Li5 3.119137 1_554
Dy7 Li3 3.119137 1_444
Dy7 Sn4 3.186506 1_455
Dy7 Sn5 3.186506 1_555
Dy7 Sn3 3.186506 1_445
Dy7 Sn1 3.372398 1_544
Dy7 Sn0 3.372398 1_554
Dy7 Sn2 3.372398 1_444
Dy7 Li1 3.415478 1_545
Dy7 Li0 3.415478 1_555
Dy7 Li2 3.415478 1_445
