# generated using pymatgen
data_Ba6Mg(IrO3)6
_symmetry_space_group_name_H-M   'P 1'
_cell_length_a   5.70269445
_cell_length_b   5.98852681
_cell_length_c   15.04668128
_cell_angle_alpha   83.50763614
_cell_angle_beta   90.17382868
_cell_angle_gamma   118.80281970
_symmetry_Int_Tables_number   1
_chemical_formula_structural   Ba6Mg(IrO3)6
_chemical_formula_sum   'Ba6 Mg1 Ir6 O18'
_cell_volume   446.61331480
_cell_formula_units_Z   1
loop_
 _symmetry_equiv_pos_site_id
 _symmetry_equiv_pos_as_xyz
  1  'x, y, z'
loop_
 _atom_site_type_symbol
 _atom_site_label
 _atom_site_symmetry_multiplicity
 _atom_site_fract_x
 _atom_site_fract_y
 _atom_site_fract_z
 _atom_site_occupancy
  Ba  Ba0  1  0.00633008  0.99391285  0.75040373  1
  Ba  Ba1  1  0.05282168  0.15390650  0.27935184  1
  Ba  Ba2  1  0.31080694  0.61863203  0.89960600  1
  Ba  Ba3  1  0.34961158  0.68855775  0.59030996  1
  Ba  Ba4  1  0.61879092  0.22416338  0.05757864  1
  Ba  Ba5  1  0.70182587  0.42026598  0.42384082  1
  Mg  Mg0  1  0.85317325  0.71507300  0.17125819  1
  Ir  Ir0  1  0.94903824  0.89741539  0.99277767  1
  Ir  Ir1  1  0.02592167  0.05194015  0.50478627  1
  Ir  Ir2  1  0.34122069  0.69038717  0.16090619  1
  Ir  Ir3  1  0.37569830  0.76456612  0.34922217  1
  Ir  Ir4  1  0.65278295  0.30511466  0.83754809  1
  Ir  Ir5  1  0.67262810  0.34155401  0.65304089  1
  O  O0  1  0.22340685  0.42230529  0.44131957  1
  O  O1  1  0.58938957  0.67070748  0.06913638  1
  O  O2  1  0.82971415  0.68069543  0.56580967  1
  O  O3  1  0.31807225  0.06529565  0.92300545  1
  O  O4  1  0.06133995  0.66032588  0.07195743  1
  O  O5  1  0.16073839  0.91020628  0.40835534  1
  O  O6  1  0.87120785  0.15876400  0.91201171  1
  O  O7  1  0.88820213  0.18544234  0.59951078  1
  O  O8  1  0.69023816  0.97149143  0.42939046  1
  O  O9  1  0.04444765  0.08799819  0.10111759  1
  O  O10  1  0.35638087  0.13195195  0.57692975  1
  O  O11  1  0.80061603  0.63310080  0.89935360  1
  O  O12  1  0.49566981  0.45838785  0.74200218  1
  O  O13  1  0.55135401  0.61843555  0.26522883  1
  O  O14  1  0.52571027  0.03473172  0.75222255  1
  O  O15  1  0.96324100  0.49038329  0.74330223  1
  O  O16  1  0.49700275  0.01328580  0.23869674  1
  O  O17  1  0.05595005  0.60767206  0.26412628  1
loop_
_geom_bond_atom_site_label_1
_geom_bond_atom_site_label_2
_geom_bond_distance
_geom_bond_site_symmetry_2
Ba0 O7 2.659059 1_465
Ba0 O11 2.747049 1_455
Ba0 O12 2.825466 1_565
Ba0 O14 2.852459 1_565
Ba0 O14 2.867089 1_465
Ba0 O15 2.919445 1_455
Ba0 O6 2.961182 1_465
Ba0 O10 3.071650 1_565
Ba0 O15 3.089215 1_465
Ba0 O3 3.094964 1_565
Ba0 O12 3.141915 1_455
Ba0 O2 3.404138 1_455
Ba1 O5 2.548323 1_545
Ba1 O17 2.692494 1_555
Ba1 O9 2.751496 1_555
Ba1 O8 2.803482 1_445
Ba1 O13 2.848776 1_555
Ba1 O16 2.943269 1_455
Ba1 O0 2.972190 1_555
Ba1 Mg0 2.986647 1_445
Ba1 O16 3.111418 1_555
Ba1 O13 3.133690 1_445
Ba1 Ir2 3.135967 1_555
Ba1 O17 3.313440 1_545
Ba2 O6 2.671635 1_455
Ba2 O3 2.717837 1_565
Ba2 O11 2.752534 1_555
Ba2 O14 2.907442 1_565
Ba2 O11 2.952164 1_455
Ba2 O1 2.967486 1_556
Ba2 O15 2.993824 1_455
Ba2 O12 3.026628 1_555
Ba2 O4 3.053296 1_556
Ba2 O6 3.298895 1_565
Ba2 O3 3.312771 1_555
Ba3 O10 2.621624 1_565
Ba3 O2 2.787178 1_555
Ba3 O0 2.789046 1_555
Ba3 O12 2.861228 1_555
Ba3 O7 2.879089 1_455
Ba3 O8 2.904507 1_555
Ba3 O15 2.907886 1_455
Ba3 O2 2.964968 1_455
Ba3 O7 3.096931 1_565
Ba3 O14 3.219106 1_565
Ba3 O5 3.309911 1_555
Ba3 O10 3.380586 1_555
Ba4 O3 2.605497 1_554
Ba4 O4 2.647820 1_655
Ba4 O1 2.783302 1_555
Ba4 O6 2.789119 1_554
Ba4 O16 2.809282 1_555
Ba4 O9 2.960266 1_655
Ba4 O11 2.998351 1_554
Ba4 O9 3.023308 1_555
Ba5 O8 2.648045 1_545
Ba5 O2 2.678679 1_555
Ba5 O0 2.747726 1_555
Ba5 O5 2.821676 1_655
Ba5 O10 2.831700 1_555
Ba5 O13 2.858114 1_555
Ba5 O17 2.889399 1_655
Ba5 O0 2.979505 1_655
Ba5 O5 3.159136 1_545
Ba5 O7 3.267496 1_555
Ba5 O8 3.343754 1_555
Mg0 O13 2.041209 1_555
Mg0 O17 2.051122 1_655
Mg0 O4 2.060526 1_655
Mg0 O1 2.094695 1_555
Mg0 O9 2.101856 1_665
Ir0 O9 2.018173 1_666
Ir0 O3 2.068276 1_665
Ir0 O4 2.081935 1_656
Ir0 O1 2.085228 1_556
Ir0 O6 2.087904 1_565
Ir0 O11 2.098305 1_555
Ir1 O7 2.038858 1_455
Ir1 O2 2.045801 1_445
Ir1 O10 2.048030 1_555
Ir1 O0 2.054309 1_555
Ir1 O5 2.081076 1_545
Ir1 O8 2.098901 1_445
Ir2 O1 2.032938 1_555
Ir2 O4 2.033664 1_555
Ir2 O17 2.090197 1_555
Ir2 O13 2.102096 1_555
Ir2 O16 2.179136 1_565
Ir3 O16 1.979070 1_565
Ir3 O5 2.065767 1_555
Ir3 O8 2.095512 1_555
Ir3 O17 2.110486 1_555
Ir3 O13 2.113991 1_555
Ir3 O0 2.127283 1_555
Ir4 O14 2.032008 1_555
Ir4 O15 2.035455 1_555
Ir4 O12 2.048980 1_555
Ir4 O11 2.060629 1_555
Ir4 O3 2.077284 1_555
Ir4 O6 2.096768 1_555
Ir5 O12 2.049392 1_555
Ir5 O14 2.051650 1_555
Ir5 O15 2.054806 1_555
Ir5 O10 2.066588 1_555
Ir5 O2 2.073937 1_555
Ir5 O7 2.077933 1_555
