# generated using pymatgen
data_Rb2TaCuBr6
_symmetry_space_group_name_H-M   'P 1'
_cell_length_a   7.55828984
_cell_length_b   7.55828984
_cell_length_c   7.55828984
_cell_angle_alpha   60.00000000
_cell_angle_beta   60.00000000
_cell_angle_gamma   60.00000000
_symmetry_Int_Tables_number   1
_chemical_formula_structural   Rb2TaCuBr6
_chemical_formula_sum   'Rb2 Ta1 Cu1 Br6'
_cell_volume   305.32026308
_cell_formula_units_Z   1
loop_
 _symmetry_equiv_pos_site_id
 _symmetry_equiv_pos_as_xyz
  1  'x, y, z'
loop_
 _atom_site_type_symbol
 _atom_site_label
 _atom_site_symmetry_multiplicity
 _atom_site_fract_x
 _atom_site_fract_y
 _atom_site_fract_z
 _atom_site_occupancy
  Rb  Rb0  1  0.25000000  0.25000000  0.25000000  1
  Rb  Rb1  1  0.75000000  0.75000000  0.75000000  1
  Ta  Ta0  1  0.00000000  0.00000000  0.00000000  1
  Cu  Cu0  1  0.50000000  0.50000000  0.50000000  1
  Br  Br0  1  0.24764200  0.75235800  0.75235800  1
  Br  Br1  1  0.75235800  0.75235800  0.24764200  1
  Br  Br2  1  0.75235800  0.24764200  0.24764200  1
  Br  Br3  1  0.75235800  0.24764200  0.75235800  1
  Br  Br4  1  0.24764200  0.75235800  0.24764200  1
  Br  Br5  1  0.24764200  0.24764200  0.75235800  1
loop_
_geom_bond_atom_site_label_1
_geom_bond_atom_site_label_2
_geom_bond_distance
_geom_bond_site_symmetry_2
Br0 Ta0 2.647054 1_566
Br0 Cu0 2.697464 1_555
Br0 Rb0 3.779229 1_556
Br0 Rb1 3.779229 1_555
Br0 Rb1 3.779229 1_455
Br0 Rb0 3.779229 1_565
Br1 Ta0 2.647054 1_665
Br1 Cu0 2.697464 1_555
Br1 Rb1 3.779229 1_555
Br1 Rb1 3.779229 1_554
Br1 Rb0 3.779229 1_565
Br1 Rb0 3.779229 1_655
Br2 Ta0 2.647054 1_655
Br2 Cu0 2.697464 1_555
Br2 Rb0 3.779229 1_555
Br2 Rb1 3.779229 1_554
Br2 Rb0 3.779229 1_655
Br2 Rb1 3.779229 1_545
Br3 Ta0 2.647054 1_656
Br3 Cu0 2.697464 1_555
Br3 Rb0 3.779229 1_556
Br3 Rb1 3.779229 1_555
Br3 Rb0 3.779229 1_655
Br3 Rb1 3.779229 1_545
Br4 Ta0 2.647054 1_565
Br4 Cu0 2.697464 1_555
Br4 Rb0 3.779229 1_555
Br4 Rb1 3.779229 1_455
Br4 Rb1 3.779229 1_554
Br4 Rb0 3.779229 1_565
Br5 Ta0 2.647054 1_556
Br5 Cu0 2.697464 1_555
Br5 Rb0 3.779229 1_555
Br5 Rb0 3.779229 1_556
Br5 Rb1 3.779229 1_455
Br5 Rb1 3.779229 1_545
