# generated using pymatgen
data_Ce3(GeRh)4
_symmetry_space_group_name_H-M   'P 1'
_cell_length_a   12.96917389
_cell_length_b   12.96917389
_cell_length_c   12.96917389
_cell_angle_alpha   162.26308291
_cell_angle_beta   160.94699111
_cell_angle_gamma   26.14492484
_symmetry_Int_Tables_number   1
_chemical_formula_structural   Ce3(GeRh)4
_chemical_formula_sum   'Ce3 Ge4 Rh4'
_cell_volume   216.86613115
_cell_formula_units_Z   1
loop_
 _symmetry_equiv_pos_site_id
 _symmetry_equiv_pos_as_xyz
  1  'x, y, z'
loop_
 _atom_site_type_symbol
 _atom_site_label
 _atom_site_symmetry_multiplicity
 _atom_site_fract_x
 _atom_site_fract_y
 _atom_site_fract_z
 _atom_site_occupancy
  Ce  Ce0  1  0.35457000  0.85457000  0.50000000  1
  Ce  Ce1  1  0.64543000  0.14543000  0.50000000  1
  Ce  Ce2  1  0.00000000  0.00000000  0.00000000  1
  Ge  Ge0  1  0.19570700  0.69570700  0.50000000  1
  Ge  Ge1  1  0.80429300  0.30429300  0.50000000  1
  Ge  Ge2  1  0.45089200  0.45089200  0.00000000  1
  Ge  Ge3  1  0.54910800  0.54910800  0.00000000  1
  Rh  Rh0  1  0.09771100  0.59771100  0.50000000  1
  Rh  Rh1  1  0.90228900  0.40228900  0.50000000  1
  Rh  Rh2  1  0.25176100  0.25176100  0.00000000  1
  Rh  Rh3  1  0.74823900  0.74823900  0.00000000  1
loop_
_geom_bond_atom_site_label_1
_geom_bond_atom_site_label_2
_geom_bond_distance
_geom_bond_site_symmetry_2
Ce0 Ge2 3.149679 1_566
Ce0 Ge2 3.149679 1_555
Ce0 Rh1 3.171520 1_454
Ce0 Rh1 3.171520 1_555
Ce0 Rh1 3.171520 1_566
Ce0 Rh1 3.171520 1_465
Ce0 Ge1 3.196649 1_555
Ce0 Ge1 3.196649 1_566
Ce0 Ge1 3.196649 1_454
Ce0 Ge1 3.196649 1_465
Ce0 Rh2 3.277973 1_566
Ce0 Rh2 3.277973 1_555
Ce0 Rh3 3.438739 1_455
Ce0 Rh3 3.438739 1_556
Ce1 Ge3 3.149679 1_545
Ce1 Ge3 3.149679 1_556
Ce1 Rh0 3.171520 1_645
Ce1 Rh0 3.171520 1_656
Ce1 Rh0 3.171520 1_544
Ce1 Rh0 3.171520 1_555
Ce1 Ge0 3.196649 1_544
Ce1 Ge0 3.196649 1_555
Ce1 Ge0 3.196649 1_656
Ce1 Ge0 3.196649 1_645
Ce1 Rh3 3.277973 1_556
Ce1 Rh3 3.277973 1_545
Ce1 Rh2 3.438739 1_555
Ce1 Rh2 3.438739 1_656
Ce2 Rh0 3.176874 1_544
Ce2 Rh0 3.176874 1_555
Ce2 Rh1 3.176874 1_455
Ce2 Rh1 3.176874 1_444
Ce2 Ge3 3.185027 1_455
Ce2 Ge3 3.185027 1_556
Ce2 Ge3 3.185027 1_545
Ce2 Ge3 3.185027 1_444
Ce2 Ge2 3.185027 1_556
Ce2 Ge2 3.185027 1_545
Ce2 Ge2 3.185027 1_455
Ce2 Ge2 3.185027 1_444
Ge0 Rh2 2.450197 1_555
Ge0 Rh2 2.450197 1_566
Ge0 Rh0 2.475982 1_555
Ge0 Rh3 2.523671 1_455
Ge0 Rh3 2.523671 1_556
Ge1 Rh3 2.450197 1_556
Ge1 Rh3 2.450197 1_545
Ge1 Rh1 2.475982 1_555
Ge1 Rh2 2.523671 1_555
Ge1 Rh2 2.523671 1_656
Ge2 Rh1 2.472903 1_555
Ge2 Rh1 2.472903 1_454
Ge2 Ge3 2.481540 1_555
Ge3 Rh0 2.472903 1_655
Ge3 Rh0 2.472903 1_554
