# generated using pymatgen
data_MgFeP2O7
_symmetry_space_group_name_H-M   'P 1'
_cell_length_a   5.58321632
_cell_length_b   12.35081537
_cell_length_c   7.41655008
_cell_angle_alpha   83.47060856
_cell_angle_beta   86.71943290
_cell_angle_gamma   97.47672167
_symmetry_Int_Tables_number   1
_chemical_formula_structural   MgFeP2O7
_chemical_formula_sum   'Mg4 Fe4 P8 O28'
_cell_volume   502.43942543
_cell_formula_units_Z   4
loop_
 _symmetry_equiv_pos_site_id
 _symmetry_equiv_pos_as_xyz
  1  'x, y, z'
loop_
 _atom_site_type_symbol
 _atom_site_label
 _atom_site_symmetry_multiplicity
 _atom_site_fract_x
 _atom_site_fract_y
 _atom_site_fract_z
 _atom_site_occupancy
  Mg  Mg0  1  0.65898000  0.32836300  0.65173800  1
  Mg  Mg1  1  0.15885000  0.82834900  0.65190100  1
  Mg  Mg2  1  0.84093900  0.17163600  0.34835600  1
  Mg  Mg3  1  0.34116600  0.67164100  0.34807700  1
  Fe  Fe0  1  0.83706200  0.57915600  0.19950700  1
  Fe  Fe1  1  0.66295400  0.92087400  0.80043100  1
  Fe  Fe2  1  0.33687400  0.07915700  0.20032700  1
  Fe  Fe3  1  0.16302400  0.42078500  0.79974700  1
  P  P0  1  0.53099000  0.34133500  0.09357100  1
  P  P1  1  0.03145700  0.84135600  0.09366600  1
  P  P2  1  0.96894600  0.15864000  0.90649700  1
  P  P3  1  0.46865600  0.65865200  0.90623700  1
  P  P4  1  0.32415500  0.09972500  0.61355200  1
  P  P5  1  0.82407500  0.59976700  0.61316000  1
  P  P6  1  0.17579900  0.40029300  0.38648800  1
  P  P7  1  0.67600400  0.90024100  0.38679800  1
  O  O0  1  0.45569400  0.34401600  0.89725100  1
  O  O1  1  0.95558400  0.84402700  0.89748800  1
  O  O2  1  0.04417400  0.15590400  0.10283700  1
  O  O3  1  0.54440500  0.65594200  0.10245700  1
  O  O4  1  0.73257800  0.43210700  0.11785200  1
  O  O5  1  0.23300600  0.93221300  0.11775600  1
  O  O6  1  0.76742700  0.06786500  0.88212700  1
  O  O7  1  0.26720600  0.56778300  0.88205400  1
  O  O8  1  0.58164000  0.22576300  0.17109800  1
  O  O9  1  0.08214900  0.72573900  0.17088400  1
  O  O10  1  0.91821300  0.27421200  0.82903800  1
  O  O11  1  0.41787400  0.77426400  0.82906900  1
  O  O12  1  0.93515300  0.32394900  0.43138700  1
  O  O13  1  0.43545800  0.82382100  0.43150400  1
  O  O14  1  0.56482100  0.17605700  0.56869000  1
  O  O15  1  0.06464300  0.67617200  0.56843800  1
  O  O16  1  0.15284700  0.11050500  0.45871000  1
  O  O17  1  0.65309000  0.61034100  0.45811600  1
  O  O18  1  0.34713300  0.38951900  0.54131100  1
  O  O19  1  0.84700100  0.88966400  0.54182700  1
  O  O20  1  0.21342000  0.14084800  0.79359400  1
  O  O21  1  0.71284000  0.64100300  0.79290300  1
  O  O22  1  0.28652200  0.35919300  0.20642200  1
  O  O23  1  0.78734900  0.85909900  0.20699700  1
  O  O24  1  0.64313200  0.02039800  0.32985800  1
  O  O25  1  0.14312100  0.52048200  0.32966800  1
  O  O26  1  0.85679800  0.47960400  0.67023500  1
  O  O27  1  0.35679600  0.97953200  0.67037200  1
loop_
_geom_bond_atom_site_label_1
_geom_bond_atom_site_label_2
_geom_bond_distance
_geom_bond_site_symmetry_2
Mg0 O14 2.058516 1_555
Mg0 O26 2.065575 1_555
Mg0 O10 2.130957 1_555
Mg0 O0 2.131136 1_555
Mg0 O18 2.153482 1_555
Mg0 O12 2.192036 1_555
Mg1 O15 2.058389 1_555
Mg1 O27 2.065234 1_555
Mg1 O11 2.129197 1_555
Mg1 O1 2.131618 1_455
Mg1 O19 2.153293 1_455
Mg1 O13 2.194174 1_555
Mg2 O12 2.058590 1_555
Mg2 O24 2.065519 1_555
Mg2 O8 2.130943 1_555
Mg2 O2 2.131283 1_655
Mg2 O16 2.153444 1_655
Mg2 O14 2.191760 1_555
Mg3 O13 2.058384 1_555
Mg3 O25 2.065125 1_555
Mg3 O9 2.129336 1_555
Mg3 O3 2.131814 1_555
Mg3 O17 2.153483 1_555
Mg3 O15 2.193677 1_555
Fe0 O4 2.005092 1_555
Fe0 O9 2.104700 1_655
Fe0 O3 2.114231 1_555
Fe0 O25 2.174622 1_655
Fe0 O17 2.219810 1_555
Fe1 O6 2.004562 1_565
Fe1 O11 2.104930 1_555
Fe1 O1 2.114505 1_555
Fe1 O27 2.174678 1_555
Fe1 O19 2.220064 1_555
Fe2 O5 2.006145 1_545
Fe2 O8 2.103815 1_555
Fe2 O2 2.115281 1_555
Fe2 O24 2.173874 1_555
Fe2 O16 2.219177 1_555
Fe3 O7 2.006247 1_555
Fe3 O10 2.103622 1_455
Fe3 O0 2.115311 1_555
Fe3 O26 2.173944 1_455
Fe3 O18 2.219377 1_555
O0 P0 1.536401 1_556
O1 P1 1.536464 1_656
O2 P2 1.536383 1_454
O3 P3 1.536508 1_554
O4 P0 1.515524 1_555
O5 P1 1.515724 1_555
O6 P2 1.515459 1_555
O7 P3 1.515630 1_555
O8 P0 1.544368 1_555
O9 P1 1.544314 1_555
O10 P2 1.544379 1_555
O11 P3 1.544318 1_555
O12 P6 1.533902 1_655
O13 P7 1.533774 1_555
O14 P4 1.533893 1_555
O15 P5 1.533793 1_455
O16 P4 1.541236 1_555
O17 P5 1.540969 1_555
O18 P6 1.541219 1_555
O19 P7 1.540931 1_555
O20 P4 1.601463 1_555
O20 P2 1.612957 1_455
O21 P5 1.601293 1_555
O21 P3 1.612626 1_555
O22 P6 1.601457 1_555
O22 P0 1.612991 1_555
O23 P7 1.601354 1_555
O23 P1 1.612616 1_655
O24 P7 1.533496 1_545
O25 P6 1.533436 1_555
O26 P5 1.533522 1_555
O27 P4 1.533430 1_565
