# generated using pymatgen
data_BaO
_symmetry_space_group_name_H-M   'P 1'
_cell_length_a   13.25057635
_cell_length_b   14.54757955
_cell_length_c   13.63522859
_cell_angle_alpha   87.24558396
_cell_angle_beta   94.21227618
_cell_angle_gamma   87.43777089
_symmetry_Int_Tables_number   1
_chemical_formula_structural   BaO
_chemical_formula_sum   'Ba50 O50'
_cell_volume   2615.17924933
_cell_formula_units_Z   50
loop_
 _symmetry_equiv_pos_site_id
 _symmetry_equiv_pos_as_xyz
  1  'x, y, z'
loop_
 _atom_site_type_symbol
 _atom_site_label
 _atom_site_symmetry_multiplicity
 _atom_site_fract_x
 _atom_site_fract_y
 _atom_site_fract_z
 _atom_site_occupancy
  Ba  Ba0  1  0.51192546  0.59978539  0.59928404  1
  Ba  Ba1  1  0.98567488  0.73870766  0.37871347  1
  Ba  Ba2  1  0.05521360  0.98919671  0.13667853  1
  Ba  Ba3  1  0.10239440  0.04497274  0.86820715  1
  Ba  Ba4  1  0.30354541  0.08069446  0.08478356  1
  Ba  Ba5  1  0.84775311  0.96677890  0.40088357  1
  Ba  Ba6  1  0.82882456  0.63779556  0.67160027  1
  Ba  Ba7  1  0.71642115  0.80202066  0.16843081  1
  Ba  Ba8  1  0.03348661  0.52369908  0.84749874  1
  Ba  Ba9  1  0.05788410  0.05383743  0.57233879  1
  Ba  Ba10  1  0.26243474  0.52447786  0.06887035  1
  Ba  Ba11  1  0.46442227  0.91573607  0.52870126  1
  Ba  Ba12  1  0.22487554  0.80711518  0.52590745  1
  Ba  Ba13  1  0.85951423  0.26698878  0.27519621  1
  Ba  Ba14  1  0.65933943  0.41406671  0.45817743  1
  Ba  Ba15  1  0.43107123  0.26955666  0.28661984  1
  Ba  Ba16  1  0.14495700  0.30540120  0.06340058  1
  Ba  Ba17  1  0.46302700  0.70776538  0.34798326  1
  Ba  Ba18  1  0.15079568  0.27998748  0.31964473  1
  Ba  Ba19  1  0.65769041  0.16190389  0.43588309  1
  Ba  Ba20  1  0.70883755  0.43270161  0.77455098  1
  Ba  Ba21  1  0.67625519  0.08896382  0.10384024  1
  Ba  Ba22  1  0.51225548  0.98725252  0.29236420  1
  Ba  Ba23  1  0.17640527  0.56264571  0.60490870  1
  Ba  Ba24  1  0.88986372  0.44244406  0.06778698  1
  Ba  Ba25  1  0.31090652  0.94311485  0.75265328  1
  Ba  Ba26  1  0.80233525  0.90573254  0.88929288  1
  Ba  Ba27  1  0.21779051  0.76244221  0.25181268  1
  Ba  Ba28  1  0.86424529  0.23322780  0.62524124  1
  Ba  Ba29  1  0.51732046  0.98231248  0.91725524  1
  Ba  Ba30  1  0.40295302  0.81679542  0.08053296  1
  Ba  Ba31  1  0.00195338  0.76126948  0.02876312  1
  Ba  Ba32  1  0.22544480  0.01937350  0.35105793  1
  Ba  Ba33  1  0.41986365  0.48642433  0.83685019  1
  Ba  Ba34  1  0.70671287  0.62600698  0.94132415  1
  Ba  Ba35  1  0.59634517  0.20303123  0.76063574  1
  Ba  Ba36  1  0.71397581  0.95383958  0.62713672  1
  Ba  Ba37  1  0.00255977  0.82209199  0.67818619  1
  Ba  Ba38  1  0.31039609  0.15665491  0.53970913  1
  Ba  Ba39  1  0.23091467  0.72627064  0.83806127  1
  Ba  Ba40  1  0.96071157  0.45697122  0.47930184  1
  Ba  Ba41  1  0.30684544  0.49815878  0.35626720  1
  Ba  Ba42  1  0.89536097  0.20739097  0.93259970  1
  Ba  Ba43  1  0.56377271  0.52626382  0.19730408  1
  Ba  Ba44  1  0.61997871  0.32414828  0.03782983  1
  Ba  Ba45  1  0.51413951  0.76921552  0.76336340  1
  Ba  Ba46  1  0.37056829  0.22733428  0.88614418  1
  Ba  Ba47  1  0.12831414  0.30500351  0.77482207  1
  Ba  Ba48  1  0.71490047  0.69147624  0.43142424  1
  Ba  Ba49  1  0.42744396  0.35764884  0.59170975  1
  O  O0  1  0.80667194  0.77116397  0.00594449  1
  O  O1  1  0.33750959  0.85198659  0.38274214  1
  O  O2  1  0.63246587  0.98602058  0.45018226  1
  O  O3  1  0.55876241  0.76035316  0.52725169  1
  O  O4  1  0.99237819  0.35795256  0.94202202  1
  O  O5  1  0.36753813  0.23066805  0.70444777  1
  O  O6  1  0.82239310  0.82446045  0.73029019  1
  O  O7  1  0.36047641  0.65222946  0.17542940  1
  O  O8  1  0.58578830  0.13593474  0.24326419  1
  O  O9  1  0.35694823  0.50544409  0.65950003  1
  O  O10  1  0.84001000  0.55170450  0.84444816  1
  O  O11  1  0.61006651  0.27176158  0.56943944  1
  O  O12  1  0.24444238  0.92535133  0.13675260  1
  O  O13  1  0.25638921  0.98325540  0.56691974  1
  O  O14  1  0.26348589  0.40583917  0.92228654  1
  O  O15  1  0.79237073  0.24374119  0.08560188  1
  O  O16  1  0.54691747  0.35316730  0.84496052  1
  O  O17  1  0.56062275  0.15008833  0.96215030  1
  O  O18  1  0.55874027  0.95523224  0.72996955  1
  O  O19  1  0.00990917  0.88384391  0.49003973  1
  O  O20  1  0.34200592  0.04192219  0.90616686  1
  O  O21  1  0.94789384  0.99604371  0.96913808  1
  O  O22  1  0.77618732  0.25229184  0.78697314  1
  O  O23  1  0.40933437  0.81249735  0.90265686  1
  O  O24  1  0.33628926  0.76884721  0.68160684  1
  O  O25  1  0.15099282  0.13951142  0.19970091  1
  O  O26  1  0.83793960  0.33141797  0.44634803  1
  O  O27  1  0.48506960  0.54304643  0.41678247  1
  O  O28  1  0.56985679  0.59927963  0.80398625  1
  O  O29  1  0.28011762  0.38967785  0.20034161  1
  O  O30  1  0.05204998  0.43390862  0.65279314  1
  O  O31  1  0.69683909  0.52657458  0.60564366  1
  O  O32  1  0.18337797  0.17817369  0.95775145  1
  O  O33  1  0.13832879  0.88109776  0.79880672  1
  O  O34  1  0.69273654  0.48458122  0.05921549  1
  O  O35  1  0.58665986  0.36686743  0.28167320  1
  O  O36  1  0.38853445  0.09742444  0.37571908  1
  O  O37  1  0.18437811  0.64990272  0.41652590  1
  O  O38  1  0.03616198  0.15931236  0.72517830  1
  O  O39  1  0.56501955  0.92482244  0.11273641  1
  O  O40  1  0.83015292  0.08061180  0.54262934  1
  O  O41  1  0.31776506  0.32955269  0.43470755  1
  O  O42  1  0.89404908  0.62086350  0.48766983  1
  O  O43  1  0.10695965  0.62062652  0.99308083  1
  O  O44  1  0.80309716  0.81738504  0.33961105  1
  O  O45  1  0.12896538  0.15377909  0.44961001  1
  O  O46  1  0.03585606  0.81743635  0.20052549  1
  O  O47  1  0.08515697  0.66474406  0.72246149  1
  O  O48  1  0.62786060  0.67736419  0.25606955  1
  O  O49  1  0.98432904  0.37056740  0.22686355  1
loop_
_geom_bond_atom_site_label_1
_geom_bond_atom_site_label_2
_geom_bond_distance
_geom_bond_site_symmetry_2
Ba0 O3 2.608601 1_555
Ba0 O31 2.621443 1_555
Ba0 O27 2.663440 1_555
Ba0 O9 2.676960 1_555
Ba0 O28 2.839481 1_555
Ba1 O42 2.612745 1_555
Ba1 O44 2.636552 1_555
Ba1 O19 2.676246 1_655
Ba1 O46 2.773980 1_655
Ba1 O37 2.880902 1_655
Ba2 O21 2.595978 1_454
Ba2 O12 2.634575 1_555
Ba2 O46 2.635946 1_555
Ba2 O25 2.720178 1_565
Ba3 O32 2.572537 1_555
Ba3 O38 2.578113 1_555
Ba3 O33 2.643310 1_545
Ba3 O21 2.653634 1_445
Ba3 O20 3.177140 1_555
Ba4 O12 2.511633 1_545
Ba4 O32 2.589100 1_554
Ba4 O20 2.607313 1_554
Ba4 O25 2.777228 1_555
Ba5 O44 2.447103 1_555
Ba5 O19 2.606486 1_655
Ba5 O40 2.621348 1_565
Ba5 O2 2.982680 1_555
Ba6 O31 2.578197 1_555
Ba6 O10 2.606437 1_555
Ba6 O42 2.730588 1_555
Ba6 O6 2.867038 1_555
Ba7 O48 2.506314 1_555
Ba7 O44 2.548774 1_555
Ba7 O0 2.641409 1_555
Ba7 O39 2.667997 1_555
Ba8 O10 2.574776 1_455
Ba8 O43 2.642791 1_555
Ba8 O47 2.747088 1_555
Ba8 O4 2.773744 1_455
Ba8 O30 3.035706 1_555
Ba9 O45 2.433412 1_555
Ba9 O38 2.671380 1_555
Ba9 O13 2.787949 1_545
Ba9 O19 2.842806 1_545
Ba9 O40 3.020217 1_455
Ba10 O43 2.561097 1_554
Ba10 O29 2.583290 1_555
Ba10 O14 2.703191 1_554
Ba10 O7 2.729616 1_555
Ba11 O3 2.535338 1_555
Ba11 O1 2.733877 1_555
Ba11 O2 2.756504 1_555
Ba11 O13 2.975418 1_555
Ba11 O18 3.022475 1_555
Ba11 O36 3.357495 1_565
Ba12 O24 2.519721 1_555
Ba12 O1 2.618560 1_555
Ba12 O13 2.692979 1_555
Ba12 O37 2.839541 1_555
Ba12 O19 3.009532 1_555
Ba13 O49 2.393238 1_555
Ba13 O26 2.586627 1_555
Ba13 O15 2.713308 1_555
Ba14 O26 2.625363 1_555
Ba14 O11 2.641595 1_555
Ba14 O35 2.658660 1_555
Ba14 O31 2.685338 1_555
Ba14 O27 2.913913 1_555
Ba15 O35 2.555606 1_555
Ba15 O29 2.753679 1_555
Ba15 O41 2.755117 1_555
Ba15 O36 2.828178 1_555
Ba15 O8 2.874574 1_555
Ba16 O32 2.457593 1_554
Ba16 O4 2.580642 1_454
Ba16 O29 2.849956 1_555
Ba16 O14 2.946654 1_554
Ba16 O25 2.968873 1_555
Ba16 O49 3.334102 1_455
Ba17 O27 2.527553 1_555
Ba17 O48 2.627882 1_555
Ba17 O1 2.700381 1_555
Ba17 O7 2.801091 1_555
Ba17 O3 2.824957 1_555
Ba18 O45 2.530832 1_555
Ba18 O25 2.678126 1_555
Ba18 O49 2.715193 1_455
Ba18 O41 2.760022 1_555
Ba18 O29 2.921212 1_555
Ba19 O11 2.574298 1_555
Ba19 O2 2.595120 1_545
Ba19 O8 2.776398 1_555
Ba19 O40 2.800649 1_555
Ba20 O31 2.611311 1_555
Ba20 O10 2.666587 1_555
Ba20 O16 2.698430 1_555
Ba20 O22 2.727435 1_555
Ba20 O28 3.037755 1_555
Ba21 O8 2.429893 1_555
Ba21 O17 2.479731 1_554
Ba21 O15 2.794840 1_555
Ba21 O39 2.863945 1_545
Ba22 O8 2.494210 1_565
Ba22 O2 2.580374 1_555
Ba22 O36 2.600376 1_565
Ba22 O39 2.778694 1_555
Ba22 O1 3.368351 1_555
Ba23 O9 2.543721 1_555
Ba23 O47 2.567114 1_555
Ba23 O30 2.639194 1_555
Ba23 O37 2.821150 1_555
Ba24 O49 2.575083 1_555
Ba24 O4 2.586916 1_554
Ba24 O34 2.649024 1_555
Ba24 O15 3.224310 1_555
Ba24 O10 3.373708 1_554
Ba25 O33 2.603947 1_555
Ba25 O13 2.613023 1_555
Ba25 O20 2.613968 1_565
Ba25 O24 2.772424 1_555
Ba25 O23 2.916856 1_555
Ba25 O18 3.332676 1_555
Ba26 O0 2.458221 1_556
Ba26 O6 2.543974 1_555
Ba26 O21 2.585915 1_555
Ba27 O46 2.543004 1_555
Ba27 O1 2.718964 1_555
Ba27 O7 2.721904 1_555
Ba27 O37 2.788893 1_555
Ba27 O12 2.828697 1_555
Ba28 O40 2.580206 1_555
Ba28 O22 2.590244 1_555
Ba28 O38 2.717816 1_655
Ba28 O26 2.758179 1_555
Ba29 O20 2.434535 1_565
Ba29 O17 2.622660 1_565
Ba29 O18 2.694619 1_555
Ba29 O39 2.773890 1_556
Ba29 O23 2.917425 1_555
Ba30 O23 2.436753 1_554
Ba30 O39 2.739290 1_555
Ba30 O12 2.747616 1_555
Ba30 O7 2.766262 1_555
Ba31 O43 2.509873 1_554
Ba31 O46 2.533117 1_555
Ba31 O0 2.580170 1_455
Ba32 O36 2.494336 1_555
Ba32 O25 2.736250 1_555
Ba32 O45 2.746740 1_555
Ba32 O1 2.793310 1_545
Ba32 O13 2.960097 1_545
Ba32 O12 3.306709 1_545
Ba33 O9 2.497641 1_555
Ba33 O16 2.502961 1_555
Ba33 O28 2.682950 1_555
Ba33 O14 2.732315 1_555
Ba34 O10 2.518372 1_555
Ba34 O28 2.565266 1_555
Ba34 O34 2.571210 1_556
Ba34 O0 2.692092 1_556
Ba35 O22 2.524473 1_555
Ba35 O16 2.597194 1_555
Ba35 O11 2.768504 1_555
Ba35 O17 2.896093 1_555
Ba35 O5 3.075834 1_555
Ba36 O18 2.572978 1_555
Ba36 O2 2.582782 1_555
Ba36 O6 2.606066 1_555
Ba36 O40 2.721929 1_565
Ba37 O47 2.519543 1_555
Ba37 O6 2.539556 1_455
Ba37 O33 2.552919 1_555
Ba37 O19 2.687174 1_555
Ba38 O5 2.614140 1_555
Ba38 O45 2.621181 1_555
Ba38 O13 2.668979 1_545
Ba38 O36 2.694413 1_555
Ba38 O41 2.842921 1_555
Ba39 O33 2.530870 1_555
Ba39 O47 2.618927 1_555
Ba39 O24 2.696676 1_555
Ba39 O23 2.829129 1_555
Ba39 O43 3.154523 1_555
Ba40 O42 2.516049 1_555
Ba40 O26 2.534092 1_555
Ba40 O30 2.576861 1_655
Ba41 O27 2.566652 1_555
Ba41 O41 2.621937 1_555
Ba41 O29 2.719925 1_555
Ba41 O37 2.869050 1_555
Ba41 O7 3.387822 1_555
Ba42 O22 2.487085 1_555
Ba42 O4 2.592505 1_555
Ba42 O15 2.637053 1_556
Ba42 O21 3.129912 1_545
Ba43 O35 2.534136 1_555
Ba43 O48 2.535991 1_555
Ba43 O34 2.706067 1_555
Ba43 O7 3.176729 1_555
Ba43 O27 3.257143 1_555
Ba44 O15 2.545554 1_555
Ba44 O34 2.585907 1_555
Ba44 O16 2.741191 1_554
Ba44 O17 2.899167 1_554
Ba45 O23 2.521227 1_555
Ba45 O24 2.532225 1_555
Ba45 O28 2.570712 1_555
Ba45 O18 2.818444 1_555
Ba45 O3 3.323211 1_555
Ba46 O5 2.472953 1_555
Ba46 O20 2.743877 1_555
Ba46 O17 2.816110 1_555
Ba46 O32 2.839776 1_555
Ba46 O14 2.982595 1_555
Ba46 O16 3.098875 1_555
Ba47 O30 2.567099 1_555
Ba47 O38 2.586338 1_555
Ba47 O32 3.054187 1_555
Ba47 O14 3.064668 1_555
Ba47 O4 3.111796 1_455
Ba48 O44 2.544392 1_555
Ba48 O42 2.591766 1_555
Ba48 O48 2.598546 1_555
Ba48 O3 2.707269 1_555
Ba48 O31 3.323002 1_555
Ba49 O5 2.538293 1_555
Ba49 O9 2.547157 1_555
Ba49 O41 2.557770 1_555
Ba49 O11 2.717189 1_555
