# generated using pymatgen
data_YAlCu
_symmetry_space_group_name_H-M   'P 1'
_cell_length_a   7.01973144
_cell_length_b   7.01973529
_cell_length_c   4.00448136
_cell_angle_alpha   90.00000000
_cell_angle_beta   90.00000000
_cell_angle_gamma   120.00001794
_symmetry_Int_Tables_number   1
_chemical_formula_structural   YAlCu
_chemical_formula_sum   'Y3 Al3 Cu3'
_cell_volume   170.89055576
_cell_formula_units_Z   3
loop_
 _symmetry_equiv_pos_site_id
 _symmetry_equiv_pos_as_xyz
  1  'x, y, z'
loop_
 _atom_site_type_symbol
 _atom_site_label
 _atom_site_symmetry_multiplicity
 _atom_site_fract_x
 _atom_site_fract_y
 _atom_site_fract_z
 _atom_site_occupancy
  Y  Y0  1  0.00000000  0.41418566  0.50000000  1
  Y  Y1  1  0.58581434  0.58581434  0.50000000  1
  Y  Y2  1  0.41418566  -0.00000000  0.50000000  1
  Al  Al0  1  0.00000000  0.76736931  0.00000000  1
  Al  Al1  1  0.23263069  0.23263069  0.00000000  1
  Al  Al2  1  0.76736931  -0.00000000  -0.00000000  1
  Cu  Cu0  1  0.33333300  0.66666700  -0.00000000  1
  Cu  Cu1  1  0.66666700  0.33333300  0.00000000  1
  Cu  Cu2  1  -0.00000000  -0.00000000  0.50000000  1
loop_
_geom_bond_atom_site_label_1
_geom_bond_atom_site_label_2
_geom_bond_distance
_geom_bond_site_symmetry_2
Al0 Cu2 2.583733 1_565
Al0 Cu2 2.583733 1_564
Al0 Cu0 2.762060 1_555
Al0 Cu1 2.762064 1_455
Al0 Al2 2.828449 1_465
Al0 Al1 2.828449 1_565
Al0 Y0 3.186797 1_555
Al0 Y0 3.186797 1_554
Al0 Y1 3.221979 1_455
Al0 Y1 3.221979 1_454
Al0 Y2 3.221979 1_565
Al0 Y2 3.221979 1_564
Al1 Cu2 2.583732 1_555
Al1 Cu2 2.583732 1_554
Al1 Cu1 2.762066 1_555
Al1 Cu0 2.762067 1_555
Al1 Al2 2.828447 1_455
Al1 Y1 3.186796 1_555
Al1 Y1 3.186796 1_554
Al1 Y0 3.221980 1_554
Al1 Y0 3.221980 1_555
Al1 Y2 3.221980 1_554
Al1 Y2 3.221980 1_555
Al2 Cu2 2.583732 1_654
Al2 Cu2 2.583732 1_655
Al2 Cu1 2.762061 1_555
Al2 Cu0 2.762064 1_545
Al2 Y2 3.186796 1_555
Al2 Y2 3.186796 1_554
Al2 Y0 3.221980 1_655
Al2 Y0 3.221980 1_654
Al2 Y1 3.221980 1_544
Al2 Y1 3.221980 1_545
Cu0 Y2 2.911739 1_565
Cu0 Y2 2.911739 1_564
Cu0 Y0 2.911739 1_554
Cu0 Y0 2.911739 1_555
Cu0 Y1 2.911743 1_555
Cu0 Y1 2.911743 1_554
Cu1 Y0 2.911738 1_654
Cu1 Y0 2.911738 1_655
Cu1 Y2 2.911740 1_554
Cu1 Y2 2.911740 1_555
Cu1 Y1 2.911744 1_555
Cu1 Y1 2.911744 1_554
Cu2 Y2 2.907472 1_555
Cu2 Y1 2.907472 1_445
Cu2 Y0 2.907474 1_555
