# generated using pymatgen
data_TbAgAs2
_symmetry_space_group_name_H-M   'P 1'
_cell_length_a   3.95434384
_cell_length_b   3.95434384
_cell_length_c   10.52635841
_cell_angle_alpha   90.00000000
_cell_angle_beta   90.00000000
_cell_angle_gamma   90.00000000
_symmetry_Int_Tables_number   1
_chemical_formula_structural   TbAgAs2
_chemical_formula_sum   'Tb2 Ag2 As4'
_cell_volume   164.59893177
_cell_formula_units_Z   2
loop_
 _symmetry_equiv_pos_site_id
 _symmetry_equiv_pos_as_xyz
  1  'x, y, z'
loop_
 _atom_site_type_symbol
 _atom_site_label
 _atom_site_symmetry_multiplicity
 _atom_site_fract_x
 _atom_site_fract_y
 _atom_site_fract_z
 _atom_site_occupancy
  Tb  Tb0  1  0.00000000  0.50000000  0.22463348  1
  Tb  Tb1  1  0.50000000  -0.00000000  0.77536652  1
  Ag  Ag0  1  -0.00000000  0.00000000  0.50000000  1
  Ag  Ag1  1  0.50000000  0.50000000  0.50000000  1
  As  As0  1  -0.00000000  0.00000000  -0.00000000  1
  As  As1  1  0.50000000  0.50000000  -0.00000000  1
  As  As2  1  0.00000000  0.50000000  0.68419555  1
  As  As3  1  0.50000000  -0.00000000  0.31580445  1
loop_
_geom_bond_atom_site_label_1
_geom_bond_atom_site_label_2
_geom_bond_distance
_geom_bond_site_symmetry_2
Ag0 As2 2.769219 1_555
Ag0 As3 2.769219 1_555
Ag0 As2 2.769219 1_545
Ag0 As3 2.769219 1_455
Ag0 Ag1 2.796143 1_445
Ag0 Ag1 2.796143 1_545
Ag0 Ag1 2.796143 1_555
Ag0 Ag1 2.796143 1_455
Ag0 Tb1 3.508722 1_455
Ag0 Tb1 3.508722 1_555
Ag0 Tb0 3.508722 1_545
Ag0 Tb0 3.508722 1_555
Ag1 As2 2.769219 1_555
Ag1 As2 2.769219 1_655
Ag1 As3 2.769219 1_555
Ag1 As3 2.769219 1_565
Ag1 Tb1 3.508722 1_555
Ag1 Tb1 3.508722 1_565
Ag1 Tb0 3.508722 1_655
Ag1 Tb0 3.508722 1_555
As0 As1 2.796143 1_445
As0 As1 2.796143 1_455
As0 As1 2.796143 1_545
As0 As1 2.796143 1_555
As0 Tb0 3.082274 1_555
As0 Tb0 3.082274 1_545
As0 Tb1 3.082274 1_554
As0 Tb1 3.082274 1_454
As1 Tb0 3.082274 1_555
As1 Tb0 3.082274 1_655
As1 Tb1 3.082274 1_554
As1 Tb1 3.082274 1_564
As2 Tb1 2.956254 1_465
As2 Tb1 2.956254 1_455
As2 Tb1 2.956254 1_565
As2 Tb1 2.956254 1_555
As3 Tb0 2.956254 1_555
As3 Tb0 2.956254 1_645
As3 Tb0 2.956254 1_545
As3 Tb0 2.956254 1_655
