# generated using pymatgen
data_LaMg14Bi
_symmetry_space_group_name_H-M   'P 1'
_cell_length_a   6.54117246
_cell_length_b   6.54117190
_cell_length_c   10.75398076
_cell_angle_alpha   90.00000000
_cell_angle_beta   90.00000000
_cell_angle_gamma   120.00000281
_symmetry_Int_Tables_number   1
_chemical_formula_structural   LaMg14Bi
_chemical_formula_sum   'La1 Mg14 Bi1'
_cell_volume   398.48413641
_cell_formula_units_Z   1
loop_
 _symmetry_equiv_pos_site_id
 _symmetry_equiv_pos_as_xyz
  1  'x, y, z'
loop_
 _atom_site_type_symbol
 _atom_site_label
 _atom_site_symmetry_multiplicity
 _atom_site_fract_x
 _atom_site_fract_y
 _atom_site_fract_z
 _atom_site_occupancy
  La  La0  1  0.16666700  0.33333300  0.12500000  1
  Mg  Mg0  1  0.17743710  0.83871805  0.12500000  1
  Mg  Mg1  1  0.16163899  0.83081900  0.62500000  1
  Mg  Mg2  1  0.66128195  0.32256290  0.12500000  1
  Mg  Mg3  1  0.66918100  0.33836101  0.62500000  1
  Mg  Mg4  1  0.66128195  0.83871805  0.12500000  1
  Mg  Mg5  1  0.66918100  0.83081900  0.62500000  1
  Mg  Mg6  1  0.33518557  0.16481443  0.37708687  1
  Mg  Mg7  1  0.33518557  0.16481443  0.87291313  1
  Mg  Mg8  1  0.33518557  0.67037215  0.37708687  1
  Mg  Mg9  1  0.33518557  0.67037215  0.87291313  1
  Mg  Mg10  1  0.82962785  0.16481443  0.37708687  1
  Mg  Mg11  1  0.82962785  0.16481443  0.87291313  1
  Mg  Mg12  1  0.83333300  0.66666700  0.36597479  1
  Mg  Mg13  1  0.83333300  0.66666700  0.88402521  1
  Bi  Bi0  1  0.16666700  0.33333300  0.62500000  1
loop_
_geom_bond_atom_site_label_1
_geom_bond_atom_site_label_2
_geom_bond_distance
_geom_bond_site_symmetry_2
La0 Mg0 3.271155 1_555
La0 Mg4 3.271155 1_555
La0 Mg0 3.271155 1_545
La0 Mg4 3.271155 1_445
La0 Mg2 3.271155 1_555
La0 Mg2 3.271155 1_455
La0 Mg7 3.315786 1_554
La0 Mg6 3.315786 1_555
La0 Mg9 3.315792 1_554
La0 Mg8 3.315792 1_555
La0 Mg11 3.315793 1_454
La0 Mg10 3.315793 1_455
Mg0 Mg2 3.164912 1_565
Mg0 Mg4 3.164913 1_555
Mg0 Mg12 3.242727 1_455
Mg0 Mg13 3.242727 1_454
Mg0 Mg9 3.280667 1_554
Mg0 Mg8 3.280667 1_555
Mg0 Mg7 3.280673 1_564
Mg0 Mg6 3.280673 1_565
Mg0 Mg2 3.376260 1_455
Mg0 Mg4 3.376260 1_455
Mg1 Mg3 3.221252 1_455
Mg1 Mg5 3.221253 1_455
Mg1 Mg8 3.269463 1_555
Mg1 Mg9 3.269463 1_555
Mg1 Mg6 3.269469 1_565
Mg1 Mg7 3.269469 1_565
Mg1 Mg3 3.319920 1_565
Mg1 Mg5 3.319920 1_555
Mg1 Mg12 3.349349 1_455
Mg1 Mg13 3.349349 1_455
Mg2 Mg4 3.164912 1_545
Mg2 Mg7 3.280673 1_554
Mg2 Mg6 3.280673 1_555
Mg2 Mg4 3.376260 1_555
Mg3 Mg5 3.221252 1_555
Mg3 Mg6 3.269469 1_555
Mg3 Mg7 3.269469 1_555
Mg3 Mg5 3.319920 1_545
Mg4 Mg9 3.280673 1_554
Mg4 Mg8 3.280673 1_555
Mg5 Mg8 3.269470 1_555
Mg5 Mg9 3.269470 1_555
Mg6 Mg8 3.234232 1_545
Mg6 Mg8 3.306940 1_555
Mg7 Mg9 3.234232 1_545
Mg7 Mg9 3.306940 1_555
Mg10 Mg8 3.234232 1_545
Mg10 Mg6 3.234232 1_555
Mg10 Mg3 3.269463 1_555
Mg10 Mg5 3.269469 1_545
Mg10 Mg12 3.272836 1_555
Mg10 Mg12 3.272836 1_545
Mg10 Mg2 3.280667 1_555
Mg10 Mg4 3.280673 1_545
Mg10 Mg8 3.306940 1_655
Mg10 Mg6 3.306940 1_655
Mg11 Mg9 3.234232 1_545
Mg11 Mg7 3.234232 1_555
Mg11 Mg3 3.269463 1_555
Mg11 Mg5 3.269469 1_545
Mg11 Mg13 3.272836 1_555
Mg11 Mg13 3.272836 1_545
Mg11 Mg2 3.280667 1_556
Mg11 Mg4 3.280673 1_546
Mg11 Mg9 3.306940 1_655
Mg11 Mg7 3.306940 1_655
Mg12 Mg4 3.242720 1_555
Mg12 Mg2 3.242727 1_555
Mg12 Mg6 3.272836 1_555
Mg12 Mg6 3.272836 1_665
Mg12 Mg8 3.272836 1_655
Mg12 Mg8 3.272836 1_555
Mg12 Mg5 3.349343 1_555
Mg12 Mg3 3.349349 1_555
Mg13 Mg4 3.242720 1_556
Mg13 Mg2 3.242727 1_556
Mg13 Mg7 3.272836 1_555
Mg13 Mg7 3.272836 1_665
Mg13 Mg9 3.272836 1_655
Mg13 Mg9 3.272836 1_555
Mg13 Mg5 3.349343 1_555
Mg13 Mg3 3.349349 1_555
Bi0 Mg1 3.270710 1_545
Bi0 Mg5 3.270710 1_445
Bi0 Mg5 3.270710 1_555
Bi0 Mg1 3.270710 1_555
Bi0 Mg3 3.270710 1_555
Bi0 Mg3 3.270710 1_455
Bi0 Mg6 3.279191 1_555
Bi0 Mg7 3.279191 1_555
Bi0 Mg8 3.279198 1_555
Bi0 Mg9 3.279198 1_555
Bi0 Mg10 3.279198 1_455
Bi0 Mg11 3.279198 1_455
