# generated using pymatgen
data_AgAsO3
_symmetry_space_group_name_H-M   'P 1'
_cell_length_a   6.38907548
_cell_length_b   6.38907548
_cell_length_c   6.38907585
_cell_angle_alpha   45.13452662
_cell_angle_beta   45.13452672
_cell_angle_gamma   45.13451435
_symmetry_Int_Tables_number   1
_chemical_formula_structural   AgAsO3
_chemical_formula_sum   'Ag2 As2 O6'
_cell_volume   119.28055162
_cell_formula_units_Z   2
loop_
 _symmetry_equiv_pos_site_id
 _symmetry_equiv_pos_as_xyz
  1  'x, y, z'
loop_
 _atom_site_type_symbol
 _atom_site_label
 _atom_site_symmetry_multiplicity
 _atom_site_fract_x
 _atom_site_fract_y
 _atom_site_fract_z
 _atom_site_occupancy
  Ag  Ag0  1  0.14486681  0.14486681  0.14486681  1
  Ag  Ag1  1  0.85513319  0.85513319  0.85513319  1
  As  As0  1  0.33539727  0.33539727  0.33539727  1
  As  As1  1  0.66460273  0.66460273  0.66460273  1
  O  O0  1  0.67838682  0.05705238  0.44583241  1
  O  O1  1  0.94294762  0.55416759  0.32161318  1
  O  O2  1  0.55416759  0.32161318  0.94294762  1
  O  O3  1  0.44583241  0.67838682  0.05705238  1
  O  O4  1  0.05705238  0.44583241  0.67838682  1
  O  O5  1  0.32161318  0.94294762  0.55416759  1
loop_
_geom_bond_atom_site_label_1
_geom_bond_atom_site_label_2
_geom_bond_distance
_geom_bond_site_symmetry_2
Ag0 O3 2.376194 1_545
Ag0 O4 2.376194 1_554
Ag0 O0 2.376194 1_455
Ag0 O1 2.670056 1_455
Ag0 O5 2.670057 1_545
Ag0 O2 2.670057 1_554
Ag1 O2 2.376194 1_565
Ag1 O1 2.376194 1_556
Ag1 O5 2.376194 1_655
Ag1 O4 2.670056 1_655
Ag1 O0 2.670057 1_565
Ag1 O3 2.670057 1_556
As0 O0 1.837226 1_555
As0 O4 1.837226 1_555
As0 O3 1.837226 1_555
As0 O1 1.855155 1_455
As0 O5 1.855156 1_545
As0 O2 1.855156 1_554
As1 O5 1.837226 1_555
As1 O1 1.837226 1_555
As1 O2 1.837226 1_555
As1 O4 1.855155 1_655
As1 O0 1.855156 1_565
As1 O3 1.855156 1_556
