# generated using pymatgen
data_BaSr3(SnO3)4
_symmetry_space_group_name_H-M   'P 1'
_cell_length_a   8.37362900
_cell_length_b   5.79494100
_cell_length_c   5.80979860
_cell_angle_alpha   89.85896451
_cell_angle_beta   90.00000000
_cell_angle_gamma   90.00000000
_symmetry_Int_Tables_number   1
_chemical_formula_structural   BaSr3(SnO3)4
_chemical_formula_sum   'Ba1 Sr3 Sn4 O12'
_cell_volume   281.91779882
_cell_formula_units_Z   1
loop_
 _symmetry_equiv_pos_site_id
 _symmetry_equiv_pos_as_xyz
  1  'x, y, z'
loop_
 _atom_site_type_symbol
 _atom_site_label
 _atom_site_symmetry_multiplicity
 _atom_site_fract_x
 _atom_site_fract_y
 _atom_site_fract_z
 _atom_site_occupancy
  Ba  Ba0  1  0.50000000  0.49957500  0.00395200  1
  Sr  Sr0  1  0.50000000  0.00107800  0.50605000  1
  Sr  Sr1  1  0.00000000  0.49642600  0.99572500  1
  Sr  Sr2  1  0.00000000  0.99730500  0.49175800  1
  Sn  Sn0  1  0.24817600  0.50023800  0.50032600  1
  Sn  Sn1  1  0.75195600  0.99985200  0.00049300  1
  Sn  Sn2  1  0.75182400  0.50023800  0.50032600  1
  Sn  Sn3  1  0.24804400  0.99985200  0.00049300  1
  O  O0  1  0.24545800  0.79641800  0.70313100  1
  O  O1  1  0.76575200  0.70800500  0.20777000  1
  O  O2  1  0.74286400  0.20308700  0.29598900  1
  O  O3  1  0.24618200  0.29287800  0.79224000  1
  O  O4  1  0.25713600  0.20308700  0.29598900  1
  O  O5  1  0.75381800  0.29287800  0.79224000  1
  O  O6  1  0.75454200  0.79641800  0.70313100  1
  O  O7  1  0.23424800  0.70800500  0.20777000  1
  O  O8  1  0.50000000  0.51198200  0.49984100  1
  O  O9  1  0.50000000  0.99097700  0.99718700  1
  O  O10  1  0.00000000  0.48731700  0.50136900  1
  O  O11  1  0.00000000  0.01438400  0.00422100  1
loop_
_geom_bond_atom_site_label_1
_geom_bond_atom_site_label_2
_geom_bond_distance
_geom_bond_site_symmetry_2
Ba0 O5 2.733516 1_554
Ba0 O3 2.733516 1_554
Ba0 O1 2.796445 1_555
Ba0 O7 2.796445 1_555
Ba0 O9 2.847820 1_554
Ba0 O8 2.882089 1_555
Ba0 O8 2.929489 1_554
Ba0 O9 2.947654 1_544
Ba0 O2 3.154691 1_555
Ba0 O4 3.154691 1_555
Ba0 O0 3.246809 1_554
Ba0 O6 3.246809 1_554
O0 Sn0 2.084371 1_555
O0 Sn3 2.094020 1_556
O0 Sr2 2.660975 1_555
O0 Sr0 2.693317 1_565
O0 Sr1 3.181490 1_555
O1 Sn1 2.076966 1_555
O1 Sn2 2.083768 1_555
O1 Sr1 2.622195 1_654
O1 Sr2 3.064948 1_655
O2 Sn1 2.085693 1_545
O2 Sn2 2.095286 1_555
O2 Sr0 2.643576 1_555
O2 Sr2 2.710185 1_645
O2 Sr1 3.248737 1_654
O3 Sn0 2.076167 1_555
O3 Sn3 2.082653 1_546
O3 Sr1 2.654305 1_555
O3 Sr2 3.200880 1_545
O4 Sn3 2.085693 1_545
O4 Sn0 2.095286 1_555
O4 Sr0 2.643576 1_555
O4 Sr2 2.710185 1_545
O4 Sr1 3.248737 1_554
O5 Sn2 2.076167 1_555
O5 Sn1 2.082653 1_546
O5 Sr1 2.654305 1_655
O5 Sr2 3.200880 1_645
O6 Sn2 2.084371 1_555
O6 Sn1 2.094020 1_556
O6 Sr2 2.660975 1_655
O6 Sr0 2.693317 1_565
O6 Sr1 3.181490 1_655
O7 Sn3 2.076966 1_555
O7 Sn0 2.083768 1_555
O7 Sr1 2.622195 1_554
O7 Sr2 3.064948 1_555
O8 Sn0 2.109780 1_555
O8 Sn2 2.109780 1_555
O8 Sr0 2.834601 1_565
O8 Sr0 2.960789 1_555
O9 Sn1 2.110501 1_556
O9 Sn3 2.110501 1_556
O9 Sr0 2.853863 1_565
O9 Sr0 2.957115 1_566
O10 Sn2 2.079491 1_455
O10 Sn0 2.079491 1_555
O10 Sr2 2.840277 1_545
O10 Sr1 2.872724 1_555
O10 Sr1 2.938034 1_554
O10 Sr2 2.955740 1_555
O11 Sn3 2.078850 1_545
O11 Sn1 2.078850 1_445
O11 Sr1 2.793720 1_554
O11 Sr2 2.833977 1_545
O11 Sr2 2.979195 1_544
O11 Sr1 3.002063 1_544
