# generated using pymatgen
data_Ba2Ti2Fe2As4O
_symmetry_space_group_name_H-M   'P 1'
_cell_length_a   14.72308679
_cell_length_b   14.72308679
_cell_length_c   14.72308679
_cell_angle_alpha   164.03224455
_cell_angle_beta   164.03224455
_cell_angle_gamma   22.65612520
_symmetry_Int_Tables_number   1
_chemical_formula_structural   Ba2Ti2Fe2As4O
_chemical_formula_sum   'Ba2 Ti2 Fe2 As4 O1'
_cell_volume   241.48057305
_cell_formula_units_Z   1
loop_
 _symmetry_equiv_pos_site_id
 _symmetry_equiv_pos_as_xyz
  1  'x, y, z'
loop_
 _atom_site_type_symbol
 _atom_site_label
 _atom_site_symmetry_multiplicity
 _atom_site_fract_x
 _atom_site_fract_y
 _atom_site_fract_z
 _atom_site_occupancy
  Ba  Ba0  1  0.87174100  0.87174100  0.00000000  1
  Ba  Ba1  1  0.12825900  0.12825900  0.00000000  1
  Ti  Ti0  1  0.50000000  0.00000000  0.50000000  1
  Ti  Ti1  1  0.00000000  0.50000000  0.50000000  1
  Fe  Fe0  1  0.25000000  0.75000000  0.50000000  1
  Fe  Fe1  1  0.75000000  0.25000000  0.50000000  1
  As  As0  1  0.69361800  0.69361800  0.00000000  1
  As  As1  1  0.30638200  0.30638200  0.00000000  1
  As  As2  1  0.43824000  0.43824000  0.00000000  1
  As  As3  1  0.56176000  0.56176000  0.00000000  1
  O  O0  1  0.00000000  0.00000000  0.00000000  1
loop_
_geom_bond_atom_site_label_1
_geom_bond_atom_site_label_2
_geom_bond_distance
_geom_bond_site_symmetry_2
As0 Fe0 2.613784 1_655
As0 Fe1 2.613784 1_554
As0 Fe1 2.613784 1_565
As0 Fe0 2.613784 1_554
As0 Ba1 3.453223 1_554
As0 Ba1 3.453223 1_655
As0 Ba1 3.453223 1_565
As0 Ba1 3.453223 1_666
As1 Fe0 2.613784 1_544
As1 Fe1 2.613784 1_454
As1 Fe0 2.613784 1_555
As1 Fe1 2.613784 1_555
As1 Ba0 3.453223 1_455
As1 Ba0 3.453223 1_556
As1 Ba0 3.453223 1_444
As1 Ba0 3.453223 1_545
As2 Ti1 2.713213 1_655
As2 Ti0 2.713213 1_554
As2 Ti1 2.713213 1_554
As2 Ti0 2.713213 1_565
As2 Ba0 3.471319 1_556
As2 Ba0 3.471319 1_545
As2 Ba0 3.471319 1_455
As2 Ba0 3.471319 1_444
As3 Ti1 2.713213 1_554
As3 Ti0 2.713213 1_554
As3 Ti0 2.713213 1_565
As3 Ti1 2.713213 1_655
As3 Ba1 3.471319 1_655
As3 Ba1 3.471319 1_565
As3 Ba1 3.471319 1_554
As3 Ba1 3.471319 1_666
O0 Ti0 2.044955 1_454
O0 Ti1 2.044955 1_555
O0 Ti1 2.044955 1_544
O0 Ti0 2.044955 1_555
