# generated using pymatgen
data_SrCaMnRuO6
_symmetry_space_group_name_H-M   'P 1'
_cell_length_a   5.69236800
_cell_length_b   5.64323900
_cell_length_c   7.64812684
_cell_angle_alpha   89.38691565
_cell_angle_beta   90.00000000
_cell_angle_gamma   90.00000000
_symmetry_Int_Tables_number   1
_chemical_formula_structural   SrCaMnRuO6
_chemical_formula_sum   'Sr2 Ca2 Mn2 Ru2 O12'
_cell_volume   245.66972005
_cell_formula_units_Z   2
loop_
 _symmetry_equiv_pos_site_id
 _symmetry_equiv_pos_as_xyz
  1  'x, y, z'
loop_
 _atom_site_type_symbol
 _atom_site_label
 _atom_site_symmetry_multiplicity
 _atom_site_fract_x
 _atom_site_fract_y
 _atom_site_fract_z
 _atom_site_occupancy
  Sr  Sr0  1  0.96658600  0.25409300  0.50013600  1
  Sr  Sr1  1  0.46658600  0.74590700  0.49986400  1
  Ca  Ca0  1  0.04484400  0.24496300  0.99936300  1
  Ca  Ca1  1  0.54484400  0.75503700  0.00063700  1
  Mn  Mn0  1  0.00157400  0.74840800  0.75357000  1
  Mn  Mn1  1  0.50157400  0.25159200  0.24643000  1
  Ru  Ru0  1  0.00095800  0.74883900  0.24443000  1
  Ru  Ru1  1  0.50095800  0.25116100  0.75557000  1
  O  O0  1  0.47107800  0.33792900  0.00532800  1
  O  O1  1  0.97107800  0.66207100  0.99467200  1
  O  O2  1  0.51189100  0.18191000  0.49726500  1
  O  O3  1  0.01189100  0.81809000  0.50273500  1
  O  O4  1  0.78044800  0.04739600  0.79656500  1
  O  O5  1  0.28044800  0.95260400  0.20343500  1
  O  O6  1  0.20502200  0.47277500  0.27929400  1
  O  O7  1  0.70502200  0.52722500  0.72070600  1
  O  O8  1  0.21943900  0.45223300  0.71972500  1
  O  O9  1  0.71943900  0.54776700  0.28027500  1
  O  O10  1  0.79816200  0.03099900  0.20402600  1
  O  O11  1  0.29816200  0.96900100  0.79597400  1
loop_
_geom_bond_atom_site_label_1
_geom_bond_atom_site_label_2
_geom_bond_distance
_geom_bond_site_symmetry_2
Ca0 O1 2.390891 1_455
Ca0 O10 2.416487 1_456
Ca0 O4 2.439440 1_455
Ca0 O0 2.482875 1_556
Ca0 O8 2.622294 1_555
Ca0 O5 2.627084 1_546
Ca0 O11 2.641233 1_545
Ca0 O6 2.669585 1_556
Ca1 O0 2.390891 1_555
Ca1 O11 2.416487 1_554
Ca1 O5 2.439440 1_555
Ca1 O1 2.482875 1_554
Ca1 O9 2.622294 1_555
Ca1 O4 2.627084 1_564
Ca1 O10 2.641233 1_565
Ca1 O7 2.669585 1_554
Mn0 O1 1.910118 1_455
Mn0 O3 1.955061 1_555
Mn0 O8 2.099479 1_555
Mn0 O7 2.116008 1_455
Mn0 O11 2.124572 1_555
Mn0 O4 2.133367 1_465
Mn1 O0 1.910118 1_555
Mn1 O2 1.955061 1_555
Mn1 O9 2.099479 1_555
Mn1 O6 2.116008 1_555
Mn1 O10 2.124572 1_555
Mn1 O5 2.133367 1_545
O0 Ru1 1.984313 1_554
O1 Ru0 1.984313 1_656
O2 Ru1 2.018890 1_555
O2 Sr1 2.473816 1_545
O2 Sr0 2.620278 1_555
O3 Ru0 2.018890 1_555
O3 Sr0 2.473816 1_465
O3 Sr1 2.620278 1_555
O4 Ru1 1.985951 1_555
O4 Sr0 2.750733 1_555
O5 Ru0 1.985951 1_555
O5 Sr1 2.750733 1_555
O6 Ru0 1.959229 1_555
O6 Sr0 2.484616 1_455
O6 Sr1 2.737530 1_555
O7 Ru1 1.959229 1_555
O7 Sr1 2.484616 1_555
O7 Sr0 2.737530 1_555
O8 Ru1 1.980928 1_555
O8 Sr0 2.486496 1_455
O8 Sr1 2.737457 1_555
O9 Ru0 1.980928 1_655
O9 Sr1 2.486496 1_555
O9 Sr0 2.737457 1_555
O10 Ru0 1.988211 1_645
O10 Sr0 2.773806 1_555
O11 Ru1 1.988211 1_565
O11 Sr1 2.773806 1_555
