# generated using pymatgen
data_ScGa2Ni
_symmetry_space_group_name_H-M   'P 1'
_cell_length_a   4.01386381
_cell_length_b   5.15724580
_cell_length_c   6.42311583
_cell_angle_alpha   90.00000048
_cell_angle_beta   89.99999691
_cell_angle_gamma   112.90341068
_symmetry_Int_Tables_number   1
_chemical_formula_structural   ScGa2Ni
_chemical_formula_sum   'Sc2 Ga4 Ni2'
_cell_volume   122.47920119
_cell_formula_units_Z   2
loop_
 _symmetry_equiv_pos_site_id
 _symmetry_equiv_pos_as_xyz
  1  'x, y, z'
loop_
 _atom_site_type_symbol
 _atom_site_label
 _atom_site_symmetry_multiplicity
 _atom_site_fract_x
 _atom_site_fract_y
 _atom_site_fract_z
 _atom_site_occupancy
  Sc  Sc0  1  0.07493679  0.14985572  0.25000000  1
  Sc  Sc1  1  0.92506154  0.85014146  0.75000000  1
  Ga  Ga0  1  0.36206489  0.72398685  0.44943590  1
  Ga  Ga1  1  0.63793915  0.27602074  0.55050191  1
  Ga  Ga2  1  0.63793916  0.27602073  0.94949809  1
  Ga  Ga3  1  0.36206485  0.72398687  0.05056411  1
  Ni  Ni0  1  0.79332335  0.58667812  0.25000003  1
  Ni  Ni1  1  0.20667026  0.41330950  0.74999997  1
loop_
_geom_bond_atom_site_label_1
_geom_bond_atom_site_label_2
_geom_bond_distance
_geom_bond_site_symmetry_2
Ga0 Ni1 2.430103 1_555
Ga0 Ni0 2.468385 1_555
Ga0 Ni0 2.468918 1_455
Ga0 Ga3 2.562000 1_555
Ga0 Ga1 2.701675 1_565
Ga0 Sc1 2.848268 1_555
Ga0 Sc1 2.848753 1_455
Ga0 Ga1 2.996019 1_555
Ga0 Ga1 2.996690 1_455
Ga0 Sc0 3.013342 1_555
Ga0 Sc0 3.124200 1_665
Ga0 Sc0 3.124610 1_565
Ga1 Ni0 2.429728 1_555
Ga1 Ni1 2.468568 1_555
Ga1 Ni1 2.469099 1_655
Ga1 Ga2 2.562799 1_555
Ga1 Sc0 2.848009 1_555
Ga1 Sc0 2.848491 1_655
Ga1 Sc1 3.013467 1_555
Ga1 Sc1 3.124397 1_445
Ga1 Sc1 3.124804 1_545
Ga2 Ni0 2.429728 1_556
Ga2 Ni1 2.468569 1_555
Ga2 Ni1 2.469099 1_655
Ga2 Ga3 2.701675 1_546
Ga2 Sc0 2.848009 1_556
Ga2 Sc0 2.848491 1_656
Ga2 Ga3 2.996019 1_556
Ga2 Ga3 2.996690 1_656
Ga2 Sc1 3.013467 1_555
Ga2 Sc1 3.124397 1_445
Ga2 Sc1 3.124804 1_545
Ga3 Ni1 2.430103 1_554
Ga3 Ni0 2.468385 1_555
Ga3 Ni0 2.468918 1_455
Ga3 Sc1 2.848268 1_554
Ga3 Sc1 2.848753 1_454
Ga3 Sc0 3.013342 1_555
Ga3 Sc0 3.124200 1_665
Ga3 Sc0 3.124609 1_565
Ni0 Sc0 2.675465 1_665
Ni0 Sc0 2.886786 1_555
Ni0 Sc0 2.887020 1_655
Ni1 Sc1 2.675420 1_445
Ni1 Sc1 2.886819 1_555
Ni1 Sc1 2.887053 1_455
