# generated using pymatgen
data_TmB2C
_symmetry_space_group_name_H-M   'P 1'
_cell_length_a   6.74108796
_cell_length_b   6.74108796
_cell_length_c   7.26716005
_cell_angle_alpha   90.00000000
_cell_angle_beta   90.00000000
_cell_angle_gamma   90.00000000
_symmetry_Int_Tables_number   1
_chemical_formula_structural   TmB2C
_chemical_formula_sum   'Tm8 B16 C8'
_cell_volume   330.23622648
_cell_formula_units_Z   8
loop_
 _symmetry_equiv_pos_site_id
 _symmetry_equiv_pos_as_xyz
  1  'x, y, z'
loop_
 _atom_site_type_symbol
 _atom_site_label
 _atom_site_symmetry_multiplicity
 _atom_site_fract_x
 _atom_site_fract_y
 _atom_site_fract_z
 _atom_site_occupancy
  Tm  Tm0  1  0.30878379  0.80878379  0.75000000  1
  Tm  Tm1  1  0.19121621  0.30878379  0.25000000  1
  Tm  Tm2  1  0.80878379  0.69121621  0.25000000  1
  Tm  Tm3  1  0.69121621  0.19121621  0.75000000  1
  Tm  Tm4  1  0.69121621  0.19121621  0.25000000  1
  Tm  Tm5  1  0.80878379  0.69121621  0.75000000  1
  Tm  Tm6  1  0.19121621  0.30878379  0.75000000  1
  Tm  Tm7  1  0.30878379  0.80878379  0.25000000  1
  B  B0  1  0.15222562  0.03405023  0.00000000  1
  B  B1  1  0.53405023  0.65222562  0.50000000  1
  B  B2  1  0.84777438  0.96594977  -0.00000000  1
  B  B3  1  0.34777438  0.53405023  0.00000000  1
  B  B4  1  0.65222562  0.46594977  -0.00000000  1
  B  B5  1  0.03405023  0.84777438  0.50000000  1
  B  B6  1  0.96594977  0.15222562  0.50000000  1
  B  B7  1  0.46594977  0.34777438  0.50000000  1
  B  B8  1  0.09731344  0.59360814  -0.00000000  1
  B  B9  1  0.40639186  0.09731344  0.50000000  1
  B  B10  1  0.59360814  0.90268656  0.50000000  1
  B  B11  1  0.59731344  0.90639186  -0.00000000  1
  B  B12  1  0.40268656  0.09360814  0.00000000  1
  B  B13  1  0.90268656  0.40639186  0.00000000  1
  B  B14  1  0.09360814  0.59731344  0.50000000  1
  B  B15  1  0.90639186  0.40268656  0.50000000  1
  C  C0  1  0.17791001  0.04045833  0.50000000  1
  C  C1  1  0.67791001  0.45954167  0.50000000  1
  C  C2  1  0.32208999  0.54045833  0.50000000  1
  C  C3  1  0.95954167  0.17791001  0.00000000  1
  C  C4  1  0.04045833  0.82208999  -0.00000000  1
  C  C5  1  0.54045833  0.67791001  0.00000000  1
  C  C6  1  0.82208999  0.95954167  0.50000000  1
  C  C7  1  0.45954167  0.32208999  -0.00000000  1
loop_
_geom_bond_atom_site_label_1
_geom_bond_atom_site_label_2
_geom_bond_distance
_geom_bond_site_symmetry_2
B0 C4 1.615318 1_545
B0 C3 1.620986 1_455
B0 Tm7 2.592393 1_545
B0 Tm0 2.592393 1_544
B0 Tm1 2.607628 1_555
B0 Tm6 2.607628 1_554
B1 C2 1.615318 1_555
B1 C1 1.620986 1_555
B1 Tm7 2.592393 1_555
B1 Tm0 2.592393 1_555
B1 Tm5 2.607628 1_555
B1 Tm2 2.607628 1_555
B2 C3 1.615318 1_565
B2 C4 1.620986 1_655
B2 Tm3 2.592393 1_564
B2 Tm4 2.592393 1_565
B2 Tm5 2.607628 1_554
B2 Tm2 2.607628 1_555
B3 C7 1.615318 1_555
B3 C5 1.620986 1_555
B3 Tm1 2.592393 1_555
B3 Tm6 2.592393 1_554
B3 Tm7 2.607628 1_555
B3 Tm0 2.607628 1_554
B4 C5 1.615318 1_555
B4 C7 1.620986 1_555
B4 Tm2 2.592393 1_555
B4 Tm5 2.592393 1_554
B4 Tm4 2.607628 1_555
B4 Tm3 2.607628 1_554
B5 C6 1.615318 1_455
B5 C0 1.620986 1_565
B5 Tm5 2.592393 1_455
B5 Tm2 2.592393 1_455
B5 Tm7 2.607628 1_555
B5 Tm0 2.607628 1_555
B6 C0 1.615318 1_655
B6 C6 1.620986 1_545
B6 Tm1 2.592393 1_655
B6 Tm6 2.592393 1_655
B6 Tm4 2.607628 1_555
B6 Tm3 2.607628 1_555
B7 C1 1.615318 1_555
B7 C2 1.620986 1_555
B7 Tm4 2.592393 1_555
B7 Tm3 2.592393 1_555
B7 Tm1 2.607628 1_555
B7 Tm6 2.607628 1_555
B8 C4 1.587186 1_555
B8 Tm1 2.718073 1_555
B8 Tm6 2.718073 1_554
B8 Tm7 2.727067 1_555
B8 Tm0 2.727067 1_554
B8 Tm5 2.741662 1_454
B8 Tm2 2.741662 1_455
B9 C0 1.587186 1_555
B9 Tm4 2.718073 1_555
B9 Tm3 2.718073 1_555
B9 Tm6 2.727067 1_555
B9 Tm1 2.727067 1_555
B9 Tm7 2.741662 1_545
B9 Tm0 2.741662 1_545
B10 C6 1.587186 1_555
B10 Tm7 2.718073 1_555
B10 Tm0 2.718073 1_555
B10 Tm5 2.727067 1_555
B10 Tm2 2.727067 1_555
B10 Tm4 2.741662 1_565
B10 Tm3 2.741662 1_565
B11 C5 1.587186 1_555
B11 Tm4 2.718073 1_565
B11 Tm3 2.718073 1_564
B11 Tm2 2.727067 1_555
B11 Tm5 2.727067 1_554
B11 Tm0 2.741662 1_554
B11 Tm7 2.741662 1_555
B12 C7 1.587186 1_555
B12 Tm7 2.718073 1_545
B12 Tm0 2.718073 1_544
B12 Tm1 2.727067 1_555
B12 Tm6 2.727067 1_554
B12 Tm3 2.741662 1_554
B12 Tm4 2.741662 1_555
B13 C3 1.587186 1_555
B13 Tm2 2.718073 1_555
B13 Tm5 2.718073 1_554
B13 Tm4 2.727067 1_555
B13 Tm3 2.727067 1_554
B13 Tm1 2.741662 1_655
B13 Tm6 2.741662 1_654
B14 C2 1.587186 1_555
B14 Tm5 2.718073 1_455
B14 Tm2 2.718073 1_455
B14 Tm7 2.727067 1_555
B14 Tm0 2.727067 1_555
B14 Tm1 2.741662 1_555
B14 Tm6 2.741662 1_555
B15 C1 1.587186 1_555
B15 Tm1 2.718073 1_655
B15 Tm6 2.718073 1_655
B15 Tm3 2.727067 1_555
B15 Tm4 2.727067 1_555
B15 Tm5 2.741662 1_555
B15 Tm2 2.741662 1_555
C0 Tm0 2.553054 1_545
C0 Tm7 2.553054 1_545
C0 Tm6 2.565258 1_555
C0 Tm1 2.565258 1_555
C1 Tm5 2.553054 1_555
C1 Tm2 2.553054 1_555
C1 Tm4 2.565258 1_555
C1 Tm3 2.565258 1_555
C2 Tm6 2.553054 1_555
C2 Tm1 2.553054 1_555
C2 Tm7 2.565258 1_555
C2 Tm0 2.565258 1_555
C3 Tm1 2.553054 1_655
C3 Tm6 2.553054 1_654
C3 Tm4 2.565258 1_555
C3 Tm3 2.565258 1_554
C4 Tm2 2.553054 1_455
C4 Tm5 2.553054 1_454
C4 Tm7 2.565258 1_555
C4 Tm0 2.565258 1_554
C5 Tm7 2.553054 1_555
C5 Tm0 2.553054 1_554
C5 Tm2 2.565258 1_555
C5 Tm5 2.565258 1_554
C6 Tm4 2.553054 1_565
C6 Tm3 2.553054 1_565
C6 Tm2 2.565258 1_555
C6 Tm5 2.565258 1_555
C7 Tm3 2.553054 1_554
C7 Tm4 2.553054 1_555
C7 Tm1 2.565258 1_555
C7 Tm6 2.565258 1_554
