# generated using pymatgen
data_V2Hg2O7
_symmetry_space_group_name_H-M   'P 1'
_cell_length_a   3.45729900
_cell_length_b   19.26605200
_cell_length_c   12.00220400
_cell_angle_alpha   90.00000000
_cell_angle_beta   90.00000000
_cell_angle_gamma   90.00000000
_symmetry_Int_Tables_number   1
_chemical_formula_structural   V2Hg2O7
_chemical_formula_sum   'V8 Hg8 O28'
_cell_volume   799.44883290
_cell_formula_units_Z   4
loop_
 _symmetry_equiv_pos_site_id
 _symmetry_equiv_pos_as_xyz
  1  'x, y, z'
loop_
 _atom_site_type_symbol
 _atom_site_label
 _atom_site_symmetry_multiplicity
 _atom_site_fract_x
 _atom_site_fract_y
 _atom_site_fract_z
 _atom_site_occupancy
  V  V0  1  0.25000000  0.70201700  0.46489200  1
  V  V1  1  0.75000000  0.04838700  0.06748000  1
  V  V2  1  0.25000000  0.45161300  0.56748000  1
  V  V3  1  0.25000000  0.95161300  0.93252000  1
  V  V4  1  0.75000000  0.79798300  0.96489200  1
  V  V5  1  0.75000000  0.54838700  0.43252000  1
  V  V6  1  0.75000000  0.29798300  0.53510800  1
  V  V7  1  0.25000000  0.20201700  0.03510800  1
  Hg  Hg0  1  0.25000000  0.40374300  0.80025600  1
  Hg  Hg1  1  0.75000000  0.59625700  0.19974400  1
  Hg  Hg2  1  0.25000000  0.90374300  0.69974400  1
  Hg  Hg3  1  0.75000000  0.09625700  0.30025600  1
  Hg  Hg4  1  0.25000000  0.29112100  0.23306400  1
  Hg  Hg5  1  0.25000000  0.79112100  0.26693600  1
  Hg  Hg6  1  0.75000000  0.20887900  0.73306400  1
  Hg  Hg7  1  0.75000000  0.70887900  0.76693600  1
  O  O0  1  0.25000000  0.48266000  0.11390200  1
  O  O1  1  0.75000000  0.49065200  0.57682400  1
  O  O2  1  0.25000000  0.71032600  0.63361700  1
  O  O3  1  0.25000000  0.77679600  0.57403800  1
  O  O4  1  0.25000000  0.25191000  0.62265300  1
  O  O5  1  0.25000000  0.36100000  0.51607600  1
  O  O6  1  0.75000000  0.78967400  0.13361700  1
  O  O7  1  0.25000000  0.00934800  0.07682400  1
  O  O8  1  0.75000000  0.24809000  0.12265300  1
  O  O9  1  0.75000000  0.13900000  0.01607600  1
  O  O10  1  0.75000000  0.22320400  0.42596200  1
  O  O11  1  0.25000000  0.50934800  0.42317600  1
  O  O12  1  0.25000000  0.27679600  0.92596200  1
  O  O13  1  0.25000000  0.98266000  0.38609800  1
  O  O14  1  0.75000000  0.51734000  0.88609800  1
  O  O15  1  0.75000000  0.57487800  0.93507200  1
  O  O16  1  0.75000000  0.07487800  0.56492800  1
  O  O17  1  0.75000000  0.72320400  0.07403800  1
  O  O18  1  0.75000000  0.28967400  0.36638300  1
  O  O19  1  0.25000000  0.21032600  0.86638300  1
  O  O20  1  0.75000000  0.63900000  0.48392400  1
  O  O21  1  0.25000000  0.86100000  0.98392400  1
  O  O22  1  0.25000000  0.92512200  0.43507200  1
  O  O23  1  0.75000000  0.01734000  0.61390200  1
  O  O24  1  0.25000000  0.75191000  0.87734700  1
  O  O25  1  0.25000000  0.42512200  0.06492800  1
  O  O26  1  0.75000000  0.74809000  0.37734700  1
  O  O27  1  0.75000000  0.99065200  0.92317600  1
loop_
_geom_bond_atom_site_label_1
_geom_bond_atom_site_label_2
_geom_bond_distance
_geom_bond_site_symmetry_2
Hg0 V2 2.942114 1_555
Hg1 V5 2.942114 1_555
Hg2 V3 2.942114 1_555
Hg3 V1 2.942114 1_555
Hg4 O8 2.330584 1_555
Hg4 O8 2.330584 1_455
Hg4 O18 2.355716 1_555
Hg4 O18 2.355716 1_455
Hg5 O26 2.330584 1_555
Hg5 O26 2.330584 1_455
Hg5 O6 2.355716 1_555
Hg5 O6 2.355716 1_455
Hg6 O4 2.330584 1_555
Hg6 O4 2.330584 1_655
Hg6 O19 2.355716 1_555
Hg6 O19 2.355716 1_655
Hg7 O24 2.330584 1_555
Hg7 O24 2.330584 1_655
Hg7 O2 2.355716 1_655
Hg7 O2 2.355716 1_555
O0 O25 1.254728 1_555
O1 V2 1.888518 1_655
O1 V2 1.888518 1_555
O1 V5 2.058391 1_555
O2 O3 1.466735 1_555
O2 V0 2.031389 1_555
O3 V0 1.947225 1_555
O4 V6 2.209113 1_455
O4 V6 2.209113 1_555
O5 V2 1.851567 1_555
O5 V6 2.124716 1_455
O5 V6 2.124716 1_555
O6 V4 2.031389 1_554
O7 V1 1.888518 1_555
O7 V1 1.888518 1_455
O7 V3 2.058391 1_544
O8 V7 2.209113 1_555
O8 V7 2.209113 1_655
O9 V1 1.851567 1_555
O9 V7 2.124716 1_555
O9 V7 2.124716 1_655
O10 O18 1.466735 1_555
O10 V6 1.947225 1_555
O11 V5 1.888518 1_555
O11 V5 1.888518 1_455
O11 V2 2.058391 1_555
O12 O19 1.466735 1_555
O12 V7 1.947225 1_556
O13 O22 1.254728 1_555
O14 O15 1.254728 1_555
O16 O23 1.254728 1_555
O17 O6 1.466735 1_555
O17 V4 1.947225 1_554
O18 V6 2.031389 1_555
O19 V7 2.031389 1_556
O20 V5 1.851567 1_555
O20 V0 2.124716 1_655
O20 V0 2.124716 1_555
O21 V3 1.851567 1_555
O21 V4 2.124716 1_555
O21 V4 2.124716 1_455
O24 V4 2.209113 1_455
O24 V4 2.209113 1_555
O26 V0 2.209113 1_655
O26 V0 2.209113 1_555
O27 V3 1.888518 1_655
O27 V3 1.888518 1_555
O27 V1 2.058391 1_566
