# generated using pymatgen
data_Li2MnCoO4
_symmetry_space_group_name_H-M   'P 1'
_cell_length_a   5.05985250
_cell_length_b   5.95679000
_cell_length_c   5.13109587
_cell_angle_alpha   89.99974553
_cell_angle_beta   109.26830060
_cell_angle_gamma   90.00415242
_symmetry_Int_Tables_number   1
_chemical_formula_structural   Li2MnCoO4
_chemical_formula_sum   'Li4 Mn2 Co2 O8'
_cell_volume   145.99055369
_cell_formula_units_Z   2
loop_
 _symmetry_equiv_pos_site_id
 _symmetry_equiv_pos_as_xyz
  1  'x, y, z'
loop_
 _atom_site_type_symbol
 _atom_site_label
 _atom_site_symmetry_multiplicity
 _atom_site_fract_x
 _atom_site_fract_y
 _atom_site_fract_z
 _atom_site_occupancy
  Li  Li0  1  0.50001900  0.00278400  0.50000000  1
  Li  Li1  1  0.00000100  0.24705300  0.50000800  1
  Li  Li2  1  0.50000400  0.49478600  0.50001300  1
  Li  Li3  1  0.99999100  0.75536400  0.49999800  1
  Mn  Mn0  1  0.00000700  0.49951200  0.00000300  1
  Mn  Mn1  1  0.50006200  0.75013600  0.99999800  1
  Co  Co0  1  0.49995200  0.24312400  0.00002700  1
  Co  Co1  1  0.99995800  0.00689300  0.00002900  1
  O  O0  1  0.72921400  0.97803100  0.23399600  1
  O  O1  1  0.23021600  0.27228900  0.23419900  1
  O  O2  1  0.27092000  0.97813300  0.76610400  1
  O  O3  1  0.76979800  0.27218400  0.76575300  1
  O  O4  1  0.75219500  0.51539400  0.22041900  1
  O  O5  1  0.25332300  0.73445000  0.22110400  1
  O  O6  1  0.24768200  0.51547000  0.77946800  1
  O  O7  1  0.74665900  0.73439800  0.77888400  1
loop_
_geom_bond_atom_site_label_1
_geom_bond_atom_site_label_2
_geom_bond_distance
_geom_bond_site_symmetry_2
Li0 O2 2.067424 1_545
Li0 O0 2.067425 1_545
Li0 O5 2.231976 1_545
Li0 O7 2.232192 1_545
Li0 O3 2.251495 1_555
Li0 O1 2.252223 1_555
Li1 O3 2.070439 1_455
Li1 O1 2.070796 1_555
Li1 O6 2.235387 1_555
Li1 O4 2.235707 1_455
Li1 O0 2.252508 1_445
Li1 O2 2.252656 1_545
Li2 O1 2.061864 1_555
Li2 O3 2.062231 1_555
Li2 O7 2.112697 1_555
Li2 O5 2.113162 1_555
Li2 O6 2.215745 1_555
Li2 O4 2.215783 1_555
Li3 O0 2.065286 1_555
Li3 O2 2.066135 1_655
Li3 O6 2.117355 1_655
Li3 O4 2.118012 1_555
Li3 O7 2.217424 1_555
Li3 O5 2.217452 1_655
Mn0 O1 1.925947 1_555
Mn0 O3 1.926393 1_454
Mn0 O6 1.948317 1_554
Mn0 O4 1.948399 1_455
Mn0 O5 1.982049 1_555
Mn0 O7 1.982062 1_454
Mn1 O0 1.926096 1_556
Mn1 O2 1.926388 1_555
Mn1 O7 1.946071 1_555
Mn1 O5 1.946613 1_556
Mn1 O4 1.977359 1_556
Mn1 O6 1.977687 1_555
Co0 O2 2.087351 1_544
Co0 O0 2.088447 1_545
Co0 O1 2.102148 1_555
Co0 O3 2.102957 1_554
Co0 O4 2.141346 1_555
Co0 O6 2.142163 1_554
Co1 O3 2.091620 1_554
Co1 O1 2.091943 1_655
Co1 O0 2.105433 1_545
Co1 O2 2.106156 1_644
Co1 O5 2.145818 1_645
Co1 O7 2.145897 1_544
