# generated using pymatgen
data_CrBi2N3
_symmetry_space_group_name_H-M   'P 1'
_cell_length_a   6.52676634
_cell_length_b   11.76430733
_cell_length_c   12.53598944
_cell_angle_alpha   90.00000096
_cell_angle_beta   89.02940717
_cell_angle_gamma   154.32096043
_symmetry_Int_Tables_number   1
_chemical_formula_structural   CrBi2N3
_chemical_formula_sum   'Cr4 Bi8 N12'
_cell_volume   416.78217861
_cell_formula_units_Z   4
loop_
 _symmetry_equiv_pos_site_id
 _symmetry_equiv_pos_as_xyz
  1  'x, y, z'
loop_
 _atom_site_type_symbol
 _atom_site_label
 _atom_site_symmetry_multiplicity
 _atom_site_fract_x
 _atom_site_fract_y
 _atom_site_fract_z
 _atom_site_occupancy
  Cr  Cr0  1  0.53070300  0.30852500  0.66927000  1
  Cr  Cr1  1  0.46929700  0.77782100  0.83073000  1
  Cr  Cr2  1  0.46929700  0.69147500  0.33073000  1
  Cr  Cr3  1  0.53070300  0.22217900  0.16927000  1
  Bi  Bi0  1  0.48074500  0.08727200  0.88216000  1
  Bi  Bi1  1  0.51925500  0.60652700  0.61784000  1
  Bi  Bi2  1  0.51925500  0.91272800  0.11784000  1
  Bi  Bi3  1  0.48074500  0.39347300  0.38216000  1
  Bi  Bi4  1  0.52953300  0.89280500  0.56010300  1
  Bi  Bi5  1  0.47046700  0.36327100  0.93989700  1
  Bi  Bi6  1  0.47046700  0.10719500  0.43989700  1
  Bi  Bi7  1  0.52953300  0.63672900  0.06010300  1
  N  N0  1  0.00000000  0.58797900  0.75000000  1
  N  N1  1  0.00000000  0.41202100  0.25000000  1
  N  N2  1  0.73299000  0.28368000  0.60943000  1
  N  N3  1  0.26701000  0.55069000  0.89057000  1
  N  N4  1  0.26701000  0.71632000  0.39057000  1
  N  N5  1  0.73299000  0.44931000  0.10943000  1
  N  N6  1  0.40589000  0.04908700  0.06805100  1
  N  N7  1  0.59411000  0.64319700  0.43194900  1
  N  N8  1  0.59411000  0.95091300  0.93194900  1
  N  N9  1  0.40589000  0.35680300  0.56805100  1
  N  N10  1  0.00000000  0.02950700  0.75000000  1
  N  N11  1  0.00000000  0.97049400  0.25000000  1
loop_
_geom_bond_atom_site_label_1
_geom_bond_atom_site_label_2
_geom_bond_distance
_geom_bond_site_symmetry_2
Cr0 N2 1.747374 1_555
Cr0 N0 1.780098 1_655
Cr0 N10 1.784422 1_555
Cr0 N9 1.861510 1_555
Cr1 N3 1.747363 1_555
Cr1 N0 1.780101 1_555
Cr1 N10 1.784421 1_665
Cr1 N8 1.861518 1_555
Cr2 N4 1.747374 1_555
Cr2 N1 1.780098 1_555
Cr2 N11 1.784423 1_655
Cr2 N7 1.861510 1_555
Cr3 N5 1.747363 1_555
Cr3 N1 1.780101 1_655
Cr3 N11 1.784422 1_545
Cr3 N6 1.861518 1_555
Bi0 N6 2.331685 1_556
Bi0 N3 2.378695 1_655
Bi0 N8 2.380221 1_545
Bi1 N7 2.331685 1_555
Bi1 N2 2.378695 1_455
Bi1 N9 2.380221 1_555
Bi2 N8 2.331685 1_554
Bi2 N5 2.378695 1_455
Bi2 N6 2.380221 1_565
Bi3 N9 2.331685 1_555
Bi3 N4 2.378695 1_655
Bi3 N7 2.380221 1_555
Bi4 N4 2.339751 1_555
Bi4 N9 2.502938 1_665
Bi4 N0 2.802376 1_555
Bi5 N5 2.339749 1_556
Bi5 N8 2.502939 1_445
Bi5 N0 2.802374 1_655
Bi6 N2 2.339751 1_555
Bi6 N7 2.502938 1_445
Bi6 N1 2.802376 1_655
Bi7 N3 2.339749 1_554
Bi7 N6 2.502939 1_665
Bi7 N1 2.802374 1_555
