# generated using pymatgen
data_MnCu(PO4)2
_symmetry_space_group_name_H-M   'P 1'
_cell_length_a   8.49645330
_cell_length_b   8.49645330
_cell_length_c   8.49645315
_cell_angle_alpha   60.15878163
_cell_angle_beta   60.15878163
_cell_angle_gamma   60.15877788
_symmetry_Int_Tables_number   1
_chemical_formula_structural   MnCu(PO4)2
_chemical_formula_sum   'Mn3 Cu3 P6 O24'
_cell_volume   435.26834271
_cell_formula_units_Z   3
loop_
 _symmetry_equiv_pos_site_id
 _symmetry_equiv_pos_as_xyz
  1  'x, y, z'
loop_
 _atom_site_type_symbol
 _atom_site_label
 _atom_site_symmetry_multiplicity
 _atom_site_fract_x
 _atom_site_fract_y
 _atom_site_fract_z
 _atom_site_occupancy
  Mn  Mn0  1  0.35800100  0.35800100  0.35800100  1
  Mn  Mn1  1  0.14180200  0.14180200  0.14180200  1
  Mn  Mn2  1  0.64212600  0.64212600  0.64212600  1
  Cu  Cu0  1  0.99805800  0.99805800  0.99805800  1
  Cu  Cu1  1  0.85650000  0.85650000  0.85650000  1
  Cu  Cu2  1  0.49957300  0.49957300  0.49957300  1
  P  P0  1  0.45892500  0.75041000  0.04054600  1
  P  P1  1  0.75041000  0.04054600  0.45892500  1
  P  P2  1  0.04054600  0.45892500  0.75041000  1
  P  P3  1  0.96022300  0.54136700  0.24959400  1
  P  P4  1  0.24959400  0.96022300  0.54136700  1
  P  P5  1  0.54136700  0.24959400  0.96022300  1
  O  O0  1  0.69268600  0.87971100  0.49212900  1
  O  O1  1  0.87971100  0.49212900  0.69268600  1
  O  O2  1  0.49212900  0.69268600  0.87971100  1
  O  O3  1  0.25824600  0.91537600  0.05555300  1
  O  O4  1  0.61477200  0.80621100  0.01826000  1
  O  O5  1  0.43986900  0.58236700  0.24043300  1
  O  O6  1  0.91537600  0.05555300  0.25824600  1
  O  O7  1  0.58236700  0.24043300  0.43986900  1
  O  O8  1  0.99089600  0.38239600  0.19088700  1
  O  O9  1  0.24043300  0.43986900  0.58236700  1
  O  O10  1  0.94714400  0.73932700  0.08530900  1
  O  O11  1  0.19088700  0.99089600  0.38239600  1
  O  O12  1  0.80621100  0.01826000  0.61477200  1
  O  O13  1  0.05555300  0.25824600  0.91537600  1
  O  O14  1  0.76224600  0.55330600  0.41884800  1
  O  O15  1  0.01826000  0.61477200  0.80621100  1
  O  O16  1  0.41884800  0.76224600  0.55330600  1
  O  O17  1  0.08530900  0.94714400  0.73932700  1
  O  O18  1  0.55330600  0.41884800  0.76224600  1
  O  O19  1  0.38239600  0.19088700  0.99089600  1
  O  O20  1  0.73932700  0.08530900  0.94714400  1
  O  O21  1  0.50614700  0.30994300  0.12076900  1
  O  O22  1  0.12076900  0.50614700  0.30994300  1
  O  O23  1  0.30994300  0.12076900  0.50614700  1
loop_
_geom_bond_atom_site_label_1
_geom_bond_atom_site_label_2
_geom_bond_distance
_geom_bond_site_symmetry_2
Mn0 O22 1.896450 1_555
Mn0 O21 1.896450 1_555
Mn0 O23 1.896450 1_555
Mn0 O7 1.961825 1_555
Mn0 O9 1.961825 1_555
Mn0 O5 1.961825 1_555
Mn1 O8 1.924704 1_455
Mn1 O11 1.924704 1_545
Mn1 O19 1.924704 1_554
Mn1 O3 2.001051 1_545
Mn1 O13 2.001051 1_554
Mn1 O6 2.001051 1_455
Mn2 O1 1.908270 1_555
Mn2 O2 1.908270 1_555
Mn2 O0 1.908270 1_555
Mn2 O16 1.985300 1_555
Mn2 O14 1.985300 1_555
Mn2 O18 1.985300 1_555
Cu0 O20 2.138836 1_565
Cu0 O17 2.138836 1_655
Cu0 O10 2.138836 1_556
Cu0 O6 2.192463 1_566
Cu0 O3 2.192463 1_656
Cu0 O13 2.192463 1_665
Cu1 O15 1.941506 1_655
Cu1 O12 1.941506 1_565
Cu1 O4 1.941506 1_556
Cu1 O20 2.040714 1_565
Cu1 O10 2.040714 1_556
Cu1 O17 2.040714 1_655
Cu2 O5 2.194303 1_555
Cu2 O7 2.194303 1_555
Cu2 O9 2.194303 1_555
Cu2 O18 2.199713 1_555
Cu2 O16 2.199713 1_555
Cu2 O14 2.199714 1_555
O0 P1 1.527466 1_565
O1 P2 1.527466 1_655
O2 P0 1.527466 1_556
O3 P0 1.571993 1_555
O4 P0 1.516545 1_555
O5 P0 1.578700 1_555
O6 P1 1.571993 1_555
O7 P1 1.578700 1_555
O8 P3 1.527053 1_555
O9 P2 1.578700 1_555
O10 P3 1.556147 1_555
O11 P4 1.527053 1_555
O12 P1 1.516545 1_555
O13 P2 1.571993 1_555
O14 P3 1.573465 1_555
O15 P2 1.516545 1_555
O16 P4 1.573465 1_555
O17 P4 1.556147 1_555
O18 P5 1.573465 1_555
O19 P5 1.527053 1_555
O20 P5 1.556146 1_555
O21 P5 1.533066 1_554
O22 P3 1.533066 1_455
O23 P4 1.533066 1_545
