# generated using pymatgen
data_Li2Mg
_symmetry_space_group_name_H-M   'P 1'
_cell_length_a   5.29648211
_cell_length_b   5.29648211
_cell_length_c   5.06266786
_cell_angle_alpha   90.00000000
_cell_angle_beta   90.00000000
_cell_angle_gamma   120.00001989
_symmetry_Int_Tables_number   1
_chemical_formula_structural   Li2Mg
_chemical_formula_sum   'Li4 Mg2'
_cell_volume   122.99430438
_cell_formula_units_Z   2
loop_
 _symmetry_equiv_pos_site_id
 _symmetry_equiv_pos_as_xyz
  1  'x, y, z'
loop_
 _atom_site_type_symbol
 _atom_site_label
 _atom_site_symmetry_multiplicity
 _atom_site_fract_x
 _atom_site_fract_y
 _atom_site_fract_z
 _atom_site_occupancy
  Li  Li0  1  0.66685566  0.00000000  0.00000000  1
  Li  Li1  1  0.33314434  0.33314434  -0.00000000  1
  Li  Li2  1  0.00000000  0.66685566  0.00000000  1
  Li  Li3  1  0.00000000  -0.00000000  0.50000000  1
  Mg  Mg0  1  0.66666700  0.33333300  0.50000000  1
  Mg  Mg1  1  0.33333300  0.66666700  0.50000000  1
loop_
_geom_bond_atom_site_label_1
_geom_bond_atom_site_label_2
_geom_bond_distance
_geom_bond_site_symmetry_2
Li0 Li1 3.056191 1_655
Li0 Li2 3.056192 1_645
Li0 Li1 3.058792 1_545
Li0 Li2 3.058792 1_655
Li0 Li2 3.058792 1_545
Li0 Li1 3.058793 1_555
Li0 Li3 3.085626 1_655
Li0 Li3 3.085626 1_654
Li0 Mg0 3.086483 1_555
Li0 Mg0 3.086483 1_554
Li0 Mg1 3.086485 1_545
Li0 Mg1 3.086485 1_544
Li1 Li2 3.056191 1_545
Li1 Li2 3.058792 1_655
Li1 Li2 3.058793 1_555
Li1 Li3 3.085626 1_554
Li1 Li3 3.085626 1_555
Li1 Mg0 3.086486 1_555
Li1 Mg0 3.086486 1_554
Li1 Mg1 3.086486 1_555
Li1 Mg1 3.086486 1_554
Li2 Li3 3.085626 1_564
Li2 Li3 3.085626 1_565
Li2 Mg1 3.086483 1_554
Li2 Mg1 3.086483 1_555
Li2 Mg0 3.086485 1_455
Li2 Mg0 3.086485 1_454
Li3 Mg1 3.057923 1_545
Li3 Mg0 3.057923 1_455
Li3 Mg0 3.057926 1_445
Li3 Mg1 3.057926 1_445
Li3 Mg1 3.057926 1_555
Li3 Mg0 3.057926 1_555
Mg0 Mg1 3.057922 1_545
Mg0 Mg1 3.057922 1_655
Mg0 Mg1 3.057932 1_555
