# generated using pymatgen
data_Ti(SnN)4
_symmetry_space_group_name_H-M   'P 1'
_cell_length_a   6.52779266
_cell_length_b   7.79726474
_cell_length_c   9.16513655
_cell_angle_alpha   64.88230197
_cell_angle_beta   75.50240084
_cell_angle_gamma   53.32282708
_symmetry_Int_Tables_number   1
_chemical_formula_structural   Ti(SnN)4
_chemical_formula_sum   'Ti2 Sn8 N8'
_cell_volume   338.75343232
_cell_formula_units_Z   2
loop_
 _symmetry_equiv_pos_site_id
 _symmetry_equiv_pos_as_xyz
  1  'x, y, z'
loop_
 _atom_site_type_symbol
 _atom_site_label
 _atom_site_symmetry_multiplicity
 _atom_site_fract_x
 _atom_site_fract_y
 _atom_site_fract_z
 _atom_site_occupancy
  Ti  Ti0  1  0.74926100  0.80066900  0.75033100  1
  Ti  Ti1  1  0.25073900  0.19933100  0.24966900  1
  Sn  Sn0  1  0.74992400  0.62594600  0.13268500  1
  Sn  Sn1  1  0.25007600  0.37405400  0.86731500  1
  Sn  Sn2  1  0.78130000  0.28491200  0.95810300  1
  Sn  Sn3  1  0.21870000  0.71508800  0.04189700  1
  Sn  Sn4  1  0.71896200  0.52465000  0.54142600  1
  Sn  Sn5  1  0.28103800  0.47535000  0.45857400  1
  Sn  Sn6  1  0.24962800  0.99061900  0.63200700  1
  Sn  Sn7  1  0.75037200  0.00938100  0.36799300  1
  N  N0  1  0.97536800  0.57388900  0.64630300  1
  N  N1  1  0.02463200  0.42611100  0.35369700  1
  N  N2  1  0.97635000  0.71469900  0.90693300  1
  N  N3  1  0.02365000  0.28530100  0.09306700  1
  N  N4  1  0.52387500  0.69537800  0.85375700  1
  N  N5  1  0.47612500  0.30462200  0.14624300  1
  N  N6  1  0.47825000  0.90189700  0.40594200  1
  N  N7  1  0.52175000  0.09810300  0.59405800  1
loop_
_geom_bond_atom_site_label_1
_geom_bond_atom_site_label_2
_geom_bond_distance
_geom_bond_site_symmetry_2
N0 Ti0 1.955289 1_555
N0 Sn5 2.259213 1_655
N0 Sn1 2.355392 1_655
N0 Sn4 2.399854 1_555
N1 Ti1 1.955289 1_555
N1 Sn4 2.259213 1_455
N1 Sn0 2.355392 1_455
N1 Sn5 2.399854 1_555
N2 Ti0 1.941197 1_555
N2 Sn3 2.240878 1_656
N2 Sn1 2.281178 1_655
N2 Sn0 2.328028 1_556
N3 Ti1 1.941197 1_555
N3 Sn2 2.240878 1_454
N3 Sn0 2.281178 1_455
N3 Sn1 2.328028 1_554
N4 Ti0 1.954792 1_555
N4 Sn3 2.259389 1_556
N4 Sn6 2.358259 1_555
N4 Sn2 2.400616 1_555
N5 Ti1 1.954792 1_555
N5 Sn2 2.259389 1_554
N5 Sn7 2.358259 1_555
N5 Sn3 2.400616 1_555
N6 Ti1 1.940627 1_565
N6 Sn4 2.240055 1_555
N6 Sn7 2.280449 1_565
N6 Sn6 2.331092 1_555
N7 Ti0 1.940627 1_545
N7 Sn5 2.240055 1_555
N7 Sn6 2.280449 1_545
N7 Sn7 2.331092 1_555
