# generated using pymatgen
data_YbOs2
_symmetry_space_group_name_H-M   'P 1'
_cell_length_a   5.29025952
_cell_length_b   5.29025952
_cell_length_c   8.73864900
_cell_angle_alpha   90.00000000
_cell_angle_beta   90.00000000
_cell_angle_gamma   119.99999401
_symmetry_Int_Tables_number   1
_chemical_formula_structural   YbOs2
_chemical_formula_sum   'Yb4 Os8'
_cell_volume   211.80144004
_cell_formula_units_Z   4
loop_
 _symmetry_equiv_pos_site_id
 _symmetry_equiv_pos_as_xyz
  1  'x, y, z'
loop_
 _atom_site_type_symbol
 _atom_site_label
 _atom_site_symmetry_multiplicity
 _atom_site_fract_x
 _atom_site_fract_y
 _atom_site_fract_z
 _atom_site_occupancy
  Yb  Yb0  1  0.33333300  0.66666700  0.56432600  1
  Yb  Yb1  1  0.66666700  0.33333300  0.43567400  1
  Yb  Yb2  1  0.66666700  0.33333300  0.06432600  1
  Yb  Yb3  1  0.33333300  0.66666700  0.93567400  1
  Os  Os0  1  0.00000000  0.00000000  0.50000000  1
  Os  Os1  1  0.00000000  0.00000000  0.00000000  1
  Os  Os2  1  0.82698200  0.17301800  0.75000000  1
  Os  Os3  1  0.34603600  0.17301800  0.75000000  1
  Os  Os4  1  0.82698200  0.65396400  0.75000000  1
  Os  Os5  1  0.17301800  0.82698200  0.25000000  1
  Os  Os6  1  0.65396400  0.82698200  0.25000000  1
  Os  Os7  1  0.17301800  0.34603600  0.25000000  1
loop_
_geom_bond_atom_site_label_1
_geom_bond_atom_site_label_2
_geom_bond_distance
_geom_bond_site_symmetry_2
Os0 Os5 2.699283 1_545
Os0 Os2 2.699283 1_455
Os0 Os7 2.699283 1_555
Os0 Os6 2.699283 1_445
Os0 Os3 2.699283 1_555
Os0 Os4 2.699283 1_445
Os0 Yb0 3.105626 1_545
Os0 Yb1 3.105626 1_455
Os0 Yb0 3.105630 1_555
Os0 Yb1 3.105630 1_445
Os0 Yb0 3.105630 1_445
Os0 Yb1 3.105630 1_555
Os1 Os5 2.699283 1_545
Os1 Os2 2.699283 1_454
Os1 Os7 2.699283 1_555
Os1 Os3 2.699283 1_554
Os1 Os6 2.699283 1_445
Os1 Os4 2.699283 1_444
Os1 Yb2 3.105626 1_455
Os1 Yb3 3.105626 1_544
Os1 Yb2 3.105630 1_555
Os1 Yb2 3.105630 1_445
Os1 Yb3 3.105630 1_554
Os1 Yb3 3.105630 1_444
Os2 Os3 2.544329 1_555
Os2 Os4 2.544329 1_555
Os2 Os3 2.745930 1_655
Os2 Os4 2.745930 1_545
Os2 Yb0 3.103665 1_545
Os2 Yb3 3.103665 1_545
Os2 Yb0 3.103665 1_655
Os2 Yb3 3.103665 1_655
Os2 Yb2 3.114914 1_556
Os2 Yb1 3.114914 1_555
Os3 Os4 2.544329 1_555
Os3 Os4 2.745931 1_445
Os3 Yb0 3.103662 1_545
Os3 Yb3 3.103662 1_545
Os3 Yb0 3.103667 1_555
Os3 Yb3 3.103667 1_555
Os3 Yb2 3.114916 1_556
Os3 Yb1 3.114916 1_555
Os4 Yb3 3.103662 1_655
Os4 Yb0 3.103662 1_655
Os4 Yb0 3.103667 1_555
Os4 Yb3 3.103667 1_555
Os4 Yb2 3.114916 1_556
Os4 Yb1 3.114916 1_555
Os5 Os6 2.544329 1_555
Os5 Os7 2.544329 1_555
Os5 Os6 2.745930 1_455
Os5 Os7 2.745930 1_565
Os5 Yb1 3.103665 1_455
Os5 Yb2 3.103665 1_455
Os5 Yb1 3.103665 1_565
Os5 Yb2 3.103665 1_565
Os5 Yb3 3.114914 1_554
Os5 Yb0 3.114914 1_555
Os6 Os7 2.544329 1_555
Os6 Os7 2.745931 1_665
Os6 Yb2 3.103662 1_565
Os6 Yb1 3.103662 1_565
Os6 Yb1 3.103667 1_555
Os6 Yb2 3.103667 1_555
Os6 Yb0 3.114916 1_555
Os6 Yb3 3.114916 1_554
Os7 Yb2 3.103662 1_455
Os7 Yb1 3.103662 1_455
Os7 Yb1 3.103667 1_555
Os7 Yb2 3.103667 1_555
Os7 Yb0 3.114916 1_555
Os7 Yb3 3.114916 1_554
