# generated using pymatgen
data_Ca3Y2(SiO4)3
_symmetry_space_group_name_H-M   'P 1'
_cell_length_a   10.99043741
_cell_length_b   10.99043741
_cell_length_c   10.99043741
_cell_angle_alpha   109.47122063
_cell_angle_beta   109.47122063
_cell_angle_gamma   109.47122063
_symmetry_Int_Tables_number   1
_chemical_formula_structural   Ca3Y2(SiO4)3
_chemical_formula_sum   'Ca12 Y8 Si12 O48'
_cell_volume   1021.93445485
_cell_formula_units_Z   4
loop_
 _symmetry_equiv_pos_site_id
 _symmetry_equiv_pos_as_xyz
  1  'x, y, z'
loop_
 _atom_site_type_symbol
 _atom_site_label
 _atom_site_symmetry_multiplicity
 _atom_site_fract_x
 _atom_site_fract_y
 _atom_site_fract_z
 _atom_site_occupancy
  Ca  Ca0  1  0.25000000  0.37500000  0.12500000  1
  Ca  Ca1  1  0.75000000  0.62500000  0.87500000  1
  Ca  Ca2  1  0.75000000  0.12500000  0.37500000  1
  Ca  Ca3  1  0.12500000  0.25000000  0.37500000  1
  Ca  Ca4  1  0.37500000  0.75000000  0.12500000  1
  Ca  Ca5  1  0.25000000  0.87500000  0.62500000  1
  Ca  Ca6  1  0.87500000  0.75000000  0.62500000  1
  Ca  Ca7  1  0.62500000  0.25000000  0.87500000  1
  Ca  Ca8  1  0.37500000  0.12500000  0.25000000  1
  Ca  Ca9  1  0.62500000  0.87500000  0.75000000  1
  Ca  Ca10  1  0.12500000  0.37500000  0.75000000  1
  Ca  Ca11  1  0.87500000  0.62500000  0.25000000  1
  Y  Y0  1  0.00000000  0.00000000  0.00000000  1
  Y  Y1  1  0.50000000  0.00000000  0.50000000  1
  Y  Y2  1  0.00000000  0.50000000  0.50000000  1
  Y  Y3  1  0.50000000  0.00000000  0.00000000  1
  Y  Y4  1  0.50000000  0.50000000  0.00000000  1
  Y  Y5  1  0.50000000  0.50000000  0.50000000  1
  Y  Y6  1  0.00000000  0.00000000  0.50000000  1
  Y  Y7  1  0.00000000  0.50000000  0.00000000  1
  Si  Si0  1  0.25000000  0.62500000  0.37500000  1
  Si  Si1  1  0.75000000  0.37500000  0.62500000  1
  Si  Si2  1  0.75000000  0.87500000  0.12500000  1
  Si  Si3  1  0.37500000  0.25000000  0.62500000  1
  Si  Si4  1  0.62500000  0.75000000  0.37500000  1
  Si  Si5  1  0.25000000  0.12500000  0.87500000  1
  Si  Si6  1  0.12500000  0.75000000  0.87500000  1
  Si  Si7  1  0.87500000  0.25000000  0.12500000  1
  Si  Si8  1  0.62500000  0.37500000  0.25000000  1
  Si  Si9  1  0.37500000  0.62500000  0.75000000  1
  Si  Si10  1  0.87500000  0.12500000  0.75000000  1
  Si  Si11  1  0.12500000  0.87500000  0.25000000  1
  O  O0  1  0.48796700  0.37727000  0.28252300  1
  O  O1  1  0.51203300  0.62273000  0.71747700  1
  O  O2  1  0.59474700  0.20544400  0.21747700  1
  O  O3  1  0.90525300  0.12273000  0.61069700  1
  O  O4  1  0.28252300  0.48796700  0.37727000  1
  O  O5  1  0.29455600  0.90525300  0.28252300  1
  O  O6  1  0.40525300  0.79455600  0.78252300  1
  O  O7  1  0.09474700  0.87727000  0.38930300  1
  O  O8  1  0.71747700  0.51203300  0.62273000  1
  O  O9  1  0.70544400  0.09474700  0.71747700  1
  O  O10  1  0.01203300  0.29455600  0.88930300  1
  O  O11  1  0.21747700  0.59474700  0.20544400  1
  O  O12  1  0.12273000  0.01203300  0.21747700  1
  O  O13  1  0.98796700  0.70544400  0.11069700  1
  O  O14  1  0.78252300  0.40525300  0.79455600  1
  O  O15  1  0.87727000  0.98796700  0.78252300  1
  O  O16  1  0.61069700  0.90525300  0.12273000  1
  O  O17  1  0.20544400  0.48796700  0.61069700  1
  O  O18  1  0.38930300  0.09474700  0.87727000  1
  O  O19  1  0.79455600  0.51203300  0.38930300  1
  O  O20  1  0.88930300  0.01203300  0.29455600  1
  O  O21  1  0.37727000  0.59474700  0.88930300  1
  O  O22  1  0.11069700  0.98796700  0.70544400  1
  O  O23  1  0.62273000  0.40525300  0.11069700  1
  O  O24  1  0.37727000  0.28252300  0.48796700  1
  O  O25  1  0.59474700  0.88930300  0.37727000  1
  O  O26  1  0.62273000  0.71747700  0.51203300  1
  O  O27  1  0.40525300  0.11069700  0.62273000  1
  O  O28  1  0.12273000  0.61069700  0.90525300  1
  O  O29  1  0.01203300  0.21747700  0.12273000  1
  O  O30  1  0.87727000  0.38930300  0.09474700  1
  O  O31  1  0.98796700  0.78252300  0.87727000  1
  O  O32  1  0.29455600  0.88930300  0.01203300  1
  O  O33  1  0.90525300  0.28252300  0.29455600  1
  O  O34  1  0.70544400  0.11069700  0.98796700  1
  O  O35  1  0.09474700  0.71747700  0.70544400  1
  O  O36  1  0.20544400  0.21747700  0.59474700  1
  O  O37  1  0.48796700  0.61069700  0.20544400  1
  O  O38  1  0.79455600  0.78252300  0.40525300  1
  O  O39  1  0.51203300  0.38930300  0.79455600  1
  O  O40  1  0.28252300  0.29455600  0.90525300  1
  O  O41  1  0.71747700  0.70544400  0.09474700  1
  O  O42  1  0.21747700  0.12273000  0.01203300  1
  O  O43  1  0.78252300  0.87727000  0.98796700  1
  O  O44  1  0.88930300  0.37727000  0.59474700  1
  O  O45  1  0.11069700  0.62273000  0.40525300  1
  O  O46  1  0.61069700  0.20544400  0.48796700  1
  O  O47  1  0.38930300  0.79455600  0.51203300  1
loop_
_geom_bond_atom_site_label_1
_geom_bond_atom_site_label_2
_geom_bond_distance
_geom_bond_site_symmetry_2
Ca0 O4 2.470810 1_555
Ca0 O42 2.470810 1_555
Ca0 O40 2.470810 1_554
Ca0 O11 2.470810 1_555
Ca0 O0 2.597518 1_555
Ca0 O29 2.597518 1_555
Ca0 O37 2.597518 1_555
Ca0 O10 2.597518 1_554
Ca1 O41 2.470810 1_556
Ca1 O14 2.470810 1_555
Ca1 O8 2.470810 1_555
Ca1 O43 2.470810 1_555
Ca1 O39 2.597518 1_555
Ca1 O31 2.597518 1_555
Ca1 O1 2.597518 1_555
Ca1 O13 2.597518 1_556
Ca2 O46 2.470810 1_555
Ca2 O20 2.470810 1_555
Ca2 O16 2.470810 1_545
Ca2 O44 2.470810 1_555
Ca2 O3 2.597518 1_555
Ca2 O33 2.597518 1_555
Ca2 O2 2.597518 1_555
Ca2 O25 2.597518 1_545
Ca3 O24 2.470810 1_555
Ca3 O33 2.470810 1_455
Ca3 O36 2.470810 1_555
Ca3 O29 2.470810 1_555
Ca3 O12 2.597518 1_555
Ca3 O20 2.597518 1_455
Ca3 O17 2.597518 1_555
Ca3 O4 2.597518 1_555
Ca4 O37 2.470810 1_555
Ca4 O32 2.470810 1_555
Ca4 O28 2.470810 1_554
Ca4 O25 2.470810 1_555
Ca4 O11 2.597518 1_555
Ca4 O16 2.597518 1_555
Ca4 O21 2.597518 1_554
Ca4 O5 2.597518 1_555
Ca5 O18 2.470810 1_565
Ca5 O47 2.470810 1_555
Ca5 O22 2.470810 1_555
Ca5 O45 2.470810 1_555
Ca5 O6 2.597518 1_555
Ca5 O35 2.597518 1_555
Ca5 O27 2.597518 1_565
Ca5 O7 2.597518 1_555
Ca6 O35 2.470810 1_655
Ca6 O38 2.470810 1_555
Ca6 O31 2.470810 1_555
Ca6 O26 2.470810 1_555
Ca6 O15 2.597518 1_555
Ca6 O22 2.597518 1_655
Ca6 O8 2.597518 1_555
Ca6 O19 2.597518 1_555
Ca7 O30 2.470810 1_556
Ca7 O27 2.470810 1_555
Ca7 O34 2.470810 1_555
Ca7 O39 2.470810 1_555
Ca7 O14 2.597518 1_555
Ca7 O9 2.597518 1_555
Ca7 O18 2.597518 1_555
Ca7 O23 2.597518 1_556
Ca8 O0 2.470810 1_555
Ca8 O12 2.470810 1_555
Ca8 O2 2.470810 1_555
Ca8 O5 2.470810 1_545
Ca8 O24 2.597518 1_555
Ca8 O42 2.597518 1_555
Ca8 O46 2.597518 1_555
Ca8 O32 2.597518 1_545
Ca9 O9 2.470810 1_565
Ca9 O6 2.470810 1_555
Ca9 O15 2.470810 1_555
Ca9 O1 2.470810 1_555
Ca9 O43 2.597518 1_555
Ca9 O26 2.597518 1_555
Ca9 O47 2.597518 1_555
Ca9 O34 2.597518 1_565
Ca10 O17 2.470810 1_555
Ca10 O10 2.470810 1_555
Ca10 O21 2.470810 1_555
Ca10 O3 2.470810 1_455
Ca10 O36 2.597518 1_555
Ca10 O44 2.597518 1_455
Ca10 O40 2.597518 1_555
Ca10 O28 2.597518 1_555
Ca11 O19 2.470810 1_555
Ca11 O23 2.470810 1_555
Ca11 O7 2.470810 1_655
Ca11 O13 2.470810 1_555
Ca11 O41 2.597518 1_555
Ca11 O38 2.597518 1_555
Ca11 O30 2.597518 1_555
Ca11 O45 2.597518 1_655
O0 Si8 1.665704 1_555
O0 Y5 2.251849 1_555
O1 Si9 1.665704 1_555
O1 Y5 2.251849 1_555
O2 Si8 1.665704 1_555
O2 Y3 2.251849 1_555
O3 Si10 1.665704 1_555
O3 Y6 2.251849 1_655
O4 Si0 1.665704 1_555
O4 Y5 2.251849 1_555
O5 Si11 1.665704 1_555
O5 Y1 2.251849 1_565
O6 Si9 1.665704 1_555
O6 Y3 2.251849 1_566
O7 Si11 1.665704 1_555
O7 Y6 2.251849 1_565
O8 Si1 1.665704 1_555
O8 Y5 2.251849 1_555
O9 Si10 1.665704 1_555
O9 Y1 2.251849 1_555
O10 Si10 1.665704 1_455
O10 Y7 2.251849 1_556
O11 Si0 1.665704 1_555
O11 Y7 2.251849 1_555
O12 Si11 1.665704 1_545
O12 Y0 2.251849 1_555
O13 Si11 1.665704 1_655
O13 Y7 2.251849 1_655
O14 Si1 1.665704 1_555
O14 Y7 2.251849 1_656
O15 Si10 1.665704 1_565
O15 Y0 2.251849 1_666
O16 Si2 1.665704 1_555
O16 Y3 2.251849 1_565
O17 Si9 1.665704 1_555
O17 Y2 2.251849 1_555
O18 Si5 1.665704 1_555
O18 Y3 2.251849 1_556
O19 Si8 1.665704 1_555
O19 Y2 2.251849 1_655
O20 Si2 1.665704 1_545
O20 Y6 2.251849 1_655
O21 Si9 1.665704 1_555
O21 Y4 2.251849 1_556
O22 Si5 1.665704 1_565
O22 Y6 2.251849 1_565
O23 Si8 1.665704 1_555
O23 Y4 2.251849 1_555
O24 Si3 1.665704 1_555
O24 Y5 2.251849 1_555
O25 Si4 1.665704 1_555
O25 Y1 2.251849 1_565
O26 Si4 1.665704 1_555
O26 Y5 2.251849 1_555
O27 Si3 1.665704 1_555
O27 Y1 2.251849 1_555
O28 Si6 1.665704 1_555
O28 Y7 2.251849 1_556
O29 Si7 1.665704 1_455
O29 Y0 2.251849 1_555
O30 Si7 1.665704 1_555
O30 Y7 2.251849 1_655
O31 Si6 1.665704 1_655
O31 Y0 2.251849 1_666
O32 Si6 1.665704 1_554
O32 Y3 2.251849 1_565
O33 Si7 1.665704 1_555
O33 Y2 2.251849 1_655
O34 Si7 1.665704 1_556
O34 Y3 2.251849 1_556
O35 Si6 1.665704 1_555
O35 Y2 2.251849 1_555
O36 Si3 1.665704 1_555
O36 Y6 2.251849 1_555
O37 Si4 1.665704 1_555
O37 Y4 2.251849 1_555
O38 Si4 1.665704 1_555
O38 Y6 2.251849 1_665
O39 Si3 1.665704 1_555
O39 Y4 2.251849 1_556
O40 Si5 1.665704 1_555
O40 Y4 2.251849 1_556
O41 Si2 1.665704 1_555
O41 Y4 2.251849 1_555
O42 Si5 1.665704 1_554
O42 Y0 2.251849 1_555
O43 Si2 1.665704 1_556
O43 Y0 2.251849 1_666
O44 Si1 1.665704 1_555
O44 Y2 2.251849 1_655
O45 Si0 1.665704 1_555
O45 Y2 2.251849 1_555
O46 Si1 1.665704 1_555
O46 Y1 2.251849 1_555
O47 Si0 1.665704 1_555
O47 Y1 2.251849 1_565
