# generated using pymatgen
data_TbAs2Au
_symmetry_space_group_name_H-M   'P 1'
_cell_length_a   4.02588606
_cell_length_b   4.02588606
_cell_length_c   20.62030900
_cell_angle_alpha   90.00000000
_cell_angle_beta   90.00000000
_cell_angle_gamma   89.79997911
_symmetry_Int_Tables_number   1
_chemical_formula_structural   TbAs2Au
_chemical_formula_sum   'Tb4 As8 Au4'
_cell_volume   334.20695413
_cell_formula_units_Z   4
loop_
 _symmetry_equiv_pos_site_id
 _symmetry_equiv_pos_as_xyz
  1  'x, y, z'
loop_
 _atom_site_type_symbol
 _atom_site_label
 _atom_site_symmetry_multiplicity
 _atom_site_fract_x
 _atom_site_fract_y
 _atom_site_fract_z
 _atom_site_occupancy
  Tb  Tb0  1  0.23481800  0.73481800  0.61612600  1
  Tb  Tb1  1  0.76518200  0.26518200  0.38387400  1
  Tb  Tb2  1  0.73481800  0.23481800  0.88387400  1
  Tb  Tb3  1  0.26518200  0.76518200  0.11612600  1
  As  As0  1  0.73681000  0.23681000  0.65266200  1
  As  As1  1  0.26319000  0.76319000  0.34733800  1
  As  As2  1  0.23681000  0.73681000  0.84733800  1
  As  As3  1  0.76319000  0.26319000  0.15266200  1
  As  As4  1  0.26878900  0.23121100  0.50000000  1
  As  As5  1  0.23121100  0.26878900  0.00000000  1
  As  As6  1  0.73121100  0.76878900  0.50000000  1
  As  As7  1  0.76878900  0.73121100  0.00000000  1
  Au  Au0  1  0.19681900  0.19681900  0.75000000  1
  Au  Au1  1  0.30318100  0.30318100  0.25000000  1
  Au  Au2  1  0.80318100  0.80318100  0.25000000  1
  Au  Au3  1  0.69681900  0.69681900  0.75000000  1
loop_
_geom_bond_atom_site_label_1
_geom_bond_atom_site_label_2
_geom_bond_distance
_geom_bond_site_symmetry_2
As0 Au3 2.735351 1_555
As0 Au0 2.735351 1_655
As0 Tb0 2.938552 1_655
As0 Tb0 2.939950 1_555
As0 Tb0 2.939950 1_645
As0 Tb0 2.960521 1_545
As0 Au3 2.963612 1_545
As0 Au0 2.963612 1_555
As1 Au2 2.735351 1_455
As1 Au1 2.735351 1_555
As1 Tb1 2.938552 1_455
As1 Tb1 2.939950 1_465
As1 Tb1 2.939950 1_555
As1 Tb1 2.960521 1_565
As1 Au1 2.963612 1_565
As1 Au2 2.963612 1_555
As2 Au3 2.735351 1_555
As2 Au0 2.735351 1_565
As2 Tb2 2.938552 1_565
As2 Tb2 2.939950 1_555
As2 Tb2 2.939950 1_465
As2 Tb2 2.960521 1_455
As2 Au0 2.963612 1_555
As2 Au3 2.963612 1_455
As3 Au2 2.735351 1_545
As3 Au1 2.735351 1_555
As3 Tb3 2.938552 1_545
As3 Tb3 2.939950 1_645
As3 Tb3 2.939950 1_555
As3 Tb3 2.960521 1_655
As3 Au1 2.963612 1_655
As3 Au2 2.963612 1_555
As4 As6 2.628183 1_545
As4 As6 2.859683 1_555
As4 As6 2.859683 1_445
As4 As6 3.055333 1_455
As4 Tb0 3.122209 1_545
As4 Tb1 3.122209 1_555
As4 Tb0 3.140266 1_555
As4 Tb1 3.140266 1_455
As5 As7 2.628183 1_455
As5 As7 2.859683 1_445
As5 As7 2.859683 1_555
As5 As7 3.055333 1_545
As5 Tb2 3.122209 1_454
As5 Tb3 3.122209 1_555
As5 Tb2 3.140266 1_554
As5 Tb3 3.140266 1_545
As6 Tb0 3.122209 1_555
As6 Tb1 3.122209 1_565
As6 Tb0 3.140266 1_655
As6 Tb1 3.140266 1_555
As7 Tb2 3.122209 1_554
As7 Tb3 3.122209 1_655
As7 Tb2 3.140266 1_564
As7 Tb3 3.140266 1_555
Au0 Au3 2.841758 1_455
Au0 Au3 2.841758 1_545
Au0 Au3 2.851696 1_555
Au0 Au3 2.851696 1_445
Au0 Tb0 3.331872 1_545
Au0 Tb2 3.331872 1_455
Au0 Tb2 3.512467 1_555
Au0 Tb0 3.512467 1_555
Au1 Au2 2.841758 1_455
Au1 Au2 2.841758 1_545
Au1 Au2 2.851696 1_445
Au1 Au2 2.851696 1_555
Au1 Tb3 3.331872 1_555
Au1 Tb1 3.331872 1_555
Au1 Tb3 3.512467 1_545
Au1 Tb1 3.512467 1_455
Au2 Tb1 3.331872 1_565
Au2 Tb3 3.331872 1_655
Au2 Tb3 3.512467 1_555
Au2 Tb1 3.512467 1_555
Au3 Tb2 3.331872 1_555
Au3 Tb0 3.331872 1_555
Au3 Tb2 3.512467 1_565
Au3 Tb0 3.512467 1_655
