# generated using pymatgen
data_Li7Mn2(CoO4)3
_symmetry_space_group_name_H-M   'P 1'
_cell_length_a   2.96114100
_cell_length_b   5.07618941
_cell_length_c   14.38062366
_cell_angle_alpha   88.23544650
_cell_angle_beta   86.62971702
_cell_angle_gamma   88.55672709
_symmetry_Int_Tables_number   1
_chemical_formula_structural   Li7Mn2(CoO4)3
_chemical_formula_sum   'Li7 Mn2 Co3 O12'
_cell_volume   215.62426373
_cell_formula_units_Z   1
loop_
 _symmetry_equiv_pos_site_id
 _symmetry_equiv_pos_as_xyz
  1  'x, y, z'
loop_
 _atom_site_type_symbol
 _atom_site_label
 _atom_site_symmetry_multiplicity
 _atom_site_fract_x
 _atom_site_fract_y
 _atom_site_fract_z
 _atom_site_occupancy
  Li  Li0  1  0.00852600  0.34954600  0.16782800  1
  Li  Li1  1  0.49373800  0.16461100  0.33310600  1
  Li  Li2  1  0.99651900  0.99749700  0.49877700  1
  Li  Li3  1  0.49910700  0.83253800  0.66565400  1
  Li  Li4  1  0.99721500  0.66148700  0.83178700  1
  Li  Li5  1  0.50539100  0.50661200  0.00539400  1
  Li  Li6  1  0.49092800  0.81903200  0.16496700  1
  Mn  Mn0  1  0.00133400  0.98901500  0.00611400  1
  Mn  Mn1  1  0.00229700  0.33747200  0.66493600  1
  Co  Co0  1  0.99404900  0.67295600  0.32650200  1
  Co  Co1  1  0.49627300  0.50405300  0.49786000  1
  Co  Co2  1  0.51262000  0.17220400  0.83483700  1
  O  O0  1  0.47765300  0.14385900  0.07342400  1
  O  O1  1  0.00229300  0.96503700  0.26150600  1
  O  O2  1  0.52543900  0.80778600  0.41643700  1
  O  O3  1  0.02671800  0.65033400  0.58195600  1
  O  O4  1  0.53482100  0.49151600  0.74911800  1
  O  O5  1  0.02290900  0.30877300  0.91449100  1
  O  O6  1  0.46952200  0.50575000  0.25703300  1
  O  O7  1  0.97172000  0.37096100  0.41542900  1
  O  O8  1  0.46861300  0.18784200  0.57950700  1
  O  O9  1  0.98478700  0.01797700  0.75117700  1
  O  O10  1  0.52596700  0.85829200  0.92590000  1
  O  O11  1  0.99156200  0.68485100  0.07626100  1
loop_
_geom_bond_atom_site_label_1
_geom_bond_atom_site_label_2
_geom_bond_distance
_geom_bond_site_symmetry_2
Li0 O6 2.112073 1_555
Li0 O11 2.121073 1_455
Li0 O6 2.140080 1_455
Li0 O0 2.157646 1_555
Li0 O1 2.337047 1_545
Li0 O0 2.413556 1_455
Li1 O6 2.021624 1_555
Li1 O1 2.039443 1_645
Li1 O1 2.125772 1_545
Li1 O2 2.143990 1_545
Li1 O7 2.160499 1_455
Li1 O7 2.202284 1_555
Li2 O3 2.102191 1_655
Li2 O8 2.122409 1_565
Li2 O2 2.135106 1_655
Li2 O8 2.136251 1_665
Li2 O2 2.146491 1_555
Li2 O7 2.213455 1_565
Li3 O4 2.079962 1_555
Li3 O9 2.120608 1_465
Li3 O3 2.125961 1_655
Li3 O3 2.143018 1_555
Li3 O8 2.159440 1_565
Li3 O9 2.194189 1_565
Li4 O4 2.084842 1_555
Li4 O4 2.112687 1_655
Li4 O9 2.119508 1_565
Li4 O5 2.120997 1_655
Li4 O10 2.137278 1_555
Li4 O10 2.385875 1_655
Li5 O11 1.994330 1_455
Li5 O11 2.055387 1_555
Li5 O0 2.059572 1_555
Li5 O10 2.090235 1_554
Li5 O5 2.198546 1_654
Li5 O5 2.265244 1_554
Li6 O11 2.017216 1_555
Li6 O6 2.037508 1_555
Li6 O0 2.079069 1_565
Li6 O1 2.084079 1_555
Li6 O11 2.145641 1_455
Li6 O1 2.266406 1_655
Mn0 O11 1.818034 1_455
Mn0 O0 1.941234 1_465
Mn0 O0 1.951245 1_565
Mn0 O10 1.992202 1_554
Mn0 O10 2.009349 1_454
Mn0 O5 2.058733 1_564
Mn1 O8 1.948858 1_555
Mn1 O4 1.949334 1_455
Mn1 O3 1.957126 1_555
Mn1 O9 2.010940 1_455
Mn1 O4 2.215489 1_555
Mn1 O8 2.220310 1_455
Co0 O1 1.728091 1_655
Co0 O6 1.878130 1_655
Co0 O2 1.965265 1_555
Co0 O7 1.965767 1_555
Co0 O6 2.105212 1_555
Co0 O2 2.228256 1_655
Co1 O2 1.907695 1_555
Co1 O7 1.910209 1_555
Co1 O3 1.937206 1_555
Co1 O8 1.959859 1_555
Co1 O7 2.143121 1_455
Co1 O3 2.195105 1_655
Co2 O5 1.923140 1_555
Co2 O9 1.954543 1_555
Co2 O4 2.005971 1_555
Co2 O10 2.032249 1_545
Co2 O5 2.093113 1_655
Co2 O9 2.200906 1_455
