# generated using pymatgen
data_Ti4Mn5V3
_symmetry_space_group_name_H-M   'P 1'
_cell_length_a   4.83842524
_cell_length_b   4.83842524
_cell_length_c   7.86245276
_cell_angle_alpha   90.00000000
_cell_angle_beta   90.00000000
_cell_angle_gamma   120.31846771
_symmetry_Int_Tables_number   1
_chemical_formula_structural   Ti4Mn5V3
_chemical_formula_sum   'Ti4 Mn5 V3'
_cell_volume   158.88909671
_cell_formula_units_Z   1
loop_
 _symmetry_equiv_pos_site_id
 _symmetry_equiv_pos_as_xyz
  1  'x, y, z'
loop_
 _atom_site_type_symbol
 _atom_site_label
 _atom_site_symmetry_multiplicity
 _atom_site_fract_x
 _atom_site_fract_y
 _atom_site_fract_z
 _atom_site_occupancy
  Ti  Ti0  1  0.33382166  0.66617834  0.30905271  1
  Ti  Ti1  1  0.66641156  0.33358844  0.18416063  1
  Ti  Ti2  1  0.66641156  0.33358844  0.81583937  1
  Ti  Ti3  1  0.33382166  0.66617834  0.69094729  1
  Mn  Mn0  1  0.34003183  0.17441410  0.50000000  1
  Mn  Mn1  1  0.82558590  0.65996817  0.50000000  1
  Mn  Mn2  1  0.17371351  0.82628649  0.00000000  1
  Mn  Mn3  1  0.65093826  0.82505202  0.00000000  1
  Mn  Mn4  1  0.17494798  0.34906174  0.00000000  1
  V  V0  1  0.00346673  0.99653327  0.24119398  1
  V  V1  1  0.00346673  0.99653327  0.75880602  1
  V  V2  1  0.82727761  0.17272239  0.50000000  1
loop_
_geom_bond_atom_site_label_1
_geom_bond_atom_site_label_2
_geom_bond_distance
_geom_bond_site_symmetry_2
Ti0 V0 2.823799 1_555
Ti0 V2 2.837833 1_455
Ti0 V2 2.837833 1_565
Ti0 V0 2.847575 1_655
Ti0 V0 2.847575 1_545
Ti0 Ti1 2.955535 1_565
Ti0 Ti1 2.955535 1_455
Ti0 Ti1 2.959361 1_555
Ti0 Ti3 3.002628 1_555
Ti1 V0 2.805013 1_655
Ti1 V0 2.805013 1_545
Ti1 V2 2.826640 1_555
Ti1 V0 2.864495 1_645
Ti1 Ti2 2.895909 1_554
Ti2 V1 2.805013 1_655
Ti2 V1 2.805013 1_545
Ti2 V2 2.826640 1_555
Ti2 V1 2.864495 1_645
Ti2 Ti3 2.955535 1_655
Ti2 Ti3 2.955535 1_545
Ti2 Ti3 2.959361 1_555
Ti3 V1 2.823799 1_555
Ti3 V2 2.837833 1_455
Ti3 V2 2.837833 1_565
Ti3 V1 2.847575 1_655
Ti3 V1 2.847575 1_545
Mn0 Mn1 2.337999 1_555
Mn0 V2 2.361645 1_555
Mn0 V0 2.473495 1_545
Mn0 V1 2.473495 1_545
Mn0 V2 2.476801 1_455
Mn0 Mn1 2.477117 1_445
Mn0 Ti0 2.826376 1_555
Mn0 Ti3 2.826376 1_555
Mn0 Ti1 2.832957 1_555
Mn0 Ti2 2.832957 1_555
Mn0 Ti0 2.868314 1_545
Mn0 Ti3 2.868314 1_545
Mn1 V2 2.361645 1_555
Mn1 V0 2.473495 1_655
Mn1 V1 2.473495 1_655
Mn1 V2 2.476801 1_565
Mn1 Ti0 2.826376 1_555
Mn1 Ti3 2.826376 1_555
Mn1 Ti1 2.832957 1_555
Mn1 Ti2 2.832957 1_555
Mn1 Ti3 2.868314 1_655
Mn1 Ti0 2.868314 1_655
Mn2 Mn3 2.312037 1_555
Mn2 Mn4 2.312037 1_555
Mn2 V1 2.374519 1_554
Mn2 V0 2.374519 1_555
Mn2 Mn4 2.526399 1_565
Mn2 Mn3 2.526399 1_455
Mn2 Ti3 2.776795 1_554
Mn2 Ti0 2.776795 1_555
Mn2 Ti2 2.810100 1_454
Mn2 Ti2 2.810100 1_564
Mn2 Ti1 2.810100 1_455
Mn2 Ti1 2.810100 1_565
Mn3 Mn4 2.291948 1_555
Mn3 V0 2.401081 1_655
Mn3 V1 2.401081 1_654
Mn3 Mn4 2.523168 1_665
Mn3 Ti0 2.767454 1_555
Mn3 Ti3 2.767454 1_554
Mn3 Ti2 2.817156 1_554
Mn3 Ti1 2.817156 1_555
Mn3 Ti2 2.823178 1_564
Mn3 Ti1 2.823178 1_565
Mn4 V0 2.401081 1_545
Mn4 V1 2.401081 1_544
Mn4 Ti0 2.767454 1_555
Mn4 Ti3 2.767454 1_554
Mn4 Ti2 2.817156 1_554
Mn4 Ti1 2.817156 1_555
Mn4 Ti2 2.823178 1_454
Mn4 Ti1 2.823178 1_455
V0 V2 2.515503 1_465
V1 V2 2.515503 1_465
