# generated using pymatgen
data_Zr5Sb3P
_symmetry_space_group_name_H-M   'P 1'
_cell_length_a   8.51348433
_cell_length_b   8.51348433
_cell_length_c   6.03353280
_cell_angle_alpha   90.00000000
_cell_angle_beta   90.00000000
_cell_angle_gamma   120.00001016
_symmetry_Int_Tables_number   1
_chemical_formula_structural   Zr5Sb3P
_chemical_formula_sum   'Zr10 Sb6 P2'
_cell_volume   378.71887196
_cell_formula_units_Z   2
loop_
 _symmetry_equiv_pos_site_id
 _symmetry_equiv_pos_as_xyz
  1  'x, y, z'
loop_
 _atom_site_type_symbol
 _atom_site_label
 _atom_site_symmetry_multiplicity
 _atom_site_fract_x
 _atom_site_fract_y
 _atom_site_fract_z
 _atom_site_occupancy
  Zr  Zr0  1  0.66666700  0.33333300  -0.00000000  1
  Zr  Zr1  1  0.33333300  0.66666700  -0.00000000  1
  Zr  Zr2  1  0.33333300  0.66666700  0.50000000  1
  Zr  Zr3  1  0.66666700  0.33333300  0.50000000  1
  Zr  Zr4  1  0.75073608  0.75073608  0.75000000  1
  Zr  Zr5  1  0.24926392  -0.00000000  0.75000000  1
  Zr  Zr6  1  -0.00000000  0.24926392  0.75000000  1
  Zr  Zr7  1  0.24926392  0.24926392  0.25000000  1
  Zr  Zr8  1  0.75073608  0.00000000  0.25000000  1
  Zr  Zr9  1  0.00000000  0.75073608  0.25000000  1
  Sb  Sb0  1  0.40014192  0.40014192  0.75000000  1
  Sb  Sb1  1  0.59985808  -0.00000000  0.75000000  1
  Sb  Sb2  1  -0.00000000  0.59985808  0.75000000  1
  Sb  Sb3  1  0.59985808  0.59985808  0.25000000  1
  Sb  Sb4  1  0.40014192  0.00000000  0.25000000  1
  Sb  Sb5  1  0.00000000  0.40014192  0.25000000  1
  P  P0  1  -0.00000000  -0.00000000  -0.00000000  1
  P  P1  1  -0.00000000  -0.00000000  0.50000000  1
loop_
_geom_bond_atom_site_label_1
_geom_bond_atom_site_label_2
_geom_bond_distance
_geom_bond_site_symmetry_2
Sb0 Zr6 2.979781 1_555
Sb0 Zr5 2.979781 1_555
Sb0 Zr4 2.984777 1_555
Sb0 Zr1 3.006316 1_556
Sb0 Zr2 3.006316 1_555
Sb0 Zr3 3.006316 1_555
Sb0 Zr0 3.006316 1_556
Sb0 Zr7 3.278843 1_555
Sb0 Zr7 3.278843 1_556
Sb1 Zr6 2.979781 1_655
Sb1 Zr4 2.979782 1_545
Sb1 Zr5 2.984778 1_555
Sb1 Zr0 3.006308 1_556
Sb1 Zr3 3.006308 1_555
Sb1 Zr1 3.006310 1_546
Sb1 Zr2 3.006310 1_545
Sb1 Zr8 3.278843 1_555
Sb1 Zr8 3.278843 1_556
Sb2 Zr5 2.979781 1_565
Sb2 Zr4 2.979782 1_455
Sb2 Zr6 2.984778 1_555
Sb2 Zr2 3.006308 1_555
Sb2 Zr1 3.006308 1_556
Sb2 Zr3 3.006310 1_455
Sb2 Zr0 3.006310 1_456
Sb2 Zr9 3.278843 1_556
Sb2 Zr9 3.278843 1_555
Sb3 Zr8 2.979781 1_565
Sb3 Zr9 2.979781 1_655
Sb3 Zr7 2.984777 1_555
Sb3 Zr2 3.006316 1_555
Sb3 Zr3 3.006316 1_555
Sb3 Zr0 3.006316 1_555
Sb3 Zr1 3.006316 1_555
Sb3 Zr4 3.278843 1_555
Sb3 Zr4 3.278843 1_554
Sb4 Zr9 2.979781 1_545
Sb4 Zr7 2.979782 1_555
Sb4 Zr8 2.984778 1_555
Sb4 Zr2 3.006308 1_545
Sb4 Zr1 3.006308 1_545
Sb4 Zr0 3.006310 1_555
Sb4 Zr3 3.006310 1_555
Sb4 Zr5 3.278843 1_554
Sb4 Zr5 3.278843 1_555
Sb5 Zr8 2.979781 1_455
Sb5 Zr7 2.979782 1_555
Sb5 Zr9 2.984778 1_555
Sb5 Zr0 3.006308 1_455
Sb5 Zr3 3.006308 1_455
Sb5 Zr2 3.006310 1_555
Sb5 Zr1 3.006310 1_555
Sb5 Zr6 3.278843 1_555
Sb5 Zr6 3.278843 1_554
P0 Zr4 2.603564 1_444
P0 Zr7 2.603564 1_555
P0 Zr5 2.603564 1_554
P0 Zr6 2.603564 1_554
P0 Zr9 2.603564 1_545
P0 Zr8 2.603564 1_455
P1 Zr4 2.603564 1_445
P1 Zr7 2.603564 1_555
P1 Zr5 2.603564 1_555
P1 Zr6 2.603564 1_555
P1 Zr9 2.603564 1_545
P1 Zr8 2.603564 1_455
