# generated using pymatgen
data_Sr4LaMn5O13
_symmetry_space_group_name_H-M   'P 1'
_cell_length_a   7.62895900
_cell_length_b   9.67045729
_cell_length_c   8.87288912
_cell_angle_alpha   90.20708651
_cell_angle_beta   90.00055742
_cell_angle_gamma   66.77178239
_symmetry_Int_Tables_number   1
_chemical_formula_structural   Sr4LaMn5O13
_chemical_formula_sum   'Sr8 La2 Mn10 O26'
_cell_volume   601.53614072
_cell_formula_units_Z   2
loop_
 _symmetry_equiv_pos_site_id
 _symmetry_equiv_pos_as_xyz
  1  'x, y, z'
loop_
 _atom_site_type_symbol
 _atom_site_label
 _atom_site_symmetry_multiplicity
 _atom_site_fract_x
 _atom_site_fract_y
 _atom_site_fract_z
 _atom_site_occupancy
  Sr  Sr0  1  0.09314500  0.31657200  0.90133900  1
  Sr  Sr1  1  0.59023700  0.31661500  0.90129700  1
  Sr  Sr2  1  0.90812600  0.68713600  0.09954900  1
  Sr  Sr3  1  0.40472200  0.68714400  0.09945500  1
  Sr  Sr4  1  0.80558900  0.88871600  0.70818100  1
  Sr  Sr5  1  0.30576500  0.88865200  0.70816900  1
  Sr  Sr6  1  0.19500500  0.11074500  0.29289300  1
  Sr  Sr7  1  0.69420900  0.11073600  0.29291400  1
  La  La0  1  0.00247400  0.49998700  0.50121300  1
  La  La1  1  0.49752600  0.50000100  0.50135200  1
  Mn  Mn0  1  0.49933000  0.00105600  0.99930900  1
  Mn  Mn1  1  0.99702300  0.00590800  0.00251400  1
  Mn  Mn2  1  0.19708200  0.60576700  0.79920800  1
  Mn  Mn3  1  0.80148700  0.39679700  0.20365900  1
  Mn  Mn4  1  0.59832800  0.80344400  0.39130700  1
  Mn  Mn5  1  0.69695000  0.60625300  0.80113200  1
  Mn  Mn6  1  0.30340400  0.39319100  0.19995400  1
  Mn  Mn7  1  0.40502400  0.19021000  0.60347200  1
  Mn  Mn8  1  0.90186000  0.19651600  0.60636100  1
  Mn  Mn9  1  0.09885600  0.80210500  0.39285500  1
  O  O0  1  0.24626600  0.50729300  0.98999900  1
  O  O1  1  0.75269700  0.49470700  0.01836200  1
  O  O2  1  0.29622400  0.40749000  0.67172800  1
  O  O3  1  0.79197400  0.41601700  0.68704400  1
  O  O4  1  0.20955900  0.58091300  0.31667100  1
  O  O5  1  0.70741800  0.58514500  0.31485600  1
  O  O6  1  0.17054500  0.14979800  0.58133500  1
  O  O7  1  0.67971100  0.14980400  0.58137500  1
  O  O8  1  0.83761800  0.82694100  0.40492600  1
  O  O9  1  0.33543800  0.82701500  0.40491400  1
  O  O10  1  0.45694600  0.08606800  0.80093000  1
  O  O11  1  0.95059600  0.09878800  0.80361500  1
  O  O12  1  0.04321000  0.91353900  0.20283400  1
  O  O13  1  0.54101100  0.91816200  0.20148500  1
  O  O14  1  0.09180100  0.81629400  0.91312800  1
  O  O15  1  0.59877000  0.80269900  0.91588500  1
  O  O16  1  0.40015500  0.19956800  0.08438500  1
  O  O17  1  0.89940800  0.20107400  0.09733300  1
  O  O18  1  0.14097200  0.71810800  0.59458800  1
  O  O19  1  0.63563100  0.72879200  0.58824600  1
  O  O20  1  0.36479700  0.27045700  0.40591400  1
  O  O21  1  0.85389800  0.29206800  0.40710800  1
  O  O22  1  0.94888300  0.60205700  0.78995600  1
  O  O23  1  0.44915800  0.60207600  0.79006400  1
  O  O24  1  0.04823800  0.39878500  0.21365100  1
  O  O25  1  0.55293800  0.39879000  0.21353300  1
loop_
_geom_bond_atom_site_label_1
_geom_bond_atom_site_label_2
_geom_bond_distance
_geom_bond_site_symmetry_2
La0 O2 2.557307 1_555
La0 O4 2.602700 1_555
La0 O3 2.644874 1_455
La0 O5 2.650806 1_455
La0 O24 2.702280 1_555
La0 O22 2.714523 1_455
La0 O21 2.794694 1_455
La0 O18 2.827971 1_555
La0 O19 2.903049 1_455
La0 O20 2.903324 1_555
La0 O8 3.031744 1_455
La0 O6 3.195321 1_555
La1 O2 2.556884 1_555
La1 O4 2.603274 1_555
La1 O3 2.644017 1_555
La1 O5 2.651430 1_555
La1 O25 2.704456 1_555
La1 O23 2.714283 1_555
La1 O21 2.794614 1_555
La1 O18 2.827390 1_555
La1 O19 2.902779 1_555
La1 O20 2.903323 1_555
La1 O9 3.032639 1_555
La1 O7 3.195205 1_555
Mn0 O15 1.909144 1_545
Mn0 O16 1.916087 1_556
Mn0 O10 1.918193 1_555
Mn0 O13 1.941921 1_546
Mn1 O14 1.859521 1_644
Mn1 O17 1.924669 1_555
Mn1 O11 1.951220 1_554
Mn1 O12 1.960730 1_645
Mn2 O0 1.908726 1_555
Mn2 O22 1.909694 1_455
Mn2 O23 1.911000 1_555
Mn2 O18 2.075379 1_555
Mn2 O2 2.090077 1_555
Mn2 O14 2.122968 1_555
Mn3 O1 1.863175 1_555
Mn3 O25 1.890681 1_555
Mn3 O24 1.892192 1_655
Mn3 O5 1.939584 1_555
Mn3 O17 1.975434 1_555
Mn3 O21 2.034219 1_555
Mn4 O19 1.871545 1_555
Mn4 O8 1.930234 1_555
Mn4 O9 1.930824 1_555
Mn4 O13 1.972191 1_555
Mn4 O5 2.052594 1_555
Mn5 O22 1.908919 1_555
Mn5 O23 1.909206 1_555
Mn5 O3 1.967037 1_555
Mn5 O15 2.017506 1_555
Mn5 O1 2.170877 1_556
Mn5 O19 2.184028 1_555
Mn6 O25 1.929434 1_555
Mn6 O24 1.929777 1_555
Mn6 O4 1.960062 1_555
Mn6 O16 1.999567 1_555
Mn6 O0 2.124480 1_554
Mn6 O20 2.131870 1_555
Mn7 O20 1.895009 1_555
Mn7 O7 1.983967 1_555
Mn7 O10 1.984645 1_555
Mn7 O6 1.985469 1_555
Mn7 O2 2.021356 1_555
Mn8 O6 1.929730 1_655
Mn8 O7 1.930953 1_555
Mn8 O11 1.956892 1_555
Mn8 O21 1.964298 1_555
Mn8 O3 2.075192 1_555
Mn9 O8 1.913989 1_455
Mn9 O9 1.915674 1_555
Mn9 O18 1.942066 1_555
Mn9 O12 1.958689 1_555
Mn9 O4 2.076112 1_555
O0 Sr2 2.659534 1_456
O0 Sr0 2.659705 1_555
O0 Sr3 2.660017 1_556
O0 Sr1 2.660538 1_555
O1 Sr2 2.668073 1_555
O1 Sr3 2.668666 1_555
O1 Sr0 2.692466 1_654
O1 Sr1 2.692925 1_554
O2 Sr1 2.900094 1_555
O2 Sr0 2.900242 1_555
O3 Sr1 2.843742 1_555
O3 Sr0 2.844208 1_655
O4 Sr2 2.864570 1_455
O4 Sr3 2.864893 1_555
O5 Sr2 2.858648 1_555
O5 Sr3 2.859237 1_555
O6 Sr6 2.581660 1_555
O6 Sr5 2.583390 1_545
O6 Sr0 3.198038 1_555
O7 Sr7 2.581855 1_555
O7 Sr4 2.582816 1_545
O7 Sr1 3.197557 1_555
O8 Sr7 2.714393 1_565
O8 Sr4 2.744077 1_555
O8 Sr2 2.976391 1_555
O9 Sr6 2.713881 1_565
O9 Sr5 2.743837 1_555
O9 Sr3 2.977295 1_555
O10 Sr5 2.716203 1_545
O10 Sr4 2.716373 1_545
O10 Sr0 2.927668 1_555
O10 Sr1 2.927738 1_555
O11 Sr4 2.797858 1_545
O11 Sr5 2.798726 1_645
O11 Sr0 2.857172 1_655
O11 Sr1 2.857500 1_555
O12 Sr6 2.710625 1_565
O12 Sr7 2.710803 1_465
O12 Sr2 2.908725 1_455
O12 Sr3 2.909241 1_555
O13 Sr7 2.682913 1_565
O13 Sr6 2.684300 1_565
O13 Sr2 2.950122 1_555
O13 Sr3 2.951136 1_555
O14 Sr4 2.714388 1_455
O14 Sr5 2.715058 1_555
O14 Sr2 2.766780 1_456
O14 Sr3 2.766798 1_556
O15 Sr2 2.721614 1_556
O15 Sr3 2.722377 1_556
O15 Sr4 2.761201 1_555
O15 Sr5 2.762207 1_555
O16 Sr0 2.706783 1_554
O16 Sr1 2.707615 1_554
O16 Sr6 2.771640 1_555
O16 Sr7 2.772225 1_555
O17 Sr7 2.704645 1_555
O17 Sr6 2.704889 1_655
O17 Sr1 2.787903 1_554
O17 Sr0 2.787920 1_654
O18 Sr5 2.634318 1_555
O18 Sr4 2.634901 1_455
O19 Sr5 2.602793 1_555
O19 Sr4 2.602923 1_555
O20 Sr7 2.575575 1_555
O20 Sr6 2.576014 1_555
O21 Sr7 2.694068 1_555
O21 Sr6 2.694723 1_655
O22 Sr4 2.651478 1_555
O22 Sr0 2.726326 1_655
O22 Sr2 2.846298 1_556
O23 Sr5 2.651064 1_555
O23 Sr1 2.725643 1_555
O23 Sr3 2.844550 1_556
O24 Sr6 2.657247 1_555
O24 Sr2 2.759075 1_455
O24 Sr0 2.863171 1_554
O25 Sr7 2.657697 1_555
O25 Sr3 2.759022 1_555
O25 Sr1 2.862432 1_554
