# generated using pymatgen
data_Li4Fe3(SiO4)3
_symmetry_space_group_name_H-M   'P 1'
_cell_length_a   8.79701000
_cell_length_b   8.92654800
_cell_length_c   17.70063842
_cell_angle_alpha   59.79571606
_cell_angle_beta   90.00000000
_cell_angle_gamma   90.00000000
_symmetry_Int_Tables_number   1
_chemical_formula_structural   Li4Fe3(SiO4)3
_chemical_formula_sum   'Li16 Fe12 Si12 O48'
_cell_volume   1201.26966895
_cell_formula_units_Z   4
loop_
 _symmetry_equiv_pos_site_id
 _symmetry_equiv_pos_as_xyz
  1  'x, y, z'
loop_
 _atom_site_type_symbol
 _atom_site_label
 _atom_site_symmetry_multiplicity
 _atom_site_fract_x
 _atom_site_fract_y
 _atom_site_fract_z
 _atom_site_occupancy
  Li  Li0  1  0.94154700  0.88025400  0.09655900  1
  Li  Li1  1  0.43760000  0.57468600  0.31723300  1
  Li  Li2  1  0.06737500  0.30406300  0.53830000  1
  Li  Li3  1  0.70156800  0.99539800  0.75173400  1
  Li  Li4  1  0.20156800  0.00460200  0.74826600  1
  Li  Li5  1  0.56737500  0.69593700  0.96170000  1
  Li  Li6  1  0.93760000  0.42531400  0.18276700  1
  Li  Li7  1  0.44154700  0.11974600  0.40344100  1
  Li  Li8  1  0.55845300  0.88025400  0.59655900  1
  Li  Li9  1  0.06240000  0.57468600  0.81723300  1
  Li  Li10  1  0.43262500  0.30406300  0.03830000  1
  Li  Li11  1  0.79843200  0.99539800  0.25173400  1
  Li  Li12  1  0.29843200  0.00460200  0.24826600  1
  Li  Li13  1  0.93262500  0.69593700  0.46170000  1
  Li  Li14  1  0.56240000  0.42531400  0.68276700  1
  Li  Li15  1  0.05845300  0.11974600  0.90344100  1
  Fe  Fe0  1  0.35975200  0.03311100  0.90952400  1
  Fe  Fe1  1  0.14621700  0.64848800  0.26922800  1
  Fe  Fe2  1  0.36695700  0.33169800  0.57227400  1
  Fe  Fe3  1  0.86695700  0.66830200  0.92772600  1
  Fe  Fe4  1  0.64621700  0.35151200  0.23077200  1
  Fe  Fe5  1  0.85975200  0.96688900  0.59047600  1
  Fe  Fe6  1  0.14024800  0.03311100  0.40952400  1
  Fe  Fe7  1  0.35378300  0.64848800  0.76922800  1
  Fe  Fe8  1  0.13304300  0.33169800  0.07227400  1
  Fe  Fe9  1  0.63304300  0.66830200  0.42772600  1
  Fe  Fe10  1  0.85378300  0.35151200  0.73077200  1
  Fe  Fe11  1  0.64024800  0.96688900  0.09047600  1
  Si  Si0  1  0.72643300  0.03232500  0.90834700  1
  Si  Si1  1  0.78324200  0.64861200  0.26530300  1
  Si  Si2  1  0.73232400  0.31560500  0.57370800  1
  Si  Si3  1  0.23232400  0.68439500  0.92629200  1
  Si  Si4  1  0.28324200  0.35138800  0.23469700  1
  Si  Si5  1  0.22643300  0.96767500  0.59165300  1
  Si  Si6  1  0.77356700  0.03232500  0.40834700  1
  Si  Si7  1  0.71675800  0.64861200  0.76530300  1
  Si  Si8  1  0.76767600  0.31560500  0.07370800  1
  Si  Si9  1  0.26767600  0.68439500  0.42629200  1
  Si  Si10  1  0.21675800  0.35138800  0.73469700  1
  Si  Si11  1  0.27356700  0.96767500  0.09165300  1
  O  O0  1  0.55698300  0.12127400  0.89609800  1
  O  O1  1  0.77743100  0.94461800  0.01224600  1
  O  O2  1  0.14121900  0.82086600  0.14853000  1
  O  O3  1  0.21227700  0.48264200  0.47981300  1
  O  O4  1  0.21909400  0.13948800  0.81135300  1
  O  O5  1  0.64085700  0.60700300  0.33049100  1
  O  O6  1  0.71799300  0.25406200  0.68118300  1
  O  O7  1  0.94996900  0.61455700  0.31300000  1
  O  O8  1  0.56815800  0.27832800  0.54521300  1
  O  O9  1  0.71894600  0.88660800  0.87816300  1
  O  O10  1  0.87049600  0.19653500  0.56716800  1
  O  O11  1  0.77600300  0.53864800  0.21276300  1
  O  O12  1  0.37049600  0.80346500  0.93283200  1
  O  O13  1  0.21894600  0.11339200  0.62183700  1
  O  O14  1  0.27600300  0.46135200  0.28723700  1
  O  O15  1  0.06815800  0.72167200  0.95478700  1
  O  O16  1  0.44996900  0.38544300  0.18700000  1
  O  O17  1  0.21799300  0.74593800  0.81881700  1
  O  O18  1  0.71909400  0.86051200  0.68864700  1
  O  O19  1  0.14085700  0.39299700  0.16950900  1
  O  O20  1  0.71227700  0.51735800  0.02018700  1
  O  O21  1  0.64121900  0.17913400  0.35147000  1
  O  O22  1  0.27743100  0.05538200  0.48775400  1
  O  O23  1  0.05698300  0.87872600  0.60390200  1
  O  O24  1  0.94301700  0.12127400  0.39609800  1
  O  O25  1  0.72256900  0.94461800  0.51224600  1
  O  O26  1  0.35878100  0.82086600  0.64853000  1
  O  O27  1  0.28772300  0.48264200  0.97981300  1
  O  O28  1  0.85914300  0.60700300  0.83049100  1
  O  O29  1  0.28090600  0.13948800  0.31135300  1
  O  O30  1  0.78200700  0.25406200  0.18118300  1
  O  O31  1  0.55003100  0.61455700  0.81300000  1
  O  O32  1  0.93184200  0.27832800  0.04521300  1
  O  O33  1  0.72399700  0.53864800  0.71276300  1
  O  O34  1  0.78105400  0.88660800  0.37816300  1
  O  O35  1  0.62950400  0.19653500  0.06716800  1
  O  O36  1  0.22399700  0.46135200  0.78723700  1
  O  O37  1  0.12950400  0.80346500  0.43283200  1
  O  O38  1  0.28105400  0.11339200  0.12183700  1
  O  O39  1  0.43184200  0.72167200  0.45478700  1
  O  O40  1  0.05003100  0.38544300  0.68700000  1
  O  O41  1  0.28200700  0.74593800  0.31881700  1
  O  O42  1  0.35914300  0.39299700  0.66950900  1
  O  O43  1  0.78090600  0.86051200  0.18864700  1
  O  O44  1  0.78772300  0.51735800  0.52018700  1
  O  O45  1  0.85878100  0.17913400  0.85147000  1
  O  O46  1  0.22256900  0.05538200  0.98775400  1
  O  O47  1  0.44301700  0.87872600  0.10390200  1
loop_
_geom_bond_atom_site_label_1
_geom_bond_atom_site_label_2
_geom_bond_distance
_geom_bond_site_symmetry_2
Li0 O2 1.929237 1_655
Li0 O1 1.943955 1_555
Li0 O43 2.096665 1_555
Li1 O5 1.844870 1_555
Li1 O14 1.966401 1_555
Li1 O41 2.062592 1_555
Li2 O3 1.891372 1_555
Li2 O10 1.920564 1_455
Li2 O13 2.080619 1_555
Li3 O9 1.946246 1_555
Li3 O6 2.002627 1_565
Li3 O18 2.018260 1_555
Li4 O13 1.946246 1_555
Li4 O17 2.002627 1_545
Li4 O4 2.018260 1_555
Li5 O20 1.891372 1_556
Li5 O12 1.920564 1_555
Li5 O9 2.080619 1_555
Li6 O19 1.844870 1_655
Li6 O11 1.966401 1_555
Li6 O30 2.062592 1_555
Li7 O21 1.929237 1_555
Li7 O22 1.943955 1_555
Li7 O29 2.096665 1_555
Li8 O26 1.929237 1_555
Li8 O25 1.943955 1_555
Li8 O18 2.096665 1_555
Li9 O28 1.844870 1_455
Li9 O36 1.966401 1_555
Li9 O17 2.062592 1_555
Li10 O27 1.891372 1_554
Li10 O35 1.920564 1_555
Li10 O38 2.080619 1_555
Li11 O34 1.946246 1_555
Li11 O30 2.002627 1_565
Li11 O43 2.018260 1_555
Li12 O38 1.946246 1_555
Li12 O41 2.002627 1_545
Li12 O29 2.018260 1_555
Li13 O44 1.891372 1_555
Li13 O37 1.920564 1_655
Li13 O34 2.080619 1_555
Li14 O42 1.844870 1_555
Li14 O33 1.966401 1_555
Li14 O6 2.062592 1_555
Li15 O45 1.929237 1_455
Li15 O46 1.943955 1_555
Li15 O4 2.096665 1_555
Fe0 O0 1.870301 1_555
Fe0 O12 1.878954 1_545
Fe0 O46 1.921022 1_555
Fe0 O4 1.947330 1_555
Fe1 O7 1.853743 1_455
Fe1 O2 1.904285 1_555
Fe1 O14 1.913079 1_555
Fe1 O41 1.929345 1_555
Fe2 O8 1.954174 1_555
Fe2 O3 2.031452 1_555
Fe2 O42 2.052800 1_555
Fe2 O13 2.131279 1_555
Fe3 O15 1.954174 1_655
Fe3 O20 2.031452 1_556
Fe3 O28 2.052800 1_555
Fe3 O9 2.131279 1_555
Fe4 O16 1.853743 1_555
Fe4 O21 1.904285 1_555
Fe4 O11 1.913079 1_555
Fe4 O30 1.929345 1_555
Fe5 O23 1.870301 1_655
Fe5 O10 1.878954 1_565
Fe5 O25 1.921022 1_555
Fe5 O18 1.947330 1_555
Fe6 O24 1.870301 1_455
Fe6 O37 1.878954 1_545
Fe6 O22 1.921022 1_555
Fe6 O29 1.947330 1_555
Fe7 O31 1.853743 1_555
Fe7 O26 1.904285 1_555
Fe7 O36 1.913079 1_555
Fe7 O17 1.929345 1_555
Fe8 O32 1.954174 1_455
Fe8 O27 2.031452 1_554
Fe8 O19 2.052800 1_555
Fe8 O38 2.131279 1_555
Fe9 O39 1.954174 1_555
Fe9 O44 2.031452 1_555
Fe9 O5 2.052800 1_555
Fe9 O34 2.131279 1_555
Fe10 O40 1.853743 1_655
Fe10 O45 1.904285 1_555
Fe10 O33 1.913079 1_555
Fe10 O6 1.929345 1_555
Fe11 O47 1.870301 1_555
Fe11 O35 1.878954 1_565
Fe11 O1 1.921022 1_555
Fe11 O43 1.947330 1_555
O0 Si0 1.651148 1_555
O1 Si0 1.657621 1_564
O2 Si11 1.661021 1_555
O3 Si9 1.631492 1_555
O4 Si10 1.684344 1_555
O5 Si1 1.614640 1_555
O6 Si2 1.698583 1_555
O7 Si1 1.642611 1_555
O8 Si2 1.618525 1_555
O9 Si0 1.637372 1_565
O10 Si2 1.656613 1_555
O11 Si1 1.658610 1_555
O12 Si3 1.656613 1_555
O13 Si5 1.637372 1_545
O14 Si4 1.658610 1_555
O15 Si3 1.618525 1_555
O16 Si4 1.642611 1_555
O17 Si3 1.698583 1_555
O18 Si7 1.684344 1_555
O19 Si4 1.614640 1_555
O20 Si8 1.631492 1_555
O21 Si6 1.661021 1_555
O22 Si5 1.657621 1_545
O23 Si5 1.651148 1_555
O24 Si6 1.651148 1_555
O25 Si6 1.657621 1_565
O26 Si5 1.661021 1_555
O27 Si3 1.631492 1_555
O28 Si7 1.614640 1_555
O29 Si4 1.684344 1_555
O30 Si8 1.698583 1_555
O31 Si7 1.642611 1_555
O32 Si8 1.618525 1_555
O33 Si7 1.658610 1_555
O34 Si6 1.637372 1_565
O35 Si8 1.656613 1_555
O36 Si10 1.658610 1_555
O37 Si9 1.656613 1_555
O38 Si11 1.637372 1_545
O39 Si9 1.618525 1_555
O40 Si10 1.642611 1_555
O41 Si9 1.698583 1_555
O42 Si10 1.614640 1_555
O43 Si1 1.684344 1_555
O44 Si2 1.631492 1_555
O45 Si0 1.661021 1_555
O46 Si11 1.657621 1_546
O47 Si11 1.651148 1_555
