# generated using pymatgen
data_Tb2PdRu
_symmetry_space_group_name_H-M   'P 1'
_cell_length_a   4.87071327
_cell_length_b   4.87071327
_cell_length_c   4.87071327
_cell_angle_alpha   60.00000000
_cell_angle_beta   60.00000000
_cell_angle_gamma   60.00000000
_symmetry_Int_Tables_number   1
_chemical_formula_structural   Tb2PdRu
_chemical_formula_sum   'Tb2 Pd1 Ru1'
_cell_volume   81.70764510
_cell_formula_units_Z   1
loop_
 _symmetry_equiv_pos_site_id
 _symmetry_equiv_pos_as_xyz
  1  'x, y, z'
loop_
 _atom_site_type_symbol
 _atom_site_label
 _atom_site_symmetry_multiplicity
 _atom_site_fract_x
 _atom_site_fract_y
 _atom_site_fract_z
 _atom_site_occupancy
  Tb  Tb0  1  0.25000000  0.25000000  0.25000000  1
  Tb  Tb1  1  0.75000000  0.75000000  0.75000000  1
  Pd  Pd0  1  0.50000000  0.50000000  0.50000000  1
  Ru  Ru0  1  -0.00000000  0.00000000  -0.00000000  1
loop_
_geom_bond_atom_site_label_1
_geom_bond_atom_site_label_2
_geom_bond_distance
_geom_bond_site_symmetry_2
Pd0 Tb1 2.982691 1_545
Pd0 Tb0 2.982691 1_555
Pd0 Tb0 2.982691 1_556
Pd0 Tb1 2.982691 1_554
Pd0 Tb1 2.982691 1_455
Pd0 Tb0 2.982691 1_565
Pd0 Tb0 2.982691 1_655
Pd0 Tb1 2.982691 1_555
Ru0 Tb1 2.982691 1_445
Ru0 Tb1 2.982691 1_544
Ru0 Tb0 2.982691 1_555
Ru0 Tb0 2.982691 1_554
Ru0 Tb0 2.982691 1_545
Ru0 Tb0 2.982691 1_455
Ru0 Tb1 2.982691 1_444
Ru0 Tb1 2.982691 1_454
