# generated using pymatgen
data_DyGaFeCo3
_symmetry_space_group_name_H-M   'P 1'
_cell_length_a   4.00916000
_cell_length_b   4.91794900
_cell_length_c   5.02580636
_cell_angle_alpha   61.42217008
_cell_angle_beta   90.00000000
_cell_angle_gamma   90.00000000
_symmetry_Int_Tables_number   1
_chemical_formula_structural   DyGaFeCo3
_chemical_formula_sum   'Dy1 Ga1 Fe1 Co3'
_cell_volume   87.02035197
_cell_formula_units_Z   1
loop_
 _symmetry_equiv_pos_site_id
 _symmetry_equiv_pos_as_xyz
  1  'x, y, z'
loop_
 _atom_site_type_symbol
 _atom_site_label
 _atom_site_symmetry_multiplicity
 _atom_site_fract_x
 _atom_site_fract_y
 _atom_site_fract_z
 _atom_site_occupancy
  Dy  Dy0  1  0.00000000  0.50000000  0.50000000  1
  Ga  Ga0  1  0.50000000  0.00000000  0.50000000  1
  Fe  Fe0  1  0.50000000  0.50000000  0.00000000  1
  Co  Co0  1  0.00000000  0.82627100  0.84823400  1
  Co  Co1  1  0.00000000  0.17372900  0.15176600  1
  Co  Co2  1  0.50000000  0.00000000  0.00000000  1
loop_
_geom_bond_atom_site_label_1
_geom_bond_atom_site_label_2
_geom_bond_distance
_geom_bond_site_symmetry_2
Dy0 Ga0 3.172522 1_565
Dy0 Ga0 3.172522 1_465
Dy0 Ga0 3.172522 1_555
Dy0 Ga0 3.172522 1_455
Dy0 Fe0 3.214502 1_455
Dy0 Fe0 3.214502 1_456
Dy0 Fe0 3.214502 1_556
Dy0 Fe0 3.214502 1_555
Fe0 Ga0 2.539607 1_564
Fe0 Ga0 2.539607 1_555
Co0 Co2 2.439995 1_566
Co0 Co2 2.439995 1_466
Co0 Fe0 2.450288 1_456
Co0 Fe0 2.450288 1_556
Co0 Ga0 2.526024 1_465
Co0 Ga0 2.526024 1_565
Co0 Co1 2.782253 1_566
Co0 Co1 2.818206 1_556
Co0 Dy0 2.876818 1_556
Co0 Dy0 2.885208 1_555
Co0 Dy0 2.914377 1_565
Co0 Co1 3.074056 1_565
Co1 Co2 2.439995 1_455
Co1 Co2 2.439995 1_555
Co1 Fe0 2.450288 1_455
Co1 Fe0 2.450288 1_555
Co1 Ga0 2.526024 1_455
Co1 Ga0 2.526024 1_555
Co1 Dy0 2.876818 1_554
Co1 Dy0 2.885208 1_555
Co1 Dy0 2.914377 1_545
Co2 Fe0 2.458975 1_555
Co2 Fe0 2.458975 1_545
Co2 Ga0 2.512903 1_554
Co2 Ga0 2.512903 1_555
Co2 Dy0 3.235421 1_654
Co2 Dy0 3.235421 1_554
Co2 Dy0 3.235421 1_545
Co2 Dy0 3.235421 1_645
