# generated using pymatgen
data_Sc(VGa2)2
_symmetry_space_group_name_H-M   'P 1'
_cell_length_a   5.14883107
_cell_length_b   5.23992515
_cell_length_c   5.23992515
_cell_angle_alpha   76.03181039
_cell_angle_beta   60.57343764
_cell_angle_gamma   60.57343764
_symmetry_Int_Tables_number   1
_chemical_formula_structural   Sc(VGa2)2
_chemical_formula_sum   'Sc1 V2 Ga4'
_cell_volume   107.24604679
_cell_formula_units_Z   1
loop_
 _symmetry_equiv_pos_site_id
 _symmetry_equiv_pos_as_xyz
  1  'x, y, z'
loop_
 _atom_site_type_symbol
 _atom_site_label
 _atom_site_symmetry_multiplicity
 _atom_site_fract_x
 _atom_site_fract_y
 _atom_site_fract_z
 _atom_site_occupancy
  Sc  Sc0  1  0.00000000  -0.00000000  -0.00000000  1
  V  V0  1  0.25000000  0.50000000  0.50000000  1
  V  V1  1  0.75000000  0.50000000  0.50000000  1
  Ga  Ga0  1  0.30087295  -0.00000000  0.39825610  1
  Ga  Ga1  1  0.69912705  0.00000000  0.60174390  1
  Ga  Ga2  1  0.69912705  0.60174390  0.00000000  1
  Ga  Ga3  1  0.30087295  0.39825610  -0.00000000  1
loop_
_geom_bond_atom_site_label_1
_geom_bond_atom_site_label_2
_geom_bond_distance
_geom_bond_site_symmetry_2
V0 V1 2.574416 1_455
V0 V1 2.574416 1_555
Ga0 Ga3 2.570477 1_555
Ga0 Ga2 2.570477 1_545
Ga0 V0 2.660791 1_555
Ga0 V1 2.660792 1_545
Ga0 V0 2.660796 1_545
Ga0 V1 2.660797 1_455
Ga0 Ga1 2.736794 1_555
Ga0 Ga1 2.736814 1_455
Ga0 Sc0 2.746300 1_556
Ga0 Sc0 3.151391 1_655
Ga0 Sc0 3.151399 1_555
Ga1 Ga2 2.570477 1_546
Ga1 Ga3 2.570477 1_556
Ga1 V1 2.660791 1_545
Ga1 V0 2.660792 1_555
Ga1 V1 2.660796 1_555
Ga1 V0 2.660797 1_645
Ga1 Sc0 2.746300 1_655
Ga1 Sc0 3.151391 1_556
Ga1 Sc0 3.151399 1_656
Ga2 V1 2.660791 1_554
Ga2 V0 2.660792 1_555
Ga2 V1 2.660796 1_555
Ga2 V0 2.660797 1_654
Ga2 Ga3 2.736794 1_555
Ga2 Ga3 2.736814 1_655
Ga2 Sc0 2.746300 1_655
Ga2 Sc0 3.151391 1_565
Ga2 Sc0 3.151399 1_665
Ga3 V0 2.660791 1_555
Ga3 V1 2.660792 1_554
Ga3 V0 2.660796 1_554
Ga3 V1 2.660797 1_455
Ga3 Sc0 2.746300 1_565
Ga3 Sc0 3.151391 1_655
Ga3 Sc0 3.151399 1_555
