# generated using pymatgen
data_SrMgFe(PO4)2
_symmetry_space_group_name_H-M   'P 1'
_cell_length_a   5.58894292
_cell_length_b   6.78895054
_cell_length_c   9.50498141
_cell_angle_alpha   110.21656881
_cell_angle_beta   101.64269042
_cell_angle_gamma   98.16531174
_symmetry_Int_Tables_number   1
_chemical_formula_structural   SrMgFe(PO4)2
_chemical_formula_sum   'Sr2 Mg2 Fe2 P4 O16'
_cell_volume   322.54781303
_cell_formula_units_Z   2
loop_
 _symmetry_equiv_pos_site_id
 _symmetry_equiv_pos_as_xyz
  1  'x, y, z'
loop_
 _atom_site_type_symbol
 _atom_site_label
 _atom_site_symmetry_multiplicity
 _atom_site_fract_x
 _atom_site_fract_y
 _atom_site_fract_z
 _atom_site_occupancy
  Sr  Sr0  1  0.25680000  0.79917900  0.05262800  1
  Sr  Sr1  1  0.74320000  0.20082100  0.94737200  1
  Mg  Mg0  1  0.99658700  0.40137400  0.64794400  1
  Mg  Mg1  1  0.00341300  0.59862600  0.35205600  1
  Fe  Fe0  1  0.63039500  0.84507100  0.55567000  1
  Fe  Fe1  1  0.36960500  0.15492900  0.44433000  1
  P  P0  1  0.38923300  0.42129000  0.23351300  1
  P  P1  1  0.61076700  0.57871000  0.76648700  1
  P  P2  1  0.84515500  0.02578000  0.30216700  1
  P  P3  1  0.15484500  0.97422000  0.69783300  1
  O  O0  1  0.82667100  0.55295600  0.88512300  1
  O  O1  1  0.65180000  0.47653300  0.20784400  1
  O  O2  1  0.66139400  0.80775600  0.76695800  1
  O  O3  1  0.95500000  0.11496400  0.68509000  1
  O  O4  1  0.34820000  0.52346700  0.79215600  1
  O  O5  1  0.01196700  0.73587200  0.58284000  1
  O  O6  1  0.98803300  0.26412800  0.41716000  1
  O  O7  1  0.24779400  0.99847700  0.86658900  1
  O  O8  1  0.33860600  0.19224400  0.23304200  1
  O  O9  1  0.75220600  0.00152300  0.13341100  1
  O  O10  1  0.17332900  0.44704400  0.11487700  1
  O  O11  1  0.37239100  0.58498800  0.39399800  1
  O  O12  1  0.62760900  0.41501200  0.60600200  1
  O  O13  1  0.62213700  0.95084000  0.36221700  1
  O  O14  1  0.04500000  0.88503600  0.31491000  1
  O  O15  1  0.37786300  0.04916000  0.63778300  1
loop_
_geom_bond_atom_site_label_1
_geom_bond_atom_site_label_2
_geom_bond_distance
_geom_bond_site_symmetry_2
Mg0 O4 2.023013 1_655
Mg0 O12 2.041589 1_555
Mg0 O6 2.052980 1_555
Mg0 O3 2.082953 1_555
Mg0 O5 2.546470 1_655
Mg0 O0 2.565419 1_555
Mg1 O1 2.023013 1_455
Mg1 O11 2.041589 1_555
Mg1 O5 2.052980 1_555
Mg1 O14 2.082953 1_555
Mg1 O6 2.546470 1_455
Mg1 O10 2.565419 1_555
Fe0 O11 2.016304 1_555
Fe0 O2 2.085922 1_555
Fe0 O3 2.181520 1_565
Fe0 O15 2.184861 1_565
Fe0 O13 2.187809 1_555
Fe0 O5 2.350177 1_655
Fe1 O12 2.016304 1_555
Fe1 O8 2.085922 1_555
Fe1 O14 2.181520 1_545
Fe1 O13 2.184861 1_545
Fe1 O15 2.187809 1_555
Fe1 O6 2.350177 1_455
O0 P1 1.550868 1_555
O0 Sr0 2.565635 1_656
O0 Sr1 2.656129 1_555
O1 P0 1.550830 1_555
O1 Sr1 2.733729 1_554
O2 P1 1.538748 1_555
O2 Sr1 2.538678 1_565
O3 P3 1.582313 1_645
O3 Sr1 2.887688 1_555
O4 P1 1.550830 1_555
O4 Sr0 2.733729 1_556
O5 P3 1.583978 1_555
O6 P2 1.583978 1_555
O7 P3 1.525349 1_555
O7 Sr0 2.568480 1_556
O7 Sr1 2.734111 1_565
O8 P0 1.538748 1_555
O8 Sr0 2.538678 1_545
O9 P2 1.525349 1_555
O9 Sr1 2.568480 1_554
O9 Sr0 2.734111 1_545
O10 P0 1.550868 1_555
O10 Sr1 2.565635 1_454
O10 Sr0 2.656129 1_555
O11 P0 1.576965 1_555
O12 P1 1.576965 1_555
O13 P2 1.563948 1_565
O13 Sr0 2.961771 1_555
O14 P2 1.582313 1_465
O14 Sr0 2.887688 1_555
O15 P3 1.563948 1_545
O15 Sr1 2.961771 1_555
