# generated using pymatgen
data_Mg14FeCo
_symmetry_space_group_name_H-M   'P 1'
_cell_length_a   6.23509809
_cell_length_b   6.23509761
_cell_length_c   9.72825277
_cell_angle_alpha   90.00000000
_cell_angle_beta   90.00000000
_cell_angle_gamma   120.00000249
_symmetry_Int_Tables_number   1
_chemical_formula_structural   Mg14FeCo
_chemical_formula_sum   'Mg14 Fe1 Co1'
_cell_volume   327.53070051
_cell_formula_units_Z   1
loop_
 _symmetry_equiv_pos_site_id
 _symmetry_equiv_pos_as_xyz
  1  'x, y, z'
loop_
 _atom_site_type_symbol
 _atom_site_label
 _atom_site_symmetry_multiplicity
 _atom_site_fract_x
 _atom_site_fract_y
 _atom_site_fract_z
 _atom_site_occupancy
  Mg  Mg0  1  0.16842103  0.83421001  0.12500000  1
  Mg  Mg1  1  0.16744030  0.83371965  0.62500000  1
  Mg  Mg2  1  0.66578999  0.33157897  0.12500000  1
  Mg  Mg3  1  0.66628035  0.33255970  0.62500000  1
  Mg  Mg4  1  0.66578999  0.83421001  0.12500000  1
  Mg  Mg5  1  0.66628035  0.83371965  0.62500000  1
  Mg  Mg6  1  0.32345687  0.17654313  0.37696660  1
  Mg  Mg7  1  0.32345687  0.17654313  0.87303340  1
  Mg  Mg8  1  0.32345687  0.64691474  0.37696660  1
  Mg  Mg9  1  0.32345687  0.64691474  0.87303340  1
  Mg  Mg10  1  0.85308526  0.17654313  0.37696660  1
  Mg  Mg11  1  0.85308526  0.17654313  0.87303340  1
  Mg  Mg12  1  0.83333300  0.66666700  0.37355548  1
  Mg  Mg13  1  0.83333300  0.66666700  0.87644452  1
  Fe  Fe0  1  0.16666700  0.33333300  0.12500000  1
  Co  Co0  1  0.16666700  0.33333300  0.62500000  1
loop_
_geom_bond_atom_site_label_1
_geom_bond_atom_site_label_2
_geom_bond_distance
_geom_bond_site_symmetry_2
Mg0 Mg13 3.020046 1_454
Mg0 Mg12 3.020046 1_455
Mg0 Mg8 3.071715 1_555
Mg0 Mg9 3.071715 1_554
Mg0 Mg7 3.071722 1_564
Mg0 Mg6 3.071722 1_565
Mg0 Mg2 3.101144 1_565
Mg0 Mg4 3.101144 1_555
Mg0 Mg2 3.133954 1_455
Mg0 Mg4 3.133954 1_455
Mg1 Mg12 3.039449 1_455
Mg1 Mg13 3.039449 1_455
Mg1 Mg9 3.042731 1_555
Mg1 Mg8 3.042731 1_555
Mg1 Mg7 3.042738 1_565
Mg1 Mg6 3.042738 1_565
Mg1 Mg3 3.110316 1_565
Mg1 Mg5 3.110317 1_555
Mg1 Mg3 3.124781 1_455
Mg1 Mg5 3.124781 1_455
Mg2 Mg6 3.071722 1_555
Mg2 Mg7 3.071722 1_554
Mg2 Mg4 3.101144 1_545
Mg2 Mg4 3.133954 1_555
Mg3 Mg7 3.042738 1_555
Mg3 Mg6 3.042738 1_555
Mg3 Mg5 3.110316 1_545
Mg3 Mg5 3.124781 1_555
Mg4 Mg8 3.071722 1_555
Mg4 Mg9 3.071722 1_554
Mg5 Mg9 3.042738 1_555
Mg5 Mg8 3.042738 1_555
Mg10 Mg3 3.042731 1_555
Mg10 Mg5 3.042738 1_545
Mg10 Mg2 3.071715 1_555
Mg10 Mg4 3.071722 1_545
Mg10 Mg12 3.119549 1_545
Mg10 Mg12 3.119549 1_555
Mg11 Mg3 3.042731 1_555
Mg11 Mg5 3.042738 1_545
Mg11 Mg2 3.071715 1_556
Mg11 Mg4 3.071722 1_546
Mg11 Mg13 3.119549 1_545
Mg11 Mg13 3.119549 1_555
Mg12 Mg4 3.020039 1_555
Mg12 Mg2 3.020046 1_555
Mg12 Mg5 3.039442 1_555
Mg12 Mg3 3.039449 1_555
Mg12 Mg6 3.119549 1_665
Mg12 Mg6 3.119549 1_555
Mg12 Mg8 3.119549 1_655
Mg12 Mg8 3.119549 1_555
Mg13 Mg4 3.020039 1_556
Mg13 Mg2 3.020046 1_556
Mg13 Mg5 3.039442 1_555
Mg13 Mg3 3.039449 1_555
Mg13 Mg7 3.119549 1_665
Mg13 Mg7 3.119549 1_555
Mg13 Mg9 3.119549 1_655
Mg13 Mg9 3.119549 1_555
Fe0 Mg6 2.979171 1_555
Fe0 Mg7 2.979171 1_554
Fe0 Mg8 2.979177 1_555
Fe0 Mg9 2.979177 1_554
Fe0 Mg10 2.979178 1_455
Fe0 Mg11 2.979178 1_454
Fe0 Mg0 3.117563 1_555
Fe0 Mg4 3.117563 1_555
Fe0 Mg4 3.117563 1_445
Fe0 Mg0 3.117563 1_545
Fe0 Mg2 3.117563 1_455
Fe0 Mg2 3.117563 1_555
Co0 Mg7 2.947770 1_555
Co0 Mg6 2.947770 1_555
Co0 Mg9 2.947776 1_555
Co0 Mg8 2.947776 1_555
Co0 Mg11 2.947776 1_455
Co0 Mg10 2.947776 1_455
Co0 Mg1 3.117552 1_555
Co0 Mg1 3.117552 1_545
Co0 Mg5 3.117552 1_555
Co0 Mg5 3.117552 1_445
Co0 Mg3 3.117552 1_555
Co0 Mg3 3.117552 1_455
