# generated using pymatgen
data_Fe3Ni(Mo3N)2
_symmetry_space_group_name_H-M   'P 1'
_cell_length_a   6.69072900
_cell_length_b   6.68865400
_cell_length_c   6.69308720
_cell_angle_alpha   89.76106883
_cell_angle_beta   90.00000000
_cell_angle_gamma   90.00000000
_symmetry_Int_Tables_number   1
_chemical_formula_structural   Fe3Ni(Mo3N)2
_chemical_formula_sum   'Fe6 Ni2 Mo12 N4'
_cell_volume   299.52624164
_cell_formula_units_Z   2
loop_
 _symmetry_equiv_pos_site_id
 _symmetry_equiv_pos_as_xyz
  1  'x, y, z'
loop_
 _atom_site_type_symbol
 _atom_site_label
 _atom_site_symmetry_multiplicity
 _atom_site_fract_x
 _atom_site_fract_y
 _atom_site_fract_z
 _atom_site_occupancy
  Fe  Fe0  1  0.18121400  0.31970600  0.56897800  1
  Fe  Fe1  1  0.68121400  0.68029400  0.43102200  1
  Fe  Fe2  1  0.93049400  0.43092800  0.32241100  1
  Fe  Fe3  1  0.57056400  0.92872400  0.18309000  1
  Fe  Fe4  1  0.43049400  0.56907200  0.67758900  1
  Fe  Fe5  1  0.07056400  0.07127600  0.81691000  1
  Ni  Ni0  1  0.31843600  0.81744200  0.93203500  1
  Ni  Ni1  1  0.81843600  0.18255800  0.06796500  1
  Mo  Mo0  1  0.37482100  0.95234900  0.54825800  1
  Mo  Mo1  1  0.87482100  0.04765100  0.45174200  1
  Mo  Mo2  1  0.12357300  0.45085700  0.95357400  1
  Mo  Mo3  1  0.62357300  0.54914300  0.04642600  1
  Mo  Mo4  1  0.79735100  0.37543700  0.70146500  1
  Mo  Mo5  1  0.70233300  0.87583100  0.79883700  1
  Mo  Mo6  1  0.20233300  0.12416900  0.20116300  1
  Mo  Mo7  1  0.29735100  0.62456300  0.29853500  1
  Mo  Mo8  1  0.95158100  0.79803100  0.12493600  1
  Mo  Mo9  1  0.04911100  0.70268400  0.62604600  1
  Mo  Mo10  1  0.45158100  0.20196900  0.87506400  1
  Mo  Mo11  1  0.54911100  0.29731600  0.37395400  1
  N  N0  1  0.62516200  0.12512200  0.62566600  1
  N  N1  1  0.12516200  0.87487800  0.37433400  1
  N  N2  1  0.87536100  0.62465000  0.87527000  1
  N  N3  1  0.37536100  0.37535000  0.12473000  1
loop_
_geom_bond_atom_site_label_1
_geom_bond_atom_site_label_2
_geom_bond_distance
_geom_bond_site_symmetry_2
Fe0 Fe5 2.457625 1_555
Fe0 Fe2 2.465900 1_455
Fe0 Fe4 2.470283 1_555
Fe0 Mo9 2.738084 1_555
Fe0 Mo4 2.743049 1_455
Fe0 Mo2 2.750138 1_555
Fe0 Mo0 2.781640 1_545
Fe0 Mo11 2.790498 1_555
Fe0 Mo6 2.796054 1_555
Fe0 Mo7 2.829722 1_555
Fe0 Mo10 2.841834 1_555
Fe0 Mo1 2.853301 1_455
Fe1 Fe3 2.457625 1_555
Fe1 Fe4 2.465900 1_555
Fe1 Fe2 2.470283 1_555
Fe1 Mo11 2.738084 1_555
Fe1 Mo7 2.743049 1_555
Fe1 Mo3 2.750138 1_555
Fe1 Mo1 2.781640 1_565
Fe1 Mo9 2.790498 1_655
Fe1 Mo5 2.796054 1_555
Fe1 Mo4 2.829722 1_555
Fe1 Mo8 2.841834 1_555
Fe1 Mo0 2.853301 1_555
Fe2 Ni1 2.499163 1_555
Fe2 Mo4 2.712942 1_555
Fe2 Mo11 2.725150 1_555
Fe2 Mo1 2.727935 1_555
Fe2 Mo7 2.779571 1_655
Fe2 Mo8 2.787272 1_555
Fe2 Mo2 2.788933 1_654
Fe2 Mo9 2.845118 1_655
Fe2 Mo6 2.861887 1_655
Fe2 Mo3 2.870907 1_555
Fe3 Ni1 2.493153 1_565
Fe3 Ni0 2.496732 1_554
Fe3 Mo8 2.723478 1_555
Fe3 Mo3 2.725396 1_555
Fe3 Mo5 2.743060 1_554
Fe3 Mo0 2.777956 1_555
Fe3 Mo11 2.785124 1_565
Fe3 Mo6 2.791930 1_565
Fe3 Mo1 2.832309 1_565
Fe3 Mo7 2.839787 1_555
Fe3 Mo10 2.862337 1_564
Fe4 Ni0 2.499163 1_555
Fe4 Mo7 2.712942 1_555
Fe4 Mo9 2.725150 1_555
Fe4 Mo0 2.727935 1_555
Fe4 Mo4 2.779571 1_555
Fe4 Mo10 2.787272 1_555
Fe4 Mo3 2.788933 1_556
Fe4 Mo11 2.845118 1_555
Fe4 Mo5 2.861887 1_555
Fe4 Mo2 2.870907 1_555
Fe5 Ni0 2.493153 1_545
Fe5 Ni1 2.496732 1_456
Fe5 Mo10 2.723478 1_555
Fe5 Mo2 2.725396 1_555
Fe5 Mo6 2.743060 1_556
Fe5 Mo1 2.777956 1_455
Fe5 Mo9 2.785124 1_545
Fe5 Mo5 2.791930 1_445
Fe5 Mo0 2.832309 1_545
Fe5 Mo4 2.839787 1_455
Fe5 Mo8 2.862337 1_446
Mo0 N0 2.101042 1_565
Mo0 N1 2.102113 1_555
Mo0 Ni0 2.745032 1_555
Mo1 N1 2.101042 1_645
Mo1 N0 2.102113 1_555
Mo1 Ni1 2.745032 1_555
Mo2 N2 2.092571 1_455
Mo2 N3 2.097757 1_556
Mo2 Ni0 2.780247 1_555
Mo2 Ni1 2.821924 1_456
Mo3 N3 2.092571 1_555
Mo3 N2 2.097757 1_554
Mo3 Ni1 2.780247 1_555
Mo3 Ni0 2.821924 1_554
Mo4 N0 2.096405 1_555
Mo4 N2 2.102475 1_555
Mo4 Ni1 2.770408 1_556
Mo5 N0 2.091451 1_565
Mo5 N2 2.101757 1_555
Mo5 Ni0 2.746244 1_555
Mo5 Ni1 2.843933 1_566
Mo6 N1 2.091451 1_545
Mo6 N3 2.101757 1_555
Mo6 Ni1 2.746244 1_455
Mo6 Ni0 2.843933 1_544
Mo7 N1 2.096405 1_555
Mo7 N3 2.102475 1_555
Mo7 Ni0 2.770408 1_554
Mo8 N1 2.099175 1_655
Mo8 N2 2.100824 1_554
Mo8 Ni1 2.746967 1_565
Mo8 Ni0 2.776168 1_654
Mo9 N2 2.097400 1_455
Mo9 N1 2.099421 1_555
Mo9 Ni0 2.836154 1_555
Mo10 N0 2.099175 1_555
Mo10 N3 2.100824 1_556
Mo10 Ni0 2.746967 1_545
Mo10 Ni1 2.776168 1_556
Mo11 N3 2.097400 1_555
Mo11 N0 2.099421 1_555
Mo11 Ni1 2.836154 1_555
