# generated using pymatgen
data_Li3Cr3GaO8
_symmetry_space_group_name_H-M   'P 1'
_cell_length_a   5.18233800
_cell_length_b   5.91950379
_cell_length_c   10.63268304
_cell_angle_alpha   105.77395059
_cell_angle_beta   94.69765241
_cell_angle_gamma   107.14899174
_symmetry_Int_Tables_number   1
_chemical_formula_structural   Li3Cr3GaO8
_chemical_formula_sum   'Li6 Cr6 Ga2 O16'
_cell_volume   295.24451600
_cell_formula_units_Z   2
loop_
 _symmetry_equiv_pos_site_id
 _symmetry_equiv_pos_as_xyz
  1  'x, y, z'
loop_
 _atom_site_type_symbol
 _atom_site_label
 _atom_site_symmetry_multiplicity
 _atom_site_fract_x
 _atom_site_fract_y
 _atom_site_fract_z
 _atom_site_occupancy
  Li  Li0  1  0.99420400  0.48648500  0.00123700  1
  Li  Li1  1  0.25654200  0.87479600  0.74683600  1
  Li  Li2  1  0.49589700  0.74720400  0.50181600  1
  Li  Li3  1  0.75351300  0.62801000  0.24909800  1
  Li  Li4  1  0.99681400  0.01055900  0.00319600  1
  Li  Li5  1  0.49718100  0.25077300  0.50122100  1
  Cr  Cr0  1  0.61642500  0.68357900  0.87438000  1
  Cr  Cr1  1  0.62179200  0.18913800  0.87277300  1
  Cr  Cr2  1  0.12597200  0.93788900  0.37432000  1
  Cr  Cr3  1  0.38515600  0.81623400  0.12546600  1
  Cr  Cr4  1  0.88794800  0.06772000  0.62585600  1
  Cr  Cr5  1  0.11282800  0.43307700  0.37271800  1
  Ga  Ga0  1  0.87247500  0.56097300  0.62575000  1
  Ga  Ga1  1  0.37795100  0.30617400  0.12905800  1
  O  O0  1  0.33819300  0.84355000  0.93813700  1
  O  O1  1  0.34072700  0.35563600  0.94302700  1
  O  O2  1  0.59628200  0.73316600  0.69035300  1
  O  O3  1  0.10044300  0.97009200  0.18729200  1
  O  O4  1  0.60213300  0.22268700  0.68540700  1
  O  O5  1  0.83151200  0.59686500  0.43861100  1
  O  O6  1  0.09445800  0.47932900  0.19253500  1
  O  O7  1  0.84766600  0.10625300  0.44098400  1
  O  O8  1  0.16845800  0.89962900  0.56085900  1
  O  O9  1  0.89632200  0.53464000  0.81352800  1
  O  O10  1  0.89338200  0.00653900  0.81615200  1
  O  O11  1  0.39504000  0.75680500  0.31614900  1
  O  O12  1  0.16618700  0.41087800  0.54858500  1
  O  O13  1  0.66802600  0.65204500  0.05691300  1
  O  O14  1  0.39992000  0.28391200  0.31347500  1
  O  O15  1  0.66664800  0.15551900  0.05415000  1
loop_
_geom_bond_atom_site_label_1
_geom_bond_atom_site_label_2
_geom_bond_distance
_geom_bond_site_symmetry_2
Li0 O6 2.072596 1_655
Li0 O9 2.133247 1_554
Li0 O1 2.224768 1_654
Li0 O13 2.234648 1_555
Li0 O15 2.414712 1_555
Li1 O8 2.046946 1_555
Li1 O0 2.111945 1_555
Li1 O2 2.221117 1_555
Li1 O10 2.339569 1_465
Li2 O11 2.020680 1_555
Li2 O2 2.059472 1_555
Li2 O8 2.203887 1_555
Li2 O5 2.246720 1_555
Li3 O5 2.090513 1_555
Li3 O13 2.106922 1_555
Li3 O6 2.249787 1_655
Li3 O11 2.301595 1_555
Li4 O10 2.008797 1_554
Li4 O3 2.082295 1_645
Li4 O15 2.173105 1_555
Li4 O0 2.333620 1_644
Li4 O13 2.533631 1_545
Li4 O1 2.551212 1_654
Li5 O4 2.052958 1_555
Li5 O14 2.093784 1_555
Li5 O12 2.221454 1_555
Li5 O7 2.291312 1_555
Li5 O8 2.535771 1_545
Li5 O5 2.545476 1_555
Cr0 O9 1.974254 1_555
Cr0 O13 2.003625 1_556
Cr0 O0 2.012861 1_555
Cr0 O2 2.054900 1_555
Cr0 O10 2.295456 1_565
Cr0 Li4 2.318341 1_566
Cr0 O1 2.376584 1_555
Cr1 O15 1.993830 1_556
Cr1 O10 2.047902 1_555
Cr1 O4 2.052433 1_555
Cr1 O1 2.067729 1_555
Cr1 Li0 2.224052 1_556
Cr1 Li1 2.234154 1_545
Cr1 O9 2.394806 1_555
Cr1 O0 2.448519 1_545
Cr2 O11 2.034254 1_555
Cr2 O3 2.046042 1_555
Cr2 O7 2.051072 1_465
Cr2 O8 2.058103 1_555
Cr2 Li3 2.241975 1_455
Cr2 Li5 2.250929 1_565
Cr2 O14 2.405322 1_565
Cr2 O5 2.444496 1_455
Cr3 O3 2.016060 1_555
Cr3 O0 2.042448 1_554
Cr3 O13 2.062747 1_555
Cr3 O11 2.149051 1_555
Cr3 Li0 2.342522 1_455
Cr3 O6 2.435732 1_555
Cr3 O15 2.453188 1_565
Cr4 O4 2.018770 1_555
Cr4 O7 2.040628 1_555
Cr4 O8 2.055380 1_645
Cr4 O10 2.149654 1_555
Cr4 Li2 2.322612 1_545
Cr4 O2 2.412434 1_545
Cr4 O12 2.500918 1_655
Cr5 O12 1.913304 1_555
Cr5 O14 2.003957 1_555
Cr5 O6 2.006265 1_555
Cr5 O5 2.046415 1_455
Cr5 Li2 2.296060 1_555
Cr5 O11 2.300211 1_555
Cr5 O7 2.348847 1_455
Ga0 O9 2.041096 1_555
Ga0 O2 2.049447 1_555
Ga0 O5 2.058331 1_555
Ga0 O12 2.094077 1_655
Ga0 Li5 2.248965 1_555
Ga0 Li1 2.273672 1_655
Ga0 O4 2.357292 1_555
Ga0 O8 2.441227 1_655
Ga1 O14 1.997003 1_555
Ga1 O15 2.064922 1_555
Ga1 O1 2.078734 1_554
Ga1 O6 2.083001 1_555
Ga1 Li4 2.238294 1_455
O10 O2 1.948062 1_545
O11 O6 1.958048 1_555
