# generated using pymatgen
data_Ba3LiTi3O8
_symmetry_space_group_name_H-M   'P 1'
_cell_length_a   5.94686748
_cell_length_b   5.94675308
_cell_length_c   7.67255807
_cell_angle_alpha   100.27931204
_cell_angle_beta   79.73683812
_cell_angle_gamma   120.96764827
_symmetry_Int_Tables_number   1
_chemical_formula_structural   Ba3LiTi3O8
_chemical_formula_sum   'Ba3 Li1 Ti3 O8'
_cell_volume   227.72329697
_cell_formula_units_Z   1
loop_
 _symmetry_equiv_pos_site_id
 _symmetry_equiv_pos_as_xyz
  1  'x, y, z'
loop_
 _atom_site_type_symbol
 _atom_site_label
 _atom_site_symmetry_multiplicity
 _atom_site_fract_x
 _atom_site_fract_y
 _atom_site_fract_z
 _atom_site_occupancy
  Ba  Ba0  1  0.99136700  0.00829600  0.02919900  1
  Ba  Ba1  1  0.36277400  0.63667200  0.70444300  1
  Ba  Ba2  1  0.61581500  0.38376600  0.28206900  1
  Li  Li0  1  0.84208400  0.15813300  0.44577200  1
  Ti  Ti0  1  0.06128700  0.93815500  0.58922500  1
  Ti  Ti1  1  0.31650500  0.68326400  0.15761600  1
  Ti  Ti2  1  0.68137300  0.31816200  0.84684900  1
  O  O0  1  0.98174700  0.51930100  0.98638800  1
  O  O1  1  0.11074600  0.41270300  0.29726800  1
  O  O2  1  0.48011400  0.01804900  0.98618000  1
  O  O3  1  0.58733400  0.89018700  0.29698100  1
  O  O4  1  0.39277500  0.13388900  0.65809500  1
  O  O5  1  0.48846100  0.51169600  0.98402400  1
  O  O6  1  0.86598200  0.60663100  0.65804300  1
  O  O7  1  0.88135600  0.11790500  0.67973300  1
loop_
_geom_bond_atom_site_label_1
_geom_bond_atom_site_label_2
_geom_bond_distance
_geom_bond_site_symmetry_2
Ba0 O3 2.739873 1_545
Ba0 O1 2.741512 1_655
Ba0 O2 2.837539 1_654
Ba0 O0 2.839337 1_544
Ba0 O5 2.949676 1_544
Ba0 O5 2.952740 1_654
Ba0 O7 3.119279 1_554
Ba0 O0 3.144430 1_554
Ba0 O2 3.146737 1_554
Ba0 O4 3.296297 1_654
Ba0 O6 3.296518 1_544
Ba1 O5 2.724786 1_555
Ba1 O2 2.731744 1_565
Ba1 O0 2.732354 1_455
Ba1 O7 2.939257 1_565
Ba1 O7 2.940224 1_455
Ba1 O6 2.948867 1_455
Ba1 O4 2.951420 1_565
Ba1 O4 3.040533 1_555
Ba1 O6 3.043290 1_555
Ba2 O2 2.760363 1_554
Ba2 O0 2.760488 1_554
Ba2 O5 2.865771 1_554
Ba2 O3 2.873755 1_545
Ba2 O1 2.880986 1_655
Ba2 O1 3.076463 1_555
Ba2 O3 3.083232 1_555
Ba2 O6 3.229066 1_555
Ba2 O4 3.229422 1_555
Li0 O3 1.902681 1_545
Li0 O1 1.902758 1_655
Li0 O7 1.922038 1_555
O0 Ti2 1.947661 1_555
O0 Ti1 2.262080 1_656
O1 Ti1 1.831968 1_555
O2 Ti2 1.946076 1_555
O2 Ti1 2.263968 1_546
O3 Ti1 1.831959 1_555
O4 Ti0 1.819467 1_545
O4 Ti2 2.151176 1_555
O5 Ti1 1.990978 1_556
O5 Ti2 2.060246 1_555
O6 Ti0 1.819639 1_655
O6 Ti2 2.151425 1_555
O7 Ti0 1.848559 1_645
O7 Ti2 2.201314 1_555
