# generated using pymatgen
data_CsNbV2O8
_symmetry_space_group_name_H-M   'P 1'
_cell_length_a   5.72331800
_cell_length_b   9.33434600
_cell_length_c   17.09207843
_cell_angle_alpha   74.20314703
_cell_angle_beta   90.00000000
_cell_angle_gamma   90.00000000
_symmetry_Int_Tables_number   1
_chemical_formula_structural   CsNbV2O8
_chemical_formula_sum   'Cs4 Nb4 V8 O32'
_cell_volume   878.63170822
_cell_formula_units_Z   4
loop_
 _symmetry_equiv_pos_site_id
 _symmetry_equiv_pos_as_xyz
  1  'x, y, z'
loop_
 _atom_site_type_symbol
 _atom_site_label
 _atom_site_symmetry_multiplicity
 _atom_site_fract_x
 _atom_site_fract_y
 _atom_site_fract_z
 _atom_site_occupancy
  Cs  Cs0  1  0.25000000  0.60100100  0.38995800  1
  Cs  Cs1  1  0.75000000  0.39899900  0.61004200  1
  Cs  Cs2  1  0.25000000  0.41895000  0.12128600  1
  Cs  Cs3  1  0.75000000  0.58105000  0.87871400  1
  Nb  Nb0  1  0.25000000  0.94166300  0.15139900  1
  Nb  Nb1  1  0.75000000  0.05833700  0.84860100  1
  Nb  Nb2  1  0.25000000  0.07564000  0.34661700  1
  Nb  Nb3  1  0.75000000  0.92436000  0.65338300  1
  V  V0  1  0.75000000  0.16547700  0.04008800  1
  V  V1  1  0.25000000  0.83452300  0.95991200  1
  V  V2  1  0.75000000  0.85009500  0.44631200  1
  V  V3  1  0.25000000  0.14990500  0.55368800  1
  V  V4  1  0.75000000  0.32272300  0.33842600  1
  V  V5  1  0.25000000  0.67727700  0.66157400  1
  V  V6  1  0.75000000  0.68814000  0.20548000  1
  V  V7  1  0.25000000  0.31186000  0.79452000  1
  O  O0  1  0.49582800  0.07359400  0.09002700  1
  O  O1  1  0.99582800  0.92640600  0.90997300  1
  O  O2  1  0.50417200  0.92640600  0.90997300  1
  O  O3  1  0.00417200  0.07359400  0.09002700  1
  O  O4  1  0.75000000  0.16979500  0.93726100  1
  O  O5  1  0.25000000  0.83020500  0.06273900  1
  O  O6  1  0.49394500  0.79213800  0.20932700  1
  O  O7  1  0.99394500  0.20786200  0.79067300  1
  O  O8  1  0.50605500  0.20786200  0.79067300  1
  O  O9  1  0.00605500  0.79213800  0.20932700  1
  O  O10  1  0.25000000  0.03871500  0.23966700  1
  O  O11  1  0.75000000  0.96128500  0.76033300  1
  O  O12  1  0.49391000  0.24212500  0.31107000  1
  O  O13  1  0.99391000  0.75787500  0.68893000  1
  O  O14  1  0.50609000  0.75787500  0.68893000  1
  O  O15  1  0.00609000  0.24212500  0.31107000  1
  O  O16  1  0.75000000  0.88236000  0.54180200  1
  O  O17  1  0.25000000  0.11764000  0.45819800  1
  O  O18  1  0.49826600  0.92873600  0.38815600  1
  O  O19  1  0.99826600  0.07126400  0.61184400  1
  O  O20  1  0.50173400  0.07126400  0.61184400  1
  O  O21  1  0.00173400  0.92873600  0.38815600  1
  O  O22  1  0.75000000  0.33841100  0.04821100  1
  O  O23  1  0.25000000  0.66158900  0.95178900  1
  O  O24  1  0.75000000  0.66910500  0.45463300  1
  O  O25  1  0.25000000  0.33089500  0.54536700  1
  O  O26  1  0.75000000  0.30121500  0.43704900  1
  O  O27  1  0.25000000  0.69878500  0.56295100  1
  O  O28  1  0.75000000  0.52364600  0.29151300  1
  O  O29  1  0.25000000  0.47635400  0.70848700  1
  O  O30  1  0.75000000  0.63304100  0.12220700  1
  O  O31  1  0.25000000  0.36695900  0.87779300  1
loop_
_geom_bond_atom_site_label_1
_geom_bond_atom_site_label_2
_geom_bond_distance
_geom_bond_site_symmetry_2
Cs0 O25 3.125094 1_555
Cs0 O24 3.193399 1_455
Cs0 O24 3.193399 1_555
Cs0 O27 3.323436 1_555
Cs0 O18 3.365602 1_555
Cs0 O21 3.365602 1_555
Cs0 O6 3.415441 1_555
Cs0 O9 3.415441 1_555
Cs0 O28 3.493307 1_555
Cs0 O28 3.493307 1_455
Cs1 O24 3.125094 1_555
Cs1 O25 3.193399 1_555
Cs1 O25 3.193399 1_655
Cs1 O26 3.323436 1_555
Cs1 O19 3.365602 1_555
Cs1 O20 3.365602 1_555
Cs1 O8 3.415441 1_555
Cs1 O7 3.415441 1_555
Cs1 O29 3.493307 1_555
Cs1 O29 3.493307 1_655
Cs2 O23 3.154389 1_554
Cs2 O22 3.290213 1_555
Cs2 O22 3.290213 1_455
Cs2 O30 3.492860 1_455
Cs2 O30 3.492860 1_555
Cs2 O15 3.504321 1_555
Cs2 O12 3.504321 1_555
Cs2 O10 3.575083 1_555
Cs2 O0 3.687109 1_555
Cs2 O3 3.687109 1_555
Cs2 O5 3.694082 1_555
Cs3 O22 3.154389 1_556
Cs3 O23 3.290213 1_555
Cs3 O23 3.290213 1_655
Cs3 O31 3.492860 1_655
Cs3 O31 3.492860 1_555
Cs3 O14 3.504321 1_555
Cs3 O13 3.504321 1_555
Cs3 O11 3.575083 1_555
Cs3 O1 3.687109 1_555
Cs3 O2 3.687109 1_555
Cs3 O4 3.694082 1_555
Nb0 O10 1.959832 1_565
Nb0 O0 1.973094 1_565
Nb0 O3 1.973094 1_565
Nb0 O6 2.031074 1_555
Nb0 O9 2.031074 1_555
Nb0 O5 2.058440 1_555
Nb1 O11 1.959832 1_545
Nb1 O1 1.973094 1_545
Nb1 O2 1.973094 1_545
Nb1 O8 2.031074 1_555
Nb1 O7 2.031074 1_555
Nb1 O4 2.058440 1_555
Nb2 O10 1.950234 1_555
Nb2 O18 1.968076 1_545
Nb2 O21 1.968076 1_545
Nb2 O17 2.048903 1_555
Nb2 O15 2.053979 1_555
Nb2 O12 2.053979 1_555
Nb3 O11 1.950234 1_555
Nb3 O20 1.968076 1_565
Nb3 O19 1.968076 1_565
Nb3 O16 2.048903 1_555
Nb3 O14 2.053979 1_555
Nb3 O13 2.053979 1_555
O0 V0 1.783747 1_555
O1 V1 1.783747 1_655
O2 V1 1.783747 1_555
O3 V0 1.783747 1_455
O4 V0 1.746985 1_556
O5 V1 1.746985 1_554
O6 V6 1.768921 1_555
O7 V7 1.768921 1_655
O8 V7 1.768921 1_555
O9 V6 1.768921 1_455
O12 V4 1.767590 1_555
O13 V5 1.767590 1_655
O14 V5 1.767590 1_555
O15 V4 1.767590 1_455
O16 V2 1.738435 1_555
O17 V3 1.738435 1_555
O18 V2 1.790363 1_555
O19 V3 1.790363 1_655
O20 V3 1.790363 1_555
O21 V2 1.790363 1_455
O22 V0 1.657415 1_555
O23 V1 1.657415 1_555
O24 V2 1.656369 1_555
O25 V3 1.656369 1_555
O26 V4 1.642419 1_555
O27 V5 1.642419 1_555
O28 V6 1.814005 1_555
O28 V4 1.828010 1_555
O29 V7 1.814005 1_555
O29 V5 1.828010 1_555
O30 V6 1.639781 1_555
O31 V7 1.639781 1_555
