# generated using pymatgen
data_Ba3B(BrO)3
_symmetry_space_group_name_H-M   'P 1'
_cell_length_a   9.40141900
_cell_length_b   9.44633626
_cell_length_c   13.19099545
_cell_angle_alpha   92.56574621
_cell_angle_beta   98.29663329
_cell_angle_gamma   116.17918302
_symmetry_Int_Tables_number   1
_chemical_formula_structural   Ba3B(BrO)3
_chemical_formula_sum   'Ba12 B4 Br12 O12'
_cell_volume   1032.52055162
_cell_formula_units_Z   4
loop_
 _symmetry_equiv_pos_site_id
 _symmetry_equiv_pos_as_xyz
  1  'x, y, z'
loop_
 _atom_site_type_symbol
 _atom_site_label
 _atom_site_symmetry_multiplicity
 _atom_site_fract_x
 _atom_site_fract_y
 _atom_site_fract_z
 _atom_site_occupancy
  Ba  Ba0  1  0.63997300  0.00387500  0.89394000  1
  Ba  Ba1  1  0.36002700  0.99612500  0.10606000  1
  Ba  Ba2  1  0.75543500  0.57588800  0.97908800  1
  Ba  Ba3  1  0.24456500  0.42411200  0.02091200  1
  Ba  Ba4  1  0.38212300  0.52728400  0.75101100  1
  Ba  Ba5  1  0.61787700  0.47271600  0.24898900  1
  Ba  Ba6  1  0.72530400  0.95140100  0.57611200  1
  Ba  Ba7  1  0.27469600  0.04859900  0.42388800  1
  Ba  Ba8  1  0.83863800  0.51186700  0.64290300  1
  Ba  Ba9  1  0.16136200  0.48813300  0.35709700  1
  Ba  Ba10  1  0.17296300  0.01008200  0.76632200  1
  Ba  Ba11  1  0.82703700  0.98991800  0.23367800  1
  B  B0  1  0.73742400  0.74066000  0.74105300  1
  B  B1  1  0.26257600  0.25934000  0.25894700  1
  B  B2  1  0.42266700  0.24221700  0.94751100  1
  B  B3  1  0.57733300  0.75778300  0.05248900  1
  Br  Br0  1  0.00000000  0.00000000  0.00000000  1
  Br  Br1  1  0.50000000  0.50000000  0.50000000  1
  Br  Br2  1  0.94678100  0.26424600  0.79116700  1
  Br  Br3  1  0.05321900  0.73575400  0.20883300  1
  Br  Br4  1  0.52198400  0.14898800  0.65690500  1
  Br  Br5  1  0.47801600  0.85101200  0.34309500  1
  Br  Br6  1  0.86299000  0.31175000  0.10676900  1
  Br  Br7  1  0.13701000  0.68825000  0.89323100  1
  Br  Br8  1  0.11604000  0.20909500  0.57358000  1
  Br  Br9  1  0.88396000  0.79090500  0.42642000  1
  Br  Br10  1  0.21239700  0.71261600  0.58866700  1
  Br  Br11  1  0.78760300  0.28738400  0.41133300  1
  O  O0  1  0.69792800  0.59528300  0.78024600  1
  O  O1  1  0.30207200  0.40471700  0.21975400  1
  O  O2  1  0.87018200  0.80562500  0.69247600  1
  O  O3  1  0.12981800  0.19437500  0.30752400  1
  O  O4  1  0.42148900  0.09698100  0.92253500  1
  O  O5  1  0.57851100  0.90301900  0.07746500  1
  O  O6  1  0.34997000  0.30350000  0.87352100  1
  O  O7  1  0.65003000  0.69650000  0.12647900  1
  O  O8  1  0.51576000  0.67845000  0.95238100  1
  O  O9  1  0.48424000  0.32155000  0.04761900  1
  O  O10  1  0.63425300  0.81107200  0.73962200  1
  O  O11  1  0.36574700  0.18892800  0.26037800  1
loop_
_geom_bond_atom_site_label_1
_geom_bond_atom_site_label_2
_geom_bond_distance
_geom_bond_site_symmetry_2
Ba0 O4 2.631144 1_555
Ba0 O10 2.648343 1_545
Ba0 O5 2.688245 1_546
Ba0 O8 2.951671 1_545
Ba0 Br2 3.372599 1_555
Ba0 Br0 3.487487 1_656
Ba0 Br6 3.595231 1_556
Ba0 Br4 3.689229 1_555
Ba1 O5 2.631144 1_555
Ba1 O11 2.648343 1_565
Ba1 O4 2.688245 1_564
Ba1 O9 2.951671 1_565
Ba1 Br3 3.372599 1_555
Ba1 Br0 3.487487 1_565
Ba1 Br7 3.595231 1_554
Ba1 Br5 3.689229 1_555
Ba2 O0 2.631876 1_555
Ba2 O7 2.722876 1_556
Ba2 O8 2.804952 1_555
Ba2 O9 2.923129 1_556
Ba2 Br6 3.492246 1_556
Ba2 Br3 3.565649 1_656
Ba2 Br0 3.606007 1_666
Ba2 Br7 3.633004 1_655
Ba3 O1 2.631876 1_555
Ba3 O6 2.722876 1_554
Ba3 O9 2.804952 1_555
Ba3 O8 2.923129 1_554
Ba3 Br7 3.492246 1_554
Ba3 Br2 3.565649 1_454
Ba3 Br0 3.606007 1_555
Ba3 Br6 3.633004 1_455
Ba4 O6 2.656061 1_555
Ba4 O0 2.709427 1_555
Ba4 O10 2.712873 1_555
Ba4 O8 2.790629 1_555
Ba4 Br8 3.437450 1_555
Ba4 Br10 3.465758 1_555
Ba4 Br1 3.673204 1_555
Ba4 Br2 3.869888 1_455
Ba4 Br7 3.902024 1_555
Ba5 O7 2.656061 1_555
Ba5 O1 2.709427 1_555
Ba5 O11 2.712873 1_555
Ba5 O9 2.790629 1_555
Ba5 Br9 3.437450 1_555
Ba5 Br11 3.465758 1_555
Ba5 Br1 3.673204 1_555
Ba5 Br3 3.869888 1_655
Ba5 Br6 3.902024 1_555
Ba6 O10 2.632409 1_555
Ba6 O2 2.710795 1_555
Ba6 Br9 3.316584 1_555
Ba6 Br5 3.388724 1_555
Ba6 Br8 3.402001 1_665
Ba6 Br4 3.439653 1_565
Ba6 Br2 3.637528 1_565
Ba6 Br11 3.805978 1_565
Ba6 Br1 3.835429 1_555
Ba7 O11 2.632409 1_555
Ba7 O3 2.710795 1_555
Ba7 Br8 3.316584 1_555
Ba7 Br4 3.388724 1_555
Ba7 Br9 3.402001 1_445
Ba7 Br5 3.439653 1_545
Ba7 Br3 3.637528 1_545
Ba7 Br10 3.805978 1_545
Ba7 Br1 3.835429 1_555
Ba8 O0 2.671467 1_555
Ba8 O2 2.696531 1_555
Ba8 Br10 3.379730 1_655
Ba8 Br1 3.411148 1_555
Ba8 Br4 3.443552 1_555
Ba8 Br11 3.486699 1_555
Ba8 Br2 3.502029 1_555
Ba8 Br7 3.776080 1_655
Ba9 O1 2.671467 1_555
Ba9 O3 2.696531 1_555
Ba9 Br11 3.379730 1_455
Ba9 Br1 3.411148 1_555
Ba9 Br5 3.443552 1_555
Ba9 Br10 3.486699 1_555
Ba9 Br3 3.502029 1_555
Ba9 Br6 3.776080 1_455
Ba10 O2 2.638624 1_445
Ba10 O4 2.673179 1_555
Ba10 O6 2.711352 1_555
Ba10 Br8 3.347783 1_555
Ba10 Br7 3.445486 1_545
Ba10 Br4 3.508430 1_555
Ba10 Br0 3.672998 1_556
Ba10 Br10 3.755722 1_545
Ba10 Br2 3.876724 1_455
Ba11 O3 2.638624 1_665
Ba11 O5 2.673179 1_555
Ba11 O7 2.711352 1_555
Ba11 Br9 3.347783 1_555
Ba11 Br6 3.445486 1_565
Ba11 Br5 3.508430 1_555
Ba11 Br0 3.672998 1_665
Ba11 Br11 3.755722 1_565
Ba11 Br3 3.876724 1_655
B0 O2 1.391103 1_555
B0 O10 1.395947 1_555
B0 O0 1.400032 1_555
B1 O3 1.391103 1_555
B1 O11 1.395947 1_555
B1 O1 1.400032 1_555
B2 O4 1.391395 1_555
B2 O9 1.395887 1_556
B2 O6 1.400714 1_555
B3 O5 1.391395 1_555
B3 O8 1.395887 1_554
B3 O7 1.400714 1_555
