# generated using pymatgen
data_ErPt5
_symmetry_space_group_name_H-M   'P 1'
_cell_length_a   4.44985332
_cell_length_b   5.28195009
_cell_length_c   5.28195009
_cell_angle_alpha   120.00000758
_cell_angle_beta   90.00000000
_cell_angle_gamma   90.00000000
_symmetry_Int_Tables_number   1
_chemical_formula_structural   ErPt5
_chemical_formula_sum   'Er1 Pt5'
_cell_volume   107.51396530
_cell_formula_units_Z   1
loop_
 _symmetry_equiv_pos_site_id
 _symmetry_equiv_pos_as_xyz
  1  'x, y, z'
loop_
 _atom_site_type_symbol
 _atom_site_label
 _atom_site_symmetry_multiplicity
 _atom_site_fract_x
 _atom_site_fract_y
 _atom_site_fract_z
 _atom_site_occupancy
  Er  Er0  1  0.00000000  -0.00000000  0.00000000  1
  Pt  Pt0  1  0.50000000  0.50000000  0.50000000  1
  Pt  Pt1  1  0.50000000  -0.00000000  0.50000000  1
  Pt  Pt2  1  0.50000000  0.50000000  0.00000000  1
  Pt  Pt3  1  0.00000000  0.66666700  0.33333300  1
  Pt  Pt4  1  0.00000000  0.33333300  0.66666700  1
loop_
_geom_bond_atom_site_label_1
_geom_bond_atom_site_label_2
_geom_bond_distance
_geom_bond_site_symmetry_2
Er0 Pt3 3.049532 1_545
Er0 Pt4 3.049532 1_554
Er0 Pt4 3.049537 1_555
Er0 Pt3 3.049537 1_544
Er0 Pt4 3.049537 1_544
Er0 Pt3 3.049537 1_555
Er0 Pt0 3.453266 1_444
Er0 Pt0 3.453266 1_544
Er0 Pt0 3.453266 1_455
Er0 Pt0 3.453266 1_555
Er0 Pt1 3.453266 1_454
Er0 Pt2 3.453266 1_455
Er0 Pt2 3.453266 1_555
Er0 Pt2 3.453266 1_445
Er0 Pt2 3.453266 1_545
Er0 Pt1 3.453266 1_554
Er0 Pt1 3.453266 1_455
Er0 Pt1 3.453266 1_555
Pt0 Pt2 2.640975 1_556
Pt0 Pt1 2.640975 1_555
Pt0 Pt1 2.640975 1_565
Pt0 Pt2 2.640975 1_555
Pt0 Pt3 2.697262 1_555
Pt0 Pt3 2.697262 1_655
Pt0 Pt4 2.697262 1_555
Pt0 Pt4 2.697262 1_655
Pt1 Pt2 2.640975 1_545
Pt1 Pt2 2.640975 1_556
Pt1 Pt4 2.697260 1_555
Pt1 Pt4 2.697260 1_655
Pt1 Pt3 2.697260 1_645
Pt1 Pt3 2.697260 1_545
Pt2 Pt4 2.697260 1_654
Pt2 Pt3 2.697260 1_555
Pt2 Pt4 2.697260 1_554
Pt2 Pt3 2.697260 1_655
Pt3 Pt4 3.049532 1_554
Pt3 Pt4 3.049532 1_565
Pt3 Pt4 3.049542 1_555
