# generated using pymatgen
data_Li9Co7O16
_symmetry_space_group_name_H-M   'P 1'
_cell_length_a   11.20926712
_cell_length_b   4.85502263
_cell_length_c   4.91410522
_cell_angle_alpha   70.81343874
_cell_angle_beta   90.00000000
_cell_angle_gamma   90.00000000
_symmetry_Int_Tables_number   1
_chemical_formula_structural   Li9Co7O16
_chemical_formula_sum   'Li9 Co7 O16'
_cell_volume   252.57682482
_cell_formula_units_Z   1
loop_
 _symmetry_equiv_pos_site_id
 _symmetry_equiv_pos_as_xyz
  1  'x, y, z'
loop_
 _atom_site_type_symbol
 _atom_site_label
 _atom_site_symmetry_multiplicity
 _atom_site_fract_x
 _atom_site_fract_y
 _atom_site_fract_z
 _atom_site_occupancy
  Li  Li0  1  0.25164131  0.00000000  0.50000000  1
  Li  Li1  1  0.12701097  0.50000000  0.50000000  1
  Li  Li2  1  -0.00000000  0.00000000  0.50000000  1
  Li  Li3  1  0.87298903  0.50000000  0.50000000  1
  Li  Li4  1  0.74835869  0.00000000  0.50000000  1
  Li  Li5  1  0.61819901  0.50000000  0.50000000  1
  Li  Li6  1  0.50000000  0.00000000  0.50000000  1
  Li  Li7  1  0.38180099  0.50000000  0.50000000  1
  Li  Li8  1  0.50000000  0.50000000  0.00000000  1
  Co  Co0  1  0.37739643  0.00000000  0.00000000  1
  Co  Co1  1  0.62260357  0.00000000  0.00000000  1
  Co  Co2  1  0.25364127  0.50000000  0.00000000  1
  Co  Co3  1  0.12577177  0.00000000  0.00000000  1
  Co  Co4  1  -0.00000000  0.50000000  0.00000000  1
  Co  Co5  1  0.87422823  0.00000000  0.00000000  1
  Co  Co6  1  0.74635873  0.50000000  0.00000000  1
  O  O0  1  0.25062545  0.75856897  0.21985478  1
  O  O1  1  0.12506044  0.26111132  0.21796716  1
  O  O2  1  -0.00000000  0.76056398  0.21999114  1
  O  O3  1  0.87493956  0.26111132  0.21796716  1
  O  O4  1  0.74937455  0.75856897  0.21985478  1
  O  O5  1  0.63424966  0.24768380  0.22331139  1
  O  O6  1  0.50000000  0.77973385  0.22864309  1
  O  O7  1  0.36575034  0.24768380  0.22331139  1
  O  O8  1  0.25062545  0.24143103  0.78014522  1
  O  O9  1  0.12506044  0.73888868  0.78203284  1
  O  O10  1  -0.00000000  0.23943602  0.78000886  1
  O  O11  1  0.87493956  0.73888868  0.78203284  1
  O  O12  1  0.74937455  0.24143103  0.78014522  1
  O  O13  1  0.63424966  0.75231620  0.77668861  1
  O  O14  1  0.50000000  0.22026615  0.77135691  1
  O  O15  1  0.36575034  0.75231620  0.77668861  1
loop_
_geom_bond_atom_site_label_1
_geom_bond_atom_site_label_2
_geom_bond_distance
_geom_bond_site_symmetry_2
Li0 O15 1.963698 1_545
Li0 O7 1.963698 1_555
Li0 O0 2.080845 1_545
Li0 O8 2.080845 1_555
Li0 O9 2.094345 1_545
Li0 O1 2.094345 1_555
Li1 O8 2.062803 1_555
Li1 O0 2.062803 1_555
Li1 O9 2.079185 1_555
Li1 O1 2.079185 1_555
Li1 O10 2.092003 1_555
Li1 O2 2.092003 1_555
Li2 O2 2.072692 1_545
Li2 O10 2.072692 1_555
Li2 O9 2.082836 1_545
Li2 O1 2.082836 1_555
Li2 O11 2.082836 1_445
Li2 O3 2.082836 1_455
Li3 O12 2.062803 1_555
Li3 O4 2.062803 1_555
Li3 O11 2.079185 1_555
Li3 O3 2.079185 1_555
Li3 O10 2.092003 1_655
Li3 O2 2.092003 1_655
Li4 O13 1.963698 1_545
Li4 O5 1.963698 1_555
Li4 O12 2.080845 1_555
Li4 O4 2.080845 1_545
Li4 O11 2.094345 1_545
Li4 O3 2.094345 1_555
Li5 O14 2.046386 1_555
Li5 O6 2.046386 1_555
Li5 O13 2.115775 1_555
Li5 O5 2.115775 1_555
Li5 O4 2.120664 1_555
Li5 O12 2.120664 1_555
Li6 O14 1.964453 1_555
Li6 O6 1.964453 1_545
Li6 O15 2.117690 1_545
Li6 O7 2.117690 1_555
Li6 O5 2.117690 1_555
Li6 O13 2.117690 1_545
Li7 O14 2.046386 1_555
Li7 O6 2.046386 1_555
Li7 O15 2.115775 1_555
Li7 O7 2.115775 1_555
Li7 O8 2.120664 1_555
Li7 O0 2.120664 1_555
Li8 O15 2.021341 1_554
Li8 O7 2.021341 1_555
Li8 O5 2.021341 1_555
Li8 O13 2.021341 1_554
Li8 O6 2.027285 1_555
Li8 O14 2.027285 1_554
Co0 O6 1.872153 1_545
Co0 O14 1.872153 1_554
Co0 O7 1.880072 1_555
Co0 O15 1.880072 1_544
Co0 O0 1.930822 1_545
Co0 O8 1.930822 1_554
Co1 O6 1.872153 1_545
Co1 O14 1.872153 1_554
Co1 O5 1.880072 1_555
Co1 O13 1.880072 1_544
Co1 O4 1.930822 1_545
Co1 O12 1.930822 1_554
Co2 O15 1.844036 1_554
Co2 O7 1.844036 1_555
Co2 O0 1.906771 1_555
Co2 O8 1.906771 1_554
Co2 O1 1.937327 1_555
Co2 O9 1.937327 1_554
Co3 O1 1.909690 1_555
Co3 O9 1.909690 1_544
Co3 O8 1.915060 1_554
Co3 O0 1.915060 1_545
Co3 O2 1.918741 1_545
Co3 O10 1.918741 1_554
Co4 O1 1.908152 1_555
Co4 O9 1.908152 1_554
Co4 O11 1.908152 1_454
Co4 O3 1.908152 1_455
Co4 O10 1.915184 1_554
Co4 O2 1.915184 1_555
Co5 O3 1.909690 1_555
Co5 O11 1.909690 1_544
Co5 O4 1.915060 1_545
Co5 O12 1.915060 1_554
Co5 O10 1.918741 1_654
Co5 O2 1.918741 1_645
Co6 O5 1.844036 1_555
Co6 O13 1.844036 1_554
Co6 O4 1.906771 1_555
Co6 O12 1.906771 1_554
Co6 O3 1.937327 1_555
Co6 O11 1.937327 1_554
