# generated using pymatgen
data_ErThFe14B
_symmetry_space_group_name_H-M   'P 1'
_cell_length_a   8.74907200
_cell_length_b   8.74907200
_cell_length_c   11.99583200
_cell_angle_alpha   90.00000000
_cell_angle_beta   90.00000000
_cell_angle_gamma   90.00000000
_symmetry_Int_Tables_number   1
_chemical_formula_structural   ErThFe14B
_chemical_formula_sum   'Er4 Th4 Fe56 B4'
_cell_volume   918.23608552
_cell_formula_units_Z   4
loop_
 _symmetry_equiv_pos_site_id
 _symmetry_equiv_pos_as_xyz
  1  'x, y, z'
loop_
 _atom_site_type_symbol
 _atom_site_label
 _atom_site_symmetry_multiplicity
 _atom_site_fract_x
 _atom_site_fract_y
 _atom_site_fract_z
 _atom_site_occupancy
  Er  Er0  1  0.64637000  0.64637000  0.50000000  1
  Er  Er1  1  0.35363000  0.35363000  0.50000000  1
  Er  Er2  1  0.85363000  0.14637000  0.00000000  1
  Er  Er3  1  0.14637000  0.85363000  0.00000000  1
  Th  Th0  1  0.23373000  0.76627000  0.50000000  1
  Th  Th1  1  0.76627000  0.23373000  0.50000000  1
  Th  Th2  1  0.26627000  0.26627000  0.00000000  1
  Th  Th3  1  0.73373000  0.73373000  0.00000000  1
  Fe  Fe0  1  0.93212900  0.72496300  0.37241100  1
  Fe  Fe1  1  0.06787100  0.27503700  0.37241100  1
  Fe  Fe2  1  0.56787100  0.22496300  0.87241100  1
  Fe  Fe3  1  0.43212900  0.77503700  0.87241100  1
  Fe  Fe4  1  0.06787100  0.27503700  0.62758900  1
  Fe  Fe5  1  0.93212900  0.72496300  0.62758900  1
  Fe  Fe6  1  0.43212900  0.77503700  0.12758900  1
  Fe  Fe7  1  0.56787100  0.22496300  0.12758900  1
  Fe  Fe8  1  0.72496300  0.93212900  0.37241100  1
  Fe  Fe9  1  0.27503700  0.06787100  0.37241100  1
  Fe  Fe10  1  0.22496300  0.56787100  0.87241100  1
  Fe  Fe11  1  0.77503700  0.43212900  0.87241100  1
  Fe  Fe12  1  0.27503700  0.06787100  0.62758900  1
  Fe  Fe13  1  0.72496300  0.93212900  0.62758900  1
  Fe  Fe14  1  0.77503700  0.43212900  0.12758900  1
  Fe  Fe15  1  0.22496300  0.56787100  0.12758900  1
  Fe  Fe16  1  0.14100200  0.53665100  0.32463000  1
  Fe  Fe17  1  0.85899800  0.46334900  0.32463000  1
  Fe  Fe18  1  0.35899800  0.03665100  0.82463000  1
  Fe  Fe19  1  0.64100200  0.96334900  0.82463000  1
  Fe  Fe20  1  0.85899800  0.46334900  0.67537000  1
  Fe  Fe21  1  0.14100200  0.53665100  0.67537000  1
  Fe  Fe22  1  0.64100200  0.96334900  0.17537000  1
  Fe  Fe23  1  0.35899800  0.03665100  0.17537000  1
  Fe  Fe24  1  0.53665100  0.14100200  0.32463000  1
  Fe  Fe25  1  0.46334900  0.85899800  0.32463000  1
  Fe  Fe26  1  0.03665100  0.35899800  0.82463000  1
  Fe  Fe27  1  0.96334900  0.64100200  0.82463000  1
  Fe  Fe28  1  0.46334900  0.85899800  0.67537000  1
  Fe  Fe29  1  0.53665100  0.14100200  0.67537000  1
  Fe  Fe30  1  0.96334900  0.64100200  0.17537000  1
  Fe  Fe31  1  0.03665100  0.35899800  0.17537000  1
  Fe  Fe32  1  0.18215200  0.81784800  0.25173800  1
  Fe  Fe33  1  0.81784800  0.18215200  0.25173800  1
  Fe  Fe34  1  0.31784800  0.31784800  0.75173800  1
  Fe  Fe35  1  0.68215200  0.68215200  0.75173800  1
  Fe  Fe36  1  0.81784800  0.18215200  0.74826200  1
  Fe  Fe37  1  0.18215200  0.81784800  0.74826200  1
  Fe  Fe38  1  0.68215200  0.68215200  0.24826200  1
  Fe  Fe39  1  0.31784800  0.31784800  0.24826200  1
  Fe  Fe40  1  0.40297200  0.59702800  0.30129400  1
  Fe  Fe41  1  0.59702800  0.40297200  0.30129400  1
  Fe  Fe42  1  0.09702800  0.09702800  0.80129400  1
  Fe  Fe43  1  0.90297200  0.90297200  0.80129400  1
  Fe  Fe44  1  0.59702800  0.40297200  0.69870600  1
  Fe  Fe45  1  0.40297200  0.59702800  0.69870600  1
  Fe  Fe46  1  0.90297200  0.90297200  0.19870600  1
  Fe  Fe47  1  0.09702800  0.09702800  0.19870600  1
  Fe  Fe48  1  0.50000000  0.50000000  0.11769300  1
  Fe  Fe49  1  0.00000000  0.00000000  0.61769300  1
  Fe  Fe50  1  0.50000000  0.50000000  0.88230700  1
  Fe  Fe51  1  0.00000000  0.00000000  0.38230700  1
  Fe  Fe52  1  0.00000000  0.50000000  0.50000000  1
  Fe  Fe53  1  0.50000000  0.00000000  0.00000000  1
  Fe  Fe54  1  0.50000000  0.00000000  0.50000000  1
  Fe  Fe55  1  0.00000000  0.50000000  0.00000000  1
  B  B0  1  0.87661600  0.87661600  0.50000000  1
  B  B1  1  0.12338400  0.12338400  0.50000000  1
  B  B2  1  0.62338400  0.37661600  0.00000000  1
  B  B3  1  0.37661600  0.62338400  0.00000000  1
loop_
_geom_bond_atom_site_label_1
_geom_bond_atom_site_label_2
_geom_bond_distance
_geom_bond_site_symmetry_2
Er0 Fe5 3.010978 1_555
Er0 Fe13 3.010978 1_555
Er0 Fe8 3.010978 1_555
Er0 Fe0 3.010978 1_555
Er0 Fe38 3.052089 1_555
Er0 Fe35 3.052089 1_555
Er0 Fe40 3.225356 1_555
Er0 Fe41 3.225356 1_555
Er0 Fe44 3.225356 1_555
Er0 Fe45 3.225356 1_555
Er0 Fe20 3.232699 1_555
Er0 Fe17 3.232699 1_555
Er0 Fe28 3.232699 1_555
Er0 Fe25 3.232699 1_555
Er0 Fe54 3.348488 1_565
Er0 Fe52 3.348488 1_655
Er0 Th0 3.759534 1_555
Er0 Th1 3.759534 1_555
Er1 Fe4 3.010978 1_555
Er1 Fe12 3.010978 1_555
Er1 Fe9 3.010978 1_555
Er1 Fe1 3.010978 1_555
Er1 Fe39 3.052089 1_555
Er1 Fe34 3.052089 1_555
Er1 Fe40 3.225356 1_555
Er1 Fe41 3.225356 1_555
Er1 Fe44 3.225356 1_555
Er1 Fe45 3.225356 1_555
Er1 Fe24 3.232699 1_555
Er1 Fe21 3.232699 1_555
Er1 Fe16 3.232699 1_555
Er1 Fe29 3.232699 1_555
Er1 Fe54 3.348488 1_555
Er1 Fe52 3.348488 1_555
Er1 Th0 3.759534 1_555
Er1 Th1 3.759534 1_555
Er2 Fe2 3.010978 1_554
Er2 Fe11 3.010978 1_554
Er2 Fe7 3.010978 1_555
Er2 Fe14 3.010978 1_555
Er2 Fe36 3.052089 1_554
Er2 Fe33 3.052089 1_555
Er2 Fe47 3.225356 1_655
Er2 Fe42 3.225356 1_654
Er2 Fe46 3.225356 1_545
Er2 Fe43 3.225356 1_544
Er2 Fe31 3.232699 1_655
Er2 Fe26 3.232699 1_654
Er2 Fe22 3.232699 1_545
Er2 Fe19 3.232699 1_544
Er2 Fe55 3.348488 1_655
Er2 Fe53 3.348488 1_555
Er2 Th2 3.759534 1_655
Er2 Th3 3.759534 1_545
Er3 Fe3 3.010978 1_554
Er3 Fe10 3.010978 1_554
Er3 Fe6 3.010978 1_555
Er3 Fe15 3.010978 1_555
Er3 Fe32 3.052089 1_555
Er3 Fe37 3.052089 1_554
Er3 Fe47 3.225356 1_565
Er3 Fe42 3.225356 1_564
Er3 Fe46 3.225356 1_455
Er3 Fe43 3.225356 1_454
Er3 Fe18 3.232699 1_564
Er3 Fe23 3.232699 1_565
Er3 Fe27 3.232699 1_454
Er3 Fe30 3.232699 1_455
Er3 Fe55 3.348488 1_555
Er3 Fe53 3.348488 1_565
Er3 Th3 3.759534 1_455
Er3 Th2 3.759534 1_565
Fe0 Fe17 2.444765 1_555
Fe0 Fe30 2.490212 1_555
Fe0 Fe16 2.526365 1_655
Fe0 Fe52 2.563012 1_655
Fe0 Fe46 2.613918 1_555
Fe0 Fe38 2.672355 1_555
Fe0 Fe32 2.746070 1_655
Fe0 Th0 3.071814 1_655
Fe1 Fe16 2.444765 1_555
Fe1 Fe31 2.490212 1_555
Fe1 Fe17 2.526365 1_455
Fe1 Fe52 2.563012 1_555
Fe1 Fe47 2.613918 1_555
Fe1 Fe39 2.672355 1_555
Fe1 Fe33 2.746070 1_455
Fe1 Th1 3.071814 1_455
Fe2 Fe29 2.490212 1_555
Fe2 Fe53 2.563012 1_556
Fe2 Fe44 2.613918 1_555
Fe2 Fe36 2.672355 1_555
Fe2 Fe34 2.746070 1_555
Fe2 Th2 3.071814 1_556
Fe3 Fe53 2.563012 1_566
Fe3 Fe45 2.613918 1_555
Fe3 Fe37 2.672355 1_555
Fe3 Fe35 2.746070 1_555
Fe3 Th3 3.071814 1_556
Fe4 Fe52 2.563012 1_555
Fe4 Fe42 2.613918 1_555
Fe4 Th1 3.071814 1_455
Fe5 Fe52 2.563012 1_655
Fe5 Th0 3.071814 1_655
Fe6 Th3 3.071814 1_555
Fe7 Th2 3.071814 1_555
Fe8 Th1 3.071814 1_565
Fe9 Th0 3.071814 1_545
Fe10 Fe27 2.444765 1_455
Fe10 Fe21 2.490212 1_555
Fe10 Fe26 2.526365 1_555
Fe10 Fe55 2.563012 1_556
Fe10 Fe45 2.613918 1_555
Fe10 Fe37 2.672355 1_555
Fe10 Fe34 2.746070 1_555
Fe10 Th2 3.071814 1_556
Fe11 Fe26 2.444765 1_655
Fe11 Fe20 2.490212 1_555
Fe11 Fe27 2.526365 1_555
Fe11 Fe55 2.563012 1_656
Fe11 Fe44 2.613918 1_555
Fe11 Fe36 2.672355 1_555
Fe11 Fe35 2.746070 1_555
Fe11 Th3 3.071814 1_556
Fe12 Fe29 2.444765 1_555
Fe12 Fe18 2.490212 1_555
Fe12 Fe28 2.526365 1_545
Fe12 Fe54 2.563012 1_555
Fe12 Fe42 2.613918 1_555
Fe12 Fe34 2.672355 1_555
Fe12 Fe37 2.746070 1_545
Fe12 Th0 3.071814 1_545
Fe13 Fe28 2.444765 1_555
Fe13 Fe19 2.490212 1_555
Fe13 Fe29 2.526365 1_565
Fe13 Fe54 2.563012 1_565
Fe13 Fe43 2.613918 1_555
Fe13 Fe35 2.672355 1_555
Fe13 Fe36 2.746070 1_565
Fe13 Th1 3.071814 1_565
Fe14 Fe31 2.444765 1_655
Fe14 Fe17 2.490212 1_555
Fe14 Fe30 2.526365 1_555
Fe14 Fe55 2.563012 1_655
Fe14 Fe41 2.613918 1_555
Fe14 Fe33 2.672355 1_555
Fe14 Fe38 2.746070 1_555
Fe14 Th3 3.071814 1_555
Fe15 Fe30 2.444765 1_455
Fe15 Fe16 2.490212 1_555
Fe15 Fe31 2.526365 1_555
Fe15 Fe55 2.563012 1_555
Fe15 Fe40 2.613918 1_555
Fe15 Fe32 2.672355 1_555
Fe15 Fe39 2.746070 1_555
Fe15 Th2 3.071814 1_555
Fe16 Fe40 2.368679 1_555
Fe16 Fe52 2.459731 1_555
Fe16 Fe30 2.540718 1_455
Fe16 Fe31 2.540718 1_555
Fe16 Fe17 2.549262 1_455
Fe16 Fe39 2.626369 1_555
Fe16 Fe32 2.635686 1_555
Fe16 Th0 3.019879 1_555
Fe17 Fe41 2.368679 1_555
Fe17 Fe52 2.459731 1_655
Fe17 Fe31 2.540718 1_655
Fe17 Fe30 2.540718 1_555
Fe17 Fe38 2.626369 1_555
Fe17 Fe33 2.635686 1_555
Fe17 Th1 3.019879 1_555
Fe18 Fe42 2.368679 1_555
Fe18 Fe3 2.444765 1_545
Fe18 Fe53 2.459731 1_556
Fe18 Fe2 2.526365 1_555
Fe18 Fe29 2.540718 1_555
Fe18 Fe28 2.540718 1_545
Fe18 Fe19 2.549262 1_545
Fe18 Fe37 2.626369 1_545
Fe18 Fe34 2.635686 1_555
Fe18 Th2 3.019879 1_556
Fe19 Fe43 2.368679 1_555
Fe19 Fe2 2.444765 1_565
Fe19 Fe53 2.459731 1_566
Fe19 Fe3 2.526365 1_555
Fe19 Fe28 2.540718 1_555
Fe19 Fe29 2.540718 1_565
Fe19 Fe36 2.626369 1_565
Fe19 Fe35 2.635686 1_555
Fe19 Th3 3.019879 1_556
Fe20 Fe44 2.368679 1_555
Fe20 Fe5 2.444765 1_555
Fe20 Fe52 2.459731 1_655
Fe20 Fe4 2.526365 1_655
Fe20 Fe26 2.540718 1_655
Fe20 Fe27 2.540718 1_555
Fe20 Fe21 2.549262 1_655
Fe20 Fe35 2.626369 1_555
Fe20 Fe36 2.635686 1_555
Fe20 Th1 3.019879 1_555
Fe21 Fe45 2.368679 1_555
Fe21 Fe4 2.444765 1_555
Fe21 Fe52 2.459731 1_555
Fe21 Fe5 2.526365 1_455
Fe21 Fe26 2.540718 1_555
Fe21 Fe27 2.540718 1_455
Fe21 Fe34 2.626369 1_555
Fe21 Fe37 2.635686 1_555
Fe21 Th0 3.019879 1_555
Fe22 Fe46 2.368679 1_555
Fe22 Fe7 2.444765 1_565
Fe22 Fe53 2.459731 1_565
Fe22 Fe8 2.490212 1_555
Fe22 Fe6 2.526365 1_555
Fe22 Fe25 2.540718 1_555
Fe22 Fe24 2.540718 1_565
Fe22 Fe23 2.549262 1_565
Fe22 Fe33 2.626369 1_565
Fe22 Fe38 2.635686 1_555
Fe22 Th3 3.019879 1_555
Fe23 Fe47 2.368679 1_555
Fe23 Fe6 2.444765 1_545
Fe23 Fe53 2.459731 1_555
Fe23 Fe9 2.490212 1_555
Fe23 Fe7 2.526365 1_555
Fe23 Fe25 2.540718 1_545
Fe23 Fe24 2.540718 1_555
Fe23 Fe32 2.626369 1_545
Fe23 Fe39 2.635686 1_555
Fe23 Th2 3.019879 1_555
Fe24 Fe41 2.368679 1_555
Fe24 Fe9 2.444765 1_555
Fe24 Fe54 2.459731 1_555
Fe24 Fe7 2.490212 1_555
Fe24 Fe8 2.526365 1_545
Fe24 Fe25 2.549262 1_545
Fe24 Fe39 2.626369 1_555
Fe24 Fe33 2.635686 1_555
Fe24 Th1 3.019879 1_555
Fe25 Fe40 2.368679 1_555
Fe25 Fe8 2.444765 1_555
Fe25 Fe54 2.459731 1_565
Fe25 Fe6 2.490212 1_555
Fe25 Fe9 2.526365 1_565
Fe25 Fe38 2.626369 1_555
Fe25 Fe32 2.635686 1_555
Fe25 Th0 3.019879 1_555
Fe26 Fe42 2.368679 1_555
Fe26 Fe55 2.459731 1_556
Fe26 Fe4 2.490212 1_555
Fe26 Fe27 2.549262 1_455
Fe26 Fe36 2.626369 1_455
Fe26 Fe34 2.635686 1_555
Fe26 Th2 3.019879 1_556
Fe27 Fe43 2.368679 1_555
Fe27 Fe55 2.459731 1_656
Fe27 Fe5 2.490212 1_555
Fe27 Fe37 2.626369 1_655
Fe27 Fe35 2.635686 1_555
Fe27 Th3 3.019879 1_556
Fe28 Fe45 2.368679 1_555
Fe28 Fe54 2.459731 1_565
Fe28 Fe3 2.490212 1_555
Fe28 Fe29 2.549262 1_565
Fe28 Fe35 2.626369 1_555
Fe28 Fe37 2.635686 1_555
Fe28 Th0 3.019879 1_555
Fe29 Fe44 2.368679 1_555
Fe29 Fe54 2.459731 1_555
Fe29 Fe34 2.626369 1_555
Fe29 Fe36 2.635686 1_555
Fe29 Th1 3.019879 1_555
Fe30 Fe46 2.368679 1_555
Fe30 Fe55 2.459731 1_655
Fe30 Fe31 2.549262 1_655
Fe30 Fe32 2.626369 1_655
Fe30 Fe38 2.635686 1_555
Fe30 Th3 3.019879 1_555
Fe31 Fe47 2.368679 1_555
Fe31 Fe55 2.459731 1_555
Fe31 Fe33 2.626369 1_455
Fe31 Fe39 2.635686 1_555
Fe31 Th2 3.019879 1_555
Fe32 Fe47 2.631633 1_565
Fe32 Fe46 2.631633 1_455
Fe32 Fe6 2.672355 1_555
Fe32 Fe51 2.744587 1_565
Fe32 Fe9 2.746070 1_565
Fe32 Fe40 2.796141 1_555
Fe32 Th0 3.045719 1_555
Fe33 Fe47 2.631633 1_655
Fe33 Fe46 2.631633 1_545
Fe33 Fe7 2.672355 1_555
Fe33 Fe51 2.744587 1_655
Fe33 Fe8 2.746070 1_545
Fe33 Fe41 2.796141 1_555
Fe33 Th1 3.045719 1_555
Fe34 Fe44 2.631633 1_555
Fe34 Fe45 2.631633 1_555
Fe34 Fe4 2.672355 1_555
Fe34 Fe50 2.744587 1_555
Fe34 Fe42 2.796141 1_555
Fe34 Th2 3.045719 1_556
Fe35 Fe45 2.631633 1_555
Fe35 Fe44 2.631633 1_555
Fe35 Fe5 2.672355 1_555
Fe35 Fe50 2.744587 1_555
Fe35 Fe43 2.796141 1_555
Fe35 Th3 3.045719 1_556
Fe36 Fe42 2.631633 1_655
Fe36 Fe43 2.631633 1_545
Fe36 Fe49 2.744587 1_655
Fe36 Fe4 2.746070 1_655
Fe36 Fe44 2.796141 1_555
Fe36 Th1 3.045719 1_555
Fe37 Fe42 2.631633 1_565
Fe37 Fe43 2.631633 1_455
Fe37 Fe49 2.744587 1_565
Fe37 Fe5 2.746070 1_455
Fe37 Fe45 2.796141 1_555
Fe37 Th0 3.045719 1_555
Fe38 Fe40 2.631633 1_555
Fe38 Fe41 2.631633 1_555
Fe38 Fe8 2.672355 1_555
Fe38 Fe48 2.744587 1_555
Fe38 Fe6 2.746070 1_555
Fe38 Fe46 2.796141 1_555
Fe38 Th3 3.045719 1_555
Fe39 Fe41 2.631633 1_555
Fe39 Fe40 2.631633 1_555
Fe39 Fe9 2.672355 1_555
Fe39 Fe48 2.744587 1_555
Fe39 Fe7 2.746070 1_555
Fe39 Fe47 2.796141 1_555
Fe39 Th2 3.045719 1_555
Fe40 Fe41 2.401066 1_555
Fe40 Fe48 2.508396 1_555
Fe40 Fe6 2.613918 1_555
Fe40 Th0 3.172817 1_555
Fe41 Fe48 2.508396 1_555
Fe41 Fe7 2.613918 1_555
Fe41 Th1 3.172817 1_555
Fe42 Fe43 2.401066 1_445
Fe42 Fe49 2.508396 1_555
Fe42 Th2 3.172817 1_556
Fe43 Fe49 2.508396 1_665
Fe43 Fe5 2.613918 1_555
Fe43 Th3 3.172817 1_556
Fe44 Fe45 2.401066 1_555
Fe44 Fe50 2.508396 1_555
Fe44 Th1 3.172817 1_555
Fe45 Fe50 2.508396 1_555
Fe45 Th0 3.172817 1_555
Fe46 Fe47 2.401066 1_665
Fe46 Fe51 2.508396 1_665
Fe46 Fe8 2.613918 1_555
Fe46 Th3 3.172817 1_555
Fe47 Fe51 2.508396 1_555
Fe47 Fe9 2.613918 1_555
Fe47 Th2 3.172817 1_555
Fe48 Th3 3.218175 1_555
Fe48 Th2 3.218175 1_555
Fe49 Th1 3.218175 1_455
Fe49 Th0 3.218175 1_545
Fe50 Th3 3.218175 1_556
Fe50 Th2 3.218175 1_556
Fe51 Th1 3.218175 1_455
Fe51 Th0 3.218175 1_545
Fe52 Th1 3.099808 1_455
Fe52 Th0 3.099808 1_555
Fe53 Fe7 2.563012 1_555
Fe53 Fe6 2.563012 1_545
Fe53 Th2 3.099808 1_555
Fe53 Th3 3.099808 1_545
Fe54 Fe8 2.563012 1_545
Fe54 Fe9 2.563012 1_555
Fe54 Th0 3.099808 1_545
Fe54 Th1 3.099808 1_555
Fe55 Th3 3.099808 1_455
Fe55 Th2 3.099808 1_555
B0 Fe51 2.079392 1_665
B0 Fe49 2.079392 1_665
B0 Fe13 2.083001 1_555
B0 Fe5 2.083001 1_555
B0 Fe0 2.083001 1_555
B0 Fe8 2.083001 1_555
B0 Er0 2.848847 1_555
B0 Th1 3.270171 1_565
B0 Th0 3.270171 1_655
B1 Fe51 2.079392 1_555
B1 Fe49 2.079392 1_555
B1 Fe4 2.083001 1_555
B1 Fe12 2.083001 1_555
B1 Fe1 2.083001 1_555
B1 Fe9 2.083001 1_555
B1 Er1 2.848847 1_555
B1 Th0 3.270171 1_545
B1 Th1 3.270171 1_455
B2 Fe48 2.079392 1_555
B2 Fe50 2.079392 1_554
B2 Fe11 2.083001 1_554
B2 Fe2 2.083001 1_554
B2 Fe14 2.083001 1_555
B2 Fe7 2.083001 1_555
B2 Er2 2.848847 1_555
B2 Th3 3.270171 1_555
B2 Th2 3.270171 1_555
B3 Fe48 2.079392 1_555
B3 Fe50 2.079392 1_554
B3 Fe3 2.083001 1_554
B3 Fe10 2.083001 1_554
B3 Fe6 2.083001 1_555
B3 Fe15 2.083001 1_555
B3 Er3 2.848847 1_555
B3 Th3 3.270171 1_555
B3 Th2 3.270171 1_555
