# generated using pymatgen
data_Cu2PO5
_symmetry_space_group_name_H-M   'P 1'
_cell_length_a   5.68100509
_cell_length_b   7.96473076
_cell_length_c   8.43039116
_cell_angle_alpha   90.00000000
_cell_angle_beta   90.00000000
_cell_angle_gamma   90.00000000
_symmetry_Int_Tables_number   1
_chemical_formula_structural   Cu2PO5
_chemical_formula_sum   'Cu8 P4 O20'
_cell_volume   381.45560766
_cell_formula_units_Z   4
loop_
 _symmetry_equiv_pos_site_id
 _symmetry_equiv_pos_as_xyz
  1  'x, y, z'
loop_
 _atom_site_type_symbol
 _atom_site_label
 _atom_site_symmetry_multiplicity
 _atom_site_fract_x
 _atom_site_fract_y
 _atom_site_fract_z
 _atom_site_occupancy
  Cu  Cu0  1  0.74783256  0.50000000  0.50000000  1
  Cu  Cu1  1  0.75216744  0.00000000  0.00000000  1
  Cu  Cu2  1  0.25216744  0.50000000  0.50000000  1
  Cu  Cu3  1  0.24783256  0.00000000  0.00000000  1
  Cu  Cu4  1  0.50000000  0.85044837  0.38489112  1
  Cu  Cu5  1  0.50000000  0.14955163  0.61510888  1
  Cu  Cu6  1  0.00000000  0.35044837  0.11510888  1
  Cu  Cu7  1  0.00000000  0.64955163  0.88489112  1
  P  P0  1  0.00000000  0.73012546  0.25216583  1
  P  P1  1  0.00000000  0.26987454  0.74783417  1
  P  P2  1  0.50000000  0.23012546  0.24783417  1
  P  P3  1  0.50000000  0.76987454  0.75216583  1
  O  O0  1  0.50000000  0.62327633  0.42064439  1
  O  O1  1  0.50000000  0.37672367  0.57935561  1
  O  O2  1  0.00000000  0.12327633  0.07935561  1
  O  O3  1  0.00000000  0.87672367  0.92064439  1
  O  O4  1  0.00000000  0.63351081  0.41466097  1
  O  O5  1  0.00000000  0.36648919  0.58533903  1
  O  O6  1  0.50000000  0.13351081  0.08533903  1
  O  O7  1  0.50000000  0.86648919  0.91466097  1
  O  O8  1  0.00000000  0.59626564  0.11782321  1
  O  O9  1  0.00000000  0.40373436  0.88217679  1
  O  O10  1  0.50000000  0.09626564  0.38217679  1
  O  O11  1  0.50000000  0.90373436  0.61782321  1
  O  O12  1  0.77819516  0.83599242  0.24200415  1
  O  O13  1  0.77819516  0.16400758  0.75799585  1
  O  O14  1  0.72180484  0.33599242  0.25799585  1
  O  O15  1  0.72180484  0.66400758  0.74200415  1
  O  O16  1  0.22180484  0.16400758  0.75799585  1
  O  O17  1  0.22180484  0.83599242  0.24200415  1
  O  O18  1  0.27819516  0.66400758  0.74200415  1
  O  O19  1  0.27819516  0.33599242  0.25799585  1
loop_
_geom_bond_atom_site_label_1
_geom_bond_atom_site_label_2
_geom_bond_distance
_geom_bond_site_symmetry_2
Cu0 O1 1.842255 1_555
Cu0 O0 1.842255 1_555
Cu0 O4 1.923697 1_655
Cu0 O5 1.923697 1_655
Cu0 O14 2.427055 1_555
Cu0 O15 2.427055 1_555
Cu1 O2 1.842255 1_655
Cu1 O3 1.842255 1_644
Cu1 O7 1.923697 1_544
Cu1 O6 1.923697 1_555
Cu1 O13 2.427055 1_554
Cu1 O12 2.427055 1_545
Cu2 O1 1.842255 1_555
Cu2 O0 1.842255 1_555
Cu2 O5 1.923697 1_555
Cu2 O4 1.923697 1_555
Cu2 O18 2.427055 1_555
Cu2 O19 2.427055 1_555
Cu3 O2 1.842255 1_555
Cu3 O3 1.842255 1_544
Cu3 O7 1.923697 1_544
Cu3 O6 1.923697 1_555
Cu3 O16 2.427055 1_554
Cu3 O17 2.427055 1_545
Cu4 O0 1.834298 1_555
Cu4 O10 1.958002 1_565
Cu4 O12 1.990491 1_555
Cu4 O17 1.990491 1_555
Cu4 O11 2.009048 1_555
Cu5 O1 1.834298 1_555
Cu5 O11 1.958002 1_545
Cu5 O16 1.990491 1_555
Cu5 O13 1.990491 1_555
Cu5 O10 2.009048 1_555
Cu6 O2 1.834298 1_555
Cu6 O8 1.958002 1_555
Cu6 O14 1.990491 1_455
Cu6 O19 1.990491 1_555
Cu6 O9 2.009048 1_554
Cu7 O3 1.834298 1_555
Cu7 O9 1.958002 1_555
Cu7 O18 1.990491 1_555
Cu7 O15 1.990491 1_455
Cu7 O8 2.009048 1_556
O4 P0 1.571230 1_555
O5 P1 1.571230 1_555
O6 P2 1.571230 1_555
O7 P3 1.571230 1_555
O8 P0 1.555437 1_555
O9 P1 1.555437 1_555
O10 P2 1.555437 1_555
O11 P3 1.555437 1_555
O12 P0 1.518590 1_655
O13 P1 1.518590 1_655
O14 P2 1.518590 1_555
O15 P3 1.518590 1_555
O16 P1 1.518590 1_555
O17 P0 1.518590 1_555
O18 P3 1.518590 1_555
O19 P2 1.518590 1_555
