# generated using pymatgen
data_Li2MnCrO4
_symmetry_space_group_name_H-M   'P 1'
_cell_length_a   5.20876442
_cell_length_b   5.83963648
_cell_length_c   5.20857213
_cell_angle_alpha   90.02240332
_cell_angle_beta   68.18243503
_cell_angle_gamma   89.91243328
_symmetry_Int_Tables_number   1
_chemical_formula_structural   Li2MnCrO4
_chemical_formula_sum   'Li4 Mn2 Cr2 O8'
_cell_volume   147.08232113
_cell_formula_units_Z   2
loop_
 _symmetry_equiv_pos_site_id
 _symmetry_equiv_pos_as_xyz
  1  'x, y, z'
loop_
 _atom_site_type_symbol
 _atom_site_label
 _atom_site_symmetry_multiplicity
 _atom_site_fract_x
 _atom_site_fract_y
 _atom_site_fract_z
 _atom_site_occupancy
  Li  Li0  1  0.49702700  0.25004600  0.00290900  1
  Li  Li1  1  0.00280600  0.75000300  0.49705600  1
  Li  Li2  1  0.50035700  0.00114500  0.50004300  1
  Li  Li3  1  0.99988900  0.49883900  0.99955500  1
  Mn  Mn0  1  0.99626500  0.99864400  0.99472900  1
  Mn  Mn1  1  0.50527200  0.50120400  0.50375600  1
  Cr  Cr0  1  0.50159300  0.74997700  0.99872900  1
  Cr  Cr1  1  0.99988000  0.24996800  0.50015200  1
  O  O0  1  0.75520000  0.26421700  0.28008200  1
  O  O1  1  0.27953100  0.73611800  0.75528000  1
  O  O2  1  0.21974800  0.23567400  0.74477000  1
  O  O3  1  0.74488300  0.76402700  0.22038100  1
  O  O4  1  0.22875700  0.00057200  0.23049600  1
  O  O5  1  0.73534500  0.50020700  0.73611200  1
  O  O6  1  0.26952900  0.49951300  0.27129300  1
  O  O7  1  0.76391900  0.99984600  0.76465800  1
loop_
_geom_bond_atom_site_label_1
_geom_bond_atom_site_label_2
_geom_bond_distance
_geom_bond_site_symmetry_2
Li0 O6 2.059713 1_555
Li0 O4 2.063128 1_555
Li0 O7 2.077826 1_544
Li0 O5 2.081108 1_554
Li0 O0 2.311435 1_555
Li0 O2 2.311810 1_554
Li1 O6 2.056870 1_555
Li1 O4 2.060609 1_565
Li1 O7 2.079283 1_455
Li1 O5 2.082625 1_455
Li1 O3 2.308057 1_455
Li1 O1 2.309523 1_555
Li2 O2 2.060224 1_555
Li2 O3 2.067701 1_545
Li2 O0 2.076503 1_555
Li2 O1 2.087122 1_545
Li2 O7 2.278322 1_545
Li2 O4 2.334271 1_555
Li3 O0 2.063790 1_556
Li3 O1 2.071335 1_655
Li3 O2 2.073085 1_655
Li3 O3 2.083776 1_556
Li3 O5 2.277504 1_555
Li3 O6 2.335269 1_656
Mn0 O3 1.958528 1_556
Mn0 O2 1.961079 1_665
Mn0 O7 1.994673 1_555
Mn0 O4 2.019915 1_666
Mn0 O1 2.169450 1_655
Mn0 O0 2.189950 1_566
Mn1 O1 1.956889 1_555
Mn1 O0 1.957839 1_555
Mn1 O5 1.994721 1_555
Mn1 O6 2.019679 1_555
Mn1 O3 2.174891 1_555
Mn1 O2 2.193836 1_555
Cr0 O3 2.008280 1_556
Cr0 O1 2.010649 1_555
Cr0 O5 2.058149 1_555
Cr0 O7 2.061979 1_555
Cr0 O4 2.082180 1_566
Cr0 O6 2.085021 1_556
Cr1 O2 2.006563 1_655
Cr1 O0 2.007670 1_555
Cr1 O4 2.064819 1_655
Cr1 O5 2.068377 1_555
Cr1 O6 2.068908 1_655
Cr1 O7 2.071354 1_545
