# generated using pymatgen
data_Mn8Ga5
_symmetry_space_group_name_H-M   'P 1'
_cell_length_a   7.71550692
_cell_length_b   7.71550692
_cell_length_c   7.71550692
_cell_angle_alpha   109.47122063
_cell_angle_beta   109.47122063
_cell_angle_gamma   109.47122063
_symmetry_Int_Tables_number   1
_chemical_formula_structural   Mn8Ga5
_chemical_formula_sum   'Mn16 Ga10'
_cell_volume   353.56682239
_cell_formula_units_Z   2
loop_
 _symmetry_equiv_pos_site_id
 _symmetry_equiv_pos_as_xyz
  1  'x, y, z'
loop_
 _atom_site_type_symbol
 _atom_site_label
 _atom_site_symmetry_multiplicity
 _atom_site_fract_x
 _atom_site_fract_y
 _atom_site_fract_z
 _atom_site_occupancy
  Mn  Mn0  1  0.20863500  0.00000000  0.00000000  1
  Mn  Mn1  1  0.00000000  0.20863500  0.00000000  1
  Mn  Mn2  1  0.00000000  0.00000000  0.20863600  1
  Mn  Mn3  1  0.79136400  0.79136400  0.79136500  1
  Mn  Mn4  1  0.34863200  0.72281100  0.00000000  1
  Mn  Mn5  1  0.62582000  0.27718900  0.27718900  1
  Mn  Mn6  1  0.34863200  0.00000000  0.72281100  1
  Mn  Mn7  1  0.72281100  0.34863200  0.00000000  1
  Mn  Mn8  1  0.00000000  0.34863200  0.72281100  1
  Mn  Mn9  1  0.27718900  0.62582000  0.27718900  1
  Mn  Mn10  1  0.27718900  0.27718900  0.62582000  1
  Mn  Mn11  1  0.00000000  0.72281100  0.34863200  1
  Mn  Mn12  1  0.72281100  0.00000000  0.34863200  1
  Mn  Mn13  1  0.65136800  0.65136800  0.37418000  1
  Mn  Mn14  1  0.37418000  0.65136800  0.65136800  1
  Mn  Mn15  1  0.65136800  0.37418000  0.65136800  1
  Ga  Ga0  1  0.65018600  0.00000000  0.00000000  1
  Ga  Ga1  1  0.00000000  0.65018600  0.00000000  1
  Ga  Ga2  1  0.00000000  0.00000000  0.65018600  1
  Ga  Ga3  1  0.34981400  0.34981400  0.34981400  1
  Ga  Ga4  1  0.00000000  0.64419600  0.64419600  1
  Ga  Ga5  1  0.35580400  0.00000000  0.35580400  1
  Ga  Ga6  1  0.35580400  0.35580400  0.00000000  1
  Ga  Ga7  1  0.00000000  0.35580400  0.35580400  1
  Ga  Ga8  1  0.64419600  0.00000000  0.64419600  1
  Ga  Ga9  1  0.64419600  0.64419600  0.00000000  1
loop_
_geom_bond_atom_site_label_1
_geom_bond_atom_site_label_2
_geom_bond_distance
_geom_bond_site_symmetry_2
Mn0 Mn1 2.628670 1_555
Mn0 Mn2 2.628676 1_555
Mn0 Mn3 2.628676 1_444
Mn0 Mn5 2.698254 1_555
Mn0 Mn6 2.698259 1_554
Mn0 Mn4 2.698259 1_545
Mn1 Mn2 2.628676 1_555
Mn1 Mn3 2.628676 1_444
Mn1 Mn9 2.698254 1_555
Mn1 Mn7 2.698259 1_455
Mn1 Mn8 2.698259 1_554
Mn2 Mn3 2.628676 1_444
Mn4 Mn8 2.648685 1_554
Mn4 Mn9 2.648689 1_555
Mn5 Mn7 2.648689 1_555
Mn6 Mn7 2.648685 1_556
Mn10 Mn15 2.648681 1_555
Mn10 Mn14 2.648681 1_555
Mn10 Mn6 2.648689 1_555
Mn10 Mn8 2.648689 1_555
Mn10 Mn2 2.698248 1_555
Mn11 Mn6 2.648685 1_565
Mn11 Mn7 2.648685 1_455
Mn11 Mn9 2.648689 1_555
Mn11 Mn13 2.648689 1_455
Mn11 Mn2 2.698254 1_565
Mn12 Mn8 2.648685 1_655
Mn12 Mn4 2.648685 1_545
Mn12 Mn5 2.648689 1_555
Mn12 Mn13 2.648689 1_545
Mn12 Mn2 2.698254 1_655
Mn13 Mn9 2.648681 1_555
Mn13 Mn5 2.648681 1_555
Mn13 Mn3 2.698254 1_555
Mn14 Mn9 2.648681 1_555
Mn14 Mn6 2.648689 1_565
Mn14 Mn4 2.648689 1_556
Mn14 Mn3 2.698245 1_555
Mn15 Mn5 2.648681 1_555
Mn15 Mn8 2.648689 1_655
Mn15 Mn7 2.648689 1_556
Mn15 Mn3 2.698245 1_555
Ga0 Mn14 2.558234 1_544
Ga0 Mn12 2.558235 1_555
Ga0 Mn7 2.558235 1_555
Ga0 Mn6 2.582605 1_554
Ga0 Mn4 2.582605 1_545
Ga0 Mn5 2.582610 1_555
Ga0 Mn3 2.641844 1_544
Ga0 Mn1 2.641846 1_655
Ga0 Mn2 2.641848 1_655
Ga0 Ga8 2.730151 1_554
Ga0 Ga9 2.730151 1_545
Ga0 Ga7 2.730151 1_655
Ga1 Mn15 2.558234 1_454
Ga1 Mn11 2.558235 1_555
Ga1 Mn4 2.558235 1_555
Ga1 Mn7 2.582605 1_455
Ga1 Mn8 2.582605 1_554
Ga1 Mn9 2.582610 1_555
Ga1 Mn3 2.641844 1_454
Ga1 Mn0 2.641846 1_565
Ga1 Mn2 2.641848 1_565
Ga1 Ga4 2.730151 1_554
Ga1 Ga9 2.730151 1_455
Ga1 Ga5 2.730151 1_565
Ga2 Mn13 2.558234 1_445
Ga2 Mn8 2.558235 1_555
Ga2 Mn6 2.558235 1_555
Ga2 Mn12 2.582605 1_455
Ga2 Mn11 2.582605 1_545
Ga2 Mn10 2.582610 1_555
Ga2 Mn1 2.641846 1_556
Ga2 Mn0 2.641846 1_556
Ga2 Mn3 2.641854 1_445
Ga2 Ga6 2.730151 1_556
Ga2 Ga8 2.730151 1_455
Ga2 Ga4 2.730151 1_545
Ga3 Mn9 2.558228 1_555
Ga3 Mn10 2.558228 1_555
Ga3 Mn5 2.558228 1_555
Ga3 Mn13 2.582601 1_555
Ga3 Mn14 2.582601 1_555
Ga3 Mn15 2.582601 1_555
Ga3 Mn1 2.641846 1_555
Ga3 Mn0 2.641846 1_555
Ga3 Mn2 2.641848 1_555
Ga3 Ga5 2.730151 1_555
Ga3 Ga7 2.730151 1_555
Ga3 Ga6 2.730151 1_555
Ga4 Mn8 2.547624 1_555
Ga4 Mn11 2.547624 1_555
Ga4 Ga7 2.569313 1_555
Ga4 Mn0 2.597576 1_566
Ga4 Mn3 2.597579 1_455
Ga4 Mn15 2.831757 1_455
Ga4 Mn13 2.831757 1_455
Ga4 Mn6 2.831761 1_565
Ga4 Mn4 2.831761 1_556
Ga4 Mn5 2.850570 1_455
Ga4 Mn14 2.850575 1_555
Ga5 Mn15 2.547628 1_555
Ga5 Mn9 2.547631 1_545
Ga5 Ga8 2.569313 1_555
Ga5 Mn2 2.597575 1_555
Ga5 Mn0 2.597576 1_555
Ga5 Mn5 2.831756 1_555
Ga5 Mn10 2.831756 1_555
Ga5 Mn4 2.831761 1_545
Ga5 Mn11 2.831761 1_545
Ga5 Mn6 2.850568 1_555
Ga5 Mn12 2.850568 1_555
Ga6 Mn13 2.547628 1_555
Ga6 Mn10 2.547631 1_554
Ga6 Ga9 2.569313 1_555
Ga6 Mn1 2.597576 1_555
Ga6 Mn0 2.597576 1_555
Ga6 Mn5 2.831756 1_555
Ga6 Mn9 2.831756 1_555
Ga6 Mn6 2.831761 1_554
Ga6 Mn8 2.831761 1_554
Ga6 Mn4 2.850568 1_555
Ga6 Mn7 2.850568 1_555
Ga7 Mn14 2.547628 1_555
Ga7 Mn5 2.547631 1_455
Ga7 Mn2 2.597575 1_555
Ga7 Mn1 2.597576 1_555
Ga7 Mn10 2.831756 1_555
Ga7 Mn9 2.831756 1_555
Ga7 Mn12 2.831761 1_455
Ga7 Mn7 2.831761 1_455
Ga7 Mn8 2.850568 1_555
Ga7 Mn11 2.850568 1_555
Ga8 Mn6 2.547624 1_555
Ga8 Mn12 2.547624 1_555
Ga8 Mn1 2.597576 1_656
Ga8 Mn3 2.597579 1_545
Ga8 Mn14 2.831757 1_545
Ga8 Mn13 2.831757 1_545
Ga8 Mn7 2.831761 1_556
Ga8 Mn8 2.831761 1_655
Ga8 Mn9 2.850570 1_545
Ga8 Mn15 2.850575 1_555
Ga9 Mn7 2.547624 1_555
Ga9 Mn4 2.547624 1_555
Ga9 Mn3 2.597568 1_554
Ga9 Mn2 2.597575 1_665
Ga9 Mn15 2.831757 1_554
Ga9 Mn14 2.831757 1_554
Ga9 Mn11 2.831761 1_655
Ga9 Mn12 2.831761 1_565
Ga9 Mn10 2.850570 1_554
Ga9 Mn13 2.850575 1_555
