# generated using pymatgen
data_MnV2P2(H4O7)2
_symmetry_space_group_name_H-M   'P 1'
_cell_length_a   6.33109600
_cell_length_b   6.33109600
_cell_length_c   8.20588526
_cell_angle_alpha   67.30872403
_cell_angle_beta   67.30872403
_cell_angle_gamma   90.00000000
_symmetry_Int_Tables_number   1
_chemical_formula_structural   MnV2P2(H4O7)2
_chemical_formula_sum   'Mn1 V2 P2 H8 O14'
_cell_volume   275.65518666
_cell_formula_units_Z   1
loop_
 _symmetry_equiv_pos_site_id
 _symmetry_equiv_pos_as_xyz
  1  'x, y, z'
loop_
 _atom_site_type_symbol
 _atom_site_label
 _atom_site_symmetry_multiplicity
 _atom_site_fract_x
 _atom_site_fract_y
 _atom_site_fract_z
 _atom_site_occupancy
  Mn  Mn0  1  0.00000000  0.00000000  0.00000000  1
  V  V0  1  0.27432300  0.27432300  0.45135400  1
  V  V1  1  0.72567700  0.72567700  0.54864600  1
  P  P0  1  0.25000000  0.75000000  0.50000000  1
  P  P1  1  0.75000000  0.25000000  0.50000000  1
  H  H0  1  0.27293400  0.40196400  0.88359300  1
  H  H1  1  0.84347200  0.71444200  0.88359300  1
  H  H2  1  0.71444200  0.27293400  0.88359300  1
  H  H3  1  0.40196400  0.84347200  0.88359300  1
  H  H4  1  0.72706600  0.59803600  0.11640700  1
  H  H5  1  0.15652800  0.28555800  0.11640700  1
  H  H6  1  0.28555800  0.72706600  0.11640700  1
  H  H7  1  0.59803600  0.15652800  0.11640700  1
  O  O0  1  0.28252900  0.61970100  0.36785100  1
  O  O1  1  0.34962000  0.01244800  0.36785100  1
  O  O2  1  0.01244800  0.28252900  0.36785100  1
  O  O3  1  0.61970100  0.34962000  0.36785100  1
  O  O4  1  0.71747100  0.38029900  0.63214900  1
  O  O5  1  0.65038000  0.98755200  0.63214900  1
  O  O6  1  0.98755200  0.71747100  0.63214900  1
  O  O7  1  0.38029900  0.65038000  0.63214900  1
  O  O8  1  0.15470300  0.15470300  0.69059400  1
  O  O9  1  0.84529700  0.84529700  0.30940600  1
  O  O10  1  0.23169800  0.25437200  0.00000000  1
  O  O11  1  0.76830200  0.74562800  0.00000000  1
  O  O12  1  0.74562800  0.23169800  0.00000000  1
  O  O13  1  0.25437200  0.76830200  0.00000000  1
loop_
_geom_bond_atom_site_label_1
_geom_bond_atom_site_label_2
_geom_bond_distance
_geom_bond_site_symmetry_2
Mn0 O9 2.127831 1_445
Mn0 O8 2.127831 1_554
Mn0 O12 2.178385 1_455
Mn0 O10 2.178385 1_555
Mn0 O13 2.178385 1_545
Mn0 O11 2.178385 1_445
H0 O10 0.986251 1_556
H1 O11 0.986254 1_556
H2 O12 0.986254 1_556
H3 O13 0.986250 1_556
H4 O11 0.986251 1_555
H5 O10 0.986254 1_555
H6 O13 0.986254 1_555
H7 O12 0.986250 1_555
O0 P0 1.554584 1_555
O0 V0 2.017443 1_555
O1 P0 1.554584 1_545
O1 V0 2.017443 1_555
O2 P1 1.554584 1_455
O2 V0 2.017443 1_555
O3 P1 1.554584 1_555
O3 V0 2.017443 1_555
O4 P1 1.554584 1_555
O4 V1 2.017443 1_555
O5 P1 1.554584 1_565
O5 V1 2.017443 1_555
O6 P0 1.554584 1_655
O6 V1 2.017443 1_555
O7 P0 1.554584 1_555
O7 V1 2.017443 1_555
O8 V0 1.645289 1_555
O9 V1 1.645289 1_555
