# generated using pymatgen
data_SrMg30SiO32
_symmetry_space_group_name_H-M   'P 1'
_cell_length_a   8.64587000
_cell_length_b   8.64587000
_cell_length_c   8.60924500
_cell_angle_alpha   90.00000000
_cell_angle_beta   90.00000000
_cell_angle_gamma   90.00000000
_symmetry_Int_Tables_number   1
_chemical_formula_structural   SrMg30SiO32
_chemical_formula_sum   'Sr1 Mg30 Si1 O32'
_cell_volume   643.55025891
_cell_formula_units_Z   1
loop_
 _symmetry_equiv_pos_site_id
 _symmetry_equiv_pos_as_xyz
  1  'x, y, z'
loop_
 _atom_site_type_symbol
 _atom_site_label
 _atom_site_symmetry_multiplicity
 _atom_site_fract_x
 _atom_site_fract_y
 _atom_site_fract_z
 _atom_site_occupancy
  Sr  Sr0  1  0.00000000  0.00000000  0.50000000  1
  Mg  Mg0  1  0.50000000  0.00000000  0.00000000  1
  Mg  Mg1  1  0.50000000  0.00000000  0.50000000  1
  Mg  Mg2  1  0.00000000  0.50000000  0.00000000  1
  Mg  Mg3  1  0.00000000  0.50000000  0.50000000  1
  Mg  Mg4  1  0.50000000  0.50000000  0.00000000  1
  Mg  Mg5  1  0.50000000  0.50000000  0.50000000  1
  Mg  Mg6  1  0.25794500  0.00000000  0.24550400  1
  Mg  Mg7  1  0.25794500  0.00000000  0.75449600  1
  Mg  Mg8  1  0.74205500  0.00000000  0.24550400  1
  Mg  Mg9  1  0.74205500  0.00000000  0.75449600  1
  Mg  Mg10  1  0.25073500  0.50000000  0.24938800  1
  Mg  Mg11  1  0.25073500  0.50000000  0.75061200  1
  Mg  Mg12  1  0.74926500  0.50000000  0.24938800  1
  Mg  Mg13  1  0.74926500  0.50000000  0.75061200  1
  Mg  Mg14  1  0.00000000  0.25794500  0.24550400  1
  Mg  Mg15  1  0.00000000  0.25794500  0.75449600  1
  Mg  Mg16  1  0.50000000  0.25073500  0.24938800  1
  Mg  Mg17  1  0.50000000  0.25073500  0.75061200  1
  Mg  Mg18  1  0.00000000  0.74205500  0.24550400  1
  Mg  Mg19  1  0.00000000  0.74205500  0.75449600  1
  Mg  Mg20  1  0.50000000  0.74926500  0.24938800  1
  Mg  Mg21  1  0.50000000  0.74926500  0.75061200  1
  Mg  Mg22  1  0.25136600  0.25136600  0.00000000  1
  Mg  Mg23  1  0.25542700  0.25542700  0.50000000  1
  Mg  Mg24  1  0.74863400  0.25136600  0.00000000  1
  Mg  Mg25  1  0.74457300  0.25542700  0.50000000  1
  Mg  Mg26  1  0.25136600  0.74863400  0.00000000  1
  Mg  Mg27  1  0.25542700  0.74457300  0.50000000  1
  Mg  Mg28  1  0.74863400  0.74863400  0.00000000  1
  Mg  Mg29  1  0.74457300  0.74457300  0.50000000  1
  Si  Si0  1  0.00000000  0.00000000  0.00000000  1
  O  O0  1  0.00000000  0.26492900  0.00000000  1
  O  O1  1  0.00000000  0.26993800  0.50000000  1
  O  O2  1  0.50000000  0.25249500  0.00000000  1
  O  O3  1  0.50000000  0.25406000  0.50000000  1
  O  O4  1  0.00000000  0.73507100  0.00000000  1
  O  O5  1  0.00000000  0.73006200  0.50000000  1
  O  O6  1  0.50000000  0.74750500  0.00000000  1
  O  O7  1  0.50000000  0.74594000  0.50000000  1
  O  O8  1  0.24920300  0.24920300  0.25017600  1
  O  O9  1  0.24920300  0.24920300  0.74982400  1
  O  O10  1  0.75079700  0.24920300  0.25017600  1
  O  O11  1  0.75079700  0.24920300  0.74982400  1
  O  O12  1  0.24920300  0.75079700  0.25017600  1
  O  O13  1  0.24920300  0.75079700  0.74982400  1
  O  O14  1  0.75079700  0.75079700  0.25017600  1
  O  O15  1  0.75079700  0.75079700  0.74982400  1
  O  O16  1  0.00000000  0.00000000  0.23173800  1
  O  O17  1  0.00000000  0.00000000  0.76826200  1
  O  O18  1  0.50000000  0.00000000  0.24820600  1
  O  O19  1  0.50000000  0.00000000  0.75179400  1
  O  O20  1  0.00000000  0.50000000  0.24820600  1
  O  O21  1  0.00000000  0.50000000  0.75179400  1
  O  O22  1  0.50000000  0.50000000  0.24966300  1
  O  O23  1  0.50000000  0.50000000  0.75033700  1
  O  O24  1  0.26492900  0.00000000  0.00000000  1
  O  O25  1  0.26993800  0.00000000  0.50000000  1
  O  O26  1  0.73507100  0.00000000  0.00000000  1
  O  O27  1  0.73006200  0.00000000  0.50000000  1
  O  O28  1  0.25249500  0.50000000  0.00000000  1
  O  O29  1  0.25406000  0.50000000  0.50000000  1
  O  O30  1  0.74750500  0.50000000  0.00000000  1
  O  O31  1  0.74594000  0.50000000  0.50000000  1
loop_
_geom_bond_atom_site_label_1
_geom_bond_atom_site_label_2
_geom_bond_distance
_geom_bond_site_symmetry_2
Mg0 O24 2.032393 1_555
Mg0 O26 2.032393 1_555
Mg0 O18 2.136866 1_555
Mg0 O19 2.136866 1_554
Mg0 O2 2.183039 1_555
Mg0 O6 2.183039 1_545
Mg1 O25 1.989086 1_555
Mg1 O27 1.989086 1_555
Mg1 O18 2.167756 1_555
Mg1 O19 2.167756 1_555
Mg1 O7 2.196570 1_545
Mg1 O3 2.196570 1_555
Mg2 O0 2.032393 1_555
Mg2 O4 2.032393 1_555
Mg2 O20 2.136866 1_555
Mg2 O21 2.136866 1_554
Mg2 O28 2.183039 1_555
Mg2 O30 2.183039 1_455
Mg3 O1 1.989086 1_555
Mg3 O5 1.989086 1_555
Mg3 O20 2.167756 1_555
Mg3 O21 2.167756 1_555
Mg3 O31 2.196570 1_455
Mg3 O29 2.196570 1_555
Mg4 O30 2.139896 1_555
Mg4 O2 2.139896 1_555
Mg4 O28 2.139896 1_555
Mg4 O6 2.139896 1_555
Mg4 O23 2.149410 1_554
Mg4 O22 2.149410 1_555
Mg5 O29 2.126365 1_555
Mg5 O3 2.126365 1_555
Mg5 O31 2.126365 1_555
Mg5 O7 2.126365 1_555
Mg5 O22 2.155213 1_555
Mg5 O23 2.155213 1_555
Mg6 O18 2.092905 1_555
Mg6 O24 2.114466 1_555
Mg6 O12 2.156277 1_545
Mg6 O8 2.156277 1_555
Mg6 O25 2.193471 1_555
Mg6 O16 2.233306 1_555
Mg7 O19 2.092905 1_555
Mg7 O24 2.114466 1_556
Mg7 O13 2.156277 1_545
Mg7 O9 2.156277 1_555
Mg7 O25 2.193471 1_555
Mg7 O17 2.233306 1_555
Mg8 O18 2.092905 1_555
Mg8 O26 2.114466 1_555
Mg8 O14 2.156277 1_545
Mg8 O10 2.156277 1_555
Mg8 O27 2.193471 1_555
Mg8 O16 2.233306 1_655
Mg9 O19 2.092905 1_555
Mg9 O26 2.114466 1_556
Mg9 O15 2.156277 1_545
Mg9 O11 2.156277 1_555
Mg9 O27 2.193471 1_555
Mg9 O17 2.233306 1_655
Mg10 O28 2.147096 1_555
Mg10 O22 2.155114 1_555
Mg10 O29 2.157772 1_555
Mg10 O20 2.167846 1_555
Mg10 O8 2.168409 1_555
Mg10 O12 2.168409 1_555
Mg11 O28 2.147096 1_556
Mg11 O23 2.155114 1_555
Mg11 O29 2.157772 1_555
Mg11 O21 2.167846 1_555
Mg11 O9 2.168409 1_555
Mg11 O13 2.168409 1_555
Mg12 O30 2.147096 1_555
Mg12 O22 2.155114 1_555
Mg12 O31 2.157772 1_555
Mg12 O20 2.167846 1_655
Mg12 O10 2.168409 1_555
Mg12 O14 2.168409 1_555
Mg13 O30 2.147096 1_556
Mg13 O23 2.155114 1_555
Mg13 O31 2.157772 1_555
Mg13 O21 2.167846 1_655
Mg13 O11 2.168409 1_555
Mg13 O15 2.168409 1_555
Mg14 O20 2.092905 1_555
Mg14 O0 2.114466 1_555
Mg14 O10 2.156277 1_455
Mg14 O8 2.156277 1_555
Mg14 O1 2.193471 1_555
Mg14 O16 2.233306 1_555
Mg15 O21 2.092905 1_555
Mg15 O0 2.114466 1_556
Mg15 O11 2.156277 1_455
Mg15 O9 2.156277 1_555
Mg15 O1 2.193471 1_555
Mg15 O17 2.233306 1_555
Mg16 O2 2.147096 1_555
Mg16 O22 2.155114 1_555
Mg16 O3 2.157772 1_555
Mg16 O18 2.167846 1_555
Mg16 O8 2.168409 1_555
Mg16 O10 2.168409 1_555
Mg17 O2 2.147096 1_556
Mg17 O23 2.155114 1_555
Mg17 O3 2.157772 1_555
Mg17 O19 2.167846 1_555
Mg17 O9 2.168409 1_555
Mg17 O11 2.168409 1_555
Mg18 O20 2.092905 1_555
Mg18 O4 2.114466 1_555
Mg18 O14 2.156277 1_455
Mg18 O12 2.156277 1_555
Mg18 O5 2.193471 1_555
Mg18 O16 2.233306 1_565
Mg19 O21 2.092905 1_555
Mg19 O4 2.114466 1_556
Mg19 O15 2.156277 1_455
Mg19 O13 2.156277 1_555
Mg19 O5 2.193471 1_555
Mg19 O17 2.233306 1_565
Mg20 O6 2.147096 1_555
Mg20 O22 2.155114 1_555
Mg20 O7 2.157772 1_555
Mg20 O18 2.167846 1_565
Mg20 O12 2.168409 1_555
Mg20 O14 2.168409 1_555
Mg21 O6 2.147096 1_556
Mg21 O23 2.155114 1_555
Mg21 O7 2.157772 1_555
Mg21 O19 2.167846 1_565
Mg21 O13 2.168409 1_555
Mg21 O15 2.168409 1_555
Mg22 O2 2.149679 1_555
Mg22 O28 2.149679 1_555
Mg22 O9 2.153989 1_554
Mg22 O8 2.153989 1_555
Mg22 O24 2.176439 1_555
Mg22 O0 2.176439 1_555
Mg23 O3 2.114579 1_555
Mg23 O29 2.114579 1_555
Mg23 O8 2.152142 1_555
Mg23 O9 2.152142 1_555
Mg23 O25 2.211950 1_555
Mg23 O1 2.211950 1_555
Mg24 O2 2.149679 1_555
Mg24 O30 2.149679 1_555
Mg24 O11 2.153989 1_554
Mg24 O10 2.153989 1_555
Mg24 O26 2.176439 1_555
Mg24 O0 2.176439 1_655
Mg25 O31 2.114579 1_555
Mg25 O3 2.114579 1_555
Mg25 O10 2.152142 1_555
Mg25 O11 2.152142 1_555
Mg25 O1 2.211950 1_655
Mg25 O27 2.211950 1_555
Mg26 O28 2.149679 1_555
Mg26 O6 2.149679 1_555
Mg26 O13 2.153989 1_554
Mg26 O12 2.153989 1_555
Mg26 O4 2.176439 1_555
Mg26 O24 2.176439 1_565
Mg27 O7 2.114579 1_555
Mg27 O29 2.114579 1_555
Mg27 O12 2.152142 1_555
Mg27 O13 2.152142 1_555
Mg27 O25 2.211950 1_565
Mg27 O5 2.211950 1_555
Mg28 O6 2.149679 1_555
Mg28 O30 2.149679 1_555
Mg28 O15 2.153989 1_554
Mg28 O14 2.153989 1_555
Mg28 O26 2.176439 1_565
Mg28 O4 2.176439 1_655
Mg29 O7 2.114579 1_555
Mg29 O31 2.114579 1_555
Mg29 O14 2.152142 1_555
Mg29 O15 2.152142 1_555
Mg29 O27 2.211950 1_565
Mg29 O5 2.211950 1_655
O0 Si0 2.290542 1_555
O1 Sr0 2.333849 1_555
O4 Si0 2.290542 1_565
O5 Sr0 2.333849 1_565
O16 Si0 1.995089 1_555
O16 Sr0 2.309533 1_555
O17 Si0 1.995089 1_556
O17 Sr0 2.309533 1_555
O24 Si0 2.290542 1_555
O25 Sr0 2.333849 1_555
O26 Si0 2.290542 1_655
O27 Sr0 2.333849 1_655
