# generated using pymatgen
data_La3YbBeS7
_symmetry_space_group_name_H-M   'P 1'
_cell_length_a   10.34578100
_cell_length_b   10.34578197
_cell_length_c   5.96330700
_cell_angle_alpha   90.00000000
_cell_angle_beta   90.00000000
_cell_angle_gamma   120.00000009
_symmetry_Int_Tables_number   1
_chemical_formula_structural   La3YbBeS7
_chemical_formula_sum   'La6 Yb2 Be2 S14'
_cell_volume   552.76992002
_cell_formula_units_Z   2
loop_
 _symmetry_equiv_pos_site_id
 _symmetry_equiv_pos_as_xyz
  1  'x, y, z'
loop_
 _atom_site_type_symbol
 _atom_site_label
 _atom_site_symmetry_multiplicity
 _atom_site_fract_x
 _atom_site_fract_y
 _atom_site_fract_z
 _atom_site_occupancy
  La  La0  1  0.74827200  0.13451700  0.24990600  1
  La  La1  1  0.38624500  0.25172800  0.24990600  1
  La  La2  1  0.86548300  0.61375500  0.24990600  1
  La  La3  1  0.25172800  0.86548300  0.74990600  1
  La  La4  1  0.61375500  0.74827200  0.74990600  1
  La  La5  1  0.13451700  0.38624500  0.74990600  1
  Yb  Yb0  1  0.00000000  0.00000000  0.01746400  1
  Yb  Yb1  1  0.00000000  0.00000000  0.51746400  1
  Be  Be0  1  0.66666700  0.33333300  0.65807300  1
  Be  Be1  1  0.33333300  0.66666700  0.15807300  1
  S  S0  1  0.83458700  0.08473900  0.76721100  1
  S  S1  1  0.25015300  0.16541300  0.76721100  1
  S  S2  1  0.91526100  0.74984700  0.76721100  1
  S  S3  1  0.16541300  0.91526100  0.26721100  1
  S  S4  1  0.74984700  0.83458700  0.26721100  1
  S  S5  1  0.08473900  0.25015300  0.26721100  1
  S  S6  1  0.88335900  0.40429600  0.52965800  1
  S  S7  1  0.52093700  0.11664100  0.52965800  1
  S  S8  1  0.59570400  0.47906300  0.52965800  1
  S  S9  1  0.11664100  0.59570400  0.02965800  1
  S  S10  1  0.47906300  0.88335900  0.02965800  1
  S  S11  1  0.40429600  0.52093700  0.02965800  1
  S  S12  1  0.66666700  0.33333300  0.01611300  1
  S  S13  1  0.33333300  0.66666700  0.51611300  1
loop_
_geom_bond_atom_site_label_1
_geom_bond_atom_site_label_2
_geom_bond_distance
_geom_bond_site_symmetry_2
La0 S7 2.813181 1_555
La0 S12 2.936660 1_555
La0 S6 2.936942 1_555
La0 S10 2.999498 1_545
La0 S5 3.065103 1_655
La0 S4 3.112901 1_545
La0 S0 3.131784 1_554
La0 S0 3.322474 1_555
La1 S8 2.813181 1_555
La1 S12 2.936668 1_555
La1 S7 2.936942 1_555
La1 S11 2.999498 1_555
La1 S3 3.065105 1_545
La1 S5 3.112911 1_555
La1 S1 3.131780 1_554
La1 S1 3.322471 1_555
La2 S6 2.813181 1_555
La2 S12 2.936666 1_555
La2 S8 2.936941 1_555
La2 S9 2.999498 1_655
La2 S4 3.065113 1_555
La2 S3 3.112906 1_655
La2 S2 3.131780 1_554
La2 S2 3.322471 1_555
La3 S10 2.813181 1_556
La3 S13 2.936660 1_555
La3 S9 2.936942 1_556
La3 S7 2.999498 1_565
La3 S2 3.065103 1_455
La3 S1 3.112901 1_565
La3 S3 3.131784 1_555
La3 S3 3.322474 1_556
La4 S11 2.813181 1_556
La4 S13 2.936668 1_555
La4 S10 2.936942 1_556
La4 S8 2.999498 1_555
La4 S0 3.065105 1_565
La4 S2 3.112911 1_555
La4 S4 3.131780 1_555
La4 S4 3.322471 1_556
La5 S9 2.813181 1_556
La5 S13 2.936666 1_555
La5 S11 2.936941 1_556
La5 S6 2.999498 1_455
La5 S1 3.065113 1_555
La5 S0 3.112906 1_455
La5 S5 3.131780 1_555
La5 S5 3.322471 1_556
Be0 S6 2.122595 1_555
Be0 S7 2.122597 1_555
Be0 S8 2.122604 1_555
Be0 S12 2.135102 1_556
Be1 S9 2.122595 1_555
Be1 S10 2.122597 1_555
Be1 S11 2.122604 1_555
Be1 S13 2.135102 1_555
S0 Yb1 2.723160 1_655
S0 Yb0 2.724811 1_656
S1 Yb1 2.723166 1_555
S1 Yb0 2.724818 1_556
S2 Yb1 2.723168 1_665
S2 Yb0 2.724820 1_666
S3 Yb0 2.723160 1_565
S3 Yb1 2.724811 1_565
S4 Yb0 2.723166 1_665
S4 Yb1 2.724818 1_665
S5 Yb0 2.723168 1_555
S5 Yb1 2.724820 1_555
