# generated using pymatgen
data_Li4MnCo2O7
_symmetry_space_group_name_H-M   'P 1'
_cell_length_a   2.94506100
_cell_length_b   7.76245420
_cell_length_c   11.25942960
_cell_angle_alpha   80.71547227
_cell_angle_beta   83.03385837
_cell_angle_gamma   81.99885826
_symmetry_Int_Tables_number   1
_chemical_formula_structural   Li4MnCo2O7
_chemical_formula_sum   'Li8 Mn2 Co4 O14'
_cell_volume   250.26622171
_cell_formula_units_Z   2
loop_
 _symmetry_equiv_pos_site_id
 _symmetry_equiv_pos_as_xyz
  1  'x, y, z'
loop_
 _atom_site_type_symbol
 _atom_site_label
 _atom_site_symmetry_multiplicity
 _atom_site_fract_x
 _atom_site_fract_y
 _atom_site_fract_z
 _atom_site_occupancy
  Li  Li0  1  0.76490000  0.35985400  0.07848700  1
  Li  Li1  1  0.93651200  0.78572900  0.34485400  1
  Li  Li2  1  0.06890300  0.21603000  0.64165000  1
  Li  Li3  1  0.22235700  0.64002100  0.93222500  1
  Li  Li4  1  0.37004600  0.06052600  0.21434600  1
  Li  Li5  1  0.49805300  0.50060600  0.49853900  1
  Li  Li6  1  0.64106300  0.93001700  0.78574400  1
  Li  Li7  1  0.55126200  0.72104200  0.14770500  1
  Mn  Mn0  1  0.00275900  0.99151800  0.00724300  1
  Mn  Mn1  1  0.28064000  0.85625300  0.57191100  1
  Co  Co0  1  0.14030200  0.44097500  0.27872700  1
  Co  Co1  1  0.44610400  0.28518900  0.85516700  1
  Co  Co2  1  0.70849600  0.14603900  0.42443000  1
  Co  Co3  1  0.86363700  0.56997300  0.71430600  1
  O  O0  1  0.43393800  0.15699900  0.02946100  1
  O  O1  1  0.51681400  0.59289900  0.31931800  1
  O  O2  1  0.64114800  0.03854200  0.59901800  1
  O  O3  1  0.82397200  0.45872900  0.88513000  1
  O  O4  1  0.96022800  0.90129800  0.16773100  1
  O  O5  1  0.11861500  0.32116200  0.44739300  1
  O  O6  1  0.21929600  0.74520000  0.74417300  1
  O  O7  1  0.18105100  0.51884000  0.12311200  1
  O  O8  1  0.30893100  0.96686600  0.40112800  1
  O  O9  1  0.49289600  0.40215100  0.68309700  1
  O  O10  1  0.57487000  0.84242700  0.96850000  1
  O  O11  1  0.77501300  0.25790000  0.25835200  1
  O  O12  1  0.91214900  0.67835500  0.54665000  1
  O  O13  1  0.04604600  0.11486100  0.83160400  1
loop_
_geom_bond_atom_site_label_1
_geom_bond_atom_site_label_2
_geom_bond_distance
_geom_bond_site_symmetry_2
Li0 O7 2.011991 1_655
Li0 O7 2.032700 1_555
Li0 O11 2.054134 1_555
Li0 O0 2.138350 1_555
Li0 O3 2.182931 1_554
Li0 O0 2.412358 1_655
Li1 O4 2.047749 1_555
Li1 O8 2.113484 1_655
Li1 O1 2.133419 1_655
Li1 O1 2.142684 1_555
Li1 O8 2.252669 1_555
Li1 O12 2.286559 1_555
Li2 O2 2.083169 1_555
Li2 O9 2.127449 1_455
Li2 O2 2.135145 1_455
Li2 O13 2.152541 1_555
Li2 O9 2.173807 1_555
Li2 O5 2.202498 1_555
Li3 O10 2.115939 1_555
Li3 O3 2.118842 1_455
Li3 O6 2.143512 1_555
Li3 O3 2.172466 1_555
Li3 O7 2.198889 1_556
Li3 O10 2.335745 1_455
Li4 O4 2.009515 1_445
Li4 O4 2.052857 1_545
Li4 O0 2.090663 1_555
Li4 O8 2.105961 1_545
Li4 O11 2.216360 1_555
Li4 O11 2.225015 1_455
Li5 O1 2.026284 1_555
Li5 O5 2.090182 1_555
Li5 O9 2.094182 1_555
Li5 O12 2.127508 1_455
Li5 O12 2.134088 1_555
Li5 O5 2.215136 1_655
Li6 O10 2.054916 1_555
Li6 O6 2.126134 1_655
Li6 O2 2.135020 1_565
Li6 O13 2.147742 1_665
Li6 O6 2.161928 1_555
Li6 O13 2.171587 1_565
Li7 O1 2.023296 1_555
Li7 O4 2.023900 1_555
Li7 O10 2.081993 1_554
Li7 O4 2.089752 1_455
Li7 O7 2.102115 1_555
Li7 O7 2.277203 1_655
Mn0 O4 1.825537 1_455
Mn0 O10 1.952008 1_554
Mn0 O10 1.954457 1_454
Mn0 O0 1.980390 1_465
Mn0 O0 1.989968 1_565
Mn0 O13 2.050779 1_564
Mn1 O12 1.945347 1_455
Mn1 O2 1.964393 1_565
Mn1 O8 1.972333 1_555
Mn1 O6 1.989107 1_555
Mn1 O12 2.174920 1_555
Mn1 O2 2.213691 1_465
Co0 O7 1.754188 1_555
Co0 O1 1.868171 1_555
Co0 O11 1.954532 1_455
Co0 O5 1.973011 1_555
Co0 O1 2.082984 1_455
Co0 O11 2.197270 1_555
Co1 O3 1.954981 1_555
Co1 O13 1.956864 1_555
Co1 O9 1.999834 1_555
Co1 O0 2.050712 1_556
Co1 O13 2.071103 1_655
Co1 O3 2.143620 1_455
Co2 O11 1.929665 1_555
Co2 O5 2.004958 1_655
Co2 O2 2.005508 1_555
Co2 O8 2.009030 1_545
Co2 O5 2.068766 1_555
Co2 O8 2.109671 1_645
Co3 O9 1.910347 1_555
Co3 O6 1.920935 1_655
Co3 O12 1.935782 1_555
Co3 O3 1.973923 1_555
Co3 O9 2.138359 1_655
Co3 O6 2.199645 1_555
