# generated using pymatgen
data_Li7Mn2(CoO4)3
_symmetry_space_group_name_H-M   'P 1'
_cell_length_a   2.89510668
_cell_length_b   11.83304167
_cell_length_c   12.85233146
_cell_angle_alpha   76.76643705
_cell_angle_beta   89.90098765
_cell_angle_gamma   91.66163388
_symmetry_Int_Tables_number   1
_chemical_formula_structural   Li7Mn2(CoO4)3
_chemical_formula_sum   'Li14 Mn4 Co6 O24'
_cell_volume   428.40603183
_cell_formula_units_Z   2
loop_
 _symmetry_equiv_pos_site_id
 _symmetry_equiv_pos_as_xyz
  1  'x, y, z'
loop_
 _atom_site_type_symbol
 _atom_site_label
 _atom_site_symmetry_multiplicity
 _atom_site_fract_x
 _atom_site_fract_y
 _atom_site_fract_z
 _atom_site_occupancy
  Li  Li0  1  0.00001000  0.83334200  0.66664600  1
  Li  Li1  1  0.49996900  0.83332500  0.16667600  1
  Li  Li2  1  0.99869000  0.25482700  0.99972200  1
  Li  Li3  1  0.50219200  0.25179400  0.50139600  1
  Li  Li4  1  0.49785100  0.41485300  0.83193400  1
  Li  Li5  1  0.00135300  0.41183900  0.33361000  1
  Li  Li6  1  0.47911900  0.59357800  0.16602000  1
  Li  Li7  1  0.98126200  0.59041200  0.66790600  1
  Li  Li8  1  0.52081200  0.07308800  0.16734400  1
  Li  Li9  1  0.01875200  0.07623900  0.66540400  1
  Li  Li10  1  0.99447400  0.74957000  0.00831600  1
  Li  Li11  1  0.49542700  0.75020400  0.50820400  1
  Li  Li12  1  0.50455800  0.91645800  0.82514400  1
  Li  Li13  1  0.00553700  0.91709400  0.32501300  1
  Mn  Mn0  1  0.51555300  0.99420100  0.50714000  1
  Mn  Mn1  1  0.01430000  0.99534200  0.00729500  1
  Mn  Mn2  1  0.48439800  0.67247100  0.82613700  1
  Mn  Mn3  1  0.98576400  0.67133600  0.32611200  1
  Co  Co0  1  0.00001300  0.33332000  0.66667300  1
  Co  Co1  1  0.48468400  0.50187600  0.50034500  1
  Co  Co2  1  0.51526800  0.16477400  0.83300500  1
  Co  Co3  1  0.50003100  0.33333900  0.16666100  1
  Co  Co4  1  0.98150200  0.50063400  0.99947100  1
  Co  Co5  1  0.01854900  0.16605000  0.33384700  1
  O  O0  1  0.52647800  0.11171000  0.99839800  1
  O  O1  1  0.02698300  0.10985800  0.49819000  1
  O  O2  1  0.97303900  0.55681400  0.83511500  1
  O  O3  1  0.47344200  0.55498700  0.33495600  1
  O  O4  1  0.00834100  0.44349400  0.16374300  1
  O  O5  1  0.47883500  0.45088500  0.66442500  1
  O  O6  1  0.99170300  0.22317000  0.16958500  1
  O  O7  1  0.52118800  0.21576300  0.66891200  1
  O  O8  1  0.49133100  0.28191700  0.33703600  1
  O  O9  1  0.99345600  0.28280600  0.83271100  1
  O  O10  1  0.50870900  0.38475300  0.99628300  1
  O  O11  1  0.00654400  0.38385100  0.50062200  1
  O  O12  1  0.46515700  0.61990800  0.99343200  1
  O  O13  1  0.96717700  0.62072200  0.49129200  1
  O  O14  1  0.53486500  0.04676800  0.33988100  1
  O  O15  1  0.03278100  0.04592700  0.84206700  1
  O  O16  1  0.99555300  0.77822300  0.83537700  1
  O  O17  1  0.49630300  0.77720200  0.33442300  1
  O  O18  1  0.50363900  0.88947700  0.99894800  1
  O  O19  1  0.00446300  0.88845700  0.49792000  1
  O  O20  1  0.50894900  0.96290800  0.65289800  1
  O  O21  1  0.00901500  0.96383300  0.15353800  1
  O  O22  1  0.49106600  0.70375500  0.68040100  1
  O  O23  1  0.99091600  0.70284600  0.17982200  1
loop_
_geom_bond_atom_site_label_1
_geom_bond_atom_site_label_2
_geom_bond_distance
_geom_bond_site_symmetry_2
Li0 O20 2.072888 1_555
Li0 O22 2.073064 1_455
Li0 O20 2.099096 1_455
Li0 O22 2.099260 1_555
Li0 O19 2.116577 1_555
Li0 O16 2.116642 1_455
Li1 O23 2.081367 1_455
Li1 O21 2.081604 1_655
Li1 O18 2.105315 1_554
Li1 O17 2.105520 1_555
Li1 O23 2.107428 1_555
Li1 O21 2.107703 1_555
Li2 O10 2.093526 1_655
Li2 O9 2.095772 1_555
Li2 O10 2.115059 1_555
Li2 O6 2.128802 1_556
Li2 O0 2.148545 1_555
Li2 O0 2.316512 1_655
Li3 O8 2.060693 1_555
Li3 O7 2.097997 1_555
Li3 O11 2.105822 1_655
Li3 O1 2.147832 1_555
Li3 O11 2.150348 1_555
Li3 O1 2.304418 1_655
Li4 O10 2.060571 1_555
Li4 O5 2.097910 1_555
Li4 O9 2.105814 1_455
Li4 O2 2.147958 1_555
Li4 O9 2.150168 1_555
Li4 O2 2.304622 1_455
Li5 O8 2.093523 1_455
Li5 O11 2.095775 1_555
Li5 O8 2.115042 1_555
Li5 O4 2.128854 1_555
Li5 O3 2.148663 1_555
Li5 O3 2.317080 1_455
Li6 O23 1.973199 1_555
Li6 O23 1.977643 1_455
Li6 O3 2.113882 1_555
Li6 O12 2.168769 1_554
Li6 O4 2.212702 1_555
Li6 O4 2.384071 1_655
Li7 O22 1.996899 1_655
Li7 O22 2.011675 1_555
Li7 O2 2.094049 1_555
Li7 O5 2.176802 1_555
Li7 O13 2.216119 1_555
Li7 O5 2.230368 1_655
Li8 O21 1.973111 1_545
Li8 O21 1.977548 1_645
Li8 O0 2.114001 1_554
Li8 O14 2.168137 1_555
Li8 O6 2.212786 1_555
Li8 O6 2.383752 1_455
Li9 O20 1.996836 1_445
Li9 O20 2.011610 1_545
Li9 O1 2.094100 1_555
Li9 O7 2.176861 1_555
Li9 O15 2.216735 1_555
Li9 O7 2.230389 1_455
Li10 O12 2.121856 1_654
Li10 O23 2.146191 1_555
Li10 O18 2.166747 1_654
Li10 O16 2.170279 1_554
Li10 O12 2.176702 1_554
Li10 O18 2.195523 1_554
Li11 O13 2.129061 1_555
Li11 O19 2.150850 1_655
Li11 O22 2.154713 1_555
Li11 O19 2.179605 1_555
Li11 O13 2.179769 1_455
Li11 O17 2.182613 1_555
Li12 O15 2.129033 1_565
Li12 O16 2.150710 1_455
Li12 O20 2.155323 1_555
Li12 O16 2.179577 1_555
Li12 O15 2.179644 1_665
Li12 O18 2.182922 1_555
Li13 O14 2.121891 1_465
Li13 O21 2.145810 1_555
Li13 O17 2.166684 1_455
Li13 O19 2.169887 1_555
Li13 O14 2.176772 1_565
Li13 O17 2.195191 1_555
Mn0 O20 1.824477 1_555
Mn0 O19 1.931383 1_555
Mn0 O19 1.937327 1_655
Mn0 O1 1.971891 1_665
Mn0 O1 1.981838 1_565
Mn0 O14 2.096778 1_565
Mn1 O21 1.830499 1_555
Mn1 O18 1.929033 1_454
Mn1 O18 1.936933 1_554
Mn1 O0 1.979092 1_564
Mn1 O0 1.986203 1_464
Mn1 O15 2.070378 1_564
Mn2 O22 1.824204 1_555
Mn2 O16 1.931638 1_555
Mn2 O16 1.937304 1_455
Mn2 O2 1.971704 1_455
Mn2 O2 1.981953 1_555
Mn2 O12 2.097215 1_555
Mn3 O23 1.831090 1_555
Mn3 O17 1.928682 1_655
Mn3 O17 1.937113 1_555
Mn3 O3 1.979318 1_555
Mn3 O3 1.985809 1_655
Mn3 O13 2.069809 1_555
Co0 O7 1.930611 1_455
Co0 O5 1.930653 1_555
Co0 O7 2.077514 1_555
Co0 O5 2.077569 1_455
Co0 O9 2.080072 1_455
Co0 O11 2.080243 1_555
Co1 O11 1.937078 1_555
Co1 O13 1.937288 1_555
Co1 O5 2.056248 1_555
Co1 O13 2.069744 1_455
Co1 O3 2.074644 1_555
Co1 O11 2.086442 1_655
Co2 O9 1.937197 1_555
Co2 O15 1.937272 1_555
Co2 O7 2.056406 1_555
Co2 O15 2.069754 1_655
Co2 O0 2.074653 1_555
Co2 O9 2.086363 1_455
Co3 O4 1.931906 1_655
Co3 O6 1.932042 1_455
Co3 O4 1.952482 1_555
Co3 O6 1.952546 1_555
Co3 O8 2.134158 1_555
Co3 O10 2.134190 1_554
Co4 O10 1.916397 1_555
Co4 O12 1.947694 1_655
Co4 O2 2.064651 1_555
Co4 O4 2.066575 1_656
Co4 O12 2.074910 1_555
Co4 O10 2.087696 1_655
Co5 O8 1.916262 1_555
Co5 O14 1.947827 1_455
Co5 O1 2.064503 1_555
Co5 O6 2.066432 1_455
Co5 O14 2.074921 1_555
Co5 O8 2.087609 1_455
