# generated using pymatgen
data_Ca2LaGa(FeO4)2
_symmetry_space_group_name_H-M   'P 1'
_cell_length_a   11.32209200
_cell_length_b   5.53362800
_cell_length_c   5.62764037
_cell_angle_alpha   89.91381664
_cell_angle_beta   90.00000000
_cell_angle_gamma   90.00000000
_symmetry_Int_Tables_number   1
_chemical_formula_structural   Ca2LaGa(FeO4)2
_chemical_formula_sum   'Ca4 La2 Ga2 Fe4 O16'
_cell_volume   352.58390588
_cell_formula_units_Z   2
loop_
 _symmetry_equiv_pos_site_id
 _symmetry_equiv_pos_as_xyz
  1  'x, y, z'
loop_
 _atom_site_type_symbol
 _atom_site_label
 _atom_site_symmetry_multiplicity
 _atom_site_fract_x
 _atom_site_fract_y
 _atom_site_fract_z
 _atom_site_occupancy
  Ca  Ca0  1  0.31383900  0.75461700  0.72764300  1
  Ca  Ca1  1  0.68616100  0.75461700  0.72764300  1
  Ca  Ca2  1  0.68582600  0.25427500  0.27230100  1
  Ca  Ca3  1  0.31417400  0.25427500  0.27230100  1
  La  La0  1  0.00000000  0.80394100  0.74431100  1
  La  La1  1  0.00000000  0.30257300  0.25688000  1
  Ga  Ga0  1  0.17491600  0.28323000  0.75808600  1
  Ga  Ga1  1  0.82508400  0.28323000  0.75808600  1
  Fe  Fe0  1  0.82422600  0.78252500  0.23982500  1
  Fe  Fe1  1  0.17577400  0.78252500  0.23982500  1
  Fe  Fe2  1  0.50000000  0.23168100  0.81343800  1
  Fe  Fe3  1  0.50000000  0.73149600  0.18596900  1
  O  O0  1  0.50000000  0.88170900  0.87322600  1
  O  O1  1  0.50000000  0.38204200  0.12662400  1
  O  O2  1  0.35637000  0.31678300  0.66984100  1
  O  O3  1  0.64363000  0.31678300  0.66984100  1
  O  O4  1  0.64305300  0.81808400  0.33074800  1
  O  O5  1  0.35694700  0.81808400  0.33074800  1
  O  O6  1  0.14648800  0.05621700  0.48240400  1
  O  O7  1  0.85351200  0.05621700  0.48240400  1
  O  O8  1  0.85331200  0.55319200  0.52176900  1
  O  O9  1  0.14668800  0.55319200  0.52176900  1
  O  O10  1  0.00000000  0.27549500  0.83018700  1
  O  O11  1  0.00000000  0.77560100  0.17295600  1
  O  O12  1  0.20142500  0.01093300  0.97215700  1
  O  O13  1  0.79857500  0.01093300  0.97215700  1
  O  O14  1  0.79862000  0.50787500  0.02343000  1
  O  O15  1  0.20138000  0.50787500  0.02343000  1
loop_
_geom_bond_atom_site_label_1
_geom_bond_atom_site_label_2
_geom_bond_distance
_geom_bond_site_symmetry_2
Ca0 O5 2.312593 1_555
Ca0 O12 2.351810 1_565
Ca0 O0 2.368566 1_555
Ca0 O9 2.483971 1_555
Ca0 O2 2.492002 1_555
Ca0 O15 2.499895 1_556
Ca0 O6 2.876333 1_565
Ca1 O4 2.312593 1_555
Ca1 O13 2.351810 1_565
Ca1 O0 2.368566 1_555
Ca1 O8 2.483971 1_555
Ca1 O3 2.492002 1_555
Ca1 O14 2.499895 1_556
Ca1 O7 2.876333 1_565
Ca2 O3 2.314159 1_555
Ca2 O14 2.357089 1_555
Ca2 O1 2.365753 1_555
Ca2 O4 2.483217 1_545
Ca2 O7 2.489944 1_555
Ca2 O13 2.510525 1_554
Ca2 O8 2.882693 1_555
Ca3 O2 2.314159 1_555
Ca3 O15 2.357089 1_555
Ca3 O1 2.365753 1_555
Ca3 O5 2.483217 1_545
Ca3 O6 2.489944 1_555
Ca3 O12 2.510525 1_554
Ca3 O9 2.882693 1_555
La0 O11 2.417117 1_556
La0 O9 2.501461 1_555
La0 O8 2.501461 1_455
La0 O6 2.620278 1_565
La0 O7 2.620278 1_465
La0 O10 2.654495 1_565
La0 O12 2.856824 1_565
La0 O13 2.856824 1_465
La0 O10 2.963172 1_555
La1 O10 2.406170 1_554
La1 O6 2.492951 1_555
La1 O7 2.492951 1_455
La1 O9 2.628691 1_555
La1 O8 2.628691 1_455
La1 O11 2.659129 1_555
La1 O14 2.865440 1_455
La1 O15 2.865440 1_555
La1 O11 2.954768 1_545
Ga0 O12 1.950994 1_555
Ga0 O15 1.967356 1_556
Ga0 O10 2.021995 1_555
Ga0 O6 2.023481 1_555
Ga0 O9 2.023973 1_555
Ga0 O2 2.121683 1_555
Ga1 O13 1.950994 1_555
Ga1 O14 1.967356 1_556
Ga1 O10 2.021995 1_655
Ga1 O7 2.023481 1_555
Ga1 O8 2.023973 1_555
Ga1 O3 2.121683 1_555
Fe0 O14 1.970397 1_555
Fe0 O13 1.986248 1_564
Fe0 O11 2.025769 1_655
Fe0 O8 2.056797 1_555
Fe0 O7 2.067252 1_565
Fe0 O4 2.123322 1_555
Fe1 O15 1.970397 1_555
Fe1 O12 1.986248 1_564
Fe1 O11 2.025769 1_555
Fe1 O9 2.056797 1_555
Fe1 O6 2.067252 1_565
Fe1 O5 2.123322 1_555
Fe2 O2 1.875678 1_555
Fe2 O3 1.875678 1_555
Fe2 O1 1.950155 1_556
Fe2 O0 1.965127 1_545
Fe3 O4 1.875604 1_555
Fe3 O5 1.875604 1_555
Fe3 O0 1.945289 1_554
Fe3 O1 1.962871 1_555
