# generated using pymatgen
data_Ce2SnPd2
_symmetry_space_group_name_H-M   'P 1'
_cell_length_a   7.83790320
_cell_length_b   7.83790320
_cell_length_c   3.87405167
_cell_angle_alpha   90.00000000
_cell_angle_beta   90.00000000
_cell_angle_gamma   90.01700283
_symmetry_Int_Tables_number   1
_chemical_formula_structural   Ce2SnPd2
_chemical_formula_sum   'Ce4 Sn2 Pd4'
_cell_volume   237.99354627
_cell_formula_units_Z   2
loop_
 _symmetry_equiv_pos_site_id
 _symmetry_equiv_pos_as_xyz
  1  'x, y, z'
loop_
 _atom_site_type_symbol
 _atom_site_label
 _atom_site_symmetry_multiplicity
 _atom_site_fract_x
 _atom_site_fract_y
 _atom_site_fract_z
 _atom_site_occupancy
  Ce  Ce0  1  0.67990407  0.17990407  0.50000000  1
  Ce  Ce1  1  0.32009593  0.82009593  0.50000000  1
  Ce  Ce2  1  0.17988139  0.32011861  0.50000000  1
  Ce  Ce3  1  0.82011861  0.67988139  0.50000000  1
  Sn  Sn0  1  -0.00000000  0.00000000  -0.00000000  1
  Sn  Sn1  1  0.50000000  0.50000000  -0.00000000  1
  Pd  Pd0  1  0.12563556  0.62563556  0.00000000  1
  Pd  Pd1  1  0.87436444  0.37436444  -0.00000000  1
  Pd  Pd2  1  0.62564216  0.87435784  -0.00000000  1
  Pd  Pd3  1  0.37435784  0.12564216  -0.00000000  1
loop_
_geom_bond_atom_site_label_1
_geom_bond_atom_site_label_2
_geom_bond_distance
_geom_bond_site_symmetry_2
Ce0 Pd1 2.897728 1_556
Ce0 Pd1 2.897728 1_555
Ce0 Pd2 3.109278 1_546
Ce0 Pd2 3.109278 1_545
Ce0 Pd3 3.109278 1_556
Ce0 Pd3 3.109278 1_555
Ce0 Sn1 3.469431 1_556
Ce0 Sn0 3.469431 1_655
Ce0 Sn1 3.469431 1_555
Ce0 Sn0 3.469431 1_656
Ce1 Pd0 2.897728 1_555
Ce1 Pd0 2.897728 1_556
Ce1 Pd3 3.109278 1_566
Ce1 Pd3 3.109278 1_565
Ce1 Pd2 3.109278 1_556
Ce1 Pd2 3.109278 1_555
Ce1 Sn0 3.469431 1_565
Ce1 Sn1 3.469431 1_556
Ce1 Sn0 3.469431 1_566
Ce1 Sn1 3.469431 1_555
Ce2 Pd3 2.898336 1_556
Ce2 Pd3 2.898336 1_555
Ce2 Pd0 3.109279 1_555
Ce2 Pd0 3.109279 1_556
Ce2 Pd1 3.109279 1_456
Ce2 Pd1 3.109279 1_455
Ce2 Sn1 3.468882 1_555
Ce2 Sn1 3.468882 1_556
Ce2 Sn0 3.468882 1_555
Ce2 Sn0 3.468882 1_556
Ce3 Pd2 2.898336 1_556
Ce3 Pd2 2.898336 1_555
Ce3 Pd1 3.109279 1_555
Ce3 Pd1 3.109279 1_556
Ce3 Pd0 3.109279 1_655
Ce3 Pd0 3.109279 1_656
Ce3 Sn0 3.468882 1_665
Ce3 Sn1 3.468882 1_556
Ce3 Sn0 3.468882 1_666
Ce3 Sn1 3.468882 1_555
Pd0 Pd1 2.784794 1_455
Pd0 Sn1 3.095336 1_555
Pd0 Sn0 3.095336 1_565
Pd1 Sn0 3.095336 1_655
Pd1 Sn1 3.095336 1_555
Pd2 Pd3 2.785767 1_565
Pd2 Sn0 3.094749 1_665
Pd2 Sn1 3.094749 1_555
Pd3 Sn0 3.094749 1_555
Pd3 Sn1 3.094749 1_555
