# generated using pymatgen
data_Li9Mn2Co5O16
_symmetry_space_group_name_H-M   'P 1'
_cell_length_a   5.79225200
_cell_length_b   6.59754238
_cell_length_c   7.73569484
_cell_angle_alpha   89.50349665
_cell_angle_beta   101.35141418
_cell_angle_gamma   102.58594682
_symmetry_Int_Tables_number   1
_chemical_formula_structural   Li9Mn2Co5O16
_chemical_formula_sum   'Li9 Mn2 Co5 O16'
_cell_volume   282.68835184
_cell_formula_units_Z   1
loop_
 _symmetry_equiv_pos_site_id
 _symmetry_equiv_pos_as_xyz
  1  'x, y, z'
loop_
 _atom_site_type_symbol
 _atom_site_label
 _atom_site_symmetry_multiplicity
 _atom_site_fract_x
 _atom_site_fract_y
 _atom_site_fract_z
 _atom_site_occupancy
  Li  Li0  1  0.37225700  0.37608100  0.12667600  1
  Li  Li1  1  0.61345100  0.11542000  0.37653700  1
  Li  Li2  1  0.62246600  0.63210400  0.87404200  1
  Li  Li3  1  0.88031300  0.38154300  0.12663800  1
  Li  Li4  1  0.87303100  0.87309500  0.61952500  1
  Li  Li5  1  0.13332500  0.62803100  0.88056500  1
  Li  Li6  1  0.13293700  0.12008300  0.38113100  1
  Li  Li7  1  0.37216200  0.87100200  0.61539800  1
  Li  Li8  1  0.25299900  0.75546600  0.24985400  1
  Mn  Mn0  1  0.00561300  0.99594400  0.00418200  1
  Mn  Mn1  1  0.74712500  0.75193200  0.24826300  1
  Co  Co0  1  0.49530800  0.50854900  0.49403600  1
  Co  Co1  1  0.74384800  0.24655400  0.74578700  1
  Co  Co2  1  0.49812100  0.99602200  0.00192600  1
  Co  Co3  1  0.00708400  0.51010000  0.49596500  1
  Co  Co4  1  0.24967800  0.25196600  0.74962100  1
  O  O0  1  0.30640700  0.05866100  0.16605400  1
  O  O1  1  0.57371300  0.80442500  0.42719000  1
  O  O2  1  0.54890100  0.28496800  0.92890300  1
  O  O3  1  0.80577200  0.04438400  0.17406100  1
  O  O4  1  0.80630500  0.54707200  0.67391400  1
  O  O5  1  0.04987500  0.28983200  0.93556300  1
  O  O6  1  0.04263500  0.80405300  0.42827200  1
  O  O7  1  0.31224700  0.55289400  0.68617600  1
  O  O8  1  0.45686600  0.70897700  0.06970600  1
  O  O9  1  0.69269500  0.46449000  0.30595200  1
  O  O10  1  0.69606200  0.94750700  0.83142500  1
  O  O11  1  0.93214700  0.71083800  0.06835300  1
  O  O12  1  0.94885900  0.19609300  0.57711000  1
  O  O13  1  0.19139900  0.94252300  0.83431600  1
  O  O14  1  0.19060900  0.43615500  0.33144700  1
  O  O15  1  0.44579000  0.19323600  0.57141500  1
loop_
_geom_bond_atom_site_label_1
_geom_bond_atom_site_label_2
_geom_bond_distance
_geom_bond_site_symmetry_2
Li0 O9 2.058492 1_555
Li0 O0 2.076171 1_555
Li0 O5 2.112130 1_554
Li0 O14 2.149886 1_555
Li0 O2 2.156162 1_554
Li0 O8 2.203921 1_555
Li1 O1 2.057222 1_545
Li1 O15 2.070335 1_555
Li1 O0 2.129494 1_555
Li1 O3 2.200215 1_555
Li1 O12 2.200472 1_555
Li1 O9 2.329986 1_555
Li2 O7 2.046901 1_555
Li2 O8 2.065210 1_556
Li2 O10 2.068171 1_555
Li2 O11 2.071920 1_556
Li2 O4 2.183953 1_555
Li2 O2 2.288216 1_555
Li3 O9 2.066469 1_555
Li3 O5 2.088407 1_654
Li3 O14 2.115895 1_655
Li3 O2 2.181428 1_554
Li3 O11 2.182979 1_555
Li3 O3 2.213300 1_555
Li4 O1 2.019574 1_555
Li4 O6 2.034763 1_655
Li4 O12 2.116225 1_565
Li4 O4 2.153837 1_555
Li4 O13 2.193190 1_655
Li4 O10 2.207577 1_555
Li5 O13 2.067992 1_555
Li5 O7 2.105061 1_555
Li5 O8 2.106173 1_556
Li5 O11 2.173508 1_456
Li5 O4 2.193307 1_455
Li5 O5 2.233325 1_555
Li6 O15 2.065085 1_555
Li6 O6 2.083388 1_545
Li6 O14 2.083470 1_555
Li6 O12 2.137566 1_455
Li6 O0 2.188411 1_555
Li6 O3 2.193825 1_455
Li7 O15 2.113473 1_565
Li7 O6 2.118885 1_555
Li7 O7 2.135966 1_555
Li7 O1 2.139904 1_555
Li7 O10 2.221473 1_555
Li7 O13 2.261405 1_555
Li8 O1 2.044532 1_555
Li8 O8 2.059989 1_555
Li8 O11 2.062375 1_455
Li8 O0 2.074628 1_565
Li8 O6 2.081412 1_555
Li8 O14 2.168408 1_555
Mn0 O0 1.900185 1_565
Mn0 O11 1.919321 1_455
Mn0 O13 1.933622 1_554
Mn0 O10 1.979231 1_454
Mn0 O5 1.981432 1_564
Mn0 O3 1.983999 1_465
Mn1 O9 1.917049 1_555
Mn1 O8 1.923484 1_555
Mn1 O1 1.936969 1_555
Mn1 O6 1.949517 1_655
Mn1 O11 1.969580 1_555
Mn1 O3 1.984850 1_565
Co0 O14 1.922006 1_555
Co0 O1 1.993177 1_555
Co0 O4 2.016344 1_555
Co0 O7 2.045052 1_555
Co0 O9 2.077396 1_555
Co0 O15 2.134044 1_555
Co1 O15 1.936654 1_555
Co1 O12 2.003319 1_555
Co1 O2 2.026434 1_555
Co1 O4 2.029409 1_555
Co1 O5 2.034961 1_655
Co1 O10 2.054177 1_545
Co2 O8 1.937358 1_555
Co2 O0 1.944219 1_565
Co2 O13 1.946769 1_554
Co2 O2 1.960126 1_564
Co2 O3 1.968731 1_565
Co2 O10 1.979674 1_554
Co3 O14 1.938303 1_555
Co3 O6 1.982061 1_555
Co3 O4 2.016565 1_455
Co3 O7 2.033469 1_555
Co3 O9 2.069394 1_455
Co3 O12 2.134457 1_455
Co4 O12 1.940631 1_455
Co4 O2 1.967046 1_555
Co4 O7 2.013338 1_555
Co4 O15 2.039209 1_555
Co4 O5 2.063558 1_555
Co4 O13 2.115354 1_545
