# generated using pymatgen
data_Nb2(VSi)3
_symmetry_space_group_name_H-M   'P 1'
_cell_length_a   5.22849400
_cell_length_b   7.32441620
_cell_length_c   7.32441617
_cell_angle_alpha   60.02654508
_cell_angle_beta   90.00000000
_cell_angle_gamma   90.00000000
_symmetry_Int_Tables_number   1
_chemical_formula_structural   Nb2(VSi)3
_chemical_formula_sum   'Nb4 V6 Si6'
_cell_volume   242.97935693
_cell_formula_units_Z   2
loop_
 _symmetry_equiv_pos_site_id
 _symmetry_equiv_pos_as_xyz
  1  'x, y, z'
loop_
 _atom_site_type_symbol
 _atom_site_label
 _atom_site_symmetry_multiplicity
 _atom_site_fract_x
 _atom_site_fract_y
 _atom_site_fract_z
 _atom_site_occupancy
  Nb  Nb0  1  0.50000000  0.33332900  0.33333300  1
  Nb  Nb1  1  0.50000000  0.66666700  0.66667100  1
  Nb  Nb2  1  0.00000000  0.66667100  0.66666700  1
  Nb  Nb3  1  0.00000000  0.33333300  0.33332900  1
  V  V0  1  0.74999800  0.25773100  0.74226900  1
  V  V1  1  0.75000100  0.74247200  0.00016100  1
  V  V2  1  0.75000100  0.99983900  0.25752800  1
  V  V3  1  0.24999800  0.74226900  0.25773100  1
  V  V4  1  0.25000100  0.25752800  0.99983900  1
  V  V5  1  0.25000100  0.00016100  0.74247200  1
  Si  Si0  1  0.75000300  0.62007500  0.37992500  1
  Si  Si1  1  0.74999800  0.37982100  0.99995000  1
  Si  Si2  1  0.74999800  0.00005000  0.62017900  1
  Si  Si3  1  0.25000300  0.37992500  0.62007500  1
  Si  Si4  1  0.24999800  0.62017900  0.00005000  1
  Si  Si5  1  0.24999800  0.99995000  0.37982100  1
loop_
_geom_bond_atom_site_label_1
_geom_bond_atom_site_label_2
_geom_bond_distance
_geom_bond_site_symmetry_2
Nb0 Si3 2.636689 1_555
Nb0 Si0 2.636714 1_555
Nb0 Si5 2.637460 1_545
Nb0 Si1 2.637465 1_554
Nb0 Si2 2.637607 1_555
Nb0 Si4 2.637643 1_555
Nb1 Si3 2.636689 1_555
Nb1 Si0 2.636714 1_555
Nb1 Si4 2.637460 1_556
Nb1 Si2 2.637465 1_565
Nb1 Si1 2.637607 1_555
Nb1 Si5 2.637643 1_555
Nb2 Si0 2.636689 1_455
Nb2 Si3 2.636714 1_555
Nb2 Si2 2.637460 1_465
Nb2 Si4 2.637465 1_556
Nb2 Si5 2.637607 1_555
Nb2 Si1 2.637643 1_455
Nb3 Si0 2.636689 1_455
Nb3 Si3 2.636714 1_555
Nb3 Si1 2.637460 1_454
Nb3 Si5 2.637465 1_545
Nb3 Si4 2.637607 1_555
Nb3 Si2 2.637643 1_455
Si0 V1 2.459489 1_555
Si0 V2 2.459489 1_555
Si0 V0 2.655023 1_555
Si0 V3 2.763298 1_655
Si0 V3 2.763348 1_555
Si1 V0 2.459308 1_555
Si1 V2 2.461443 1_546
Si1 V1 2.656979 1_556
Si1 V4 2.763559 1_555
Si1 V4 2.763588 1_655
Si2 V0 2.459308 1_555
Si2 V1 2.461443 1_546
Si2 V2 2.656979 1_545
Si2 V5 2.763559 1_555
Si2 V5 2.763588 1_655
Si3 V4 2.459489 1_555
Si3 V5 2.459489 1_555
Si3 V3 2.655023 1_555
Si3 V0 2.763298 1_555
Si3 V0 2.763348 1_455
Si4 V3 2.459308 1_555
Si4 V5 2.461443 1_564
Si4 V4 2.656979 1_554
Si4 V1 2.763559 1_455
Si4 V1 2.763588 1_555
Si5 V3 2.459308 1_555
Si5 V4 2.461443 1_564
Si5 V5 2.656979 1_565
Si5 V2 2.763559 1_455
Si5 V2 2.763588 1_555
