# generated using pymatgen
data_Mg2Ta2CoO8
_symmetry_space_group_name_H-M   'P 1'
_cell_length_a   5.20632855
_cell_length_b   12.01404154
_cell_length_c   10.00243903
_cell_angle_alpha   107.46428102
_cell_angle_beta   90.28610630
_cell_angle_gamma   90.00580093
_symmetry_Int_Tables_number   1
_chemical_formula_structural   Mg2Ta2CoO8
_chemical_formula_sum   'Mg8 Ta8 Co4 O32'
_cell_volume   596.79525628
_cell_formula_units_Z   4
loop_
 _symmetry_equiv_pos_site_id
 _symmetry_equiv_pos_as_xyz
  1  'x, y, z'
loop_
 _atom_site_type_symbol
 _atom_site_label
 _atom_site_symmetry_multiplicity
 _atom_site_fract_x
 _atom_site_fract_y
 _atom_site_fract_z
 _atom_site_occupancy
  Mg  Mg0  1  0.75624100  0.20824400  0.54596900  1
  Mg  Mg1  1  0.75619900  0.70820500  0.54593500  1
  Mg  Mg2  1  0.74542900  0.43547100  0.45536800  1
  Mg  Mg3  1  0.74546600  0.93544400  0.45534400  1
  Mg  Mg4  1  0.24552400  0.29225700  0.45505400  1
  Mg  Mg5  1  0.24548800  0.79221300  0.45501000  1
  Mg  Mg6  1  0.25625400  0.06505000  0.54583200  1
  Mg  Mg7  1  0.25627800  0.56501700  0.54580600  1
  Ta  Ta0  1  0.74350400  0.13979600  0.23160400  1
  Ta  Ta1  1  0.74341700  0.63975100  0.23156300  1
  Ta  Ta2  1  0.75851900  0.02444500  0.76952100  1
  Ta  Ta3  1  0.75857100  0.52444700  0.76956500  1
  Ta  Ta4  1  0.25853600  0.36075500  0.76942400  1
  Ta  Ta5  1  0.25842000  0.86076200  0.76935200  1
  Ta  Ta6  1  0.24337300  0.47611600  0.23154800  1
  Ta  Ta7  1  0.24344200  0.97618400  0.23162200  1
  Co  Co0  1  0.75097900  0.82202500  0.00056900  1
  Co  Co1  1  0.25113100  0.17858400  0.00048100  1
  Co  Co2  1  0.75105000  0.32179800  0.00061800  1
  Co  Co3  1  0.25106600  0.67889200  0.00043400  1
  O  O0  1  0.07941500  0.09193500  0.14256500  1
  O  O1  1  0.07934400  0.59180200  0.14258100  1
  O  O2  1  0.42251100  0.02102400  0.85849600  1
  O  O3  1  0.42257400  0.52091300  0.85839400  1
  O  O4  1  0.92258400  0.40875600  0.85852800  1
  O  O5  1  0.92249600  0.90867800  0.85851200  1
  O  O6  1  0.57932700  0.47962300  0.14262900  1
  O  O7  1  0.57940000  0.97958100  0.14255200  1
  O  O8  1  0.58835500  0.21574800  0.11673700  1
  O  O9  1  0.58802900  0.71560800  0.11658000  1
  O  O10  1  0.91397900  0.15774700  0.88418400  1
  O  O11  1  0.91404900  0.65784200  0.88445000  1
  O  O12  1  0.41404300  0.28494300  0.88440900  1
  O  O13  1  0.41370000  0.78489800  0.88429600  1
  O  O14  1  0.08806400  0.34271400  0.11662900  1
  O  O15  1  0.08815900  0.84288100  0.11684200  1
  O  O16  1  0.45544600  0.14473200  0.37260200  1
  O  O17  1  0.45541100  0.64474800  0.37262900  1
  O  O18  1  0.04630700  0.45886300  0.62847100  1
  O  O19  1  0.04632300  0.95882900  0.62842800  1
  O  O20  1  0.95548600  0.04168300  0.37265000  1
  O  O21  1  0.95547300  0.54164500  0.37262000  1
  O  O22  1  0.54645300  0.35576800  0.62836200  1
  O  O23  1  0.54638300  0.85579400  0.62839500  1
  O  O24  1  0.38005100  0.41863500  0.38254900  1
  O  O25  1  0.38014300  0.91865600  0.38254100  1
  O  O26  1  0.12183000  0.22772200  0.61846000  1
  O  O27  1  0.12176400  0.72775000  0.61850400  1
  O  O28  1  0.62169000  0.08187900  0.61853800  1
  O  O29  1  0.62176600  0.58190500  0.61855500  1
  O  O30  1  0.88003600  0.27276300  0.38254800  1
  O  O31  1  0.87997500  0.77278600  0.38257800  1
loop_
_geom_bond_atom_site_label_1
_geom_bond_atom_site_label_2
_geom_bond_distance
_geom_bond_site_symmetry_2
Mg0 O28 1.997171 1_555
Mg0 O26 2.021790 1_655
Mg0 O22 2.036190 1_555
Mg0 O30 2.111660 1_555
Mg0 O16 2.284779 1_555
Mg0 O20 2.453960 1_555
Mg1 O29 1.996579 1_555
Mg1 O27 2.021929 1_655
Mg1 O23 2.036951 1_555
Mg1 O31 2.111509 1_555
Mg1 O17 2.284284 1_555
Mg1 O21 2.453999 1_555
Mg2 O30 1.998400 1_555
Mg2 O24 2.021818 1_555
Mg2 O21 2.037274 1_555
Mg2 O29 2.112098 1_555
Mg2 O18 2.282869 1_655
Mg2 O22 2.448764 1_555
Mg3 O31 1.997659 1_555
Mg3 O25 2.021502 1_555
Mg3 O20 2.037468 1_565
Mg3 O28 2.112324 1_565
Mg3 O19 2.282667 1_655
Mg3 O23 2.449089 1_555
Mg4 O24 1.996883 1_555
Mg4 O30 2.021346 1_455
Mg4 O16 2.036661 1_555
Mg4 O26 2.111480 1_555
Mg4 O22 2.284866 1_555
Mg4 O18 2.454679 1_555
Mg5 O25 1.997584 1_555
Mg5 O31 2.021225 1_455
Mg5 O17 2.036020 1_555
Mg5 O27 2.111789 1_555
Mg5 O23 2.285340 1_555
Mg5 O19 2.454641 1_555
Mg6 O26 1.997549 1_555
Mg6 O28 2.021735 1_555
Mg6 O19 2.036472 1_545
Mg6 O25 2.112719 1_545
Mg6 O20 2.283078 1_455
Mg6 O16 2.451042 1_555
Mg7 O27 1.998402 1_555
Mg7 O29 2.022123 1_555
Mg7 O18 2.036394 1_555
Mg7 O24 2.112267 1_555
Mg7 O21 2.283231 1_455
Mg7 O17 2.450828 1_555
Co0 O15 2.074046 1_655
Co0 O13 2.074396 1_554
Co0 O11 2.143747 1_554
Co0 O9 2.144967 1_555
Co0 O7 2.190289 1_555
Co0 O5 2.191018 1_554
Co1 O10 2.074059 1_454
Co1 O8 2.074091 1_555
Co1 O14 2.143336 1_555
Co1 O12 2.144800 1_554
Co1 O2 2.189904 1_554
Co1 O0 2.191625 1_555
Co2 O14 2.071921 1_655
Co2 O12 2.072736 1_554
Co2 O8 2.141876 1_555
Co2 O10 2.143099 1_554
Co2 O6 2.192872 1_555
Co2 O4 2.193772 1_554
Co3 O11 2.071719 1_454
Co3 O9 2.072157 1_555
Co3 O13 2.141487 1_554
Co3 O15 2.142420 1_555
Co3 O3 2.193766 1_554
Co3 O1 2.195689 1_555
O0 Ta0 1.972490 1_455
O0 Ta7 2.047640 1_545
O1 Ta1 1.972519 1_455
O1 Ta6 2.046439 1_555
O2 Ta2 1.972690 1_555
O2 Ta5 2.047840 1_545
O3 Ta3 1.972178 1_555
O3 Ta4 2.046451 1_555
O4 Ta4 1.973182 1_655
O4 Ta3 2.046427 1_555
O5 Ta5 1.973099 1_655
O5 Ta2 2.047267 1_565
O6 Ta6 1.972343 1_555
O6 Ta1 2.046217 1_555
O7 Ta7 1.972853 1_555
O7 Ta0 2.047272 1_565
O8 Ta0 1.850771 1_555
O9 Ta1 1.851425 1_555
O10 Ta2 1.850210 1_555
O11 Ta3 1.851805 1_555
O12 Ta4 1.851343 1_555
O13 Ta5 1.850939 1_555
O14 Ta6 1.851602 1_555
O15 Ta7 1.850237 1_555
O16 Ta0 2.052473 1_555
O16 Ta7 2.361627 1_545
O17 Ta1 2.052609 1_555
O17 Ta6 2.362735 1_555
O18 Ta3 2.051978 1_455
O18 Ta4 2.362210 1_555
O19 Ta2 2.052300 1_465
O19 Ta5 2.361341 1_555
O20 Ta7 2.052257 1_645
O20 Ta0 2.362346 1_555
O21 Ta6 2.052360 1_655
O21 Ta1 2.362550 1_555
O22 Ta4 2.052263 1_555
O22 Ta3 2.363723 1_555
O23 Ta5 2.051762 1_555
O23 Ta2 2.363278 1_565
O24 Ta6 1.969752 1_555
O25 Ta7 1.969409 1_555
O26 Ta4 1.970179 1_555
O27 Ta5 1.969335 1_555
O28 Ta2 1.969549 1_555
O29 Ta3 1.969906 1_555
O30 Ta0 1.969290 1_555
O31 Ta1 1.970184 1_555
