# generated using pymatgen
data_EuCr3
_symmetry_space_group_name_H-M   'P 1'
_cell_length_a   4.93685974
_cell_length_b   4.93685974
_cell_length_c   4.93685974
_cell_angle_alpha   60.00000000
_cell_angle_beta   60.00000000
_cell_angle_gamma   60.00000000
_symmetry_Int_Tables_number   1
_chemical_formula_structural   EuCr3
_chemical_formula_sum   'Eu1 Cr3'
_cell_volume   85.08193697
_cell_formula_units_Z   1
loop_
 _symmetry_equiv_pos_site_id
 _symmetry_equiv_pos_as_xyz
  1  'x, y, z'
loop_
 _atom_site_type_symbol
 _atom_site_label
 _atom_site_symmetry_multiplicity
 _atom_site_fract_x
 _atom_site_fract_y
 _atom_site_fract_z
 _atom_site_occupancy
  Eu  Eu0  1  0.00000000  0.00000000  0.00000000  1
  Cr  Cr0  1  0.25000000  0.25000000  0.25000000  1
  Cr  Cr1  1  0.75000000  0.75000000  0.75000000  1
  Cr  Cr2  1  0.50000000  0.50000000  0.50000000  1
loop_
_geom_bond_atom_site_label_1
_geom_bond_atom_site_label_2
_geom_bond_distance
_geom_bond_site_symmetry_2
Cr0 Eu0 3.023197 1_655
Cr0 Cr2 3.023197 1_555
Cr0 Eu0 3.023197 1_565
Cr0 Cr2 3.023197 1_545
Cr0 Eu0 3.023197 1_555
Cr0 Cr2 3.023197 1_455
Cr0 Cr2 3.023197 1_554
Cr0 Eu0 3.023197 1_556
Cr1 Cr2 3.023197 1_556
Cr1 Cr2 3.023197 1_565
Cr1 Eu0 3.023197 1_666
Cr1 Cr2 3.023197 1_655
Cr1 Cr2 3.023197 1_555
Cr1 Eu0 3.023197 1_656
Cr1 Eu0 3.023197 1_665
Cr1 Eu0 3.023197 1_566
