# generated using pymatgen
data_RbCe3Te8
_symmetry_space_group_name_H-M   'P 1'
_cell_length_a   9.13438394
_cell_length_b   13.08134793
_cell_length_c   14.17554959
_cell_angle_alpha   90.00000000
_cell_angle_beta   99.34220846
_cell_angle_gamma   90.00000000
_symmetry_Int_Tables_number   1
_chemical_formula_structural   RbCe3Te8
_chemical_formula_sum   'Rb4 Ce12 Te32'
_cell_volume   1671.37081144
_cell_formula_units_Z   4
loop_
 _symmetry_equiv_pos_site_id
 _symmetry_equiv_pos_as_xyz
  1  'x, y, z'
loop_
 _atom_site_type_symbol
 _atom_site_label
 _atom_site_symmetry_multiplicity
 _atom_site_fract_x
 _atom_site_fract_y
 _atom_site_fract_z
 _atom_site_occupancy
  Rb  Rb0  1  0.74335724  0.59164022  0.96339373  1
  Rb  Rb1  1  0.25664276  0.40835978  0.03660627  1
  Rb  Rb2  1  0.75664276  0.09164022  0.03660627  1
  Rb  Rb3  1  0.24335724  0.90835978  0.96339373  1
  Ce  Ce0  1  0.90318493  0.91552740  0.64720478  1
  Ce  Ce1  1  0.09681507  0.08447260  0.35279522  1
  Ce  Ce2  1  0.59681507  0.41552740  0.35279522  1
  Ce  Ce3  1  0.40318493  0.58447260  0.64720478  1
  Ce  Ce4  1  0.92036238  0.58530153  0.64858659  1
  Ce  Ce5  1  0.07963762  0.41469847  0.35141341  1
  Ce  Ce6  1  0.57963762  0.08530153  0.35141341  1
  Ce  Ce7  1  0.42036238  0.91469847  0.64858659  1
  Ce  Ce8  1  0.58483393  0.74922302  0.34226155  1
  Ce  Ce9  1  0.41516607  0.25077698  0.65773845  1
  Ce  Ce10  1  0.91516607  0.24922302  0.65773845  1
  Ce  Ce11  1  0.08483393  0.75077698  0.34226155  1
  Te  Te0  1  0.70731229  0.26967265  0.82915350  1
  Te  Te1  1  0.29268771  0.73032735  0.17084650  1
  Te  Te2  1  0.79268771  0.76967265  0.17084650  1
  Te  Te3  1  0.20731229  0.23032735  0.82915350  1
  Te  Te4  1  0.70615721  0.90816836  0.82306402  1
  Te  Te5  1  0.29384279  0.09183164  0.17693598  1
  Te  Te6  1  0.79384279  0.40816836  0.17693598  1
  Te  Te7  1  0.20615721  0.59183164  0.82306402  1
  Te  Te8  1  0.95545605  0.75071428  0.81970237  1
  Te  Te9  1  0.04454395  0.24928572  0.18029763  1
  Te  Te10  1  0.54454395  0.25071428  0.18029763  1
  Te  Te11  1  0.45545605  0.74928572  0.81970237  1
  Te  Te12  1  0.64482608  0.74459022  0.58252746  1
  Te  Te13  1  0.35517392  0.25540978  0.41747254  1
  Te  Te14  1  0.85517392  0.24459022  0.41747254  1
  Te  Te15  1  0.14482608  0.75540978  0.58252746  1
  Te  Te16  1  0.85115935  0.92250456  0.41080300  1
  Te  Te17  1  0.14884065  0.07749544  0.58919700  1
  Te  Te18  1  0.64884065  0.42250456  0.58919700  1
  Te  Te19  1  0.35115935  0.57749544  0.41080300  1
  Te  Te20  1  0.46343269  0.42534981  0.82449927  1
  Te  Te21  1  0.53656731  0.57465019  0.17550073  1
  Te  Te22  1  0.03656731  0.92534981  0.17550073  1
  Te  Te23  1  0.96343269  0.07465019  0.82449927  1
  Te  Te24  1  0.94932569  0.42469880  0.82361311  1
  Te  Te25  1  0.05067431  0.57530120  0.17638689  1
  Te  Te26  1  0.55067431  0.92469880  0.17638689  1
  Te  Te27  1  0.44932569  0.07530120  0.82361311  1
  Te  Te28  1  0.85406714  0.58526381  0.41233864  1
  Te  Te29  1  0.14593286  0.41473619  0.58766136  1
  Te  Te30  1  0.64593286  0.08526381  0.58766136  1
  Te  Te31  1  0.35406714  0.91473619  0.41233864  1
loop_
_geom_bond_atom_site_label_1
_geom_bond_atom_site_label_2
_geom_bond_distance
_geom_bond_site_symmetry_2
Rb0 Te24 3.666775 1_555
Rb0 Te20 3.675867 1_555
Rb0 Te8 3.676116 1_555
Rb0 Te11 3.684896 1_555
Rb0 Te2 3.720843 1_556
Rb0 Te25 3.780241 1_656
Rb0 Te21 3.808105 1_556
Rb0 Te6 3.831833 1_556
Rb1 Te25 3.666775 1_555
Rb1 Te21 3.675867 1_555
Rb1 Te9 3.676116 1_555
Rb1 Te10 3.684896 1_555
Rb1 Te3 3.720843 1_554
Rb1 Te24 3.780241 1_454
Rb1 Te20 3.808105 1_554
Rb1 Te7 3.831833 1_554
Rb2 Te26 3.666775 1_545
Rb2 Te22 3.675867 1_645
Rb2 Te10 3.676116 1_555
Rb2 Te9 3.684896 1_655
Rb2 Te0 3.720843 1_554
Rb2 Te27 3.780241 1_554
Rb2 Te23 3.808105 1_554
Rb2 Te4 3.831833 1_544
Rb3 Te27 3.666775 1_565
Rb3 Te23 3.675867 1_465
Rb3 Te11 3.676116 1_555
Rb3 Te8 3.684896 1_455
Rb3 Te1 3.720843 1_556
Rb3 Te26 3.780241 1_556
Rb3 Te22 3.808105 1_556
Rb3 Te5 3.831833 1_566
Ce0 Te8 3.236727 1_555
Ce0 Te23 3.240839 1_565
Ce0 Te30 3.243507 1_565
Ce0 Te12 3.272243 1_555
Ce0 Te15 3.279738 1_655
Ce0 Te17 3.286261 1_665
Ce0 Te4 3.304459 1_555
Ce0 Te16 3.308651 1_555
Ce1 Te9 3.236727 1_555
Ce1 Te22 3.240839 1_545
Ce1 Te31 3.243507 1_545
Ce1 Te13 3.272243 1_555
Ce1 Te14 3.279738 1_455
Ce1 Te16 3.286261 1_445
Ce1 Te5 3.304459 1_555
Ce1 Te17 3.308651 1_555
Ce2 Te10 3.236727 1_555
Ce2 Te21 3.240839 1_555
Ce2 Te28 3.243507 1_555
Ce2 Te14 3.272243 1_555
Ce2 Te13 3.279738 1_555
Ce2 Te19 3.286261 1_555
Ce2 Te6 3.304459 1_555
Ce2 Te18 3.308651 1_555
Ce3 Te11 3.236727 1_555
Ce3 Te20 3.240839 1_555
Ce3 Te29 3.243507 1_555
Ce3 Te15 3.272243 1_555
Ce3 Te12 3.279738 1_555
Ce3 Te18 3.286261 1_555
Ce3 Te7 3.304459 1_555
Ce3 Te19 3.308651 1_555
Ce4 Te8 3.227424 1_555
Ce4 Te24 3.229010 1_555
Ce4 Te29 3.247681 1_655
Ce4 Te15 3.264328 1_655
Ce4 Te18 3.273742 1_555
Ce4 Te12 3.284527 1_555
Ce4 Te7 3.292924 1_655
Ce4 Te28 3.305106 1_555
Ce5 Te9 3.227424 1_555
Ce5 Te25 3.229010 1_555
Ce5 Te28 3.247681 1_455
Ce5 Te14 3.264328 1_455
Ce5 Te19 3.273742 1_555
Ce5 Te13 3.284527 1_555
Ce5 Te6 3.292924 1_455
Ce5 Te29 3.305106 1_555
Ce6 Te10 3.227424 1_555
Ce6 Te26 3.229010 1_545
Ce6 Te31 3.247681 1_545
Ce6 Te13 3.264328 1_555
Ce6 Te16 3.273742 1_545
Ce6 Te14 3.284527 1_555
Ce6 Te5 3.292924 1_555
Ce6 Te30 3.305106 1_555
Ce7 Te11 3.227424 1_555
Ce7 Te27 3.229010 1_565
Ce7 Te30 3.247681 1_565
Ce7 Te12 3.264328 1_555
Ce7 Te17 3.273742 1_565
Ce7 Te15 3.284527 1_555
Ce7 Te4 3.292924 1_555
Ce7 Te31 3.305106 1_555
Ce8 Te26 3.264538 1_555
Ce8 Te21 3.264844 1_555
Ce8 Te31 3.285992 1_555
Ce8 Te28 3.292706 1_555
Ce8 Te1 3.313849 1_555
Ce8 Te2 3.328444 1_555
Ce8 Te19 3.349591 1_555
Ce8 Te16 3.351559 1_555
Ce8 Te12 3.361277 1_555
Ce9 Te27 3.264538 1_555
Ce9 Te20 3.264844 1_555
Ce9 Te30 3.285992 1_555
Ce9 Te29 3.292706 1_555
Ce9 Te0 3.313849 1_555
Ce9 Te3 3.328444 1_555
Ce9 Te18 3.349591 1_555
Ce9 Te17 3.351559 1_555
Ce9 Te13 3.361277 1_555
Ce10 Te24 3.264538 1_555
Ce10 Te23 3.264844 1_555
Ce10 Te29 3.285992 1_655
Ce10 Te30 3.292706 1_555
Ce10 Te3 3.313849 1_655
Ce10 Te0 3.328444 1_555
Ce10 Te17 3.349591 1_655
Ce10 Te18 3.351559 1_555
Ce10 Te14 3.361277 1_555
Ce11 Te25 3.264538 1_555
Ce11 Te22 3.264844 1_555
Ce11 Te28 3.285992 1_455
Ce11 Te31 3.292706 1_555
Ce11 Te2 3.313849 1_455
Ce11 Te1 3.328444 1_555
Ce11 Te16 3.349591 1_455
Ce11 Te19 3.351559 1_555
Ce11 Te15 3.361277 1_555
Te0 Te24 3.010326 1_555
Te0 Te20 3.011052 1_555
Te0 Te27 3.458963 1_555
Te1 Te25 3.010326 1_555
Te1 Te21 3.011052 1_555
Te1 Te26 3.458963 1_555
Te2 Te26 3.010326 1_555
Te2 Te22 3.011052 1_655
Te2 Te25 3.458963 1_655
Te4 Te8 3.076608 1_555
Te5 Te9 3.076608 1_555
Te6 Te9 3.087181 1_655
Te7 Te8 3.087181 1_455
Te10 Te6 3.076608 1_555
Te10 Te5 3.087181 1_555
Te11 Te7 3.076608 1_555
Te11 Te4 3.087181 1_555
Te20 Te7 3.201637 1_555
Te21 Te6 3.201637 1_555
Te22 Te5 3.201637 1_565
Te23 Te3 3.011052 1_655
Te23 Te4 3.201637 1_545
Te24 Te7 3.207757 1_655
Te24 Te3 3.458963 1_655
Te25 Te6 3.207757 1_455
Te26 Te5 3.207757 1_565
Te27 Te3 3.010326 1_555
Te27 Te4 3.207757 1_545
