# generated using pymatgen
data_Ca2LaTaO6
_symmetry_space_group_name_H-M   'P 1'
_cell_length_a   5.66500872
_cell_length_b   5.91360324
_cell_length_c   8.17100685
_cell_angle_alpha   90.00000000
_cell_angle_beta   90.19029951
_cell_angle_gamma   90.00000000
_symmetry_Int_Tables_number   1
_chemical_formula_structural   Ca2LaTaO6
_chemical_formula_sum   'Ca4 La2 Ta2 O12'
_cell_volume   273.73223588
_cell_formula_units_Z   2
loop_
 _symmetry_equiv_pos_site_id
 _symmetry_equiv_pos_as_xyz
  1  'x, y, z'
loop_
 _atom_site_type_symbol
 _atom_site_label
 _atom_site_symmetry_multiplicity
 _atom_site_fract_x
 _atom_site_fract_y
 _atom_site_fract_z
 _atom_site_occupancy
  Ca  Ca0  1  0.51527081  0.94553325  0.24469900  1
  Ca  Ca1  1  0.01527081  0.55446675  0.74469900  1
  Ca  Ca2  1  0.99911728  0.99751780  0.49945543  1
  Ca  Ca3  1  0.49911728  0.50248220  0.99945543  1
  La  La0  1  0.48640247  0.05420548  0.75448420  1
  La  La1  1  0.98640247  0.44579452  0.25448420  1
  Ta  Ta0  1  0.49957051  0.50259344  0.50152842  1
  Ta  Ta1  1  0.99957051  0.99740656  0.00152842  1
  O  O0  1  0.82541222  0.71809969  0.06932399  1
  O  O1  1  0.32541222  0.78190031  0.56932399  1
  O  O2  1  0.17192855  0.27944443  0.93159780  1
  O  O3  1  0.67192855  0.22055557  0.43159780  1
  O  O4  1  0.38687355  0.55542232  0.27092616  1
  O  O5  1  0.88687355  0.94457768  0.77092616  1
  O  O6  1  0.61588694  0.45089955  0.72922671  1
  O  O7  1  0.11588694  0.04910045  0.22922671  1
  O  O8  1  0.78683996  0.67961220  0.44730877  1
  O  O9  1  0.28683996  0.82038780  0.94730877  1
  O  O10  1  0.21269772  0.32247105  0.55144953  1
  O  O11  1  0.71269772  0.17752895  0.05144953  1
loop_
_geom_bond_atom_site_label_1
_geom_bond_atom_site_label_2
_geom_bond_distance
_geom_bond_site_symmetry_2
Ca0 O7 2.346945 1_565
Ca0 O11 2.374484 1_565
Ca0 O3 2.399141 1_565
Ca0 O4 2.428601 1_555
Ca0 O0 2.639312 1_555
Ca0 O8 2.750194 1_555
Ca0 O9 2.847137 1_554
Ca0 O1 3.024558 1_555
Ca1 O6 2.346945 1_455
Ca1 O10 2.374484 1_555
Ca1 O2 2.399141 1_555
Ca1 O5 2.428601 1_455
Ca1 O1 2.639312 1_555
Ca1 O9 2.750194 1_555
Ca1 O8 2.847137 1_455
Ca1 O0 3.024558 1_456
Ca2 O8 2.271247 1_555
Ca2 O10 2.309489 1_665
Ca2 O1 2.315502 1_655
Ca2 O7 2.327183 1_665
Ca2 O5 2.330679 1_555
Ca2 O3 2.340046 1_565
Ca3 O9 2.271247 1_555
Ca3 O11 2.309489 1_556
Ca3 O0 2.315502 1_556
Ca3 O6 2.327183 1_555
Ca3 O4 2.330679 1_556
Ca3 O2 2.340046 1_555
La0 O5 2.362876 1_545
La0 O9 2.384159 1_545
La0 O1 2.388448 1_545
La0 O6 2.466753 1_555
La0 O2 2.656951 1_555
La0 O10 2.766961 1_555
La0 O11 2.835940 1_556
La0 O3 3.008558 1_555
La1 O4 2.362876 1_655
La1 O8 2.384159 1_555
La1 O0 2.388448 1_555
La1 O7 2.466753 1_655
La1 O3 2.656951 1_555
La1 O11 2.766961 1_555
La1 O10 2.835940 1_655
La1 O2 3.008558 1_654
O0 Ta1 2.003008 1_555
O1 Ta0 2.003008 1_555
O2 Ta1 2.016269 1_446
O3 Ta0 2.016269 1_555
O4 Ta0 2.011867 1_555
O5 Ta1 2.011867 1_556
O6 Ta0 1.995257 1_555
O7 Ta1 1.995257 1_445
O8 Ta0 1.986271 1_555
O9 Ta1 1.986271 1_456
O10 Ta0 1.986568 1_555
O11 Ta1 1.986568 1_545
