# generated using pymatgen
data_K(Ti3Se4)4
_symmetry_space_group_name_H-M   'P 1'
_cell_length_a   7.19934978
_cell_length_b   9.90629137
_cell_length_c   10.54048080
_cell_angle_alpha   118.01377568
_cell_angle_beta   109.97082327
_cell_angle_gamma   90.00453481
_symmetry_Int_Tables_number   1
_chemical_formula_structural   K(Ti3Se4)4
_chemical_formula_sum   'K1 Ti12 Se16'
_cell_volume   611.97005759
_cell_formula_units_Z   1
loop_
 _symmetry_equiv_pos_site_id
 _symmetry_equiv_pos_as_xyz
  1  'x, y, z'
loop_
 _atom_site_type_symbol
 _atom_site_label
 _atom_site_symmetry_multiplicity
 _atom_site_fract_x
 _atom_site_fract_y
 _atom_site_fract_z
 _atom_site_occupancy
  K  K0  1  -0.00000000  -0.00000000  -0.00000000  1
  Ti  Ti0  1  0.55709203  0.35725104  0.86647288  1
  Ti  Ti1  1  0.05928420  0.35750074  0.86690991  1
  Ti  Ti2  1  0.37212774  0.13273547  0.49112464  1
  Ti  Ti3  1  0.86828809  0.13368448  0.49039651  1
  Ti  Ti4  1  0.44483175  0.50949470  0.64343100  1
  Ti  Ti5  1  0.94723800  0.50880842  0.64157770  1
  Ti  Ti6  1  0.94071580  0.64249926  0.13309009  1
  Ti  Ti7  1  0.44290797  0.64274896  0.13352712  1
  Ti  Ti8  1  0.13171191  0.86631552  0.50960349  1
  Ti  Ti9  1  0.62787226  0.86726453  0.50887536  1
  Ti  Ti10  1  0.05276200  0.49119158  0.35842230  1
  Ti  Ti11  1  0.55516825  0.49050530  0.35656900  1
  Se  Se0  1  0.97291653  0.04781864  0.69475030  1
  Se  Se1  1  0.47344025  0.04800323  0.69656360  1
  Se  Se2  1  0.80063483  0.30347551  0.35128488  1
  Se  Se3  1  0.30230977  0.30533306  0.35329669  1
  Se  Se4  1  0.10185358  0.64704283  0.95197568  1
  Se  Se5  1  0.60072818  0.64815232  0.95220537  1
  Se  Se6  1  0.52655975  0.95199677  0.30343640  1
  Se  Se7  1  0.02708347  0.95218136  0.30524970  1
  Se  Se8  1  0.69769023  0.69466694  0.64670331  1
  Se  Se9  1  0.19936517  0.69652449  0.64871512  1
  Se  Se10  1  0.39927182  0.35184768  0.04779463  1
  Se  Se11  1  0.89814642  0.35295717  0.04802432  1
  Se  Se12  1  0.79226392  0.66758017  0.33390326  1
  Se  Se13  1  0.29152322  0.66606592  0.33287248  1
  Se  Se14  1  0.70847678  0.33393408  0.66712752  1
  Se  Se15  1  0.20773608  0.33241983  0.66609674  1
loop_
_geom_bond_atom_site_label_1
_geom_bond_atom_site_label_2
_geom_bond_distance
_geom_bond_site_symmetry_2
K0 Se11 3.407458 1_455
K0 Se4 3.407458 1_544
K0 Se7 3.408488 1_545
K0 Se0 3.408488 1_454
K0 Se8 3.411035 1_444
K0 Se3 3.411035 1_555
Se0 Ti3 2.558028 1_555
Se0 Ti8 2.564469 1_645
Se0 Ti9 2.567374 1_545
Se0 Ti1 2.662797 1_655
Se1 Ti9 2.555591 1_545
Se1 Ti8 2.555650 1_545
Se1 Ti2 2.560129 1_555
Se1 Ti0 2.657866 1_555
Se2 Ti11 2.555323 1_555
Se2 Ti10 2.556014 1_655
Se2 Ti5 2.561462 1_555
Se2 Ti3 2.654329 1_555
Se3 Ti4 2.557686 1_555
Se3 Ti11 2.564599 1_555
Se3 Ti10 2.567861 1_555
Se3 Ti2 2.668576 1_555
Se4 Ti1 2.553672 1_555
Se4 Ti7 2.561162 1_556
Se4 Ti6 2.566268 1_456
Se4 Ti5 2.668709 1_455
Se5 Ti7 2.554605 1_556
Se5 Ti6 2.557734 1_556
Se5 Ti0 2.565053 1_555
Se5 Ti4 2.654079 1_555
Se6 Ti2 2.555591 1_565
Se6 Ti3 2.555650 1_565
Se6 Ti9 2.560129 1_555
Se6 Ti7 2.657866 1_555
Se7 Ti8 2.558028 1_555
Se7 Ti3 2.564469 1_465
Se7 Ti2 2.567374 1_565
Se7 Ti6 2.662797 1_455
Se8 Ti11 2.557686 1_555
Se8 Ti4 2.564599 1_555
Se8 Ti5 2.567861 1_555
Se8 Ti9 2.668576 1_555
Se9 Ti4 2.555323 1_555
Se9 Ti5 2.556014 1_455
Se9 Ti10 2.561462 1_555
Se9 Ti8 2.654329 1_555
Se10 Ti0 2.554605 1_554
Se10 Ti1 2.557734 1_554
Se10 Ti7 2.565053 1_555
Se10 Ti11 2.654079 1_555
Se11 Ti6 2.553672 1_555
Se11 Ti0 2.561162 1_554
Se11 Ti1 2.566268 1_654
Se11 Ti10 2.668709 1_655
Se12 Ti11 2.592204 1_555
Se12 Ti7 2.594314 1_555
Se12 Ti10 2.594395 1_655
Se12 Ti6 2.595294 1_555
Se12 Ti8 2.600118 1_655
Se12 Ti9 2.603734 1_555
Se13 Ti8 2.592710 1_555
Se13 Ti9 2.595205 1_555
Se13 Ti7 2.600886 1_555
Se13 Ti6 2.602439 1_455
Se13 Ti11 2.602780 1_555
Se13 Ti10 2.604281 1_555
Se14 Ti3 2.592710 1_555
Se14 Ti2 2.595205 1_555
Se14 Ti0 2.600886 1_555
Se14 Ti1 2.602439 1_655
Se14 Ti4 2.602780 1_555
Se14 Ti5 2.604281 1_555
Se15 Ti4 2.592204 1_555
Se15 Ti0 2.594314 1_555
Se15 Ti5 2.594395 1_455
Se15 Ti1 2.595294 1_555
Se15 Ti3 2.600118 1_455
Se15 Ti2 2.603734 1_555
