# generated using pymatgen
data_Li3Mn(CoO3)2
_symmetry_space_group_name_H-M   'P 1'
_cell_length_a   5.00944706
_cell_length_b   9.10002175
_cell_length_c   5.06168574
_cell_angle_alpha   90.33139299
_cell_angle_beta   106.30865603
_cell_angle_gamma   90.52266534
_symmetry_Int_Tables_number   1
_chemical_formula_structural   Li3Mn(CoO3)2
_chemical_formula_sum   'Li6 Mn2 Co4 O12'
_cell_volume   221.44040024
_cell_formula_units_Z   2
loop_
 _symmetry_equiv_pos_site_id
 _symmetry_equiv_pos_as_xyz
  1  'x, y, z'
loop_
 _atom_site_type_symbol
 _atom_site_label
 _atom_site_symmetry_multiplicity
 _atom_site_fract_x
 _atom_site_fract_y
 _atom_site_fract_z
 _atom_site_occupancy
  Li  Li0  1  0.99995400  0.16659900  0.50026400  1
  Li  Li1  1  0.49960000  0.66653900  0.49997400  1
  Li  Li2  1  0.49755000  0.33442100  0.49895100  1
  Li  Li3  1  0.99761200  0.83442700  0.49881900  1
  Li  Li4  1  0.00225500  0.49886200  0.50107100  1
  Li  Li5  1  0.50217200  0.99885600  0.50121000  1
  Mn  Mn0  1  0.99994300  0.66657400  0.99975300  1
  Mn  Mn1  1  0.50012000  0.16657800  0.99980100  1
  Co  Co0  1  0.00019400  0.00142900  0.00272000  1
  Co  Co1  1  0.00028600  0.33210300  0.99758000  1
  Co  Co2  1  0.49989500  0.50133800  0.00269600  1
  Co  Co3  1  0.50001400  0.83201800  0.99753200  1
  O  O0  1  0.25545300  0.50090800  0.22990700  1
  O  O1  1  0.75575600  0.00072100  0.23012300  1
  O  O2  1  0.24452200  0.33248200  0.76994600  1
  O  O3  1  0.74421600  0.83268900  0.76968400  1
  O  O4  1  0.75174100  0.33172600  0.22625900  1
  O  O5  1  0.25152700  0.83178100  0.22612400  1
  O  O6  1  0.24851200  0.00156500  0.77386400  1
  O  O7  1  0.74833300  0.50163000  0.77382600  1
  O  O8  1  0.25147000  0.16784200  0.22874000  1
  O  O9  1  0.75103600  0.66795600  0.22868800  1
  O  O10  1  0.74911600  0.16542400  0.77128000  1
  O  O11  1  0.24872000  0.66553100  0.77119000  1
loop_
_geom_bond_atom_site_label_1
_geom_bond_atom_site_label_2
_geom_bond_distance
_geom_bond_site_symmetry_2
Li0 O10 2.104497 1_555
Li0 O8 2.109256 1_655
Li0 O2 2.155510 1_655
Li0 O1 2.155860 1_555
Li0 O6 2.193953 1_655
Li0 O4 2.194832 1_555
Li1 O11 2.105486 1_555
Li1 O9 2.107962 1_555
Li1 O0 2.154032 1_555
Li1 O3 2.157349 1_555
Li1 O7 2.194119 1_555
Li1 O5 2.194906 1_555
Li2 O2 2.113014 1_555
Li2 O4 2.124734 1_555
Li2 O8 2.164061 1_555
Li2 O0 2.179568 1_555
Li2 O7 2.188220 1_555
Li2 O10 2.222063 1_555
Li3 O3 2.113907 1_555
Li3 O5 2.123660 1_655
Li3 O9 2.164152 1_555
Li3 O1 2.177032 1_565
Li3 O6 2.188409 1_665
Li3 O11 2.220602 1_655
Li4 O0 2.114386 1_555
Li4 O7 2.123951 1_455
Li4 O11 2.165154 1_555
Li4 O2 2.178809 1_555
Li4 O4 2.187089 1_455
Li4 O9 2.222115 1_455
Li5 O1 2.115569 1_565
Li5 O6 2.122500 1_565
Li5 O10 2.165332 1_565
Li5 O3 2.176053 1_555
Li5 O5 2.187617 1_555
Li5 O8 2.220601 1_565
Mn0 O11 1.923921 1_655
Mn0 O9 1.925953 1_556
Mn0 O7 2.070151 1_555
Mn0 O5 2.072656 1_656
Mn0 O0 2.118084 1_656
Mn0 O3 2.121360 1_555
Mn1 O10 1.924658 1_555
Mn1 O8 1.924909 1_556
Mn1 O6 2.070615 1_555
Mn1 O4 2.072521 1_556
Mn1 O2 2.119265 1_555
Mn1 O1 2.119951 1_556
Co0 O1 1.901542 1_455
Co0 O6 1.923157 1_554
Co0 O8 2.079181 1_555
Co0 O10 2.099620 1_454
Co0 O3 2.118296 1_444
Co0 O5 2.122091 1_545
Co1 O2 1.901637 1_555
Co1 O4 1.923380 1_456
Co1 O10 2.081221 1_455
Co1 O8 2.101044 1_556
Co1 O0 2.115553 1_556
Co1 O7 2.123338 1_455
Co2 O0 1.900793 1_555
Co2 O7 1.923701 1_554
Co2 O9 2.080170 1_555
Co2 O11 2.101267 1_554
Co2 O2 2.117160 1_554
Co2 O4 2.123306 1_555
Co3 O3 1.902351 1_555
Co3 O5 1.922799 1_556
Co3 O11 2.080319 1_555
Co3 O9 2.099368 1_556
Co3 O1 2.116671 1_566
Co3 O6 2.122291 1_565
