# generated using pymatgen
data_ZrTi(PbO3)2
_symmetry_space_group_name_H-M   'P 1'
_cell_length_a   4.02758000
_cell_length_b   4.02758000
_cell_length_c   8.76155400
_cell_angle_alpha   90.00000000
_cell_angle_beta   90.00000000
_cell_angle_gamma   90.00000000
_symmetry_Int_Tables_number   1
_chemical_formula_structural   ZrTi(PbO3)2
_chemical_formula_sum   'Zr1 Ti1 Pb2 O6'
_cell_volume   142.12467781
_cell_formula_units_Z   1
loop_
 _symmetry_equiv_pos_site_id
 _symmetry_equiv_pos_as_xyz
  1  'x, y, z'
loop_
 _atom_site_type_symbol
 _atom_site_label
 _atom_site_symmetry_multiplicity
 _atom_site_fract_x
 _atom_site_fract_y
 _atom_site_fract_z
 _atom_site_occupancy
  Zr  Zr0  1  0.50000000  0.50000000  0.76389200  1
  Ti  Ti0  1  0.50000000  0.50000000  0.26807600  1
  Pb  Pb0  1  0.00000000  0.00000000  0.00629300  1
  Pb  Pb1  1  0.00000000  0.00000000  0.47316800  1
  O  O0  1  0.00000000  0.50000000  0.30052500  1
  O  O1  1  0.50000000  0.00000000  0.30052500  1
  O  O2  1  0.00000000  0.50000000  0.82570400  1
  O  O3  1  0.50000000  0.00000000  0.82570400  1
  O  O4  1  0.50000000  0.50000000  0.53781300  1
  O  O5  1  0.50000000  0.50000000  0.06690200  1
loop_
_geom_bond_atom_site_label_1
_geom_bond_atom_site_label_2
_geom_bond_distance
_geom_bond_site_symmetry_2
O0 Ti0 2.033760 1_555
O0 Ti0 2.033760 1_455
O0 Pb1 2.518605 1_555
O0 Pb1 2.518605 1_565
O1 Ti0 2.033760 1_555
O1 Ti0 2.033760 1_545
O1 Pb1 2.518605 1_655
O1 Pb1 2.518605 1_555
O2 Zr0 2.085341 1_555
O2 Zr0 2.085341 1_455
O2 Pb0 2.561022 1_566
O2 Pb0 2.561022 1_556
O3 Zr0 2.085341 1_545
O3 Zr0 2.085341 1_555
O3 Pb0 2.561022 1_656
O3 Pb0 2.561022 1_556
O4 Zr0 1.980803 1_555
O4 Ti0 2.363315 1_555
O5 Ti0 1.762597 1_555
