# generated using pymatgen
data_Cs3GaP2
_symmetry_space_group_name_H-M   'P 1'
_cell_length_a   8.85618200
_cell_length_b   11.37907700
_cell_length_c   19.28828147
_cell_angle_alpha   79.62675127
_cell_angle_beta   90.00000000
_cell_angle_gamma   90.00000000
_symmetry_Int_Tables_number   1
_chemical_formula_structural   Cs3GaP2
_chemical_formula_sum   'Cs24 Ga8 P16'
_cell_volume   1912.01015233
_cell_formula_units_Z   8
loop_
 _symmetry_equiv_pos_site_id
 _symmetry_equiv_pos_as_xyz
  1  'x, y, z'
loop_
 _atom_site_type_symbol
 _atom_site_label
 _atom_site_symmetry_multiplicity
 _atom_site_fract_x
 _atom_site_fract_y
 _atom_site_fract_z
 _atom_site_occupancy
  Cs  Cs0  1  0.08033800  0.62325400  0.11046100  1
  Cs  Cs1  1  0.58033800  0.37674600  0.38953900  1
  Cs  Cs2  1  0.91966200  0.37674600  0.88953900  1
  Cs  Cs3  1  0.41966200  0.62325400  0.61046100  1
  Cs  Cs4  1  0.62103200  0.71084900  0.15998800  1
  Cs  Cs5  1  0.12103200  0.28915100  0.34001200  1
  Cs  Cs6  1  0.37896800  0.28915100  0.84001200  1
  Cs  Cs7  1  0.87896800  0.71084900  0.65998800  1
  Cs  Cs8  1  0.46813100  0.85036800  0.96808900  1
  Cs  Cs9  1  0.96813100  0.14963200  0.53191100  1
  Cs  Cs10  1  0.53186900  0.14963200  0.03191100  1
  Cs  Cs11  1  0.03186900  0.85036800  0.46808900  1
  Cs  Cs12  1  0.59643300  0.73881300  0.42341500  1
  Cs  Cs13  1  0.09643300  0.26118700  0.07658500  1
  Cs  Cs14  1  0.40356700  0.26118700  0.57658500  1
  Cs  Cs15  1  0.90356700  0.73881300  0.92341500  1
  Cs  Cs16  1  0.94849300  0.92047200  0.24135500  1
  Cs  Cs17  1  0.44849300  0.07952800  0.25864500  1
  Cs  Cs18  1  0.05150700  0.07952800  0.75864500  1
  Cs  Cs19  1  0.55150700  0.92047200  0.74135500  1
  Cs  Cs20  1  0.25231700  0.63774600  0.29202400  1
  Cs  Cs21  1  0.75231700  0.36225400  0.20797600  1
  Cs  Cs22  1  0.74768300  0.36225400  0.70797600  1
  Cs  Cs23  1  0.24768300  0.63774600  0.79202400  1
  Ga  Ga0  1  0.11782100  0.95444100  0.05596700  1
  Ga  Ga1  1  0.61782100  0.04555900  0.44403300  1
  Ga  Ga2  1  0.88217900  0.04555900  0.94403300  1
  Ga  Ga3  1  0.38217900  0.95444100  0.55596700  1
  Ga  Ga4  1  0.94493500  0.53874300  0.42458700  1
  Ga  Ga5  1  0.44493500  0.46125700  0.07541300  1
  Ga  Ga6  1  0.05506500  0.46125700  0.57541300  1
  Ga  Ga7  1  0.55506500  0.53874300  0.92458700  1
  P  P0  1  0.29242700  0.89526000  0.13990600  1
  P  P1  1  0.79242700  0.10474000  0.36009400  1
  P  P2  1  0.70757300  0.10474000  0.86009400  1
  P  P3  1  0.20757300  0.89526000  0.63990600  1
  P  P4  1  0.15104000  0.04719100  0.93674700  1
  P  P5  1  0.65104000  0.95280900  0.56325300  1
  P  P6  1  0.84896000  0.95280900  0.06325300  1
  P  P7  1  0.34896000  0.04719100  0.43674700  1
  P  P8  1  0.19782700  0.50505200  0.46889900  1
  P  P9  1  0.69782700  0.49494800  0.03110100  1
  P  P10  1  0.80217300  0.49494800  0.53110100  1
  P  P11  1  0.30217300  0.50505200  0.96889900  1
  P  P12  1  0.85990000  0.59845000  0.31238300  1
  P  P13  1  0.35990000  0.40155000  0.18761700  1
  P  P14  1  0.14010000  0.40155000  0.68761700  1
  P  P15  1  0.64010000  0.59845000  0.81238300  1
loop_
_geom_bond_atom_site_label_1
_geom_bond_atom_site_label_2
_geom_bond_distance
_geom_bond_site_symmetry_2
Cs0 P13 3.654725 1_555
Cs0 Ga0 3.740437 1_555
Cs0 P0 3.750165 1_555
Cs0 P11 3.800913 1_554
Cs0 Ga5 3.837947 1_555
Cs0 P9 4.093320 1_455
Cs1 P12 3.654725 1_555
Cs1 Ga1 3.740437 1_555
Cs1 P1 3.750165 1_555
Cs1 P10 3.800913 1_555
Cs1 Ga4 3.837947 1_555
Cs1 P8 4.093320 1_555
Cs2 P15 3.654725 1_555
Cs2 Ga2 3.740437 1_555
Cs2 P2 3.750165 1_555
Cs2 P9 3.800913 1_556
Cs2 Ga7 3.837947 1_555
Cs2 P11 4.093320 1_655
Cs3 P14 3.654725 1_555
Cs3 Ga3 3.740437 1_555
Cs3 P3 3.750165 1_555
Cs3 P8 3.800913 1_555
Cs3 Ga6 3.837947 1_555
Cs3 P10 4.093320 1_555
Cs4 P0 3.567899 1_555
Cs4 P6 3.645076 1_555
Cs4 P12 3.660247 1_555
Cs4 Ga5 3.850733 1_555
Cs4 P9 3.857184 1_555
Cs5 P1 3.567899 1_455
Cs5 P7 3.645076 1_555
Cs5 P13 3.660247 1_555
Cs5 Ga4 3.850733 1_455
Cs5 P8 3.857184 1_555
Cs6 P2 3.567899 1_555
Cs6 P4 3.645076 1_555
Cs6 P14 3.660247 1_555
Cs6 Ga7 3.850733 1_555
Cs6 P11 3.857184 1_555
Cs7 P3 3.567899 1_655
Cs7 P5 3.645076 1_555
Cs7 P15 3.660247 1_555
Cs7 Ga6 3.850733 1_655
Cs7 P10 3.857184 1_555
Cs8 P4 3.574919 1_565
Cs8 P0 3.778214 1_556
Cs8 Ga7 3.865546 1_555
Cs8 P2 3.878489 1_565
Cs9 P5 3.574919 1_545
Cs9 P1 3.778214 1_555
Cs9 Ga6 3.865546 1_655
Cs9 P3 3.878489 1_645
Cs10 P6 3.574919 1_545
Cs10 P2 3.778214 1_554
Cs10 Ga5 3.865546 1_555
Cs10 P0 3.878489 1_545
Cs11 P7 3.574919 1_565
Cs11 P3 3.778214 1_555
Cs11 Ga4 3.865546 1_455
Cs11 P1 3.878489 1_465
Cs12 Ga1 3.588512 1_565
Cs12 P10 3.641281 1_555
Cs12 P12 3.716684 1_555
Cs13 Ga0 3.588512 1_545
Cs13 P11 3.641281 1_554
Cs13 P13 3.716684 1_555
Cs14 Ga3 3.588512 1_545
Cs14 P8 3.641281 1_555
Cs14 P14 3.716684 1_555
Cs15 Ga2 3.588512 1_565
Cs15 P9 3.641281 1_556
Cs15 P15 3.716684 1_555
Cs16 P6 3.501193 1_555
Cs16 P1 3.644397 1_565
Cs16 P0 3.659400 1_655
Cs16 P12 3.756575 1_555
Cs17 P7 3.501193 1_555
Cs17 P0 3.644397 1_545
Cs17 P1 3.659400 1_555
Cs17 P13 3.756575 1_555
Cs18 P4 3.501193 1_555
Cs18 P3 3.644397 1_545
Cs18 P2 3.659400 1_455
Cs18 P14 3.756575 1_555
Cs19 P5 3.501193 1_555
Cs19 P2 3.644397 1_565
Cs19 P3 3.659400 1_555
Cs19 P15 3.756575 1_555
Cs20 P8 3.506680 1_555
Cs20 P12 3.516922 1_455
Cs20 P13 3.759808 1_555
Cs20 P0 3.771656 1_555
Cs21 P9 3.506680 1_555
Cs21 P13 3.516922 1_555
Cs21 P12 3.759808 1_555
Cs21 P1 3.771656 1_555
Cs22 P10 3.506680 1_555
Cs22 P14 3.516922 1_655
Cs22 P15 3.759808 1_555
Cs22 P2 3.771656 1_555
Cs23 P11 3.506680 1_555
Cs23 P15 3.516922 1_555
Cs23 P14 3.759808 1_555
Cs23 P3 3.771656 1_555
Ga0 P0 2.252404 1_555
Ga0 P4 2.369465 1_564
Ga0 P6 2.385101 1_455
Ga1 P1 2.252404 1_555
Ga1 P5 2.369465 1_545
Ga1 P7 2.385101 1_555
Ga2 P2 2.252404 1_555
Ga2 P6 2.369465 1_546
Ga2 P4 2.385101 1_655
Ga3 P3 2.252404 1_555
Ga3 P7 2.369465 1_565
Ga3 P5 2.385101 1_555
Ga4 P12 2.276637 1_555
Ga4 P10 2.387262 1_555
Ga4 P8 2.403239 1_655
Ga5 P13 2.276637 1_555
Ga5 P11 2.387262 1_554
Ga5 P9 2.403239 1_555
Ga6 P14 2.276637 1_555
Ga6 P8 2.387262 1_555
Ga6 P10 2.403239 1_455
Ga7 P15 2.276637 1_555
Ga7 P9 2.387262 1_556
Ga7 P11 2.403239 1_555
