# generated using pymatgen
data_BaSr2In6O12
_symmetry_space_group_name_H-M   'P 1'
_cell_length_a   3.35459200
_cell_length_b   10.12459468
_cell_length_c   10.12442717
_cell_angle_alpha   119.99811754
_cell_angle_beta   90.00163655
_cell_angle_gamma   90.00030484
_symmetry_Int_Tables_number   1
_chemical_formula_structural   BaSr2In6O12
_chemical_formula_sum   'Ba1 Sr2 In6 O12'
_cell_volume   297.80136422
_cell_formula_units_Z   1
loop_
 _symmetry_equiv_pos_site_id
 _symmetry_equiv_pos_as_xyz
  1  'x, y, z'
loop_
 _atom_site_type_symbol
 _atom_site_label
 _atom_site_symmetry_multiplicity
 _atom_site_fract_x
 _atom_site_fract_y
 _atom_site_fract_z
 _atom_site_occupancy
  Ba  Ba0  1  0.66246000  0.00001200  0.99999900  1
  Sr  Sr0  1  0.74951400  0.66666000  0.33333300  1
  Sr  Sr1  1  0.25000600  0.33334900  0.66667600  1
  In  In0  1  0.75102900  0.35141600  0.00190600  1
  In  In1  1  0.75096100  0.99810800  0.34950900  1
  In  In2  1  0.75094200  0.65049400  0.64860600  1
  In  In3  1  0.24779900  0.65070100  0.99892900  1
  In  In4  1  0.24785900  0.00106600  0.65177900  1
  In  In5  1  0.24787300  0.34823300  0.34928300  1
  O  O0  1  0.74938700  0.12540400  0.60302300  1
  O  O1  1  0.74937800  0.39696000  0.52236700  1
  O  O2  1  0.74939000  0.47761900  0.87458500  1
  O  O3  1  0.25006700  0.87656200  0.39851000  1
  O  O4  1  0.25005300  0.60148900  0.47805800  1
  O  O5  1  0.25008400  0.52195300  0.12344600  1
  O  O6  1  0.74817100  0.88768100  0.69378400  1
  O  O7  1  0.74818100  0.30621100  0.19389600  1
  O  O8  1  0.74816500  0.80611400  0.11232100  1
  O  O9  1  0.24890000  0.10559900  0.29225700  1
  O  O10  1  0.24886600  0.70772400  0.81333900  1
  O  O11  1  0.24891800  0.18664500  0.89439600  1
loop_
_geom_bond_atom_site_label_1
_geom_bond_atom_site_label_2
_geom_bond_distance
_geom_bond_site_symmetry_2
Ba0 O7 2.731618 1_556
Ba0 O6 2.731669 1_545
Ba0 O8 2.731688 1_546
Ba0 O11 2.942493 1_555
Ba0 O9 2.942802 1_556
Ba0 O10 2.943032 1_545
Ba0 O11 3.256421 1_655
Ba0 O9 3.256524 1_656
Ba0 O10 3.256779 1_645
In0 O7 2.208499 1_555
In0 O2 2.222912 1_554
In0 O11 2.223020 1_654
In0 O11 2.233621 1_554
In0 O5 2.274516 1_655
In0 O5 2.279252 1_555
In1 O8 2.208543 1_555
In1 O0 2.222869 1_565
In1 O9 2.222925 1_665
In1 O9 2.233318 1_565
In1 O3 2.274693 1_655
In1 O3 2.279123 1_555
In2 O6 2.208570 1_555
In2 O10 2.222812 1_655
In2 O1 2.223080 1_555
In2 O10 2.233373 1_555
In2 O4 2.274753 1_655
In2 O4 2.279071 1_555
In3 O8 2.190179 1_456
In3 O8 2.191995 1_556
In3 O5 2.220744 1_556
In3 O10 2.224564 1_555
In3 O2 2.290204 1_455
In3 O2 2.298075 1_555
In4 O6 2.190142 1_445
In4 O6 2.191736 1_545
In4 O3 2.220824 1_545
In4 O11 2.224635 1_555
In4 O0 2.290400 1_455
In4 O0 2.297906 1_555
In5 O7 2.190067 1_455
In5 O7 2.191721 1_555
In5 O4 2.220749 1_555
In5 O9 2.224828 1_555
In5 O1 2.290486 1_455
In5 O1 2.297791 1_555
O0 Sr1 2.509500 1_555
O0 Sr1 2.512235 1_655
O1 Sr1 2.509330 1_555
O1 Sr1 2.512094 1_655
O2 Sr1 2.509204 1_555
O2 Sr1 2.512056 1_655
O3 Sr0 2.521255 1_555
O3 Sr0 2.523682 1_455
O4 Sr0 2.521212 1_555
O4 Sr0 2.523566 1_455
O5 Sr0 2.521036 1_555
O5 Sr0 2.523670 1_455
