# generated using pymatgen
data_Lu(CrFe5)2
_symmetry_space_group_name_H-M   'P 1'
_cell_length_a   4.67043400
_cell_length_b   6.34762382
_cell_length_c   6.34762382
_cell_angle_alpha   97.22666183
_cell_angle_beta   111.58543690
_cell_angle_gamma   68.41456310
_symmetry_Int_Tables_number   1
_chemical_formula_structural   Lu(CrFe5)2
_chemical_formula_sum   'Lu1 Cr2 Fe10'
_cell_volume   162.70377239
_cell_formula_units_Z   1
loop_
 _symmetry_equiv_pos_site_id
 _symmetry_equiv_pos_as_xyz
  1  'x, y, z'
loop_
 _atom_site_type_symbol
 _atom_site_label
 _atom_site_symmetry_multiplicity
 _atom_site_fract_x
 _atom_site_fract_y
 _atom_site_fract_z
 _atom_site_occupancy
  Lu  Lu0  1  0.00000000  0.00000000  0.00000000  1
  Cr  Cr0  1  0.00000000  0.36762900  0.36762900  1
  Cr  Cr1  1  0.00000000  0.63237100  0.63237100  1
  Fe  Fe0  1  0.72273300  0.77726700  0.22273300  1
  Fe  Fe1  1  0.27726700  0.22273300  0.77726700  1
  Fe  Fe2  1  0.50000000  0.77388600  0.77388600  1
  Fe  Fe3  1  0.50000000  0.22611400  0.22611400  1
  Fe  Fe4  1  0.50000000  0.00000000  0.50000000  1
  Fe  Fe5  1  0.00000000  0.00000000  0.50000000  1
  Fe  Fe6  1  0.50000000  0.50000000  0.00000000  1
  Fe  Fe7  1  0.00000000  0.50000000  0.00000000  1
  Fe  Fe8  1  0.64160200  0.35839800  0.64160200  1
  Fe  Fe9  1  0.35839800  0.64160200  0.35839800  1
loop_
_geom_bond_atom_site_label_1
_geom_bond_atom_site_label_2
_geom_bond_distance
_geom_bond_site_symmetry_2
Cr0 Cr1 2.222060 1_555
Cr0 Fe0 2.555757 1_455
Cr0 Fe1 2.555757 1_555
Cr0 Fe7 2.577764 1_555
Cr0 Fe5 2.577764 1_555
Cr0 Fe6 2.577764 1_455
Cr0 Fe4 2.577764 1_555
Cr0 Fe3 2.619934 1_555
Cr0 Fe3 2.619934 1_455
Cr0 Fe9 2.840656 1_555
Cr0 Fe8 2.840656 1_455
Cr0 Fe9 2.840656 1_455
Cr0 Fe8 2.840656 1_555
Cr0 Lu0 3.085621 1_555
Cr1 Fe1 2.555757 1_555
Cr1 Fe0 2.555757 1_455
Cr1 Fe5 2.577764 1_565
Cr1 Fe7 2.577764 1_556
Cr1 Fe4 2.577764 1_465
Cr1 Fe6 2.577764 1_556
Cr1 Fe2 2.619934 1_455
Cr1 Fe2 2.619934 1_555
Cr1 Fe8 2.840656 1_455
Cr1 Fe9 2.840656 1_555
Cr1 Fe9 2.840656 1_455
Cr1 Fe8 2.840656 1_555
Cr1 Lu0 3.085621 1_566
Fe0 Fe6 2.411952 1_555
Fe0 Fe4 2.411952 1_565
Fe0 Fe7 2.411952 1_655
Fe0 Fe5 2.411952 1_665
Fe0 Fe9 2.592586 1_555
Fe0 Fe9 2.592587 1_655
Fe0 Fe2 2.649599 1_554
Fe0 Fe3 2.649599 1_565
Fe0 Lu0 2.978557 1_665
Fe0 Lu0 2.978558 1_565
Fe1 Fe4 2.411952 1_555
Fe1 Fe6 2.411952 1_556
Fe1 Fe5 2.411952 1_555
Fe1 Fe7 2.411952 1_556
Fe1 Fe8 2.592586 1_555
Fe1 Fe8 2.592587 1_455
Fe1 Fe3 2.649599 1_556
Fe1 Fe2 2.649599 1_545
Fe1 Lu0 2.978557 1_556
Fe1 Lu0 2.978558 1_656
Fe2 Fe6 2.389625 1_556
Fe2 Fe4 2.389625 1_565
Fe2 Fe5 2.389625 1_565
Fe2 Fe7 2.389625 1_656
Fe2 Fe8 2.581902 1_555
Fe2 Fe9 2.581902 1_555
Fe2 Lu0 3.009160 1_666
Fe2 Lu0 3.009160 1_566
Fe3 Fe6 2.389625 1_555
Fe3 Fe4 2.389625 1_555
Fe3 Fe5 2.389625 1_655
Fe3 Fe7 2.389625 1_555
Fe3 Fe8 2.581902 1_555
Fe3 Fe9 2.581902 1_555
Fe3 Lu0 3.009160 1_655
Fe3 Lu0 3.009160 1_555
Fe4 Fe5 2.335217 1_555
Fe4 Fe5 2.335217 1_655
Fe4 Fe9 2.564365 1_545
Fe4 Fe8 2.564365 1_555
Fe4 Lu0 3.173812 1_656
Fe4 Lu0 3.173812 1_555
Fe5 Fe8 2.564365 1_455
Fe5 Fe9 2.564365 1_545
Fe5 Lu0 3.173812 1_555
Fe5 Lu0 3.173812 1_556
Fe6 Fe7 2.335217 1_655
Fe6 Fe7 2.335217 1_555
Fe6 Fe8 2.564365 1_554
Fe6 Fe9 2.564365 1_555
Fe6 Lu0 3.173812 1_655
Fe6 Lu0 3.173812 1_565
Fe7 Fe8 2.564365 1_454
Fe7 Fe9 2.564365 1_555
Fe7 Lu0 3.173812 1_555
Fe7 Lu0 3.173812 1_565
Fe8 Fe9 2.350915 1_555
Fe8 Lu0 2.975111 1_656
Fe9 Lu0 2.975111 1_565
