# generated using pymatgen
data_Y2Fe3N4
_symmetry_space_group_name_H-M   'P 1'
_cell_length_a   6.07773962
_cell_length_b   7.38484746
_cell_length_c   6.44474707
_cell_angle_alpha   90.00000474
_cell_angle_beta   76.74117418
_cell_angle_gamma   127.41129011
_symmetry_Int_Tables_number   1
_chemical_formula_structural   Y2Fe3N4
_chemical_formula_sum   'Y4 Fe6 N8'
_cell_volume   219.97188316
_cell_formula_units_Z   2
loop_
 _symmetry_equiv_pos_site_id
 _symmetry_equiv_pos_as_xyz
  1  'x, y, z'
loop_
 _atom_site_type_symbol
 _atom_site_label
 _atom_site_symmetry_multiplicity
 _atom_site_fract_x
 _atom_site_fract_y
 _atom_site_fract_z
 _atom_site_occupancy
  Y  Y0  1  0.60370100  0.19684800  0.72686900  1
  Y  Y1  1  0.39629900  0.59314800  0.77313100  1
  Y  Y2  1  0.39629900  0.80315200  0.27313100  1
  Y  Y3  1  0.60370100  0.40685200  0.22686900  1
  Fe  Fe0  1  0.06642400  0.90859300  0.07446300  1
  Fe  Fe1  1  0.93357600  0.84216800  0.42553700  1
  Fe  Fe2  1  0.93357600  0.09140700  0.92553700  1
  Fe  Fe3  1  0.06642400  0.15783200  0.57446300  1
  Fe  Fe4  1  0.00000000  0.74792600  0.75000000  1
  Fe  Fe5  1  0.00000000  0.25207400  0.25000000  1
  N  N0  1  0.26920700  0.04189800  0.51138500  1
  N  N1  1  0.73079300  0.77269100  0.98861500  1
  N  N2  1  0.73079300  0.95810200  0.48861500  1
  N  N3  1  0.26920700  0.22730900  0.01138500  1
  N  N4  1  0.78103800  0.22288600  0.05798800  1
  N  N5  1  0.21896200  0.44184800  0.44201200  1
  N  N6  1  0.21896200  0.77711400  0.94201200  1
  N  N7  1  0.78103800  0.55815200  0.55798800  1
loop_
_geom_bond_atom_site_label_1
_geom_bond_atom_site_label_2
_geom_bond_distance
_geom_bond_site_symmetry_2
Fe0 N6 1.806001 1_554
Fe0 N3 1.862657 1_565
Fe0 N1 1.872057 1_454
Fe1 N7 1.805994 1_555
Fe1 N2 1.862663 1_555
Fe1 N0 1.872058 1_665
Fe2 N4 1.806001 1_556
Fe2 N1 1.862657 1_545
Fe2 N3 1.872057 1_656
Fe3 N5 1.805994 1_555
Fe3 N0 1.862663 1_555
Fe3 N2 1.872058 1_445
Fe4 N7 1.937951 1_455
Fe4 N6 1.937951 1_555
Fe4 N1 2.069978 1_455
Fe4 N0 2.069978 1_565
Fe5 N5 1.937951 1_555
Fe5 N4 1.937951 1_455
Fe5 N3 2.069978 1_555
Fe5 N2 2.069978 1_445
N0 Y0 2.416481 1_555
N0 Y3 2.528144 1_555
N0 Y2 2.678362 1_545
N1 Y1 2.416480 1_555
N1 Y2 2.528148 1_556
N1 Y3 2.678369 1_556
N2 Y2 2.416481 1_555
N2 Y1 2.528144 1_555
N2 Y0 2.678362 1_565
N3 Y3 2.416480 1_555
N3 Y0 2.528148 1_554
N3 Y1 2.678369 1_554
N4 Y3 2.330890 1_555
N4 Y0 2.560412 1_554
N4 Y2 2.589247 1_545
N5 Y2 2.330897 1_555
N5 Y1 2.560413 1_555
N5 Y3 2.589252 1_555
N6 Y1 2.330890 1_555
N6 Y2 2.560412 1_556
N6 Y0 2.589247 1_565
N7 Y0 2.330897 1_555
N7 Y3 2.560413 1_555
N7 Y1 2.589252 1_555
