# generated using pymatgen
data_Ac3Ag
_symmetry_space_group_name_H-M   'P 1'
_cell_length_a   7.73545068
_cell_length_b   7.73545068
_cell_length_c   5.74789800
_cell_angle_alpha   90.00000000
_cell_angle_beta   90.00000000
_cell_angle_gamma   120.00000585
_symmetry_Int_Tables_number   1
_chemical_formula_structural   Ac3Ag
_chemical_formula_sum   'Ac6 Ag2'
_cell_volume   297.85912011
_cell_formula_units_Z   2
loop_
 _symmetry_equiv_pos_site_id
 _symmetry_equiv_pos_as_xyz
  1  'x, y, z'
loop_
 _atom_site_type_symbol
 _atom_site_label
 _atom_site_symmetry_multiplicity
 _atom_site_fract_x
 _atom_site_fract_y
 _atom_site_fract_z
 _atom_site_occupancy
  Ac  Ac0  1  0.17521200  0.35042300  0.25000000  1
  Ac  Ac1  1  0.64957700  0.82478800  0.25000000  1
  Ac  Ac2  1  0.17521200  0.82478800  0.25000000  1
  Ac  Ac3  1  0.82478800  0.64957700  0.75000000  1
  Ac  Ac4  1  0.35042300  0.17521200  0.75000000  1
  Ac  Ac5  1  0.82478800  0.17521200  0.75000000  1
  Ag  Ag0  1  0.33333300  0.66666700  0.75000000  1
  Ag  Ag1  1  0.66666700  0.33333300  0.25000000  1
loop_
_geom_bond_atom_site_label_1
_geom_bond_atom_site_label_2
_geom_bond_distance
_geom_bond_site_symmetry_2
Ac0 Ag0 3.570411 1_555
Ac0 Ag0 3.570411 1_554
Ac0 Ac1 3.669427 1_555
Ac0 Ac2 3.669427 1_555
Ac0 Ac4 3.710848 1_554
Ac0 Ac4 3.710848 1_555
Ac0 Ac5 3.710856 1_454
Ac0 Ac5 3.710856 1_455
Ac0 Ag1 3.869419 1_455
Ac0 Ag1 3.869419 1_555
Ac0 Ac1 4.066023 1_445
Ac0 Ac2 4.066024 1_545
Ac1 Ag0 3.570411 1_555
Ac1 Ag0 3.570411 1_554
Ac1 Ac2 3.669427 1_555
Ac1 Ac3 3.710848 1_554
Ac1 Ac3 3.710848 1_555
Ac1 Ac5 3.710856 1_565
Ac1 Ac5 3.710856 1_564
Ac1 Ag1 3.869419 1_565
Ac1 Ag1 3.869419 1_555
Ac1 Ac2 4.066024 1_655
Ac2 Ag0 3.570403 1_554
Ac2 Ag0 3.570403 1_555
Ac2 Ac3 3.710856 1_455
Ac2 Ac4 3.710856 1_565
Ac2 Ac3 3.710856 1_454
Ac2 Ac4 3.710856 1_564
Ac2 Ag1 3.869419 1_455
Ac2 Ag1 3.869419 1_565
Ac3 Ag1 3.570411 1_556
Ac3 Ag1 3.570411 1_555
Ac3 Ac4 3.669427 1_555
Ac3 Ac5 3.669427 1_555
Ac3 Ag0 3.869419 1_655
Ac3 Ag0 3.869419 1_555
Ac3 Ac4 4.066023 1_665
Ac3 Ac5 4.066024 1_565
Ac4 Ag1 3.570411 1_556
Ac4 Ag1 3.570411 1_555
Ac4 Ac5 3.669427 1_555
Ac4 Ag0 3.869419 1_545
Ac4 Ag0 3.869419 1_555
Ac4 Ac5 4.066024 1_455
Ac5 Ag1 3.570403 1_556
Ac5 Ag1 3.570403 1_555
Ac5 Ag0 3.869419 1_545
Ac5 Ag0 3.869419 1_655
