# generated using pymatgen
data_GdBiPd
_symmetry_space_group_name_H-M   'P 1'
_cell_length_a   4.76277707
_cell_length_b   4.76277707
_cell_length_c   4.76277707
_cell_angle_alpha   60.00000000
_cell_angle_beta   60.00000000
_cell_angle_gamma   60.00000000
_symmetry_Int_Tables_number   1
_chemical_formula_structural   GdBiPd
_chemical_formula_sum   'Gd1 Bi1 Pd1'
_cell_volume   76.39514562
_cell_formula_units_Z   1
loop_
 _symmetry_equiv_pos_site_id
 _symmetry_equiv_pos_as_xyz
  1  'x, y, z'
loop_
 _atom_site_type_symbol
 _atom_site_label
 _atom_site_symmetry_multiplicity
 _atom_site_fract_x
 _atom_site_fract_y
 _atom_site_fract_z
 _atom_site_occupancy
  Gd  Gd0  1  0.50000000  0.50000000  0.50000000  1
  Bi  Bi0  1  0.00000000  0.00000000  0.00000000  1
  Pd  Pd0  1  0.25000000  0.25000000  0.25000000  1
loop_
_geom_bond_atom_site_label_1
_geom_bond_atom_site_label_2
_geom_bond_distance
_geom_bond_site_symmetry_2
Gd0 Pd0 2.916593 1_556
Gd0 Pd0 2.916593 1_565
Gd0 Pd0 2.916593 1_655
Gd0 Pd0 2.916593 1_555
Bi0 Pd0 2.916593 1_455
Bi0 Pd0 2.916593 1_554
Bi0 Pd0 2.916593 1_555
Bi0 Pd0 2.916593 1_545
Bi0 Gd0 3.367792 1_545
Bi0 Gd0 3.367792 1_445
Bi0 Gd0 3.367792 1_455
Bi0 Gd0 3.367792 1_554
Bi0 Gd0 3.367792 1_454
Bi0 Gd0 3.367792 1_544
