# generated using pymatgen
data_SnP4O11
_symmetry_space_group_name_H-M   'P 1'
_cell_length_a   23.19693300
_cell_length_b   5.95622100
_cell_length_c   7.94188913
_cell_angle_alpha   72.52469728
_cell_angle_beta   90.00000000
_cell_angle_gamma   90.00000000
_symmetry_Int_Tables_number   1
_chemical_formula_structural   SnP4O11
_chemical_formula_sum   'Sn4 P16 O44'
_cell_volume   1046.65529145
_cell_formula_units_Z   4
loop_
 _symmetry_equiv_pos_site_id
 _symmetry_equiv_pos_as_xyz
  1  'x, y, z'
loop_
 _atom_site_type_symbol
 _atom_site_label
 _atom_site_symmetry_multiplicity
 _atom_site_fract_x
 _atom_site_fract_y
 _atom_site_fract_z
 _atom_site_occupancy
  Sn  Sn0  1  0.88681700  0.99384300  0.87441900  1
  Sn  Sn1  1  0.61318300  0.99384300  0.37441900  1
  Sn  Sn2  1  0.38681700  0.00615700  0.62558100  1
  Sn  Sn3  1  0.11318300  0.00615700  0.12558100  1
  P  P0  1  0.57331600  0.67233200  0.83513800  1
  P  P1  1  0.20077200  0.59515000  0.95729100  1
  P  P2  1  0.17940000  0.65376400  0.56400300  1
  P  P3  1  0.96984500  0.58942900  0.70215300  1
  P  P4  1  0.92668400  0.67233200  0.33513800  1
  P  P5  1  0.29922800  0.59515000  0.45729100  1
  P  P6  1  0.46984500  0.41057100  0.79784700  1
  P  P7  1  0.67940000  0.34623600  0.93599700  1
  P  P8  1  0.32060000  0.65376400  0.06400300  1
  P  P9  1  0.53015500  0.58942900  0.20215300  1
  P  P10  1  0.70077200  0.40485000  0.54270900  1
  P  P11  1  0.07331600  0.32766800  0.66486200  1
  P  P12  1  0.03015500  0.41057100  0.29784700  1
  P  P13  1  0.82060000  0.34623600  0.43599700  1
  P  P14  1  0.79922800  0.40485000  0.04270900  1
  P  P15  1  0.42668400  0.32766800  0.16486200  1
  O  O0  1  0.34283200  0.87185300  0.93775200  1
  O  O1  1  0.57534500  0.88259900  0.67875100  1
  O  O2  1  0.54731900  0.74066600  0.99673700  1
  O  O3  1  0.96534800  0.75786100  0.80658800  1
  O  O4  1  0.83128500  0.63069100  0.98996000  1
  O  O5  1  0.15716800  0.87185300  0.43775200  1
  O  O6  1  0.19952800  0.69852800  0.74044000  1
  O  O7  1  0.31140300  0.79824300  0.52532500  1
  O  O8  1  0.44069000  0.64337600  0.75631000  1
  O  O9  1  0.26938200  0.52888100  0.99445900  1
  O  O10  1  0.63620400  0.56618000  0.88813300  1
  O  O11  1  0.92465500  0.88259900  0.17875100  1
  O  O12  1  0.95268100  0.74066600  0.49673700  1
  O  O13  1  0.53465200  0.75786100  0.30658800  1
  O  O14  1  0.03975100  0.55240300  0.67990900  1
  O  O15  1  0.66871500  0.63069100  0.48996000  1
  O  O16  1  0.30047200  0.69852800  0.24044100  1
  O  O17  1  0.18859700  0.79824300  0.02532500  1
  O  O18  1  0.53975100  0.44759700  0.82009100  1
  O  O19  1  0.05931000  0.64337600  0.25631000  1
  O  O20  1  0.23061800  0.52888100  0.49445900  1
  O  O21  1  0.86379600  0.56618000  0.38813300  1
  O  O22  1  0.13620400  0.43382000  0.61186700  1
  O  O23  1  0.76938200  0.47111900  0.50554100  1
  O  O24  1  0.94069000  0.35662400  0.74369000  1
  O  O25  1  0.46024900  0.55240300  0.17990900  1
  O  O26  1  0.81140300  0.20175700  0.97467500  1
  O  O27  1  0.69952800  0.30147200  0.75956000  1
  O  O28  1  0.33128500  0.36930900  0.51004000  1
  O  O29  1  0.96024900  0.44759700  0.32009100  1
  O  O30  1  0.46534800  0.24213900  0.69341200  1
  O  O31  1  0.04731900  0.25933400  0.50326300  1
  O  O32  1  0.07534500  0.11740100  0.82124900  1
  O  O33  1  0.36379600  0.43382000  0.11186700  1
  O  O34  1  0.73061800  0.47111900  0.00554100  1
  O  O35  1  0.55931000  0.35662400  0.24369000  1
  O  O36  1  0.68859700  0.20175700  0.47467500  1
  O  O37  1  0.80047200  0.30147200  0.25956000  1
  O  O38  1  0.84283200  0.12814700  0.56224800  1
  O  O39  1  0.16871500  0.36930900  0.01004000  1
  O  O40  1  0.03465200  0.24213900  0.19341200  1
  O  O41  1  0.45268100  0.25933400  0.00326300  1
  O  O42  1  0.42465500  0.11740100  0.32124900  1
  O  O43  1  0.65716800  0.12814700  0.06224800  1
loop_
_geom_bond_atom_site_label_1
_geom_bond_atom_site_label_2
_geom_bond_distance
_geom_bond_site_symmetry_2
O0 P8 1.475275 1_556
O0 Sn2 2.576123 1_565
O1 P0 1.476174 1_555
O1 Sn1 2.467662 1_555
O2 P0 1.578028 1_555
O2 P9 1.657951 1_556
O3 P3 1.484921 1_555
O3 Sn0 2.457453 1_555
O4 P14 1.483065 1_556
O4 Sn0 2.447034 1_555
O5 P2 1.475275 1_555
O5 Sn3 2.576123 1_565
O6 P2 1.573835 1_555
O6 P1 1.645928 1_555
O7 P5 1.492497 1_555
O7 Sn2 2.412481 1_565
O8 P6 1.488036 1_555
O8 Sn2 2.441588 1_565
O9 P8 1.586396 1_556
O9 P1 1.644980 1_555
O10 P0 1.595368 1_555
O10 P7 1.601762 1_555
O11 P4 1.476174 1_555
O11 Sn0 2.467662 1_554
O12 P4 1.578028 1_555
O12 P3 1.657951 1_555
O13 P9 1.484921 1_555
O13 Sn1 2.457453 1_555
O14 P11 1.583777 1_555
O14 P3 1.653132 1_455
O15 P10 1.483065 1_555
O15 Sn1 2.447034 1_555
O16 P8 1.573843 1_555
O16 P5 1.645921 1_555
O17 P1 1.492497 1_554
O17 Sn3 2.412481 1_565
O18 P0 1.583777 1_555
O18 P6 1.653132 1_555
O19 P12 1.488036 1_555
O19 Sn3 2.441588 1_565
O20 P2 1.586396 1_555
O20 P5 1.644980 1_555
O21 P4 1.595368 1_555
O21 P13 1.601762 1_555
O22 P11 1.595368 1_555
O22 P2 1.601762 1_555
O23 P13 1.586396 1_555
O23 P10 1.644980 1_555
O24 P3 1.488036 1_555
O24 Sn0 2.441588 1_545
O25 P15 1.583777 1_555
O25 P9 1.653132 1_555
O26 P14 1.492497 1_556
O26 Sn0 2.412481 1_545
O27 P7 1.573835 1_555
O27 P10 1.645928 1_555
O28 P5 1.483065 1_555
O28 Sn2 2.447034 1_555
O29 P4 1.583777 1_555
O29 P12 1.653132 1_655
O30 P6 1.484921 1_555
O30 Sn2 2.457453 1_555
O31 P11 1.578028 1_555
O31 P12 1.657951 1_555
O32 P11 1.476174 1_555
O32 Sn3 2.467662 1_556
O33 P15 1.595368 1_555
O33 P8 1.601762 1_555
O34 P7 1.586396 1_554
O34 P14 1.644980 1_555
O35 P9 1.488036 1_555
O35 Sn1 2.441588 1_545
O36 P10 1.492497 1_555
O36 Sn1 2.412481 1_545
O37 P13 1.573835 1_555
O37 P14 1.645928 1_555
O38 P13 1.475275 1_555
O38 Sn0 2.576123 1_545
O39 P1 1.483065 1_554
O39 Sn3 2.447034 1_555
O40 P12 1.484921 1_555
O40 Sn3 2.457453 1_555
O41 P15 1.578028 1_555
O41 P6 1.657951 1_554
O42 P15 1.476174 1_555
O42 Sn2 2.467662 1_555
O43 P7 1.475275 1_554
O43 Sn1 2.576123 1_545
