# generated using pymatgen
data_CaSn(BO3)2
_symmetry_space_group_name_H-M   'P 1'
_cell_length_a   6.14354486
_cell_length_b   6.14354486
_cell_length_c   6.14354583
_cell_angle_alpha   47.20608608
_cell_angle_beta   47.20608608
_cell_angle_gamma   47.20608126
_symmetry_Int_Tables_number   1
_chemical_formula_structural   CaSn(BO3)2
_chemical_formula_sum   'Ca1 Sn1 B2 O6'
_cell_volume   114.18501297
_cell_formula_units_Z   1
loop_
 _symmetry_equiv_pos_site_id
 _symmetry_equiv_pos_as_xyz
  1  'x, y, z'
loop_
 _atom_site_type_symbol
 _atom_site_label
 _atom_site_symmetry_multiplicity
 _atom_site_fract_x
 _atom_site_fract_y
 _atom_site_fract_z
 _atom_site_occupancy
  Ca  Ca0  1  0.00000000  0.00000000  0.00000000  1
  Sn  Sn0  1  0.50000000  0.50000000  0.50000000  1
  B  B0  1  0.76069100  0.76069100  0.76069100  1
  B  B1  1  0.23930900  0.23930900  0.23930900  1
  O  O0  1  0.49121000  0.73012100  0.05265200  1
  O  O1  1  0.73012100  0.05265200  0.49121000  1
  O  O2  1  0.94734800  0.50879000  0.26987900  1
  O  O3  1  0.50879000  0.26987900  0.94734800  1
  O  O4  1  0.26987900  0.94734800  0.50879000  1
  O  O5  1  0.05265200  0.49121000  0.73012100  1
loop_
_geom_bond_atom_site_label_1
_geom_bond_atom_site_label_2
_geom_bond_distance
_geom_bond_site_symmetry_2
Ca0 O0 2.399960 1_545
Ca0 O3 2.399960 1_454
Ca0 O5 2.399960 1_554
Ca0 O2 2.399960 1_445
Ca0 O1 2.399961 1_455
Ca0 O4 2.399961 1_544
B0 O5 1.386866 1_655
B0 O1 1.386866 1_565
B0 O0 1.386866 1_556
B1 O2 1.386866 1_455
B1 O4 1.386866 1_545
B1 O3 1.386866 1_554
O0 Sn0 2.091285 1_555
O1 Sn0 2.091284 1_555
O2 Sn0 2.091284 1_555
O3 Sn0 2.091285 1_555
O4 Sn0 2.091284 1_555
O5 Sn0 2.091284 1_555
