# generated using pymatgen
data_Sr(H8O5)2
_symmetry_space_group_name_H-M   'P 1'
_cell_length_a   6.24247000
_cell_length_b   6.30573757
_cell_length_c   11.43127282
_cell_angle_alpha   92.11238942
_cell_angle_beta   91.72438053
_cell_angle_gamma   90.56498577
_symmetry_Int_Tables_number   1
_chemical_formula_structural   Sr(H8O5)2
_chemical_formula_sum   'Sr2 H32 O20'
_cell_volume   449.43698786
_cell_formula_units_Z   2
loop_
 _symmetry_equiv_pos_site_id
 _symmetry_equiv_pos_as_xyz
  1  'x, y, z'
loop_
 _atom_site_type_symbol
 _atom_site_label
 _atom_site_symmetry_multiplicity
 _atom_site_fract_x
 _atom_site_fract_y
 _atom_site_fract_z
 _atom_site_occupancy
  Sr  Sr0  1  0.02706700  0.00800300  0.50112900  1
  Sr  Sr1  1  0.99317900  0.99458100  0.01411800  1
  H  H0  1  0.57323500  0.98664600  0.62570100  1
  H  H1  1  0.64891600  0.74930400  0.61287400  1
  H  H2  1  0.30322200  0.17768000  0.71394700  1
  H  H3  1  0.41944900  0.29686300  0.60925600  1
  H  H4  1  0.75947500  0.40278000  0.61783500  1
  H  H5  1  0.00192500  0.47558400  0.63318100  1
  H  H6  1  0.20653900  0.74937500  0.71927600  1
  H  H7  1  0.31215800  0.62718200  0.61065800  1
  H  H8  1  0.56337700  0.05066700  0.15293100  1
  H  H9  1  0.61014900  0.28279500  0.10902600  1
  H  H10  1  0.27140300  0.80143200  0.22166600  1
  H  H11  1  0.38827600  0.72081300  0.10814300  1
  H  H12  1  0.80519500  0.74092100  0.22505400  1
  H  H13  1  0.72199300  0.61626900  0.10881000  1
  H  H14  1  0.04164100  0.44799800  0.14651500  1
  H  H15  1  0.27543600  0.39315300  0.10314600  1
  H  H16  1  0.28990900  0.17869400  0.29215600  1
  H  H17  1  0.42030200  0.28262300  0.40001500  1
  H  H18  1  0.64394500  0.71886500  0.39790300  1
  H  H19  1  0.59413800  0.95073600  0.35475800  1
  H  H20  1  0.07281700  0.56419500  0.35420200  1
  H  H21  1  0.31029300  0.61861200  0.39780900  1
  H  H22  1  0.82709200  0.26257800  0.28691300  1
  H  H23  1  0.74999800  0.38742900  0.39990200  1
  H  H24  1  0.40218000  0.93496400  0.86754900  1
  H  H25  1  0.36342800  0.69339800  0.89493100  1
  H  H26  1  0.59890600  0.25890100  0.88894700  1
  H  H27  1  0.69608400  0.07927500  0.79851000  1
  H  H28  1  0.05537200  0.31458100  0.79351800  1
  H  H29  1  0.26849300  0.36144900  0.88261200  1
  H  H30  1  0.92675800  0.59871500  0.84359500  1
  H  H31  1  0.69722700  0.60533400  0.90018800  1
  O  O0  1  0.53041100  0.50803300  0.57463700  1
  O  O1  1  0.49448400  0.49335900  0.05938200  1
  O  O2  1  0.53109800  0.50422500  0.44392000  1
  O  O3  1  0.48165900  0.48224700  0.92874800  1
  O  O4  1  0.70471500  0.89851900  0.62669700  1
  O  O5  1  0.35364200  0.15445900  0.63324400  1
  O  O6  1  0.90723700  0.34822400  0.64009400  1
  O  O7  1  0.17303500  0.69502200  0.63769100  1
  O  O8  1  0.68125100  0.15487700  0.14516200  1
  O  O9  1  0.32466500  0.85241200  0.14666100  1
  O  O10  1  0.85400100  0.68427200  0.14800800  1
  O  O11  1  0.14056500  0.32737800  0.13547600  1
  O  O12  1  0.35200100  0.14276200  0.36882300  1
  O  O13  1  0.71156200  0.84694200  0.36088100  1
  O  O14  1  0.17418600  0.68541700  0.36569400  1
  O  O15  1  0.88024000  0.31664500  0.36501900  1
  O  O16  1  0.28650700  0.82701400  0.86897600  1
  O  O17  1  0.66338300  0.11219500  0.88035200  1
  O  O18  1  0.15468600  0.25392000  0.85142800  1
  O  O19  1  0.83390000  0.69002700  0.88885600  1
loop_
_geom_bond_atom_site_label_1
_geom_bond_atom_site_label_2
_geom_bond_distance
_geom_bond_site_symmetry_2
H0 O4 0.995733 1_555
H1 O4 1.005422 1_555
H1 O0 1.721121 1_555
H2 O5 0.989953 1_555
H3 O5 1.033412 1_555
H3 O0 1.564186 1_555
H4 O6 1.016119 1_555
H4 O0 1.652092 1_555
H5 O6 0.999362 1_455
H6 O7 0.997133 1_555
H7 O7 1.022969 1_555
H7 O0 1.619079 1_555
H8 O8 0.989865 1_555
H9 O8 1.019245 1_555
H9 O1 1.629763 1_555
H10 O9 0.992167 1_555
H11 O9 1.015014 1_555
H11 O1 1.670162 1_555
H12 O10 0.995600 1_555
H13 O10 1.010133 1_555
H13 O1 1.683648 1_555
H14 O11 0.991289 1_555
H15 O11 1.020094 1_555
H15 O1 1.602111 1_555
H16 O12 0.982641 1_555
H17 O12 1.023218 1_555
H17 O2 1.609731 1_555
H18 O13 1.019189 1_555
H18 O2 1.631196 1_555
H19 O13 0.990116 1_555
H20 O14 0.989969 1_555
H21 O14 1.016765 1_555
H21 O2 1.643751 1_555
H22 O15 0.990451 1_555
H23 O15 1.016267 1_555
H23 O2 1.642184 1_555
H24 O16 0.988365 1_555
H25 O16 1.022898 1_555
H25 O3 1.583385 1_555
H26 O17 1.015120 1_555
H26 O3 1.649033 1_555
H27 O17 0.978797 1_555
H28 O18 0.983636 1_555
H29 O18 1.024200 1_555
H29 O3 1.592870 1_555
H30 O19 0.968456 1_555
H31 O19 1.016203 1_555
H31 O3 1.595109 1_555
O0 O2 1.493705 1_555
O1 O3 1.492073 1_554
O4 Sr0 2.608780 1_665
O5 Sr0 2.639034 1_555
O6 Sr0 2.745445 1_655
O7 Sr0 2.709102 1_565
O8 Sr1 2.675822 1_545
O9 Sr1 2.707269 1_455
O10 Sr1 2.682057 1_555
O11 Sr1 2.616363 1_445
O12 Sr0 2.714639 1_555
O13 Sr0 2.670447 1_665
O14 Sr0 2.695983 1_565
O15 Sr0 2.687245 1_655
O16 Sr1 2.704428 1_456
O17 Sr1 2.655353 1_546
O18 Sr1 2.730196 1_446
O19 Sr1 2.530018 1_556
