# generated using pymatgen
data_Mg14FeBi
_symmetry_space_group_name_H-M   'P 1'
_cell_length_a   6.30246111
_cell_length_b   6.33657060
_cell_length_c   10.25263764
_cell_angle_alpha   90.00000000
_cell_angle_beta   90.00000000
_cell_angle_gamma   120.17919783
_symmetry_Int_Tables_number   1
_chemical_formula_structural   Mg14FeBi
_chemical_formula_sum   'Mg14 Fe1 Bi1'
_cell_volume   353.95140841
_cell_formula_units_Z   1
loop_
 _symmetry_equiv_pos_site_id
 _symmetry_equiv_pos_as_xyz
  1  'x, y, z'
loop_
 _atom_site_type_symbol
 _atom_site_label
 _atom_site_symmetry_multiplicity
 _atom_site_fract_x
 _atom_site_fract_y
 _atom_site_fract_z
 _atom_site_occupancy
  Mg  Mg0  1  0.16653236  0.33326568  0.62500000  1
  Mg  Mg1  1  0.16839591  0.83419746  0.62500000  1
  Mg  Mg2  1  0.66857374  0.33434667  0.12500000  1
  Mg  Mg3  1  0.66629384  0.33139212  0.62500000  1
  Mg  Mg4  1  0.66857374  0.83422606  0.12500000  1
  Mg  Mg5  1  0.66629384  0.83490072  0.62500000  1
  Mg  Mg6  1  0.33119171  0.17503631  0.37065197  1
  Mg  Mg7  1  0.33119171  0.17503631  0.87934803  1
  Mg  Mg8  1  0.33119171  0.65615640  0.37065197  1
  Mg  Mg9  1  0.33119171  0.65615640  0.87934803  1
  Mg  Mg10  1  0.84141838  0.17070969  0.36868386  1
  Mg  Mg11  1  0.84141838  0.17070969  0.88131614  1
  Mg  Mg12  1  0.82823883  0.66411992  0.38168827  1
  Mg  Mg13  1  0.82823883  0.66411992  0.86831173  1
  Fe  Fe0  1  0.17073206  0.33536553  0.12500000  1
  Bi  Bi0  1  0.16052325  0.83026113  0.12500000  1
loop_
_geom_bond_atom_site_label_1
_geom_bond_atom_site_label_2
_geom_bond_distance
_geom_bond_site_symmetry_2
Mg0 Mg5 3.146782 1_445
Mg0 Mg3 3.146782 1_455
Mg0 Mg7 3.150974 1_555
Mg0 Mg6 3.150974 1_555
Mg0 Mg9 3.150980 1_555
Mg0 Mg8 3.150980 1_555
Mg0 Mg5 3.155712 1_555
Mg0 Mg3 3.155712 1_555
Mg0 Mg1 3.168302 1_545
Mg0 Mg1 3.168302 1_555
Mg0 Mg10 3.169134 1_455
Mg0 Mg11 3.169134 1_455
Mg1 Mg13 3.107650 1_455
Mg1 Mg12 3.107650 1_455
Mg1 Mg3 3.135744 1_565
Mg1 Mg5 3.135745 1_555
Mg1 Mg3 3.166721 1_455
Mg1 Mg5 3.166721 1_455
Mg1 Mg9 3.207733 1_555
Mg1 Mg8 3.207733 1_555
Mg1 Mg7 3.207740 1_565
Mg1 Mg6 3.207740 1_565
Mg2 Mg7 3.118573 1_554
Mg2 Mg6 3.118573 1_555
Mg2 Mg4 3.167521 1_555
Mg2 Mg4 3.169050 1_545
Mg3 Mg5 3.146053 1_545
Mg3 Mg7 3.184107 1_555
Mg3 Mg6 3.184107 1_555
Mg3 Mg5 3.190518 1_555
Mg4 Mg9 3.118572 1_554
Mg4 Mg8 3.118572 1_555
Mg5 Mg9 3.184106 1_555
Mg5 Mg8 3.184106 1_555
Mg10 Mg8 3.073153 1_655
Mg10 Mg6 3.073153 1_655
Mg10 Mg2 3.104754 1_555
Mg10 Mg4 3.104761 1_545
Mg10 Mg12 3.171902 1_545
Mg10 Mg12 3.171902 1_555
Mg10 Mg3 3.207908 1_555
Mg10 Mg5 3.207914 1_545
Mg10 Mg8 3.229616 1_545
Mg10 Mg6 3.229616 1_555
Mg11 Mg9 3.073153 1_655
Mg11 Mg7 3.073153 1_655
Mg11 Mg2 3.104754 1_556
Mg11 Mg4 3.104761 1_546
Mg11 Mg13 3.171902 1_545
Mg11 Mg13 3.171902 1_555
Mg11 Mg3 3.207908 1_555
Mg11 Mg5 3.207914 1_545
Mg11 Mg9 3.229616 1_545
Mg11 Mg7 3.229616 1_555
Mg12 Mg5 3.089703 1_555
Mg12 Mg3 3.089710 1_555
Mg12 Mg6 3.109618 1_555
Mg12 Mg8 3.109618 1_555
Mg12 Mg4 3.192334 1_555
Mg12 Mg2 3.192340 1_555
Mg12 Mg6 3.197508 1_665
Mg12 Mg8 3.197509 1_655
Mg13 Mg5 3.089703 1_555
Mg13 Mg3 3.089710 1_555
Mg13 Mg7 3.109618 1_555
Mg13 Mg9 3.109618 1_555
Mg13 Mg4 3.192334 1_556
Mg13 Mg2 3.192340 1_556
Mg13 Mg7 3.197508 1_665
Mg13 Mg9 3.197509 1_655
Fe0 Mg6 3.071002 1_555
Fe0 Mg7 3.071002 1_554
Fe0 Mg8 3.071008 1_555
Fe0 Mg9 3.071008 1_554
Fe0 Mg10 3.075883 1_455
Fe0 Mg11 3.075883 1_454
Fe0 Mg4 3.140878 1_555
Fe0 Mg2 3.140878 1_555
Fe0 Mg4 3.161592 1_445
Fe0 Mg2 3.161593 1_455
Bi0 Mg2 3.113198 1_455
Bi0 Mg4 3.113198 1_455
Bi0 Mg8 3.148083 1_555
Bi0 Mg9 3.148083 1_554
Bi0 Mg6 3.148090 1_565
Bi0 Mg7 3.148090 1_564
Bi0 Fe0 3.168773 1_565
Bi0 Fe0 3.168774 1_555
Bi0 Mg2 3.189412 1_565
Bi0 Mg4 3.189412 1_555
Bi0 Mg12 3.194276 1_455
Bi0 Mg13 3.194276 1_454
