# generated using pymatgen
data_Sn4SF6
_symmetry_space_group_name_H-M   'P 1'
_cell_length_a   7.63812236
_cell_length_b   7.63812236
_cell_length_c   8.89549900
_cell_angle_alpha   90.00000000
_cell_angle_beta   90.00000000
_cell_angle_gamma   110.73439133
_symmetry_Int_Tables_number   1
_chemical_formula_structural   Sn4SF6
_chemical_formula_sum   'Sn8 S2 F12'
_cell_volume   485.35862649
_cell_formula_units_Z   2
loop_
 _symmetry_equiv_pos_site_id
 _symmetry_equiv_pos_as_xyz
  1  'x, y, z'
loop_
 _atom_site_type_symbol
 _atom_site_label
 _atom_site_symmetry_multiplicity
 _atom_site_fract_x
 _atom_site_fract_y
 _atom_site_fract_z
 _atom_site_occupancy
  Sn  Sn0  1  0.67998800  0.32001200  0.85296000  1
  Sn  Sn1  1  0.32001200  0.67998800  0.35296000  1
  Sn  Sn2  1  0.81261500  0.64231900  0.33209000  1
  Sn  Sn3  1  0.35768100  0.18738500  0.33209000  1
  Sn  Sn4  1  0.84948900  0.15051100  0.44099900  1
  Sn  Sn5  1  0.18738500  0.35768100  0.83209000  1
  Sn  Sn6  1  0.64231900  0.81261500  0.83209000  1
  Sn  Sn7  1  0.15051100  0.84948900  0.94099900  1
  S  S0  1  0.66340000  0.33660000  0.56200900  1
  S  S1  1  0.33660000  0.66340000  0.06200900  1
  F  F0  1  0.91832800  0.73260500  0.10321000  1
  F  F1  1  0.26739500  0.08167200  0.10321000  1
  F  F2  1  0.85103100  0.14896900  0.88743400  1
  F  F3  1  0.08167200  0.26739500  0.60321000  1
  F  F4  1  0.73260500  0.91832800  0.60321000  1
  F  F5  1  0.14896900  0.85103100  0.38743400  1
  F  F6  1  0.00601900  0.49166600  0.32530400  1
  F  F7  1  0.61621200  0.38378800  0.21612800  1
  F  F8  1  0.50833400  0.99398100  0.32530400  1
  F  F9  1  0.99398100  0.50833400  0.82530400  1
  F  F10  1  0.38378800  0.61621200  0.71612800  1
  F  F11  1  0.49166600  0.00601900  0.82530400  1
loop_
_geom_bond_atom_site_label_1
_geom_bond_atom_site_label_2
_geom_bond_distance
_geom_bond_site_symmetry_2
S0 Sn4 2.574847 1_555
S0 Sn0 2.596539 1_555
S0 Sn2 3.008374 1_555
S0 Sn3 3.008374 1_555
S1 Sn7 2.574847 1_554
S1 Sn1 2.596539 1_555
S1 Sn6 3.008374 1_554
S1 Sn5 3.008374 1_554
F0 Sn2 2.208749 1_555
F0 Sn7 2.214308 1_654
F1 Sn3 2.208749 1_555
F1 Sn7 2.214308 1_544
F2 Sn0 2.171680 1_555
F2 Sn5 2.546390 1_655
F2 Sn6 2.546390 1_545
F3 Sn5 2.208749 1_555
F3 Sn4 2.214308 1_455
F4 Sn6 2.208749 1_555
F4 Sn4 2.214308 1_565
F5 Sn1 2.171680 1_555
F5 Sn3 2.546390 1_565
F5 Sn2 2.546390 1_455
F6 Sn2 2.171094 1_455
F6 Sn1 2.332125 1_555
F6 Sn4 2.659467 1_455
F7 Sn2 2.261943 1_555
F7 Sn3 2.261943 1_555
F8 Sn3 2.171094 1_565
F8 Sn1 2.332125 1_555
F8 Sn4 2.659467 1_565
F9 Sn5 2.171094 1_655
F9 Sn0 2.332125 1_555
F9 Sn7 2.659467 1_655
F10 Sn6 2.261943 1_555
F10 Sn5 2.261943 1_555
F11 Sn6 2.171094 1_545
F11 Sn0 2.332125 1_555
F11 Sn7 2.659467 1_545
