# generated using pymatgen
data_U3Sn4Pt3
_symmetry_space_group_name_H-M   'P 1'
_cell_length_a   8.44613272
_cell_length_b   8.44613272
_cell_length_c   8.44613272
_cell_angle_alpha   109.47122063
_cell_angle_beta   109.47122063
_cell_angle_gamma   109.47122063
_symmetry_Int_Tables_number   1
_chemical_formula_structural   U3Sn4Pt3
_chemical_formula_sum   'U6 Sn8 Pt6'
_cell_volume   463.82250162
_cell_formula_units_Z   2
loop_
 _symmetry_equiv_pos_site_id
 _symmetry_equiv_pos_as_xyz
  1  'x, y, z'
loop_
 _atom_site_type_symbol
 _atom_site_label
 _atom_site_symmetry_multiplicity
 _atom_site_fract_x
 _atom_site_fract_y
 _atom_site_fract_z
 _atom_site_occupancy
  U  U0  1  0.87500000  0.25000000  0.12500000  1
  U  U1  1  0.62500000  0.75000000  0.37500000  1
  U  U2  1  0.25000000  0.12500000  0.87500000  1
  U  U3  1  0.75000000  0.37500000  0.62500000  1
  U  U4  1  0.12500000  0.87500000  0.25000000  1
  U  U5  1  0.37500000  0.62500000  0.75000000  1
  Sn  Sn0  1  0.67588600  0.50000000  0.00000000  1
  Sn  Sn1  1  0.50000000  0.00000000  0.67588600  1
  Sn  Sn2  1  0.00000000  0.67588600  0.50000000  1
  Sn  Sn3  1  0.82411400  0.82411400  0.82411400  1
  Sn  Sn4  1  0.50000000  0.00000000  0.17588600  1
  Sn  Sn5  1  0.17588600  0.50000000  0.00000000  1
  Sn  Sn6  1  0.00000000  0.17588600  0.50000000  1
  Sn  Sn7  1  0.32411400  0.32411400  0.32411400  1
  Pt  Pt0  1  0.37500000  0.25000000  0.62500000  1
  Pt  Pt1  1  0.12500000  0.75000000  0.87500000  1
  Pt  Pt2  1  0.25000000  0.62500000  0.37500000  1
  Pt  Pt3  1  0.75000000  0.87500000  0.12500000  1
  Pt  Pt4  1  0.62500000  0.37500000  0.25000000  1
  Pt  Pt5  1  0.87500000  0.12500000  0.75000000  1
loop_
_geom_bond_atom_site_label_1
_geom_bond_atom_site_label_2
_geom_bond_distance
_geom_bond_site_symmetry_2
Sn0 U4 3.327364 1_655
Sn0 U0 3.327364 1_555
Sn0 U3 3.327364 1_554
Sn0 U2 3.424768 1_554
Sn0 U1 3.424768 1_555
Sn0 U5 3.424768 1_554
Sn1 U5 3.327364 1_545
Sn1 U0 3.327364 1_556
Sn1 U2 3.327364 1_555
Sn1 U3 3.424768 1_555
Sn1 U4 3.424768 1_545
Sn1 U1 3.424768 1_545
Sn2 U1 3.327364 1_455
Sn2 U4 3.327364 1_555
Sn2 U2 3.327364 1_565
Sn2 U3 3.424768 1_455
Sn2 U5 3.424768 1_555
Sn2 U0 3.424768 1_455
Sn3 U5 3.327364 1_555
Sn3 U3 3.327364 1_555
Sn3 U1 3.327364 1_555
Sn3 U2 3.424768 1_665
Sn3 U0 3.424768 1_566
Sn3 U4 3.424768 1_656
Sn4 U3 3.327364 1_555
Sn4 U4 3.327364 1_545
Sn4 U1 3.327364 1_545
Sn4 U0 3.424768 1_555
Sn4 U5 3.424768 1_544
Sn4 U2 3.424768 1_554
Sn5 U1 3.327364 1_555
Sn5 U5 3.327364 1_554
Sn5 U2 3.327364 1_554
Sn5 U0 3.424768 1_455
Sn5 U4 3.424768 1_555
Sn5 U3 3.424768 1_454
Sn6 U5 3.327364 1_555
Sn6 U3 3.327364 1_455
Sn6 U0 3.327364 1_455
Sn6 U1 3.424768 1_445
Sn6 U2 3.424768 1_555
Sn6 U4 3.424768 1_545
Sn7 U0 3.327364 1_455
Sn7 U2 3.327364 1_554
Sn7 U4 3.327364 1_545
Sn7 U3 3.424768 1_555
Sn7 U1 3.424768 1_555
Sn7 U5 3.424768 1_555
Pt0 Sn1 2.747113 1_555
Pt0 Sn6 2.747113 1_555
Pt0 Sn0 2.747113 1_556
Pt0 Sn7 2.747113 1_555
Pt0 U3 2.986159 1_555
Pt0 U2 2.986159 1_555
Pt0 U4 2.986159 1_545
Pt0 U5 2.986159 1_555
Pt1 Sn2 2.747113 1_555
Pt1 Sn3 2.747113 1_455
Pt1 Sn4 2.747113 1_566
Pt1 Sn5 2.747113 1_556
Pt1 U2 2.986159 1_565
Pt1 U4 2.986159 1_556
Pt1 U5 2.986159 1_555
Pt1 U3 2.986159 1_455
Pt2 Sn1 2.747113 1_565
Pt2 Sn2 2.747113 1_555
Pt2 Sn5 2.747113 1_555
Pt2 Sn7 2.747113 1_555
Pt2 U1 2.986159 1_555
Pt2 U4 2.986159 1_555
Pt2 U5 2.986159 1_555
Pt2 U0 2.986159 1_455
Pt3 Sn6 2.747113 1_665
Pt3 Sn3 2.747113 1_554
Pt3 Sn4 2.747113 1_565
Pt3 Sn0 2.747113 1_555
Pt3 U1 2.986159 1_555
Pt3 U0 2.986159 1_565
Pt3 U5 2.986159 1_554
Pt3 U4 2.986159 1_655
Pt4 Sn4 2.747113 1_555
Pt4 Sn0 2.747113 1_555
Pt4 Sn2 2.747113 1_655
Pt4 Sn7 2.747113 1_555
Pt4 U3 2.986159 1_555
Pt4 U2 2.986159 1_554
Pt4 U0 2.986159 1_555
Pt4 U1 2.986159 1_555
Pt5 Sn6 2.747113 1_655
Pt5 Sn1 2.747113 1_555
Pt5 Sn5 2.747113 1_656
Pt5 Sn3 2.747113 1_545
Pt5 U3 2.986159 1_555
Pt5 U0 2.986159 1_556
Pt5 U2 2.986159 1_655
Pt5 U1 2.986159 1_545
