# generated using pymatgen
data_Li7Mn2(CoO4)3
_symmetry_space_group_name_H-M   'P 1'
_cell_length_a   2.99896850
_cell_length_b   2.99896850
_cell_length_c   29.57093129
_cell_angle_alpha   87.48659838
_cell_angle_beta   87.48659838
_cell_angle_gamma   56.98060511
_symmetry_Int_Tables_number   1
_chemical_formula_structural   Li7Mn2(CoO4)3
_chemical_formula_sum   'Li7 Mn2 Co3 O12'
_cell_volume   222.72216127
_cell_formula_units_Z   1
loop_
 _symmetry_equiv_pos_site_id
 _symmetry_equiv_pos_as_xyz
  1  'x, y, z'
loop_
 _atom_site_type_symbol
 _atom_site_label
 _atom_site_symmetry_multiplicity
 _atom_site_fract_x
 _atom_site_fract_y
 _atom_site_fract_z
 _atom_site_occupancy
  Li  Li0  1  0.32164600  0.32164600  0.91226100  1
  Li  Li1  1  0.01116200  0.01116200  0.75179900  1
  Li  Li2  1  0.66957400  0.66957400  0.58513200  1
  Li  Li3  1  0.33024100  0.33024100  0.41516200  1
  Li  Li4  1  0.00147100  0.00147100  0.25095000  1
  Li  Li5  1  0.66777600  0.66777600  0.08503600  1
  Li  Li6  1  0.66805500  0.66805500  0.83250200  1
  Mn  Mn0  1  0.99654700  0.99654700  0.00133200  1
  Mn  Mn1  1  0.00082100  0.00082100  0.50014600  1
  Co  Co0  1  0.33587300  0.33587300  0.66578700  1
  Co  Co1  1  0.66641900  0.66641900  0.33290300  1
  Co  Co2  1  0.33314100  0.33314100  0.16750100  1
  O  O0  1  0.65164000  0.65164000  0.96504700  1
  O  O1  1  0.33284300  0.33284300  0.78881400  1
  O  O2  1  0.98551400  0.98551400  0.62886700  1
  O  O3  1  0.64190500  0.64190500  0.46087300  1
  O  O4  1  0.31267100  0.31267100  0.29600100  1
  O  O5  1  0.00138600  0.00138600  0.12981400  1
  O  O6  1  0.00047000  0.00047000  0.87592800  1
  O  O7  1  0.67814500  0.67814500  0.69981600  1
  O  O8  1  0.35920000  0.35920000  0.53923800  1
  O  O9  1  0.02007700  0.02007700  0.36976600  1
  O  O10  1  0.66402300  0.66402300  0.20510900  1
  O  O11  1  0.34940000  0.34940000  0.04021800  1
loop_
_geom_bond_atom_site_label_1
_geom_bond_atom_site_label_2
_geom_bond_distance
_geom_bond_site_symmetry_2
Li0 O6 1.997087 1_655
Li0 O6 1.997087 1_565
Li0 O6 2.049991 1_555
Li0 O0 2.268594 1_545
Li0 O0 2.268594 1_455
Li0 O0 2.394502 1_555
Li1 O1 2.006360 1_545
Li1 O1 2.006360 1_455
Li1 O1 2.063716 1_555
Li1 O7 2.247045 1_545
Li1 O7 2.247045 1_455
Li1 O7 2.390418 1_445
Li2 O2 2.129614 1_545
Li2 O2 2.129614 1_455
Li2 O2 2.159034 1_555
Li2 O8 2.177246 1_555
Li2 O8 2.179934 1_565
Li2 O8 2.179934 1_655
Li3 O9 2.166673 1_555
Li3 O9 2.171611 1_565
Li3 O9 2.171611 1_655
Li3 O3 2.173790 1_545
Li3 O3 2.173790 1_455
Li3 O3 2.179007 1_555
Li4 O10 2.121875 1_545
Li4 O10 2.121875 1_455
Li4 O4 2.163204 1_455
Li4 O4 2.163204 1_545
Li4 O4 2.164286 1_555
Li4 O10 2.289673 1_445
Li5 O5 2.110265 1_565
Li5 O5 2.110265 1_655
Li5 O11 2.143119 1_565
Li5 O11 2.143119 1_655
Li5 O11 2.189806 1_555
Li5 O5 2.253562 1_665
Li6 O1 2.087598 1_655
Li6 O1 2.087598 1_565
Li6 O6 2.088714 1_565
Li6 O6 2.088714 1_655
Li6 O6 2.223583 1_665
Li6 O1 2.240408 1_555
Mn0 O0 1.943870 1_564
Mn0 O0 1.943870 1_654
Mn0 O11 1.970125 1_655
Mn0 O11 1.970125 1_565
Mn0 O0 2.156811 1_554
Mn0 O11 2.235093 1_665
Mn1 O8 1.963156 1_545
Mn1 O8 1.963156 1_455
Mn1 O3 1.965222 1_545
Mn1 O3 1.965222 1_455
Mn1 O8 2.263493 1_555
Mn1 O3 2.268886 1_445
Co0 O7 1.914908 1_545
Co0 O7 1.914908 1_455
Co0 O2 1.942861 1_545
Co0 O2 1.942861 1_455
Co0 O7 2.109337 1_555
Co0 O2 2.191884 1_445
Co1 O9 1.935438 1_565
Co1 O9 1.935438 1_655
Co1 O4 1.935889 1_565
Co1 O4 1.935889 1_655
Co1 O9 2.206083 1_665
Co1 O4 2.207115 1_555
Co2 O5 1.994091 1_565
Co2 O5 1.994091 1_655
Co2 O10 1.994763 1_545
Co2 O10 1.994763 1_455
Co2 O10 2.114905 1_555
Co2 O5 2.120146 1_555
