# generated using pymatgen
data_SbPH2F10
_symmetry_space_group_name_H-M   'P 1'
_cell_length_a   5.78971200
_cell_length_b   10.81565600
_cell_length_c   13.22395469
_cell_angle_alpha   90.00000000
_cell_angle_beta   100.98987703
_cell_angle_gamma   90.00000000
_symmetry_Int_Tables_number   1
_chemical_formula_structural   SbPH2F10
_chemical_formula_sum   'Sb4 P4 H8 F40'
_cell_volume   812.89165215
_cell_formula_units_Z   4
loop_
 _symmetry_equiv_pos_site_id
 _symmetry_equiv_pos_as_xyz
  1  'x, y, z'
loop_
 _atom_site_type_symbol
 _atom_site_label
 _atom_site_symmetry_multiplicity
 _atom_site_fract_x
 _atom_site_fract_y
 _atom_site_fract_z
 _atom_site_occupancy
  Sb  Sb0  1  0.38783000  0.24617800  0.53625100  1
  Sb  Sb1  1  0.61217000  0.74617800  0.96374900  1
  Sb  Sb2  1  0.61217000  0.75382200  0.46374900  1
  Sb  Sb3  1  0.38783000  0.25382200  0.03625100  1
  P  P0  1  0.93335300  0.46413100  0.78581100  1
  P  P1  1  0.06664700  0.96413100  0.71418900  1
  P  P2  1  0.06664700  0.53586900  0.21418900  1
  P  P3  1  0.93335300  0.03586900  0.28581100  1
  H  H0  1  0.78101200  0.39376900  0.38395300  1
  H  H1  1  0.21898800  0.89376900  0.11604700  1
  H  H2  1  0.21898800  0.60623100  0.61604700  1
  H  H3  1  0.78101200  0.10623100  0.88395300  1
  H  H4  1  0.12889300  0.52718700  0.84058600  1
  H  H5  1  0.87110700  0.02718700  0.65941400  1
  H  H6  1  0.87110700  0.47281300  0.15941400  1
  H  H7  1  0.12889300  0.97281300  0.34058600  1
  F  F0  1  0.27649900  0.17399700  0.40249900  1
  F  F1  1  0.72350100  0.67399700  0.09750100  1
  F  F2  1  0.72350100  0.82600300  0.59750100  1
  F  F3  1  0.27649900  0.32600300  0.90249900  1
  F  F4  1  0.48988000  0.31677200  0.66964600  1
  F  F5  1  0.51012000  0.81677200  0.83035400  1
  F  F6  1  0.51012000  0.68322800  0.33035400  1
  F  F7  1  0.48988000  0.18322800  0.16964600  1
  F  F8  1  0.61669300  0.34060300  0.48021700  1
  F  F9  1  0.38330700  0.84060300  0.01978300  1
  F  F10  1  0.38330700  0.65939700  0.51978300  1
  F  F11  1  0.61669300  0.15939700  0.98021700  1
  F  F12  1  0.16181800  0.37518400  0.50258500  1
  F  F13  1  0.83818200  0.87518400  0.99741500  1
  F  F14  1  0.83818200  0.62481600  0.49741500  1
  F  F15  1  0.16181800  0.12481600  0.00258500  1
  F  F16  1  0.16128400  0.14593800  0.58909800  1
  F  F17  1  0.83871600  0.64593800  0.91090200  1
  F  F18  1  0.83871600  0.85406200  0.41090200  1
  F  F19  1  0.16128400  0.35406200  0.08909800  1
  F  F20  1  0.61244900  0.11471600  0.56999600  1
  F  F21  1  0.38755100  0.61471600  0.93000400  1
  F  F22  1  0.38755100  0.88528400  0.43000400  1
  F  F23  1  0.61244900  0.38528400  0.06999600  1
  F  F24  1  0.80869700  0.40378800  0.31573600  1
  F  F25  1  0.19130300  0.90378800  0.18426400  1
  F  F26  1  0.19130300  0.59621200  0.68426400  1
  F  F27  1  0.80869700  0.09621200  0.81573600  1
  F  F28  1  0.80234000  0.39694500  0.85902300  1
  F  F29  1  0.19766000  0.89694500  0.64097700  1
  F  F30  1  0.19766000  0.60305500  0.14097700  1
  F  F31  1  0.80234000  0.10305500  0.35902300  1
  F  F32  1  0.75256800  0.54662700  0.71929300  1
  F  F33  1  0.24743200  0.04662700  0.78070700  1
  F  F34  1  0.24743200  0.45337300  0.28070700  1
  F  F35  1  0.75256800  0.95337300  0.21929300  1
  F  F36  1  0.99471000  0.36522900  0.71357500  1
  F  F37  1  0.00529000  0.86522900  0.78642500  1
  F  F38  1  0.00529000  0.63477100  0.28642500  1
  F  F39  1  0.99471000  0.13477100  0.21357500  1
loop_
_geom_bond_atom_site_label_1
_geom_bond_atom_site_label_2
_geom_bond_distance
_geom_bond_site_symmetry_2
H4 P0 1.399579 1_455
H5 P1 1.399579 1_645
H6 P2 1.399579 1_655
H7 P3 1.399579 1_465
F0 Sb0 1.928386 1_555
F1 Sb1 1.928386 1_554
F2 Sb2 1.928386 1_555
F3 Sb3 1.928386 1_556
F4 Sb0 1.909556 1_555
F5 Sb1 1.909556 1_555
F6 Sb2 1.909556 1_555
F7 Sb3 1.909556 1_555
F8 Sb0 1.929292 1_555
F9 Sb1 1.929292 1_554
F10 Sb2 1.929292 1_555
F11 Sb3 1.929292 1_556
F12 Sb0 1.906619 1_555
F13 Sb1 1.906619 1_555
F14 Sb2 1.906619 1_555
F15 Sb3 1.906619 1_555
F16 Sb0 1.932270 1_555
F17 Sb1 1.932270 1_555
F18 Sb2 1.932270 1_555
F19 Sb3 1.932270 1_555
F20 Sb0 1.921137 1_555
F21 Sb1 1.921137 1_555
F22 Sb2 1.921137 1_555
F23 Sb3 1.921137 1_555
F24 H0 0.952022 1_555
F25 H1 0.952022 1_555
F26 H2 0.952022 1_555
F27 H3 0.952022 1_555
F28 P0 1.523388 1_555
F29 P1 1.523388 1_555
F30 P2 1.523388 1_555
F31 P3 1.523388 1_555
F32 P0 1.521311 1_555
F33 P1 1.521311 1_545
F34 P2 1.521311 1_555
F35 P3 1.521311 1_565
F36 P0 1.520627 1_555
F37 P1 1.520627 1_555
F38 P2 1.520627 1_555
F39 P3 1.520627 1_555
