# generated using pymatgen
data_Ta6Co(CS2)3
_symmetry_space_group_name_H-M   'P 1'
_cell_length_a   5.71100465
_cell_length_b   5.71100465
_cell_length_c   8.61696752
_cell_angle_alpha   83.67174264
_cell_angle_beta   83.67174264
_cell_angle_gamma   120.06311020
_symmetry_Int_Tables_number   1
_chemical_formula_structural   Ta6Co(CS2)3
_chemical_formula_sum   'Ta6 Co1 C3 S6'
_cell_volume   237.24357867
_cell_formula_units_Z   1
loop_
 _symmetry_equiv_pos_site_id
 _symmetry_equiv_pos_as_xyz
  1  'x, y, z'
loop_
 _atom_site_type_symbol
 _atom_site_label
 _atom_site_symmetry_multiplicity
 _atom_site_fract_x
 _atom_site_fract_y
 _atom_site_fract_z
 _atom_site_occupancy
  Ta  Ta0  1  0.45405100  0.78701000  0.64006400  1
  Ta  Ta1  1  0.12056800  0.12056800  0.63520200  1
  Ta  Ta2  1  0.78701000  0.45405100  0.64006400  1
  Ta  Ta3  1  0.54594900  0.21299000  0.35993600  1
  Ta  Ta4  1  0.21299000  0.54594900  0.35993600  1
  Ta  Ta5  1  0.87943200  0.87943200  0.36479800  1
  Co  Co0  1  0.00000000  0.00000000  0.00000000  1
  C  C0  1  0.50000000  0.50000000  0.50000000  1
  C  C1  1  0.17000400  0.82999600  0.50000000  1
  C  C2  1  0.82999600  0.17000400  0.50000000  1
  S  S0  1  0.61313000  0.94453600  0.16594200  1
  S  S1  1  0.27662300  0.27662300  0.16371000  1
  S  S2  1  0.94453600  0.61313000  0.16594200  1
  S  S3  1  0.38687000  0.05546400  0.83405800  1
  S  S4  1  0.05546400  0.38687000  0.83405800  1
  S  S5  1  0.72337700  0.72337700  0.83629000  1
loop_
_geom_bond_atom_site_label_1
_geom_bond_atom_site_label_2
_geom_bond_distance
_geom_bond_site_symmetry_2
Co0 S1 2.337435 1_555
Co0 S5 2.337435 1_444
Co0 S4 2.351389 1_554
Co0 S2 2.351389 1_445
Co0 S3 2.351389 1_554
Co0 S0 2.351389 1_445
C0 Ta5 2.220561 1_555
C0 Ta1 2.220561 1_555
C0 Ta0 2.238186 1_555
C0 Ta2 2.238186 1_555
C0 Ta3 2.238186 1_555
C0 Ta4 2.238186 1_555
C1 Ta0 2.216696 1_555
C1 Ta4 2.216696 1_555
C1 Ta2 2.234339 1_455
C1 Ta3 2.234339 1_565
C1 Ta5 2.239175 1_455
C1 Ta1 2.239175 1_565
C2 Ta3 2.216696 1_555
C2 Ta2 2.216696 1_555
C2 Ta0 2.234339 1_545
C2 Ta4 2.234339 1_655
C2 Ta5 2.239175 1_545
C2 Ta1 2.239175 1_655
S0 Ta3 2.510985 1_565
S0 Ta4 2.511063 1_555
S0 Ta5 2.527455 1_555
S1 Ta4 2.520882 1_555
S1 Ta3 2.520882 1_555
S1 Ta5 2.530842 1_445
S2 Ta4 2.510985 1_655
S2 Ta3 2.511063 1_555
S2 Ta5 2.527455 1_555
S3 Ta0 2.510985 1_545
S3 Ta2 2.511063 1_555
S3 Ta1 2.527455 1_555
S4 Ta2 2.510985 1_455
S4 Ta0 2.511063 1_555
S4 Ta1 2.527455 1_555
S5 Ta2 2.520882 1_555
S5 Ta0 2.520882 1_555
S5 Ta1 2.530842 1_665
