# generated using pymatgen
data_Li4(MoO4)3
_symmetry_space_group_name_H-M   'P 1'
_cell_length_a   5.21483500
_cell_length_b   10.53361500
_cell_length_c   17.98078100
_cell_angle_alpha   90.00000000
_cell_angle_beta   90.00000000
_cell_angle_gamma   90.00000000
_symmetry_Int_Tables_number   1
_chemical_formula_structural   Li4(MoO4)3
_chemical_formula_sum   'Li16 Mo12 O48'
_cell_volume   987.70343509
_cell_formula_units_Z   4
loop_
 _symmetry_equiv_pos_site_id
 _symmetry_equiv_pos_as_xyz
  1  'x, y, z'
loop_
 _atom_site_type_symbol
 _atom_site_label
 _atom_site_symmetry_multiplicity
 _atom_site_fract_x
 _atom_site_fract_y
 _atom_site_fract_z
 _atom_site_occupancy
  Li  Li0  1  0.10100200  0.25000000  0.24936000  1
  Li  Li1  1  0.89899800  0.75000000  0.75064000  1
  Li  Li2  1  0.39899800  0.75000000  0.74936000  1
  Li  Li3  1  0.60100200  0.25000000  0.25064000  1
  Li  Li4  1  0.24723600  0.07569600  0.52663500  1
  Li  Li5  1  0.75276400  0.92430400  0.47336500  1
  Li  Li6  1  0.25276400  0.92430400  0.02663500  1
  Li  Li7  1  0.75276400  0.57569600  0.47336500  1
  Li  Li8  1  0.74723600  0.07569600  0.97336500  1
  Li  Li9  1  0.24723600  0.42430400  0.52663500  1
  Li  Li10  1  0.74723600  0.42430400  0.97336500  1
  Li  Li11  1  0.25276400  0.57569600  0.02663500  1
  Li  Li12  1  0.25779200  0.25000000  0.70042300  1
  Li  Li13  1  0.74220800  0.75000000  0.29957700  1
  Li  Li14  1  0.24220800  0.75000000  0.20042300  1
  Li  Li15  1  0.75779200  0.25000000  0.79957700  1
  Mo  Mo0  1  0.28159100  0.25000000  0.05596300  1
  Mo  Mo1  1  0.71840900  0.75000000  0.94403700  1
  Mo  Mo2  1  0.21840900  0.75000000  0.55596300  1
  Mo  Mo3  1  0.78159100  0.25000000  0.44403700  1
  Mo  Mo4  1  0.27528800  0.52765900  0.34434700  1
  Mo  Mo5  1  0.72471200  0.47234100  0.65565300  1
  Mo  Mo6  1  0.22471200  0.47234100  0.84434700  1
  Mo  Mo7  1  0.72471200  0.02765900  0.65565300  1
  Mo  Mo8  1  0.77528800  0.52765900  0.15565300  1
  Mo  Mo9  1  0.27528800  0.97234100  0.34434700  1
  Mo  Mo10  1  0.77528800  0.97234100  0.15565300  1
  Mo  Mo11  1  0.22471200  0.02765900  0.84434700  1
  O  O0  1  0.08384400  0.00978600  0.42439100  1
  O  O1  1  0.91615600  0.99021400  0.57560900  1
  O  O2  1  0.41615600  0.99021400  0.92439100  1
  O  O3  1  0.91615600  0.50978600  0.57560900  1
  O  O4  1  0.58384400  0.00978600  0.07560900  1
  O  O5  1  0.08384400  0.49021400  0.42439100  1
  O  O6  1  0.58384400  0.49021400  0.07560900  1
  O  O7  1  0.41615600  0.50978600  0.92439100  1
  O  O8  1  0.07757600  0.62916300  0.28581000  1
  O  O9  1  0.92242400  0.37083700  0.71419000  1
  O  O10  1  0.42242400  0.37083700  0.78581000  1
  O  O11  1  0.92242400  0.12916300  0.71419000  1
  O  O12  1  0.57757600  0.62916300  0.21419000  1
  O  O13  1  0.07757600  0.87083700  0.28581000  1
  O  O14  1  0.57757600  0.87083700  0.21419000  1
  O  O15  1  0.42242400  0.12916300  0.78581000  1
  O  O16  1  0.35225200  0.11491500  0.29486600  1
  O  O17  1  0.64774800  0.88508500  0.70513400  1
  O  O18  1  0.14774800  0.88508500  0.79486600  1
  O  O19  1  0.64774800  0.61491500  0.70513400  1
  O  O20  1  0.85225200  0.11491500  0.20513400  1
  O  O21  1  0.35225200  0.38508500  0.29486600  1
  O  O22  1  0.85225200  0.38508500  0.20513400  1
  O  O23  1  0.14774800  0.61491500  0.79486600  1
  O  O24  1  0.08377100  0.11396200  0.03613400  1
  O  O25  1  0.91622900  0.88603800  0.96386600  1
  O  O26  1  0.41622900  0.88603800  0.53613400  1
  O  O27  1  0.91622900  0.61396200  0.96386600  1
  O  O28  1  0.58377100  0.11396200  0.46386600  1
  O  O29  1  0.08377100  0.38603800  0.03613400  1
  O  O30  1  0.58377100  0.38603800  0.46386600  1
  O  O31  1  0.41622900  0.61396200  0.53613400  1
  O  O32  1  0.05539100  0.25000000  0.50476600  1
  O  O33  1  0.94460900  0.75000000  0.49523400  1
  O  O34  1  0.44460900  0.75000000  0.00476600  1
  O  O35  1  0.55539100  0.25000000  0.99523400  1
  O  O36  1  0.05818000  0.61435000  0.12736400  1
  O  O37  1  0.94182000  0.38565000  0.87263600  1
  O  O38  1  0.44182000  0.38565000  0.62736400  1
  O  O39  1  0.94182000  0.11435000  0.87263600  1
  O  O40  1  0.55818000  0.61435000  0.37263600  1
  O  O41  1  0.05818000  0.88565000  0.12736400  1
  O  O42  1  0.55818000  0.88565000  0.37263600  1
  O  O43  1  0.44182000  0.11435000  0.62736400  1
  O  O44  1  0.35762700  0.25000000  0.15468500  1
  O  O45  1  0.64237300  0.75000000  0.84531500  1
  O  O46  1  0.14237300  0.75000000  0.65468500  1
  O  O47  1  0.85762700  0.25000000  0.34531500  1
loop_
_geom_bond_atom_site_label_1
_geom_bond_atom_site_label_2
_geom_bond_distance
_geom_bond_site_symmetry_2
Li0 O20 2.083222 1_455
Li0 O22 2.083222 1_455
Li0 O16 2.100224 1_555
Li0 O21 2.100224 1_555
Li0 O47 2.141865 1_455
Li0 O44 2.165378 1_555
Li1 O18 2.083222 1_655
Li1 O23 2.083222 1_655
Li1 O19 2.100224 1_555
Li1 O17 2.100224 1_555
Li1 O46 2.141865 1_655
Li1 O45 2.165378 1_555
Li2 O19 2.083222 1_555
Li2 O17 2.083222 1_555
Li2 O18 2.100224 1_555
Li2 O23 2.100224 1_555
Li2 O45 2.141865 1_555
Li2 O46 2.165378 1_555
Li3 O16 2.083222 1_555
Li3 O21 2.083222 1_555
Li3 O20 2.100224 1_555
Li3 O22 2.100224 1_555
Li3 O44 2.141865 1_555
Li3 O47 2.165378 1_555
Li4 O43 2.115619 1_555
Li4 O28 2.125142 1_555
Li4 O32 2.127578 1_555
Li4 O1 2.137082 1_445
Li4 O0 2.141923 1_555
Li4 O26 2.190195 1_545
Li5 O42 2.115619 1_555
Li5 O26 2.125142 1_555
Li5 O33 2.127578 1_555
Li5 O0 2.137082 1_665
Li5 O1 2.141923 1_555
Li5 O28 2.190195 1_565
Li6 O41 2.115619 1_555
Li6 O25 2.125142 1_454
Li6 O34 2.127578 1_555
Li6 O4 2.137082 1_565
Li6 O2 2.141923 1_554
Li6 O24 2.190195 1_565
Li7 O40 2.115619 1_555
Li7 O31 2.125142 1_555
Li7 O33 2.127578 1_555
Li7 O5 2.137082 1_655
Li7 O3 2.141923 1_555
Li7 O30 2.190195 1_555
Li8 O39 2.115619 1_555
Li8 O24 2.125142 1_656
Li8 O35 2.127578 1_555
Li8 O2 2.137082 1_545
Li8 O4 2.141923 1_556
Li8 O25 2.190195 1_545
Li9 O38 2.115619 1_555
Li9 O30 2.125142 1_555
Li9 O32 2.127578 1_555
Li9 O3 2.137082 1_455
Li9 O5 2.141923 1_555
Li9 O31 2.190195 1_555
Li10 O37 2.115619 1_555
Li10 O29 2.125142 1_656
Li10 O35 2.127578 1_555
Li10 O7 2.137082 1_555
Li10 O6 2.141923 1_556
Li10 O27 2.190195 1_555
Li11 O36 2.115619 1_555
Li11 O27 2.125142 1_454
Li11 O34 2.127578 1_555
Li11 O6 2.137082 1_555
Li11 O7 2.141923 1_554
Li11 O29 2.190195 1_555
Li12 O43 2.165268 1_555
Li12 O38 2.165268 1_555
Li12 O15 2.171277 1_555
Li12 O10 2.171277 1_555
Li12 O11 2.177163 1_455
Li12 O9 2.177163 1_455
Li13 O40 2.165268 1_555
Li13 O42 2.165268 1_555
Li13 O12 2.171277 1_555
Li13 O14 2.171277 1_555
Li13 O8 2.177163 1_655
Li13 O13 2.177163 1_655
Li14 O36 2.165268 1_555
Li14 O41 2.165268 1_555
Li14 O8 2.171277 1_555
Li14 O13 2.171277 1_555
Li14 O12 2.177163 1_555
Li14 O14 2.177163 1_555
Li15 O37 2.165268 1_555
Li15 O39 2.165268 1_555
Li15 O11 2.171277 1_555
Li15 O9 2.171277 1_555
Li15 O15 2.177163 1_555
Li15 O10 2.177163 1_555
Mo0 O35 1.797510 1_554
Mo0 O24 1.801312 1_555
Mo0 O29 1.801312 1_555
Mo0 O44 1.818846 1_555
Mo1 O34 1.797510 1_556
Mo1 O27 1.801312 1_555
Mo1 O25 1.801312 1_555
Mo1 O45 1.818846 1_555
Mo2 O33 1.797510 1_455
Mo2 O26 1.801312 1_555
Mo2 O31 1.801312 1_555
Mo2 O46 1.818846 1_555
Mo3 O32 1.797510 1_655
Mo3 O28 1.801312 1_555
Mo3 O30 1.801312 1_555
Mo3 O47 1.818846 1_555
Mo4 O21 1.791124 1_555
Mo4 O5 1.795474 1_555
Mo4 O40 1.808018 1_555
Mo4 O8 1.820460 1_555
Mo5 O19 1.791124 1_555
Mo5 O3 1.795474 1_555
Mo5 O38 1.808018 1_555
Mo5 O9 1.820460 1_555
Mo6 O23 1.791124 1_555
Mo6 O7 1.795474 1_555
Mo6 O37 1.808018 1_455
Mo6 O10 1.820460 1_555
Mo7 O17 1.791124 1_545
Mo7 O1 1.795474 1_545
Mo7 O43 1.808018 1_555
Mo7 O11 1.820460 1_555
Mo8 O22 1.791124 1_555
Mo8 O6 1.795474 1_555
Mo8 O36 1.808018 1_655
Mo8 O12 1.820460 1_555
Mo9 O16 1.791124 1_565
Mo9 O0 1.795474 1_565
Mo9 O42 1.808018 1_555
Mo9 O13 1.820460 1_555
Mo10 O20 1.791124 1_565
Mo10 O4 1.795474 1_565
Mo10 O41 1.808018 1_655
Mo10 O14 1.820460 1_555
Mo11 O18 1.791124 1_545
Mo11 O2 1.795474 1_545
Mo11 O39 1.808018 1_455
Mo11 O15 1.820460 1_555
