# generated using pymatgen
data_SiPb(OF3)2
_symmetry_space_group_name_H-M   'P 1'
_cell_length_a   9.70687045
_cell_length_b   9.70687045
_cell_length_c   16.42218606
_cell_angle_alpha   72.32271977
_cell_angle_beta   72.32271977
_cell_angle_gamma   50.49670440
_symmetry_Int_Tables_number   1
_chemical_formula_structural   SiPb(OF3)2
_chemical_formula_sum   'Si8 Pb8 O16 F48'
_cell_volume   1124.62269133
_cell_formula_units_Z   8
loop_
 _symmetry_equiv_pos_site_id
 _symmetry_equiv_pos_as_xyz
  1  'x, y, z'
loop_
 _atom_site_type_symbol
 _atom_site_label
 _atom_site_symmetry_multiplicity
 _atom_site_fract_x
 _atom_site_fract_y
 _atom_site_fract_z
 _atom_site_occupancy
  Si  Si0  1  0.46141400  0.31859900  0.40524900  1
  Si  Si1  1  0.68140100  0.53858600  0.09475100  1
  Si  Si2  1  0.53858600  0.68140100  0.59475100  1
  Si  Si3  1  0.31859900  0.46141400  0.90524900  1
  Si  Si4  1  0.19475800  0.04346800  0.31735500  1
  Si  Si5  1  0.95653200  0.80524200  0.18264500  1
  Si  Si6  1  0.80524200  0.95653200  0.68264500  1
  Si  Si7  1  0.04346800  0.19475800  0.81735500  1
  Pb  Pb0  1  0.43586600  0.29060400  0.16440700  1
  Pb  Pb1  1  0.70939600  0.56413400  0.33559300  1
  Pb  Pb2  1  0.56413400  0.70939600  0.83559300  1
  Pb  Pb3  1  0.29060400  0.43586600  0.66440700  1
  Pb  Pb4  1  0.19718700  0.09060500  0.05412100  1
  Pb  Pb5  1  0.90939500  0.80281300  0.44587900  1
  Pb  Pb6  1  0.80281300  0.90939500  0.94587900  1
  Pb  Pb7  1  0.09060500  0.19718700  0.55412100  1
  O  O0  1  0.84497200  0.15502800  0.25000000  1
  O  O1  1  0.15502800  0.84497200  0.75000000  1
  O  O2  1  0.30709200  0.69290800  0.25000000  1
  O  O3  1  0.69290800  0.30709200  0.75000000  1
  O  O4  1  0.27149100  0.22709500  0.60339500  1
  O  O5  1  0.77290500  0.72850900  0.89660500  1
  O  O6  1  0.72850900  0.77290500  0.39660500  1
  O  O7  1  0.22709500  0.27149100  0.10339500  1
  O  O8  1  0.03398400  0.50630200  0.56831500  1
  O  O9  1  0.49369800  0.96601600  0.93168500  1
  O  O10  1  0.96601600  0.49369800  0.43168500  1
  O  O11  1  0.50630200  0.03398400  0.06831500  1
  O  O12  1  0.14372800  0.66404800  0.52565100  1
  O  O13  1  0.33595200  0.85627200  0.97434900  1
  O  O14  1  0.85627200  0.33595200  0.47434900  1
  O  O15  1  0.66404800  0.14372800  0.02565100  1
  F  F0  1  0.25869800  0.52792400  0.38976400  1
  F  F1  1  0.47207600  0.74130200  0.11023600  1
  F  F2  1  0.74130200  0.47207600  0.61023600  1
  F  F3  1  0.52792400  0.25869800  0.88976400  1
  F  F4  1  0.46240400  0.27453300  0.31169000  1
  F  F5  1  0.72546700  0.53759600  0.18831000  1
  F  F6  1  0.53759600  0.72546700  0.68831000  1
  F  F7  1  0.27453300  0.46240400  0.81169000  1
  F  F8  1  0.57718000  0.40652800  0.34745900  1
  F  F9  1  0.59347200  0.42282000  0.15254100  1
  F  F10  1  0.42282000  0.59347200  0.65254100  1
  F  F11  1  0.40652800  0.57718000  0.84745900  1
  F  F12  1  0.35462600  0.22005900  0.45960900  1
  F  F13  1  0.77994100  0.64537400  0.04039100  1
  F  F14  1  0.64537400  0.77994100  0.54039100  1
  F  F15  1  0.22005900  0.35462600  0.95960900  1
  F  F16  1  0.45910900  0.36103300  0.49849200  1
  F  F17  1  0.63896700  0.54089100  0.00150800  1
  F  F18  1  0.54089100  0.63896700  0.50150800  1
  F  F19  1  0.36103300  0.45910900  0.99849200  1
  F  F20  1  0.66800900  0.11083400  0.41673100  1
  F  F21  1  0.88916600  0.33199100  0.08326900  1
  F  F22  1  0.33199100  0.88916600  0.58326900  1
  F  F23  1  0.11083400  0.66800900  0.91673100  1
  F  F24  1  0.21220200  0.06207300  0.41309500  1
  F  F25  1  0.93792700  0.78779800  0.08690500  1
  F  F26  1  0.78779800  0.93792700  0.58690500  1
  F  F27  1  0.06207300  0.21220200  0.91309500  1
  F  F28  1  0.34993700  0.08362800  0.26276600  1
  F  F29  1  0.91637200  0.65006300  0.23723400  1
  F  F30  1  0.65006300  0.91637200  0.73723400  1
  F  F31  1  0.08362800  0.34993700  0.76276600  1
  F  F32  1  0.02232000  0.27043400  0.30021400  1
  F  F33  1  0.72956600  0.97768000  0.19978600  1
  F  F34  1  0.97768000  0.72956600  0.69978600  1
  F  F35  1  0.27043400  0.02232000  0.80021400  1
  F  F36  1  0.04167000  0.99878400  0.36884800  1
  F  F37  1  0.00121600  0.95833000  0.13115200  1
  F  F38  1  0.95833000  0.00121600  0.63115200  1
  F  F39  1  0.99878400  0.04167000  0.86884800  1
  F  F40  1  0.36925900  0.81405800  0.33083900  1
  F  F41  1  0.18594200  0.63074100  0.16916100  1
  F  F42  1  0.63074100  0.18594200  0.66916100  1
  F  F43  1  0.81405800  0.36925900  0.83083900  1
  F  F44  1  0.17816100  0.02345100  0.21926600  1
  F  F45  1  0.97654900  0.82183900  0.28073400  1
  F  F46  1  0.82183900  0.97654900  0.78073400  1
  F  F47  1  0.02345100  0.17816100  0.71926600  1
loop_
_geom_bond_atom_site_label_1
_geom_bond_atom_site_label_2
_geom_bond_distance
_geom_bond_site_symmetry_2
O4 Pb7 2.340103 1_555
O4 Pb3 2.639967 1_555
O5 Pb6 2.340103 1_555
O5 Pb2 2.639967 1_555
O6 Pb5 2.340103 1_555
O6 Pb1 2.639967 1_555
O7 Pb4 2.340103 1_555
O7 Pb0 2.639967 1_555
O8 Pb5 2.706127 1_455
O8 Pb7 2.758351 1_555
O9 Pb4 2.706127 1_566
O9 Pb6 2.758351 1_555
O10 Pb7 2.706127 1_655
O10 Pb5 2.758351 1_555
O11 Pb6 2.706127 1_544
O11 Pb4 2.758351 1_555
O12 Pb5 2.354686 1_455
O12 Pb3 2.649755 1_555
O13 Pb4 2.354686 1_566
O13 Pb2 2.649755 1_555
O14 Pb7 2.354686 1_655
O14 Pb1 2.649755 1_555
O15 Pb6 2.354686 1_544
O15 Pb0 2.649755 1_555
F0 Si0 1.722964 1_555
F0 Pb5 2.747895 1_455
F1 Si1 1.722964 1_555
F1 Pb4 2.747895 1_565
F2 Si2 1.722964 1_555
F2 Pb7 2.747895 1_655
F3 Si3 1.722964 1_555
F3 Pb6 2.747895 1_545
F4 Si0 1.711328 1_555
F4 Pb0 2.457430 1_555
F5 Si1 1.711328 1_555
F5 Pb1 2.457430 1_555
F6 Si2 1.711328 1_555
F6 Pb2 2.457430 1_555
F7 Si3 1.711328 1_555
F7 Pb3 2.457430 1_555
F8 Si0 1.724108 1_555
F8 Pb1 2.488092 1_555
F9 Si1 1.724108 1_555
F9 Pb0 2.488092 1_555
F10 Si2 1.724108 1_555
F10 Pb3 2.488092 1_555
F11 Si3 1.724108 1_555
F11 Pb2 2.488092 1_555
F12 Si0 1.722562 1_555
F12 Pb7 2.669310 1_555
F13 Si1 1.722562 1_555
F13 Pb6 2.669310 1_554
F14 Si2 1.722562 1_555
F14 Pb5 2.669310 1_555
F15 Si3 1.722562 1_555
F15 Pb4 2.669310 1_556
F16 Si0 1.692754 1_555
F16 Pb3 2.758761 1_555
F17 Si1 1.692754 1_555
F17 Pb2 2.758761 1_554
F18 Si2 1.692754 1_555
F18 Pb1 2.758761 1_555
F19 Si3 1.692754 1_555
F19 Pb0 2.758761 1_556
F20 Si0 1.725599 1_555
F20 Pb5 2.357518 1_545
F21 Si1 1.725599 1_555
F21 Pb4 2.357518 1_655
F22 Si2 1.725599 1_555
F22 Pb7 2.357518 1_565
F23 Si3 1.725599 1_555
F23 Pb6 2.357518 1_455
F24 Si4 1.704792 1_555
F24 Pb7 2.586890 1_555
F25 Si5 1.704792 1_555
F25 Pb6 2.586890 1_554
F26 Si6 1.704792 1_555
F26 Pb5 2.586890 1_555
F27 Si7 1.704792 1_555
F27 Pb4 2.586890 1_556
F28 Si4 1.714442 1_555
F28 Pb0 2.585379 1_555
F29 Si5 1.714442 1_555
F29 Pb1 2.585379 1_555
F30 Si6 1.714442 1_555
F30 Pb2 2.585379 1_555
F31 Si7 1.714442 1_555
F31 Pb3 2.585379 1_555
F32 Si4 1.718321 1_555
F32 Pb1 2.570731 1_455
F33 Si5 1.718321 1_555
F33 Pb0 2.570731 1_565
F34 Si6 1.718321 1_555
F34 Pb3 2.570731 1_655
F35 Si7 1.718321 1_555
F35 Pb2 2.570731 1_545
F36 Si4 1.716259 1_565
F36 Pb5 2.743544 1_455
F37 Si5 1.716259 1_455
F37 Pb4 2.743544 1_565
F38 Si6 1.716259 1_545
F38 Pb7 2.743544 1_655
F39 Si7 1.716259 1_655
F39 Pb6 2.743544 1_545
F40 Si4 1.733930 1_565
F40 Pb1 2.577517 1_555
F41 Si5 1.733930 1_455
F41 Pb0 2.577517 1_555
F42 Si6 1.733930 1_545
F42 Pb3 2.577517 1_555
F43 Si7 1.733930 1_655
F43 Pb2 2.577517 1_555
F44 Si4 1.745283 1_555
F44 Pb4 2.567009 1_555
F45 Si5 1.745283 1_555
F45 Pb5 2.567009 1_555
F46 Si6 1.745283 1_555
F46 Pb6 2.567009 1_555
F47 Si7 1.745283 1_555
F47 Pb7 2.567009 1_555
