# generated using pymatgen
data_Zn2Hg2OF6
_symmetry_space_group_name_H-M   'P 1'
_cell_length_a   7.51796071
_cell_length_b   7.51796071
_cell_length_c   7.51796071
_cell_angle_alpha   60.00000000
_cell_angle_beta   60.00000000
_cell_angle_gamma   60.00000000
_symmetry_Int_Tables_number   1
_chemical_formula_structural   Zn2Hg2OF6
_chemical_formula_sum   'Zn4 Hg4 O2 F12'
_cell_volume   300.45895855
_cell_formula_units_Z   2
loop_
 _symmetry_equiv_pos_site_id
 _symmetry_equiv_pos_as_xyz
  1  'x, y, z'
loop_
 _atom_site_type_symbol
 _atom_site_label
 _atom_site_symmetry_multiplicity
 _atom_site_fract_x
 _atom_site_fract_y
 _atom_site_fract_z
 _atom_site_occupancy
  Zn  Zn0  1  0.12500000  0.12500000  0.62500000  1
  Zn  Zn1  1  0.12500000  0.62500000  0.12500000  1
  Zn  Zn2  1  0.62500000  0.12500000  0.12500000  1
  Zn  Zn3  1  0.12500000  0.12500000  0.12500000  1
  Hg  Hg0  1  0.62500000  0.62500000  0.12500000  1
  Hg  Hg1  1  0.62500000  0.12500000  0.62500000  1
  Hg  Hg2  1  0.12500000  0.62500000  0.62500000  1
  Hg  Hg3  1  0.62500000  0.62500000  0.62500000  1
  O  O0  1  0.75000000  0.75000000  0.75000000  1
  O  O1  1  0.50000000  0.50000000  0.50000000  1
  F  F0  1  0.04947800  0.45052200  0.04947800  1
  F  F1  1  0.79947800  0.20052200  0.79947800  1
  F  F2  1  0.04947800  0.04947800  0.45052200  1
  F  F3  1  0.45052200  0.04947800  0.04947800  1
  F  F4  1  0.04947800  0.45052200  0.45052200  1
  F  F5  1  0.45052200  0.45052200  0.04947800  1
  F  F6  1  0.45052200  0.04947800  0.45052200  1
  F  F7  1  0.20052200  0.79947800  0.79947800  1
  F  F8  1  0.79947800  0.20052200  0.20052200  1
  F  F9  1  0.20052200  0.79947800  0.20052200  1
  F  F10  1  0.79947800  0.79947800  0.20052200  1
  F  F11  1  0.20052200  0.20052200  0.79947800  1
loop_
_geom_bond_atom_site_label_1
_geom_bond_atom_site_label_2
_geom_bond_distance
_geom_bond_site_symmetry_2
Hg0 O1 2.301896 1_555
Hg0 O0 2.301896 1_554
Hg1 O0 2.301896 1_545
Hg1 O1 2.301896 1_555
Hg2 O1 2.301896 1_555
Hg2 O0 2.301896 1_455
Hg3 O1 2.301896 1_555
Hg3 O0 2.301896 1_555
F0 Zn3 2.043823 1_555
F0 Zn1 2.043823 1_555
F1 Zn2 2.043823 1_556
F1 Zn0 2.043823 1_655
F2 Zn3 2.043823 1_555
F2 Zn0 2.043823 1_555
F3 Zn3 2.043823 1_555
F3 Zn2 2.043823 1_555
F4 Zn0 2.043823 1_555
F4 Zn1 2.043823 1_555
F5 Zn1 2.043823 1_555
F5 Zn2 2.043823 1_555
F6 Zn2 2.043823 1_555
F6 Zn0 2.043823 1_555
F7 Zn0 2.043823 1_565
F7 Zn1 2.043823 1_556
F8 Zn2 2.043823 1_555
F8 Zn3 2.043823 1_655
F9 Zn1 2.043823 1_555
F9 Zn3 2.043823 1_565
F10 Zn1 2.043823 1_655
F10 Zn2 2.043823 1_565
F11 Zn0 2.043823 1_555
F11 Zn3 2.043823 1_556
