# generated using pymatgen
data_Zr3N4
_symmetry_space_group_name_H-M   'P 1'
_cell_length_a   5.86747035
_cell_length_b   5.86747032
_cell_length_c   5.86747062
_cell_angle_alpha   109.47122168
_cell_angle_beta   109.47122155
_cell_angle_gamma   109.47122486
_symmetry_Int_Tables_number   1
_chemical_formula_structural   Zr3N4
_chemical_formula_sum   'Zr6 N8'
_cell_volume   155.50014740
_cell_formula_units_Z   2
loop_
 _symmetry_equiv_pos_site_id
 _symmetry_equiv_pos_as_xyz
  1  'x, y, z'
loop_
 _atom_site_type_symbol
 _atom_site_label
 _atom_site_symmetry_multiplicity
 _atom_site_fract_x
 _atom_site_fract_y
 _atom_site_fract_z
 _atom_site_occupancy
  Zr  Zr0  1  0.75000000  0.87500000  0.12500000  1
  Zr  Zr1  1  0.62500000  0.37500000  0.25000000  1
  Zr  Zr2  1  0.87500000  0.12500000  0.75000000  1
  Zr  Zr3  1  0.12500000  0.75000000  0.87500000  1
  Zr  Zr4  1  0.37500000  0.25000000  0.62500000  1
  Zr  Zr5  1  0.25000000  0.62500000  0.37500000  1
  N  N0  1  0.63032569  0.63032569  0.63032569  1
  N  N1  1  0.36967431  0.50000000  -0.00000000  1
  N  N2  1  0.50000000  -0.00000000  0.36967431  1
  N  N3  1  -0.00000000  0.36967431  0.50000000  1
  N  N4  1  0.50000000  -0.00000000  0.86967431  1
  N  N5  1  -0.00000000  0.86967431  0.50000000  1
  N  N6  1  0.13032569  0.13032569  0.13032569  1
  N  N7  1  0.86967431  0.50000000  -0.00000000  1
loop_
_geom_bond_atom_site_label_1
_geom_bond_atom_site_label_2
_geom_bond_distance
_geom_bond_site_symmetry_2
N0 Zr4 2.217814 1_555
N0 Zr5 2.217814 1_555
N0 Zr1 2.217814 1_555
N0 Zr2 2.483911 1_565
N0 Zr3 2.483911 1_655
N0 Zr0 2.483912 1_556
N1 Zr0 2.217814 1_555
N1 Zr4 2.217814 1_554
N1 Zr1 2.217814 1_555
N1 Zr2 2.483911 1_454
N1 Zr3 2.483912 1_554
N1 Zr5 2.483912 1_555
N2 Zr5 2.217814 1_545
N2 Zr2 2.217814 1_555
N2 Zr4 2.217814 1_555
N2 Zr3 2.483911 1_544
N2 Zr1 2.483911 1_555
N2 Zr0 2.483912 1_545
N3 Zr3 2.217814 1_555
N3 Zr5 2.217814 1_555
N3 Zr1 2.217814 1_455
N3 Zr0 2.483911 1_445
N3 Zr4 2.483912 1_555
N3 Zr2 2.483912 1_455
N4 Zr3 2.217814 1_545
N4 Zr1 2.217814 1_556
N4 Zr0 2.217814 1_546
N4 Zr5 2.483911 1_545
N4 Zr2 2.483911 1_555
N4 Zr4 2.483912 1_555
N5 Zr4 2.217814 1_565
N5 Zr2 2.217814 1_465
N5 Zr0 2.217814 1_455
N5 Zr1 2.483911 1_455
N5 Zr5 2.483912 1_555
N5 Zr3 2.483912 1_555
N6 Zr0 2.217814 1_445
N6 Zr3 2.217814 1_544
N6 Zr2 2.217814 1_454
N6 Zr1 2.483911 1_555
N6 Zr5 2.483911 1_555
N6 Zr4 2.483912 1_555
N7 Zr5 2.217814 1_655
N7 Zr3 2.217814 1_654
N7 Zr2 2.217814 1_554
N7 Zr4 2.483911 1_554
N7 Zr0 2.483912 1_555
N7 Zr1 2.483912 1_555
