# generated using pymatgen
data_YMg5
_symmetry_space_group_name_H-M   'P 1'
_cell_length_a   5.73250323
_cell_length_b   5.73250323
_cell_length_c   5.15119476
_cell_angle_alpha   90.00000000
_cell_angle_beta   90.00000000
_cell_angle_gamma   119.99999781
_symmetry_Int_Tables_number   1
_chemical_formula_structural   YMg5
_chemical_formula_sum   'Y1 Mg5'
_cell_volume   146.59772404
_cell_formula_units_Z   1
loop_
 _symmetry_equiv_pos_site_id
 _symmetry_equiv_pos_as_xyz
  1  'x, y, z'
loop_
 _atom_site_type_symbol
 _atom_site_label
 _atom_site_symmetry_multiplicity
 _atom_site_fract_x
 _atom_site_fract_y
 _atom_site_fract_z
 _atom_site_occupancy
  Y  Y0  1  -0.00000000  -0.00000000  0.50000000  1
  Mg  Mg0  1  0.00000000  0.63833600  -0.00000000  1
  Mg  Mg1  1  0.63833600  0.00000000  -0.00000000  1
  Mg  Mg2  1  0.36166400  0.36166400  0.00000000  1
  Mg  Mg3  1  0.66666700  0.33333300  0.50000000  1
  Mg  Mg4  1  0.33333300  0.66666700  0.50000000  1
loop_
_geom_bond_atom_site_label_1
_geom_bond_atom_site_label_2
_geom_bond_distance
_geom_bond_site_symmetry_2
Mg0 Mg4 3.162440 1_555
Mg0 Mg4 3.162440 1_554
Mg0 Mg3 3.162441 1_455
Mg0 Mg3 3.162441 1_454
Mg0 Mg2 3.178364 1_555
Mg0 Mg2 3.178364 1_455
Mg0 Mg1 3.178364 1_455
Mg0 Mg1 3.178364 1_565
Mg0 Y0 3.306361 1_564
Mg0 Y0 3.306361 1_565
Mg1 Mg3 3.162440 1_554
Mg1 Mg3 3.162440 1_555
Mg1 Mg4 3.162441 1_545
Mg1 Mg4 3.162441 1_544
Mg1 Mg2 3.178364 1_555
Mg1 Mg2 3.178364 1_545
Mg1 Y0 3.306361 1_655
Mg1 Y0 3.306361 1_654
Mg2 Mg3 3.162443 1_554
Mg2 Mg4 3.162443 1_555
Mg2 Mg4 3.162443 1_554
Mg2 Mg3 3.162443 1_555
Mg2 Y0 3.306362 1_554
Mg2 Y0 3.306362 1_555
Mg3 Y0 3.309659 1_655
Mg3 Mg4 3.309659 1_545
Mg3 Mg4 3.309659 1_655
Mg3 Y0 3.309664 1_555
Mg3 Y0 3.309664 1_665
Mg3 Mg4 3.309669 1_555
Mg4 Y0 3.309659 1_565
Mg4 Y0 3.309664 1_555
Mg4 Y0 3.309664 1_665
