# generated using pymatgen
data_ZrP2N3O10
_symmetry_space_group_name_H-M   'P 1'
_cell_length_a   5.39382167
_cell_length_b   7.49366454
_cell_length_c   12.95184367
_cell_angle_alpha   84.07439236
_cell_angle_beta   95.59425025
_cell_angle_gamma   86.89981029
_symmetry_Int_Tables_number   1
_chemical_formula_structural   ZrP2N3O10
_chemical_formula_sum   'Zr2 P4 N6 O20'
_cell_volume   517.14050944
_cell_formula_units_Z   2
loop_
 _symmetry_equiv_pos_site_id
 _symmetry_equiv_pos_as_xyz
  1  'x, y, z'
loop_
 _atom_site_type_symbol
 _atom_site_label
 _atom_site_symmetry_multiplicity
 _atom_site_fract_x
 _atom_site_fract_y
 _atom_site_fract_z
 _atom_site_occupancy
  Zr  Zr0  1  0.01295400  0.74990300  0.34238900  1
  Zr  Zr1  1  0.59764500  0.14268800  0.92472800  1
  P  P0  1  0.10149100  0.33128300  0.05164300  1
  P  P1  1  0.54151400  0.93721900  0.48429300  1
  P  P2  1  0.07561300  0.98080900  0.77795100  1
  P  P3  1  0.51553100  0.47767700  0.27589500  1
  N  N0  1  0.57108000  0.48916200  0.62060200  1
  N  N1  1  0.12670600  0.30711700  0.68201800  1
  N  N2  1  0.25781200  0.64556500  0.10313100  1
  N  N3  1  0.68144000  0.90539800  0.15806700  1
  N  N4  1  0.06890600  0.23790600  0.41367100  1
  N  N5  1  0.55059400  0.57634000  0.81504900  1
  O  O0  1  0.28752700  0.57829500  0.31599000  1
  O  O1  1  0.78164600  0.86679600  0.44681500  1
  O  O2  1  0.85659400  0.02850300  0.84294000  1
  O  O3  1  0.30957700  0.86916800  0.43080800  1
  O  O4  1  0.55086400  0.42383200  0.80048800  1
  O  O5  1  0.86364100  0.31164900  0.97772900  1
  O  O6  1  0.06952600  0.40518200  0.60430500  1
  O  O7  1  0.53528600  0.05477100  0.56697100  1
  O  O8  1  0.91025300  0.91163000  0.20162100  1
  O  O9  1  0.57152600  0.63573500  0.64180500  1
  O  O10  1  0.66328500  0.95559000  0.06251000  1
  O  O11  1  0.32976600  0.26363700  0.99898000  1
  O  O12  1  0.74493600  0.59139600  0.30873200  1
  O  O13  1  0.12378600  0.56010600  0.03269500  1
  O  O14  1  0.09191400  0.27467600  0.16342800  1
  O  O15  1  0.02263000  0.13209600  0.67321200  1
  O  O16  1  0.32097800  0.03354600  0.83786500  1
  O  O17  1  0.08070300  0.80005200  0.74178800  1
  O  O18  1  0.47123600  0.52692200  0.14839200  1
  O  O19  1  0.56303900  0.28435100  0.30948800  1
loop_
_geom_bond_atom_site_label_1
_geom_bond_atom_site_label_2
_geom_bond_distance
_geom_bond_site_symmetry_2
N0 O9 1.159427 1_555
N1 O6 1.187639 1_555
N1 O15 1.465040 1_555
N2 O13 1.344279 1_555
N2 O18 1.452379 1_555
N3 O10 1.248632 1_555
N3 O8 1.311306 1_555
N5 O4 1.177300 1_555
O0 P3 1.567064 1_555
O0 Zr0 1.986831 1_555
O1 P1 1.514355 1_555
O1 Zr0 2.146759 1_655
O2 P2 1.562736 1_645
O2 Zr1 2.037516 1_555
O3 P1 1.509296 1_555
O3 Zr0 2.163045 1_555
O4 Zr1 2.500991 1_555
O5 P0 1.547271 1_656
O5 Zr1 2.077672 1_555
O7 P1 1.456834 1_545
O8 Zr0 2.091401 1_655
O10 Zr1 2.140601 1_564
O11 P0 1.551082 1_556
O11 Zr1 2.035507 1_555
O12 P3 1.588850 1_555
O12 Zr0 1.964827 1_655
O13 P0 1.719341 1_555
O14 P0 1.472732 1_555
O15 P2 1.667041 1_545
O16 P2 1.558699 1_545
O16 Zr1 2.038685 1_555
O17 P2 1.477961 1_555
O18 P3 1.645628 1_555
O19 P3 1.470279 1_555
