# generated using pymatgen
data_Sr2NbCrO6
_symmetry_space_group_name_H-M   'P 1'
_cell_length_a   8.01609300
_cell_length_b   8.01609300
_cell_length_c   9.81766838
_cell_angle_alpha   65.90515958
_cell_angle_beta   65.90515958
_cell_angle_gamma   90.00000000
_symmetry_Int_Tables_number   1
_chemical_formula_structural   Sr2NbCrO6
_chemical_formula_sum   'Sr8 Nb4 Cr4 O24'
_cell_volume   515.09607580
_cell_formula_units_Z   4
loop_
 _symmetry_equiv_pos_site_id
 _symmetry_equiv_pos_as_xyz
  1  'x, y, z'
loop_
 _atom_site_type_symbol
 _atom_site_label
 _atom_site_symmetry_multiplicity
 _atom_site_fract_x
 _atom_site_fract_y
 _atom_site_fract_z
 _atom_site_occupancy
  Sr  Sr0  1  0.62500000  0.62500000  0.25000000  1
  Sr  Sr1  1  0.87500000  0.37500000  0.75000000  1
  Sr  Sr2  1  0.12500000  0.12500000  0.25000000  1
  Sr  Sr3  1  0.37500000  0.87500000  0.75000000  1
  Sr  Sr4  1  0.37500000  0.37500000  0.75000000  1
  Sr  Sr5  1  0.62500000  0.12500000  0.25000000  1
  Sr  Sr6  1  0.87500000  0.87500000  0.75000000  1
  Sr  Sr7  1  0.12500000  0.62500000  0.25000000  1
  Nb  Nb0  1  0.25000000  0.75000000  0.50000000  1
  Nb  Nb1  1  0.50000000  0.50000000  0.00000000  1
  Nb  Nb2  1  0.75000000  0.25000000  0.50000000  1
  Nb  Nb3  1  0.00000000  0.00000000  0.00000000  1
  Cr  Cr0  1  0.75000000  0.75000000  0.50000000  1
  Cr  Cr1  1  0.00000000  0.50000000  0.00000000  1
  Cr  Cr2  1  0.50000000  0.00000000  0.00000000  1
  Cr  Cr3  1  0.25000000  0.25000000  0.50000000  1
  O  O0  1  0.50000000  0.75017100  0.00000000  1
  O  O1  1  0.75000000  0.50017100  0.50000000  1
  O  O2  1  0.00000000  0.25017100  0.00000000  1
  O  O3  1  0.25000000  0.00017100  0.50000000  1
  O  O4  1  0.50000000  0.24982900  0.00000000  1
  O  O5  1  0.75000000  0.99982900  0.50000000  1
  O  O6  1  0.00000000  0.74982900  0.00000000  1
  O  O7  1  0.25000000  0.49982900  0.50000000  1
  O  O8  1  0.37508500  0.87508500  0.24982900  1
  O  O9  1  0.62508500  0.62508500  0.74982900  1
  O  O10  1  0.87508500  0.37508500  0.24982900  1
  O  O11  1  0.12508500  0.12508500  0.74982900  1
  O  O12  1  0.62491500  0.12491500  0.75017100  1
  O  O13  1  0.87491500  0.87491500  0.25017100  1
  O  O14  1  0.12491500  0.62491500  0.75017100  1
  O  O15  1  0.37491500  0.37491500  0.25017100  1
  O  O16  1  0.74982900  0.00000000  0.00000000  1
  O  O17  1  0.99982900  0.75000000  0.50000000  1
  O  O18  1  0.24982900  0.50000000  0.00000000  1
  O  O19  1  0.49982900  0.25000000  0.50000000  1
  O  O20  1  0.25017100  0.00000000  0.00000000  1
  O  O21  1  0.50017100  0.75000000  0.50000000  1
  O  O22  1  0.75017100  0.50000000  0.00000000  1
  O  O23  1  0.00017100  0.25000000  0.50000000  1
loop_
_geom_bond_atom_site_label_1
_geom_bond_atom_site_label_2
_geom_bond_distance
_geom_bond_site_symmetry_2
Nb0 O3 2.005394 1_565
Nb0 O17 2.005394 1_455
Nb0 O21 2.005394 1_555
Nb0 O7 2.005394 1_555
Nb0 O14 2.005394 1_555
Nb0 O8 2.005394 1_555
Nb1 O22 2.005394 1_555
Nb1 O0 2.005394 1_555
Nb1 O4 2.005394 1_555
Nb1 O18 2.005394 1_555
Nb1 O15 2.005394 1_555
Nb1 O9 2.005394 1_554
Nb2 O23 2.005394 1_655
Nb2 O1 2.005394 1_555
Nb2 O5 2.005394 1_545
Nb2 O19 2.005394 1_555
Nb2 O12 2.005394 1_555
Nb2 O10 2.005394 1_555
Nb3 O20 2.005394 1_555
Nb3 O2 2.005394 1_555
Nb3 O6 2.005394 1_545
Nb3 O16 2.005394 1_455
Nb3 O13 2.005394 1_445
Nb3 O11 2.005394 1_554
Cr0 O5 2.002652 1_555
Cr0 O17 2.002652 1_555
Cr0 O1 2.002652 1_555
Cr0 O21 2.002652 1_555
Cr0 O9 2.002652 1_555
Cr0 O13 2.002652 1_555
Cr1 O6 2.002652 1_555
Cr1 O2 2.002652 1_555
Cr1 O18 2.002652 1_555
Cr1 O22 2.002652 1_455
Cr1 O10 2.002652 1_455
Cr1 O14 2.002652 1_554
Cr2 O16 2.002652 1_555
Cr2 O4 2.002652 1_555
Cr2 O20 2.002652 1_555
Cr2 O0 2.002652 1_545
Cr2 O8 2.002652 1_545
Cr2 O12 2.002652 1_554
Cr3 O19 2.002652 1_555
Cr3 O7 2.002652 1_555
Cr3 O3 2.002652 1_555
Cr3 O23 2.002652 1_555
Cr3 O11 2.002652 1_555
Cr3 O15 2.002652 1_555
O0 Sr3 2.834117 1_554
O0 Sr0 2.834117 1_555
O0 Sr6 2.834117 1_554
O0 Sr7 2.834117 1_555
O1 Sr0 2.834117 1_555
O1 Sr1 2.834117 1_555
O1 Sr7 2.834117 1_655
O1 Sr4 2.834117 1_555
O2 Sr1 2.834117 1_454
O2 Sr2 2.834117 1_555
O2 Sr4 2.834117 1_554
O2 Sr5 2.834117 1_455
O3 Sr2 2.834117 1_555
O3 Sr3 2.834117 1_545
O3 Sr5 2.834117 1_555
O3 Sr6 2.834117 1_445
O4 Sr5 2.834117 1_555
O4 Sr4 2.834117 1_554
O4 Sr2 2.834117 1_555
O4 Sr1 2.834117 1_554
O5 Sr6 2.834117 1_555
O5 Sr5 2.834117 1_565
O5 Sr3 2.834117 1_555
O5 Sr2 2.834117 1_665
O6 Sr7 2.834117 1_555
O6 Sr6 2.834117 1_454
O6 Sr0 2.834117 1_455
O6 Sr3 2.834117 1_554
O7 Sr4 2.834117 1_555
O7 Sr7 2.834117 1_555
O7 Sr1 2.834117 1_455
O7 Sr0 2.834117 1_555
O8 Sr7 2.834112 1_555
O8 Sr0 2.834117 1_555
O8 Sr2 2.834117 1_565
O8 Sr5 2.834123 1_565
O9 Sr4 2.834112 1_555
O9 Sr1 2.834117 1_555
O9 Sr3 2.834117 1_555
O9 Sr6 2.834123 1_555
O10 Sr5 2.834112 1_555
O10 Sr0 2.834117 1_555
O10 Sr2 2.834117 1_655
O10 Sr7 2.834123 1_655
O11 Sr6 2.834112 1_445
O11 Sr1 2.834117 1_455
O11 Sr3 2.834117 1_545
O11 Sr4 2.834123 1_555
O12 Sr1 2.834112 1_555
O12 Sr4 2.834117 1_555
O12 Sr6 2.834117 1_545
O12 Sr3 2.834123 1_545
O13 Sr2 2.834112 1_665
O13 Sr7 2.834117 1_655
O13 Sr5 2.834117 1_565
O13 Sr0 2.834123 1_555
O14 Sr3 2.834112 1_555
O14 Sr4 2.834117 1_555
O14 Sr6 2.834117 1_455
O14 Sr1 2.834123 1_455
O15 Sr0 2.834112 1_555
O15 Sr7 2.834117 1_555
O15 Sr5 2.834117 1_555
O15 Sr2 2.834123 1_555
O16 Sr5 2.834117 1_555
O16 Sr6 2.834117 1_544
O16 Sr0 2.834117 1_545
O16 Sr1 2.834117 1_554
O17 Sr6 2.834117 1_555
O17 Sr7 2.834117 1_655
O17 Sr1 2.834117 1_555
O17 Sr2 2.834117 1_665
O18 Sr7 2.834117 1_555
O18 Sr4 2.834117 1_554
O18 Sr2 2.834117 1_555
O18 Sr3 2.834117 1_554
O19 Sr4 2.834117 1_555
O19 Sr5 2.834117 1_555
O19 Sr3 2.834117 1_545
O19 Sr0 2.834117 1_555
O20 Sr3 2.834117 1_544
O20 Sr2 2.834117 1_555
O20 Sr4 2.834117 1_554
O20 Sr7 2.834117 1_545
O21 Sr0 2.834117 1_555
O21 Sr3 2.834117 1_555
O21 Sr5 2.834117 1_565
O21 Sr4 2.834117 1_555
O22 Sr1 2.834117 1_554
O22 Sr0 2.834117 1_555
O22 Sr6 2.834117 1_554
O22 Sr5 2.834117 1_555
O23 Sr2 2.834117 1_555
O23 Sr1 2.834117 1_455
O23 Sr7 2.834117 1_555
O23 Sr6 2.834117 1_445
