# generated using pymatgen
data_Ca3Ge3(MoO6)2
_symmetry_space_group_name_H-M   'P 1'
_cell_length_a   11.03095430
_cell_length_b   11.03095369
_cell_length_c   11.03095384
_cell_angle_alpha   109.47122089
_cell_angle_beta   109.47121977
_cell_angle_gamma   109.47121991
_symmetry_Int_Tables_number   1
_chemical_formula_structural   Ca3Ge3(MoO6)2
_chemical_formula_sum   'Ca12 Ge12 Mo8 O48'
_cell_volume   1033.27835184
_cell_formula_units_Z   4
loop_
 _symmetry_equiv_pos_site_id
 _symmetry_equiv_pos_as_xyz
  1  'x, y, z'
loop_
 _atom_site_type_symbol
 _atom_site_label
 _atom_site_symmetry_multiplicity
 _atom_site_fract_x
 _atom_site_fract_y
 _atom_site_fract_z
 _atom_site_occupancy
  Ca  Ca0  1  0.62500000  0.25000000  0.87500000  1
  Ca  Ca1  1  0.87500000  0.75000000  0.62500000  1
  Ca  Ca2  1  0.75000000  0.62500000  0.87500000  1
  Ca  Ca3  1  0.25000000  0.87500000  0.62500000  1
  Ca  Ca4  1  0.87500000  0.62500000  0.25000000  1
  Ca  Ca5  1  0.62500000  0.87500000  0.75000000  1
  Ca  Ca6  1  0.37500000  0.75000000  0.12500000  1
  Ca  Ca7  1  0.12500000  0.25000000  0.37500000  1
  Ca  Ca8  1  0.25000000  0.37500000  0.12500000  1
  Ca  Ca9  1  0.75000000  0.12500000  0.37500000  1
  Ca  Ca10  1  0.12500000  0.37500000  0.75000000  1
  Ca  Ca11  1  0.37500000  0.12500000  0.25000000  1
  Ge  Ge0  1  0.87500000  0.12500000  0.75000000  1
  Ge  Ge1  1  0.12500000  0.87500000  0.25000000  1
  Ge  Ge2  1  0.25000000  0.62500000  0.37500000  1
  Ge  Ge3  1  0.12500000  0.75000000  0.87500000  1
  Ge  Ge4  1  0.75000000  0.87500000  0.12500000  1
  Ge  Ge5  1  0.37500000  0.25000000  0.62500000  1
  Ge  Ge6  1  0.62500000  0.75000000  0.37500000  1
  Ge  Ge7  1  0.87500000  0.25000000  0.12500000  1
  Ge  Ge8  1  0.25000000  0.12500000  0.87500000  1
  Ge  Ge9  1  0.75000000  0.37500000  0.62500000  1
  Ge  Ge10  1  0.37500000  0.62500000  0.75000000  1
  Ge  Ge11  1  0.62500000  0.37500000  0.25000000  1
  Mo  Mo0  1  0.50000000  0.50000000  0.50000000  1
  Mo  Mo1  1  0.50000000  0.50000000  0.00000000  1
  Mo  Mo2  1  0.50000000  0.00000000  0.50000000  1
  Mo  Mo3  1  0.00000000  0.50000000  0.50000000  1
  Mo  Mo4  1  0.50000000  0.00000000  0.00000000  1
  Mo  Mo5  1  0.00000000  0.00000000  0.50000000  1
  Mo  Mo6  1  0.00000000  0.50000000  0.00000000  1
  Mo  Mo7  1  0.00000000  0.00000000  0.00000000  1
  O  O0  1  0.78927856  0.41205062  0.80858386  1
  O  O1  1  0.08794938  0.87722794  0.39653324  1
  O  O2  1  0.69141614  0.10346676  0.98069370  1
  O  O3  1  0.71072144  0.51930630  0.62277206  1
  O  O4  1  0.71072144  0.69141614  0.08794938  1
  O  O5  1  0.51930630  0.62277206  0.71072144  1
  O  O6  1  0.10346676  0.62277206  0.41205062  1
  O  O7  1  0.62277206  0.71072144  0.51930630  1
  O  O8  1  0.39653324  0.80858386  0.51930630  1
  O  O9  1  0.87722794  0.98069370  0.78927856  1
  O  O10  1  0.98069370  0.78927856  0.87722794  1
  O  O11  1  0.08794938  0.71072144  0.69141614  1
  O  O12  1  0.62277206  0.41205062  0.10346676  1
  O  O13  1  0.51930630  0.39653324  0.80858386  1
  O  O14  1  0.69141614  0.08794938  0.71072144  1
  O  O15  1  0.41205062  0.10346676  0.62277206  1
  O  O16  1  0.80858386  0.51930630  0.39653324  1
  O  O17  1  0.39653324  0.08794938  0.87722794  1
  O  O18  1  0.10346676  0.98069370  0.69141614  1
  O  O19  1  0.60346676  0.19141614  0.48069370  1
  O  O20  1  0.98069370  0.69141614  0.10346676  1
  O  O21  1  0.80858386  0.78927856  0.41205062  1
  O  O22  1  0.87722794  0.39653324  0.08794938  1
  O  O23  1  0.78927856  0.87722794  0.98069370  1
  O  O24  1  0.21072144  0.58794938  0.19141614  1
  O  O25  1  0.91205062  0.12277206  0.60346676  1
  O  O26  1  0.30858386  0.89653324  0.01930630  1
  O  O27  1  0.28927856  0.48069370  0.37722794  1
  O  O28  1  0.28927856  0.30858386  0.91205062  1
  O  O29  1  0.48069370  0.37722794  0.28927856  1
  O  O30  1  0.89653324  0.37722794  0.58794938  1
  O  O31  1  0.37722794  0.28927856  0.48069370  1
  O  O32  1  0.21072144  0.12277206  0.01930630  1
  O  O33  1  0.12277206  0.60346676  0.91205062  1
  O  O34  1  0.19141614  0.21072144  0.58794938  1
  O  O35  1  0.58794938  0.19141614  0.21072144  1
  O  O36  1  0.01930630  0.30858386  0.89653324  1
  O  O37  1  0.89653324  0.01930630  0.30858386  1
  O  O38  1  0.60346676  0.91205062  0.12277206  1
  O  O39  1  0.19141614  0.48069370  0.60346676  1
  O  O40  1  0.58794938  0.89653324  0.37722794  1
  O  O41  1  0.30858386  0.91205062  0.28927856  1
  O  O42  1  0.48069370  0.60346676  0.19141614  1
  O  O43  1  0.37722794  0.58794938  0.89653324  1
  O  O44  1  0.91205062  0.28927856  0.30858386  1
  O  O45  1  0.01930630  0.21072144  0.12277206  1
  O  O46  1  0.12277206  0.01930630  0.21072144  1
  O  O47  1  0.41205062  0.80858386  0.78927856  1
loop_
_geom_bond_atom_site_label_1
_geom_bond_atom_site_label_2
_geom_bond_distance
_geom_bond_site_symmetry_2
Ca0 O2 2.446476 1_555
Ca0 O13 2.446476 1_555
Ca0 O15 2.446483 1_555
Ca0 O22 2.446483 1_556
Ca0 O12 2.571900 1_556
Ca0 O14 2.571900 1_555
Ca0 O0 2.571900 1_555
Ca0 O17 2.571901 1_555
Ca1 O10 2.446482 1_555
Ca1 O7 2.446482 1_555
Ca1 O21 2.446483 1_555
Ca1 O11 2.446483 1_655
Ca1 O9 2.571892 1_555
Ca1 O3 2.571892 1_555
Ca1 O16 2.571894 1_555
Ca1 O18 2.571894 1_655
Ca2 O23 2.446482 1_555
Ca2 O3 2.446482 1_555
Ca2 O0 2.446483 1_555
Ca2 O4 2.446483 1_556
Ca2 O10 2.571892 1_555
Ca2 O5 2.571892 1_555
Ca2 O13 2.571894 1_555
Ca2 O20 2.571894 1_556
Ca3 O18 2.446476 1_555
Ca3 O8 2.446476 1_555
Ca3 O6 2.446483 1_555
Ca3 O17 2.446483 1_565
Ca3 O15 2.571900 1_565
Ca3 O11 2.571900 1_555
Ca3 O47 2.571900 1_555
Ca3 O1 2.571900 1_555
Ca4 O16 2.446476 1_555
Ca4 O20 2.446476 1_555
Ca4 O1 2.446483 1_655
Ca4 O12 2.446483 1_555
Ca4 O22 2.571900 1_555
Ca4 O21 2.571900 1_555
Ca4 O4 2.571900 1_555
Ca4 O6 2.571901 1_655
Ca5 O5 2.446482 1_555
Ca5 O9 2.446482 1_555
Ca5 O14 2.446483 1_565
Ca5 O47 2.446483 1_555
Ca5 O7 2.571892 1_555
Ca5 O23 2.571892 1_555
Ca5 O2 2.571894 1_565
Ca5 O8 2.571894 1_555
Ca6 O26 2.446476 1_555
Ca6 O42 2.446476 1_555
Ca6 O40 2.446483 1_555
Ca6 O33 2.446483 1_554
Ca6 O43 2.571900 1_554
Ca6 O41 2.571900 1_555
Ca6 O24 2.571900 1_555
Ca6 O38 2.571901 1_555
Ca7 O45 2.446482 1_555
Ca7 O31 2.446482 1_555
Ca7 O34 2.446483 1_555
Ca7 O44 2.446483 1_455
Ca7 O46 2.571892 1_555
Ca7 O27 2.571892 1_555
Ca7 O39 2.571894 1_555
Ca7 O37 2.571894 1_455
Ca8 O32 2.446482 1_555
Ca8 O27 2.446482 1_555
Ca8 O24 2.446483 1_555
Ca8 O28 2.446483 1_554
Ca8 O45 2.571892 1_555
Ca8 O29 2.571892 1_555
Ca8 O42 2.571894 1_555
Ca8 O36 2.571894 1_554
Ca9 O37 2.446476 1_555
Ca9 O19 2.446476 1_555
Ca9 O30 2.446483 1_555
Ca9 O38 2.446483 1_545
Ca9 O40 2.571900 1_545
Ca9 O44 2.571900 1_555
Ca9 O35 2.571900 1_555
Ca9 O25 2.571900 1_555
Ca10 O39 2.446476 1_555
Ca10 O36 2.446476 1_555
Ca10 O25 2.446483 1_455
Ca10 O43 2.446483 1_555
Ca10 O33 2.571900 1_555
Ca10 O34 2.571900 1_555
Ca10 O28 2.571900 1_555
Ca10 O30 2.571901 1_455
Ca11 O29 2.446482 1_555
Ca11 O46 2.446482 1_555
Ca11 O41 2.446483 1_545
Ca11 O35 2.446483 1_555
Ca11 O31 2.571892 1_555
Ca11 O32 2.571892 1_555
Ca11 O26 2.571894 1_545
Ca11 O19 2.571894 1_555
Ge0 O25 1.789142 1_555
Ge0 O14 1.789142 1_555
Ge0 O36 1.789144 1_655
Ge0 O9 1.789153 1_545
Ge1 O1 1.789142 1_555
Ge1 O41 1.789142 1_555
Ge1 O20 1.789144 1_455
Ge1 O46 1.789153 1_565
Ge2 O24 1.789142 1_555
Ge2 O6 1.789142 1_555
Ge2 O8 1.789144 1_555
Ge2 O27 1.789153 1_555
Ge3 O33 1.789142 1_555
Ge3 O11 1.789142 1_555
Ge3 O26 1.789144 1_556
Ge3 O10 1.789153 1_455
Ge4 O4 1.789142 1_555
Ge4 O38 1.789142 1_555
Ge4 O37 1.789144 1_565
Ge4 O23 1.789153 1_554
Ge5 O15 1.789142 1_555
Ge5 O34 1.789142 1_555
Ge5 O13 1.789144 1_555
Ge5 O31 1.789153 1_555
Ge6 O40 1.789142 1_555
Ge6 O21 1.789142 1_555
Ge6 O42 1.789144 1_555
Ge6 O7 1.789153 1_555
Ge7 O22 1.789142 1_555
Ge7 O44 1.789142 1_555
Ge7 O2 1.789144 1_554
Ge7 O45 1.789153 1_655
Ge8 O28 1.789142 1_555
Ge8 O17 1.789142 1_555
Ge8 O18 1.789144 1_545
Ge8 O32 1.789153 1_556
Ge9 O0 1.789142 1_555
Ge9 O30 1.789142 1_555
Ge9 O19 1.789144 1_555
Ge9 O3 1.789153 1_555
Ge10 O47 1.789142 1_555
Ge10 O43 1.789142 1_555
Ge10 O39 1.789144 1_555
Ge10 O5 1.789153 1_555
Ge11 O35 1.789142 1_555
Ge11 O12 1.789142 1_555
Ge11 O16 1.789144 1_555
Ge11 O29 1.789153 1_555
Mo0 O29 2.159075 1_555
Mo0 O5 2.159075 1_555
Mo0 O31 2.159075 1_555
Mo0 O7 2.159075 1_555
Mo0 O27 2.159075 1_555
Mo0 O3 2.159075 1_555
Mo1 O12 2.159080 1_555
Mo1 O43 2.159080 1_554
Mo1 O28 2.159080 1_554
Mo1 O4 2.159080 1_555
Mo1 O13 2.159087 1_554
Mo1 O42 2.159087 1_555
Mo2 O15 2.159080 1_555
Mo2 O40 2.159080 1_545
Mo2 O41 2.159080 1_545
Mo2 O14 2.159080 1_555
Mo2 O8 2.159087 1_545
Mo2 O19 2.159087 1_555
Mo3 O44 2.159080 1_455
Mo3 O11 2.159080 1_555
Mo3 O6 2.159080 1_555
Mo3 O30 2.159080 1_455
Mo3 O39 2.159087 1_555
Mo3 O16 2.159087 1_455
Mo4 O47 2.159080 1_544
Mo4 O35 2.159080 1_555
Mo4 O17 2.159080 1_554
Mo4 O38 2.159080 1_545
Mo4 O26 2.159087 1_545
Mo4 O2 2.159087 1_554
Mo5 O25 2.159080 1_455
Mo5 O1 2.159080 1_545
Mo5 O34 2.159080 1_555
Mo5 O21 2.159080 1_445
Mo5 O37 2.159087 1_455
Mo5 O18 2.159087 1_545
Mo6 O33 2.159080 1_554
Mo6 O22 2.159080 1_455
Mo6 O0 2.159080 1_454
Mo6 O24 2.159080 1_555
Mo6 O36 2.159087 1_554
Mo6 O20 2.159087 1_455
Mo7 O45 2.159075 1_555
Mo7 O10 2.159075 1_444
Mo7 O9 2.159075 1_444
Mo7 O46 2.159075 1_555
Mo7 O32 2.159075 1_555
Mo7 O23 2.159075 1_444
