# generated using pymatgen
data_Nd2UTe5
_symmetry_space_group_name_H-M   'P 1'
_cell_length_a   4.40696800
_cell_length_b   4.42118700
_cell_length_c   26.89125200
_cell_angle_alpha   90.00000000
_cell_angle_beta   90.00000000
_cell_angle_gamma   90.00000000
_symmetry_Int_Tables_number   1
_chemical_formula_structural   Nd2UTe5
_chemical_formula_sum   'Nd4 U2 Te10'
_cell_volume   523.94995078
_cell_formula_units_Z   2
loop_
 _symmetry_equiv_pos_site_id
 _symmetry_equiv_pos_as_xyz
  1  'x, y, z'
loop_
 _atom_site_type_symbol
 _atom_site_label
 _atom_site_symmetry_multiplicity
 _atom_site_fract_x
 _atom_site_fract_y
 _atom_site_fract_z
 _atom_site_occupancy
  Nd  Nd0  1  0.50000000  0.50000000  0.09022400  1
  Nd  Nd1  1  0.50000000  0.50000000  0.42085900  1
  Nd  Nd2  1  0.50000000  0.50000000  0.75316600  1
  Nd  Nd3  1  0.00000000  0.00000000  0.24698400  1
  U  U0  1  0.00000000  0.00000000  0.57814300  1
  U  U1  1  0.00000000  0.00000000  0.91019200  1
  Te  Te0  1  0.50000000  0.50000000  0.21299800  1
  Te  Te1  1  0.50000000  0.50000000  0.54719200  1
  Te  Te2  1  0.50000000  0.50000000  0.87806600  1
  Te  Te3  1  0.00000000  0.00000000  0.12376700  1
  Te  Te4  1  0.00000000  0.00000000  0.45605500  1
  Te  Te5  1  0.00000000  0.00000000  0.78908100  1
  Te  Te6  1  0.00000000  0.50000000  0.99708500  1
  Te  Te7  1  0.00000000  0.50000000  0.33398300  1
  Te  Te8  1  0.00000000  0.50000000  0.66515000  1
  Te  Te9  1  0.50000000  0.00000000  0.99705600  1
loop_
_geom_bond_atom_site_label_1
_geom_bond_atom_site_label_2
_geom_bond_distance
_geom_bond_site_symmetry_2
Nd0 Te3 3.248953 1_555
Nd0 Te3 3.248953 1_565
Nd0 Te3 3.248953 1_665
Nd0 Te3 3.248953 1_655
Nd0 Te0 3.301547 1_555
Nd0 Te6 3.335938 1_654
Nd0 Te6 3.335938 1_554
Nd0 Te9 3.341223 1_564
Nd0 Te9 3.341223 1_554
Nd1 Te7 3.211416 1_555
Nd1 Te7 3.211416 1_655
Nd1 Te4 3.261573 1_665
Nd1 Te4 3.261573 1_565
Nd1 Te4 3.261573 1_555
Nd1 Te4 3.261573 1_655
Nd1 Te1 3.397253 1_555
Nd2 Te8 3.233786 1_555
Nd2 Te8 3.233786 1_655
Nd2 Te5 3.267236 1_665
Nd2 Te5 3.267236 1_565
Nd2 Te5 3.267236 1_555
Nd2 Te5 3.267236 1_655
Nd2 Te2 3.358717 1_555
Nd3 Te7 3.218702 1_555
Nd3 Te7 3.218702 1_545
Nd3 Te0 3.252280 1_455
Nd3 Te0 3.252280 1_445
Nd3 Te0 3.252280 1_555
Nd3 Te0 3.252280 1_545
Nd3 Te3 3.313459 1_555
Te1 U0 3.230295 1_565
Te1 U0 3.230295 1_555
Te1 U0 3.230295 1_655
Te1 U0 3.230295 1_665
Te2 U1 3.238580 1_555
Te2 U1 3.238580 1_565
Te2 U1 3.238580 1_655
Te2 U1 3.238580 1_665
Te4 U0 3.283099 1_555
Te5 U1 3.256826 1_555
Te6 Te9 3.121228 1_555
Te6 Te9 3.121228 1_565
Te6 Te9 3.121228 1_455
Te6 Te9 3.121228 1_465
Te6 U1 3.216630 1_555
Te6 U1 3.216630 1_565
Te8 U0 3.218858 1_565
Te8 U0 3.218858 1_555
Te9 U1 3.211181 1_555
Te9 U1 3.211181 1_655
