# generated using pymatgen
data_EuAlGa
_symmetry_space_group_name_H-M   'P 1'
_cell_length_a   5.89602111
_cell_length_b   5.89602111
_cell_length_c   7.60107846
_cell_angle_alpha   50.21559431
_cell_angle_beta   50.21559431
_cell_angle_gamma   46.49401134
_symmetry_Int_Tables_number   1
_chemical_formula_structural   EuAlGa
_chemical_formula_sum   'Eu2 Al2 Ga2'
_cell_volume   137.53139427
_cell_formula_units_Z   2
loop_
 _symmetry_equiv_pos_site_id
 _symmetry_equiv_pos_as_xyz
  1  'x, y, z'
loop_
 _atom_site_type_symbol
 _atom_site_label
 _atom_site_symmetry_multiplicity
 _atom_site_fract_x
 _atom_site_fract_y
 _atom_site_fract_z
 _atom_site_occupancy
  Eu  Eu0  1  0.46220800  0.46220800  0.78832400  1
  Eu  Eu1  1  0.53779200  0.53779200  0.21167600  1
  Al  Al0  1  0.83539900  0.83539900  0.61042200  1
  Al  Al1  1  0.16460100  0.16460100  0.38957800  1
  Ga  Ga0  1  0.16328500  0.16328500  0.78364600  1
  Ga  Ga1  1  0.83671500  0.83671500  0.21635400  1
loop_
_geom_bond_atom_site_label_1
_geom_bond_atom_site_label_2
_geom_bond_distance
_geom_bond_site_symmetry_2
Eu0 Ga0 3.170998 1_565
Eu0 Ga0 3.170998 1_655
Eu0 Ga0 3.263595 1_555
Eu0 Ga1 3.285446 1_555
Eu0 Ga1 3.418738 1_546
Eu0 Ga1 3.418738 1_456
Eu1 Ga1 3.170998 1_455
Eu1 Ga1 3.170998 1_545
Eu1 Ga1 3.263595 1_555
Eu1 Ga0 3.285446 1_555
Eu1 Ga0 3.418738 1_654
Eu1 Ga0 3.418738 1_564
Al0 Al1 2.683303 1_665
Al0 Ga0 2.684523 1_565
Al0 Ga0 2.684523 1_655
Al0 Ga1 2.985429 1_555
Al0 Eu1 3.186369 1_565
Al0 Eu1 3.186369 1_655
Al0 Eu0 3.249893 1_555
Al0 Eu1 3.279877 1_556
Al0 Eu0 3.423399 1_655
Al0 Eu0 3.423399 1_565
Al1 Ga1 2.684523 1_455
Al1 Ga1 2.684523 1_545
Al1 Ga0 2.985429 1_555
Al1 Eu0 3.186369 1_455
Al1 Eu0 3.186369 1_545
Al1 Eu1 3.249893 1_555
Al1 Eu0 3.279877 1_554
Al1 Eu1 3.423399 1_455
Al1 Eu1 3.423399 1_545
Ga0 Ga1 2.669725 1_446
