# generated using pymatgen
data_Tb5(In2Pt)2
_symmetry_space_group_name_H-M   'P 1'
_cell_length_a   7.29672854
_cell_length_b   16.17792496
_cell_length_c   36.45852114
_cell_angle_alpha   90.00000000
_cell_angle_beta   90.00000000
_cell_angle_gamma   90.00000000
_symmetry_Int_Tables_number   1
_chemical_formula_structural   Tb5(In2Pt)2
_chemical_formula_sum   'Tb80 In64 Pt32'
_cell_volume   4303.77991677
_cell_formula_units_Z   16
loop_
 _symmetry_equiv_pos_site_id
 _symmetry_equiv_pos_as_xyz
  1  'x, y, z'
loop_
 _atom_site_type_symbol
 _atom_site_label
 _atom_site_symmetry_multiplicity
 _atom_site_fract_x
 _atom_site_fract_y
 _atom_site_fract_z
 _atom_site_occupancy
  Tb  Tb0_0  1  0.00000000  0.05779204  0.20776100  1
  Tb  Tb0_1  1  0.00000000  0.05779204  0.70776100  1
  Tb  Tb0_2  1  0.00000000  0.55779204  0.20776100  1
  Tb  Tb0_3  1  0.00000000  0.55779204  0.70776100  1
  Tb  Tb0_4  1  0.50000000  0.05779204  0.20776100  1
  Tb  Tb0_5  1  0.50000000  0.05779204  0.70776100  1
  Tb  Tb0_6  1  0.50000000  0.55779204  0.20776100  1
  Tb  Tb0_7  1  0.50000000  0.55779204  0.70776100  1
  Tb  Tb1_0  1  0.00000000  0.44220796  0.29223900  1
  Tb  Tb1_1  1  0.00000000  0.44220796  0.79223900  1
  Tb  Tb1_2  1  0.00000000  0.94220796  0.29223900  1
  Tb  Tb1_3  1  0.00000000  0.94220796  0.79223900  1
  Tb  Tb1_4  1  0.50000000  0.44220796  0.29223900  1
  Tb  Tb1_5  1  0.50000000  0.44220796  0.79223900  1
  Tb  Tb1_6  1  0.50000000  0.94220796  0.29223900  1
  Tb  Tb1_7  1  0.50000000  0.94220796  0.79223900  1
  Tb  Tb2_0  1  0.00000000  0.19220796  0.45776100  1
  Tb  Tb2_1  1  0.00000000  0.19220796  0.95776100  1
  Tb  Tb2_2  1  0.00000000  0.69220796  0.45776100  1
  Tb  Tb2_3  1  0.00000000  0.69220796  0.95776100  1
  Tb  Tb2_4  1  0.50000000  0.19220796  0.45776100  1
  Tb  Tb2_5  1  0.50000000  0.19220796  0.95776100  1
  Tb  Tb2_6  1  0.50000000  0.69220796  0.45776100  1
  Tb  Tb2_7  1  0.50000000  0.69220796  0.95776100  1
  Tb  Tb3_0  1  0.00000000  0.30779204  0.04223901  1
  Tb  Tb3_1  1  0.00000000  0.30779204  0.54223900  1
  Tb  Tb3_2  1  0.00000000  0.80779204  0.04223901  1
  Tb  Tb3_3  1  0.00000000  0.80779204  0.54223900  1
  Tb  Tb3_4  1  0.50000000  0.30779204  0.04223901  1
  Tb  Tb3_5  1  0.50000000  0.30779204  0.54223900  1
  Tb  Tb3_6  1  0.50000000  0.80779204  0.04223901  1
  Tb  Tb3_7  1  0.50000000  0.80779204  0.54223900  1
  Tb  Tb4_0  1  0.00000000  0.12146464  0.11013060  1
  Tb  Tb4_1  1  0.00000000  0.12146464  0.61013060  1
  Tb  Tb4_2  1  0.00000000  0.62146464  0.11013060  1
  Tb  Tb4_3  1  0.00000000  0.62146464  0.61013060  1
  Tb  Tb4_4  1  0.50000000  0.12146464  0.11013060  1
  Tb  Tb4_5  1  0.50000000  0.12146464  0.61013060  1
  Tb  Tb4_6  1  0.50000000  0.62146464  0.11013060  1
  Tb  Tb4_7  1  0.50000000  0.62146464  0.61013060  1
  Tb  Tb5_0  1  0.00000000  0.37853536  0.38986940  1
  Tb  Tb5_1  1  0.00000000  0.37853536  0.88986940  1
  Tb  Tb5_2  1  0.00000000  0.87853536  0.38986940  1
  Tb  Tb5_3  1  0.00000000  0.87853536  0.88986940  1
  Tb  Tb5_4  1  0.50000000  0.37853536  0.38986940  1
  Tb  Tb5_5  1  0.50000000  0.37853536  0.88986940  1
  Tb  Tb5_6  1  0.50000000  0.87853536  0.38986940  1
  Tb  Tb5_7  1  0.50000000  0.87853536  0.88986940  1
  Tb  Tb6_0  1  0.00000000  0.12853535  0.36013060  1
  Tb  Tb6_1  1  0.00000000  0.12853535  0.86013060  1
  Tb  Tb6_2  1  0.00000000  0.62853535  0.36013060  1
  Tb  Tb6_3  1  0.00000000  0.62853535  0.86013060  1
  Tb  Tb6_4  1  0.50000000  0.12853535  0.36013060  1
  Tb  Tb6_5  1  0.50000000  0.12853535  0.86013060  1
  Tb  Tb6_6  1  0.50000000  0.62853535  0.36013060  1
  Tb  Tb6_7  1  0.50000000  0.62853535  0.86013060  1
  Tb  Tb7_0  1  0.00000000  0.37146464  0.13986940  1
  Tb  Tb7_1  1  0.00000000  0.37146464  0.63986939  1
  Tb  Tb7_2  1  0.00000000  0.87146464  0.13986940  1
  Tb  Tb7_3  1  0.00000000  0.87146464  0.63986939  1
  Tb  Tb7_4  1  0.50000000  0.37146464  0.13986940  1
  Tb  Tb7_5  1  0.50000000  0.37146464  0.63986939  1
  Tb  Tb7_6  1  0.50000000  0.87146464  0.13986940  1
  Tb  Tb7_7  1  0.50000000  0.87146464  0.63986939  1
  Tb  Tb8_0  1  0.00000000  0.00000000  0.00000000  1
  Tb  Tb8_1  1  0.00000000  0.00000000  0.50000000  1
  Tb  Tb8_2  1  0.00000000  0.50000000  0.00000000  1
  Tb  Tb8_3  1  0.00000000  0.50000000  0.50000000  1
  Tb  Tb8_4  1  0.50000000  0.00000000  0.00000000  1
  Tb  Tb8_5  1  0.50000000  0.00000000  0.50000000  1
  Tb  Tb8_6  1  0.50000000  0.50000000  0.00000000  1
  Tb  Tb8_7  1  0.50000000  0.50000000  0.50000000  1
  Tb  Tb9_0  1  0.00000000  0.25000000  0.25000000  1
  Tb  Tb9_1  1  0.00000000  0.25000000  0.75000000  1
  Tb  Tb9_2  1  0.00000000  0.75000000  0.25000000  1
  Tb  Tb9_3  1  0.00000000  0.75000000  0.75000000  1
  Tb  Tb9_4  1  0.50000000  0.25000000  0.25000000  1
  Tb  Tb9_5  1  0.50000000  0.25000000  0.75000000  1
  Tb  Tb9_6  1  0.50000000  0.75000000  0.25000000  1
  Tb  Tb9_7  1  0.50000000  0.75000000  0.75000000  1
  In  In0_0  1  0.25000000  0.21239171  0.17560143  1
  In  In0_1  1  0.25000000  0.21239171  0.67560143  1
  In  In0_2  1  0.25000000  0.71239171  0.17560143  1
  In  In0_3  1  0.25000000  0.71239171  0.67560143  1
  In  In0_4  1  0.75000000  0.21239171  0.17560143  1
  In  In0_5  1  0.75000000  0.21239171  0.67560143  1
  In  In0_6  1  0.75000000  0.71239171  0.17560143  1
  In  In0_7  1  0.75000000  0.71239171  0.67560143  1
  In  In1_0  1  0.25000000  0.28760829  0.32439857  1
  In  In1_1  1  0.25000000  0.28760829  0.82439857  1
  In  In1_2  1  0.25000000  0.78760829  0.32439857  1
  In  In1_3  1  0.25000000  0.78760829  0.82439857  1
  In  In1_4  1  0.75000000  0.28760829  0.32439857  1
  In  In1_5  1  0.75000000  0.28760829  0.82439857  1
  In  In1_6  1  0.75000000  0.78760829  0.32439857  1
  In  In1_7  1  0.75000000  0.78760829  0.82439857  1
  In  In2_0  1  0.25000000  0.03760829  0.42560143  1
  In  In2_1  1  0.25000000  0.03760829  0.92560143  1
  In  In2_2  1  0.25000000  0.53760829  0.42560143  1
  In  In2_3  1  0.25000000  0.53760829  0.92560143  1
  In  In2_4  1  0.75000000  0.03760829  0.42560143  1
  In  In2_5  1  0.75000000  0.03760829  0.92560143  1
  In  In2_6  1  0.75000000  0.53760829  0.42560143  1
  In  In2_7  1  0.75000000  0.53760829  0.92560143  1
  In  In3_0  1  0.25000000  0.46239171  0.07439857  1
  In  In3_1  1  0.25000000  0.46239171  0.57439857  1
  In  In3_2  1  0.25000000  0.96239171  0.07439857  1
  In  In3_3  1  0.25000000  0.96239171  0.57439857  1
  In  In3_4  1  0.75000000  0.46239171  0.07439857  1
  In  In3_5  1  0.75000000  0.46239171  0.57439857  1
  In  In3_6  1  0.75000000  0.96239171  0.07439857  1
  In  In3_7  1  0.75000000  0.96239171  0.57439857  1
  In  In4_0  1  0.25000000  0.14501412  0.03402045  1
  In  In4_1  1  0.25000000  0.14501412  0.53402045  1
  In  In4_2  1  0.25000000  0.64501412  0.03402045  1
  In  In4_3  1  0.25000000  0.64501412  0.53402045  1
  In  In4_4  1  0.75000000  0.14501412  0.03402045  1
  In  In4_5  1  0.75000000  0.14501412  0.53402045  1
  In  In4_6  1  0.75000000  0.64501412  0.03402045  1
  In  In4_7  1  0.75000000  0.64501412  0.53402045  1
  In  In5_0  1  0.25000000  0.35498588  0.46597955  1
  In  In5_1  1  0.25000000  0.35498588  0.96597955  1
  In  In5_2  1  0.25000000  0.85498588  0.46597955  1
  In  In5_3  1  0.25000000  0.85498588  0.96597955  1
  In  In5_4  1  0.75000000  0.35498588  0.46597955  1
  In  In5_5  1  0.75000000  0.35498588  0.96597955  1
  In  In5_6  1  0.75000000  0.85498588  0.46597955  1
  In  In5_7  1  0.75000000  0.85498588  0.96597955  1
  In  In6_0  1  0.25000000  0.10498588  0.28402045  1
  In  In6_1  1  0.25000000  0.10498588  0.78402045  1
  In  In6_2  1  0.25000000  0.60498588  0.28402045  1
  In  In6_3  1  0.25000000  0.60498588  0.78402045  1
  In  In6_4  1  0.75000000  0.10498588  0.28402045  1
  In  In6_5  1  0.75000000  0.10498588  0.78402045  1
  In  In6_6  1  0.75000000  0.60498588  0.28402045  1
  In  In6_7  1  0.75000000  0.60498588  0.78402045  1
  In  In7_0  1  0.25000000  0.39501412  0.21597955  1
  In  In7_1  1  0.25000000  0.39501412  0.71597955  1
  In  In7_2  1  0.25000000  0.89501412  0.21597955  1
  In  In7_3  1  0.25000000  0.89501412  0.71597955  1
  In  In7_4  1  0.75000000  0.39501412  0.21597955  1
  In  In7_5  1  0.75000000  0.39501412  0.71597955  1
  In  In7_6  1  0.75000000  0.89501412  0.21597955  1
  In  In7_7  1  0.75000000  0.89501412  0.71597955  1
  Pt  Pt0_0  1  0.25000000  0.01300607  0.15191127  1
  Pt  Pt0_1  1  0.25000000  0.01300607  0.65191127  1
  Pt  Pt0_2  1  0.25000000  0.51300607  0.15191127  1
  Pt  Pt0_3  1  0.25000000  0.51300607  0.65191127  1
  Pt  Pt0_4  1  0.75000000  0.01300607  0.15191127  1
  Pt  Pt0_5  1  0.75000000  0.01300607  0.65191127  1
  Pt  Pt0_6  1  0.75000000  0.51300607  0.15191127  1
  Pt  Pt0_7  1  0.75000000  0.51300607  0.65191127  1
  Pt  Pt1_0  1  0.25000000  0.48699393  0.34808873  1
  Pt  Pt1_1  1  0.25000000  0.48699393  0.84808873  1
  Pt  Pt1_2  1  0.25000000  0.98699393  0.34808873  1
  Pt  Pt1_3  1  0.25000000  0.98699393  0.84808873  1
  Pt  Pt1_4  1  0.75000000  0.48699393  0.34808873  1
  Pt  Pt1_5  1  0.75000000  0.48699393  0.84808873  1
  Pt  Pt1_6  1  0.75000000  0.98699393  0.34808873  1
  Pt  Pt1_7  1  0.75000000  0.98699393  0.84808873  1
  Pt  Pt2_0  1  0.25000000  0.23699393  0.40191127  1
  Pt  Pt2_1  1  0.25000000  0.23699393  0.90191127  1
  Pt  Pt2_2  1  0.25000000  0.73699393  0.40191127  1
  Pt  Pt2_3  1  0.25000000  0.73699393  0.90191127  1
  Pt  Pt2_4  1  0.75000000  0.23699393  0.40191127  1
  Pt  Pt2_5  1  0.75000000  0.23699393  0.90191127  1
  Pt  Pt2_6  1  0.75000000  0.73699393  0.40191127  1
  Pt  Pt2_7  1  0.75000000  0.73699393  0.90191127  1
  Pt  Pt3_0  1  0.25000000  0.26300607  0.09808873  1
  Pt  Pt3_1  1  0.25000000  0.26300607  0.59808873  1
  Pt  Pt3_2  1  0.25000000  0.76300607  0.09808873  1
  Pt  Pt3_3  1  0.25000000  0.76300607  0.59808873  1
  Pt  Pt3_4  1  0.75000000  0.26300607  0.09808873  1
  Pt  Pt3_5  1  0.75000000  0.26300607  0.59808873  1
  Pt  Pt3_6  1  0.75000000  0.76300607  0.09808873  1
  Pt  Pt3_7  1  0.75000000  0.76300607  0.59808873  1
loop_
_geom_bond_atom_site_label_1
_geom_bond_atom_site_label_2
_geom_bond_distance
_geom_bond_site_symmetry_2
Tb0_0 Tb9_0 3.469966 1_555
Tb0_1 Tb9_1 3.469966 1_555
Tb0_2 Tb9_2 3.469966 1_555
Tb0_3 Tb9_3 3.469966 1_555
Tb0_4 Tb9_4 3.469966 1_555
Tb0_5 Tb9_5 3.469966 1_555
Tb0_6 Tb9_6 3.469966 1_555
Tb0_7 Tb9_7 3.469966 1_555
Tb1_0 Tb9_0 3.469966 1_555
Tb1_1 Tb9_1 3.469966 1_555
Tb1_2 Tb9_2 3.469966 1_555
Tb1_3 Tb9_3 3.469966 1_555
Tb1_4 Tb9_4 3.469966 1_555
Tb1_5 Tb9_5 3.469966 1_555
Tb1_6 Tb9_6 3.469966 1_555
Tb1_7 Tb9_7 3.469966 1_555
Tb2_0 Tb8_1 3.469966 1_555
Tb2_1 Tb8_0 3.469966 1_556
Tb2_2 Tb8_3 3.469966 1_555
Tb2_3 Tb8_2 3.469966 1_556
Tb2_4 Tb8_5 3.469966 1_555
Tb2_5 Tb8_4 3.469966 1_556
Tb2_6 Tb8_7 3.469966 1_555
Tb2_7 Tb8_6 3.469966 1_556
Tb3_0 Tb8_2 3.469966 1_555
Tb3_1 Tb8_3 3.469966 1_555
Tb3_2 Tb8_0 3.469966 1_565
Tb3_3 Tb8_1 3.469966 1_565
Tb3_4 Tb8_6 3.469966 1_555
Tb3_5 Tb8_7 3.469966 1_555
Tb3_6 Tb8_4 3.469966 1_565
Tb3_7 Tb8_5 3.469966 1_565
Tb8_0 Tb8_4 3.648364 1_555
Tb8_0 Tb8_4 3.648364 1_455
Tb8_1 Tb8_5 3.648364 1_555
Tb8_1 Tb8_5 3.648364 1_455
Tb8_2 Tb8_6 3.648364 1_455
Tb8_2 Tb8_6 3.648364 1_555
Tb8_3 Tb8_7 3.648364 1_455
Tb8_3 Tb8_7 3.648364 1_555
Tb9_0 Tb9_4 3.648364 1_455
Tb9_0 Tb9_4 3.648364 1_555
Tb9_1 Tb9_5 3.648364 1_555
Tb9_1 Tb9_5 3.648364 1_455
Tb9_2 Tb9_6 3.648364 1_455
Tb9_2 Tb9_6 3.648364 1_555
Tb9_3 Tb9_7 3.648364 1_555
Tb9_3 Tb9_7 3.648364 1_455
In0_0 Pt3_0 2.942237 1_555
In0_0 In7_0 3.300900 1_555
In0_0 Tb0_0 3.310270 1_555
In0_0 Tb0_4 3.310270 1_555
In0_0 Tb9_0 3.324947 1_555
In0_0 Tb9_4 3.324947 1_555
In0_0 Pt0_0 3.339279 1_555
In0_0 Tb4_4 3.345017 1_555
In0_0 Tb4_0 3.345017 1_555
In0_0 Tb7_4 3.412845 1_555
In0_0 Tb7_0 3.412845 1_555
In0_1 Pt3_1 2.942237 1_555
In0_1 In7_1 3.300900 1_555
In0_1 Tb0_1 3.310270 1_555
In0_1 Tb0_5 3.310270 1_555
In0_1 Tb9_5 3.324947 1_555
In0_1 Tb9_1 3.324947 1_555
In0_1 Pt0_1 3.339279 1_555
In0_1 Tb4_1 3.345017 1_555
In0_1 Tb4_5 3.345017 1_555
In0_1 Tb7_5 3.412845 1_555
In0_1 Tb7_1 3.412845 1_555
In0_2 Pt3_2 2.942237 1_555
In0_2 In7_2 3.300900 1_555
In0_2 Tb0_2 3.310270 1_555
In0_2 Tb0_6 3.310270 1_555
In0_2 Tb9_6 3.324947 1_555
In0_2 Tb9_2 3.324947 1_555
In0_2 Pt0_2 3.339279 1_555
In0_2 Tb4_2 3.345017 1_555
In0_2 Tb4_6 3.345017 1_555
In0_2 Tb7_6 3.412845 1_555
In0_2 Tb7_2 3.412845 1_555
In0_3 Pt3_3 2.942237 1_555
In0_3 In7_3 3.300900 1_555
In0_3 Tb0_3 3.310270 1_555
In0_3 Tb0_7 3.310270 1_555
In0_3 Tb9_3 3.324947 1_555
In0_3 Tb9_7 3.324947 1_555
In0_3 Pt0_3 3.339279 1_555
In0_3 Tb4_3 3.345017 1_555
In0_3 Tb4_7 3.345017 1_555
In0_3 Tb7_3 3.412845 1_555
In0_3 Tb7_7 3.412845 1_555
In0_4 Pt3_4 2.942237 1_555
In0_4 In7_4 3.300900 1_555
In0_4 Tb0_4 3.310270 1_555
In0_4 Tb0_0 3.310270 1_655
In0_4 Tb9_4 3.324947 1_555
In0_4 Tb9_0 3.324947 1_655
In0_4 Pt0_4 3.339279 1_555
In0_4 Tb4_4 3.345017 1_555
In0_4 Tb4_0 3.345017 1_655
In0_4 Tb7_0 3.412845 1_655
In0_4 Tb7_4 3.412845 1_555
In0_5 Pt3_5 2.942237 1_555
In0_5 In7_5 3.300900 1_555
In0_5 Tb0_5 3.310270 1_555
In0_5 Tb0_1 3.310270 1_655
In0_5 Tb9_5 3.324947 1_555
In0_5 Tb9_1 3.324947 1_655
In0_5 Pt0_5 3.339279 1_555
In0_5 Tb4_1 3.345017 1_655
In0_5 Tb4_5 3.345017 1_555
In0_5 Tb7_1 3.412845 1_655
In0_5 Tb7_5 3.412845 1_555
In0_6 Pt3_6 2.942237 1_555
In0_6 In7_6 3.300900 1_555
In0_6 Tb0_2 3.310270 1_655
In0_6 Tb0_6 3.310270 1_555
In0_6 Tb9_6 3.324947 1_555
In0_6 Tb9_2 3.324947 1_655
In0_6 Pt0_6 3.339279 1_555
In0_6 Tb4_6 3.345017 1_555
In0_6 Tb4_2 3.345017 1_655
In0_6 Tb7_6 3.412845 1_555
In0_6 Tb7_2 3.412845 1_655
In0_7 Pt3_7 2.942237 1_555
In0_7 In7_7 3.300900 1_555
In0_7 Tb0_3 3.310270 1_655
In0_7 Tb0_7 3.310270 1_555
In0_7 Tb9_7 3.324947 1_555
In0_7 Tb9_3 3.324947 1_655
In0_7 Pt0_7 3.339279 1_555
In0_7 Tb4_7 3.345017 1_555
In0_7 Tb4_3 3.345017 1_655
In0_7 Tb7_7 3.412845 1_555
In0_7 Tb7_3 3.412845 1_655
In1_0 Pt2_0 2.942237 1_555
In1_0 In6_0 3.300900 1_555
In1_0 Tb1_0 3.310270 1_555
In1_0 Tb1_4 3.310270 1_555
In1_0 Tb9_0 3.324947 1_555
In1_0 Tb9_4 3.324947 1_555
In1_0 Pt1_0 3.339279 1_555
In1_0 Tb5_0 3.345017 1_555
In1_0 Tb5_4 3.345017 1_555
In1_0 Tb6_0 3.412845 1_555
In1_0 Tb6_4 3.412845 1_555
In1_1 Pt2_1 2.942237 1_555
In1_1 In6_1 3.300900 1_555
In1_1 Tb1_5 3.310270 1_555
In1_1 Tb1_1 3.310270 1_555
In1_1 Tb9_1 3.324947 1_555
In1_1 Tb9_5 3.324947 1_555
In1_1 Pt1_1 3.339279 1_555
In1_1 Tb5_1 3.345017 1_555
In1_1 Tb5_5 3.345017 1_555
In1_1 Tb6_1 3.412845 1_555
In1_1 Tb6_5 3.412845 1_555
In1_2 Pt2_2 2.942237 1_555
In1_2 In6_2 3.300900 1_555
In1_2 Tb1_2 3.310270 1_555
In1_2 Tb1_6 3.310270 1_555
In1_2 Tb9_2 3.324947 1_555
In1_2 Tb9_6 3.324947 1_555
In1_2 Pt1_2 3.339279 1_555
In1_2 Tb5_2 3.345017 1_555
In1_2 Tb5_6 3.345017 1_555
In1_2 Tb6_2 3.412845 1_555
In1_2 Tb6_6 3.412845 1_555
In1_3 Pt2_3 2.942237 1_555
In1_3 In6_3 3.300900 1_555
In1_3 Tb1_7 3.310270 1_555
In1_3 Tb1_3 3.310270 1_555
In1_3 Tb9_3 3.324947 1_555
In1_3 Tb9_7 3.324947 1_555
In1_3 Pt1_3 3.339279 1_555
In1_3 Tb5_7 3.345017 1_555
In1_3 Tb5_3 3.345017 1_555
In1_3 Tb6_3 3.412845 1_555
In1_3 Tb6_7 3.412845 1_555
In1_4 Pt2_4 2.942237 1_555
In1_4 In6_4 3.300900 1_555
In1_4 Tb1_0 3.310270 1_655
In1_4 Tb1_4 3.310270 1_555
In1_4 Tb9_4 3.324947 1_555
In1_4 Tb9_0 3.324947 1_655
In1_4 Pt1_4 3.339279 1_555
In1_4 Tb5_0 3.345017 1_655
In1_4 Tb5_4 3.345017 1_555
In1_4 Tb6_0 3.412845 1_655
In1_4 Tb6_4 3.412845 1_555
In1_5 Pt2_5 2.942237 1_555
In1_5 In6_5 3.300900 1_555
In1_5 Tb1_5 3.310270 1_555
In1_5 Tb1_1 3.310270 1_655
In1_5 Tb9_5 3.324947 1_555
In1_5 Tb9_1 3.324947 1_655
In1_5 Pt1_5 3.339279 1_555
In1_5 Tb5_1 3.345017 1_655
In1_5 Tb5_5 3.345017 1_555
In1_5 Tb6_1 3.412845 1_655
In1_5 Tb6_5 3.412845 1_555
In1_6 Pt2_6 2.942237 1_555
In1_6 In6_6 3.300900 1_555
In1_6 Tb1_2 3.310270 1_655
In1_6 Tb1_6 3.310270 1_555
In1_6 Tb9_6 3.324947 1_555
In1_6 Tb9_2 3.324947 1_655
In1_6 Pt1_6 3.339279 1_555
In1_6 Tb5_6 3.345017 1_555
In1_6 Tb5_2 3.345017 1_655
In1_6 Tb6_2 3.412845 1_655
In1_6 Tb6_6 3.412845 1_555
In1_7 Pt2_7 2.942237 1_555
In1_7 In6_7 3.300900 1_555
In1_7 Tb1_3 3.310270 1_655
In1_7 Tb1_7 3.310270 1_555
In1_7 Tb9_7 3.324947 1_555
In1_7 Tb9_3 3.324947 1_655
In1_7 Pt1_7 3.339279 1_555
In1_7 Tb5_3 3.345017 1_655
In1_7 Tb5_7 3.345017 1_555
In1_7 Tb6_3 3.412845 1_655
In1_7 Tb6_7 3.412845 1_555
In2_0 Pt1_2 2.942237 1_545
In2_0 In5_2 3.300900 1_545
In2_0 Tb2_0 3.310270 1_555
In2_0 Tb2_4 3.310270 1_555
In2_0 Tb8_1 3.324947 1_555
In2_0 Tb8_5 3.324947 1_555
In2_0 Pt2_0 3.339279 1_555
In2_0 Tb6_0 3.345017 1_555
In2_0 Tb6_4 3.345017 1_555
In2_0 Tb5_2 3.412845 1_545
In2_0 Tb5_6 3.412845 1_545
In2_1 Pt1_3 2.942237 1_545
In2_1 In5_3 3.300900 1_545
In2_1 Tb2_1 3.310270 1_555
In2_1 Tb2_5 3.310270 1_555
In2_1 Tb8_0 3.324947 1_556
In2_1 Tb8_4 3.324947 1_556
In2_1 Pt2_1 3.339279 1_555
In2_1 Tb6_1 3.345017 1_555
In2_1 Tb6_5 3.345017 1_555
In2_1 Tb5_3 3.412845 1_545
In2_1 Tb5_7 3.412845 1_545
In2_2 Pt1_0 2.942237 1_555
In2_2 In5_0 3.300900 1_555
In2_2 Tb2_2 3.310270 1_555
In2_2 Tb2_6 3.310270 1_555
In2_2 Tb8_3 3.324947 1_555
In2_2 Tb8_7 3.324947 1_555
In2_2 Pt2_2 3.339279 1_555
In2_2 Tb6_6 3.345017 1_555
In2_2 Tb6_2 3.345017 1_555
In2_2 Tb5_0 3.412845 1_555
In2_2 Tb5_4 3.412845 1_555
In2_3 Pt1_1 2.942237 1_555
In2_3 In5_1 3.300900 1_555
In2_3 Tb2_7 3.310270 1_555
In2_3 Tb2_3 3.310270 1_555
In2_3 Tb8_2 3.324947 1_556
In2_3 Tb8_6 3.324947 1_556
In2_3 Pt2_3 3.339279 1_555
In2_3 Tb6_3 3.345017 1_555
In2_3 Tb6_7 3.345017 1_555
In2_3 Tb5_1 3.412845 1_555
In2_3 Tb5_5 3.412845 1_555
In2_4 Pt1_6 2.942237 1_545
In2_4 In5_6 3.300900 1_545
In2_4 Tb2_4 3.310270 1_555
In2_4 Tb2_0 3.310270 1_655
In2_4 Tb8_1 3.324947 1_655
In2_4 Tb8_5 3.324947 1_555
In2_4 Pt2_4 3.339279 1_555
In2_4 Tb6_4 3.345017 1_555
In2_4 Tb6_0 3.345017 1_655
In2_4 Tb5_6 3.412845 1_545
In2_4 Tb5_2 3.412845 1_645
In2_5 Pt1_7 2.942237 1_545
In2_5 In5_7 3.300900 1_545
In2_5 Tb2_1 3.310270 1_655
In2_5 Tb2_5 3.310270 1_555
In2_5 Tb8_4 3.324947 1_556
In2_5 Tb8_0 3.324947 1_656
In2_5 Pt2_5 3.339279 1_555
In2_5 Tb6_1 3.345017 1_655
In2_5 Tb6_5 3.345017 1_555
In2_5 Tb5_7 3.412845 1_545
In2_5 Tb5_3 3.412845 1_645
In2_6 Pt1_4 2.942237 1_555
In2_6 In5_4 3.300900 1_555
In2_6 Tb2_6 3.310270 1_555
In2_6 Tb2_2 3.310270 1_655
In2_6 Tb8_3 3.324947 1_655
In2_6 Tb8_7 3.324947 1_555
In2_6 Pt2_6 3.339279 1_555
In2_6 Tb6_6 3.345017 1_555
In2_6 Tb6_2 3.345017 1_655
In2_6 Tb5_4 3.412845 1_555
In2_6 Tb5_0 3.412845 1_655
In2_7 Pt1_5 2.942237 1_555
In2_7 In5_5 3.300900 1_555
In2_7 Tb2_7 3.310270 1_555
In2_7 Tb2_3 3.310270 1_655
In2_7 Tb8_6 3.324947 1_556
In2_7 Tb8_2 3.324947 1_656
In2_7 Pt2_7 3.339279 1_555
In2_7 Tb6_3 3.345017 1_655
In2_7 Tb6_7 3.345017 1_555
In2_7 Tb5_1 3.412845 1_655
In2_7 Tb5_5 3.412845 1_555
In3_0 Pt0_2 2.942237 1_555
In3_0 In4_2 3.300900 1_555
In3_0 Tb3_0 3.310270 1_555
In3_0 Tb3_4 3.310270 1_555
In3_0 Tb8_2 3.324947 1_555
In3_0 Tb8_6 3.324947 1_555
In3_0 Pt3_0 3.339279 1_555
In3_0 Tb7_0 3.345017 1_555
In3_0 Tb7_4 3.345017 1_555
In3_0 Tb4_2 3.412845 1_555
In3_0 Tb4_6 3.412845 1_555
In3_1 Pt0_3 2.942237 1_555
In3_1 In4_3 3.300900 1_555
In3_1 Tb3_1 3.310270 1_555
In3_1 Tb3_5 3.310270 1_555
In3_1 Tb8_7 3.324947 1_555
In3_1 Tb8_3 3.324947 1_555
In3_1 Pt3_1 3.339279 1_555
In3_1 Tb7_1 3.345017 1_555
In3_1 Tb7_5 3.345017 1_555
In3_1 Tb4_3 3.412845 1_555
In3_1 Tb4_7 3.412845 1_555
In3_2 Pt0_0 2.942237 1_565
In3_2 In4_0 3.300900 1_565
In3_2 Tb3_2 3.310270 1_555
In3_2 Tb3_6 3.310270 1_555
In3_2 Tb8_0 3.324947 1_565
In3_2 Tb8_4 3.324947 1_565
In3_2 Pt3_2 3.339279 1_555
In3_2 Tb7_2 3.345017 1_555
In3_2 Tb7_6 3.345017 1_555
In3_2 Tb4_0 3.412845 1_565
In3_2 Tb4_4 3.412845 1_565
In3_3 Pt0_1 2.942237 1_565
In3_3 In4_1 3.300900 1_565
In3_3 Tb3_3 3.310270 1_555
In3_3 Tb3_7 3.310270 1_555
In3_3 Tb8_5 3.324947 1_565
In3_3 Tb8_1 3.324947 1_565
In3_3 Pt3_3 3.339279 1_555
In3_3 Tb7_3 3.345017 1_555
In3_3 Tb7_7 3.345017 1_555
In3_3 Tb4_1 3.412845 1_565
In3_3 Tb4_5 3.412845 1_565
In3_4 Pt0_6 2.942237 1_555
In3_4 In4_6 3.300900 1_555
In3_4 Tb3_0 3.310270 1_655
In3_4 Tb3_4 3.310270 1_555
In3_4 Tb8_6 3.324947 1_555
In3_4 Tb8_2 3.324947 1_655
In3_4 Pt3_4 3.339279 1_555
In3_4 Tb7_0 3.345017 1_655
In3_4 Tb7_4 3.345017 1_555
In3_4 Tb4_2 3.412845 1_655
In3_4 Tb4_6 3.412845 1_555
In3_5 Pt0_7 2.942237 1_555
In3_5 In4_7 3.300900 1_555
In3_5 Tb3_1 3.310270 1_655
In3_5 Tb3_5 3.310270 1_555
In3_5 Tb8_7 3.324947 1_555
In3_5 Tb8_3 3.324947 1_655
In3_5 Pt3_5 3.339279 1_555
In3_5 Tb7_5 3.345017 1_555
In3_5 Tb7_1 3.345017 1_655
In3_5 Tb4_7 3.412845 1_555
In3_5 Tb4_3 3.412845 1_655
In3_6 Pt0_4 2.942237 1_565
In3_6 In4_4 3.300900 1_565
In3_6 Tb3_6 3.310270 1_555
In3_6 Tb3_2 3.310270 1_655
In3_6 Tb8_4 3.324947 1_565
In3_6 Tb8_0 3.324947 1_665
In3_6 Pt3_6 3.339279 1_555
In3_6 Tb7_2 3.345017 1_655
In3_6 Tb7_6 3.345017 1_555
In3_6 Tb4_0 3.412845 1_665
In3_6 Tb4_4 3.412845 1_565
In3_7 Pt0_5 2.942237 1_565
In3_7 In4_5 3.300900 1_565
In3_7 Tb3_7 3.310270 1_555
In3_7 Tb3_3 3.310270 1_655
In3_7 Tb8_5 3.324947 1_565
In3_7 Tb8_1 3.324947 1_665
In3_7 Pt3_7 3.339279 1_555
In3_7 Tb7_7 3.345017 1_555
In3_7 Tb7_3 3.345017 1_655
In3_7 Tb4_1 3.412845 1_665
In3_7 Tb4_5 3.412845 1_565
In4_0 Pt3_0 3.016602 1_555
In4_0 Tb3_0 3.217494 1_555
In4_0 Tb3_4 3.217494 1_555
In4_0 Tb8_0 3.220236 1_555
In4_0 Tb8_4 3.220236 1_555
In4_0 Tb4_0 3.342552 1_555
In4_0 Tb4_4 3.342552 1_555
In4_0 Tb2_1 3.411844 1_554
In4_0 Tb2_5 3.411844 1_554
In4_1 Pt3_1 3.016602 1_555
In4_1 Tb3_5 3.217494 1_555
In4_1 Tb3_1 3.217494 1_555
In4_1 Tb8_1 3.220236 1_555
In4_1 Tb8_5 3.220236 1_555
In4_1 Tb4_5 3.342552 1_555
In4_1 Tb4_1 3.342552 1_555
In4_1 Tb2_4 3.411844 1_555
In4_1 Tb2_0 3.411844 1_555
In4_2 Pt3_2 3.016602 1_555
In4_2 Tb3_2 3.217494 1_555
In4_2 Tb3_6 3.217494 1_555
In4_2 Tb8_2 3.220236 1_555
In4_2 Tb8_6 3.220236 1_555
In4_2 Tb4_6 3.342552 1_555
In4_2 Tb4_2 3.342552 1_555
In4_2 Tb2_3 3.411844 1_554
In4_2 Tb2_7 3.411844 1_554
In4_3 Pt3_3 3.016602 1_555
In4_3 Tb3_3 3.217494 1_555
In4_3 Tb3_7 3.217494 1_555
In4_3 Tb8_7 3.220236 1_555
In4_3 Tb8_3 3.220236 1_555
In4_3 Tb4_3 3.342552 1_555
In4_3 Tb4_7 3.342552 1_555
In4_3 Tb2_2 3.411844 1_555
In4_3 Tb2_6 3.411844 1_555
In4_4 Pt3_4 3.016602 1_555
In4_4 Tb3_0 3.217494 1_655
In4_4 Tb3_4 3.217494 1_555
In4_4 Tb8_4 3.220236 1_555
In4_4 Tb8_0 3.220236 1_655
In4_4 Tb4_0 3.342552 1_655
In4_4 Tb4_4 3.342552 1_555
In4_4 Tb2_1 3.411844 1_654
In4_4 Tb2_5 3.411844 1_554
In4_5 Pt3_5 3.016602 1_555
In4_5 Tb3_5 3.217494 1_555
In4_5 Tb3_1 3.217494 1_655
In4_5 Tb8_1 3.220236 1_655
In4_5 Tb8_5 3.220236 1_555
In4_5 Tb4_5 3.342552 1_555
In4_5 Tb4_1 3.342552 1_655
In4_5 Tb2_4 3.411844 1_555
In4_5 Tb2_0 3.411844 1_655
In4_6 Pt3_6 3.016602 1_555
In4_6 Tb3_6 3.217494 1_555
In4_6 Tb3_2 3.217494 1_655
In4_6 Tb8_6 3.220236 1_555
In4_6 Tb8_2 3.220236 1_655
In4_6 Tb4_2 3.342552 1_655
In4_6 Tb4_6 3.342552 1_555
In4_6 Tb2_7 3.411844 1_554
In4_6 Tb2_3 3.411844 1_654
In4_7 Pt3_7 3.016602 1_555
In4_7 Tb3_7 3.217494 1_555
In4_7 Tb3_3 3.217494 1_655
In4_7 Tb8_3 3.220236 1_655
In4_7 Tb8_7 3.220236 1_555
In4_7 Tb4_7 3.342552 1_555
In4_7 Tb4_3 3.342552 1_655
In4_7 Tb2_2 3.411844 1_655
In4_7 Tb2_6 3.411844 1_555
In5_0 Pt2_0 3.016602 1_555
In5_0 Tb2_4 3.217494 1_555
In5_0 Tb2_0 3.217494 1_555
In5_0 Tb8_7 3.220236 1_555
In5_0 Tb8_3 3.220236 1_555
In5_0 Tb5_0 3.342552 1_555
In5_0 Tb5_4 3.342552 1_555
In5_0 Tb3_1 3.411844 1_555
In5_0 Tb3_5 3.411844 1_555
In5_1 Pt2_1 3.016602 1_555
In5_1 Tb2_1 3.217494 1_555
In5_1 Tb2_5 3.217494 1_555
In5_1 Tb8_6 3.220236 1_556
In5_1 Tb8_2 3.220236 1_556
In5_1 Tb5_1 3.342552 1_555
In5_1 Tb5_5 3.342552 1_555
In5_1 Tb3_0 3.411844 1_556
In5_1 Tb3_4 3.411844 1_556
In5_2 Pt2_2 3.016602 1_555
In5_2 Tb2_2 3.217494 1_555
In5_2 Tb2_6 3.217494 1_555
In5_2 Tb8_1 3.220236 1_565
In5_2 Tb8_5 3.220236 1_565
In5_2 Tb5_2 3.342552 1_555
In5_2 Tb5_6 3.342552 1_555
In5_2 Tb3_7 3.411844 1_555
In5_2 Tb3_3 3.411844 1_555
In5_3 Pt2_3 3.016602 1_555
In5_3 Tb2_7 3.217494 1_555
In5_3 Tb2_3 3.217494 1_555
In5_3 Tb8_0 3.220236 1_566
In5_3 Tb8_4 3.220236 1_566
In5_3 Tb5_3 3.342552 1_555
In5_3 Tb5_7 3.342552 1_555
In5_3 Tb3_2 3.411844 1_556
In5_3 Tb3_6 3.411844 1_556
In5_4 Pt2_4 3.016602 1_555
In5_4 Tb2_4 3.217494 1_555
In5_4 Tb2_0 3.217494 1_655
In5_4 Tb8_7 3.220236 1_555
In5_4 Tb8_3 3.220236 1_655
In5_4 Tb5_4 3.342552 1_555
In5_4 Tb5_0 3.342552 1_655
In5_4 Tb3_1 3.411844 1_655
In5_4 Tb3_5 3.411844 1_555
In5_5 Pt2_5 3.016602 1_555
In5_5 Tb2_1 3.217494 1_655
In5_5 Tb2_5 3.217494 1_555
In5_5 Tb8_6 3.220236 1_556
In5_5 Tb8_2 3.220236 1_656
In5_5 Tb5_5 3.342552 1_555
In5_5 Tb5_1 3.342552 1_655
In5_5 Tb3_0 3.411844 1_656
In5_5 Tb3_4 3.411844 1_556
In5_6 Pt2_6 3.016602 1_555
In5_6 Tb2_2 3.217494 1_655
In5_6 Tb2_6 3.217494 1_555
In5_6 Tb8_5 3.220236 1_565
In5_6 Tb8_1 3.220236 1_665
In5_6 Tb5_2 3.342552 1_655
In5_6 Tb5_6 3.342552 1_555
In5_6 Tb3_7 3.411844 1_555
In5_6 Tb3_3 3.411844 1_655
In5_7 Pt2_7 3.016602 1_555
In5_7 Tb2_7 3.217494 1_555
In5_7 Tb2_3 3.217494 1_655
In5_7 Tb8_0 3.220236 1_666
In5_7 Tb8_4 3.220236 1_566
In5_7 Tb5_3 3.342552 1_655
In5_7 Tb5_7 3.342552 1_555
In5_7 Tb3_2 3.411844 1_656
In5_7 Tb3_6 3.411844 1_556
In6_0 Pt1_2 3.016602 1_545
In6_0 Tb1_6 3.217494 1_545
In6_0 Tb1_2 3.217494 1_545
In6_0 Tb9_0 3.220236 1_555
In6_0 Tb9_4 3.220236 1_555
In6_0 Tb6_4 3.342552 1_555
In6_0 Tb6_0 3.342552 1_555
In6_0 Tb0_0 3.411844 1_555
In6_0 Tb0_4 3.411844 1_555
In6_1 Pt1_3 3.016602 1_545
In6_1 Tb1_3 3.217494 1_545
In6_1 Tb1_7 3.217494 1_545
In6_1 Tb9_1 3.220236 1_555
In6_1 Tb9_5 3.220236 1_555
In6_1 Tb6_1 3.342552 1_555
In6_1 Tb6_5 3.342552 1_555
In6_1 Tb0_1 3.411844 1_555
In6_1 Tb0_5 3.411844 1_555
In6_2 Pt1_0 3.016602 1_555
In6_2 Tb1_4 3.217494 1_555
In6_2 Tb1_0 3.217494 1_555
In6_2 Tb9_6 3.220236 1_555
In6_2 Tb9_2 3.220236 1_555
In6_2 Tb6_2 3.342552 1_555
In6_2 Tb6_6 3.342552 1_555
In6_2 Tb0_2 3.411844 1_555
In6_2 Tb0_6 3.411844 1_555
In6_3 Pt1_1 3.016602 1_555
In6_3 Tb1_1 3.217494 1_555
In6_3 Tb1_5 3.217494 1_555
In6_3 Tb9_3 3.220236 1_555
In6_3 Tb9_7 3.220236 1_555
In6_3 Tb6_7 3.342552 1_555
In6_3 Tb6_3 3.342552 1_555
In6_3 Tb0_3 3.411844 1_555
In6_3 Tb0_7 3.411844 1_555
In6_4 Pt1_6 3.016602 1_545
In6_4 Tb1_6 3.217494 1_545
In6_4 Tb1_2 3.217494 1_645
In6_4 Tb9_4 3.220236 1_555
In6_4 Tb9_0 3.220236 1_655
In6_4 Tb6_0 3.342552 1_655
In6_4 Tb6_4 3.342552 1_555
In6_4 Tb0_4 3.411844 1_555
In6_4 Tb0_0 3.411844 1_655
In6_5 Pt1_7 3.016602 1_545
In6_5 Tb1_3 3.217494 1_645
In6_5 Tb1_7 3.217494 1_545
In6_5 Tb9_5 3.220236 1_555
In6_5 Tb9_1 3.220236 1_655
In6_5 Tb6_5 3.342552 1_555
In6_5 Tb6_1 3.342552 1_655
In6_5 Tb0_1 3.411844 1_655
In6_5 Tb0_5 3.411844 1_555
In6_6 Pt1_4 3.016602 1_555
In6_6 Tb1_4 3.217494 1_555
In6_6 Tb1_0 3.217494 1_655
In6_6 Tb9_6 3.220236 1_555
In6_6 Tb9_2 3.220236 1_655
In6_6 Tb6_6 3.342552 1_555
In6_6 Tb6_2 3.342552 1_655
In6_6 Tb0_2 3.411844 1_655
In6_6 Tb0_6 3.411844 1_555
In6_7 Pt1_5 3.016602 1_555
In6_7 Tb1_1 3.217494 1_655
In6_7 Tb1_5 3.217494 1_555
In6_7 Tb9_7 3.220236 1_555
In6_7 Tb9_3 3.220236 1_655
In6_7 Tb6_3 3.342552 1_655
In6_7 Tb6_7 3.342552 1_555
In6_7 Tb0_3 3.411844 1_655
In6_7 Tb0_7 3.411844 1_555
In7_0 Pt0_2 3.016602 1_555
In7_0 Tb0_6 3.217494 1_555
In7_0 Tb0_2 3.217494 1_555
In7_0 Tb9_0 3.220236 1_555
In7_0 Tb9_4 3.220236 1_555
In7_0 Tb7_4 3.342552 1_555
In7_0 Tb7_0 3.342552 1_555
In7_0 Tb1_0 3.411844 1_555
In7_0 Tb1_4 3.411844 1_555
In7_1 Pt0_3 3.016602 1_555
In7_1 Tb0_3 3.217494 1_555
In7_1 Tb0_7 3.217494 1_555
In7_1 Tb9_1 3.220236 1_555
In7_1 Tb9_5 3.220236 1_555
In7_1 Tb7_1 3.342552 1_555
In7_1 Tb7_5 3.342552 1_555
In7_1 Tb1_1 3.411844 1_555
In7_1 Tb1_5 3.411844 1_555
In7_2 Pt0_0 3.016602 1_565
In7_2 Tb0_0 3.217494 1_565
In7_2 Tb0_4 3.217494 1_565
In7_2 Tb9_6 3.220236 1_555
In7_2 Tb9_2 3.220236 1_555
In7_2 Tb7_6 3.342552 1_555
In7_2 Tb7_2 3.342552 1_555
In7_2 Tb1_2 3.411844 1_555
In7_2 Tb1_6 3.411844 1_555
In7_3 Pt0_1 3.016602 1_565
In7_3 Tb0_1 3.217494 1_565
In7_3 Tb0_5 3.217494 1_565
In7_3 Tb9_3 3.220236 1_555
In7_3 Tb9_7 3.220236 1_555
In7_3 Tb7_7 3.342552 1_555
In7_3 Tb7_3 3.342552 1_555
In7_3 Tb1_3 3.411844 1_555
In7_3 Tb1_7 3.411844 1_555
In7_4 Pt0_6 3.016602 1_555
In7_4 Tb0_2 3.217494 1_655
In7_4 Tb0_6 3.217494 1_555
In7_4 Tb9_4 3.220236 1_555
In7_4 Tb9_0 3.220236 1_655
In7_4 Tb7_0 3.342552 1_655
In7_4 Tb7_4 3.342552 1_555
In7_4 Tb1_0 3.411844 1_655
In7_4 Tb1_4 3.411844 1_555
In7_5 Pt0_7 3.016602 1_555
In7_5 Tb0_3 3.217494 1_655
In7_5 Tb0_7 3.217494 1_555
In7_5 Tb9_5 3.220236 1_555
In7_5 Tb9_1 3.220236 1_655
In7_5 Tb7_5 3.342552 1_555
In7_5 Tb7_1 3.342552 1_655
In7_5 Tb1_1 3.411844 1_655
In7_5 Tb1_5 3.411844 1_555
In7_6 Pt0_4 3.016602 1_565
In7_6 Tb0_0 3.217494 1_665
In7_6 Tb0_4 3.217494 1_565
In7_6 Tb9_6 3.220236 1_555
In7_6 Tb9_2 3.220236 1_655
In7_6 Tb7_6 3.342552 1_555
In7_6 Tb7_2 3.342552 1_655
In7_6 Tb1_2 3.411844 1_655
In7_6 Tb1_6 3.411844 1_555
In7_7 Pt0_5 3.016602 1_565
In7_7 Tb0_5 3.217494 1_565
In7_7 Tb0_1 3.217494 1_665
In7_7 Tb9_7 3.220236 1_555
In7_7 Tb9_3 3.220236 1_655
In7_7 Tb7_7 3.342552 1_555
In7_7 Tb7_3 3.342552 1_655
In7_7 Tb1_3 3.411844 1_655
In7_7 Tb1_7 3.411844 1_555
Pt0_0 Tb0_4 2.828199 1_555
Pt0_0 Tb0_0 2.828199 1_555
Pt0_0 Tb4_0 2.954100 1_555
Pt0_0 Tb4_4 2.954100 1_555
Pt0_0 Tb7_2 2.960369 1_545
Pt0_0 Tb7_6 2.960369 1_545
Pt0_1 Tb0_1 2.828199 1_555
Pt0_1 Tb0_5 2.828199 1_555
Pt0_1 Tb4_1 2.954100 1_555
Pt0_1 Tb4_5 2.954100 1_555
Pt0_1 Tb7_3 2.960369 1_545
Pt0_1 Tb7_7 2.960369 1_545
Pt0_2 Tb0_6 2.828199 1_555
Pt0_2 Tb0_2 2.828199 1_555
Pt0_2 Tb4_2 2.954100 1_555
Pt0_2 Tb4_6 2.954100 1_555
Pt0_2 Tb7_4 2.960369 1_555
Pt0_2 Tb7_0 2.960369 1_555
Pt0_3 Tb0_7 2.828199 1_555
Pt0_3 Tb0_3 2.828199 1_555
Pt0_3 Tb4_3 2.954100 1_555
Pt0_3 Tb4_7 2.954100 1_555
Pt0_3 Tb7_5 2.960369 1_555
Pt0_3 Tb7_1 2.960369 1_555
Pt0_4 Tb0_4 2.828199 1_555
Pt0_4 Tb0_0 2.828199 1_655
Pt0_4 Tb4_0 2.954100 1_655
Pt0_4 Tb4_4 2.954100 1_555
Pt0_4 Tb7_6 2.960369 1_545
Pt0_4 Tb7_2 2.960369 1_645
Pt0_5 Tb0_1 2.828199 1_655
Pt0_5 Tb0_5 2.828199 1_555
Pt0_5 Tb4_1 2.954100 1_655
Pt0_5 Tb4_5 2.954100 1_555
Pt0_5 Tb7_3 2.960369 1_645
Pt0_5 Tb7_7 2.960369 1_545
Pt0_6 Tb0_6 2.828199 1_555
Pt0_6 Tb0_2 2.828199 1_655
Pt0_6 Tb4_2 2.954100 1_655
Pt0_6 Tb4_6 2.954100 1_555
Pt0_6 Tb7_4 2.960369 1_555
Pt0_6 Tb7_0 2.960369 1_655
Pt0_7 Tb0_7 2.828199 1_555
Pt0_7 Tb0_3 2.828199 1_655
Pt0_7 Tb4_7 2.954100 1_555
Pt0_7 Tb4_3 2.954100 1_655
Pt0_7 Tb7_5 2.960369 1_555
Pt0_7 Tb7_1 2.960369 1_655
Pt1_0 Tb1_0 2.828199 1_555
Pt1_0 Tb1_4 2.828199 1_555
Pt1_0 Tb5_0 2.954100 1_555
Pt1_0 Tb5_4 2.954100 1_555
Pt1_0 Tb6_2 2.960369 1_555
Pt1_0 Tb6_6 2.960369 1_555
Pt1_1 Tb1_1 2.828199 1_555
Pt1_1 Tb1_5 2.828199 1_555
Pt1_1 Tb5_1 2.954100 1_555
Pt1_1 Tb5_5 2.954100 1_555
Pt1_1 Tb6_3 2.960369 1_555
Pt1_1 Tb6_7 2.960369 1_555
Pt1_2 Tb1_2 2.828199 1_555
Pt1_2 Tb1_6 2.828199 1_555
Pt1_2 Tb5_2 2.954100 1_555
Pt1_2 Tb5_6 2.954100 1_555
Pt1_2 Tb6_4 2.960369 1_565
Pt1_2 Tb6_0 2.960369 1_565
Pt1_3 Tb1_3 2.828199 1_555
Pt1_3 Tb1_7 2.828199 1_555
Pt1_3 Tb5_3 2.954100 1_555
Pt1_3 Tb5_7 2.954100 1_555
Pt1_3 Tb6_1 2.960369 1_565
Pt1_3 Tb6_5 2.960369 1_565
Pt1_4 Tb1_0 2.828199 1_655
Pt1_4 Tb1_4 2.828199 1_555
Pt1_4 Tb5_0 2.954100 1_655
Pt1_4 Tb5_4 2.954100 1_555
Pt1_4 Tb6_2 2.960369 1_655
Pt1_4 Tb6_6 2.960369 1_555
Pt1_5 Tb1_1 2.828199 1_655
Pt1_5 Tb1_5 2.828199 1_555
Pt1_5 Tb5_1 2.954100 1_655
Pt1_5 Tb5_5 2.954100 1_555
Pt1_5 Tb6_3 2.960369 1_655
Pt1_5 Tb6_7 2.960369 1_555
Pt1_6 Tb1_2 2.828199 1_655
Pt1_6 Tb1_6 2.828199 1_555
Pt1_6 Tb5_6 2.954100 1_555
Pt1_6 Tb5_2 2.954100 1_655
Pt1_6 Tb6_4 2.960369 1_565
Pt1_6 Tb6_0 2.960369 1_665
Pt1_7 Tb1_7 2.828199 1_555
Pt1_7 Tb1_3 2.828199 1_655
Pt1_7 Tb5_3 2.954100 1_655
Pt1_7 Tb5_7 2.954100 1_555
Pt1_7 Tb6_1 2.960369 1_665
Pt1_7 Tb6_5 2.960369 1_565
Pt2_0 Tb2_0 2.828199 1_555
Pt2_0 Tb2_4 2.828199 1_555
Pt2_0 Tb6_0 2.954100 1_555
Pt2_0 Tb6_4 2.954100 1_555
Pt2_0 Tb5_0 2.960369 1_555
Pt2_0 Tb5_4 2.960369 1_555
Pt2_1 Tb2_1 2.828199 1_555
Pt2_1 Tb2_5 2.828199 1_555
Pt2_1 Tb6_1 2.954100 1_555
Pt2_1 Tb6_5 2.954100 1_555
Pt2_1 Tb5_1 2.960369 1_555
Pt2_1 Tb5_5 2.960369 1_555
Pt2_2 Tb2_2 2.828199 1_555
Pt2_2 Tb2_6 2.828199 1_555
Pt2_2 Tb6_2 2.954100 1_555
Pt2_2 Tb6_6 2.954100 1_555
Pt2_2 Tb5_2 2.960369 1_555
Pt2_2 Tb5_6 2.960369 1_555
Pt2_3 Tb2_7 2.828199 1_555
Pt2_3 Tb2_3 2.828199 1_555
Pt2_3 Tb6_3 2.954100 1_555
Pt2_3 Tb6_7 2.954100 1_555
Pt2_3 Tb5_3 2.960369 1_555
Pt2_3 Tb5_7 2.960369 1_555
Pt2_4 Tb2_4 2.828199 1_555
Pt2_4 Tb2_0 2.828199 1_655
Pt2_4 Tb6_4 2.954100 1_555
Pt2_4 Tb6_0 2.954100 1_655
Pt2_4 Tb5_4 2.960369 1_555
Pt2_4 Tb5_0 2.960369 1_655
Pt2_5 Tb2_1 2.828199 1_655
Pt2_5 Tb2_5 2.828199 1_555
Pt2_5 Tb6_5 2.954100 1_555
Pt2_5 Tb6_1 2.954100 1_655
Pt2_5 Tb5_1 2.960369 1_655
Pt2_5 Tb5_5 2.960369 1_555
Pt2_6 Tb2_6 2.828199 1_555
Pt2_6 Tb2_2 2.828199 1_655
Pt2_6 Tb6_2 2.954100 1_655
Pt2_6 Tb6_6 2.954100 1_555
Pt2_6 Tb5_6 2.960369 1_555
Pt2_6 Tb5_2 2.960369 1_655
Pt2_7 Tb2_7 2.828199 1_555
Pt2_7 Tb2_3 2.828199 1_655
Pt2_7 Tb6_3 2.954100 1_655
Pt2_7 Tb6_7 2.954100 1_555
Pt2_7 Tb5_3 2.960369 1_655
Pt2_7 Tb5_7 2.960369 1_555
Pt3_0 Tb3_4 2.828199 1_555
Pt3_0 Tb3_0 2.828199 1_555
Pt3_0 Tb7_4 2.954100 1_555
Pt3_0 Tb7_0 2.954100 1_555
Pt3_0 Tb4_0 2.960369 1_555
Pt3_0 Tb4_4 2.960369 1_555
Pt3_1 Tb3_1 2.828199 1_555
Pt3_1 Tb3_5 2.828199 1_555
Pt3_1 Tb7_5 2.954100 1_555
Pt3_1 Tb7_1 2.954100 1_555
Pt3_1 Tb4_1 2.960369 1_555
Pt3_1 Tb4_5 2.960369 1_555
Pt3_2 Tb3_2 2.828199 1_555
Pt3_2 Tb3_6 2.828199 1_555
Pt3_2 Tb7_2 2.954100 1_555
Pt3_2 Tb7_6 2.954100 1_555
Pt3_2 Tb4_2 2.960369 1_555
Pt3_2 Tb4_6 2.960369 1_555
Pt3_3 Tb3_3 2.828199 1_555
Pt3_3 Tb3_7 2.828199 1_555
Pt3_3 Tb7_3 2.954100 1_555
Pt3_3 Tb7_7 2.954100 1_555
Pt3_3 Tb4_3 2.960369 1_555
Pt3_3 Tb4_7 2.960369 1_555
Pt3_4 Tb3_4 2.828199 1_555
Pt3_4 Tb3_0 2.828199 1_655
Pt3_4 Tb7_4 2.954100 1_555
Pt3_4 Tb7_0 2.954100 1_655
Pt3_4 Tb4_4 2.960369 1_555
Pt3_4 Tb4_0 2.960369 1_655
Pt3_5 Tb3_1 2.828199 1_655
Pt3_5 Tb3_5 2.828199 1_555
Pt3_5 Tb7_5 2.954100 1_555
Pt3_5 Tb7_1 2.954100 1_655
Pt3_5 Tb4_5 2.960369 1_555
Pt3_5 Tb4_1 2.960369 1_655
Pt3_6 Tb3_6 2.828199 1_555
Pt3_6 Tb3_2 2.828199 1_655
Pt3_6 Tb7_2 2.954100 1_655
Pt3_6 Tb7_6 2.954100 1_555
Pt3_6 Tb4_2 2.960369 1_655
Pt3_6 Tb4_6 2.960369 1_555
Pt3_7 Tb3_3 2.828199 1_655
Pt3_7 Tb3_7 2.828199 1_555
Pt3_7 Tb7_7 2.954100 1_555
Pt3_7 Tb7_3 2.954100 1_655
Pt3_7 Tb4_3 2.960369 1_655
Pt3_7 Tb4_7 2.960369 1_555
