# generated using pymatgen
data_Ca2CdPt2
_symmetry_space_group_name_H-M   'P 1'
_cell_length_a   5.64450153
_cell_length_b   5.64450153
_cell_length_c   5.64450153
_cell_angle_alpha   133.57299464
_cell_angle_beta   117.05512887
_cell_angle_gamma   81.71334400
_symmetry_Int_Tables_number   1
_chemical_formula_structural   Ca2CdPt2
_chemical_formula_sum   'Ca2 Cd1 Pt2'
_cell_volume   111.96274275
_cell_formula_units_Z   1
loop_
 _symmetry_equiv_pos_site_id
 _symmetry_equiv_pos_as_xyz
  1  'x, y, z'
loop_
 _atom_site_type_symbol
 _atom_site_label
 _atom_site_symmetry_multiplicity
 _atom_site_fract_x
 _atom_site_fract_y
 _atom_site_fract_z
 _atom_site_occupancy
  Ca  Ca0  1  0.29899166  0.79899166  0.50000000  1
  Ca  Ca1  1  0.70100834  0.20100834  0.50000000  1
  Cd  Cd0  1  -0.00000000  0.00000000  -0.00000000  1
  Pt  Pt0  1  0.72490764  0.50000000  0.22490764  1
  Pt  Pt1  1  0.27509236  0.50000000  0.77509236  1
loop_
_geom_bond_atom_site_label_1
_geom_bond_atom_site_label_2
_geom_bond_distance
_geom_bond_site_symmetry_2
Ca0 Pt0 3.024264 1_455
Ca0 Pt1 3.024264 1_555
Ca0 Pt0 3.106874 1_555
Ca0 Pt0 3.106874 1_566
Ca0 Pt1 3.106874 1_554
Ca0 Pt1 3.106874 1_565
Ca0 Cd0 3.386332 1_555
Ca0 Cd0 3.386332 1_566
Ca0 Cd0 3.410286 1_565
Ca0 Cd0 3.410286 1_666
Ca1 Pt1 3.024264 1_655
Ca1 Pt0 3.024264 1_555
Ca1 Pt0 3.106874 1_545
Ca1 Pt1 3.106874 1_555
Ca1 Pt1 3.106874 1_544
Ca1 Pt0 3.106874 1_556
Ca1 Cd0 3.386332 1_666
Ca1 Cd0 3.386332 1_655
Ca1 Cd0 3.410286 1_656
Ca1 Cd0 3.410286 1_555
Cd0 Pt0 2.752935 1_444
Cd0 Pt1 2.752935 1_544
Cd0 Pt0 2.752935 1_455
Cd0 Pt1 2.752935 1_555
Pt0 Pt1 2.651147 1_554
