# generated using pymatgen
data_RbH2CN5
_symmetry_space_group_name_H-M   'P 1'
_cell_length_a   6.77237400
_cell_length_b   8.22654800
_cell_length_c   9.12598000
_cell_angle_alpha   90.00000000
_cell_angle_beta   90.00000000
_cell_angle_gamma   90.00000000
_symmetry_Int_Tables_number   1
_chemical_formula_structural   RbH2CN5
_chemical_formula_sum   'Rb4 H8 C4 N20'
_cell_volume   508.43809453
_cell_formula_units_Z   4
loop_
 _symmetry_equiv_pos_site_id
 _symmetry_equiv_pos_as_xyz
  1  'x, y, z'
loop_
 _atom_site_type_symbol
 _atom_site_label
 _atom_site_symmetry_multiplicity
 _atom_site_fract_x
 _atom_site_fract_y
 _atom_site_fract_z
 _atom_site_occupancy
  Rb  Rb0  1  0.75000000  0.98094600  0.28960700  1
  Rb  Rb1  1  0.25000000  0.01905400  0.71039300  1
  Rb  Rb2  1  0.25000000  0.51905400  0.78960700  1
  Rb  Rb3  1  0.75000000  0.48094600  0.21039300  1
  H  H0  1  0.87703900  0.72088800  0.57023700  1
  H  H1  1  0.12296100  0.27911200  0.42976300  1
  H  H2  1  0.12296100  0.77911200  0.07023700  1
  H  H3  1  0.37703900  0.27911200  0.42976300  1
  H  H4  1  0.87703900  0.22088800  0.92976300  1
  H  H5  1  0.62296100  0.72088800  0.57023700  1
  H  H6  1  0.62296100  0.22088800  0.92976300  1
  H  H7  1  0.37703900  0.77911200  0.07023700  1
  C  C0  1  0.75000000  0.78553400  0.76051700  1
  C  C1  1  0.25000000  0.21446600  0.23948300  1
  C  C2  1  0.25000000  0.71446600  0.26051700  1
  C  C3  1  0.75000000  0.28553400  0.73948300  1
  N  N0  1  0.91516200  0.79415900  0.84295000  1
  N  N1  1  0.08483800  0.20584100  0.15705000  1
  N  N2  1  0.08483800  0.70584100  0.34295000  1
  N  N3  1  0.41516200  0.20584100  0.15705000  1
  N  N4  1  0.91516200  0.29415900  0.65705000  1
  N  N5  1  0.58483800  0.79415900  0.84295000  1
  N  N6  1  0.58483800  0.29415900  0.65705000  1
  N  N7  1  0.41516200  0.70584100  0.34295000  1
  N  N8  1  0.75000000  0.77261600  0.60954900  1
  N  N9  1  0.25000000  0.22738400  0.39045100  1
  N  N10  1  0.25000000  0.72738400  0.10954900  1
  N  N11  1  0.75000000  0.27261600  0.89045100  1
  N  N12  1  0.84701600  0.80719800  0.98253600  1
  N  N13  1  0.15298400  0.19280200  0.01746400  1
  N  N14  1  0.15298400  0.69280200  0.48253600  1
  N  N15  1  0.34701600  0.19280200  0.01746400  1
  N  N16  1  0.84701600  0.30719800  0.51746400  1
  N  N17  1  0.65298400  0.80719800  0.98253600  1
  N  N18  1  0.65298400  0.30719800  0.51746400  1
  N  N19  1  0.34701600  0.69280200  0.48253600  1
loop_
_geom_bond_atom_site_label_1
_geom_bond_atom_site_label_2
_geom_bond_distance
_geom_bond_site_symmetry_2
H0 N8 1.024699 1_555
H1 N9 1.024699 1_555
H2 N10 1.024699 1_555
H3 N9 1.024699 1_555
H4 N11 1.024699 1_555
H5 N8 1.024699 1_555
H6 N11 1.024699 1_555
H7 N10 1.024699 1_555
C0 N0 1.349849 1_555
C0 N5 1.349849 1_555
C0 N8 1.381823 1_555
C1 N3 1.349849 1_555
C1 N1 1.349849 1_555
C1 N9 1.381823 1_555
C2 N7 1.349849 1_555
C2 N2 1.349849 1_555
C2 N10 1.381823 1_555
C3 N4 1.349849 1_555
C3 N6 1.349849 1_555
C3 N11 1.381823 1_555
N0 N12 1.359123 1_555
N0 Rb1 3.166787 1_665
N0 Rb2 3.240544 1_655
N1 N13 1.359123 1_555
N1 Rb0 3.166787 1_445
N1 Rb3 3.240544 1_455
N2 Rb3 3.166787 1_455
N2 Rb0 3.240544 1_455
N3 Rb0 3.166787 1_545
N3 Rb3 3.240544 1_555
N4 Rb2 3.166787 1_655
N4 Rb1 3.240544 1_655
N5 Rb1 3.166787 1_565
N5 Rb2 3.240544 1_555
N6 Rb2 3.166787 1_555
N6 Rb1 3.240544 1_555
N7 Rb3 3.166787 1_555
N7 Rb0 3.240544 1_555
N8 Rb0 3.385613 1_555
N9 Rb1 3.385613 1_555
N10 Rb2 3.385613 1_554
N11 Rb3 3.385613 1_556
N12 N17 1.314057 1_555
N12 Rb0 3.213680 1_556
N12 Rb3 3.458198 1_556
N13 N15 1.314057 1_555
N13 Rb1 3.213680 1_554
N13 Rb2 3.458198 1_554
N14 N19 1.314057 1_555
N14 N2 1.359123 1_555
N14 Rb2 3.213680 1_555
N14 Rb1 3.458198 1_565
N15 N3 1.359123 1_555
N15 Rb1 3.213680 1_554
N15 Rb2 3.458198 1_554
N16 N18 1.314057 1_555
N16 N4 1.359123 1_555
N16 Rb3 3.213680 1_555
N16 Rb0 3.458198 1_545
N17 N5 1.359123 1_555
N17 Rb0 3.213680 1_556
N17 Rb3 3.458198 1_556
N18 N6 1.359123 1_555
N18 Rb3 3.213680 1_555
N18 Rb0 3.458198 1_545
N19 N7 1.359123 1_555
N19 Rb2 3.213680 1_555
N19 Rb1 3.458198 1_565
