# generated using pymatgen
data_Ta6Mn2FeO18
_symmetry_space_group_name_H-M   'P 1'
_cell_length_a   10.53330145
_cell_length_b   10.53330145
_cell_length_c   11.58229079
_cell_angle_alpha   58.19970115
_cell_angle_beta   58.19970115
_cell_angle_gamma   37.94349374
_symmetry_Int_Tables_number   1
_chemical_formula_structural   Ta6Mn2FeO18
_chemical_formula_sum   'Ta12 Mn4 Fe2 O36'
_cell_volume   656.11860631
_cell_formula_units_Z   2
loop_
 _symmetry_equiv_pos_site_id
 _symmetry_equiv_pos_as_xyz
  1  'x, y, z'
loop_
 _atom_site_type_symbol
 _atom_site_label
 _atom_site_symmetry_multiplicity
 _atom_site_fract_x
 _atom_site_fract_y
 _atom_site_fract_z
 _atom_site_occupancy
  Ta  Ta0  1  0.11219900  0.11219900  0.60974700  1
  Ta  Ta1  1  0.44379100  0.44379100  0.94464500  1
  Ta  Ta2  1  0.77654800  0.77654800  0.27770900  1
  Ta  Ta3  1  0.11028400  0.11028400  0.11135200  1
  Ta  Ta4  1  0.44371000  0.44371000  0.44293000  1
  Ta  Ta5  1  0.77674300  0.77674300  0.77678800  1
  Ta  Ta6  1  0.88780100  0.88780100  0.39025300  1
  Ta  Ta7  1  0.22345200  0.22345200  0.72229100  1
  Ta  Ta8  1  0.55620900  0.55620900  0.05535500  1
  Ta  Ta9  1  0.22325700  0.22325700  0.22321200  1
  Ta  Ta10  1  0.55629000  0.55629000  0.55707000  1
  Ta  Ta11  1  0.88971600  0.88971600  0.88864800  1
  Mn  Mn0  1  0.66645200  0.66645200  0.16625700  1
  Mn  Mn1  1  0.33354800  0.33354800  0.83374300  1
  Mn  Mn2  1  0.00000000  0.00000000  0.50000000  1
  Mn  Mn3  1  0.00000000  0.00000000  0.00000000  1
  Fe  Fe0  1  0.66637700  0.66637700  0.66745300  1
  Fe  Fe1  1  0.33362300  0.33362300  0.33254700  1
  O  O0  1  0.39879200  0.81392100  0.60615600  1
  O  O1  1  0.73123600  0.14655400  0.94046700  1
  O  O2  1  0.06559900  0.48039000  0.27172700  1
  O  O3  1  0.81392100  0.39879200  0.60615600  1
  O  O4  1  0.14655400  0.73123600  0.94046700  1
  O  O5  1  0.48039000  0.06559900  0.27172700  1
  O  O6  1  0.00718200  0.00718200  0.30075200  1
  O  O7  1  0.34208200  0.34208200  0.63449900  1
  O  O8  1  0.67480300  0.67480300  0.96797800  1
  O  O9  1  0.86976800  0.86976800  0.57741400  1
  O  O10  1  0.20380300  0.20380300  0.91040200  1
  O  O11  1  0.53669600  0.53669600  0.24314200  1
  O  O12  1  0.60120800  0.18607900  0.39384400  1
  O  O13  1  0.93440100  0.51961000  0.72827300  1
  O  O14  1  0.26876400  0.85344600  0.05953300  1
  O  O15  1  0.18607900  0.60120800  0.39384400  1
  O  O16  1  0.51961000  0.93440100  0.72827300  1
  O  O17  1  0.85344600  0.26876400  0.05953300  1
  O  O18  1  0.99281800  0.99281800  0.69924800  1
  O  O19  1  0.32519700  0.32519700  0.03202200  1
  O  O20  1  0.65791800  0.65791800  0.36550100  1
  O  O21  1  0.13023200  0.13023200  0.42258600  1
  O  O22  1  0.46330400  0.46330400  0.75685800  1
  O  O23  1  0.79619700  0.79619700  0.08959800  1
  O  O24  1  0.98246300  0.34989800  0.16706100  1
  O  O25  1  0.65010200  0.01753700  0.83293900  1
  O  O26  1  0.31652400  0.68347600  0.50000000  1
  O  O27  1  0.34989800  0.98246300  0.16706100  1
  O  O28  1  0.01753700  0.65010200  0.83293900  1
  O  O29  1  0.68347600  0.31652400  0.50000000  1
  O  O30  1  0.89337200  0.89337200  0.21194500  1
  O  O31  1  0.56233200  0.56233200  0.87501500  1
  O  O32  1  0.23083800  0.23083800  0.53985100  1
  O  O33  1  0.76916200  0.76916200  0.46014900  1
  O  O34  1  0.43766800  0.43766800  0.12498500  1
  O  O35  1  0.10662800  0.10662800  0.78805500  1
loop_
_geom_bond_atom_site_label_1
_geom_bond_atom_site_label_2
_geom_bond_distance
_geom_bond_site_symmetry_2
Mn0 O27 2.166167 1_555
Mn0 O24 2.166167 1_555
Mn0 O8 2.208144 1_554
Mn0 O11 2.215834 1_555
Mn0 O23 2.216278 1_555
Mn0 O20 2.217462 1_555
Mn1 O25 2.166167 1_555
Mn1 O28 2.166167 1_555
Mn1 O19 2.208144 1_556
Mn1 O22 2.215834 1_555
Mn1 O10 2.216278 1_555
Mn1 O7 2.217462 1_555
Mn2 O29 2.167807 1_455
Mn2 O26 2.167807 1_545
Mn2 O21 2.223254 1_555
Mn2 O9 2.223254 1_445
Mn2 O18 2.231185 1_445
Mn2 O6 2.231185 1_555
Mn3 O35 2.174181 1_554
Mn3 O30 2.174181 1_445
Mn3 O14 2.217104 1_545
Mn3 O17 2.217104 1_455
Mn3 O1 2.217104 1_454
Mn3 O4 2.217104 1_544
Fe0 O33 2.116308 1_555
Fe0 O31 2.126612 1_555
Fe0 O3 2.213773 1_555
Fe0 O0 2.213773 1_555
Fe0 O16 2.218321 1_555
Fe0 O13 2.218321 1_555
Fe1 O32 2.116308 1_555
Fe1 O34 2.126612 1_555
Fe1 O15 2.213773 1_555
Fe1 O12 2.213773 1_555
Fe1 O5 2.218321 1_555
Fe1 O2 2.218321 1_555
O0 Ta10 1.992720 1_555
O0 Ta0 2.007984 1_565
O1 Ta11 1.999542 1_545
O1 Ta1 2.006452 1_555
O2 Ta9 1.983855 1_555
O2 Ta2 2.007796 1_455
O3 Ta10 1.992720 1_555
O3 Ta0 2.007984 1_655
O4 Ta11 1.999542 1_455
O4 Ta1 2.006452 1_555
O5 Ta9 1.983855 1_555
O5 Ta2 2.007796 1_545
O6 Ta6 1.995856 1_445
O6 Ta3 2.002411 1_555
O7 Ta7 1.985264 1_555
O7 Ta4 2.003955 1_555
O8 Ta8 1.985347 1_556
O8 Ta5 2.004033 1_555
O9 Ta6 1.990050 1_555
O9 Ta5 1.999406 1_555
O10 Ta7 1.987389 1_555
O10 Ta3 2.013854 1_556
O11 Ta8 1.984809 1_555
O11 Ta4 2.002252 1_555
O12 Ta4 1.992720 1_555
O12 Ta6 2.007984 1_545
O13 Ta5 1.983855 1_555
O13 Ta7 2.007796 1_655
O14 Ta3 1.999542 1_565
O14 Ta8 2.006452 1_555
O15 Ta4 1.992720 1_555
O15 Ta6 2.007984 1_455
O16 Ta5 1.983855 1_555
O16 Ta7 2.007796 1_565
O17 Ta3 1.999542 1_655
O17 Ta8 2.006452 1_555
O18 Ta0 1.995856 1_665
O18 Ta11 2.002411 1_555
O19 Ta1 1.985347 1_554
O19 Ta9 2.004033 1_555
O20 Ta2 1.985264 1_555
O20 Ta10 2.003955 1_555
O21 Ta0 1.990050 1_555
O21 Ta9 1.999406 1_555
O22 Ta1 1.984809 1_555
O22 Ta10 2.002252 1_555
O23 Ta2 1.987389 1_555
O23 Ta11 2.013854 1_554
O24 Ta3 2.010061 1_655
O24 Ta9 2.030586 1_655
O25 Ta11 2.010061 1_545
O25 Ta5 2.030586 1_545
O26 Ta4 2.024755 1_555
O26 Ta10 2.024755 1_555
O27 Ta3 2.010061 1_565
O27 Ta9 2.030586 1_565
O28 Ta11 2.010061 1_455
O28 Ta5 2.030586 1_455
O29 Ta4 2.024755 1_555
O29 Ta10 2.024755 1_555
O30 Ta2 2.005312 1_555
O30 Ta6 2.005489 1_555
O31 Ta8 2.023314 1_556
O31 Ta1 2.026080 1_555
O32 Ta0 2.027149 1_555
O32 Ta7 2.034751 1_555
O33 Ta6 2.027149 1_555
O33 Ta2 2.034751 1_555
O34 Ta1 2.023314 1_554
O34 Ta8 2.026080 1_555
O35 Ta7 2.005312 1_555
O35 Ta0 2.005489 1_555
