# generated using pymatgen
data_Ba2Ti5(Bi2O9)2
_symmetry_space_group_name_H-M   'P 1'
_cell_length_a   25.38388933
_cell_length_b   25.38388933
_cell_length_c   5.58124866
_cell_angle_alpha   89.81334195
_cell_angle_beta   89.81334195
_cell_angle_gamma   167.36262332
_symmetry_Int_Tables_number   1
_chemical_formula_structural   Ba2Ti5(Bi2O9)2
_chemical_formula_sum   'Ba4 Ti10 Bi8 O36'
_cell_volume   786.43826862
_cell_formula_units_Z   2
loop_
 _symmetry_equiv_pos_site_id
 _symmetry_equiv_pos_as_xyz
  1  'x, y, z'
loop_
 _atom_site_type_symbol
 _atom_site_label
 _atom_site_symmetry_multiplicity
 _atom_site_fract_x
 _atom_site_fract_y
 _atom_site_fract_z
 _atom_site_occupancy
  Ba  Ba0  1  0.63909100  0.88806800  0.51145600  1
  Ba  Ba1  1  0.88806800  0.63909100  0.01145600  1
  Ba  Ba2  1  0.45715800  0.03907200  0.50321200  1
  Ba  Ba3  1  0.03907200  0.45715800  0.00321200  1
  Ti  Ti0  1  0.91296500  0.58002800  0.51852800  1
  Ti  Ti1  1  0.09762900  0.42915300  0.49945800  1
  Ti  Ti2  1  0.42915300  0.09762900  0.99945800  1
  Ti  Ti3  1  0.58002800  0.91296500  0.01852800  1
  Ti  Ti4  1  0.85696500  0.70044700  0.51238400  1
  Ti  Ti5  1  0.17808800  0.33483800  0.51701900  1
  Ti  Ti6  1  0.33483800  0.17808800  0.01701900  1
  Ti  Ti7  1  0.70044700  0.85696500  0.01238400  1
  Ti  Ti8  1  0.00130400  0.50026700  0.50554600  1
  Ti  Ti9  1  0.50026700  0.00130400  0.00554600  1
  Bi  Bi0  1  0.70528800  0.75486500  0.47188200  1
  Bi  Bi1  1  0.25476400  0.20560400  0.51826600  1
  Bi  Bi2  1  0.20560400  0.25476400  0.01826600  1
  Bi  Bi3  1  0.75486500  0.70528800  0.97188200  1
  Bi  Bi4  1  0.42036000  0.18958800  0.53648900  1
  Bi  Bi5  1  0.18958800  0.42036000  0.03648900  1
  Bi  Bi6  1  0.58953200  0.00058900  0.55886100  1
  Bi  Bi7  1  0.00058900  0.58953200  0.05886100  1
  O  O0  1  0.14559000  0.80652700  0.22769600  1
  O  O1  1  0.32318300  0.66357800  0.72451800  1
  O  O2  1  0.66357800  0.32318300  0.22451800  1
  O  O3  1  0.80652700  0.14559000  0.72769600  1
  O  O4  1  0.22128300  0.72042800  0.22564900  1
  O  O5  1  0.22791300  0.72617500  0.72838500  1
  O  O6  1  0.72617500  0.22791300  0.22838500  1
  O  O7  1  0.72042800  0.22128300  0.72564900  1
  O  O8  1  0.49480900  0.49380400  0.24973300  1
  O  O9  1  0.99568000  0.99790200  0.75687800  1
  O  O10  1  0.99790200  0.99568000  0.25687800  1
  O  O11  1  0.49380400  0.49480900  0.74973300  1
  O  O12  1  0.82229800  0.73574100  0.54732600  1
  O  O13  1  0.22378400  0.31128300  0.48136000  1
  O  O14  1  0.31128300  0.22378400  0.98136000  1
  O  O15  1  0.73574100  0.82229800  0.04732600  1
  O  O16  1  0.83382600  0.57545300  0.50400800  1
  O  O17  1  0.13284400  0.39078000  0.46879200  1
  O  O18  1  0.39078000  0.13284400  0.96879200  1
  O  O19  1  0.57545300  0.83382600  0.00400800  1
  O  O20  1  0.41885400  0.59242600  0.25082900  1
  O  O21  1  0.10799900  0.93428100  0.73542200  1
  O  O22  1  0.93428100  0.10799900  0.23542200  1
  O  O23  1  0.59242600  0.41885400  0.75082900  1
  O  O24  1  0.07576600  0.90718900  0.24299300  1
  O  O25  1  0.39691700  0.56730100  0.77048100  1
  O  O26  1  0.56730100  0.39691700  0.27048100  1
  O  O27  1  0.90718900  0.07576600  0.74299300  1
  O  O28  1  0.95909800  0.53957300  0.45757500  1
  O  O29  1  0.98545500  0.40579800  0.49698900  1
  O  O30  1  0.40579800  0.98545500  0.99698900  1
  O  O31  1  0.53957300  0.95909800  0.95757500  1
  O  O32  1  0.31053500  0.65332200  0.23453900  1
  O  O33  1  0.14400500  0.80693700  0.74372400  1
  O  O34  1  0.80693700  0.14400500  0.24372400  1
  O  O35  1  0.65332200  0.31053500  0.73453900  1
loop_
_geom_bond_atom_site_label_1
_geom_bond_atom_site_label_2
_geom_bond_distance
_geom_bond_site_symmetry_2
Ba0 O27 2.739251 1_565
Ba0 O19 2.769180 1_556
Ba0 O17 2.796122 1_665
Ba0 O22 2.813990 1_565
Ba0 O20 2.817170 1_555
Ba0 O17 2.829739 1_555
Ba0 O3 2.848979 1_565
Ba0 O19 2.870747 1_555
Ba0 O25 2.891465 1_555
Ba0 O34 2.910217 1_565
Ba0 O1 2.984417 1_555
Ba0 O32 3.257447 1_555
Ba1 O24 2.739251 1_655
Ba1 O16 2.769180 1_555
Ba1 O18 2.796122 1_664
Ba1 O21 2.813990 1_654
Ba1 O23 2.817170 1_554
Ba1 O18 2.829739 1_554
Ba1 O0 2.848979 1_655
Ba1 O16 2.870747 1_554
Ba1 O26 2.891465 1_555
Ba1 O33 2.910217 1_654
Ba1 O2 2.984417 1_555
Ba1 O35 3.257447 1_554
Ba2 O35 2.661320 1_555
Ba2 O7 2.713675 1_555
Ba2 O30 2.763394 1_545
Ba2 O28 2.804808 1_555
Ba2 O28 2.806242 1_445
Ba2 O6 2.822156 1_555
Ba2 O2 2.830784 1_555
Ba2 O30 2.849727 1_544
Ba2 O33 2.860021 1_545
Ba2 O5 2.866177 1_545
Ba2 O0 2.964558 1_545
Ba2 O4 3.050014 1_545
Ba3 O32 2.661320 1_555
Ba3 O4 2.713675 1_555
Ba3 O29 2.763394 1_455
Ba3 O31 2.804808 1_554
Ba3 O31 2.806242 1_444
Ba3 O5 2.822156 1_554
Ba3 O1 2.830784 1_554
Ba3 O29 2.849727 1_454
Ba3 O34 2.860021 1_455
Ba3 O6 2.866177 1_455
Ba3 O3 2.964558 1_454
Ba3 O7 3.050014 1_454
Bi0 O8 2.235616 1_555
Bi0 O10 2.294093 1_555
Bi0 O11 2.349691 1_555
Bi0 O9 2.513706 1_555
Bi0 O15 2.553758 1_555
Bi0 O13 2.754877 1_555
Bi1 O9 2.247636 1_445
Bi1 O10 2.311693 1_445
Bi1 O11 2.358294 1_555
Bi1 O8 2.401928 1_555
Bi1 O12 2.692025 1_445
Bi1 O14 2.773354 1_555
Bi2 O10 2.247636 1_445
Bi2 O9 2.311693 1_444
Bi2 O8 2.358294 1_555
Bi2 O11 2.401928 1_554
Bi2 O15 2.692025 1_445
Bi2 O13 2.773354 1_555
Bi3 O11 2.235616 1_555
Bi3 O9 2.294093 1_555
Bi3 O8 2.349691 1_556
Bi3 O10 2.513706 1_556
Bi3 O12 2.553758 1_555
Bi3 O14 2.754877 1_555
Bi4 O23 2.202329 1_555
Bi4 O26 2.327669 1_555
Bi4 O16 2.341060 1_555
Bi4 O21 2.390737 1_545
Bi4 O18 2.512958 1_555
Bi5 O20 2.202329 1_555
Bi5 O25 2.327669 1_554
Bi5 O19 2.341060 1_555
Bi5 O22 2.390737 1_455
Bi5 O17 2.512958 1_555
Bi6 O31 2.242614 1_545
Bi6 O29 2.266632 1_555
Bi6 O3 2.294859 1_555
Bi6 O1 2.604261 1_545
Bi6 O7 2.649209 1_555
Bi6 O34 2.736674 1_555
Bi7 O28 2.242614 1_455
Bi7 O30 2.266632 1_554
Bi7 O0 2.294859 1_555
Bi7 O2 2.604261 1_455
Bi7 O4 2.649209 1_555
Bi7 O33 2.736674 1_554
O0 Ti2 2.028614 1_564
O0 Ti0 2.044663 1_455
O1 Ti1 1.837071 1_555
O1 Ti3 2.205820 1_556
O2 Ti2 1.837071 1_554
O2 Ti0 2.205820 1_555
O3 Ti1 2.028614 1_655
O3 Ti3 2.044663 1_546
O4 Ti8 1.959252 1_555
O4 Ti9 1.960609 1_565
O5 Ti8 1.799567 1_555
O5 Ti9 2.208458 1_566
O6 Ti9 1.799567 1_555
O6 Ti8 2.208458 1_655
O7 Ti9 1.959252 1_556
O7 Ti8 1.960609 1_655
O12 Ti4 1.775841 1_555
O13 Ti5 1.759360 1_555
O14 Ti6 1.759360 1_556
O15 Ti7 1.775841 1_555
O16 Ti0 1.897735 1_555
O16 Ti4 2.603519 1_555
O17 Ti1 1.864519 1_555
O17 Ti5 2.567123 1_555
O18 Ti2 1.864519 1_555
O18 Ti6 2.567123 1_556
O19 Ti3 1.897735 1_555
O19 Ti7 2.603519 1_555
O20 Ti7 2.040558 1_555
O20 Ti5 2.050190 1_555
O21 Ti4 1.916412 1_455
O21 Ti6 2.122395 1_566
O22 Ti7 1.916412 1_545
O22 Ti5 2.122395 1_655
O23 Ti4 2.040558 1_555
O23 Ti6 2.050190 1_556
O24 Ti4 1.913302 1_455
O24 Ti6 1.939406 1_565
O25 Ti5 1.953118 1_555
O25 Ti7 2.196367 1_556
O26 Ti6 1.953118 1_555
O26 Ti4 2.196367 1_555
O27 Ti7 1.913302 1_546
O27 Ti5 1.939406 1_655
O28 Ti8 2.073924 1_655
O28 Ti0 2.210902 1_555
O29 Ti8 2.008143 1_655
O29 Ti1 2.272748 1_655
O30 Ti9 2.008143 1_566
O30 Ti2 2.272748 1_565
O31 Ti9 2.073924 1_566
O31 Ti3 2.210902 1_556
O32 Ti3 1.896044 1_555
O32 Ti1 1.910773 1_555
O33 Ti0 1.822801 1_455
O33 Ti2 2.186492 1_565
O34 Ti3 1.822801 1_545
O34 Ti1 2.186492 1_655
O35 Ti0 1.896044 1_555
O35 Ti2 1.910773 1_555
