# generated using pymatgen
data_NaEuZr2O6
_symmetry_space_group_name_H-M   'P 1'
_cell_length_a   4.19472503
_cell_length_b   5.74142475
_cell_length_c   5.74142475
_cell_angle_alpha   89.76582188
_cell_angle_beta   90.00000000
_cell_angle_gamma   90.00000000
_symmetry_Int_Tables_number   1
_chemical_formula_structural   NaEuZr2O6
_chemical_formula_sum   'Na1 Eu1 Zr2 O6'
_cell_volume   138.27358564
_cell_formula_units_Z   1
loop_
 _symmetry_equiv_pos_site_id
 _symmetry_equiv_pos_as_xyz
  1  'x, y, z'
loop_
 _atom_site_type_symbol
 _atom_site_label
 _atom_site_symmetry_multiplicity
 _atom_site_fract_x
 _atom_site_fract_y
 _atom_site_fract_z
 _atom_site_occupancy
  Na  Na0  1  0.50000000  0.50000000  0.50000000  1
  Eu  Eu0  1  0.50000000  -0.00000000  -0.00000000  1
  Zr  Zr0  1  0.00000000  -0.00000000  0.50000000  1
  Zr  Zr1  1  0.00000000  0.50000000  -0.00000000  1
  O  O0  1  0.50000000  -0.00000000  0.50000000  1
  O  O1  1  0.50000000  0.50000000  -0.00000000  1
  O  O2  1  0.00000000  0.31416488  0.68583512  1
  O  O3  1  0.00000000  0.68583512  0.31416488  1
  O  O4  1  0.00000000  0.83272014  0.83272014  1
  O  O5  1  0.00000000  0.16727986  0.16727986  1
loop_
_geom_bond_atom_site_label_1
_geom_bond_atom_site_label_2
_geom_bond_distance
_geom_bond_site_symmetry_2
Na0 O2 2.581942 1_655
Na0 O3 2.581942 1_555
Na0 O2 2.581942 1_555
Na0 O3 2.581942 1_655
Na0 O0 2.870712 1_565
Na0 O0 2.870712 1_555
Na0 O1 2.870712 1_555
Na0 O1 2.870712 1_556
Eu0 O4 2.500260 1_544
Eu0 O4 2.500260 1_644
Eu0 O5 2.500260 1_555
Eu0 O5 2.500260 1_655
Eu0 O1 2.870712 1_545
Eu0 O0 2.870712 1_555
Eu0 O0 2.870712 1_554
Eu0 O1 2.870712 1_555
O0 Zr0 2.097363 1_655
O0 Zr0 2.097363 1_555
O1 Zr1 2.097363 1_555
O1 Zr1 2.097363 1_655
O2 Zr1 2.099443 1_556
O2 Zr0 2.099443 1_555
O3 Zr1 2.099443 1_555
O3 Zr0 2.099443 1_565
O4 Zr0 2.134623 1_565
O4 Zr1 2.134623 1_556
O5 Zr1 2.134623 1_555
O5 Zr0 2.134623 1_555
