# generated using pymatgen
data_NdGe2Rh
_symmetry_space_group_name_H-M   'P 1'
_cell_length_a   8.80321043
_cell_length_b   8.80321043
_cell_length_c   4.33397934
_cell_angle_alpha   90.00000000
_cell_angle_beta   90.00000000
_cell_angle_gamma   151.49665300
_symmetry_Int_Tables_number   1
_chemical_formula_structural   NdGe2Rh
_chemical_formula_sum   'Nd2 Ge4 Rh2'
_cell_volume   160.27973925
_cell_formula_units_Z   2
loop_
 _symmetry_equiv_pos_site_id
 _symmetry_equiv_pos_as_xyz
  1  'x, y, z'
loop_
 _atom_site_type_symbol
 _atom_site_label
 _atom_site_symmetry_multiplicity
 _atom_site_fract_x
 _atom_site_fract_y
 _atom_site_fract_z
 _atom_site_occupancy
  Nd  Nd0  1  0.89132949  0.10867051  0.25000000  1
  Nd  Nd1  1  0.10867051  0.89132949  0.75000000  1
  Ge  Ge0  1  0.54058867  0.45941133  0.25000000  1
  Ge  Ge1  1  0.45941133  0.54058867  0.75000000  1
  Ge  Ge2  1  0.25051786  0.74948214  0.25000000  1
  Ge  Ge3  1  0.74948214  0.25051786  0.75000000  1
  Rh  Rh0  1  0.68041448  0.31958552  0.25000000  1
  Rh  Rh1  1  0.31958552  0.68041448  0.75000000  1
loop_
_geom_bond_atom_site_label_1
_geom_bond_atom_site_label_2
_geom_bond_distance
_geom_bond_site_symmetry_2
Nd0 Rh1 3.300214 1_655
Nd0 Rh1 3.300214 1_544
Nd0 Rh1 3.300214 1_654
Nd0 Rh1 3.300214 1_545
Nd1 Rh0 3.300214 1_456
Nd1 Rh0 3.300214 1_455
Nd1 Rh0 3.300214 1_566
Nd1 Rh0 3.300214 1_565
Ge0 Rh0 2.386066 1_555
Ge0 Ge1 2.571921 1_554
Ge0 Ge1 2.571921 1_555
Ge0 Nd1 3.277545 1_545
Ge0 Nd1 3.277545 1_544
Ge0 Nd1 3.277545 1_654
Ge0 Nd1 3.277545 1_655
Ge0 Nd0 3.344268 1_455
Ge0 Nd0 3.344268 1_565
Ge1 Rh1 2.386066 1_555
Ge1 Nd0 3.277545 1_456
Ge1 Nd0 3.277545 1_455
Ge1 Nd0 3.277545 1_565
Ge1 Nd0 3.277545 1_566
Ge1 Nd1 3.344268 1_545
Ge1 Nd1 3.344268 1_655
Ge2 Rh1 2.466772 1_555
Ge2 Rh1 2.466772 1_554
Ge2 Rh0 2.475439 1_455
Ge2 Rh0 2.475439 1_565
Ge2 Nd0 3.235827 1_565
Ge2 Nd0 3.235827 1_455
Ge2 Nd1 3.248841 1_554
Ge2 Nd1 3.248841 1_555
Ge3 Rh0 2.466772 1_556
Ge3 Rh0 2.466772 1_555
Ge3 Rh1 2.475439 1_655
Ge3 Rh1 2.475439 1_545
Ge3 Nd1 3.235827 1_545
Ge3 Nd1 3.235827 1_655
Ge3 Nd0 3.248841 1_555
Ge3 Nd0 3.248841 1_556
