# generated using pymatgen
data_Zr2(SO6)3
_symmetry_space_group_name_H-M   'P 1'
_cell_length_a   7.62467665
_cell_length_b   7.62467665
_cell_length_c   15.42102490
_cell_angle_alpha   85.63735573
_cell_angle_beta   85.63735573
_cell_angle_gamma   50.51328191
_symmetry_Int_Tables_number   1
_chemical_formula_structural   Zr2(SO6)3
_chemical_formula_sum   'Zr4 S6 O36'
_cell_volume   689.45112446
_cell_formula_units_Z   2
loop_
 _symmetry_equiv_pos_site_id
 _symmetry_equiv_pos_as_xyz
  1  'x, y, z'
loop_
 _atom_site_type_symbol
 _atom_site_label
 _atom_site_symmetry_multiplicity
 _atom_site_fract_x
 _atom_site_fract_y
 _atom_site_fract_z
 _atom_site_occupancy
  Zr  Zr0  1  0.89605400  0.88582500  0.07974900  1
  Zr  Zr1  1  0.11417500  0.10394600  0.42025100  1
  Zr  Zr2  1  0.10394600  0.11417500  0.92025100  1
  Zr  Zr3  1  0.88582500  0.89605400  0.57974900  1
  S  S0  1  0.73113500  0.26886500  0.25000000  1
  S  S1  1  0.26886500  0.73113500  0.75000000  1
  S  S2  1  0.30240500  0.27618700  0.06935900  1
  S  S3  1  0.72381300  0.69759500  0.43064100  1
  S  S4  1  0.69759500  0.72381300  0.93064100  1
  S  S5  1  0.27618700  0.30240500  0.56935900  1
  O  O0  1  0.04640500  0.87329500  0.95638800  1
  O  O1  1  0.12670500  0.95359500  0.54361200  1
  O  O2  1  0.95359500  0.12670500  0.04361200  1
  O  O3  1  0.87329500  0.04640500  0.45638800  1
  O  O4  1  0.80115100  0.06376000  0.20480300  1
  O  O5  1  0.93624000  0.19884900  0.29519700  1
  O  O6  1  0.19884900  0.93624000  0.79519700  1
  O  O7  1  0.06376000  0.80115100  0.70480300  1
  O  O8  1  0.54222100  0.34330500  0.31255400  1
  O  O9  1  0.65669500  0.45777900  0.18744600  1
  O  O10  1  0.45777900  0.65669500  0.68744600  1
  O  O11  1  0.34330500  0.54222100  0.81255400  1
  O  O12  1  0.18556400  0.51775300  0.09351500  1
  O  O13  1  0.48224700  0.81443600  0.40648500  1
  O  O14  1  0.81443600  0.48224700  0.90648500  1
  O  O15  1  0.51775300  0.18556400  0.59351500  1
  O  O16  1  0.54684600  0.17319800  0.05328600  1
  O  O17  1  0.82680200  0.45315400  0.44671400  1
  O  O18  1  0.45315400  0.82680200  0.94671400  1
  O  O19  1  0.17319800  0.54684600  0.55328600  1
  O  O20  1  0.21562500  0.28081300  0.98484200  1
  O  O21  1  0.71918700  0.78437500  0.51515800  1
  O  O22  1  0.78437500  0.71918700  0.01515800  1
  O  O23  1  0.28081300  0.21562500  0.48484200  1
  O  O24  1  0.26937500  0.15855000  0.13788900  1
  O  O25  1  0.84145000  0.73062500  0.36211100  1
  O  O26  1  0.73062500  0.84145000  0.86211100  1
  O  O27  1  0.15855000  0.26937500  0.63788900  1
  O  O28  1  0.17459600  0.84318300  0.13607900  1
  O  O29  1  0.15681700  0.82540400  0.36392100  1
  O  O30  1  0.82540400  0.15681700  0.86392100  1
  O  O31  1  0.84318300  0.17459600  0.63607900  1
  O  O32  1  0.81406400  0.72016100  0.18582500  1
  O  O33  1  0.27983900  0.18593600  0.31417500  1
  O  O34  1  0.18593600  0.27983900  0.81417500  1
  O  O35  1  0.72016100  0.81406400  0.68582500  1
loop_
_geom_bond_atom_site_label_1
_geom_bond_atom_site_label_2
_geom_bond_distance
_geom_bond_site_symmetry_2
O0 Zr0 2.121045 1_456
O0 Zr2 2.169826 1_565
O1 Zr1 2.121045 1_565
O1 Zr3 2.169826 1_455
O2 Zr2 2.121045 1_654
O2 Zr0 2.169826 1_545
O3 Zr3 2.121045 1_545
O3 Zr1 2.169826 1_655
O4 S0 1.504619 1_555
O4 Zr0 2.240624 1_545
O5 S0 1.504619 1_555
O5 Zr1 2.240624 1_655
O6 S1 1.504619 1_555
O6 Zr2 2.240624 1_565
O7 S1 1.504619 1_555
O7 Zr3 2.240624 1_455
O8 S0 1.469563 1_555
O9 S0 1.469563 1_555
O10 S1 1.469563 1_555
O11 S1 1.469563 1_555
O12 S2 1.513909 1_555
O12 Zr0 2.212627 1_455
O13 S3 1.513909 1_555
O13 Zr1 2.212627 1_565
O14 S4 1.513909 1_555
O14 Zr2 2.212627 1_655
O15 S5 1.513909 1_555
O15 Zr3 2.212627 1_545
O16 S2 1.499914 1_555
O16 Zr0 2.160204 1_545
O17 S3 1.499914 1_555
O17 Zr1 2.160204 1_655
O18 S4 1.499914 1_555
O18 Zr2 2.160204 1_565
O19 S5 1.499914 1_555
O19 Zr3 2.160204 1_455
O20 S2 1.494078 1_556
O20 Zr2 2.242561 1_555
O21 S3 1.494078 1_555
O21 Zr3 2.242561 1_555
O22 S4 1.494078 1_554
O22 Zr0 2.242561 1_555
O23 S5 1.494078 1_555
O23 Zr1 2.242561 1_555
O24 S2 1.444766 1_555
O25 S3 1.444766 1_555
O26 S4 1.444766 1_555
O27 S5 1.444766 1_555
O28 Zr0 2.174925 1_455
O29 Zr1 2.174925 1_565
O30 Zr2 2.174925 1_655
O31 Zr3 2.174925 1_545
O32 Zr0 2.279583 1_555
O33 Zr1 2.279583 1_555
O34 Zr2 2.279583 1_555
O35 Zr3 2.279583 1_555
