# generated using pymatgen
data_Ca3Mg2Fe(CO3)6
_symmetry_space_group_name_H-M   'P 1'
_cell_length_a   4.89074700
_cell_length_b   6.09229160
_cell_length_c   12.49030418
_cell_angle_alpha   99.96622464
_cell_angle_beta   90.15998411
_cell_angle_gamma   113.55337271
_symmetry_Int_Tables_number   1
_chemical_formula_structural   Ca3Mg2Fe(CO3)6
_chemical_formula_sum   'Ca3 Mg2 Fe1 C6 O18'
_cell_volume   334.93736740
_cell_formula_units_Z   1
loop_
 _symmetry_equiv_pos_site_id
 _symmetry_equiv_pos_as_xyz
  1  'x, y, z'
loop_
 _atom_site_type_symbol
 _atom_site_label
 _atom_site_symmetry_multiplicity
 _atom_site_fract_x
 _atom_site_fract_y
 _atom_site_fract_z
 _atom_site_occupancy
  Ca  Ca0  1  0.66667400  0.83403600  0.83306100  1
  Ca  Ca1  1  0.33332600  0.16596400  0.16693900  1
  Ca  Ca2  1  0.00000000  0.50000000  0.50000000  1
  Mg  Mg0  1  0.66670900  0.83363400  0.33328700  1
  Mg  Mg1  1  0.33329100  0.16636600  0.66671300  1
  Fe  Fe0  1  0.00000000  0.50000000  0.00000000  1
  C  C0  1  0.65913700  0.81749100  0.08595800  1
  C  C1  1  0.32390200  0.14799300  0.41903700  1
  C  C2  1  0.99093300  0.48133400  0.75178800  1
  C  C3  1  0.67609800  0.85200700  0.58096300  1
  C  C4  1  0.34086300  0.18250900  0.91404200  1
  C  C5  1  0.00906700  0.51866600  0.24821200  1
  O  O0  1  0.12661000  0.06786100  0.33593300  1
  O  O1  1  0.79372900  0.40070800  0.66872800  1
  O  O2  1  0.46782000  0.73820000  0.00152400  1
  O  O3  1  0.59469600  0.90963400  0.17890700  1
  O  O4  1  0.26495700  0.24461800  0.51250800  1
  O  O5  1  0.93118400  0.58018000  0.84443500  1
  O  O6  1  0.58436300  0.13997400  0.40771700  1
  O  O7  1  0.25018300  0.47255300  0.74122600  1
  O  O8  1  0.92064000  0.81332700  0.07656700  1
  O  O9  1  0.20627100  0.59929200  0.33127200  1
  O  O10  1  0.87339000  0.93213900  0.66406700  1
  O  O11  1  0.53218000  0.26180000  0.99847600  1
  O  O12  1  0.73504300  0.75538200  0.48749200  1
  O  O13  1  0.40530400  0.09036600  0.82109300  1
  O  O14  1  0.06881600  0.41982000  0.15556500  1
  O  O15  1  0.74981700  0.52744700  0.25877400  1
  O  O16  1  0.41563700  0.86002600  0.59228300  1
  O  O17  1  0.07936000  0.18667300  0.92343300  1
loop_
_geom_bond_atom_site_label_1
_geom_bond_atom_site_label_2
_geom_bond_distance
_geom_bond_site_symmetry_2
Ca0 O17 2.376077 1_665
Ca0 O2 2.386850 1_556
Ca0 O5 2.399914 1_555
Ca0 O13 2.402130 1_565
Ca0 O10 2.408405 1_555
Ca0 O7 2.417077 1_555
Ca1 O8 2.376077 1_445
Ca1 O11 2.386850 1_554
Ca1 O14 2.399914 1_555
Ca1 O3 2.402130 1_545
Ca1 O0 2.408405 1_555
Ca1 O15 2.417077 1_555
Ca2 O1 2.406339 1_455
Ca2 O9 2.406339 1_555
Ca2 O4 2.412183 1_555
Ca2 O12 2.412183 1_455
Ca2 O16 2.412494 1_555
Ca2 O6 2.412494 1_455
Mg0 O12 2.119026 1_555
Mg0 O3 2.119470 1_555
Mg0 O6 2.124103 1_565
Mg0 O0 2.124764 1_665
Mg0 O15 2.125603 1_555
Mg0 O9 2.127842 1_555
Mg1 O4 2.119026 1_555
Mg1 O13 2.119470 1_555
Mg1 O16 2.124103 1_545
Mg1 O10 2.124764 1_445
Mg1 O7 2.125603 1_555
Mg1 O1 2.127842 1_555
Fe0 O5 2.140939 1_454
Fe0 O14 2.140939 1_555
Fe0 O8 2.161336 1_455
Fe0 O17 2.161336 1_554
Fe0 O11 2.162819 1_454
Fe0 O2 2.162819 1_555
C0 O8 1.294542 1_555
C0 O2 1.295363 1_555
C0 O3 1.296204 1_555
C1 O0 1.299746 1_555
C1 O4 1.300874 1_555
C1 O6 1.301315 1_555
C2 O7 1.296381 1_655
C2 O1 1.298915 1_555
C2 O5 1.299400 1_555
C3 O10 1.299746 1_555
C3 O12 1.300874 1_555
C3 O16 1.301315 1_555
C4 O17 1.294542 1_555
C4 O11 1.295363 1_555
C4 O13 1.296204 1_555
C5 O15 1.296381 1_455
C5 O9 1.298915 1_555
C5 O14 1.299400 1_555
