# generated using pymatgen
data_NaCoO2
_symmetry_space_group_name_H-M   'P 1'
_cell_length_a   2.90574462
_cell_length_b   12.76548727
_cell_length_c   4.84826297
_cell_angle_alpha   89.64931731
_cell_angle_beta   90.38796241
_cell_angle_gamma   92.74768346
_symmetry_Int_Tables_number   1
_chemical_formula_structural   NaCoO2
_chemical_formula_sum   'Na4 Co4 O8'
_cell_volume   179.62391372
_cell_formula_units_Z   4
loop_
 _symmetry_equiv_pos_site_id
 _symmetry_equiv_pos_as_xyz
  1  'x, y, z'
loop_
 _atom_site_type_symbol
 _atom_site_label
 _atom_site_symmetry_multiplicity
 _atom_site_fract_x
 _atom_site_fract_y
 _atom_site_fract_z
 _atom_site_occupancy
  Na  Na0  1  0.26553400  0.06106100  0.23846800  1
  Na  Na1  1  0.22403100  0.56416000  0.23518800  1
  Na  Na2  1  0.75418700  0.43794400  0.73628200  1
  Na  Na3  1  0.75649100  0.93599700  0.74387300  1
  Co  Co0  1  0.24667500  0.81260500  0.22718200  1
  Co  Co1  1  0.75816200  0.18652300  0.71142800  1
  Co  Co2  1  0.24898100  0.31260700  0.21062300  1
  Co  Co3  1  0.74173100  0.69013300  0.71397300  1
  O  O0  1  0.22342800  0.28986600  0.80740200  1
  O  O1  1  0.21510500  0.79111900  0.80221200  1
  O  O2  1  0.78447500  0.20887800  0.30752300  1
  O  O3  1  0.73103500  0.71381300  0.29610600  1
  O  O4  1  0.29824500  0.08311000  0.74431000  1
  O  O5  1  0.28748100  0.58484600  0.73822800  1
  O  O6  1  0.70526600  0.41616600  0.24260200  1
  O  O7  1  0.75917400  0.91117100  0.24460000  1
loop_
_geom_bond_atom_site_label_1
_geom_bond_atom_site_label_2
_geom_bond_distance
_geom_bond_site_symmetry_2
Na0 O7 2.357310 1_445
Na0 O2 2.382138 1_555
Na0 O4 2.412554 1_554
Na0 O2 2.427672 1_455
Na0 O7 2.445690 1_545
Na0 O4 2.470935 1_555
Na1 O6 2.359989 1_455
Na1 O3 2.374532 1_555
Na1 O6 2.403657 1_555
Na1 O5 2.429497 1_554
Na1 O5 2.459459 1_555
Na1 O3 2.462512 1_455
Na2 O5 2.366441 1_555
Na2 O5 2.374756 1_655
Na2 O0 2.404987 1_655
Na2 O0 2.406311 1_555
Na2 O6 2.413719 1_555
Na2 O6 2.473052 1_556
Na3 O1 2.345436 1_655
Na3 O4 2.353640 1_565
Na3 O1 2.386596 1_555
Na3 O4 2.391953 1_665
Na3 O7 2.443300 1_555
Na3 O7 2.446339 1_556
Co0 O7 1.904717 1_555
Co0 O3 1.941011 1_455
Co0 O7 1.941838 1_455
Co0 O3 1.960001 1_555
Co0 O1 2.081033 1_554
Co1 O4 1.839907 1_555
Co1 O0 1.900688 1_655
Co1 O2 1.978654 1_555
Co1 O4 2.103242 1_655
Co1 O0 2.141259 1_555
Co2 O6 1.833364 1_555
Co2 O2 1.904072 1_455
Co2 O0 1.978489 1_554
Co2 O6 2.115140 1_455
Co2 O2 2.138989 1_555
Co3 O5 1.841895 1_555
Co3 O1 1.888299 1_655
Co3 O3 2.046774 1_555
Co3 O1 2.095537 1_555
Co3 O5 2.129543 1_655
