# generated using pymatgen
data_DyAlCo4
_symmetry_space_group_name_H-M   'P 1'
_cell_length_a   4.04543900
_cell_length_b   4.90831124
_cell_length_c   4.98694445
_cell_angle_alpha   119.47974633
_cell_angle_beta   90.00000000
_cell_angle_gamma   90.00000000
_symmetry_Int_Tables_number   1
_chemical_formula_structural   DyAlCo4
_chemical_formula_sum   'Dy1 Al1 Co4'
_cell_volume   86.20170945
_cell_formula_units_Z   1
loop_
 _symmetry_equiv_pos_site_id
 _symmetry_equiv_pos_as_xyz
  1  'x, y, z'
loop_
 _atom_site_type_symbol
 _atom_site_label
 _atom_site_symmetry_multiplicity
 _atom_site_fract_x
 _atom_site_fract_y
 _atom_site_fract_z
 _atom_site_occupancy
  Dy  Dy0  1  0.00000000  0.99998100  0.00000000  1
  Al  Al0  1  0.50000000  0.49998600  0.00000000  1
  Co  Co0  1  0.00000000  0.32769100  0.65543200  1
  Co  Co1  1  0.00000000  0.67225900  0.34456800  1
  Co  Co2  1  0.50000000  0.49999200  0.50000200  1
  Co  Co3  1  0.50000000  0.99999000  0.49999800  1
loop_
_geom_bond_atom_site_label_1
_geom_bond_atom_site_label_2
_geom_bond_distance
_geom_bond_site_symmetry_2
Al0 Co2 2.493468 1_555
Al0 Co3 2.493468 1_544
Al0 Co2 2.493477 1_554
Al0 Co3 2.493477 1_555
Al0 Co1 2.515753 1_555
Al0 Co1 2.515753 1_655
Al0 Co0 2.515753 1_654
Al0 Co0 2.515753 1_554
Al0 Dy0 3.180276 1_555
Al0 Dy0 3.180276 1_655
Al0 Dy0 3.180314 1_545
Al0 Dy0 3.180314 1_645
Co0 Co3 2.460133 1_445
Co0 Co3 2.460133 1_545
Co0 Co2 2.460206 1_455
Co0 Co2 2.460206 1_555
Co0 Co1 2.800743 1_555
Co0 Co1 2.800743 1_545
Co0 Dy0 2.845416 1_545
Co0 Dy0 2.874083 1_546
Co0 Dy0 2.874134 1_556
Co0 Co1 2.991735 1_556
Co1 Co2 2.460133 1_455
Co1 Co2 2.460133 1_555
Co1 Co3 2.460206 1_455
Co1 Co3 2.460206 1_555
Co1 Dy0 2.845416 1_556
Co1 Dy0 2.874084 1_545
Co1 Dy0 2.874133 1_555
Co2 Co3 2.454156 1_555
Co2 Co3 2.454156 1_545
Co2 Dy0 3.210707 1_556
Co2 Dy0 3.210707 1_656
Co2 Dy0 3.210757 1_645
Co2 Dy0 3.210757 1_545
Co3 Dy0 3.210707 1_655
Co3 Dy0 3.210707 1_555
Co3 Dy0 3.210756 1_556
Co3 Dy0 3.210756 1_656
