# generated using pymatgen
data_Eu3W(ClO2)3
_symmetry_space_group_name_H-M   'P 1'
_cell_length_a   9.41008641
_cell_length_b   9.41008641
_cell_length_c   5.35263300
_cell_angle_alpha   90.00000000
_cell_angle_beta   90.00000000
_cell_angle_gamma   120.00000288
_symmetry_Int_Tables_number   1
_chemical_formula_structural   Eu3W(ClO2)3
_chemical_formula_sum   'Eu6 W2 Cl6 O12'
_cell_volume   410.47367455
_cell_formula_units_Z   2
loop_
 _symmetry_equiv_pos_site_id
 _symmetry_equiv_pos_as_xyz
  1  'x, y, z'
loop_
 _atom_site_type_symbol
 _atom_site_label
 _atom_site_symmetry_multiplicity
 _atom_site_fract_x
 _atom_site_fract_y
 _atom_site_fract_z
 _atom_site_occupancy
  Eu  Eu0  1  0.91021100  0.59722600  0.75000000  1
  Eu  Eu1  1  0.08978900  0.40277400  0.25000000  1
  Eu  Eu2  1  0.68701500  0.08978900  0.75000000  1
  Eu  Eu3  1  0.31298500  0.91021100  0.25000000  1
  Eu  Eu4  1  0.40277400  0.31298500  0.75000000  1
  Eu  Eu5  1  0.59722600  0.68701500  0.25000000  1
  W  W0  1  0.33333300  0.66666700  0.75000000  1
  W  W1  1  0.66666700  0.33333300  0.25000000  1
  Cl  Cl0  1  0.75818300  0.80758000  0.75000000  1
  Cl  Cl1  1  0.24181700  0.19242000  0.25000000  1
  Cl  Cl2  1  0.04939600  0.24181700  0.75000000  1
  Cl  Cl3  1  0.95060400  0.75818300  0.25000000  1
  Cl  Cl4  1  0.19242000  0.95060400  0.75000000  1
  Cl  Cl5  1  0.80758000  0.04939600  0.25000000  1
  O  O0  1  0.47507300  0.83983100  0.98256400  1
  O  O1  1  0.52492700  0.16016900  0.01743600  1
  O  O2  1  0.36475800  0.52492700  0.98256400  1
  O  O3  1  0.52492700  0.16016900  0.48256400  1
  O  O4  1  0.63524200  0.47507300  0.01743600  1
  O  O5  1  0.47507300  0.83983100  0.51743600  1
  O  O6  1  0.16016900  0.63524200  0.98256400  1
  O  O7  1  0.63524200  0.47507300  0.48256400  1
  O  O8  1  0.83983100  0.36475800  0.01743600  1
  O  O9  1  0.36475800  0.52492700  0.51743600  1
  O  O10  1  0.83983100  0.36475800  0.48256400  1
  O  O11  1  0.16016900  0.63524200  0.51743600  1
loop_
_geom_bond_atom_site_label_1
_geom_bond_atom_site_label_2
_geom_bond_distance
_geom_bond_site_symmetry_2
Eu0 O8 2.413369 1_556
Eu0 O10 2.413369 1_555
Eu0 O11 2.523616 1_655
Eu0 O6 2.523616 1_655
Eu0 O7 2.662943 1_555
Eu0 O4 2.662943 1_556
Eu1 O11 2.413369 1_555
Eu1 O6 2.413369 1_554
Eu1 O10 2.523616 1_455
Eu1 O8 2.523616 1_455
Eu1 O9 2.662943 1_555
Eu1 O2 2.662943 1_554
Eu2 O3 2.413369 1_555
Eu2 O1 2.413369 1_556
Eu2 O5 2.523616 1_545
Eu2 O0 2.523616 1_545
Eu2 O10 2.662943 1_555
Eu2 O8 2.662943 1_556
Eu3 O5 2.413369 1_555
Eu3 O0 2.413369 1_554
Eu3 O1 2.523616 1_565
Eu3 O3 2.523616 1_565
Eu3 O11 2.662943 1_555
Eu3 O6 2.662943 1_554
Eu4 O4 2.413369 1_556
Eu4 O7 2.413369 1_555
Eu4 O9 2.523616 1_555
Eu4 O2 2.523616 1_555
Eu4 O3 2.662943 1_555
Eu4 O1 2.662943 1_556
Eu5 O2 2.413369 1_554
Eu5 O9 2.413369 1_555
Eu5 O7 2.523616 1_555
Eu5 O4 2.523616 1_555
Eu5 O0 2.662943 1_554
Eu5 O5 2.662943 1_555
Cl0 Eu0 2.965910 1_555
Cl0 Eu5 3.004250 1_555
Cl0 Eu5 3.004250 1_556
Cl0 Eu2 3.046181 1_565
Cl1 Eu1 2.965910 1_555
Cl1 Eu4 3.004250 1_555
Cl1 Eu4 3.004250 1_554
Cl1 Eu3 3.046181 1_545
Cl2 Eu2 2.965901 1_455
Cl2 Eu1 3.004249 1_556
Cl2 Eu1 3.004249 1_555
Cl2 Eu4 3.046190 1_555
Cl3 Eu3 2.965901 1_655
Cl3 Eu0 3.004249 1_554
Cl3 Eu0 3.004249 1_555
Cl3 Eu5 3.046190 1_555
Cl4 Eu4 2.965902 1_565
Cl4 Eu3 3.004253 1_555
Cl4 Eu3 3.004253 1_556
Cl4 Eu0 3.046187 1_455
Cl5 Eu5 2.965902 1_545
Cl5 Eu2 3.004253 1_554
Cl5 Eu2 3.004253 1_555
Cl5 Eu1 3.046187 1_655
O0 W0 1.952032 1_555
O1 W1 1.952032 1_555
O2 W0 1.952037 1_555
O3 W1 1.952032 1_555
O4 W1 1.952037 1_555
O5 W0 1.952032 1_555
O6 W0 1.952030 1_555
O7 W1 1.952037 1_555
O8 W1 1.952030 1_555
O9 W0 1.952037 1_555
O10 W1 1.952030 1_555
O11 W0 1.952030 1_555
