# generated using pymatgen
data_Ba2LiSmCoCu2O7
_symmetry_space_group_name_H-M   'P 1'
_cell_length_a   3.94343342
_cell_length_b   4.15259000
_cell_length_c   11.69898200
_cell_angle_alpha   90.00000000
_cell_angle_beta   90.00000000
_cell_angle_gamma   88.18471187
_symmetry_Int_Tables_number   1
_chemical_formula_structural   Ba2LiSmCoCu2O7
_chemical_formula_sum   'Ba2 Li1 Sm1 Co1 Cu2 O7'
_cell_volume   191.48009347
_cell_formula_units_Z   1
loop_
 _symmetry_equiv_pos_site_id
 _symmetry_equiv_pos_as_xyz
  1  'x, y, z'
loop_
 _atom_site_type_symbol
 _atom_site_label
 _atom_site_symmetry_multiplicity
 _atom_site_fract_x
 _atom_site_fract_y
 _atom_site_fract_z
 _atom_site_occupancy
  Ba  Ba0  1  0.51136000  0.51123200  0.17609900  1
  Ba  Ba1  1  0.51136000  0.51123200  0.82390100  1
  Li  Li0  1  0.84355900  0.83970500  0.50000000  1
  Sm  Sm0  1  0.43420500  0.41778400  0.50000000  1
  Co  Co0  1  0.00415200  0.00644500  0.00000000  1
  Cu  Cu0  1  0.01458700  0.01666000  0.33186600  1
  Cu  Cu1  1  0.01458700  0.01666000  0.66813400  1
  O  O0  1  0.51135300  0.98986400  0.37474300  1
  O  O1  1  0.51135300  0.98986400  0.62525700  1
  O  O2  1  0.00441300  0.00393800  0.15467300  1
  O  O3  1  0.00441300  0.00393800  0.84532700  1
  O  O4  1  0.98413900  0.51116800  0.37504700  1
  O  O5  1  0.98413900  0.51116800  0.62495400  1
  O  O6  1  0.99971100  0.50367500  0.00000000  1
loop_
_geom_bond_atom_site_label_1
_geom_bond_atom_site_label_2
_geom_bond_distance
_geom_bond_site_symmetry_2
Ba0 O6 2.819596 1_555
Ba0 O2 2.826002 1_565
Ba0 O2 2.832211 1_655
Ba0 O2 2.877741 1_665
Ba0 O6 2.884486 1_455
Ba0 O2 2.960369 1_555
Ba0 O4 2.982123 1_555
Ba0 O0 3.057951 1_555
Ba0 O4 3.120855 1_455
Ba0 O0 3.176163 1_545
Ba1 O6 2.819596 1_556
Ba1 O3 2.826002 1_565
Ba1 O3 2.832211 1_655
Ba1 O3 2.877741 1_665
Ba1 O6 2.884486 1_456
Ba1 O3 2.960369 1_555
Ba1 O5 2.982114 1_555
Ba1 O1 3.057951 1_555
Ba1 O5 3.120846 1_455
Ba1 O1 3.176163 1_545
Li0 O1 2.049532 1_555
Li0 O0 2.049532 1_555
Li0 O4 2.063393 1_555
Li0 O5 2.063402 1_555
Co0 O2 1.809547 1_555
Co0 O3 1.809547 1_554
Co0 O6 2.064312 1_455
Co0 O6 2.088426 1_445
Cu0 O0 2.021814 1_545
Cu0 O0 2.053317 1_445
Cu0 O2 2.074071 1_555
Cu0 O4 2.114430 1_455
Cu0 O4 2.166059 1_445
Cu0 Li0 2.212533 1_445
Cu1 O1 2.021814 1_545
Cu1 O1 2.053317 1_445
Cu1 O3 2.074071 1_555
Cu1 O5 2.114427 1_455
Cu1 O5 2.166056 1_445
Cu1 Li0 2.212533 1_445
O0 Sm0 2.315877 1_565
O1 Sm0 2.315877 1_565
O4 Sm0 2.322420 1_655
O4 Sm0 2.653965 1_555
O5 Sm0 2.322427 1_655
O5 Sm0 2.653972 1_555
