# generated using pymatgen
data_Li7Mn2(CoO4)3
_symmetry_space_group_name_H-M   'P 1'
_cell_length_a   2.89016500
_cell_length_b   5.14726510
_cell_length_c   14.88732870
_cell_angle_alpha   99.96380148
_cell_angle_beta   84.97552274
_cell_angle_gamma   90.85167072
_symmetry_Int_Tables_number   1
_chemical_formula_structural   Li7Mn2(CoO4)3
_chemical_formula_sum   'Li7 Mn2 Co3 O12'
_cell_volume   217.29194910
_cell_formula_units_Z   1
loop_
 _symmetry_equiv_pos_site_id
 _symmetry_equiv_pos_as_xyz
  1  'x, y, z'
loop_
 _atom_site_type_symbol
 _atom_site_label
 _atom_site_symmetry_multiplicity
 _atom_site_fract_x
 _atom_site_fract_y
 _atom_site_fract_z
 _atom_site_occupancy
  Li  Li0  1  0.93103600  0.43201000  0.14615300  1
  Li  Li1  1  0.24715200  0.75354700  0.50475400  1
  Li  Li2  1  0.57000900  0.07679300  0.83877500  1
  Li  Li3  1  0.43277100  0.92159700  0.15811500  1
  Li  Li4  1  0.74750100  0.25822400  0.50761100  1
  Li  Li5  1  0.07760800  0.56621800  0.84353100  1
  Li  Li6  1  0.49946700  0.50055400  0.99877200  1
  Mn  Mn0  1  0.99838700  0.99944800  0.00017100  1
  Mn  Mn1  1  0.83701500  0.83361100  0.33227700  1
  Co  Co0  1  0.33519100  0.33476400  0.33194800  1
  Co  Co1  1  0.66643200  0.66429800  0.66843800  1
  Co  Co2  1  0.16491700  0.16476200  0.66895000  1
  O  O0  1  0.46532500  0.19050000  0.07499300  1
  O  O1  1  0.79753400  0.55812400  0.40743300  1
  O  O2  1  0.10906600  0.85728700  0.74194400  1
  O  O3  1  0.96253900  0.73553000  0.07731500  1
  O  O4  1  0.30547000  0.01823900  0.40697500  1
  O  O5  1  0.60727600  0.36092400  0.74415600  1
  O  O6  1  0.36799800  0.65014000  0.25911100  1
  O  O7  1  0.71909400  0.97192000  0.58980400  1
  O  O8  1  0.03591800  0.26112600  0.92282100  1
  O  O9  1  0.87054300  0.11067100  0.26087700  1
  O  O10  1  0.22257100  0.46798500  0.58844900  1
  O  O11  1  0.52917900  0.81172900  0.92662700  1
loop_
_geom_bond_atom_site_label_1
_geom_bond_atom_site_label_2
_geom_bond_distance
_geom_bond_site_symmetry_2
Li0 O3 2.008180 1_555
Li0 O0 2.055138 1_555
Li0 O0 2.089718 1_655
Li0 O6 2.315147 1_655
Li0 O6 2.378689 1_555
Li0 O9 2.569057 1_555
Li1 O10 2.081637 1_555
Li1 O7 2.101388 1_455
Li1 O7 2.119319 1_555
Li1 O1 2.141543 1_455
Li1 O4 2.154096 1_565
Li1 O1 2.186513 1_555
Li2 O8 2.031088 1_655
Li2 O8 2.035421 1_555
Li2 O11 2.042455 1_545
Li2 O5 2.194623 1_555
Li2 O2 2.203957 1_545
Li2 O2 2.208440 1_645
Li3 O0 2.006090 1_565
Li3 O3 2.007697 1_555
Li3 O3 2.014998 1_455
Li3 O9 2.162319 1_565
Li3 O6 2.217658 1_555
Li3 O9 2.241504 1_465
Li4 O10 2.048168 1_555
Li4 O7 2.068474 1_545
Li4 O10 2.072436 1_655
Li4 O4 2.247337 1_555
Li4 O4 2.316599 1_655
Li4 O1 2.319548 1_555
Li5 O8 2.117774 1_555
Li5 O11 2.126838 1_555
Li5 O5 2.181551 1_555
Li5 O11 2.194266 1_455
Li5 O5 2.218489 1_455
Li5 O2 2.301323 1_555
Li6 O11 2.073997 1_555
Li6 O8 2.079961 1_555
Li6 O3 2.087556 1_556
Li6 O0 2.108725 1_556
Li6 O8 2.113920 1_655
Li6 O3 2.118201 1_456
Mn0 O8 1.913772 1_664
Mn0 O3 1.920932 1_555
Mn0 O11 1.956111 1_554
Mn0 O11 1.967111 1_654
Mn0 O0 1.968212 1_665
Mn0 O0 1.986649 1_565
Mn1 O9 1.917147 1_565
Mn1 O6 1.944321 1_555
Mn1 O1 1.948716 1_555
Mn1 O6 1.956451 1_655
Mn1 O4 1.957711 1_665
Mn1 O4 1.969340 1_565
Co0 O9 2.008452 1_455
Co0 O1 2.034816 1_555
Co0 O9 2.046445 1_555
Co0 O1 2.073511 1_455
Co0 O6 2.099175 1_555
Co0 O4 2.125594 1_555
Co1 O2 1.911052 1_655
Co1 O10 1.974188 1_555
Co1 O2 2.035150 1_555
Co1 O5 2.075033 1_555
Co1 O10 2.078280 1_655
Co1 O7 2.122229 1_555
Co2 O5 1.930990 1_555
Co2 O7 1.963929 1_445
Co2 O5 2.052224 1_455
Co2 O7 2.061768 1_545
Co2 O2 2.066053 1_545
Co2 O10 2.122408 1_555
