# generated using pymatgen
data_Na2ZnP4(H4O5)4
_symmetry_space_group_name_H-M   'P 1'
_cell_length_a   10.88256600
_cell_length_b   7.29245500
_cell_length_c   12.16593451
_cell_angle_alpha   64.13741630
_cell_angle_beta   90.00000000
_cell_angle_gamma   90.00000000
_symmetry_Int_Tables_number   1
_chemical_formula_structural   Na2ZnP4(H4O5)4
_chemical_formula_sum   'Na4 Zn2 P8 H32 O40'
_cell_volume   868.79478393
_cell_formula_units_Z   2
loop_
 _symmetry_equiv_pos_site_id
 _symmetry_equiv_pos_as_xyz
  1  'x, y, z'
loop_
 _atom_site_type_symbol
 _atom_site_label
 _atom_site_symmetry_multiplicity
 _atom_site_fract_x
 _atom_site_fract_y
 _atom_site_fract_z
 _atom_site_occupancy
  Na  Na0  1  0.17185300  0.70116700  0.54401000  1
  Na  Na1  1  0.67185300  0.29883300  0.95599000  1
  Na  Na2  1  0.82814700  0.29883300  0.45599000  1
  Na  Na3  1  0.32814700  0.70116700  0.04401000  1
  Zn  Zn0  1  0.50000000  0.00000000  0.50000000  1
  Zn  Zn1  1  0.00000000  0.00000000  0.00000000  1
  P  P0  1  0.24125800  0.17900800  0.58246500  1
  P  P1  1  0.74125800  0.82099200  0.91753500  1
  P  P2  1  0.75874200  0.82099200  0.41753500  1
  P  P3  1  0.25874200  0.17900800  0.08246500  1
  P  P4  1  0.45542200  0.54008800  0.72094400  1
  P  P5  1  0.95542200  0.45991200  0.77905600  1
  P  P6  1  0.54457800  0.45991200  0.27905600  1
  P  P7  1  0.04457800  0.54008800  0.22094400  1
  H  H0  1  0.06910200  0.02055800  0.60315200  1
  H  H1  1  0.56910200  0.97944200  0.89684800  1
  H  H2  1  0.93089800  0.97944200  0.39684800  1
  H  H3  1  0.43089800  0.02055800  0.10315200  1
  H  H4  1  0.10884400  0.39519500  0.44424800  1
  H  H5  1  0.60884400  0.60480500  0.05575200  1
  H  H6  1  0.89115600  0.60480500  0.55575200  1
  H  H7  1  0.39115600  0.39519500  0.94424800  1
  H  H8  1  0.58745600  0.59258400  0.57703500  1
  H  H9  1  0.08745600  0.40741600  0.92296500  1
  H  H10  1  0.41254400  0.40741600  0.42296500  1
  H  H11  1  0.91254400  0.59258400  0.07703500  1
  H  H12  1  0.29607100  0.35346600  0.71259900  1
  H  H13  1  0.79607100  0.64653400  0.78740100  1
  H  H14  1  0.70392900  0.64653400  0.28740100  1
  H  H15  1  0.20392900  0.35346600  0.21259900  1
  H  H16  1  0.33486400  0.97055800  0.34195300  1
  H  H17  1  0.83486400  0.02944200  0.15804700  1
  H  H18  1  0.66513600  0.02944200  0.65804700  1
  H  H19  1  0.16513600  0.97055800  0.84195300  1
  H  H20  1  0.41007100  0.76383400  0.39528100  1
  H  H21  1  0.91007100  0.23616600  0.10471900  1
  H  H22  1  0.58992900  0.23616600  0.60471900  1
  H  H23  1  0.08992900  0.76383400  0.89528100  1
  H  H24  1  0.11806100  0.00382000  0.30702700  1
  H  H25  1  0.61806100  0.99618000  0.19297300  1
  H  H26  1  0.88193900  0.99618000  0.69297300  1
  H  H27  1  0.38193900  0.00382000  0.80702700  1
  H  H28  1  0.03446000  0.83251500  0.30694400  1
  H  H29  1  0.53446000  0.16748500  0.19305600  1
  H  H30  1  0.96554000  0.16748500  0.69305600  1
  H  H31  1  0.46554000  0.83251500  0.80694400  1
  O  O0  1  0.15649600  0.00556200  0.57649200  1
  O  O1  1  0.65649600  0.99443800  0.92350800  1
  O  O2  1  0.84350400  0.99443800  0.42350800  1
  O  O3  1  0.34350400  0.00556200  0.07649200  1
  O  O4  1  0.25888600  0.14249800  0.71585300  1
  O  O5  1  0.75888600  0.85750200  0.78414700  1
  O  O6  1  0.74111400  0.85750200  0.28414700  1
  O  O7  1  0.24111400  0.14249800  0.21585300  1
  O  O8  1  0.16945700  0.38683900  0.51462700  1
  O  O9  1  0.66945700  0.61316100  0.98537300  1
  O  O10  1  0.83054300  0.61316100  0.48537300  1
  O  O11  1  0.33054300  0.38683900  0.01462700  1
  O  O12  1  0.36119100  0.18787800  0.51560800  1
  O  O13  1  0.86119100  0.81212200  0.98439200  1
  O  O14  1  0.63880900  0.81212200  0.48439200  1
  O  O15  1  0.13880900  0.18787800  0.01560800  1
  O  O16  1  0.54292000  0.46900400  0.64080600  1
  O  O17  1  0.04292000  0.53099600  0.85919400  1
  O  O18  1  0.45708000  0.53099600  0.35919400  1
  O  O19  1  0.95708000  0.46900400  0.14080600  1
  O  O20  1  0.48238000  0.40714200  0.85522200  1
  O  O21  1  0.98238000  0.59285800  0.64477800  1
  O  O22  1  0.51762000  0.59285800  0.14477800  1
  O  O23  1  0.01762000  0.40714200  0.35522200  1
  O  O24  1  0.31769500  0.50148300  0.69232000  1
  O  O25  1  0.81769500  0.49851700  0.80768000  1
  O  O26  1  0.68230500  0.49851700  0.30768000  1
  O  O27  1  0.18230500  0.50148300  0.19232000  1
  O  O28  1  0.46964600  0.76872400  0.67865800  1
  O  O29  1  0.96964600  0.23127600  0.82134200  1
  O  O30  1  0.53035400  0.23127600  0.32134200  1
  O  O31  1  0.03035400  0.76872400  0.17865800  1
  O  O32  1  0.36937000  0.86230900  0.41871700  1
  O  O33  1  0.86937000  0.13769100  0.08128300  1
  O  O34  1  0.63063000  0.13769100  0.58128300  1
  O  O35  1  0.13063000  0.86230900  0.91871700  1
  O  O36  1  0.05612500  0.90226600  0.35870400  1
  O  O37  1  0.55612500  0.09773400  0.14129600  1
  O  O38  1  0.94387500  0.09773400  0.64129600  1
  O  O39  1  0.44387500  0.90226600  0.85870400  1
loop_
_geom_bond_atom_site_label_1
_geom_bond_atom_site_label_2
_geom_bond_distance
_geom_bond_site_symmetry_2
Na0 O21 2.352371 1_455
Na0 O24 2.367030 1_555
Na0 O0 2.424220 1_565
Na0 O36 2.436151 1_555
Na0 O8 2.469337 1_555
Na0 O32 2.600385 1_555
Na1 O20 2.352371 1_555
Na1 O25 2.367030 1_555
Na1 O1 2.424220 1_545
Na1 O37 2.436151 1_556
Na1 O9 2.469337 1_555
Na1 O33 2.600385 1_556
Na2 O23 2.352371 1_655
Na2 O26 2.367030 1_555
Na2 O2 2.424220 1_545
Na2 O38 2.436151 1_555
Na2 O10 2.469337 1_555
Na2 O34 2.600385 1_555
Na3 O22 2.352371 1_555
Na3 O27 2.367030 1_555
Na3 O3 2.424220 1_565
Na3 O39 2.436151 1_554
Na3 O11 2.469337 1_555
Na3 O35 2.600385 1_554
H0 O0 1.025982 1_555
H0 O38 1.617761 1_455
H1 O1 1.025982 1_555
H1 O39 1.617761 1_555
H2 O2 1.025982 1_555
H2 O36 1.617761 1_655
H3 O3 1.025982 1_555
H3 O37 1.617761 1_555
H4 O8 1.061331 1_555
H4 O23 1.443570 1_555
H5 O9 1.061331 1_554
H5 O22 1.443570 1_555
H6 O10 1.061331 1_555
H6 O21 1.443570 1_555
H7 O11 1.061331 1_556
H7 O20 1.443570 1_555
H8 O16 1.019312 1_555
H8 O14 1.603593 1_555
H9 O17 1.019312 1_555
H9 O15 1.603593 1_556
H10 O18 1.019312 1_555
H10 O12 1.603593 1_555
H11 O19 1.019312 1_555
H11 O13 1.603593 1_554
H12 O24 1.024224 1_555
H12 O4 1.574513 1_555
H13 O25 1.024224 1_555
H13 O5 1.574513 1_555
H14 O26 1.024224 1_555
H14 O6 1.574513 1_555
H15 O27 1.024224 1_555
H15 O7 1.574513 1_555
H16 O32 0.996578 1_555
H17 O33 0.996578 1_555
H18 O34 0.996578 1_555
H19 O35 0.996578 1_555
H20 O32 0.985808 1_555
H21 O33 0.985808 1_555
H22 O34 0.985808 1_555
H23 O35 0.985808 1_555
H24 O36 0.995902 1_545
H25 O37 0.995902 1_565
H26 O38 0.995902 1_565
H27 O39 0.995902 1_545
H28 O36 0.995136 1_555
H29 O37 0.995136 1_555
H30 O38 0.995136 1_555
H31 O39 0.995136 1_555
O0 P0 1.592539 1_555
O1 P1 1.592539 1_555
O2 P2 1.592539 1_555
O3 P3 1.592539 1_555
O4 P0 1.537593 1_555
O5 P1 1.537593 1_555
O6 P2 1.537593 1_555
O7 P3 1.537593 1_555
O8 P0 1.580336 1_555
O9 P1 1.580336 1_555
O10 P2 1.580336 1_555
O11 P3 1.580336 1_555
O12 P0 1.524257 1_555
O12 Zn0 2.102876 1_555
O13 P1 1.524257 1_555
O13 Zn1 2.102876 1_666
O14 P2 1.524257 1_555
O14 Zn0 2.102876 1_565
O15 P3 1.524257 1_555
O15 Zn1 2.102876 1_555
O16 P4 1.602142 1_555
O17 P5 1.602142 1_455
O18 P6 1.602142 1_555
O19 P7 1.602142 1_655
O20 P4 1.520842 1_555
O21 P5 1.520842 1_555
O22 P6 1.520842 1_555
O23 P7 1.520842 1_555
O24 P4 1.591392 1_555
O25 P5 1.591392 1_555
O26 P6 1.591392 1_555
O27 P7 1.591392 1_555
O28 P4 1.523234 1_555
O28 Zn0 2.116541 1_565
O29 P5 1.523234 1_555
O29 Zn1 2.116541 1_656
O30 P6 1.523234 1_555
O30 Zn0 2.116541 1_555
O31 P7 1.523234 1_555
O31 Zn1 2.116541 1_565
O32 Zn0 2.207557 1_565
O33 Zn1 2.207557 1_655
O34 Zn0 2.207557 1_555
O35 Zn1 2.207557 1_566
