# generated using pymatgen
data_SrH(IO3)2
_symmetry_space_group_name_H-M   'P 1'
_cell_length_a   7.62362386
_cell_length_b   7.62362386
_cell_length_c   8.71501088
_cell_angle_alpha   55.50862691
_cell_angle_beta   55.50862691
_cell_angle_gamma   63.61238453
_symmetry_Int_Tables_number   1
_chemical_formula_structural   SrH(IO3)2
_chemical_formula_sum   'Sr2 H2 I4 O12'
_cell_volume   338.32805227
_cell_formula_units_Z   2
loop_
 _symmetry_equiv_pos_site_id
 _symmetry_equiv_pos_as_xyz
  1  'x, y, z'
loop_
 _atom_site_type_symbol
 _atom_site_label
 _atom_site_symmetry_multiplicity
 _atom_site_fract_x
 _atom_site_fract_y
 _atom_site_fract_z
 _atom_site_occupancy
  Sr  Sr0  1  0.32568500  0.67431500  0.25000000  1
  Sr  Sr1  1  0.67431500  0.32568500  0.75000000  1
  H  H0  1  0.67337700  0.32662300  0.25000000  1
  H  H1  1  0.32662300  0.67337700  0.75000000  1
  I  I0  1  0.78319500  0.84017300  0.20786800  1
  I  I1  1  0.21680500  0.15982700  0.79213200  1
  I  I2  1  0.15982700  0.21680500  0.29213200  1
  I  I3  1  0.84017300  0.78319500  0.70786800  1
  O  O0  1  0.42475200  0.29670200  0.11742300  1
  O  O1  1  0.57524800  0.70329800  0.88257700  1
  O  O2  1  0.70329800  0.57524800  0.38257700  1
  O  O3  1  0.29670200  0.42475200  0.61742300  1
  O  O4  1  0.24299700  0.92031900  0.40820900  1
  O  O5  1  0.75700300  0.07968100  0.59179100  1
  O  O6  1  0.07968100  0.75700300  0.09179100  1
  O  O7  1  0.92031900  0.24299700  0.90820900  1
  O  O8  1  0.72656500  0.90026600  0.00192900  1
  O  O9  1  0.27343500  0.09973400  0.99807100  1
  O  O10  1  0.09973400  0.27343500  0.49807100  1
  O  O11  1  0.90026600  0.72656500  0.50192900  1
loop_
_geom_bond_atom_site_label_1
_geom_bond_atom_site_label_2
_geom_bond_distance
_geom_bond_site_symmetry_2
H0 Sr0 2.794062 1_555
H1 Sr1 2.794062 1_555
I0 O2 1.824490 1_555
I0 O8 1.840641 1_555
I0 O6 1.843153 1_655
I1 O3 1.824490 1_555
I1 O9 1.840641 1_555
I1 O7 1.843153 1_455
I2 O0 1.824490 1_555
I2 O10 1.840641 1_555
I2 O4 1.843153 1_545
I3 O1 1.824490 1_555
I3 O11 1.840641 1_555
I3 O5 1.843153 1_565
O0 Sr1 2.567986 1_554
O1 Sr0 2.567986 1_556
O2 Sr1 2.567986 1_555
O3 Sr0 2.567986 1_555
O4 Sr0 2.590194 1_555
O5 Sr1 2.590194 1_555
O6 Sr0 2.590194 1_555
O7 Sr1 2.590194 1_555
O8 Sr1 2.697262 1_564
O8 Sr0 3.155932 1_555
O9 Sr0 2.697262 1_546
O9 Sr1 3.155932 1_555
O10 Sr1 2.697262 1_455
O10 Sr0 3.155932 1_555
O11 Sr0 2.697262 1_655
O11 Sr1 3.155932 1_555
