# generated using pymatgen
data_Li6V3P8O29
_symmetry_space_group_name_H-M   'P 1'
_cell_length_a   9.81205900
_cell_length_b   9.82615146
_cell_length_c   14.01012214
_cell_angle_alpha   90.05349215
_cell_angle_beta   89.97682015
_cell_angle_gamma   119.79194760
_symmetry_Int_Tables_number   1
_chemical_formula_structural   Li6V3P8O29
_chemical_formula_sum   'Li12 V6 P16 O58'
_cell_volume   1172.25648114
_cell_formula_units_Z   2
loop_
 _symmetry_equiv_pos_site_id
 _symmetry_equiv_pos_as_xyz
  1  'x, y, z'
loop_
 _atom_site_type_symbol
 _atom_site_label
 _atom_site_symmetry_multiplicity
 _atom_site_fract_x
 _atom_site_fract_y
 _atom_site_fract_z
 _atom_site_occupancy
  Li  Li0  1  0.77654600  0.69720800  0.93773700  1
  Li  Li1  1  0.90395800  0.66626200  0.44094500  1
  Li  Li2  1  0.33450800  0.23329200  0.44353900  1
  Li  Li3  1  0.66744300  0.32687000  0.11182500  1
  Li  Li4  1  0.31814800  0.08935100  0.93428000  1
  Li  Li5  1  0.91473400  0.22333200  0.94098500  1
  Li  Li6  1  0.76400000  0.09487600  0.44029100  1
  Li  Li7  1  0.09164900  0.77562200  0.05711600  1
  Li  Li8  1  0.66458900  0.76532000  0.56236700  1
  Li  Li9  1  0.10018800  0.33250700  0.56173000  1
  Li  Li10  1  0.22372500  0.31550900  0.05851600  1
  Li  Li11  1  0.03470600  0.98455000  0.51019500  1
  V  V0  1  0.43186700  0.99600200  0.74670800  1
  V  V1  1  0.56424000  0.99916300  0.24856600  1
  V  V2  1  0.00053400  0.56705700  0.25351600  1
  V  V3  1  0.99970100  0.43598600  0.74804700  1
  V  V4  1  0.56499800  0.56904800  0.75291700  1
  V  V5  1  0.43636800  0.43661200  0.25091500  1
  P  P0  1  0.77048200  0.67714100  0.15687300  1
  P  P1  1  0.90989400  0.68636200  0.65792200  1
  P  P2  1  0.31766500  0.22894900  0.66076000  1
  P  P3  1  0.66802800  0.33526600  0.87081800  1
  P  P4  1  0.66553700  0.33236100  0.37160600  1
  P  P5  1  0.31901200  0.08927800  0.15515500  1
  P  P6  1  0.22519600  0.91783400  0.34115400  1
  P  P7  1  0.90888400  0.23103300  0.15900200  1
  P  P8  1  0.08845600  0.76958000  0.83949900  1
  P  P9  1  0.77248200  0.08461700  0.65465500  1
  P  P10  1  0.68514400  0.91684200  0.84006600  1
  P  P11  1  0.33090800  0.66403600  0.62944100  1
  P  P12  1  0.33180100  0.66693900  0.13093100  1
  P  P13  1  0.68723900  0.77277400  0.34021300  1
  P  P14  1  0.08675500  0.31409800  0.34284200  1
  P  P15  1  0.23037600  0.32005700  0.84272700  1
  O  O0  1  0.77303500  0.76892300  0.42910300  1
  O  O1  1  0.74066600  0.66167600  0.66462400  1
  O  O2  1  0.99892900  0.75838100  0.92949400  1
  O  O3  1  0.92117200  0.66155800  0.16070400  1
  O  O4  1  0.62729400  0.51000800  0.17567200  1
  O  O5  1  0.67323700  0.48911000  0.83440900  1
  O  O6  1  0.47043600  0.38417000  0.67007600  1
  O  O7  1  0.24727800  0.24413800  0.93205500  1
  O  O8  1  0.32941300  0.25115100  0.15673100  1
  O  O9  1  0.81034100  0.48827500  0.33339800  1
  O  O10  1  0.90793200  0.52994900  0.66735200  1
  O  O11  1  0.51124900  0.32679700  0.33041900  1
  O  O12  1  0.67793000  0.33827900  0.97848700  1
  O  O13  1  0.66113900  0.32925000  0.47816900  1
  O  O14  1  0.51697200  0.18782100  0.83472600  1
  O  O15  1  0.88838000  0.37640200  0.17719000  1
  O  O16  1  0.81751200  0.33485600  0.82763400  1
  O  O17  1  0.34480400  0.08807900  0.66622000  1
  O  O18  1  0.20532000  0.99015900  0.24094300  1
  O  O19  1  0.20613900  0.00992000  0.42082800  1
  O  O20  1  0.24958900  0.99981400  0.06408900  1
  O  O21  1  0.48700800  0.11611700  0.17390000  1
  O  O22  1  0.67363600  0.18800200  0.32942800  1
  O  O23  1  0.25194600  0.91843600  0.83940500  1
  O  O24  1  0.62089300  0.08986600  0.66803600  1
  O  O25  1  0.91882600  0.24946900  0.65722300  1
  O  O26  1  0.99849100  0.79327000  0.74952200  1
  O  O27  1  0.98354100  0.77506500  0.56727100  1
  O  O28  1  0.99771800  0.22746500  0.43136200  1
  O  O29  1  0.08387300  0.74796800  0.34135900  1
  O  O30  1  0.38394400  0.92406100  0.33579500  1
  O  O31  1  0.74512400  0.08738700  0.16004300  1
  O  O32  1  0.32143000  0.80434400  0.67259100  1
  O  O33  1  0.52561500  0.90929300  0.82273200  1
  O  O34  1  0.77270100  0.01136000  0.92436900  1
  O  O35  1  0.77517200  0.99818300  0.56497600  1
  O  O36  1  0.78872500  0.99056600  0.74414900  1
  O  O37  1  0.66928400  0.91958700  0.33951900  1
  O  O38  1  0.18331800  0.66669900  0.17193700  1
  O  O39  1  0.10119800  0.62203100  0.82304900  1
  O  O40  1  0.47450500  0.81601700  0.17836200  1
  O  O41  1  0.33206100  0.66444400  0.02500500  1
  O  O42  1  0.32504000  0.64870800  0.52314300  1
  O  O43  1  0.48591600  0.67480200  0.66966100  1
  O  O44  1  0.08692500  0.47049300  0.32946200  1
  O  O45  1  0.18303600  0.50751700  0.67167600  1
  O  O46  1  0.66005800  0.74789700  0.84229400  1
  O  O47  1  0.79078300  0.78750500  0.24706900  1
  O  O48  1  0.75800000  0.74792000  0.06623900  1
  O  O49  1  0.52807000  0.62129200  0.32806900  1
  O  O50  1  0.33747000  0.51886400  0.17288300  1
  O  O51  1  0.37840000  0.48002700  0.82367100  1
  O  O52  1  0.08229800  0.33487200  0.84353900  1
  O  O53  1  0.00355900  0.25068000  0.07043800  1
  O  O54  1  0.00251700  0.21224100  0.24888400  1
  O  O55  1  0.25355200  0.33785400  0.34344300  1
  O  O56  1  0.22351800  0.21722300  0.57151000  1
  O  O57  1  0.20916000  0.20939700  0.75217500  1
loop_
_geom_bond_atom_site_label_1
_geom_bond_atom_site_label_2
_geom_bond_distance
_geom_bond_site_symmetry_2
Li0 O48 1.900203 1_556
Li0 O2 1.957678 1_555
Li0 O46 1.977552 1_555
Li0 O5 2.289182 1_555
Li1 O0 1.995894 1_555
Li1 O27 2.013234 1_555
Li1 O29 2.073480 1_655
Li1 O9 2.138365 1_555
Li2 O19 1.938323 1_555
Li2 O56 2.062394 1_555
Li2 O55 2.113723 1_555
Li2 O11 2.186422 1_555
Li3 O12 1.871272 1_554
Li3 O21 2.130305 1_555
Li3 O15 2.174256 1_555
Li3 O4 2.212430 1_555
Li4 O7 1.961872 1_555
Li4 O23 1.980337 1_545
Li4 O20 1.986936 1_546
Li4 O14 2.193641 1_555
Li5 O34 1.857318 1_555
Li5 O53 1.972002 1_656
Li5 O52 1.994651 1_655
Li5 O16 2.382462 1_555
Li6 O28 2.000799 1_555
Li6 O35 2.018164 1_545
Li6 O37 2.056585 1_545
Li6 O22 2.201356 1_555
Li7 O20 1.967589 1_555
Li7 O2 1.975076 1_454
Li7 O3 2.073288 1_455
Li7 O38 2.345922 1_555
Li8 O35 1.986716 1_555
Li8 O1 2.099016 1_555
Li8 O43 2.138952 1_555
Li8 O0 2.140200 1_555
Li9 O56 2.031998 1_555
Li9 O25 2.044420 1_455
Li9 O28 2.092603 1_455
Li9 O45 2.144232 1_555
Li10 O53 1.932082 1_555
Li10 O7 1.960275 1_554
Li10 O8 2.005782 1_555
Li10 O50 2.363290 1_555
Li11 O19 2.010333 1_565
Li11 O27 2.025946 1_455
Li11 O56 2.277260 1_565
O0 P13 1.514474 1_555
O1 P1 1.557083 1_555
O1 V4 1.941910 1_555
O2 P8 1.508906 1_655
O3 P0 1.561275 1_555
O3 V2 1.970039 1_655
O4 P0 1.564628 1_555
O4 V5 1.948892 1_555
O5 P3 1.572473 1_555
O5 V4 1.969787 1_555
O6 P2 1.522568 1_555
O6 V4 1.957060 1_555
O7 P15 1.508344 1_555
O8 P5 1.542565 1_555
O8 V5 2.063908 1_555
O9 P4 1.578064 1_555
O9 V2 1.974536 1_655
O10 P1 1.533290 1_555
O10 V3 1.941731 1_555
O11 P4 1.595682 1_555
O11 V5 1.932778 1_555
O12 P3 1.510938 1_555
O13 P4 1.493469 1_555
O14 P3 1.554654 1_555
O14 V0 2.050133 1_545
O15 P7 1.559049 1_555
O15 V2 1.952620 1_655
O16 P3 1.588254 1_555
O16 V3 1.913548 1_555
O17 P2 1.535999 1_555
O17 V0 1.894910 1_545
O18 P5 1.599705 1_565
O18 P6 1.629121 1_555
O19 P6 1.505255 1_545
O20 P5 1.506037 1_565
O21 P5 1.556900 1_555
O21 V1 1.964054 1_545
O22 P4 1.574178 1_555
O22 V1 1.973972 1_545
O23 P8 1.543111 1_555
O23 V0 2.011733 1_555
O24 P9 1.525173 1_555
O24 V0 1.950878 1_545
O25 P9 1.541336 1_555
O25 V3 2.039378 1_555
O26 P1 1.611553 1_555
O26 P8 1.621155 1_655
O27 P1 1.506756 1_555
O28 P14 1.512618 1_655
O29 P6 1.552063 1_555
O29 V2 1.973725 1_555
O30 P6 1.529982 1_555
O30 V1 1.967323 1_555
O31 P7 1.523377 1_555
O31 V1 1.977632 1_545
O32 P11 1.549419 1_555
O32 V0 1.941268 1_555
O33 P10 1.549052 1_555
O33 V0 1.867569 1_555
O34 P10 1.483756 1_545
O35 P9 1.523438 1_565
O36 P9 1.612523 1_565
O36 P10 1.622544 1_555
O37 P13 1.537799 1_555
O37 V1 2.025159 1_555
O38 P12 1.564798 1_555
O38 V2 1.933135 1_555
O39 P8 1.533055 1_555
O39 V3 1.904220 1_455
O40 P12 1.583899 1_555
O40 V1 1.845027 1_555
O41 P12 1.484238 1_555
O42 P11 1.494956 1_555
O43 P11 1.575655 1_555
O43 V4 1.961316 1_555
O44 P14 1.547503 1_555
O44 V2 1.884904 1_555
O45 P11 1.613772 1_555
O45 V3 1.902181 1_455
O46 P10 1.552890 1_555
O46 V4 1.973416 1_555
O47 P0 1.611066 1_555
O47 P13 1.615311 1_555
O48 P0 1.482394 1_555
O49 P13 1.540577 1_555
O49 V5 1.909377 1_555
O50 P12 1.596133 1_555
O50 V5 1.889951 1_555
O51 P15 1.543839 1_555
O51 V4 1.873149 1_555
O52 P15 1.530539 1_555
O52 V3 2.058485 1_455
O53 P7 1.503696 1_455
O54 P14 1.610617 1_555
O54 P7 1.622913 1_455
O55 P14 1.534102 1_555
O55 V5 2.027459 1_555
O56 P2 1.524809 1_555
O57 P2 1.614556 1_555
O57 P15 1.614885 1_555
