# generated using pymatgen
data_MgZn3S4
_symmetry_space_group_name_H-M   'P 1'
_cell_length_a   6.28402938
_cell_length_b   6.28402938
_cell_length_c   6.28669212
_cell_angle_alpha   80.44245074
_cell_angle_beta   80.44245074
_cell_angle_gamma   33.61380454
_symmetry_Int_Tables_number   1
_chemical_formula_structural   MgZn3S4
_chemical_formula_sum   'Mg1 Zn3 S4'
_cell_volume   135.34919262
_cell_formula_units_Z   1
loop_
 _symmetry_equiv_pos_site_id
 _symmetry_equiv_pos_as_xyz
  1  'x, y, z'
loop_
 _atom_site_type_symbol
 _atom_site_label
 _atom_site_symmetry_multiplicity
 _atom_site_fract_x
 _atom_site_fract_y
 _atom_site_fract_z
 _atom_site_occupancy
  Mg  Mg0  1  0.00000000  0.00000000  0.00000000  1
  Zn  Zn0  1  0.24931300  0.24931300  0.25101000  1
  Zn  Zn1  1  0.50000000  0.50000000  0.50000000  1
  Zn  Zn2  1  0.75068700  0.75068700  0.74899000  1
  S  S0  1  0.87395800  0.87395800  0.37999500  1
  S  S1  1  0.12604200  0.12604200  0.62000500  1
  S  S2  1  0.37215600  0.37215600  0.87224400  1
  S  S3  1  0.62784400  0.62784400  0.12775600  1
loop_
_geom_bond_atom_site_label_1
_geom_bond_atom_site_label_2
_geom_bond_distance
_geom_bond_site_symmetry_2
Mg0 S3 2.596332 1_545
Mg0 S3 2.596332 1_455
Mg0 S2 2.596332 1_454
Mg0 S2 2.596332 1_544
Mg0 S0 2.598040 1_445
Mg0 S1 2.598040 1_554
S0 Zn2 2.527330 1_555
S0 Zn1 2.562644 1_565
S0 Zn1 2.562644 1_655
S0 Zn0 2.574837 1_655
S0 Zn0 2.574837 1_565
S1 Zn0 2.527330 1_555
S1 Zn1 2.562644 1_455
S1 Zn1 2.562644 1_545
S1 Zn2 2.574837 1_455
S1 Zn2 2.574837 1_545
S2 Zn2 2.535842 1_455
S2 Zn2 2.535842 1_545
S2 Zn1 2.567806 1_555
S2 Zn0 2.575571 1_556
S3 Zn0 2.535842 1_655
S3 Zn0 2.535842 1_565
S3 Zn1 2.567806 1_555
S3 Zn2 2.575571 1_554
