# generated using pymatgen
data_Na2LiV5H18O23
_symmetry_space_group_name_H-M   'P 1'
_cell_length_a   8.69517900
_cell_length_b   10.64126219
_cell_length_c   12.09884066
_cell_angle_alpha   105.48206066
_cell_angle_beta   101.90702928
_cell_angle_gamma   99.25422355
_symmetry_Int_Tables_number   1
_chemical_formula_structural   Na2LiV5H18O23
_chemical_formula_sum   'Na4 Li2 V10 H36 O46'
_cell_volume   1027.60463025
_cell_formula_units_Z   2
loop_
 _symmetry_equiv_pos_site_id
 _symmetry_equiv_pos_as_xyz
  1  'x, y, z'
loop_
 _atom_site_type_symbol
 _atom_site_label
 _atom_site_symmetry_multiplicity
 _atom_site_fract_x
 _atom_site_fract_y
 _atom_site_fract_z
 _atom_site_occupancy
  Na  Na0  1  0.77755100  0.15025900  0.48390600  1
  Na  Na1  1  0.22244900  0.84974100  0.51609400  1
  Na  Na2  1  0.00518000  0.24973800  0.30689100  1
  Na  Na3  1  0.99482000  0.75026200  0.69310900  1
  Li  Li0  1  0.99563400  0.21169500  0.06665400  1
  Li  Li1  1  0.00436600  0.78830500  0.93334600  1
  V  V0  1  0.21262400  0.34149700  0.72695200  1
  V  V1  1  0.78737600  0.65850300  0.27304800  1
  V  V2  1  0.40046800  0.22587100  0.91860500  1
  V  V3  1  0.59953200  0.77412900  0.08139500  1
  V  V4  1  0.68705600  0.48813600  0.00364400  1
  V  V5  1  0.31294400  0.51186400  0.99635600  1
  V  V6  1  0.49633700  0.60295400  0.81383100  1
  V  V7  1  0.50366300  0.39704600  0.18616900  1
  V  V8  1  0.57206000  0.31656200  0.73681100  1
  V  V9  1  0.42794000  0.68343800  0.26318900  1
  H  H0  1  0.70551500  0.87599900  0.47748700  1
  H  H1  1  0.29448500  0.12400100  0.52251300  1
  H  H2  1  0.65957600  0.95133000  0.59271200  1
  H  H3  1  0.34042400  0.04867000  0.40728800  1
  H  H4  1  0.50122300  0.98348800  0.28047600  1
  H  H5  1  0.49877700  0.01651200  0.71952400  1
  H  H6  1  0.49975100  0.13600100  0.29669400  1
  H  H7  1  0.50024900  0.86399900  0.70330600  1
  H  H8  1  0.88052100  0.96465000  0.29841300  1
  H  H9  1  0.11947900  0.03535000  0.70158700  1
  H  H10  1  0.04962100  0.04144600  0.38872600  1
  H  H11  1  0.95037900  0.95855400  0.61127400  1
  H  H12  1  0.89245700  0.41647400  0.50721600  1
  H  H13  1  0.10754300  0.58352600  0.49278400  1
  H  H14  1  0.78490400  0.40365200  0.38267700  1
  H  H15  1  0.21509600  0.59634800  0.61732300  1
  H  H16  1  0.33079000  0.42577000  0.39173900  1
  H  H17  1  0.66921000  0.57423000  0.60826100  1
  H  H18  1  0.32584900  0.35775000  0.49312800  1
  H  H19  1  0.67415100  0.64225000  0.50687200  1
  H  H20  1  0.72733800  0.07629500  0.08812000  1
  H  H21  1  0.27266200  0.92370500  0.91188000  1
  H  H22  1  0.71924300  0.22586000  0.09516300  1
  H  H23  1  0.28075700  0.77414000  0.90483700  1
  H  H24  1  0.17091600  0.44299900  0.21125700  1
  H  H25  1  0.82908400  0.55700100  0.78874300  1
  H  H26  1  0.99067900  0.45694000  0.17077500  1
  H  H27  1  0.00932100  0.54306000  0.82922500  1
  H  H28  1  0.11772900  0.02155500  0.14170200  1
  H  H29  1  0.88227100  0.97844500  0.85829800  1
  H  H30  1  0.25117300  0.15394100  0.16791300  1
  H  H31  1  0.74882700  0.84605900  0.83208700  1
  H  H32  1  0.03179700  0.18974200  0.85719100  1
  H  H33  1  0.96820300  0.81025800  0.14280900  1
  H  H34  1  0.86212700  0.22045600  0.86681200  1
  H  H35  1  0.13787300  0.77954400  0.13318800  1
  O  O0  1  0.04007400  0.28813700  0.62654600  1
  O  O1  1  0.95992600  0.71186300  0.37345400  1
  O  O2  1  0.20983600  0.20792000  0.80364800  1
  O  O3  1  0.79016400  0.79208000  0.19635200  1
  O  O4  1  0.36219200  0.08884000  0.95537200  1
  O  O5  1  0.63780800  0.91116000  0.04462800  1
  O  O6  1  0.59801400  0.33056500  0.04832800  1
  O  O7  1  0.40198600  0.66943500  0.95167200  1
  O  O8  1  0.84927400  0.55225600  0.13064500  1
  O  O9  1  0.15072600  0.44774400  0.86935500  1
  O  O10  1  0.68451700  0.64664000  0.96134100  1
  O  O11  1  0.31548300  0.35336000  0.03865900  1
  O  O12  1  0.53737600  0.74165800  0.77754400  1
  O  O13  1  0.46262400  0.25834200  0.22245600  1
  O  O14  1  0.29707000  0.51555300  0.71826400  1
  O  O15  1  0.70293000  0.48444700  0.28173600  1
  O  O16  1  0.45653900  0.42823000  0.88661300  1
  O  O17  1  0.54346100  0.57177000  0.11338700  1
  O  O18  1  0.35919900  0.27616900  0.64631700  1
  O  O19  1  0.64080100  0.72383100  0.35368300  1
  O  O20  1  0.51663700  0.18376400  0.80999400  1
  O  O21  1  0.48336300  0.81623600  0.19000600  1
  O  O22  1  0.75376900  0.39605300  0.88951900  1
  O  O23  1  0.24623100  0.60394700  0.11048100  1
  O  O24  1  0.60590800  0.49417300  0.72868700  1
  O  O25  1  0.39409200  0.50582700  0.27131300  1
  O  O26  1  0.66771500  0.24517800  0.64396800  1
  O  O27  1  0.33228500  0.75482200  0.35603200  1
  O  O28  1  0.74370800  0.95656500  0.54832900  1
  O  O29  1  0.25629200  0.04343500  0.45167100  1
  O  O30  1  0.51054000  0.07039100  0.34072400  1
  O  O31  1  0.48946000  0.92960900  0.65927600  1
  O  O32  1  0.93862000  0.05205000  0.35718800  1
  O  O33  1  0.06138000  0.94795000  0.64281200  1
  O  O34  1  0.84700800  0.35383100  0.42730500  1
  O  O35  1  0.15299200  0.64616900  0.57269500  1
  O  O36  1  0.25871800  0.38206200  0.43029100  1
  O  O37  1  0.74128200  0.61793800  0.56970900  1
  O  O38  1  0.79400200  0.16959200  0.11609600  1
  O  O39  1  0.20599800  0.83040800  0.88390400  1
  O  O40  1  0.05668600  0.39335900  0.18806900  1
  O  O41  1  0.94331400  0.60664100  0.81193100  1
  O  O42  1  0.13382200  0.11855400  0.15172200  1
  O  O43  1  0.86617800  0.88144600  0.84827800  1
  O  O44  1  0.93870000  0.16826700  0.89057700  1
  O  O45  1  0.06130000  0.83173300  0.10942300  1
loop_
_geom_bond_atom_site_label_1
_geom_bond_atom_site_label_2
_geom_bond_distance
_geom_bond_site_symmetry_2
Na0 O28 2.387409 1_545
Na0 O26 2.389934 1_555
Na0 O32 2.430135 1_555
Na0 O30 2.456279 1_555
Na0 O34 2.463384 1_555
Na0 O0 2.507399 1_655
Na1 O29 2.387409 1_565
Na1 O27 2.389934 1_555
Na1 O33 2.430135 1_555
Na1 O31 2.456279 1_555
Na1 O35 2.463384 1_555
Na1 O1 2.507399 1_455
Na2 O32 2.359618 1_455
Na2 O36 2.364929 1_555
Na2 O34 2.386678 1_455
Na2 O40 2.412785 1_555
Na2 O38 2.474663 1_455
Na2 O42 2.587281 1_555
Na3 O33 2.359618 1_655
Na3 O37 2.364929 1_555
Na3 O35 2.386678 1_655
Na3 O41 2.412785 1_555
Na3 O39 2.474663 1_655
Na3 O43 2.587281 1_555
Li0 O42 1.975538 1_655
Li0 O38 1.988863 1_555
Li0 O44 1.990622 1_554
Li0 O40 2.002201 1_655
Li1 O43 1.975538 1_455
Li1 O39 1.988863 1_555
Li1 O45 1.990622 1_556
Li1 O41 2.002201 1_455
H0 O28 0.989239 1_555
H1 O29 0.989239 1_555
H2 O28 0.995776 1_555
H3 O29 0.995776 1_555
H4 O30 0.992341 1_565
H5 O31 0.992341 1_545
H6 O30 0.989461 1_555
H7 O31 0.989461 1_555
H8 O32 0.986626 1_565
H9 O33 0.986626 1_545
H10 O32 0.997965 1_455
H11 O33 0.997965 1_655
H12 O34 0.974075 1_555
H13 O35 0.974075 1_555
H14 O34 0.994386 1_555
H15 O35 0.994386 1_555
H16 O36 0.984533 1_555
H17 O37 0.984533 1_555
H18 O36 0.977802 1_555
H19 O37 0.977802 1_555
H20 O38 0.995368 1_555
H20 O5 1.693562 1_545
H21 O39 0.995368 1_555
H21 O4 1.693562 1_565
H22 O38 0.991678 1_555
H23 O39 0.991678 1_555
H24 O40 0.990672 1_555
H25 O41 0.990672 1_555
H26 O40 0.990895 1_655
H27 O41 0.990895 1_455
H28 O42 0.989665 1_555
H29 O43 0.989665 1_555
H30 O42 0.987885 1_555
H31 O43 0.987885 1_555
H32 O44 0.997685 1_455
H33 O45 0.997685 1_655
H34 O44 0.979584 1_555
H35 O45 0.979584 1_555
O0 V0 1.629368 1_555
O1 V1 1.629368 1_555
O2 V2 1.877098 1_555
O2 V0 1.893271 1_555
O3 V3 1.877098 1_555
O3 V1 1.893271 1_555
O4 V2 1.638978 1_555
O5 V3 1.638978 1_555
O6 V4 1.985537 1_555
O6 V2 1.998379 1_554
O6 V7 2.018957 1_555
O7 V5 1.985537 1_555
O7 V3 1.998379 1_556
O7 V6 2.018957 1_555
O8 V4 1.747146 1_555
O8 V1 2.018607 1_555
O9 V5 1.747146 1_555
O9 V0 2.018607 1_555
O10 V4 1.890909 1_556
O10 V6 2.045970 1_555
O10 V3 2.051749 1_556
O11 V5 1.890909 1_554
O11 V7 2.045970 1_555
O11 V2 2.051749 1_554
O12 V6 1.655239 1_555
O13 V7 1.655239 1_555
O14 V6 1.812437 1_555
O14 V0 1.918106 1_555
O15 V7 1.812437 1_555
O15 V1 1.918106 1_555
O16 V4 2.089220 1_556
O16 V5 2.127111 1_555
O16 V6 2.268257 1_555
O16 V2 2.282464 1_555
O16 V8 2.385635 1_555
O16 V0 2.410289 1_555
O17 V5 2.089220 1_554
O17 V4 2.127111 1_555
O17 V7 2.268257 1_555
O17 V3 2.282464 1_555
O17 V9 2.385635 1_555
O17 V1 2.410289 1_555
O18 V8 1.861682 1_555
O18 V0 1.869585 1_555
O19 V9 1.861682 1_555
O19 V1 1.869585 1_555
O20 V2 1.823958 1_555
O20 V8 1.907414 1_555
O21 V3 1.823958 1_555
O21 V9 1.907414 1_555
O22 V4 1.730381 1_556
O22 V8 2.038792 1_555
O23 V5 1.730381 1_554
O23 V9 2.038792 1_555
O24 V6 1.852555 1_555
O24 V8 1.897527 1_555
O25 V7 1.852555 1_555
O25 V9 1.897527 1_555
O26 V8 1.632112 1_555
O27 V9 1.632112 1_555
