# generated using pymatgen
data_InBi2S4Br
_symmetry_space_group_name_H-M   'P 1'
_cell_length_a   6.68390516
_cell_length_b   6.68390516
_cell_length_c   9.03175529
_cell_angle_alpha   65.16699831
_cell_angle_beta   65.16699831
_cell_angle_gamma   34.35550192
_symmetry_Int_Tables_number   1
_chemical_formula_structural   InBi2S4Br
_chemical_formula_sum   'In1 Bi2 S4 Br1'
_cell_volume   204.52044213
_cell_formula_units_Z   1
loop_
 _symmetry_equiv_pos_site_id
 _symmetry_equiv_pos_as_xyz
  1  'x, y, z'
loop_
 _atom_site_type_symbol
 _atom_site_label
 _atom_site_symmetry_multiplicity
 _atom_site_fract_x
 _atom_site_fract_y
 _atom_site_fract_z
 _atom_site_occupancy
  In  In0  1  0.00000000  0.00000000  0.00000000  1
  Bi  Bi0  1  0.79094300  0.79094300  0.74250300  1
  Bi  Bi1  1  0.20905700  0.20905700  0.25749700  1
  S  S0  1  0.83602500  0.83602500  0.30424500  1
  S  S1  1  0.16397500  0.16397500  0.69575500  1
  S  S2  1  0.62223300  0.62223300  0.05636400  1
  S  S3  1  0.37776700  0.37776700  0.94363600  1
  Br  Br0  1  0.50000000  0.50000000  0.50000000  1
loop_
_geom_bond_atom_site_label_1
_geom_bond_atom_site_label_2
_geom_bond_distance
_geom_bond_site_symmetry_2
In0 S1 2.622446 1_554
In0 S0 2.622446 1_445
In0 S2 2.700288 1_455
In0 S2 2.700288 1_545
In0 S3 2.700288 1_544
In0 S3 2.700288 1_454
Bi0 S1 2.703033 1_565
Bi0 S1 2.703033 1_655
Bi0 S2 2.703405 1_556
Bi0 S3 3.193311 1_565
Bi0 S3 3.193311 1_655
Bi0 Br0 3.268229 1_655
Bi0 Br0 3.268229 1_565
Bi1 S0 2.703033 1_545
Bi1 S0 2.703033 1_455
Bi1 S3 2.703405 1_554
Bi1 S2 3.193311 1_545
Bi1 S2 3.193311 1_455
Bi1 Br0 3.268229 1_455
Bi1 Br0 3.268229 1_545
