# generated using pymatgen
data_Mg14NbZnO16
_symmetry_space_group_name_H-M   'P 1'
_cell_length_a   8.62748479
_cell_length_b   8.62748479
_cell_length_c   4.28888818
_cell_angle_alpha   90.00000000
_cell_angle_beta   90.00000000
_cell_angle_gamma   90.00000000
_symmetry_Int_Tables_number   1
_chemical_formula_structural   Mg14NbZnO16
_chemical_formula_sum   'Mg14 Nb1 Zn1 O16'
_cell_volume   319.23693176
_cell_formula_units_Z   1
loop_
 _symmetry_equiv_pos_site_id
 _symmetry_equiv_pos_as_xyz
  1  'x, y, z'
loop_
 _atom_site_type_symbol
 _atom_site_label
 _atom_site_symmetry_multiplicity
 _atom_site_fract_x
 _atom_site_fract_y
 _atom_site_fract_z
 _atom_site_occupancy
  Mg  Mg0  1  -0.00000000  0.50000000  -0.00000000  1
  Mg  Mg1  1  0.50000000  0.00000000  -0.00000000  1
  Mg  Mg2  1  0.00000000  0.24948193  0.50000000  1
  Mg  Mg3  1  -0.00000000  0.75051807  0.50000000  1
  Mg  Mg4  1  0.50000000  0.24536916  0.50000000  1
  Mg  Mg5  1  0.50000000  0.75463084  0.50000000  1
  Mg  Mg6  1  0.24948193  0.00000000  0.50000000  1
  Mg  Mg7  1  0.24536916  0.50000000  0.50000000  1
  Mg  Mg8  1  0.75051807  0.00000000  0.50000000  1
  Mg  Mg9  1  0.75463084  0.50000000  0.50000000  1
  Mg  Mg10  1  0.24786059  0.24786059  -0.00000000  1
  Mg  Mg11  1  0.24786059  0.75213941  -0.00000000  1
  Mg  Mg12  1  0.75213941  0.24786059  0.00000000  1
  Mg  Mg13  1  0.75213941  0.75213941  -0.00000000  1
  Nb  Nb0  1  0.50000000  0.50000000  -0.00000000  1
  Zn  Zn0  1  -0.00000000  0.00000000  -0.00000000  1
  O  O0  1  0.25299302  0.00000000  -0.00000000  1
  O  O1  1  0.23891102  0.50000000  -0.00000000  1
  O  O2  1  0.74700698  -0.00000000  0.00000000  1
  O  O3  1  0.76108898  0.50000000  -0.00000000  1
  O  O4  1  0.25059311  0.25059311  0.50000000  1
  O  O5  1  0.25059311  0.74940689  0.50000000  1
  O  O6  1  0.74940689  0.25059311  0.50000000  1
  O  O7  1  0.74940689  0.74940689  0.50000000  1
  O  O8  1  -0.00000000  0.00000000  0.50000000  1
  O  O9  1  -0.00000000  0.50000000  0.50000000  1
  O  O10  1  0.50000000  0.00000000  0.50000000  1
  O  O11  1  0.50000000  0.50000000  0.50000000  1
  O  O12  1  0.00000000  0.25299302  0.00000000  1
  O  O13  1  -0.00000000  0.74700698  -0.00000000  1
  O  O14  1  0.50000000  0.23891102  0.00000000  1
  O  O15  1  0.50000000  0.76108898  -0.00000000  1
loop_
_geom_bond_atom_site_label_1
_geom_bond_atom_site_label_2
_geom_bond_distance
_geom_bond_site_symmetry_2
Mg0 O3 2.061201 1_455
Mg0 O1 2.061201 1_555
Mg0 O13 2.131049 1_555
Mg0 O12 2.131049 1_555
Mg0 O9 2.144444 1_555
Mg0 O9 2.144444 1_554
Mg1 O15 2.061201 1_545
Mg1 O14 2.061201 1_555
Mg1 O0 2.131049 1_555
Mg1 O2 2.131049 1_555
Mg1 O10 2.144444 1_555
Mg1 O10 2.144444 1_554
Mg2 O12 2.144658 1_555
Mg2 O12 2.144658 1_556
Mg2 O8 2.152402 1_555
Mg2 O9 2.161341 1_555
Mg2 O6 2.162009 1_455
Mg2 O4 2.162009 1_555
Mg3 O13 2.144658 1_556
Mg3 O13 2.144658 1_555
Mg3 O8 2.152402 1_565
Mg3 O9 2.161341 1_555
Mg3 O7 2.162009 1_455
Mg3 O5 2.162009 1_555
Mg4 O10 2.116919 1_555
Mg4 O14 2.145168 1_556
Mg4 O14 2.145168 1_555
Mg4 O4 2.152226 1_555
Mg4 O6 2.152226 1_555
Mg4 O11 2.196824 1_555
Mg5 O10 2.116919 1_565
Mg5 O15 2.145168 1_556
Mg5 O15 2.145168 1_555
Mg5 O5 2.152226 1_555
Mg5 O7 2.152226 1_555
Mg5 O11 2.196824 1_555
Mg6 O0 2.144658 1_555
Mg6 O0 2.144658 1_556
Mg6 O8 2.152402 1_555
Mg6 O10 2.161341 1_555
Mg6 O5 2.162009 1_545
Mg6 O4 2.162009 1_555
Mg7 O9 2.116919 1_555
Mg7 O1 2.145168 1_556
Mg7 O1 2.145168 1_555
Mg7 O4 2.152226 1_555
Mg7 O5 2.152226 1_555
Mg7 O11 2.196824 1_555
Mg8 O2 2.144658 1_556
Mg8 O2 2.144658 1_555
Mg8 O8 2.152402 1_655
Mg8 O10 2.161341 1_555
Mg8 O7 2.162009 1_545
Mg8 O6 2.162009 1_555
Mg9 O9 2.116919 1_655
Mg9 O3 2.145168 1_556
Mg9 O3 2.145168 1_555
Mg9 O6 2.152226 1_555
Mg9 O7 2.152226 1_555
Mg9 O11 2.196824 1_555
Mg10 O0 2.138872 1_555
Mg10 O12 2.138872 1_555
Mg10 O4 2.144703 1_554
Mg10 O4 2.144703 1_555
Mg10 O14 2.176699 1_555
Mg10 O1 2.176699 1_555
Mg11 O0 2.138872 1_565
Mg11 O13 2.138872 1_555
Mg11 O5 2.144703 1_555
Mg11 O5 2.144703 1_554
Mg11 O15 2.176699 1_555
Mg11 O1 2.176699 1_555
Mg12 O12 2.138872 1_655
Mg12 O2 2.138872 1_555
Mg12 O6 2.144703 1_555
Mg12 O6 2.144703 1_554
Mg12 O3 2.176699 1_555
Mg12 O14 2.176699 1_555
Mg13 O13 2.138872 1_655
Mg13 O2 2.138872 1_565
Mg13 O7 2.144703 1_555
Mg13 O7 2.144703 1_554
Mg13 O15 2.176699 1_555
Mg13 O3 2.176699 1_555
Nb0 O11 2.144444 1_554
Nb0 O11 2.144444 1_555
Nb0 O15 2.252541 1_555
Nb0 O14 2.252541 1_555
Nb0 O3 2.252541 1_555
Nb0 O1 2.252541 1_555
O0 Zn0 2.182693 1_555
O2 Zn0 2.182693 1_655
O8 Zn0 2.144444 1_555
O8 Zn0 2.144444 1_556
O12 Zn0 2.182693 1_555
O13 Zn0 2.182693 1_565
