# generated using pymatgen
data_Zr3Hg
_symmetry_space_group_name_H-M   'P 1'
_cell_length_a   5.59118487
_cell_length_b   5.59123751
_cell_length_c   5.59123751
_cell_angle_alpha   90.00000000
_cell_angle_beta   90.00000000
_cell_angle_gamma   90.00000000
_symmetry_Int_Tables_number   1
_chemical_formula_structural   Zr3Hg
_chemical_formula_sum   'Zr6 Hg2'
_cell_volume   174.79126856
_cell_formula_units_Z   2
loop_
 _symmetry_equiv_pos_site_id
 _symmetry_equiv_pos_as_xyz
  1  'x, y, z'
loop_
 _atom_site_type_symbol
 _atom_site_label
 _atom_site_symmetry_multiplicity
 _atom_site_fract_x
 _atom_site_fract_y
 _atom_site_fract_z
 _atom_site_occupancy
  Zr  Zr0  1  0.50000000  0.24998598  0.00000000  1
  Zr  Zr1  1  0.50000000  0.75001402  0.00000000  1
  Zr  Zr2  1  0.25000000  0.00000000  0.50000000  1
  Zr  Zr3  1  0.75000000  0.00000000  0.50000000  1
  Zr  Zr4  1  -0.00000000  0.50000000  0.25001402  1
  Zr  Zr5  1  -0.00000000  0.50000000  0.74998598  1
  Hg  Hg0  1  0.50000000  0.50000000  0.50000000  1
  Hg  Hg1  1  -0.00000000  0.00000000  0.00000000  1
loop_
_geom_bond_atom_site_label_1
_geom_bond_atom_site_label_2
_geom_bond_distance
_geom_bond_site_symmetry_2
Zr0 Zr1 2.795462 1_545
Zr0 Zr1 2.795776 1_555
Zr0 Zr2 3.423882 1_554
Zr0 Zr2 3.423882 1_555
Zr0 Zr3 3.423882 1_554
Zr0 Zr3 3.423882 1_555
Zr0 Zr4 3.423962 1_555
Zr0 Zr5 3.423962 1_654
Zr0 Zr4 3.423962 1_655
Zr0 Zr5 3.423962 1_554
Zr1 Zr2 3.423882 1_565
Zr1 Zr2 3.423882 1_564
Zr1 Zr3 3.423882 1_565
Zr1 Zr3 3.423882 1_564
Zr1 Zr4 3.423962 1_555
Zr1 Zr4 3.423962 1_655
Zr1 Zr5 3.423962 1_554
Zr1 Zr5 3.423962 1_654
Zr2 Zr3 2.795592 1_455
Zr2 Zr3 2.795592 1_555
Zr2 Zr4 3.423882 1_545
Zr2 Zr5 3.423882 1_545
Zr2 Zr4 3.423882 1_555
Zr2 Zr5 3.423882 1_555
Zr3 Zr5 3.423882 1_655
Zr3 Zr4 3.423882 1_645
Zr3 Zr5 3.423882 1_645
Zr3 Zr4 3.423882 1_655
Zr4 Zr5 2.795462 1_555
Zr4 Zr5 2.795776 1_554
Hg0 Zr5 3.125538 1_555
Hg0 Zr5 3.125538 1_655
Hg0 Zr4 3.125538 1_555
Hg0 Zr4 3.125538 1_655
Hg0 Zr3 3.125591 1_555
Hg0 Zr2 3.125591 1_565
Hg0 Zr2 3.125591 1_555
Hg0 Zr3 3.125591 1_565
Hg0 Zr0 3.125632 1_555
Hg0 Zr0 3.125632 1_556
Hg0 Zr1 3.125632 1_556
Hg0 Zr1 3.125632 1_555
Hg1 Zr1 3.125538 1_545
Hg1 Zr1 3.125538 1_445
Hg1 Zr0 3.125538 1_455
Hg1 Zr0 3.125538 1_555
Hg1 Zr2 3.125591 1_554
Hg1 Zr3 3.125591 1_455
Hg1 Zr3 3.125591 1_454
Hg1 Zr2 3.125591 1_555
Hg1 Zr5 3.125632 1_554
Hg1 Zr5 3.125632 1_544
Hg1 Zr4 3.125632 1_545
Hg1 Zr4 3.125632 1_555
