# generated using pymatgen
data_Mg8SiW9O49
_symmetry_space_group_name_H-M   'P 1'
_cell_length_a   13.59929534
_cell_length_b   13.59929467
_cell_length_c   14.38266417
_cell_angle_alpha   90.08513033
_cell_angle_beta   90.08513021
_cell_angle_gamma   119.41234079
_symmetry_Int_Tables_number   1
_chemical_formula_structural   Mg8SiW9O49
_chemical_formula_sum   'Mg16 Si2 W18 O98'
_cell_volume   2317.08665552
_cell_formula_units_Z   2
loop_
 _symmetry_equiv_pos_site_id
 _symmetry_equiv_pos_as_xyz
  1  'x, y, z'
loop_
 _atom_site_type_symbol
 _atom_site_label
 _atom_site_symmetry_multiplicity
 _atom_site_fract_x
 _atom_site_fract_y
 _atom_site_fract_z
 _atom_site_occupancy
  Mg  Mg0  1  0.40770409  0.81515546  0.70374358  1
  Mg  Mg1  1  0.18472337  0.59313144  0.70322673  1
  Mg  Mg2  1  0.40834709  0.58939983  0.70517079  1
  Mg  Mg3  1  0.81515546  0.40770409  0.20374358  1
  Mg  Mg4  1  0.59313144  0.18472337  0.20322673  1
  Mg  Mg5  1  0.58939983  0.40834709  0.20517079  1
  Mg  Mg6  1  0.46416992  0.23099087  0.56027761  1
  Mg  Mg7  1  0.76805456  0.23065377  0.55956356  1
  Mg  Mg8  1  0.76930562  0.53663422  0.56018644  1
  Mg  Mg9  1  0.23099087  0.46416992  0.06027761  1
  Mg  Mg10  1  0.23065377  0.76805456  0.05956356  1
  Mg  Mg11  1  0.53663422  0.76930562  0.06018644  1
  Mg  Mg12  1  0.99610493  0.99809089  0.92958791  1
  Mg  Mg13  1  0.99809089  0.99610493  0.42958791  1
  Mg  Mg14  1  0.66635329  0.33350842  0.41072501  1
  Mg  Mg15  1  0.33350842  0.66635329  0.91072501  1
  Si  Si0  1  0.66586153  0.33302439  0.01127964  1
  Si  Si1  1  0.33302439  0.66586153  0.51127964  1
  W  W0  1  0.32983687  0.92845251  0.50523502  1
  W  W1  1  0.07159356  0.39974274  0.50632842  1
  W  W2  1  0.59867335  0.67110390  0.50741645  1
  W  W3  1  0.92845251  0.32983687  0.00523502  1
  W  W4  1  0.39974274  0.07159356  0.00632842  1
  W  W5  1  0.67110390  0.59867335  0.00741645  1
  W  W6  1  0.07182265  0.67165211  0.50472493  1
  W  W7  1  0.32907215  0.40060970  0.50582268  1
  W  W8  1  0.60105143  0.92631319  0.50790694  1
  W  W9  1  0.67165211  0.07182265  0.00472493  1
  W  W10  1  0.40060970  0.32907215  0.00582268  1
  W  W11  1  0.92631319  0.60105143  0.00790694  1
  W  W12  1  0.76052161  0.24134933  0.81198863  1
  W  W13  1  0.76241194  0.52041996  0.81229159  1
  W  W14  1  0.47788535  0.23604129  0.81210301  1
  W  W15  1  0.24134933  0.76052161  0.31198863  1
  W  W16  1  0.52041996  0.76241194  0.31229159  1
  W  W17  1  0.23604129  0.47788535  0.31210301  1
  O  O0  1  0.29097666  0.92786193  0.01534362  1
  O  O1  1  0.07268771  0.36375463  0.01402228  1
  O  O2  1  0.63562968  0.70875499  0.01438302  1
  O  O3  1  0.92786193  0.29097666  0.51534362  1
  O  O4  1  0.36375463  0.07268771  0.51402228  1
  O  O5  1  0.70875499  0.63562968  0.51438302  1
  O  O6  1  0.92740683  0.63709174  0.51330270  1
  O  O7  1  0.36512411  0.29117628  0.51374175  1
  O  O8  1  0.70898920  0.07048504  0.51671656  1
  O  O9  1  0.63709174  0.92740683  0.01330270  1
  O  O10  1  0.29117628  0.36512411  0.01374175  1
  O  O11  1  0.07048504  0.70898920  0.01671656  1
  O  O12  1  0.15928574  0.84135611  0.51937278  1
  O  O13  1  0.15994626  0.31774961  0.51898757  1
  O  O14  1  0.67893923  0.83620547  0.51911181  1
  O  O15  1  0.84135611  0.15928574  0.01937278  1
  O  O16  1  0.31774961  0.15994626  0.01898757  1
  O  O17  1  0.83620547  0.67893923  0.01911181  1
  O  O18  1  0.04908874  0.52434944  0.47126128  1
  O  O19  1  0.47457759  0.52356074  0.47229544  1
  O  O20  1  0.47570159  0.94966702  0.47244308  1
  O  O21  1  0.52434944  0.04908874  0.97126128  1
  O  O22  1  0.52356074  0.47457759  0.97229544  1
  O  O23  1  0.94966702  0.47570159  0.97244308  1
  O  O24  1  0.90462279  0.29447951  0.86735474  1
  O  O25  1  0.70006589  0.60569957  0.86711911  1
  O  O26  1  0.38759791  0.09382785  0.86774684  1
  O  O27  1  0.29447951  0.90462279  0.36735474  1
  O  O28  1  0.60569957  0.70006589  0.36711911  1
  O  O29  1  0.09382785  0.38759791  0.36774684  1
  O  O30  1  0.10947308  0.65833985  0.62321175  1
  O  O31  1  0.34223036  0.45041486  0.62494925  1
  O  O32  1  0.54848022  0.89150215  0.62607124  1
  O  O33  1  0.65833985  0.10947308  0.12321175  1
  O  O34  1  0.45041486  0.34223036  0.12494925  1
  O  O35  1  0.89150215  0.54848022  0.12607124  1
  O  O36  1  0.94731341  0.83692603  0.91121301  1
  O  O37  1  0.16493722  0.09866903  0.92648188  1
  O  O38  1  0.90872038  0.07857908  0.93495660  1
  O  O39  1  0.83692603  0.94731341  0.41121301  1
  O  O40  1  0.09866903  0.16493722  0.42648188  1
  O  O41  1  0.07857908  0.90872038  0.43495660  1
  O  O42  1  0.34184210  0.89071643  0.62416288  1
  O  O43  1  0.10879045  0.45166486  0.62459462  1
  O  O44  1  0.54694469  0.65284477  0.62619666  1
  O  O45  1  0.89071643  0.34184210  0.12416288  1
  O  O46  1  0.45166486  0.10879045  0.12459462  1
  O  O47  1  0.65284477  0.54694469  0.12619666  1
  O  O48  1  0.71980863  0.44312645  0.30146911  1
  O  O49  1  0.55675177  0.27896831  0.30108533  1
  O  O50  1  0.72204479  0.27901654  0.30126294  1
  O  O51  1  0.44312645  0.71980863  0.80146911  1
  O  O52  1  0.27896831  0.55675177  0.80108533  1
  O  O53  1  0.27901654  0.72204479  0.80126294  1
  O  O54  1  0.60318690  0.20860626  0.80067841  1
  O  O55  1  0.79237184  0.39682365  0.80019551  1
  O  O56  1  0.60313731  0.39458700  0.79874549  1
  O  O57  1  0.20860626  0.60318690  0.30067841  1
  O  O58  1  0.39682365  0.79237184  0.30019551  1
  O  O59  1  0.39458700  0.60313731  0.29874549  1
  O  O60  1  0.78404146  0.21679785  0.69435714  1
  O  O61  1  0.78523346  0.56891287  0.69488901  1
  O  O62  1  0.42950389  0.21269056  0.69452194  1
  O  O63  1  0.21679785  0.78404146  0.19435714  1
  O  O64  1  0.56891287  0.78523346  0.19488901  1
  O  O65  1  0.21269056  0.42950389  0.19452194  1
  O  O66  1  0.70459702  0.09594821  0.86673533  1
  O  O67  1  0.90411888  0.61036924  0.86838054  1
  O  O68  1  0.39129875  0.29680963  0.86666196  1
  O  O69  1  0.09594821  0.70459702  0.36673533  1
  O  O70  1  0.61036924  0.90411888  0.36838054  1
  O  O71  1  0.29680963  0.39129875  0.36666196  1
  O  O72  1  0.61175151  0.38817886  0.52317736  1
  O  O73  1  0.61244895  0.22454520  0.52257053  1
  O  O74  1  0.77549756  0.38775469  0.52294545  1
  O  O75  1  0.38817886  0.61175151  0.02317736  1
  O  O76  1  0.22454520  0.61244895  0.02257053  1
  O  O77  1  0.38775469  0.77549756  0.02294545  1
  O  O78  1  0.48462176  0.97243055  0.77528636  1
  O  O79  1  0.02986640  0.51839684  0.77794686  1
  O  O80  1  0.49314337  0.50332009  0.77647019  1
  O  O81  1  0.97243055  0.48462176  0.27528636  1
  O  O82  1  0.51839684  0.02986640  0.27794686  1
  O  O83  1  0.50332009  0.49314337  0.27647019  1
  O  O84  1  0.04087881  0.93016519  0.03939259  1
  O  O85  1  0.07068896  0.12265707  0.03410610  1
  O  O86  1  0.88706517  0.95736818  0.04482138  1
  O  O87  1  0.93016519  0.04087881  0.53939259  1
  O  O88  1  0.12265707  0.07068896  0.53410610  1
  O  O89  1  0.95736818  0.88706517  0.54482138  1
  O  O90  1  0.73285546  0.26726419  0.97009027  1
  O  O91  1  0.73140267  0.46471078  0.97083832  1
  O  O92  1  0.53361549  0.26658111  0.97065176  1
  O  O93  1  0.26726419  0.73285546  0.47009027  1
  O  O94  1  0.46471078  0.73140267  0.47083832  1
  O  O95  1  0.26658111  0.53361549  0.47065076  1
  O  O96  1  0.66613279  0.33338994  0.12430669  1
  O  O97  1  0.33338994  0.66613279  0.62430669  1
loop_
_geom_bond_atom_site_label_1
_geom_bond_atom_site_label_2
_geom_bond_distance
_geom_bond_site_symmetry_2
Mg0 O32 2.012121 1_555
Mg0 O42 2.018079 1_555
Mg0 O97 2.100444 1_555
Mg0 O53 2.114092 1_555
Mg0 O51 2.122694 1_555
Mg0 O78 2.126125 1_555
Mg1 O30 2.012190 1_555
Mg1 O43 2.021230 1_555
Mg1 O97 2.097690 1_555
Mg1 O53 2.117837 1_555
Mg1 O52 2.118465 1_555
Mg1 O79 2.128527 1_555
Mg2 O44 1.999800 1_555
Mg2 O31 2.008340 1_555
Mg2 O52 2.106569 1_555
Mg2 O51 2.110470 1_555
Mg2 O97 2.127332 1_555
Mg2 O80 2.253373 1_555
Mg3 O35 2.012121 1_555
Mg3 O45 2.018079 1_555
Mg3 O96 2.100444 1_555
Mg3 O50 2.114092 1_555
Mg3 O48 2.122694 1_555
Mg3 O81 2.126125 1_555
Mg4 O33 2.012190 1_555
Mg4 O46 2.021230 1_555
Mg4 O96 2.097690 1_555
Mg4 O50 2.117837 1_555
Mg4 O49 2.118465 1_555
Mg4 O82 2.128527 1_555
Mg5 O47 1.999799 1_555
Mg5 O34 2.008340 1_555
Mg5 O49 2.106569 1_555
Mg5 O48 2.110470 1_555
Mg5 O96 2.127332 1_555
Mg5 O83 2.253373 1_555
Mg6 O62 1.975105 1_555
Mg6 O7 2.003478 1_555
Mg6 O4 2.011860 1_555
Mg6 O73 2.131843 1_555
Mg6 O72 2.162192 1_555
Mg7 O60 1.970118 1_555
Mg7 O8 2.011354 1_555
Mg7 O3 2.013739 1_555
Mg7 O73 2.142859 1_555
Mg7 O74 2.154807 1_555
Mg8 O61 1.973802 1_555
Mg8 O5 2.003581 1_555
Mg8 O6 2.016411 1_555
Mg8 O74 2.134849 1_555
Mg8 O72 2.166761 1_555
Mg9 O65 1.975104 1_555
Mg9 O10 2.003478 1_555
Mg9 O1 2.011860 1_555
Mg9 O76 2.131843 1_555
Mg9 O75 2.162192 1_555
Mg10 O63 1.970118 1_555
Mg10 O11 2.011354 1_555
Mg10 O0 2.013739 1_555
Mg10 O76 2.142858 1_555
Mg10 O77 2.154807 1_555
Mg11 O64 1.973802 1_555
Mg11 O2 2.003581 1_555
Mg11 O9 2.016411 1_555
Mg11 O77 2.134849 1_555
Mg11 O75 2.166761 1_555
Mg12 O36 1.970579 1_555
Mg12 O38 1.973298 1_565
Mg12 O37 2.015058 1_665
Mg12 O84 2.066907 1_656
Mg12 O86 2.110898 1_556
Mg12 O85 2.111520 1_666
Mg13 O39 1.970579 1_555
Mg13 O41 1.973298 1_655
Mg13 O40 2.015058 1_665
Mg13 O87 2.066907 1_565
Mg13 O89 2.110898 1_555
Mg13 O88 2.111520 1_665
Mg14 O50 2.037812 1_555
Mg14 O49 2.040122 1_555
Mg14 O48 2.041072 1_555
Mg14 O72 2.064517 1_555
Mg14 O73 2.065082 1_555
Mg14 O74 2.065499 1_555
Mg15 O53 2.037812 1_555
Mg15 O52 2.040122 1_555
Mg15 O51 2.041072 1_555
Mg15 O75 2.064517 1_556
Mg15 O76 2.065082 1_556
Mg15 O77 2.065499 1_556
O0 W4 1.785205 1_565
O1 W3 1.785121 1_455
O2 W5 1.786873 1_555
O3 W1 1.785206 1_655
O4 W0 1.785121 1_545
O5 W2 1.786873 1_555
O6 W6 1.785362 1_655
O7 W7 1.784691 1_555
O8 W8 1.785168 1_545
O9 W9 1.785362 1_565
O10 W10 1.784691 1_555
O11 W11 1.785168 1_455
O12 W6 2.021635 1_555
O12 W0 2.031662 1_555
O13 W1 2.008985 1_555
O13 W7 2.012950 1_555
O14 W2 1.962695 1_555
O14 W8 1.981022 1_555
O15 W9 2.021635 1_555
O15 W3 2.031662 1_555
O16 W4 2.008985 1_555
O16 W10 2.012950 1_555
O17 W5 1.962695 1_555
O17 W11 1.981022 1_555
O18 W6 1.930931 1_555
O18 W1 1.931593 1_555
O19 W7 1.923379 1_555
O19 W2 1.948793 1_555
O20 W0 1.918766 1_555
O20 W8 1.948481 1_555
O21 W9 1.930931 1_556
O21 W4 1.931593 1_556
O22 W10 1.923379 1_556
O22 W5 1.948793 1_556
O23 W3 1.918766 1_556
O23 W11 1.948481 1_556
O24 W12 1.897220 1_555
O24 W3 2.027575 1_556
O25 W13 1.910696 1_555
O25 W5 2.049865 1_556
O26 W14 1.887759 1_555
O26 W4 2.035020 1_556
O27 W15 1.897220 1_555
O27 W0 2.027575 1_555
O28 W16 1.910696 1_555
O28 W2 2.049865 1_555
O29 W17 1.887759 1_555
O29 W1 2.035020 1_555
O30 W6 1.813409 1_555
O31 W7 1.817407 1_555
O32 W8 1.815813 1_555
O33 W9 1.813409 1_555
O34 W10 1.817407 1_555
O35 W11 1.815813 1_555
O42 W0 1.816560 1_555
O43 W1 1.814075 1_555
O44 W2 1.818886 1_555
O45 W3 1.816560 1_555
O46 W4 1.814075 1_555
O47 W5 1.818886 1_555
O54 W14 1.922224 1_555
O54 W12 1.966160 1_555
O55 W13 1.921821 1_555
O55 W12 1.946436 1_555
O56 W14 1.995529 1_555
O56 W13 2.003788 1_555
O57 W17 1.922224 1_555
O57 W15 1.966159 1_555
O58 W16 1.921821 1_555
O58 W15 1.946436 1_555
O59 W17 1.995529 1_555
O59 W16 2.003788 1_555
O60 W12 1.783529 1_555
O61 W13 1.785022 1_555
O62 W14 1.784249 1_555
O63 W15 1.783529 1_555
O64 W16 1.785022 1_555
O65 W17 1.784249 1_555
O66 W12 1.907274 1_555
O66 W9 2.026683 1_556
O67 W13 1.880956 1_555
O67 W11 2.042246 1_556
O68 W14 1.908361 1_555
O68 W10 2.038778 1_556
O69 W15 1.907275 1_555
O69 W6 2.026683 1_555
O70 W16 1.880956 1_555
O70 W8 2.042246 1_555
O71 W17 1.908361 1_555
O71 W7 2.038778 1_555
O90 Si0 1.667644 1_556
O90 W12 2.359423 1_555
O90 W3 2.413851 1_556
O90 W9 2.416100 1_556
O91 Si0 1.666358 1_556
O91 W13 2.376106 1_555
O91 W5 2.394551 1_556
O91 W11 2.431822 1_556
O92 Si0 1.670795 1_556
O92 W14 2.372718 1_555
O92 W10 2.400214 1_556
O92 W4 2.423736 1_556
O93 Si1 1.667644 1_555
O93 W15 2.359423 1_555
O93 W0 2.413850 1_555
O93 W6 2.416100 1_555
O94 Si1 1.666358 1_555
O94 W16 2.376106 1_555
O94 W2 2.394551 1_555
O94 W8 2.431822 1_555
O95 Si1 1.670800 1_555
O95 W17 2.372704 1_555
O95 W7 2.400217 1_555
O95 W1 2.423739 1_555
O96 Si0 1.625623 1_555
O97 Si1 1.625623 1_555
