# generated using pymatgen
data_Sr3Ti(GaO2)10
_symmetry_space_group_name_H-M   'P 1'
_cell_length_a   9.83339295
_cell_length_b   9.83339295
_cell_length_c   5.15408770
_cell_angle_alpha   75.16420288
_cell_angle_beta   75.16420288
_cell_angle_gamma   73.92289448
_symmetry_Int_Tables_number   1
_chemical_formula_structural   Sr3Ti(GaO2)10
_chemical_formula_sum   'Sr3 Ti1 Ga10 O20'
_cell_volume   453.63277915
_cell_formula_units_Z   1
loop_
 _symmetry_equiv_pos_site_id
 _symmetry_equiv_pos_as_xyz
  1  'x, y, z'
loop_
 _atom_site_type_symbol
 _atom_site_label
 _atom_site_symmetry_multiplicity
 _atom_site_fract_x
 _atom_site_fract_y
 _atom_site_fract_z
 _atom_site_occupancy
  Sr  Sr0  1  0.27758000  0.27758000  0.71329400  1
  Sr  Sr1  1  0.72242000  0.72242000  0.28670600  1
  Sr  Sr2  1  0.00000000  0.00000000  0.00000000  1
  Ti  Ti0  1  0.50000000  0.50000000  0.00000000  1
  Ga  Ga0  1  0.00729900  0.27810800  0.34579300  1
  Ga  Ga1  1  0.27810800  0.00729900  0.34579300  1
  Ga  Ga2  1  0.99270100  0.72189200  0.65420700  1
  Ga  Ga3  1  0.72189200  0.99270100  0.65420700  1
  Ga  Ga4  1  0.63503500  0.36496500  0.50000000  1
  Ga  Ga5  1  0.36496500  0.63503500  0.50000000  1
  Ga  Ga6  1  0.85662800  0.42302900  0.83413000  1
  Ga  Ga7  1  0.42302900  0.85662800  0.83413000  1
  Ga  Ga8  1  0.14337200  0.57697100  0.16587000  1
  Ga  Ga9  1  0.57697100  0.14337200  0.16587000  1
  O  O0  1  0.90653800  0.90653800  0.49619600  1
  O  O1  1  0.09346200  0.09346200  0.50380400  1
  O  O2  1  0.30753000  0.54290000  0.89294300  1
  O  O3  1  0.54290000  0.30753000  0.89294300  1
  O  O4  1  0.69247000  0.45710000  0.10705700  1
  O  O5  1  0.45710000  0.69247000  0.10705700  1
  O  O6  1  0.82816000  0.33358700  0.57496100  1
  O  O7  1  0.33358700  0.82816000  0.57496100  1
  O  O8  1  0.17184000  0.66641300  0.42503900  1
  O  O9  1  0.66641300  0.17184000  0.42503900  1
  O  O10  1  0.60537800  0.87538200  0.65102400  1
  O  O11  1  0.87538200  0.60537800  0.65102400  1
  O  O12  1  0.39462200  0.12461800  0.34897600  1
  O  O13  1  0.12461800  0.39462200  0.34897600  1
  O  O14  1  0.56663900  0.56663900  0.61110200  1
  O  O15  1  0.43336100  0.43336100  0.38889800  1
  O  O16  1  0.00201400  0.28067400  0.98541700  1
  O  O17  1  0.28067400  0.00201400  0.98541700  1
  O  O18  1  0.99798600  0.71932600  0.01458300  1
  O  O19  1  0.71932600  0.99798600  0.01458300  1
loop_
_geom_bond_atom_site_label_1
_geom_bond_atom_site_label_2
_geom_bond_distance
_geom_bond_site_symmetry_2
Ga0 O13 1.842619 1_555
Ga0 O1 1.849848 1_555
Ga0 O16 1.864943 1_554
Ga0 O6 1.878297 1_455
Ga1 O12 1.842619 1_555
Ga1 O1 1.849848 1_555
Ga1 O17 1.864943 1_554
Ga1 O7 1.878297 1_545
Ga2 O11 1.842619 1_555
Ga2 O0 1.849848 1_555
Ga2 O18 1.864943 1_556
Ga2 O8 1.878297 1_655
Ga3 O10 1.842619 1_555
Ga3 O0 1.849848 1_555
Ga3 O19 1.864943 1_556
Ga3 O9 1.878297 1_565
Ga4 O6 1.959873 1_555
Ga4 O9 1.959873 1_555
Ga4 O3 1.999877 1_555
Ga4 O4 1.999877 1_555
Ga4 O14 2.087744 1_555
Ga4 O15 2.087744 1_555
Ga5 O7 1.959873 1_555
Ga5 O8 1.959873 1_555
Ga5 O2 1.999877 1_555
Ga5 O5 1.999877 1_555
Ga5 O14 2.087744 1_555
Ga5 O15 2.087744 1_555
Ga6 O11 1.835029 1_555
Ga6 O4 1.864332 1_556
Ga6 O16 1.874802 1_655
Ga6 O6 1.888311 1_555
Ga7 O10 1.835029 1_555
Ga7 O5 1.864332 1_556
Ga7 O17 1.874802 1_565
Ga7 O7 1.888311 1_555
Ga8 O13 1.835029 1_555
Ga8 O2 1.864332 1_554
Ga8 O18 1.874802 1_455
Ga8 O8 1.888311 1_555
Ga9 O12 1.835029 1_555
Ga9 O3 1.864332 1_554
Ga9 O19 1.874802 1_545
Ga9 O9 1.888311 1_555
O0 Sr2 2.508051 1_665
O1 Sr2 2.508051 1_556
O2 Ti0 2.009444 1_556
O2 Sr0 3.090834 1_555
O3 Ti0 2.009444 1_556
O3 Sr0 3.090834 1_555
O4 Ti0 2.009444 1_555
O4 Sr1 3.090834 1_555
O5 Ti0 2.009444 1_555
O5 Sr1 3.090834 1_555
O10 Sr1 2.548280 1_555
O11 Sr1 2.548280 1_555
O12 Sr0 2.548280 1_555
O13 Sr0 2.548280 1_555
O14 Ti0 1.941406 1_556
O14 Sr1 2.482967 1_555
O15 Ti0 1.941406 1_555
O15 Sr0 2.482967 1_555
O16 Sr0 2.709378 1_555
O16 Sr2 2.747144 1_556
O17 Sr0 2.709378 1_555
O17 Sr2 2.747144 1_556
O18 Sr1 2.709378 1_555
O18 Sr2 2.747144 1_665
O19 Sr1 2.709378 1_555
O19 Sr2 2.747144 1_665
