# generated using pymatgen
data_LiLa4CoO8
_symmetry_space_group_name_H-M   'P 1'
_cell_length_a   5.37019233
_cell_length_b   16.76858467
_cell_length_c   8.79446172
_cell_angle_alpha   79.96133739
_cell_angle_beta   107.56227049
_cell_angle_gamma   90.20457561
_symmetry_Int_Tables_number   1
_chemical_formula_structural   LiLa4CoO8
_chemical_formula_sum   'Li4 La16 Co4 O32'
_cell_volume   742.45914605
_cell_formula_units_Z   4
loop_
 _symmetry_equiv_pos_site_id
 _symmetry_equiv_pos_as_xyz
  1  'x, y, z'
loop_
 _atom_site_type_symbol
 _atom_site_label
 _atom_site_symmetry_multiplicity
 _atom_site_fract_x
 _atom_site_fract_y
 _atom_site_fract_z
 _atom_site_occupancy
  Li  Li0  1  0.24988100  0.25002400  0.49999000  1
  Li  Li1  1  0.00015400  0.49991100  0.00010700  1
  Li  Li2  1  0.75233400  0.74952900  0.50085500  1
  Li  Li3  1  0.49748800  0.00057700  0.99899200  1
  La  La0  1  0.80920100  0.55634600  0.61258400  1
  La  La1  1  0.55695500  0.80712400  0.11411500  1
  La  La2  1  0.30647700  0.05603700  0.61226300  1
  La  La3  1  0.05477900  0.30646200  0.11305300  1
  La  La4  1  0.19544400  0.44341000  0.38722100  1
  La  La5  1  0.94217800  0.69389200  0.88753000  1
  La  La6  1  0.69280200  0.94303600  0.38554600  1
  La  La7  1  0.44218900  0.19368400  0.88764100  1
  La  La8  1  0.81916900  0.31894300  0.63817700  1
  La  La9  1  0.56936900  0.56894700  0.13798000  1
  La  La10  1  0.32232300  0.81826900  0.63850900  1
  La  La11  1  0.06445400  0.06936200  0.13632100  1
  La  La12  1  0.18583200  0.68074400  0.36360300  1
  La  La13  1  0.92724000  0.93170900  0.86107600  1
  La  La14  1  0.68048800  0.18085600  0.36210600  1
  La  La15  1  0.43135400  0.43106800  0.86233000  1
  Co  Co0  1  0.62513000  0.37491900  0.25025000  1
  Co  Co1  1  0.37552600  0.62469500  0.75062800  1
  Co  Co2  1  0.12490600  0.87498900  0.24985000  1
  Co  Co3  1  0.87442800  0.12533800  0.74926100  1
  O  O0  1  0.34059400  0.34053300  0.68120500  1
  O  O1  1  0.09085200  0.59109300  0.18046700  1
  O  O2  1  0.84223200  0.83957500  0.68449400  1
  O  O3  1  0.58876600  0.09168500  0.17998200  1
  O  O4  1  0.66101500  0.65841300  0.31975100  1
  O  O5  1  0.40747200  0.91023200  0.81544200  1
  O  O6  1  0.15933300  0.15878600  0.31989300  1
  O  O7  1  0.90969100  0.40959700  0.81888000  1
  O  O8  1  0.28405900  0.53548300  0.57104500  1
  O  O9  1  0.03812400  0.78771500  0.07586500  1
  O  O10  1  0.78386400  0.03471300  0.56924300  1
  O  O11  1  0.53684400  0.28578300  0.07117100  1
  O  O12  1  0.71309400  0.46411400  0.42869900  1
  O  O13  1  0.46687900  0.71500800  0.92987300  1
  O  O14  1  0.21205500  0.96237000  0.42444700  1
  O  O15  1  0.96515200  0.21486700  0.92974100  1
  O  O16  1  0.68171600  0.56409100  0.87190900  1
  O  O17  1  0.44405200  0.81199100  0.37598300  1
  O  O18  1  0.17964900  0.06436400  0.87075000  1
  O  O19  1  0.93159200  0.31420600  0.37227300  1
  O  O20  1  0.18961100  0.56440100  0.87241300  1
  O  O21  1  0.94175000  0.81326900  0.37331000  1
  O  O22  1  0.68857900  0.06472300  0.87003800  1
  O  O23  1  0.43980500  0.31383300  0.37182100  1
  O  O24  1  0.31857200  0.43558500  0.12819400  1
  O  O25  1  0.07005400  0.68578900  0.62955700  1
  O  O26  1  0.80602500  0.93827000  0.12333900  1
  O  O27  1  0.56845400  0.18580500  0.62793100  1
  O  O28  1  0.81050100  0.43598000  0.12865500  1
  O  O29  1  0.56174000  0.68513500  0.62970200  1
  O  O30  1  0.30760900  0.93696000  0.12609500  1
  O  O31  1  0.06016600  0.18576100  0.62784200  1
loop_
_geom_bond_atom_site_label_1
_geom_bond_atom_site_label_2
_geom_bond_distance
_geom_bond_site_symmetry_2
Li0 O23 1.929038 1_555
Li0 O31 1.929897 1_555
Li0 O19 1.942831 1_455
Li0 O27 1.944619 1_555
Li0 O0 2.334530 1_555
Li0 O6 2.336757 1_555
Li1 O20 1.929766 1_554
Li1 O28 1.931096 1_455
Li1 O16 1.944300 1_454
Li1 O24 1.945128 1_555
Li1 O7 2.332096 1_454
Li1 O1 2.337720 1_555
Li2 O17 1.886277 1_555
Li2 O21 1.923049 1_555
Li2 O25 1.939202 1_655
Li2 O29 1.939855 1_555
Li2 O4 2.341650 1_555
Li2 O2 2.344283 1_555
Li3 O26 1.885042 1_546
Li3 O30 1.921357 1_546
Li3 O18 1.939117 1_555
Li3 O22 1.940460 1_555
Li3 O3 2.340813 1_556
Li3 O5 2.347532 1_545
La0 O12 2.374056 1_555
La0 O25 2.580903 1_655
La0 O20 2.588741 1_655
La0 O29 2.589818 1_555
La0 O16 2.594796 1_555
La0 O8 2.715118 1_655
La0 O4 2.726005 1_555
La0 O7 2.738681 1_555
La0 O8 2.761280 1_555
La1 O13 2.374776 1_554
La1 O17 2.566431 1_555
La1 O26 2.570510 1_555
La1 O21 2.591232 1_555
La1 O30 2.594242 1_555
La1 O9 2.729138 1_555
La1 O9 2.732163 1_655
La1 O4 2.762078 1_555
La1 O5 2.772601 1_554
La2 O14 2.417781 1_545
La2 O22 2.583934 1_555
La2 O18 2.587813 1_555
La2 O27 2.588249 1_555
La2 O31 2.595014 1_555
La2 O5 2.714093 1_545
La2 O6 2.728253 1_555
La2 O10 2.735397 1_555
La2 O10 2.747149 1_455
La3 O15 2.362066 1_454
La3 O19 2.581756 1_455
La3 O24 2.584076 1_555
La3 O28 2.586391 1_455
La3 O23 2.593457 1_555
La3 O11 2.722414 1_455
La3 O7 2.743062 1_454
La3 O6 2.753089 1_555
La3 O11 2.753920 1_555
La4 O8 2.371568 1_555
La4 O24 2.580225 1_555
La4 O19 2.585337 1_455
La4 O23 2.586842 1_555
La4 O28 2.592269 1_455
La4 O12 2.721513 1_555
La4 O0 2.739801 1_555
La4 O1 2.752848 1_555
La4 O12 2.753926 1_455
La5 O9 2.423156 1_656
La5 O29 2.579766 1_555
La5 O16 2.584446 1_555
La5 O25 2.585643 1_655
La5 O20 2.593459 1_655
La5 O2 2.711909 1_555
La5 O13 2.721224 1_555
La5 O1 2.732431 1_656
La5 O13 2.758505 1_655
La6 O10 2.365585 1_565
La6 O17 2.568255 1_555
La6 O26 2.569887 1_555
La6 O21 2.592898 1_555
La6 O30 2.593604 1_555
La6 O14 2.730260 1_655
La6 O14 2.732217 1_555
La6 O3 2.760980 1_565
La6 O2 2.777139 1_555
La7 O11 2.369999 1_556
La7 O18 2.583870 1_555
La7 O22 2.590726 1_555
La7 O31 2.592658 1_555
La7 O27 2.595072 1_555
La7 O3 2.722174 1_556
La7 O15 2.729601 1_455
La7 O0 2.740552 1_555
La7 O15 2.749846 1_555
La8 O7 2.333101 1_555
La8 O19 2.599311 1_555
La8 O27 2.603949 1_555
La8 O31 2.614024 1_655
La8 O23 2.614126 1_555
La8 O12 2.730822 1_555
La8 O15 2.733453 1_555
La8 O0 2.741566 1_655
La8 O0 2.742385 1_555
La9 O4 2.324723 1_555
La9 O16 2.600913 1_554
La9 O24 2.607296 1_555
La9 O28 2.608338 1_555
La9 O20 2.608844 1_554
La9 O12 2.733983 1_555
La9 O13 2.736836 1_554
La9 O1 2.741472 1_555
La9 O1 2.744009 1_655
La10 O5 2.326043 1_555
La10 O25 2.598401 1_555
La10 O17 2.600942 1_555
La10 O29 2.604583 1_555
La10 O21 2.610338 1_455
La10 O13 2.725631 1_555
La10 O2 2.729168 1_555
La10 O14 2.735894 1_555
La10 O2 2.761228 1_455
La11 O6 2.335935 1_555
La11 O26 2.596412 1_445
La11 O22 2.602747 1_454
La11 O18 2.604815 1_554
La11 O30 2.608374 1_545
La11 O15 2.723495 1_454
La11 O3 2.731683 1_455
La11 O14 2.735139 1_545
La11 O3 2.757826 1_555
La12 O1 2.336017 1_555
La12 O17 2.597890 1_555
La12 O29 2.600990 1_555
La12 O25 2.609836 1_555
La12 O21 2.611186 1_455
La12 O8 2.723768 1_555
La12 O4 2.729804 1_555
La12 O9 2.732500 1_555
La12 O4 2.760257 1_455
La13 O2 2.326046 1_555
La13 O26 2.598200 1_556
La13 O22 2.601240 1_565
La13 O18 2.601451 1_665
La13 O30 2.609509 1_656
La13 O10 2.726658 1_565
La13 O5 2.729294 1_555
La13 O9 2.737568 1_656
La13 O5 2.761034 1_655
La14 O3 2.323234 1_555
La14 O27 2.598253 1_555
La14 O19 2.608044 1_555
La14 O23 2.608391 1_555
La14 O31 2.610718 1_655
La14 O10 2.734084 1_555
La14 O11 2.736142 1_555
La14 O6 2.741924 1_655
La14 O6 2.742445 1_555
La15 O0 2.334285 1_555
La15 O24 2.599248 1_556
La15 O16 2.601174 1_555
La15 O28 2.612735 1_556
La15 O20 2.617508 1_555
La15 O11 2.729727 1_556
La15 O8 2.734403 1_555
La15 O7 2.741970 1_455
La15 O7 2.742464 1_555
Co0 O23 1.853610 1_555
Co0 O28 1.853733 1_555
Co0 O19 1.860608 1_555
Co0 O24 1.860683 1_555
Co0 O12 2.299775 1_555
Co0 O11 2.303079 1_555
Co1 O29 1.848504 1_555
Co1 O20 1.851141 1_555
Co1 O16 1.857353 1_555
Co1 O25 1.857931 1_555
Co1 O8 2.307321 1_555
Co1 O13 2.319338 1_555
Co2 O21 1.860891 1_455
Co2 O30 1.862767 1_555
Co2 O17 1.934139 1_555
Co2 O26 1.935963 1_455
Co2 O9 2.246237 1_555
Co2 O14 2.251559 1_555
Co3 O22 1.847578 1_555
Co3 O31 1.849348 1_655
Co3 O27 1.855583 1_555
Co3 O18 1.856837 1_655
Co3 O15 2.317175 1_555
Co3 O10 2.328321 1_555
