# generated using pymatgen
data_RbB(CN)2
_symmetry_space_group_name_H-M   'P 1'
_cell_length_a   9.40730584
_cell_length_b   9.40730584
_cell_length_c   9.40730584
_cell_angle_alpha   122.15625268
_cell_angle_beta   122.15625268
_cell_angle_gamma   86.30414898
_symmetry_Int_Tables_number   1
_chemical_formula_structural   RbB(CN)2
_chemical_formula_sum   'Rb4 B4 C8 N8'
_cell_volume   568.20861597
_cell_formula_units_Z   4
loop_
 _symmetry_equiv_pos_site_id
 _symmetry_equiv_pos_as_xyz
  1  'x, y, z'
loop_
 _atom_site_type_symbol
 _atom_site_label
 _atom_site_symmetry_multiplicity
 _atom_site_fract_x
 _atom_site_fract_y
 _atom_site_fract_z
 _atom_site_occupancy
  Rb  Rb0  1  0.87500000  0.62500000  0.25000000  1
  Rb  Rb1  1  0.37500000  0.62500000  0.75000000  1
  Rb  Rb2  1  0.37500000  0.62500000  0.25000000  1
  Rb  Rb3  1  0.37500000  0.12500000  0.75000000  1
  B  B0  1  0.37500000  0.12500000  0.25000000  1
  B  B1  1  0.87500000  0.12500000  0.75000000  1
  B  B2  1  0.87500000  0.12500000  0.25000000  1
  B  B3  1  0.87500000  0.62500000  0.75000000  1
  C  C0  1  0.30117500  0.26876400  0.28416900  1
  C  C1  1  0.98459500  0.01700600  0.71583100  1
  C  C2  1  0.01876400  0.23459500  0.46759000  1
  C  C3  1  0.44882500  0.98123600  0.21583100  1
  C  C4  1  0.76700600  0.55117500  0.53241000  1
  C  C5  1  0.76540500  0.23299400  0.78416900  1
  C  C6  1  0.73123600  0.01540500  0.03241000  1
  C  C7  1  0.98299400  0.69882500  0.96759000  1
  N  N0  1  0.24736900  0.39344900  0.31795000  1
  N  N1  1  0.07549900  0.92941900  0.68205000  1
  N  N2  1  0.14344900  0.32549900  0.64608000  1
  N  N3  1  0.50263100  0.85655100  0.18205000  1
  N  N4  1  0.67941900  0.49736900  0.35392000  1
  N  N5  1  0.67450100  0.32058100  0.81795000  1
  N  N6  1  0.60655100  0.92450100  0.85392000  1
  N  N7  1  0.07058100  0.75263100  0.14608000  1
loop_
_geom_bond_atom_site_label_1
_geom_bond_atom_site_label_2
_geom_bond_distance
_geom_bond_site_symmetry_2
B0 C3 1.438231 1_545
B0 C0 1.438231 1_555
B1 C5 1.438231 1_555
B1 C1 1.438231 1_555
B2 C2 1.438236 1_655
B2 C6 1.438236 1_555
B3 C4 1.438239 1_555
B3 C7 1.438239 1_555
C0 N0 1.196208 1_555
C1 N1 1.196208 1_645
C2 N2 1.196203 1_555
C3 N3 1.196208 1_555
C4 N4 1.196200 1_555
C5 N5 1.196208 1_555
C6 N6 1.196203 1_544
C7 N7 1.196200 1_656
N0 Rb1 2.902500 1_555
N0 Rb2 3.038318 1_555
N1 Rb0 2.902500 1_455
N1 Rb3 3.038318 1_565
N2 Rb3 2.902500 1_555
N2 Rb1 3.038318 1_555
N3 Rb1 2.902500 1_554
N3 Rb2 3.038318 1_555
N4 Rb2 2.902500 1_555
N4 Rb0 3.038318 1_555
N5 Rb0 2.902500 1_556
N5 Rb3 3.038318 1_555
N6 Rb3 2.902500 1_565
N6 Rb1 3.038318 1_555
N7 Rb2 2.902500 1_555
N7 Rb0 3.038318 1_455
