# generated using pymatgen
data_Tb6CoCl10
_symmetry_space_group_name_H-M   'P 1'
_cell_length_a   7.05469698
_cell_length_b   8.64900934
_cell_length_c   8.83184767
_cell_angle_alpha   109.16973718
_cell_angle_beta   97.16189715
_cell_angle_gamma   106.45541870
_symmetry_Int_Tables_number   1
_chemical_formula_structural   Tb6CoCl10
_chemical_formula_sum   'Tb6 Co1 Cl10'
_cell_volume   473.85032967
_cell_formula_units_Z   1
loop_
 _symmetry_equiv_pos_site_id
 _symmetry_equiv_pos_as_xyz
  1  'x, y, z'
loop_
 _atom_site_type_symbol
 _atom_site_label
 _atom_site_symmetry_multiplicity
 _atom_site_fract_x
 _atom_site_fract_y
 _atom_site_fract_z
 _atom_site_occupancy
  Tb  Tb0  1  0.87054273  0.14571185  0.19173522  1
  Tb  Tb1  1  0.12945727  0.85428815  0.80826478  1
  Tb  Tb2  1  0.52888041  0.70374787  0.90574156  1
  Tb  Tb3  1  0.47111959  0.29625213  0.09425844  1
  Tb  Tb4  1  0.63383930  0.05344312  0.75189293  1
  Tb  Tb5  1  0.36616070  0.94655688  0.24810707  1
  Co  Co0  1  0.50000000  0.00000000  0.00000000  1
  Cl  Cl0  1  0.74957400  0.08442046  0.45746029  1
  Cl  Cl1  1  0.25042600  0.91557954  0.54253971  1
  Cl  Cl2  1  0.94877873  0.82333157  0.07876070  1
  Cl  Cl3  1  0.05122127  0.17666843  0.92123930  1
  Cl  Cl4  1  0.29555109  0.25783682  0.34989138  1
  Cl  Cl5  1  0.70444891  0.74216318  0.65010862  1
  Cl  Cl6  1  0.59127589  0.37409722  0.83309529  1
  Cl  Cl7  1  0.40872411  0.62590278  0.16690471  1
  Cl  Cl8  1  0.85570083  0.46353921  0.27945565  1
  Cl  Cl9  1  0.14429917  0.53646079  0.72054435  1
loop_
_geom_bond_atom_site_label_1
_geom_bond_atom_site_label_2
_geom_bond_distance
_geom_bond_site_symmetry_2
Co0 Tb3 2.497409 1_555
Co0 Tb2 2.497409 1_544
Co0 Tb5 2.615440 1_545
Co0 Tb4 2.615440 1_554
Co0 Tb1 2.630099 1_544
Co0 Tb0 2.630099 1_555
Cl0 Tb0 2.752654 1_555
Cl0 Tb5 2.763082 1_545
Cl0 Tb4 2.891959 1_555
Cl1 Tb1 2.752654 1_555
Cl1 Tb4 2.763082 1_565
Cl1 Tb5 2.891959 1_555
Cl2 Tb5 2.849573 1_655
Cl2 Tb0 2.873453 1_565
Cl2 Tb2 2.877034 1_554
Cl2 Tb1 2.896480 1_654
Cl3 Tb4 2.849573 1_455
Cl3 Tb1 2.873453 1_545
Cl3 Tb3 2.877034 1_556
Cl3 Tb0 2.896480 1_456
Cl4 Tb5 2.754364 1_545
Cl4 Tb3 2.774617 1_555
Cl4 Tb0 2.881003 1_455
Cl5 Tb4 2.754364 1_565
Cl5 Tb2 2.774617 1_555
Cl5 Tb1 2.881003 1_655
Cl6 Tb4 2.741383 1_555
Cl6 Tb3 2.770579 1_556
Cl6 Tb2 2.883496 1_555
Cl7 Tb5 2.741383 1_555
Cl7 Tb2 2.770579 1_554
Cl7 Tb3 2.883496 1_555
Cl8 Tb0 2.636712 1_555
Cl8 Tb3 2.691654 1_555
Cl9 Tb1 2.636712 1_555
Cl9 Tb2 2.691654 1_555
