# generated using pymatgen
data_Mg5Cd
_symmetry_space_group_name_H-M   'P 1'
_cell_length_a   11.98149310
_cell_length_b   11.98149310
_cell_length_c   15.05719687
_cell_angle_alpha   75.81639951
_cell_angle_beta   75.81639951
_cell_angle_gamma   30.22958421
_symmetry_Int_Tables_number   1
_chemical_formula_structural   Mg5Cd
_chemical_formula_sum   'Mg40 Cd8'
_cell_volume   1052.63259459
_cell_formula_units_Z   8
loop_
 _symmetry_equiv_pos_site_id
 _symmetry_equiv_pos_as_xyz
  1  'x, y, z'
loop_
 _atom_site_type_symbol
 _atom_site_label
 _atom_site_symmetry_multiplicity
 _atom_site_fract_x
 _atom_site_fract_y
 _atom_site_fract_z
 _atom_site_occupancy
  Mg  Mg0_0  1  0.00148518  0.00148518  0.00047909  1
  Mg  Mg0_1  1  0.00148517  0.00148517  0.50047909  1
  Mg  Mg0_2  1  0.00148517  0.50148518  0.00047909  1
  Mg  Mg0_3  1  0.00148518  0.50148517  0.50047909  1
  Mg  Mg0_4  1  0.50148518  0.00148518  0.00047909  1
  Mg  Mg0_5  1  0.50148518  0.00148518  0.50047909  1
  Mg  Mg0_6  1  0.50148518  0.50148518  0.00047909  1
  Mg  Mg0_7  1  0.50148518  0.50148518  0.50047909  1
  Mg  Mg1_0  1  0.16533818  0.16533818  0.16550056  1
  Mg  Mg1_1  1  0.16533818  0.16533818  0.66550056  1
  Mg  Mg1_2  1  0.16533818  0.66533818  0.16550056  1
  Mg  Mg1_3  1  0.16533818  0.66533818  0.66550056  1
  Mg  Mg1_4  1  0.66533818  0.16533818  0.16550056  1
  Mg  Mg1_5  1  0.66533818  0.16533818  0.66550056  1
  Mg  Mg1_6  1  0.66533818  0.66533818  0.16550056  1
  Mg  Mg1_7  1  0.66533818  0.66533818  0.66550056  1
  Mg  Mg2_0  1  0.47338788  0.47338788  0.30326703  1
  Mg  Mg2_1  1  0.47338788  0.47338788  0.80326703  1
  Mg  Mg2_2  1  0.47338788  0.97338787  0.30326703  1
  Mg  Mg2_3  1  0.47338788  0.97338788  0.80326703  1
  Mg  Mg2_4  1  0.97338788  0.47338788  0.30326703  1
  Mg  Mg2_5  1  0.97338788  0.47338788  0.80326703  1
  Mg  Mg2_6  1  0.97338788  0.97338788  0.30326703  1
  Mg  Mg2_7  1  0.97338787  0.97338787  0.80326703  1
  Mg  Mg3_0  1  0.33429647  0.33429647  0.33256857  1
  Mg  Mg3_1  1  0.33429647  0.33429647  0.83256857  1
  Mg  Mg3_2  1  0.33429647  0.83429647  0.33256857  1
  Mg  Mg3_3  1  0.33429647  0.83429647  0.83256857  1
  Mg  Mg3_4  1  0.83429647  0.33429647  0.33256857  1
  Mg  Mg3_5  1  0.83429647  0.33429647  0.83256857  1
  Mg  Mg3_6  1  0.83429647  0.83429647  0.33256857  1
  Mg  Mg3_7  1  0.83429647  0.83429647  0.83256857  1
  Mg  Mg4_0  1  0.13808481  0.13808482  0.47442174  1
  Mg  Mg4_1  1  0.13808481  0.13808482  0.97442174  1
  Mg  Mg4_2  1  0.13808481  0.63808482  0.47442174  1
  Mg  Mg4_3  1  0.13808481  0.63808481  0.97442174  1
  Mg  Mg4_4  1  0.63808482  0.13808481  0.47442174  1
  Mg  Mg4_5  1  0.63808482  0.13808482  0.97442174  1
  Mg  Mg4_6  1  0.63808482  0.63808482  0.47442174  1
  Mg  Mg4_7  1  0.63808482  0.63808482  0.97442174  1
  Cd  Cd0_0  1  0.30407398  0.30407398  0.14043002  1
  Cd  Cd0_1  1  0.30407399  0.30407399  0.64043001  1
  Cd  Cd0_2  1  0.30407398  0.80407398  0.14043002  1
  Cd  Cd0_3  1  0.30407398  0.80407399  0.64043002  1
  Cd  Cd0_4  1  0.80407398  0.30407398  0.14043002  1
  Cd  Cd0_5  1  0.80407399  0.30407399  0.64043002  1
  Cd  Cd0_6  1  0.80407398  0.80407398  0.14043001  1
  Cd  Cd0_7  1  0.80407399  0.80407399  0.64043002  1
loop_
_geom_bond_atom_site_label_1
_geom_bond_atom_site_label_2
_geom_bond_distance
_geom_bond_site_symmetry_2
Mg0_0 Mg4_1 3.083952 1_554
Mg0_0 Mg0_6 3.124219 1_455
Mg0_0 Mg0_6 3.124219 1_545
Mg0_0 Mg4_5 3.162098 1_454
Mg0_0 Mg4_3 3.162098 1_544
Mg0_0 Mg3_3 3.169186 1_544
Mg0_0 Mg3_5 3.169186 1_454
Mg0_0 Mg1_4 3.173683 1_455
Mg0_0 Mg1_2 3.173683 1_545
Mg0_0 Mg2_7 3.196872 1_444
Mg0_1 Mg4_0 3.083952 1_555
Mg0_1 Mg0_7 3.124219 1_455
Mg0_1 Mg0_7 3.124219 1_545
Mg0_1 Mg4_4 3.162098 1_455
Mg0_1 Mg4_2 3.162098 1_545
Mg0_1 Mg3_2 3.169186 1_545
Mg0_1 Mg3_4 3.169186 1_455
Mg0_1 Mg1_5 3.173683 1_455
Mg0_1 Mg1_3 3.173683 1_545
Mg0_1 Mg2_6 3.196872 1_445
Mg0_2 Mg4_3 3.083952 1_554
Mg0_2 Mg0_4 3.124219 1_555
Mg0_2 Mg0_4 3.124219 1_465
Mg0_2 Mg4_7 3.162098 1_454
Mg0_2 Mg4_1 3.162098 1_554
Mg0_2 Mg3_1 3.169186 1_554
Mg0_2 Mg3_7 3.169186 1_454
Mg0_2 Mg1_0 3.173683 1_555
Mg0_2 Mg1_6 3.173683 1_455
Mg0_2 Mg2_5 3.196872 1_454
Mg0_3 Mg4_2 3.083952 1_555
Mg0_3 Mg0_5 3.124219 1_555
Mg0_3 Mg0_5 3.124219 1_465
Mg0_3 Mg4_6 3.162098 1_455
Mg0_3 Mg4_0 3.162098 1_555
Mg0_3 Mg3_6 3.169186 1_455
Mg0_3 Mg3_0 3.169186 1_555
Mg0_3 Mg1_1 3.173683 1_555
Mg0_3 Mg1_7 3.173683 1_455
Mg0_3 Mg2_4 3.196872 1_455
Mg0_4 Mg4_5 3.083952 1_554
Mg0_4 Mg4_7 3.162098 1_544
Mg0_4 Mg4_1 3.162098 1_554
Mg0_4 Mg3_1 3.169186 1_554
Mg0_4 Mg3_7 3.169186 1_544
Mg0_4 Mg1_0 3.173683 1_555
Mg0_4 Mg1_6 3.173683 1_545
Mg0_4 Mg2_3 3.196872 1_544
Mg0_5 Mg4_4 3.083952 1_555
Mg0_5 Mg4_0 3.162098 1_555
Mg0_5 Mg4_6 3.162098 1_545
Mg0_5 Mg3_6 3.169186 1_545
Mg0_5 Mg3_0 3.169186 1_555
Mg0_5 Mg1_1 3.173683 1_555
Mg0_5 Mg1_7 3.173683 1_545
Mg0_5 Mg2_2 3.196872 1_545
Mg0_6 Mg4_7 3.083952 1_554
Mg0_6 Mg4_5 3.162098 1_554
Mg0_6 Mg4_3 3.162098 1_554
Mg0_6 Mg3_5 3.169186 1_554
Mg0_6 Mg3_3 3.169186 1_554
Mg0_6 Mg1_4 3.173683 1_555
Mg0_6 Mg1_2 3.173683 1_555
Mg0_6 Mg2_1 3.196872 1_554
Mg0_7 Mg4_6 3.083952 1_555
Mg0_7 Mg4_4 3.162098 1_555
Mg0_7 Mg4_2 3.162098 1_555
Mg0_7 Mg3_2 3.169186 1_555
Mg0_7 Mg3_4 3.169186 1_555
Mg0_7 Mg1_5 3.173683 1_555
Mg0_7 Mg1_3 3.173683 1_555
Mg0_7 Mg2_0 3.196872 1_555
Mg1_0 Mg4_1 3.097754 1_554
Mg1_0 Mg1_6 3.124219 1_455
Mg1_0 Mg1_6 3.124219 1_545
Mg1_0 Mg3_2 3.144708 1_545
Mg1_0 Mg3_4 3.144708 1_455
Mg1_0 Mg2_2 3.156066 1_545
Mg1_0 Mg2_4 3.156066 1_455
Mg1_1 Mg4_0 3.097754 1_555
Mg1_1 Mg1_7 3.124219 1_455
Mg1_1 Mg1_7 3.124219 1_545
Mg1_1 Mg3_5 3.144708 1_455
Mg1_1 Mg3_3 3.144708 1_545
Mg1_1 Mg2_3 3.156066 1_545
Mg1_1 Mg2_5 3.156066 1_455
Mg1_2 Mg4_3 3.097754 1_554
Mg1_2 Mg1_4 3.124219 1_555
Mg1_2 Mg1_4 3.124219 1_465
Mg1_2 Mg3_0 3.144708 1_555
Mg1_2 Mg3_6 3.144708 1_455
Mg1_2 Mg2_0 3.156066 1_555
Mg1_2 Mg2_6 3.156066 1_455
Mg1_3 Mg4_2 3.097754 1_555
Mg1_3 Mg1_5 3.124219 1_465
Mg1_3 Mg1_5 3.124219 1_555
Mg1_3 Mg3_7 3.144708 1_455
Mg1_3 Mg3_1 3.144708 1_555
Mg1_3 Mg2_7 3.156066 1_455
Mg1_3 Mg2_1 3.156066 1_555
Mg1_4 Mg4_5 3.097754 1_554
Mg1_4 Mg3_0 3.144708 1_555
Mg1_4 Mg3_6 3.144708 1_545
Mg1_4 Mg2_0 3.156066 1_555
Mg1_4 Mg2_6 3.156066 1_545
Mg1_5 Mg4_4 3.097754 1_555
Mg1_5 Mg3_7 3.144708 1_545
Mg1_5 Mg3_1 3.144708 1_555
Mg1_5 Mg2_1 3.156066 1_555
Mg1_5 Mg2_7 3.156066 1_545
Mg1_6 Mg4_7 3.097754 1_554
Mg1_6 Mg3_2 3.144708 1_555
Mg1_6 Mg3_4 3.144708 1_555
Mg1_6 Mg2_2 3.156066 1_555
Mg1_6 Mg2_4 3.156066 1_555
Mg1_7 Mg4_6 3.097754 1_555
Mg1_7 Mg3_5 3.144708 1_555
Mg1_7 Mg3_3 3.144708 1_555
Mg1_7 Mg2_3 3.156066 1_555
Mg1_7 Mg2_5 3.156066 1_555
Mg2_0 Mg2_6 3.124219 1_455
Mg2_0 Mg2_6 3.124219 1_545
Mg2_0 Mg3_2 3.129312 1_555
Mg2_0 Mg3_4 3.129312 1_555
Mg2_0 Mg3_0 3.134941 1_555
Mg2_0 Mg4_4 3.224035 1_555
Mg2_0 Mg4_2 3.224035 1_555
Mg2_1 Mg2_7 3.124219 1_455
Mg2_1 Mg2_7 3.124219 1_545
Mg2_1 Mg3_3 3.129312 1_555
Mg2_1 Mg3_5 3.129312 1_555
Mg2_1 Mg3_1 3.134941 1_555
Mg2_1 Mg4_5 3.224035 1_555
Mg2_1 Mg4_3 3.224035 1_555
Mg2_2 Mg2_4 3.124219 1_555
Mg2_2 Mg2_4 3.124219 1_465
Mg2_2 Mg3_6 3.129312 1_555
Mg2_2 Mg3_0 3.129312 1_565
Mg2_2 Mg3_2 3.134941 1_555
Mg2_2 Mg4_6 3.224035 1_555
Mg2_2 Mg4_0 3.224035 1_565
Mg2_3 Mg2_5 3.124219 1_555
Mg2_3 Mg2_5 3.124219 1_465
Mg2_3 Mg3_1 3.129312 1_565
Mg2_3 Mg3_7 3.129312 1_555
Mg2_3 Mg3_3 3.134941 1_555
Mg2_3 Mg4_7 3.224035 1_555
Mg2_3 Mg4_1 3.224035 1_565
Mg2_4 Mg3_6 3.129312 1_555
Mg2_4 Mg3_0 3.129312 1_655
Mg2_4 Mg3_4 3.134941 1_555
Mg2_4 Mg4_0 3.224035 1_655
Mg2_4 Mg4_6 3.224035 1_555
Mg2_5 Mg3_1 3.129312 1_655
Mg2_5 Mg3_7 3.129312 1_555
Mg2_5 Mg3_5 3.134941 1_555
Mg2_5 Mg4_7 3.224035 1_555
Mg2_5 Mg4_1 3.224035 1_655
Mg2_6 Mg3_2 3.129312 1_655
Mg2_6 Mg3_4 3.129312 1_565
Mg2_6 Mg3_6 3.134941 1_555
Mg2_6 Mg4_2 3.224035 1_655
Mg2_6 Mg4_4 3.224035 1_565
Mg2_7 Mg3_5 3.129312 1_565
Mg2_7 Mg3_3 3.129312 1_655
Mg2_7 Mg3_7 3.134941 1_555
Mg2_7 Mg4_5 3.224035 1_565
Mg2_7 Mg4_3 3.224035 1_655
Mg3_0 Mg3_6 3.124219 1_545
Mg3_0 Mg3_6 3.124219 1_455
Mg3_0 Mg4_4 3.146401 1_555
Mg3_0 Mg4_2 3.146401 1_555
Mg3_1 Mg3_7 3.124219 1_545
Mg3_1 Mg3_7 3.124219 1_455
Mg3_1 Mg4_3 3.146401 1_555
Mg3_1 Mg4_5 3.146401 1_555
Mg3_2 Mg3_4 3.124219 1_555
Mg3_2 Mg3_4 3.124219 1_465
Mg3_2 Mg4_6 3.146401 1_555
Mg3_2 Mg4_0 3.146401 1_565
Mg3_3 Mg3_5 3.124219 1_465
Mg3_3 Mg3_5 3.124219 1_555
Mg3_3 Mg4_1 3.146401 1_565
Mg3_3 Mg4_7 3.146401 1_555
Mg3_4 Mg4_6 3.146401 1_555
Mg3_4 Mg4_0 3.146401 1_655
Mg3_5 Mg4_1 3.146401 1_655
Mg3_5 Mg4_7 3.146401 1_555
Mg3_6 Mg4_2 3.146401 1_655
Mg3_6 Mg4_4 3.146401 1_565
Mg3_7 Mg4_3 3.146401 1_655
Mg3_7 Mg4_5 3.146401 1_565
Mg4_0 Mg4_6 3.124219 1_455
Mg4_0 Mg4_6 3.124219 1_545
Mg4_1 Mg4_7 3.124219 1_545
Mg4_1 Mg4_7 3.124219 1_455
Mg4_2 Mg4_4 3.124219 1_465
Mg4_2 Mg4_4 3.124219 1_555
Mg4_3 Mg4_5 3.124219 1_555
Mg4_3 Mg4_5 3.124219 1_465
Cd0_0 Mg2_4 3.100454 1_455
Cd0_0 Mg2_2 3.100454 1_545
Cd0_0 Mg0_4 3.108414 1_555
Cd0_0 Mg0_2 3.108414 1_555
Cd0_0 Mg1_4 3.114694 1_555
Cd0_0 Mg1_2 3.114694 1_555
Cd0_0 Cd0_6 3.124219 1_455
Cd0_0 Cd0_6 3.124219 1_545
Cd0_0 Mg1_0 3.135038 1_555
Cd0_0 Mg3_0 3.144115 1_555
Cd0_0 Mg4_3 3.162193 1_554
Cd0_0 Mg4_5 3.162193 1_554
Cd0_1 Mg2_5 3.100454 1_455
Cd0_1 Mg2_3 3.100454 1_545
Cd0_1 Mg0_5 3.108414 1_555
Cd0_1 Mg0_3 3.108414 1_555
Cd0_1 Mg1_3 3.114694 1_555
Cd0_1 Mg1_5 3.114694 1_555
Cd0_1 Cd0_7 3.124219 1_455
Cd0_1 Cd0_7 3.124219 1_545
Cd0_1 Mg1_1 3.135038 1_555
Cd0_1 Mg3_1 3.144115 1_555
Cd0_1 Mg4_4 3.162193 1_555
Cd0_1 Mg4_2 3.162193 1_555
Cd0_2 Mg2_0 3.100454 1_555
Cd0_2 Mg2_6 3.100454 1_455
Cd0_2 Mg0_6 3.108414 1_555
Cd0_2 Mg0_0 3.108414 1_565
Cd0_2 Mg1_6 3.114694 1_555
Cd0_2 Mg1_0 3.114694 1_565
Cd0_2 Cd0_4 3.124219 1_555
Cd0_2 Cd0_4 3.124219 1_465
Cd0_2 Mg1_2 3.135038 1_555
Cd0_2 Mg3_2 3.144115 1_555
Cd0_2 Mg4_1 3.162193 1_564
Cd0_2 Mg4_7 3.162193 1_554
Cd0_3 Mg2_1 3.100454 1_555
Cd0_3 Mg2_7 3.100454 1_455
Cd0_3 Mg0_1 3.108414 1_565
Cd0_3 Mg0_7 3.108414 1_555
Cd0_3 Mg1_1 3.114694 1_565
Cd0_3 Mg1_7 3.114694 1_555
Cd0_3 Cd0_5 3.124219 1_465
Cd0_3 Cd0_5 3.124219 1_555
Cd0_3 Mg1_3 3.135038 1_555
Cd0_3 Mg3_3 3.144115 1_555
Cd0_3 Mg4_0 3.162193 1_565
Cd0_3 Mg4_6 3.162193 1_555
Cd0_4 Mg2_0 3.100454 1_555
Cd0_4 Mg2_6 3.100454 1_545
Cd0_4 Mg0_6 3.108414 1_555
Cd0_4 Mg0_0 3.108414 1_655
Cd0_4 Mg1_6 3.114694 1_555
Cd0_4 Mg1_0 3.114694 1_655
Cd0_4 Mg1_4 3.135038 1_555
Cd0_4 Mg3_4 3.144115 1_555
Cd0_4 Mg4_1 3.162193 1_654
Cd0_4 Mg4_7 3.162193 1_554
Cd0_5 Mg2_1 3.100454 1_555
Cd0_5 Mg2_7 3.100454 1_545
Cd0_5 Mg0_7 3.108414 1_555
Cd0_5 Mg0_1 3.108414 1_655
Cd0_5 Mg1_7 3.114694 1_555
Cd0_5 Mg1_1 3.114694 1_655
Cd0_5 Mg1_5 3.135038 1_555
Cd0_5 Mg3_5 3.144115 1_555
Cd0_5 Mg4_6 3.162193 1_555
Cd0_5 Mg4_0 3.162193 1_655
Cd0_6 Mg2_4 3.100454 1_555
Cd0_6 Mg2_2 3.100454 1_555
Cd0_6 Mg0_2 3.108414 1_655
Cd0_6 Mg0_4 3.108414 1_565
Cd0_6 Mg1_2 3.114694 1_655
Cd0_6 Mg1_4 3.114694 1_565
Cd0_6 Mg1_6 3.135038 1_555
Cd0_6 Mg3_6 3.144115 1_555
Cd0_6 Mg4_3 3.162193 1_654
Cd0_6 Mg4_5 3.162193 1_564
Cd0_7 Mg2_5 3.100454 1_555
Cd0_7 Mg2_3 3.100454 1_555
Cd0_7 Mg0_5 3.108414 1_565
Cd0_7 Mg0_3 3.108414 1_655
Cd0_7 Mg1_3 3.114694 1_655
Cd0_7 Mg1_5 3.114694 1_565
Cd0_7 Mg1_7 3.135038 1_555
Cd0_7 Mg3_7 3.144115 1_555
Cd0_7 Mg4_2 3.162193 1_655
Cd0_7 Mg4_4 3.162193 1_565
