# generated using pymatgen
data_Li4Mn3O7
_symmetry_space_group_name_H-M   'P 1'
_cell_length_a   2.99928100
_cell_length_b   6.47411403
_cell_length_c   13.72915042
_cell_angle_alpha   84.51773531
_cell_angle_beta   88.43068702
_cell_angle_gamma   76.81586700
_symmetry_Int_Tables_number   1
_chemical_formula_structural   Li4Mn3O7
_chemical_formula_sum   'Li8 Mn6 O14'
_cell_volume   258.37005151
_cell_formula_units_Z   2
loop_
 _symmetry_equiv_pos_site_id
 _symmetry_equiv_pos_as_xyz
  1  'x, y, z'
loop_
 _atom_site_type_symbol
 _atom_site_label
 _atom_site_symmetry_multiplicity
 _atom_site_fract_x
 _atom_site_fract_y
 _atom_site_fract_z
 _atom_site_occupancy
  Li  Li0  1  0.72228800  0.66008500  0.42534600  1
  Li  Li1  1  0.57987200  0.21088400  0.14058100  1
  Li  Li2  1  0.42012800  0.78911600  0.85941900  1
  Li  Li3  1  0.12333100  0.93058900  0.29458400  1
  Li  Li4  1  0.00000000  0.50000000  0.00000000  1
  Li  Li5  1  0.87666900  0.06941100  0.70541600  1
  Li  Li6  1  0.27771200  0.33991500  0.57465400  1
  Li  Li7  1  0.00000000  0.00000000  0.50000000  1
  Mn  Mn0  1  0.57597600  0.72433300  0.63698900  1
  Mn  Mn1  1  0.42402400  0.27566700  0.36301100  1
  Mn  Mn2  1  0.28314800  0.85533800  0.07185400  1
  Mn  Mn3  1  0.15843000  0.42655100  0.78215800  1
  Mn  Mn4  1  0.84157000  0.57344900  0.21784200  1
  Mn  Mn5  1  0.71685200  0.14466200  0.92814600  1
  O  O0  1  0.11108700  0.68170800  0.55029700  1
  O  O1  1  0.95120600  0.26587800  0.26299800  1
  O  O2  1  0.88421500  0.83467700  0.96388800  1
  O  O3  1  0.56935300  0.98655000  0.38843600  1
  O  O4  1  0.44985600  0.54606800  0.11004400  1
  O  O5  1  0.31316200  0.11978400  0.82386700  1
  O  O6  1  0.74576600  0.40708000  0.67902900  1
  O  O7  1  0.25423400  0.59292000  0.32097100  1
  O  O8  1  0.11578500  0.16532300  0.03611200  1
  O  O9  1  0.04879400  0.73412200  0.73700200  1
  O  O10  1  0.68683800  0.88021600  0.17613300  1
  O  O11  1  0.55014400  0.45393200  0.88995600  1
  O  O12  1  0.43064700  0.01345000  0.61156400  1
  O  O13  1  0.88891300  0.31829200  0.44970300  1
loop_
_geom_bond_atom_site_label_1
_geom_bond_atom_site_label_2
_geom_bond_distance
_geom_bond_site_symmetry_2
Li0 O3 2.073696 1_555
Li0 O7 2.113140 1_655
Li0 O0 2.133586 1_655
Li0 O13 2.149745 1_555
Li0 O7 2.172772 1_555
Li0 O0 2.465665 1_555
Li1 O10 2.102318 1_545
Li1 O8 2.111651 1_555
Li1 O8 2.113295 1_655
Li1 O4 2.118001 1_555
Li1 O1 2.142336 1_555
Li1 O1 2.478158 1_455
Li2 O5 2.102318 1_565
Li2 O2 2.111651 1_555
Li2 O2 2.113295 1_455
Li2 O11 2.118001 1_555
Li2 O9 2.142336 1_555
Li2 O9 2.478158 1_655
Li3 O3 1.996439 1_555
Li3 O3 2.061444 1_455
Li3 O1 2.118422 1_465
Li3 O7 2.128238 1_555
Li3 O10 2.208529 1_455
Li3 O10 2.303658 1_555
Li4 O2 2.126519 1_454
Li4 O8 2.126519 1_555
Li4 O4 2.138522 1_555
Li4 O11 2.138522 1_454
Li4 O4 2.195265 1_455
Li4 O11 2.195265 1_554
Li5 O12 1.996439 1_555
Li5 O12 2.061444 1_655
Li5 O9 2.118422 1_645
Li5 O6 2.128238 1_555
Li5 O5 2.208529 1_655
Li5 O5 2.303658 1_555
Li6 O12 2.073696 1_555
Li6 O6 2.113140 1_455
Li6 O13 2.133586 1_455
Li6 O0 2.149745 1_555
Li6 O6 2.172772 1_555
Li6 O13 2.465665 1_555
Li7 O3 2.051118 1_445
Li7 O12 2.051118 1_555
Li7 O0 2.064385 1_545
Li7 O13 2.064385 1_455
Li7 O12 2.254791 1_455
Li7 O3 2.254791 1_545
Mn0 O12 1.823926 1_565
Mn0 O0 1.940641 1_555
Mn0 O0 1.955685 1_655
Mn0 O9 2.016117 1_655
Mn0 O6 2.030654 1_555
Mn0 O9 2.059488 1_555
Mn1 O3 1.823926 1_545
Mn1 O13 1.940641 1_555
Mn1 O13 1.955685 1_455
Mn1 O1 2.016117 1_455
Mn1 O7 2.030654 1_555
Mn1 O1 2.059488 1_555
Mn2 O10 1.941532 1_555
Mn2 O2 1.963346 1_454
Mn2 O8 1.971323 1_565
Mn2 O4 1.972562 1_555
Mn2 O10 2.246496 1_455
Mn2 O2 2.290534 1_554
Mn3 O6 1.937456 1_455
Mn3 O11 1.960208 1_555
Mn3 O5 1.965824 1_555
Mn3 O9 1.983468 1_555
Mn3 O6 2.218100 1_555
Mn3 O11 2.303252 1_455
Mn4 O7 1.937456 1_655
Mn4 O4 1.960208 1_555
Mn4 O10 1.965824 1_555
Mn4 O1 1.983468 1_555
Mn4 O7 2.218100 1_555
Mn4 O4 2.303252 1_655
Mn5 O5 1.941532 1_555
Mn5 O8 1.963346 1_656
Mn5 O2 1.971323 1_545
Mn5 O11 1.972562 1_555
Mn5 O5 2.246496 1_655
Mn5 O8 2.290534 1_556
