# generated using pymatgen
data_Fe3P3PbO13
_symmetry_space_group_name_H-M   'P 1'
_cell_length_a   6.38113341
_cell_length_b   7.59656699
_cell_length_c   10.39955426
_cell_angle_alpha   80.12862616
_cell_angle_beta   90.00000000
_cell_angle_gamma   90.00000000
_symmetry_Int_Tables_number   1
_chemical_formula_structural   Fe3P3PbO13
_chemical_formula_sum   'Fe6 P6 Pb2 O26'
_cell_volume   496.65197404
_cell_formula_units_Z   2
loop_
 _symmetry_equiv_pos_site_id
 _symmetry_equiv_pos_as_xyz
  1  'x, y, z'
loop_
 _atom_site_type_symbol
 _atom_site_label
 _atom_site_symmetry_multiplicity
 _atom_site_fract_x
 _atom_site_fract_y
 _atom_site_fract_z
 _atom_site_occupancy
  Fe  Fe0  1  0.25000000  0.15031351  0.69797815  1
  Fe  Fe1  1  0.75000000  0.84968649  0.30202185  1
  Fe  Fe2  1  -0.00000000  0.50000000  0.50000000  1
  Fe  Fe3  1  0.50000000  0.50000000  0.50000000  1
  Fe  Fe4  1  0.75000000  0.28778940  0.05845349  1
  Fe  Fe5  1  0.25000000  0.71221060  0.94154651  1
  P  P0  1  0.25000000  0.81402831  0.61460865  1
  P  P1  1  0.75000000  0.18597169  0.38539135  1
  P  P2  1  0.75000000  0.24571942  0.73700162  1
  P  P3  1  0.25000000  0.75428058  0.26299838  1
  P  P4  1  0.25000000  0.28304316  0.97979881  1
  P  P5  1  0.75000000  0.71695684  0.02020119  1
  Pb  Pb0  1  0.25000000  0.16507907  0.30045492  1
  Pb  Pb1  1  0.75000000  0.83492093  0.69954508  1
  O  O0  1  0.05767710  0.24876028  0.07074836  1
  O  O1  1  0.55767710  0.75123972  0.92925164  1
  O  O2  1  0.94232290  0.75123972  0.92925164  1
  O  O3  1  0.44232290  0.24876028  0.07074836  1
  O  O4  1  0.05414872  0.71075381  0.58669912  1
  O  O5  1  0.55414872  0.28924619  0.41330088  1
  O  O6  1  0.94585128  0.28924619  0.41330088  1
  O  O7  1  0.44585128  0.71075381  0.58669912  1
  O  O8  1  0.75000000  0.29556919  0.87201092  1
  O  O9  1  0.25000000  0.70443081  0.12798908  1
  O  O10  1  0.93869671  0.13166037  0.71121153  1
  O  O11  1  0.43869671  0.86833963  0.28878847  1
  O  O12  1  0.06130329  0.86833963  0.28878847  1
  O  O13  1  0.56130329  0.13166037  0.71121153  1
  O  O14  1  0.25000000  0.47765910  0.90802033  1
  O  O15  1  0.75000000  0.52234090  0.09197967  1
  O  O16  1  0.25000000  0.37910457  0.59139338  1
  O  O17  1  0.75000000  0.62089543  0.40860662  1
  O  O18  1  0.75000000  0.42070582  0.63338679  1
  O  O19  1  0.25000000  0.57929418  0.36661321  1
  O  O20  1  0.25000000  0.84598858  0.75765151  1
  O  O21  1  0.75000000  0.15401142  0.24234849  1
  O  O22  1  0.25000000  0.00713700  0.54112829  1
  O  O23  1  0.75000000  0.99286300  0.45887171  1
  O  O24  1  0.25000000  0.15584808  0.88291104  1
  O  O25  1  0.75000000  0.84415192  0.11708896  1
loop_
_geom_bond_atom_site_label_1
_geom_bond_atom_site_label_2
_geom_bond_distance
_geom_bond_site_symmetry_2
Fe0 O16 1.894418 1_555
Fe0 O24 1.930872 1_555
Fe0 O10 1.994589 1_455
Fe0 O13 1.994589 1_555
Fe0 O22 2.109976 1_555
Fe0 O20 2.288611 1_545
Fe1 O17 1.894418 1_555
Fe1 O25 1.930872 1_555
Fe1 O12 1.994589 1_655
Fe1 O11 1.994589 1_555
Fe1 O23 2.109976 1_555
Fe1 O21 2.288611 1_565
Fe2 O6 1.997622 1_455
Fe2 O4 1.997622 1_555
Fe2 O16 1.998108 1_555
Fe2 O17 1.998108 1_455
Fe2 O18 2.132017 1_455
Fe2 O19 2.132017 1_555
Fe3 O5 1.997622 1_555
Fe3 O7 1.997622 1_555
Fe3 O16 1.998108 1_555
Fe3 O17 1.998108 1_555
Fe3 O18 2.132017 1_555
Fe3 O19 2.132017 1_555
Fe4 O15 1.873320 1_555
Fe4 O8 1.929666 1_554
Fe4 O0 1.986433 1_655
Fe4 O3 1.986433 1_555
Fe4 O21 2.005933 1_555
Fe5 O14 1.873320 1_555
Fe5 O9 1.929666 1_556
Fe5 O1 1.986433 1_555
Fe5 O2 1.986433 1_455
Fe5 O20 2.005933 1_555
O0 P4 1.544048 1_554
O0 Pb0 2.663855 1_555
O1 P5 1.544048 1_556
O1 Pb1 2.663855 1_555
O2 P5 1.544048 1_556
O2 Pb1 2.663855 1_555
O3 P4 1.544048 1_554
O3 Pb0 2.663855 1_555
O4 P0 1.529605 1_555
O4 Pb1 2.532434 1_455
O5 P1 1.529605 1_555
O5 Pb0 2.532434 1_555
O6 P1 1.529605 1_555
O6 Pb0 2.532434 1_655
O7 P0 1.529605 1_555
O7 Pb1 2.532434 1_555
O8 P2 1.515594 1_555
O9 P3 1.515594 1_555
O10 P2 1.533694 1_555
O10 Pb1 2.576775 1_545
O11 P3 1.533694 1_555
O11 Pb0 2.576775 1_565
O12 P3 1.533694 1_555
O12 Pb0 2.576775 1_565
O13 P2 1.533694 1_555
O13 Pb1 2.576775 1_545
O14 P4 1.537701 1_555
O15 P5 1.537701 1_555
O18 P2 1.561093 1_555
O19 P3 1.561093 1_555
O20 P0 1.547799 1_555
O21 P1 1.547799 1_555
O22 P0 1.533481 1_545
O22 Pb0 2.583485 1_555
O23 P1 1.533481 1_565
O23 Pb1 2.583485 1_555
O24 P4 1.510855 1_555
O25 P5 1.510855 1_555
