# generated using pymatgen
data_Cd4Te3Se
_symmetry_space_group_name_H-M   'P 1'
_cell_length_a   4.57194495
_cell_length_b   6.43103698
_cell_length_c   9.15407740
_cell_angle_alpha   90.00000000
_cell_angle_beta   90.00000000
_cell_angle_gamma   90.00000000
_symmetry_Int_Tables_number   1
_chemical_formula_structural   Cd4Te3Se
_chemical_formula_sum   'Cd4 Te3 Se1'
_cell_volume   269.15136058
_cell_formula_units_Z   1
loop_
 _symmetry_equiv_pos_site_id
 _symmetry_equiv_pos_as_xyz
  1  'x, y, z'
loop_
 _atom_site_type_symbol
 _atom_site_label
 _atom_site_symmetry_multiplicity
 _atom_site_fract_x
 _atom_site_fract_y
 _atom_site_fract_z
 _atom_site_occupancy
  Cd  Cd0  1  -0.00000000  0.02231273  -0.00000000  1
  Cd  Cd1  1  0.50000000  0.49099337  0.76249896  1
  Cd  Cd2  1  0.00000000  0.99402262  0.50000000  1
  Cd  Cd3  1  0.50000000  0.49099337  0.23750104  1
  Te  Te0  1  0.00000000  0.75022431  0.75668055  1
  Te  Te1  1  0.50000000  0.25287681  0.50000000  1
  Te  Te2  1  0.00000000  0.75022431  0.24331945  1
  Se  Se0  1  0.50000000  0.24835147  -0.00000000  1
loop_
_geom_bond_atom_site_label_1
_geom_bond_atom_site_label_2
_geom_bond_distance
_geom_bond_site_symmetry_2
Cd0 Se0 2.709023 1_555
Cd0 Se0 2.709023 1_455
Cd0 Te2 2.832489 1_545
Cd0 Te0 2.832489 1_544
Cd1 Se0 2.676134 1_556
Cd1 Te0 2.829807 1_555
Cd1 Te0 2.829807 1_655
Cd1 Te1 2.849402 1_555
Cd2 Te0 2.824748 1_555
Cd2 Te2 2.824748 1_555
Cd2 Te1 2.827879 1_465
Cd2 Te1 2.827879 1_565
Cd3 Se0 2.676134 1_555
Cd3 Te2 2.829807 1_555
Cd3 Te2 2.829807 1_655
Cd3 Te1 2.849402 1_555
