# generated using pymatgen
data_Pb12BrCl7O8
_symmetry_space_group_name_H-M   'P 1'
_cell_length_a   5.93870500
_cell_length_b   9.79589700
_cell_length_c   12.09774710
_cell_angle_alpha   89.90366829
_cell_angle_beta   90.00000000
_cell_angle_gamma   90.00000000
_symmetry_Int_Tables_number   1
_chemical_formula_structural   Pb12BrCl7O8
_chemical_formula_sum   'Pb12 Br1 Cl7 O8'
_cell_volume   703.78474705
_cell_formula_units_Z   1
loop_
 _symmetry_equiv_pos_site_id
 _symmetry_equiv_pos_as_xyz
  1  'x, y, z'
loop_
 _atom_site_type_symbol
 _atom_site_label
 _atom_site_symmetry_multiplicity
 _atom_site_fract_x
 _atom_site_fract_y
 _atom_site_fract_z
 _atom_site_occupancy
  Pb  Pb0  1  0.50000000  0.29307400  0.93578500  1
  Pb  Pb1  1  0.50000000  0.20701300  0.43808600  1
  Pb  Pb2  1  0.00000000  0.70838500  0.06096500  1
  Pb  Pb3  1  0.00000000  0.79319500  0.56203400  1
  Pb  Pb4  1  0.50000000  0.87279600  0.21799500  1
  Pb  Pb5  1  0.50000000  0.63398800  0.71703400  1
  Pb  Pb6  1  0.00000000  0.13367300  0.78306100  1
  Pb  Pb7  1  0.00000000  0.36639500  0.28353000  1
  Pb  Pb8  1  0.50000000  0.92044700  0.91974900  1
  Pb  Pb9  1  0.50000000  0.57992100  0.42039000  1
  Pb  Pb10  1  0.00000000  0.08055600  0.08034400  1
  Pb  Pb11  1  0.00000000  0.42028900  0.58077400  1
  Br  Br0  1  0.50000000  0.57241700  0.13204200  1
  Cl  Cl0  1  0.50000000  0.19025000  0.19091100  1
  Cl  Cl1  1  0.50000000  0.30829200  0.69010000  1
  Cl  Cl2  1  0.00000000  0.80849500  0.80947500  1
  Cl  Cl3  1  0.00000000  0.69223700  0.30999100  1
  Cl  Cl4  1  0.50000000  0.91648600  0.63481900  1
  Cl  Cl5  1  0.00000000  0.41660100  0.86513800  1
  Cl  Cl6  1  0.00000000  0.08300700  0.36523300  1
  O  O0  1  0.24553200  0.88912200  0.08055100  1
  O  O1  1  0.75527000  0.61261700  0.58044900  1
  O  O2  1  0.74537900  0.11218800  0.91976400  1
  O  O3  1  0.25498400  0.38731400  0.42050700  1
  O  O4  1  0.25462100  0.11218800  0.91976400  1
  O  O5  1  0.74501600  0.38731400  0.42050700  1
  O  O6  1  0.75446800  0.88912200  0.08055100  1
  O  O7  1  0.24473000  0.61261700  0.58044900  1
loop_
_geom_bond_atom_site_label_1
_geom_bond_atom_site_label_2
_geom_bond_distance
_geom_bond_site_symmetry_2
Br0 Pb4 3.122459 1_555
Br0 Pb2 3.365504 1_555
Br0 Pb2 3.365504 1_655
Cl0 Pb1 2.995042 1_555
Cl0 Pb4 3.126413 1_545
Cl0 Pb0 3.245039 1_554
Cl1 Pb0 2.975721 1_555
Cl1 Pb5 3.207625 1_555
Cl1 Pb1 3.207750 1_555
Cl2 Pb3 2.997480 1_555
Cl2 Pb2 3.195036 1_556
Cl2 Pb6 3.200864 1_565
Cl3 Pb2 3.016538 1_555
Cl3 Pb3 3.207108 1_555
Cl3 Pb7 3.208462 1_555
Cl4 Pb5 2.939060 1_555
Cl5 Pb6 2.945606 1_555
Cl6 Pb7 2.945191 1_555
O0 Pb4 2.252381 1_555
O0 Pb2 2.306152 1_555
O0 Pb10 2.375457 1_565
O0 Pb8 2.481988 1_554
O1 Pb5 2.252442 1_555
O1 Pb3 2.299936 1_655
O1 Pb11 2.379465 1_655
O1 Pb9 2.480385 1_555
O2 Pb6 2.250484 1_655
O2 Pb0 2.302612 1_555
O2 Pb8 2.377277 1_545
O2 Pb10 2.480808 1_656
O3 Pb7 2.254370 1_555
O3 Pb1 2.297980 1_555
O3 Pb9 2.382667 1_555
O3 Pb11 2.481671 1_555
O4 Pb6 2.250484 1_555
O4 Pb0 2.302612 1_555
O4 Pb8 2.377277 1_545
O4 Pb10 2.480808 1_556
O5 Pb7 2.254370 1_655
O5 Pb1 2.297980 1_555
O5 Pb9 2.382667 1_555
O5 Pb11 2.481671 1_655
O6 Pb4 2.252381 1_555
O6 Pb2 2.306152 1_655
O6 Pb10 2.375457 1_665
O6 Pb8 2.481988 1_554
O7 Pb5 2.252442 1_555
O7 Pb3 2.299936 1_555
O7 Pb11 2.379465 1_555
O7 Pb9 2.480385 1_555
