# generated using pymatgen
data_Ca2Nb2WO8
_symmetry_space_group_name_H-M   'P 1'
_cell_length_a   5.62716500
_cell_length_b   6.33108587
_cell_length_c   10.08376990
_cell_angle_alpha   108.02235898
_cell_angle_beta   92.36374915
_cell_angle_gamma   90.39292317
_symmetry_Int_Tables_number   1
_chemical_formula_structural   Ca2Nb2WO8
_chemical_formula_sum   'Ca4 Nb4 W2 O16'
_cell_volume   341.25554668
_cell_formula_units_Z   2
loop_
 _symmetry_equiv_pos_site_id
 _symmetry_equiv_pos_as_xyz
  1  'x, y, z'
loop_
 _atom_site_type_symbol
 _atom_site_label
 _atom_site_symmetry_multiplicity
 _atom_site_fract_x
 _atom_site_fract_y
 _atom_site_fract_z
 _atom_site_occupancy
  Ca  Ca0  1  0.23431700  0.88707200  0.41553400  1
  Ca  Ca1  1  0.26838200  0.47414700  0.59176000  1
  Ca  Ca2  1  0.76501600  0.11311000  0.59192000  1
  Ca  Ca3  1  0.73653500  0.51935800  0.41054300  1
  Nb  Nb0  1  0.23643900  0.02154400  0.77409300  1
  Nb  Nb1  1  0.26186900  0.25740100  0.22773000  1
  Nb  Nb2  1  0.75964900  0.96797300  0.22882800  1
  Nb  Nb3  1  0.75080700  0.74079900  0.76927300  1
  W  W0  1  0.24829100  0.63427100  0.00067300  1
  W  W1  1  0.74528600  0.36559000  0.99874900  1
  O  O0  1  0.89700100  0.07486400  0.85425500  1
  O  O1  1  0.59245800  0.20442400  0.13954700  1
  O  O2  1  0.09090800  0.93644200  0.13691600  1
  O  O3  1  0.40373200  0.79780300  0.86005700  1
  O  O4  1  0.39859600  0.30814500  0.88785800  1
  O  O5  1  0.09017800  0.42243400  0.11160100  1
  O  O6  1  0.59170100  0.68690000  0.11274800  1
  O  O7  1  0.90488900  0.57664700  0.88677100  1
  O  O8  1  0.51161400  0.88162700  0.64446700  1
  O  O9  1  0.98639500  0.23548300  0.35408300  1
  O  O10  1  0.66369800  0.46212700  0.62331800  1
  O  O11  1  0.83336200  0.83985100  0.37560800  1
  O  O12  1  0.33580300  0.53186700  0.37516500  1
  O  O13  1  0.16358400  0.15599000  0.62563400  1
  O  O14  1  0.01009100  0.75692800  0.63474900  1
  O  O15  1  0.48636000  0.11608000  0.35629200  1
loop_
_geom_bond_atom_site_label_1
_geom_bond_atom_site_label_2
_geom_bond_distance
_geom_bond_site_symmetry_2
Ca0 O12 2.240408 1_555
Ca0 O15 2.246809 1_565
Ca0 O11 2.276714 1_455
Ca0 O13 2.322168 1_565
Ca0 O14 2.915497 1_555
Ca1 O13 2.224370 1_555
Ca1 O10 2.239288 1_555
Ca1 O14 2.261210 1_555
Ca1 O12 2.368134 1_555
Ca1 O3 2.911463 1_555
Ca2 O10 2.215209 1_555
Ca2 O8 2.230702 1_545
Ca2 O13 2.256349 1_655
Ca2 O11 2.375294 1_545
Ca2 O14 2.787405 1_645
Ca2 O0 2.800846 1_555
Ca3 O11 2.231829 1_555
Ca3 O9 2.235752 1_555
Ca3 O12 2.274219 1_555
Ca3 O10 2.335447 1_555
Ca3 O14 2.705600 1_655
Ca3 O1 2.919573 1_555
Nb0 O13 1.968838 1_555
Nb0 O4 2.010963 1_555
Nb0 O3 2.086847 1_545
Nb0 O8 2.088124 1_545
Nb0 O0 2.093585 1_455
Nb0 O14 2.183990 1_545
Nb1 O12 1.934781 1_555
Nb1 O5 2.018414 1_555
Nb1 O9 2.077238 1_455
Nb1 O1 2.079495 1_555
Nb1 O2 2.154595 1_545
Nb1 O15 2.162191 1_555
Nb2 O11 1.928100 1_555
Nb2 O6 2.006665 1_555
Nb2 O15 2.081659 1_565
Nb2 O2 2.099202 1_655
Nb2 O9 2.146033 1_565
Nb2 O1 2.172561 1_565
Nb3 O10 1.959854 1_555
Nb3 O7 1.981206 1_555
Nb3 O14 2.055785 1_655
Nb3 O0 2.163519 1_565
Nb3 O3 2.176097 1_555
Nb3 O8 2.182088 1_555
O0 W1 2.168955 1_555
O1 W1 2.186676 1_554
O2 W0 2.197476 1_555
O3 W0 2.201325 1_556
O4 W1 2.178821 1_555
O4 W0 2.218677 1_556
O5 W1 2.178508 1_454
O5 W0 2.198984 1_555
O6 W0 2.168068 1_555
O6 W1 2.205809 1_554
O7 W0 2.175857 1_656
O7 W1 2.206331 1_555
