# generated using pymatgen
data_MgCr4O9
_symmetry_space_group_name_H-M   'P 1'
_cell_length_a   4.89026200
_cell_length_b   8.32740200
_cell_length_c   8.32740200
_cell_angle_alpha   90.00000000
_cell_angle_beta   90.00000000
_cell_angle_gamma   90.00000000
_symmetry_Int_Tables_number   1
_chemical_formula_structural   MgCr4O9
_chemical_formula_sum   'Mg2 Cr8 O18'
_cell_volume   339.11827025
_cell_formula_units_Z   2
loop_
 _symmetry_equiv_pos_site_id
 _symmetry_equiv_pos_as_xyz
  1  'x, y, z'
loop_
 _atom_site_type_symbol
 _atom_site_label
 _atom_site_symmetry_multiplicity
 _atom_site_fract_x
 _atom_site_fract_y
 _atom_site_fract_z
 _atom_site_occupancy
  Mg  Mg0  1  0.12014900  0.25000000  0.25000000  1
  Mg  Mg1  1  0.87985200  0.75000000  0.74999900  1
  Cr  Cr0  1  0.61583900  0.53459100  0.34091300  1
  Cr  Cr1  1  0.38416100  0.84091200  0.46541000  1
  Cr  Cr2  1  0.61583900  0.34091200  0.96541000  1
  Cr  Cr3  1  0.38416100  0.03459000  0.84091200  1
  Cr  Cr4  1  0.61583900  0.96541000  0.15908700  1
  Cr  Cr5  1  0.61583900  0.15908800  0.53459100  1
  Cr  Cr6  1  0.38416100  0.46541000  0.65908700  1
  Cr  Cr7  1  0.38416100  0.65908700  0.03459000  1
  O  O0  1  0.49999900  0.75000000  0.25000000  1
  O  O1  1  0.49999900  0.25000100  0.75000000  1
  O  O2  1  0.05858600  0.68467800  0.97122000  1
  O  O3  1  0.05858600  0.52878100  0.68467700  1
  O  O4  1  0.05858600  0.97122000  0.81532300  1
  O  O5  1  0.05858600  0.81532300  0.52878000  1
  O  O6  1  0.94141500  0.31532300  0.02878000  1
  O  O7  1  0.94141500  0.47121900  0.31532300  1
  O  O8  1  0.94141500  0.02878000  0.18467700  1
  O  O9  1  0.94141500  0.18467700  0.47121900  1
  O  O10  1  0.45249000  0.04293700  0.35484100  1
  O  O11  1  0.45249000  0.14515800  0.04293800  1
  O  O12  1  0.45249000  0.35484100  0.45706300  1
  O  O13  1  0.45249000  0.45706300  0.14515900  1
  O  O14  1  0.54750900  0.54293700  0.85484100  1
  O  O15  1  0.54750900  0.85484100  0.95706300  1
  O  O16  1  0.54750900  0.64515900  0.54293700  1
  O  O17  1  0.54750900  0.95706200  0.64515900  1
loop_
_geom_bond_atom_site_label_1
_geom_bond_atom_site_label_2
_geom_bond_distance
_geom_bond_site_symmetry_2
Mg0 O9 2.110333 1_455
Mg0 O7 2.110333 1_455
Mg0 O6 2.110340 1_455
Mg0 O8 2.110340 1_455
Mg0 O11 2.525232 1_555
Mg0 O10 2.525234 1_555
Mg0 O13 2.525234 1_555
Mg0 O12 2.525234 1_555
Mg1 O3 2.110330 1_655
Mg1 O5 2.110333 1_655
Mg1 O4 2.110342 1_655
Mg1 O2 2.110345 1_655
Mg1 O17 2.525232 1_555
Mg1 O16 2.525235 1_555
Mg1 O14 2.525244 1_555
Mg1 O15 2.525246 1_555
Cr0 O7 1.690814 1_555
Cr0 O13 1.926712 1_555
Cr0 O16 1.946710 1_555
Cr0 O12 1.952999 1_555
Cr0 O0 2.027750 1_555
Cr1 O5 1.690803 1_555
Cr1 O16 1.926700 1_555
Cr1 O10 1.946720 1_565
Cr1 O17 1.952990 1_555
Cr1 O0 2.027752 1_555
Cr2 O6 1.690808 1_556
Cr2 O11 1.926712 1_556
Cr2 O14 1.946721 1_555
Cr2 O13 1.952996 1_556
Cr2 O1 2.027751 1_555
Cr3 O4 1.690803 1_545
Cr3 O17 1.926703 1_545
Cr3 O11 1.946723 1_556
Cr3 O15 1.952994 1_545
Cr3 O1 2.027759 1_555
Cr4 O8 1.690809 1_565
Cr4 O10 1.926709 1_565
Cr4 O15 1.946714 1_554
Cr4 O11 1.952982 1_565
Cr4 O0 2.027758 1_555
Cr5 O9 1.690813 1_555
Cr5 O12 1.926705 1_555
Cr5 O17 1.946724 1_545
Cr5 O10 1.953003 1_555
Cr5 O1 2.027750 1_555
Cr6 O3 1.690807 1_555
Cr6 O14 1.926707 1_555
Cr6 O12 1.946713 1_555
Cr6 O16 1.952990 1_555
Cr6 O1 2.027748 1_555
Cr7 O2 1.690805 1_554
Cr7 O15 1.926707 1_554
Cr7 O13 1.946713 1_555
Cr7 O14 1.952990 1_554
Cr7 O0 2.027755 1_555
