# generated using pymatgen
data_CsEuAsS3
_symmetry_space_group_name_H-M   'P 1'
_cell_length_a   8.43520054
_cell_length_b   8.89877372
_cell_length_c   9.51400436
_cell_angle_alpha   76.31937218
_cell_angle_beta   90.00000000
_cell_angle_gamma   90.00000000
_symmetry_Int_Tables_number   1
_chemical_formula_structural   CsEuAsS3
_chemical_formula_sum   'Cs4 Eu4 As4 S12'
_cell_volume   693.88812215
_cell_formula_units_Z   4
loop_
 _symmetry_equiv_pos_site_id
 _symmetry_equiv_pos_as_xyz
  1  'x, y, z'
loop_
 _atom_site_type_symbol
 _atom_site_label
 _atom_site_symmetry_multiplicity
 _atom_site_fract_x
 _atom_site_fract_y
 _atom_site_fract_z
 _atom_site_occupancy
  Cs  Cs0  1  0.57226816  0.22709530  0.40713769  1
  Cs  Cs1  1  0.07226816  0.27290470  0.59286231  1
  Cs  Cs2  1  0.42773184  0.77290470  0.59286231  1
  Cs  Cs3  1  0.92773184  0.72709530  0.40713769  1
  Eu  Eu0  1  0.21989925  0.46671915  0.05912001  1
  Eu  Eu1  1  0.71989925  0.03328085  0.94087999  1
  Eu  Eu2  1  0.78010075  0.53328085  0.94087999  1
  Eu  Eu3  1  0.28010075  0.96671915  0.05912001  1
  As  As0  1  0.95279179  0.15553545  0.21067226  1
  As  As1  1  0.45279179  0.34446455  0.78932774  1
  As  As2  1  0.04720821  0.84446455  0.78932774  1
  As  As3  1  0.54720821  0.65553545  0.21067226  1
  S  S0  1  0.52088790  0.28473997  0.02853228  1
  S  S1  1  0.02088790  0.21526003  0.97146772  1
  S  S2  1  0.47911210  0.71526003  0.97146772  1
  S  S3  1  0.97911210  0.78473997  0.02853228  1
  S  S4  1  0.92156655  0.39917997  0.23331879  1
  S  S5  1  0.42156655  0.10082003  0.76668121  1
  S  S6  1  0.07843345  0.60082003  0.76668121  1
  S  S7  1  0.57843345  0.89917997  0.23331879  1
  S  S8  1  0.68693594  0.41845359  0.68651178  1
  S  S9  1  0.18693594  0.08154641  0.31348822  1
  S  S10  1  0.31306406  0.58154641  0.31348822  1
  S  S11  1  0.81306406  0.91845359  0.68651178  1
loop_
_geom_bond_atom_site_label_1
_geom_bond_atom_site_label_2
_geom_bond_distance
_geom_bond_site_symmetry_2
Cs0 S0 3.542845 1_555
Cs0 S4 3.544459 1_555
Cs0 S5 3.572340 1_555
Cs0 S8 3.611234 1_555
Cs0 S7 3.679003 1_545
Cs0 S9 3.685387 1_555
Cs0 S10 3.767477 1_555
Cs0 S11 3.909055 1_545
Cs1 S1 3.542845 1_555
Cs1 S5 3.544459 1_555
Cs1 S4 3.572340 1_455
Cs1 S9 3.611234 1_555
Cs1 S6 3.679003 1_555
Cs1 S8 3.685387 1_455
Cs1 S11 3.767477 1_445
Cs1 S10 3.909055 1_555
Cs2 S2 3.542845 1_555
Cs2 S6 3.544459 1_555
Cs2 S7 3.572340 1_555
Cs2 S10 3.611234 1_555
Cs2 S5 3.679003 1_565
Cs2 S11 3.685387 1_555
Cs2 S8 3.767477 1_555
Cs2 S9 3.909055 1_565
Cs3 S3 3.542845 1_555
Cs3 S7 3.544459 1_555
Cs3 S6 3.572340 1_655
Cs3 S11 3.611234 1_555
Cs3 S4 3.679003 1_555
Cs3 S10 3.685387 1_655
Cs3 S9 3.767477 1_665
Cs3 S8 3.909055 1_555
Eu0 S10 2.947560 1_555
Eu0 S4 2.994920 1_455
Eu0 S6 3.003079 1_554
Eu0 S0 3.062033 1_555
Eu0 S1 3.066488 1_554
Eu0 S2 3.081475 1_554
Eu0 S3 3.439378 1_455
Eu1 S11 2.947560 1_545
Eu1 S5 2.994920 1_555
Eu1 S7 3.003079 1_546
Eu1 S1 3.062033 1_655
Eu1 S0 3.066488 1_556
Eu1 S3 3.081475 1_546
Eu1 S2 3.439378 1_545
Eu2 S8 2.947560 1_555
Eu2 S6 2.994920 1_655
Eu2 S4 3.003079 1_556
Eu2 S2 3.062033 1_555
Eu2 S3 3.066488 1_556
Eu2 S0 3.081475 1_556
Eu2 S1 3.439378 1_655
Eu3 S9 2.947560 1_565
Eu3 S7 2.994920 1_555
Eu3 S5 3.003079 1_564
Eu3 S3 3.062033 1_455
Eu3 S2 3.066488 1_554
Eu3 S1 3.081475 1_564
Eu3 S0 3.439378 1_565
As0 S9 2.233058 1_655
As0 S4 2.244457 1_555
As0 S1 2.284625 1_654
As0 Cs3 3.834505 1_545
As0 Cs0 3.842540 1_555
As1 S8 2.233058 1_555
As1 S5 2.244457 1_555
As1 S0 2.284625 1_556
As1 Cs2 3.834505 1_555
As1 Cs1 3.842540 1_555
As2 S11 2.233058 1_455
As2 S6 2.244457 1_555
As2 S3 2.284625 1_456
As2 Cs1 3.834505 1_565
As2 Cs2 3.842540 1_555
As3 S10 2.233058 1_555
As3 S7 2.244457 1_555
As3 S2 2.284625 1_554
As3 Cs0 3.834505 1_555
As3 Cs3 3.842540 1_555
