# generated using pymatgen
data_K4TiSn3(PO5)4
_symmetry_space_group_name_H-M   'P 1'
_cell_length_a   10.86771700
_cell_length_b   6.58795600
_cell_length_c   13.28155788
_cell_angle_alpha   89.94168853
_cell_angle_beta   90.00000000
_cell_angle_gamma   90.00000000
_symmetry_Int_Tables_number   1
_chemical_formula_structural   K4TiSn3(PO5)4
_chemical_formula_sum   'K8 Ti2 Sn6 P8 O40'
_cell_volume   950.90647547
_cell_formula_units_Z   2
loop_
 _symmetry_equiv_pos_site_id
 _symmetry_equiv_pos_as_xyz
  1  'x, y, z'
loop_
 _atom_site_type_symbol
 _atom_site_label
 _atom_site_symmetry_multiplicity
 _atom_site_fract_x
 _atom_site_fract_y
 _atom_site_fract_z
 _atom_site_occupancy
  K  K0  1  0.30221100  0.27663100  0.12120000  1
  K  K1  1  0.80221100  0.72336900  0.87880000  1
  K  K2  1  0.80285800  0.77738500  0.37457400  1
  K  K3  1  0.30285800  0.22261500  0.62542600  1
  K  K4  1  0.06088600  0.19531100  0.39003800  1
  K  K5  1  0.56088600  0.80468900  0.60996200  1
  K  K6  1  0.55997600  0.69718300  0.10553300  1
  K  K7  1  0.05997600  0.30281700  0.89446700  1
  Ti  Ti0  1  0.99905800  0.99750000  0.13062200  1
  Ti  Ti1  1  0.49905800  0.00250000  0.86937800  1
  Sn  Sn0  1  0.49929700  0.49845200  0.37265200  1
  Sn  Sn1  1  0.99929700  0.50154800  0.62734800  1
  Sn  Sn2  1  0.24936300  0.75221500  0.25031400  1
  Sn  Sn3  1  0.74936300  0.24778500  0.74968600  1
  Sn  Sn4  1  0.74897300  0.25705000  0.24527600  1
  Sn  Sn5  1  0.24897300  0.74295000  0.75472400  1
  P  P0  1  0.24980100  0.84489900  0.99952700  1
  P  P1  1  0.74980100  0.15510100  0.00047300  1
  P  P2  1  0.74966800  0.33870200  0.50026200  1
  P  P3  1  0.24966800  0.66129800  0.49973800  1
  P  P4  1  0.50157200  0.00210800  0.32351200  1
  P  P5  1  0.00157200  0.99789200  0.67648800  1
  P  P6  1  0.00180700  0.50210400  0.17699900  1
  P  P7  1  0.50180700  0.49789600  0.82300100  1
  O  O0  1  0.22480400  0.69890700  0.90938800  1
  O  O1  1  0.72480400  0.30109300  0.09061200  1
  O  O2  1  0.72669500  0.19811200  0.59196800  1
  O  O3  1  0.22669500  0.80188800  0.40803200  1
  O  O4  1  0.27232700  0.70333400  0.09235100  1
  O  O5  1  0.77232700  0.29666600  0.90764900  1
  O  O6  1  0.77073200  0.20130200  0.40685300  1
  O  O7  1  0.27073200  0.79869800  0.59314700  1
  O  O8  1  0.47822000  0.18513500  0.39354600  1
  O  O9  1  0.97822000  0.81486500  0.60645400  1
  O  O10  1  0.98100100  0.69489500  0.11267800  1
  O  O11  1  0.48100100  0.30510500  0.88732200  1
  O  O12  1  0.39079500  0.97144600  0.25106800  1
  O  O13  1  0.89079500  0.02855400  0.74893200  1
  O  O14  1  0.89125500  0.47125700  0.25018300  1
  O  O15  1  0.39125500  0.52874300  0.74981700  1
  O  O16  1  0.63603600  0.48850200  0.27102300  1
  O  O17  1  0.13603600  0.51149800  0.72897700  1
  O  O18  1  0.12559500  0.97391400  0.22288800  1
  O  O19  1  0.62559500  0.02608600  0.77711200  1
  O  O20  1  0.52510800  0.81797200  0.39402200  1
  O  O21  1  0.02510800  0.18202800  0.60597800  1
  O  O22  1  0.02276900  0.31373600  0.10964600  1
  O  O23  1  0.52276900  0.68626400  0.89035400  1
  O  O24  1  0.37385100  0.53119500  0.26410000  1
  O  O25  1  0.87385100  0.46880500  0.73590000  1
  O  O26  1  0.88123900  0.04151900  0.22684300  1
  O  O27  1  0.38123900  0.95848100  0.77315700  1
  O  O28  1  0.13860600  0.98788500  0.01591600  1
  O  O29  1  0.63860600  0.01211500  0.98408400  1
  O  O30  1  0.63887900  0.48717200  0.48682300  1
  O  O31  1  0.13887900  0.51282800  0.51317700  1
  O  O32  1  0.36764800  0.97423600  0.98338600  1
  O  O33  1  0.86764800  0.02576400  0.01661400  1
  O  O34  1  0.86654700  0.47522300  0.51228400  1
  O  O35  1  0.36654700  0.52477700  0.48771600  1
  O  O36  1  0.61518800  0.02786100  0.25327800  1
  O  O37  1  0.11518800  0.97213900  0.74672200  1
  O  O38  1  0.11483400  0.52611200  0.24849500  1
  O  O39  1  0.61483400  0.47388800  0.75150500  1
loop_
_geom_bond_atom_site_label_1
_geom_bond_atom_site_label_2
_geom_bond_distance
_geom_bond_site_symmetry_2
K0 O24 2.650908 1_555
K0 O32 2.798604 1_544
K0 O12 2.817293 1_545
K0 O4 2.855238 1_555
K0 O28 2.956455 1_545
K0 O22 3.050568 1_555
K0 O18 3.078944 1_545
K0 O38 3.116428 1_555
K1 O25 2.650908 1_555
K1 O33 2.798604 1_566
K1 O13 2.817293 1_565
K1 O5 2.855238 1_555
K1 O29 2.956455 1_565
K1 O23 3.050568 1_555
K1 O19 3.078944 1_565
K1 O39 3.116428 1_555
K2 O26 2.756164 1_565
K2 O14 2.779648 1_555
K2 O34 2.789180 1_555
K2 O6 2.847378 1_565
K2 O16 2.967436 1_555
K2 O30 3.007991 1_555
K2 O20 3.041340 1_555
K2 O36 3.077753 1_565
K3 O27 2.756164 1_545
K3 O15 2.779648 1_555
K3 O35 2.789180 1_555
K3 O7 2.847378 1_545
K3 O17 2.967436 1_555
K3 O31 3.007991 1_555
K3 O21 3.041340 1_555
K3 O37 3.077753 1_545
K4 O18 2.748994 1_545
K4 O31 2.788506 1_555
K4 O21 2.895491 1_555
K4 O38 2.935784 1_555
K4 O26 3.088796 1_455
K4 O6 3.161459 1_455
K4 O3 3.165539 1_545
K4 O14 3.185394 1_455
K4 O34 3.240891 1_455
K5 O19 2.748994 1_565
K5 O30 2.788506 1_555
K5 O20 2.895491 1_555
K5 O39 2.935784 1_555
K5 O27 3.088796 1_555
K5 O7 3.161459 1_555
K5 O2 3.165539 1_565
K5 O15 3.185394 1_555
K5 O35 3.240891 1_555
K6 O16 2.719961 1_555
K6 O29 2.762227 1_564
K6 O23 2.887345 1_554
K6 O36 2.994181 1_565
K6 O24 3.117361 1_555
K6 O4 3.131247 1_555
K6 O1 3.171464 1_555
K6 O32 3.213415 1_554
K6 O12 3.223115 1_555
K7 O17 2.719961 1_555
K7 O28 2.762227 1_546
K7 O22 2.887345 1_556
K7 O37 2.994181 1_545
K7 O25 3.117361 1_455
K7 O5 3.131247 1_455
K7 O0 3.171464 1_555
K7 O33 3.213415 1_456
K7 O13 3.223115 1_455
O0 P0 1.560268 1_555
O0 Sn5 2.090841 1_555
O1 P1 1.560268 1_555
O1 Sn4 2.090841 1_555
O2 P2 1.549646 1_555
O2 Sn3 2.134739 1_555
O3 P3 1.549646 1_555
O3 Sn2 2.134739 1_555
O4 P0 1.564382 1_554
O4 Sn2 2.137508 1_555
O5 P1 1.564382 1_556
O5 Sn3 2.137508 1_555
O6 P2 1.553441 1_555
O6 Sn4 2.189632 1_555
O7 P3 1.553441 1_555
O7 Sn5 2.189632 1_555
O8 P4 1.544596 1_555
O8 Sn0 2.094969 1_555
O9 P5 1.544596 1_655
O9 Sn1 2.094969 1_555
O10 P6 1.546567 1_655
O10 Ti0 2.017551 1_555
O11 P7 1.546567 1_555
O11 Ti1 2.017551 1_555
O12 P4 1.554454 1_565
O12 Sn2 2.109168 1_555
O13 P5 1.554454 1_645
O13 Sn3 2.109168 1_555
O14 P6 1.558574 1_655
O14 Sn4 2.094484 1_555
O15 P7 1.558574 1_555
O15 Sn5 2.094484 1_555
O16 Sn4 1.987317 1_555
O16 Sn0 2.008664 1_555
O17 Sn5 1.987317 1_555
O17 Sn1 2.008664 1_455
O18 Ti0 1.848388 1_455
O18 Sn2 2.018420 1_555
O19 Ti1 1.848388 1_555
O19 Sn3 2.018420 1_555
O20 P4 1.552957 1_565
O20 Sn0 2.142759 1_555
O21 P5 1.552957 1_545
O21 Sn1 2.142759 1_455
O22 P6 1.547373 1_555
O22 Ti0 2.117351 1_445
O23 P7 1.547373 1_555
O23 Ti1 2.117351 1_565
O24 Sn0 1.995778 1_555
O24 Sn2 1.995861 1_555
O25 Sn1 1.995778 1_555
O25 Sn3 1.995861 1_555
O26 Ti0 1.832356 1_545
O26 Sn4 2.035433 1_555
O27 Ti1 1.832356 1_565
O27 Sn5 2.035433 1_555
O28 P0 1.547725 1_554
O28 Ti0 2.150619 1_455
O29 P1 1.547725 1_556
O29 Ti1 2.150619 1_555
O30 P2 1.561372 1_555
O30 Sn0 2.146105 1_555
O31 P3 1.561372 1_555
O31 Sn1 2.146105 1_455
O32 P0 1.553019 1_555
O32 Ti1 2.089607 1_565
O33 P1 1.553019 1_555
O33 Ti0 2.089607 1_545
O34 P2 1.564649 1_555
O34 Sn1 2.108899 1_555
O35 P3 1.564649 1_555
O35 Sn0 2.108899 1_555
O36 P4 1.556666 1_555
O36 Sn4 2.098729 1_555
O37 P5 1.556666 1_555
O37 Sn5 2.098729 1_555
O38 P6 1.560722 1_555
O38 Sn2 2.087330 1_555
O39 P7 1.560722 1_555
O39 Sn3 2.087330 1_555
