# generated using pymatgen
data_Y3NiGe2
_symmetry_space_group_name_H-M   'P 1'
_cell_length_a   4.14924146
_cell_length_b   11.35328774
_cell_length_c   11.37570138
_cell_angle_alpha   90.00000000
_cell_angle_beta   90.00000000
_cell_angle_gamma   90.00000000
_symmetry_Int_Tables_number   1
_chemical_formula_structural   Y3NiGe2
_chemical_formula_sum   'Y12 Ni4 Ge8'
_cell_volume   535.88121903
_cell_formula_units_Z   4
loop_
 _symmetry_equiv_pos_site_id
 _symmetry_equiv_pos_as_xyz
  1  'x, y, z'
loop_
 _atom_site_type_symbol
 _atom_site_label
 _atom_site_symmetry_multiplicity
 _atom_site_fract_x
 _atom_site_fract_y
 _atom_site_fract_z
 _atom_site_occupancy
  Y  Y0  1  0.25000000  0.37289629  0.05907697  1
  Y  Y1  1  0.75000000  0.62710371  0.94092303  1
  Y  Y2  1  0.75000000  0.87289629  0.44092303  1
  Y  Y3  1  0.25000000  0.12710371  0.55907697  1
  Y  Y4  1  0.25000000  0.69729057  0.21871372  1
  Y  Y5  1  0.75000000  0.30270943  0.78128628  1
  Y  Y6  1  0.75000000  0.19729057  0.28128628  1
  Y  Y7  1  0.25000000  0.80270943  0.71871372  1
  Y  Y8  1  0.25000000  0.44387537  0.38104342  1
  Y  Y9  1  0.75000000  0.55612463  0.61895658  1
  Y  Y10  1  0.75000000  0.94387537  0.11895658  1
  Y  Y11  1  0.25000000  0.05612463  0.88104342  1
  Ni  Ni0  1  0.25000000  0.13308259  0.12813865  1
  Ni  Ni1  1  0.75000000  0.86691741  0.87186135  1
  Ni  Ni2  1  0.75000000  0.63308259  0.37186135  1
  Ni  Ni3  1  0.25000000  0.36691741  0.62813865  1
  Ge  Ge0  1  0.25000000  0.68702013  0.48050505  1
  Ge  Ge1  1  0.75000000  0.31297987  0.51949495  1
  Ge  Ge2  1  0.75000000  0.18702013  0.01949495  1
  Ge  Ge3  1  0.25000000  0.81297987  0.98050505  1
  Ge  Ge4  1  0.25000000  0.00556733  0.30640201  1
  Ge  Ge5  1  0.75000000  0.99443267  0.69359799  1
  Ge  Ge6  1  0.75000000  0.50556733  0.19359799  1
  Ge  Ge7  1  0.25000000  0.49443267  0.80640201  1
loop_
_geom_bond_atom_site_label_1
_geom_bond_atom_site_label_2
_geom_bond_distance
_geom_bond_site_symmetry_2
Ni0 Y6 2.805455 1_455
Ni0 Y6 2.805455 1_555
Ni0 Y0 2.833754 1_555
Ni0 Y11 2.943544 1_554
Ni0 Y10 2.988210 1_445
Ni0 Y10 2.988210 1_545
Ni1 Y7 2.805455 1_655
Ni1 Y7 2.805455 1_555
Ni1 Y1 2.833754 1_555
Ni1 Y10 2.943544 1_556
Ni1 Y11 2.988210 1_665
Ni1 Y11 2.988210 1_565
Ni2 Y4 2.805455 1_555
Ni2 Y4 2.805455 1_655
Ni2 Y2 2.833754 1_555
Ni2 Y9 2.943544 1_555
Ni2 Y8 2.988210 1_655
Ni2 Y8 2.988210 1_555
Ni3 Y5 2.805455 1_455
Ni3 Y5 2.805455 1_555
Ni3 Y3 2.833754 1_555
Ni3 Y8 2.943544 1_555
Ni3 Y9 2.988210 1_555
Ni3 Y9 2.988210 1_455
Ge0 Ni2 2.491283 1_555
Ge0 Ni2 2.491283 1_455
Ge0 Y4 2.980342 1_555
Ge0 Y8 2.983369 1_555
Ge0 Y2 2.993357 1_555
Ge0 Y2 2.993357 1_455
Ge0 Y9 2.998850 1_555
Ge0 Y9 2.998850 1_455
Ge0 Y7 3.011333 1_555
Ge1 Ni3 2.491283 1_555
Ge1 Ni3 2.491283 1_655
Ge1 Y5 2.980342 1_555
Ge1 Y9 2.983369 1_555
Ge1 Y3 2.993357 1_655
Ge1 Y3 2.993357 1_555
Ge1 Y8 2.998850 1_655
Ge1 Y8 2.998850 1_555
Ge1 Y6 3.011333 1_555
Ge2 Ni0 2.491283 1_655
Ge2 Ni0 2.491283 1_555
Ge2 Y6 2.980342 1_555
Ge2 Y10 2.983369 1_545
Ge2 Y0 2.993357 1_655
Ge2 Y0 2.993357 1_555
Ge2 Y11 2.998850 1_654
Ge2 Y11 2.998850 1_554
Ge2 Y5 3.011333 1_554
Ge3 Ni1 2.491283 1_455
Ge3 Ni1 2.491283 1_555
Ge3 Y7 2.980342 1_555
Ge3 Y11 2.983369 1_565
Ge3 Y1 2.993357 1_555
Ge3 Y1 2.993357 1_455
Ge3 Y10 2.998850 1_556
Ge3 Y10 2.998850 1_456
Ge3 Y4 3.011333 1_556
Ge4 Ni0 2.491615 1_555
Ge4 Y2 2.985729 1_545
Ge4 Y2 2.985729 1_445
Ge4 Y6 3.020539 1_455
Ge4 Y6 3.020539 1_555
Ge4 Y10 3.056374 1_445
Ge4 Y10 3.056374 1_545
Ge4 Y3 3.188396 1_555
Ge4 Y4 3.639330 1_545
Ge5 Ni1 2.491615 1_555
Ge5 Y3 2.985729 1_665
Ge5 Y3 2.985729 1_565
Ge5 Y7 3.020539 1_655
Ge5 Y7 3.020539 1_555
Ge5 Y11 3.056374 1_665
Ge5 Y11 3.056374 1_565
Ge5 Y2 3.188396 1_555
Ge5 Y5 3.639330 1_565
Ge6 Ni2 2.491615 1_555
Ge6 Y0 2.985729 1_555
Ge6 Y0 2.985729 1_655
Ge6 Y4 3.020539 1_655
Ge6 Y4 3.020539 1_555
Ge6 Y8 3.056374 1_555
Ge6 Y8 3.056374 1_655
Ge6 Y1 3.188396 1_554
Ge6 Y6 3.639330 1_555
Ge7 Ni3 2.491615 1_555
Ge7 Y1 2.985729 1_455
Ge7 Y1 2.985729 1_555
Ge7 Y5 3.020539 1_555
Ge7 Y5 3.020539 1_455
Ge7 Y9 3.056374 1_555
Ge7 Y9 3.056374 1_455
Ge7 Y0 3.188396 1_556
Ge7 Y7 3.639330 1_555
