# generated using pymatgen
data_Li9Mn2Co5O16
_symmetry_space_group_name_H-M   'P 1'
_cell_length_a   2.95881200
_cell_length_b   5.04951790
_cell_length_c   19.24467918
_cell_angle_alpha   93.39112733
_cell_angle_beta   91.08979929
_cell_angle_gamma   91.23126601
_symmetry_Int_Tables_number   1
_chemical_formula_structural   Li9Mn2Co5O16
_chemical_formula_sum   'Li9 Mn2 Co5 O16'
_cell_volume   286.89751415
_cell_formula_units_Z   1
loop_
 _symmetry_equiv_pos_site_id
 _symmetry_equiv_pos_as_xyz
  1  'x, y, z'
loop_
 _atom_site_type_symbol
 _atom_site_label
 _atom_site_symmetry_multiplicity
 _atom_site_fract_x
 _atom_site_fract_y
 _atom_site_fract_z
 _atom_site_occupancy
  Li  Li0  1  0.99685700  0.37462500  0.12454500  1
  Li  Li1  1  0.49818400  0.61205500  0.38176200  1
  Li  Li2  1  0.01302800  0.87575300  0.62119500  1
  Li  Li3  1  0.50311000  0.12281800  0.87214100  1
  Li  Li4  1  0.49872900  0.87969700  0.12588500  1
  Li  Li5  1  0.98869700  0.12896100  0.38338700  1
  Li  Li6  1  0.49786200  0.38616600  0.62029600  1
  Li  Li7  1  0.99933300  0.62375900  0.87134700  1
  Li  Li8  1  0.00043500  0.49940600  0.50038700  1
  Mn  Mn0  1  0.00000200  0.00010700  0.99947100  1
  Mn  Mn1  1  0.99845900  0.74841700  0.25206100  1
  Co  Co0  1  0.49894900  0.24870900  0.25252400  1
  Co  Co1  1  0.50132900  0.75052100  0.74795000  1
  Co  Co2  1  0.49910100  0.50051800  0.99877800  1
  Co  Co3  1  0.50125700  0.00011300  0.50087600  1
  Co  Co4  1  0.99905700  0.25101100  0.74760100  1
  O  O0  1  0.45748500  0.20208700  0.05938000  1
  O  O1  1  0.00181100  0.44873200  0.30964200  1
  O  O2  1  0.50308300  0.72713800  0.55545900  1
  O  O3  1  0.95828200  0.93891500  0.80558100  1
  O  O4  1  0.01074800  0.69391200  0.05692000  1
  O  O5  1  0.51083900  0.90223700  0.30713300  1
  O  O6  1  0.00878500  0.16879900  0.55528600  1
  O  O7  1  0.50379700  0.44590200  0.80433500  1
  O  O8  1  0.48908600  0.59097500  0.19554000  1
  O  O9  1  0.99323300  0.83323900  0.44597400  1
  O  O10  1  0.49635000  0.05623600  0.69317400  1
  O  O11  1  0.98904600  0.30428500  0.94160300  1
  O  O12  1  0.99550100  0.05037300  0.19491100  1
  O  O13  1  0.49943400  0.27356500  0.44437800  1
  O  O14  1  0.04581000  0.56052000  0.68994000  1
  O  O15  1  0.54231900  0.80045100  0.94054000  1
loop_
_geom_bond_atom_site_label_1
_geom_bond_atom_site_label_2
_geom_bond_distance
_geom_bond_site_symmetry_2
Li0 O0 2.043546 1_655
Li0 O4 2.131229 1_655
Li0 O0 2.147910 1_555
Li0 O12 2.185596 1_555
Li0 O8 2.204694 1_655
Li0 O8 2.299875 1_555
Li1 O5 2.111824 1_555
Li1 O1 2.120960 1_555
Li1 O13 2.148783 1_555
Li1 O9 2.148844 1_555
Li1 O1 2.196146 1_655
Li1 O9 2.232783 1_455
Li2 O6 2.005208 1_565
Li2 O2 2.050985 1_455
Li2 O2 2.066451 1_555
Li2 O10 2.124555 1_565
Li2 O14 2.131738 1_555
Li2 O10 2.253340 1_465
Li3 O3 2.072569 1_545
Li3 O11 2.102193 1_555
Li3 O7 2.148515 1_555
Li3 O15 2.156773 1_545
Li3 O3 2.195038 1_445
Li3 O11 2.220909 1_455
Li4 O8 2.038157 1_555
Li4 O12 2.098494 1_565
Li4 O4 2.108992 1_555
Li4 O0 2.133575 1_565
Li4 O12 2.172394 1_465
Li4 O4 2.219674 1_655
Li5 O9 1.973259 1_545
Li5 O13 1.994548 1_655
Li5 O13 2.003792 1_555
Li5 O1 2.212093 1_655
Li5 O5 2.261864 1_545
Li5 O5 2.411318 1_645
Li6 O14 2.083185 1_555
Li6 O6 2.136456 1_555
Li6 O2 2.185248 1_555
Li6 O14 2.217293 1_655
Li6 O10 2.240295 1_555
Li6 O6 2.244120 1_655
Li7 O7 2.086601 1_555
Li7 O15 2.092241 1_555
Li7 O3 2.095199 1_555
Li7 O11 2.165375 1_555
Li7 O7 2.165966 1_655
Li7 O15 2.206082 1_655
Li8 O6 2.028099 1_555
Li8 O9 2.036687 1_455
Li8 O2 2.092813 1_555
Li8 O13 2.093052 1_455
Li8 O2 2.144531 1_455
Li8 O13 2.151666 1_555
Mn0 O11 1.950268 1_455
Mn0 O4 1.953683 1_546
Mn0 O15 1.970811 1_445
Mn0 O0 1.985923 1_556
Mn0 O15 2.209269 1_545
Mn0 O0 2.224360 1_456
Mn1 O1 1.927855 1_655
Mn1 O12 1.932127 1_565
Mn1 O5 1.953410 1_655
Mn1 O5 1.953739 1_555
Mn1 O8 1.967359 1_555
Mn1 O8 1.982398 1_655
Co0 O1 2.045495 1_655
Co0 O12 2.047668 1_455
Co0 O12 2.093970 1_555
Co0 O5 2.094101 1_545
Co0 O1 2.094298 1_555
Co0 O8 2.101329 1_555
Co1 O10 1.920259 1_565
Co1 O3 1.930265 1_555
Co1 O7 1.934207 1_555
Co1 O14 1.934895 1_555
Co1 O3 2.173806 1_455
Co1 O14 2.184099 1_655
Co2 O15 1.940150 1_555
Co2 O0 1.962547 1_556
Co2 O11 2.052725 1_455
Co2 O4 2.059173 1_656
Co2 O4 2.070356 1_556
Co2 O11 2.070619 1_555
Co3 O2 1.781797 1_545
Co3 O13 1.807357 1_555
Co3 O6 1.963849 1_655
Co3 O9 1.966127 1_445
Co3 O6 1.987726 1_555
Co3 O9 1.987769 1_545
Co4 O14 1.973520 1_655
Co4 O3 1.986990 1_545
Co4 O10 2.008188 1_555
Co4 O7 2.034352 1_655
Co4 O10 2.056301 1_655
Co4 O7 2.074516 1_555
