# generated using pymatgen
data_Mg14CdB
_symmetry_space_group_name_H-M   'P 1'
_cell_length_a   6.23167330
_cell_length_b   6.23167282
_cell_length_c   10.18609345
_cell_angle_alpha   90.00000000
_cell_angle_beta   90.00000000
_cell_angle_gamma   120.00000256
_symmetry_Int_Tables_number   1
_chemical_formula_structural   Mg14CdB
_chemical_formula_sum   'Mg14 Cd1 B1'
_cell_volume   342.56863507
_cell_formula_units_Z   1
loop_
 _symmetry_equiv_pos_site_id
 _symmetry_equiv_pos_as_xyz
  1  'x, y, z'
loop_
 _atom_site_type_symbol
 _atom_site_label
 _atom_site_symmetry_multiplicity
 _atom_site_fract_x
 _atom_site_fract_y
 _atom_site_fract_z
 _atom_site_occupancy
  Mg  Mg0  1  0.16731890  0.83365895  0.12500000  1
  Mg  Mg1  1  0.16346560  0.83173230  0.62500000  1
  Mg  Mg2  1  0.66634105  0.33268110  0.12500000  1
  Mg  Mg3  1  0.66826770  0.33653440  0.62500000  1
  Mg  Mg4  1  0.66634105  0.83365895  0.12500000  1
  Mg  Mg5  1  0.66826770  0.83173230  0.62500000  1
  Mg  Mg6  1  0.32927672  0.17072328  0.38274685  1
  Mg  Mg7  1  0.32927672  0.17072328  0.86725315  1
  Mg  Mg8  1  0.32927672  0.65855444  0.38274685  1
  Mg  Mg9  1  0.32927672  0.65855444  0.86725315  1
  Mg  Mg10  1  0.84144556  0.17072328  0.38274685  1
  Mg  Mg11  1  0.84144556  0.17072328  0.86725315  1
  Mg  Mg12  1  0.83333300  0.66666700  0.37268924  1
  Mg  Mg13  1  0.83333300  0.66666700  0.87731076  1
  Cd  Cd0  1  0.16666700  0.33333300  0.12500000  1
  B  B0  1  0.16666700  0.33333300  0.62500000  1
loop_
_geom_bond_atom_site_label_1
_geom_bond_atom_site_label_2
_geom_bond_distance
_geom_bond_site_symmetry_2
Mg0 Mg12 3.100691 1_455
Mg0 Mg13 3.100691 1_454
Mg0 Mg2 3.109743 1_565
Mg0 Mg4 3.109743 1_555
Mg0 Mg2 3.121930 1_455
Mg0 Mg4 3.121930 1_455
Mg0 Mg9 3.194297 1_554
Mg0 Mg8 3.194297 1_555
Mg0 Mg7 3.194303 1_564
Mg0 Mg6 3.194303 1_565
Mg1 Mg8 3.071894 1_555
Mg1 Mg9 3.071894 1_555
Mg1 Mg6 3.071901 1_565
Mg1 Mg7 3.071901 1_565
Mg1 Mg13 3.127221 1_455
Mg1 Mg12 3.127221 1_455
Mg2 Mg4 3.109743 1_545
Mg2 Mg4 3.121930 1_555
Mg2 Mg7 3.194304 1_554
Mg2 Mg6 3.194304 1_555
Mg3 Mg6 3.071901 1_555
Mg3 Mg7 3.071901 1_555
Mg4 Mg9 3.194303 1_554
Mg4 Mg8 3.194303 1_555
Mg5 Mg8 3.071901 1_555
Mg5 Mg9 3.071901 1_555
Mg6 Mg8 3.040004 1_555
Mg6 Mg8 3.191669 1_545
Mg7 Mg9 3.040004 1_555
Mg7 Mg9 3.191669 1_545
Mg10 Mg8 3.040004 1_655
Mg10 Mg6 3.040004 1_655
Mg10 Mg3 3.071894 1_555
Mg10 Mg5 3.071901 1_545
Mg10 Mg12 3.117828 1_545
Mg10 Mg12 3.117828 1_555
Mg10 Mg8 3.191669 1_545
Mg10 Mg6 3.191669 1_555
Mg10 Mg2 3.194297 1_555
Mg10 Mg4 3.194303 1_545
Mg11 Mg9 3.040004 1_655
Mg11 Mg7 3.040004 1_655
Mg11 Mg3 3.071894 1_555
Mg11 Mg5 3.071901 1_545
Mg11 Mg13 3.117828 1_545
Mg11 Mg13 3.117828 1_555
Mg11 Mg9 3.191669 1_545
Mg11 Mg7 3.191669 1_555
Mg11 Mg2 3.194297 1_556
Mg11 Mg4 3.194303 1_546
Mg12 Mg4 3.100685 1_555
Mg12 Mg2 3.100691 1_555
Mg12 Mg6 3.117828 1_665
Mg12 Mg6 3.117828 1_555
Mg12 Mg8 3.117828 1_555
Mg12 Mg8 3.117828 1_655
Mg12 Mg5 3.127215 1_555
Mg12 Mg3 3.127221 1_555
Mg13 Mg4 3.100685 1_556
Mg13 Mg2 3.100691 1_556
Mg13 Mg7 3.117828 1_665
Mg13 Mg7 3.117828 1_555
Mg13 Mg9 3.117828 1_555
Mg13 Mg9 3.117828 1_655
Mg13 Mg5 3.127215 1_555
Mg13 Mg3 3.127221 1_555
Cd0 Mg0 3.115838 1_555
Cd0 Mg4 3.115838 1_555
Cd0 Mg4 3.115838 1_445
Cd0 Mg0 3.115838 1_545
Cd0 Mg2 3.115839 1_455
Cd0 Mg2 3.115839 1_555
Cd0 Mg7 3.158072 1_554
Cd0 Mg6 3.158072 1_555
Cd0 Mg9 3.158078 1_554
Cd0 Mg8 3.158078 1_555
Cd0 Mg11 3.158078 1_454
Cd0 Mg10 3.158078 1_455
B0 Mg6 3.028140 1_555
B0 Mg7 3.028140 1_555
B0 Mg8 3.028146 1_555
B0 Mg9 3.028146 1_555
B0 Mg10 3.028146 1_455
B0 Mg11 3.028146 1_455
