# generated using pymatgen
data_PrZnCr2O6
_symmetry_space_group_name_H-M   'P 1'
_cell_length_a   5.30676400
_cell_length_b   5.40459700
_cell_length_c   7.75567000
_cell_angle_alpha   90.00000000
_cell_angle_beta   90.00000000
_cell_angle_gamma   90.00000000
_symmetry_Int_Tables_number   1
_chemical_formula_structural   PrZnCr2O6
_chemical_formula_sum   'Pr2 Zn2 Cr4 O12'
_cell_volume   222.43975698
_cell_formula_units_Z   2
loop_
 _symmetry_equiv_pos_site_id
 _symmetry_equiv_pos_as_xyz
  1  'x, y, z'
loop_
 _atom_site_type_symbol
 _atom_site_label
 _atom_site_symmetry_multiplicity
 _atom_site_fract_x
 _atom_site_fract_y
 _atom_site_fract_z
 _atom_site_occupancy
  Pr  Pr0  1  0.00812400  0.70111500  0.00000000  1
  Pr  Pr1  1  0.50812400  0.29888500  0.50000000  1
  Zn  Zn0  1  0.49130700  0.22046300  0.00000000  1
  Zn  Zn1  1  0.99130700  0.77953700  0.50000000  1
  Cr  Cr0  1  0.99630800  0.24271100  0.74858600  1
  Cr  Cr1  1  0.99630800  0.24271100  0.25141400  1
  Cr  Cr2  1  0.49630800  0.75728900  0.24858600  1
  Cr  Cr3  1  0.49630800  0.75728900  0.75141400  1
  O  O0  1  0.08211500  0.19275000  0.50000000  1
  O  O1  1  0.21886000  0.96168000  0.80249600  1
  O  O2  1  0.21886000  0.96168000  0.19750400  1
  O  O3  1  0.30706500  0.44143600  0.19212200  1
  O  O4  1  0.30706500  0.44143600  0.80787800  1
  O  O5  1  0.37496600  0.72842800  0.50000000  1
  O  O6  1  0.58211500  0.80725000  0.00000000  1
  O  O7  1  0.71886000  0.03832000  0.69750400  1
  O  O8  1  0.71886000  0.03832000  0.30249600  1
  O  O9  1  0.80706500  0.55856400  0.69212200  1
  O  O10  1  0.80706500  0.55856400  0.30787800  1
  O  O11  1  0.87496600  0.27157200  0.00000000  1
loop_
_geom_bond_atom_site_label_1
_geom_bond_atom_site_label_2
_geom_bond_distance
_geom_bond_site_symmetry_2
Cr0 O7 1.882824 1_555
Cr0 O1 1.968904 1_645
Cr0 O0 1.999314 1_655
Cr0 O4 2.021033 1_655
Cr0 O9 2.028392 1_555
Cr0 O11 2.059376 1_556
Cr1 O8 1.882824 1_555
Cr1 O2 1.968904 1_645
Cr1 O0 1.999314 1_655
Cr1 O3 2.021033 1_655
Cr1 O10 2.028392 1_555
Cr1 O11 2.059376 1_555
Cr2 O2 1.882824 1_555
Cr2 O8 1.968904 1_565
Cr2 O6 1.999314 1_555
Cr2 O10 2.021033 1_555
Cr2 O3 2.028392 1_555
Cr2 O5 2.059376 1_555
Cr3 O1 1.882824 1_555
Cr3 O7 1.968904 1_565
Cr3 O6 1.999314 1_556
Cr3 O9 2.021033 1_555
Cr3 O4 2.028392 1_555
Cr3 O5 2.059376 1_555
O0 Zn1 2.284651 1_445
O0 Pr1 2.332366 1_555
O1 Pr0 2.362235 1_556
O1 Zn0 2.528407 1_566
O2 Pr0 2.362235 1_555
O2 Zn0 2.528407 1_565
O3 Zn0 2.145329 1_555
O3 Pr0 2.589710 1_555
O3 Pr1 2.726460 1_555
O4 Zn0 2.145329 1_556
O4 Pr0 2.589710 1_556
O4 Pr1 2.726460 1_555
O5 Zn1 2.054640 1_455
O5 Pr1 2.426671 1_555
O6 Zn0 2.284651 1_565
O6 Pr0 2.332366 1_655
O7 Pr1 2.362235 1_555
O7 Zn1 2.528407 1_545
O8 Pr1 2.362235 1_555
O8 Zn1 2.528407 1_545
O9 Zn1 2.145329 1_555
O9 Pr1 2.589710 1_555
O9 Pr0 2.726460 1_656
O10 Zn1 2.145329 1_555
O10 Pr1 2.589710 1_555
O10 Pr0 2.726460 1_655
O11 Zn0 2.054640 1_555
O11 Pr0 2.426671 1_655
