# generated using pymatgen
data_Li6Al13Cu8
_symmetry_space_group_name_H-M   'P 1'
_cell_length_a   4.95783700
_cell_length_b   12.71417800
_cell_length_c   12.71417800
_cell_angle_alpha   90.00000000
_cell_angle_beta   90.00000000
_cell_angle_gamma   90.00000000
_symmetry_Int_Tables_number   1
_chemical_formula_structural   Li6Al13Cu8
_chemical_formula_sum   'Li12 Al26 Cu16'
_cell_volume   801.43594854
_cell_formula_units_Z   2
loop_
 _symmetry_equiv_pos_site_id
 _symmetry_equiv_pos_as_xyz
  1  'x, y, z'
loop_
 _atom_site_type_symbol
 _atom_site_label
 _atom_site_symmetry_multiplicity
 _atom_site_fract_x
 _atom_site_fract_y
 _atom_site_fract_z
 _atom_site_occupancy
  Li  Li0  1  0.00000000  0.58314400  0.08314400  1
  Li  Li1  1  0.00000000  0.41685600  0.91685600  1
  Li  Li2  1  0.00000000  0.91685600  0.58314400  1
  Li  Li3  1  0.00000000  0.08314400  0.41685600  1
  Li  Li4  1  0.50000000  0.21647900  0.71647900  1
  Li  Li5  1  0.50000000  0.78352100  0.28352100  1
  Li  Li6  1  0.50000000  0.28352100  0.21647900  1
  Li  Li7  1  0.50000000  0.71647900  0.78352100  1
  Li  Li8  1  0.50000000  0.64172600  0.14172600  1
  Li  Li9  1  0.50000000  0.35827400  0.85827400  1
  Li  Li10  1  0.50000000  0.85827400  0.64172600  1
  Li  Li11  1  0.50000000  0.14172600  0.35827400  1
  Al  Al0  1  0.50000000  0.09435500  0.11691700  1
  Al  Al1  1  0.50000000  0.90564500  0.88308300  1
  Al  Al2  1  0.50000000  0.88308300  0.09435500  1
  Al  Al3  1  0.50000000  0.40564500  0.61691700  1
  Al  Al4  1  0.50000000  0.11691700  0.90564500  1
  Al  Al5  1  0.50000000  0.59435500  0.38308300  1
  Al  Al6  1  0.50000000  0.61691700  0.59435500  1
  Al  Al7  1  0.50000000  0.38308300  0.40564500  1
  Al  Al8  1  0.00000000  0.15016200  0.19316700  1
  Al  Al9  1  0.00000000  0.84983800  0.80683300  1
  Al  Al10  1  0.00000000  0.80683300  0.15016200  1
  Al  Al11  1  0.00000000  0.34983800  0.69316700  1
  Al  Al12  1  0.00000000  0.19316700  0.84983800  1
  Al  Al13  1  0.00000000  0.65016200  0.30683300  1
  Al  Al14  1  0.00000000  0.69316700  0.65016200  1
  Al  Al15  1  0.00000000  0.30683300  0.34983800  1
  Al  Al16  1  0.50000000  0.07354400  0.57354400  1
  Al  Al17  1  0.50000000  0.92645600  0.42645600  1
  Al  Al18  1  0.50000000  0.42645600  0.07354400  1
  Al  Al19  1  0.50000000  0.57354400  0.92645600  1
  Al  Al20  1  0.00000000  0.13724700  0.63724700  1
  Al  Al21  1  0.00000000  0.86275300  0.36275300  1
  Al  Al22  1  0.00000000  0.36275300  0.13724700  1
  Al  Al23  1  0.00000000  0.63724700  0.86275300  1
  Al  Al24  1  0.00000000  0.00000000  0.00000000  1
  Al  Al25  1  0.00000000  0.50000000  0.50000000  1
  Cu  Cu0  1  0.25087900  0.24274700  0.02250300  1
  Cu  Cu1  1  0.74912100  0.75725300  0.97749700  1
  Cu  Cu2  1  0.25087900  0.75725300  0.97749700  1
  Cu  Cu3  1  0.25087900  0.97749700  0.24274700  1
  Cu  Cu4  1  0.74912100  0.25725300  0.52250300  1
  Cu  Cu5  1  0.74912100  0.24274700  0.02250300  1
  Cu  Cu6  1  0.74912100  0.02250300  0.75725300  1
  Cu  Cu7  1  0.25087900  0.74274700  0.47749700  1
  Cu  Cu8  1  0.25087900  0.02250300  0.75725300  1
  Cu  Cu9  1  0.74912100  0.74274700  0.47749700  1
  Cu  Cu10  1  0.74912100  0.97749700  0.24274700  1
  Cu  Cu11  1  0.25087900  0.25725300  0.52250300  1
  Cu  Cu12  1  0.74912100  0.52250300  0.74274700  1
  Cu  Cu13  1  0.25087900  0.47749700  0.25725300  1
  Cu  Cu14  1  0.74912100  0.47749700  0.25725300  1
  Cu  Cu15  1  0.25087900  0.52250300  0.74274700  1
loop_
_geom_bond_atom_site_label_1
_geom_bond_atom_site_label_2
_geom_bond_distance
_geom_bond_site_symmetry_2
Li0 Li8 2.693428 1_455
Li0 Li8 2.693428 1_555
Li0 Li1 2.989952 1_554
Li1 Li9 2.693428 1_455
Li1 Li9 2.693428 1_555
Li2 Li3 2.989952 1_565
Li4 Li9 2.549554 1_555
Li5 Li8 2.549554 1_555
Li10 Li7 2.549554 1_555
Li10 Li2 2.693428 1_655
Li10 Li2 2.693428 1_555
Li11 Li6 2.549554 1_555
Li11 Li3 2.693428 1_555
Li11 Li3 2.693428 1_655
Al0 Cu10 2.508461 1_545
Al0 Cu3 2.508461 1_545
Al0 Cu5 2.554603 1_555
Al0 Cu0 2.554603 1_555
Al0 Al2 2.701423 1_545
Al0 Al4 2.701423 1_554
Al0 Li6 2.717873 1_555
Al0 Al8 2.754692 1_655
Al0 Al8 2.754692 1_555
Al0 Al24 3.129518 1_555
Al0 Al24 3.129518 1_655
Al1 Cu6 2.508461 1_565
Al1 Cu8 2.508461 1_565
Al1 Cu1 2.554603 1_555
Al1 Cu2 2.554603 1_555
Al1 Al2 2.701423 1_556
Al1 Al4 2.701423 1_565
Al1 Li7 2.717873 1_555
Al1 Al9 2.754692 1_655
Al1 Al9 2.754692 1_555
Al1 Al24 3.129518 1_566
Al1 Al24 3.129518 1_666
Al2 Cu1 2.508461 1_554
Al2 Cu2 2.508461 1_554
Al2 Cu10 2.554603 1_555
Al2 Cu3 2.554603 1_555
Al2 Li5 2.717873 1_555
Al2 Al24 3.129518 1_665
Al2 Al24 3.129518 1_565
Al3 Cu12 2.508461 1_555
Al3 Cu15 2.508461 1_555
Al3 Cu4 2.554603 1_555
Al3 Cu11 2.554603 1_555
Al3 Al6 2.701423 1_555
Al3 Al7 2.701423 1_555
Al3 Li4 2.717873 1_555
Al4 Cu5 2.508461 1_556
Al4 Cu0 2.508461 1_556
Al4 Cu6 2.554603 1_555
Al4 Cu8 2.554603 1_555
Al4 Li4 2.717873 1_555
Al5 Cu14 2.508461 1_555
Al5 Cu13 2.508461 1_555
Al5 Cu9 2.554603 1_555
Al5 Cu7 2.554603 1_555
Al5 Al6 2.701423 1_555
Al5 Al7 2.701423 1_555
Al5 Li5 2.717873 1_555
Al6 Cu9 2.508461 1_555
Al6 Cu7 2.508461 1_555
Al6 Cu12 2.554603 1_555
Al6 Cu15 2.554603 1_555
Al6 Li7 2.717873 1_555
Al7 Cu4 2.508461 1_555
Al7 Cu11 2.508461 1_555
Al7 Cu14 2.554603 1_555
Al7 Cu13 2.554603 1_555
Al7 Li6 2.717873 1_555
Al8 Cu3 2.600723 1_545
Al8 Cu10 2.600723 1_445
Al8 Cu0 2.764237 1_555
Al8 Cu5 2.764237 1_455
Al8 Li3 2.968922 1_555
Al8 Li6 3.017909 1_455
Al8 Li6 3.017909 1_555
Al9 Cu8 2.600723 1_565
Al9 Cu6 2.600723 1_465
Al9 Cu2 2.764237 1_555
Al9 Cu1 2.764237 1_455
Al9 Li2 2.968922 1_555
Al9 Li7 3.017909 1_455
Al9 Li7 3.017909 1_555
Al10 Cu2 2.600723 1_554
Al10 Cu1 2.600723 1_454
Al10 Al2 2.754692 1_455
Al10 Al2 2.754692 1_555
Al10 Cu3 2.764237 1_555
Al10 Cu10 2.764237 1_455
Al10 Al21 2.794864 1_555
Al10 Al13 2.817033 1_555
Al10 Li0 2.968922 1_555
Al10 Li5 3.017909 1_555
Al10 Li5 3.017909 1_455
Al10 Al24 3.110744 1_565
Al11 Cu15 2.600723 1_555
Al11 Cu12 2.600723 1_455
Al11 Al3 2.754692 1_455
Al11 Al3 2.754692 1_555
Al11 Cu11 2.764237 1_555
Al11 Cu4 2.764237 1_455
Al11 Al20 2.794864 1_555
Al11 Al12 2.817033 1_555
Al11 Li1 2.968922 1_555
Al11 Li4 3.017909 1_555
Al11 Li4 3.017909 1_455
Al11 Al25 3.110744 1_555
Al12 Cu0 2.600723 1_556
Al12 Cu5 2.600723 1_456
Al12 Al4 2.754692 1_555
Al12 Al4 2.754692 1_455
Al12 Cu8 2.764237 1_555
Al12 Cu6 2.764237 1_455
Al12 Al20 2.794864 1_555
Al12 Li1 2.968922 1_555
Al12 Li4 3.017909 1_455
Al12 Li4 3.017909 1_555
Al12 Al24 3.110744 1_556
Al13 Cu13 2.600723 1_555
Al13 Cu14 2.600723 1_455
Al13 Al5 2.754692 1_455
Al13 Al5 2.754692 1_555
Al13 Cu7 2.764237 1_555
Al13 Cu9 2.764237 1_455
Al13 Al21 2.794864 1_555
Al13 Li0 2.968922 1_555
Al13 Li5 3.017909 1_455
Al13 Li5 3.017909 1_555
Al13 Al25 3.110744 1_555
Al14 Cu7 2.600723 1_555
Al14 Cu9 2.600723 1_455
Al14 Al6 2.754692 1_555
Al14 Al6 2.754692 1_455
Al14 Cu15 2.764237 1_555
Al14 Cu12 2.764237 1_455
Al14 Al23 2.794864 1_555
Al14 Al9 2.817033 1_555
Al14 Li2 2.968922 1_555
Al14 Li7 3.017909 1_555
Al14 Li7 3.017909 1_455
Al14 Al25 3.110744 1_555
Al15 Cu11 2.600723 1_555
Al15 Cu4 2.600723 1_455
Al15 Al7 2.754692 1_555
Al15 Al7 2.754692 1_455
Al15 Cu13 2.764237 1_555
Al15 Cu14 2.764237 1_455
Al15 Al22 2.794864 1_555
Al15 Al8 2.817033 1_555
Al15 Li3 2.968922 1_555
Al15 Li6 3.017909 1_455
Al15 Li6 3.017909 1_555
Al15 Al25 3.110744 1_555
Al16 Li4 2.570052 1_555
Al16 Al17 2.644725 1_545
Al16 Cu4 2.720687 1_555
Al16 Cu11 2.720687 1_555
Al16 Cu6 2.720687 1_555
Al16 Cu8 2.720687 1_555
Al16 Al20 2.730753 1_655
Al16 Al20 2.730753 1_555
Al16 Li11 2.870983 1_555
Al16 Li10 2.870983 1_545
Al17 Li5 2.570052 1_555
Al17 Cu10 2.720687 1_555
Al17 Cu3 2.720687 1_555
Al17 Cu9 2.720687 1_555
Al17 Cu7 2.720687 1_555
Al17 Al21 2.730753 1_655
Al17 Al21 2.730753 1_555
Al17 Li10 2.870983 1_555
Al17 Li11 2.870983 1_565
Al18 Li6 2.570052 1_555
Al18 Al19 2.644725 1_554
Al18 Cu5 2.720687 1_555
Al18 Cu14 2.720687 1_555
Al18 Cu0 2.720687 1_555
Al18 Cu13 2.720687 1_555
Al18 Al22 2.730753 1_555
Al18 Al22 2.730753 1_655
Al18 Li8 2.870983 1_555
Al18 Li9 2.870983 1_554
Al19 Li7 2.570052 1_555
Al19 Cu1 2.720687 1_555
Al19 Cu12 2.720687 1_555
Al19 Cu2 2.720687 1_555
Al19 Cu15 2.720687 1_555
Al19 Al23 2.730753 1_555
Al19 Al23 2.730753 1_655
Al19 Li9 2.870983 1_555
Al19 Li8 2.870983 1_556
Al20 Cu8 2.450183 1_555
Al20 Cu6 2.450183 1_455
Al20 Cu11 2.450183 1_555
Al20 Cu4 2.450183 1_455
Al20 Li4 2.859130 1_455
Al20 Li4 2.859130 1_555
Al20 Li2 2.885287 1_545
Al20 Li3 2.885287 1_555
Al21 Cu3 2.450183 1_555
Al21 Cu10 2.450183 1_455
Al21 Cu7 2.450183 1_555
Al21 Cu9 2.450183 1_455
Al21 Li5 2.859130 1_455
Al21 Li5 2.859130 1_555
Al21 Li3 2.885287 1_565
Al21 Li2 2.885287 1_555
Al22 Cu0 2.450183 1_555
Al22 Cu5 2.450183 1_455
Al22 Cu13 2.450183 1_555
Al22 Cu14 2.450183 1_455
Al22 Al8 2.794864 1_555
Al22 Li6 2.859130 1_555
Al22 Li6 2.859130 1_455
Al22 Li1 2.885287 1_554
Al22 Li0 2.885287 1_555
Al23 Cu2 2.450183 1_555
Al23 Cu1 2.450183 1_455
Al23 Cu15 2.450183 1_555
Al23 Cu12 2.450183 1_455
Al23 Al9 2.794864 1_555
Al23 Li7 2.859130 1_455
Al23 Li7 2.859130 1_555
Al23 Li0 2.885287 1_556
Al23 Li1 2.885287 1_555
Al24 Al8 3.110744 1_555
Al24 Al9 3.110744 1_544
Al24 Al4 3.129518 1_454
Al24 Al4 3.129518 1_554
Al25 Al6 3.129518 1_555
Al25 Al6 3.129518 1_455
Al25 Al3 3.129518 1_555
Al25 Al3 3.129518 1_455
Al25 Al5 3.129518 1_455
Al25 Al5 3.129518 1_555
Al25 Al7 3.129518 1_555
Al25 Al7 3.129518 1_455
Cu0 Cu5 2.470203 1_555
Cu0 Cu5 2.487634 1_455
Cu0 Li6 2.806526 1_555
Cu0 Li9 2.835990 1_554
Cu0 Li1 2.872554 1_554
Cu1 Cu2 2.470203 1_555
Cu1 Cu2 2.487634 1_655
Cu1 Li7 2.806526 1_555
Cu1 Li8 2.835990 1_556
Cu1 Li0 2.872554 1_656
Cu2 Li7 2.806526 1_555
Cu2 Li8 2.835990 1_556
Cu2 Li0 2.872554 1_556
Cu3 Li5 2.806526 1_555
Cu3 Li11 2.835990 1_565
Cu3 Li3 2.872554 1_565
Cu4 Li4 2.806526 1_555
Cu4 Li11 2.835990 1_555
Cu4 Li3 2.872554 1_655
Cu5 Li6 2.806526 1_555
Cu5 Li9 2.835990 1_554
Cu5 Li1 2.872554 1_654
Cu6 Cu8 2.470203 1_555
Cu6 Cu8 2.487634 1_655
Cu6 Li4 2.806526 1_555
Cu6 Li10 2.835990 1_545
Cu6 Li2 2.872554 1_645
Cu7 Cu9 2.470203 1_555
Cu7 Cu9 2.487634 1_455
Cu7 Li5 2.806526 1_555
Cu7 Li10 2.835990 1_555
Cu7 Li2 2.872554 1_555
Cu8 Li4 2.806526 1_555
Cu8 Li10 2.835990 1_545
Cu8 Li2 2.872554 1_545
Cu9 Li5 2.806526 1_555
Cu9 Li10 2.835990 1_555
Cu9 Li2 2.872554 1_655
Cu10 Cu3 2.470203 1_555
Cu10 Cu3 2.487634 1_655
Cu10 Li5 2.806526 1_555
Cu10 Li11 2.835990 1_565
Cu10 Li3 2.872554 1_665
Cu11 Cu4 2.470203 1_555
Cu11 Cu4 2.487634 1_455
Cu11 Li4 2.806526 1_555
Cu11 Li11 2.835990 1_555
Cu11 Li3 2.872554 1_555
Cu12 Cu15 2.470203 1_555
Cu12 Cu15 2.487634 1_655
Cu12 Li7 2.806526 1_555
Cu12 Li9 2.835990 1_555
Cu12 Li1 2.872554 1_655
Cu13 Cu14 2.470203 1_555
Cu13 Cu14 2.487634 1_455
Cu13 Li6 2.806526 1_555
Cu13 Li8 2.835990 1_555
Cu13 Li0 2.872554 1_555
Cu14 Li6 2.806526 1_555
Cu14 Li8 2.835990 1_555
Cu14 Li0 2.872554 1_655
Cu15 Li7 2.806526 1_555
Cu15 Li9 2.835990 1_555
Cu15 Li1 2.872554 1_555
