# generated using pymatgen
data_LiNd2RuO6
_symmetry_space_group_name_H-M   'P 1'
_cell_length_a   5.80365800
_cell_length_b   5.45594000
_cell_length_c   9.47647645
_cell_angle_alpha   55.19690517
_cell_angle_beta   90.00000000
_cell_angle_gamma   90.00000000
_symmetry_Int_Tables_number   1
_chemical_formula_structural   LiNd2RuO6
_chemical_formula_sum   'Li2 Nd4 Ru2 O12'
_cell_volume   246.39055718
_cell_formula_units_Z   2
loop_
 _symmetry_equiv_pos_site_id
 _symmetry_equiv_pos_as_xyz
  1  'x, y, z'
loop_
 _atom_site_type_symbol
 _atom_site_label
 _atom_site_symmetry_multiplicity
 _atom_site_fract_x
 _atom_site_fract_y
 _atom_site_fract_z
 _atom_site_occupancy
  Li  Li0  1  0.50000000  0.50000000  0.00000000  1
  Li  Li1  1  0.00000000  0.50000000  0.50000000  1
  Nd  Nd0  1  0.07067400  0.73223700  0.75122900  1
  Nd  Nd1  1  0.92932600  0.26776300  0.24877100  1
  Nd  Nd2  1  0.57067400  0.26776300  0.74877100  1
  Nd  Nd3  1  0.42932600  0.73223700  0.25122900  1
  Ru  Ru0  1  0.50000000  0.00000000  0.50000000  1
  Ru  Ru1  1  0.00000000  0.00000000  0.00000000  1
  O  O0  1  0.31398700  0.65682000  0.54840500  1
  O  O1  1  0.68601300  0.34318000  0.45159500  1
  O  O2  1  0.81398700  0.34318000  0.95159500  1
  O  O3  1  0.18601300  0.65682000  0.04840500  1
  O  O4  1  0.46893300  0.85494800  0.74366900  1
  O  O5  1  0.53106700  0.14505200  0.25633100  1
  O  O6  1  0.96893300  0.14505200  0.75633100  1
  O  O7  1  0.03106700  0.85494800  0.24366900  1
  O  O8  1  0.78820500  0.76512300  0.55316800  1
  O  O9  1  0.21179500  0.23487700  0.44683200  1
  O  O10  1  0.28820500  0.23487700  0.94683200  1
  O  O11  1  0.71179500  0.76512300  0.05316800  1
loop_
_geom_bond_atom_site_label_1
_geom_bond_atom_site_label_2
_geom_bond_distance
_geom_bond_site_symmetry_2
Li0 O5 2.076910 1_555
Li0 O4 2.076910 1_554
Li0 O11 2.165422 1_555
Li0 O10 2.165422 1_554
Li0 O2 2.170520 1_554
Li0 O3 2.170520 1_555
Li1 O7 2.076910 1_555
Li1 O6 2.076910 1_455
Li1 O9 2.165422 1_555
Li1 O8 2.165422 1_455
Li1 O0 2.170520 1_555
Li1 O1 2.170520 1_455
Nd0 O6 2.355446 1_465
Nd0 O2 2.393635 1_455
Nd0 O4 2.396038 1_555
Nd0 O8 2.420347 1_455
Nd0 O10 2.579043 1_555
Nd0 O0 2.600085 1_555
Nd0 O3 2.688030 1_556
Nd0 O9 2.735364 1_565
Nd1 O7 2.355446 1_645
Nd1 O3 2.393635 1_655
Nd1 O5 2.396038 1_555
Nd1 O9 2.420347 1_655
Nd1 O11 2.579043 1_555
Nd1 O1 2.600085 1_555
Nd1 O2 2.688030 1_554
Nd1 O8 2.735364 1_545
Nd2 O4 2.355446 1_545
Nd2 O0 2.393635 1_555
Nd2 O6 2.396038 1_555
Nd2 O10 2.420347 1_555
Nd2 O8 2.579043 1_555
Nd2 O2 2.600085 1_555
Nd2 O1 2.688030 1_555
Nd2 O11 2.735364 1_546
Nd3 O5 2.355446 1_565
Nd3 O1 2.393635 1_555
Nd3 O7 2.396038 1_555
Nd3 O11 2.420347 1_555
Nd3 O9 2.579043 1_555
Nd3 O3 2.600085 1_555
Nd3 O0 2.688030 1_555
Nd3 O10 2.735364 1_564
O0 Ru0 1.975147 1_565
O1 Ru0 1.975147 1_555
O2 Ru1 1.975147 1_656
O3 Ru1 1.975147 1_565
O4 Ru0 1.976064 1_565
O5 Ru0 1.976064 1_555
O6 Ru1 1.976064 1_656
O7 Ru1 1.976064 1_565
O8 Ru0 1.989155 1_565
O9 Ru0 1.989155 1_555
O10 Ru1 1.989155 1_556
O11 Ru1 1.989155 1_665
