# generated using pymatgen
data_Mg2Si3
_symmetry_space_group_name_H-M   'P 1'
_cell_length_a   4.54475000
_cell_length_b   7.00212315
_cell_length_c   11.90453379
_cell_angle_alpha   88.61787574
_cell_angle_beta   79.62625290
_cell_angle_gamma   88.16567300
_symmetry_Int_Tables_number   1
_chemical_formula_structural   Mg2Si3
_chemical_formula_sum   'Mg8 Si12'
_cell_volume   372.38846140
_cell_formula_units_Z   4
loop_
 _symmetry_equiv_pos_site_id
 _symmetry_equiv_pos_as_xyz
  1  'x, y, z'
loop_
 _atom_site_type_symbol
 _atom_site_label
 _atom_site_symmetry_multiplicity
 _atom_site_fract_x
 _atom_site_fract_y
 _atom_site_fract_z
 _atom_site_occupancy
  Mg  Mg0  1  0.80929000  0.37307600  0.59339800  1
  Mg  Mg1  1  0.75327900  0.67876100  0.00698100  1
  Mg  Mg2  1  0.26870700  0.20464300  0.72384700  1
  Mg  Mg3  1  0.29985500  0.64010400  0.76005900  1
  Mg  Mg4  1  0.24672100  0.32123900  0.99301900  1
  Mg  Mg5  1  0.19071000  0.62692400  0.40660200  1
  Mg  Mg6  1  0.70014500  0.35989600  0.23994100  1
  Mg  Mg7  1  0.73129300  0.79535700  0.27615300  1
  Si  Si0  1  0.74484400  0.95058300  0.70190900  1
  Si  Si1  1  0.78854700  0.09300600  0.89246800  1
  Si  Si2  1  0.63247900  0.73578100  0.53782700  1
  Si  Si3  1  0.78354100  0.42627900  0.83196000  1
  Si  Si4  1  0.70578700  0.05718700  0.10236500  1
  Si  Si5  1  0.79973600  0.04730700  0.44533900  1
  Si  Si6  1  0.21145300  0.90699400  0.10753200  1
  Si  Si7  1  0.25515600  0.04941700  0.29809100  1
  Si  Si8  1  0.21645900  0.57372100  0.16804000  1
  Si  Si9  1  0.36752100  0.26421900  0.46217300  1
  Si  Si10  1  0.20026400  0.95269300  0.55466100  1
  Si  Si11  1  0.29421300  0.94281300  0.89763500  1
loop_
_geom_bond_atom_site_label_1
_geom_bond_atom_site_label_2
_geom_bond_distance
_geom_bond_site_symmetry_2
Mg0 Si2 2.741022 1_555
Mg0 Si9 2.822087 1_655
Mg0 Si3 2.854201 1_555
Mg0 Si9 2.887440 1_555
Mg0 Si5 2.922278 1_555
Mg0 Si0 3.200179 1_545
Mg1 Si3 2.746726 1_554
Mg1 Si4 2.894406 1_565
Mg1 Si8 2.920881 1_555
Mg1 Si6 2.971422 1_555
Mg1 Si6 3.086373 1_655
Mg1 Si8 3.151935 1_655
Mg1 Si1 3.171410 1_564
Mg1 Si11 3.175028 1_554
Mg1 Si11 3.190479 1_654
Mg2 Si0 2.736405 1_545
Mg2 Si11 2.746754 1_545
Mg2 Si10 2.774489 1_545
Mg2 Si3 2.789629 1_455
Mg2 Si1 2.803300 1_455
Mg2 Si0 3.068993 1_445
Mg2 Si9 3.086273 1_555
Mg3 Si11 2.706393 1_555
Mg3 Si3 2.814294 1_455
Mg3 Si3 2.865600 1_555
Mg3 Si2 2.876128 1_555
Mg3 Si0 3.000030 1_555
Mg4 Si8 2.746726 1_556
Mg4 Si11 2.894406 1_545
Mg4 Si3 2.920881 1_555
Mg4 Si1 2.971422 1_555
Mg4 Si1 3.086373 1_455
Mg4 Si3 3.151935 1_455
Mg4 Si6 3.171410 1_546
Mg4 Si4 3.175028 1_556
Mg4 Si4 3.190479 1_456
Mg5 Si9 2.741022 1_555
Mg5 Si2 2.822087 1_455
Mg5 Si8 2.854201 1_555
Mg5 Si2 2.887440 1_555
Mg5 Si10 2.922278 1_555
Mg5 Si7 3.200179 1_565
Mg6 Si4 2.706393 1_555
Mg6 Si8 2.814294 1_655
Mg6 Si8 2.865600 1_555
Mg6 Si9 2.876128 1_555
Mg6 Si7 3.000030 1_555
Mg7 Si7 2.736405 1_565
Mg7 Si4 2.746754 1_565
Mg7 Si5 2.774489 1_565
Mg7 Si8 2.789629 1_655
Mg7 Si6 2.803300 1_655
Mg7 Si7 3.068993 1_665
Mg7 Si2 3.086273 1_555
Si0 Si10 2.459872 1_655
Si0 Si1 2.542485 1_565
Si0 Si2 2.624616 1_555
Si0 Si11 2.812257 1_555
Si1 Si3 2.426225 1_555
Si1 Si4 2.466849 1_556
Si1 Si11 2.501097 1_545
Si1 Si11 2.506838 1_645
Si2 Si5 2.497441 1_565
Si4 Si6 2.501097 1_545
Si4 Si6 2.506838 1_645
Si4 Si7 2.812257 1_555
Si5 Si9 2.426412 1_555
Si5 Si7 2.459872 1_655
Si6 Si8 2.426225 1_555
Si6 Si7 2.542485 1_565
Si7 Si9 2.624616 1_555
Si10 Si2 2.426412 1_555
Si10 Si5 2.486056 1_465
Si10 Si9 2.497441 1_565
Si11 Si6 2.466849 1_556
