# generated using pymatgen
data_RbPrP3HO10
_symmetry_space_group_name_H-M   'P 1'
_cell_length_a   7.19470700
_cell_length_b   7.65664468
_cell_length_c   8.85388332
_cell_angle_alpha   73.91879071
_cell_angle_beta   74.22907524
_cell_angle_gamma   83.03100270
_symmetry_Int_Tables_number   1
_chemical_formula_structural   RbPrP3HO10
_chemical_formula_sum   'Rb2 Pr2 P6 H2 O20'
_cell_volume   450.45013781
_cell_formula_units_Z   2
loop_
 _symmetry_equiv_pos_site_id
 _symmetry_equiv_pos_as_xyz
  1  'x, y, z'
loop_
 _atom_site_type_symbol
 _atom_site_label
 _atom_site_symmetry_multiplicity
 _atom_site_fract_x
 _atom_site_fract_y
 _atom_site_fract_z
 _atom_site_occupancy
  Rb  Rb0  1  0.71214100  0.68079200  0.02757500  1
  Rb  Rb1  1  0.28785900  0.31920800  0.97242500  1
  Pr  Pr0  1  0.26978500  0.36602000  0.49058000  1
  Pr  Pr1  1  0.73021500  0.63398000  0.50942000  1
  P  P0  1  0.18182100  0.70951900  0.64705100  1
  P  P1  1  0.81817900  0.29048100  0.35294900  1
  P  P2  1  0.36579500  0.96598000  0.34949300  1
  P  P3  1  0.63420500  0.03402000  0.65050700  1
  P  P4  1  0.16824600  0.77508500  0.18481400  1
  P  P5  1  0.83175400  0.22491500  0.81518600  1
  H  H0  1  0.18470000  0.82453600  0.92030300  1
  H  H1  1  0.81530000  0.17546400  0.07969700  1
  O  O0  1  0.04140300  0.64830500  0.56988400  1
  O  O1  1  0.95859700  0.35169500  0.43011600  1
  O  O2  1  0.24205600  0.91498500  0.53671400  1
  O  O3  1  0.75794400  0.08501500  0.46328600  1
  O  O4  1  0.54369300  0.84209600  0.32703000  1
  O  O5  1  0.45630700  0.15790400  0.67297000  1
  O  O6  1  0.23413100  0.87241900  0.99838900  1
  O  O7  1  0.76586900  0.12758100  0.00161100  1
  O  O8  1  0.95240800  0.75357200  0.24378100  1
  O  O9  1  0.04759200  0.24642800  0.75621900  1
  O  O10  1  0.38545600  0.16897300  0.30717800  1
  O  O11  1  0.61454400  0.83102700  0.69282200  1
  O  O12  1  0.29490800  0.60511800  0.23155500  1
  O  O13  1  0.70509200  0.39488200  0.76844500  1
  O  O14  1  0.36558100  0.58138000  0.62110000  1
  O  O15  1  0.63441900  0.41862000  0.37890000  1
  O  O16  1  0.22027200  0.93772900  0.25067300  1
  O  O17  1  0.77972800  0.06227100  0.74932700  1
  O  O18  1  0.10265400  0.72643100  0.81873900  1
  O  O19  1  0.89734600  0.27356900  0.18126100  1
loop_
_geom_bond_atom_site_label_1
_geom_bond_atom_site_label_2
_geom_bond_distance
_geom_bond_site_symmetry_2
H0 O6 1.022055 1_555
H0 O18 1.578499 1_555
H1 O7 1.022055 1_555
H1 O19 1.578499 1_555
O0 P0 1.540981 1_555
O0 Pr1 2.460685 1_455
O0 Pr0 2.686295 1_555
O1 P1 1.540981 1_555
O1 Pr0 2.460685 1_655
O1 Pr1 2.686295 1_555
O2 P2 1.617522 1_555
O2 P0 1.643458 1_555
O3 P3 1.617522 1_555
O3 P1 1.643458 1_555
O4 P2 1.499670 1_555
O4 Pr1 2.486227 1_555
O4 Rb0 3.118962 1_555
O5 P3 1.499670 1_555
O5 Pr0 2.486227 1_555
O5 Rb1 3.118962 1_555
O6 P4 1.575903 1_556
O6 Rb1 3.426628 1_565
O7 P5 1.575903 1_554
O7 Rb0 3.426628 1_545
O8 P4 1.511588 1_655
O8 Pr1 2.458447 1_555
O8 Rb0 3.096232 1_555
O9 P5 1.511588 1_455
O9 Pr0 2.458447 1_555
O9 Rb1 3.096232 1_555
O10 P2 1.509305 1_545
O10 Pr0 2.433840 1_555
O10 Rb1 3.106003 1_554
O11 P3 1.509305 1_565
O11 Pr1 2.433840 1_555
O11 Rb0 3.106003 1_556
O12 P4 1.521236 1_555
O12 Pr0 2.484490 1_555
O12 Rb0 3.082852 1_555
O13 P5 1.521236 1_555
O13 Pr1 2.484490 1_555
O13 Rb1 3.082852 1_555
O14 P0 1.551876 1_555
O14 Pr0 2.508753 1_555
O14 Pr1 2.578376 1_555
O14 Rb1 3.144140 1_555
O15 P1 1.551876 1_555
O15 Pr1 2.508753 1_555
O15 Pr0 2.578376 1_555
O15 Rb0 3.144140 1_555
O16 P2 1.601958 1_555
O16 P4 1.632470 1_555
O16 Rb1 3.247162 1_564
O17 P3 1.601958 1_555
O17 P5 1.632470 1_555
O17 Rb0 3.247162 1_546
O18 P0 1.507453 1_555
O18 Rb0 2.913986 1_456
O18 Rb1 3.312968 1_555
O19 P1 1.507453 1_555
O19 Rb1 2.913986 1_654
O19 Rb0 3.312968 1_555
