# generated using pymatgen
data_TaCr3(AgS4)2
_symmetry_space_group_name_H-M   'P 1'
_cell_length_a   13.30066500
_cell_length_b   6.02978400
_cell_length_c   6.93738459
_cell_angle_alpha   89.73077250
_cell_angle_beta   90.00000000
_cell_angle_gamma   90.00000000
_symmetry_Int_Tables_number   1
_chemical_formula_structural   TaCr3(AgS4)2
_chemical_formula_sum   'Ta2 Cr6 Ag4 S16'
_cell_volume   556.37305206
_cell_formula_units_Z   2
loop_
 _symmetry_equiv_pos_site_id
 _symmetry_equiv_pos_as_xyz
  1  'x, y, z'
loop_
 _atom_site_type_symbol
 _atom_site_label
 _atom_site_symmetry_multiplicity
 _atom_site_fract_x
 _atom_site_fract_y
 _atom_site_fract_z
 _atom_site_occupancy
  Ta  Ta0  1  0.50000000  0.50000000  0.00000000  1
  Ta  Ta1  1  0.00000000  0.50000000  0.00000000  1
  Cr  Cr0  1  0.49799800  0.00078000  0.75017700  1
  Cr  Cr1  1  0.00200200  0.00078000  0.75017700  1
  Cr  Cr2  1  0.50200200  0.99922000  0.24982300  1
  Cr  Cr3  1  0.99799800  0.99922000  0.24982300  1
  Cr  Cr4  1  0.00000000  0.50000000  0.50000000  1
  Cr  Cr5  1  0.50000000  0.50000000  0.50000000  1
  Ag  Ag0  1  0.25000000  0.65866000  0.73505900  1
  Ag  Ag1  1  0.75000000  0.34134000  0.26494100  1
  Ag  Ag2  1  0.75000000  0.97873900  0.73732000  1
  Ag  Ag3  1  0.25000000  0.02126100  0.26268000  1
  S  S0  1  0.60574200  0.16195800  0.00064400  1
  S  S1  1  0.90057500  0.16782600  0.49693700  1
  S  S2  1  0.40057500  0.83217400  0.50306300  1
  S  S3  1  0.10574200  0.83804200  0.99935600  1
  S  S4  1  0.39425800  0.83804200  0.99935600  1
  S  S5  1  0.09942500  0.83217400  0.50306300  1
  S  S6  1  0.59942500  0.16782600  0.49693700  1
  S  S7  1  0.89425800  0.16195800  0.00064400  1
  S  S8  1  0.39624000  0.33367000  0.74580300  1
  S  S9  1  0.10376000  0.33367000  0.74580300  1
  S  S10  1  0.60376000  0.66633000  0.25419700  1
  S  S11  1  0.89624000  0.66633000  0.25419700  1
  S  S12  1  0.60264600  0.67066200  0.74521200  1
  S  S13  1  0.89735400  0.67066200  0.74521200  1
  S  S14  1  0.39735400  0.32933800  0.25478800  1
  S  S15  1  0.10264600  0.32933800  0.25478800  1
loop_
_geom_bond_atom_site_label_1
_geom_bond_atom_site_label_2
_geom_bond_distance
_geom_bond_site_symmetry_2
Cr0 S2 2.380747 1_545
Cr0 S4 2.416417 1_545
Cr0 S8 2.421001 1_555
Cr0 S12 2.429287 1_545
Cr0 S6 2.429872 1_555
Cr0 S0 2.456274 1_556
Cr1 S5 2.380747 1_545
Cr1 S3 2.416417 1_545
Cr1 S9 2.421001 1_555
Cr1 S13 2.429287 1_445
Cr1 S1 2.429872 1_455
Cr1 S7 2.456274 1_456
Cr2 S6 2.380747 1_565
Cr2 S0 2.416417 1_565
Cr2 S10 2.421001 1_555
Cr2 S14 2.429287 1_565
Cr2 S2 2.429872 1_555
Cr2 S4 2.456274 1_554
Cr3 S1 2.380747 1_565
Cr3 S7 2.416417 1_565
Cr3 S11 2.421001 1_555
Cr3 S15 2.429287 1_665
Cr3 S5 2.429872 1_655
Cr3 S3 2.456274 1_654
Cr4 S1 2.400292 1_455
Cr4 S5 2.400292 1_555
Cr4 S9 2.408781 1_555
Cr4 S11 2.408781 1_455
Cr4 S15 2.415198 1_555
Cr4 S13 2.415198 1_455
Cr5 S6 2.400292 1_555
Cr5 S2 2.400292 1_555
Cr5 S8 2.408781 1_555
Cr5 S10 2.408781 1_555
Cr5 S12 2.415198 1_555
Cr5 S14 2.415198 1_555
Ag0 S8 2.761823 1_555
Ag0 S9 2.761823 1_555
Ag0 S2 2.771305 1_555
Ag0 S5 2.771305 1_555
Ag0 S3 2.869132 1_555
Ag0 S4 2.869132 1_555
Ag1 S10 2.761823 1_555
Ag1 S11 2.761823 1_555
Ag1 S6 2.771305 1_555
Ag1 S1 2.771305 1_555
Ag1 S0 2.869132 1_555
Ag1 S7 2.869132 1_555
Ag2 S12 2.700758 1_555
Ag2 S13 2.700758 1_555
Ag2 S6 2.841490 1_565
Ag2 S1 2.841490 1_565
Ag2 S7 2.873695 1_566
Ag2 S0 2.873695 1_566
Ag3 S15 2.700758 1_555
Ag3 S14 2.700758 1_555
Ag3 S2 2.841490 1_545
Ag3 S5 2.841490 1_545
Ag3 S3 2.873695 1_544
Ag3 S4 2.873695 1_544
S0 Ta0 2.476440 1_555
S3 Ta1 2.476440 1_556
S4 Ta0 2.476440 1_556
S7 Ta1 2.476440 1_655
S8 Ta0 2.457012 1_556
S9 Ta1 2.457012 1_556
S10 Ta0 2.457012 1_555
S11 Ta1 2.457012 1_655
S12 Ta0 2.455621 1_556
S13 Ta1 2.455621 1_656
S14 Ta0 2.455621 1_555
S15 Ta1 2.455621 1_555
