# generated using pymatgen
data_Te2MoW3(Se2S)2
_symmetry_space_group_name_H-M   'P 1'
_cell_length_a   3.34551254
_cell_length_b   3.34551254
_cell_length_c   39.70672700
_cell_angle_alpha   90.00000000
_cell_angle_beta   90.00000000
_cell_angle_gamma   120.00001061
_symmetry_Int_Tables_number   1
_chemical_formula_structural   Te2MoW3(Se2S)2
_chemical_formula_sum   'Te2 Mo1 W3 Se4 S2'
_cell_volume   384.87526278
_cell_formula_units_Z   1
loop_
 _symmetry_equiv_pos_site_id
 _symmetry_equiv_pos_as_xyz
  1  'x, y, z'
loop_
 _atom_site_type_symbol
 _atom_site_label
 _atom_site_symmetry_multiplicity
 _atom_site_fract_x
 _atom_site_fract_y
 _atom_site_fract_z
 _atom_site_occupancy
  Te  Te0  1  0.66666700  0.33333300  0.42150300  1
  Te  Te1  1  0.66666700  0.33333300  0.51755600  1
  Mo  Mo0  1  0.33333300  0.66666700  0.09390700  1
  W  W0  1  0.33333300  0.66666700  0.46953400  1
  W  W1  1  0.66666700  0.33333300  0.28098300  1
  W  W2  1  0.66666700  0.33333300  0.65850100  1
  Se  Se0  1  0.33333300  0.66666700  0.32313600  1
  Se  Se1  1  0.33333300  0.66666700  0.70064700  1
  Se  Se2  1  0.33333300  0.66666700  0.23879800  1
  Se  Se3  1  0.33333300  0.66666700  0.61635700  1
  S  S0  1  0.66666700  0.33333300  0.05568700  1
  S  S1  1  0.66666700  0.33333300  0.13214000  1
loop_
_geom_bond_atom_site_label_1
_geom_bond_atom_site_label_2
_geom_bond_distance
_geom_bond_site_symmetry_2
Te0 W0 2.714414 1_545
Te0 W0 2.714414 1_655
Te0 W0 2.714419 1_555
Te1 W0 2.714163 1_545
Te1 W0 2.714163 1_655
Te1 W0 2.714168 1_555
Mo0 S0 2.456398 1_455
Mo0 S0 2.456398 1_565
Mo0 S0 2.456403 1_555
Mo0 S1 2.456717 1_455
Mo0 S1 2.456717 1_565
Mo0 S1 2.456722 1_555
Se0 W1 2.555831 1_455
Se0 W1 2.555831 1_565
Se0 W1 2.555836 1_555
Se1 W2 2.555649 1_455
Se1 W2 2.555649 1_565
Se1 W2 2.555654 1_555
Se2 W1 2.556664 1_455
Se2 W1 2.556664 1_565
Se2 W1 2.556668 1_555
Se3 W2 2.555597 1_565
Se3 W2 2.555597 1_455
Se3 W2 2.555602 1_555
