# generated using pymatgen
data_Li4Ti3(CoO4)3
_symmetry_space_group_name_H-M   'P 1'
_cell_length_a   6.07067556
_cell_length_b   9.80123846
_cell_length_c   7.93229388
_cell_angle_alpha   82.81761922
_cell_angle_beta   102.27980095
_cell_angle_gamma   97.80147241
_symmetry_Int_Tables_number   1
_chemical_formula_structural   Li4Ti3(CoO4)3
_chemical_formula_sum   'Li8 Ti6 Co6 O24'
_cell_volume   454.64612684
_cell_formula_units_Z   2
loop_
 _symmetry_equiv_pos_site_id
 _symmetry_equiv_pos_as_xyz
  1  'x, y, z'
loop_
 _atom_site_type_symbol
 _atom_site_label
 _atom_site_symmetry_multiplicity
 _atom_site_fract_x
 _atom_site_fract_y
 _atom_site_fract_z
 _atom_site_occupancy
  Li  Li0  1  0.33362500  0.74951700  0.58202000  1
  Li  Li1  1  0.32376300  0.24632500  0.08579700  1
  Li  Li2  1  0.33188600  0.99771000  0.33283500  1
  Li  Li3  1  0.33544000  0.50021300  0.83219100  1
  Li  Li4  1  0.00893900  0.23039200  0.77057800  1
  Li  Li5  1  0.01535300  0.73297900  0.26609400  1
  Li  Li6  1  0.65255900  0.26319900  0.40353900  1
  Li  Li7  1  0.65722100  0.77006800  0.89703000  1
  Ti  Ti0  1  0.82894700  0.75143800  0.57793100  1
  Ti  Ti1  1  0.82086900  0.25579400  0.08019400  1
  Ti  Ti2  1  0.14406400  0.25533000  0.41942600  1
  Ti  Ti3  1  0.14754000  0.75552800  0.91895800  1
  Ti  Ti4  1  0.51196200  0.24196300  0.73828800  1
  Ti  Ti5  1  0.51738200  0.74151400  0.23708900  1
  Co  Co0  1  0.83497100  0.00044200  0.33257200  1
  Co  Co1  1  0.17031300  0.49891900  0.16597300  1
  Co  Co2  1  0.49765000  0.50029400  0.50188000  1
  Co  Co3  1  0.83588800  0.50062000  0.83240100  1
  Co  Co4  1  0.16858000  0.99868900  0.66612000  1
  Co  Co5  1  0.49757600  0.00149100  0.00203000  1
  O  O0  1  0.28876800  0.12524000  0.86794600  1
  O  O1  1  0.29255000  0.62527700  0.36630100  1
  O  O2  1  0.37861100  0.87548600  0.80091900  1
  O  O3  1  0.37655600  0.37443300  0.30204500  1
  O  O4  1  0.27083300  0.36443400  0.62580600  1
  O  O5  1  0.27155800  0.86322200  0.12490200  1
  O  O6  1  0.40117000  0.13472400  0.54358500  1
  O  O7  1  0.40220300  0.63404700  0.04188900  1
  O  O8  1  0.07021400  0.86965600  0.47222900  1
  O  O9  1  0.06627000  0.36894200  0.97440300  1
  O  O10  1  0.59813300  0.13172500  0.19627400  1
  O  O11  1  0.60159700  0.63207300  0.69404000  1
  O  O12  1  0.07323400  0.13912900  0.22806100  1
  O  O13  1  0.07619300  0.63874800  0.72550700  1
  O  O14  1  0.59698800  0.86187000  0.44172400  1
  O  O15  1  0.59300900  0.36396400  0.94362500  1
  O  O16  1  0.92408900  0.86189300  0.78257900  1
  O  O17  1  0.92081100  0.36263600  0.28519800  1
  O  O18  1  0.74699000  0.63919600  0.38291600  1
  O  O19  1  0.74212400  0.14048000  0.88627100  1
  O  O20  1  0.95830700  0.12598200  0.55010200  1
  O  O21  1  0.96021200  0.62613100  0.04804400  1
  O  O22  1  0.71034900  0.37373600  0.62093700  1
  O  O23  1  0.71136800  0.87455100  0.11840700  1
loop_
_geom_bond_atom_site_label_1
_geom_bond_atom_site_label_2
_geom_bond_distance
_geom_bond_site_symmetry_2
Li0 O8 2.089120 1_555
Li0 O11 2.097307 1_555
Li0 O1 2.174882 1_555
Li0 O2 2.203806 1_555
Li0 O13 2.214375 1_555
Li0 O14 2.231520 1_555
Li1 O9 2.079778 1_554
Li1 O10 2.108253 1_555
Li1 O12 2.165685 1_555
Li1 O0 2.174393 1_554
Li1 O3 2.194805 1_555
Li1 O15 2.284768 1_554
Li2 O5 2.178937 1_555
Li2 O14 2.193518 1_555
Li2 O12 2.196622 1_565
Li2 O6 2.209961 1_565
Li2 O8 2.275989 1_555
Li2 O10 2.307326 1_565
Li3 O15 2.166410 1_555
Li3 O4 2.175992 1_555
Li3 O13 2.182418 1_555
Li3 O7 2.183181 1_556
Li3 O11 2.305201 1_555
Li3 O9 2.334186 1_555
Li4 O0 2.064610 1_555
Li4 O19 2.070007 1_455
Li4 O20 2.081772 1_455
Li4 O9 2.181874 1_555
Li4 O4 2.324820 1_555
Li4 O22 2.455127 1_455
Li5 O1 2.069136 1_555
Li5 O21 2.076511 1_455
Li5 O18 2.092933 1_455
Li5 O8 2.184960 1_555
Li5 O5 2.268796 1_555
Li5 O23 2.464215 1_455
Li6 O3 2.084894 1_555
Li6 O22 2.092190 1_555
Li6 O17 2.115081 1_555
Li6 O10 2.157733 1_555
Li6 O6 2.235693 1_555
Li6 O20 2.444229 1_555
Li7 O2 2.058740 1_555
Li7 O16 2.069858 1_555
Li7 O23 2.086418 1_556
Li7 O11 2.173778 1_555
Li7 O7 2.303850 1_556
Li7 O21 2.480539 1_556
Co0 O12 2.078847 1_655
Co0 O8 2.092548 1_645
Co0 O10 2.094020 1_555
Co0 O14 2.094480 1_545
Co0 O23 2.168427 1_545
Co0 O20 2.187060 1_555
Co1 O21 1.920678 1_455
Co1 O3 1.931804 1_555
Co1 O9 2.046548 1_554
Co1 O1 2.085806 1_555
Co1 O7 2.112307 1_555
Co1 O17 2.171852 1_455
Co2 O22 1.928986 1_555
Co2 O1 1.929381 1_555
Co2 O11 2.061965 1_555
Co2 O3 2.078932 1_555
Co2 O4 2.094299 1_555
Co2 O18 2.182201 1_555
Co3 O9 2.084912 1_655
Co3 O11 2.089826 1_555
Co3 O13 2.093534 1_655
Co3 O15 2.113777 1_555
Co3 O22 2.159074 1_555
Co3 O21 2.175741 1_556
Co4 O20 1.917944 1_465
Co4 O2 1.934523 1_555
Co4 O8 2.052351 1_555
Co4 O0 2.094717 1_565
Co4 O6 2.113004 1_565
Co4 O16 2.141783 1_455
Co5 O23 1.930317 1_545
Co5 O0 1.931447 1_554
Co5 O10 2.063059 1_555
Co5 O2 2.086178 1_544
Co5 O5 2.098310 1_545
Co5 O19 2.149628 1_554
O0 Ti4 2.019944 1_555
O1 Ti5 2.022939 1_555
O2 Ti3 2.015552 1_555
O3 Ti2 2.015338 1_555
O4 Ti4 2.008327 1_555
O4 Ti2 2.023409 1_555
O5 Ti3 2.010453 1_554
O5 Ti5 2.023575 1_555
O6 Ti4 1.927321 1_555
O6 Ti2 2.087896 1_555
O7 Ti5 1.934736 1_555
O7 Ti3 2.080081 1_554
O8 Ti0 2.002372 1_455
O9 Ti1 2.000990 1_456
O10 Ti1 1.989504 1_555
O11 Ti0 1.988658 1_555
O12 Ti2 1.951394 1_555
O12 Ti1 2.099095 1_455
O13 Ti3 1.968322 1_555
O13 Ti0 2.054867 1_455
O14 Ti0 1.948315 1_555
O14 Ti5 2.061629 1_555
O15 Ti1 1.919510 1_556
O15 Ti4 2.076367 1_555
O16 Ti3 1.890739 1_655
O16 Ti0 2.002916 1_555
O17 Ti2 1.889381 1_655
O17 Ti1 1.985629 1_555
O18 Ti5 1.920990 1_555
O18 Ti0 1.949435 1_555
O19 Ti4 1.925410 1_555
O19 Ti1 1.961482 1_556
O20 Ti2 1.932313 1_655
O21 Ti3 1.931117 1_654
O22 Ti4 1.933646 1_555
O23 Ti5 1.929005 1_555
