# generated using pymatgen
data_Mg10(SiO6)3
_symmetry_space_group_name_H-M   'P 1'
_cell_length_a   5.15161700
_cell_length_b   8.76650200
_cell_length_c   14.15647700
_cell_angle_alpha   90.00000000
_cell_angle_beta   90.00000000
_cell_angle_gamma   90.00000000
_symmetry_Int_Tables_number   1
_chemical_formula_structural   Mg10(SiO6)3
_chemical_formula_sum   'Mg20 Si6 O36'
_cell_volume   639.33001146
_cell_formula_units_Z   2
loop_
 _symmetry_equiv_pos_site_id
 _symmetry_equiv_pos_as_xyz
  1  'x, y, z'
loop_
 _atom_site_type_symbol
 _atom_site_label
 _atom_site_symmetry_multiplicity
 _atom_site_fract_x
 _atom_site_fract_y
 _atom_site_fract_z
 _atom_site_occupancy
  Mg  Mg0  1  0.82733700  0.50000000  0.67353400  1
  Mg  Mg1  1  0.32733700  0.00000000  0.82646600  1
  Mg  Mg2  1  0.50000000  0.15709800  0.50000000  1
  Mg  Mg3  1  0.50000000  0.84290200  0.50000000  1
  Mg  Mg4  1  0.00000000  0.34290200  0.00000000  1
  Mg  Mg5  1  0.00000000  0.65709800  0.00000000  1
  Mg  Mg6  1  0.64594600  0.32114500  0.32426700  1
  Mg  Mg7  1  0.64594600  0.67885500  0.32426700  1
  Mg  Mg8  1  0.14594600  0.17885500  0.17573300  1
  Mg  Mg9  1  0.14594600  0.82114500  0.17573300  1
  Mg  Mg10  1  0.35405400  0.32114500  0.67573300  1
  Mg  Mg11  1  0.35405400  0.67885500  0.67573300  1
  Mg  Mg12  1  0.85405400  0.17885500  0.82426700  1
  Mg  Mg13  1  0.85405400  0.82114500  0.82426700  1
  Mg  Mg14  1  0.17266300  0.50000000  0.32646600  1
  Mg  Mg15  1  0.67266300  0.00000000  0.17353400  1
  Mg  Mg16  1  0.00000000  0.32129800  0.50000000  1
  Mg  Mg17  1  0.00000000  0.67870200  0.50000000  1
  Mg  Mg18  1  0.50000000  0.17870200  0.00000000  1
  Mg  Mg19  1  0.50000000  0.82129800  0.00000000  1
  Si  Si0  1  0.50000000  0.50000000  0.50000000  1
  Si  Si1  1  0.00000000  0.00000000  0.00000000  1
  Si  Si2  1  0.00280900  0.00000000  0.62376200  1
  Si  Si3  1  0.50280900  0.50000000  0.87623800  1
  Si  Si4  1  0.99719100  0.00000000  0.37623800  1
  Si  Si5  1  0.49719100  0.50000000  0.12376200  1
  O  O0  1  0.01222100  0.33539300  0.74342100  1
  O  O1  1  0.01222100  0.66460700  0.74342100  1
  O  O2  1  0.51222100  0.16460700  0.75657900  1
  O  O3  1  0.51222100  0.83539300  0.75657900  1
  O  O4  1  0.49867500  0.50000000  0.75735800  1
  O  O5  1  0.99867500  0.00000000  0.74264200  1
  O  O6  1  0.19920600  0.50000000  0.57702800  1
  O  O7  1  0.69920600  0.00000000  0.92297200  1
  O  O8  1  0.64428400  0.35357600  0.57318900  1
  O  O9  1  0.64428400  0.64642400  0.57318900  1
  O  O10  1  0.14428400  0.14642400  0.92681100  1
  O  O11  1  0.14428400  0.85357600  0.92681100  1
  O  O12  1  0.16239500  0.15697800  0.58775200  1
  O  O13  1  0.16239500  0.84302200  0.58775200  1
  O  O14  1  0.66239500  0.34302200  0.91224800  1
  O  O15  1  0.66239500  0.65697800  0.91224800  1
  O  O16  1  0.70606900  0.00000000  0.57902800  1
  O  O17  1  0.20606900  0.50000000  0.92097200  1
  O  O18  1  0.80079400  0.50000000  0.42297200  1
  O  O19  1  0.30079400  0.00000000  0.07702800  1
  O  O20  1  0.35571600  0.35357600  0.42681100  1
  O  O21  1  0.35571600  0.64642400  0.42681100  1
  O  O22  1  0.85571600  0.14642400  0.07318900  1
  O  O23  1  0.85571600  0.85357600  0.07318900  1
  O  O24  1  0.83760500  0.15697800  0.41224800  1
  O  O25  1  0.83760500  0.84302200  0.41224800  1
  O  O26  1  0.33760500  0.34302200  0.08775200  1
  O  O27  1  0.33760500  0.65697800  0.08775200  1
  O  O28  1  0.29393100  0.00000000  0.42097200  1
  O  O29  1  0.79393100  0.50000000  0.07902800  1
  O  O30  1  0.50132500  0.50000000  0.24264200  1
  O  O31  1  0.00132500  0.00000000  0.25735800  1
  O  O32  1  0.98777900  0.33539300  0.25657900  1
  O  O33  1  0.98777900  0.66460700  0.25657900  1
  O  O34  1  0.48777900  0.16460700  0.24342100  1
  O  O35  1  0.48777900  0.83539300  0.24342100  1
loop_
_geom_bond_atom_site_label_1
_geom_bond_atom_site_label_2
_geom_bond_distance
_geom_bond_site_symmetry_2
Mg0 O1 1.992063 1_655
Mg0 O0 1.992063 1_655
Mg0 O4 2.067576 1_555
Mg0 O8 2.134219 1_555
Mg0 O9 2.134219 1_555
Mg0 O6 2.352970 1_655
Mg1 O2 1.992063 1_555
Mg1 O3 1.992063 1_545
Mg1 O5 2.067576 1_455
Mg1 O11 2.134219 1_545
Mg1 O10 2.134219 1_555
Mg1 O7 2.352970 1_555
Mg2 O16 2.067672 1_555
Mg2 O28 2.067672 1_555
Mg2 O24 2.137303 1_555
Mg2 O12 2.137303 1_555
Mg2 O8 2.143067 1_555
Mg2 O20 2.143067 1_555
Mg3 O16 2.067672 1_565
Mg3 O28 2.067672 1_565
Mg3 O25 2.137303 1_555
Mg3 O13 2.137303 1_555
Mg3 O9 2.143067 1_555
Mg3 O21 2.143067 1_555
Mg4 O17 2.067672 1_554
Mg4 O29 2.067672 1_455
Mg4 O26 2.137303 1_555
Mg4 O14 2.137303 1_454
Mg4 O22 2.143067 1_455
Mg4 O10 2.143067 1_554
Mg5 O17 2.067672 1_554
Mg5 O29 2.067672 1_455
Mg5 O27 2.137303 1_555
Mg5 O15 2.137303 1_454
Mg5 O23 2.143067 1_455
Mg5 O11 2.143067 1_554
Mg6 O34 1.963918 1_555
Mg6 O32 2.008703 1_555
Mg6 O30 2.085358 1_555
Mg6 O20 2.103244 1_555
Mg6 O24 2.144144 1_555
Mg6 O18 2.246610 1_555
Mg7 O35 1.963918 1_555
Mg7 O33 2.008703 1_555
Mg7 O30 2.085358 1_555
Mg7 O21 2.103244 1_555
Mg7 O25 2.144144 1_555
Mg7 O18 2.246610 1_555
Mg8 O32 1.963918 1_455
Mg8 O34 2.008703 1_555
Mg8 O31 2.085358 1_555
Mg8 O22 2.103244 1_455
Mg8 O26 2.144144 1_555
Mg8 O19 2.246610 1_555
Mg9 O33 1.963918 1_455
Mg9 O35 2.008703 1_555
Mg9 O31 2.085358 1_565
Mg9 O23 2.103244 1_455
Mg9 O27 2.144144 1_555
Mg9 O19 2.246610 1_565
Mg10 O2 1.963918 1_555
Mg10 O0 2.008703 1_555
Mg10 O4 2.085358 1_555
Mg10 O8 2.103244 1_555
Mg10 O12 2.144144 1_555
Mg10 O6 2.246610 1_555
Mg11 O3 1.963918 1_555
Mg11 O1 2.008703 1_555
Mg11 O4 2.085358 1_555
Mg11 O9 2.103244 1_555
Mg11 O13 2.144144 1_555
Mg11 O6 2.246610 1_555
Mg12 O0 1.963918 1_655
Mg12 O2 2.008703 1_555
Mg12 O5 2.085358 1_555
Mg12 O10 2.103244 1_655
Mg12 O14 2.144144 1_555
Mg12 O7 2.246610 1_555
Mg13 O1 1.963918 1_655
Mg13 O3 2.008703 1_555
Mg13 O5 2.085358 1_565
Mg13 O11 2.103244 1_655
Mg13 O15 2.144144 1_555
Mg13 O7 2.246610 1_565
Mg14 O33 1.992063 1_455
Mg14 O32 1.992063 1_455
Mg14 O30 2.067576 1_555
Mg14 O20 2.134219 1_555
Mg14 O21 2.134219 1_555
Mg14 O18 2.352970 1_455
Mg15 O34 1.992063 1_555
Mg15 O35 1.992063 1_545
Mg15 O31 2.067576 1_655
Mg15 O22 2.134219 1_555
Mg15 O23 2.134219 1_545
Mg15 O19 2.352970 1_555
Mg16 O12 2.078022 1_555
Mg16 O24 2.078022 1_455
Mg16 O8 2.124070 1_455
Mg16 O20 2.124070 1_555
Mg16 O6 2.167126 1_555
Mg16 O18 2.167126 1_455
Mg17 O13 2.078022 1_555
Mg17 O25 2.078022 1_455
Mg17 O9 2.124070 1_455
Mg17 O21 2.124070 1_555
Mg17 O6 2.167126 1_555
Mg17 O18 2.167126 1_455
Mg18 O26 2.078022 1_555
Mg18 O14 2.078022 1_554
Mg18 O22 2.124070 1_555
Mg18 O10 2.124070 1_554
Mg18 O19 2.167126 1_555
Mg18 O7 2.167126 1_554
Mg19 O27 2.078022 1_555
Mg19 O15 2.078022 1_554
Mg19 O23 2.124070 1_555
Mg19 O11 2.124070 1_554
Mg19 O19 2.167126 1_565
Mg19 O7 2.167126 1_564
O4 Si3 1.683057 1_555
O5 Si2 1.683057 1_655
O6 Si0 1.894797 1_555
O7 Si1 1.894797 1_656
O8 Si0 1.809333 1_555
O9 Si0 1.809333 1_555
O10 Si1 1.809333 1_556
O11 Si1 1.809333 1_566
O12 Si2 1.682125 1_555
O13 Si2 1.682125 1_565
O14 Si3 1.682125 1_555
O15 Si3 1.682125 1_555
O16 Si2 1.654670 1_655
O17 Si3 1.654670 1_555
O18 Si0 1.894797 1_555
O19 Si1 1.894797 1_555
O20 Si0 1.809333 1_555
O21 Si0 1.809333 1_555
O22 Si1 1.809333 1_655
O23 Si1 1.809333 1_665
O24 Si4 1.682125 1_555
O25 Si4 1.682125 1_565
O26 Si5 1.682125 1_555
O27 Si5 1.682125 1_555
O28 Si4 1.654670 1_455
O29 Si5 1.654670 1_555
O30 Si5 1.683057 1_555
O31 Si4 1.683057 1_455
