# generated using pymatgen
data_Pr2AlCo2
_symmetry_space_group_name_H-M   'P 1'
_cell_length_a   5.59069687
_cell_length_b   5.59069687
_cell_length_c   7.65230268
_cell_angle_alpha   78.33470837
_cell_angle_beta   78.33470837
_cell_angle_gamma   60.96560164
_symmetry_Int_Tables_number   1
_chemical_formula_structural   Pr2AlCo2
_chemical_formula_sum   'Pr4 Al2 Co4'
_cell_volume   203.28414392
_cell_formula_units_Z   2
loop_
 _symmetry_equiv_pos_site_id
 _symmetry_equiv_pos_as_xyz
  1  'x, y, z'
loop_
 _atom_site_type_symbol
 _atom_site_label
 _atom_site_symmetry_multiplicity
 _atom_site_fract_x
 _atom_site_fract_y
 _atom_site_fract_z
 _atom_site_occupancy
  Pr  Pr0  1  0.49806700  0.21009000  0.14658700  1
  Pr  Pr1  1  0.78991000  0.50193300  0.35341300  1
  Pr  Pr2  1  0.50193300  0.78991000  0.85341300  1
  Pr  Pr3  1  0.21009000  0.49806700  0.64658700  1
  Al  Al0  1  0.11719800  0.88280200  0.25000000  1
  Al  Al1  1  0.88280200  0.11719800  0.75000000  1
  Co  Co0  1  0.28454700  0.00133800  0.49500200  1
  Co  Co1  1  0.99866200  0.71545300  0.00499800  1
  Co  Co2  1  0.00133800  0.28454700  0.99500200  1
  Co  Co3  1  0.71545300  0.99866200  0.50499800  1
loop_
_geom_bond_atom_site_label_1
_geom_bond_atom_site_label_2
_geom_bond_distance
_geom_bond_site_symmetry_2
Al0 Co3 2.568759 1_455
Al0 Co2 2.568759 1_564
Al0 Co0 2.577420 1_565
Al0 Co1 2.577420 1_455
Al1 Co0 2.568759 1_655
Al1 Co1 2.568759 1_546
Al1 Co2 2.577420 1_655
Al1 Co3 2.577420 1_545
Co0 Co3 2.418417 1_545
Co0 Pr0 2.949998 1_555
Co0 Pr2 3.006492 1_545
Co0 Pr3 3.009510 1_545
Co0 Pr1 3.021061 1_455
Co0 Pr3 3.035819 1_555
Co0 Pr1 3.046343 1_545
Co1 Co2 2.418417 1_654
Co1 Pr1 2.949998 1_555
Co1 Pr3 3.006492 1_654
Co1 Pr2 3.009510 1_654
Co1 Pr0 3.021061 1_565
Co1 Pr2 3.035819 1_554
Co1 Pr0 3.046343 1_655
Co2 Pr3 2.949998 1_555
Co2 Pr1 3.006492 1_456
Co2 Pr0 3.009510 1_456
Co2 Pr2 3.021061 1_545
Co2 Pr0 3.035819 1_556
Co2 Pr2 3.046343 1_455
Co3 Pr2 2.949998 1_555
Co3 Pr0 3.006492 1_565
Co3 Pr1 3.009510 1_565
Co3 Pr3 3.021061 1_655
Co3 Pr1 3.035819 1_555
Co3 Pr3 3.046343 1_565
