# generated using pymatgen
data_PuU4N5
_symmetry_space_group_name_H-M   'P 1'
_cell_length_a   12.43266726
_cell_length_b   12.43266726
_cell_length_c   12.43266726
_cell_angle_alpha   164.09537690
_cell_angle_beta   164.09537690
_cell_angle_gamma   22.56595487
_symmetry_Int_Tables_number   1
_chemical_formula_structural   PuU4N5
_chemical_formula_sum   'Pu1 U4 N5'
_cell_volume   144.28728575
_cell_formula_units_Z   1
loop_
 _symmetry_equiv_pos_site_id
 _symmetry_equiv_pos_as_xyz
  1  'x, y, z'
loop_
 _atom_site_type_symbol
 _atom_site_label
 _atom_site_symmetry_multiplicity
 _atom_site_fract_x
 _atom_site_fract_y
 _atom_site_fract_z
 _atom_site_occupancy
  Pu  Pu0  1  0.50000000  0.50000000  0.00000000  1
  U  U0  1  0.90071500  0.90071500  0.00000000  1
  U  U1  1  0.29995300  0.29995300  0.00000000  1
  U  U2  1  0.70004700  0.70004700  0.00000000  1
  U  U3  1  0.09928500  0.09928500  0.00000000  1
  N  N0  1  0.19977000  0.19977000  0.00000000  1
  N  N1  1  0.39926000  0.39926000  0.00000000  1
  N  N2  1  0.80023000  0.80023000  0.00000000  1
  N  N3  1  0.60074000  0.60074000  0.00000000  1
  N  N4  1  0.00000000  0.00000000  0.00000000  1
loop_
_geom_bond_atom_site_label_1
_geom_bond_atom_site_label_2
_geom_bond_distance
_geom_bond_site_symmetry_2
N0 U2 2.432520 1_545
N0 U2 2.432520 1_444
N0 U2 2.432520 1_455
N0 U2 2.432520 1_556
N0 U1 2.442938 1_555
N0 U3 2.450302 1_555
N1 U1 2.421577 1_555
N1 U0 2.432770 1_444
N1 U0 2.432770 1_455
N1 U0 2.432770 1_545
N1 U0 2.432770 1_556
N1 Pu0 2.456521 1_555
N2 U1 2.432520 1_666
N2 U1 2.432520 1_565
N2 U1 2.432520 1_554
N2 U1 2.432520 1_655
N2 U2 2.442938 1_555
N2 U0 2.450302 1_555
N3 U2 2.421577 1_555
N3 U3 2.432770 1_554
N3 U3 2.432770 1_565
N3 U3 2.432770 1_655
N3 U3 2.432770 1_666
N3 Pu0 2.456521 1_555
N4 U3 2.421041 1_555
N4 U0 2.421041 1_445
N4 Pu0 2.432511 1_545
N4 Pu0 2.432511 1_556
N4 Pu0 2.432511 1_444
N4 Pu0 2.432511 1_455
