# generated using pymatgen
data_UAl3
_symmetry_space_group_name_H-M   'P 1'
_cell_length_a   6.35184723
_cell_length_b   6.35184780
_cell_length_c   4.49766555
_cell_angle_alpha   90.00000000
_cell_angle_beta   90.00000000
_cell_angle_gamma   120.00003597
_symmetry_Int_Tables_number   1
_chemical_formula_structural   UAl3
_chemical_formula_sum   'U2 Al6'
_cell_volume   157.15122088
_cell_formula_units_Z   2
loop_
 _symmetry_equiv_pos_site_id
 _symmetry_equiv_pos_as_xyz
  1  'x, y, z'
loop_
 _atom_site_type_symbol
 _atom_site_label
 _atom_site_symmetry_multiplicity
 _atom_site_fract_x
 _atom_site_fract_y
 _atom_site_fract_z
 _atom_site_occupancy
  U  U0  1  0.33333300  0.66666700  0.75000000  1
  U  U1  1  0.66666700  0.33333300  0.25000000  1
  Al  Al0  1  0.14418036  0.28835972  0.25000000  1
  Al  Al1  1  0.71164028  0.85581964  0.25000000  1
  Al  Al2  1  0.14417936  0.85582064  0.25000000  1
  Al  Al3  1  0.85581978  0.71163855  0.75000000  1
  Al  Al4  1  0.28836145  0.14418022  0.75000000  1
  Al  Al5  1  0.85581978  0.14418022  0.75000000  1
loop_
_geom_bond_atom_site_label_1
_geom_bond_atom_site_label_2
_geom_bond_distance
_geom_bond_site_symmetry_2
Al0 Al2 2.747419 1_545
Al0 Al1 2.747427 1_445
Al0 Al5 2.751977 1_455
Al0 Al5 2.751977 1_454
Al0 Al4 2.751978 1_555
Al0 Al4 2.751978 1_554
Al0 U0 3.063964 1_555
Al0 U0 3.063964 1_554
Al0 U1 3.185544 1_555
Al0 U1 3.185545 1_455
Al1 Al2 2.747419 1_655
Al1 Al5 2.751977 1_565
Al1 Al5 2.751977 1_564
Al1 Al3 2.751978 1_554
Al1 Al3 2.751978 1_555
Al1 U0 3.063964 1_555
Al1 U0 3.063964 1_554
Al1 U1 3.185545 1_555
Al1 U1 3.185545 1_565
Al2 Al3 2.751974 1_455
Al2 Al3 2.751974 1_454
Al2 Al4 2.751974 1_565
Al2 Al4 2.751974 1_564
Al2 U0 3.063964 1_555
Al2 U0 3.063964 1_554
Al2 U1 3.185544 1_565
Al2 U1 3.185544 1_455
Al3 Al4 2.747437 1_665
Al3 Al5 2.747439 1_565
Al3 U1 3.063957 1_556
Al3 U1 3.063957 1_555
Al3 U0 3.185538 1_655
Al3 U0 3.185550 1_555
Al4 Al5 2.747439 1_455
Al4 U1 3.063957 1_556
Al4 U1 3.063957 1_555
Al4 U0 3.185538 1_545
Al4 U0 3.185550 1_555
Al5 U1 3.063958 1_555
Al5 U1 3.063958 1_556
Al5 U0 3.185543 1_545
Al5 U0 3.185543 1_655
