# generated using pymatgen
data_CsFeO2
_symmetry_space_group_name_H-M   'P 1'
_cell_length_a   6.04604100
_cell_length_b   12.13424200
_cell_length_c   17.14885900
_cell_angle_alpha   90.00000000
_cell_angle_beta   90.00000000
_cell_angle_gamma   90.00000000
_symmetry_Int_Tables_number   1
_chemical_formula_structural   CsFeO2
_chemical_formula_sum   'Cs16 Fe16 O32'
_cell_volume   1258.11102904
_cell_formula_units_Z   16
loop_
 _symmetry_equiv_pos_site_id
 _symmetry_equiv_pos_as_xyz
  1  'x, y, z'
loop_
 _atom_site_type_symbol
 _atom_site_label
 _atom_site_symmetry_multiplicity
 _atom_site_fract_x
 _atom_site_fract_y
 _atom_site_fract_z
 _atom_site_occupancy
  Cs  Cs0  1  0.25015900  0.00472500  0.43733500  1
  Cs  Cs1  1  0.75015900  0.49527500  0.56266500  1
  Cs  Cs2  1  0.74984100  0.50472500  0.06266500  1
  Cs  Cs3  1  0.24984100  0.99527500  0.93733500  1
  Cs  Cs4  1  0.74984100  0.99527500  0.56266500  1
  Cs  Cs5  1  0.24984100  0.50472500  0.43733500  1
  Cs  Cs6  1  0.25015900  0.49527500  0.93733500  1
  Cs  Cs7  1  0.75015900  0.00472500  0.06266500  1
  Cs  Cs8  1  0.78908000  0.25506700  0.18701400  1
  Cs  Cs9  1  0.28908000  0.24493300  0.81298600  1
  Cs  Cs10  1  0.21092000  0.75506700  0.31298600  1
  Cs  Cs11  1  0.71092000  0.74493300  0.68701400  1
  Cs  Cs12  1  0.21092000  0.74493300  0.81298600  1
  Cs  Cs13  1  0.71092000  0.75506700  0.18701400  1
  Cs  Cs14  1  0.78908000  0.24493300  0.68701400  1
  Cs  Cs15  1  0.28908000  0.25506700  0.31298600  1
  Fe  Fe0  1  0.75846300  0.00258500  0.31179200  1
  Fe  Fe1  1  0.25846300  0.49741500  0.68820800  1
  Fe  Fe2  1  0.24153700  0.50258500  0.18820800  1
  Fe  Fe3  1  0.74153700  0.99741500  0.81179200  1
  Fe  Fe4  1  0.24153700  0.99741500  0.68820800  1
  Fe  Fe5  1  0.74153700  0.50258500  0.31179200  1
  Fe  Fe6  1  0.75846300  0.49741500  0.81179200  1
  Fe  Fe7  1  0.25846300  0.00258500  0.18820800  1
  Fe  Fe8  1  0.27531600  0.25554600  0.06229100  1
  Fe  Fe9  1  0.77531600  0.24445400  0.93770900  1
  Fe  Fe10  1  0.72468400  0.75554600  0.43770900  1
  Fe  Fe11  1  0.22468400  0.74445400  0.56229100  1
  Fe  Fe12  1  0.72468400  0.74445400  0.93770900  1
  Fe  Fe13  1  0.22468400  0.75554600  0.06229100  1
  Fe  Fe14  1  0.27531600  0.24445400  0.56229100  1
  Fe  Fe15  1  0.77531600  0.25554600  0.43770900  1
  O  O0  1  0.79875100  0.14160100  0.36177400  1
  O  O1  1  0.29875200  0.35839900  0.63822600  1
  O  O2  1  0.20124800  0.64160100  0.13822600  1
  O  O3  1  0.70124900  0.85839900  0.86177400  1
  O  O4  1  0.20124800  0.85839900  0.63822600  1
  O  O5  1  0.70124900  0.64160100  0.36177400  1
  O  O6  1  0.79875100  0.35839900  0.86177400  1
  O  O7  1  0.29875200  0.14160100  0.13822600  1
  O  O8  1  0.68860800  0.11114500  0.88648200  1
  O  O9  1  0.18860800  0.38885500  0.11351800  1
  O  O10  1  0.31139200  0.61114500  0.61351800  1
  O  O11  1  0.81139200  0.88885500  0.38648200  1
  O  O12  1  0.31139200  0.88885500  0.11351800  1
  O  O13  1  0.81139200  0.61114500  0.88648200  1
  O  O14  1  0.68860800  0.38885500  0.38648200  1
  O  O15  1  0.18860800  0.11114500  0.61351800  1
  O  O16  1  0.55522500  0.22048600  0.51366000  1
  O  O17  1  0.05522500  0.27951400  0.48634000  1
  O  O18  1  0.44477500  0.72048600  0.98634000  1
  O  O19  1  0.94477500  0.77951400  0.01366000  1
  O  O20  1  0.44477500  0.77951400  0.48634000  1
  O  O21  1  0.94477500  0.72048600  0.51366000  1
  O  O22  1  0.55522500  0.27951400  0.01366000  1
  O  O23  1  0.05522500  0.22048600  0.98634000  1
  O  O24  1  0.46359800  0.98915800  0.27263000  1
  O  O25  1  0.96359800  0.51084200  0.72737000  1
  O  O26  1  0.53640200  0.48915800  0.22737000  1
  O  O27  1  0.03640200  0.01084200  0.77263000  1
  O  O28  1  0.53640200  0.01084200  0.72737000  1
  O  O29  1  0.03640200  0.48915800  0.27263000  1
  O  O30  1  0.46359800  0.51084200  0.77263000  1
  O  O31  1  0.96359800  0.98915800  0.22737000  1
loop_
_geom_bond_atom_site_label_1
_geom_bond_atom_site_label_2
_geom_bond_distance
_geom_bond_site_symmetry_2
Cs0 O20 3.091725 1_545
Cs0 O24 3.111075 1_545
Cs0 O11 3.126451 1_445
Cs0 O15 3.306734 1_555
Cs0 O0 3.447652 1_455
Cs0 O16 3.459708 1_555
Cs0 O17 3.634999 1_555
Cs1 O21 3.091725 1_555
Cs1 O25 3.111075 1_555
Cs1 O10 3.126451 1_555
Cs1 O14 3.306734 1_555
Cs1 O1 3.447647 1_555
Cs1 O17 3.459708 1_655
Cs1 O16 3.634999 1_555
Cs2 O22 3.091725 1_555
Cs2 O26 3.111075 1_555
Cs2 O9 3.126451 1_655
Cs2 O13 3.306734 1_554
Cs2 O2 3.447647 1_655
Cs2 O18 3.459708 1_554
Cs2 O19 3.634999 1_555
Cs3 O23 3.091725 1_565
Cs3 O27 3.111075 1_565
Cs3 O8 3.126451 1_565
Cs3 O12 3.306734 1_556
Cs3 O3 3.447652 1_555
Cs3 O19 3.459708 1_456
Cs3 O18 3.634999 1_555
Cs4 O16 3.091725 1_565
Cs4 O28 3.111075 1_565
Cs4 O15 3.126451 1_665
Cs4 O11 3.306734 1_555
Cs4 O4 3.447647 1_655
Cs4 O20 3.459708 1_555
Cs4 O21 3.634999 1_555
Cs5 O17 3.091725 1_555
Cs5 O29 3.111075 1_555
Cs5 O14 3.126451 1_555
Cs5 O10 3.306734 1_555
Cs5 O5 3.447652 1_555
Cs5 O21 3.459708 1_455
Cs5 O20 3.634999 1_555
Cs6 O18 3.091725 1_555
Cs6 O30 3.111075 1_555
Cs6 O13 3.126451 1_455
Cs6 O9 3.306734 1_556
Cs6 O6 3.447652 1_455
Cs6 O22 3.459708 1_556
Cs6 O23 3.634999 1_555
Cs7 O19 3.091725 1_545
Cs7 O31 3.111075 1_545
Cs7 O12 3.126451 1_545
Cs7 O8 3.306734 1_554
Cs7 O7 3.447647 1_555
Cs7 O23 3.459708 1_654
Cs7 O22 3.634999 1_555
Cs8 O9 3.171587 1_655
Cs8 O0 3.298588 1_555
Cs8 O26 3.298690 1_555
Cs8 O22 3.305266 1_555
Cs8 O7 3.374042 1_555
Cs8 O31 3.464570 1_545
Cs8 O7 3.477250 1_655
Cs8 O29 3.529897 1_655
Cs9 O8 3.171587 1_555
Cs9 O1 3.298588 1_555
Cs9 O27 3.298690 1_555
Cs9 O23 3.305266 1_555
Cs9 O6 3.374047 1_455
Cs9 O30 3.464570 1_555
Cs9 O6 3.477245 1_555
Cs9 O28 3.529897 1_555
Cs10 O11 3.171587 1_455
Cs10 O2 3.298588 1_555
Cs10 O24 3.298690 1_555
Cs10 O20 3.305266 1_555
Cs10 O5 3.374047 1_555
Cs10 O29 3.464570 1_555
Cs10 O5 3.477245 1_455
Cs10 O31 3.529897 1_455
Cs11 O10 3.171587 1_555
Cs11 O3 3.298588 1_555
Cs11 O25 3.298690 1_555
Cs11 O21 3.305266 1_555
Cs11 O4 3.374042 1_655
Cs11 O28 3.464570 1_565
Cs11 O4 3.477250 1_555
Cs11 O30 3.529897 1_555
Cs12 O13 3.171587 1_455
Cs12 O4 3.298588 1_555
Cs12 O30 3.298690 1_555
Cs12 O18 3.305266 1_555
Cs12 O3 3.374047 1_555
Cs12 O27 3.464570 1_565
Cs12 O3 3.477245 1_455
Cs12 O25 3.529897 1_455
Cs13 O12 3.171587 1_555
Cs13 O5 3.298588 1_555
Cs13 O31 3.298690 1_555
Cs13 O19 3.305266 1_555
Cs13 O2 3.374042 1_655
Cs13 O26 3.464570 1_555
Cs13 O2 3.477250 1_555
Cs13 O24 3.529897 1_555
Cs14 O15 3.171587 1_655
Cs14 O6 3.298588 1_555
Cs14 O28 3.298690 1_555
Cs14 O16 3.305266 1_555
Cs14 O1 3.374042 1_555
Cs14 O25 3.464570 1_555
Cs14 O1 3.477250 1_655
Cs14 O27 3.529897 1_655
Cs15 O14 3.171587 1_555
Cs15 O7 3.298588 1_555
Cs15 O29 3.298690 1_555
Cs15 O17 3.305266 1_555
Cs15 O0 3.374047 1_455
Cs15 O24 3.464570 1_545
Cs15 O0 3.477245 1_555
Cs15 O26 3.529897 1_555
Fe0 O0 1.907744 1_555
Fe0 O11 1.909831 1_545
Fe0 O24 1.912021 1_545
Fe0 O31 1.913304 1_545
Fe1 O1 1.907745 1_555
Fe1 O10 1.909831 1_555
Fe1 O25 1.912021 1_455
Fe1 O30 1.913304 1_555
Fe2 O2 1.907745 1_555
Fe2 O9 1.909831 1_555
Fe2 O26 1.912021 1_555
Fe2 O29 1.913304 1_555
Fe3 O3 1.907744 1_555
Fe3 O8 1.909831 1_565
Fe3 O27 1.912021 1_665
Fe3 O28 1.913304 1_565
Fe4 O4 1.907745 1_555
Fe4 O15 1.909831 1_565
Fe4 O28 1.912021 1_565
Fe4 O27 1.913304 1_565
Fe5 O5 1.907744 1_555
Fe5 O14 1.909831 1_555
Fe5 O29 1.912021 1_655
Fe5 O26 1.913304 1_555
Fe6 O6 1.907744 1_555
Fe6 O13 1.909831 1_555
Fe6 O30 1.912021 1_555
Fe6 O25 1.913304 1_555
Fe7 O7 1.907745 1_555
Fe7 O12 1.909831 1_545
Fe7 O31 1.912021 1_445
Fe7 O24 1.913304 1_545
Fe8 O7 1.904595 1_555
Fe8 O22 1.908953 1_555
Fe8 O23 1.910008 1_554
Fe8 O9 1.913950 1_555
Fe9 O6 1.904594 1_555
Fe9 O23 1.908953 1_655
Fe9 O22 1.910008 1_556
Fe9 O8 1.913950 1_555
Fe10 O5 1.904594 1_555
Fe10 O20 1.908953 1_555
Fe10 O21 1.910008 1_555
Fe10 O11 1.913950 1_555
Fe11 O4 1.904595 1_555
Fe11 O21 1.908953 1_455
Fe11 O20 1.910008 1_555
Fe11 O10 1.913950 1_555
Fe12 O3 1.904594 1_555
Fe12 O18 1.908953 1_555
Fe12 O19 1.910008 1_556
Fe12 O13 1.913950 1_555
Fe13 O2 1.904595 1_555
Fe13 O19 1.908953 1_455
Fe13 O18 1.910008 1_554
Fe13 O12 1.913950 1_555
Fe14 O1 1.904595 1_555
Fe14 O16 1.908953 1_555
Fe14 O17 1.910008 1_555
Fe14 O15 1.913950 1_555
Fe15 O0 1.904594 1_555
Fe15 O17 1.908953 1_655
Fe15 O16 1.910008 1_555
Fe15 O14 1.913950 1_555
