# generated using pymatgen
data_Ni3(TeO4)2
_symmetry_space_group_name_H-M   'P 1'
_cell_length_a   4.96901700
_cell_length_b   12.98079876
_cell_length_c   13.01511662
_cell_angle_alpha   120.27246518
_cell_angle_beta   90.00000000
_cell_angle_gamma   90.00000000
_symmetry_Int_Tables_number   1
_chemical_formula_structural   Ni3(TeO4)2
_chemical_formula_sum   'Ni12 Te8 O32'
_cell_volume   725.02279850
_cell_formula_units_Z   4
loop_
 _symmetry_equiv_pos_site_id
 _symmetry_equiv_pos_as_xyz
  1  'x, y, z'
loop_
 _atom_site_type_symbol
 _atom_site_label
 _atom_site_symmetry_multiplicity
 _atom_site_fract_x
 _atom_site_fract_y
 _atom_site_fract_z
 _atom_site_occupancy
  Ni  Ni0  1  0.52881200  0.43127900  0.35781900  1
  Ni  Ni1  1  0.52925100  0.93130700  0.56788500  1
  Ni  Ni2  1  0.53638500  0.64003500  0.07140300  1
  Ni  Ni3  1  0.53048400  0.92556400  0.35800000  1
  Ni  Ni4  1  0.52747100  0.63681500  0.56829800  1
  Ni  Ni5  1  0.53653200  0.43083100  0.07083300  1
  Ni  Ni6  1  0.02881200  0.56872100  0.64218100  1
  Ni  Ni7  1  0.02925100  0.06869300  0.43211500  1
  Ni  Ni8  1  0.03638500  0.35996500  0.92859700  1
  Ni  Ni9  1  0.03048400  0.07443600  0.64200000  1
  Ni  Ni10  1  0.02747100  0.36318500  0.43170200  1
  Ni  Ni11  1  0.03653200  0.56916800  0.92916700  1
  Te  Te0  1  0.47280200  0.13898200  0.86135000  1
  Te  Te1  1  0.47236600  0.72307200  0.86256400  1
  Te  Te2  1  0.46852900  0.14061700  0.28398500  1
  Te  Te3  1  0.97280200  0.86101800  0.13865000  1
  Te  Te4  1  0.97236600  0.27692800  0.13743600  1
  Te  Te5  1  0.96852900  0.85938300  0.71601500  1
  Te  Te6  1  0.63855600  0.66558700  0.33270100  1
  Te  Te7  1  0.13855600  0.33441300  0.66729900  1
  O  O0  1  0.23426000  0.20541600  0.79516800  1
  O  O1  1  0.23302600  0.58998100  0.79501500  1
  O  O2  1  0.20846700  0.20254700  0.40516500  1
  O  O3  1  0.73426000  0.79458400  0.20483200  1
  O  O4  1  0.73302600  0.41001900  0.20498500  1
  O  O5  1  0.70846700  0.79745300  0.59483500  1
  O  O6  1  0.21176700  0.32349400  0.05280000  1
  O  O7  1  0.20211000  0.73164700  0.68157000  1
  O  O8  1  0.20476700  0.94796000  0.27411200  1
  O  O9  1  0.21215900  0.72921700  0.05313000  1
  O  O10  1  0.20382900  0.95015400  0.67941100  1
  O  O11  1  0.20312500  0.32399900  0.27267500  1
  O  O12  1  0.71176700  0.67650600  0.94720000  1
  O  O13  1  0.70211000  0.26835300  0.31843000  1
  O  O14  1  0.70476700  0.05204000  0.72588800  1
  O  O15  1  0.71215900  0.27078300  0.94687000  1
  O  O16  1  0.70382900  0.04984600  0.32058900  1
  O  O17  1  0.70312500  0.67600100  0.72732500  1
  O  O18  1  0.91822300  0.40209100  0.59652600  1
  O  O19  1  0.91924300  0.19468800  0.59663100  1
  O  O20  1  0.92095300  0.40329200  0.80648100  1
  O  O21  1  0.41822300  0.59790900  0.40347400  1
  O  O22  1  0.41924300  0.80531200  0.40336900  1
  O  O23  1  0.42095300  0.59670800  0.19351900  1
  O  O24  1  0.33341200  0.47913800  0.52047400  1
  O  O25  1  0.33627100  0.04216800  0.52067700  1
  O  O26  1  0.34037300  0.47886400  0.95762100  1
  O  O27  1  0.83341200  0.52086200  0.47952600  1
  O  O28  1  0.83627100  0.95783200  0.47932300  1
  O  O29  1  0.84037300  0.52113600  0.04237900  1
  O  O30  1  0.38382600  0.05887200  0.12608000  1
  O  O31  1  0.88382600  0.94112800  0.87392000  1
loop_
_geom_bond_atom_site_label_1
_geom_bond_atom_site_label_2
_geom_bond_distance
_geom_bond_site_symmetry_2
Ni0 O21 2.009415 1_555
Ni0 O11 2.056803 1_555
Ni0 O27 2.072465 1_555
Ni0 O13 2.093813 1_555
Ni0 O24 2.117612 1_555
Ni0 O4 2.123470 1_555
Ni1 O22 2.006906 1_555
Ni1 O28 2.043208 1_555
Ni1 O14 2.048490 1_565
Ni1 O25 2.063832 1_565
Ni1 O10 2.103216 1_555
Ni1 O5 2.132968 1_555
Ni2 O23 2.018067 1_555
Ni2 O29 2.053935 1_555
Ni2 O9 2.066374 1_555
Ni2 O12 2.090052 1_554
Ni2 O26 2.096423 1_554
Ni2 O3 2.120067 1_555
Ni3 O22 2.005028 1_555
Ni3 O8 2.053317 1_555
Ni3 O28 2.076226 1_555
Ni3 O16 2.091330 1_565
Ni3 O3 2.114904 1_555
Ni3 O25 2.115197 1_565
Ni4 O21 2.014781 1_555
Ni4 O27 2.039158 1_555
Ni4 O24 2.054771 1_555
Ni4 O17 2.059850 1_555
Ni4 O7 2.114908 1_555
Ni4 O5 2.133106 1_555
Ni5 O23 2.012308 1_555
Ni5 O29 2.056314 1_555
Ni5 O6 2.066628 1_555
Ni5 O15 2.073975 1_554
Ni5 O26 2.106232 1_554
Ni5 O4 2.133169 1_555
Ni6 O18 2.009415 1_455
Ni6 O17 2.056803 1_455
Ni6 O24 2.072465 1_555
Ni6 O7 2.093813 1_555
Ni6 O27 2.117612 1_455
Ni6 O1 2.123470 1_555
Ni7 O19 2.006906 1_455
Ni7 O25 2.043208 1_555
Ni7 O8 2.048490 1_545
Ni7 O28 2.063832 1_445
Ni7 O16 2.103216 1_455
Ni7 O2 2.132968 1_555
Ni8 O20 2.018067 1_455
Ni8 O26 2.053935 1_555
Ni8 O15 2.066374 1_455
Ni8 O6 2.090052 1_556
Ni8 O29 2.096423 1_456
Ni8 O0 2.120067 1_555
Ni9 O19 2.005028 1_455
Ni9 O14 2.053317 1_455
Ni9 O25 2.076226 1_555
Ni9 O10 2.091330 1_545
Ni9 O0 2.114904 1_555
Ni9 O28 2.115197 1_445
Ni10 O18 2.014781 1_455
Ni10 O24 2.039158 1_555
Ni10 O27 2.054771 1_455
Ni10 O11 2.059850 1_555
Ni10 O13 2.114908 1_455
Ni10 O2 2.133106 1_555
Ni11 O20 2.012299 1_455
Ni11 O26 2.056305 1_555
Ni11 O12 2.066636 1_455
Ni11 O9 2.073983 1_556
Ni11 O29 2.106224 1_456
Ni11 O1 2.133176 1_555
O0 Te0 1.907756 1_555
O1 Te1 1.908052 1_555
O2 Te2 1.877585 1_555
O3 Te3 1.907756 1_555
O4 Te4 1.908052 1_555
O5 Te5 1.877585 1_555
O6 Te4 1.914478 1_455
O7 Te5 1.883618 1_455
O8 Te3 1.924711 1_455
O9 Te3 1.913279 1_455
O10 Te5 1.883697 1_455
O11 Te4 1.924043 1_455
O12 Te1 1.914478 1_555
O13 Te2 1.883618 1_555
O14 Te0 1.924711 1_555
O15 Te0 1.913279 1_555
O16 Te2 1.883697 1_555
O17 Te1 1.924043 1_555
O18 Te7 1.906513 1_655
O19 Te7 1.908216 1_655
O20 Te7 1.901850 1_655
O21 Te6 1.906513 1_555
O22 Te6 1.908216 1_555
O23 Te6 1.901850 1_555
O30 Te2 1.824301 1_555
O31 Te5 1.824301 1_555
