# generated using pymatgen
data_Ba2NbFeO6
_symmetry_space_group_name_H-M   'P 1'
_cell_length_a   5.85269204
_cell_length_b   5.85269204
_cell_length_c   19.23891100
_cell_angle_alpha   90.00000000
_cell_angle_beta   90.00000000
_cell_angle_gamma   120.00000046
_symmetry_Int_Tables_number   1
_chemical_formula_structural   Ba2NbFeO6
_chemical_formula_sum   'Ba8 Nb4 Fe4 O24'
_cell_volume   570.71917075
_cell_formula_units_Z   4
loop_
 _symmetry_equiv_pos_site_id
 _symmetry_equiv_pos_as_xyz
  1  'x, y, z'
loop_
 _atom_site_type_symbol
 _atom_site_label
 _atom_site_symmetry_multiplicity
 _atom_site_fract_x
 _atom_site_fract_y
 _atom_site_fract_z
 _atom_site_occupancy
  Ba  Ba0  1  0.00000000  0.00000000  0.50000000  1
  Ba  Ba1  1  0.00000000  0.00000000  0.00000000  1
  Ba  Ba2  1  0.33333300  0.66666700  0.75000000  1
  Ba  Ba3  1  0.66666700  0.33333300  0.25000000  1
  Ba  Ba4  1  0.33333300  0.66666700  0.35824000  1
  Ba  Ba5  1  0.66666700  0.33333300  0.64176000  1
  Ba  Ba6  1  0.66666700  0.33333300  0.85824000  1
  Ba  Ba7  1  0.33333300  0.66666700  0.14176000  1
  Nb  Nb0  1  0.33333300  0.66666700  0.93631800  1
  Nb  Nb1  1  0.66666700  0.33333300  0.06368200  1
  Nb  Nb2  1  0.66666700  0.33333300  0.43631800  1
  Nb  Nb3  1  0.33333300  0.66666700  0.56368200  1
  Fe  Fe0  1  0.00000000  0.00000000  0.31758500  1
  Fe  Fe1  1  0.00000000  0.00000000  0.68241500  1
  Fe  Fe2  1  0.00000000  0.00000000  0.81758500  1
  Fe  Fe3  1  0.00000000  0.00000000  0.18241500  1
  O  O0  1  0.50000000  0.50000000  0.50000000  1
  O  O1  1  0.50000000  0.00000000  0.50000000  1
  O  O2  1  0.00000000  0.50000000  0.50000000  1
  O  O3  1  0.50000000  0.50000000  0.00000000  1
  O  O4  1  0.50000000  0.00000000  0.00000000  1
  O  O5  1  0.00000000  0.50000000  0.00000000  1
  O  O6  1  0.15378900  0.84621100  0.25000000  1
  O  O7  1  0.15378900  0.30757800  0.25000000  1
  O  O8  1  0.69242200  0.84621100  0.25000000  1
  O  O9  1  0.84621100  0.15378900  0.75000000  1
  O  O10  1  0.84621100  0.69242200  0.75000000  1
  O  O11  1  0.30757800  0.15378900  0.75000000  1
  O  O12  1  0.17026500  0.82973500  0.87961900  1
  O  O13  1  0.17026500  0.34053000  0.87961900  1
  O  O14  1  0.65947000  0.82973500  0.87961900  1
  O  O15  1  0.82973500  0.17026500  0.12038100  1
  O  O16  1  0.82973500  0.65947000  0.12038100  1
  O  O17  1  0.34053000  0.17026500  0.12038100  1
  O  O18  1  0.82973500  0.17026500  0.37961900  1
  O  O19  1  0.82973500  0.65947000  0.37961900  1
  O  O20  1  0.34053000  0.17026500  0.37961900  1
  O  O21  1  0.17026500  0.82973500  0.62038100  1
  O  O22  1  0.17026500  0.34053000  0.62038100  1
  O  O23  1  0.65947000  0.82973500  0.62038100  1
loop_
_geom_bond_atom_site_label_1
_geom_bond_atom_site_label_2
_geom_bond_distance
_geom_bond_site_symmetry_2
Ba0 O23 2.888415 1_445
Ba0 O22 2.888415 1_555
Ba0 O19 2.888415 1_445
Ba0 O20 2.888415 1_555
Ba0 O21 2.888415 1_545
Ba0 O18 2.888415 1_455
Ba0 O0 2.926346 1_445
Ba0 O0 2.926346 1_555
Ba0 O1 2.926346 1_455
Ba0 O2 2.926346 1_555
Ba0 O2 2.926346 1_545
Ba0 O1 2.926346 1_555
Ba1 O14 2.888415 1_444
Ba1 O13 2.888415 1_554
Ba1 O16 2.888415 1_445
Ba1 O17 2.888415 1_555
Ba1 O12 2.888415 1_544
Ba1 O15 2.888415 1_455
Ba1 O3 2.926346 1_445
Ba1 O3 2.926346 1_555
Ba1 O5 2.926346 1_555
Ba1 O5 2.926346 1_545
Ba1 O4 2.926346 1_455
Ba1 O4 2.926346 1_555
Ba2 O11 2.929253 1_565
Ba2 O10 2.929253 1_455
Ba2 O9 2.929256 1_455
Ba2 O9 2.929256 1_565
Ba2 O11 2.929259 1_555
Ba2 O10 2.929259 1_555
Ba2 O21 2.991863 1_555
Ba2 O12 2.991863 1_555
Ba2 O23 2.991866 1_555
Ba2 O14 2.991866 1_555
Ba2 O22 2.991866 1_555
Ba2 O13 2.991866 1_555
Ba3 O8 2.929253 1_545
Ba3 O7 2.929253 1_655
Ba3 O6 2.929256 1_545
Ba3 O6 2.929256 1_655
Ba3 O7 2.929259 1_555
Ba3 O8 2.929259 1_555
Ba3 O15 2.991863 1_555
Ba3 O18 2.991863 1_555
Ba3 O19 2.991866 1_555
Ba3 O16 2.991866 1_555
Ba3 O20 2.991866 1_555
Ba3 O17 2.991866 1_555
Ba4 O6 2.765703 1_555
Ba4 O7 2.765706 1_555
Ba4 O8 2.765706 1_555
Ba4 O19 2.955332 1_455
Ba4 O20 2.955332 1_565
Ba4 O18 2.955335 1_455
Ba4 O18 2.955335 1_565
Ba4 O19 2.955338 1_555
Ba4 O20 2.955338 1_555
Ba4 O1 3.208224 1_565
Ba4 O2 3.208224 1_555
Ba4 O0 3.208227 1_555
Ba5 O9 2.765703 1_555
Ba5 O10 2.765706 1_555
Ba5 O11 2.765706 1_555
Ba5 O23 2.955332 1_545
Ba5 O22 2.955332 1_655
Ba5 O21 2.955335 1_545
Ba5 O21 2.955335 1_655
Ba5 O22 2.955338 1_555
Ba5 O23 2.955338 1_555
Ba5 O1 3.208224 1_555
Ba5 O2 3.208224 1_655
Ba5 O0 3.208227 1_555
Ba6 O9 2.765703 1_555
Ba6 O10 2.765706 1_555
Ba6 O11 2.765706 1_555
Ba6 O14 2.955332 1_545
Ba6 O13 2.955332 1_655
Ba6 O12 2.955335 1_545
Ba6 O12 2.955335 1_655
Ba6 O14 2.955338 1_555
Ba6 O13 2.955338 1_555
Ba6 O5 3.208224 1_656
Ba6 O4 3.208224 1_556
Ba6 O3 3.208227 1_556
Ba7 O6 2.765703 1_555
Ba7 O7 2.765706 1_555
Ba7 O8 2.765706 1_555
Ba7 O16 2.955332 1_455
Ba7 O17 2.955332 1_565
Ba7 O15 2.955335 1_455
Ba7 O15 2.955335 1_565
Ba7 O16 2.955338 1_555
Ba7 O17 2.955338 1_555
Ba7 O4 3.208224 1_565
Ba7 O5 3.208224 1_555
Ba7 O3 3.208227 1_555
Nb0 O12 1.980522 1_555
Nb0 O14 1.980526 1_555
Nb0 O13 1.980526 1_555
Nb0 O4 2.086993 1_566
Nb0 O5 2.086993 1_556
Nb0 O3 2.086998 1_556
Nb1 O15 1.980522 1_555
Nb1 O16 1.980526 1_555
Nb1 O17 1.980526 1_555
Nb1 O4 2.086993 1_555
Nb1 O5 2.086993 1_655
Nb1 O3 2.086998 1_555
Nb2 O18 1.980522 1_555
Nb2 O19 1.980526 1_555
Nb2 O20 1.980526 1_555
Nb2 O2 2.086993 1_655
Nb2 O1 2.086993 1_555
Nb2 O0 2.086998 1_555
Nb3 O21 1.980522 1_555
Nb3 O22 1.980526 1_555
Nb3 O23 1.980526 1_555
Nb3 O2 2.086993 1_555
Nb3 O1 2.086993 1_565
Nb3 O0 2.086998 1_555
Fe0 O7 2.030052 1_555
Fe0 O8 2.030052 1_445
Fe0 O6 2.030052 1_545
Fe0 O19 2.098440 1_445
Fe0 O20 2.098440 1_555
Fe0 O18 2.098440 1_455
Fe1 O10 2.030052 1_445
Fe1 O11 2.030052 1_555
Fe1 O9 2.030052 1_455
Fe1 O22 2.098440 1_555
Fe1 O23 2.098440 1_445
Fe1 O21 2.098440 1_545
Fe2 O10 2.030052 1_445
Fe2 O11 2.030052 1_555
Fe2 O9 2.030052 1_455
Fe2 O13 2.098440 1_555
Fe2 O14 2.098440 1_445
Fe2 O12 2.098440 1_545
Fe3 O7 2.030052 1_555
Fe3 O8 2.030052 1_445
Fe3 O6 2.030052 1_545
Fe3 O16 2.098440 1_445
Fe3 O17 2.098440 1_555
Fe3 O15 2.098440 1_455
