# generated using pymatgen
data_K2RuNO2F5
_symmetry_space_group_name_H-M   'P 1'
_cell_length_a   6.30837500
_cell_length_b   6.42086300
_cell_length_c   9.89469989
_cell_angle_alpha   71.06715788
_cell_angle_beta   90.00000000
_cell_angle_gamma   90.00000000
_symmetry_Int_Tables_number   1
_chemical_formula_structural   K2RuNO2F5
_chemical_formula_sum   'K4 Ru2 N2 O4 F10'
_cell_volume   379.10415367
_cell_formula_units_Z   2
loop_
 _symmetry_equiv_pos_site_id
 _symmetry_equiv_pos_as_xyz
  1  'x, y, z'
loop_
 _atom_site_type_symbol
 _atom_site_label
 _atom_site_symmetry_multiplicity
 _atom_site_fract_x
 _atom_site_fract_y
 _atom_site_fract_z
 _atom_site_occupancy
  K  K0  1  0.25000000  0.60951100  0.78097800  1
  K  K1  1  0.75000000  0.39048900  0.21902200  1
  K  K2  1  0.25000000  0.24901200  0.50197600  1
  K  K3  1  0.75000000  0.75098800  0.49802400  1
  Ru  Ru0  1  0.25000000  0.85936200  0.28127700  1
  Ru  Ru1  1  0.75000000  0.14063800  0.71872300  1
  N  N0  1  0.25000000  0.95223900  0.09552100  1
  N  N1  1  0.75000000  0.04776100  0.90447900  1
  O  O0  1  0.25000000  0.01481500  0.97037100  1
  O  O1  1  0.75000000  0.98518500  0.02962900  1
  O  O2  1  0.75000000  0.53416800  0.93166400  1
  O  O3  1  0.25000000  0.46583200  0.06833600  1
  F  F0  1  0.25000000  0.75499800  0.49000500  1
  F  F1  1  0.75000000  0.24500200  0.50999500  1
  F  F2  1  0.46978900  0.63243600  0.30246900  1
  F  F3  1  0.53021100  0.93490500  0.69753100  1
  F  F4  1  0.03021100  0.63243600  0.30246900  1
  F  F5  1  0.96978900  0.93490500  0.69753100  1
  F  F6  1  0.53021100  0.36756400  0.69753100  1
  F  F7  1  0.46978900  0.06509500  0.30246900  1
  F  F8  1  0.96978900  0.36756400  0.69753100  1
  F  F9  1  0.03021100  0.06509500  0.30246900  1
loop_
_geom_bond_atom_site_label_1
_geom_bond_atom_site_label_2
_geom_bond_distance
_geom_bond_site_symmetry_2
K0 O3 2.689496 1_556
K1 O2 2.689496 1_554
N0 O0 1.171328 1_564
N0 Ru0 1.738563 1_555
N1 O1 1.171328 1_546
N1 Ru1 1.738563 1_555
F0 Ru0 1.953567 1_555
F0 K0 2.723330 1_555
F0 K3 3.155080 1_555
F0 K3 3.155080 1_455
F0 K2 3.212383 1_565
F0 K2 3.212389 1_555
F1 Ru1 1.953567 1_555
F1 K1 2.723330 1_555
F1 K2 3.155080 1_555
F1 K2 3.155080 1_655
F1 K3 3.212383 1_545
F1 K3 3.212389 1_555
F2 Ru0 1.972599 1_555
F2 K1 2.655596 1_555
F2 K3 2.898960 1_555
F2 K2 2.954086 1_555
F3 Ru1 1.972594 1_565
F3 K0 2.655596 1_555
F3 K2 2.898960 1_565
F3 K3 2.954086 1_555
F4 Ru0 1.972599 1_555
F4 K1 2.655596 1_455
F4 K3 2.898960 1_455
F4 K2 2.954086 1_555
F5 Ru1 1.972594 1_565
F5 K0 2.655596 1_655
F5 K2 2.898960 1_665
F5 K3 2.954086 1_555
F6 Ru1 1.972599 1_555
F6 K0 2.655596 1_555
F6 K2 2.898960 1_555
F6 K3 2.954086 1_555
F7 Ru0 1.972594 1_545
F7 K1 2.655596 1_555
F7 K3 2.898960 1_545
F7 K2 2.954086 1_555
F8 Ru1 1.972599 1_555
F8 K0 2.655596 1_655
F8 K2 2.898960 1_655
F8 K3 2.954086 1_555
F9 Ru0 1.972594 1_545
F9 K1 2.655596 1_455
F9 K3 2.898960 1_445
F9 K2 2.954086 1_555
