# generated using pymatgen
data_HfMg14BO15
_symmetry_space_group_name_H-M   'P 1'
_cell_length_a   8.66726013
_cell_length_b   8.77147516
_cell_length_c   4.26812023
_cell_angle_alpha   90.00000000
_cell_angle_beta   90.00000000
_cell_angle_gamma   90.00000000
_symmetry_Int_Tables_number   1
_chemical_formula_structural   HfMg14BO15
_chemical_formula_sum   'Hf1 Mg14 B1 O15'
_cell_volume   324.48237625
_cell_formula_units_Z   1
loop_
 _symmetry_equiv_pos_site_id
 _symmetry_equiv_pos_as_xyz
  1  'x, y, z'
loop_
 _atom_site_type_symbol
 _atom_site_label
 _atom_site_symmetry_multiplicity
 _atom_site_fract_x
 _atom_site_fract_y
 _atom_site_fract_z
 _atom_site_occupancy
  Hf  Hf0  1  0.48069462  0.50000000  -0.00000000  1
  Mg  Mg0  1  0.00670109  0.50000000  -0.00000000  1
  Mg  Mg1  1  0.50271432  0.00000000  -0.00000000  1
  Mg  Mg2  1  0.99945423  0.24501492  0.50000000  1
  Mg  Mg3  1  0.99945423  0.75498508  0.50000000  1
  Mg  Mg4  1  0.49867136  0.23600123  0.50000000  1
  Mg  Mg5  1  0.49867136  0.76399877  0.50000000  1
  Mg  Mg6  1  0.23072643  0.00000000  0.50000000  1
  Mg  Mg7  1  0.23931677  0.50000000  0.50000000  1
  Mg  Mg8  1  0.75832833  0.00000000  0.50000000  1
  Mg  Mg9  1  0.75926576  0.50000000  0.50000000  1
  Mg  Mg10  1  0.23439310  0.23066755  -0.00000000  1
  Mg  Mg11  1  0.23439310  0.76933245  -0.00000000  1
  Mg  Mg12  1  0.75915496  0.26326508  -0.00000000  1
  Mg  Mg13  1  0.75915496  0.73673492  -0.00000000  1
  B  B0  1  0.94350957  0.00000000  -0.00000000  1
  O  O0  1  0.27854489  0.00000000  -0.00000000  1
  O  O1  1  0.78185963  0.00000000  -0.00000000  1
  O  O2  1  0.74619243  0.50000000  -0.00000000  1
  O  O3  1  0.24808001  0.23551227  0.50000000  1
  O  O4  1  0.24808001  0.76448773  0.50000000  1
  O  O5  1  0.75123269  0.25122561  0.50000000  1
  O  O6  1  0.75123269  0.74877439  0.50000000  1
  O  O7  1  0.98891616  0.00000000  0.50000000  1
  O  O8  1  -0.00021495  0.50000000  0.50000000  1
  O  O9  1  0.52356467  0.00000000  0.50000000  1
  O  O10  1  0.50087022  0.50000000  0.50000000  1
  O  O11  1  0.99578199  0.27009399  0.00000000  1
  O  O12  1  0.99578199  0.72990601  0.00000000  1
  O  O13  1  0.51773670  0.24694729  -0.00000000  1
  O  O14  1  0.51773670  0.75305271  -0.00000000  1
loop_
_geom_bond_atom_site_label_1
_geom_bond_atom_site_label_2
_geom_bond_distance
_geom_bond_site_symmetry_2
Hf0 O10 2.141213 1_555
Hf0 O10 2.141213 1_554
Hf0 O14 2.242744 1_555
Hf0 O13 2.242744 1_555
Hf0 O2 2.301139 1_555
Mg0 O11 2.018834 1_455
Mg0 O12 2.018834 1_455
Mg0 O8 2.134902 1_554
Mg0 O8 2.134902 1_555
Mg0 O2 2.257896 1_455
Mg1 O0 1.942935 1_555
Mg1 O9 2.141698 1_555
Mg1 O9 2.141698 1_554
Mg1 O13 2.170002 1_555
Mg1 O14 2.170002 1_545
Mg1 O1 2.419425 1_555
Mg2 O11 2.145604 1_556
Mg2 O11 2.145604 1_555
Mg2 O7 2.151082 1_555
Mg2 O5 2.152090 1_555
Mg2 O3 2.156516 1_655
Mg2 O8 2.236597 1_655
Mg3 O12 2.145604 1_556
Mg3 O12 2.145604 1_555
Mg3 O7 2.151082 1_565
Mg3 O6 2.152090 1_555
Mg3 O4 2.156516 1_655
Mg3 O8 2.236597 1_655
Mg4 O9 2.081292 1_555
Mg4 O13 2.142600 1_555
Mg4 O13 2.142600 1_556
Mg4 O3 2.171945 1_555
Mg4 O5 2.193084 1_555
Mg4 O10 2.315737 1_555
Mg5 O9 2.081292 1_565
Mg5 O14 2.142600 1_556
Mg5 O14 2.142600 1_555
Mg5 O4 2.171945 1_555
Mg5 O6 2.193084 1_555
Mg5 O10 2.315737 1_555
Mg6 O3 2.071258 1_555
Mg6 O4 2.071258 1_545
Mg6 O7 2.095833 1_455
Mg6 O0 2.173933 1_555
Mg6 O0 2.173933 1_556
Mg6 O9 2.538105 1_555
Mg7 O8 2.076084 1_555
Mg7 O10 2.266952 1_555
Mg7 O3 2.321191 1_555
Mg7 O4 2.321191 1_555
Mg8 O7 1.998565 1_555
Mg8 O9 2.034758 1_555
Mg8 O1 2.143784 1_555
Mg8 O1 2.143784 1_556
Mg8 O6 2.204477 1_545
Mg8 O5 2.204477 1_555
Mg9 O8 2.084643 1_655
Mg9 O2 2.137066 1_555
Mg9 O2 2.137066 1_556
Mg9 O6 2.183229 1_555
Mg9 O5 2.183229 1_555
Mg9 O10 2.239581 1_555
Mg10 O0 2.059165 1_555
Mg10 O11 2.096820 1_455
Mg10 O3 2.137777 1_554
Mg10 O3 2.137777 1_555
Mg10 O13 2.459961 1_555
Mg11 O0 2.059165 1_565
Mg11 O12 2.096820 1_455
Mg11 O4 2.137777 1_554
Mg11 O4 2.137777 1_555
Mg11 O14 2.459961 1_555
Mg12 O11 2.051783 1_555
Mg12 O2 2.079552 1_555
Mg12 O13 2.097325 1_555
Mg12 O5 2.137774 1_554
Mg12 O5 2.137774 1_555
Mg12 O1 2.317593 1_555
Mg13 O12 2.051783 1_555
Mg13 O2 2.079552 1_555
Mg13 O14 2.097325 1_555
Mg13 O6 2.137774 1_554
Mg13 O6 2.137774 1_555
Mg13 O1 2.317593 1_565
B0 O1 1.401062 1_555
B0 O7 2.170045 1_555
B0 O7 2.170045 1_554
