# generated using pymatgen
data_K2U(PdS2)3
_symmetry_space_group_name_H-M   'P 1'
_cell_length_a   11.04880328
_cell_length_b   9.69451738
_cell_length_c   8.69668749
_cell_angle_alpha   73.62427419
_cell_angle_beta   57.33416590
_cell_angle_gamma   49.04155991
_symmetry_Int_Tables_number   1
_chemical_formula_structural   K2U(PdS2)3
_chemical_formula_sum   'K4 U2 Pd6 S12'
_cell_volume   588.41210047
_cell_formula_units_Z   2
loop_
 _symmetry_equiv_pos_site_id
 _symmetry_equiv_pos_as_xyz
  1  'x, y, z'
loop_
 _atom_site_type_symbol
 _atom_site_label
 _atom_site_symmetry_multiplicity
 _atom_site_fract_x
 _atom_site_fract_y
 _atom_site_fract_z
 _atom_site_occupancy
  K  K0  1  0.75000000  0.75000000  0.75000000  1
  K  K1  1  0.25000000  0.25000000  0.25000000  1
  K  K2  1  0.29455500  0.70544500  0.29455500  1
  K  K3  1  0.70544500  0.29455500  0.70544500  1
  U  U0  1  0.83093400  0.83093400  0.16906600  1
  U  U1  1  0.16906600  0.16906600  0.83093400  1
  Pd  Pd0  1  0.50425100  0.17875600  0.49574900  1
  Pd  Pd1  1  0.82124400  0.49574900  0.17875600  1
  Pd  Pd2  1  0.49574900  0.82124400  0.50425100  1
  Pd  Pd3  1  0.17875600  0.50425100  0.82124400  1
  Pd  Pd4  1  0.82724000  0.17276000  0.17276000  1
  Pd  Pd5  1  0.17276000  0.82724000  0.82724000  1
  S  S0  1  0.82827400  0.96364600  0.39912500  1
  S  S1  1  0.80895500  0.39912500  0.96364600  1
  S  S2  1  0.39912500  0.80895500  0.82827400  1
  S  S3  1  0.96364600  0.82827400  0.80895500  1
  S  S4  1  0.17172600  0.03635400  0.60087500  1
  S  S5  1  0.19104500  0.60087500  0.03635400  1
  S  S6  1  0.60087500  0.19104500  0.17172600  1
  S  S7  1  0.03635400  0.17172600  0.19104500  1
  S  S8  1  0.81882200  0.59226700  0.40773300  1
  S  S9  1  0.18117800  0.40773300  0.59226700  1
  S  S10  1  0.40773300  0.18117800  0.81882200  1
  S  S11  1  0.59226700  0.81882200  0.18117800  1
loop_
_geom_bond_atom_site_label_1
_geom_bond_atom_site_label_2
_geom_bond_distance
_geom_bond_site_symmetry_2
K0 S3 3.207025 1_555
K0 S1 3.207025 1_555
K0 S0 3.207025 1_555
K0 S2 3.207025 1_555
K0 S11 3.221089 1_556
K0 S9 3.221089 1_655
K0 S10 3.221089 1_565
K0 S8 3.221089 1_555
K1 S6 3.207025 1_555
K1 S5 3.207025 1_555
K1 S4 3.207025 1_555
K1 S7 3.207025 1_555
K1 S9 3.221089 1_555
K1 S11 3.221089 1_545
K1 S8 3.221089 1_455
K1 S10 3.221089 1_554
K2 S2 3.599120 1_554
K2 S7 3.599120 1_565
K2 S0 3.599120 1_455
K2 S5 3.599120 1_555
K2 S11 3.691606 1_555
K2 S9 3.691606 1_555
K2 S4 3.799773 1_565
K2 S1 3.799773 1_554
K2 S3 3.799773 1_455
K2 S6 3.799773 1_555
K3 S4 3.599120 1_655
K3 S6 3.599120 1_556
K3 S1 3.599120 1_555
K3 S3 3.599120 1_545
K3 S8 3.691606 1_555
K3 S10 3.691606 1_555
K3 S2 3.799773 1_555
K3 S5 3.799773 1_556
K3 S7 3.799773 1_655
K3 S0 3.799773 1_545
Pd0 S10 2.408731 1_555
Pd0 S9 2.408731 1_555
Pd0 S0 2.413425 1_545
Pd0 S6 2.413425 1_555
Pd1 S8 2.408731 1_555
Pd1 S11 2.408731 1_555
Pd1 S1 2.413425 1_554
Pd1 S7 2.413425 1_655
Pd2 S8 2.408731 1_555
Pd2 S11 2.408731 1_555
Pd2 S2 2.413425 1_555
Pd2 S4 2.413425 1_565
Pd3 S10 2.408731 1_555
Pd3 S9 2.408731 1_555
Pd3 S5 2.413425 1_556
Pd3 S3 2.413425 1_455
Pd4 S7 2.393524 1_655
Pd4 S1 2.393524 1_554
Pd4 S0 2.393524 1_545
Pd4 S6 2.393524 1_555
Pd5 S2 2.393524 1_555
Pd5 S3 2.393524 1_455
Pd5 S4 2.393524 1_565
Pd5 S5 2.393524 1_556
S0 U0 2.645293 1_555
S1 U1 2.645293 1_655
S2 U1 2.645293 1_565
S3 U0 2.645293 1_556
S4 U1 2.645293 1_555
S5 U0 2.645293 1_455
S6 U0 2.645293 1_545
S7 U1 2.645293 1_554
S8 U0 2.660394 1_555
S9 U1 2.660394 1_555
S10 U1 2.660394 1_555
S11 U0 2.660394 1_555
