# generated using pymatgen
data_Rb2MgCu4H5(SO5)4
_symmetry_space_group_name_H-M   'P 1'
_cell_length_a   11.69099308
_cell_length_b   6.27608641
_cell_length_c   8.33602022
_cell_angle_alpha   90.17331625
_cell_angle_beta   64.73918213
_cell_angle_gamma   57.87055424
_symmetry_Int_Tables_number   1
_chemical_formula_structural   Rb2MgCu4H5(SO5)4
_chemical_formula_sum   'Rb2 Mg1 Cu4 H5 S4 O20'
_cell_volume   446.82041471
_cell_formula_units_Z   1
loop_
 _symmetry_equiv_pos_site_id
 _symmetry_equiv_pos_as_xyz
  1  'x, y, z'
loop_
 _atom_site_type_symbol
 _atom_site_label
 _atom_site_symmetry_multiplicity
 _atom_site_fract_x
 _atom_site_fract_y
 _atom_site_fract_z
 _atom_site_occupancy
  Rb  Rb0  1  0.99957716  0.49631314  0.49975156  1
  Rb  Rb1  1  0.50294717  0.50293140  0.49917774  1
  Mg  Mg0  1  0.00106672  0.70649566  0.99704446  1
  Cu  Cu0  1  0.26036325  0.00193293  0.00309239  1
  Cu  Cu1  1  0.28901763  0.44667106  0.00816954  1
  Cu  Cu2  1  0.71260626  0.03216387  0.99027305  1
  Cu  Cu3  1  0.73808117  0.52287800  0.99351528  1
  H  H0  1  0.25373002  0.25572238  0.78264738  1
  H  H1  1  0.31061037  0.70506739  0.21307640  1
  H  H2  1  0.48214402  0.53771346  0.01323058  1
  H  H3  1  0.69220387  0.32332619  0.79385281  1
  H  H4  1  0.74489624  0.76648098  0.21088063  1
  S  S0  1  0.41500116  0.08547607  0.28816425  1
  S  S1  1  0.05932369  0.93998163  0.72026774  1
  S  S2  1  0.94447935  0.05063027  0.27670302  1
  S  S3  1  0.58482027  0.91256047  0.71236480  1
  O  O0  1  0.04479589  0.14634283  0.21529284  1
  O  O1  1  0.05223007  0.74516875  0.20643961  1
  O  O2  1  0.31901655  0.17783538  0.19562280  1
  O  O3  1  0.31594174  0.17928271  0.49100562  1
  O  O4  1  0.18905362  0.32914293  0.91878270  1
  O  O5  1  0.35513691  0.65623875  0.07740133  1
  O  O6  1  0.15882635  0.83752796  0.51865439  1
  O  O7  1  0.51143605  0.19217110  0.23129069  1
  O  O8  1  0.15152541  0.82389902  0.81687470  1
  O  O9  1  0.48970035  0.21064093  0.76796857  1
  O  O10  1  0.52236468  0.78760586  0.22453981  1
  O  O11  1  0.85253067  0.11971680  0.17959398  1
  O  O12  1  0.47558689  0.83134224  0.77795974  1
  O  O13  1  0.84509628  0.14591397  0.47802523  1
  O  O14  1  0.64705372  0.36599008  0.92928827  1
  O  O15  1  0.80960901  0.71019464  0.07480922  1
  O  O16  1  0.68324320  0.80584635  0.50956083  1
  O  O17  1  0.68086165  0.81495929  0.80461369  1
  O  O18  1  0.95992593  0.23452732  0.78323178  1
  O  O19  1  0.95114968  0.84930818  0.78902055  1
loop_
_geom_bond_atom_site_label_1
_geom_bond_atom_site_label_2
_geom_bond_distance
_geom_bond_site_symmetry_2
Mg0 O4 2.023657 1_555
Mg0 O15 2.033995 1_456
Mg0 O19 2.113703 1_455
Mg0 O1 2.122854 1_556
Mg0 O11 2.233272 1_466
Mg0 O8 2.241270 1_555
Cu0 O0 2.014398 1_555
Cu0 O12 2.022777 1_544
Cu0 O4 2.023358 1_554
Cu0 O5 2.086982 1_545
Cu0 O2 2.449198 1_555
Cu1 O9 1.996003 1_554
Cu1 O5 2.029311 1_555
Cu1 O4 2.030253 1_554
Cu1 O1 2.112984 1_555
Cu1 O2 2.294733 1_555
Cu2 O14 1.966314 1_555
Cu2 O7 2.004776 1_556
Cu2 O15 2.029563 1_546
Cu2 O19 2.121311 1_545
Cu2 O17 2.325267 1_545
Cu3 O14 1.996588 1_555
Cu3 O15 2.016210 1_556
Cu3 O18 2.045141 1_555
Cu3 O10 2.051342 1_556
Cu3 O17 2.428921 1_555
H0 O4 0.982740 1_555
H1 O5 0.984769 1_555
H2 O5 1.090448 1_555
H2 O14 1.414952 1_554
H3 O14 0.981916 1_555
H4 O15 0.982178 1_555
O0 S2 1.495716 1_455
O0 Rb0 2.896584 1_455
O1 S2 1.549176 1_465
O1 Rb0 2.925358 1_455
O2 S0 1.496658 1_555
O2 Rb0 2.884140 1_455
O3 S0 1.464366 1_555
O3 Rb0 3.096011 1_455
O6 S1 1.456195 1_555
O6 Rb1 3.328037 1_555
O7 S0 1.514263 1_555
O7 Rb1 2.894677 1_555
O8 S1 1.500120 1_555
O8 Rb1 3.135175 1_555
O9 S3 1.514361 1_545
O9 Rb1 2.905261 1_555
O10 S0 1.510488 1_565
O10 Rb1 2.915048 1_555
O11 S2 1.499300 1_555
O11 Rb1 3.130220 1_555
O12 S3 1.512539 1_555
O12 Rb1 2.895958 1_555
O13 S2 1.454202 1_555
O13 Rb1 3.303690 1_555
O16 S3 1.464176 1_555
O16 Rb0 3.091406 1_555
O17 S3 1.495154 1_555
O17 Rb0 2.881488 1_555
O18 S1 1.493919 1_645
O18 Rb0 2.897793 1_555
O19 S1 1.549373 1_655
O19 Rb0 2.917467 1_555
