# generated using pymatgen
data_Mg2Sn
_symmetry_space_group_name_H-M   'P 1'
_cell_length_a   6.61701777
_cell_length_b   6.61701777
_cell_length_c   30.52086800
_cell_angle_alpha   90.00000000
_cell_angle_beta   90.00000000
_cell_angle_gamma   120.00001772
_symmetry_Int_Tables_number   1
_chemical_formula_structural   Mg2Sn
_chemical_formula_sum   'Mg32 Sn16'
_cell_volume   1157.31621221
_cell_formula_units_Z   16
loop_
 _symmetry_equiv_pos_site_id
 _symmetry_equiv_pos_as_xyz
  1  'x, y, z'
loop_
 _atom_site_type_symbol
 _atom_site_label
 _atom_site_symmetry_multiplicity
 _atom_site_fract_x
 _atom_site_fract_y
 _atom_site_fract_z
 _atom_site_occupancy
  Mg  Mg0_0  1  0.33333350  0.16666650  0.00000000  1
  Mg  Mg0_1  1  0.33333350  0.16666650  0.50000000  1
  Mg  Mg0_2  1  0.33333350  0.66666650  0.00000000  1
  Mg  Mg0_3  1  0.33333350  0.66666650  0.50000000  1
  Mg  Mg0_4  1  0.83333350  0.16666650  0.00000000  1
  Mg  Mg0_5  1  0.83333350  0.16666650  0.50000000  1
  Mg  Mg0_6  1  0.83333350  0.66666650  0.00000000  1
  Mg  Mg0_7  1  0.83333350  0.66666650  0.50000000  1
  Mg  Mg1_0  1  0.00000000  0.00000000  0.41697400  1
  Mg  Mg1_1  1  0.00000000  0.00000000  0.91697400  1
  Mg  Mg1_2  1  0.00000000  0.50000000  0.41697400  1
  Mg  Mg1_3  1  0.00000000  0.50000000  0.91697400  1
  Mg  Mg1_4  1  0.50000000  0.00000000  0.41697400  1
  Mg  Mg1_5  1  0.50000000  0.00000000  0.91697400  1
  Mg  Mg1_6  1  0.50000000  0.50000000  0.41697400  1
  Mg  Mg1_7  1  0.50000000  0.50000000  0.91697400  1
  Mg  Mg2_0  1  0.00000000  0.00000000  0.25000000  1
  Mg  Mg2_1  1  0.00000000  0.00000000  0.75000000  1
  Mg  Mg2_2  1  0.00000000  0.50000000  0.25000000  1
  Mg  Mg2_3  1  0.00000000  0.50000000  0.75000000  1
  Mg  Mg2_4  1  0.50000000  0.00000000  0.25000000  1
  Mg  Mg2_5  1  0.50000000  0.00000000  0.75000000  1
  Mg  Mg2_6  1  0.50000000  0.50000000  0.25000000  1
  Mg  Mg2_7  1  0.50000000  0.50000000  0.75000000  1
  Mg  Mg3_0  1  0.00000000  0.00000000  0.08302600  1
  Mg  Mg3_1  1  0.00000000  0.00000000  0.58302600  1
  Mg  Mg3_2  1  0.00000000  0.50000000  0.08302600  1
  Mg  Mg3_3  1  0.00000000  0.50000000  0.58302600  1
  Mg  Mg3_4  1  0.50000000  0.00000000  0.08302600  1
  Mg  Mg3_5  1  0.50000000  0.00000000  0.58302600  1
  Mg  Mg3_6  1  0.50000000  0.50000000  0.08302600  1
  Mg  Mg3_7  1  0.50000000  0.50000000  0.58302600  1
  Sn  Sn0_0  1  0.33333350  0.16666650  0.33335500  1
  Sn  Sn0_1  1  0.33333350  0.16666650  0.83335500  1
  Sn  Sn0_2  1  0.33333350  0.66666650  0.33335500  1
  Sn  Sn0_3  1  0.33333350  0.66666650  0.83335500  1
  Sn  Sn0_4  1  0.83333350  0.16666650  0.33335500  1
  Sn  Sn0_5  1  0.83333350  0.16666650  0.83335500  1
  Sn  Sn0_6  1  0.83333350  0.66666650  0.33335500  1
  Sn  Sn0_7  1  0.83333350  0.66666650  0.83335500  1
  Sn  Sn1_0  1  0.33333350  0.16666650  0.16664500  1
  Sn  Sn1_1  1  0.33333350  0.16666650  0.66664500  1
  Sn  Sn1_2  1  0.33333350  0.66666650  0.16664500  1
  Sn  Sn1_3  1  0.33333350  0.66666650  0.66664500  1
  Sn  Sn1_4  1  0.83333350  0.16666650  0.16664500  1
  Sn  Sn1_5  1  0.83333350  0.16666650  0.66664500  1
  Sn  Sn1_6  1  0.83333350  0.66666650  0.16664500  1
  Sn  Sn1_7  1  0.83333350  0.66666650  0.66664500  1
loop_
_geom_bond_atom_site_label_1
_geom_bond_atom_site_label_2
_geom_bond_distance
_geom_bond_site_symmetry_2
Mg0_0 Mg3_4 3.173330 1_555
Mg0_0 Mg1_5 3.173330 1_554
Mg0_0 Mg3_6 3.173331 1_555
Mg0_0 Mg3_0 3.173331 1_555
Mg0_0 Mg1_7 3.173331 1_554
Mg0_0 Mg1_1 3.173331 1_554
Mg0_0 Mg0_6 3.308508 1_445
Mg0_0 Mg0_6 3.308508 1_555
Mg0_0 Mg0_2 3.308509 1_545
Mg0_0 Mg0_4 3.308509 1_455
Mg0_0 Mg0_2 3.308509 1_555
Mg0_0 Mg0_4 3.308509 1_555
Mg0_1 Mg3_5 3.173330 1_555
Mg0_1 Mg1_4 3.173330 1_555
Mg0_1 Mg3_7 3.173331 1_555
Mg0_1 Mg3_1 3.173331 1_555
Mg0_1 Mg1_0 3.173331 1_555
Mg0_1 Mg1_6 3.173331 1_555
Mg0_1 Mg0_7 3.308508 1_555
Mg0_1 Mg0_7 3.308508 1_445
Mg0_1 Mg0_5 3.308509 1_455
Mg0_1 Mg0_3 3.308509 1_545
Mg0_1 Mg0_3 3.308509 1_555
Mg0_1 Mg0_5 3.308509 1_555
Mg0_2 Mg3_6 3.173330 1_555
Mg0_2 Mg1_7 3.173330 1_554
Mg0_2 Mg3_4 3.173331 1_565
Mg0_2 Mg3_2 3.173331 1_555
Mg0_2 Mg1_5 3.173331 1_564
Mg0_2 Mg1_3 3.173331 1_554
Mg0_2 Mg0_4 3.308508 1_565
Mg0_2 Mg0_4 3.308508 1_455
Mg0_2 Mg0_6 3.308509 1_555
Mg0_2 Mg0_6 3.308509 1_455
Mg0_3 Mg3_7 3.173330 1_555
Mg0_3 Mg1_6 3.173330 1_555
Mg0_3 Mg3_5 3.173331 1_565
Mg0_3 Mg3_3 3.173331 1_555
Mg0_3 Mg1_2 3.173331 1_555
Mg0_3 Mg1_4 3.173331 1_565
Mg0_3 Mg0_5 3.308508 1_455
Mg0_3 Mg0_5 3.308508 1_565
Mg0_3 Mg0_7 3.308509 1_555
Mg0_3 Mg0_7 3.308509 1_455
Mg0_4 Mg3_0 3.173330 1_655
Mg0_4 Mg1_1 3.173330 1_654
Mg0_4 Mg3_2 3.173331 1_655
Mg0_4 Mg3_4 3.173331 1_555
Mg0_4 Mg1_3 3.173331 1_654
Mg0_4 Mg1_5 3.173331 1_554
Mg0_4 Mg0_6 3.308509 1_545
Mg0_4 Mg0_6 3.308509 1_555
Mg0_5 Mg3_1 3.173330 1_655
Mg0_5 Mg1_0 3.173330 1_655
Mg0_5 Mg3_3 3.173331 1_655
Mg0_5 Mg3_5 3.173331 1_555
Mg0_5 Mg1_4 3.173331 1_555
Mg0_5 Mg1_2 3.173331 1_655
Mg0_5 Mg0_7 3.308509 1_545
Mg0_5 Mg0_7 3.308509 1_555
Mg0_6 Mg3_2 3.173330 1_655
Mg0_6 Mg1_3 3.173330 1_654
Mg0_6 Mg3_0 3.173331 1_665
Mg0_6 Mg3_6 3.173331 1_555
Mg0_6 Mg1_7 3.173331 1_554
Mg0_6 Mg1_1 3.173331 1_664
Mg0_7 Mg3_3 3.173330 1_655
Mg0_7 Mg1_2 3.173330 1_655
Mg0_7 Mg3_7 3.173331 1_555
Mg0_7 Mg3_1 3.173331 1_665
Mg0_7 Mg1_6 3.173331 1_555
Mg0_7 Mg1_0 3.173331 1_665
Mg1_0 Sn0_4 3.187801 1_455
Mg1_0 Sn0_6 3.187803 1_445
Mg1_0 Sn0_0 3.187803 1_555
Mg1_1 Sn0_5 3.187801 1_455
Mg1_1 Sn0_7 3.187803 1_445
Mg1_1 Sn0_1 3.187803 1_555
Mg1_2 Sn0_6 3.187801 1_455
Mg1_2 Sn0_2 3.187803 1_555
Mg1_2 Sn0_4 3.187803 1_455
Mg1_3 Sn0_7 3.187801 1_455
Mg1_3 Sn0_5 3.187803 1_455
Mg1_3 Sn0_3 3.187803 1_555
Mg1_4 Sn0_0 3.187801 1_555
Mg1_4 Sn0_2 3.187803 1_545
Mg1_4 Sn0_4 3.187803 1_555
Mg1_5 Sn0_1 3.187801 1_555
Mg1_5 Sn0_3 3.187803 1_545
Mg1_5 Sn0_5 3.187803 1_555
Mg1_6 Sn0_2 3.187801 1_555
Mg1_6 Sn0_6 3.187803 1_555
Mg1_6 Sn0_0 3.187803 1_555
Mg1_7 Sn0_3 3.187801 1_555
Mg1_7 Sn0_7 3.187803 1_555
Mg1_7 Sn0_1 3.187803 1_555
Mg2_0 Sn1_4 3.181354 1_455
Mg2_0 Sn0_4 3.181354 1_455
Mg2_0 Sn1_0 3.181355 1_555
Mg2_0 Sn1_6 3.181355 1_445
Mg2_0 Sn0_0 3.181355 1_555
Mg2_0 Sn0_6 3.181355 1_445
Mg2_1 Sn1_5 3.181354 1_455
Mg2_1 Sn0_5 3.181354 1_455
Mg2_1 Sn1_7 3.181355 1_445
Mg2_1 Sn1_1 3.181355 1_555
Mg2_1 Sn0_1 3.181355 1_555
Mg2_1 Sn0_7 3.181355 1_445
Mg2_2 Sn1_6 3.181354 1_455
Mg2_2 Sn0_6 3.181354 1_455
Mg2_2 Sn1_4 3.181355 1_455
Mg2_2 Sn1_2 3.181355 1_555
Mg2_2 Sn0_2 3.181355 1_555
Mg2_2 Sn0_4 3.181355 1_455
Mg2_3 Sn1_7 3.181354 1_455
Mg2_3 Sn0_7 3.181354 1_455
Mg2_3 Sn1_5 3.181355 1_455
Mg2_3 Sn1_3 3.181355 1_555
Mg2_3 Sn0_5 3.181355 1_455
Mg2_3 Sn0_3 3.181355 1_555
Mg2_4 Sn1_0 3.181354 1_555
Mg2_4 Sn0_0 3.181354 1_555
Mg2_4 Sn1_2 3.181355 1_545
Mg2_4 Sn1_4 3.181355 1_555
Mg2_4 Sn0_4 3.181355 1_555
Mg2_4 Sn0_2 3.181355 1_545
Mg2_5 Sn1_1 3.181354 1_555
Mg2_5 Sn0_1 3.181354 1_555
Mg2_5 Sn1_3 3.181355 1_545
Mg2_5 Sn1_5 3.181355 1_555
Mg2_5 Sn0_3 3.181355 1_545
Mg2_5 Sn0_5 3.181355 1_555
Mg2_6 Sn1_2 3.181354 1_555
Mg2_6 Sn0_2 3.181354 1_555
Mg2_6 Sn1_0 3.181355 1_555
Mg2_6 Sn1_6 3.181355 1_555
Mg2_6 Sn0_6 3.181355 1_555
Mg2_6 Sn0_0 3.181355 1_555
Mg2_7 Sn1_3 3.181354 1_555
Mg2_7 Sn0_3 3.181354 1_555
Mg2_7 Sn1_1 3.181355 1_555
Mg2_7 Sn1_7 3.181355 1_555
Mg2_7 Sn0_1 3.181355 1_555
Mg2_7 Sn0_7 3.181355 1_555
Mg3_0 Sn1_4 3.187801 1_455
Mg3_0 Sn1_0 3.187803 1_555
Mg3_0 Sn1_6 3.187803 1_445
Mg3_1 Sn1_5 3.187801 1_455
Mg3_1 Sn1_7 3.187803 1_445
Mg3_1 Sn1_1 3.187803 1_555
Mg3_2 Sn1_6 3.187801 1_455
Mg3_2 Sn1_4 3.187803 1_455
Mg3_2 Sn1_2 3.187803 1_555
Mg3_3 Sn1_7 3.187801 1_455
Mg3_3 Sn1_5 3.187803 1_455
Mg3_3 Sn1_3 3.187803 1_555
Mg3_4 Sn1_0 3.187801 1_555
Mg3_4 Sn1_4 3.187803 1_555
Mg3_4 Sn1_2 3.187803 1_545
Mg3_5 Sn1_1 3.187801 1_555
Mg3_5 Sn1_3 3.187803 1_545
Mg3_5 Sn1_5 3.187803 1_555
Mg3_6 Sn1_2 3.187801 1_555
Mg3_6 Sn1_0 3.187803 1_555
Mg3_6 Sn1_6 3.187803 1_555
Mg3_7 Sn1_3 3.187801 1_555
Mg3_7 Sn1_7 3.187803 1_555
Mg3_7 Sn1_1 3.187803 1_555
