# generated using pymatgen
data_Pb5(CO4)3
_symmetry_space_group_name_H-M   'P 1'
_cell_length_a   9.16842700
_cell_length_b   9.17803687
_cell_length_c   26.40227791
_cell_angle_alpha   90.24927458
_cell_angle_beta   89.89972579
_cell_angle_gamma   119.86286412
_symmetry_Int_Tables_number   1
_chemical_formula_structural   Pb5(CO4)3
_chemical_formula_sum   'Pb30 C18 O72'
_cell_volume   1926.68617665
_cell_formula_units_Z   6
loop_
 _symmetry_equiv_pos_site_id
 _symmetry_equiv_pos_as_xyz
  1  'x, y, z'
loop_
 _atom_site_type_symbol
 _atom_site_label
 _atom_site_symmetry_multiplicity
 _atom_site_fract_x
 _atom_site_fract_y
 _atom_site_fract_z
 _atom_site_occupancy
  Pb  Pb0  1  0.22838500  0.00133300  0.69775400  1
  Pb  Pb1  1  0.99958600  0.22684800  0.69842500  1
  Pb  Pb2  1  0.77299900  0.77314900  0.69758200  1
  Pb  Pb3  1  0.77241000  0.00063500  0.19839100  1
  Pb  Pb4  1  0.00085700  0.77307400  0.19743000  1
  Pb  Pb5  1  0.22588500  0.22735000  0.19779100  1
  Pb  Pb6  1  0.99985500  0.64953300  0.59981500  1
  Pb  Pb7  1  0.35059400  0.34949100  0.59970800  1
  Pb  Pb8  1  0.64928100  0.99991500  0.59977000  1
  Pb  Pb9  1  0.00010100  0.35046800  0.09973600  1
  Pb  Pb10  1  0.65024300  0.65015400  0.09981700  1
  Pb  Pb11  1  0.34976200  0.99879000  0.09965100  1
  Pb  Pb12  1  0.00107400  0.00196300  0.81884400  1
  Pb  Pb13  1  0.99915200  0.00157700  0.31869900  1
  Pb  Pb14  1  0.33672500  0.68204400  0.78137600  1
  Pb  Pb15  1  0.67586400  0.34630900  0.78348500  1
  Pb  Pb16  1  0.65500400  0.33639600  0.28117500  1
  Pb  Pb17  1  0.32978600  0.67572700  0.28341900  1
  Pb  Pb18  1  0.07272300  0.44660400  0.89031400  1
  Pb  Pb19  1  0.55398300  0.62243800  0.88965100  1
  Pb  Pb20  1  0.44845700  0.07470700  0.89052600  1
  Pb  Pb21  1  0.93096700  0.55325200  0.38923600  1
  Pb  Pb22  1  0.62700700  0.07319400  0.39015200  1
  Pb  Pb23  1  0.37476900  0.44892900  0.39048300  1
  Pb  Pb24  1  0.99366100  0.68041500  0.99025900  1
  Pb  Pb25  1  0.32491500  0.32120900  0.99479000  1
  Pb  Pb26  1  0.68306400  0.00630300  0.99393400  1
  Pb  Pb27  1  0.00353200  0.32479300  0.49456600  1
  Pb  Pb28  1  0.67720900  0.68341500  0.49372700  1
  Pb  Pb29  1  0.31322400  0.99351400  0.49019600  1
  C  C0  1  0.00198000  0.00151200  0.97390200  1
  C  C1  1  0.00004600  0.00148900  0.47374500  1
  C  C2  1  0.66686100  0.33349700  0.62048100  1
  C  C3  1  0.33360900  0.66694100  0.62035700  1
  C  C4  1  0.33320700  0.66685900  0.12043100  1
  C  C5  1  0.66649900  0.33327400  0.12026900  1
  C  C6  1  0.32850300  0.32922900  0.79651400  1
  C  C7  1  0.66980500  0.00022400  0.79684700  1
  C  C8  1  0.00158000  0.67125500  0.79707300  1
  C  C9  1  0.66986900  0.67006800  0.29676100  1
  C  C10  1  0.33070200  0.00186500  0.29696900  1
  C  C11  1  0.99942800  0.32872300  0.29636900  1
  C  C12  1  0.33280400  0.66909200  0.98453000  1
  C  C13  1  0.67275400  0.33875400  0.98495600  1
  C  C14  1  0.66331400  0.33293900  0.48439600  1
  C  C15  1  0.33339300  0.67239400  0.48487800  1
  C  C16  1  0.00019700  0.99973500  0.59858000  1
  C  C17  1  0.99977000  0.99962600  0.09865100  1
  O  O0  1  0.47102500  0.47098700  0.79564100  1
  O  O1  1  0.52661200  0.99931300  0.79654600  1
  O  O2  1  0.00225000  0.52865900  0.79784600  1
  O  O3  1  0.52788700  0.52719200  0.29660800  1
  O  O4  1  0.47373400  0.00197500  0.29773400  1
  O  O5  1  0.99989200  0.47121400  0.29560400  1
  O  O6  1  0.32850700  0.18712600  0.79718300  1
  O  O7  1  0.81075200  0.14122600  0.79651600  1
  O  O8  1  0.85945700  0.67004300  0.79623600  1
  O  O9  1  0.66939100  0.85773800  0.79720400  1
  O  O10  1  0.18640200  0.32908100  0.79653300  1
  O  O11  1  0.14320400  0.81220700  0.79673700  1
  O  O12  1  0.66941200  0.81095800  0.29627000  1
  O  O13  1  0.19018500  0.86001800  0.29613000  1
  O  O14  1  0.14114200  0.32808200  0.29702800  1
  O  O15  1  0.33105800  0.14343300  0.29660900  1
  O  O16  1  0.81160500  0.66910100  0.29709300  1
  O  O17  1  0.85786100  0.18712600  0.29629500  1
  O  O18  1  0.33064100  0.65054700  0.86616700  1
  O  O19  1  0.65507400  0.32407800  0.86857900  1
  O  O20  1  0.68019100  0.33051900  0.36585800  1
  O  O21  1  0.33040300  0.65458700  0.36833100  1
  O  O22  1  0.99982800  0.14153800  0.59938900  1
  O  O23  1  0.85845400  0.85765600  0.59917700  1
  O  O24  1  0.14269700  0.99969300  0.59878600  1
  O  O25  1  0.00035600  0.85740600  0.09883100  1
  O  O26  1  0.14165700  0.14121500  0.09948400  1
  O  O27  1  0.85764900  0.99940800  0.09922100  1
  O  O28  1  0.80731200  0.33054000  0.61978500  1
  O  O29  1  0.66911700  0.47652800  0.62005800  1
  O  O30  1  0.52362200  0.19317900  0.61992100  1
  O  O31  1  0.19316300  0.52417800  0.61991500  1
  O  O32  1  0.33090600  0.80763100  0.61994700  1
  O  O33  1  0.47681400  0.66934000  0.61957700  1
  O  O34  1  0.19259200  0.66970800  0.11984100  1
  O  O35  1  0.33074300  0.52380200  0.11971600  1
  O  O36  1  0.47607400  0.80706000  0.12005000  1
  O  O37  1  0.80701800  0.47618500  0.11986300  1
  O  O38  1  0.66943400  0.19293000  0.11959400  1
  O  O39  1  0.52350600  0.33111800  0.11972900  1
  O  O40  1  0.00276900  0.63713900  0.90969400  1
  O  O41  1  0.35691000  0.35808800  0.91027400  1
  O  O42  1  0.62431700  0.98361900  0.90986600  1
  O  O43  1  0.99893400  0.35636300  0.41012200  1
  O  O44  1  0.64090300  0.62510100  0.40980500  1
  O  O45  1  0.36627200  0.00346000  0.40951600  1
  O  O46  1  0.19588600  0.52312400  0.98081800  1
  O  O47  1  0.47895600  0.67703000  0.98249500  1
  O  O48  1  0.32429800  0.80436200  0.99088800  1
  O  O49  1  0.81047400  0.33366600  0.98737000  1
  O  O50  1  0.52750800  0.19803700  0.98035500  1
  O  O51  1  0.67268400  0.47998700  0.98833700  1
  O  O52  1  0.80132500  0.47872200  0.48245600  1
  O  O53  1  0.51987900  0.32476700  0.49063900  1
  O  O54  1  0.67292200  0.19578800  0.48064500  1
  O  O55  1  0.19236200  0.67280800  0.48809800  1
  O  O56  1  0.47593400  0.81003000  0.48740200  1
  O  O57  1  0.32948200  0.52712500  0.48028300  1
  O  O58  1  0.00081500  0.73709400  0.68070500  1
  O  O59  1  0.26228700  0.26179400  0.68048600  1
  O  O60  1  0.73579600  0.99891000  0.68069600  1
  O  O61  1  0.99935600  0.26232000  0.18042500  1
  O  O62  1  0.73811500  0.73713800  0.18059900  1
  O  O63  1  0.26357200  0.99977200  0.18068400  1
  O  O64  1  0.99985400  0.99960300  0.73321000  1
  O  O65  1  0.00003300  0.99984900  0.23308400  1
  O  O66  1  0.14378400  0.00131000  0.97421600  1
  O  O67  1  0.00023100  0.14187900  0.97379000  1
  O  O68  1  0.86033400  0.85893000  0.97534300  1
  O  O69  1  0.85806200  0.00043000  0.47363400  1
  O  O70  1  0.00122400  0.85984400  0.47519800  1
  O  O71  1  0.14169700  0.14298100  0.47402400  1
loop_
_geom_bond_atom_site_label_1
_geom_bond_atom_site_label_2
_geom_bond_distance
_geom_bond_site_symmetry_2
C0 O67 1.296369 1_555
C0 O66 1.301085 1_555
C0 O68 1.307030 1_445
C1 O69 1.296966 1_455
C1 O71 1.301361 1_555
C1 O70 1.306165 1_545
C2 O28 1.301537 1_555
C2 O29 1.302665 1_555
C2 O30 1.303487 1_555
C3 O31 1.301837 1_555
C3 O33 1.302269 1_555
C3 O32 1.303867 1_555
C4 O36 1.301226 1_555
C4 O35 1.301936 1_555
C4 O34 1.302557 1_555
C5 O39 1.301383 1_555
C5 O38 1.301735 1_555
C5 O37 1.302913 1_555
C6 O10 1.302166 1_555
C6 O6 1.304441 1_555
C6 O0 1.306855 1_555
C7 O7 1.295925 1_555
C7 O9 1.305931 1_545
C7 O1 1.308749 1_545
C8 O8 1.297768 1_455
C8 O11 1.298811 1_555
C8 O2 1.312068 1_555
C9 O12 1.295306 1_555
C9 O16 1.303983 1_555
C9 O3 1.309266 1_555
C10 O15 1.297770 1_555
C10 O13 1.297966 1_545
C10 O4 1.311067 1_555
C11 O17 1.301453 1_555
C11 O14 1.302381 1_655
C11 O5 1.305919 1_555
C12 O48 1.292353 1_555
C12 O46 1.305659 1_555
C12 O47 1.306259 1_555
C13 O49 1.288262 1_555
C13 O51 1.299243 1_555
C13 O50 1.320066 1_555
C14 O53 1.289704 1_555
C14 O52 1.307030 1_555
C14 O54 1.308204 1_555
C15 O56 1.289826 1_555
C15 O55 1.297567 1_555
C15 O57 1.320851 1_555
C16 O22 1.303243 1_465
C16 O23 1.304623 1_455
C16 O24 1.306714 1_555
C17 O27 1.302092 1_555
C17 O26 1.303018 1_665
C17 O25 1.308013 1_655
O0 Pb15 2.659763 1_555
O0 Pb19 2.755923 1_555
O0 Pb14 2.791695 1_555
O1 Pb14 2.571842 1_555
O1 Pb20 2.760738 1_565
O1 Pb15 2.793205 1_565
O2 Pb15 2.628785 1_455
O2 Pb14 2.697497 1_555
O2 Pb18 2.729654 1_555
O3 Pb16 2.572031 1_555
O3 Pb23 2.762045 1_555
O3 Pb17 2.784010 1_555
O4 Pb17 2.628127 1_545
O4 Pb16 2.702447 1_555
O4 Pb22 2.727499 1_555
O5 Pb17 2.668917 1_655
O5 Pb21 2.744033 1_555
O5 Pb16 2.789024 1_555
O6 Pb12 2.673809 1_555
O6 Pb15 2.788322 1_555
O7 Pb12 2.693941 1_655
O7 Pb15 2.741533 1_555
O8 Pb15 2.605309 1_555
O8 Pb12 2.714851 1_665
O9 Pb14 2.679231 1_555
O9 Pb12 2.705029 1_665
O10 Pb12 2.679479 1_555
O10 Pb14 2.849063 1_555
O11 Pb14 2.616072 1_555
O11 Pb12 2.705633 1_565
O12 Pb13 2.698381 1_565
O12 Pb17 2.739138 1_555
O13 Pb17 2.600237 1_555
O13 Pb13 2.714124 1_465
O14 Pb13 2.670118 1_455
O14 Pb17 2.795215 1_555
O15 Pb16 2.624445 1_555
O15 Pb13 2.711150 1_455
O16 Pb16 2.680914 1_555
O16 Pb13 2.712314 1_565
O17 Pb13 2.671419 1_555
O17 Pb16 2.835536 1_555
O18 Pb14 2.255545 1_555
O18 Pb18 2.258123 1_555
O18 Pb19 2.275076 1_555
O19 Pb20 2.202875 1_555
O19 Pb15 2.255942 1_555
O20 Pb16 2.251756 1_555
O20 Pb22 2.256599 1_555
O20 Pb21 2.271488 1_555
O21 Pb23 2.201218 1_555
O21 Pb17 2.251351 1_555
O22 Pb1 2.726538 1_555
O22 Pb8 2.803383 1_545
O22 Pb7 2.805836 1_655
O23 Pb2 2.714936 1_555
O23 Pb6 2.792163 1_555
O23 Pb8 2.806457 1_555
O24 Pb0 2.727667 1_565
O24 Pb7 2.801118 1_565
O24 Pb6 2.802407 1_455
O25 Pb4 2.719754 1_555
O25 Pb11 2.794106 1_555
O25 Pb10 2.800440 1_455
O26 Pb5 2.709113 1_555
O26 Pb11 2.798753 1_545
O26 Pb9 2.802671 1_555
O27 Pb3 2.732726 1_565
O27 Pb10 2.796684 1_555
O27 Pb9 2.810069 1_665
O28 Pb6 2.613271 1_555
O28 Pb8 2.682718 1_545
O29 Pb7 2.604951 1_555
O29 Pb6 2.684924 1_555
O30 Pb8 2.604117 1_545
O30 Pb7 2.671277 1_555
O31 Pb6 2.604937 1_455
O31 Pb7 2.689419 1_555
O32 Pb8 2.606053 1_555
O32 Pb6 2.685809 1_455
O33 Pb7 2.614900 1_555
O33 Pb8 2.685595 1_555
O34 Pb9 2.611806 1_555
O34 Pb11 2.675835 1_555
O35 Pb10 2.611265 1_555
O35 Pb9 2.682269 1_555
O36 Pb11 2.601470 1_555
O36 Pb10 2.681337 1_555
O37 Pb9 2.602511 1_655
O37 Pb10 2.681634 1_555
O38 Pb11 2.615115 1_545
O38 Pb9 2.681862 1_655
O39 Pb10 2.612172 1_555
O39 Pb11 2.696680 1_545
O40 Pb24 2.171253 1_455
O40 Pb18 2.199828 1_555
O41 Pb25 2.255046 1_555
O41 Pb19 2.256131 1_555
O42 Pb20 2.215468 1_565
O42 Pb26 2.269033 1_565
O43 Pb27 2.252683 1_655
O43 Pb21 2.255907 1_555
O44 Pb23 2.212834 1_555
O44 Pb28 2.263088 1_555
O45 Pb29 2.176285 1_545
O45 Pb22 2.204669 1_555
O46 Pb18 2.585188 1_555
O47 Pb19 2.657011 1_555
O47 Pb26 2.662378 1_565
O48 Pb26 2.861763 1_565
O49 Pb26 2.632593 1_555
O50 Pb20 2.568490 1_555
O50 Pb26 2.786737 1_555
O52 Pb28 2.652516 1_555
O52 Pb21 2.670775 1_555
O52 Pb27 2.854724 1_655
O53 Pb28 2.862197 1_555
O54 Pb22 2.580705 1_555
O54 Pb27 2.674144 1_655
O55 Pb27 2.779480 1_555
O56 Pb28 2.630981 1_555
O57 Pb23 2.566566 1_555
O57 Pb27 2.645205 1_555
O57 Pb28 2.791595 1_555
O58 Pb6 2.277088 1_455
O58 Pb2 2.313992 1_455
O58 Pb0 2.322114 1_565
O59 Pb7 2.282935 1_555
O59 Pb0 2.299585 1_555
O59 Pb1 2.314381 1_455
O60 Pb8 2.282070 1_555
O60 Pb2 2.306700 1_555
O60 Pb1 2.324175 1_565
O61 Pb9 2.280900 1_655
O61 Pb5 2.301143 1_655
O61 Pb3 2.313583 1_555
O62 Pb10 2.277293 1_555
O62 Pb4 2.306610 1_655
O62 Pb3 2.324110 1_565
O63 Pb11 2.280969 1_555
O63 Pb4 2.310794 1_555
O63 Pb5 2.322952 1_565
O64 Pb12 2.260936 1_665
O64 Pb1 2.283690 1_565
O64 Pb2 2.283745 1_555
O64 Pb0 2.286233 1_665
O65 Pb13 2.260446 1_465
O65 Pb3 2.283887 1_465
O65 Pb4 2.284030 1_555
O65 Pb5 2.284810 1_565
O67 Pb26 2.585377 1_455
O68 Pb26 2.625389 1_565
O69 Pb28 2.588894 1_545
O69 Pb27 2.642174 1_655
O70 Pb28 2.626376 1_455
O71 Pb27 2.603471 1_555
