# generated using pymatgen
data_ZnCo(GeO3)2
_symmetry_space_group_name_H-M   'P 1'
_cell_length_a   7.72282663
_cell_length_b   9.67889049
_cell_length_c   7.72115424
_cell_angle_alpha   109.73353527
_cell_angle_beta   74.23260360
_cell_angle_gamma   75.85118991
_symmetry_Int_Tables_number   1
_chemical_formula_structural   ZnCo(GeO3)2
_chemical_formula_sum   'Zn4 Co4 Ge8 O24'
_cell_volume   485.47035281
_cell_formula_units_Z   4
loop_
 _symmetry_equiv_pos_site_id
 _symmetry_equiv_pos_as_xyz
  1  'x, y, z'
loop_
 _atom_site_type_symbol
 _atom_site_label
 _atom_site_symmetry_multiplicity
 _atom_site_fract_x
 _atom_site_fract_y
 _atom_site_fract_z
 _atom_site_occupancy
  Zn  Zn0  1  0.88123000  0.87526500  0.24372500  1
  Zn  Zn1  1  0.38123900  0.37524700  0.24382800  1
  Zn  Zn2  1  0.61879800  0.62472500  0.75617000  1
  Zn  Zn3  1  0.11871900  0.12482000  0.75622900  1
  Co  Co0  1  0.72422500  0.37434700  0.90087600  1
  Co  Co1  1  0.77579100  0.12559200  0.09908500  1
  Co  Co2  1  0.22419000  0.87450200  0.90086400  1
  Co  Co3  1  0.27566600  0.62587400  0.09936000  1
  Ge  Ge0  1  0.53323600  0.67765800  0.38954300  1
  Ge  Ge1  1  0.03318000  0.17774600  0.38959500  1
  Ge  Ge2  1  0.53789800  0.07233900  0.78899000  1
  Ge  Ge3  1  0.03785300  0.57220700  0.78893100  1
  Ge  Ge4  1  0.96675400  0.82228200  0.61048500  1
  Ge  Ge5  1  0.46684400  0.32229800  0.61040900  1
  Ge  Ge6  1  0.96214100  0.42764900  0.21098400  1
  Ge  Ge7  1  0.46216100  0.92776400  0.21106300  1
  O  O0  1  0.79105400  0.62368300  0.30319800  1
  O  O1  1  0.29095300  0.12369000  0.30327900  1
  O  O2  1  0.57068100  0.12625800  0.58515800  1
  O  O3  1  0.07053400  0.62630900  0.58529400  1
  O  O4  1  0.70895900  0.87630700  0.69677100  1
  O  O5  1  0.20906000  0.37626700  0.69668700  1
  O  O6  1  0.92931800  0.37374600  0.41483900  1
  O  O7  1  0.42945900  0.87368400  0.41472400  1
  O  O8  1  0.19250700  0.43693200  0.13343000  1
  O  O9  1  0.69255900  0.93712500  0.13338100  1
  O  O10  1  0.05376500  0.81281100  0.37041500  1
  O  O11  1  0.55373800  0.31276300  0.37032700  1
  O  O12  1  0.30755400  0.06299900  0.86658000  1
  O  O13  1  0.80741700  0.56289600  0.86659800  1
  O  O14  1  0.44628800  0.68703400  0.62948700  1
  O  O15  1  0.94627400  0.18722900  0.62966600  1
  O  O16  1  0.48293500  0.54794200  0.20054600  1
  O  O17  1  0.98292900  0.04807600  0.20061100  1
  O  O18  1  0.59745600  0.20197400  0.96876100  1
  O  O19  1  0.09725200  0.70200700  0.96878300  1
  O  O20  1  0.01692300  0.95209000  0.79954600  1
  O  O21  1  0.51715900  0.45187700  0.79935400  1
  O  O22  1  0.90255000  0.29802600  0.03126300  1
  O  O23  1  0.40275000  0.79796300  0.03116600  1
loop_
_geom_bond_atom_site_label_1
_geom_bond_atom_site_label_2
_geom_bond_distance
_geom_bond_site_symmetry_2
Co0 O22 2.052839 1_556
Co0 O21 2.055866 1_555
Co0 O15 2.138887 1_555
Co0 O13 2.149468 1_555
Co0 O18 2.264259 1_555
Co0 O16 2.269354 1_556
Co1 O18 2.052722 1_554
Co1 O17 2.056288 1_555
Co1 O11 2.139179 1_555
Co1 O9 2.148895 1_545
Co1 O22 2.264584 1_555
Co1 O20 2.268183 1_644
Co2 O23 2.054381 1_556
Co2 O20 2.056140 1_555
Co2 O14 2.140710 1_555
Co2 O12 2.149627 1_565
Co2 O19 2.266159 1_555
Co2 O17 2.269558 1_466
Co3 O19 2.053840 1_554
Co3 O16 2.056435 1_555
Co3 O10 2.137382 1_555
Co3 O8 2.152486 1_555
Co3 O23 2.263933 1_555
Co3 O21 2.272103 1_554
Ge0 O14 1.752715 1_555
Ge0 O16 1.779320 1_555
Ge0 O7 1.789620 1_555
Ge0 O0 1.793509 1_555
Ge1 O15 1.753193 1_455
Ge1 O17 1.778804 1_455
Ge1 O6 1.789314 1_455
Ge1 O1 1.793106 1_555
Ge2 O12 1.751455 1_555
Ge2 O18 1.779202 1_555
Ge2 O4 1.789778 1_545
Ge2 O2 1.793335 1_555
Ge3 O13 1.752053 1_455
Ge3 O19 1.779603 1_555
Ge3 O5 1.789502 1_555
Ge3 O3 1.793046 1_555
Ge4 O10 1.753299 1_655
Ge4 O20 1.779441 1_655
Ge4 O3 1.789126 1_655
Ge4 O4 1.793304 1_555
Ge5 O11 1.753064 1_555
Ge5 O21 1.778490 1_555
Ge5 O2 1.789617 1_555
Ge5 O5 1.793283 1_555
Ge6 O8 1.751362 1_655
Ge6 O22 1.779071 1_555
Ge6 O0 1.789873 1_555
Ge6 O6 1.793397 1_555
Ge7 O9 1.751989 1_555
Ge7 O23 1.779880 1_555
Ge7 O1 1.789439 1_565
Ge7 O7 1.793083 1_555
O8 Zn1 1.949596 1_555
O9 Zn0 1.949373 1_555
O10 Zn0 1.952330 1_455
O11 Zn1 1.951048 1_555
O12 Zn3 1.950313 1_555
O13 Zn2 1.949456 1_555
O14 Zn2 1.951707 1_555
O15 Zn3 1.950902 1_655
O16 Zn1 2.097322 1_555
O17 Zn0 2.097969 1_545
O18 Zn1 2.099963 1_556
O19 Zn0 2.098928 1_456
O20 Zn3 2.098136 1_565
O21 Zn2 2.098239 1_555
O22 Zn3 2.099538 1_654
O23 Zn2 2.099162 1_554
