# generated using pymatgen
data_Si(H3C)2
_symmetry_space_group_name_H-M   'P 1'
_cell_length_a   9.84761552
_cell_length_b   10.35561743
_cell_length_c   26.28352002
_cell_angle_alpha   88.86560169
_cell_angle_beta   87.61363063
_cell_angle_gamma   61.60990338
_symmetry_Int_Tables_number   1
_chemical_formula_structural   Si(H3C)2
_chemical_formula_sum   'Si22 H132 C44'
_cell_volume   2355.93656539
_cell_formula_units_Z   22
loop_
 _symmetry_equiv_pos_site_id
 _symmetry_equiv_pos_as_xyz
  1  'x, y, z'
loop_
 _atom_site_type_symbol
 _atom_site_label
 _atom_site_symmetry_multiplicity
 _atom_site_fract_x
 _atom_site_fract_y
 _atom_site_fract_z
 _atom_site_occupancy
  Si  Si0  1  0.60851523  0.39385894  0.26032280  1
  Si  Si1  1  0.00237417  0.60614106  0.76032280  1
  Si  Si2  1  0.74888737  0.15603226  0.29799019  1
  Si  Si3  1  0.90491964  0.84396774  0.79799019  1
  Si  Si4  1  0.64726989  0.16507028  0.38354670  1
  Si  Si5  1  0.81234017  0.83492972  0.88354670  1
  Si  Si6  1  0.42182277  0.39774292  0.38737103  1
  Si  Si7  1  0.81956569  0.60225708  0.88737103  1
  Si  Si8  1  0.36452071  0.46302064  0.30129973  1
  Si  Si9  1  0.82754135  0.53697936  0.80129973  1
  Si  Si10  1  0.62286888  0.43199685  0.16936279  1
  Si  Si11  1  0.05486573  0.56800315  0.66936279  1
  Si  Si12  1  0.45725140  0.38291463  0.11934940  1
  Si  Si13  1  0.84016603  0.61708537  0.61934940  1
  Si  Si14  1  0.56345694  0.68274080  0.15383901  1
  Si  Si15  1  0.24619774  0.31725920  0.65383901  1
  Si  Si16  1  0.87668131  0.28953481  0.13224519  1
  Si  Si17  1  0.16621612  0.71046519  0.63224519  1
  Si  Si18  1  0.81703514  0.15343870  0.44801082  1
  Si  Si19  1  0.97047384  0.84656130  0.94801082  1
  Si  Si20  1  0.59033652  0.96720141  0.39984583  1
  Si  Si21  1  0.55753793  0.03279859  0.89984583  1
  H  H0  1  0.62408918  0.62129027  0.28666777  1
  H  H1  1  0.24537945  0.37870973  0.78666777  1
  H  H2  1  0.71130766  0.47718650  0.33163115  1
  H  H3  1  0.18849416  0.52281350  0.83163115  1
  H  H4  1  0.81132598  0.47148595  0.27334398  1
  H  H5  1  0.28281192  0.52851405  0.77334398  1
  H  H6  1  0.01375324  0.07806507  0.26101529  1
  H  H7  1  0.09181831  0.92193493  0.76101529  1
  H  H8  1  0.97343732  0.20203430  0.31227215  1
  H  H9  1  0.17547162  0.79796570  0.81227215  1
  H  H10  1  0.02565724  0.01483713  0.32470766  1
  H  H11  1  0.04049437  0.98516287  0.82470766  1
  H  H12  1  0.77074806  0.90762218  0.28117718  1
  H  H13  1  0.67837024  0.09237782  0.78117718  1
  H  H14  1  0.61323455  0.04818871  0.24835670  1
  H  H15  1  0.66142326  0.95181129  0.74835670  1
  H  H16  1  0.80611903  0.98786259  0.22520335  1
  H  H17  1  0.79398161  0.01213741  0.72520335  1
  H  H18  1  0.49823553  0.51235908  0.45725157  1
  H  H19  1  0.01059461  0.48764092  0.95725157  1
  H  H20  1  0.53216065  0.57354772  0.39656024  1
  H  H21  1  0.10570837  0.42645228  0.89656024  1
  H  H22  1  0.34039896  0.64362124  0.42257480  1
  H  H23  1  0.98402020  0.35637876  0.92257480  1
  H  H24  1  0.17417516  0.50896704  0.43824177  1
  H  H25  1  0.68314220  0.49103296  0.93824177  1
  H  H26  1  0.18188165  0.36385350  0.40130957  1
  H  H27  1  0.54573515  0.63614650  0.90130957  1
  H  H28  1  0.28906255  0.32436661  0.45742584  1
  H  H29  1  0.61342916  0.67563339  0.95742584  1
  H  H30  1  0.26822746  0.35471114  0.23620306  1
  H  H31  1  0.62293860  0.64528886  0.73620306  1
  H  H32  1  0.33967216  0.23316030  0.28900044  1
  H  H33  1  0.57283246  0.76683970  0.78900044  1
  H  H34  1  0.15718861  0.39362717  0.29425067  1
  H  H35  1  0.55081578  0.60637283  0.79425067  1
  H  H36  1  0.10649919  0.67971987  0.31631130  1
  H  H37  1  0.78621906  0.32028013  0.81631130  1
  H  H38  1  0.24842663  0.74002012  0.30955596  1
  H  H39  1  0.98844675  0.25997988  0.80955596  1
  H  H40  1  0.18394830  0.68924249  0.25494135  1
  H  H41  1  0.87319079  0.31075751  0.75494135  1
  H  H42  1  0.40539160  0.17528728  0.10703895  1
  H  H43  1  0.58067888  0.82471272  0.60703895  1
  H  H44  1  0.59434474  0.10816601  0.13034270  1
  H  H45  1  0.70251076  0.89183399  0.63034270  1
  H  H46  1  0.43044295  0.19082630  0.17295774  1
  H  H47  1  0.62126925  0.80917370  0.67295774  1
  H  H48  1  0.22009248  0.58875935  0.16343730  1
  H  H49  1  0.80885183  0.41124065  0.66343730  1
  H  H50  1  0.21401518  0.60659464  0.09615327  1
  H  H51  1  0.82060983  0.39340536  0.59615327  1
  H  H52  1  0.17227583  0.47496145  0.12674116  1
  H  H53  1  0.64723728  0.52503855  0.62674116  1
  H  H54  1  0.44599635  0.32539215  0.02996485  1
  H  H55  1  0.77138850  0.67460785  0.52996485  1
  H  H56  1  0.46248200  0.48853172  0.03238099  1
  H  H57  1  0.95101372  0.51146828  0.53238099  1
  H  H58  1  0.62887607  0.31445054  0.03844569  1
  H  H59  1  0.94332662  0.68554946  0.53844569  1
  H  H60  1  0.28938261  0.82218994  0.18604493  1
  H  H61  1  0.11157254  0.17781006  0.68604493  1
  H  H62  1  0.41595716  0.79032392  0.23672810  1
  H  H63  1  0.20628107  0.20967608  0.73672810  1
  H  H64  1  0.38718117  0.92811533  0.19053275  1
  H  H65  1  0.31529650  0.07188467  0.69053275  1
  H  H66  1  0.49742172  0.85006490  0.07982527  1
  H  H67  1  0.34748662  0.14993510  0.57982527  1
  H  H68  1  0.58220078  0.66616761  0.05768905  1
  H  H69  1  0.24836839  0.33383239  0.55768905  1
  H  H70  1  0.38542664  0.75699318  0.07996933  1
  H  H71  1  0.14241983  0.24300682  0.57996933  1
  H  H72  1  0.71183206  0.82194483  0.15469871  1
  H  H73  1  0.53377690  0.17805517  0.65469871  1
  H  H74  1  0.78668359  0.67763652  0.20015426  1
  H  H75  1  0.46432011  0.32236348  0.70015426  1
  H  H76  1  0.83274560  0.63908698  0.13419837  1
  H  H77  1  0.47183258  0.36091302  0.63419837  1
  H  H78  1  0.02192986  0.30521712  0.05591472  1
  H  H79  1  0.32714698  0.69478288  0.55591472  1
  H  H80  1  0.83708935  0.33726562  0.03795477  1
  H  H81  1  0.17435496  0.66273438  0.53795477  1
  H  H82  1  0.85900021  0.48016200  0.06648944  1
  H  H83  1  0.33916220  0.51983800  0.56648944  1
  H  H84  1  0.95749788  0.02658372  0.15705069  1
  H  H85  1  0.98408160  0.97341628  0.65705069  1
  H  H86  1  0.84595151  0.07436967  0.10155253  1
  H  H87  1  0.92032118  0.92563033  0.60155253  1
  H  H88  1  0.04040974  0.04094466  0.09735453  1
  H  H89  1  0.08135439  0.95905534  0.59735453  1
  H  H90  1  0.13978207  0.24919399  0.14997755  1
  H  H91  1  0.38897606  0.75080601  0.64997755  1
  H  H92  1  0.99949870  0.40493891  0.18429567  1
  H  H93  1  0.40443761  0.59506109  0.68429567  1
  H  H94  1  0.04980871  0.22485801  0.20645277  1
  H  H95  1  0.27466672  0.77514199  0.70645277  1
  H  H96  1  0.00359147  0.24981116  0.45612520  1
  H  H97  1  0.25340263  0.75018884  0.95612520  1
  H  H98  1  0.91498813  0.30400398  0.39647155  1
  H  H99  1  0.21899211  0.69599602  0.89647155  1
  H  H100  1  0.81252545  0.39715085  0.45294787  1
  H  H101  1  0.20967631  0.60284915  0.95294787  1
  H  H102  1  0.06970473  0.97522928  0.48100706  1
  H  H103  1  0.04493401  0.02477072  0.98100706  1
  H  H104  1  0.95962234  0.88393041  0.47026121  1
  H  H105  1  0.84355275  0.11606959  0.97026121  1
  H  H106  1  0.05647590  0.92277394  0.41825159  1
  H  H107  1  0.97924984  0.07722606  0.91825159  1
  H  H108  1  0.64184572  0.14467348  0.52014868  1
  H  H109  1  0.78651921  0.85532652  0.02014868  1
  H  H110  1  0.80005249  0.16274846  0.54229020  1
  H  H111  1  0.96280095  0.83725154  0.04229020  1
  H  H112  1  0.63863736  0.31772408  0.51736616  1
  H  H113  1  0.95636143  0.68227592  0.01736616  1
  H  H114  1  0.75712535  0.69886559  0.41341675  1
  H  H115  1  0.45599094  0.30113441  0.91341675  1
  H  H116  1  0.78359490  0.74795480  0.35025791  1
  H  H117  1  0.53154970  0.25204520  0.85025791  1
  H  H118  1  0.87625339  0.78246282  0.40101746  1
  H  H119  1  0.65871621  0.21753718  0.90101746  1
  H  H120  1  0.47360939  0.88853471  0.47014035  1
  H  H121  1  0.36214410  0.11146529  0.97014035  1
  H  H122  1  0.60022297  0.94614091  0.49607622  1
  H  H123  1  0.54636388  0.05385909  0.99607622  1
  H  H124  1  0.41319936  0.07869801  0.47669237  1
  H  H125  1  0.49189737  0.92130199  0.97669237  1
  H  H126  1  0.32439075  0.06687759  0.36452001  1
  H  H127  1  0.39126834  0.93312241  0.86452001  1
  H  H128  1  0.46870273  0.95730178  0.31803973  1
  H  H129  1  0.42600452  0.04269822  0.81803973  1
  H  H130  1  0.42034771  0.87269617  0.37009652  1
  H  H131  1  0.29304388  0.12730383  0.87009652  1
  C  C0  1  0.69665678  0.50224088  0.29073941  1
  C  C1  1  0.19889767  0.49775912  0.79073941  1
  C  C2  1  0.96034117  0.10835281  0.29945499  1
  C  C3  1  0.06869397  0.89164719  0.79945499  1
  C  C4  1  0.73227572  0.01081349  0.25987883  1
  C  C5  1  0.74308920  0.98918651  0.75987883  1
  C  C6  1  0.45376179  0.54451972  0.41893438  1
  C  C7  1  0.99828151  0.45548028  0.91893438  1
  C  C8  1  0.25090364  0.39723065  0.42411436  1
  C  C9  1  0.64813430  0.60276935  0.92411436  1
  C  C10  1  0.27537601  0.34912308  0.27784564  1
  C  C11  1  0.62449909  0.65087692  0.77784564  1
  C  C12  1  0.21249036  0.66257345  0.29506309  1
  C  C13  1  0.87506381  0.33742655  0.79506309  1
  C  C14  1  0.47456006  0.19627153  0.13427765  1
  C  C15  1  0.67083159  0.80372847  0.63427765  1
  C  C16  1  0.24656441  0.52696414  0.12757861  1
  C  C17  1  0.77352856  0.47303586  0.62757861  1
  C  C18  1  0.50502744  0.37790739  0.04857436  1
  C  C19  1  0.88293482  0.62209261  0.54857436  1
  C  C20  1  0.39871945  0.81777302  0.19612027  1
  C  C21  1  0.21649247  0.18222698  0.69612027  1
  C  C22  1  0.50132165  0.74295555  0.08635477  1
  C  C23  1  0.24427720  0.25704445  0.58635477  1
  C  C24  1  0.74034333  0.70697161  0.16182724  1
  C  C25  1  0.44731494  0.29302839  0.66182724  1
  C  C26  1  0.89824698  0.36145181  0.06715088  1
  C  C27  1  0.25969879  0.63854819  0.56715088  1
  C  C28  1  0.93331541  0.08940787  0.12134848  1
  C  C29  1  0.02272329  0.91059213  0.62134848  1
  C  C30  1  0.02995107  0.29307059  0.17221533  1
  C  C31  1  0.32302166  0.70692941  0.67221533  1
  C  C32  1  0.89374552  0.28897828  0.43697125  1
  C  C33  1  0.18272380  0.71102172  0.93697125  1
  C  C34  1  0.99150987  0.96534995  0.45444176  1
  C  C35  1  0.95685981  0.03465005  0.95444176  1
  C  C36  1  0.71322632  0.19873209  0.51279108  1
  C  C37  1  0.91195842  0.80126791  0.01279108  1
  C  C38  1  0.76962072  0.78255705  0.39025515  1
  C  C39  1  0.55217777  0.21744295  0.89025515  1
  C  C40  1  0.51277986  0.97202587  0.46734499  1
  C  C41  1  0.48480573  0.02797413  0.96734499  1
  C  C42  1  0.43636845  0.96778758  0.35885926  1
  C  C43  1  0.40415603  0.03221242  0.85885926  1
loop_
_geom_bond_atom_site_label_1
_geom_bond_atom_site_label_2
_geom_bond_distance
_geom_bond_site_symmetry_2
Si0 Si10 2.424706 1_555
Si1 Si11 2.424706 1_555
Si2 Si4 2.408067 1_555
Si3 Si5 2.408067 1_555
Si4 Si6 2.376695 1_555
Si5 Si7 2.376695 1_555
Si10 Si12 2.374780 1_555
Si10 Si16 2.392254 1_555
Si10 Si14 2.405083 1_555
Si11 Si13 2.374780 1_455
Si11 Si17 2.392254 1_555
Si11 Si15 2.405083 1_555
Si18 Si4 2.390916 1_555
Si19 Si5 2.390916 1_555
Si20 Si4 2.394617 1_565
Si21 Si5 2.394617 1_545
C0 H0 1.097890 1_555
C0 H4 1.098355 1_555
C0 H2 1.099798 1_555
C0 Si0 1.916230 1_555
C1 H1 1.097890 1_555
C1 H5 1.098355 1_555
C1 H3 1.099798 1_555
C1 Si1 1.916230 1_555
C2 H8 1.098547 1_555
C2 H6 1.098732 1_655
C2 H10 1.099928 1_655
C2 Si2 1.899875 1_555
C3 H9 1.098547 1_555
C3 H7 1.098732 1_555
C3 H11 1.099928 1_555
C3 Si3 1.899875 1_455
C4 H16 1.097703 1_545
C4 H12 1.099006 1_545
C4 H14 1.099635 1_555
C4 Si2 1.897076 1_555
C5 H17 1.097703 1_565
C5 H13 1.099006 1_565
C5 H15 1.099635 1_555
C5 Si3 1.897076 1_555
C6 H18 1.096241 1_555
C6 H20 1.099147 1_555
C6 H22 1.101877 1_555
C6 Si6 1.903606 1_555
C7 H19 1.096241 1_655
C7 H21 1.099147 1_655
C7 H23 1.101877 1_555
C7 Si7 1.903606 1_555
C8 H26 1.098303 1_555
C8 H28 1.099426 1_555
C8 H24 1.099962 1_555
C8 Si6 1.907510 1_555
C9 H27 1.098303 1_555
C9 H29 1.099426 1_555
C9 H25 1.099963 1_555
C9 Si7 1.907510 1_555
C10 H30 1.098316 1_555
C10 H32 1.098821 1_555
C10 H34 1.099500 1_555
C10 Si8 1.897450 1_555
C11 H31 1.098316 1_555
C11 H33 1.098821 1_555
C11 H35 1.099500 1_555
C11 Si9 1.897450 1_555
C12 H40 1.098482 1_555
C12 H38 1.098533 1_555
C12 H36 1.100911 1_555
C12 Si8 1.898329 1_555
C13 H41 1.098482 1_555
C13 H39 1.098533 1_555
C13 H37 1.100911 1_555
C13 Si9 1.898329 1_555
C14 H44 1.097595 1_555
C14 H46 1.099884 1_555
C14 H42 1.100572 1_555
C14 Si12 1.892352 1_555
C15 H45 1.097595 1_555
C15 H47 1.099884 1_555
C15 H43 1.100572 1_555
C15 Si13 1.892352 1_555
C16 H52 1.096414 1_555
C16 H50 1.099406 1_555
C16 H48 1.100246 1_555
C16 Si12 1.899717 1_555
C17 H53 1.096414 1_555
C17 H51 1.099406 1_555
C17 H49 1.100246 1_555
C17 Si13 1.899717 1_555
C18 H54 1.098979 1_555
C18 H58 1.099049 1_555
C18 H56 1.099169 1_555
C18 Si12 1.895306 1_555
C19 H55 1.098979 1_555
C19 H59 1.099049 1_555
C19 H57 1.099169 1_555
C19 Si13 1.895306 1_555
C20 H62 1.098166 1_555
C20 H60 1.099068 1_555
C20 H64 1.100653 1_555
C20 Si14 1.891112 1_555
C21 H63 1.098166 1_555
C21 H61 1.099068 1_555
C21 H65 1.100653 1_555
C21 Si15 1.891112 1_555
C22 H68 1.098101 1_555
C22 H70 1.099572 1_555
C22 H66 1.101689 1_555
C22 Si14 1.895543 1_555
C23 H69 1.098101 1_555
C23 H71 1.099571 1_555
C23 H67 1.101689 1_555
C23 Si15 1.895543 1_555
C24 H76 1.098370 1_555
C24 H72 1.099621 1_555
C24 H74 1.099846 1_555
C24 Si14 1.894593 1_555
C25 H77 1.098370 1_555
C25 H73 1.099621 1_555
C25 H75 1.099846 1_555
C25 Si15 1.894593 1_555
C26 H80 1.097202 1_555
C26 H82 1.099455 1_555
C26 H78 1.100993 1_655
C26 Si16 1.896482 1_555
C27 H81 1.097202 1_555
C27 H83 1.099455 1_555
C27 H79 1.100993 1_555
C27 Si17 1.896482 1_555
C28 H86 1.096824 1_555
C28 H84 1.098923 1_555
C28 H88 1.102563 1_655
C28 Si16 1.897142 1_555
C29 H87 1.096825 1_455
C29 H85 1.098923 1_455
C29 H89 1.102563 1_555
C29 Si17 1.897142 1_555
C30 H94 1.097784 1_555
C30 H90 1.099283 1_555
C30 H92 1.099573 1_455
C30 Si16 1.889244 1_455
C31 H95 1.097784 1_555
C31 H91 1.099283 1_555
C31 H93 1.099573 1_555
C31 Si17 1.889244 1_555
C32 H98 1.098603 1_555
C32 H96 1.099144 1_655
C32 H100 1.099789 1_555
C32 Si18 1.897058 1_555
C33 H99 1.098603 1_555
C33 H97 1.099144 1_555
C33 H101 1.099789 1_555
C33 Si19 1.897058 1_455
C34 H106 1.098259 1_655
C34 H104 1.099732 1_555
C34 H102 1.101571 1_655
C34 Si18 1.898210 1_565
C35 H107 1.098259 1_555
C35 H105 1.099732 1_555
C35 H103 1.101571 1_655
C35 Si19 1.898210 1_545
C36 H108 1.097037 1_555
C36 H112 1.100089 1_555
C36 H110 1.100850 1_555
C36 Si18 1.895988 1_555
C37 H109 1.097037 1_555
C37 H113 1.100089 1_555
C37 H111 1.100850 1_555
C37 Si19 1.895988 1_554
C38 H118 1.098376 1_555
C38 H116 1.099308 1_555
C38 H114 1.100524 1_555
C38 Si20 1.899612 1_555
C39 H119 1.098376 1_555
C39 H117 1.099308 1_555
C39 H115 1.100524 1_555
C39 Si21 1.899612 1_555
C40 H124 1.096733 1_565
C40 H122 1.100117 1_555
C40 H120 1.101817 1_555
C40 Si20 1.894117 1_555
C41 H125 1.096733 1_545
C41 H123 1.100117 1_555
C41 H121 1.101817 1_555
C41 Si21 1.894117 1_555
C42 H126 1.098830 1_565
C42 H128 1.098880 1_555
C42 H130 1.101888 1_555
C42 Si20 1.893800 1_555
C43 H127 1.098830 1_545
C43 H129 1.098880 1_555
C43 H131 1.101888 1_555
C43 Si21 1.893800 1_555
