# generated using pymatgen
data_MgN(ClO2)3
_symmetry_space_group_name_H-M   'P 1'
_cell_length_a   6.65310262
_cell_length_b   6.65310262
_cell_length_c   15.09261633
_cell_angle_alpha   80.85491757
_cell_angle_beta   80.85491757
_cell_angle_gamma   42.72672110
_symmetry_Int_Tables_number   1
_chemical_formula_structural   MgN(ClO2)3
_chemical_formula_sum   'Mg2 N2 Cl6 O12'
_cell_volume   446.62797840
_cell_formula_units_Z   2
loop_
 _symmetry_equiv_pos_site_id
 _symmetry_equiv_pos_as_xyz
  1  'x, y, z'
loop_
 _atom_site_type_symbol
 _atom_site_label
 _atom_site_symmetry_multiplicity
 _atom_site_fract_x
 _atom_site_fract_y
 _atom_site_fract_z
 _atom_site_occupancy
  Mg  Mg0  1  0.00000000  0.00000000  0.50000000  1
  Mg  Mg1  1  0.00000000  0.00000000  0.00000000  1
  N  N0  1  0.63054100  0.36945900  0.75000000  1
  N  N1  1  0.36945900  0.63054100  0.25000000  1
  Cl  Cl0  1  0.50000000  0.50000000  0.50000000  1
  Cl  Cl1  1  0.50000000  0.50000000  0.00000000  1
  Cl  Cl2  1  0.71318300  0.09337100  0.70933800  1
  Cl  Cl3  1  0.90662900  0.28681700  0.79066200  1
  Cl  Cl4  1  0.28681700  0.90662900  0.29066200  1
  Cl  Cl5  1  0.09337100  0.71318300  0.20933800  1
  O  O0  1  0.36060400  0.02004200  0.61683500  1
  O  O1  1  0.97995800  0.63939600  0.88316500  1
  O  O2  1  0.63939600  0.97995800  0.38316500  1
  O  O3  1  0.02004200  0.36060400  0.11683500  1
  O  O4  1  0.19114900  0.15953800  0.55466100  1
  O  O5  1  0.84046200  0.80885100  0.94533900  1
  O  O6  1  0.80885100  0.84046200  0.44533900  1
  O  O7  1  0.15953800  0.19114900  0.05466100  1
  O  O8  1  0.04084100  0.10395000  0.37085300  1
  O  O9  1  0.89605000  0.95915900  0.12914700  1
  O  O10  1  0.95915900  0.89605100  0.62914700  1
  O  O11  1  0.10395000  0.04084100  0.87085300  1
loop_
_geom_bond_atom_site_label_1
_geom_bond_atom_site_label_2
_geom_bond_distance
_geom_bond_site_symmetry_2
Mg0 O10 2.007638 1_445
Mg0 O8 2.007640 1_555
Mg0 O4 2.453475 1_555
Mg0 O6 2.453475 1_445
Mg1 O9 2.007640 1_445
Mg1 O11 2.007640 1_554
Mg1 O7 2.453475 1_555
Mg1 O5 2.453475 1_444
Cl0 Mg0 2.423601 1_655
Cl0 Mg0 2.423601 1_565
Cl1 Mg1 2.423601 1_655
Cl1 Mg1 2.423601 1_565
Cl2 O10 1.607927 1_545
Cl2 N0 1.679339 1_555
Cl3 O11 1.607929 1_655
Cl3 N0 1.679339 1_555
Cl4 O8 1.607929 1_565
Cl4 N1 1.679339 1_555
Cl5 O9 1.607929 1_455
Cl5 N1 1.679339 1_555
O0 O4 1.238994 1_555
O1 O5 1.238994 1_555
O2 O6 1.238994 1_555
O3 O7 1.238994 1_555
