# generated using pymatgen
data_V2NiP2H6O13
_symmetry_space_group_name_H-M   'P 1'
_cell_length_a   9.52082200
_cell_length_b   9.82418500
_cell_length_c   10.42843700
_cell_angle_alpha   90.00000000
_cell_angle_beta   90.00000000
_cell_angle_gamma   90.00000000
_symmetry_Int_Tables_number   1
_chemical_formula_structural   V2NiP2H6O13
_chemical_formula_sum   'V8 Ni4 P8 H24 O52'
_cell_volume   975.41672884
_cell_formula_units_Z   4
loop_
 _symmetry_equiv_pos_site_id
 _symmetry_equiv_pos_as_xyz
  1  'x, y, z'
loop_
 _atom_site_type_symbol
 _atom_site_label
 _atom_site_symmetry_multiplicity
 _atom_site_fract_x
 _atom_site_fract_y
 _atom_site_fract_z
 _atom_site_occupancy
  V  V0  1  0.25000000  0.22393500  0.65525400  1
  V  V1  1  0.25000000  0.27606500  0.15525400  1
  V  V2  1  0.75000000  0.77606500  0.34474600  1
  V  V3  1  0.75000000  0.72393500  0.84474600  1
  V  V4  1  0.25000000  0.91159800  0.47008600  1
  V  V5  1  0.25000000  0.58840200  0.97008600  1
  V  V6  1  0.75000000  0.08840200  0.52991400  1
  V  V7  1  0.75000000  0.41159800  0.02991400  1
  Ni  Ni0  1  0.25000000  0.87249400  0.75151100  1
  Ni  Ni1  1  0.25000000  0.62750600  0.25151100  1
  Ni  Ni2  1  0.75000000  0.12750600  0.24848900  1
  Ni  Ni3  1  0.75000000  0.37249400  0.74848900  1
  P  P0  1  0.55030300  0.81951600  0.59505900  1
  P  P1  1  0.94969700  0.68048400  0.09505900  1
  P  P2  1  0.05030300  0.18048400  0.40494100  1
  P  P3  1  0.44969700  0.31951600  0.90494100  1
  P  P4  1  0.44969700  0.18048400  0.40494100  1
  P  P5  1  0.05030300  0.31951600  0.90494100  1
  P  P6  1  0.94969700  0.81951600  0.59505900  1
  P  P7  1  0.55030300  0.68048400  0.09505900  1
  H  H0  1  0.47617000  0.88705200  0.90132700  1
  H  H1  1  0.02383000  0.61294800  0.40132700  1
  H  H2  1  0.97617000  0.11294800  0.09867300  1
  H  H3  1  0.52383000  0.38705200  0.59867300  1
  H  H4  1  0.52383000  0.11294800  0.09867300  1
  H  H5  1  0.97617000  0.38705200  0.59867300  1
  H  H6  1  0.02383000  0.88705200  0.90132700  1
  H  H7  1  0.47617000  0.61294800  0.40132700  1
  H  H8  1  0.43218000  0.03643900  0.85076300  1
  H  H9  1  0.06782000  0.46356100  0.35076300  1
  H  H10  1  0.93218000  0.96356100  0.14923700  1
  H  H11  1  0.56782000  0.53643900  0.64923700  1
  H  H12  1  0.56782000  0.96356100  0.14923700  1
  H  H13  1  0.93218000  0.53643900  0.64923700  1
  H  H14  1  0.06782000  0.03643900  0.85076300  1
  H  H15  1  0.43218000  0.46356100  0.35076300  1
  H  H16  1  0.25000000  0.51658200  0.71342400  1
  H  H17  1  0.25000000  0.98341800  0.21342400  1
  H  H18  1  0.75000000  0.48341800  0.28657600  1
  H  H19  1  0.75000000  0.01658200  0.78657600  1
  H  H20  1  0.25000000  0.49710600  0.56030500  1
  H  H21  1  0.25000000  0.00289400  0.06030500  1
  H  H22  1  0.75000000  0.50289400  0.43969500  1
  H  H23  1  0.75000000  0.99710600  0.93969500  1
  O  O0  1  0.39542600  0.03398400  0.40085400  1
  O  O1  1  0.10457400  0.46601600  0.90085400  1
  O  O2  1  0.89542600  0.96601600  0.59914600  1
  O  O3  1  0.60457400  0.53398400  0.09914600  1
  O  O4  1  0.60457400  0.96601600  0.59914600  1
  O  O5  1  0.89542600  0.53398400  0.09914600  1
  O  O6  1  0.10457400  0.03398400  0.40085400  1
  O  O7  1  0.39542600  0.46601600  0.90085400  1
  O  O8  1  0.38529000  0.81941300  0.59740500  1
  O  O9  1  0.11471000  0.68058700  0.09740500  1
  O  O10  1  0.88529000  0.18058700  0.40259500  1
  O  O11  1  0.61471000  0.31941300  0.90259500  1
  O  O12  1  0.61471000  0.18058700  0.40259500  1
  O  O13  1  0.88529000  0.31941300  0.90259500  1
  O  O14  1  0.11471000  0.81941300  0.59740500  1
  O  O15  1  0.38529000  0.68058700  0.09740500  1
  O  O16  1  0.59546500  0.74347300  0.47134800  1
  O  O17  1  0.90453500  0.75652700  0.97134800  1
  O  O18  1  0.09546500  0.25652700  0.52865200  1
  O  O19  1  0.40453500  0.24347300  0.02865200  1
  O  O20  1  0.40453500  0.25652700  0.52865200  1
  O  O21  1  0.09546500  0.24347300  0.02865200  1
  O  O22  1  0.90453500  0.74347300  0.47134800  1
  O  O23  1  0.59546500  0.75652700  0.97134800  1
  O  O24  1  0.25000000  0.05091000  0.64121800  1
  O  O25  1  0.25000000  0.44909000  0.14121800  1
  O  O26  1  0.75000000  0.94909000  0.35878200  1
  O  O27  1  0.75000000  0.55091000  0.85878200  1
  O  O28  1  0.25000000  0.69767400  0.84683000  1
  O  O29  1  0.25000000  0.80232600  0.34683000  1
  O  O30  1  0.75000000  0.30232600  0.15317000  1
  O  O31  1  0.75000000  0.19767400  0.65317000  1
  O  O32  1  0.59827100  0.73721100  0.71323200  1
  O  O33  1  0.90172900  0.76278900  0.21323200  1
  O  O34  1  0.09827100  0.26278900  0.28676800  1
  O  O35  1  0.40172900  0.23721100  0.78676800  1
  O  O36  1  0.40172900  0.26278900  0.28676800  1
  O  O37  1  0.09827100  0.23721100  0.78676800  1
  O  O38  1  0.90172900  0.73721100  0.71323200  1
  O  O39  1  0.59827100  0.76278900  0.21323200  1
  O  O40  1  0.39651400  0.94755500  0.87911700  1
  O  O41  1  0.10348600  0.55244500  0.37911700  1
  O  O42  1  0.89651400  0.05244500  0.12088300  1
  O  O43  1  0.60348600  0.44755500  0.62088300  1
  O  O44  1  0.60348600  0.05244500  0.12088300  1
  O  O45  1  0.89651400  0.44755500  0.62088300  1
  O  O46  1  0.10348600  0.94755500  0.87911700  1
  O  O47  1  0.39651400  0.55244500  0.37911700  1
  O  O48  1  0.25000000  0.45005700  0.64324600  1
  O  O49  1  0.25000000  0.04994300  0.14324600  1
  O  O50  1  0.75000000  0.54994300  0.35675400  1
  O  O51  1  0.75000000  0.95005700  0.85675400  1
loop_
_geom_bond_atom_site_label_1
_geom_bond_atom_site_label_2
_geom_bond_distance
_geom_bond_site_symmetry_2
Ni0 O28 1.984383 1_555
Ni0 O46 2.064089 1_555
Ni0 O40 2.064089 1_555
Ni0 O24 2.096474 1_565
Ni0 O14 2.124568 1_555
Ni0 O8 2.124568 1_555
Ni1 O29 1.984383 1_555
Ni1 O47 2.064089 1_555
Ni1 O41 2.064089 1_555
Ni1 O25 2.096474 1_555
Ni1 O9 2.124568 1_555
Ni1 O15 2.124568 1_555
Ni2 O30 1.984383 1_555
Ni2 O42 2.064089 1_555
Ni2 O44 2.064089 1_555
Ni2 O26 2.096474 1_545
Ni2 O12 2.124568 1_555
Ni2 O10 2.124568 1_555
Ni3 O31 1.984383 1_555
Ni3 O45 2.064089 1_555
Ni3 O43 2.064089 1_555
Ni3 O27 2.096474 1_555
Ni3 O11 2.124568 1_555
Ni3 O13 2.124568 1_555
H0 O40 0.991012 1_555
H1 O41 0.991012 1_555
H2 O42 0.991012 1_555
H3 O43 0.991012 1_555
H4 O44 0.991012 1_555
H5 O45 0.991012 1_555
H6 O46 0.991012 1_555
H7 O47 0.991012 1_555
H8 O40 0.982466 1_545
H9 O41 0.982466 1_555
H10 O42 0.982466 1_565
H11 O43 0.982466 1_555
H12 O44 0.982466 1_565
H13 O45 0.982466 1_555
H14 O46 0.982466 1_545
H15 O47 0.982466 1_555
H16 O48 0.981189 1_555
H17 O49 0.981189 1_565
H18 O50 0.981189 1_555
H19 O51 0.981189 1_545
H20 O48 0.980701 1_555
H21 O49 0.980701 1_555
H22 O50 0.980701 1_555
H23 O51 0.980701 1_555
O0 P4 1.529778 1_555
O0 V4 1.970770 1_545
O1 P5 1.529778 1_555
O1 V5 1.970770 1_555
O2 P6 1.529778 1_555
O2 V6 1.970770 1_565
O3 P7 1.529778 1_555
O3 V7 1.970770 1_555
O4 P0 1.529778 1_555
O4 V6 1.970770 1_565
O5 P1 1.529778 1_555
O5 V7 1.970770 1_555
O6 P2 1.529778 1_555
O6 V4 1.970770 1_545
O7 P3 1.529778 1_555
O7 V5 1.970770 1_555
O8 P0 1.571250 1_555
O8 V4 2.059662 1_555
O9 P1 1.571250 1_455
O9 V5 2.059662 1_554
O10 P2 1.571250 1_655
O10 V6 2.059662 1_555
O11 P3 1.571250 1_555
O11 V7 2.059662 1_556
O12 P4 1.571250 1_555
O12 V6 2.059662 1_555
O13 P5 1.571250 1_655
O13 V7 2.059662 1_556
O14 P6 1.571250 1_455
O14 V4 2.059662 1_555
O15 P7 1.571250 1_555
O15 V5 2.059662 1_554
O16 P0 1.551571 1_555
O16 V2 2.002582 1_555
O17 P1 1.551571 1_556
O17 V3 2.002582 1_555
O18 P2 1.551571 1_555
O18 V0 2.002582 1_555
O19 P3 1.551571 1_554
O19 V1 2.002582 1_555
O20 P4 1.551571 1_555
O20 V0 2.002582 1_555
O21 P5 1.551571 1_554
O21 V1 2.002582 1_555
O22 P6 1.551571 1_555
O22 V2 2.002582 1_555
O23 P7 1.551571 1_556
O23 V3 2.002582 1_555
O24 V0 1.706120 1_555
O24 V4 2.249017 1_545
O25 V1 1.706120 1_555
O25 V5 2.249017 1_554
O26 V2 1.706120 1_555
O26 V6 2.249017 1_565
O27 V3 1.706120 1_555
O27 V7 2.249017 1_556
O28 V5 1.674691 1_555
O29 V4 1.674691 1_555
O30 V7 1.674691 1_555
O31 V6 1.674691 1_555
O32 P0 1.543075 1_555
O32 V3 1.996199 1_555
O33 P1 1.543075 1_555
O33 V2 1.996199 1_555
O34 P2 1.543075 1_555
O34 V1 1.996199 1_555
O35 P3 1.543075 1_555
O35 V0 1.996199 1_555
O36 P4 1.543075 1_555
O36 V1 1.996199 1_555
O37 P5 1.543075 1_555
O37 V0 1.996199 1_555
O38 P6 1.543075 1_555
O38 V3 1.996199 1_555
O39 P7 1.543075 1_555
O39 V2 1.996199 1_555
O48 V0 2.224991 1_555
O49 V1 2.224991 1_555
O50 V2 2.224991 1_555
O51 V3 2.224991 1_555
