# generated using pymatgen
data_Mg(BiO2)4
_symmetry_space_group_name_H-M   'P 1'
_cell_length_a   7.00340903
_cell_length_b   7.00340903
_cell_length_c   10.60664846
_cell_angle_alpha   63.17238469
_cell_angle_beta   63.17238469
_cell_angle_gamma   28.38901325
_symmetry_Int_Tables_number   1
_chemical_formula_structural   Mg(BiO2)4
_chemical_formula_sum   'Mg1 Bi4 O8'
_cell_volume   218.91146804
_cell_formula_units_Z   1
loop_
 _symmetry_equiv_pos_site_id
 _symmetry_equiv_pos_as_xyz
  1  'x, y, z'
loop_
 _atom_site_type_symbol
 _atom_site_label
 _atom_site_symmetry_multiplicity
 _atom_site_fract_x
 _atom_site_fract_y
 _atom_site_fract_z
 _atom_site_occupancy
  Mg  Mg0  1  0.69562800  0.69562800  0.79680900  1
  Bi  Bi0  1  0.37180700  0.37180700  0.87156200  1
  Bi  Bi1  1  0.88270200  0.88270200  0.46210100  1
  Bi  Bi2  1  0.12341100  0.12341100  0.56267000  1
  Bi  Bi3  1  0.63023000  0.63023000  0.17667000  1
  O  O0  1  0.12063500  0.12063500  0.30933500  1
  O  O1  1  0.54916800  0.54916800  0.76706600  1
  O  O2  1  0.44254400  0.44254400  0.30977600  1
  O  O3  1  0.87440800  0.87440800  0.73510200  1
  O  O4  1  0.84483800  0.84483800  0.01461600  1
  O  O5  1  0.24157300  0.24157300  0.64716000  1
  O  O6  1  0.19619400  0.19619400  0.93211500  1
  O  O7  1  0.73189800  0.73189800  0.43891000  1
loop_
_geom_bond_atom_site_label_1
_geom_bond_atom_site_label_2
_geom_bond_distance
_geom_bond_site_symmetry_2
Mg0 O1 2.153839 1_555
Mg0 O3 2.200607 1_555
Mg0 O5 2.221695 1_565
Mg0 O5 2.221695 1_655
Mg0 O6 2.240360 1_565
Mg0 O6 2.240360 1_655
Bi0 O1 2.131576 1_555
Bi0 O6 2.161764 1_555
Bi0 O4 2.206418 1_546
Bi0 O4 2.206418 1_456
Bi0 O3 2.235580 1_545
Bi0 O3 2.235580 1_455
Bi1 O7 2.173233 1_555
Bi1 O2 2.235524 1_655
Bi1 O2 2.235524 1_565
Bi1 O5 2.640539 1_655
Bi1 O5 2.640539 1_565
Bi2 O5 2.171731 1_555
Bi2 O7 2.245472 1_545
Bi2 O7 2.245472 1_455
Bi2 O1 2.575023 1_545
Bi2 O1 2.575023 1_455
Bi2 O0 2.704789 1_555
Bi3 O0 2.185302 1_655
Bi3 O0 2.185302 1_565
Bi3 O2 2.266855 1_555
Bi3 O4 2.604487 1_555
