# generated using pymatgen
data_Mg14SnSb
_symmetry_space_group_name_H-M   'P 1'
_cell_length_a   6.39136211
_cell_length_b   6.39136159
_cell_length_c   10.38105905
_cell_angle_alpha   90.00000000
_cell_angle_beta   90.00000000
_cell_angle_gamma   120.00000266
_symmetry_Int_Tables_number   1
_chemical_formula_structural   Mg14SnSb
_chemical_formula_sum   'Mg14 Sn1 Sb1'
_cell_volume   367.24770737
_cell_formula_units_Z   1
loop_
 _symmetry_equiv_pos_site_id
 _symmetry_equiv_pos_as_xyz
  1  'x, y, z'
loop_
 _atom_site_type_symbol
 _atom_site_label
 _atom_site_symmetry_multiplicity
 _atom_site_fract_x
 _atom_site_fract_y
 _atom_site_fract_z
 _atom_site_occupancy
  Mg  Mg0  1  0.16627812  0.83313856  0.12500000  1
  Mg  Mg1  1  0.16550092  0.83274996  0.62500000  1
  Mg  Mg2  1  0.66686144  0.33372188  0.12500000  1
  Mg  Mg3  1  0.66725004  0.33449908  0.62500000  1
  Mg  Mg4  1  0.66686144  0.83313856  0.12500000  1
  Mg  Mg5  1  0.66725004  0.83274996  0.62500000  1
  Mg  Mg6  1  0.33550940  0.16449060  0.37505064  1
  Mg  Mg7  1  0.33550940  0.16449060  0.87494936  1
  Mg  Mg8  1  0.33550940  0.67101980  0.37505064  1
  Mg  Mg9  1  0.33550940  0.67101980  0.87494936  1
  Mg  Mg10  1  0.82898020  0.16449060  0.37505064  1
  Mg  Mg11  1  0.82898020  0.16449060  0.87494936  1
  Mg  Mg12  1  0.83333300  0.66666700  0.37568375  1
  Mg  Mg13  1  0.83333300  0.66666700  0.87431625  1
  Sn  Sn0  1  0.16666700  0.33333300  0.12500000  1
  Sb  Sb0  1  0.16666700  0.33333300  0.62500000  1
loop_
_geom_bond_atom_site_label_1
_geom_bond_atom_site_label_2
_geom_bond_distance
_geom_bond_site_symmetry_2
Mg0 Mg8 3.178425 1_555
Mg0 Mg9 3.178425 1_554
Mg0 Mg7 3.178431 1_564
Mg0 Mg6 3.178431 1_565
Mg0 Mg12 3.188808 1_455
Mg0 Mg13 3.188808 1_454
Mg0 Mg2 3.191953 1_455
Mg0 Mg4 3.191953 1_455
Mg0 Sn0 3.195682 1_565
Mg0 Sn0 3.195682 1_555
Mg0 Mg2 3.199409 1_565
Mg0 Mg4 3.199409 1_555
Mg1 Mg13 3.174739 1_455
Mg1 Mg12 3.174739 1_455
Mg1 Mg9 3.178837 1_555
Mg1 Mg8 3.178837 1_555
Mg1 Mg6 3.178843 1_565
Mg1 Mg7 3.178843 1_565
Mg1 Mg3 3.184502 1_455
Mg1 Mg5 3.184502 1_455
Mg1 Sb0 3.195687 1_565
Mg1 Sb0 3.195687 1_555
Mg1 Mg3 3.206860 1_565
Mg1 Mg5 3.206860 1_555
Mg2 Mg7 3.178431 1_554
Mg2 Mg6 3.178431 1_555
Mg2 Mg4 3.191953 1_555
Mg2 Sn0 3.195682 1_655
Mg2 Sn0 3.195682 1_555
Mg2 Mg4 3.199409 1_545
Mg3 Mg7 3.178843 1_555
Mg3 Mg6 3.178843 1_555
Mg3 Mg5 3.184502 1_555
Mg3 Sb0 3.195688 1_655
Mg3 Sb0 3.195688 1_555
Mg3 Mg5 3.206860 1_545
Mg4 Mg8 3.178431 1_555
Mg4 Mg9 3.178431 1_554
Mg4 Sn0 3.195682 1_665
Mg4 Sn0 3.195682 1_555
Mg5 Mg8 3.178843 1_555
Mg5 Mg9 3.178843 1_555
Mg5 Sb0 3.195687 1_665
Mg5 Sb0 3.195687 1_555
Mg6 Mg8 3.153950 1_545
Mg6 Sb0 3.197851 1_555
Mg6 Sn0 3.198705 1_555
Mg6 Mg8 3.237411 1_555
Mg7 Mg9 3.153950 1_545
Mg7 Sb0 3.197851 1_555
Mg7 Sn0 3.198705 1_556
Mg7 Mg9 3.237411 1_555
Mg8 Sb0 3.197858 1_555
Mg8 Sn0 3.198711 1_555
Mg9 Sb0 3.197858 1_555
Mg9 Sn0 3.198711 1_556
Mg10 Mg8 3.153950 1_545
Mg10 Mg6 3.153951 1_555
Mg10 Mg2 3.178425 1_555
Mg10 Mg4 3.178431 1_545
Mg10 Mg3 3.178837 1_555
Mg10 Mg5 3.178843 1_545
Mg10 Mg12 3.195778 1_555
Mg10 Mg12 3.195778 1_545
Mg10 Sb0 3.197858 1_655
Mg10 Sn0 3.198711 1_655
Mg10 Mg8 3.237411 1_655
Mg10 Mg6 3.237412 1_655
Mg11 Mg9 3.153950 1_545
Mg11 Mg7 3.153951 1_555
Mg11 Mg2 3.178425 1_556
Mg11 Mg4 3.178431 1_546
Mg11 Mg3 3.178837 1_555
Mg11 Mg5 3.178843 1_545
Mg11 Mg13 3.195778 1_555
Mg11 Mg13 3.195778 1_545
Mg11 Sb0 3.197858 1_655
Mg11 Sn0 3.198711 1_656
Mg11 Mg9 3.237411 1_655
Mg11 Mg7 3.237412 1_655
Mg12 Mg5 3.174733 1_555
Mg12 Mg3 3.174739 1_555
Mg12 Mg4 3.188801 1_555
Mg12 Mg2 3.188807 1_555
Mg12 Mg6 3.195778 1_555
Mg12 Mg6 3.195778 1_665
Mg12 Mg8 3.195779 1_555
Mg12 Mg8 3.195779 1_655
Mg13 Mg5 3.174733 1_555
Mg13 Mg3 3.174739 1_555
Mg13 Mg4 3.188801 1_556
Mg13 Mg2 3.188807 1_556
Mg13 Mg7 3.195778 1_555
Mg13 Mg7 3.195778 1_665
Mg13 Mg9 3.195779 1_555
Mg13 Mg9 3.195779 1_655
