# generated using pymatgen
data_AlZnCu3Se4
_symmetry_space_group_name_H-M   'P 1'
_cell_length_a   5.71558400
_cell_length_b   5.71558400
_cell_length_c   5.71558400
_cell_angle_alpha   90.00000000
_cell_angle_beta   90.00000000
_cell_angle_gamma   90.00000000
_symmetry_Int_Tables_number   1
_chemical_formula_structural   AlZnCu3Se4
_chemical_formula_sum   'Al1 Zn1 Cu3 Se4'
_cell_volume   186.71612919
_cell_formula_units_Z   1
loop_
 _symmetry_equiv_pos_site_id
 _symmetry_equiv_pos_as_xyz
  1  'x, y, z'
loop_
 _atom_site_type_symbol
 _atom_site_label
 _atom_site_symmetry_multiplicity
 _atom_site_fract_x
 _atom_site_fract_y
 _atom_site_fract_z
 _atom_site_occupancy
  Al  Al0  1  0.00000000  0.00000000  0.00000000  1
  Zn  Zn0  1  0.50000000  0.50000000  0.50000000  1
  Cu  Cu0  1  0.00000000  0.50000000  0.00000000  1
  Cu  Cu1  1  0.00000000  0.00000000  0.50000000  1
  Cu  Cu2  1  0.50000000  0.00000000  0.00000000  1
  Se  Se0  1  0.24834200  0.24834200  0.24834200  1
  Se  Se1  1  0.75165800  0.75165800  0.24834200  1
  Se  Se2  1  0.24834200  0.75165800  0.75165800  1
  Se  Se3  1  0.75165800  0.24834200  0.75165800  1
loop_
_geom_bond_atom_site_label_1
_geom_bond_atom_site_label_2
_geom_bond_distance
_geom_bond_site_symmetry_2
Al0 Se0 2.458507 1_555
Al0 Se1 2.458507 1_445
Al0 Se3 2.458507 1_454
Al0 Se2 2.458507 1_544
Cu0 Se2 2.469498 1_554
Cu0 Se1 2.469498 1_455
Cu0 Se0 2.469498 1_555
Cu0 Se3 2.469498 1_454
Cu1 Se2 2.469498 1_545
Cu1 Se3 2.469498 1_455
Cu1 Se0 2.469498 1_555
Cu1 Se1 2.469498 1_445
Cu2 Se3 2.469498 1_554
Cu2 Se1 2.469498 1_545
Cu2 Se0 2.469498 1_555
Cu2 Se2 2.469498 1_544
Se0 Zn0 2.491334 1_555
Se1 Zn0 2.491334 1_555
Se2 Zn0 2.491334 1_555
Se3 Zn0 2.491334 1_555
