# generated using pymatgen
data_HoCrGeO5
_symmetry_space_group_name_H-M   'P 1'
_cell_length_a   5.79860300
_cell_length_b   7.42983900
_cell_length_c   8.43933700
_cell_angle_alpha   90.00000000
_cell_angle_beta   90.00000000
_cell_angle_gamma   90.00000000
_symmetry_Int_Tables_number   1
_chemical_formula_structural   HoCrGeO5
_chemical_formula_sum   'Ho4 Cr4 Ge4 O20'
_cell_volume   363.58931205
_cell_formula_units_Z   4
loop_
 _symmetry_equiv_pos_site_id
 _symmetry_equiv_pos_as_xyz
  1  'x, y, z'
loop_
 _atom_site_type_symbol
 _atom_site_label
 _atom_site_symmetry_multiplicity
 _atom_site_fract_x
 _atom_site_fract_y
 _atom_site_fract_z
 _atom_site_occupancy
  Ho  Ho0  1  0.50000000  0.35375400  0.32797900  1
  Ho  Ho1  1  0.50000000  0.64624600  0.67202100  1
  Ho  Ho2  1  0.50000000  0.14624600  0.82797900  1
  Ho  Ho3  1  0.50000000  0.85375400  0.17202100  1
  Cr  Cr0  1  0.24962800  0.00000000  0.50000000  1
  Cr  Cr1  1  0.75037200  0.00000000  0.50000000  1
  Cr  Cr2  1  0.75037200  0.50000000  0.00000000  1
  Cr  Cr3  1  0.24962800  0.50000000  0.00000000  1
  Ge  Ge0  1  0.00000000  0.11733600  0.14534500  1
  Ge  Ge1  1  0.00000000  0.88266400  0.85465500  1
  Ge  Ge2  1  0.00000000  0.38266400  0.64534500  1
  Ge  Ge3  1  0.00000000  0.61733600  0.35465500  1
  O  O0  1  0.24979300  0.11359800  0.28365900  1
  O  O1  1  0.75020700  0.88640200  0.71634100  1
  O  O2  1  0.24979300  0.88640200  0.71634100  1
  O  O3  1  0.75020700  0.38640200  0.78365900  1
  O  O4  1  0.75020700  0.11359800  0.28365900  1
  O  O5  1  0.24979300  0.61359800  0.21634100  1
  O  O6  1  0.75020700  0.61359800  0.21634100  1
  O  O7  1  0.24979300  0.38640200  0.78365900  1
  O  O8  1  0.00000000  0.34338800  0.08315900  1
  O  O9  1  0.00000000  0.65661200  0.91684100  1
  O  O10  1  0.00000000  0.15661200  0.58315900  1
  O  O11  1  0.00000000  0.84338800  0.41684100  1
  O  O12  1  0.50000000  0.33158400  0.05919300  1
  O  O13  1  0.50000000  0.66841600  0.94080700  1
  O  O14  1  0.50000000  0.16841600  0.55919300  1
  O  O15  1  0.50000000  0.83158400  0.44080700  1
  O  O16  1  0.21233300  0.00000000  0.00000000  1
  O  O17  1  0.78766700  0.00000000  0.00000000  1
  O  O18  1  0.78766700  0.50000000  0.50000000  1
  O  O19  1  0.21233300  0.50000000  0.50000000  1
loop_
_geom_bond_atom_site_label_1
_geom_bond_atom_site_label_2
_geom_bond_distance
_geom_bond_site_symmetry_2
Ho0 O12 2.274348 1_555
Ho0 O4 2.329950 1_555
Ho0 O0 2.329950 1_555
Ho0 O14 2.388255 1_555
Ho0 O18 2.463873 1_555
Ho0 O19 2.463873 1_555
Ho0 O6 2.592263 1_555
Ho0 O5 2.592263 1_555
Ho1 O13 2.274348 1_555
Ho1 O1 2.329950 1_555
Ho1 O2 2.329950 1_555
Ho1 O15 2.388255 1_555
Ho1 O18 2.463873 1_555
Ho1 O19 2.463873 1_555
Ho1 O7 2.592263 1_555
Ho1 O3 2.592263 1_555
Ho2 O14 2.274348 1_555
Ho2 O3 2.329950 1_555
Ho2 O7 2.329950 1_555
Ho2 O12 2.388255 1_556
Ho2 O17 2.463873 1_556
Ho2 O16 2.463873 1_556
Ho2 O2 2.592263 1_545
Ho2 O1 2.592263 1_545
Ho3 O15 2.274348 1_555
Ho3 O6 2.329950 1_555
Ho3 O5 2.329950 1_555
Ho3 O13 2.388255 1_554
Ho3 O16 2.463873 1_565
Ho3 O17 2.463873 1_565
Ho3 O4 2.592263 1_565
Ho3 O0 2.592263 1_565
Cr0 O14 1.980671 1_555
Cr0 O15 1.980671 1_545
Cr0 O11 1.985382 1_545
Cr0 O10 1.985382 1_555
Cr0 O2 2.011421 1_545
Cr0 O0 2.011421 1_555
Cr1 O14 1.980671 1_555
Cr1 O15 1.980671 1_545
Cr1 O11 1.985382 1_645
Cr1 O10 1.985382 1_655
Cr1 O1 2.011421 1_545
Cr1 O4 2.011421 1_555
Cr2 O12 1.980671 1_555
Cr2 O13 1.980671 1_554
Cr2 O9 1.985382 1_654
Cr2 O8 1.985382 1_655
Cr2 O6 2.011421 1_555
Cr2 O3 2.011421 1_554
Cr3 O12 1.980671 1_555
Cr3 O13 1.980671 1_554
Cr3 O9 1.985382 1_554
Cr3 O8 1.985382 1_555
Cr3 O5 2.011421 1_555
Cr3 O7 2.011421 1_554
Ge0 O8 1.759615 1_555
Ge0 O0 1.860462 1_555
Ge0 O4 1.860462 1_455
Ge0 O16 1.944361 1_555
Ge0 O17 1.944361 1_455
Ge1 O9 1.759615 1_555
Ge1 O2 1.860462 1_555
Ge1 O1 1.860462 1_455
Ge1 O17 1.944361 1_466
Ge1 O16 1.944361 1_566
Ge2 O10 1.759615 1_555
Ge2 O7 1.860462 1_555
Ge2 O3 1.860462 1_455
Ge2 O19 1.944361 1_555
Ge2 O18 1.944361 1_455
Ge3 O11 1.759615 1_555
Ge3 O5 1.860462 1_555
Ge3 O6 1.860462 1_455
Ge3 O18 1.944361 1_455
Ge3 O19 1.944361 1_555
