# generated using pymatgen
data_Sr4Ca4Mn7FeO20
_symmetry_space_group_name_H-M   'P 1'
_cell_length_a   10.99161885
_cell_length_b   11.12231847
_cell_length_c   17.69900725
_cell_angle_alpha   108.25746518
_cell_angle_beta   108.14992098
_cell_angle_gamma   90.08590357
_symmetry_Int_Tables_number   1
_chemical_formula_structural   Sr4Ca4Mn7FeO20
_chemical_formula_sum   'Sr16 Ca16 Mn28 Fe4 O80'
_cell_volume   1940.77229357
_cell_formula_units_Z   4
loop_
 _symmetry_equiv_pos_site_id
 _symmetry_equiv_pos_as_xyz
  1  'x, y, z'
loop_
 _atom_site_type_symbol
 _atom_site_label
 _atom_site_symmetry_multiplicity
 _atom_site_fract_x
 _atom_site_fract_y
 _atom_site_fract_z
 _atom_site_occupancy
  Sr  Sr0  1  0.30901700  0.55974900  0.61064400  1
  Sr  Sr1  1  0.80705500  0.05676900  0.60824000  1
  Sr  Sr2  1  0.80979300  0.55858300  0.61096500  1
  Sr  Sr3  1  0.19599100  0.43973500  0.38686400  1
  Sr  Sr4  1  0.20027100  0.44276600  0.89258400  1
  Sr  Sr5  1  0.69707300  0.43979600  0.38718900  1
  Sr  Sr6  1  0.69787700  0.93846500  0.38636200  1
  Sr  Sr7  1  0.70097400  0.94049900  0.89306500  1
  Sr  Sr8  1  0.05997100  0.29953600  0.60962000  1
  Sr  Sr9  1  0.06006800  0.80206100  0.60950700  1
  Sr  Sr10  1  0.55943200  0.30150700  0.61057500  1
  Sr  Sr11  1  0.55876300  0.80101100  0.60941300  1
  Sr  Sr12  1  0.44652300  0.19728000  0.38696800  1
  Sr  Sr13  1  0.45012700  0.20054200  0.89030700  1
  Sr  Sr14  1  0.94760000  0.19602600  0.38651800  1
  Sr  Sr15  1  0.94944100  0.20012600  0.89174100  1
  Ca  Ca0  1  0.30527600  0.06463100  0.10648600  1
  Ca  Ca1  1  0.30663800  0.05797500  0.60334300  1
  Ca  Ca2  1  0.30738600  0.56412900  0.10803000  1
  Ca  Ca3  1  0.80400000  0.06291700  0.10544500  1
  Ca  Ca4  1  0.80663000  0.56260800  0.10782200  1
  Ca  Ca5  1  0.20110800  0.93681800  0.39196500  1
  Ca  Ca6  1  0.20233900  0.93891900  0.89739900  1
  Ca  Ca7  1  0.70242500  0.44035900  0.89778600  1
  Ca  Ca8  1  0.05548400  0.29195900  0.10665000  1
  Ca  Ca9  1  0.05559800  0.79281400  0.10650000  1
  Ca  Ca10  1  0.55443700  0.29320700  0.10562800  1
  Ca  Ca11  1  0.55485300  0.79208400  0.10489600  1
  Ca  Ca12  1  0.44882300  0.70438700  0.39266800  1
  Ca  Ca13  1  0.45067500  0.70746600  0.89652700  1
  Ca  Ca14  1  0.95085100  0.70487300  0.39227900  1
  Ca  Ca15  1  0.95180100  0.70791400  0.89826100  1
  Mn  Mn0  1  0.00474700  0.99827400  0.49779700  1
  Mn  Mn1  1  0.00263000  0.49987900  0.49804800  1
  Mn  Mn2  1  0.50225900  0.99844900  0.49759800  1
  Mn  Mn3  1  0.50709500  0.50173100  0.00262600  1
  Mn  Mn4  1  0.50212600  0.49926700  0.49744600  1
  Mn  Mn5  1  0.25776800  0.25223500  0.00341500  1
  Mn  Mn6  1  0.25315500  0.24795300  0.49814200  1
  Mn  Mn7  1  0.25727200  0.75239400  0.00289000  1
  Mn  Mn8  1  0.25260500  0.74933000  0.49698800  1
  Mn  Mn9  1  0.75759500  0.25397400  0.00485900  1
  Mn  Mn10  1  0.75293600  0.24927200  0.49848400  1
  Mn  Mn11  1  0.75276400  0.74770400  0.49641300  1
  Mn  Mn12  1  0.10656400  0.08873400  0.24471300  1
  Mn  Mn13  1  0.11629100  0.09353900  0.75266600  1
  Mn  Mn14  1  0.10767000  0.60021400  0.24617000  1
  Mn  Mn15  1  0.11394400  0.60364700  0.75489600  1
  Mn  Mn16  1  0.60520800  0.08968000  0.24267500  1
  Mn  Mn17  1  0.60774800  0.09884200  0.74989100  1
  Mn  Mn18  1  0.60553000  0.59423100  0.24554500  1
  Mn  Mn19  1  0.61288600  0.59760600  0.75696400  1
  Mn  Mn20  1  0.35548700  0.40753900  0.24582200  1
  Mn  Mn21  1  0.36611000  0.40606700  0.75393900  1
  Mn  Mn22  1  0.35275400  0.89774900  0.24575100  1
  Mn  Mn23  1  0.36005900  0.90301100  0.75310700  1
  Mn  Mn24  1  0.85674700  0.40819300  0.24668600  1
  Mn  Mn25  1  0.86150700  0.41146900  0.75786100  1
  Mn  Mn26  1  0.85989600  0.89529400  0.24341400  1
  Mn  Mn27  1  0.86697300  0.90088200  0.75297700  1
  Fe  Fe0  1  0.00860500  0.00091000  0.00378100  1
  Fe  Fe1  1  0.00710700  0.50168300  0.00361500  1
  Fe  Fe2  1  0.50604100  0.00134800  0.00294600  1
  Fe  Fe3  1  0.75661900  0.74925600  0.00214900  1
  O  O0  1  0.12793800  0.11818800  0.49277900  1
  O  O1  1  0.12994000  0.12205100  0.99440500  1
  O  O2  1  0.12081300  0.62373000  0.48957400  1
  O  O3  1  0.12647700  0.62780600  0.99335400  1
  O  O4  1  0.62432200  0.12201100  0.49387600  1
  O  O5  1  0.62950700  0.12741200  0.99731600  1
  O  O6  1  0.62205500  0.62333200  0.49125000  1
  O  O7  1  0.62418500  0.61879300  0.99137600  1
  O  O8  1  0.13921000  0.38014800  0.01591500  1
  O  O9  1  0.12979800  0.37638100  0.50383700  1
  O  O10  1  0.13701300  0.87880900  0.01184900  1
  O  O11  1  0.13167900  0.87705700  0.50064600  1
  O  O12  1  0.63960800  0.38276100  0.01560500  1
  O  O13  1  0.62889600  0.37644800  0.50216600  1
  O  O14  1  0.63324000  0.87756000  0.01301300  1
  O  O15  1  0.62610100  0.87220800  0.49918600  1
  O  O16  1  0.37115200  0.11611100  0.49153300  1
  O  O17  1  0.37308300  0.12074000  0.99296800  1
  O  O18  1  0.37552100  0.62359500  0.49189800  1
  O  O19  1  0.37812000  0.62646500  0.99369700  1
  O  O20  1  0.87701800  0.12127400  0.49574000  1
  O  O21  1  0.87824900  0.12288700  0.99722000  1
  O  O22  1  0.87554800  0.62229900  0.49158200  1
  O  O23  1  0.87455100  0.61679700  0.99003100  1
  O  O24  1  0.38787100  0.38626800  0.01556700  1
  O  O25  1  0.37910000  0.37676000  0.50306400  1
  O  O26  1  0.38327500  0.88292000  0.01340800  1
  O  O27  1  0.37850000  0.87940900  0.50410800  1
  O  O28  1  0.88446500  0.38170100  0.01372200  1
  O  O29  1  0.87909900  0.37698100  0.50255800  1
  O  O30  1  0.88845100  0.88214800  0.01427700  1
  O  O31  1  0.88066400  0.87421000  0.50050300  1
  O  O32  1  0.08820700  0.09129600  0.13447600  1
  O  O33  1  0.08497600  0.07583900  0.63801200  1
  O  O34  1  0.07845000  0.59507800  0.13217200  1
  O  O35  1  0.07173400  0.58302200  0.63779300  1
  O  O36  1  0.57870500  0.09351700  0.13211700  1
  O  O37  1  0.57401400  0.07914200  0.63445400  1
  O  O38  1  0.57836900  0.59694900  0.13491900  1
  O  O39  1  0.57557300  0.58050700  0.64124700  1
  O  O40  1  0.43179400  0.41765400  0.35921200  1
  O  O41  1  0.44514100  0.41467000  0.86824800  1
  O  O42  1  0.43337600  0.91267500  0.36055700  1
  O  O43  1  0.44666600  0.91489600  0.86944400  1
  O  O44  1  0.93328500  0.41708100  0.35994200  1
  O  O45  1  0.94645700  0.41434200  0.87074400  1
  O  O46  1  0.93830800  0.91358100  0.35894800  1
  O  O47  1  0.94830300  0.91169100  0.86950900  1
  O  O48  1  0.33740300  0.29284900  0.13786900  1
  O  O49  1  0.32923000  0.30028700  0.63915500  1
  O  O50  1  0.32686100  0.78842700  0.13329400  1
  O  O51  1  0.31974200  0.80291500  0.63797900  1
  O  O52  1  0.83602900  0.29447100  0.13773600  1
  O  O53  1  0.82565700  0.31297700  0.64266400  1
  O  O54  1  0.83262300  0.78410100  0.13225000  1
  O  O55  1  0.82445300  0.80540000  0.63714800  1
  O  O56  1  0.18208100  0.19062500  0.35864800  1
  O  O57  1  0.19278600  0.20442800  0.86495100  1
  O  O58  1  0.19099500  0.69902600  0.36071500  1
  O  O59  1  0.20154300  0.71052400  0.87025700  1
  O  O60  1  0.68297000  0.18603400  0.35778700  1
  O  O61  1  0.68586900  0.20713600  0.86506200  1
  O  O62  1  0.69147400  0.68982100  0.35968400  1
  O  O63  1  0.69902600  0.70467000  0.86958600  1
  O  O64  1  0.42693800  0.05923900  0.23979500  1
  O  O65  1  0.42813100  0.06554200  0.74390700  1
  O  O66  1  0.42762800  0.57812500  0.24837800  1
  O  O67  1  0.43785700  0.58033000  0.76009900  1
  O  O68  1  0.92754400  0.06224300  0.23817400  1
  O  O69  1  0.94166800  0.06566700  0.75090800  1
  O  O70  1  0.92871700  0.57628600  0.24851900  1
  O  O71  1  0.93832300  0.57863900  0.76204000  1
  O  O72  1  0.17622600  0.42822400  0.23962400  1
  O  O73  1  0.19035000  0.43916200  0.75204000  1
  O  O74  1  0.17540400  0.91934700  0.24702800  1
  O  O75  1  0.18711000  0.92817600  0.76067000  1
  O  O76  1  0.67515300  0.42510800  0.23904500  1
  O  O77  1  0.68486100  0.43129400  0.76084500  1
  O  O78  1  0.68116300  0.92373900  0.23858500  1
  O  O79  1  0.69237800  0.94011900  0.75322400  1
loop_
_geom_bond_atom_site_label_1
_geom_bond_atom_site_label_2
_geom_bond_distance
_geom_bond_site_symmetry_2
Ca0 O64 2.341367 1_555
Ca0 O48 2.422387 1_555
Ca0 O26 2.516447 1_545
Ca0 O10 2.527284 1_545
Ca0 O1 2.544190 1_554
Ca0 O32 2.583125 1_555
Ca0 O17 2.588203 1_554
Ca0 O36 2.897928 1_555
Ca1 O65 2.403833 1_555
Ca1 O27 2.517249 1_545
Ca1 O16 2.551809 1_555
Ca1 O49 2.560550 1_555
Ca1 O0 2.562496 1_555
Ca1 O11 2.563221 1_545
Ca1 O33 2.684887 1_555
Ca1 O37 2.811448 1_555
Ca2 O66 2.377627 1_555
Ca2 O50 2.389389 1_555
Ca2 O24 2.500580 1_555
Ca2 O8 2.506614 1_555
Ca2 O3 2.639249 1_554
Ca2 O19 2.652864 1_554
Ca2 O34 2.685802 1_555
Ca2 O38 2.869881 1_555
Ca3 O68 2.320845 1_555
Ca3 O52 2.456221 1_555
Ca3 O14 2.532107 1_545
Ca3 O30 2.532528 1_545
Ca3 O5 2.536374 1_554
Ca3 O21 2.559845 1_554
Ca3 O36 2.664805 1_555
Ca4 O54 2.364536 1_555
Ca4 O70 2.388542 1_555
Ca4 O12 2.472259 1_555
Ca4 O28 2.519417 1_555
Ca4 O7 2.625922 1_554
Ca4 O23 2.650009 1_554
Ca4 O38 2.703426 1_555
Ca4 O34 2.887871 1_655
Ca5 O74 2.435984 1_555
Ca5 O16 2.512059 1_565
Ca5 O58 2.521403 1_555
Ca5 O11 2.537385 1_555
Ca5 O27 2.556518 1_555
Ca5 O0 2.558029 1_565
Ca5 O46 2.757493 1_455
Ca5 O42 2.773379 1_555
Ca5 O56 3.054225 1_565
Ca6 O75 2.337720 1_555
Ca6 O59 2.432401 1_555
Ca6 O17 2.518032 1_565
Ca6 O1 2.528773 1_565
Ca6 O10 2.611340 1_556
Ca6 O26 2.611506 1_556
Ca6 O47 2.679033 1_455
Ca6 O43 2.876718 1_555
Ca7 O77 2.340334 1_555
Ca7 O61 2.467562 1_555
Ca7 O23 2.480520 1_555
Ca7 O7 2.500969 1_555
Ca7 O28 2.631462 1_556
Ca7 O12 2.639742 1_556
Ca7 O41 2.708367 1_555
Ca7 O45 2.867567 1_555
Ca8 O72 2.326025 1_555
Ca8 O32 2.435934 1_555
Ca8 O8 2.508588 1_555
Ca8 O28 2.518545 1_455
Ca8 O21 2.537473 1_454
Ca8 O1 2.617804 1_554
Ca8 O52 2.634280 1_455
Ca8 O48 2.972776 1_555
Ca9 O74 2.379410 1_555
Ca9 O34 2.379720 1_555
Ca9 O30 2.486009 1_455
Ca9 O10 2.541140 1_555
Ca9 O3 2.580489 1_554
Ca9 O23 2.635544 1_454
Ca9 O54 2.635648 1_455
Ca9 O50 2.872516 1_555
Ca10 O76 2.315239 1_555
Ca10 O36 2.408354 1_555
Ca10 O24 2.487043 1_555
Ca10 O12 2.515564 1_555
Ca10 O5 2.555644 1_554
Ca10 O17 2.597062 1_554
Ca10 O48 2.620304 1_555
Ca10 O52 2.966842 1_555
Ca11 O78 2.333832 1_555
Ca11 O38 2.387118 1_555
Ca11 O14 2.475887 1_555
Ca11 O26 2.515472 1_555
Ca11 O19 2.525092 1_554
Ca11 O7 2.619994 1_554
Ca11 O50 2.707681 1_555
Ca11 O54 2.944622 1_555
Ca12 O66 2.435054 1_555
Ca12 O15 2.516094 1_555
Ca12 O6 2.530533 1_555
Ca12 O18 2.531677 1_555
Ca12 O42 2.546508 1_555
Ca12 O27 2.612619 1_555
Ca12 O58 2.708230 1_555
Ca12 O62 2.897015 1_555
Ca12 O40 3.049947 1_555
Ca13 O67 2.344767 1_555
Ca13 O19 2.495709 1_555
Ca13 O43 2.496899 1_555
Ca13 O7 2.544892 1_555
Ca13 O14 2.612210 1_556
Ca13 O59 2.633048 1_555
Ca13 O26 2.658219 1_556
Ca13 O63 2.912374 1_555
Ca14 O70 2.431428 1_555
Ca14 O2 2.498897 1_655
Ca14 O31 2.544791 1_555
Ca14 O22 2.555982 1_555
Ca14 O46 2.562002 1_555
Ca14 O11 2.570766 1_655
Ca14 O62 2.720710 1_555
Ca14 O58 2.860087 1_655
Ca14 O44 3.064656 1_555
Ca15 O71 2.346676 1_555
Ca15 O47 2.471453 1_555
Ca15 O3 2.498868 1_655
Ca15 O23 2.504832 1_555
Ca15 O10 2.615956 1_656
Ca15 O30 2.618806 1_556
Ca15 O63 2.662357 1_555
Ca15 O59 2.939104 1_655
Mn0 O0 1.940085 1_565
Mn0 O11 1.941953 1_555
Mn0 O31 1.960350 1_455
Mn0 O20 1.961904 1_465
Mn0 O46 2.211172 1_455
Mn0 O33 2.230115 1_565
Mn1 O22 1.954977 1_455
Mn1 O29 1.961830 1_455
Mn1 O2 1.962894 1_555
Mn1 O9 1.963604 1_555
Mn1 O44 2.197855 1_455
Mn1 O35 2.223487 1_555
Mn2 O16 1.948887 1_565
Mn2 O4 1.949197 1_565
Mn2 O27 1.950522 1_555
Mn2 O15 1.957503 1_555
Mn2 O37 2.177206 1_565
Mn2 O42 2.184091 1_555
Mn3 O7 1.925697 1_554
Mn3 O24 1.945570 1_555
Mn3 O12 1.978120 1_555
Mn3 O19 1.990747 1_554
Mn3 O38 2.125726 1_555
Mn3 O41 2.145680 1_554
Mn4 O13 1.954302 1_555
Mn4 O6 1.957865 1_555
Mn4 O25 1.964228 1_555
Mn4 O18 1.965724 1_555
Mn4 O40 2.198975 1_555
Mn4 O39 2.285316 1_555
Mn5 O8 1.938849 1_555
Mn5 O17 1.939552 1_554
Mn5 O1 1.950831 1_554
Mn5 O24 1.978567 1_555
Mn5 O48 2.158880 1_555
Mn5 O57 2.211462 1_554
Mn6 O0 1.952744 1_555
Mn6 O25 1.953751 1_555
Mn6 O16 1.959305 1_555
Mn6 O9 1.972238 1_555
Mn6 O56 2.218752 1_555
Mn6 O49 2.248353 1_555
Mn7 O3 1.926609 1_554
Mn7 O26 1.929872 1_555
Mn7 O10 1.935402 1_555
Mn7 O19 1.936511 1_554
Mn7 O50 2.095780 1_555
Mn7 O59 2.126272 1_554
Mn8 O11 1.946972 1_555
Mn8 O18 1.947229 1_555
Mn8 O27 1.948088 1_555
Mn8 O2 1.956486 1_555
Mn8 O58 2.173622 1_555
Mn8 O51 2.246410 1_555
Mn9 O28 1.924984 1_555
Mn9 O5 1.934092 1_554
Mn9 O12 1.938653 1_555
Mn9 O21 1.974024 1_554
Mn9 O52 2.132836 1_555
Mn9 O61 2.234007 1_554
Mn10 O29 1.952806 1_555
Mn10 O4 1.964290 1_555
Mn10 O13 1.966539 1_555
Mn10 O20 1.973064 1_555
Mn10 O60 2.234961 1_555
Mn10 O53 2.290735 1_555
Mn11 O22 1.943445 1_555
Mn11 O6 1.954238 1_555
Mn11 O31 1.956579 1_555
Mn11 O15 1.965726 1_555
Mn11 O62 2.175178 1_555
Mn11 O55 2.238588 1_555
Mn12 O56 1.887371 1_555
Mn12 O32 1.907314 1_555
Mn12 O68 1.951191 1_455
Mn12 O74 2.038850 1_545
Mn13 O33 1.894588 1_555
Mn13 O57 1.896753 1_555
Mn13 O69 1.932897 1_455
Mn13 O75 2.026715 1_545
Mn14 O58 1.897598 1_555
Mn14 O34 1.923887 1_555
Mn14 O70 1.999472 1_455
Mn14 O72 2.039703 1_555
Mn15 O35 1.914750 1_555
Mn15 O59 1.939073 1_555
Mn15 O71 1.998031 1_455
Mn15 O73 2.006957 1_555
Mn16 O60 1.890558 1_555
Mn16 O36 1.900749 1_555
Mn16 O64 1.970215 1_555
Mn16 O78 2.016736 1_545
Mn17 O37 1.899242 1_555
Mn17 O61 1.926464 1_555
Mn17 O65 1.972090 1_555
Mn17 O79 2.005319 1_545
Mn18 O62 1.888400 1_555
Mn18 O38 1.896479 1_555
Mn18 O66 1.980903 1_555
Mn18 O76 2.015132 1_555
Mn19 O63 1.902965 1_555
Mn19 O39 1.905621 1_555
Mn19 O67 1.952763 1_555
Mn19 O77 2.025440 1_555
Mn20 O48 1.884896 1_555
Mn20 O40 1.885023 1_555
Mn20 O72 1.956995 1_555
Mn20 O66 2.037146 1_555
Mn21 O41 1.907997 1_555
Mn21 O49 1.914066 1_555
Mn21 O73 1.959143 1_555
Mn21 O67 2.049366 1_555
Mn22 O42 1.899489 1_555
Mn22 O50 1.910681 1_555
Mn22 O74 1.970707 1_555
Mn22 O64 2.017404 1_565
Mn23 O51 1.897998 1_555
Mn23 O43 1.941978 1_555
Mn23 O75 1.961293 1_555
Mn23 O65 2.027434 1_565
Mn24 O44 1.886953 1_555
Mn24 O52 1.888757 1_555
Mn24 O76 1.971457 1_555
Mn24 O70 2.015876 1_555
Mn25 O53 1.900269 1_555
Mn25 O45 1.913694 1_555
Mn25 O77 1.969567 1_555
Mn25 O71 2.011380 1_555
Mn26 O54 1.896629 1_555
Mn26 O46 1.899065 1_555
Mn26 O78 1.970054 1_555
Mn26 O68 2.038661 1_565
Mn27 O55 1.893788 1_555
Mn27 O47 1.939880 1_555
Mn27 O79 1.969743 1_555
Mn27 O69 2.022575 1_565
Fe0 O30 1.955734 1_445
Fe0 O10 1.964295 1_545
Fe0 O1 1.973373 1_554
Fe0 O21 1.976839 1_454
Fe0 O32 2.099124 1_555
Fe0 O47 2.147269 1_444
Fe1 O23 1.949398 1_454
Fe1 O28 1.981020 1_455
Fe1 O8 1.994075 1_555
Fe1 O3 2.006205 1_554
Fe1 O34 2.067877 1_555
Fe1 O45 2.123311 1_454
Fe2 O14 1.971390 1_545
Fe2 O26 1.973150 1_545
Fe2 O17 1.980473 1_554
Fe2 O5 1.995911 1_554
Fe2 O36 2.075327 1_555
Fe2 O43 2.132462 1_544
Fe3 O23 1.969192 1_554
Fe3 O7 1.976930 1_554
Fe3 O14 1.977079 1_555
Fe3 O30 1.982800 1_555
Fe3 O54 2.095651 1_555
Fe3 O63 2.120419 1_554
O0 Sr14 2.630308 1_455
O0 Sr8 2.693777 1_555
O1 Sr15 2.596112 1_455
O2 Sr3 2.604875 1_555
O2 Sr9 2.671074 1_555
O2 Sr0 2.752390 1_555
O3 Sr4 2.584745 1_555
O4 Sr12 2.606542 1_555
O4 Sr6 2.640376 1_545
O4 Sr1 2.655122 1_555
O4 Sr10 2.664372 1_555
O5 Sr13 2.603788 1_555
O5 Sr7 2.616849 1_545
O6 Sr5 2.614308 1_555
O6 Sr11 2.661599 1_555
O6 Sr2 2.739137 1_555
O8 Sr4 2.750302 1_554
O8 Sr15 2.750320 1_454
O9 Sr8 2.592459 1_555
O9 Sr0 2.620266 1_555
O9 Sr14 2.670859 1_455
O9 Sr3 2.676379 1_555
O11 Sr9 2.641494 1_555
O12 Sr13 2.767098 1_554
O13 Sr10 2.621474 1_555
O13 Sr2 2.631283 1_555
O13 Sr12 2.653757 1_555
O13 Sr5 2.654429 1_555
O14 Sr7 2.732325 1_554
O15 Sr11 2.616633 1_555
O15 Sr1 2.647400 1_565
O15 Sr6 2.656083 1_555
O16 Sr12 2.631780 1_555
O16 Sr10 2.742713 1_555
O17 Sr13 2.602555 1_555
O18 Sr3 2.617669 1_555
O18 Sr11 2.661408 1_555
O18 Sr0 2.710423 1_555
O19 Sr4 2.591536 1_555
O20 Sr6 2.627894 1_545
O20 Sr1 2.630230 1_555
O20 Sr14 2.639991 1_555
O20 Sr8 2.645069 1_655
O21 Sr7 2.591790 1_545
O21 Sr15 2.597800 1_555
O22 Sr5 2.600475 1_555
O22 Sr9 2.683852 1_655
O22 Sr2 2.716120 1_555
O24 Sr4 2.729354 1_554
O24 Sr13 2.780340 1_554
O25 Sr0 2.617535 1_555
O25 Sr10 2.627416 1_555
O25 Sr3 2.664418 1_555
O25 Sr12 2.671953 1_555
O27 Sr11 2.623490 1_555
O28 Sr15 2.735445 1_554
O29 Sr2 2.613123 1_555
O29 Sr8 2.639290 1_655
O29 Sr5 2.648282 1_555
O29 Sr14 2.685828 1_555
O30 Sr7 2.718863 1_554
O31 Sr9 2.619001 1_655
O31 Sr1 2.636971 1_565
O31 Sr6 2.647399 1_555
O33 Sr8 2.686584 1_555
O33 Sr9 2.924151 1_545
O33 Sr1 2.929103 1_455
O35 Sr9 2.631996 1_555
O35 Sr2 2.766577 1_455
O35 Sr0 2.793756 1_555
O35 Sr8 3.029918 1_555
O37 Sr10 2.633443 1_555
O37 Sr1 2.740152 1_555
O37 Sr11 2.981131 1_545
O39 Sr11 2.677451 1_555
O39 Sr2 2.784631 1_555
O39 Sr0 2.803894 1_555
O39 Sr10 2.972946 1_555
O40 Sr12 2.642230 1_555
O40 Sr3 2.781086 1_555
O40 Sr5 2.798199 1_555
O41 Sr13 2.529253 1_555
O41 Sr4 2.857951 1_555
O42 Sr6 2.798464 1_555
O42 Sr12 3.047783 1_565
O43 Sr7 2.695236 1_555
O43 Sr13 3.080137 1_565
O44 Sr14 2.640190 1_555
O44 Sr3 2.773797 1_655
O44 Sr5 2.782646 1_555
O45 Sr15 2.522556 1_555
O45 Sr4 2.698413 1_655
O46 Sr6 2.830711 1_555
O46 Sr14 3.020714 1_565
O47 Sr7 2.879585 1_555
O47 Sr15 3.106855 1_565
O49 Sr10 2.731306 1_555
O49 Sr8 2.840044 1_555
O49 Sr0 3.078387 1_555
O51 Sr0 2.589655 1_555
O51 Sr9 2.738893 1_555
O51 Sr11 2.824782 1_555
O53 Sr1 2.714070 1_555
O53 Sr10 2.796393 1_555
O53 Sr8 2.807549 1_655
O53 Sr2 2.950961 1_555
O55 Sr2 2.632825 1_555
O55 Sr9 2.779562 1_655
O55 Sr11 2.804160 1_555
O55 Sr1 2.991958 1_565
O56 Sr3 2.652100 1_555
O56 Sr14 2.768298 1_455
O56 Sr12 2.788143 1_555
O57 Sr4 2.536734 1_555
O57 Sr13 2.725047 1_555
O57 Sr15 2.861013 1_455
O58 Sr3 3.058615 1_555
O59 Sr4 3.125070 1_555
O60 Sr5 2.699823 1_555
O60 Sr14 2.788129 1_555
O60 Sr12 2.798858 1_555
O60 Sr6 2.947357 1_545
O61 Sr13 2.767766 1_555
O61 Sr15 2.791705 1_555
O61 Sr7 3.152665 1_545
O62 Sr6 2.652624 1_555
O62 Sr5 2.967157 1_555
O63 Sr7 2.522780 1_555
O64 Sr12 2.516443 1_555
O65 Sr13 2.489543 1_555
O67 Sr0 2.518102 1_555
O68 Sr14 2.519265 1_555
O69 Sr15 2.447070 1_555
O69 Sr1 2.467878 1_555
O71 Sr2 2.543058 1_555
O72 Sr3 2.508581 1_555
O73 Sr4 2.443280 1_555
O73 Sr8 2.471709 1_555
O75 Sr9 2.527961 1_555
O76 Sr5 2.509492 1_555
O77 Sr10 2.522335 1_555
O78 Sr6 2.516661 1_555
O79 Sr7 2.445926 1_555
O79 Sr11 2.495220 1_555
