# generated using pymatgen
data_Na2Cu2(B4O7)3
_symmetry_space_group_name_H-M   'P 1'
_cell_length_a   12.06988668
_cell_length_b   12.06988668
_cell_length_c   17.41597193
_cell_angle_alpha   55.73400161
_cell_angle_beta   55.73400161
_cell_angle_gamma   22.52146021
_symmetry_Int_Tables_number   1
_chemical_formula_structural   Na2Cu2(B4O7)3
_chemical_formula_sum   'Na4 Cu4 B24 O42'
_cell_volume   795.72104471
_cell_formula_units_Z   2
loop_
 _symmetry_equiv_pos_site_id
 _symmetry_equiv_pos_as_xyz
  1  'x, y, z'
loop_
 _atom_site_type_symbol
 _atom_site_label
 _atom_site_symmetry_multiplicity
 _atom_site_fract_x
 _atom_site_fract_y
 _atom_site_fract_z
 _atom_site_occupancy
  Na  Na0  1  0.72775900  0.55123800  0.51013400  1
  Na  Na1  1  0.44876200  0.27224100  0.98986600  1
  Na  Na2  1  0.27224100  0.44876200  0.48986600  1
  Na  Na3  1  0.55123800  0.72775900  0.01013400  1
  Cu  Cu0  1  0.46129400  0.44278200  0.60646300  1
  Cu  Cu1  1  0.55721800  0.53870600  0.89353700  1
  Cu  Cu2  1  0.53870600  0.55721800  0.39353700  1
  Cu  Cu3  1  0.44278200  0.46129400  0.10646300  1
  B  B0  1  0.10830500  0.00670600  0.50850200  1
  B  B1  1  0.99329400  0.89169500  0.99149800  1
  B  B2  1  0.89169500  0.99329400  0.49149800  1
  B  B3  1  0.00670600  0.10830500  0.00850200  1
  B  B4  1  0.90486400  0.42454100  0.70721100  1
  B  B5  1  0.57545900  0.09513600  0.79278900  1
  B  B6  1  0.09513600  0.57545900  0.29278900  1
  B  B7  1  0.42454100  0.90486400  0.20721100  1
  B  B8  1  0.66097700  0.84589200  0.31577200  1
  B  B9  1  0.15410800  0.33902300  0.18422800  1
  B  B10  1  0.33902300  0.15410800  0.68422800  1
  B  B11  1  0.84589200  0.66097700  0.81577200  1
  B  B12  1  0.09414000  0.22948700  0.84661100  1
  B  B13  1  0.77051300  0.90586000  0.65338900  1
  B  B14  1  0.90586000  0.77051300  0.15338900  1
  B  B15  1  0.22948700  0.09414000  0.34661100  1
  B  B16  1  0.07102300  0.89763400  0.82769200  1
  B  B17  1  0.10236600  0.92897700  0.67230800  1
  B  B18  1  0.92897700  0.10236600  0.17230800  1
  B  B19  1  0.89763400  0.07102300  0.32769200  1
  B  B20  1  0.46716400  0.70673800  0.70328000  1
  B  B21  1  0.29326200  0.53283600  0.79672000  1
  B  B22  1  0.53283600  0.29326200  0.29672000  1
  B  B23  1  0.70673800  0.46716400  0.20328000  1
  O  O0  1  0.01852000  0.19671600  0.42827100  1
  O  O1  1  0.80328400  0.98148000  0.07172900  1
  O  O2  1  0.98148000  0.80328400  0.57172900  1
  O  O3  1  0.19671600  0.01852000  0.92827100  1
  O  O4  1  0.94775300  0.11471400  0.59309000  1
  O  O5  1  0.88528600  0.05224700  0.90691000  1
  O  O6  1  0.05224700  0.88528600  0.40691000  1
  O  O7  1  0.11471400  0.94775300  0.09309000  1
  O  O8  1  0.35423200  0.71916000  0.50426500  1
  O  O9  1  0.28084000  0.64576800  0.99573500  1
  O  O10  1  0.64576800  0.28084000  0.49573500  1
  O  O11  1  0.71916000  0.35423200  0.00426500  1
  O  O12  1  0.70870800  0.57595300  0.66651300  1
  O  O13  1  0.42404700  0.29129200  0.83348700  1
  O  O14  1  0.29129200  0.42404700  0.33348700  1
  O  O15  1  0.57595300  0.70870800  0.16651300  1
  O  O16  1  0.87084600  0.68627800  0.35321100  1
  O  O17  1  0.31372200  0.12915400  0.14678900  1
  O  O18  1  0.12915400  0.31372200  0.64678900  1
  O  O19  1  0.68627800  0.87084600  0.85321100  1
  O  O20  1  0.88146600  0.38212900  0.80340100  1
  O  O21  1  0.61787100  0.11853400  0.69659900  1
  O  O22  1  0.11853400  0.61787100  0.19659900  1
  O  O23  1  0.38212900  0.88146600  0.30340100  1
  O  O24  1  0.45791600  0.93004200  0.37769000  1
  O  O25  1  0.06995800  0.54208400  0.12231000  1
  O  O26  1  0.54208400  0.06995800  0.62231000  1
  O  O27  1  0.93004200  0.45791600  0.87769000  1
  O  O28  1  0.34525400  0.07407400  0.77821400  1
  O  O29  1  0.92592600  0.65474600  0.72178600  1
  O  O30  1  0.65474600  0.92592600  0.22178600  1
  O  O31  1  0.07407400  0.34525400  0.27821400  1
  O  O32  1  0.33954700  0.75709600  0.79584400  1
  O  O33  1  0.24290400  0.66045300  0.70415600  1
  O  O34  1  0.66045300  0.24290400  0.20415600  1
  O  O35  1  0.75709600  0.33954700  0.29584400  1
  O  O36  1  0.35683000  0.79276400  0.64070000  1
  O  O37  1  0.20723600  0.64317000  0.85930000  1
  O  O38  1  0.64317000  0.20723600  0.35930000  1
  O  O39  1  0.79276400  0.35683000  0.14070000  1
  O  O40  1  0.91943100  0.08056900  0.75000000  1
  O  O41  1  0.08056900  0.91943100  0.25000000  1
loop_
_geom_bond_atom_site_label_1
_geom_bond_atom_site_label_2
_geom_bond_distance
_geom_bond_site_symmetry_2
Na0 O36 2.366769 1_555
Na0 O24 2.430127 1_555
Na0 O0 2.480126 1_655
Na0 O4 2.607619 1_555
Na0 O12 2.764454 1_555
Na0 O8 2.801485 1_555
Na0 O16 2.824507 1_555
Na1 O37 2.366769 1_555
Na1 O25 2.430127 1_556
Na1 O1 2.480126 1_546
Na1 O5 2.607619 1_555
Na1 O13 2.764454 1_555
Na1 O9 2.801485 1_555
Na1 O17 2.824507 1_556
Na2 O38 2.366769 1_555
Na2 O26 2.430127 1_555
Na2 O2 2.480126 1_455
Na2 O6 2.607619 1_555
Na2 O14 2.764454 1_555
Na2 O10 2.801485 1_555
Na2 O18 2.824507 1_555
Na3 O39 2.366769 1_555
Na3 O27 2.430127 1_554
Na3 O3 2.480126 1_564
Na3 O7 2.607619 1_555
Na3 O15 2.764454 1_555
Na3 O11 2.801485 1_555
Na3 O19 2.824507 1_554
Cu0 O10 1.966233 1_555
Cu0 O8 1.976332 1_555
Cu0 O33 1.983577 1_555
Cu0 O21 2.027467 1_555
Cu1 O11 1.966233 1_556
Cu1 O9 1.976332 1_555
Cu1 O32 1.983577 1_555
Cu1 O20 2.027467 1_555
Cu2 O8 1.966233 1_555
Cu2 O10 1.976332 1_555
Cu2 O35 1.983577 1_555
Cu2 O23 2.027467 1_555
Cu3 O9 1.966233 1_554
Cu3 O11 1.976332 1_555
Cu3 O34 1.983577 1_555
Cu3 O22 2.027467 1_555
B0 O8 1.367795 1_545
B0 O0 1.375317 1_555
B0 O4 1.380478 1_455
B1 O9 1.367795 1_655
B1 O1 1.375317 1_556
B1 O5 1.380478 1_565
B2 O10 1.367795 1_565
B2 O2 1.375317 1_555
B2 O6 1.380478 1_655
B3 O11 1.367795 1_455
B3 O3 1.375317 1_554
B3 O7 1.380478 1_545
B4 O12 1.372974 1_555
B4 O18 1.382929 1_655
B4 O20 1.384519 1_555
B5 O13 1.372974 1_555
B5 O19 1.382929 1_545
B5 O21 1.384519 1_555
B6 O14 1.372974 1_555
B6 O16 1.382929 1_455
B6 O22 1.384519 1_555
B7 O15 1.372974 1_555
B7 O17 1.382929 1_565
B7 O23 1.384519 1_555
B8 O30 1.357192 1_555
B8 O24 1.363689 1_555
B8 O16 1.408118 1_555
B9 O31 1.357192 1_555
B9 O25 1.363689 1_555
B9 O17 1.408118 1_555
B10 O28 1.357192 1_555
B10 O26 1.363689 1_555
B10 O18 1.408118 1_555
B11 O29 1.357192 1_555
B11 O27 1.363689 1_555
B11 O19 1.408118 1_555
B12 O28 1.439090 1_555
B12 O3 1.455977 1_555
B12 O27 1.483939 1_455
B12 O20 1.557789 1_455
B13 O29 1.439090 1_555
B13 O2 1.455977 1_555
B13 O26 1.483939 1_565
B13 O21 1.557789 1_565
B14 O30 1.439090 1_555
B14 O1 1.455977 1_555
B14 O25 1.483939 1_655
B14 O22 1.557789 1_655
B15 O31 1.439090 1_555
B15 O0 1.455977 1_555
B15 O24 1.483939 1_545
B15 O23 1.557789 1_545
B16 O40 1.419064 1_465
B16 O5 1.448816 1_465
B16 O37 1.491844 1_555
B16 O32 1.602401 1_555
B17 O40 1.419064 1_465
B17 O4 1.448816 1_465
B17 O36 1.491844 1_555
B17 O33 1.602401 1_555
B18 O41 1.419064 1_645
B18 O7 1.448816 1_645
B18 O39 1.491844 1_555
B18 O34 1.602401 1_555
B19 O41 1.419064 1_645
B19 O6 1.448816 1_645
B19 O38 1.491844 1_555
B19 O35 1.602401 1_555
B20 O36 1.358284 1_555
B20 O32 1.385064 1_555
B20 O12 1.391113 1_555
B21 O37 1.358284 1_555
B21 O33 1.385064 1_555
B21 O13 1.391113 1_555
B22 O38 1.358284 1_555
B22 O34 1.385064 1_555
B22 O14 1.391113 1_555
B23 O39 1.358284 1_555
B23 O35 1.385064 1_555
B23 O15 1.391113 1_555
