# generated using pymatgen
data_LaSbTe
_symmetry_space_group_name_H-M   'P 1'
_cell_length_a   4.41068620
_cell_length_b   4.45400307
_cell_length_c   19.46518268
_cell_angle_alpha   90.00000000
_cell_angle_beta   90.00000000
_cell_angle_gamma   90.00000000
_symmetry_Int_Tables_number   1
_chemical_formula_structural   LaSbTe
_chemical_formula_sum   'La4 Sb4 Te4'
_cell_volume   382.39759902
_cell_formula_units_Z   4
loop_
 _symmetry_equiv_pos_site_id
 _symmetry_equiv_pos_as_xyz
  1  'x, y, z'
loop_
 _atom_site_type_symbol
 _atom_site_label
 _atom_site_symmetry_multiplicity
 _atom_site_fract_x
 _atom_site_fract_y
 _atom_site_fract_z
 _atom_site_occupancy
  La  La0  1  0.25000000  0.76321502  0.13977338  1
  La  La1  1  0.75000000  0.26321502  0.36022662  1
  La  La2  1  0.25000000  0.73678498  0.63977338  1
  La  La3  1  0.75000000  0.23678498  0.86022662  1
  Sb  Sb0  1  0.25000000  0.28169441  0.00135169  1
  Sb  Sb1  1  0.75000000  0.78169441  0.49864831  1
  Sb  Sb2  1  0.25000000  0.21830559  0.50135169  1
  Sb  Sb3  1  0.75000000  0.71830559  0.99864831  1
  Te  Te0  1  0.75000000  0.26209203  0.18663982  1
  Te  Te1  1  0.25000000  0.76209203  0.31336018  1
  Te  Te2  1  0.75000000  0.23790797  0.68663982  1
  Te  Te3  1  0.25000000  0.73790797  0.81336018  1
loop_
_geom_bond_atom_site_label_1
_geom_bond_atom_site_label_2
_geom_bond_distance
_geom_bond_site_symmetry_2
La0 Te0 3.260835 1_465
La0 Te0 3.260835 1_565
La0 Te0 3.267660 1_455
La0 Te0 3.267660 1_555
La0 Te1 3.378902 1_555
La0 Sb0 3.443766 1_555
La0 Sb3 3.528413 1_454
La0 Sb3 3.528413 1_554
La0 Sb0 3.548622 1_565
La1 Te1 3.260835 1_555
La1 Te1 3.260835 1_655
La1 Te1 3.267660 1_545
La1 Te1 3.267660 1_645
La1 Te0 3.378902 1_555
La1 Sb1 3.443766 1_545
La1 Sb2 3.528413 1_655
La1 Sb2 3.528413 1_555
La1 Sb1 3.548622 1_555
La2 Te2 3.260835 1_455
La2 Te2 3.260835 1_555
La2 Te2 3.267660 1_465
La2 Te2 3.267660 1_565
La2 Te3 3.378902 1_555
La2 Sb2 3.443766 1_565
La2 Sb1 3.528413 1_555
La2 Sb1 3.528413 1_455
La2 Sb2 3.548622 1_555
La3 Te3 3.260835 1_545
La3 Te3 3.260835 1_645
La3 Te3 3.267660 1_555
La3 Te3 3.267660 1_655
La3 Te2 3.378902 1_555
La3 Sb3 3.443766 1_555
La3 Sb0 3.528413 1_556
La3 Sb0 3.528413 1_656
La3 Sb3 3.548622 1_545
Sb0 Sb3 2.940755 1_454
Sb0 Sb3 2.940755 1_554
Sb0 Sb3 3.341118 1_544
Sb0 Sb3 3.341118 1_444
Sb1 Sb2 2.940755 1_565
Sb1 Sb2 2.940755 1_665
Sb1 Sb2 3.341118 1_655
Sb1 Sb2 3.341118 1_555
