# generated using pymatgen
data_Ge3W5
_symmetry_space_group_name_H-M   'P 1'
_cell_length_a   5.05922400
_cell_length_b   7.44619253
_cell_length_c   7.44619253
_cell_angle_alpha   83.37278965
_cell_angle_beta   70.14025388
_cell_angle_gamma   70.14025388
_symmetry_Int_Tables_number   1
_chemical_formula_structural   Ge3W5
_chemical_formula_sum   'Ge6 W10'
_cell_volume   248.13898207
_cell_formula_units_Z   2
loop_
 _symmetry_equiv_pos_site_id
 _symmetry_equiv_pos_as_xyz
  1  'x, y, z'
loop_
 _atom_site_type_symbol
 _atom_site_label
 _atom_site_symmetry_multiplicity
 _atom_site_fract_x
 _atom_site_fract_y
 _atom_site_fract_z
 _atom_site_occupancy
  Ge  Ge0  1  0.16961300  0.16077500  0.50000000  1
  Ge  Ge1  1  0.83038700  0.83922500  0.50000000  1
  Ge  Ge2  1  0.33038700  0.50000000  0.83922500  1
  Ge  Ge3  1  0.66961300  0.50000000  0.16077500  1
  Ge  Ge4  1  0.75000000  0.00000000  0.00000000  1
  Ge  Ge5  1  0.25000000  0.00000000  0.00000000  1
  W  W0  1  0.73076300  0.69487900  0.84359500  1
  W  W1  1  0.26923700  0.30512100  0.15640500  1
  W  W2  1  0.76923700  0.15640500  0.30512100  1
  W  W3  1  0.23076300  0.84359500  0.69487900  1
  W  W4  1  0.57435800  0.15640500  0.69487900  1
  W  W5  1  0.42564200  0.84359500  0.30512100  1
  W  W6  1  0.07435800  0.69487900  0.15640500  1
  W  W7  1  0.92564200  0.30512100  0.84359500  1
  W  W8  1  0.25000000  0.50000000  0.50000000  1
  W  W9  1  0.75000000  0.50000000  0.50000000  1
loop_
_geom_bond_atom_site_label_1
_geom_bond_atom_site_label_2
_geom_bond_distance
_geom_bond_site_symmetry_2
Ge0 W3 2.607098 1_545
Ge0 W5 2.607098 1_545
Ge0 W7 2.610034 1_455
Ge0 W1 2.610034 1_555
Ge0 W8 2.691417 1_555
Ge0 W9 2.691419 1_455
Ge0 W4 2.874466 1_555
Ge0 W2 2.874466 1_555
Ge0 W2 2.874470 1_455
Ge0 W4 2.874470 1_455
Ge1 W4 2.607098 1_565
Ge1 W2 2.607098 1_565
Ge1 W0 2.610034 1_555
Ge1 W6 2.610034 1_655
Ge1 W9 2.691417 1_555
Ge1 W8 2.691419 1_655
Ge1 W3 2.874466 1_555
Ge1 W5 2.874466 1_555
Ge1 W3 2.874470 1_655
Ge1 W5 2.874470 1_655
Ge2 W6 2.607098 1_556
Ge2 W1 2.607098 1_556
Ge2 W4 2.610034 1_555
Ge2 W3 2.610034 1_555
Ge2 W8 2.691417 1_555
Ge2 W9 2.691419 1_555
Ge2 W7 2.874466 1_455
Ge2 W0 2.874466 1_455
Ge2 W0 2.874470 1_555
Ge2 W7 2.874470 1_555
Ge3 W0 2.607098 1_554
Ge3 W7 2.607098 1_554
Ge3 W5 2.610034 1_555
Ge3 W2 2.610034 1_555
Ge3 W9 2.691417 1_555
Ge3 W8 2.691419 1_555
Ge3 W6 2.874466 1_655
Ge3 W1 2.874466 1_655
Ge3 W6 2.874470 1_555
Ge3 W1 2.874470 1_555
Ge4 Ge5 2.529612 1_555
Ge4 Ge5 2.529612 1_655
Ge4 W2 2.713991 1_555
Ge4 W7 2.713991 1_554
Ge4 W1 2.713991 1_555
Ge4 W5 2.713991 1_545
Ge4 W6 2.713991 1_645
Ge4 W3 2.713991 1_644
Ge4 W0 2.713991 1_544
Ge4 W4 2.713991 1_554
Ge5 W5 2.713991 1_545
Ge5 W7 2.713991 1_454
Ge5 W2 2.713991 1_455
Ge5 W1 2.713991 1_555
Ge5 W4 2.713991 1_554
Ge5 W0 2.713991 1_544
Ge5 W3 2.713991 1_544
Ge5 W6 2.713991 1_545
W8 W9 2.529612 1_555
W8 W9 2.529612 1_455
