# generated using pymatgen
data_LiMg14Fe
_symmetry_space_group_name_H-M   'P 1'
_cell_length_a   6.29095018
_cell_length_b   6.29094969
_cell_length_c   9.80072779
_cell_angle_alpha   90.00000000
_cell_angle_beta   90.00000000
_cell_angle_gamma   120.00000259
_symmetry_Int_Tables_number   1
_chemical_formula_structural   LiMg14Fe
_chemical_formula_sum   'Li1 Mg14 Fe1'
_cell_volume   335.90881829
_cell_formula_units_Z   1
loop_
 _symmetry_equiv_pos_site_id
 _symmetry_equiv_pos_as_xyz
  1  'x, y, z'
loop_
 _atom_site_type_symbol
 _atom_site_label
 _atom_site_symmetry_multiplicity
 _atom_site_fract_x
 _atom_site_fract_y
 _atom_site_fract_z
 _atom_site_occupancy
  Li  Li0  1  0.16666700  0.33333300  0.62500000  1
  Mg  Mg0  1  0.16536593  0.83268247  0.12500000  1
  Mg  Mg1  1  0.16963053  0.83481477  0.62500000  1
  Mg  Mg2  1  0.66731753  0.33463407  0.12500000  1
  Mg  Mg3  1  0.66518523  0.33036947  0.62500000  1
  Mg  Mg4  1  0.66731753  0.83268247  0.12500000  1
  Mg  Mg5  1  0.66518523  0.83481477  0.62500000  1
  Mg  Mg6  1  0.32655561  0.17344439  0.36613339  1
  Mg  Mg7  1  0.32655561  0.17344439  0.88386661  1
  Mg  Mg8  1  0.32655561  0.65311222  0.36613339  1
  Mg  Mg9  1  0.32655561  0.65311222  0.88386661  1
  Mg  Mg10  1  0.84688778  0.17344439  0.36613339  1
  Mg  Mg11  1  0.84688778  0.17344439  0.88386661  1
  Mg  Mg12  1  0.83333300  0.66666700  0.37750247  1
  Mg  Mg13  1  0.83333300  0.66666700  0.87249753  1
  Fe  Fe0  1  0.16666700  0.33333300  0.12500000  1
loop_
_geom_bond_atom_site_label_1
_geom_bond_atom_site_label_2
_geom_bond_distance
_geom_bond_site_symmetry_2
Li0 Mg7 3.077660 1_555
Li0 Mg6 3.077660 1_555
Li0 Mg8 3.077666 1_555
Li0 Mg9 3.077666 1_555
Li0 Mg10 3.077666 1_455
Li0 Mg11 3.077666 1_455
Li0 Mg1 3.145516 1_545
Li0 Mg5 3.145516 1_555
Li0 Mg5 3.145516 1_445
Li0 Mg1 3.145516 1_555
Li0 Mg3 3.145516 1_555
Li0 Mg3 3.145517 1_455
Mg0 Mg8 3.005835 1_555
Mg0 Mg9 3.005835 1_554
Mg0 Mg6 3.005842 1_565
Mg0 Mg7 3.005842 1_564
Mg0 Mg13 3.065371 1_454
Mg0 Mg12 3.065371 1_455
Mg0 Mg2 3.133197 1_455
Mg0 Mg4 3.133198 1_455
Mg0 Mg2 3.157752 1_565
Mg0 Mg4 3.157753 1_555
Mg1 Mg12 3.039856 1_455
Mg1 Mg13 3.039856 1_455
Mg1 Mg3 3.117510 1_565
Mg1 Mg5 3.117510 1_555
Mg1 Mg9 3.137906 1_555
Mg1 Mg8 3.137906 1_555
Mg1 Mg7 3.137913 1_565
Mg1 Mg6 3.137913 1_565
Mg1 Mg3 3.173440 1_455
Mg1 Mg5 3.173440 1_455
Mg2 Mg7 3.005842 1_554
Mg2 Mg6 3.005842 1_555
Mg2 Mg4 3.133197 1_555
Mg2 Mg4 3.157752 1_545
Mg3 Mg5 3.117510 1_545
Mg3 Mg6 3.137913 1_555
Mg3 Mg7 3.137913 1_555
Mg3 Mg5 3.173440 1_555
Mg4 Mg9 3.005842 1_554
Mg4 Mg8 3.005842 1_555
Mg5 Mg8 3.137912 1_555
Mg5 Mg9 3.137912 1_555
Mg6 Mg8 3.017566 1_555
Mg6 Mg8 3.273384 1_545
Mg7 Mg9 3.017566 1_555
Mg7 Mg9 3.273384 1_545
Mg10 Mg2 3.005835 1_555
Mg10 Mg4 3.005842 1_545
Mg10 Mg8 3.017566 1_655
Mg10 Mg6 3.017566 1_655
Mg10 Mg3 3.137906 1_555
Mg10 Mg5 3.137912 1_545
Mg10 Mg12 3.148314 1_545
Mg10 Mg12 3.148314 1_555
Mg10 Mg8 3.273384 1_545
Mg10 Mg6 3.273384 1_555
Mg11 Mg2 3.005835 1_556
Mg11 Mg4 3.005842 1_546
Mg11 Mg9 3.017566 1_655
Mg11 Mg7 3.017566 1_655
Mg11 Mg3 3.137906 1_555
Mg11 Mg5 3.137912 1_545
Mg11 Mg13 3.148314 1_545
Mg11 Mg13 3.148314 1_555
Mg11 Mg9 3.273384 1_545
Mg11 Mg7 3.273384 1_555
Mg12 Mg5 3.039850 1_555
Mg12 Mg3 3.039856 1_555
Mg12 Mg4 3.065365 1_555
Mg12 Mg2 3.065371 1_555
Mg12 Mg6 3.148314 1_665
Mg12 Mg6 3.148314 1_555
Mg12 Mg8 3.148314 1_655
Mg12 Mg8 3.148314 1_555
Mg13 Mg5 3.039850 1_555
Mg13 Mg3 3.039856 1_555
Mg13 Mg4 3.065365 1_556
Mg13 Mg2 3.065371 1_556
Mg13 Mg7 3.148314 1_665
Mg13 Mg7 3.148314 1_555
Mg13 Mg9 3.148314 1_655
Mg13 Mg9 3.148314 1_555
Fe0 Mg7 2.936037 1_554
Fe0 Mg6 2.936037 1_555
Fe0 Mg9 2.936044 1_554
Fe0 Mg8 2.936044 1_555
Fe0 Mg11 2.936044 1_454
Fe0 Mg10 2.936044 1_455
Fe0 Mg0 3.145483 1_545
Fe0 Mg4 3.145483 1_445
Fe0 Mg4 3.145483 1_555
Fe0 Mg0 3.145483 1_555
Fe0 Mg2 3.145483 1_555
Fe0 Mg2 3.145483 1_455
