# generated using pymatgen
data_Mg14NbCO16
_symmetry_space_group_name_H-M   'P 1'
_cell_length_a   8.59189343
_cell_length_b   8.54910880
_cell_length_c   4.29587468
_cell_angle_alpha   90.00000000
_cell_angle_beta   90.00000000
_cell_angle_gamma   90.00000000
_symmetry_Int_Tables_number   1
_chemical_formula_structural   Mg14NbCO16
_chemical_formula_sum   'Mg14 Nb1 C1 O16'
_cell_volume   315.54501918
_cell_formula_units_Z   1
loop_
 _symmetry_equiv_pos_site_id
 _symmetry_equiv_pos_as_xyz
  1  'x, y, z'
loop_
 _atom_site_type_symbol
 _atom_site_label
 _atom_site_symmetry_multiplicity
 _atom_site_fract_x
 _atom_site_fract_y
 _atom_site_fract_z
 _atom_site_occupancy
  Mg  Mg0  1  0.50000000  -0.00000000  0.00000000  1
  Mg  Mg1  1  0.50000000  0.50000000  0.00000000  1
  Mg  Mg2  1  -0.00000000  0.26559627  0.50000000  1
  Mg  Mg3  1  -0.00000000  0.73440373  0.50000000  1
  Mg  Mg4  1  0.50000000  0.25340217  0.50000000  1
  Mg  Mg5  1  0.50000000  0.74659783  0.50000000  1
  Mg  Mg6  1  0.25712420  -0.00000000  0.50000000  1
  Mg  Mg7  1  0.24444886  0.50000000  0.50000000  1
  Mg  Mg8  1  0.74287580  -0.00000000  0.50000000  1
  Mg  Mg9  1  0.75555114  0.50000000  0.50000000  1
  Mg  Mg10  1  0.25027339  0.25827457  0.00000000  1
  Mg  Mg11  1  0.25027339  0.74172543  0.00000000  1
  Mg  Mg12  1  0.74972661  0.25827457  -0.00000000  1
  Mg  Mg13  1  0.74972661  0.74172543  -0.00000000  1
  Nb  Nb0  1  -0.00000000  -0.00000000  0.00000000  1
  C  C0  1  -0.00000000  0.50000000  0.00000000  1
  O  O0  1  0.25705390  -0.00000000  -0.00000000  1
  O  O1  1  0.26246999  0.50000000  -0.00000000  1
  O  O2  1  0.74294610  -0.00000000  0.00000000  1
  O  O3  1  0.73753001  0.50000000  0.00000000  1
  O  O4  1  0.24824655  0.24897833  0.50000000  1
  O  O5  1  0.24824655  0.75102167  0.50000000  1
  O  O6  1  0.75175345  0.24897833  0.50000000  1
  O  O7  1  0.75175345  0.75102167  0.50000000  1
  O  O8  1  -0.00000000  -0.00000000  0.50000000  1
  O  O9  1  -0.00000000  0.50000000  0.50000000  1
  O  O10  1  0.50000000  -0.00000000  0.50000000  1
  O  O11  1  0.50000000  0.50000000  0.50000000  1
  O  O12  1  -0.00000000  0.25347927  0.00000000  1
  O  O13  1  -0.00000000  0.74652073  0.00000000  1
  O  O14  1  0.50000000  0.24838254  -0.00000000  1
  O  O15  1  0.50000000  0.75161746  0.00000000  1
loop_
_geom_bond_atom_site_label_1
_geom_bond_atom_site_label_2
_geom_bond_distance
_geom_bond_site_symmetry_2
Mg0 O2 2.087367 1_555
Mg0 O0 2.087367 1_555
Mg0 O15 2.123449 1_545
Mg0 O14 2.123449 1_555
Mg0 O10 2.147937 1_555
Mg0 O10 2.147937 1_554
Mg1 O1 2.040833 1_555
Mg1 O3 2.040833 1_555
Mg1 O11 2.147937 1_555
Mg1 O11 2.147937 1_554
Mg1 O14 2.151105 1_555
Mg1 O15 2.151105 1_555
Mg2 O9 2.003943 1_555
Mg2 O6 2.137634 1_455
Mg2 O4 2.137634 1_555
Mg2 O12 2.150434 1_556
Mg2 O12 2.150434 1_555
Mg2 O8 2.270611 1_555
Mg3 O9 2.003943 1_555
Mg3 O7 2.137634 1_455
Mg3 O5 2.137634 1_555
Mg3 O13 2.150434 1_556
Mg3 O13 2.150434 1_555
Mg3 O8 2.270611 1_565
Mg4 O11 2.108192 1_555
Mg4 O14 2.148366 1_556
Mg4 O14 2.148366 1_555
Mg4 O4 2.163369 1_555
Mg4 O6 2.163369 1_555
Mg4 O10 2.166363 1_555
Mg5 O11 2.108192 1_555
Mg5 O15 2.148366 1_556
Mg5 O15 2.148366 1_555
Mg5 O5 2.163369 1_555
Mg5 O7 2.163369 1_555
Mg5 O10 2.166363 1_565
Mg6 O10 2.086763 1_555
Mg6 O5 2.129909 1_545
Mg6 O4 2.129909 1_555
Mg6 O0 2.147937 1_555
Mg6 O0 2.147937 1_556
Mg6 O8 2.209184 1_555
Mg7 O9 2.100279 1_555
Mg7 O4 2.146260 1_555
Mg7 O5 2.146260 1_555
Mg7 O1 2.153511 1_555
Mg7 O1 2.153511 1_556
Mg7 O11 2.195668 1_555
Mg8 O10 2.086763 1_555
Mg8 O6 2.129909 1_555
Mg8 O7 2.129909 1_545
Mg8 O2 2.147937 1_555
Mg8 O2 2.147937 1_556
Mg8 O8 2.209184 1_655
Mg9 O9 2.100279 1_655
Mg9 O6 2.146260 1_555
Mg9 O7 2.146260 1_555
Mg9 O3 2.153511 1_556
Mg9 O3 2.153511 1_555
Mg9 O11 2.195668 1_555
Mg10 O1 2.069192 1_555
Mg10 O14 2.147290 1_555
Mg10 O4 2.149478 1_554
Mg10 O4 2.149478 1_555
Mg10 O12 2.150713 1_555
Mg10 O0 2.208786 1_555
Mg11 O1 2.069192 1_555
Mg11 O15 2.147290 1_555
Mg11 O5 2.149478 1_555
Mg11 O5 2.149478 1_554
Mg11 O13 2.150713 1_555
Mg11 O0 2.208786 1_565
Mg12 O3 2.069192 1_555
Mg12 O14 2.147290 1_555
Mg12 O6 2.149478 1_555
Mg12 O6 2.149478 1_554
Mg12 O12 2.150713 1_655
Mg12 O2 2.208786 1_555
Mg13 O3 2.069192 1_555
Mg13 O15 2.147290 1_555
Mg13 O7 2.149478 1_555
Mg13 O7 2.149478 1_554
Mg13 O13 2.150713 1_655
Mg13 O2 2.208786 1_565
Nb0 O8 2.147937 1_554
Nb0 O8 2.147937 1_555
Nb0 O12 2.167022 1_555
Nb0 O13 2.167022 1_545
Nb0 O0 2.208580 1_555
Nb0 O2 2.208580 1_455
C0 O13 2.107533 1_555
C0 O12 2.107533 1_555
C0 O9 2.147937 1_555
C0 O9 2.147937 1_554
