# generated using pymatgen
data_TbF4
_symmetry_space_group_name_H-M   'P 1'
_cell_length_a   8.20464125
_cell_length_b   8.20464125
_cell_length_c   7.94742597
_cell_angle_alpha   67.43260058
_cell_angle_beta   67.43260058
_cell_angle_gamma   86.19517064
_symmetry_Int_Tables_number   1
_chemical_formula_structural   TbF4
_chemical_formula_sum   'Tb6 F24'
_cell_volume   454.13820954
_cell_formula_units_Z   6
loop_
 _symmetry_equiv_pos_site_id
 _symmetry_equiv_pos_as_xyz
  1  'x, y, z'
loop_
 _atom_site_type_symbol
 _atom_site_label
 _atom_site_symmetry_multiplicity
 _atom_site_fract_x
 _atom_site_fract_y
 _atom_site_fract_z
 _atom_site_occupancy
  Tb  Tb0  1  0.65227622  0.76645688  0.63370622  1
  Tb  Tb1  1  0.34772378  0.23354312  0.36629378  1
  Tb  Tb2  1  0.23354312  0.34772378  0.86629378  1
  Tb  Tb3  1  0.76645688  0.65227622  0.13370622  1
  Tb  Tb4  1  0.80167848  0.19832152  0.75000000  1
  Tb  Tb5  1  0.19832152  0.80167848  0.25000000  1
  F  F0  1  0.34236508  0.24885505  0.63550536  1
  F  F1  1  0.65763492  0.75114495  0.36449464  1
  F  F2  1  0.75114495  0.65763492  0.86449464  1
  F  F3  1  0.24885505  0.34236508  0.13550536  1
  F  F4  1  0.83136099  0.93964562  0.94323754  1
  F  F5  1  0.16863901  0.06035438  0.05676246  1
  F  F6  1  0.06035438  0.16863901  0.55676246  1
  F  F7  1  0.93964562  0.83136099  0.44323754  1
  F  F8  1  0.42058407  0.57941593  0.75000000  1
  F  F9  1  0.57941593  0.42058407  0.25000000  1
  F  F10  1  0.50000000  -0.00000000  0.50000000  1
  F  F11  1  -0.00000000  0.50000000  0.00000000  1
  F  F12  1  0.50041754  0.20950695  0.86709737  1
  F  F13  1  0.49958246  0.79049305  0.13290263  1
  F  F14  1  0.79049305  0.49958246  0.63290263  1
  F  F15  1  0.20950695  0.50041754  0.36709737  1
  F  F16  1  0.40395468  0.78024423  0.94655711  1
  F  F17  1  0.59604532  0.21975577  0.05344289  1
  F  F18  1  0.21975577  0.59604532  0.55344289  1
  F  F19  1  0.78024423  0.40395468  0.44655711  1
  F  F20  1  0.69554222  0.03368949  0.63183209  1
  F  F21  1  0.30445778  0.96631051  0.36816791  1
  F  F22  1  0.96631051  0.30445778  0.86816791  1
  F  F23  1  0.03368949  0.69554222  0.13183209  1
loop_
_geom_bond_atom_site_label_1
_geom_bond_atom_site_label_2
_geom_bond_distance
_geom_bond_site_symmetry_2
F0 Tb2 2.146695 1_555
F0 Tb1 2.174561 1_555
F1 Tb3 2.146695 1_555
F1 Tb0 2.174561 1_555
F2 Tb0 2.146695 1_555
F2 Tb3 2.174561 1_556
F3 Tb1 2.146695 1_555
F3 Tb2 2.174561 1_554
F4 Tb4 2.153816 1_565
F4 Tb3 2.223189 1_556
F5 Tb5 2.153816 1_545
F5 Tb2 2.223189 1_554
F6 Tb4 2.153816 1_455
F6 Tb1 2.223189 1_555
F7 Tb5 2.153816 1_655
F7 Tb0 2.223189 1_555
F8 Tb2 2.184686 1_555
F8 Tb0 2.184686 1_555
F9 Tb1 2.184686 1_555
F9 Tb3 2.184686 1_555
F10 Tb0 2.345238 1_545
F10 Tb1 2.345238 1_555
F11 Tb3 2.345238 1_455
F11 Tb2 2.345238 1_554
F12 Tb4 2.292134 1_555
F12 Tb2 2.399179 1_555
F13 Tb5 2.292134 1_555
F13 Tb3 2.399179 1_555
F14 Tb4 2.292134 1_555
F14 Tb0 2.399179 1_555
F15 Tb5 2.292134 1_555
F15 Tb1 2.399179 1_555
F16 Tb5 2.420000 1_556
F16 Tb0 2.577384 1_555
F17 Tb4 2.420000 1_554
F17 Tb1 2.577384 1_555
F18 Tb5 2.420000 1_555
F18 Tb2 2.577384 1_555
F19 Tb4 2.420000 1_555
F19 Tb3 2.577384 1_555
F20 Tb0 2.237783 1_545
F20 Tb4 2.285223 1_555
F21 Tb1 2.237783 1_565
F21 Tb5 2.285223 1_555
F22 Tb2 2.237783 1_655
F22 Tb4 2.285223 1_555
F23 Tb3 2.237783 1_455
F23 Tb5 2.285223 1_555
