# generated using pymatgen
data_Li7(Eu2Bi3)2
_symmetry_space_group_name_H-M   'P 1'
_cell_length_a   9.12383462
_cell_length_b   9.12383462
_cell_length_c   12.84227890
_cell_angle_alpha   55.79065339
_cell_angle_beta   55.79065339
_cell_angle_gamma   30.71935435
_symmetry_Int_Tables_number   1
_chemical_formula_structural   Li7(Eu2Bi3)2
_chemical_formula_sum   'Li7 Eu4 Bi6'
_cell_volume   443.67808797
_cell_formula_units_Z   1
loop_
 _symmetry_equiv_pos_site_id
 _symmetry_equiv_pos_as_xyz
  1  'x, y, z'
loop_
 _atom_site_type_symbol
 _atom_site_label
 _atom_site_symmetry_multiplicity
 _atom_site_fract_x
 _atom_site_fract_y
 _atom_site_fract_z
 _atom_site_occupancy
  Li  Li0  1  0.05055200  0.05055200  0.68034600  1
  Li  Li1  1  0.94944800  0.94944800  0.31965400  1
  Li  Li2  1  0.23751100  0.23751100  0.91207600  1
  Li  Li3  1  0.76248900  0.76248900  0.08792400  1
  Li  Li4  1  0.41749600  0.41749600  0.65629000  1
  Li  Li5  1  0.58250400  0.58250400  0.34371000  1
  Li  Li6  1  0.00000000  0.00000000  0.50000000  1
  Eu  Eu0  1  0.25930800  0.25930800  0.33993400  1
  Eu  Eu1  1  0.74069200  0.74069200  0.66006600  1
  Eu  Eu2  1  0.43236000  0.43236000  0.91360200  1
  Eu  Eu3  1  0.56764000  0.56764000  0.08639800  1
  Bi  Bi0  1  0.09438100  0.09438100  0.86661700  1
  Bi  Bi1  1  0.90561900  0.90561900  0.13338300  1
  Bi  Bi2  1  0.15435100  0.15435100  0.18516300  1
  Bi  Bi3  1  0.84564900  0.84564900  0.81483700  1
  Bi  Bi4  1  0.38464000  0.38464000  0.46303800  1
  Bi  Bi5  1  0.61536000  0.61536000  0.53696200  1
loop_
_geom_bond_atom_site_label_1
_geom_bond_atom_site_label_2
_geom_bond_distance
_geom_bond_site_symmetry_2
Li0 Li6 2.925344 1_555
Li1 Li6 2.925344 1_665
Li4 Li6 2.928950 1_565
Li4 Li6 2.928950 1_655
Li5 Li6 2.928950 1_565
Li5 Li6 2.928950 1_655
Eu0 Li6 3.755964 1_555
Eu1 Li6 3.755964 1_665
Eu2 Li2 3.440006 1_555
Eu2 Li0 3.445914 1_655
Eu2 Li0 3.445914 1_565
Eu2 Li3 3.461733 1_546
Eu2 Li3 3.461733 1_456
Eu2 Li4 3.463489 1_555
Eu3 Li3 3.440006 1_555
Eu3 Li1 3.445914 1_455
Eu3 Li1 3.445914 1_545
Eu3 Li2 3.461733 1_654
Eu3 Li2 3.461733 1_564
Eu3 Li5 3.463489 1_555
Bi0 Li2 2.897957 1_555
Bi0 Li0 2.910047 1_555
Bi0 Bi1 3.082189 1_446
Bi0 Eu1 3.397255 1_545
Bi0 Eu1 3.397255 1_455
Bi0 Eu2 3.510876 1_545
Bi0 Eu2 3.510876 1_455
Bi0 Eu3 3.532652 1_456
Bi0 Eu3 3.532652 1_546
Bi1 Li3 2.897957 1_555
Bi1 Li1 2.910047 1_555
Bi1 Eu0 3.397255 1_655
Bi1 Eu0 3.397255 1_565
Bi1 Eu3 3.510876 1_655
Bi1 Eu3 3.510876 1_565
Bi1 Eu2 3.532652 1_654
Bi1 Eu2 3.532652 1_564
Bi2 Li3 2.872223 1_455
Bi2 Li3 2.872223 1_545
Bi2 Li2 2.908010 1_554
Bi2 Li5 2.929642 1_455
Bi2 Li5 2.929642 1_545
Bi2 Li1 2.953119 1_445
Bi2 Li6 3.304394 1_555
Bi2 Eu0 3.411998 1_555
Bi2 Eu3 3.468972 1_455
Bi2 Eu3 3.468972 1_545
Bi3 Li2 2.872223 1_565
Bi3 Li2 2.872223 1_655
Bi3 Li3 2.908010 1_556
Bi3 Li4 2.929642 1_565
Bi3 Li4 2.929642 1_655
Bi3 Li0 2.953119 1_665
Bi3 Li6 3.304394 1_665
Bi3 Eu1 3.411998 1_555
Bi3 Eu2 3.468972 1_655
Bi3 Eu2 3.468972 1_565
Bi4 Li1 2.843051 1_455
Bi4 Li1 2.843051 1_545
Bi4 Li4 2.857735 1_555
Bi4 Li5 2.872004 1_555
Bi4 Eu1 3.344391 1_455
Bi4 Eu1 3.344391 1_545
Bi4 Li6 3.362983 1_565
Bi4 Li6 3.362983 1_655
Bi4 Eu0 3.380589 1_555
Bi5 Li0 2.843051 1_565
Bi5 Li0 2.843051 1_655
Bi5 Li5 2.857735 1_555
Bi5 Li4 2.872004 1_555
Bi5 Eu0 3.344391 1_565
Bi5 Eu0 3.344391 1_655
Bi5 Li6 3.362983 1_655
Bi5 Li6 3.362983 1_565
Bi5 Eu1 3.380589 1_555
