# generated using pymatgen
data_RbSc(PO4)2
_symmetry_space_group_name_H-M   'P 1'
_cell_length_a   9.16710400
_cell_length_b   5.40120000
_cell_length_c   15.39408772
_cell_angle_alpha   86.54765613
_cell_angle_beta   90.00000000
_cell_angle_gamma   90.00000000
_symmetry_Int_Tables_number   1
_chemical_formula_structural   RbSc(PO4)2
_chemical_formula_sum   'Rb4 Sc4 P8 O32'
_cell_volume   760.82979893
_cell_formula_units_Z   4
loop_
 _symmetry_equiv_pos_site_id
 _symmetry_equiv_pos_as_xyz
  1  'x, y, z'
loop_
 _atom_site_type_symbol
 _atom_site_label
 _atom_site_symmetry_multiplicity
 _atom_site_fract_x
 _atom_site_fract_y
 _atom_site_fract_z
 _atom_site_occupancy
  Rb  Rb0  1  0.01853100  0.73489500  0.61208500  1
  Rb  Rb1  1  0.51853100  0.26510500  0.88791500  1
  Rb  Rb2  1  0.98146900  0.26510500  0.38791500  1
  Rb  Rb3  1  0.48146900  0.73489500  0.11208500  1
  Sc  Sc0  1  0.54219500  0.73930200  0.65295900  1
  Sc  Sc1  1  0.04219500  0.26069800  0.84704100  1
  Sc  Sc2  1  0.45780500  0.26069800  0.34704100  1
  Sc  Sc3  1  0.95780500  0.73930200  0.15295900  1
  P  P0  1  0.33634800  0.26611900  0.56558400  1
  P  P1  1  0.83634800  0.73388100  0.93441600  1
  P  P2  1  0.66365200  0.73388100  0.43441600  1
  P  P3  1  0.16365200  0.26611900  0.06558400  1
  P  P4  1  0.26344600  0.77844300  0.81583000  1
  P  P5  1  0.76344600  0.22155700  0.68417000  1
  P  P6  1  0.73655400  0.22155700  0.18417000  1
  P  P7  1  0.23655400  0.77844300  0.31583000  1
  O  O0  1  0.43502400  0.05939000  0.60572300  1
  O  O1  1  0.93502400  0.94061000  0.89427700  1
  O  O2  1  0.56497600  0.94061000  0.39427700  1
  O  O3  1  0.06497600  0.05939000  0.10572300  1
  O  O4  1  0.34215800  0.26554500  0.46516500  1
  O  O5  1  0.84215800  0.73445500  0.03483500  1
  O  O6  1  0.65784200  0.73445500  0.53483500  1
  O  O7  1  0.15784200  0.26554500  0.96516500  1
  O  O8  1  0.38531400  0.52354500  0.59310500  1
  O  O9  1  0.88531400  0.47645500  0.90689500  1
  O  O10  1  0.61468600  0.47645500  0.40689500  1
  O  O11  1  0.11468600  0.52354500  0.09310500  1
  O  O12  1  0.67660200  0.77957600  0.90684600  1
  O  O13  1  0.17660200  0.22042400  0.59315400  1
  O  O14  1  0.32339800  0.22042400  0.09315400  1
  O  O15  1  0.82339800  0.77957600  0.40684600  1
  O  O16  1  0.40075300  0.72816700  0.76042700  1
  O  O17  1  0.90075300  0.27183300  0.73957300  1
  O  O18  1  0.59924700  0.27183300  0.23957300  1
  O  O19  1  0.09924700  0.72816700  0.26042700  1
  O  O20  1  0.14748800  0.58231600  0.79760500  1
  O  O21  1  0.64748800  0.41768400  0.70239500  1
  O  O22  1  0.85251200  0.41768400  0.20239500  1
  O  O23  1  0.35251200  0.58231600  0.29760500  1
  O  O24  1  0.20377200  0.04158000  0.79421200  1
  O  O25  1  0.70377200  0.95842000  0.70578800  1
  O  O26  1  0.79622800  0.95842000  0.20578800  1
  O  O27  1  0.29622800  0.04158000  0.29421200  1
  O  O28  1  0.32602700  0.75649600  0.90958800  1
  O  O29  1  0.82602700  0.24350400  0.59041200  1
  O  O30  1  0.67397300  0.24350400  0.09041200  1
  O  O31  1  0.17397300  0.75649600  0.40958800  1
loop_
_geom_bond_atom_site_label_1
_geom_bond_atom_site_label_2
_geom_bond_distance
_geom_bond_site_symmetry_2
O0 P0 1.537441 1_555
O0 Sc0 2.081227 1_545
O1 P1 1.537441 1_555
O1 Sc1 2.081227 1_665
O2 P2 1.537441 1_555
O2 Sc2 2.081227 1_565
O3 P3 1.537441 1_555
O3 Sc3 2.081227 1_445
O4 P0 1.546966 1_555
O4 Sc2 2.106407 1_555
O4 Rb2 3.513872 1_455
O5 P1 1.546966 1_554
O5 Sc3 2.106407 1_555
O5 Rb3 3.513872 1_555
O6 P2 1.546966 1_555
O6 Sc0 2.106407 1_555
O6 Rb0 3.513872 1_655
O7 P3 1.546966 1_556
O7 Sc1 2.106407 1_555
O7 Rb1 3.513872 1_555
O8 P0 1.544397 1_555
O8 Sc0 2.098710 1_555
O8 Rb0 3.568470 1_555
O9 P1 1.544397 1_555
O9 Sc1 2.098710 1_655
O9 Rb1 3.568470 1_555
O10 P2 1.544397 1_555
O10 Sc2 2.098710 1_555
O10 Rb2 3.568470 1_555
O11 P3 1.544397 1_555
O11 Sc3 2.098710 1_455
O11 Rb3 3.568470 1_555
O12 P1 1.540428 1_555
O12 Rb1 2.994967 1_565
O12 Rb1 3.162867 1_555
O12 Rb3 3.626081 1_556
O13 P0 1.540428 1_555
O13 Rb0 2.994967 1_545
O13 Rb0 3.162867 1_555
O13 Rb2 3.626081 1_455
O14 P3 1.540428 1_555
O14 Rb3 2.994967 1_545
O14 Rb3 3.162867 1_555
O14 Rb1 3.626081 1_554
O15 P2 1.540428 1_555
O15 Rb2 2.994967 1_565
O15 Rb2 3.162867 1_555
O15 Rb0 3.626081 1_655
O16 P4 1.553506 1_555
O16 Sc0 2.099949 1_555
O16 Rb1 3.268279 1_555
O17 P5 1.553506 1_555
O17 Sc1 2.099949 1_655
O17 Rb0 3.268279 1_655
O18 P6 1.553506 1_555
O18 Sc2 2.099949 1_555
O18 Rb3 3.268279 1_555
O19 P7 1.553506 1_555
O19 Sc3 2.099949 1_455
O19 Rb2 3.268279 1_455
O20 P4 1.538387 1_555
O20 Sc1 2.090265 1_555
O20 Rb0 3.154273 1_555
O21 P5 1.538387 1_555
O21 Sc0 2.090265 1_555
O21 Rb1 3.154273 1_555
O22 P6 1.538387 1_555
O22 Sc3 2.090265 1_555
O22 Rb2 3.154273 1_555
O23 P7 1.538387 1_555
O23 Sc2 2.090265 1_555
O23 Rb3 3.154273 1_555
O24 P4 1.540455 1_545
O24 Sc1 2.090911 1_555
O24 Rb1 3.474730 1_555
O25 P5 1.540455 1_565
O25 Sc0 2.090911 1_555
O25 Rb0 3.474730 1_655
O26 P6 1.540455 1_565
O26 Sc3 2.090911 1_555
O26 Rb3 3.474730 1_555
O27 P7 1.540455 1_545
O27 Sc2 2.090911 1_555
O27 Rb2 3.474730 1_455
O28 P4 1.551042 1_555
O28 Rb1 3.221241 1_555
O28 Rb1 3.265220 1_565
O28 Rb3 3.423097 1_556
O29 P5 1.551042 1_555
O29 Rb0 3.221241 1_655
O29 Rb0 3.265220 1_645
O29 Rb2 3.423097 1_555
O30 P6 1.551042 1_555
O30 Rb3 3.221241 1_555
O30 Rb3 3.265220 1_545
O30 Rb1 3.423097 1_554
O31 P7 1.551042 1_555
O31 Rb2 3.221241 1_455
O31 Rb2 3.265220 1_465
O31 Rb0 3.423097 1_555
