# generated using pymatgen
data_CeGePd
_symmetry_space_group_name_H-M   'P 1'
_cell_length_a   5.66048059
_cell_length_b   5.66048059
_cell_length_c   7.26593230
_cell_angle_alpha   51.75723689
_cell_angle_beta   51.75723689
_cell_angle_gamma   46.41992181
_symmetry_Int_Tables_number   1
_chemical_formula_structural   CeGePd
_chemical_formula_sum   'Ce2 Ge2 Pd2'
_cell_volume   124.66252510
_cell_formula_units_Z   2
loop_
 _symmetry_equiv_pos_site_id
 _symmetry_equiv_pos_as_xyz
  1  'x, y, z'
loop_
 _atom_site_type_symbol
 _atom_site_label
 _atom_site_symmetry_multiplicity
 _atom_site_fract_x
 _atom_site_fract_y
 _atom_site_fract_z
 _atom_site_occupancy
  Ce  Ce0  1  0.46143800  0.46143800  0.30056600  1
  Ce  Ce1  1  0.53856200  0.53856200  0.69943400  1
  Ge  Ge0  1  0.15870600  0.15870600  0.89948100  1
  Ge  Ge1  1  0.84129400  0.84129400  0.10051900  1
  Pd  Pd0  1  0.82200300  0.82200300  0.71479400  1
  Pd  Pd1  1  0.17799700  0.17799700  0.28520600  1
loop_
_geom_bond_atom_site_label_1
_geom_bond_atom_site_label_2
_geom_bond_distance
_geom_bond_site_symmetry_2
Ce0 Pd1 3.025415 1_555
Ce0 Ge0 3.102419 1_564
Ce0 Ge0 3.102419 1_654
Ce0 Pd1 3.118859 1_655
Ce0 Pd1 3.118859 1_565
Ce0 Ge1 3.161508 1_555
Ce0 Pd0 3.202838 1_545
Ce0 Pd0 3.202838 1_455
Ce0 Ge0 3.224134 1_555
Ce0 Pd0 3.268213 1_554
Ce0 Ge1 3.331578 1_545
Ce0 Ge1 3.331578 1_455
Ce1 Pd0 3.025415 1_555
Ce1 Ge1 3.102419 1_546
Ce1 Ge1 3.102419 1_456
Ce1 Pd0 3.118859 1_455
Ce1 Pd0 3.118859 1_545
Ce1 Ge0 3.161508 1_555
Ce1 Pd1 3.202838 1_565
Ce1 Pd1 3.202838 1_655
Ce1 Ge1 3.224134 1_555
Ce1 Pd1 3.268213 1_556
Ce1 Ge0 3.331578 1_655
Ce1 Ge0 3.331578 1_565
Ge0 Ge1 2.557847 1_446
Ge0 Pd0 2.567658 1_545
Ge0 Pd0 2.567658 1_455
Ge0 Pd1 2.941580 1_556
Ge1 Pd1 2.567658 1_655
Ge1 Pd1 2.567658 1_565
Ge1 Pd0 2.941580 1_554
Pd0 Pd1 2.808756 1_665
