# generated using pymatgen
data_Li3SiO4
_symmetry_space_group_name_H-M   'P 1'
_cell_length_a   5.27655976
_cell_length_b   5.27655976
_cell_length_c   6.25485100
_cell_angle_alpha   90.00000000
_cell_angle_beta   90.00000000
_cell_angle_gamma   89.81838089
_symmetry_Int_Tables_number   1
_chemical_formula_structural   Li3SiO4
_chemical_formula_sum   'Li6 Si2 O8'
_cell_volume   174.14720503
_cell_formula_units_Z   2
loop_
 _symmetry_equiv_pos_site_id
 _symmetry_equiv_pos_as_xyz
  1  'x, y, z'
loop_
 _atom_site_type_symbol
 _atom_site_label
 _atom_site_symmetry_multiplicity
 _atom_site_fract_x
 _atom_site_fract_y
 _atom_site_fract_z
 _atom_site_occupancy
  Li  Li0  1  0.82226600  0.17773400  0.75000000  1
  Li  Li1  1  0.17773400  0.82226600  0.25000000  1
  Li  Li2  1  0.17786000  0.82214000  0.75000000  1
  Li  Li3  1  0.82214000  0.17786000  0.25000000  1
  Li  Li4  1  0.69474700  0.69474700  0.00000000  1
  Li  Li5  1  0.30525300  0.30525300  0.50000000  1
  Si  Si0  1  0.31911200  0.31911200  0.00000000  1
  Si  Si1  1  0.68088800  0.68088800  0.50000000  1
  O  O0  1  0.80357400  0.80308200  0.71671400  1
  O  O1  1  0.19642600  0.19691800  0.21671400  1
  O  O2  1  0.19691800  0.19642600  0.78328600  1
  O  O3  1  0.80308200  0.80357400  0.28328600  1
  O  O4  1  0.63107000  0.28816500  0.00017800  1
  O  O5  1  0.36893000  0.71183500  0.50017800  1
  O  O6  1  0.71183500  0.36893000  0.49982200  1
  O  O7  1  0.28816500  0.63107000  0.99982200  1
loop_
_geom_bond_atom_site_label_1
_geom_bond_atom_site_label_2
_geom_bond_distance
_geom_bond_site_symmetry_2
Li0 O6 1.949944 1_555
Li0 O4 1.949944 1_556
Li0 O2 1.990563 1_655
Li0 O0 1.990563 1_545
Li1 O7 1.949944 1_554
Li1 O5 1.949944 1_555
Li1 O1 1.990563 1_565
Li1 O3 1.990563 1_455
Li2 O5 1.947616 1_555
Li2 O7 1.947616 1_555
Li2 O2 1.988747 1_565
Li2 O0 1.988747 1_455
Li3 O4 1.947616 1_555
Li3 O6 1.947616 1_555
Li3 O1 1.988747 1_655
Li3 O3 1.988747 1_545
Li4 O3 1.948913 1_555
Li4 O0 1.948913 1_554
Li4 O7 2.172558 1_554
Li4 O4 2.172558 1_555
Li5 O1 1.948913 1_555
Li5 O2 1.948913 1_555
Li5 O6 2.172558 1_555
Li5 O5 2.172558 1_555
O0 Si1 1.635500 1_555
O1 Si0 1.635500 1_555
O2 Si0 1.635500 1_556
O3 Si1 1.635500 1_555
O4 Si0 1.653630 1_555
O5 Si1 1.653630 1_555
O6 Si1 1.653630 1_555
O7 Si0 1.653630 1_556
