# generated using pymatgen
data_Y5SbPd2
_symmetry_space_group_name_H-M   'P 1'
_cell_length_a   8.78370888
_cell_length_b   8.78370888
_cell_length_c   8.78370888
_cell_angle_alpha   127.63966963
_cell_angle_beta   127.63966963
_cell_angle_gamma   77.20948033
_symmetry_Int_Tables_number   1
_chemical_formula_structural   Y5SbPd2
_chemical_formula_sum   'Y10 Sb2 Pd4'
_cell_volume   412.35099280
_cell_formula_units_Z   2
loop_
 _symmetry_equiv_pos_site_id
 _symmetry_equiv_pos_as_xyz
  1  'x, y, z'
loop_
 _atom_site_type_symbol
 _atom_site_label
 _atom_site_symmetry_multiplicity
 _atom_site_fract_x
 _atom_site_fract_y
 _atom_site_fract_z
 _atom_site_occupancy
  Y  Y0  1  0.00000000  0.00000000  0.00000000  1
  Y  Y1  1  0.50000000  0.50000000  0.00000000  1
  Y  Y2  1  0.79857686  0.29857686  0.81199621  1
  Y  Y3  1  0.20142314  0.70142314  0.18800379  1
  Y  Y4  1  0.48658065  0.98658065  0.18800379  1
  Y  Y5  1  0.29857686  0.48658065  0.50000000  1
  Y  Y6  1  0.01341935  0.20142314  0.50000000  1
  Y  Y7  1  0.51341935  0.01341935  0.81199621  1
  Y  Y8  1  0.70142314  0.51341935  0.50000000  1
  Y  Y9  1  0.98658065  0.79857686  0.50000000  1
  Sb  Sb0  1  0.25000000  0.25000000  0.00000000  1
  Sb  Sb1  1  0.75000000  0.75000000  0.00000000  1
  Pd  Pd0  1  0.13641062  0.63641062  0.77282124  1
  Pd  Pd1  1  0.86358938  0.36358938  0.22717876  1
  Pd  Pd2  1  0.63641062  0.86358938  0.50000000  1
  Pd  Pd3  1  0.36358938  0.13641062  0.50000000  1
loop_
_geom_bond_atom_site_label_1
_geom_bond_atom_site_label_2
_geom_bond_distance
_geom_bond_site_symmetry_2
Sb0 Y2 3.278039 1_454
Sb0 Y4 3.278039 1_545
Sb0 Y6 3.278039 1_554
Sb0 Y5 3.278039 1_555
Sb0 Y9 3.278039 1_444
Sb0 Y8 3.278039 1_555
Sb0 Y7 3.278039 1_554
Sb0 Y3 3.278039 1_555
Sb0 Y0 3.432097 1_555
Sb0 Y1 3.432097 1_555
Sb1 Y9 3.278039 1_555
Sb1 Y7 3.278039 1_564
Sb1 Y3 3.278039 1_655
Sb1 Y5 3.278039 1_554
Sb1 Y6 3.278039 1_665
Sb1 Y2 3.278039 1_554
Sb1 Y4 3.278039 1_555
Sb1 Y8 3.278039 1_554
Sb1 Y0 3.432097 1_665
Sb1 Y1 3.432097 1_555
Pd0 Y9 2.998460 1_455
Pd0 Y8 2.998460 1_455
Pd0 Y5 2.998460 1_555
Pd0 Y6 2.998460 1_555
Pd0 Y4 3.001481 1_556
Pd0 Y3 3.001481 1_556
Pd0 Y0 3.009863 1_566
Pd0 Y1 3.009863 1_556
Pd1 Y5 2.998460 1_655
Pd1 Y6 2.998460 1_655
Pd1 Y8 2.998460 1_555
Pd1 Y9 2.998460 1_555
Pd1 Y7 3.001481 1_554
Pd1 Y2 3.001481 1_554
Pd1 Y0 3.009863 1_655
Pd1 Y1 3.009863 1_555
Pd2 Y4 2.998460 1_555
Pd2 Y2 2.998460 1_565
Pd2 Y7 2.998460 1_565
Pd2 Y3 2.998460 1_555
Pd2 Y9 3.001481 1_555
Pd2 Y8 3.001481 1_555
Pd2 Y1 3.009863 1_555
Pd2 Y0 3.009863 1_666
Pd3 Y7 2.998460 1_555
Pd3 Y4 2.998460 1_545
Pd3 Y3 2.998460 1_545
Pd3 Y2 2.998460 1_555
Pd3 Y6 3.001481 1_555
Pd3 Y5 3.001481 1_555
Pd3 Y1 3.009863 1_556
Pd3 Y0 3.009863 1_555
