# generated using pymatgen
data_KZr6MnCl14
_symmetry_space_group_name_H-M   'P 1'
_cell_length_a   9.88722069
_cell_length_b   9.88722069
_cell_length_c   12.03395400
_cell_angle_alpha   90.00000000
_cell_angle_beta   90.00000000
_cell_angle_gamma   95.92132618
_symmetry_Int_Tables_number   1
_chemical_formula_structural   KZr6MnCl14
_chemical_formula_sum   'K2 Zr12 Mn2 Cl28'
_cell_volume   1170.12811895
_cell_formula_units_Z   2
loop_
 _symmetry_equiv_pos_site_id
 _symmetry_equiv_pos_as_xyz
  1  'x, y, z'
loop_
 _atom_site_type_symbol
 _atom_site_label
 _atom_site_symmetry_multiplicity
 _atom_site_fract_x
 _atom_site_fract_y
 _atom_site_fract_z
 _atom_site_occupancy
  K  K0  1  0.50000000  0.50000000  0.00000000  1
  K  K1  1  0.00000000  0.00000000  0.50000000  1
  Zr  Zr0  1  0.34925100  0.34925100  0.38968500  1
  Zr  Zr1  1  0.65074900  0.65074900  0.61031500  1
  Zr  Zr2  1  0.15074900  0.15074900  0.88968500  1
  Zr  Zr3  1  0.84925100  0.84925100  0.11031500  1
  Zr  Zr4  1  0.95197600  0.19107600  0.11822700  1
  Zr  Zr5  1  0.04802400  0.80892400  0.88177300  1
  Zr  Zr6  1  0.54802400  0.30892400  0.61822700  1
  Zr  Zr7  1  0.69107600  0.45197600  0.38177300  1
  Zr  Zr8  1  0.45197600  0.69107600  0.38177300  1
  Zr  Zr9  1  0.30892400  0.54802400  0.61822700  1
  Zr  Zr10  1  0.80892400  0.04802400  0.88177300  1
  Zr  Zr11  1  0.19107600  0.95197600  0.11822700  1
  Mn  Mn0  1  0.00000000  0.00000000  0.00000000  1
  Mn  Mn1  1  0.50000000  0.50000000  0.50000000  1
  Cl  Cl0  1  0.11738800  0.36287200  0.00705700  1
  Cl  Cl1  1  0.88261200  0.63712800  0.99294300  1
  Cl  Cl2  1  0.38261200  0.13712800  0.50705700  1
  Cl  Cl3  1  0.86287200  0.61738800  0.49294300  1
  Cl  Cl4  1  0.61738800  0.86287200  0.49294300  1
  Cl  Cl5  1  0.13712800  0.38261200  0.50705700  1
  Cl  Cl6  1  0.63712800  0.88261200  0.99294300  1
  Cl  Cl7  1  0.36287200  0.11738800  0.00705700  1
  Cl  Cl8  1  0.74995100  0.25004900  0.00000000  1
  Cl  Cl9  1  0.25004900  0.74995100  0.00000000  1
  Cl  Cl10  1  0.75004900  0.24995100  0.50000000  1
  Cl  Cl11  1  0.24995100  0.75004900  0.50000000  1
  Cl  Cl12  1  0.89965600  0.39965600  0.25000000  1
  Cl  Cl13  1  0.10034500  0.60034500  0.75000000  1
  Cl  Cl14  1  0.60034400  0.10034500  0.75000000  1
  Cl  Cl15  1  0.39965600  0.89965600  0.25000000  1
  Cl  Cl16  1  0.15505300  0.15505300  0.25909100  1
  Cl  Cl17  1  0.84494700  0.84494700  0.74090900  1
  Cl  Cl18  1  0.34494700  0.34494700  0.75909100  1
  Cl  Cl19  1  0.65505300  0.65505300  0.24090900  1
  Cl  Cl20  1  0.29134700  0.53567000  0.25274300  1
  Cl  Cl21  1  0.70865300  0.46433000  0.74725700  1
  Cl  Cl22  1  0.20865300  0.96433000  0.75274300  1
  Cl  Cl23  1  0.03567000  0.79134700  0.24725700  1
  Cl  Cl24  1  0.79134700  0.03567000  0.24725700  1
  Cl  Cl25  1  0.96433000  0.20865300  0.75274300  1
  Cl  Cl26  1  0.46433000  0.70865300  0.74725700  1
  Cl  Cl27  1  0.53567000  0.29134700  0.25274300  1
loop_
_geom_bond_atom_site_label_1
_geom_bond_atom_site_label_2
_geom_bond_distance
_geom_bond_site_symmetry_2
Mn0 Zr3 2.397305 1_445
Mn0 Zr2 2.397305 1_554
Mn0 Zr11 2.450274 1_545
Mn0 Zr4 2.450274 1_455
Mn0 Zr5 2.450274 1_544
Mn0 Zr10 2.450274 1_454
Mn1 Zr1 2.397305 1_555
Mn1 Zr0 2.397305 1_555
Mn1 Zr6 2.450274 1_555
Mn1 Zr9 2.450274 1_555
Mn1 Zr8 2.450274 1_555
Mn1 Zr7 2.450274 1_555
Cl0 Zr2 2.577837 1_554
Cl0 Zr4 2.603174 1_455
Cl1 Zr3 2.577837 1_556
Cl1 Zr5 2.603174 1_655
Cl2 Zr0 2.577837 1_555
Cl2 Zr6 2.603174 1_555
Cl3 Zr1 2.577837 1_555
Cl3 Zr7 2.603174 1_555
Cl4 Zr1 2.577837 1_555
Cl4 Zr8 2.603174 1_555
Cl5 Zr0 2.577837 1_555
Cl5 Zr9 2.603174 1_555
Cl6 Zr3 2.577837 1_556
Cl6 Zr10 2.603174 1_565
Cl7 Zr2 2.577837 1_554
Cl7 Zr11 2.603174 1_545
Cl8 Zr4 2.567944 1_555
Cl8 Zr10 2.567944 1_554
Cl8 K0 3.670827 1_555
Cl9 Zr11 2.567944 1_555
Cl9 Zr5 2.567944 1_554
Cl9 K0 3.670827 1_555
Cl10 Zr6 2.567944 1_555
Cl10 Zr7 2.567944 1_555
Cl10 K1 3.670827 1_655
Cl11 Zr9 2.567944 1_555
Cl11 Zr8 2.567944 1_555
Cl11 K1 3.670827 1_565
Cl12 Zr4 2.693566 1_555
Cl12 Zr7 2.693566 1_555
Cl13 Zr5 2.693561 1_555
Cl13 Zr9 2.693561 1_555
Cl14 Zr6 2.693558 1_555
Cl14 Zr10 2.693569 1_555
Cl15 Zr11 2.693566 1_555
Cl15 Zr8 2.693566 1_555
Cl16 Zr4 2.679454 1_455
Cl16 Zr11 2.679454 1_545
Cl16 Zr0 3.013727 1_555
Cl16 K1 3.552498 1_555
Cl17 Zr5 2.679454 1_655
Cl17 Zr10 2.679454 1_565
Cl17 Zr1 3.013727 1_555
Cl17 K1 3.552498 1_665
Cl18 Zr9 2.679454 1_555
Cl18 Zr6 2.679454 1_555
Cl18 Zr2 3.013727 1_555
Cl18 K0 3.552498 1_556
Cl19 Zr7 2.679454 1_555
Cl19 Zr8 2.679454 1_555
Cl19 Zr3 3.013727 1_555
Cl19 K0 3.552498 1_555
Cl20 Zr0 2.580407 1_555
Cl20 Zr8 2.605906 1_555
Cl20 K0 3.712300 1_555
Cl21 Zr1 2.580407 1_555
Cl21 Zr6 2.605906 1_555
Cl21 K0 3.712300 1_556
Cl22 Zr2 2.580407 1_565
Cl22 Zr5 2.605906 1_555
Cl22 K1 3.712300 1_565
Cl23 Zr3 2.580407 1_455
Cl23 Zr11 2.605906 1_555
Cl23 K1 3.712300 1_565
Cl24 Zr3 2.580407 1_545
Cl24 Zr4 2.605906 1_555
Cl24 K1 3.712300 1_655
Cl25 Zr2 2.580407 1_655
Cl25 Zr10 2.605906 1_555
Cl25 K1 3.712300 1_655
Cl26 Zr1 2.580407 1_555
Cl26 Zr9 2.605906 1_555
Cl26 K0 3.712300 1_556
Cl27 Zr0 2.580407 1_555
Cl27 Zr7 2.605906 1_555
Cl27 K0 3.712300 1_555
