# generated using pymatgen
data_Li7Mn2(CoO4)3
_symmetry_space_group_name_H-M   'P 1'
_cell_length_a   5.07290600
_cell_length_b   6.51997081
_cell_length_c   6.63240033
_cell_angle_alpha   83.31298722
_cell_angle_beta   81.93487017
_cell_angle_gamma   82.91392989
_symmetry_Int_Tables_number   1
_chemical_formula_structural   Li7Mn2(CoO4)3
_chemical_formula_sum   'Li7 Mn2 Co3 O12'
_cell_volume   214.43929805
_cell_formula_units_Z   1
loop_
 _symmetry_equiv_pos_site_id
 _symmetry_equiv_pos_as_xyz
  1  'x, y, z'
loop_
 _atom_site_type_symbol
 _atom_site_label
 _atom_site_symmetry_multiplicity
 _atom_site_fract_x
 _atom_site_fract_y
 _atom_site_fract_z
 _atom_site_occupancy
  Li  Li0  1  0.74531300  0.58560700  0.41861100  1
  Li  Li1  1  0.73954500  0.24888300  0.74046900  1
  Li  Li2  1  0.26045500  0.75111700  0.25953100  1
  Li  Li3  1  0.25468700  0.41439300  0.58138900  1
  Li  Li4  1  0.74581700  0.91553600  0.08389500  1
  Li  Li5  1  0.25418300  0.08446400  0.91610500  1
  Li  Li6  1  0.50000000  0.00000000  0.50000000  1
  Mn  Mn0  1  0.00116900  0.83504500  0.66179700  1
  Mn  Mn1  1  0.99883100  0.16495500  0.33820300  1
  Co  Co0  1  0.00000000  0.50000000  0.00000000  1
  Co  Co1  1  0.49777500  0.67484800  0.82479500  1
  Co  Co2  1  0.50222500  0.32515200  0.17520500  1
  O  O0  1  0.87897800  0.55774000  0.71326300  1
  O  O1  1  0.88197000  0.20692700  0.06564900  1
  O  O2  1  0.35064600  0.71442900  0.55702500  1
  O  O3  1  0.36698100  0.39182100  0.88355400  1
  O  O4  1  0.89443100  0.88655600  0.38891600  1
  O  O5  1  0.35889400  0.06369200  0.21192100  1
  O  O6  1  0.63301900  0.60817900  0.11644600  1
  O  O7  1  0.64935400  0.28557100  0.44297500  1
  O  O8  1  0.11803000  0.79307300  0.93435100  1
  O  O9  1  0.12102200  0.44226000  0.28673700  1
  O  O10  1  0.64110600  0.93630800  0.78807900  1
  O  O11  1  0.10556900  0.11344400  0.61108400  1
loop_
_geom_bond_atom_site_label_1
_geom_bond_atom_site_label_2
_geom_bond_distance
_geom_bond_site_symmetry_2
Li0 O7 2.056490 1_555
Li0 O9 2.134065 1_655
Li0 O0 2.137901 1_555
Li0 O6 2.143238 1_555
Li0 O4 2.166927 1_555
Li0 O2 2.192170 1_555
Li1 O7 2.067864 1_555
Li1 O11 2.070930 1_655
Li1 O10 2.135279 1_545
Li1 O3 2.146926 1_555
Li1 O0 2.195223 1_555
Li1 O1 2.345077 1_556
Li2 O2 2.067864 1_555
Li2 O4 2.070930 1_455
Li2 O5 2.135279 1_565
Li2 O6 2.146926 1_555
Li2 O9 2.195223 1_555
Li2 O8 2.345077 1_554
Li3 O2 2.056490 1_555
Li3 O0 2.134065 1_455
Li3 O9 2.137901 1_555
Li3 O3 2.143238 1_555
Li3 O11 2.166927 1_555
Li3 O7 2.192170 1_555
Li4 O1 2.085167 1_565
Li4 O10 2.088691 1_554
Li4 O8 2.115075 1_654
Li4 O6 2.130112 1_555
Li4 O5 2.182282 1_565
Li4 O4 2.236175 1_555
Li5 O8 2.085167 1_545
Li5 O5 2.088691 1_556
Li5 O1 2.115075 1_456
Li5 O3 2.130112 1_555
Li5 O10 2.182282 1_545
Li5 O11 2.236175 1_555
Li6 O2 2.070617 1_545
Li6 O7 2.070617 1_555
Li6 O4 2.107524 1_545
Li6 O11 2.107524 1_555
Li6 O10 2.112129 1_545
Li6 O5 2.112129 1_555
Mn0 O2 1.918847 1_555
Mn0 O11 1.932203 1_565
Mn0 O4 1.941680 1_455
Mn0 O8 1.959472 1_555
Mn0 O0 1.960380 1_455
Mn0 O10 1.968685 1_455
Mn1 O7 1.918847 1_555
Mn1 O4 1.932203 1_545
Mn1 O11 1.941680 1_655
Mn1 O1 1.959472 1_555
Mn1 O9 1.960380 1_655
Mn1 O5 1.968685 1_655
Co0 O6 1.989772 1_455
Co0 O3 1.989772 1_554
Co0 O1 2.052976 1_455
Co0 O8 2.052976 1_554
Co0 O9 2.058922 1_555
Co0 O0 2.058922 1_454
Co1 O10 1.911406 1_555
Co1 O2 1.998843 1_555
Co1 O3 2.014793 1_555
Co1 O8 2.050491 1_555
Co1 O0 2.058070 1_555
Co1 O6 2.122342 1_556
Co2 O5 1.911406 1_555
Co2 O7 1.998843 1_555
Co2 O6 2.014793 1_555
Co2 O1 2.050491 1_555
Co2 O9 2.058070 1_555
Co2 O3 2.122342 1_554
