# generated using pymatgen
data_Ba3Lu(BO3)3
_symmetry_space_group_name_H-M   'P 1'
_cell_length_a   9.44866618
_cell_length_b   9.44866618
_cell_length_c   17.88247500
_cell_angle_alpha   90.00000000
_cell_angle_beta   90.00000000
_cell_angle_gamma   120.00000129
_symmetry_Int_Tables_number   1
_chemical_formula_structural   Ba3Lu(BO3)3
_chemical_formula_sum   'Ba18 Lu6 B18 O54'
_cell_volume   1382.60863327
_cell_formula_units_Z   6
loop_
 _symmetry_equiv_pos_site_id
 _symmetry_equiv_pos_as_xyz
  1  'x, y, z'
loop_
 _atom_site_type_symbol
 _atom_site_label
 _atom_site_symmetry_multiplicity
 _atom_site_fract_x
 _atom_site_fract_y
 _atom_site_fract_z
 _atom_site_occupancy
  Ba  Ba0  1  0.68211900  0.68211900  0.87146000  1
  Ba  Ba1  1  0.00000000  0.68211900  0.37146000  1
  Ba  Ba2  1  0.68211900  0.00000000  0.37146000  1
  Ba  Ba3  1  0.31788100  0.00000000  0.87146000  1
  Ba  Ba4  1  0.00000000  0.31788100  0.87146000  1
  Ba  Ba5  1  0.31788100  0.31788100  0.37146000  1
  Ba  Ba6  1  0.65206700  0.65206700  0.62953800  1
  Ba  Ba7  1  0.00000000  0.65206700  0.12953800  1
  Ba  Ba8  1  0.65206700  0.00000000  0.12953800  1
  Ba  Ba9  1  0.34793300  0.00000000  0.62953800  1
  Ba  Ba10  1  0.00000000  0.34793300  0.62953800  1
  Ba  Ba11  1  0.34793300  0.34793300  0.12953800  1
  Ba  Ba12  1  0.33333300  0.66666700  0.27765300  1
  Ba  Ba13  1  0.66666700  0.33333300  0.77765300  1
  Ba  Ba14  1  0.33333300  0.66666700  0.77765300  1
  Ba  Ba15  1  0.66666700  0.33333300  0.27765300  1
  Ba  Ba16  1  0.00000000  0.00000000  0.71721900  1
  Ba  Ba17  1  0.00000000  0.00000000  0.21721900  1
  Lu  Lu0  1  0.33333300  0.66666700  0.99733800  1
  Lu  Lu1  1  0.66666700  0.33333300  0.49733800  1
  Lu  Lu2  1  0.33333300  0.66666700  0.49733800  1
  Lu  Lu3  1  0.66666700  0.33333300  0.99733800  1
  Lu  Lu4  1  0.00000000  0.00000000  0.50350300  1
  Lu  Lu5  1  0.00000000  0.00000000  0.00350300  1
  B  B0  1  0.66046200  0.66046200  0.42385200  1
  B  B1  1  0.00000000  0.66046200  0.92385200  1
  B  B2  1  0.66046200  0.00000000  0.92385200  1
  B  B3  1  0.33953800  0.00000000  0.42385200  1
  B  B4  1  0.00000000  0.33953800  0.42385200  1
  B  B5  1  0.33953800  0.33953800  0.92385200  1
  B  B6  1  0.66744900  0.66744900  0.24953700  1
  B  B7  1  0.00000000  0.66744900  0.74953700  1
  B  B8  1  0.66744900  0.00000000  0.74953700  1
  B  B9  1  0.33255100  0.00000000  0.24953700  1
  B  B10  1  0.00000000  0.33255100  0.24953700  1
  B  B11  1  0.33255100  0.33255100  0.74953700  1
  B  B12  1  0.67303800  0.67303800  0.07194200  1
  B  B13  1  0.00000000  0.67303800  0.57194200  1
  B  B14  1  0.67303800  0.00000000  0.57194200  1
  B  B15  1  0.32696200  0.00000000  0.07194200  1
  B  B16  1  0.00000000  0.32696200  0.07194200  1
  B  B17  1  0.32696200  0.32696200  0.57194200  1
  O  O0  1  0.80733200  0.80733200  0.43315100  1
  O  O1  1  0.00000000  0.80733200  0.93315100  1
  O  O2  1  0.80733200  0.00000000  0.93315100  1
  O  O3  1  0.19266800  0.00000000  0.43315100  1
  O  O4  1  0.00000000  0.19266800  0.43315100  1
  O  O5  1  0.19266800  0.19266800  0.93315100  1
  O  O6  1  0.66145700  0.14763400  0.91870700  1
  O  O7  1  0.85236600  0.51382300  0.91870700  1
  O  O8  1  0.48617700  0.33854300  0.91870700  1
  O  O9  1  0.51382300  0.66145700  0.41870700  1
  O  O10  1  0.33854300  0.85236600  0.41870700  1
  O  O11  1  0.14763400  0.48617700  0.41870700  1
  O  O12  1  0.66145700  0.51382300  0.41870700  1
  O  O13  1  0.14763400  0.66145700  0.91870700  1
  O  O14  1  0.51382300  0.85236600  0.91870700  1
  O  O15  1  0.48617700  0.14763400  0.41870700  1
  O  O16  1  0.85236600  0.33854300  0.41870700  1
  O  O17  1  0.33854300  0.48617700  0.91870700  1
  O  O18  1  0.51986300  0.51986300  0.24935200  1
  O  O19  1  0.00000000  0.51986300  0.74935200  1
  O  O20  1  0.51986300  0.00000000  0.74935200  1
  O  O21  1  0.48013700  0.00000000  0.24935200  1
  O  O22  1  0.00000000  0.48013700  0.24935200  1
  O  O23  1  0.48013700  0.48013700  0.74935200  1
  O  O24  1  0.81492000  0.14758700  0.74998200  1
  O  O25  1  0.85241300  0.66733300  0.74998200  1
  O  O26  1  0.33266700  0.18508000  0.74998200  1
  O  O27  1  0.66733300  0.81492000  0.24998200  1
  O  O28  1  0.18508000  0.85241300  0.24998200  1
  O  O29  1  0.14758700  0.33266700  0.24998200  1
  O  O30  1  0.81492000  0.66733300  0.24998200  1
  O  O31  1  0.14758700  0.81492000  0.74998200  1
  O  O32  1  0.66733300  0.85241300  0.74998200  1
  O  O33  1  0.33266700  0.14758700  0.24998200  1
  O  O34  1  0.85241300  0.18508000  0.24998200  1
  O  O35  1  0.18508000  0.33266700  0.74998200  1
  O  O36  1  0.67322600  0.14710300  0.56746400  1
  O  O37  1  0.85289700  0.52612300  0.56746400  1
  O  O38  1  0.47387700  0.32677400  0.56746400  1
  O  O39  1  0.52612300  0.67322600  0.06746400  1
  O  O40  1  0.32677400  0.85289700  0.06746400  1
  O  O41  1  0.14710300  0.47387700  0.06746400  1
  O  O42  1  0.67322600  0.52612300  0.06746400  1
  O  O43  1  0.14710300  0.67322600  0.56746400  1
  O  O44  1  0.52612300  0.85289700  0.56746400  1
  O  O45  1  0.47387700  0.14710300  0.06746400  1
  O  O46  1  0.85289700  0.32677400  0.06746400  1
  O  O47  1  0.32677400  0.47387700  0.56746400  1
  O  O48  1  0.81922700  0.81922700  0.08142600  1
  O  O49  1  0.00000000  0.81922700  0.58142600  1
  O  O50  1  0.81922700  0.00000000  0.58142600  1
  O  O51  1  0.18077300  0.00000000  0.08142600  1
  O  O52  1  0.00000000  0.18077300  0.08142600  1
  O  O53  1  0.18077300  0.18077300  0.58142600  1
loop_
_geom_bond_atom_site_label_1
_geom_bond_atom_site_label_2
_geom_bond_distance
_geom_bond_site_symmetry_2
Ba0 O32 2.748157 1_555
Ba0 O25 2.748157 1_555
Ba0 O1 2.843338 1_655
Ba0 O2 2.843338 1_565
Ba0 O14 2.896217 1_555
Ba0 O7 2.896217 1_555
Ba0 O23 2.900052 1_555
Ba0 O8 2.944478 1_555
Ba0 O17 2.944478 1_555
Ba1 O28 2.748157 1_555
Ba1 O30 2.748157 1_455
Ba1 O3 2.843338 1_565
Ba1 O0 2.843338 1_455
Ba1 O10 2.896217 1_555
Ba1 O12 2.896217 1_455
Ba1 O22 2.900052 1_555
Ba1 O16 2.944478 1_455
Ba1 O11 2.944478 1_555
Ba2 O34 2.748157 1_555
Ba2 O27 2.748157 1_545
Ba2 O4 2.843338 1_655
Ba2 O0 2.843338 1_545
Ba2 O16 2.896217 1_555
Ba2 O9 2.896217 1_545
Ba2 O21 2.900052 1_555
Ba2 O10 2.944478 1_545
Ba2 O15 2.944478 1_555
Ba3 O31 2.748157 1_545
Ba3 O26 2.748157 1_555
Ba3 O1 2.843338 1_545
Ba3 O5 2.843338 1_555
Ba3 O13 2.896217 1_545
Ba3 O8 2.896217 1_555
Ba3 O20 2.900052 1_555
Ba3 O6 2.944478 1_555
Ba3 O14 2.944478 1_545
Ba4 O24 2.748157 1_455
Ba4 O35 2.748157 1_555
Ba4 O2 2.843338 1_455
Ba4 O5 2.843338 1_555
Ba4 O6 2.896217 1_455
Ba4 O17 2.896217 1_555
Ba4 O19 2.900052 1_555
Ba4 O13 2.944478 1_555
Ba4 O7 2.944478 1_455
Ba5 O29 2.748157 1_555
Ba5 O33 2.748157 1_555
Ba5 O3 2.843338 1_555
Ba5 O4 2.843338 1_555
Ba5 O15 2.896217 1_555
Ba5 O11 2.896217 1_555
Ba5 O18 2.900052 1_555
Ba5 O12 2.944478 1_555
Ba5 O9 2.944478 1_555
Ba6 O23 2.688799 1_555
Ba6 O25 2.823159 1_555
Ba6 O32 2.823159 1_555
Ba6 O47 2.887723 1_555
Ba6 O38 2.887723 1_555
Ba6 O37 2.916711 1_555
Ba6 O44 2.916711 1_555
Ba6 O50 2.974914 1_565
Ba6 O49 2.974914 1_655
Ba7 O22 2.688799 1_555
Ba7 O28 2.823159 1_555
Ba7 O30 2.823159 1_455
Ba7 O46 2.887723 1_455
Ba7 O41 2.887723 1_555
Ba7 O40 2.916711 1_555
Ba7 O42 2.916711 1_455
Ba7 O51 2.974914 1_565
Ba7 O48 2.974914 1_455
Ba8 O21 2.688799 1_555
Ba8 O34 2.823159 1_555
Ba8 O27 2.823159 1_545
Ba8 O40 2.887723 1_545
Ba8 O45 2.887723 1_555
Ba8 O46 2.916711 1_555
Ba8 O39 2.916711 1_545
Ba8 O52 2.974914 1_655
Ba8 O48 2.974914 1_545
Ba9 O20 2.688799 1_555
Ba9 O31 2.823159 1_545
Ba9 O26 2.823159 1_555
Ba9 O36 2.887723 1_555
Ba9 O44 2.887723 1_545
Ba9 O43 2.916711 1_545
Ba9 O38 2.916711 1_555
Ba9 O49 2.974914 1_545
Ba9 O53 2.974914 1_555
Ba10 O19 2.688799 1_555
Ba10 O24 2.823159 1_455
Ba10 O35 2.823159 1_555
Ba10 O43 2.887723 1_555
Ba10 O37 2.887723 1_455
Ba10 O36 2.916711 1_455
Ba10 O47 2.916711 1_555
Ba10 O50 2.974914 1_455
Ba10 O53 2.974914 1_555
Ba11 O18 2.688799 1_555
Ba11 O29 2.823159 1_555
Ba11 O33 2.823159 1_555
Ba11 O39 2.887723 1_555
Ba11 O42 2.887723 1_555
Ba11 O41 2.916711 1_555
Ba11 O45 2.916711 1_555
Ba11 O51 2.974914 1_555
Ba11 O52 2.974914 1_555
Ba12 O21 2.780487 1_565
Ba12 O22 2.780488 1_555
Ba12 O18 2.780496 1_555
Ba12 O28 2.783118 1_555
Ba12 O29 2.783126 1_555
Ba12 O27 2.783126 1_555
Ba12 O10 3.058949 1_555
Ba12 O11 3.058952 1_555
Ba12 O9 3.058955 1_555
Ba13 O20 2.780487 1_555
Ba13 O19 2.780488 1_655
Ba13 O23 2.780496 1_555
Ba13 O24 2.783118 1_555
Ba13 O25 2.783126 1_555
Ba13 O26 2.783126 1_555
Ba13 O6 3.058949 1_555
Ba13 O7 3.058952 1_555
Ba13 O8 3.058955 1_555
Ba14 O19 2.780487 1_555
Ba14 O20 2.780488 1_565
Ba14 O23 2.780496 1_555
Ba14 O31 2.783118 1_555
Ba14 O32 2.783126 1_555
Ba14 O35 2.783126 1_555
Ba14 O13 3.058949 1_555
Ba14 O14 3.058952 1_555
Ba14 O17 3.058955 1_555
Ba15 O22 2.780487 1_655
Ba15 O21 2.780488 1_555
Ba15 O18 2.780496 1_555
Ba15 O34 2.783118 1_555
Ba15 O33 2.783126 1_555
Ba15 O30 2.783126 1_555
Ba15 O16 3.058949 1_555
Ba15 O15 3.058952 1_555
Ba15 O12 3.058955 1_555
Ba16 O35 2.790106 1_555
Ba16 O26 2.790106 1_555
Ba16 O25 2.790106 1_445
Ba16 O32 2.790106 1_445
Ba16 O31 2.790107 1_545
Ba16 O24 2.790107 1_455
Ba16 O53 2.968871 1_555
Ba16 O49 2.968871 1_545
Ba16 O50 2.968871 1_455
Ba17 O30 2.790106 1_445
Ba17 O27 2.790106 1_445
Ba17 O29 2.790106 1_555
Ba17 O33 2.790106 1_555
Ba17 O28 2.790107 1_545
Ba17 O34 2.790107 1_455
Ba17 O48 2.968871 1_445
Ba17 O51 2.968871 1_555
Ba17 O52 2.968871 1_555
Lu0 O40 2.186722 1_556
Lu0 O41 2.186726 1_556
Lu0 O39 2.186730 1_556
Lu0 O13 2.229767 1_555
Lu0 O14 2.229771 1_555
Lu0 O17 2.229775 1_555
Lu1 O36 2.186722 1_555
Lu1 O37 2.186726 1_555
Lu1 O38 2.186730 1_555
Lu1 O16 2.229767 1_555
Lu1 O15 2.229771 1_555
Lu1 O12 2.229775 1_555
Lu2 O43 2.186722 1_555
Lu2 O44 2.186726 1_555
Lu2 O47 2.186730 1_555
Lu2 O10 2.229767 1_555
Lu2 O11 2.229771 1_555
Lu2 O9 2.229775 1_555
Lu3 O46 2.186722 1_556
Lu3 O45 2.186726 1_556
Lu3 O42 2.186730 1_556
Lu3 O6 2.229767 1_555
Lu3 O7 2.229771 1_555
Lu3 O8 2.229775 1_555
Lu4 O53 2.204360 1_555
Lu4 O49 2.204360 1_545
Lu4 O50 2.204360 1_455
Lu4 O0 2.212870 1_445
Lu4 O4 2.212870 1_555
Lu4 O3 2.212870 1_555
Lu5 O48 2.204360 1_445
Lu5 O52 2.204360 1_555
Lu5 O51 2.204360 1_555
Lu5 O5 2.212870 1_554
Lu5 O1 2.212870 1_544
Lu5 O2 2.212870 1_454
B0 O9 1.393309 1_555
B0 O12 1.393309 1_555
B0 O0 1.397653 1_555
B1 O7 1.393309 1_455
B1 O13 1.393309 1_555
B1 O1 1.397653 1_555
B2 O14 1.393309 1_545
B2 O6 1.393309 1_555
B2 O2 1.397653 1_555
B3 O15 1.393309 1_555
B3 O10 1.393309 1_545
B3 O3 1.397653 1_555
B4 O11 1.393309 1_555
B4 O16 1.393309 1_455
B4 O4 1.397653 1_555
B5 O8 1.393309 1_555
B5 O17 1.393309 1_555
B5 O5 1.397653 1_555
B6 O30 1.393975 1_555
B6 O27 1.393975 1_555
B6 O18 1.394495 1_555
B7 O31 1.393975 1_555
B7 O25 1.393975 1_455
B7 O19 1.394495 1_555
B8 O24 1.393975 1_555
B8 O32 1.393975 1_545
B8 O20 1.394495 1_555
B9 O28 1.393975 1_545
B9 O33 1.393975 1_555
B9 O21 1.394495 1_555
B10 O34 1.393975 1_455
B10 O29 1.393975 1_555
B10 O22 1.394495 1_555
B11 O35 1.393975 1_555
B11 O26 1.393975 1_555
B11 O23 1.394495 1_555
B12 O39 1.391346 1_555
B12 O42 1.391346 1_555
B12 O48 1.391664 1_555
B13 O37 1.391346 1_455
B13 O43 1.391346 1_555
B13 O49 1.391664 1_555
B14 O44 1.391346 1_545
B14 O36 1.391346 1_555
B14 O50 1.391664 1_555
B15 O45 1.391346 1_555
B15 O40 1.391346 1_545
B15 O51 1.391664 1_555
B16 O41 1.391346 1_555
B16 O46 1.391346 1_455
B16 O52 1.391664 1_555
B17 O38 1.391346 1_555
B17 O47 1.391346 1_555
B17 O53 1.391664 1_555
