# generated using pymatgen
data_Li4MnCo2O7
_symmetry_space_group_name_H-M   'P 1'
_cell_length_a   3.00949679
_cell_length_b   3.00949679
_cell_length_c   34.31712377
_cell_angle_alpha   87.87213460
_cell_angle_beta   87.87213460
_cell_angle_gamma   56.12970737
_symmetry_Int_Tables_number   1
_chemical_formula_structural   Li4MnCo2O7
_chemical_formula_sum   'Li8 Mn2 Co4 O14'
_cell_volume   257.83958797
_cell_formula_units_Z   2
loop_
 _symmetry_equiv_pos_site_id
 _symmetry_equiv_pos_as_xyz
  1  'x, y, z'
loop_
 _atom_site_type_symbol
 _atom_site_label
 _atom_site_symmetry_multiplicity
 _atom_site_fract_x
 _atom_site_fract_y
 _atom_site_fract_z
 _atom_site_occupancy
  Li  Li0  1  0.50000000  0.50000000  0.00000000  1
  Li  Li1  1  0.06829500  0.06829500  0.14474900  1
  Li  Li2  1  0.64243600  0.64243600  0.28603100  1
  Li  Li3  1  0.20227900  0.20227900  0.43128500  1
  Li  Li4  1  0.79772100  0.79772100  0.56871500  1
  Li  Li5  1  0.35756400  0.35756400  0.71396900  1
  Li  Li6  1  0.93170500  0.93170500  0.85525100  1
  Li  Li7  1  0.50000000  0.50000000  0.50000000  1
  Mn  Mn0  1  0.21470700  0.21470700  0.92808600  1
  Mn  Mn1  1  0.78529300  0.78529300  0.07191400  1
  Co  Co0  1  0.35672300  0.35672300  0.21479200  1
  Co  Co1  1  0.92626900  0.92626900  0.35649700  1
  Co  Co2  1  0.07373100  0.07373100  0.64350300  1
  Co  Co3  1  0.64327700  0.64327700  0.78520800  1
  O  O0  1  0.83608800  0.83608800  0.96182800  1
  O  O1  1  0.40777700  0.40777700  0.10550200  1
  O  O2  1  0.98453400  0.98453400  0.24631700  1
  O  O3  1  0.56578200  0.56578200  0.38590900  1
  O  O4  1  0.13812800  0.13812800  0.53695900  1
  O  O5  1  0.70354200  0.70354200  0.67550400  1
  O  O6  1  0.26979600  0.26979600  0.81723300  1
  O  O7  1  0.16391200  0.16391200  0.03817200  1
  O  O8  1  0.73020400  0.73020400  0.18276700  1
  O  O9  1  0.29645800  0.29645800  0.32449600  1
  O  O10  1  0.86187200  0.86187200  0.46304100  1
  O  O11  1  0.43421800  0.43421800  0.61409100  1
  O  O12  1  0.01546600  0.01546600  0.75368300  1
  O  O13  1  0.59222300  0.59222300  0.89449800  1
loop_
_geom_bond_atom_site_label_1
_geom_bond_atom_site_label_2
_geom_bond_distance
_geom_bond_site_symmetry_2
Li0 O7 2.138825 1_565
Li0 O7 2.138825 1_655
Li0 O0 2.138825 1_454
Li0 O0 2.138825 1_544
Li0 O7 2.169238 1_555
Li0 O0 2.169238 1_554
Li1 O8 2.130913 1_545
Li1 O8 2.130913 1_455
Li1 O1 2.154572 1_545
Li1 O1 2.154572 1_455
Li1 O8 2.174741 1_445
Li1 O1 2.204700 1_555
Li2 O9 2.123021 1_565
Li2 O9 2.123021 1_655
Li2 O2 2.159089 1_455
Li2 O2 2.159089 1_545
Li2 O9 2.216976 1_555
Li2 O2 2.224950 1_555
Li3 O10 1.997136 1_455
Li3 O10 1.997136 1_545
Li3 O10 2.071381 1_445
Li3 O3 2.247241 1_455
Li3 O3 2.247241 1_545
Li3 O3 2.428832 1_555
Li4 O4 1.997136 1_565
Li4 O4 1.997136 1_655
Li4 O4 2.071381 1_665
Li4 O11 2.247241 1_565
Li4 O11 2.247241 1_655
Li4 O11 2.428832 1_555
Li5 O5 2.123021 1_545
Li5 O5 2.123021 1_455
Li5 O12 2.159089 1_655
Li5 O12 2.159089 1_565
Li5 O5 2.216976 1_555
Li5 O12 2.224950 1_555
Li6 O6 2.130913 1_565
Li6 O6 2.130913 1_655
Li6 O13 2.154572 1_565
Li6 O13 2.154572 1_655
Li6 O6 2.174741 1_665
Li6 O13 2.204700 1_555
Li7 O4 2.056670 1_565
Li7 O4 2.056670 1_655
Li7 O10 2.056670 1_545
Li7 O10 2.056670 1_455
Li7 O4 2.257780 1_555
Li7 O10 2.257780 1_555
Mn0 O13 1.954383 1_545
Mn0 O13 1.954383 1_455
Mn0 O0 1.955494 1_545
Mn0 O0 1.955494 1_455
Mn0 O13 2.270342 1_555
Mn0 O0 2.277878 1_445
Mn1 O1 1.954383 1_655
Mn1 O1 1.954383 1_565
Mn1 O7 1.955494 1_655
Mn1 O7 1.955494 1_565
Mn1 O1 2.270342 1_555
Mn1 O7 2.277878 1_665
Co0 O2 1.922949 1_545
Co0 O2 1.922949 1_455
Co0 O8 1.930344 1_545
Co0 O8 1.930344 1_455
Co0 O2 2.213170 1_445
Co0 O8 2.226933 1_555
Co1 O3 1.906693 1_655
Co1 O3 1.906693 1_565
Co1 O9 1.936438 1_565
Co1 O9 1.936438 1_655
Co1 O3 2.126492 1_555
Co1 O9 2.211360 1_665
Co2 O11 1.906693 1_455
Co2 O11 1.906693 1_545
Co2 O5 1.936438 1_545
Co2 O5 1.936438 1_455
Co2 O11 2.126492 1_555
Co2 O5 2.211360 1_445
Co3 O12 1.922949 1_655
Co3 O12 1.922949 1_565
Co3 O6 1.930344 1_655
Co3 O6 1.930344 1_565
Co3 O12 2.213170 1_665
Co3 O6 2.226933 1_555
