# generated using pymatgen
data_TmTl(MoO4)2
_symmetry_space_group_name_H-M   'P 1'
_cell_length_a   6.08961900
_cell_length_b   15.33116800
_cell_length_c   9.07554300
_cell_angle_alpha   90.00000000
_cell_angle_beta   90.00000000
_cell_angle_gamma   90.00000000
_symmetry_Int_Tables_number   1
_chemical_formula_structural   TmTl(MoO4)2
_chemical_formula_sum   'Tm4 Tl4 Mo8 O32'
_cell_volume   847.30151541
_cell_formula_units_Z   4
loop_
 _symmetry_equiv_pos_site_id
 _symmetry_equiv_pos_as_xyz
  1  'x, y, z'
loop_
 _atom_site_type_symbol
 _atom_site_label
 _atom_site_symmetry_multiplicity
 _atom_site_fract_x
 _atom_site_fract_y
 _atom_site_fract_z
 _atom_site_occupancy
  Tm  Tm0  1  0.75000000  0.89373600  0.69517800  1
  Tm  Tm1  1  0.25000000  0.10626400  0.30482200  1
  Tm  Tm2  1  0.25000000  0.60626400  0.19517800  1
  Tm  Tm3  1  0.75000000  0.39373600  0.80482200  1
  Tl  Tl0  1  0.75000000  0.62526800  0.55622000  1
  Tl  Tl1  1  0.25000000  0.37473200  0.44378000  1
  Tl  Tl2  1  0.25000000  0.87473200  0.05622000  1
  Tl  Tl3  1  0.75000000  0.12526800  0.94378000  1
  Mo  Mo0  1  0.75000000  0.96049400  0.28255400  1
  Mo  Mo1  1  0.25000000  0.03950600  0.71744600  1
  Mo  Mo2  1  0.25000000  0.53950600  0.78255400  1
  Mo  Mo3  1  0.75000000  0.46049400  0.21744600  1
  Mo  Mo4  1  0.75000000  0.71621400  0.99565000  1
  Mo  Mo5  1  0.25000000  0.28378600  0.00435000  1
  Mo  Mo6  1  0.25000000  0.78378600  0.49565000  1
  Mo  Mo7  1  0.75000000  0.21621400  0.50435000  1
  O  O0  1  0.75000000  0.85291500  0.21968100  1
  O  O1  1  0.25000000  0.14708500  0.78031900  1
  O  O2  1  0.25000000  0.64708500  0.71968100  1
  O  O3  1  0.75000000  0.35291500  0.28031900  1
  O  O4  1  0.75000000  0.96268100  0.48024900  1
  O  O5  1  0.25000000  0.03731900  0.51975100  1
  O  O6  1  0.25000000  0.53731900  0.98024900  1
  O  O7  1  0.75000000  0.46268100  0.01975100  1
  O  O8  1  0.75000000  0.64027500  0.85187200  1
  O  O9  1  0.25000000  0.35972500  0.14812800  1
  O  O10  1  0.25000000  0.85972500  0.35187200  1
  O  O11  1  0.75000000  0.14027500  0.64812800  1
  O  O12  1  0.75000000  0.82278600  0.90783000  1
  O  O13  1  0.25000000  0.17721400  0.09217000  1
  O  O14  1  0.25000000  0.67721400  0.40783000  1
  O  O15  1  0.75000000  0.32278600  0.59217000  1
  O  O16  1  0.00229900  0.80421200  0.60196500  1
  O  O17  1  0.99770100  0.19578800  0.39803500  1
  O  O18  1  0.99770100  0.69578800  0.10196500  1
  O  O19  1  0.50229900  0.19578800  0.39803500  1
  O  O20  1  0.00229900  0.30421200  0.89803500  1
  O  O21  1  0.49770100  0.80421200  0.60196500  1
  O  O22  1  0.49770100  0.30421200  0.89803500  1
  O  O23  1  0.50229900  0.69578800  0.10196500  1
  O  O24  1  0.49044200  0.98203400  0.78944700  1
  O  O25  1  0.50955800  0.01796600  0.21055400  1
  O  O26  1  0.50955800  0.51796600  0.28944600  1
  O  O27  1  0.99044200  0.01796600  0.21055400  1
  O  O28  1  0.49044200  0.48203400  0.71055300  1
  O  O29  1  0.00955800  0.98203400  0.78944700  1
  O  O30  1  0.00955800  0.48203400  0.71055300  1
  O  O31  1  0.99044200  0.51796600  0.28944600  1
loop_
_geom_bond_atom_site_label_1
_geom_bond_atom_site_label_2
_geom_bond_distance
_geom_bond_site_symmetry_2
Mo0 O0 1.745228 1_555
Mo0 O4 1.794503 1_555
Mo0 O25 1.829542 1_565
Mo0 O27 1.829542 1_565
Mo1 O1 1.745228 1_555
Mo1 O5 1.794503 1_555
Mo1 O29 1.829545 1_545
Mo1 O24 1.829545 1_545
Mo2 O2 1.745228 1_555
Mo2 O6 1.794503 1_555
Mo2 O28 1.829545 1_555
Mo2 O30 1.829545 1_555
Mo3 O3 1.745228 1_555
Mo3 O7 1.794503 1_555
Mo3 O26 1.829542 1_555
Mo3 O31 1.829542 1_555
Mo4 O8 1.748745 1_555
Mo4 O23 1.817778 1_556
Mo4 O18 1.817778 1_556
Mo4 O12 1.817904 1_555
Mo5 O9 1.748745 1_555
Mo5 O22 1.817778 1_554
Mo5 O20 1.817778 1_554
Mo5 O13 1.817904 1_555
Mo6 O10 1.748745 1_555
Mo6 O16 1.817778 1_555
Mo6 O21 1.817778 1_555
Mo6 O14 1.817904 1_555
Mo7 O11 1.748745 1_555
Mo7 O17 1.817778 1_555
Mo7 O19 1.817778 1_555
Mo7 O15 1.817904 1_555
O4 Tm0 2.218579 1_555
O5 Tm1 2.218579 1_555
O6 Tm2 2.218579 1_556
O7 Tm3 2.218579 1_554
O8 Tl0 2.693048 1_555
O9 Tl1 2.693048 1_555
O10 Tl2 2.693048 1_555
O11 Tl3 2.693048 1_555
O12 Tm0 2.215363 1_555
O13 Tm1 2.215363 1_555
O14 Tm2 2.215363 1_555
O15 Tm3 2.215363 1_555
O16 Tm0 2.227097 1_455
O17 Tm1 2.227097 1_655
O18 Tm2 2.227097 1_655
O19 Tm1 2.227097 1_555
O20 Tm3 2.227097 1_455
O21 Tm0 2.227097 1_555
O22 Tm3 2.227097 1_555
O23 Tm2 2.227097 1_555
O24 Tm0 2.250070 1_555
O25 Tm1 2.250066 1_555
O26 Tm2 2.250066 1_555
O27 Tm1 2.250066 1_655
O28 Tm3 2.250070 1_555
O29 Tm0 2.250070 1_455
O30 Tm3 2.250070 1_455
O31 Tm2 2.250066 1_655
