# generated using pymatgen
data_Li7Mn4CoO12
_symmetry_space_group_name_H-M   'P 1'
_cell_length_a   5.30021970
_cell_length_b   7.70761422
_cell_length_c   5.71078716
_cell_angle_alpha   101.35339001
_cell_angle_beta   89.45831307
_cell_angle_gamma   106.03950981
_symmetry_Int_Tables_number   1
_chemical_formula_structural   Li7Mn4CoO12
_chemical_formula_sum   'Li7 Mn4 Co1 O12'
_cell_volume   219.57774497
_cell_formula_units_Z   1
loop_
 _symmetry_equiv_pos_site_id
 _symmetry_equiv_pos_as_xyz
  1  'x, y, z'
loop_
 _atom_site_type_symbol
 _atom_site_label
 _atom_site_symmetry_multiplicity
 _atom_site_fract_x
 _atom_site_fract_y
 _atom_site_fract_z
 _atom_site_occupancy
  Li  Li0  1  0.33330300  0.33332700  0.83332000  1
  Li  Li1  1  0.49205100  0.01615300  0.75023600  1
  Li  Li2  1  0.17452700  0.65051400  0.91640200  1
  Li  Li3  1  0.87978000  0.34935900  0.59217100  1
  Li  Li4  1  0.78696900  0.31732700  0.07447800  1
  Li  Li5  1  0.16392100  0.65803000  0.41812400  1
  Li  Li6  1  0.50281200  0.00865600  0.24852500  1
  Mn  Mn0  1  0.00829700  0.00878600  0.99837100  1
  Mn  Mn1  1  0.65838300  0.65782300  0.66828200  1
  Mn  Mn2  1  0.99744800  0.00482800  0.50083800  1
  Mn  Mn3  1  0.66919700  0.66190200  0.16580600  1
  Co  Co0  1  0.33331900  0.33332600  0.33332600  1
  O  O0  1  0.08561400  0.85781000  0.70717000  1
  O  O1  1  0.58107300  0.80887300  0.95956000  1
  O  O2  1  0.34979300  0.15090100  0.52184600  1
  O  O3  1  0.31679800  0.51574000  0.14480200  1
  O  O4  1  0.75845400  0.51694200  0.37716400  1
  O  O5  1  0.90825400  0.14972200  0.28952800  1
  O  O6  1  0.04366800  0.83386200  0.20859600  1
  O  O7  1  0.62293700  0.83278900  0.45812000  1
  O  O8  1  0.40503700  0.17648300  0.06043200  1
  O  O9  1  0.26165200  0.49018000  0.60620900  1
  O  O10  1  0.76249900  0.51731400  0.88418900  1
  O  O11  1  0.90421300  0.14935400  0.78250600  1
loop_
_geom_bond_atom_site_label_1
_geom_bond_atom_site_label_2
_geom_bond_distance
_geom_bond_site_symmetry_2
Li0 O9 2.041655 1_555
Li0 O8 2.041762 1_556
Li0 O3 2.056431 1_556
Li0 O2 2.056433 1_555
Li0 O11 2.309894 1_455
Li0 O10 2.310391 1_555
Li1 O8 2.077375 1_556
Li1 O2 2.081588 1_555
Li1 O11 2.134011 1_555
Li1 O0 2.151646 1_545
Li1 O7 2.203008 1_545
Li1 O1 2.320176 1_545
Li2 O9 2.077600 1_555
Li2 O3 2.081809 1_556
Li2 O10 2.133376 1_455
Li2 O1 2.152174 1_555
Li2 O6 2.203147 1_556
Li2 O0 2.319708 1_555
Li3 O9 2.008964 1_655
Li3 O11 2.085035 1_555
Li3 O10 2.101996 1_555
Li3 O5 2.110427 1_555
Li3 O4 2.165159 1_555
Li4 O8 2.009280 1_555
Li4 O10 2.084794 1_554
Li4 O11 2.101806 1_554
Li4 O4 2.110550 1_555
Li4 O5 2.165360 1_555
Li5 O9 2.005920 1_555
Li5 O3 2.022095 1_555
Li5 O4 2.115105 1_455
Li5 O0 2.146519 1_555
Li5 O6 2.192015 1_555
Li5 O7 2.421555 1_555
Li6 O8 2.005908 1_555
Li6 O2 2.022326 1_555
Li6 O5 2.114958 1_555
Li6 O1 2.146150 1_544
Li6 O7 2.192173 1_545
Li6 O6 2.422205 1_545
Mn0 O0 1.943269 1_545
Mn0 O5 1.953548 1_456
Mn0 O11 1.966442 1_455
Mn0 O6 2.018776 1_546
Mn0 O8 2.133041 1_556
Mn0 O1 2.344725 1_445
Mn1 O1 1.943858 1_555
Mn1 O4 1.953249 1_555
Mn1 O10 1.966352 1_555
Mn1 O7 2.018890 1_555
Mn1 O9 2.132880 1_555
Mn1 O0 2.344955 1_655
Mn2 O2 1.886461 1_655
Mn2 O11 1.912116 1_555
Mn2 O0 1.928621 1_645
Mn2 O5 1.939094 1_555
Mn2 O6 1.971438 1_645
Mn2 O7 2.045798 1_545
Mn3 O3 1.886912 1_555
Mn3 O10 1.912285 1_554
Mn3 O1 1.927891 1_554
Mn3 O4 1.939822 1_555
Mn3 O7 1.971469 1_555
Mn3 O6 2.045413 1_655
Co0 O9 1.880221 1_555
Co0 O8 1.880320 1_555
Co0 O2 1.951747 1_555
Co0 O3 1.951753 1_555
Co0 O5 2.291377 1_455
Co0 O4 2.291708 1_555
