# generated using pymatgen
data_TiMnZn(PO4)3
_symmetry_space_group_name_H-M   'P 1'
_cell_length_a   8.55560256
_cell_length_b   8.55560256
_cell_length_c   8.55560165
_cell_angle_alpha   60.64941444
_cell_angle_beta   60.64941444
_cell_angle_gamma   60.64941736
_symmetry_Int_Tables_number   1
_chemical_formula_structural   TiMnZn(PO4)3
_chemical_formula_sum   'Ti2 Mn2 Zn2 P6 O24'
_cell_volume   449.32263419
_cell_formula_units_Z   2
loop_
 _symmetry_equiv_pos_site_id
 _symmetry_equiv_pos_as_xyz
  1  'x, y, z'
loop_
 _atom_site_type_symbol
 _atom_site_label
 _atom_site_symmetry_multiplicity
 _atom_site_fract_x
 _atom_site_fract_y
 _atom_site_fract_z
 _atom_site_occupancy
  Ti  Ti0  1  0.85546600  0.85546600  0.85546600  1
  Ti  Ti1  1  0.35546600  0.35546600  0.35546600  1
  Mn  Mn0  1  0.64447200  0.64447200  0.64447200  1
  Mn  Mn1  1  0.14447200  0.14447200  0.14447200  1
  Zn  Zn0  1  0.00233300  0.00233300  0.00233300  1
  Zn  Zn1  1  0.50233300  0.50233300  0.50233300  1
  P  P0  1  0.24907900  0.95471500  0.54459000  1
  P  P1  1  0.95471500  0.54459000  0.24907900  1
  P  P2  1  0.54459000  0.24907900  0.95471500  1
  P  P3  1  0.45471500  0.74907900  0.04459000  1
  P  P4  1  0.04459000  0.45471500  0.74907900  1
  P  P5  1  0.74907900  0.04459000  0.45471500  1
  O  O0  1  0.68630500  0.88926800  0.49000500  1
  O  O1  1  0.49000500  0.68630500  0.88926800  1
  O  O2  1  0.08580500  0.94609300  0.74096900  1
  O  O3  1  0.88926800  0.49000500  0.68630500  1
  O  O4  1  0.18630500  0.99000500  0.38926800  1
  O  O5  1  0.40960100  0.75948000  0.56296000  1
  O  O6  1  0.94609300  0.74096900  0.08580500  1
  O  O7  1  0.75948000  0.56296000  0.40960100  1
  O  O8  1  0.61963000  0.81350300  0.99573000  1
  O  O9  1  0.56296000  0.40960100  0.75948000  1
  O  O10  1  0.25948000  0.90960100  0.06296000  1
  O  O11  1  0.99573000  0.61963000  0.81350300  1
  O  O12  1  0.99000500  0.38926800  0.18630500  1
  O  O13  1  0.74096900  0.08580500  0.94609300  1
  O  O14  1  0.44609300  0.58580500  0.24096900  1
  O  O15  1  0.38926800  0.18630500  0.99000500  1
  O  O16  1  0.24096900  0.44609300  0.58580500  1
  O  O17  1  0.06296000  0.25948000  0.90960100  1
  O  O18  1  0.58580500  0.24096900  0.44609300  1
  O  O19  1  0.81350300  0.99573000  0.61963000  1
  O  O20  1  0.11963000  0.49573000  0.31350300  1
  O  O21  1  0.90960100  0.06296000  0.25948000  1
  O  O22  1  0.49573000  0.31350300  0.11963000  1
  O  O23  1  0.31350300  0.11963000  0.49573000  1
loop_
_geom_bond_atom_site_label_1
_geom_bond_atom_site_label_2
_geom_bond_distance
_geom_bond_site_symmetry_2
Mn0 O1 1.954188 1_555
Mn0 O0 1.954188 1_555
Mn0 O3 1.954188 1_555
Mn0 O7 2.062827 1_555
Mn0 O9 2.062827 1_555
Mn0 O5 2.062827 1_555
Mn1 O4 1.954188 1_545
Mn1 O15 1.954188 1_554
Mn1 O12 1.954188 1_455
Mn1 O17 2.062827 1_554
Mn1 O21 2.062827 1_455
Mn1 O10 2.062827 1_545
O0 P5 1.514221 1_565
O1 P3 1.514221 1_556
O2 P0 1.567931 1_555
O2 Ti0 2.074920 1_455
O2 Zn0 2.212287 1_566
O3 P4 1.514221 1_655
O4 P0 1.514221 1_555
O5 P0 1.551235 1_555
O5 Zn1 2.177817 1_555
O6 P1 1.567931 1_555
O6 Ti0 2.074920 1_554
O6 Zn0 2.212287 1_665
O7 P1 1.551235 1_555
O7 Zn1 2.177817 1_555
O8 P3 1.558086 1_556
O8 Ti0 1.885287 1_555
O9 P2 1.551235 1_555
O9 Zn1 2.177817 1_555
O10 P3 1.551235 1_555
O10 Zn0 2.177817 1_565
O11 P4 1.558086 1_655
O11 Ti0 1.885287 1_555
O12 P1 1.514221 1_555
O13 P2 1.567931 1_555
O13 Ti0 2.074920 1_545
O13 Zn0 2.212287 1_656
O14 P3 1.567931 1_555
O14 Ti1 2.074920 1_555
O14 Zn1 2.212287 1_555
O15 P2 1.514221 1_555
O16 P4 1.567931 1_555
O16 Ti1 2.074920 1_555
O16 Zn1 2.212287 1_555
O17 P4 1.551235 1_555
O17 Zn0 2.177817 1_556
O18 P5 1.567931 1_555
O18 Ti1 2.074920 1_555
O18 Zn1 2.212287 1_555
O19 P5 1.558086 1_565
O19 Ti0 1.885287 1_555
O20 P1 1.558086 1_455
O20 Ti1 1.885287 1_555
O21 P5 1.551235 1_555
O21 Zn0 2.177817 1_655
O22 P2 1.558086 1_554
O22 Ti1 1.885287 1_555
O23 P0 1.558086 1_545
O23 Ti1 1.885287 1_555
