# generated using pymatgen
data_ErGa3Ru
_symmetry_space_group_name_H-M   'P 1'
_cell_length_a   6.34642962
_cell_length_b   6.34642962
_cell_length_c   6.34642962
_cell_angle_alpha   90.00000000
_cell_angle_beta   90.00000000
_cell_angle_gamma   90.00000000
_symmetry_Int_Tables_number   1
_chemical_formula_structural   ErGa3Ru
_chemical_formula_sum   'Er3 Ga9 Ru3'
_cell_volume   255.61621785
_cell_formula_units_Z   3
loop_
 _symmetry_equiv_pos_site_id
 _symmetry_equiv_pos_as_xyz
  1  'x, y, z'
loop_
 _atom_site_type_symbol
 _atom_site_label
 _atom_site_symmetry_multiplicity
 _atom_site_fract_x
 _atom_site_fract_y
 _atom_site_fract_z
 _atom_site_occupancy
  Er  Er0  1  0.50000000  0.50000000  -0.00000000  1
  Er  Er1  1  0.50000000  -0.00000000  0.50000000  1
  Er  Er2  1  0.00000000  0.50000000  0.50000000  1
  Ga  Ga0  1  0.50000000  0.50000000  0.50000000  1
  Ga  Ga1  1  0.21083675  0.21083675  0.78916325  1
  Ga  Ga2  1  0.21083675  0.78916325  0.21083675  1
  Ga  Ga3  1  0.78916325  0.21083675  0.21083675  1
  Ga  Ga4  1  0.78916325  0.78916325  0.78916325  1
  Ga  Ga5  1  0.78916325  0.78916325  0.21083675  1
  Ga  Ga6  1  0.78916325  0.21083675  0.78916325  1
  Ga  Ga7  1  0.21083675  0.78916325  0.78916325  1
  Ga  Ga8  1  0.21083675  0.21083675  0.21083675  1
  Ru  Ru0  1  0.00000000  -0.00000000  0.50000000  1
  Ru  Ru1  1  0.00000000  0.50000000  -0.00000000  1
  Ru  Ru2  1  0.50000000  -0.00000000  -0.00000000  1
loop_
_geom_bond_atom_site_label_1
_geom_bond_atom_site_label_2
_geom_bond_distance
_geom_bond_site_symmetry_2
Er0 Ga6 2.919929 1_554
Er0 Ga8 2.919929 1_555
Er0 Ga5 2.919929 1_555
Er0 Ga7 2.919929 1_554
Er0 Ga4 2.919929 1_554
Er0 Ga1 2.919929 1_554
Er0 Ga3 2.919929 1_555
Er0 Ga2 2.919929 1_555
Er0 Ru1 3.173215 1_555
Er0 Ga0 3.173215 1_554
Er0 Ru2 3.173215 1_555
Er0 Ru1 3.173215 1_655
Er0 Ga0 3.173215 1_555
Er0 Ru2 3.173215 1_565
Er1 Ga2 2.919929 1_545
Er1 Ga3 2.919929 1_555
Er1 Ga6 2.919929 1_555
Er1 Ga5 2.919929 1_545
Er1 Ga1 2.919929 1_555
Er1 Ga7 2.919929 1_545
Er1 Ga4 2.919929 1_545
Er1 Ga8 2.919929 1_555
Er1 Ru2 3.173215 1_556
Er1 Ru2 3.173215 1_555
Er1 Ru0 3.173215 1_555
Er1 Ru0 3.173215 1_655
Er1 Ga0 3.173215 1_555
Er1 Ga0 3.173215 1_545
Er2 Ga2 2.919929 1_555
Er2 Ga5 2.919929 1_455
Er2 Ga4 2.919929 1_455
Er2 Ga6 2.919929 1_455
Er2 Ga7 2.919929 1_555
Er2 Ga3 2.919929 1_455
Er2 Ga1 2.919929 1_555
Er2 Ga8 2.919929 1_555
Er2 Ru1 3.173215 1_555
Er2 Ru1 3.173215 1_556
Er2 Ru0 3.173215 1_565
Er2 Ru0 3.173215 1_555
Er2 Ga0 3.173215 1_455
Er2 Ga0 3.173215 1_555
Ga1 Ru2 2.636020 1_556
Ga1 Ru1 2.636020 1_556
Ga1 Ru0 2.636020 1_555
Ga1 Ga8 2.676121 1_556
Ga1 Ga7 2.676121 1_545
Ga1 Ga6 2.676121 1_455
Ga2 Ru2 2.636020 1_565
Ga2 Ru0 2.636020 1_565
Ga2 Ru1 2.636020 1_555
Ga2 Ga8 2.676121 1_565
Ga2 Ga7 2.676121 1_554
Ga2 Ga5 2.676121 1_455
Ga3 Ru1 2.636020 1_655
Ga3 Ru2 2.636020 1_555
Ga3 Ru0 2.636020 1_655
Ga3 Ga8 2.676121 1_655
Ga3 Ga5 2.676121 1_545
Ga3 Ga6 2.676121 1_554
Ga4 Ru1 2.636020 1_656
Ga4 Ru2 2.636020 1_566
Ga4 Ru0 2.636020 1_665
Ga4 Ga6 2.676121 1_565
Ga4 Ga5 2.676121 1_556
Ga4 Ga7 2.676121 1_655
Ga5 Ru2 2.636020 1_565
Ga5 Ru1 2.636020 1_655
Ga5 Ru0 2.636020 1_665
Ga6 Ru2 2.636020 1_556
Ga6 Ru1 2.636020 1_656
Ga6 Ru0 2.636020 1_655
Ga7 Ru1 2.636020 1_556
Ga7 Ru0 2.636020 1_565
Ga7 Ru2 2.636020 1_566
Ga8 Ru2 2.636020 1_555
Ga8 Ru0 2.636020 1_555
Ga8 Ru1 2.636020 1_555
