# generated using pymatgen
data_Ni7Ge4
_symmetry_space_group_name_H-M   'P 1'
_cell_length_a   3.96800695
_cell_length_b   6.37399740
_cell_length_c   6.37399740
_cell_angle_alpha   76.63536860
_cell_angle_beta   71.87600307
_cell_angle_gamma   108.12399693
_symmetry_Int_Tables_number   1
_chemical_formula_structural   Ni7Ge4
_chemical_formula_sum   'Ni7 Ge4'
_cell_volume   135.67666759
_cell_formula_units_Z   1
loop_
 _symmetry_equiv_pos_site_id
 _symmetry_equiv_pos_as_xyz
  1  'x, y, z'
loop_
 _atom_site_type_symbol
 _atom_site_label
 _atom_site_symmetry_multiplicity
 _atom_site_fract_x
 _atom_site_fract_y
 _atom_site_fract_z
 _atom_site_occupancy
  Ni  Ni0  1  0.00581100  0.13365300  0.12199600  1
  Ni  Ni1  1  0.99713600  0.62290400  0.62824700  1
  Ni  Ni2  1  0.00581100  0.37800400  0.36634700  1
  Ni  Ni3  1  0.99713600  0.87175300  0.87709600  1
  Ni  Ni4  1  0.33506500  0.08523900  0.41476100  1
  Ni  Ni5  1  0.66642000  0.66261200  0.32928600  1
  Ni  Ni6  1  0.66642000  0.17071400  0.83738800  1
  Ge  Ge0  1  0.33272800  0.83077000  0.16515200  1
  Ge  Ge1  1  0.33272800  0.33484800  0.66923000  1
  Ge  Ge2  1  0.68468400  0.43358100  0.06641900  1
  Ge  Ge3  1  0.64276200  0.89257300  0.60742700  1
loop_
_geom_bond_atom_site_label_1
_geom_bond_atom_site_label_2
_geom_bond_distance
_geom_bond_site_symmetry_2
Ni0 Ni2 2.443971 1_555
Ni0 Ni3 2.535144 1_444
Ni0 Ni6 2.583815 1_554
Ni0 Ni6 2.584588 1_454
Ni0 Ni4 2.604958 1_555
Ni0 Ni4 2.606536 1_455
Ni0 Ni5 2.667833 1_445
Ni1 Ni3 2.488959 1_555
Ni1 Ni2 2.535144 1_655
Ni1 Ni6 2.566861 1_555
Ni1 Ni4 2.624226 1_665
Ni1 Ni5 2.637579 1_555
Ni1 Ni5 2.637897 1_655
Ni2 Ni5 2.583815 1_555
Ni2 Ni5 2.584588 1_455
Ni2 Ni4 2.604958 1_555
Ni2 Ni4 2.606536 1_455
Ni2 Ni6 2.667833 1_455
Ni3 Ni5 2.566861 1_556
Ni3 Ni4 2.624226 1_665
Ni3 Ni6 2.637579 1_565
Ni3 Ni6 2.637897 1_665
Ge0 Ni6 2.283453 1_564
Ge0 Ni5 2.285383 1_555
Ge0 Ni5 2.287199 1_455
Ge0 Ni4 2.520920 1_565
Ge0 Ni2 2.565327 1_555
Ge0 Ni3 2.593860 1_554
Ge0 Ni3 2.593925 1_454
Ge0 Ni1 2.624976 1_455
Ge0 Ni0 2.649551 1_565
Ge0 Ni0 2.650558 1_665
Ge1 Ni5 2.283453 1_555
Ge1 Ni6 2.285383 1_555
Ge1 Ni6 2.287199 1_455
Ge1 Ni4 2.520920 1_555
Ge1 Ni0 2.565327 1_556
Ge1 Ni1 2.593860 1_555
Ge1 Ni1 2.593925 1_455
Ge1 Ni3 2.624976 1_445
Ge1 Ni2 2.649551 1_555
Ge1 Ni2 2.650558 1_655
Ge2 Ni4 2.381705 1_555
Ge2 Ni5 2.462678 1_555
Ge2 Ni6 2.462678 1_554
Ge2 Ni3 2.480018 1_554
Ge2 Ni1 2.480018 1_554
Ge2 Ni0 2.624353 1_655
Ge2 Ni2 2.624353 1_655
Ge2 Ni2 2.631718 1_555
Ge2 Ni0 2.631718 1_555
Ge3 Ni4 2.380694 1_665
Ge3 Ni4 2.382313 1_565
Ge3 Ni3 2.542398 1_555
Ge3 Ni1 2.542398 1_555
Ge3 Ni1 2.545310 1_455
Ge3 Ni3 2.545310 1_455
Ge3 Ni6 2.546322 1_565
Ge3 Ni5 2.546322 1_555
Ge3 Ni2 2.768003 1_665
Ge3 Ni0 2.768003 1_665
