# generated using pymatgen
data_CaSnO6
_symmetry_space_group_name_H-M   'P 1'
_cell_length_a   7.47383300
_cell_length_b   7.47383300
_cell_length_c   7.47383300
_cell_angle_alpha   90.00000000
_cell_angle_beta   90.00000000
_cell_angle_gamma   90.00000000
_symmetry_Int_Tables_number   1
_chemical_formula_structural   CaSnO6
_chemical_formula_sum   'Ca4 Sn4 O24'
_cell_volume   417.47470685
_cell_formula_units_Z   4
loop_
 _symmetry_equiv_pos_site_id
 _symmetry_equiv_pos_as_xyz
  1  'x, y, z'
loop_
 _atom_site_type_symbol
 _atom_site_label
 _atom_site_symmetry_multiplicity
 _atom_site_fract_x
 _atom_site_fract_y
 _atom_site_fract_z
 _atom_site_occupancy
  Ca  Ca0  1  0.75000000  0.25000000  0.25000000  1
  Ca  Ca1  1  0.25000000  0.25000000  0.75000000  1
  Ca  Ca2  1  0.25000000  0.75000000  0.25000000  1
  Ca  Ca3  1  0.75000000  0.75000000  0.75000000  1
  Sn  Sn0  1  0.25000000  0.75000000  0.75000000  1
  Sn  Sn1  1  0.75000000  0.75000000  0.25000000  1
  Sn  Sn2  1  0.75000000  0.25000000  0.75000000  1
  Sn  Sn3  1  0.25000000  0.25000000  0.25000000  1
  O  O0  1  0.49265800  0.17509200  0.40267200  1
  O  O1  1  0.50734200  0.17509200  0.59732800  1
  O  O2  1  0.50734200  0.82490800  0.40267200  1
  O  O3  1  0.49265800  0.82490800  0.59732800  1
  O  O4  1  0.40267200  0.49265800  0.17509200  1
  O  O5  1  0.59732800  0.50734200  0.17509200  1
  O  O6  1  0.40267200  0.50734200  0.82490800  1
  O  O7  1  0.59732800  0.49265800  0.82490800  1
  O  O8  1  0.17509200  0.40267200  0.49265800  1
  O  O9  1  0.17509200  0.59732800  0.50734200  1
  O  O10  1  0.82490800  0.40267200  0.50734200  1
  O  O11  1  0.82490800  0.59732800  0.49265800  1
  O  O12  1  0.00734200  0.32490800  0.09732800  1
  O  O13  1  0.99265800  0.32490800  0.90267200  1
  O  O14  1  0.99265800  0.67509200  0.09732800  1
  O  O15  1  0.00734200  0.67509200  0.90267200  1
  O  O16  1  0.09732800  0.00734200  0.32490800  1
  O  O17  1  0.90267200  0.99265800  0.32490800  1
  O  O18  1  0.09732800  0.99265800  0.67509200  1
  O  O19  1  0.90267200  0.00734200  0.67509200  1
  O  O20  1  0.32490800  0.09732800  0.00734200  1
  O  O21  1  0.32490800  0.90267200  0.99265800  1
  O  O22  1  0.67509200  0.09732800  0.99265800  1
  O  O23  1  0.67509200  0.90267200  0.00734200  1
loop_
_geom_bond_atom_site_label_1
_geom_bond_atom_site_label_2
_geom_bond_distance
_geom_bond_site_symmetry_2
Ca0 O10 2.305346 1_555
Ca0 O22 2.305346 1_554
Ca0 O17 2.305346 1_545
Ca0 O5 2.305346 1_555
Ca0 O0 2.305346 1_555
Ca0 O12 2.305346 1_655
Ca1 O6 2.305346 1_555
Ca1 O13 2.305346 1_455
Ca1 O20 2.305346 1_556
Ca1 O1 2.305346 1_555
Ca1 O18 2.305346 1_545
Ca1 O8 2.305346 1_555
Ca2 O2 2.305346 1_555
Ca2 O9 2.305346 1_555
Ca2 O14 2.305346 1_455
Ca2 O16 2.305346 1_565
Ca2 O21 2.305346 1_554
Ca2 O4 2.305346 1_555
Ca3 O15 2.305346 1_655
Ca3 O23 2.305346 1_556
Ca3 O19 2.305346 1_565
Ca3 O11 2.305346 1_555
Ca3 O3 2.305346 1_555
Ca3 O7 2.305346 1_555
O0 O1 1.458960 1_555
O0 Sn3 2.214612 1_555
O1 Sn2 2.214612 1_555
O2 O3 1.458960 1_555
O2 Sn1 2.214612 1_555
O3 Sn0 2.214612 1_555
O4 O5 1.458960 1_555
O4 Sn3 2.214612 1_555
O5 Sn1 2.214612 1_555
O6 O7 1.458960 1_555
O6 Sn0 2.214612 1_555
O7 Sn2 2.214612 1_555
O8 O9 1.458960 1_555
O8 Sn3 2.214612 1_555
O9 Sn0 2.214612 1_555
O10 O11 1.458960 1_555
O10 Sn2 2.214612 1_555
O11 Sn1 2.214612 1_555
O12 O13 1.458960 1_454
O12 Sn3 2.214612 1_555
O13 Sn2 2.214612 1_555
O14 O15 1.458960 1_654
O14 Sn1 2.214612 1_555
O15 Sn0 2.214612 1_555
O16 O17 1.458960 1_445
O16 Sn3 2.214612 1_555
O17 Sn1 2.214612 1_555
O18 O19 1.458960 1_465
O18 Sn0 2.214612 1_555
O19 Sn2 2.214612 1_555
O20 O21 1.458960 1_544
O20 Sn3 2.214612 1_555
O21 Sn0 2.214612 1_555
O22 O23 1.458960 1_546
O22 Sn2 2.214612 1_555
O23 Sn1 2.214612 1_555
