# generated using pymatgen
data_GaN
_symmetry_space_group_name_H-M   'P 1'
_cell_length_a   11.83776906
_cell_length_b   10.90028283
_cell_length_c   11.41627871
_cell_angle_alpha   87.40403372
_cell_angle_beta   90.42842987
_cell_angle_gamma   91.15894758
_symmetry_Int_Tables_number   1
_chemical_formula_structural   GaN
_chemical_formula_sum   'Ga50 N50'
_cell_volume   1471.25533496
_cell_formula_units_Z   50
loop_
 _symmetry_equiv_pos_site_id
 _symmetry_equiv_pos_as_xyz
  1  'x, y, z'
loop_
 _atom_site_type_symbol
 _atom_site_label
 _atom_site_symmetry_multiplicity
 _atom_site_fract_x
 _atom_site_fract_y
 _atom_site_fract_z
 _atom_site_occupancy
  Ga  Ga0  1  0.24795565  0.31052889  0.44109968  1
  Ga  Ga1  1  0.11861371  0.43694109  0.28155930  1
  Ga  Ga2  1  0.87031622  0.85634733  0.03914609  1
  Ga  Ga3  1  0.94495307  0.80959833  0.77290213  1
  Ga  Ga4  1  0.13476118  0.27646254  0.09013998  1
  Ga  Ga5  1  0.60754575  0.07868210  0.68329087  1
  Ga  Ga6  1  0.51101461  0.74074250  0.76604453  1
  Ga  Ga7  1  0.91572900  0.25701885  0.33360792  1
  Ga  Ga8  1  0.45352731  0.09863454  0.41163446  1
  Ga  Ga9  1  0.53747024  0.08044976  0.15540449  1
  Ga  Ga10  1  0.14693860  0.81893569  0.47298067  1
  Ga  Ga11  1  0.28429760  0.96153665  0.20486382  1
  Ga  Ga12  1  0.39507189  0.26699382  0.21012682  1
  Ga  Ga13  1  0.67790434  0.33598767  0.23778894  1
  Ga  Ga14  1  0.04666121  0.44691782  0.50535623  1
  Ga  Ga15  1  0.64945964  0.01661008  0.91429441  1
  Ga  Ga16  1  0.24310072  0.03518776  0.58216665  1
  Ga  Ga17  1  0.30477222  0.55762629  0.87543240  1
  Ga  Ga18  1  0.93052664  0.68917749  0.57306930  1
  Ga  Ga19  1  0.29419473  0.51669870  0.09291142  1
  Ga  Ga20  1  0.67519640  0.13985257  0.43662960  1
  Ga  Ga21  1  0.49975315  0.27240442  0.58817541  1
  Ga  Ga22  1  0.91780450  0.59317449  0.34930100  1
  Ga  Ga23  1  0.90215021  0.12542844  0.91939585  1
  Ga  Ga24  1  0.44406024  0.46456187  0.37512098  1
  Ga  Ga25  1  0.14816996  0.77017089  0.97137914  1
  Ga  Ga26  1  0.80249394  0.58676736  0.16273249  1
  Ga  Ga27  1  0.26760140  0.65911418  0.33411107  1
  Ga  Ga28  1  0.60598256  0.79166148  0.02064398  1
  Ga  Ga29  1  0.84486946  0.07469940  0.16042632  1
  Ga  Ga30  1  0.89383929  0.47364476  0.75988505  1
  Ga  Ga31  1  0.89345404  0.20206355  0.62712951  1
  Ga  Ga32  1  0.49322337  0.92037394  0.56135785  1
  Ga  Ga33  1  0.65558618  0.63769537  0.53221905  1
  Ga  Ga34  1  0.06109946  0.81039931  0.23155975  1
  Ga  Ga35  1  0.13314260  0.56015261  0.73817028  1
  Ga  Ga36  1  0.57571905  0.49503072  0.76510535  1
  Ga  Ga37  1  0.72980105  0.81406459  0.73924815  1
  Ga  Ga38  1  0.80661433  0.63477446  0.88248437  1
  Ga  Ga39  1  0.86852795  0.88168761  0.36334845  1
  Ga  Ga40  1  0.80070270  0.40063865  0.51286791  1
  Ga  Ga41  1  0.89730225  0.32093303  0.07122016  1
  Ga  Ga42  1  0.14018535  0.05306899  0.05133902  1
  Ga  Ga43  1  0.82430641  0.94695736  0.57150811  1
  Ga  Ga44  1  0.49385276  0.59149138  0.02498629  1
  Ga  Ga45  1  0.25040806  0.82406303  0.69127719  1
  Ga  Ga46  1  0.36129126  0.80476699  0.06626075  1
  Ga  Ga47  1  0.36573270  0.63108301  0.55156839  1
  Ga  Ga48  1  0.73179475  0.25336719  0.81334353  1
  Ga  Ga49  1  0.61344657  0.40264592  0.02400194  1
  N  N0  1  0.51021650  0.53245020  0.52300569  1
  N  N1  1  0.36136149  0.98137402  0.83555716  1
  N  N2  1  0.44910439  0.74467903  0.32474056  1
  N  N3  1  0.75286881  0.10356585  0.58668825  1
  N  N4  1  0.98907159  0.75450446  0.40740925  1
  N  N5  1  0.65118518  0.65868989  0.70025681  1
  N  N6  1  0.81146922  0.34495334  0.68318425  1
  N  N7  1  0.40756458  0.78034108  0.63697786  1
  N  N8  1  0.05771541  0.09496706  0.35124862  1
  N  N9  1  0.38669255  0.30077114  0.86840223  1
  N  N10  1  0.55408517  0.26398677  0.14963551  1
  N  N11  1  0.46212651  0.59218410  0.84883234  1
  N  N12  1  0.25165102  0.51179776  0.62473102  1
  N  N13  1  0.80368187  0.58023110  0.48694545  1
  N  N14  1  0.20703108  0.21437466  0.72809761  1
  N  N15  1  0.07639541  0.99938881  0.61324180  1
  N  N16  1  0.00903365  0.32741228  0.20678677  1
  N  N17  1  0.68042347  0.86692086  0.38083124  1
  N  N18  1  0.41599049  0.28399775  0.42929800  1
  N  N19  1  0.77390974  0.70835065  0.03332262  1
  N  N20  1  0.09942895  0.67814860  0.12512742  1
  N  N21  1  0.17160450  0.59630946  0.18267875  1
  N  N22  1  0.31584146  0.02296622  0.91057325  1
  N  N23  1  0.20774984  0.83610384  0.31043913  1
  N  N24  1  0.64761400  0.59650053  0.26759991  1
  N  N25  1  0.19831281  0.70343669  0.81667068  1
  N  N26  1  0.00198920  0.54171648  0.64203257  1
  N  N27  1  0.55727884  0.96357884  0.04836715  1
  N  N28  1  0.59962875  0.50073267  0.27729854  1
  N  N29  1  0.02943368  0.43984091  0.86962300  1
  N  N30  1  0.62682830  0.81743044  0.45883791  1
  N  N31  1  0.95015086  0.30302662  0.49265604  1
  N  N32  1  0.15203906  0.11021328  0.36166103  1
  N  N33  1  0.20911682  0.43659130  0.54979863  1
  N  N34  1  0.39837771  0.08707919  0.24776832  1
  N  N35  1  0.92387423  0.90455951  0.19857019  1
  N  N36  1  0.38524605  0.24376411  0.95378702  1
  N  N37  1  0.03065690  0.39599921  0.96998733  1
  N  N38  1  0.03737854  0.00882134  0.93176969  1
  N  N39  1  0.76444546  0.41846532  0.10981751  1
  N  N40  1  0.75230690  0.29501179  0.37910865  1
  N  N41  1  0.53525879  0.43913350  0.61145488  1
  N  N42  1  0.48049918  0.80133038  0.24435961  1
  N  N43  1  0.12814588  0.23327127  0.77577496  1
  N  N44  1  0.98077663  0.03081486  0.62755260  1
  N  N45  1  0.79566962  0.01003227  0.00250477  1
  N  N46  1  0.61160931  0.85011802  0.85167215  1
  N  N47  1  0.00745973  0.88055194  0.92860397  1
  N  N48  1  0.26460049  0.35623102  0.16529347  1
  N  N49  1  0.63456108  0.37155913  0.86730979  1
loop_
_geom_bond_atom_site_label_1
_geom_bond_atom_site_label_2
_geom_bond_distance
_geom_bond_site_symmetry_2
Ga0 N33 1.956543 1_555
Ga0 N18 2.022212 1_555
Ga0 N32 2.634962 1_555
Ga1 N16 1.962105 1_555
Ga1 N21 2.115276 1_555
Ga1 N48 2.392464 1_555
Ga2 N45 1.937271 1_565
Ga2 N19 1.960455 1_555
Ga2 N35 2.011606 1_555
Ga2 N47 2.069062 1_654
Ga3 N47 2.094523 1_655
Ga4 N48 1.961717 1_555
Ga4 N16 2.104041 1_555
Ga4 N37 2.230652 1_554
Ga5 N3 2.057102 1_555
Ga6 N11 1.918867 1_555
Ga6 N7 1.947786 1_555
Ga6 N46 1.955960 1_555
Ga6 N5 2.063212 1_555
Ga7 N31 1.943604 1_555
Ga7 N16 1.947799 1_655
Ga7 N40 2.061736 1_555
Ga7 N8 2.463468 1_655
Ga8 N34 1.985322 1_555
Ga8 N18 2.096460 1_555
Ga9 N27 1.824407 1_545
Ga9 N34 1.966184 1_555
Ga9 N10 2.004441 1_555
Ga10 N23 1.994900 1_555
Ga10 N4 2.125941 1_455
Ga11 N34 1.977969 1_565
Ga11 N23 1.990007 1_555
Ga12 N48 1.896691 1_555
Ga12 N34 1.989649 1_555
Ga12 N10 2.011283 1_555
Ga12 N18 2.527284 1_555
Ga13 N40 1.872833 1_555
Ga13 N10 1.944254 1_555
Ga13 N39 1.964257 1_555
Ga13 N28 2.105651 1_555
Ga14 N31 1.931823 1_455
Ga14 N33 1.989332 1_555
Ga14 N26 1.990620 1_555
Ga15 N27 1.946018 1_546
Ga15 N45 1.996833 1_556
Ga15 N46 2.021198 1_545
Ga16 N15 2.034524 1_545
Ga16 N14 2.666817 1_555
Ga17 N11 1.916655 1_555
Ga17 N25 2.129823 1_555
Ga18 N26 1.962022 1_655
Ga18 N4 2.107542 1_555
Ga18 N13 2.154811 1_555
Ga19 N48 1.927089 1_555
Ga19 N21 2.015684 1_555
Ga20 N3 1.966315 1_555
Ga20 N40 1.992684 1_555
Ga21 N41 1.887165 1_555
Ga21 N18 2.060681 1_555
Ga22 N4 2.069195 1_555
Ga22 N13 2.078029 1_555
Ga23 N45 1.979111 1_556
Ga23 N38 2.064159 1_655
Ga24 N0 2.020199 1_555
Ga24 N18 2.057453 1_555
Ga24 N28 2.180723 1_555
Ga25 N25 2.037265 1_555
Ga25 N20 2.062074 1_556
Ga25 N47 2.115738 1_555
Ga26 N19 1.971509 1_555
Ga26 N39 1.999057 1_555
Ga26 N24 2.204135 1_555
Ga27 N23 2.074169 1_555
Ga27 N21 2.189778 1_555
Ga27 N2 2.326180 1_555
Ga28 N46 2.005110 1_554
Ga28 N27 2.011072 1_555
Ga28 N19 2.203205 1_555
Ga29 N45 2.041874 1_555
Ga29 N35 2.120061 1_545
Ga30 N6 1.930922 1_555
Ga30 N26 1.974010 1_655
Ga30 N29 2.057613 1_655
Ga31 N31 1.962371 1_555
Ga31 N6 1.984459 1_555
Ga31 N3 2.024014 1_555
Ga31 N44 2.151778 1_555
Ga32 N7 1.983558 1_555
Ga32 N30 2.312751 1_555
Ga33 N5 1.943440 1_555
Ga33 N13 1.954540 1_555
Ga33 N0 2.053493 1_555
Ga33 N30 2.128394 1_555
Ga34 N35 1.964019 1_455
Ga34 N23 1.970524 1_555
Ga34 N20 1.988403 1_555
Ga34 N4 2.241038 1_455
Ga35 N26 1.907170 1_555
Ga35 N25 1.976197 1_555
Ga35 N12 2.010461 1_555
Ga35 N29 2.294190 1_555
Ga36 N49 1.881887 1_555
Ga36 N41 1.936495 1_555
Ga36 N11 2.002953 1_555
Ga36 N5 2.086710 1_555
Ga37 N46 1.963177 1_555
Ga37 N5 1.982661 1_555
Ga38 N19 1.976372 1_556
Ga39 N35 1.999874 1_555
Ga39 N4 2.053605 1_555
Ga39 N17 2.239049 1_555
Ga40 N13 1.966199 1_555
Ga40 N6 2.014398 1_555
Ga40 N40 2.026124 1_555
Ga40 N31 2.102298 1_555
Ga41 N39 1.979473 1_555
Ga41 N16 2.031052 1_655
Ga41 N37 2.094418 1_654
Ga42 N38 1.894228 1_554
Ga42 N22 2.671953 1_554
Ga43 N3 1.935633 1_565
Ga43 N44 2.154651 1_565
Ga44 N11 2.042735 1_554
Ga45 N25 1.992068 1_555
Ga45 N7 2.037719 1_555
Ga46 N42 2.465584 1_555
Ga47 N7 1.986663 1_555
Ga47 N12 2.014820 1_555
Ga47 N0 2.074140 1_555
Ga48 N49 1.872623 1_555
Ga48 N6 1.985622 1_555
Ga49 N49 1.855336 1_554
Ga49 N39 2.039927 1_555
Ga49 N10 2.147338 1_555
N0 N41 1.434165 1_555
N1 N22 1.131941 1_565
N2 N42 1.142810 1_555
N12 N33 1.302969 1_555
N14 N43 1.111870 1_555
N15 N44 1.203653 1_465
N17 N30 1.199040 1_555
N20 N21 1.388094 1_555
N24 N28 1.179462 1_555
N29 N37 1.221411 1_555
N32 N8 1.131725 1_555
N36 N9 1.132061 1_555
N38 N47 1.437354 1_545
