# generated using pymatgen
data_Sr3CaCr2S2O5
_symmetry_space_group_name_H-M   'P 1'
_cell_length_a   14.40742028
_cell_length_b   14.40742028
_cell_length_c   14.40742028
_cell_angle_alpha   164.10663430
_cell_angle_beta   164.10663430
_cell_angle_gamma   22.54987697
_symmetry_Int_Tables_number   1
_chemical_formula_structural   Sr3CaCr2S2O5
_chemical_formula_sum   'Sr3 Ca1 Cr2 S2 O5'
_cell_volume   224.23061106
_cell_formula_units_Z   1
loop_
 _symmetry_equiv_pos_site_id
 _symmetry_equiv_pos_as_xyz
  1  'x, y, z'
loop_
 _atom_site_type_symbol
 _atom_site_label
 _atom_site_symmetry_multiplicity
 _atom_site_fract_x
 _atom_site_fract_y
 _atom_site_fract_z
 _atom_site_occupancy
  Sr  Sr0  1  0.50000000  0.50000000  0.00000000  1
  Sr  Sr1  1  0.63056600  0.63056600  0.00000000  1
  Sr  Sr2  1  0.36943400  0.36943400  0.00000000  1
  Ca  Ca0  1  0.75000000  0.25000000  0.50000000  1
  Cr  Cr0  1  0.06760000  0.06760000  0.00000000  1
  Cr  Cr1  1  0.93240000  0.93240000  0.00000000  1
  S  S0  1  0.18405600  0.18405600  0.00000000  1
  S  S1  1  0.81594400  0.81594400  0.00000000  1
  O  O0  1  0.07555400  0.57555400  0.50000000  1
  O  O1  1  0.57576100  0.07576100  0.50000000  1
  O  O2  1  0.92423900  0.42423900  0.50000000  1
  O  O3  1  0.42444600  0.92444600  0.50000000  1
  O  O4  1  0.00000000  0.00000000  0.00000000  1
loop_
_geom_bond_atom_site_label_1
_geom_bond_atom_site_label_2
_geom_bond_distance
_geom_bond_site_symmetry_2
Ca0 S1 2.727648 1_545
Ca0 S1 2.727648 1_556
Ca0 S0 2.727648 1_656
Ca0 S0 2.727648 1_555
Cr0 O4 1.910290 1_555
Cr0 O0 2.004490 1_544
Cr0 O0 2.004490 1_555
Cr0 O1 2.005154 1_454
Cr0 O1 2.005154 1_555
Cr1 O4 1.910290 1_665
Cr1 O3 2.004490 1_655
Cr1 O3 2.004490 1_554
Cr1 O2 2.005154 1_565
Cr1 O2 2.005154 1_554
S0 Sr1 3.196831 1_556
S0 Sr1 3.196831 1_444
S0 Sr1 3.196831 1_545
S0 Sr1 3.196831 1_455
S1 Sr2 3.196831 1_554
S1 Sr2 3.196831 1_565
S1 Sr2 3.196831 1_655
S1 Sr2 3.196831 1_666
O0 Sr1 2.526686 1_556
O0 Sr1 2.526686 1_455
O0 Sr0 2.919921 1_556
O0 Sr0 2.919921 1_455
O1 Sr1 2.523091 1_545
O1 Sr1 2.523091 1_556
O1 Sr0 2.924201 1_556
O1 Sr0 2.924201 1_545
O2 Sr2 2.523091 1_555
O2 Sr2 2.523091 1_656
O2 Sr0 2.924201 1_555
O2 Sr0 2.924201 1_656
O3 Sr2 2.526686 1_566
O3 Sr2 2.526686 1_555
O3 Sr0 2.919921 1_555
O3 Sr0 2.919921 1_566
O4 Sr0 2.816898 1_556
O4 Sr0 2.816898 1_444
O4 Sr0 2.816898 1_545
O4 Sr0 2.816898 1_455
