# generated using pymatgen
data_ThSc2(BRh)12
_symmetry_space_group_name_H-M   'P 1'
_cell_length_a   5.33132500
_cell_length_b   5.33132500
_cell_length_c   22.33802800
_cell_angle_alpha   90.00000000
_cell_angle_beta   90.00000000
_cell_angle_gamma   90.00000000
_symmetry_Int_Tables_number   1
_chemical_formula_structural   ThSc2(BRh)12
_chemical_formula_sum   'Th2 Sc4 B24 Rh24'
_cell_volume   634.91435634
_cell_formula_units_Z   2
loop_
 _symmetry_equiv_pos_site_id
 _symmetry_equiv_pos_as_xyz
  1  'x, y, z'
loop_
 _atom_site_type_symbol
 _atom_site_label
 _atom_site_symmetry_multiplicity
 _atom_site_fract_x
 _atom_site_fract_y
 _atom_site_fract_z
 _atom_site_occupancy
  Th  Th0  1  0.00000000  0.00000000  0.33275400  1
  Th  Th1  1  0.00000000  0.00000000  0.66724600  1
  Sc  Sc0  1  0.50000000  0.50000000  0.83356800  1
  Sc  Sc1  1  0.50000000  0.50000000  0.16643200  1
  Sc  Sc2  1  0.50000000  0.50000000  0.50000000  1
  Sc  Sc3  1  0.00000000  0.00000000  0.00000000  1
  B  B0  1  0.32993400  0.00000000  0.88443200  1
  B  B1  1  0.33106900  0.00000000  0.21361400  1
  B  B2  1  0.33052800  0.00000000  0.54918000  1
  B  B3  1  0.67006600  0.00000000  0.88443200  1
  B  B4  1  0.66893100  0.00000000  0.21361400  1
  B  B5  1  0.66947200  0.00000000  0.54918000  1
  B  B6  1  0.50000000  0.83056800  0.04870500  1
  B  B7  1  0.50000000  0.83347700  0.38318200  1
  B  B8  1  0.50000000  0.83326700  0.71732300  1
  B  B9  1  0.50000000  0.16943200  0.04870500  1
  B  B10  1  0.50000000  0.16652300  0.38318200  1
  B  B11  1  0.50000000  0.16673300  0.71732300  1
  B  B12  1  0.16943200  0.50000000  0.95129500  1
  B  B13  1  0.16673300  0.50000000  0.28267700  1
  B  B14  1  0.16652300  0.50000000  0.61681800  1
  B  B15  1  0.83056800  0.50000000  0.95129500  1
  B  B16  1  0.83326700  0.50000000  0.28267700  1
  B  B17  1  0.83347700  0.50000000  0.61681800  1
  B  B18  1  0.00000000  0.66893100  0.78638600  1
  B  B19  1  0.00000000  0.67006600  0.11556800  1
  B  B20  1  0.00000000  0.66947200  0.45082000  1
  B  B21  1  0.00000000  0.33106900  0.78638600  1
  B  B22  1  0.00000000  0.32993400  0.11556800  1
  B  B23  1  0.00000000  0.33052800  0.45082000  1
  Rh  Rh0  1  0.74878100  0.00000000  0.78738700  1
  Rh  Rh1  1  0.75109100  0.00000000  0.11633600  1
  Rh  Rh2  1  0.74817700  0.00000000  0.45279800  1
  Rh  Rh3  1  0.25121900  0.00000000  0.78738700  1
  Rh  Rh4  1  0.24890900  0.00000000  0.11633600  1
  Rh  Rh5  1  0.25182300  0.00000000  0.45279800  1
  Rh  Rh6  1  0.50000000  0.25156300  0.95100700  1
  Rh  Rh7  1  0.50000000  0.25172300  0.28133800  1
  Rh  Rh8  1  0.50000000  0.25165200  0.61592400  1
  Rh  Rh9  1  0.50000000  0.74843700  0.95100700  1
  Rh  Rh10  1  0.50000000  0.74827700  0.28133800  1
  Rh  Rh11  1  0.50000000  0.74834800  0.61592400  1
  Rh  Rh12  1  0.74843700  0.50000000  0.04899300  1
  Rh  Rh13  1  0.74834800  0.50000000  0.38407600  1
  Rh  Rh14  1  0.74827700  0.50000000  0.71866200  1
  Rh  Rh15  1  0.25156300  0.50000000  0.04899300  1
  Rh  Rh16  1  0.25165200  0.50000000  0.38407600  1
  Rh  Rh17  1  0.25172300  0.50000000  0.71866200  1
  Rh  Rh18  1  0.00000000  0.24890900  0.88366400  1
  Rh  Rh19  1  0.00000000  0.25121900  0.21261300  1
  Rh  Rh20  1  0.00000000  0.25182300  0.54720200  1
  Rh  Rh21  1  0.00000000  0.75109100  0.88366400  1
  Rh  Rh22  1  0.00000000  0.74878100  0.21261300  1
  Rh  Rh23  1  0.00000000  0.74817700  0.54720200  1
loop_
_geom_bond_atom_site_label_1
_geom_bond_atom_site_label_2
_geom_bond_distance
_geom_bond_site_symmetry_2
B0 B3 1.813354 1_555
B0 Rh9 2.198275 1_545
B0 Rh6 2.198275 1_555
B0 Rh18 2.203473 1_555
B0 Rh21 2.203473 1_545
B0 Rh3 2.208040 1_555
B0 Sc0 3.036243 1_555
B0 Sc0 3.036243 1_545
B0 Sc3 3.123858 1_556
B1 B4 1.801252 1_555
B1 Rh7 2.213767 1_555
B1 Rh10 2.213767 1_545
B1 Rh19 2.215775 1_555
B1 Rh22 2.215775 1_545
B1 Rh4 2.216706 1_555
B1 Sc1 3.004613 1_555
B1 Sc1 3.004613 1_545
B1 Th0 3.193454 1_555
B2 B5 1.807021 1_555
B2 Rh5 2.193492 1_555
B2 Rh11 2.199817 1_545
B2 Rh8 2.199817 1_555
B2 Rh20 2.215756 1_555
B2 Rh23 2.215756 1_545
B2 Sc2 3.021419 1_545
B2 Sc2 3.021419 1_555
B2 Th1 3.171885 1_555
B3 Rh9 2.198275 1_545
B3 Rh6 2.198275 1_555
B3 Rh18 2.203473 1_655
B3 Rh21 2.203473 1_645
B3 Rh0 2.208040 1_555
B3 Sc0 3.036243 1_545
B3 Sc0 3.036243 1_555
B3 Sc3 3.123858 1_656
B4 Rh7 2.213767 1_555
B4 Rh10 2.213767 1_545
B4 Rh19 2.215775 1_655
B4 Rh22 2.215775 1_645
B4 Rh1 2.216706 1_555
B4 Sc1 3.004613 1_555
B4 Sc1 3.004613 1_545
B4 Th0 3.193454 1_655
B5 Rh2 2.193492 1_555
B5 Rh11 2.199817 1_545
B5 Rh8 2.199817 1_555
B5 Rh20 2.215756 1_655
B5 Rh23 2.215756 1_645
B5 Sc2 3.021419 1_545
B5 Sc2 3.021419 1_555
B5 Th1 3.171885 1_655
B6 B9 1.806594 1_565
B6 Rh15 2.204602 1_555
B6 Rh12 2.204602 1_555
B6 Rh4 2.211395 1_565
B6 Rh1 2.211395 1_565
B6 Rh9 2.225874 1_554
B6 Sc3 3.017514 1_665
B6 Sc3 3.017514 1_565
B6 Sc1 3.165710 1_555
B7 Rh16 2.216816 1_555
B7 Rh13 2.216816 1_555
B7 Rh2 2.226450 1_565
B7 Rh5 2.226450 1_565
B7 Rh10 2.319897 1_555
B7 Th0 3.027019 1_665
B7 Th0 3.027019 1_565
B7 Sc2 3.157569 1_555
B8 Rh14 2.215804 1_555
B8 Rh17 2.215804 1_555
B8 Rh0 2.235806 1_565
B8 Rh3 2.235806 1_565
B8 Rh11 2.309856 1_555
B8 Th1 3.024438 1_565
B8 Th1 3.024438 1_665
B8 Sc0 3.146367 1_555
B9 Rh15 2.204602 1_555
B9 Rh12 2.204602 1_555
B9 Rh1 2.211395 1_555
B9 Rh4 2.211395 1_555
B9 Rh6 2.225874 1_554
B9 Sc3 3.017514 1_555
B9 Sc3 3.017514 1_655
B9 Sc1 3.165710 1_555
B10 B7 1.775576 1_545
B10 Rh16 2.216816 1_555
B10 Rh13 2.216816 1_555
B10 Rh2 2.226450 1_555
B10 Rh5 2.226450 1_555
B10 Rh7 2.319897 1_555
B10 Th0 3.027019 1_555
B10 Th0 3.027019 1_655
B10 Sc2 3.157569 1_555
B11 B8 1.777816 1_545
B11 Rh14 2.215804 1_555
B11 Rh17 2.215804 1_555
B11 Rh0 2.235806 1_555
B11 Rh3 2.235806 1_555
B11 Rh8 2.309856 1_555
B11 Th1 3.024438 1_555
B11 Th1 3.024438 1_655
B11 Sc0 3.146367 1_555
B12 B15 1.806594 1_455
B12 Rh6 2.204602 1_555
B12 Rh9 2.204602 1_555
B12 Rh21 2.211395 1_555
B12 Rh18 2.211395 1_555
B12 Rh15 2.225874 1_556
B12 Sc3 3.017514 1_566
B12 Sc3 3.017514 1_556
B12 Sc0 3.165710 1_555
B13 B16 1.777816 1_455
B13 Rh10 2.215804 1_555
B13 Rh7 2.215804 1_555
B13 Rh22 2.235806 1_555
B13 Rh19 2.235806 1_555
B13 Rh16 2.309856 1_555
B13 Th0 3.024438 1_565
B13 Th0 3.024438 1_555
B13 Sc1 3.146367 1_555
B14 B17 1.775576 1_455
B14 Rh11 2.216816 1_555
B14 Rh8 2.216816 1_555
B14 Rh23 2.226450 1_555
B14 Rh20 2.226450 1_555
B14 Rh17 2.319897 1_555
B14 Th1 3.027019 1_565
B14 Th1 3.027019 1_555
B14 Sc2 3.157569 1_555
B15 Rh6 2.204602 1_555
B15 Rh9 2.204602 1_555
B15 Rh21 2.211395 1_655
B15 Rh18 2.211395 1_655
B15 Rh12 2.225874 1_556
B15 Sc3 3.017514 1_666
B15 Sc3 3.017514 1_656
B15 Sc0 3.165710 1_555
B16 Rh10 2.215804 1_555
B16 Rh7 2.215804 1_555
B16 Rh22 2.235806 1_655
B16 Rh19 2.235806 1_655
B16 Rh13 2.309856 1_555
B16 Th0 3.024438 1_665
B16 Th0 3.024438 1_655
B16 Sc1 3.146367 1_555
B17 Rh11 2.216816 1_555
B17 Rh8 2.216816 1_555
B17 Rh23 2.226450 1_655
B17 Rh20 2.226450 1_655
B17 Rh14 2.319897 1_555
B17 Th1 3.027019 1_655
B17 Th1 3.027019 1_665
B17 Sc2 3.157569 1_555
B18 B21 1.801252 1_555
B18 Rh17 2.213767 1_555
B18 Rh14 2.213767 1_455
B18 Rh3 2.215775 1_565
B18 Rh0 2.215775 1_465
B18 Rh21 2.216706 1_555
B18 Sc0 3.004613 1_555
B18 Sc0 3.004613 1_455
B18 Th1 3.193454 1_565
B19 B22 1.813354 1_555
B19 Rh12 2.198275 1_455
B19 Rh15 2.198275 1_555
B19 Rh4 2.203473 1_565
B19 Rh1 2.203473 1_465
B19 Rh22 2.208040 1_555
B19 Sc1 3.036243 1_555
B19 Sc1 3.036243 1_455
B19 Sc3 3.123858 1_565
B20 B23 1.807021 1_555
B20 Rh23 2.193492 1_555
B20 Rh16 2.199817 1_555
B20 Rh13 2.199817 1_455
B20 Rh5 2.215756 1_565
B20 Rh2 2.215756 1_465
B20 Sc2 3.021419 1_455
B20 Sc2 3.021419 1_555
B20 Th0 3.171885 1_565
B21 Rh17 2.213767 1_555
B21 Rh14 2.213767 1_455
B21 Rh3 2.215775 1_555
B21 Rh0 2.215775 1_455
B21 Rh18 2.216706 1_555
B21 Sc0 3.004613 1_455
B21 Sc0 3.004613 1_555
B21 Th1 3.193454 1_555
B22 Rh15 2.198275 1_555
B22 Rh12 2.198275 1_455
B22 Rh4 2.203473 1_555
B22 Rh1 2.203473 1_455
B22 Rh19 2.208040 1_555
B22 Sc1 3.036243 1_555
B22 Sc1 3.036243 1_455
B22 Sc3 3.123858 1_555
B23 Rh20 2.193492 1_555
B23 Rh16 2.199817 1_555
B23 Rh13 2.199817 1_455
B23 Rh5 2.215756 1_555
B23 Rh2 2.215756 1_455
B23 Sc2 3.021419 1_455
B23 Sc2 3.021419 1_555
B23 Th0 3.171885 1_555
Rh0 Th1 2.999353 1_655
Rh0 Sc0 3.151047 1_545
Rh0 Sc0 3.151047 1_555
Rh1 Sc3 2.917927 1_655
Rh1 Sc1 3.185906 1_545
Rh1 Sc1 3.185906 1_555
Rh2 Th0 2.998855 1_655
Rh2 Sc2 3.157236 1_545
Rh2 Sc2 3.157236 1_555
Rh3 Th1 2.999353 1_555
Rh3 Sc0 3.151047 1_545
Rh3 Sc0 3.151047 1_555
Rh4 Sc3 2.917927 1_555
Rh4 Sc1 3.185906 1_545
Rh4 Sc1 3.185906 1_555
Rh5 Th0 2.998855 1_555
Rh5 Sc2 3.157236 1_545
Rh5 Sc2 3.157236 1_555
Rh6 Sc0 2.938757 1_555
Rh6 Sc3 3.178397 1_556
Rh6 Sc3 3.178397 1_656
Rh7 Sc1 2.887969 1_555
Rh7 Th0 3.197795 1_655
Rh7 Th0 3.197795 1_555
Rh8 Sc2 2.908371 1_555
Rh8 Th1 3.196882 1_555
Rh8 Th1 3.196882 1_655
Rh9 Sc0 2.938757 1_555
Rh9 Sc3 3.178397 1_666
Rh9 Sc3 3.178397 1_566
Rh10 Sc1 2.887969 1_555
Rh10 Th0 3.197795 1_665
Rh10 Th0 3.197795 1_565
Rh11 Sc2 2.908371 1_555
Rh11 Th1 3.196882 1_565
Rh11 Th1 3.196882 1_665
Rh12 Sc1 2.938757 1_555
Rh12 Sc3 3.178397 1_655
Rh12 Sc3 3.178397 1_665
Rh13 Sc2 2.908371 1_555
Rh13 Th0 3.196882 1_665
Rh13 Th0 3.196882 1_655
Rh14 Sc0 2.887969 1_555
Rh14 Th1 3.197795 1_665
Rh14 Th1 3.197795 1_655
Rh15 Sc1 2.938757 1_555
Rh15 Sc3 3.178397 1_565
Rh15 Sc3 3.178397 1_555
Rh16 Sc2 2.908371 1_555
Rh16 Th0 3.196882 1_555
Rh16 Th0 3.196882 1_565
Rh17 Sc0 2.887969 1_555
Rh17 Th1 3.197795 1_565
Rh17 Th1 3.197795 1_555
Rh18 Sc3 2.917927 1_556
Rh18 Sc0 3.185906 1_455
Rh18 Sc0 3.185906 1_555
Rh19 Th0 2.999353 1_555
Rh19 Sc1 3.151047 1_555
Rh19 Sc1 3.151047 1_455
Rh20 Th1 2.998855 1_555
Rh20 Sc2 3.157236 1_555
Rh20 Sc2 3.157236 1_455
Rh21 Sc3 2.917927 1_566
Rh21 Sc0 3.185906 1_455
Rh21 Sc0 3.185906 1_555
Rh22 Th0 2.999353 1_565
Rh22 Sc1 3.151047 1_555
Rh22 Sc1 3.151047 1_455
Rh23 Th1 2.998855 1_565
Rh23 Sc2 3.157236 1_555
Rh23 Sc2 3.157236 1_455
