# generated using pymatgen
data_NbZn(PbO3)2
_symmetry_space_group_name_H-M   'P 1'
_cell_length_a   5.86913299
_cell_length_b   5.86913299
_cell_length_c   5.86913351
_cell_angle_alpha   58.87276708
_cell_angle_beta   58.87276708
_cell_angle_gamma   58.87277106
_symmetry_Int_Tables_number   1
_chemical_formula_structural   NbZn(PbO3)2
_chemical_formula_sum   'Nb1 Zn1 Pb2 O6'
_cell_volume   139.27894418
_cell_formula_units_Z   1
loop_
 _symmetry_equiv_pos_site_id
 _symmetry_equiv_pos_as_xyz
  1  'x, y, z'
loop_
 _atom_site_type_symbol
 _atom_site_label
 _atom_site_symmetry_multiplicity
 _atom_site_fract_x
 _atom_site_fract_y
 _atom_site_fract_z
 _atom_site_occupancy
  Nb  Nb0  1  0.48978200  0.48978200  0.48978200  1
  Zn  Zn0  1  0.98754100  0.98754100  0.98754100  1
  Pb  Pb0  1  0.75644600  0.75644600  0.75644600  1
  Pb  Pb1  1  0.26037200  0.26037200  0.26037200  1
  O  O0  1  0.72277600  0.72277600  0.21504600  1
  O  O1  1  0.23386600  0.23386600  0.69853000  1
  O  O2  1  0.72277600  0.21504600  0.72277600  1
  O  O3  1  0.23386600  0.69853000  0.23386600  1
  O  O4  1  0.21504600  0.72277600  0.72277600  1
  O  O5  1  0.69853000  0.23386600  0.23386600  1
loop_
_geom_bond_atom_site_label_1
_geom_bond_atom_site_label_2
_geom_bond_distance
_geom_bond_site_symmetry_2
Nb0 O0 1.927155 1_555
Nb0 O4 1.927155 1_555
Nb0 O2 1.927155 1_555
Nb0 O1 2.130825 1_555
Nb0 O5 2.130825 1_555
Nb0 O3 2.130825 1_555
O0 Zn0 2.195109 1_554
O0 Pb0 2.502654 1_554
O1 Zn0 2.036563 1_445
O1 Pb1 2.420613 1_555
O2 Zn0 2.195109 1_545
O2 Pb0 2.502653 1_545
O3 Zn0 2.036563 1_454
O3 Pb1 2.420612 1_555
O4 Zn0 2.195109 1_455
O4 Pb0 2.502653 1_455
O5 Zn0 2.036563 1_544
O5 Pb1 2.420612 1_555
