# generated using pymatgen
data_Li4MnCo2O7
_symmetry_space_group_name_H-M   'P 1'
_cell_length_a   17.17878630
_cell_length_b   17.17878630
_cell_length_c   5.26244254
_cell_angle_alpha   84.02721181
_cell_angle_beta   84.02721181
_cell_angle_gamma   9.52877907
_symmetry_Int_Tables_number   1
_chemical_formula_structural   Li4MnCo2O7
_chemical_formula_sum   'Li8 Mn2 Co4 O14'
_cell_volume   255.68342318
_cell_formula_units_Z   2
loop_
 _symmetry_equiv_pos_site_id
 _symmetry_equiv_pos_as_xyz
  1  'x, y, z'
loop_
 _atom_site_type_symbol
 _atom_site_label
 _atom_site_symmetry_multiplicity
 _atom_site_fract_x
 _atom_site_fract_y
 _atom_site_fract_z
 _atom_site_occupancy
  Li  Li0  1  0.49675300  0.49675300  0.49876800  1
  Li  Li1  1  0.92643300  0.92643300  0.35066100  1
  Li  Li2  1  0.35621800  0.35621800  0.20585400  1
  Li  Li3  1  0.78466300  0.78466300  0.05601600  1
  Li  Li4  1  0.21384900  0.21384900  0.93385400  1
  Li  Li5  1  0.07434500  0.07434500  0.63574200  1
  Li  Li6  1  0.64820000  0.64820000  0.80799100  1
  Li  Li7  1  0.71437800  0.71437800  0.42645400  1
  Mn  Mn0  1  0.99854000  0.99854000  0.00126800  1
  Mn  Mn1  1  0.57259900  0.57259900  0.14832400  1
  Co  Co0  1  0.42666700  0.42666700  0.84981700  1
  Co  Co1  1  0.85646200  0.85646200  0.71987600  1
  Co  Co2  1  0.28139900  0.28139900  0.53465800  1
  Co  Co3  1  0.14950300  0.14950300  0.31815100  1
  O  O0  1  0.53515000  0.53515000  0.86972700  1
  O  O1  1  0.96284200  0.96284200  0.68231400  1
  O  O2  1  0.38929800  0.38929800  0.56433600  1
  O  O3  1  0.81730300  0.81730300  0.42116600  1
  O  O4  1  0.25333400  0.25333400  0.26236300  1
  O  O5  1  0.10159200  0.10159200  0.97058800  1
  O  O6  1  0.67681100  0.67681100  0.11527500  1
  O  O7  1  0.46599700  0.46599700  0.16338100  1
  O  O8  1  0.89437300  0.89437300  0.03413300  1
  O  O9  1  0.32574600  0.32574600  0.87611700  1
  O  O10  1  0.75521300  0.75521300  0.72663700  1
  O  O11  1  0.17520700  0.17520700  0.59435700  1
  O  O12  1  0.04059000  0.04059000  0.31900300  1
  O  O13  1  0.60653800  0.60653800  0.41317000  1
loop_
_geom_bond_atom_site_label_1
_geom_bond_atom_site_label_2
_geom_bond_distance
_geom_bond_site_symmetry_2
Li0 O1 2.020578 1_545
Li0 O1 2.020578 1_455
Li0 O7 2.147584 1_555
Li0 O12 2.210672 1_655
Li0 O12 2.210672 1_565
Li0 O0 2.464793 1_555
Li1 O8 2.088390 1_555
Li1 O7 2.136212 1_565
Li1 O7 2.136212 1_655
Li1 O2 2.149027 1_655
Li1 O2 2.149027 1_565
Li1 O1 2.248214 1_555
Li2 O8 2.076682 1_545
Li2 O8 2.076682 1_455
Li2 O9 2.116034 1_554
Li2 O3 2.186264 1_455
Li2 O3 2.186264 1_545
Li2 O2 2.299541 1_555
Li3 O4 2.030372 1_565
Li3 O4 2.030372 1_655
Li3 O10 2.094325 1_554
Li3 O9 2.152362 1_654
Li3 O9 2.152362 1_564
Li3 O3 2.321609 1_555
Li4 O6 2.074297 1_456
Li4 O6 2.074297 1_546
Li4 O10 2.215461 1_545
Li4 O10 2.215461 1_455
Li4 O4 2.303123 1_556
Li4 O11 2.331522 1_555
Li5 O5 2.078133 1_555
Li5 O13 2.086411 1_455
Li5 O13 2.086411 1_545
Li5 O12 2.125160 1_555
Li5 O0 2.237839 1_455
Li5 O0 2.237839 1_545
Li6 O6 1.976193 1_556
Li6 O11 1.984375 1_565
Li6 O11 1.984375 1_655
Li6 O5 2.242648 1_565
Li6 O5 2.242648 1_655
Li7 O4 2.078477 1_655
Li7 O4 2.078477 1_565
Li7 O11 2.089943 1_565
Li7 O11 2.089943 1_655
Li7 O6 2.185388 1_555
Li7 O10 2.216187 1_555
Mn0 O7 1.951074 1_655
Mn0 O7 1.951074 1_565
Mn0 O0 1.976128 1_564
Mn0 O0 1.976128 1_654
Mn0 O1 2.177069 1_554
Mn0 O12 2.317626 1_665
Mn1 O13 1.905529 1_555
Mn1 O5 1.924122 1_654
Mn1 O5 1.924122 1_564
Mn1 O12 1.959124 1_565
Mn1 O12 1.959124 1_655
Mn1 O0 2.045994 1_554
Co0 O8 1.993819 1_546
Co0 O8 1.993819 1_456
Co0 O1 2.029529 1_545
Co0 O1 2.029529 1_455
Co0 O2 2.072547 1_555
Co0 O7 2.236131 1_556
Co1 O9 1.907188 1_655
Co1 O9 1.907188 1_565
Co1 O2 1.943620 1_565
Co1 O2 1.943620 1_655
Co1 O3 2.169973 1_555
Co1 O8 2.206375 1_556
Co2 O4 1.806713 1_555
Co2 O10 1.916048 1_455
Co2 O10 1.916048 1_545
Co2 O3 1.936612 1_545
Co2 O3 1.936612 1_455
Co2 O9 2.470663 1_555
Co3 O11 1.776060 1_555
Co3 O6 1.959963 1_545
Co3 O6 1.959963 1_455
Co3 O13 2.072765 1_545
Co3 O13 2.072765 1_455
Co3 O5 2.581260 1_554
