# generated using pymatgen
data_YbPPd
_symmetry_space_group_name_H-M   'P 1'
_cell_length_a   3.93119647
_cell_length_b   6.81313165
_cell_length_c   7.66898233
_cell_angle_alpha   90.00000000
_cell_angle_beta   90.00000000
_cell_angle_gamma   90.00000000
_symmetry_Int_Tables_number   1
_chemical_formula_structural   YbPPd
_chemical_formula_sum   'Yb4 P4 Pd4'
_cell_volume   205.40417528
_cell_formula_units_Z   4
loop_
 _symmetry_equiv_pos_site_id
 _symmetry_equiv_pos_as_xyz
  1  'x, y, z'
loop_
 _atom_site_type_symbol
 _atom_site_label
 _atom_site_symmetry_multiplicity
 _atom_site_fract_x
 _atom_site_fract_y
 _atom_site_fract_z
 _atom_site_occupancy
  Yb  Yb0  1  0.25000000  0.53360563  0.18746754  1
  Yb  Yb1  1  0.75000000  0.46639437  0.81253246  1
  Yb  Yb2  1  0.75000000  0.96639437  0.68746754  1
  Yb  Yb3  1  0.25000000  0.03360563  0.31253246  1
  P  P0  1  0.25000000  0.74538863  0.87606990  1
  P  P1  1  0.75000000  0.25461137  0.12393010  1
  P  P2  1  0.75000000  0.75461137  0.37606990  1
  P  P3  1  0.25000000  0.24538863  0.62393010  1
  Pd  Pd0  1  0.25000000  0.64802701  0.56165519  1
  Pd  Pd1  1  0.75000000  0.35197299  0.43834481  1
  Pd  Pd2  1  0.75000000  0.85197299  0.06165519  1
  Pd  Pd3  1  0.25000000  0.14802701  0.93834481  1
loop_
_geom_bond_atom_site_label_1
_geom_bond_atom_site_label_2
_geom_bond_distance
_geom_bond_site_symmetry_2
P0 Pd0 2.500820 1_555
P0 Pd2 2.533090 1_456
P0 Pd2 2.533090 1_556
P0 Yb1 2.777434 1_455
P0 Yb1 2.777434 1_555
P0 Pd3 2.784491 1_565
P0 Yb0 2.790164 1_556
P0 Yb2 2.867555 1_455
P0 Yb2 2.867555 1_555
P1 Pd1 2.500820 1_555
P1 Pd3 2.533090 1_654
P1 Pd3 2.533090 1_554
P1 Yb0 2.777434 1_655
P1 Yb0 2.777434 1_555
P1 Pd2 2.784491 1_545
P1 Yb1 2.790164 1_554
P1 Yb3 2.867555 1_555
P1 Yb3 2.867555 1_655
P2 Pd2 2.500820 1_555
P2 Pd0 2.533090 1_655
P2 Pd0 2.533090 1_555
P2 Yb3 2.777434 1_565
P2 Yb3 2.777434 1_665
P2 Pd1 2.784491 1_555
P2 Yb2 2.790164 1_555
P2 Yb0 2.867555 1_555
P2 Yb0 2.867555 1_655
P3 Pd3 2.500820 1_555
P3 Pd1 2.533090 1_455
P3 Pd1 2.533090 1_555
P3 Yb2 2.777434 1_445
P3 Yb2 2.777434 1_545
P3 Pd0 2.784491 1_555
P3 Yb3 2.790164 1_555
P3 Yb1 2.867555 1_455
P3 Yb1 2.867555 1_555
Pd0 Pd1 2.970921 1_455
Pd0 Pd1 2.970921 1_555
Pd0 Yb0 2.973643 1_555
Pd0 Yb1 3.016061 1_455
Pd0 Yb1 3.016061 1_555
Pd0 Yb2 3.082113 1_455
Pd0 Yb2 3.082113 1_555
Pd0 Yb3 3.248260 1_565
Pd1 Yb1 2.973643 1_555
Pd1 Yb0 3.016061 1_555
Pd1 Yb0 3.016061 1_655
Pd1 Yb3 3.082113 1_555
Pd1 Yb3 3.082113 1_655
Pd1 Yb2 3.248260 1_545
Pd2 Pd3 2.970921 1_664
Pd2 Pd3 2.970921 1_564
Pd2 Yb2 2.973643 1_554
Pd2 Yb3 3.016061 1_565
Pd2 Yb3 3.016061 1_665
Pd2 Yb0 3.082113 1_655
Pd2 Yb0 3.082113 1_555
Pd2 Yb1 3.248260 1_554
Pd3 Yb3 2.973643 1_556
Pd3 Yb2 3.016061 1_445
Pd3 Yb2 3.016061 1_545
Pd3 Yb1 3.082113 1_455
Pd3 Yb1 3.082113 1_555
Pd3 Yb0 3.248260 1_556
