# generated using pymatgen
data_KPm
_symmetry_space_group_name_H-M   'P 1'
_cell_length_a   7.42012003
_cell_length_b   7.42009470
_cell_length_c   14.47776400
_cell_angle_alpha   89.99997085
_cell_angle_beta   90.00000000
_cell_angle_gamma   120.01055531
_symmetry_Int_Tables_number   1
_chemical_formula_structural   KPm
_chemical_formula_sum   'K8 Pm8'
_cell_volume   690.24981869
_cell_formula_units_Z   8
loop_
 _symmetry_equiv_pos_site_id
 _symmetry_equiv_pos_as_xyz
  1  'x, y, z'
loop_
 _atom_site_type_symbol
 _atom_site_label
 _atom_site_symmetry_multiplicity
 _atom_site_fract_x
 _atom_site_fract_y
 _atom_site_fract_z
 _atom_site_occupancy
  K  K0_0  1  0.33333550  0.16666600  0.37500050  1
  K  K0_1  1  0.33333550  0.16666600  0.87500050  1
  K  K0_2  1  0.33333550  0.66666600  0.37500050  1
  K  K0_3  1  0.33333550  0.66666600  0.87500050  1
  K  K0_4  1  0.83333550  0.16666600  0.37500050  1
  K  K0_5  1  0.83333550  0.16666600  0.87500050  1
  K  K0_6  1  0.83333550  0.66666600  0.37500050  1
  K  K0_7  1  0.83333550  0.66666600  0.87500050  1
  Pm  Pm0_0  1  0.16666500  0.33333400  0.12500000  1
  Pm  Pm0_1  1  0.16666500  0.33333400  0.62500000  1
  Pm  Pm0_2  1  0.16666500  0.83333400  0.12500000  1
  Pm  Pm0_3  1  0.16666500  0.83333400  0.62500000  1
  Pm  Pm0_4  1  0.66666500  0.33333400  0.12500000  1
  Pm  Pm0_5  1  0.66666500  0.33333400  0.62500000  1
  Pm  Pm0_6  1  0.66666500  0.83333400  0.12500000  1
  Pm  Pm0_7  1  0.66666500  0.83333400  0.62500000  1
loop_
_geom_bond_atom_site_label_1
_geom_bond_atom_site_label_2
_geom_bond_distance
_geom_bond_site_symmetry_2
K0_0 K0_6 3.709462 1_445
K0_0 K0_6 3.709462 1_555
K0_0 K0_2 3.710047 1_555
K0_0 K0_2 3.710047 1_545
K0_0 K0_4 3.710060 1_455
K0_0 K0_4 3.710060 1_555
K0_0 Pm0_5 4.205640 1_555
K0_0 Pm0_3 4.205643 1_545
K0_0 Pm0_4 4.205651 1_555
K0_0 Pm0_2 4.205657 1_545
K0_0 Pm0_1 4.205841 1_555
K0_0 Pm0_0 4.205853 1_555
K0_1 K0_7 3.709462 1_555
K0_1 K0_7 3.709462 1_445
K0_1 K0_3 3.710047 1_555
K0_1 K0_3 3.710047 1_545
K0_1 K0_5 3.710060 1_455
K0_1 K0_5 3.710060 1_555
K0_1 Pm0_4 4.205640 1_556
K0_1 Pm0_2 4.205643 1_546
K0_1 Pm0_5 4.205651 1_555
K0_1 Pm0_3 4.205657 1_545
K0_1 Pm0_0 4.205841 1_556
K0_1 Pm0_1 4.205853 1_555
K0_2 K0_4 3.709462 1_455
K0_2 K0_4 3.709462 1_565
K0_2 K0_6 3.710060 1_455
K0_2 K0_6 3.710060 1_555
K0_2 Pm0_7 4.205640 1_555
K0_2 Pm0_1 4.205643 1_555
K0_2 Pm0_6 4.205651 1_555
K0_2 Pm0_0 4.205657 1_555
K0_2 Pm0_3 4.205841 1_555
K0_2 Pm0_2 4.205853 1_555
K0_3 K0_5 3.709462 1_455
K0_3 K0_5 3.709462 1_565
K0_3 K0_7 3.710060 1_455
K0_3 K0_7 3.710060 1_555
K0_3 Pm0_6 4.205640 1_556
K0_3 Pm0_0 4.205643 1_556
K0_3 Pm0_7 4.205651 1_555
K0_3 Pm0_1 4.205657 1_555
K0_3 Pm0_2 4.205841 1_556
K0_3 Pm0_3 4.205853 1_555
K0_4 K0_6 3.710047 1_555
K0_4 K0_6 3.710047 1_545
K0_4 Pm0_1 4.205640 1_655
K0_4 Pm0_7 4.205643 1_545
K0_4 Pm0_0 4.205651 1_655
K0_4 Pm0_6 4.205657 1_545
K0_4 Pm0_5 4.205841 1_555
K0_4 Pm0_4 4.205853 1_555
K0_5 K0_7 3.710047 1_555
K0_5 K0_7 3.710047 1_545
K0_5 Pm0_0 4.205640 1_656
K0_5 Pm0_6 4.205643 1_546
K0_5 Pm0_1 4.205651 1_655
K0_5 Pm0_7 4.205657 1_545
K0_5 Pm0_4 4.205841 1_556
K0_5 Pm0_5 4.205853 1_555
K0_6 Pm0_3 4.205640 1_655
K0_6 Pm0_5 4.205643 1_555
K0_6 Pm0_2 4.205651 1_655
K0_6 Pm0_4 4.205657 1_555
K0_6 Pm0_7 4.205841 1_555
K0_6 Pm0_6 4.205853 1_555
K0_7 Pm0_2 4.205640 1_656
K0_7 Pm0_4 4.205643 1_556
K0_7 Pm0_3 4.205651 1_655
K0_7 Pm0_5 4.205657 1_555
K0_7 Pm0_6 4.205841 1_556
K0_7 Pm0_7 4.205853 1_555
Pm0_0 Pm0_6 3.709462 1_555
Pm0_0 Pm0_6 3.709462 1_445
Pm0_0 Pm0_2 3.710047 1_545
Pm0_0 Pm0_2 3.710047 1_555
Pm0_0 Pm0_4 3.710060 1_455
Pm0_0 Pm0_4 3.710060 1_555
Pm0_1 Pm0_7 3.709462 1_555
Pm0_1 Pm0_7 3.709462 1_445
Pm0_1 Pm0_3 3.710047 1_545
Pm0_1 Pm0_3 3.710047 1_555
Pm0_1 Pm0_5 3.710060 1_455
Pm0_1 Pm0_5 3.710060 1_555
Pm0_2 Pm0_4 3.709462 1_455
Pm0_2 Pm0_4 3.709462 1_565
Pm0_2 Pm0_6 3.710060 1_455
Pm0_2 Pm0_6 3.710060 1_555
Pm0_3 Pm0_5 3.709462 1_455
Pm0_3 Pm0_5 3.709462 1_565
Pm0_3 Pm0_7 3.710060 1_455
Pm0_3 Pm0_7 3.710060 1_555
Pm0_4 Pm0_6 3.710047 1_545
Pm0_4 Pm0_6 3.710047 1_555
Pm0_5 Pm0_7 3.710047 1_545
Pm0_5 Pm0_7 3.710047 1_555
