# generated using pymatgen
data_AgF3
_symmetry_space_group_name_H-M   'P 1'
_cell_length_a   5.02700069
_cell_length_b   5.02700213
_cell_length_c   15.27897044
_cell_angle_alpha   90.00000000
_cell_angle_beta   90.00000000
_cell_angle_gamma   120.00001021
_symmetry_Int_Tables_number   1
_chemical_formula_structural   AgF3
_chemical_formula_sum   'Ag6 F18'
_cell_volume   334.38184645
_cell_formula_units_Z   6
loop_
 _symmetry_equiv_pos_site_id
 _symmetry_equiv_pos_as_xyz
  1  'x, y, z'
loop_
 _atom_site_type_symbol
 _atom_site_label
 _atom_site_symmetry_multiplicity
 _atom_site_fract_x
 _atom_site_fract_y
 _atom_site_fract_z
 _atom_site_occupancy
  Ag  Ag0  1  0.71321373  0.42642645  0.75000000  1
  Ag  Ag1  1  0.28678627  0.71321373  0.91666700  1
  Ag  Ag2  1  0.42642645  0.71321373  0.58333300  1
  Ag  Ag3  1  0.57357355  0.28678627  0.08333300  1
  Ag  Ag4  1  0.71321373  0.28678627  0.41666700  1
  Ag  Ag5  1  0.28678627  0.57357355  0.25000000  1
  F  F0  1  0.88563058  0.55310385  0.16382181  1
  F  F1  1  0.44689615  0.33252773  0.49715481  1
  F  F2  1  0.66747227  0.11436942  0.83048781  1
  F  F3  1  0.33252773  0.88563058  0.33048781  1
  F  F4  1  0.11436942  0.66747227  0.50284519  1
  F  F5  1  0.11436942  0.44689615  0.66382181  1
  F  F6  1  0.24605151  0.00000000  -0.00000000  1
  F  F7  1  0.24605151  0.24605151  0.16666700  1
  F  F8  1  -0.00000000  0.75394849  0.83333300  1
  F  F9  1  0.00000000  0.24605151  0.33333300  1
  F  F10  1  0.75394849  0.75394849  0.66666700  1
  F  F11  1  0.75394849  -0.00000000  0.50000000  1
  F  F12  1  0.88563058  0.33252773  0.00284519  1
  F  F13  1  0.55310385  0.88563058  0.16951219  1
  F  F14  1  0.33252773  0.44689615  0.83617819  1
  F  F15  1  0.66747227  0.55310385  0.33617819  1
  F  F16  1  0.44689615  0.11436942  0.66951219  1
  F  F17  1  0.55310385  0.66747227  0.99715481  1
loop_
_geom_bond_atom_site_label_1
_geom_bond_atom_site_label_2
_geom_bond_distance
_geom_bond_site_symmetry_2
Ag0 F2 1.914511 1_555
Ag0 F16 1.914514 1_555
Ag0 F8 2.009162 1_655
Ag0 F10 2.009164 1_555
Ag0 F5 2.367177 1_655
Ag0 F14 2.367177 1_555
Ag1 F17 1.914518 1_555
Ag1 F14 1.914528 1_555
Ag1 F6 2.009160 1_566
Ag1 F8 2.009169 1_555
Ag1 F12 2.367177 1_456
Ag1 F2 2.367186 1_565
Ag2 F4 1.914511 1_555
Ag2 F5 1.914523 1_555
Ag2 F11 2.009162 1_565
Ag2 F10 2.009173 1_555
Ag2 F1 2.367178 1_555
Ag2 F16 2.367186 1_565
Ag3 F12 1.914511 1_555
Ag3 F0 1.914523 1_555
Ag3 F6 2.009162 1_555
Ag3 F7 2.009173 1_555
Ag3 F17 2.367178 1_554
Ag3 F13 2.367186 1_545
Ag4 F1 1.914518 1_555
Ag4 F15 1.914528 1_555
Ag4 F11 2.009160 1_555
Ag4 F9 2.009169 1_655
Ag4 F4 2.367177 1_655
Ag4 F3 2.367186 1_545
Ag5 F3 1.914511 1_555
Ag5 F13 1.914514 1_555
Ag5 F9 2.009162 1_555
Ag5 F7 2.009164 1_555
Ag5 F0 2.367177 1_455
Ag5 F15 2.367177 1_555
