# generated using pymatgen
data_Ca4Al6WO16
_symmetry_space_group_name_H-M   'P 1'
_cell_length_a   8.07808638
_cell_length_b   8.07808666
_cell_length_c   13.54921800
_cell_angle_alpha   90.00000000
_cell_angle_beta   90.00000000
_cell_angle_gamma   113.88478985
_symmetry_Int_Tables_number   1
_chemical_formula_structural   Ca4Al6WO16
_chemical_formula_sum   'Ca8 Al12 W2 O32'
_cell_volume   808.44252672
_cell_formula_units_Z   2
loop_
 _symmetry_equiv_pos_site_id
 _symmetry_equiv_pos_as_xyz
  1  'x, y, z'
loop_
 _atom_site_type_symbol
 _atom_site_label
 _atom_site_symmetry_multiplicity
 _atom_site_fract_x
 _atom_site_fract_y
 _atom_site_fract_z
 _atom_site_occupancy
  Ca  Ca0  1  0.41662600  0.91662600  0.04505600  1
  Ca  Ca1  1  0.83204100  0.76877900  0.25318500  1
  Ca  Ca2  1  0.33204100  0.26877900  0.74681500  1
  Ca  Ca3  1  0.91662600  0.41662600  0.95494400  1
  Ca  Ca4  1  0.26877900  0.33204100  0.25318500  1
  Ca  Ca5  1  0.47174300  0.97174300  0.48254400  1
  Ca  Ca6  1  0.97174300  0.47174300  0.51745600  1
  Ca  Ca7  1  0.76877900  0.83204100  0.74681500  1
  Al  Al0  1  0.61167400  0.35852300  0.12392600  1
  Al  Al1  1  0.35852300  0.61167400  0.87607400  1
  Al  Al2  1  0.11167400  0.85852300  0.87607400  1
  Al  Al3  1  0.73348200  0.73348200  0.00000000  1
  Al  Al4  1  0.13417500  0.88002100  0.63062300  1
  Al  Al5  1  0.75803000  0.75803000  0.50000000  1
  Al  Al6  1  0.63417500  0.38002100  0.36937700  1
  Al  Al7  1  0.23348200  0.23348200  0.00000000  1
  Al  Al8  1  0.85852300  0.11167400  0.12392600  1
  Al  Al9  1  0.88002100  0.13417500  0.36937700  1
  Al  Al10  1  0.38002100  0.63417500  0.63062300  1
  Al  Al11  1  0.25803000  0.25803000  0.50000000  1
  W  W0  1  0.75507100  0.25507100  0.72997700  1
  W  W1  1  0.25507100  0.75507100  0.27002300  1
  O  O0  1  0.90404700  0.78745800  0.60200800  1
  O  O1  1  0.77430700  0.57466400  0.43367200  1
  O  O2  1  0.57466400  0.77430700  0.56632800  1
  O  O3  1  0.21057400  0.71057400  0.60367500  1
  O  O4  1  0.78745800  0.90404700  0.39799200  1
  O  O5  1  0.17280600  0.67280600  0.90013100  1
  O  O6  1  0.84451300  0.13362000  0.81534300  1
  O  O7  1  0.34451300  0.63362000  0.18465700  1
  O  O8  1  0.87672100  0.77774200  0.89475200  1
  O  O9  1  0.27430700  0.07466400  0.56632800  1
  O  O10  1  0.28745800  0.40404700  0.60200800  1
  O  O11  1  0.40404700  0.28745800  0.39799200  1
  O  O12  1  0.34233100  0.67582600  0.38539000  1
  O  O13  1  0.27774200  0.37672100  0.89475200  1
  O  O14  1  0.67280600  0.17280600  0.09986900  1
  O  O15  1  0.77774200  0.87672100  0.10524800  1
  O  O16  1  0.64717000  0.45097500  0.24480000  1
  O  O17  1  0.14717000  0.95097500  0.75520000  1
  O  O18  1  0.63362000  0.34451300  0.81534300  1
  O  O19  1  0.53078700  0.74529400  0.95646200  1
  O  O20  1  0.84233100  0.17582600  0.61461000  1
  O  O21  1  0.67582600  0.34233100  0.61461000  1
  O  O22  1  0.37672100  0.27774200  0.10524800  1
  O  O23  1  0.24529400  0.03078700  0.95646200  1
  O  O24  1  0.45097500  0.64717000  0.75520000  1
  O  O25  1  0.03078700  0.24529400  0.04353800  1
  O  O26  1  0.95097500  0.14717000  0.24480000  1
  O  O27  1  0.17582600  0.84233100  0.38539000  1
  O  O28  1  0.13362000  0.84451300  0.18465700  1
  O  O29  1  0.07466400  0.27430700  0.43367200  1
  O  O30  1  0.71057400  0.21057400  0.39632500  1
  O  O31  1  0.74529400  0.53078700  0.04353800  1
loop_
_geom_bond_atom_site_label_1
_geom_bond_atom_site_label_2
_geom_bond_distance
_geom_bond_site_symmetry_2
Ca0 O23 2.289217 1_564
Ca0 O19 2.289217 1_554
Ca0 O14 2.376704 1_565
Ca0 O28 2.839907 1_555
Ca0 O7 2.839907 1_555
Ca0 O5 2.910839 1_554
Ca1 O15 2.297866 1_555
Ca1 O4 2.343485 1_555
Ca1 O16 2.393577 1_555
Ca1 O28 2.442219 1_655
Ca1 O26 2.810885 1_565
Ca1 O1 2.839792 1_555
Ca2 O13 2.297866 1_555
Ca2 O10 2.343485 1_555
Ca2 O17 2.393577 1_545
Ca2 O18 2.442219 1_555
Ca2 O24 2.810885 1_555
Ca2 O9 2.839792 1_555
Ca3 O31 2.289217 1_556
Ca3 O25 2.289217 1_656
Ca3 O5 2.376704 1_655
Ca3 O18 2.839907 1_555
Ca3 O6 2.839907 1_555
Ca3 O14 2.910839 1_556
Ca4 O22 2.297866 1_555
Ca4 O11 2.343485 1_555
Ca4 O26 2.393577 1_455
Ca4 O7 2.442219 1_555
Ca4 O16 2.810885 1_555
Ca4 O29 2.839792 1_555
Ca5 O9 2.365894 1_565
Ca5 O2 2.365894 1_555
Ca5 O30 2.407249 1_565
Ca5 O27 2.552690 1_555
Ca5 O12 2.552690 1_555
Ca5 O3 2.826882 1_555
Ca5 O4 3.040607 1_555
Ca5 O11 3.040607 1_565
Ca6 O1 2.365894 1_555
Ca6 O29 2.365894 1_655
Ca6 O3 2.407249 1_655
Ca6 O21 2.552690 1_555
Ca6 O20 2.552690 1_555
Ca6 O30 2.826882 1_555
Ca6 O10 3.040607 1_655
Ca6 O0 3.040607 1_555
Ca7 O8 2.297866 1_555
Ca7 O0 2.343485 1_555
Ca7 O24 2.393577 1_555
Ca7 O6 2.442219 1_565
Ca7 O17 2.810885 1_655
Ca7 O2 2.839792 1_555
Al0 O31 1.752579 1_555
Al0 O22 1.757614 1_555
Al0 O16 1.774482 1_555
Al0 O14 1.789071 1_555
Al1 O19 1.752579 1_555
Al1 O13 1.757614 1_555
Al1 O24 1.774482 1_555
Al1 O5 1.789071 1_555
Al2 O23 1.752579 1_565
Al2 O8 1.757614 1_455
Al2 O17 1.774482 1_555
Al2 O5 1.789071 1_555
Al3 O19 1.778947 1_554
Al3 O31 1.778947 1_555
Al3 O8 1.779114 1_554
Al3 O15 1.779114 1_555
Al4 O0 1.743456 1_455
Al4 O9 1.752492 1_565
Al4 O3 1.752691 1_555
Al4 O17 1.771976 1_555
Al5 O0 1.769472 1_555
Al5 O4 1.769472 1_555
Al5 O2 1.782343 1_555
Al5 O1 1.782343 1_555
Al6 O11 1.743456 1_555
Al6 O1 1.752492 1_555
Al6 O30 1.752691 1_555
Al6 O16 1.771976 1_555
Al7 O25 1.778947 1_555
Al7 O23 1.778947 1_554
Al7 O22 1.779114 1_555
Al7 O13 1.779114 1_554
Al8 O25 1.752579 1_655
Al8 O15 1.757614 1_545
Al8 O26 1.774482 1_555
Al8 O14 1.789071 1_555
Al9 O4 1.743456 1_545
Al9 O29 1.752492 1_655
Al9 O30 1.752691 1_555
Al9 O26 1.771976 1_555
Al10 O10 1.743456 1_555
Al10 O2 1.752492 1_555
Al10 O3 1.752691 1_555
Al10 O24 1.771976 1_555
Al11 O11 1.769472 1_555
Al11 O10 1.769472 1_555
Al11 O29 1.782343 1_555
Al11 O9 1.782343 1_555
O6 W0 1.842941 1_555
O7 W1 1.842941 1_555
O12 W1 1.927552 1_555
O18 W0 1.842941 1_555
O20 W0 1.927552 1_555
O21 W0 1.927552 1_555
O27 W1 1.927552 1_555
O28 W1 1.842941 1_555
