# generated using pymatgen
data_K3Pu(H3O4)2
_symmetry_space_group_name_H-M   'P 1'
_cell_length_a   8.29564622
_cell_length_b   7.66603812
_cell_length_c   7.78862085
_cell_angle_alpha   60.34560129
_cell_angle_beta   90.00000000
_cell_angle_gamma   90.00000000
_symmetry_Int_Tables_number   1
_chemical_formula_structural   K3Pu(H3O4)2
_chemical_formula_sum   'K6 Pu2 H12 O16'
_cell_volume   430.44167819
_cell_formula_units_Z   2
loop_
 _symmetry_equiv_pos_site_id
 _symmetry_equiv_pos_as_xyz
  1  'x, y, z'
loop_
 _atom_site_type_symbol
 _atom_site_label
 _atom_site_symmetry_multiplicity
 _atom_site_fract_x
 _atom_site_fract_y
 _atom_site_fract_z
 _atom_site_occupancy
  K  K0  1  0.00000000  0.50000000  0.50000000  1
  K  K1  1  0.50000000  -0.00000000  0.50000000  1
  K  K2  1  0.19468562  0.45481447  0.08621879  1
  K  K3  1  0.69468562  0.04518553  0.91378121  1
  K  K4  1  0.80531438  0.54518553  0.91378121  1
  K  K5  1  0.30531438  0.95481447  0.08621879  1
  Pu  Pu0  1  0.00000000  -0.00000000  0.50000000  1
  Pu  Pu1  1  0.50000000  0.50000000  0.50000000  1
  H  H0  1  0.21604102  0.14218524  0.68972427  1
  H  H1  1  0.71604102  0.35781476  0.31027573  1
  H  H2  1  0.78395898  0.85781476  0.31027573  1
  H  H3  1  0.28395898  0.64218524  0.68972427  1
  H  H4  1  0.03946803  0.18336051  0.86237939  1
  H  H5  1  0.53946803  0.31663949  0.13762061  1
  H  H6  1  0.96053197  0.81663949  0.13762061  1
  H  H7  1  0.46053197  0.68336051  0.86237939  1
  H  H8  1  0.96162342  0.12601582  0.07184739  1
  H  H9  1  0.46162342  0.37398418  0.92815261  1
  H  H10  1  0.03837658  0.87398418  0.92815261  1
  H  H11  1  0.53837658  0.62601582  0.07184739  1
  O  O0  1  0.10419458  0.09658082  0.72230415  1
  O  O1  1  0.60419458  0.40341918  0.27769585  1
  O  O2  1  0.89580542  0.90341918  0.27769585  1
  O  O3  1  0.39580542  0.59658082  0.72230415  1
  O  O4  1  0.19552488  0.05723604  0.36491848  1
  O  O5  1  0.69552488  0.44276396  0.63508152  1
  O  O6  1  0.80447512  0.94276396  0.63508152  1
  O  O7  1  0.30447512  0.55723604  0.36491848  1
  O  O8  1  0.93166882  0.26768733  0.32887356  1
  O  O9  1  0.43166882  0.23231267  0.67112644  1
  O  O10  1  0.06833118  0.73231267  0.67112644  1
  O  O11  1  0.56833118  0.76768733  0.32887356  1
  O  O12  1  0.00181330  0.23991158  0.94721732  1
  O  O13  1  0.50181330  0.26008842  0.05278268  1
  O  O14  1  0.99818670  0.76008842  0.05278268  1
  O  O15  1  0.49818670  0.73991158  0.94721732  1
loop_
_geom_bond_atom_site_label_1
_geom_bond_atom_site_label_2
_geom_bond_distance
_geom_bond_site_symmetry_2
K0 O7 2.687450 1_555
K0 O5 2.687450 1_455
K0 O8 2.760124 1_455
K0 O10 2.760124 1_555
K0 O0 2.830316 1_555
K0 O2 2.830316 1_455
K1 O4 2.687450 1_555
K1 O6 2.687450 1_545
K1 O11 2.760124 1_545
K1 O9 2.760124 1_555
K1 O3 2.830316 1_545
K1 O1 2.830316 1_555
K2 O4 2.730318 1_555
K2 O14 2.756567 1_455
K2 O8 2.776260 1_455
K2 O7 2.800784 1_555
K2 O12 2.865503 1_554
K2 O10 3.044802 1_554
K3 O5 2.730318 1_555
K3 O15 2.756567 1_545
K3 O9 2.776260 1_555
K3 O6 2.800784 1_545
K3 O13 2.865503 1_556
K3 O11 3.044802 1_546
K4 O6 2.730318 1_555
K4 O12 2.756567 1_655
K4 O10 2.776260 1_655
K4 O5 2.800784 1_555
K4 O14 2.865503 1_556
K4 O8 3.044802 1_556
K5 O7 2.730318 1_555
K5 O13 2.756567 1_565
K5 O11 2.776260 1_555
K5 O4 2.800784 1_565
K5 O15 2.865503 1_554
K5 O9 3.044802 1_564
H0 O0 0.979650 1_555
H0 K5 2.785491 1_546
H1 O1 0.979650 1_555
H1 K4 2.785491 1_554
H2 O2 0.979650 1_555
H2 K3 2.785491 1_564
H3 O3 0.979650 1_555
H3 K2 2.785491 1_556
H4 O12 1.002794 1_555
H4 K0 2.680685 1_555
H4 K5 2.819610 1_546
H5 O13 1.002794 1_555
H5 K1 2.680685 1_555
H5 K4 2.819610 1_554
H6 O14 1.002794 1_555
H6 K0 2.680685 1_655
H6 K3 2.819610 1_564
H7 O15 1.002794 1_555
H7 K1 2.680685 1_565
H7 K2 2.819610 1_556
H8 O12 0.988478 1_654
H8 K3 2.749209 1_554
H9 O13 0.988478 1_556
H9 K2 2.749209 1_556
H10 O14 0.988478 1_456
H10 K5 2.749209 1_556
H11 O15 0.988478 1_554
H11 K4 2.749209 1_554
O0 Pu0 2.358331 1_555
O1 Pu1 2.358331 1_555
O2 Pu0 2.358331 1_665
O3 Pu1 2.358331 1_555
O4 Pu0 1.863742 1_555
O5 Pu1 1.863742 1_555
O6 Pu0 1.863742 1_665
O7 Pu1 1.863742 1_555
O8 Pu0 1.898000 1_655
O9 Pu1 1.898000 1_555
O10 Pu0 1.898000 1_565
O11 Pu1 1.898000 1_555
