# generated using pymatgen
data_Li4Co3NiO8
_symmetry_space_group_name_H-M   'P 1'
_cell_length_a   5.82200013
_cell_length_b   10.23037614
_cell_length_c   5.86302254
_cell_angle_alpha   73.58274774
_cell_angle_beta   60.34649934
_cell_angle_gamma   73.49113656
_symmetry_Int_Tables_number   1
_chemical_formula_structural   Li4Co3NiO8
_chemical_formula_sum   'Li8 Co6 Ni2 O16'
_cell_volume   286.70472119
_cell_formula_units_Z   2
loop_
 _symmetry_equiv_pos_site_id
 _symmetry_equiv_pos_as_xyz
  1  'x, y, z'
loop_
 _atom_site_type_symbol
 _atom_site_label
 _atom_site_symmetry_multiplicity
 _atom_site_fract_x
 _atom_site_fract_y
 _atom_site_fract_z
 _atom_site_occupancy
  Li  Li0  1  0.75241200  0.74939800  0.74707400  1
  Li  Li1  1  0.24762400  0.25072500  0.25280600  1
  Li  Li2  1  0.24521500  0.75077900  0.25333300  1
  Li  Li3  1  0.75509400  0.24922500  0.74672700  1
  Li  Li4  1  0.25015700  0.75577900  0.74604200  1
  Li  Li5  1  0.75013100  0.24426100  0.25354200  1
  Li  Li6  1  0.75135300  0.75064300  0.25185800  1
  Li  Li7  1  0.24839800  0.24935300  0.74827300  1
  Co  Co0  1  0.49995000  0.50004200  0.99992300  1
  Co  Co1  1  0.00001400  0.00005200  0.49998100  1
  Co  Co2  1  0.99981500  0.50001900  0.49998500  1
  Co  Co3  1  0.50004700  0.00005700  0.99997500  1
  Co  Co4  1  0.50002800  0.00006400  0.50000600  1
  Co  Co5  1  0.99993500  0.50002900  0.00003100  1
  Ni  Ni0  1  0.49971100  0.49970700  0.50029500  1
  Ni  Ni1  1  0.00040900  0.99969900  0.00014000  1
  O  O0  1  0.11997600  0.61353200  0.14671500  1
  O  O1  1  0.62849000  0.12010400  0.62606600  1
  O  O2  1  0.37156800  0.88002800  0.37390300  1
  O  O3  1  0.87991600  0.38652800  0.85328300  1
  O  O4  1  0.87394800  0.88370600  0.86100300  1
  O  O5  1  0.34797500  0.38985500  0.37724700  1
  O  O6  1  0.11550300  0.61008400  0.62173000  1
  O  O7  1  0.61964900  0.11584400  0.11973100  1
  O  O8  1  0.63748300  0.60906300  0.11645500  1
  O  O9  1  0.14410300  0.11391800  0.61299800  1
  O  O10  1  0.85593600  0.88612000  0.38708800  1
  O  O11  1  0.36231500  0.39092600  0.88366200  1
  O  O12  1  0.38056000  0.88417800  0.88025700  1
  O  O13  1  0.88435300  0.38994500  0.37825600  1
  O  O14  1  0.65179200  0.61005300  0.62267700  1
  O  O15  1  0.12615200  0.11628100  0.13894300  1
loop_
_geom_bond_atom_site_label_1
_geom_bond_atom_site_label_2
_geom_bond_distance
_geom_bond_site_symmetry_2
Li0 O10 2.079898 1_555
Li0 O4 2.091367 1_555
Li0 O6 2.093461 1_655
Li0 O14 2.095807 1_555
Li0 O12 2.106464 1_555
Li0 O8 2.133925 1_556
Li1 O9 2.081128 1_555
Li1 O15 2.092026 1_555
Li1 O5 2.093085 1_555
Li1 O13 2.093688 1_455
Li1 O7 2.107580 1_555
Li1 O11 2.132340 1_554
Li2 O2 2.094034 1_555
Li2 O0 2.103056 1_555
Li2 O12 2.118059 1_554
Li2 O6 2.133945 1_555
Li2 O10 2.177209 1_455
Li2 O8 2.219014 1_555
Li3 O1 2.094340 1_555
Li3 O3 2.101646 1_555
Li3 O7 2.117719 1_556
Li3 O13 2.134234 1_555
Li3 O9 2.175980 1_655
Li3 O11 2.220933 1_555
Li4 O2 2.071897 1_555
Li4 O4 2.091212 1_455
Li4 O12 2.159467 1_555
Li4 O0 2.267897 1_556
Li4 O14 2.273376 1_555
Li4 O6 2.282757 1_555
Li5 O1 2.073107 1_555
Li5 O15 2.090703 1_655
Li5 O7 2.158259 1_555
Li5 O3 2.266306 1_554
Li5 O5 2.274832 1_555
Li5 O13 2.282524 1_555
Li6 O0 2.102909 1_655
Li6 O2 2.111766 1_555
Li6 O10 2.121028 1_555
Li6 O14 2.142592 1_555
Li6 O4 2.187311 1_554
Li6 O8 2.210003 1_555
Li7 O3 2.102665 1_455
Li7 O1 2.112427 1_555
Li7 O9 2.119749 1_555
Li7 O5 2.143013 1_555
Li7 O15 2.186610 1_556
Li7 O11 2.210068 1_555
Co0 O8 1.957429 1_556
Co0 O11 1.957502 1_555
Co0 O14 2.040538 1_555
Co0 O5 2.041570 1_556
Co0 O0 2.050306 1_556
Co0 O3 2.050325 1_555
Co1 O15 1.992297 1_555
Co1 O4 1.992705 1_445
Co1 O10 2.010324 1_445
Co1 O9 2.010346 1_555
Co1 O1 2.038314 1_455
Co1 O2 2.038322 1_545
Co2 O13 1.894357 1_555
Co2 O6 1.895285 1_655
Co2 O14 1.899814 1_555
Co2 O5 1.900913 1_655
Co2 O0 1.948409 1_655
Co2 O3 1.948434 1_555
Co3 O7 1.950303 1_556
Co3 O12 1.950435 1_545
Co3 O15 2.034151 1_556
Co3 O4 2.034688 1_545
Co3 O1 2.061873 1_555
Co3 O2 2.061880 1_546
Co4 O9 1.948236 1_555
Co4 O10 1.948532 1_545
Co4 O1 2.048355 1_555
Co4 O2 2.048493 1_545
Co4 O7 2.073291 1_555
Co4 O12 2.073610 1_545
Co5 O11 1.957107 1_654
Co5 O8 1.957156 1_555
Co5 O13 2.044772 1_555
Co5 O6 2.045018 1_654
Co5 O0 2.048614 1_655
Co5 O3 2.048788 1_554
Ni0 O5 2.053539 1_555
Ni0 O13 2.056031 1_555
Ni0 O14 2.056149 1_555
Ni0 O6 2.056354 1_555
Ni0 O11 2.059939 1_555
Ni0 O8 2.064031 1_555
Ni1 O12 2.057391 1_554
Ni1 O7 2.062412 1_465
Ni1 O4 2.062454 1_454
Ni1 O15 2.062784 1_565
Ni1 O10 2.093252 1_455
Ni1 O9 2.096360 1_564
