# generated using pymatgen
data_VPPb3O8
_symmetry_space_group_name_H-M   'P 1'
_cell_length_a   7.63594475
_cell_length_b   7.63594475
_cell_length_c   7.63594485
_cell_angle_alpha   43.51928962
_cell_angle_beta   43.51928962
_cell_angle_gamma   43.51929030
_symmetry_Int_Tables_number   1
_chemical_formula_structural   VPPb3O8
_chemical_formula_sum   'V1 P1 Pb3 O8'
_cell_volume   191.55968632
_cell_formula_units_Z   1
loop_
 _symmetry_equiv_pos_site_id
 _symmetry_equiv_pos_as_xyz
  1  'x, y, z'
loop_
 _atom_site_type_symbol
 _atom_site_label
 _atom_site_symmetry_multiplicity
 _atom_site_fract_x
 _atom_site_fract_y
 _atom_site_fract_z
 _atom_site_occupancy
  V  V0  1  0.40320400  0.40320400  0.40320400  1
  P  P0  1  0.59820700  0.59820700  0.59820700  1
  Pb  Pb0  1  0.78622100  0.78622100  0.78622100  1
  Pb  Pb1  1  0.20699400  0.20699400  0.20699400  1
  Pb  Pb2  1  0.99593500  0.99593500  0.99593500  1
  O  O0  1  0.67374900  0.67374900  0.67374900  1
  O  O1  1  0.31968000  0.31968000  0.31968000  1
  O  O2  1  0.72370900  0.27204800  0.72370900  1
  O  O3  1  0.72370900  0.72370900  0.27204800  1
  O  O4  1  0.27204800  0.72370900  0.72370900  1
  O  O5  1  0.26536600  0.76581300  0.26536600  1
  O  O6  1  0.26536600  0.26536600  0.76581300  1
  O  O7  1  0.76581300  0.26536600  0.26536600  1
loop_
_geom_bond_atom_site_label_1
_geom_bond_atom_site_label_2
_geom_bond_distance
_geom_bond_site_symmetry_2
O0 P0 1.563940 1_555
O0 Pb0 2.328499 1_555
O1 V0 1.729191 1_555
O1 Pb1 2.332930 1_555
O2 P0 1.564781 1_555
O2 Pb2 2.577139 1_545
O3 P0 1.564781 1_555
O3 Pb2 2.577139 1_554
O4 P0 1.564781 1_555
O4 Pb2 2.577139 1_455
O5 V0 1.742336 1_555
O5 Pb2 2.684355 1_454
O6 V0 1.742336 1_555
O6 Pb2 2.684355 1_445
O7 V0 1.742336 1_555
O7 Pb2 2.684355 1_544
