# generated using pymatgen
data_Cd(CO)6
_symmetry_space_group_name_H-M   'P 1'
_cell_length_a   9.68967752
_cell_length_b   9.68967752
_cell_length_c   27.16911290
_cell_angle_alpha   87.25879278
_cell_angle_beta   87.25879278
_cell_angle_gamma   122.26360747
_symmetry_Int_Tables_number   1
_chemical_formula_structural   Cd(CO)6
_chemical_formula_sum   'Cd2 C12 O12'
_cell_volume   2146.43801281
_cell_formula_units_Z   2
loop_
 _symmetry_equiv_pos_site_id
 _symmetry_equiv_pos_as_xyz
  1  'x, y, z'
loop_
 _atom_site_type_symbol
 _atom_site_label
 _atom_site_symmetry_multiplicity
 _atom_site_fract_x
 _atom_site_fract_y
 _atom_site_fract_z
 _atom_site_occupancy
  Cd  Cd0  1  0.00000000  0.50000000  0.00000000  1
  Cd  Cd1  1  0.50000000  0.00000000  0.50000000  1
  C  C0  1  0.97966700  0.56029000  0.25410400  1
  C  C1  1  0.02033300  0.43971000  0.74589600  1
  C  C2  1  0.17859800  0.44390600  0.99973900  1
  C  C3  1  0.43971000  0.02033300  0.24589600  1
  C  C4  1  0.82140200  0.55609400  0.00026100  1
  C  C5  1  0.56029000  0.97966700  0.75410400  1
  C  C6  1  0.66568700  0.43972900  0.00016000  1
  C  C7  1  0.55609400  0.82140200  0.50026100  1
  C  C8  1  0.33431300  0.56027100  0.99984000  1
  C  C9  1  0.44390600  0.17859800  0.49973900  1
  C  C10  1  0.56027100  0.33431300  0.49984000  1
  C  C11  1  0.43972900  0.66568700  0.50016000  1
  O  O0  1  0.95553400  0.17720900  0.24870600  1
  O  O1  1  0.04446600  0.82279100  0.75129400  1
  O  O2  1  0.52201600  0.34610100  0.00018200  1
  O  O3  1  0.82279100  0.04446600  0.25129400  1
  O  O4  1  0.47798400  0.65389900  0.99981800  1
  O  O5  1  0.17720900  0.95553400  0.74870600  1
  O  O6  1  0.85221500  0.53301000  0.26633600  1
  O  O7  1  0.65389900  0.47798400  0.49981800  1
  O  O8  1  0.14778500  0.46699000  0.73366400  1
  O  O9  1  0.34610100  0.52201600  0.50018200  1
  O  O10  1  0.46699000  0.14778500  0.23366400  1
  O  O11  1  0.53301000  0.85221500  0.76633600  1
loop_
_geom_bond_atom_site_label_1
_geom_bond_atom_site_label_2
_geom_bond_distance
_geom_bond_site_symmetry_2
C0 O6 1.144239 1_555
C1 O8 1.144239 1_555
C2 C8 1.316163 1_555
C2 Cd0 2.072132 1_556
C3 O10 1.144239 1_555
C4 C6 1.316163 1_555
C4 Cd0 2.072132 1_655
C5 O11 1.144239 1_555
C7 Cd1 2.072132 1_565
C9 Cd1 2.072132 1_555
C10 C9 1.316163 1_555
C11 C7 1.316163 1_555
O0 O3 1.236996 1_555
O1 O5 1.236996 1_555
