# generated using pymatgen
data_LiNi9O13
_symmetry_space_group_name_H-M   'P 1'
_cell_length_a   2.94446699
_cell_length_b   5.45578029
_cell_length_c   16.48056788
_cell_angle_alpha   109.36918918
_cell_angle_beta   85.92696734
_cell_angle_gamma   112.52385300
_symmetry_Int_Tables_number   1
_chemical_formula_structural   LiNi9O13
_chemical_formula_sum   'Li1 Ni9 O13'
_cell_volume   230.23608252
_cell_formula_units_Z   1
loop_
 _symmetry_equiv_pos_site_id
 _symmetry_equiv_pos_as_xyz
  1  'x, y, z'
loop_
 _atom_site_type_symbol
 _atom_site_label
 _atom_site_symmetry_multiplicity
 _atom_site_fract_x
 _atom_site_fract_y
 _atom_site_fract_z
 _atom_site_occupancy
  Li  Li0  1  0.74867800  0.71164700  0.02983100  1
  Ni  Ni0  1  0.58007600  0.01991600  0.50637400  1
  Ni  Ni1  1  0.59004900  0.21460400  0.04379200  1
  Ni  Ni2  1  0.02212900  0.63795600  0.86627900  1
  Ni  Ni3  1  0.80368400  0.47868000  0.41412300  1
  Ni  Ni4  1  0.34151700  0.57278400  0.58807100  1
  Ni  Ni5  1  0.54914600  0.84310600  0.18327600  1
  Ni  Ni6  1  0.11803600  0.16429900  0.87788500  1
  Ni  Ni7  1  0.04756800  0.94297000  0.34478200  1
  Ni  Ni8  1  0.13307500  0.14781100  0.67812300  1
  O  O0  1  0.94710100  0.97001900  0.96383900  1
  O  O1  1  0.92211800  0.70203300  0.23277700  1
  O  O2  1  0.33453200  0.38891500  0.80363100  1
  O  O3  1  0.27666300  0.47771500  0.08955800  1
  O  O4  1  0.79577500  0.39922700  0.93966600  1
  O  O5  1  0.20286900  0.97597000  0.12720000  1
  O  O6  1  0.42722400  0.92233200  0.82013800  1
  O  O7  1  0.66745600  0.13863900  0.31000200  1
  O  O8  1  0.46771800  0.90698700  0.68971900  1
  O  O9  1  0.45724800  0.72764900  0.39039900  1
  O  O10  1  0.73415700  0.32078900  0.62172500  1
  O  O11  1  0.21539500  0.23435900  0.46234700  1
  O  O12  1  0.95111900  0.76409500  0.53729700  1
loop_
_geom_bond_atom_site_label_1
_geom_bond_atom_site_label_2
_geom_bond_distance
_geom_bond_site_symmetry_2
Li0 O4 1.898530 1_554
Li0 O5 1.932747 1_655
Li0 O0 1.951127 1_554
Li0 O3 1.951774 1_555
Ni0 O9 1.990321 1_545
Ni0 O12 1.998713 1_445
Ni0 O10 1.999099 1_555
Ni0 O11 2.021930 1_655
Ni0 O11 2.164383 1_555
Ni0 O12 2.262841 1_545
Ni1 O3 1.918004 1_555
Ni1 O3 1.997958 1_655
Ni1 O0 2.081801 1_544
Ni1 O0 2.086506 1_444
Ni1 O5 2.170624 1_545
Ni1 O4 2.204036 1_554
Ni2 O6 1.908936 1_555
Ni2 O2 1.910591 1_555
Ni2 O4 1.966901 1_455
Ni2 O0 2.059158 1_455
Ni2 O2 2.066407 1_455
Ni3 O9 1.985940 1_655
Ni3 O7 1.990787 1_555
Ni3 O11 2.036442 1_555
Ni3 O12 2.060239 1_555
Ni3 O9 2.123421 1_555
Ni3 O11 2.440409 1_655
Ni4 O8 1.952504 1_555
Ni4 O10 1.969057 1_455
Ni4 O12 1.985472 1_555
Ni4 O12 2.178576 1_455
Ni4 O11 2.210560 1_555
Ni4 O10 2.312792 1_555
Ni5 O5 1.887740 1_555
Ni5 O1 1.911885 1_555
Ni5 O1 1.944338 1_455
Ni5 O3 1.977784 1_555
Ni5 O5 2.051171 1_655
Ni5 O7 2.126581 1_565
Ni6 O6 1.855155 1_545
Ni6 O4 1.873174 1_455
Ni6 O2 1.921218 1_555
Ni6 O0 1.967088 1_445
Ni6 O4 2.031070 1_555
Ni6 O6 2.042133 1_445
Ni7 O1 1.840409 1_455
Ni7 O7 1.887886 1_565
Ni7 O9 1.949942 1_455
Ni7 O11 2.004141 1_565
Ni7 O7 2.033035 1_465
Ni7 O9 2.280497 1_555
Ni8 O8 1.934492 1_445
Ni8 O8 1.979616 1_545
Ni8 O10 1.988833 1_555
Ni8 O2 2.032822 1_555
Ni8 O10 2.172653 1_455
Ni8 O12 2.480063 1_445
