# generated using pymatgen
data_Li2Fe2C4Cl2O13
_symmetry_space_group_name_H-M   'P 1'
_cell_length_a   13.92157972
_cell_length_b   12.58199329
_cell_length_c   8.39036058
_cell_angle_alpha   80.48706507
_cell_angle_beta   63.04310460
_cell_angle_gamma   36.46983033
_symmetry_Int_Tables_number   1
_chemical_formula_structural   Li2Fe2C4Cl2O13
_chemical_formula_sum   'Li4 Fe4 C8 Cl4 O26'
_cell_volume   721.47674123
_cell_formula_units_Z   2
loop_
 _symmetry_equiv_pos_site_id
 _symmetry_equiv_pos_as_xyz
  1  'x, y, z'
loop_
 _atom_site_type_symbol
 _atom_site_label
 _atom_site_symmetry_multiplicity
 _atom_site_fract_x
 _atom_site_fract_y
 _atom_site_fract_z
 _atom_site_occupancy
  Li  Li0  1  0.09030900  0.27838000  0.23054600  1
  Li  Li1  1  0.40076400  0.23054600  0.27838000  1
  Li  Li2  1  0.01945400  0.84923600  0.15969100  1
  Li  Li3  1  0.97162000  0.15969100  0.84923600  1
  Fe  Fe0  1  0.51559700  0.88686600  0.14488000  1
  Fe  Fe1  1  0.45265700  0.14488000  0.88686600  1
  Fe  Fe2  1  0.10512000  0.79734300  0.73440300  1
  Fe  Fe3  1  0.36313400  0.73440300  0.79734300  1
  C  C0  1  0.50536600  0.71024600  0.40910400  1
  C  C1  1  0.37528300  0.40910400  0.71024600  1
  C  C2  1  0.84089600  0.87471700  0.74463400  1
  C  C3  1  0.53975400  0.74463400  0.87471700  1
  C  C4  1  0.35182100  0.91928900  0.53409900  1
  C  C5  1  0.19479100  0.53409900  0.91928900  1
  C  C6  1  0.71590100  0.05520900  0.89817900  1
  C  C7  1  0.33071100  0.89817900  0.05520900  1
  Cl  Cl0  1  0.76122000  0.76180600  0.12450300  1
  Cl  Cl1  1  0.35247200  0.12450300  0.76180600  1
  Cl  Cl2  1  0.12549700  0.89752800  0.48878000  1
  Cl  Cl3  1  0.48819400  0.48878000  0.89752800  1
  O  O0  1  0.36776400  0.13223600  0.13223600  1
  O  O1  1  0.11776400  0.88223600  0.88223600  1
  O  O2  1  0.59404400  0.66325800  0.22936900  1
  O  O3  1  0.51332900  0.22936900  0.66325800  1
  O  O4  1  0.02063100  0.73667100  0.65595600  1
  O  O5  1  0.58674200  0.65595600  0.73667100  1
  O  O6  1  0.33846200  0.01828200  0.44446600  1
  O  O7  1  0.19879000  0.44446600  0.01828200  1
  O  O8  1  0.80553400  0.05121000  0.91153800  1
  O  O9  1  0.23171800  0.91153800  0.05121000  1
  O  O10  1  0.25054200  0.97435800  0.71363700  1
  O  O11  1  0.06146400  0.71363700  0.97435800  1
  O  O12  1  0.53636300  0.18853600  0.99945800  1
  O  O13  1  0.27564200  0.99945800  0.18853600  1
  O  O14  1  0.52415100  0.60911200  0.50103300  1
  O  O15  1  0.36570400  0.50103300  0.60911200  1
  O  O16  1  0.74896700  0.88429600  0.72584900  1
  O  O17  1  0.64088800  0.72584900  0.88429600  1
  O  O18  1  0.94691600  0.30749500  0.14538600  1
  O  O19  1  0.60020300  0.14538600  0.30749500  1
  O  O20  1  0.10461400  0.64979700  0.30308400  1
  O  O21  1  0.94250500  0.30308400  0.64979700  1
  O  O22  1  0.89995800  0.20256800  0.28990100  1
  O  O23  1  0.60757300  0.28990100  0.20256800  1
  O  O24  1  0.96009900  0.64242700  0.35004200  1
  O  O25  1  0.04743200  0.35004200  0.64242700  1
loop_
_geom_bond_atom_site_label_1
_geom_bond_atom_site_label_2
_geom_bond_distance
_geom_bond_site_symmetry_2
Li0 O13 2.029403 1_545
Li0 O18 2.158778 1_455
Li0 O0 2.273925 1_555
Li1 O12 2.029403 1_554
Li1 O19 2.158791 1_555
Li1 O0 2.273913 1_555
Li2 O11 2.029403 1_554
Li2 O20 2.158786 1_555
Li2 O1 2.273919 1_554
Li3 O10 2.029403 1_645
Li3 O21 2.158784 1_555
Li3 O1 2.273923 1_645
Fe0 O0 1.910147 1_565
Fe0 O17 2.061601 1_554
Fe0 O6 2.080726 1_565
Fe0 O2 2.170616 1_555
Fe0 O13 2.179736 1_555
Fe1 O0 1.910147 1_556
Fe1 O16 2.061601 1_545
Fe1 O7 2.080726 1_556
Fe1 O3 2.170616 1_555
Fe1 O12 2.179723 1_555
Fe2 O1 1.910147 1_555
Fe2 O15 2.061601 1_555
Fe2 O8 2.080726 1_465
Fe2 O4 2.170616 1_555
Fe2 O11 2.179729 1_555
Fe3 O1 1.910147 1_555
Fe3 O14 2.061601 1_555
Fe3 O9 2.080726 1_556
Fe3 O5 2.170616 1_555
Fe3 O10 2.179732 1_555
C0 O2 1.257259 1_555
C0 O14 1.267181 1_555
C1 O3 1.257258 1_555
C1 O15 1.267186 1_555
C2 O4 1.257257 1_655
C2 O16 1.267190 1_555
C3 O5 1.257266 1_555
C3 O17 1.267177 1_555
C4 O10 1.259120 1_555
C4 O6 1.263387 1_565
C5 O11 1.259122 1_555
C5 O7 1.263387 1_556
C6 O12 1.259122 1_555
C6 O8 1.263387 1_555
C7 O13 1.259113 1_555
C7 O9 1.263387 1_555
Cl0 Fe0 2.258983 1_555
Cl1 Fe1 2.258970 1_555
Cl2 Fe2 2.258976 1_555
Cl3 Fe3 2.258978 1_555
O18 O22 1.944425 1_555
O19 O23 1.944425 1_555
O20 O24 1.944425 1_455
O21 O25 1.944425 1_655
