# generated using pymatgen
data_Cr6Cd(CuO6)2
_symmetry_space_group_name_H-M   'P 1'
_cell_length_a   6.11538603
_cell_length_b   8.43551000
_cell_length_c   10.53707408
_cell_angle_alpha   66.40446462
_cell_angle_beta   73.14066750
_cell_angle_gamma   90.00000000
_symmetry_Int_Tables_number   1
_chemical_formula_structural   Cr6Cd(CuO6)2
_chemical_formula_sum   'Cr12 Cd2 Cu4 O24'
_cell_volume   472.51952704
_cell_formula_units_Z   2
loop_
 _symmetry_equiv_pos_site_id
 _symmetry_equiv_pos_as_xyz
  1  'x, y, z'
loop_
 _atom_site_type_symbol
 _atom_site_label
 _atom_site_symmetry_multiplicity
 _atom_site_fract_x
 _atom_site_fract_y
 _atom_site_fract_z
 _atom_site_occupancy
  Cr  Cr0  1  0.08405900  0.70752600  0.83400900  1
  Cr  Cr1  1  0.41712000  0.04493400  0.16872100  1
  Cr  Cr2  1  0.75264500  0.37346400  0.49668600  1
  Cr  Cr3  1  0.58260700  0.20820200  0.83265700  1
  Cr  Cr4  1  0.91402200  0.53681700  0.16998100  1
  Cr  Cr5  1  0.24954700  0.88032200  0.49794600  1
  Cr  Cr6  1  0.24663000  0.37007800  0.00460100  1
  Cr  Cr7  1  0.58590600  0.71230100  0.33398800  1
  Cr  Cr8  1  0.91739600  0.04060600  0.66384300  1
  Cr  Cr9  1  0.42003700  0.04134500  0.66206600  1
  Cr  Cr10  1  0.74927100  0.37111400  0.00282400  1
  Cr  Cr11  1  0.08076000  0.71295600  0.33267800  1
  Cd  Cd0  1  0.16715100  0.41772100  0.66558500  1
  Cd  Cd1  1  0.49951600  0.74997200  0.00108200  1
  Cu  Cu0  1  0.83333300  0.08298700  0.33333300  1
  Cu  Cu1  1  0.99949900  0.00078500  0.00086700  1
  Cu  Cu2  1  0.33333300  0.33173700  0.33333300  1
  Cu  Cu3  1  0.66716800  0.66831900  0.66580000  1
  O  O0  1  0.45781800  0.27647800  0.66283400  1
  O  O1  1  0.78865600  0.60719100  0.00107700  1
  O  O2  1  0.11015000  0.95336000  0.33220000  1
  O  O3  1  0.27955500  0.13088300  0.00204900  1
  O  O4  1  0.61003300  0.46859100  0.33442800  1
  O  O5  1  0.94731400  0.79846200  0.66673000  1
  O  O6  1  0.20884900  0.60597900  0.00383300  1
  O  O7  1  0.55651600  0.95222600  0.33446600  1
  O  O8  1  0.87801100  0.27493500  0.66559000  1
  O  O9  1  0.71935300  0.13185800  0.99993700  1
  O  O10  1  0.05663300  0.46968600  0.33223800  1
  O  O11  1  0.38711200  0.79959900  0.66461800  1
  O  O12  1  0.07123000  0.45770900  0.86163500  1
  O  O13  1  0.40528600  0.79792500  0.19343800  1
  O  O14  1  0.74422700  0.12435200  0.51460300  1
  O  O15  1  0.42744000  0.29304400  0.14861700  1
  O  O16  1  0.76127600  0.62500200  0.48102900  1
  O  O17  1  0.09579800  0.96122800  0.81172600  1
  O  O18  1  0.59543700  0.98600900  0.80503200  1
  O  O19  1  0.92243900  0.30562200  0.15206300  1
  O  O20  1  0.26138100  0.65803000  0.47322900  1
  O  O21  1  0.57086900  0.43962100  0.85494100  1
  O  O22  1  0.90539100  0.77269600  0.18563800  1
  O  O23  1  0.23922600  0.10832800  0.51804900  1
loop_
_geom_bond_atom_site_label_1
_geom_bond_atom_site_label_2
_geom_bond_distance
_geom_bond_site_symmetry_2
Cr0 O12 2.006841 1_555
Cr0 O1 2.010321 1_456
Cr0 O6 2.020706 1_556
Cr0 O5 2.041364 1_455
Cr0 O11 2.048215 1_555
Cr0 O17 2.056280 1_555
Cr1 O13 1.992305 1_545
Cr1 O15 2.016567 1_555
Cr1 O2 2.036442 1_545
Cr1 O3 2.038475 1_555
Cr1 O7 2.039262 1_545
Cr1 O9 2.041106 1_554
Cr2 O0 2.001877 1_555
Cr2 O8 2.013291 1_555
Cr2 O4 2.023427 1_555
Cr2 O10 2.030483 1_655
Cr2 O14 2.032457 1_555
Cr2 O16 2.060816 1_555
Cr3 O18 2.006852 1_545
Cr3 O8 2.010319 1_555
Cr3 O0 2.020694 1_555
Cr3 O9 2.041377 1_555
Cr3 O3 2.048216 1_556
Cr3 O21 2.056285 1_555
Cr4 O6 2.001877 1_655
Cr4 O1 2.013292 1_555
Cr4 O10 2.023414 1_655
Cr4 O4 2.030482 1_555
Cr4 O19 2.032462 1_555
Cr4 O22 2.060799 1_555
Cr5 O20 1.992305 1_555
Cr5 O23 2.016562 1_565
Cr5 O7 2.036443 1_555
Cr5 O11 2.038475 1_555
Cr5 O2 2.039274 1_555
Cr5 O5 2.041106 1_455
Cr6 O6 2.000381 1_555
Cr6 O12 2.003036 1_554
Cr6 O15 2.032626 1_555
Cr6 O3 2.037843 1_555
Cr6 O19 2.043847 1_455
Cr6 O21 2.051422 1_554
Cr7 O13 2.006884 1_555
Cr7 O20 2.018457 1_555
Cr7 O22 2.027620 1_555
Cr7 O7 2.033739 1_555
Cr7 O16 2.035548 1_555
Cr7 O4 2.059356 1_555
Cr8 O8 1.998047 1_555
Cr8 O18 2.013560 1_545
Cr8 O23 2.025715 1_655
Cr8 O5 2.039640 1_545
Cr8 O14 2.042075 1_555
Cr8 O17 2.053679 1_645
Cr9 O0 2.000381 1_555
Cr9 O18 2.003036 1_545
Cr9 O23 2.032639 1_555
Cr9 O11 2.037834 1_545
Cr9 O14 2.043846 1_555
Cr9 O17 2.051422 1_545
Cr10 O1 1.998055 1_555
Cr10 O12 2.013561 1_654
Cr10 O15 2.025715 1_555
Cr10 O9 2.039632 1_554
Cr10 O19 2.042062 1_555
Cr10 O21 2.053678 1_554
Cr11 O20 2.006897 1_555
Cr11 O13 2.018458 1_555
Cr11 O16 2.027619 1_455
Cr11 O2 2.033747 1_555
Cr11 O22 2.035536 1_455
Cr11 O10 2.059356 1_555
Cd0 O8 2.139437 1_455
Cd0 O0 2.139585 1_555
Cd0 O12 2.140173 1_555
Cd0 O20 2.140740 1_555
Cd1 O1 2.139437 1_555
Cd1 O6 2.139580 1_555
Cd1 O18 2.140169 1_554
Cd1 O13 2.140740 1_555
Cu0 O19 1.999209 1_555
Cu0 O14 1.999209 1_555
Cu0 O2 2.015010 1_645
Cu0 O7 2.015014 1_545
Cu1 O9 2.039294 1_554
Cu1 O3 2.039859 1_655
Cu1 O22 2.043267 1_545
Cu1 O17 2.069245 1_644
Cu2 O23 2.021120 1_555
Cu2 O15 2.021120 1_555
Cu2 O10 2.053809 1_555
Cu2 O4 2.053809 1_555
Cu3 O5 2.039294 1_555
Cu3 O11 2.039859 1_555
Cu3 O16 2.043262 1_555
Cu3 O21 2.069245 1_555
