# generated using pymatgen
data_VO2
_symmetry_space_group_name_H-M   'P 1'
_cell_length_a   8.60702200
_cell_length_b   8.60702200
_cell_length_c   7.76555600
_cell_angle_alpha   90.00000000
_cell_angle_beta   90.00000000
_cell_angle_gamma   90.00000000
_symmetry_Int_Tables_number   1
_chemical_formula_structural   VO2
_chemical_formula_sum   'V16 O32'
_cell_volume   575.27881610
_cell_formula_units_Z   16
loop_
 _symmetry_equiv_pos_site_id
 _symmetry_equiv_pos_as_xyz
  1  'x, y, z'
loop_
 _atom_site_type_symbol
 _atom_site_label
 _atom_site_symmetry_multiplicity
 _atom_site_fract_x
 _atom_site_fract_y
 _atom_site_fract_z
 _atom_site_occupancy
  V  V0  1  0.98170600  0.20167400  0.87536500  1
  V  V1  1  0.20167400  0.98170600  0.62463500  1
  V  V2  1  0.79832600  0.98170600  0.12463500  1
  V  V3  1  0.51829400  0.29832600  0.12463500  1
  V  V4  1  0.79832600  0.01829400  0.62463500  1
  V  V5  1  0.01829400  0.20167400  0.37536500  1
  V  V6  1  0.48170600  0.29832600  0.62463500  1
  V  V7  1  0.20167400  0.01829400  0.12463500  1
  V  V8  1  0.70167400  0.51829400  0.87536500  1
  V  V9  1  0.70167400  0.48170600  0.37536500  1
  V  V10  1  0.01829400  0.79832600  0.87536500  1
  V  V11  1  0.51829400  0.70167400  0.62463500  1
  V  V12  1  0.29832600  0.51829400  0.37536500  1
  V  V13  1  0.48170600  0.70167400  0.12463500  1
  V  V14  1  0.29832600  0.48170600  0.87536500  1
  V  V15  1  0.98170600  0.79832600  0.37536500  1
  O  O0  1  0.99518200  0.84980800  0.12525000  1
  O  O1  1  0.34980800  0.50481800  0.12525000  1
  O  O2  1  0.50481800  0.65019200  0.87475000  1
  O  O3  1  0.83910100  0.66046200  0.87475300  1
  O  O4  1  0.34980800  0.49518200  0.62525000  1
  O  O5  1  0.16046200  0.33910100  0.37475300  1
  O  O6  1  0.16089900  0.33953800  0.87475300  1
  O  O7  1  0.49518200  0.65019200  0.37475000  1
  O  O8  1  0.33910100  0.83953800  0.62524700  1
  O  O9  1  0.16089900  0.66046200  0.37475300  1
  O  O10  1  0.33910100  0.16046200  0.12524700  1
  O  O11  1  0.00481800  0.15019200  0.12525000  1
  O  O12  1  0.50481800  0.34980800  0.37475000  1
  O  O13  1  0.84980800  0.00481800  0.87475000  1
  O  O14  1  0.66089900  0.16046200  0.62524700  1
  O  O15  1  0.66046200  0.16089900  0.12524700  1
  O  O16  1  0.83910100  0.33953800  0.37475300  1
  O  O17  1  0.65019200  0.50481800  0.62525000  1
  O  O18  1  0.15019200  0.00481800  0.37475000  1
  O  O19  1  0.15019200  0.99518200  0.87475000  1
  O  O20  1  0.66046200  0.83910100  0.62524700  1
  O  O21  1  0.00481800  0.84980800  0.62525000  1
  O  O22  1  0.99518200  0.15019200  0.62525000  1
  O  O23  1  0.65019200  0.49518200  0.12525000  1
  O  O24  1  0.16046200  0.66089900  0.87475300  1
  O  O25  1  0.66089900  0.83953800  0.12524700  1
  O  O26  1  0.84980800  0.99518200  0.37475000  1
  O  O27  1  0.33953800  0.83910100  0.12524700  1
  O  O28  1  0.33953800  0.16089900  0.62524700  1
  O  O29  1  0.83953800  0.33910100  0.87475300  1
  O  O30  1  0.83953800  0.66089900  0.37475300  1
  O  O31  1  0.49518200  0.34980800  0.87475000  1
loop_
_geom_bond_atom_site_label_1
_geom_bond_atom_site_label_2
_geom_bond_distance
_geom_bond_site_symmetry_2
O0 V15 1.995559 1_555
O0 V10 2.000360 1_654
O0 V2 2.039513 1_555
O0 V7 2.293845 1_665
O1 V12 1.995559 1_555
O1 V14 2.000360 1_554
O1 V13 2.039513 1_555
O1 V3 2.293845 1_555
O2 V11 1.995559 1_555
O2 V13 2.000360 1_556
O2 V8 2.039513 1_555
O2 V14 2.293845 1_555
O3 V8 1.701890 1_555
O3 V10 1.945966 1_655
O4 V14 1.995559 1_555
O4 V12 2.000360 1_555
O4 V6 2.039513 1_555
O4 V11 2.293845 1_555
O5 V5 1.701890 1_555
O5 V12 1.945966 1_555
O6 V14 1.701890 1_555
O6 V0 1.945966 1_455
O7 V13 1.995559 1_555
O7 V11 2.000360 1_555
O7 V12 2.039513 1_555
O7 V9 2.293845 1_555
O8 V1 1.701890 1_555
O8 V11 1.945966 1_555
O9 V12 1.701890 1_555
O9 V15 1.945966 1_455
O10 V7 1.701890 1_555
O10 V3 1.945966 1_555
O11 V5 1.995559 1_555
O11 V0 2.000360 1_454
O11 V7 2.039513 1_555
O11 V2 2.293845 1_445
O12 V3 1.995559 1_555
O12 V6 2.000360 1_555
O12 V9 2.039513 1_555
O12 V12 2.293845 1_555
O13 V4 1.995559 1_555
O13 V2 2.000360 1_546
O13 V0 2.039513 1_555
O13 V10 2.293845 1_645
O14 V4 1.701890 1_555
O14 V6 1.945966 1_555
O15 V3 1.701890 1_555
O15 V2 1.945966 1_545
O16 V9 1.701890 1_555
O16 V5 1.945966 1_655
O17 V8 1.995559 1_555
O17 V9 2.000360 1_555
O17 V11 2.039513 1_555
O17 V6 2.293845 1_555
O18 V7 1.995559 1_555
O18 V1 2.000360 1_545
O18 V5 2.039513 1_555
O18 V15 2.293845 1_445
O19 V1 1.995559 1_555
O19 V7 2.000360 1_566
O19 V10 2.039513 1_555
O19 V0 2.293845 1_465
O20 V11 1.701890 1_555
O20 V4 1.945966 1_565
O21 V10 1.995559 1_555
O21 V15 2.000360 1_455
O21 V1 2.039513 1_555
O21 V4 2.293845 1_465
O22 V0 1.995559 1_555
O22 V5 2.000360 1_655
O22 V4 2.039513 1_555
O22 V1 2.293845 1_645
O23 V9 1.995559 1_555
O23 V8 2.000360 1_554
O23 V3 2.039513 1_555
O23 V13 2.293845 1_555
O24 V10 1.701890 1_555
O24 V14 1.945966 1_555
O25 V2 1.701890 1_555
O25 V13 1.945966 1_555
O26 V2 1.995559 1_555
O26 V4 2.000360 1_565
O26 V15 2.039513 1_555
O26 V5 2.293845 1_665
O27 V13 1.701890 1_555
O27 V7 1.945966 1_565
O28 V6 1.701890 1_555
O28 V1 1.945966 1_545
O29 V0 1.701890 1_555
O29 V8 1.945966 1_555
O30 V15 1.701890 1_555
O30 V9 1.945966 1_555
O31 V6 1.995559 1_555
O31 V3 2.000360 1_556
O31 V14 2.039513 1_555
O31 V8 2.293845 1_555
