# generated using pymatgen
data_Mg2C3ClO15
_symmetry_space_group_name_H-M   'P 1'
_cell_length_a   14.05252094
_cell_length_b   14.05252094
_cell_length_c   14.05252174
_cell_angle_alpha   29.35717679
_cell_angle_beta   29.35717679
_cell_angle_gamma   29.35717676
_symmetry_Int_Tables_number   1
_chemical_formula_structural   Mg2C3ClO15
_chemical_formula_sum   'Mg4 C6 Cl2 O30'
_cell_volume   590.22752787
_cell_formula_units_Z   2
loop_
 _symmetry_equiv_pos_site_id
 _symmetry_equiv_pos_as_xyz
  1  'x, y, z'
loop_
 _atom_site_type_symbol
 _atom_site_label
 _atom_site_symmetry_multiplicity
 _atom_site_fract_x
 _atom_site_fract_y
 _atom_site_fract_z
 _atom_site_occupancy
  Mg  Mg0  1  0.19460600  0.19460600  0.19460600  1
  Mg  Mg1  1  0.69460600  0.69460600  0.69460600  1
  Mg  Mg2  1  0.80539400  0.80539400  0.80539400  1
  Mg  Mg3  1  0.30539400  0.30539400  0.30539400  1
  C  C0  1  0.25000000  0.93152900  0.56847100  1
  C  C1  1  0.56847100  0.25000000  0.93152900  1
  C  C2  1  0.93152900  0.56847100  0.25000000  1
  C  C3  1  0.06847100  0.43152900  0.75000000  1
  C  C4  1  0.75000000  0.06847100  0.43152900  1
  C  C5  1  0.43152900  0.75000000  0.06847100  1
  Cl  Cl0  1  0.00000000  0.00000000  0.00000000  1
  Cl  Cl1  1  0.50000000  0.50000000  0.50000000  1
  O  O0  1  0.75000000  0.24783000  0.25217000  1
  O  O1  1  0.25217000  0.75000000  0.24783000  1
  O  O2  1  0.24783000  0.25217000  0.75000000  1
  O  O3  1  0.75217000  0.74783000  0.25000000  1
  O  O4  1  0.25000000  0.75217000  0.74783000  1
  O  O5  1  0.74783000  0.25000000  0.75217000  1
  O  O6  1  0.68218400  0.97567900  0.51112300  1
  O  O7  1  0.51112300  0.68218400  0.97567900  1
  O  O8  1  0.97567900  0.51112300  0.68218400  1
  O  O9  1  0.01112300  0.47567900  0.18218400  1
  O  O10  1  0.18218400  0.01112300  0.47567900  1
  O  O11  1  0.47567900  0.18218400  0.01112300  1
  O  O12  1  0.31781600  0.02432100  0.48887700  1
  O  O13  1  0.48887700  0.31781600  0.02432100  1
  O  O14  1  0.02432100  0.48887700  0.31781600  1
  O  O15  1  0.98887700  0.52432100  0.81781600  1
  O  O16  1  0.81781600  0.98887700  0.52432100  1
  O  O17  1  0.52432100  0.81781600  0.98887700  1
  O  O18  1  0.12472100  0.27924500  0.60608200  1
  O  O19  1  0.60608200  0.12472100  0.27924500  1
  O  O20  1  0.27924500  0.60608200  0.12472100  1
  O  O21  1  0.10608200  0.77924500  0.62472100  1
  O  O22  1  0.62472100  0.10608200  0.77924500  1
  O  O23  1  0.77924500  0.62472100  0.10608200  1
  O  O24  1  0.87527900  0.72075500  0.39391800  1
  O  O25  1  0.39391800  0.87527900  0.72075500  1
  O  O26  1  0.72075500  0.39391800  0.87527900  1
  O  O27  1  0.89391800  0.22075500  0.37527900  1
  O  O28  1  0.37527900  0.89391800  0.22075500  1
  O  O29  1  0.22075500  0.37527900  0.89391800  1
loop_
_geom_bond_atom_site_label_1
_geom_bond_atom_site_label_2
_geom_bond_distance
_geom_bond_site_symmetry_2
Mg0 O11 2.027204 1_555
Mg0 O9 2.027204 1_555
Mg0 O10 2.027204 1_555
Mg0 O27 2.157414 1_455
Mg0 O28 2.157414 1_545
Mg0 O29 2.157414 1_554
Mg1 O6 2.027204 1_555
Mg1 O8 2.027204 1_555
Mg1 O7 2.027204 1_555
Mg1 O26 2.157414 1_555
Mg1 O25 2.157414 1_555
Mg1 O24 2.157414 1_555
Mg2 O17 2.027204 1_555
Mg2 O15 2.027204 1_555
Mg2 O16 2.027204 1_555
Mg2 O21 2.157414 1_655
Mg2 O22 2.157414 1_565
Mg2 O23 2.157414 1_556
Mg3 O12 2.027204 1_555
Mg3 O14 2.027204 1_555
Mg3 O13 2.027204 1_555
Mg3 O20 2.157414 1_555
Mg3 O19 2.157414 1_555
Mg3 O18 2.157414 1_555
C0 O12 1.274860 1_565
C0 O10 1.274860 1_565
C0 O4 1.277344 1_555
C1 O11 1.274860 1_556
C1 O13 1.274860 1_556
C1 O5 1.277344 1_555
C2 O9 1.274860 1_655
C2 O14 1.274860 1_655
C2 O3 1.277344 1_555
C3 O8 1.274860 1_455
C3 O15 1.274860 1_455
C3 O2 1.277344 1_555
C4 O6 1.274860 1_545
C4 O16 1.274860 1_545
C4 O0 1.277344 1_555
C5 O17 1.274860 1_554
C5 O7 1.274860 1_554
C5 O1 1.277344 1_555
