# generated using pymatgen
data_Tb2MgTiO6
_symmetry_space_group_name_H-M   'P 1'
_cell_length_a   5.65124800
_cell_length_b   5.35625700
_cell_length_c   9.37616839
_cell_angle_alpha   55.59024394
_cell_angle_beta   90.00000000
_cell_angle_gamma   90.00000000
_symmetry_Int_Tables_number   1
_chemical_formula_structural   Tb2MgTiO6
_chemical_formula_sum   'Tb4 Mg2 Ti2 O12'
_cell_volume   234.15003109
_cell_formula_units_Z   2
loop_
 _symmetry_equiv_pos_site_id
 _symmetry_equiv_pos_as_xyz
  1  'x, y, z'
loop_
 _atom_site_type_symbol
 _atom_site_label
 _atom_site_symmetry_multiplicity
 _atom_site_fract_x
 _atom_site_fract_y
 _atom_site_fract_z
 _atom_site_occupancy
  Tb  Tb0  1  0.06487600  0.72850600  0.75311900  1
  Tb  Tb1  1  0.93512400  0.27149400  0.24688100  1
  Tb  Tb2  1  0.56487600  0.27149400  0.74688100  1
  Tb  Tb3  1  0.43512400  0.72850600  0.25311900  1
  Mg  Mg0  1  0.50000000  0.50000000  0.00000000  1
  Mg  Mg1  1  0.00000000  0.50000000  0.50000000  1
  Ti  Ti0  1  0.50000000  0.00000000  0.50000000  1
  Ti  Ti1  1  0.00000000  0.00000000  0.00000000  1
  O  O0  1  0.45769400  0.86947700  0.74280200  1
  O  O1  1  0.54230600  0.13052300  0.25719800  1
  O  O2  1  0.95769400  0.13052300  0.75719800  1
  O  O3  1  0.04230600  0.86947700  0.24280200  1
  O  O4  1  0.79334600  0.74914400  0.56271800  1
  O  O5  1  0.20665400  0.25085600  0.43728200  1
  O  O6  1  0.29334600  0.25085600  0.93728200  1
  O  O7  1  0.70665400  0.74914400  0.06271800  1
  O  O8  1  0.31011200  0.64867900  0.55348100  1
  O  O9  1  0.68988800  0.35132100  0.44651900  1
  O  O10  1  0.81011200  0.35132100  0.94651900  1
  O  O11  1  0.18988800  0.64867900  0.05348100  1
loop_
_geom_bond_atom_site_label_1
_geom_bond_atom_site_label_2
_geom_bond_distance
_geom_bond_site_symmetry_2
Mg0 O7 2.092237 1_555
Mg0 O6 2.092237 1_554
Mg0 O1 2.096483 1_555
Mg0 O0 2.096483 1_554
Mg0 O11 2.099596 1_555
Mg0 O10 2.099596 1_554
Mg1 O5 2.092237 1_555
Mg1 O4 2.092237 1_455
Mg1 O3 2.096483 1_555
Mg1 O2 2.096483 1_455
Mg1 O8 2.099596 1_555
Mg1 O9 2.099596 1_455
O0 Ti0 1.982371 1_565
O0 Tb2 2.257910 1_565
O0 Tb0 2.329153 1_555
O1 Ti0 1.982371 1_555
O1 Tb3 2.257910 1_545
O1 Tb1 2.329153 1_555
O2 Ti1 1.982371 1_656
O2 Tb0 2.257910 1_645
O2 Tb2 2.329153 1_555
O3 Ti1 1.982371 1_565
O3 Tb1 2.257910 1_465
O3 Tb3 2.329153 1_555
O4 Ti0 2.001594 1_565
O4 Tb0 2.308868 1_655
O4 Tb2 2.490220 1_555
O4 Tb1 2.806274 1_565
O5 Ti0 2.001594 1_555
O5 Tb1 2.308868 1_455
O5 Tb3 2.490220 1_555
O5 Tb0 2.806274 1_545
O6 Ti1 2.001594 1_556
O6 Tb2 2.308868 1_555
O6 Tb0 2.490220 1_555
O6 Tb3 2.806274 1_546
O7 Ti1 2.001594 1_665
O7 Tb3 2.308868 1_555
O7 Tb1 2.490220 1_555
O7 Tb2 2.806274 1_564
O8 Ti0 1.969154 1_565
O8 Tb2 2.302636 1_555
O8 Tb0 2.551835 1_555
O8 Tb3 2.692992 1_555
O9 Ti0 1.969154 1_555
O9 Tb3 2.302636 1_555
O9 Tb1 2.551835 1_555
O9 Tb2 2.692992 1_555
O10 Ti1 1.969154 1_656
O10 Tb0 2.302636 1_655
O10 Tb2 2.551835 1_555
O10 Tb1 2.692992 1_556
O11 Ti1 1.969154 1_565
O11 Tb1 2.302636 1_455
O11 Tb3 2.551835 1_555
O11 Tb0 2.692992 1_554
