# generated using pymatgen
data_CeMg6Cd
_symmetry_space_group_name_H-M   'P 1'
_cell_length_a   5.12074000
_cell_length_b   6.57859300
_cell_length_c   11.57959900
_cell_angle_alpha   90.00000000
_cell_angle_beta   90.00000000
_cell_angle_gamma   90.00000000
_symmetry_Int_Tables_number   1
_chemical_formula_structural   CeMg6Cd
_chemical_formula_sum   'Ce2 Mg12 Cd2'
_cell_volume   390.08501222
_cell_formula_units_Z   2
loop_
 _symmetry_equiv_pos_site_id
 _symmetry_equiv_pos_as_xyz
  1  'x, y, z'
loop_
 _atom_site_type_symbol
 _atom_site_label
 _atom_site_symmetry_multiplicity
 _atom_site_fract_x
 _atom_site_fract_y
 _atom_site_fract_z
 _atom_site_occupancy
  Ce  Ce0  1  0.00000000  0.50000000  0.32822100  1
  Ce  Ce1  1  0.00000000  0.00000000  0.82822100  1
  Mg  Mg0  1  0.00000000  0.74508200  0.07885900  1
  Mg  Mg1  1  0.00000000  0.25491800  0.07885900  1
  Mg  Mg2  1  0.00000000  0.00000000  0.33855900  1
  Mg  Mg3  1  0.50000000  0.24171600  0.42234700  1
  Mg  Mg4  1  0.50000000  0.75828400  0.42234700  1
  Mg  Mg5  1  0.50000000  0.00000000  0.16970000  1
  Mg  Mg6  1  0.00000000  0.24508200  0.57885900  1
  Mg  Mg7  1  0.00000000  0.75491800  0.57885900  1
  Mg  Mg8  1  0.00000000  0.50000000  0.83855900  1
  Mg  Mg9  1  0.50000000  0.74171600  0.92234700  1
  Mg  Mg10  1  0.50000000  0.25828400  0.92234700  1
  Mg  Mg11  1  0.50000000  0.50000000  0.66970000  1
  Cd  Cd0  1  0.50000000  0.50000000  0.16110900  1
  Cd  Cd1  1  0.50000000  0.00000000  0.66110900  1
loop_
_geom_bond_atom_site_label_1
_geom_bond_atom_site_label_2
_geom_bond_distance
_geom_bond_site_symmetry_2
Ce0 Mg4 3.260454 1_555
Ce0 Mg4 3.260454 1_455
Ce0 Mg3 3.260454 1_455
Ce0 Mg3 3.260454 1_555
Ce0 Mg2 3.291474 1_555
Ce0 Mg2 3.291474 1_565
Ce0 Mg0 3.307147 1_555
Ce0 Mg1 3.307147 1_555
Ce0 Mg7 3.351956 1_555
Ce0 Mg6 3.351956 1_555
Ce1 Mg10 3.260454 1_455
Ce1 Mg10 3.260454 1_555
Ce1 Mg9 3.260454 1_445
Ce1 Mg9 3.260454 1_545
Ce1 Mg8 3.291474 1_545
Ce1 Mg8 3.291474 1_555
Ce1 Mg6 3.307147 1_555
Ce1 Mg7 3.307147 1_545
Ce1 Mg1 3.351956 1_556
Ce1 Mg0 3.351956 1_546
Mg0 Mg9 3.136970 1_454
Mg0 Mg9 3.136970 1_554
Mg0 Mg8 3.215934 1_554
Mg0 Mg1 3.224589 1_555
Mg0 Mg5 3.236407 1_465
Mg0 Mg5 3.236407 1_565
Mg0 Mg1 3.354004 1_565
Mg0 Mg2 3.443213 1_565
Mg1 Mg10 3.136970 1_454
Mg1 Mg10 3.136970 1_554
Mg1 Mg8 3.215934 1_554
Mg1 Mg5 3.236407 1_455
Mg1 Mg5 3.236407 1_555
Mg1 Mg2 3.443213 1_555
Mg2 Mg3 3.166295 1_455
Mg2 Mg3 3.166295 1_555
Mg2 Mg4 3.166295 1_545
Mg2 Mg4 3.166295 1_445
Mg2 Mg7 3.215934 1_545
Mg2 Mg6 3.215934 1_555
Mg2 Mg5 3.221610 1_555
Mg2 Mg5 3.221610 1_455
Mg3 Mg6 3.136970 1_555
Mg3 Mg6 3.136970 1_655
Mg3 Mg4 3.180302 1_545
Mg3 Mg5 3.329779 1_555
Mg3 Mg4 3.398291 1_555
Mg4 Mg7 3.136970 1_555
Mg4 Mg7 3.136970 1_655
Mg4 Mg5 3.329779 1_565
Mg5 Mg9 3.330317 1_544
Mg6 Mg7 3.224589 1_545
Mg6 Mg7 3.354004 1_555
Mg6 Mg8 3.443213 1_555
Mg7 Mg8 3.443213 1_555
Mg8 Mg9 3.166295 1_555
Mg8 Mg9 3.166295 1_455
Mg10 Mg8 3.166295 1_555
Mg10 Mg8 3.166295 1_655
Mg10 Mg9 3.180302 1_555
Mg10 Mg11 3.329779 1_555
Mg10 Mg5 3.330317 1_556
Mg10 Mg9 3.398291 1_545
Mg11 Mg8 3.221610 1_655
Mg11 Mg8 3.221610 1_555
Mg11 Mg6 3.236407 1_555
Mg11 Mg7 3.236407 1_555
Mg11 Mg6 3.236407 1_655
Mg11 Mg7 3.236407 1_655
Mg11 Mg9 3.329779 1_555
Mg11 Mg4 3.330317 1_555
Mg11 Mg3 3.330317 1_555
Cd0 Mg0 3.172081 1_655
Cd0 Mg0 3.172081 1_555
Cd0 Mg1 3.172081 1_555
Cd0 Mg1 3.172081 1_655
Cd0 Mg9 3.189439 1_554
Cd0 Mg10 3.189439 1_554
Cd0 Ce0 3.209372 1_655
Cd0 Ce0 3.209372 1_555
Cd0 Mg5 3.290800 1_565
Cd0 Mg5 3.290800 1_555
Cd0 Mg4 3.469569 1_555
Cd0 Mg3 3.469569 1_555
Cd1 Mg7 3.172081 1_545
Cd1 Mg7 3.172081 1_645
Cd1 Mg6 3.172081 1_655
Cd1 Mg6 3.172081 1_555
Cd1 Mg4 3.189439 1_545
Cd1 Mg3 3.189439 1_555
Cd1 Ce1 3.209372 1_555
Cd1 Ce1 3.209372 1_655
Cd1 Mg11 3.290800 1_545
Cd1 Mg11 3.290800 1_555
Cd1 Mg10 3.469569 1_555
Cd1 Mg9 3.469569 1_545
