# generated using pymatgen
data_Ca(SbO2)2
_symmetry_space_group_name_H-M   'P 1'
_cell_length_a   7.01024739
_cell_length_b   7.01024739
_cell_length_c   23.76662997
_cell_angle_alpha   78.53504861
_cell_angle_beta   78.53504861
_cell_angle_gamma   55.18353228
_symmetry_Int_Tables_number   1
_chemical_formula_structural   Ca(SbO2)2
_chemical_formula_sum   'Ca8 Sb16 O32'
_cell_volume   934.46480603
_cell_formula_units_Z   8
loop_
 _symmetry_equiv_pos_site_id
 _symmetry_equiv_pos_as_xyz
  1  'x, y, z'
loop_
 _atom_site_type_symbol
 _atom_site_label
 _atom_site_symmetry_multiplicity
 _atom_site_fract_x
 _atom_site_fract_y
 _atom_site_fract_z
 _atom_site_occupancy
  Ca  Ca0  1  0.64209300  0.64209300  0.03949500  1
  Ca  Ca1  1  0.12591500  0.12591500  0.12212500  1
  Ca  Ca2  1  0.88851300  0.88851300  0.27536500  1
  Ca  Ca3  1  0.34397600  0.34397600  0.39024500  1
  Ca  Ca4  1  0.61550700  0.61550700  0.63698500  1
  Ca  Ca5  1  0.49671200  0.49671200  0.50001500  1
  Ca  Ca6  1  0.91011800  0.91011800  0.86614900  1
  Ca  Ca7  1  0.76446800  0.76446800  0.74855500  1
  Sb  Sb0  1  0.62966000  0.13143300  0.12116500  1
  Sb  Sb1  1  0.22541800  0.22541800  0.25109200  1
  Sb  Sb2  1  0.13143300  0.62966000  0.12116500  1
  Sb  Sb3  1  0.15836800  0.15836800  0.54204400  1
  Sb  Sb4  1  0.85740300  0.35769100  0.37430800  1
  Sb  Sb5  1  0.57014700  0.57014700  0.21260000  1
  Sb  Sb6  1  0.43014800  0.43014800  0.78113800  1
  Sb  Sb7  1  0.35769100  0.85740300  0.37430800  1
  Sb  Sb8  1  0.13371200  0.62092800  0.62129800  1
  Sb  Sb9  1  0.82821700  0.82821700  0.47661300  1
  Sb  Sb10  1  0.62092800  0.13371200  0.62129800  1
  Sb  Sb11  1  0.90903200  0.41072500  0.87971900  1
  Sb  Sb12  1  0.41072500  0.90903200  0.87971900  1
  Sb  Sb13  1  0.09245100  0.09245100  0.72586200  1
  Sb  Sb14  1  0.99968800  0.99968800  0.00010500  1
  Sb  Sb15  1  0.36755700  0.36755700  0.95388500  1
  O  O0  1  0.24024600  0.81754100  0.06317600  1
  O  O1  1  0.93293200  0.93293200  0.16945200  1
  O  O2  1  0.81754100  0.24024600  0.06317600  1
  O  O3  1  0.81234800  0.81234800  0.08443000  1
  O  O4  1  0.52443600  0.52443600  0.13803200  1
  O  O5  1  0.50017100  0.03291400  0.31423500  1
  O  O6  1  0.41950300  0.91809900  0.19037300  1
  O  O7  1  0.18024500  0.18024500  0.45677700  1
  O  O8  1  0.03291400  0.50017100  0.31423500  1
  O  O9  1  0.34392600  0.34392600  0.04127600  1
  O  O10  1  0.06601100  0.06601100  0.29240500  1
  O  O11  1  0.91809900  0.41950300  0.19037300  1
  O  O12  1  0.75321500  0.31738400  0.57228500  1
  O  O13  1  0.65407400  0.65407400  0.41893700  1
  O  O14  1  0.68615500  0.15798700  0.43903200  1
  O  O15  1  0.43926700  0.43926700  0.69551200  1
  O  O16  1  0.31738400  0.75321500  0.57228500  1
  O  O17  1  0.53923600  0.53923600  0.33895700  1
  O  O18  1  0.32003900  0.32003900  0.54445200  1
  O  O19  1  0.15798700  0.68615500  0.43903200  1
  O  O20  1  0.90712600  0.90712600  0.66660600  1
  O  O21  1  0.08121600  0.58401300  0.80987800  1
  O  O22  1  0.93258800  0.43506700  0.69609100  1
  O  O23  1  0.71413100  0.71413100  0.92875800  1
  O  O24  1  0.58401300  0.08121600  0.80987800  1
  O  O25  1  0.83009500  0.83009500  0.56897000  1
  O  O26  1  0.63226600  0.63226600  0.83244600  1
  O  O27  1  0.43506700  0.93258800  0.69609100  1
  O  O28  1  0.16043300  0.16043300  0.97437800  1
  O  O29  1  0.25031500  0.71613700  0.92545900  1
  O  O30  1  0.09094900  0.09094900  0.81229800  1
  O  O31  1  0.71613700  0.25031500  0.92545900  1
loop_
_geom_bond_atom_site_label_1
_geom_bond_atom_site_label_2
_geom_bond_distance
_geom_bond_site_symmetry_2
Ca0 O0 2.335320 1_555
Ca0 O2 2.335320 1_555
Ca0 O4 2.467009 1_555
Ca0 O3 2.574807 1_555
Ca0 O23 2.582859 1_554
Ca1 O1 2.409503 1_445
Ca1 O11 2.439901 1_455
Ca1 O6 2.439901 1_545
Ca1 O0 2.461228 1_545
Ca1 O2 2.461228 1_455
Ca1 O9 2.948894 1_555
Ca2 O10 2.330076 1_665
Ca2 O8 2.348312 1_655
Ca2 O5 2.348312 1_565
Ca2 O1 2.453104 1_555
Ca3 O7 2.279595 1_555
Ca3 O14 2.394117 1_555
Ca3 O19 2.394117 1_555
Ca3 O17 2.458885 1_555
Ca3 O8 2.696415 1_555
Ca3 O5 2.696415 1_555
Ca4 O15 2.316108 1_555
Ca4 O27 2.416303 1_555
Ca4 O22 2.416303 1_555
Ca4 O16 2.459230 1_555
Ca4 O12 2.459230 1_555
Ca4 O25 2.790994 1_555
Ca5 O18 2.212437 1_555
Ca5 O12 2.356281 1_555
Ca5 O16 2.356281 1_555
Ca5 O13 2.417958 1_555
Ca5 O19 2.550452 1_555
Ca5 O14 2.550452 1_555
Ca6 O30 2.323159 1_665
Ca6 O24 2.428988 1_565
Ca6 O21 2.428988 1_655
Ca6 O31 2.528810 1_565
Ca6 O29 2.528810 1_655
Ca6 O23 2.553334 1_555
Ca7 O26 2.281383 1_555
Ca7 O20 2.321000 1_555
Ca7 O22 2.393493 1_555
Ca7 O27 2.393493 1_555
Ca7 O24 2.449690 1_565
Ca7 O21 2.449690 1_655
O0 Sb2 2.055177 1_555
O0 Sb14 2.122828 1_455
O1 Sb0 2.174900 1_565
O1 Sb2 2.174900 1_655
O2 Sb0 2.055177 1_555
O2 Sb14 2.122828 1_545
O3 Sb2 2.113436 1_655
O3 Sb0 2.113436 1_565
O3 Sb14 2.709773 1_555
O4 Sb5 1.978624 1_555
O4 Sb2 2.509179 1_555
O4 Sb0 2.509179 1_555
O5 Sb7 2.165168 1_545
O5 Sb1 2.271331 1_555
O6 Sb5 2.027855 1_555
O6 Sb1 2.383963 1_565
O7 Sb3 1.983314 1_555
O8 Sb4 2.165168 1_455
O8 Sb1 2.271331 1_555
O9 Sb15 2.031390 1_554
O9 Sb2 2.610865 1_555
O9 Sb0 2.610865 1_555
O10 Sb1 2.003796 1_555
O10 Sb7 2.672974 1_545
O10 Sb4 2.672974 1_455
O11 Sb5 2.027855 1_555
O11 Sb1 2.383963 1_655
O12 Sb10 2.052465 1_555
O12 Sb3 2.391170 1_655
O13 Sb4 2.089725 1_555
O13 Sb7 2.089725 1_555
O14 Sb9 2.009390 1_545
O14 Sb4 2.469067 1_555
O15 Sb6 2.012660 1_555
O15 Sb10 2.610583 1_555
O15 Sb8 2.610583 1_555
O16 Sb8 2.052465 1_555
O16 Sb3 2.391170 1_565
O17 Sb4 2.092580 1_555
O17 Sb7 2.092580 1_555
O18 Sb3 2.022520 1_555
O18 Sb8 2.632095 1_555
O18 Sb10 2.632095 1_555
O19 Sb9 2.009390 1_455
O19 Sb7 2.469067 1_555
O20 Sb10 2.061003 1_565
O20 Sb8 2.061003 1_655
O21 Sb6 2.056516 1_555
O21 Sb11 2.400877 1_455
O22 Sb13 2.022704 1_655
O22 Sb8 2.650656 1_655
O23 Sb12 2.187025 1_555
O23 Sb11 2.187025 1_555
O24 Sb6 2.056516 1_555
O24 Sb12 2.400877 1_545
O25 Sb9 2.200366 1_555
O25 Sb8 2.233949 1_655
O25 Sb10 2.233949 1_565
O26 Sb12 2.042242 1_555
O26 Sb11 2.042242 1_555
O27 Sb13 2.022704 1_565
O27 Sb10 2.650656 1_565
O28 Sb14 1.953379 1_446
O28 Sb15 2.509769 1_555
O29 Sb15 2.091487 1_555
O29 Sb12 2.222810 1_555
O29 Sb14 2.521957 1_456
O30 Sb13 2.050187 1_555
O30 Sb12 2.563266 1_545
O30 Sb11 2.563266 1_455
O31 Sb15 2.091487 1_555
O31 Sb11 2.222810 1_555
O31 Sb14 2.521957 1_546
