# generated using pymatgen
data_V2Cr2GaSe8
_symmetry_space_group_name_H-M   'P 1'
_cell_length_a   7.35180972
_cell_length_b   7.35180972
_cell_length_c   7.35180972
_cell_angle_alpha   120.33171448
_cell_angle_beta   119.55611568
_cell_angle_gamma   90.09847957
_symmetry_Int_Tables_number   1
_chemical_formula_structural   V2Cr2GaSe8
_chemical_formula_sum   'V2 Cr2 Ga1 Se8'
_cell_volume   281.19673168
_cell_formula_units_Z   1
loop_
 _symmetry_equiv_pos_site_id
 _symmetry_equiv_pos_as_xyz
  1  'x, y, z'
loop_
 _atom_site_type_symbol
 _atom_site_label
 _atom_site_symmetry_multiplicity
 _atom_site_fract_x
 _atom_site_fract_y
 _atom_site_fract_z
 _atom_site_occupancy
  V  V0  1  0.61046800  0.39320600  0.78273800  1
  V  V1  1  0.61046800  0.82772900  0.21726200  1
  Cr  Cr0  1  0.61507400  0.38400900  0.23106500  1
  Cr  Cr1  1  0.15294400  0.38400900  0.76893500  1
  Ga  Ga0  1  0.00272200  0.00272200  0.00000000  1
  Se  Se0  1  0.37647900  0.62197300  0.24549400  1
  Se  Se1  1  0.37647900  0.13098500  0.75450600  1
  Se  Se2  1  0.37451100  0.62523200  0.74927900  1
  Se  Se3  1  0.87595200  0.62523200  0.25072100  1
  Se  Se4  1  0.86476200  0.13657400  0.27181300  1
  Se  Se5  1  0.86476200  0.59294900  0.72818700  1
  Se  Se6  1  0.86258300  0.13769100  0.72489300  1
  Se  Se7  1  0.41279800  0.13769100  0.27510700  1
loop_
_geom_bond_atom_site_label_1
_geom_bond_atom_site_label_2
_geom_bond_distance
_geom_bond_site_symmetry_2
Cr0 Se0 2.481018 1_555
Cr0 Se1 2.481018 1_554
Cr0 Se3 2.510060 1_555
Cr0 Se7 2.579452 1_555
Cr0 Se5 2.605347 1_555
Cr0 Se4 2.605352 1_555
Cr1 Se1 2.481018 1_555
Cr1 Se0 2.481018 1_556
Cr1 Se2 2.510065 1_555
Cr1 Se6 2.579457 1_455
Cr1 Se4 2.605347 1_455
Cr1 Se5 2.605347 1_455
Ga0 Se5 2.450957 1_444
Ga0 Se4 2.450957 1_455
Ga0 Se7 2.472136 1_555
Ga0 Se6 2.472137 1_454
Se0 V1 2.439451 1_555
Se1 V0 2.439456 1_555
Se2 V0 2.447963 1_555
Se2 V1 2.447964 1_556
Se3 V1 2.447953 1_555
Se3 V0 2.447962 1_554
Se4 V1 2.671598 1_545
Se5 V0 2.671598 1_555
Se6 V0 2.669796 1_555
Se6 V1 2.669803 1_545
Se7 V0 2.669802 1_555
Se7 V1 2.669808 1_545
