# generated using pymatgen
data_Li3VFe3O8
_symmetry_space_group_name_H-M   'P 1'
_cell_length_a   5.90207809
_cell_length_b   5.90207809
_cell_length_c   9.60868685
_cell_angle_alpha   89.87727973
_cell_angle_beta   89.87727973
_cell_angle_gamma   120.25738433
_symmetry_Int_Tables_number   1
_chemical_formula_structural   Li3VFe3O8
_chemical_formula_sum   'Li6 V2 Fe6 O16'
_cell_volume   289.11347292
_cell_formula_units_Z   2
loop_
 _symmetry_equiv_pos_site_id
 _symmetry_equiv_pos_as_xyz
  1  'x, y, z'
loop_
 _atom_site_type_symbol
 _atom_site_label
 _atom_site_symmetry_multiplicity
 _atom_site_fract_x
 _atom_site_fract_y
 _atom_site_fract_z
 _atom_site_occupancy
  Li  Li0  1  0.82825400  0.65154700  0.05655400  1
  Li  Li1  1  0.34796000  0.17440700  0.05802900  1
  Li  Li2  1  0.82812100  0.17899200  0.05723300  1
  Li  Li3  1  0.17899200  0.82812100  0.55723300  1
  Li  Li4  1  0.65154700  0.82825400  0.55655400  1
  Li  Li5  1  0.17440700  0.34796000  0.55802900  1
  V  V0  1  0.66909900  0.33859000  0.51017100  1
  V  V1  1  0.33859000  0.66909900  0.01017100  1
  Fe  Fe0  1  0.83356000  0.66269600  0.78567300  1
  Fe  Fe1  1  0.33402000  0.16817900  0.78861100  1
  Fe  Fe2  1  0.83427700  0.17247800  0.78655100  1
  Fe  Fe3  1  0.17247800  0.83427700  0.28655100  1
  Fe  Fe4  1  0.66269600  0.83356000  0.28567300  1
  Fe  Fe5  1  0.16817900  0.33402000  0.28861100  1
  O  O0  1  0.99876800  0.99994100  0.67771800  1
  O  O1  1  0.82802700  0.65394200  0.40864000  1
  O  O2  1  0.51775600  0.48114500  0.65339200  1
  O  O3  1  0.96525800  0.48306900  0.65300500  1
  O  O4  1  0.32956000  0.16238200  0.40916100  1
  O  O5  1  0.66535900  0.33356500  0.90404400  1
  O  O6  1  0.52149700  0.04374400  0.65144100  1
  O  O7  1  0.83401200  0.16392100  0.40840400  1
  O  O8  1  0.16392100  0.83401200  0.90840400  1
  O  O9  1  0.48306900  0.96525800  0.15300500  1
  O  O10  1  0.04374400  0.52149700  0.15144100  1
  O  O11  1  0.99994100  0.99876800  0.17771800  1
  O  O12  1  0.33356500  0.66535900  0.40404400  1
  O  O13  1  0.65394200  0.82802700  0.90864000  1
  O  O14  1  0.48114500  0.51775600  0.15339200  1
  O  O15  1  0.16238200  0.32956000  0.90916100  1
loop_
_geom_bond_atom_site_label_1
_geom_bond_atom_site_label_2
_geom_bond_distance
_geom_bond_site_symmetry_2
Li0 O10 2.005935 1_655
Li0 O14 2.011161 1_555
Li0 O11 2.122379 1_555
Li0 O5 2.189393 1_554
Li0 O8 2.223134 1_654
Li0 O13 2.289801 1_554
Li1 O14 1.992446 1_555
Li1 O9 1.995691 1_545
Li1 O11 2.110744 1_445
Li1 O5 2.188534 1_554
Li1 O15 2.257483 1_554
Li1 O8 2.258968 1_544
Li2 O10 1.986353 1_655
Li2 O9 1.995898 1_545
Li2 O11 2.141714 1_545
Li2 O5 2.192085 1_554
Li2 O15 2.218523 1_654
Li2 O13 2.293279 1_544
Li3 O6 1.986353 1_565
Li3 O3 1.995898 1_455
Li3 O0 2.141714 1_455
Li3 O12 2.192085 1_555
Li3 O4 2.218523 1_565
Li3 O1 2.293279 1_455
Li4 O6 2.005935 1_565
Li4 O2 2.011161 1_555
Li4 O0 2.122379 1_555
Li4 O12 2.189393 1_555
Li4 O7 2.223134 1_565
Li4 O1 2.289801 1_555
Li5 O2 1.992446 1_555
Li5 O3 1.995691 1_455
Li5 O0 2.110744 1_445
Li5 O12 2.188534 1_555
Li5 O4 2.257483 1_555
Li5 O7 2.258968 1_455
Fe0 O0 2.004884 1_555
Fe0 O5 2.023604 1_555
Fe0 O3 2.045773 1_555
Fe0 O2 2.059392 1_555
Fe0 O8 2.059854 1_655
Fe0 O13 2.124657 1_555
Fe1 O0 2.017441 1_445
Fe1 O5 2.024248 1_555
Fe1 O8 2.052461 1_545
Fe1 O2 2.059389 1_555
Fe1 O15 2.060883 1_555
Fe1 O6 2.077926 1_555
Fe2 O0 2.017330 1_545
Fe2 O5 2.031602 1_555
Fe2 O3 2.040133 1_555
Fe2 O15 2.050047 1_655
Fe2 O6 2.066777 1_555
Fe2 O13 2.108520 1_545
Fe3 O11 2.017330 1_455
Fe3 O12 2.031602 1_555
Fe3 O9 2.040133 1_555
Fe3 O4 2.050047 1_565
Fe3 O10 2.066777 1_555
Fe3 O1 2.108520 1_455
Fe4 O11 2.004884 1_555
Fe4 O12 2.023604 1_555
Fe4 O9 2.045773 1_555
Fe4 O14 2.059392 1_555
Fe4 O7 2.059854 1_565
Fe4 O1 2.124657 1_555
Fe5 O11 2.017441 1_445
Fe5 O12 2.024248 1_555
Fe5 O7 2.052461 1_455
Fe5 O14 2.059389 1_555
Fe5 O4 2.060883 1_555
Fe5 O10 2.077926 1_555
O1 V0 1.877414 1_555
O2 V0 2.038796 1_555
O3 V0 2.044328 1_555
O4 V0 1.987935 1_555
O6 V0 2.021597 1_555
O7 V0 1.994438 1_555
O8 V1 1.994438 1_556
O9 V1 2.044328 1_555
O10 V1 2.021597 1_555
O13 V1 1.877414 1_556
O14 V1 2.038796 1_555
O15 V1 1.987935 1_556
