# generated using pymatgen
data_Ca(BH2)2
_symmetry_space_group_name_H-M   'P 1'
_cell_length_a   7.91767248
_cell_length_b   7.91767248
_cell_length_c   9.23043739
_cell_angle_alpha   124.61029020
_cell_angle_beta   124.61029020
_cell_angle_gamma   71.07493497
_symmetry_Int_Tables_number   1
_chemical_formula_structural   Ca(BH2)2
_chemical_formula_sum   'Ca4 B8 H16'
_cell_volume   391.96915850
_cell_formula_units_Z   4
loop_
 _symmetry_equiv_pos_site_id
 _symmetry_equiv_pos_as_xyz
  1  'x, y, z'
loop_
 _atom_site_type_symbol
 _atom_site_label
 _atom_site_symmetry_multiplicity
 _atom_site_fract_x
 _atom_site_fract_y
 _atom_site_fract_z
 _atom_site_occupancy
  Ca  Ca0  1  0.62500000  0.87500000  0.75000000  1
  Ca  Ca1  1  0.12500000  0.87500000  0.75000000  1
  Ca  Ca2  1  0.12500000  0.37500000  0.25000000  1
  Ca  Ca3  1  0.12500000  0.87500000  0.25000000  1
  B  B0  1  0.47564700  0.52866500  0.41514200  1
  B  B1  1  0.93949500  0.88647700  0.41514200  1
  B  B2  1  0.47133500  0.52435300  0.58485800  1
  B  B3  1  0.77435300  0.22133500  0.08485800  1
  B  B4  1  0.11352300  0.06050500  0.58485800  1
  B  B5  1  0.31050500  0.86352300  0.08485800  1
  B  B6  1  0.77866500  0.22564700  0.91514200  1
  B  B7  1  0.13647700  0.68949500  0.91514200  1
  H  H0  1  0.37861100  0.41740800  0.23126100  1
  H  H1  1  0.85265000  0.81385300  0.23126100  1
  H  H2  1  0.58259200  0.62138900  0.76873900  1
  H  H3  1  0.87138900  0.33259200  0.26873900  1
  H  H4  1  0.18614700  0.14735000  0.76873900  1
  H  H5  1  0.39735000  0.93614700  0.26873900  1
  H  H6  1  0.66740800  0.12861100  0.73126100  1
  H  H7  1  0.06385300  0.60265000  0.73126100  1
  H  H8  1  0.58823200  0.63331800  0.44352600  1
  H  H9  1  0.85529400  0.81020800  0.44352600  1
  H  H10  1  0.36668200  0.41176800  0.55647400  1
  H  H11  1  0.66176800  0.11668200  0.05647400  1
  H  H12  1  0.18979200  0.14470600  0.55647400  1
  H  H13  1  0.39470600  0.93979200  0.05647400  1
  H  H14  1  0.88331800  0.33823200  0.94352600  1
  H  H15  1  0.06020800  0.60529400  0.94352600  1
loop_
_geom_bond_atom_site_label_1
_geom_bond_atom_site_label_2
_geom_bond_distance
_geom_bond_site_symmetry_2
Ca0 H11 2.241771 1_566
Ca0 H8 2.241771 1_555
Ca0 H2 2.252253 1_555
Ca0 H6 2.252253 1_565
Ca1 H13 2.241771 1_556
Ca1 H9 2.241771 1_455
Ca1 H7 2.252253 1_555
Ca1 H4 2.252253 1_565
Ca2 H14 2.241771 1_454
Ca2 H10 2.241771 1_555
Ca2 H3 2.252253 1_455
Ca2 H0 2.252253 1_555
Ca3 H15 2.241771 1_554
Ca3 H12 2.241771 1_565
Ca3 H5 2.252253 1_555
Ca3 H1 2.252253 1_455
B0 H0 1.227307 1_555
B0 H8 1.231686 1_555
B1 H1 1.227307 1_555
B1 H9 1.231686 1_555
B2 H2 1.227307 1_555
B2 H10 1.231686 1_555
B3 H3 1.227307 1_555
B3 H11 1.231686 1_555
B4 H4 1.227307 1_555
B4 H12 1.231686 1_555
B5 H5 1.227307 1_555
B5 H13 1.231686 1_555
B6 H6 1.227307 1_555
B6 H14 1.231686 1_555
B7 H7 1.227307 1_555
B7 H15 1.231686 1_555
