# generated using pymatgen
data_Sn4As3
_symmetry_space_group_name_H-M   'P 1'
_cell_length_a   12.39357259
_cell_length_b   12.39357259
_cell_length_c   12.39357316
_cell_angle_alpha   19.10401928
_cell_angle_beta   19.10401928
_cell_angle_gamma   19.10401848
_symmetry_Int_Tables_number   1
_chemical_formula_structural   Sn4As3
_chemical_formula_sum   'Sn4 As3'
_cell_volume   178.22733645
_cell_formula_units_Z   1
loop_
 _symmetry_equiv_pos_site_id
 _symmetry_equiv_pos_as_xyz
  1  'x, y, z'
loop_
 _atom_site_type_symbol
 _atom_site_label
 _atom_site_symmetry_multiplicity
 _atom_site_fract_x
 _atom_site_fract_y
 _atom_site_fract_z
 _atom_site_occupancy
  Sn  Sn0  1  0.36476862  0.36476862  0.36476862  1
  Sn  Sn1  1  0.63523138  0.63523138  0.63523138  1
  Sn  Sn2  1  0.21086696  0.21086696  0.21086696  1
  Sn  Sn3  1  0.78913304  0.78913304  0.78913304  1
  As  As0  1  0.92997987  0.92997987  0.92997987  1
  As  As1  1  0.50000000  0.50000000  0.50000000  1
  As  As2  1  0.07002013  0.07002013  0.07002013  1
loop_
_geom_bond_atom_site_label_1
_geom_bond_atom_site_label_2
_geom_bond_distance
_geom_bond_site_symmetry_2
As0 Sn1 2.760824 1_565
As0 Sn1 2.760824 1_655
As0 Sn1 2.760825 1_556
As0 Sn2 3.049992 1_656
As0 Sn2 3.049992 1_566
As0 Sn2 3.049992 1_665
As1 Sn3 2.870750 1_455
As1 Sn3 2.870750 1_545
As1 Sn2 2.870750 1_655
As1 Sn2 2.870750 1_565
As1 Sn3 2.870750 1_554
As1 Sn2 2.870750 1_556
As2 Sn0 2.760824 1_455
As2 Sn0 2.760824 1_545
As2 Sn0 2.760825 1_554
As2 Sn3 3.049992 1_544
As2 Sn3 3.049992 1_454
As2 Sn3 3.049992 1_445
