# generated using pymatgen
data_Mg3Fe4(MoO4)6
_symmetry_space_group_name_H-M   'P 1'
_cell_length_a   7.03099500
_cell_length_b   8.46740256
_cell_length_c   10.34573652
_cell_angle_alpha   104.38549653
_cell_angle_beta   104.88364993
_cell_angle_gamma   101.51915888
_symmetry_Int_Tables_number   1
_chemical_formula_structural   Mg3Fe4(MoO4)6
_chemical_formula_sum   'Mg3 Fe4 Mo6 O24'
_cell_volume   553.28322583
_cell_formula_units_Z   1
loop_
 _symmetry_equiv_pos_site_id
 _symmetry_equiv_pos_as_xyz
  1  'x, y, z'
loop_
 _atom_site_type_symbol
 _atom_site_label
 _atom_site_symmetry_multiplicity
 _atom_site_fract_x
 _atom_site_fract_y
 _atom_site_fract_z
 _atom_site_occupancy
  Mg  Mg0  1  0.00000000  0.50000000  0.50000000  1
  Mg  Mg1  1  0.27163300  0.27285300  0.78688200  1
  Mg  Mg2  1  0.72836700  0.72714700  0.21311800  1
  Fe  Fe0  1  0.37932500  0.95671400  0.60525100  1
  Fe  Fe1  1  0.62067500  0.04328600  0.39474900  1
  Fe  Fe2  1  0.04563700  0.19810300  0.01026100  1
  Fe  Fe3  1  0.95436300  0.80189700  0.98973900  1
  Mo  Mo0  1  0.78020500  0.34663800  0.73186500  1
  Mo  Mo1  1  0.21979500  0.65336200  0.26813500  1
  Mo  Mo2  1  0.89687800  0.90010600  0.66551700  1
  Mo  Mo3  1  0.40516400  0.72138500  0.87722900  1
  Mo  Mo4  1  0.10312200  0.09989400  0.33448300  1
  Mo  Mo5  1  0.59483600  0.27861500  0.12277100  1
  O  O0  1  0.88964100  0.68850200  0.56783800  1
  O  O1  1  0.11035900  0.31149800  0.43216200  1
  O  O2  1  0.28450000  0.50354800  0.76312100  1
  O  O3  1  0.71550000  0.49645200  0.23687900  1
  O  O4  1  0.79504900  0.32655100  0.55621600  1
  O  O5  1  0.20495100  0.67344900  0.44378400  1
  O  O6  1  0.66557300  0.96832100  0.58170300  1
  O  O7  1  0.33442700  0.03167900  0.41829700  1
  O  O8  1  0.64576100  0.74062800  0.01242800  1
  O  O9  1  0.35423900  0.25937200  0.98757200  1
  O  O10  1  0.47039400  0.75900800  0.26667000  1
  O  O11  1  0.52960600  0.24099200  0.73333000  1
  O  O12  1  0.14393900  0.03499000  0.65799000  1
  O  O13  1  0.07122500  0.04697600  0.14229800  1
  O  O14  1  0.92877500  0.95302400  0.85770200  1
  O  O15  1  0.55956100  0.15056500  0.23163100  1
  O  O16  1  0.44043900  0.84943500  0.76836900  1
  O  O17  1  0.17174300  0.43729900  0.17533200  1
  O  O18  1  0.82825700  0.56270100  0.82466800  1
  O  O19  1  0.98757900  0.27563700  0.82534400  1
  O  O20  1  0.01242100  0.72436300  0.17465600  1
  O  O21  1  0.23665100  0.78355400  0.96619200  1
  O  O22  1  0.76334900  0.21644600  0.03380800  1
  O  O23  1  0.85606100  0.96501000  0.34201000  1
loop_
_geom_bond_atom_site_label_1
_geom_bond_atom_site_label_2
_geom_bond_distance
_geom_bond_site_symmetry_2
Mg0 O0 1.964695 1_455
Mg0 O1 1.964695 1_555
Mg0 O5 2.140430 1_555
Mg0 O4 2.140430 1_455
Mg1 O12 1.992240 1_555
Mg1 O2 2.015883 1_555
Mg1 O9 2.045990 1_555
Mg1 O11 2.075339 1_555
Mg1 O19 2.137763 1_455
Mg2 O23 1.992240 1_555
Mg2 O3 2.015883 1_555
Mg2 O8 2.045990 1_555
Mg2 O10 2.075339 1_555
Mg2 O20 2.137763 1_655
Fe0 O12 2.048979 1_565
Fe0 O6 2.074700 1_555
Fe0 O16 2.098279 1_555
Fe0 O7 2.149425 1_565
Fe0 O11 2.312240 1_565
Fe0 O5 2.414353 1_555
Fe1 O23 2.048979 1_545
Fe1 O7 2.074700 1_555
Fe1 O15 2.098279 1_555
Fe1 O6 2.149425 1_545
Fe1 O10 2.312240 1_545
Fe1 O4 2.414353 1_555
Fe2 O13 2.090494 1_555
Fe2 O22 2.091762 1_455
Fe2 O14 2.120839 1_444
Fe2 O19 2.141853 1_454
Fe2 O17 2.142664 1_555
Fe2 O9 2.214670 1_554
Fe3 O14 2.090494 1_555
Fe3 O21 2.091762 1_655
Fe3 O13 2.120839 1_666
Fe3 O20 2.141853 1_656
Fe3 O18 2.142664 1_555
Fe3 O8 2.214670 1_556
Mo0 O18 1.759747 1_555
Mo0 O4 1.814675 1_555
Mo0 O11 1.815462 1_555
Mo0 O19 1.826812 1_555
Mo1 O17 1.759747 1_555
Mo1 O5 1.814675 1_555
Mo1 O10 1.815462 1_555
Mo1 O20 1.826812 1_555
Mo2 O0 1.808761 1_555
Mo2 O14 1.868823 1_555
Mo2 O6 1.905252 1_555
Mo2 O12 1.910306 1_665
Mo3 O21 1.759705 1_555
Mo3 O16 1.774367 1_555
Mo3 O2 1.814983 1_555
Mo3 O8 1.845477 1_556
Mo4 O1 1.808761 1_555
Mo4 O13 1.868823 1_555
Mo4 O7 1.905252 1_555
Mo4 O23 1.910306 1_445
Mo5 O22 1.759705 1_555
Mo5 O15 1.774367 1_555
Mo5 O3 1.814983 1_555
Mo5 O9 1.845477 1_554
