# generated using pymatgen
data_K2Gd(BH4)5
_symmetry_space_group_name_H-M   'P 1'
_cell_length_a   8.81438284
_cell_length_b   11.82741014
_cell_length_c   12.56976600
_cell_angle_alpha   90.00000000
_cell_angle_beta   90.00000000
_cell_angle_gamma   105.01920490
_symmetry_Int_Tables_number   1
_chemical_formula_structural   K2Gd(BH4)5
_chemical_formula_sum   'K8 Gd4 B20 H80'
_cell_volume   1265.64965787
_cell_formula_units_Z   4
loop_
 _symmetry_equiv_pos_site_id
 _symmetry_equiv_pos_as_xyz
  1  'x, y, z'
loop_
 _atom_site_type_symbol
 _atom_site_label
 _atom_site_symmetry_multiplicity
 _atom_site_fract_x
 _atom_site_fract_y
 _atom_site_fract_z
 _atom_site_occupancy
  K  K0  1  0.42136900  0.65639400  0.04651600  1
  K  K1  1  0.57863100  0.34360600  0.54651600  1
  K  K2  1  0.57863100  0.34360600  0.95348400  1
  K  K3  1  0.42136900  0.65639400  0.45348400  1
  K  K4  1  0.17878600  0.31082700  0.25000000  1
  K  K5  1  0.82121400  0.68917300  0.75000000  1
  K  K6  1  0.00000000  0.00000000  0.00000000  1
  K  K7  1  0.00000000  0.00000000  0.50000000  1
  Gd  Gd0  1  0.13119800  0.37261100  0.75000000  1
  Gd  Gd1  1  0.86880200  0.62738900  0.25000000  1
  Gd  Gd2  1  0.44037900  0.91327100  0.75000000  1
  Gd  Gd3  1  0.55962100  0.08672900  0.25000000  1
  B  B0  1  0.43845000  0.52202800  0.75000000  1
  B  B1  1  0.56155000  0.47797200  0.25000000  1
  B  B2  1  0.87900100  0.43190400  0.75000000  1
  B  B3  1  0.12099900  0.56809600  0.25000000  1
  B  B4  1  0.04466100  0.15143900  0.75000000  1
  B  B5  1  0.95533900  0.84856100  0.25000000  1
  B  B6  1  0.49752000  0.13392800  0.75000000  1
  B  B7  1  0.50248000  0.86607200  0.25000000  1
  B  B8  1  0.20453600  0.40637700  0.98003700  1
  B  B9  1  0.79546400  0.59362300  0.48003700  1
  B  B10  1  0.79546400  0.59362300  0.01996300  1
  B  B11  1  0.20453600  0.40637700  0.51996300  1
  B  B12  1  0.66512000  0.87143700  0.60691700  1
  B  B13  1  0.33488000  0.12856300  0.10691700  1
  B  B14  1  0.33488000  0.12856300  0.39308300  1
  B  B15  1  0.66512000  0.87143700  0.89308300  1
  B  B16  1  0.21763400  0.83083500  0.60085400  1
  B  B17  1  0.78236600  0.16916500  0.10085400  1
  B  B18  1  0.78236600  0.16916500  0.39914600  1
  B  B19  1  0.21763400  0.83083500  0.89914600  1
  H  H0  1  0.31583400  0.55494400  0.75000000  1
  H  H1  1  0.68416600  0.44505600  0.25000000  1
  H  H2  1  0.40405900  0.41194100  0.75000000  1
  H  H3  1  0.59594100  0.58805900  0.25000000  1
  H  H4  1  0.51199900  0.55658700  0.66935000  1
  H  H5  1  0.48800100  0.44341300  0.16935000  1
  H  H6  1  0.48800100  0.44341300  0.33065000  1
  H  H7  1  0.51199900  0.55658700  0.83065000  1
  H  H8  1  0.75496100  0.45667300  0.75000000  1
  H  H9  1  0.24503900  0.54332700  0.25000000  1
  H  H10  1  0.85746300  0.32467100  0.75000000  1
  H  H11  1  0.14253700  0.67532900  0.25000000  1
  H  H12  1  0.95894300  0.47114800  0.67057600  1
  H  H13  1  0.04105700  0.52885200  0.17057600  1
  H  H14  1  0.04105700  0.52885200  0.32942400  1
  H  H15  1  0.95894300  0.47114800  0.82942400  1
  H  H16  1  0.99048100  0.04696600  0.75000000  1
  H  H17  1  0.00951900  0.95303400  0.25000000  1
  H  H18  1  0.19007600  0.18339000  0.75000000  1
  H  H19  1  0.80992400  0.81661000  0.25000000  1
  H  H20  1  0.99974000  0.19744800  0.67137400  1
  H  H21  1  0.00026000  0.80255200  0.17137400  1
  H  H22  1  0.00026000  0.80255200  0.32862600  1
  H  H23  1  0.99974000  0.19744800  0.82862600  1
  H  H24  1  0.62155900  0.10437800  0.75000000  1
  H  H25  1  0.37844100  0.89562200  0.25000000  1
  H  H26  1  0.51665600  0.23925800  0.75000000  1
  H  H27  1  0.48334400  0.76074200  0.25000000  1
  H  H28  1  0.42179900  0.08915400  0.67077300  1
  H  H29  1  0.57820100  0.91084600  0.17077300  1
  H  H30  1  0.57820100  0.91084600  0.32922700  1
  H  H31  1  0.42179900  0.08915400  0.82922700  1
  H  H32  1  0.15829000  0.49398000  0.99445000  1
  H  H33  1  0.84171000  0.50602000  0.49445000  1
  H  H34  1  0.84171000  0.50602000  0.00555000  1
  H  H35  1  0.15829000  0.49398000  0.50555000  1
  H  H36  1  0.09796400  0.31744500  0.98630100  1
  H  H37  1  0.90203600  0.68255500  0.48630100  1
  H  H38  1  0.90203600  0.68255500  0.01369900  1
  H  H39  1  0.09796400  0.31744500  0.51369900  1
  H  H40  1  0.27217100  0.41495300  0.89354300  1
  H  H41  1  0.72782900  0.58504700  0.39354300  1
  H  H42  1  0.72782900  0.58504700  0.10645700  1
  H  H43  1  0.27217100  0.41495300  0.60645700  1
  H  H44  1  0.31201300  0.40249800  0.04117200  1
  H  H45  1  0.68798700  0.59750200  0.54117200  1
  H  H46  1  0.68798700  0.59750200  0.95882800  1
  H  H47  1  0.31201300  0.40249800  0.45882800  1
  H  H48  1  0.79771900  0.87902700  0.63935800  1
  H  H49  1  0.20228100  0.12097300  0.13935800  1
  H  H50  1  0.20228100  0.12097300  0.36064200  1
  H  H51  1  0.79771900  0.87902700  0.86064200  1
  H  H52  1  0.63497600  0.96638600  0.62304300  1
  H  H53  1  0.36502400  0.03361400  0.12304300  1
  H  H54  1  0.36502400  0.03361400  0.37695700  1
  H  H55  1  0.63497600  0.96638600  0.87695700  1
  H  H56  1  0.65193400  0.85116100  0.51205400  1
  H  H57  1  0.34806600  0.14883900  0.01205400  1
  H  H58  1  0.34806600  0.14883900  0.48794600  1
  H  H59  1  0.65193400  0.85116100  0.98794600  1
  H  H60  1  0.57354800  0.79126400  0.65676400  1
  H  H61  1  0.42645200  0.20873600  0.15676400  1
  H  H62  1  0.42645200  0.20873600  0.34323600  1
  H  H63  1  0.57354800  0.79126400  0.84323600  1
  H  H64  1  0.16868300  0.83156000  0.51081900  1
  H  H65  1  0.83131700  0.16844000  0.01081900  1
  H  H66  1  0.83131700  0.16844000  0.48918100  1
  H  H67  1  0.16868300  0.83156000  0.98918100  1
  H  H68  1  0.22399200  0.92620300  0.64505200  1
  H  H69  1  0.77600800  0.07379700  0.14505200  1
  H  H70  1  0.77600800  0.07379700  0.35494800  1
  H  H71  1  0.22399200  0.92620300  0.85494800  1
  H  H72  1  0.14118500  0.75054100  0.65460200  1
  H  H73  1  0.85881500  0.24945900  0.15460200  1
  H  H74  1  0.85881500  0.24945900  0.34539800  1
  H  H75  1  0.14118500  0.75054100  0.84539800  1
  H  H76  1  0.35359500  0.82113000  0.59368000  1
  H  H77  1  0.64640500  0.17887000  0.09368000  1
  H  H78  1  0.64640500  0.17887000  0.40632000  1
  H  H79  1  0.35359500  0.82113000  0.90632000  1
loop_
_geom_bond_atom_site_label_1
_geom_bond_atom_site_label_2
_geom_bond_distance
_geom_bond_site_symmetry_2
Gd0 H43 2.174353 1_555
Gd0 H40 2.174353 1_555
Gd0 H23 2.316736 1_455
Gd0 H20 2.316736 1_455
Gd0 H2 2.328314 1_555
Gd0 H10 2.331109 1_455
Gd0 H0 2.340985 1_555
Gd0 H12 2.361639 1_455
Gd0 H15 2.361639 1_455
Gd0 H18 2.424855 1_555
Gd1 H41 2.174353 1_555
Gd1 H42 2.174353 1_555
Gd1 H22 2.316736 1_655
Gd1 H21 2.316736 1_655
Gd1 H3 2.328314 1_555
Gd1 H11 2.331109 1_655
Gd1 H1 2.340985 1_555
Gd1 H13 2.361639 1_655
Gd1 H14 2.361639 1_655
Gd1 H19 2.424855 1_555
Gd2 H76 2.280698 1_555
Gd2 H79 2.280698 1_555
Gd2 H55 2.307576 1_555
Gd2 H52 2.307576 1_555
Gd2 H31 2.350008 1_565
Gd2 H28 2.350008 1_565
Gd2 H68 2.356410 1_555
Gd2 H71 2.356410 1_555
Gd2 H63 2.389875 1_555
Gd2 H60 2.389875 1_555
Gd2 H24 2.405929 1_565
Gd3 H78 2.280698 1_555
Gd3 H77 2.280698 1_555
Gd3 H53 2.307576 1_555
Gd3 H54 2.307576 1_555
Gd3 H29 2.350008 1_545
Gd3 H30 2.350008 1_545
Gd3 H70 2.356410 1_555
Gd3 H69 2.356410 1_555
Gd3 H62 2.389875 1_555
Gd3 H61 2.389875 1_555
Gd3 H25 2.405929 1_545
B0 H7 1.215609 1_555
B0 H4 1.215609 1_555
B0 H0 1.240053 1_555
B0 H2 1.258032 1_555
B1 H6 1.215609 1_555
B1 H5 1.215609 1_555
B1 H1 1.240053 1_555
B1 H3 1.258032 1_555
B2 H8 1.203000 1_555
B2 H10 1.232804 1_555
B2 H15 1.240617 1_555
B2 H12 1.240617 1_555
B3 H9 1.203000 1_555
B3 H11 1.232804 1_555
B3 H13 1.240617 1_555
B3 H14 1.240617 1_555
B4 H16 1.203763 1_455
B4 H18 1.238803 1_555
B4 H23 1.241501 1_455
B4 H20 1.241501 1_455
B5 H17 1.203763 1_655
B5 H19 1.238803 1_555
B5 H22 1.241501 1_655
B5 H21 1.241501 1_655
B6 H26 1.213060 1_555
B6 H24 1.231081 1_555
B6 H28 1.238734 1_555
B6 H31 1.238734 1_555
B7 H27 1.213060 1_555
B7 H25 1.231081 1_555
B7 H29 1.238734 1_555
B7 H30 1.238734 1_555
B8 H36 1.217731 1_555
B8 H32 1.221237 1_555
B8 H44 1.229882 1_556
B8 H40 1.231414 1_555
B9 H37 1.217731 1_555
B9 H33 1.221237 1_555
B9 H45 1.229882 1_555
B9 H41 1.231414 1_555
B10 H38 1.217731 1_555
B10 H34 1.221237 1_555
B10 H46 1.229882 1_554
B10 H42 1.231414 1_555
B11 H39 1.217731 1_555
B11 H35 1.221237 1_555
B11 H47 1.229882 1_555
B11 H43 1.231414 1_555
B12 H56 1.215896 1_555
B12 H48 1.219017 1_555
B12 H52 1.235905 1_555
B12 H60 1.243604 1_555
B13 H57 1.215896 1_555
B13 H49 1.219017 1_555
B13 H53 1.235905 1_555
B13 H61 1.243604 1_555
B14 H58 1.215896 1_555
B14 H50 1.219017 1_555
B14 H54 1.235905 1_555
B14 H62 1.243604 1_555
B15 H59 1.215896 1_555
B15 H51 1.219017 1_555
B15 H55 1.235905 1_555
B15 H63 1.243604 1_555
B16 H64 1.212001 1_555
B16 H72 1.216846 1_555
B16 H76 1.236444 1_555
B16 H68 1.245516 1_555
B17 H65 1.212001 1_555
B17 H73 1.216846 1_555
B17 H77 1.236444 1_555
B17 H69 1.245516 1_555
B18 H66 1.212001 1_555
B18 H74 1.216846 1_555
B18 H78 1.236444 1_555
B18 H70 1.245516 1_555
B19 H67 1.212001 1_555
B19 H75 1.216846 1_555
B19 H79 1.236444 1_555
B19 H71 1.245516 1_555
H4 K5 2.949605 1_555
H5 K4 2.949605 1_555
H6 K4 2.949605 1_555
H7 K5 2.949605 1_555
H8 K5 2.659048 1_555
H9 K4 2.659048 1_555
H26 K1 2.830940 1_555
H26 K2 2.830940 1_555
H27 K0 2.830940 1_555
H27 K3 2.830940 1_555
H32 K0 2.680830 1_556
H33 K1 2.680830 1_555
H34 K2 2.680830 1_554
H35 K3 2.680830 1_555
H44 K2 2.841001 1_554
H44 K0 2.907065 1_555
H44 K4 2.963929 1_555
H45 K3 2.841001 1_555
H45 K1 2.907065 1_555
H45 K5 2.963929 1_555
H46 K0 2.841001 1_556
H46 K2 2.907065 1_555
H46 K5 2.963929 1_555
H47 K1 2.841001 1_555
H47 K3 2.907065 1_555
H47 K4 2.963929 1_555
H48 K7 2.640541 1_665
H48 K5 2.694487 1_555
H49 K6 2.640541 1_555
H49 K4 2.694487 1_555
H50 K7 2.640541 1_555
H50 K4 2.694487 1_555
H51 K6 2.640541 1_666
H51 K5 2.694487 1_555
H56 K3 2.748152 1_555
H57 K2 2.748152 1_554
H58 K1 2.748152 1_555
H59 K0 2.748152 1_556
H60 K5 2.993865 1_555
H61 K4 2.993865 1_555
H62 K4 2.993865 1_555
H63 K5 2.993865 1_555
H64 K7 2.780878 1_565
H65 K6 2.780878 1_655
H66 K7 2.780878 1_655
H67 K6 2.780878 1_566
H72 K5 2.976260 1_455
H73 K4 2.976260 1_655
H74 K4 2.976260 1_655
H75 K5 2.976260 1_455
H76 K3 2.803899 1_555
H77 K2 2.803899 1_554
H78 K1 2.803899 1_555
H79 K0 2.803899 1_556
