# generated using pymatgen
data_Er3Ga8Au3
_symmetry_space_group_name_H-M   'P 1'
_cell_length_a   8.26501273
_cell_length_b   8.26501273
_cell_length_c   8.26501273
_cell_angle_alpha   149.53278309
_cell_angle_beta   108.81411399
_cell_angle_gamma   79.37278020
_symmetry_Int_Tables_number   1
_chemical_formula_structural   Er3Ga8Au3
_chemical_formula_sum   'Er3 Ga8 Au3'
_cell_volume   265.77825426
_cell_formula_units_Z   1
loop_
 _symmetry_equiv_pos_site_id
 _symmetry_equiv_pos_as_xyz
  1  'x, y, z'
loop_
 _atom_site_type_symbol
 _atom_site_label
 _atom_site_symmetry_multiplicity
 _atom_site_fract_x
 _atom_site_fract_y
 _atom_site_fract_z
 _atom_site_occupancy
  Er  Er0  1  0.50000000  0.50000000  0.00000000  1
  Er  Er1  1  0.19726700  0.19726700  0.00000000  1
  Er  Er2  1  0.80273300  0.80273300  0.00000000  1
  Ga  Ga0  1  0.07532400  0.35715600  0.71816800  1
  Ga  Ga1  1  0.92467600  0.64284400  0.28183200  1
  Ga  Ga2  1  0.63898700  0.35715600  0.28183200  1
  Ga  Ga3  1  0.36101300  0.64284400  0.71816800  1
  Ga  Ga4  1  0.78763500  0.15893800  0.62869700  1
  Ga  Ga5  1  0.21236500  0.84106200  0.37130300  1
  Ga  Ga6  1  0.53024100  0.15893800  0.37130300  1
  Ga  Ga7  1  0.46975900  0.84106200  0.62869700  1
  Au  Au0  1  0.00000000  0.50000000  0.50000000  1
  Au  Au1  1  0.80069400  0.00000000  0.80069400  1
  Au  Au2  1  0.19930600  0.00000000  0.19930600  1
loop_
_geom_bond_atom_site_label_1
_geom_bond_atom_site_label_2
_geom_bond_distance
_geom_bond_site_symmetry_2
Er0 Ga5 3.215111 1_555
Er0 Ga5 3.215111 1_544
Er0 Ga4 3.215111 1_554
Er0 Ga4 3.215111 1_565
Er0 Ga7 3.215111 1_544
Er0 Ga7 3.215111 1_555
Er0 Ga6 3.215111 1_565
Er0 Ga6 3.215111 1_554
Er0 Ga2 3.264016 1_555
Er0 Ga3 3.264016 1_554
Er0 Ga1 3.264016 1_555
Er0 Ga0 3.264016 1_554
Er1 Ga5 3.097600 1_555
Er1 Ga7 3.097600 1_555
Er1 Ga7 3.097600 1_544
Er1 Ga5 3.097600 1_544
Er1 Ga1 3.098563 1_455
Er1 Ga1 3.098563 1_444
Er1 Ga3 3.098563 1_555
Er1 Ga3 3.098566 1_544
Er1 Ga2 3.389504 1_555
Er1 Ga0 3.389511 1_554
Er2 Ga4 3.097600 1_565
Er2 Ga6 3.097600 1_554
Er2 Ga4 3.097600 1_554
Er2 Ga6 3.097600 1_565
Er2 Ga0 3.098563 1_665
Er2 Ga0 3.098563 1_654
Er2 Ga2 3.098563 1_554
Er2 Ga2 3.098566 1_565
Er2 Ga3 3.389504 1_554
Er2 Ga1 3.389511 1_555
Ga0 Ga5 2.632236 1_545
Ga0 Ga5 2.632236 1_556
Ga0 Ga4 2.664353 1_455
Ga1 Ga4 2.632236 1_565
Ga1 Ga4 2.632236 1_554
Ga1 Ga5 2.664353 1_655
Ga2 Ga7 2.632231 1_555
Ga2 Ga7 2.632235 1_544
Ga2 Ga6 2.664348 1_555
Ga3 Ga6 2.632231 1_555
Ga3 Ga6 2.632235 1_566
Ga3 Ga7 2.664348 1_555
Ga4 Ga6 2.476350 1_555
Ga5 Ga7 2.476350 1_555
Au0 Ga0 2.776222 1_555
Au0 Ga1 2.776222 1_455
Au0 Ga2 2.776229 1_455
Au0 Ga3 2.776229 1_555
Au0 Au2 2.897059 1_555
Au0 Au2 2.897059 1_566
Au0 Au1 2.897059 1_454
Au0 Au1 2.897059 1_465
Au0 Er1 3.318604 1_555
Au0 Er1 3.318604 1_566
Au0 Er2 3.318604 1_445
Au0 Er2 3.318604 1_456
Au1 Ga7 2.612644 1_545
Au1 Ga4 2.612644 1_555
Au1 Ga1 2.837405 1_556
Au1 Ga1 2.837405 1_545
Au1 Ga2 2.837408 1_545
Au1 Ga2 2.837411 1_556
Au1 Er1 3.158123 1_656
Au1 Er2 3.158123 1_546
Au2 Ga6 2.612644 1_555
Au2 Ga5 2.612644 1_545
Au2 Ga0 2.837405 1_555
Au2 Ga0 2.837405 1_544
Au2 Ga3 2.837408 1_555
Au2 Ga3 2.837411 1_544
Au2 Er1 3.158123 1_555
Au2 Er2 3.158123 1_445
