# generated using pymatgen
data_Na2Mg5(MoO4)6
_symmetry_space_group_name_H-M   'P 1'
_cell_length_a   7.05431305
_cell_length_b   8.66996664
_cell_length_c   10.40028931
_cell_angle_alpha   106.73021770
_cell_angle_beta   104.63118284
_cell_angle_gamma   103.08364035
_symmetry_Int_Tables_number   1
_chemical_formula_structural   Na2Mg5(MoO4)6
_chemical_formula_sum   'Na2 Mg5 Mo6 O24'
_cell_volume   557.86196645
_cell_formula_units_Z   1
loop_
 _symmetry_equiv_pos_site_id
 _symmetry_equiv_pos_as_xyz
  1  'x, y, z'
loop_
 _atom_site_type_symbol
 _atom_site_label
 _atom_site_symmetry_multiplicity
 _atom_site_fract_x
 _atom_site_fract_y
 _atom_site_fract_z
 _atom_site_occupancy
  Na  Na0  1  0.00517600  0.50243100  0.00671500  1
  Na  Na1  1  0.28586000  0.29221900  0.30050900  1
  Mg  Mg0  1  0.38097400  0.95678100  0.10696300  1
  Mg  Mg1  1  0.62952000  0.04724200  0.89782800  1
  Mg  Mg2  1  0.95482300  0.79697200  0.48145900  1
  Mg  Mg3  1  0.03701300  0.19651700  0.51368800  1
  Mg  Mg4  1  0.72312500  0.72161200  0.69830800  1
  Mo  Mo0  1  0.40682600  0.74224800  0.37504000  1
  Mo  Mo1  1  0.59548300  0.27173800  0.63299100  1
  Mo  Mo2  1  0.88201100  0.90251700  0.16553200  1
  Mo  Mo3  1  0.11436900  0.08660300  0.83005200  1
  Mo  Mo4  1  0.78580700  0.33600600  0.23780000  1
  Mo  Mo5  1  0.22045400  0.66527700  0.76120600  1
  O  O0  1  0.24567000  0.81268300  0.46909200  1
  O  O1  1  0.75336200  0.19535200  0.53824900  1
  O  O2  1  0.66849400  0.96423700  0.07398500  1
  O  O3  1  0.33165900  0.02523500  0.91567100  1
  O  O4  1  0.82544600  0.68507500  0.07782200  1
  O  O5  1  0.15976700  0.30107500  0.92075000  1
  O  O6  1  0.11811200  0.00360100  0.14334700  1
  O  O7  1  0.86957600  0.97082200  0.84052200  1
  O  O8  1  0.44585800  0.85847100  0.26201100  1
  O  O9  1  0.58170400  0.16751900  0.75749500  1
  O  O10  1  0.26450100  0.52982000  0.25847400  1
  O  O11  1  0.71417800  0.50076300  0.72560100  1
  O  O12  1  0.79256100  0.29147900  0.05881300  1
  O  O13  1  0.22371300  0.70619400  0.94079800  1
  O  O14  1  0.83288400  0.55629800  0.32836900  1
  O  O15  1  0.15780800  0.44463800  0.67200500  1
  O  O16  1  0.91832900  0.94024800  0.35373500  1
  O  O17  1  0.07958800  0.05618400  0.64523800  1
  O  O18  1  0.97618500  0.26770500  0.33958500  1
  O  O19  1  0.01797000  0.73537900  0.66721400  1
  O  O20  1  0.64920500  0.74980900  0.50514000  1
  O  O21  1  0.34258200  0.23237700  0.51130300  1
  O  O22  1  0.53470100  0.21845200  0.22794200  1
  O  O23  1  0.47470900  0.76841800  0.75874700  1
loop_
_geom_bond_atom_site_label_1
_geom_bond_atom_site_label_2
_geom_bond_distance
_geom_bond_site_symmetry_2
Na0 O4 2.317408 1_455
Na0 O5 2.343533 1_554
Na0 O12 2.372200 1_455
Na0 O13 2.442479 1_554
Na0 O10 2.698946 1_555
Na1 O22 2.227051 1_555
Na1 O10 2.254581 1_555
Na1 O18 2.295779 1_455
Na1 O21 2.353983 1_555
Na1 O6 2.379280 1_555
Mg0 O8 2.032574 1_555
Mg0 O6 2.086450 1_565
Mg0 O22 2.111734 1_565
Mg0 O2 2.130840 1_555
Mg0 O13 2.171632 1_554
Mg0 O3 2.203397 1_564
Mg1 O9 2.029321 1_555
Mg1 O7 2.110076 1_545
Mg1 O12 2.119751 1_556
Mg1 O3 2.126444 1_555
Mg1 O2 2.131715 1_546
Mg1 O23 2.263249 1_545
Mg2 O14 2.052249 1_555
Mg2 O0 2.064352 1_655
Mg2 O16 2.072661 1_555
Mg2 O19 2.117252 1_655
Mg2 O20 2.191569 1_555
Mg2 O17 2.206772 1_665
Mg3 O18 2.052943 1_455
Mg3 O1 2.078403 1_455
Mg3 O17 2.087726 1_555
Mg3 O21 2.114670 1_555
Mg3 O15 2.118225 1_555
Mg3 O16 2.175121 1_445
Mg4 O11 2.004518 1_555
Mg4 O20 2.044262 1_555
Mg4 O7 2.073857 1_555
Mg4 O23 2.088614 1_555
Mg4 O19 2.166693 1_655
Mo0 O10 1.769800 1_555
Mo0 O0 1.776046 1_555
Mo0 O8 1.786876 1_555
Mo0 O20 1.867621 1_555
Mo1 O1 1.778349 1_555
Mo1 O9 1.788866 1_555
Mo1 O21 1.798898 1_555
Mo1 O11 1.819423 1_555
Mo2 O4 1.740927 1_555
Mo2 O6 1.801388 1_665
Mo2 O16 1.828661 1_555
Mo2 O2 1.842634 1_555
Mo3 O5 1.737211 1_555
Mo3 O17 1.806903 1_555
Mo3 O7 1.837015 1_445
Mo3 O3 1.837945 1_555
Mo4 O14 1.778874 1_555
Mo4 O22 1.793812 1_555
Mo4 O12 1.804422 1_555
Mo4 O18 1.810424 1_555
Mo5 O15 1.761727 1_555
Mo5 O13 1.791150 1_555
Mo5 O23 1.824135 1_555
Mo5 O19 1.842548 1_555
