# generated using pymatgen
data_MgMnO2
_symmetry_space_group_name_H-M   'P 1'
_cell_length_a   3.07292500
_cell_length_b   5.33273000
_cell_length_c   10.42373900
_cell_angle_alpha   90.00000000
_cell_angle_beta   90.00000000
_cell_angle_gamma   90.00000000
_symmetry_Int_Tables_number   1
_chemical_formula_structural   MgMnO2
_chemical_formula_sum   'Mg4 Mn4 O8'
_cell_volume   170.81463796
_cell_formula_units_Z   4
loop_
 _symmetry_equiv_pos_site_id
 _symmetry_equiv_pos_as_xyz
  1  'x, y, z'
loop_
 _atom_site_type_symbol
 _atom_site_label
 _atom_site_symmetry_multiplicity
 _atom_site_fract_x
 _atom_site_fract_y
 _atom_site_fract_z
 _atom_site_occupancy
  Mg  Mg0  1  0.25000000  0.42104000  0.62229500  1
  Mg  Mg1  1  0.75000000  0.57896000  0.37770500  1
  Mg  Mg2  1  0.75000000  0.92104000  0.87770500  1
  Mg  Mg3  1  0.25000000  0.07896000  0.12229500  1
  Mn  Mn0  1  0.25000000  0.08098400  0.37866200  1
  Mn  Mn1  1  0.25000000  0.41901600  0.87866200  1
  Mn  Mn2  1  0.75000000  0.58098400  0.12133800  1
  Mn  Mn3  1  0.75000000  0.91901600  0.62133800  1
  O  O0  1  0.25000000  0.41214200  0.25369500  1
  O  O1  1  0.75000000  0.58785800  0.74630500  1
  O  O2  1  0.75000000  0.91214200  0.24630500  1
  O  O3  1  0.25000000  0.08785800  0.75369500  1
  O  O4  1  0.25000000  0.76507500  0.99401700  1
  O  O5  1  0.75000000  0.23492500  0.00598300  1
  O  O6  1  0.25000000  0.73492500  0.49401700  1
  O  O7  1  0.75000000  0.26507500  0.50598300  1
loop_
_geom_bond_atom_site_label_1
_geom_bond_atom_site_label_2
_geom_bond_distance
_geom_bond_site_symmetry_2
Mg0 O7 2.126594 1_455
Mg0 O7 2.126594 1_555
Mg0 O6 2.142371 1_555
Mg0 O1 2.196141 1_555
Mg0 O1 2.196141 1_455
Mg0 O3 2.243420 1_555
Mg1 O6 2.126594 1_555
Mg1 O6 2.126594 1_655
Mg1 O7 2.142371 1_555
Mg1 O0 2.196141 1_555
Mg1 O0 2.196141 1_655
Mg1 O2 2.243420 1_555
Mg2 O4 2.126594 1_655
Mg2 O4 2.126594 1_555
Mg2 O5 2.142371 1_566
Mg2 O3 2.196141 1_565
Mg2 O3 2.196141 1_665
Mg2 O1 2.243420 1_555
Mg3 O5 2.126594 1_555
Mg3 O5 2.126594 1_455
Mg3 O4 2.142371 1_544
Mg3 O2 2.196141 1_445
Mg3 O2 2.196141 1_545
Mg3 O0 2.243420 1_555
Mn0 O0 2.194425 1_555
Mn0 O6 2.202609 1_545
Mn0 O2 2.252746 1_545
Mn0 O2 2.252746 1_445
Mn0 O7 2.255177 1_455
Mn0 O7 2.255177 1_555
Mn1 O3 2.194425 1_555
Mn1 O4 2.202609 1_555
Mn1 O1 2.252746 1_555
Mn1 O1 2.252746 1_455
Mn1 O5 2.255177 1_456
Mn1 O5 2.255177 1_556
Mn2 O2 2.194425 1_555
Mn2 O5 2.202609 1_555
Mn2 O0 2.252746 1_655
Mn2 O0 2.252746 1_555
Mn2 O4 2.255177 1_654
Mn2 O4 2.255177 1_554
Mn3 O1 2.194425 1_555
Mn3 O7 2.202609 1_565
Mn3 O3 2.252746 1_665
Mn3 O3 2.252746 1_565
Mn3 O6 2.255177 1_655
Mn3 O6 2.255177 1_555
