# generated using pymatgen
data_InAs(H2O3)2
_symmetry_space_group_name_H-M   'P 1'
_cell_length_a   9.19807900
_cell_length_b   10.49429200
_cell_length_c   10.79799500
_cell_angle_alpha   90.00000000
_cell_angle_beta   90.00000000
_cell_angle_gamma   90.00000000
_symmetry_Int_Tables_number   1
_chemical_formula_structural   InAs(H2O3)2
_chemical_formula_sum   'In8 As8 H32 O48'
_cell_volume   1042.30159285
_cell_formula_units_Z   8
loop_
 _symmetry_equiv_pos_site_id
 _symmetry_equiv_pos_as_xyz
  1  'x, y, z'
loop_
 _atom_site_type_symbol
 _atom_site_label
 _atom_site_symmetry_multiplicity
 _atom_site_fract_x
 _atom_site_fract_y
 _atom_site_fract_z
 _atom_site_occupancy
  In  In0  1  0.35263400  0.81491400  0.62569500  1
  In  In1  1  0.85263400  0.68508600  0.37430500  1
  In  In2  1  0.64736600  0.31491400  0.87430500  1
  In  In3  1  0.14736600  0.18508600  0.12569500  1
  In  In4  1  0.64736600  0.18508600  0.37430500  1
  In  In5  1  0.14736600  0.31491400  0.62569500  1
  In  In6  1  0.35263400  0.68508600  0.12569500  1
  In  In7  1  0.85263400  0.81491400  0.87430500  1
  As  As0  1  0.03492500  0.63089300  0.65451600  1
  As  As1  1  0.53492500  0.86910700  0.34548400  1
  As  As2  1  0.96507500  0.13089300  0.84548400  1
  As  As3  1  0.46507500  0.36910700  0.15451600  1
  As  As4  1  0.96507500  0.36910700  0.34548400  1
  As  As5  1  0.46507500  0.13089300  0.65451600  1
  As  As6  1  0.03492500  0.86910700  0.15451600  1
  As  As7  1  0.53492500  0.63089300  0.84548400  1
  H  H0  1  0.13273200  0.59157400  0.96461200  1
  H  H1  1  0.63273200  0.90842600  0.03538800  1
  H  H2  1  0.86726800  0.09157400  0.53538800  1
  H  H3  1  0.36726800  0.40842600  0.46461200  1
  H  H4  1  0.86726800  0.40842600  0.03538800  1
  H  H5  1  0.36726800  0.09157400  0.96461200  1
  H  H6  1  0.13273200  0.90842600  0.46461200  1
  H  H7  1  0.63273200  0.59157400  0.53538800  1
  H  H8  1  0.19961600  0.47979900  0.05301500  1
  H  H9  1  0.69961600  0.02020100  0.94698500  1
  H  H10  1  0.80038400  0.97979900  0.44698500  1
  H  H11  1  0.30038400  0.52020100  0.55301500  1
  H  H12  1  0.80038400  0.52020100  0.94698500  1
  H  H13  1  0.30038400  0.97979900  0.05301500  1
  H  H14  1  0.19961600  0.02020100  0.55301500  1
  H  H15  1  0.69961600  0.47979900  0.44698500  1
  H  H16  1  0.31798200  0.67558900  0.36837500  1
  H  H17  1  0.81798200  0.82441100  0.63162500  1
  H  H18  1  0.68201800  0.17558900  0.13162500  1
  H  H19  1  0.18201800  0.32441100  0.86837500  1
  H  H20  1  0.68201800  0.32441100  0.63162500  1
  H  H21  1  0.18201800  0.17558900  0.36837500  1
  H  H22  1  0.31798200  0.82441100  0.86837500  1
  H  H23  1  0.81798200  0.67558900  0.13162500  1
  H  H24  1  0.17362000  0.59172600  0.32281300  1
  H  H25  1  0.67362000  0.90827400  0.67718700  1
  H  H26  1  0.82638000  0.09172600  0.17718700  1
  H  H27  1  0.32638000  0.40827400  0.82281300  1
  H  H28  1  0.82638000  0.40827400  0.67718700  1
  H  H29  1  0.32638000  0.09172600  0.32281300  1
  H  H30  1  0.17362000  0.90827400  0.82281300  1
  H  H31  1  0.67362000  0.59172600  0.17718700  1
  O  O0  1  0.01864400  0.68630000  0.80360500  1
  O  O1  1  0.51864400  0.81370000  0.19639500  1
  O  O2  1  0.98135600  0.18630000  0.69639500  1
  O  O3  1  0.48135600  0.31370000  0.30360500  1
  O  O4  1  0.98135600  0.31370000  0.19639500  1
  O  O5  1  0.48135600  0.18630000  0.80360500  1
  O  O6  1  0.01864400  0.81370000  0.30360500  1
  O  O7  1  0.51864400  0.68630000  0.69639500  1
  O  O8  1  0.91709200  0.71882400  0.56304400  1
  O  O9  1  0.41709200  0.78117600  0.43695600  1
  O  O10  1  0.08290800  0.21882400  0.93695600  1
  O  O11  1  0.58290800  0.28117600  0.06304400  1
  O  O12  1  0.08290800  0.28117600  0.43695600  1
  O  O13  1  0.58290800  0.21882400  0.56304400  1
  O  O14  1  0.91709200  0.78117600  0.06304400  1
  O  O15  1  0.41709200  0.71882400  0.93695600  1
  O  O16  1  0.21219200  0.64946200  0.60414900  1
  O  O17  1  0.71219200  0.85053800  0.39585100  1
  O  O18  1  0.78780800  0.14946200  0.89585100  1
  O  O19  1  0.28780800  0.35053800  0.10414900  1
  O  O20  1  0.78780800  0.35053800  0.39585100  1
  O  O21  1  0.28780800  0.14946200  0.60414900  1
  O  O22  1  0.21219200  0.85053800  0.10414900  1
  O  O23  1  0.71219200  0.64946200  0.89585100  1
  O  O24  1  0.99150900  0.47135100  0.64113700  1
  O  O25  1  0.49150900  0.02864900  0.35886300  1
  O  O26  1  0.00849100  0.97135100  0.85886300  1
  O  O27  1  0.50849100  0.52864900  0.14113700  1
  O  O28  1  0.00849100  0.52864900  0.35886300  1
  O  O29  1  0.50849100  0.97135100  0.64113700  1
  O  O30  1  0.99150900  0.02864900  0.14113700  1
  O  O31  1  0.49150900  0.47135100  0.85886300  1
  O  O32  1  0.16588200  0.57079900  0.04875200  1
  O  O33  1  0.66588200  0.92920100  0.95124800  1
  O  O34  1  0.83411800  0.07079900  0.45124800  1
  O  O35  1  0.33411800  0.42920100  0.54875200  1
  O  O36  1  0.83411800  0.42920100  0.95124800  1
  O  O37  1  0.33411800  0.07079900  0.04875200  1
  O  O38  1  0.16588200  0.92920100  0.54875200  1
  O  O39  1  0.66588200  0.57079900  0.45124800  1
  O  O40  1  0.27778600  0.61307800  0.30574400  1
  O  O41  1  0.77778600  0.88692200  0.69425600  1
  O  O42  1  0.72221400  0.11307800  0.19425600  1
  O  O43  1  0.22221400  0.38692200  0.80574400  1
  O  O44  1  0.72221400  0.38692200  0.69425600  1
  O  O45  1  0.22221400  0.11307800  0.30574400  1
  O  O46  1  0.27778600  0.88692200  0.80574400  1
  O  O47  1  0.77778600  0.61307800  0.19425600  1
loop_
_geom_bond_atom_site_label_1
_geom_bond_atom_site_label_2
_geom_bond_distance
_geom_bond_site_symmetry_2
In0 O9 2.151820 1_555
In0 O7 2.176276 1_555
In0 O16 2.176605 1_555
In0 O29 2.185894 1_555
In0 O46 2.196544 1_555
In0 O38 2.253762 1_555
In1 O8 2.151820 1_555
In1 O6 2.176276 1_655
In1 O17 2.176605 1_555
In1 O28 2.185894 1_655
In1 O47 2.196544 1_555
In1 O39 2.253762 1_555
In2 O11 2.151820 1_556
In2 O5 2.176276 1_555
In2 O18 2.176605 1_555
In2 O31 2.185894 1_555
In2 O44 2.196544 1_555
In2 O36 2.253762 1_555
In3 O10 2.151820 1_554
In3 O4 2.176276 1_455
In3 O19 2.176605 1_555
In3 O30 2.185894 1_455
In3 O45 2.196544 1_555
In3 O37 2.253762 1_555
In4 O13 2.151820 1_555
In4 O3 2.176276 1_555
In4 O20 2.176605 1_555
In4 O25 2.185894 1_555
In4 O42 2.196544 1_555
In4 O34 2.253762 1_555
In5 O12 2.151820 1_555
In5 O2 2.176276 1_455
In5 O21 2.176605 1_555
In5 O24 2.185894 1_455
In5 O43 2.196544 1_555
In5 O35 2.253762 1_555
In6 O15 2.151820 1_554
In6 O1 2.176276 1_555
In6 O22 2.176605 1_555
In6 O27 2.185894 1_555
In6 O40 2.196544 1_555
In6 O32 2.253762 1_555
In7 O14 2.151820 1_556
In7 O0 2.176276 1_655
In7 O23 2.176605 1_555
In7 O26 2.185894 1_655
In7 O41 2.196544 1_555
In7 O33 2.253762 1_555
As0 O0 1.718190 1_555
As0 O24 1.727299 1_455
As0 O16 1.729839 1_555
As0 O8 1.732568 1_455
As1 O1 1.718190 1_555
As1 O25 1.727299 1_565
As1 O17 1.729839 1_555
As1 O9 1.732568 1_555
As2 O2 1.718190 1_555
As2 O26 1.727299 1_645
As2 O18 1.729839 1_555
As2 O10 1.732568 1_655
As3 O3 1.718190 1_555
As3 O27 1.727299 1_555
As3 O19 1.729839 1_555
As3 O11 1.732568 1_555
As4 O4 1.718190 1_555
As4 O28 1.727299 1_655
As4 O20 1.729839 1_555
As4 O12 1.732568 1_655
As5 O5 1.718190 1_555
As5 O29 1.727299 1_545
As5 O21 1.729839 1_555
As5 O13 1.732568 1_555
As6 O6 1.718190 1_555
As6 O30 1.727299 1_465
As6 O22 1.729839 1_555
As6 O14 1.732568 1_455
As7 O7 1.718190 1_555
As7 O31 1.727299 1_555
As7 O23 1.729839 1_555
As7 O15 1.732568 1_555
H0 O32 0.982831 1_556
H1 O33 0.982831 1_554
H2 O34 0.982831 1_555
H3 O35 0.982831 1_555
H4 O36 0.982831 1_554
H5 O37 0.982831 1_556
H6 O38 0.982831 1_555
H7 O39 0.982831 1_555
H8 O32 1.005179 1_555
H8 O19 1.674217 1_555
H9 O33 1.005179 1_545
H9 O18 1.674217 1_555
H10 O34 1.005179 1_565
H10 O17 1.674217 1_555
H11 O35 1.005179 1_555
H11 O16 1.674217 1_555
H12 O36 1.005179 1_555
H12 O23 1.674217 1_555
H13 O37 1.005179 1_565
H13 O22 1.674217 1_555
H14 O38 1.005179 1_545
H14 O21 1.674217 1_555
H15 O39 1.005179 1_555
H15 O20 1.674217 1_555
H16 O40 1.012132 1_555
H16 O9 1.614698 1_555
H17 O41 1.012132 1_555
H17 O8 1.614698 1_555
H18 O42 1.012132 1_555
H18 O11 1.614698 1_555
H19 O43 1.012132 1_555
H19 O10 1.614698 1_555
H20 O44 1.012132 1_555
H20 O13 1.614698 1_555
H21 O45 1.012132 1_555
H21 O12 1.614698 1_555
H22 O46 1.012132 1_555
H22 O15 1.614698 1_555
H23 O47 1.012132 1_555
H23 O14 1.614698 1_555
H24 O40 1.001093 1_555
H24 O28 1.701961 1_555
H25 O41 1.001093 1_555
H25 O29 1.701961 1_555
H26 O42 1.001093 1_555
H26 O30 1.701961 1_555
H27 O43 1.001093 1_555
H27 O31 1.701961 1_555
H28 O44 1.001093 1_555
H28 O24 1.701961 1_555
H29 O45 1.001093 1_555
H29 O25 1.701961 1_555
H30 O46 1.001093 1_555
H30 O26 1.701961 1_555
H31 O47 1.001093 1_555
H31 O27 1.701961 1_555
