# generated using pymatgen
data_TbAu6
_symmetry_space_group_name_H-M   'P 1'
_cell_length_a   10.41224047
_cell_length_b   10.41224047
_cell_length_c   9.84007697
_cell_angle_alpha   90.00000000
_cell_angle_beta   90.00000000
_cell_angle_gamma   90.00000000
_symmetry_Int_Tables_number   1
_chemical_formula_structural   TbAu6
_chemical_formula_sum   'Tb8 Au48'
_cell_volume   1066.80950048
_cell_formula_units_Z   8
loop_
 _symmetry_equiv_pos_site_id
 _symmetry_equiv_pos_as_xyz
  1  'x, y, z'
loop_
 _atom_site_type_symbol
 _atom_site_label
 _atom_site_symmetry_multiplicity
 _atom_site_fract_x
 _atom_site_fract_y
 _atom_site_fract_z
 _atom_site_occupancy
  Tb  Tb0  1  0.32360381  0.82360381  0.03923629  1
  Tb  Tb1  1  0.67639619  0.82360381  0.53923629  1
  Tb  Tb2  1  0.32360381  0.17639619  0.53923629  1
  Tb  Tb3  1  0.67639619  0.17639619  0.03923629  1
  Tb  Tb4  1  0.17639619  0.67639619  0.46076371  1
  Tb  Tb5  1  0.82360381  0.67639619  0.96076371  1
  Tb  Tb6  1  0.17639619  0.32360381  0.96076371  1
  Tb  Tb7  1  0.82360381  0.32360381  0.46076371  1
  Au  Au0  1  0.93003820  0.76395789  0.67263149  1
  Au  Au1  1  0.06996180  0.76395789  0.17263149  1
  Au  Au2  1  0.93003820  0.23604211  0.17263149  1
  Au  Au3  1  0.06996180  0.23604211  0.67263149  1
  Au  Au4  1  0.26395789  0.43003820  0.67263149  1
  Au  Au5  1  0.26395789  0.56996180  0.17263149  1
  Au  Au6  1  0.73604211  0.43003820  0.17263149  1
  Au  Au7  1  0.73604211  0.56996180  0.67263149  1
  Au  Au8  1  0.56996180  0.73604211  0.82736851  1
  Au  Au9  1  0.43003820  0.73604211  0.32736851  1
  Au  Au10  1  0.56996180  0.26395789  0.32736851  1
  Au  Au11  1  0.43003820  0.26395789  0.82736851  1
  Au  Au12  1  0.23604211  0.06996180  0.82736851  1
  Au  Au13  1  0.23604211  0.93003820  0.32736851  1
  Au  Au14  1  0.76395789  0.06996180  0.32736851  1
  Au  Au15  1  0.76395789  0.93003820  0.82736851  1
  Au  Au16  1  0.87256172  0.05372086  0.60363767  1
  Au  Au17  1  0.12743828  0.05372086  0.10363767  1
  Au  Au18  1  0.87256172  0.94627914  0.10363767  1
  Au  Au19  1  0.12743828  0.94627914  0.60363767  1
  Au  Au20  1  0.55372086  0.37256172  0.60363767  1
  Au  Au21  1  0.55372086  0.62743828  0.10363767  1
  Au  Au22  1  0.44627914  0.37256172  0.10363767  1
  Au  Au23  1  0.44627914  0.62743828  0.60363767  1
  Au  Au24  1  0.62743828  0.44627914  0.89636233  1
  Au  Au25  1  0.37256172  0.44627914  0.39636233  1
  Au  Au26  1  0.62743828  0.55372086  0.39636233  1
  Au  Au27  1  0.37256172  0.55372086  0.89636233  1
  Au  Au28  1  0.94627914  0.12743828  0.89636233  1
  Au  Au29  1  0.94627914  0.87256172  0.39636233  1
  Au  Au30  1  0.05372086  0.12743828  0.39636233  1
  Au  Au31  1  0.05372086  0.87256172  0.89636233  1
  Au  Au32  1  0.39877043  0.89877043  0.57113258  1
  Au  Au33  1  0.60122957  0.89877043  0.07113258  1
  Au  Au34  1  0.39877043  0.10122957  0.07113258  1
  Au  Au35  1  0.60122957  0.10122957  0.57113258  1
  Au  Au36  1  0.10122957  0.60122957  0.92886742  1
  Au  Au37  1  0.89877043  0.60122957  0.42886742  1
  Au  Au38  1  0.10122957  0.39877043  0.42886742  1
  Au  Au39  1  0.89877043  0.39877043  0.92886742  1
  Au  Au40  1  0.50000000  -0.00000000  0.31815113  1
  Au  Au41  1  0.50000000  -0.00000000  0.81815113  1
  Au  Au42  1  -0.00000000  0.50000000  0.18184887  1
  Au  Au43  1  -0.00000000  0.50000000  0.68184887  1
  Au  Au44  1  0.25000000  0.75000000  0.75000000  1
  Au  Au45  1  0.75000000  0.75000000  0.25000000  1
  Au  Au46  1  0.25000000  0.25000000  0.25000000  1
  Au  Au47  1  0.75000000  0.25000000  0.75000000  1
loop_
_geom_bond_atom_site_label_1
_geom_bond_atom_site_label_2
_geom_bond_distance
_geom_bond_site_symmetry_2
Au0 Au31 2.789968 1_655
Au0 Au43 2.844740 1_655
Au0 Au19 2.879115 1_655
Au0 Au29 2.949173 1_555
Au0 Tb1 3.013877 1_555
Au0 Au16 3.149896 1_565
Au0 Tb5 3.177732 1_555
Au0 Tb4 3.428925 1_655
Au1 Au29 2.789968 1_455
Au1 Au42 2.844740 1_555
Au1 Au18 2.879115 1_455
Au1 Au31 2.949173 1_554
Au1 Tb0 3.013877 1_555
Au1 Au17 3.149896 1_565
Au1 Tb4 3.177732 1_555
Au1 Tb5 3.428925 1_454
Au2 Au30 2.789968 1_655
Au2 Au42 2.844740 1_655
Au2 Au28 2.949173 1_554
Au2 Tb3 3.013877 1_555
Au2 Tb7 3.177732 1_555
Au2 Tb6 3.428925 1_654
Au3 Au43 2.844740 1_555
Au3 Au30 2.949173 1_555
Au3 Tb2 3.013877 1_555
Au3 Tb6 3.177732 1_555
Au3 Tb7 3.428925 1_455
Au4 Au43 2.844740 1_555
Au4 Tb2 3.013877 1_555
Au4 Tb6 3.177732 1_555
Au4 Tb4 3.428925 1_555
Au5 Tb0 3.013877 1_555
Au5 Tb4 3.177732 1_555
Au5 Tb6 3.428925 1_554
Au6 Tb3 3.013877 1_555
Au6 Tb7 3.177732 1_555
Au6 Tb5 3.428925 1_554
Au7 Tb1 3.013877 1_555
Au7 Tb5 3.177732 1_555
Au7 Tb7 3.428925 1_555
Au8 Tb5 3.013877 1_555
Au8 Tb1 3.177732 1_555
Au8 Tb0 3.428925 1_556
Au9 Tb4 3.013877 1_555
Au9 Tb0 3.177732 1_555
Au9 Tb1 3.428925 1_555
Au10 Au22 2.789968 1_555
Au10 Au40 2.844740 1_555
Au10 Au25 2.879115 1_555
Au10 Au20 2.949173 1_555
Au10 Tb7 3.013877 1_555
Au10 Au26 3.149896 1_555
Au10 Tb3 3.177732 1_555
Au10 Tb2 3.428925 1_555
Au11 Au20 2.789968 1_555
Au11 Au41 2.844740 1_555
Au11 Au24 2.879115 1_555
Au11 Au22 2.949173 1_556
Au11 Tb6 3.013877 1_555
Au11 Au27 3.149896 1_555
Au11 Tb2 3.177732 1_555
Au11 Tb3 3.428925 1_556
Au12 Au19 2.789968 1_545
Au12 Au41 2.844740 1_555
Au12 Au31 2.879115 1_545
Au12 Au17 2.949173 1_556
Au12 Tb6 3.013877 1_555
Au12 Au28 3.149896 1_455
Au12 Tb2 3.177732 1_555
Au12 Tb0 3.428925 1_546
Au13 Au17 2.789968 1_565
Au13 Au40 2.844740 1_565
Au13 Au30 2.879115 1_565
Au13 Au19 2.949173 1_555
Au13 Tb4 3.013877 1_555
Au13 Au29 3.149896 1_455
Au13 Tb0 3.177732 1_555
Au13 Tb2 3.428925 1_565
Au14 Au18 2.789968 1_545
Au14 Au40 2.844740 1_555
Au14 Au29 2.879115 1_545
Au14 Au16 2.949173 1_555
Au14 Tb7 3.013877 1_555
Au14 Au30 3.149896 1_655
Au14 Tb3 3.177732 1_555
Au14 Tb1 3.428925 1_545
Au15 Au16 2.789968 1_565
Au15 Au41 2.844740 1_565
Au15 Au28 2.879115 1_565
Au15 Au18 2.949173 1_556
Au15 Tb5 3.013877 1_555
Au15 Au31 3.149896 1_655
Au15 Tb1 3.177732 1_555
Au15 Tb3 3.428925 1_566
Au16 Au47 2.807044 1_555
Au16 Au3 2.879115 1_655
Au16 Au19 2.879992 1_645
Au16 Au29 2.882216 1_545
Au16 Au30 2.882216 1_655
Au16 Au35 2.885935 1_555
Au16 Au28 3.078182 1_555
Au16 Tb7 3.183233 1_555
Au16 Tb1 3.211615 1_545
Au17 Au46 2.807044 1_555
Au17 Au2 2.879115 1_455
Au17 Au18 2.879992 1_445
Au17 Au28 2.882216 1_454
Au17 Au31 2.882216 1_544
Au17 Au34 2.885935 1_555
Au17 Au30 3.078182 1_555
Au17 Tb6 3.183233 1_554
Au17 Tb0 3.211615 1_545
Au18 Au45 2.807044 1_555
Au18 Au28 2.882216 1_564
Au18 Au31 2.882216 1_654
Au18 Au33 2.885935 1_555
Au18 Au29 3.078182 1_555
Au18 Au2 3.149896 1_565
Au18 Tb5 3.183233 1_554
Au18 Tb3 3.211615 1_565
Au19 Au44 2.807044 1_555
Au19 Au29 2.882216 1_455
Au19 Au30 2.882216 1_565
Au19 Au32 2.885935 1_555
Au19 Au31 3.078182 1_555
Au19 Au3 3.149896 1_565
Au19 Tb4 3.183233 1_555
Au19 Tb2 3.211615 1_565
Au20 Au47 2.807044 1_555
Au20 Au7 2.879115 1_555
Au20 Au23 2.879992 1_555
Au20 Au25 2.882216 1_555
Au20 Au26 2.882216 1_555
Au20 Au35 2.885935 1_555
Au20 Au24 3.078182 1_555
Au20 Au4 3.149896 1_555
Au20 Tb7 3.183233 1_555
Au20 Tb2 3.211615 1_555
Au21 Au9 2.789968 1_555
Au21 Au45 2.807044 1_555
Au21 Au6 2.879115 1_555
Au21 Au22 2.879992 1_555
Au21 Au27 2.882216 1_554
Au21 Au24 2.882216 1_554
Au21 Au33 2.885935 1_555
Au21 Au8 2.949173 1_554
Au21 Au26 3.078182 1_555
Au21 Au5 3.149896 1_555
Au21 Tb5 3.183233 1_554
Au21 Tb0 3.211615 1_555
Au22 Au46 2.807044 1_555
Au22 Au5 2.879115 1_555
Au22 Au27 2.882216 1_554
Au22 Au24 2.882216 1_554
Au22 Au34 2.885935 1_555
Au22 Au25 3.078182 1_555
Au22 Au6 3.149896 1_555
Au22 Tb6 3.183233 1_554
Au22 Tb3 3.211615 1_555
Au23 Au8 2.789968 1_555
Au23 Au44 2.807044 1_555
Au23 Au4 2.879115 1_555
Au23 Au25 2.882216 1_555
Au23 Au26 2.882216 1_555
Au23 Au32 2.885935 1_555
Au23 Au9 2.949173 1_555
Au23 Au27 3.078182 1_555
Au23 Au7 3.149896 1_555
Au23 Tb4 3.183233 1_555
Au23 Tb1 3.211615 1_555
Au24 Au7 2.789968 1_555
Au24 Au47 2.807044 1_555
Au24 Au27 2.879992 1_555
Au24 Au39 2.885935 1_555
Au24 Au6 2.949173 1_556
Au24 Au8 3.149896 1_555
Au24 Tb3 3.183233 1_556
Au24 Tb5 3.211615 1_555
Au25 Au5 2.789968 1_555
Au25 Au46 2.807044 1_555
Au25 Au26 2.879992 1_555
Au25 Au38 2.885935 1_555
Au25 Au4 2.949173 1_555
Au25 Au9 3.149896 1_555
Au25 Tb2 3.183233 1_555
Au25 Tb4 3.211615 1_555
Au26 Au6 2.789968 1_555
Au26 Au45 2.807044 1_555
Au26 Au9 2.879115 1_555
Au26 Au37 2.885935 1_555
Au26 Au7 2.949173 1_555
Au26 Tb1 3.183233 1_555
Au26 Tb7 3.211615 1_555
Au27 Au4 2.789968 1_555
Au27 Au44 2.807044 1_555
Au27 Au8 2.879115 1_555
Au27 Au36 2.885935 1_555
Au27 Au5 2.949173 1_556
Au27 Tb0 3.183233 1_556
Au27 Tb6 3.211615 1_555
Au28 Au3 2.789968 1_655
Au28 Au47 2.807044 1_555
Au28 Au31 2.879992 1_645
Au28 Au39 2.885935 1_555
Au28 Tb3 3.183233 1_556
Au28 Tb6 3.211615 1_655
Au29 Au45 2.807044 1_555
Au29 Au30 2.879992 1_665
Au29 Au37 2.885935 1_555
Au29 Tb1 3.183233 1_555
Au29 Tb4 3.211615 1_655
Au30 Au46 2.807044 1_555
Au30 Au38 2.885935 1_555
Au30 Tb2 3.183233 1_555
Au30 Tb7 3.211615 1_455
Au31 Au44 2.807044 1_555
Au31 Au36 2.885935 1_555
Au31 Tb0 3.183233 1_556
Au31 Tb5 3.211615 1_455
Au32 Au41 2.851343 1_565
Au32 Au40 2.901524 1_565
Au32 Tb2 3.011185 1_565
Au32 Tb1 3.011185 1_555
Au32 Tb4 3.449893 1_555
Au33 Au40 2.851343 1_565
Au33 Au41 2.901524 1_564
Au33 Tb3 3.011185 1_565
Au33 Tb0 3.011185 1_555
Au33 Tb5 3.449893 1_554
Au34 Au40 2.851343 1_555
Au34 Au41 2.901524 1_554
Au34 Tb3 3.011185 1_555
Au34 Tb0 3.011185 1_545
Au34 Tb6 3.449893 1_554
Au35 Au41 2.851343 1_555
Au35 Au40 2.901524 1_555
Au35 Tb1 3.011185 1_545
Au35 Tb2 3.011185 1_555
Au35 Tb7 3.449893 1_555
Au36 Au43 2.851343 1_555
Au36 Au42 2.901524 1_556
Au36 Tb5 3.011185 1_455
Au36 Tb6 3.011185 1_555
Au36 Tb0 3.449893 1_556
Au37 Au42 2.851343 1_655
Au37 Au43 2.901524 1_655
Au37 Tb4 3.011185 1_655
Au37 Tb7 3.011185 1_555
Au37 Tb1 3.449893 1_555
Au38 Au42 2.851343 1_555
Au38 Au43 2.901524 1_555
Au38 Tb4 3.011185 1_555
Au38 Tb7 3.011185 1_455
Au38 Tb2 3.449893 1_555
Au39 Au43 2.851343 1_655
Au39 Au42 2.901524 1_656
Au39 Tb5 3.011185 1_555
Au39 Tb6 3.011185 1_655
Au39 Tb3 3.449893 1_556
Au40 Au9 2.844740 1_545
Au40 Tb1 3.388150 1_545
Au40 Tb2 3.388150 1_555
Au41 Au8 2.844740 1_545
Au41 Tb0 3.388150 1_546
Au41 Tb3 3.388150 1_556
Au42 Au5 2.844740 1_555
Au42 Au6 2.844740 1_455
Au42 Tb5 3.388150 1_454
Au42 Tb6 3.388150 1_554
Au43 Au7 2.844740 1_455
Au43 Tb4 3.388150 1_555
Au43 Tb7 3.388150 1_455
Au44 Tb4 3.045489 1_555
Au44 Tb0 3.045489 1_556
Au45 Tb5 3.045489 1_554
Au45 Tb1 3.045489 1_555
Au46 Tb2 3.045489 1_555
Au46 Tb6 3.045489 1_554
Au47 Tb7 3.045489 1_555
Au47 Tb3 3.045489 1_556
