# generated using pymatgen
data_Na2AsAuF6
_symmetry_space_group_name_H-M   'P 1'
_cell_length_a   6.30849840
_cell_length_b   6.30849840
_cell_length_c   6.30849840
_cell_angle_alpha   60.00000000
_cell_angle_beta   60.00000000
_cell_angle_gamma   60.00000000
_symmetry_Int_Tables_number   1
_chemical_formula_structural   Na2AsAuF6
_chemical_formula_sum   'Na2 As1 Au1 F6'
_cell_volume   177.52641975
_cell_formula_units_Z   1
loop_
 _symmetry_equiv_pos_site_id
 _symmetry_equiv_pos_as_xyz
  1  'x, y, z'
loop_
 _atom_site_type_symbol
 _atom_site_label
 _atom_site_symmetry_multiplicity
 _atom_site_fract_x
 _atom_site_fract_y
 _atom_site_fract_z
 _atom_site_occupancy
  Na  Na0  1  0.75000000  0.75000000  0.75000000  1
  Na  Na1  1  0.25000000  0.25000000  0.25000000  1
  As  As0  1  0.00000000  0.00000000  0.00000000  1
  Au  Au0  1  0.50000000  0.50000000  0.50000000  1
  F  F0  1  0.77180000  0.22820000  0.22820000  1
  F  F1  1  0.22820000  0.22820000  0.77180000  1
  F  F2  1  0.22820000  0.77180000  0.77180000  1
  F  F3  1  0.22820000  0.77180000  0.22820000  1
  F  F4  1  0.77180000  0.22820000  0.77180000  1
  F  F5  1  0.77180000  0.77180000  0.22820000  1
loop_
_geom_bond_atom_site_label_1
_geom_bond_atom_site_label_2
_geom_bond_distance
_geom_bond_site_symmetry_2
As0 F2 2.035901 1_544
As0 F5 2.035901 1_445
As0 F4 2.035901 1_454
As0 F0 2.035901 1_455
As0 F3 2.035901 1_545
As0 F1 2.035901 1_554
Au0 F0 2.424881 1_555
Au0 F3 2.424881 1_555
Au0 F1 2.424881 1_555
Au0 F4 2.424881 1_555
Au0 F5 2.424881 1_555
Au0 F2 2.424881 1_555
