# generated using pymatgen
data_Nd6Al3Fe11
_symmetry_space_group_name_H-M   'P 1'
_cell_length_a   8.11205300
_cell_length_b   8.11205300
_cell_length_c   12.93025278
_cell_angle_alpha   71.71855492
_cell_angle_beta   71.71855492
_cell_angle_gamma   90.00000000
_symmetry_Int_Tables_number   1
_chemical_formula_structural   Nd6Al3Fe11
_chemical_formula_sum   'Nd12 Al6 Fe22'
_cell_volume   762.57289333
_cell_formula_units_Z   2
loop_
 _symmetry_equiv_pos_site_id
 _symmetry_equiv_pos_as_xyz
  1  'x, y, z'
loop_
 _atom_site_type_symbol
 _atom_site_label
 _atom_site_symmetry_multiplicity
 _atom_site_fract_x
 _atom_site_fract_y
 _atom_site_fract_z
 _atom_site_occupancy
  Nd  Nd0  1  0.97822200  0.14881500  0.37296300  1
  Nd  Nd1  1  0.64881500  0.47822200  0.37296300  1
  Nd  Nd2  1  0.14881500  0.64881500  0.37296300  1
  Nd  Nd3  1  0.47822200  0.97822200  0.37296300  1
  Nd  Nd4  1  0.02413600  0.85869600  0.61716800  1
  Nd  Nd5  1  0.35869600  0.52413600  0.61716800  1
  Nd  Nd6  1  0.85869600  0.35869600  0.61716800  1
  Nd  Nd7  1  0.52413600  0.02413600  0.61716800  1
  Nd  Nd8  1  0.89341400  0.89341400  0.21317200  1
  Nd  Nd9  1  0.39341400  0.39341400  0.21317200  1
  Nd  Nd10  1  0.10708700  0.10708700  0.78582600  1
  Nd  Nd11  1  0.60708700  0.60708700  0.78582600  1
  Al  Al0  1  0.74993000  0.74993000  0.50014000  1
  Al  Al1  1  0.24993000  0.24993000  0.50014000  1
  Al  Al2  1  0.71324100  0.97520400  0.81155600  1
  Al  Al3  1  0.47520400  0.21324000  0.81155600  1
  Al  Al4  1  0.97520400  0.47520400  0.81155600  1
  Al  Al5  1  0.21324000  0.71324100  0.81155600  1
  Fe  Fe0  1  0.11968100  0.26129900  0.11902000  1
  Fe  Fe1  1  0.76129900  0.61968100  0.11902000  1
  Fe  Fe2  1  0.26129900  0.76129900  0.11902000  1
  Fe  Fe3  1  0.61968100  0.11968100  0.11902000  1
  Fe  Fe4  1  0.88115200  0.73282400  0.88602400  1
  Fe  Fe5  1  0.23282400  0.38115200  0.88602400  1
  Fe  Fe6  1  0.73282400  0.23282400  0.88602400  1
  Fe  Fe7  1  0.38115200  0.88115200  0.88602400  1
  Fe  Fe8  1  0.06740000  0.78962700  0.00132700  1
  Fe  Fe9  1  0.93127300  0.20904600  0.00132700  1
  Fe  Fe10  1  0.43127300  0.28962700  0.00132700  1
  Fe  Fe11  1  0.56740000  0.70904600  0.00132700  1
  Fe  Fe12  1  0.78962700  0.93127300  0.00132700  1
  Fe  Fe13  1  0.20904600  0.06740000  0.00132700  1
  Fe  Fe14  1  0.28962700  0.56740000  0.00132700  1
  Fe  Fe15  1  0.70904600  0.43127300  0.00132700  1
  Fe  Fe16  1  0.99869200  0.49869200  0.00261700  1
  Fe  Fe17  1  0.49869200  0.99869200  0.00261700  1
  Fe  Fe18  1  0.29099400  0.01926800  0.18973800  1
  Fe  Fe19  1  0.51926800  0.79099400  0.18973800  1
  Fe  Fe20  1  0.01926800  0.51926800  0.18973800  1
  Fe  Fe21  1  0.79099400  0.29099400  0.18973800  1
loop_
_geom_bond_atom_site_label_1
_geom_bond_atom_site_label_2
_geom_bond_distance
_geom_bond_site_symmetry_2
Al0 Nd11 3.310616 1_555
Al0 Nd4 3.311404 1_655
Al0 Nd7 3.311404 1_565
Al0 Nd6 3.311404 1_555
Al0 Nd5 3.311404 1_555
Al0 Nd8 3.325472 1_555
Al0 Nd1 3.369747 1_555
Al0 Nd3 3.369747 1_555
Al0 Nd2 3.369747 1_655
Al0 Nd0 3.369747 1_565
Al1 Nd10 3.310616 1_555
Al1 Nd5 3.311404 1_555
Al1 Nd7 3.311404 1_555
Al1 Nd6 3.311404 1_455
Al1 Nd4 3.311404 1_545
Al1 Nd9 3.325472 1_555
Al1 Nd0 3.369747 1_455
Al1 Nd3 3.369747 1_545
Al1 Nd2 3.369747 1_555
Al1 Nd1 3.369747 1_555
Al2 Fe4 2.506690 1_555
Al2 Fe6 2.584217 1_565
Al2 Fe7 2.584226 1_555
Al2 Fe17 2.601238 1_556
Al2 Fe12 2.633881 1_556
Al2 Fe11 2.633887 1_556
Al2 Al3 2.730796 1_565
Al2 Nd10 3.251535 1_665
Al2 Nd11 3.251545 1_555
Al2 Nd6 3.259055 1_565
Al2 Nd7 3.259061 1_565
Al2 Nd4 3.329380 1_655
Al3 Fe5 2.506695 1_555
Al3 Fe6 2.584218 1_555
Al3 Fe7 2.584218 1_545
Al3 Fe17 2.601235 1_546
Al3 Fe10 2.633885 1_556
Al3 Fe13 2.633886 1_556
Al3 Nd10 3.251543 1_555
Al3 Nd11 3.251543 1_555
Al3 Nd7 3.259056 1_555
Al3 Nd6 3.259056 1_555
Al3 Nd5 3.329385 1_555
Al4 Fe6 2.506695 1_555
Al4 Fe5 2.584218 1_655
Al4 Fe4 2.584218 1_555
Al4 Fe16 2.601238 1_556
Al4 Fe9 2.633886 1_556
Al4 Fe15 2.633886 1_556
Al4 Al5 2.730796 1_655
Al4 Nd10 3.251543 1_655
Al4 Nd11 3.251543 1_555
Al4 Nd5 3.259056 1_655
Al4 Nd4 3.259056 1_655
Al4 Nd6 3.329384 1_555
Al5 Fe7 2.506690 1_555
Al5 Fe4 2.584217 1_455
Al5 Fe5 2.584226 1_555
Al5 Fe16 2.601235 1_456
Al5 Fe8 2.633881 1_556
Al5 Fe14 2.633887 1_556
Al5 Nd10 3.251535 1_565
Al5 Nd11 3.251545 1_555
Al5 Nd4 3.259055 1_555
Al5 Nd5 3.259062 1_555
Al5 Nd7 3.329380 1_565
Fe0 Fe16 2.458762 1_455
Fe0 Fe13 2.474889 1_555
Fe0 Fe10 2.474889 1_555
Fe0 Fe18 2.508609 1_555
Fe0 Fe20 2.571392 1_555
Fe0 Fe21 2.571392 1_455
Fe0 Fe9 2.587540 1_455
Fe0 Fe14 2.587540 1_555
Fe0 Fe5 2.700302 1_554
Fe0 Nd0 2.947458 1_455
Fe0 Nd9 3.174268 1_555
Fe0 Nd8 3.174268 1_445
Fe1 Fe16 2.458762 1_555
Fe1 Fe11 2.474889 1_555
Fe1 Fe12 2.474889 1_555
Fe1 Fe19 2.508609 1_555
Fe1 Fe20 2.571392 1_655
Fe1 Fe21 2.571392 1_555
Fe1 Fe15 2.587540 1_555
Fe1 Fe8 2.587540 1_655
Fe1 Fe4 2.700302 1_554
Fe1 Nd1 2.947458 1_555
Fe1 Nd8 3.174268 1_555
Fe1 Nd9 3.174268 1_555
Fe2 Fe8 2.474889 1_555
Fe2 Fe20 2.508609 1_555
Fe2 Fe7 2.700302 1_554
Fe2 Nd2 2.947458 1_555
Fe2 Nd9 3.174268 1_555
Fe2 Nd8 3.174268 1_455
Fe3 Fe9 2.474889 1_555
Fe3 Fe6 2.700302 1_554
Fe3 Nd3 2.947458 1_545
Fe3 Nd9 3.174268 1_555
Fe3 Nd8 3.174268 1_545
Fe4 Fe8 2.561629 1_656
Fe4 Nd4 3.117130 1_655
Fe4 Nd11 3.209016 1_555
Fe4 Nd10 3.209016 1_665
Fe5 Fe9 2.561629 1_456
Fe5 Nd5 3.117130 1_555
Fe5 Nd10 3.209016 1_555
Fe5 Nd11 3.209016 1_555
Fe6 Fe9 2.485328 1_556
Fe6 Nd6 3.117130 1_555
Fe6 Nd11 3.209016 1_555
Fe6 Nd10 3.209016 1_655
Fe7 Fe8 2.485328 1_556
Fe7 Nd7 3.117130 1_565
Fe7 Nd11 3.209016 1_555
Fe7 Nd10 3.209016 1_565
Fe8 Nd8 3.037351 1_455
Fe8 Nd10 3.071695 1_564
Fe9 Nd8 3.037351 1_545
Fe9 Nd10 3.071695 1_654
Fe10 Fe17 2.418758 1_545
Fe10 Fe5 2.485328 1_554
Fe10 Fe15 2.529367 1_555
Fe10 Fe14 2.529367 1_555
Fe10 Fe13 2.549427 1_555
Fe10 Fe6 2.561629 1_554
Fe10 Fe3 2.587540 1_555
Fe10 Fe18 2.636041 1_555
Fe10 Nd9 3.037351 1_555
Fe10 Nd11 3.071695 1_554
Fe11 Fe17 2.418764 1_555
Fe11 Fe4 2.485328 1_554
Fe11 Fe15 2.529367 1_555
Fe11 Fe14 2.529367 1_555
Fe11 Fe12 2.549427 1_555
Fe11 Fe7 2.561629 1_554
Fe11 Fe2 2.587540 1_555
Fe11 Fe19 2.636041 1_555
Fe11 Nd9 3.037351 1_555
Fe11 Nd11 3.071695 1_554
Fe12 Fe17 2.418758 1_555
Fe12 Fe4 2.485328 1_554
Fe12 Fe8 2.529367 1_655
Fe12 Fe9 2.529367 1_565
Fe12 Fe6 2.561629 1_564
Fe12 Fe3 2.587540 1_565
Fe12 Fe19 2.636041 1_555
Fe12 Nd8 3.037351 1_555
Fe12 Nd10 3.071695 1_664
Fe13 Fe17 2.418764 1_545
Fe13 Fe5 2.485328 1_554
Fe13 Fe9 2.529367 1_455
Fe13 Fe8 2.529367 1_545
Fe13 Fe7 2.561629 1_544
Fe13 Fe2 2.587540 1_545
Fe13 Fe18 2.636041 1_555
Fe13 Nd8 3.037351 1_445
Fe13 Nd10 3.071695 1_554
Fe14 Fe16 2.418756 1_455
Fe14 Fe2 2.474889 1_555
Fe14 Fe7 2.485328 1_554
Fe14 Fe8 2.549427 1_555
Fe14 Fe5 2.561629 1_554
Fe14 Fe20 2.636041 1_555
Fe14 Nd9 3.037351 1_555
Fe14 Nd11 3.071695 1_554
Fe15 Fe16 2.418766 1_555
Fe15 Fe3 2.474889 1_555
Fe15 Fe6 2.485328 1_554
Fe15 Fe9 2.549427 1_555
Fe15 Fe4 2.561629 1_554
Fe15 Fe21 2.636041 1_555
Fe15 Nd9 3.037351 1_555
Fe15 Nd11 3.071695 1_554
Fe16 Fe8 2.418756 1_655
Fe16 Fe9 2.418766 1_555
Fe16 Fe5 2.427899 1_654
Fe16 Fe4 2.427899 1_554
Fe16 Fe20 2.533088 1_655
Fe16 Fe21 2.533094 1_555
Fe17 Fe6 2.427894 1_564
Fe17 Fe7 2.427904 1_554
Fe17 Fe3 2.458758 1_565
Fe17 Fe2 2.458767 1_555
Fe17 Fe18 2.533091 1_565
Fe17 Fe19 2.533091 1_555
Fe18 Fe2 2.571392 1_545
Fe18 Fe3 2.571392 1_555
Fe18 Fe19 2.618799 1_545
Fe18 Nd3 3.129381 1_545
Fe18 Nd2 3.129381 1_545
Fe18 Nd9 3.275483 1_555
Fe18 Nd8 3.275484 1_445
Fe18 Nd0 3.308405 1_455
Fe19 Fe2 2.571392 1_555
Fe19 Fe3 2.571392 1_565
Fe19 Nd3 3.129381 1_555
Fe19 Nd2 3.129381 1_555
Fe19 Nd8 3.275483 1_555
Fe19 Nd9 3.275484 1_555
Fe19 Nd1 3.308405 1_555
Fe20 Fe21 2.618799 1_455
Fe20 Fe8 2.636041 1_555
Fe20 Nd0 3.129381 1_455
Fe20 Nd1 3.129381 1_455
Fe20 Nd8 3.275483 1_455
Fe20 Nd9 3.275483 1_555
Fe20 Nd2 3.308405 1_555
Fe21 Fe3 2.508608 1_555
Fe21 Fe9 2.636041 1_555
Fe21 Nd0 3.129381 1_555
Fe21 Nd1 3.129381 1_555
Fe21 Nd9 3.275483 1_555
Fe21 Nd8 3.275483 1_545
Fe21 Nd3 3.308406 1_545
