# generated using pymatgen
data_Ba5(SnN3)2
_symmetry_space_group_name_H-M   'P 1'
_cell_length_a   6.71238011
_cell_length_b   7.36719423
_cell_length_c   14.72419908
_cell_angle_alpha   89.99999944
_cell_angle_beta   96.96431548
_cell_angle_gamma   123.28312606
_symmetry_Int_Tables_number   1
_chemical_formula_structural   Ba5(SnN3)2
_chemical_formula_sum   'Ba10 Sn4 N12'
_cell_volume   602.25939231
_cell_formula_units_Z   2
loop_
 _symmetry_equiv_pos_site_id
 _symmetry_equiv_pos_as_xyz
  1  'x, y, z'
loop_
 _atom_site_type_symbol
 _atom_site_label
 _atom_site_symmetry_multiplicity
 _atom_site_fract_x
 _atom_site_fract_y
 _atom_site_fract_z
 _atom_site_occupancy
  Ba  Ba0  1  0.09086000  0.77036000  0.98783700  1
  Ba  Ba1  1  0.90914000  0.67950000  0.51216300  1
  Ba  Ba2  1  0.90914000  0.22964000  0.01216300  1
  Ba  Ba3  1  0.09086000  0.32050000  0.48783700  1
  Ba  Ba4  1  0.31486100  0.08126600  0.71088200  1
  Ba  Ba5  1  0.68513900  0.76640600  0.78911800  1
  Ba  Ba6  1  0.68513900  0.91873400  0.28911800  1
  Ba  Ba7  1  0.31486100  0.23359400  0.21088200  1
  Ba  Ba8  1  0.00000000  0.38465400  0.75000000  1
  Ba  Ba9  1  0.00000000  0.61534600  0.25000000  1
  Sn  Sn0  1  0.55649000  0.89687100  0.57601700  1
  Sn  Sn1  1  0.44351000  0.34038000  0.92398300  1
  Sn  Sn2  1  0.44351000  0.10312900  0.42398300  1
  Sn  Sn3  1  0.55649000  0.65962000  0.07601700  1
  N  N0  1  0.89844100  0.97159800  0.62362800  1
  N  N1  1  0.10155900  0.07315700  0.87637200  1
  N  N2  1  0.10155900  0.02840200  0.37637200  1
  N  N3  1  0.89844100  0.92684300  0.12362800  1
  N  N4  1  0.28770700  0.70834300  0.65734800  1
  N  N5  1  0.71229300  0.42063600  0.84265200  1
  N  N6  1  0.71229300  0.29165700  0.34265200  1
  N  N7  1  0.28770700  0.57936400  0.15734800  1
  N  N8  1  0.61264100  0.22094400  0.56395100  1
  N  N9  1  0.38735900  0.60830300  0.93604900  1
  N  N10  1  0.38735900  0.77905600  0.43604900  1
  N  N11  1  0.61264100  0.39169700  0.06395100  1
loop_
_geom_bond_atom_site_label_1
_geom_bond_atom_site_label_2
_geom_bond_distance
_geom_bond_site_symmetry_2
Ba0 N1 2.743695 1_565
Ba0 N9 2.990614 1_555
Ba0 N5 3.026916 1_455
Ba0 N3 3.042268 1_456
Ba0 N11 3.222784 1_456
Ba0 N7 3.346079 1_556
Ba1 N0 2.743695 1_555
Ba1 N8 2.990614 1_555
Ba1 N4 3.026917 1_655
Ba1 N2 3.042268 1_665
Ba1 N10 3.222784 1_655
Ba1 N6 3.346079 1_555
Ba2 N3 2.743695 1_545
Ba2 N11 2.990614 1_555
Ba2 N7 3.026916 1_655
Ba2 N1 3.042268 1_654
Ba2 N9 3.222784 1_654
Ba2 N5 3.346079 1_554
Ba3 N2 2.743695 1_555
Ba3 N10 2.990614 1_555
Ba3 N6 3.026917 1_455
Ba3 N0 3.042268 1_445
Ba3 N8 3.222784 1_455
Ba3 N4 3.346079 1_555
Ba4 N0 2.601311 1_445
Ba4 N4 2.760124 1_545
Ba4 N8 2.919897 1_555
Ba4 N5 2.925143 1_555
Ba4 N1 2.956894 1_555
Ba5 N1 2.601309 1_665
Ba5 N5 2.760131 1_555
Ba5 N9 2.919897 1_555
Ba5 N4 2.925140 1_555
Ba5 N0 2.956892 1_555
Ba6 N2 2.601311 1_665
Ba6 N6 2.760124 1_565
Ba6 N10 2.919897 1_555
Ba6 N7 2.925143 1_555
Ba6 N3 2.956894 1_555
Ba7 N3 2.601309 1_445
Ba7 N7 2.760131 1_555
Ba7 N11 2.919897 1_555
Ba7 N6 2.925140 1_555
Ba7 N2 2.956892 1_555
Ba8 N4 2.619481 1_555
Ba8 N5 2.619482 1_455
Ba8 N9 3.248145 1_555
Ba8 N8 3.248145 1_455
Ba8 N0 3.256197 1_445
Ba8 N1 3.256197 1_555
Ba9 N6 2.619481 1_455
Ba9 N7 2.619482 1_555
Ba9 N11 3.248145 1_455
Ba9 N10 3.248145 1_555
Ba9 N2 3.256197 1_565
Ba9 N3 3.256197 1_455
N0 Sn0 2.070229 1_555
N1 Sn1 2.070226 1_555
N2 Sn2 2.070229 1_555
N3 Sn3 2.070226 1_555
N4 Sn0 2.095677 1_555
N5 Sn1 2.095676 1_555
N6 Sn2 2.095677 1_555
N7 Sn3 2.095676 1_555
N8 Sn2 2.154228 1_555
N8 Sn0 2.214138 1_545
N9 Sn3 2.154227 1_556
N9 Sn1 2.214145 1_555
N10 Sn0 2.154228 1_555
N10 Sn2 2.214138 1_565
N11 Sn1 2.154227 1_554
N11 Sn3 2.214145 1_555
