# generated using pymatgen
data_Pr2EuSe4
_symmetry_space_group_name_H-M   'P 1'
_cell_length_a   7.82807736
_cell_length_b   7.82807736
_cell_length_c   7.82807736
_cell_angle_alpha   109.44114104
_cell_angle_beta   109.44114104
_cell_angle_gamma   109.53139658
_symmetry_Int_Tables_number   1
_chemical_formula_structural   Pr2EuSe4
_chemical_formula_sum   'Pr4 Eu2 Se8'
_cell_volume   369.26919204
_cell_formula_units_Z   2
loop_
 _symmetry_equiv_pos_site_id
 _symmetry_equiv_pos_as_xyz
  1  'x, y, z'
loop_
 _atom_site_type_symbol
 _atom_site_label
 _atom_site_symmetry_multiplicity
 _atom_site_fract_x
 _atom_site_fract_y
 _atom_site_fract_z
 _atom_site_occupancy
  Pr  Pr0  1  0.50201486  0.12500000  0.87701486  1
  Pr  Pr1  1  0.87500000  0.75201486  0.37701486  1
  Pr  Pr2  1  0.24798514  0.62500000  0.12298514  1
  Pr  Pr3  1  0.37500000  0.49798514  0.62298514  1
  Eu  Eu0  1  0.75000000  0.25000000  0.50000000  1
  Eu  Eu1  1  0.00000000  0.00000000  0.00000000  1
  Se  Se0  1  0.97976454  0.37959748  0.25003951  1
  Se  Se1  1  0.47972404  0.37955697  0.24996049  1
  Se  Se2  1  0.77023546  0.52027596  0.89983293  1
  Se  Se3  1  0.62040252  0.87044303  0.60016707  1
  Se  Se4  1  0.12959748  0.22976454  0.75003951  1
  Se  Se5  1  0.62044303  0.87040252  0.10016707  1
  Se  Se6  1  0.27027596  0.02023546  0.39983293  1
  Se  Se7  1  0.12955697  0.72972404  0.74996049  1
loop_
_geom_bond_atom_site_label_1
_geom_bond_atom_site_label_2
_geom_bond_distance
_geom_bond_site_symmetry_2
Pr0 Se2 3.008846 1_555
Pr0 Se7 3.008849 1_545
Pr0 Se3 3.037006 1_545
Pr0 Se1 3.037011 1_556
Pr0 Se0 3.218378 1_556
Pr0 Se5 3.218381 1_546
Pr0 Se6 3.220545 1_555
Pr0 Se4 3.220546 1_555
Pr1 Se6 3.008846 1_665
Pr1 Se1 3.008849 1_555
Pr1 Se5 3.037006 1_555
Pr1 Se7 3.037011 1_655
Pr1 Se4 3.218378 1_665
Pr1 Se3 3.218381 1_555
Pr1 Se2 3.220545 1_554
Pr1 Se0 3.220546 1_555
Pr2 Se0 3.008840 1_455
Pr2 Se5 3.008846 1_555
Pr2 Se6 3.037006 1_565
Pr2 Se4 3.037010 1_554
Pr2 Se7 3.218373 1_554
Pr2 Se2 3.218380 1_454
Pr2 Se3 3.220545 1_555
Pr2 Se1 3.220548 1_555
Pr3 Se4 3.008840 1_555
Pr3 Se3 3.008846 1_555
Pr3 Se2 3.037006 1_555
Pr3 Se0 3.037010 1_455
Pr3 Se1 3.218373 1_555
Pr3 Se6 3.218380 1_555
Pr3 Se5 3.220545 1_556
Pr3 Se7 3.220548 1_555
Eu0 Se1 3.055410 1_555
Eu0 Se4 3.055412 1_655
Eu0 Se2 3.055414 1_555
Eu0 Se5 3.055415 1_545
Eu0 Se7 3.246074 1_655
Eu0 Se6 3.246074 1_555
Eu0 Se3 3.246074 1_545
Eu0 Se0 3.246081 1_555
Eu1 Se7 3.055410 1_544
Eu1 Se0 3.055412 1_455
Eu1 Se6 3.055414 1_555
Eu1 Se3 3.055415 1_444
Eu1 Se1 3.246074 1_555
Eu1 Se2 3.246074 1_444
Eu1 Se5 3.246074 1_445
Eu1 Se4 3.246081 1_554
