# generated using pymatgen
data_CePdPt4
_symmetry_space_group_name_H-M   'P 1'
_cell_length_a   5.37393009
_cell_length_b   5.37393009
_cell_length_c   4.44985800
_cell_angle_alpha   90.00000000
_cell_angle_beta   90.00000000
_cell_angle_gamma   120.00000109
_symmetry_Int_Tables_number   1
_chemical_formula_structural   CePdPt4
_chemical_formula_sum   'Ce1 Pd1 Pt4'
_cell_volume   111.29119449
_cell_formula_units_Z   1
loop_
 _symmetry_equiv_pos_site_id
 _symmetry_equiv_pos_as_xyz
  1  'x, y, z'
loop_
 _atom_site_type_symbol
 _atom_site_label
 _atom_site_symmetry_multiplicity
 _atom_site_fract_x
 _atom_site_fract_y
 _atom_site_fract_z
 _atom_site_occupancy
  Ce  Ce0  1  0.33333300  0.66666700  0.00000000  1
  Pd  Pd0  1  0.00000000  0.00000000  0.00000000  1
  Pt  Pt0  1  0.66666700  0.33333300  0.00000000  1
  Pt  Pt1  1  0.83394900  0.16605100  0.50000000  1
  Pt  Pt2  1  0.83394900  0.66789800  0.50000000  1
  Pt  Pt3  1  0.33210200  0.16605100  0.50000000  1
loop_
_geom_bond_atom_site_label_1
_geom_bond_atom_site_label_2
_geom_bond_distance
_geom_bond_site_symmetry_2
Ce0 Pt0 3.102637 1_455
Ce0 Pt0 3.102637 1_565
Ce0 Pd0 3.102637 1_565
Ce0 Pd0 3.102642 1_665
Ce0 Pd0 3.102642 1_555
Ce0 Pt0 3.102646 1_555
Ce0 Pt3 3.488568 1_565
Ce0 Pt3 3.488568 1_564
Ce0 Pt2 3.488568 1_455
Ce0 Pt2 3.488568 1_454
Ce0 Pt1 3.488570 1_564
Ce0 Pt1 3.488570 1_565
Ce0 Pt1 3.488570 1_454
Ce0 Pt1 3.488570 1_455
Ce0 Pt2 3.488572 1_555
Ce0 Pt2 3.488572 1_554
Ce0 Pt3 3.488572 1_555
Ce0 Pt3 3.488572 1_554
Pd0 Pt2 2.709088 1_444
Pd0 Pt3 2.709088 1_554
Pd0 Pt2 2.709088 1_445
Pd0 Pt3 2.709088 1_555
Pd0 Pt1 2.709088 1_455
Pd0 Pt1 2.709088 1_454
Pd0 Pt0 3.102637 1_455
Pd0 Pt0 3.102642 1_445
Pd0 Pt0 3.102642 1_555
Pt0 Pt1 2.715641 1_554
Pt0 Pt1 2.715641 1_555
Pt0 Pt2 2.715644 1_555
Pt0 Pt3 2.715644 1_554
Pt0 Pt2 2.715644 1_554
Pt0 Pt3 2.715644 1_555
Pt1 Pt2 2.677039 1_545
Pt1 Pt3 2.677039 1_655
Pt1 Pt3 2.696891 1_555
Pt1 Pt2 2.696891 1_555
Pt2 Pt3 2.677039 1_665
Pt2 Pt3 2.696891 1_555
