# generated using pymatgen
data_Na5(Sn5Hg)2
_symmetry_space_group_name_H-M   'P 1'
_cell_length_a   11.04122278
_cell_length_b   13.46146377
_cell_length_c   13.51961933
_cell_angle_alpha   90.00000000
_cell_angle_beta   90.00000000
_cell_angle_gamma   90.00000000
_symmetry_Int_Tables_number   1
_chemical_formula_structural   Na5(Sn5Hg)2
_chemical_formula_sum   'Na20 Sn40 Hg8'
_cell_volume   2009.43481684
_cell_formula_units_Z   4
loop_
 _symmetry_equiv_pos_site_id
 _symmetry_equiv_pos_as_xyz
  1  'x, y, z'
loop_
 _atom_site_type_symbol
 _atom_site_label
 _atom_site_symmetry_multiplicity
 _atom_site_fract_x
 _atom_site_fract_y
 _atom_site_fract_z
 _atom_site_occupancy
  Na  Na0  1  0.73788387  0.00000000  0.75000000  1
  Na  Na1  1  0.26211613  0.00000000  0.25000000  1
  Na  Na2  1  0.76211613  0.50000000  0.25000000  1
  Na  Na3  1  0.23788387  0.50000000  0.75000000  1
  Na  Na4  1  0.95755248  0.87031010  0.90422213  1
  Na  Na5  1  0.04244752  0.12968990  0.09577787  1
  Na  Na6  1  0.54244752  0.62968990  0.40422213  1
  Na  Na7  1  0.95755248  0.12968990  0.59577787  1
  Na  Na8  1  0.45755248  0.37031010  0.59577787  1
  Na  Na9  1  0.04244752  0.87031010  0.40422213  1
  Na  Na10  1  0.54244752  0.37031010  0.09577787  1
  Na  Na11  1  0.45755248  0.62968990  0.90422213  1
  Na  Na12  1  0.55401097  0.83780596  0.60721759  1
  Na  Na13  1  0.44598903  0.16219404  0.39278241  1
  Na  Na14  1  0.94598903  0.66219404  0.10721759  1
  Na  Na15  1  0.55401097  0.16219404  0.89278241  1
  Na  Na16  1  0.05401097  0.33780596  0.89278241  1
  Na  Na17  1  0.44598903  0.83780596  0.10721759  1
  Na  Na18  1  0.94598903  0.33780596  0.39278241  1
  Na  Na19  1  0.05401097  0.66219404  0.60721759  1
  Sn  Sn0  1  0.93749091  0.57938301  0.83485725  1
  Sn  Sn1  1  0.06250909  0.42061699  0.16514275  1
  Sn  Sn2  1  0.56250909  0.92061699  0.33485725  1
  Sn  Sn3  1  0.93749091  0.42061699  0.66514275  1
  Sn  Sn4  1  0.43749091  0.07938301  0.66514275  1
  Sn  Sn5  1  0.06250909  0.57938301  0.33485725  1
  Sn  Sn6  1  0.56250909  0.07938301  0.16514275  1
  Sn  Sn7  1  0.43749091  0.92061699  0.83485725  1
  Sn  Sn8  1  0.64359784  0.81603867  0.92989688  1
  Sn  Sn9  1  0.35640216  0.18396133  0.07010312  1
  Sn  Sn10  1  0.85640216  0.68396133  0.42989688  1
  Sn  Sn11  1  0.64359784  0.18396133  0.57010312  1
  Sn  Sn12  1  0.14359784  0.31603867  0.57010312  1
  Sn  Sn13  1  0.35640216  0.81603867  0.42989688  1
  Sn  Sn14  1  0.85640216  0.31603867  0.07010312  1
  Sn  Sn15  1  0.14359784  0.68396133  0.92989688  1
  Sn  Sn16  1  0.59318379  0.58319755  0.67288763  1
  Sn  Sn17  1  0.40681621  0.41680245  0.32711237  1
  Sn  Sn18  1  0.90681621  0.91680245  0.17288763  1
  Sn  Sn19  1  0.59318379  0.41680245  0.82711237  1
  Sn  Sn20  1  0.09318379  0.08319755  0.82711237  1
  Sn  Sn21  1  0.40681621  0.58319755  0.17288763  1
  Sn  Sn22  1  0.90681621  0.08319755  0.32711237  1
  Sn  Sn23  1  0.09318379  0.91680245  0.67288763  1
  Sn  Sn24  1  0.76571564  0.72670317  0.75483729  1
  Sn  Sn25  1  0.23428436  0.27329683  0.24516271  1
  Sn  Sn26  1  0.73428436  0.77329683  0.25483729  1
  Sn  Sn27  1  0.76571564  0.27329683  0.74516271  1
  Sn  Sn28  1  0.26571564  0.22670317  0.74516271  1
  Sn  Sn29  1  0.23428436  0.72670317  0.25483729  1
  Sn  Sn30  1  0.73428436  0.22670317  0.24516271  1
  Sn  Sn31  1  0.26571564  0.77329683  0.75483729  1
  Sn  Sn32  1  0.75944497  0.49877892  0.97531320  1
  Sn  Sn33  1  0.24055503  0.50122108  0.02468680  1
  Sn  Sn34  1  0.74055503  0.00122108  0.47531320  1
  Sn  Sn35  1  0.75944497  0.50122108  0.52468680  1
  Sn  Sn36  1  0.25944497  0.99877892  0.52468680  1
  Sn  Sn37  1  0.24055503  0.49877892  0.47531320  1
  Sn  Sn38  1  0.74055503  0.99877892  0.02468680  1
  Sn  Sn39  1  0.25944497  0.00122108  0.97531320  1
  Hg  Hg0  1  0.86342045  0.84788524  0.59380680  1
  Hg  Hg1  1  0.13657955  0.15211476  0.40619320  1
  Hg  Hg2  1  0.63657955  0.65211476  0.09380680  1
  Hg  Hg3  1  0.86342045  0.15211476  0.90619320  1
  Hg  Hg4  1  0.36342045  0.34788524  0.90619320  1
  Hg  Hg5  1  0.13657955  0.84788524  0.09380680  1
  Hg  Hg6  1  0.63657955  0.34788524  0.40619320  1
  Hg  Hg7  1  0.36342045  0.65211476  0.59380680  1
loop_
_geom_bond_atom_site_label_1
_geom_bond_atom_site_label_2
_geom_bond_distance
_geom_bond_site_symmetry_2
Na0 Sn8 3.623747 1_545
Na0 Sn11 3.623747 1_555
Na0 Sn7 3.668599 1_545
Na0 Sn4 3.668599 1_555
Na0 Sn27 3.692366 1_555
Na0 Sn24 3.692366 1_545
Na0 Sn38 3.713814 1_546
Na0 Sn34 3.713814 1_555
Na1 Sn9 3.623747 1_555
Na1 Sn13 3.623747 1_545
Na1 Sn2 3.668599 1_545
Na1 Sn6 3.668599 1_555
Na1 Sn25 3.692366 1_555
Na1 Sn29 3.692366 1_545
Na1 Sn39 3.713814 1_554
Na1 Sn36 3.713814 1_545
Na2 Sn10 3.623747 1_555
Na2 Sn14 3.623747 1_555
Na2 Sn1 3.668599 1_655
Na2 Sn5 3.668599 1_655
Na2 Sn30 3.692366 1_555
Na2 Sn26 3.692366 1_555
Na2 Sn32 3.713814 1_554
Na2 Sn35 3.713814 1_555
Na3 Sn12 3.623747 1_555
Na3 Sn15 3.623747 1_555
Na3 Sn3 3.668599 1_455
Na3 Sn0 3.668599 1_455
Na3 Sn28 3.692366 1_555
Na3 Sn31 3.692366 1_555
Na3 Sn33 3.713814 1_556
Na3 Sn37 3.713814 1_555
Na4 Sn15 3.260798 1_655
Na4 Sn38 3.373963 1_556
Na4 Sn20 3.397364 1_665
Na4 Sn24 3.507478 1_555
Na4 Sn23 3.523621 1_655
Na4 Sn8 3.559558 1_555
Na4 Sn18 3.728108 1_556
Na5 Sn14 3.260798 1_455
Na5 Sn39 3.373963 1_554
Na5 Sn18 3.397364 1_445
Na5 Sn25 3.507478 1_555
Na5 Sn22 3.523621 1_455
Na5 Sn9 3.559558 1_555
Na5 Sn20 3.728108 1_554
Na6 Sn13 3.260798 1_555
Na6 Sn35 3.373963 1_555
Na6 Sn17 3.397364 1_555
Na6 Sn26 3.507478 1_555
Na6 Sn21 3.523621 1_555
Na6 Sn10 3.559558 1_555
Na6 Sn16 3.728108 1_555
Na7 Sn12 3.260798 1_655
Na7 Sn34 3.373963 1_555
Na7 Sn23 3.397364 1_645
Na7 Sn27 3.507478 1_555
Na7 Sn20 3.523621 1_655
Na7 Sn11 3.559558 1_555
Na7 Sn22 3.728108 1_555
Na8 Sn11 3.260798 1_555
Na8 Sn37 3.373963 1_555
Na8 Sn16 3.397364 1_555
Na8 Sn28 3.507478 1_555
Na8 Sn19 3.523621 1_555
Na8 Sn12 3.559558 1_555
Na8 Sn17 3.728108 1_555
Na9 Sn10 3.260798 1_455
Na9 Sn36 3.373963 1_555
Na9 Sn22 3.397364 1_465
Na9 Sn29 3.507478 1_555
Na9 Sn18 3.523621 1_455
Na9 Sn13 3.559558 1_555
Na9 Sn23 3.728108 1_555
Na10 Sn9 3.260798 1_555
Na10 Sn32 3.373963 1_554
Na10 Sn21 3.397364 1_555
Na10 Sn30 3.507478 1_555
Na10 Sn17 3.523621 1_555
Na10 Sn14 3.559558 1_555
Na10 Sn19 3.728108 1_554
Na11 Sn8 3.260798 1_555
Na11 Sn33 3.373963 1_556
Na11 Sn19 3.397364 1_555
Na11 Sn31 3.507478 1_555
Na11 Sn16 3.523621 1_555
Na11 Sn15 3.559558 1_555
Na11 Sn21 3.728108 1_556
Na12 Sn13 3.254748 1_555
Na12 Sn24 3.418144 1_555
Na12 Sn34 3.501651 1_565
Na12 Sn7 3.517024 1_555
Na12 Sn16 3.566848 1_555
Na12 Sn4 3.583826 1_565
Na13 Sn11 3.254748 1_555
Na13 Sn25 3.418144 1_555
Na13 Sn36 3.501651 1_545
Na13 Sn6 3.517024 1_555
Na13 Sn17 3.566848 1_555
Na13 Sn2 3.583826 1_545
Na14 Sn15 3.254748 1_654
Na14 Sn26 3.418144 1_555
Na14 Sn32 3.501651 1_554
Na14 Sn5 3.517024 1_655
Na14 Sn18 3.566848 1_555
Na14 Sn1 3.583826 1_655
Na15 Sn9 3.254748 1_556
Na15 Sn27 3.418144 1_555
Na15 Sn38 3.501651 1_546
Na15 Sn4 3.517024 1_555
Na15 Sn19 3.566848 1_555
Na15 Sn7 3.583826 1_545
Na16 Sn14 3.254748 1_456
Na16 Sn28 3.418144 1_555
Na16 Sn33 3.501651 1_556
Na16 Sn3 3.517024 1_455
Na16 Sn20 3.566848 1_555
Na16 Sn0 3.583826 1_455
Na17 Sn8 3.254748 1_554
Na17 Sn29 3.418144 1_555
Na17 Sn39 3.501651 1_564
Na17 Sn2 3.517024 1_555
Na17 Sn21 3.566848 1_555
Na17 Sn6 3.583826 1_565
Na18 Sn12 3.254748 1_655
Na18 Sn30 3.418144 1_555
Na18 Sn35 3.501651 1_555
Na18 Sn1 3.517024 1_655
Na18 Sn22 3.566848 1_555
Na18 Sn5 3.583826 1_655
Na19 Sn10 3.254748 1_455
Na19 Sn31 3.418144 1_555
Na19 Sn37 3.501651 1_555
Na19 Sn0 3.517024 1_455
Na19 Sn23 3.566848 1_555
Na19 Sn3 3.583826 1_455
Sn0 Sn32 2.940704 1_555
Sn0 Sn24 2.949638 1_555
Sn0 Sn15 2.968415 1_655
Sn0 Sn3 3.135656 1_555
Sn1 Sn33 2.940704 1_555
Sn1 Sn25 2.949638 1_555
Sn1 Sn14 2.968415 1_455
Sn1 Sn5 3.135656 1_555
Sn2 Sn34 2.940704 1_565
Sn2 Sn26 2.949638 1_555
Sn2 Sn6 3.135656 1_565
Sn3 Sn35 2.940704 1_555
Sn4 Sn7 3.135656 1_545
Sn6 Sn9 2.968415 1_555
Sn7 Sn8 2.968415 1_555
Sn10 Sn5 2.968415 1_655
Sn10 Sn35 2.973161 1_555
Sn10 Sn26 2.977526 1_555
Sn11 Sn4 2.968415 1_555
Sn11 Sn34 2.973161 1_555
Sn11 Sn27 2.977526 1_555
Sn12 Sn3 2.968415 1_455
Sn12 Sn37 2.973161 1_555
Sn12 Sn28 2.977526 1_555
Sn13 Sn2 2.968415 1_555
Sn13 Sn36 2.973161 1_555
Sn13 Sn29 2.977526 1_555
Sn14 Sn32 2.973161 1_554
Sn14 Sn30 2.977526 1_555
Sn15 Sn33 2.973161 1_556
Sn15 Sn31 2.977526 1_555
Sn16 Sn24 2.930567 1_555
Sn16 Sn35 2.932941 1_555
Sn16 Sn19 3.060184 1_555
Sn17 Sn25 2.930567 1_555
Sn17 Sn37 2.932941 1_555
Sn17 Sn21 3.060184 1_555
Sn18 Sn26 2.930567 1_555
Sn18 Sn38 2.932941 1_555
Sn18 Sn22 3.060184 1_565
Sn19 Sn27 2.930567 1_555
Sn19 Sn32 2.932941 1_555
Sn20 Sn28 2.930567 1_555
Sn20 Sn39 2.932941 1_555
Sn20 Sn23 3.060184 1_545
Sn21 Sn29 2.930567 1_555
Sn21 Sn33 2.932941 1_555
Sn22 Sn30 2.930567 1_555
Sn22 Sn34 2.932941 1_555
Sn23 Sn31 2.930567 1_555
Sn23 Sn36 2.932941 1_555
Sn24 Sn8 2.977526 1_555
Sn25 Sn9 2.977526 1_555
Sn27 Sn3 2.949638 1_555
Sn28 Sn4 2.949638 1_555
Sn29 Sn5 2.949638 1_555
Sn30 Sn6 2.949638 1_555
Sn31 Sn7 2.949638 1_555
Sn36 Sn4 2.940704 1_565
Sn37 Sn5 2.940704 1_555
Sn38 Sn6 2.940704 1_565
Sn38 Sn8 2.973161 1_554
Sn39 Sn7 2.940704 1_545
Sn39 Sn9 2.973161 1_556
Hg0 Sn23 2.905072 1_655
Hg0 Sn24 2.926518 1_555
Hg0 Sn34 2.944028 1_565
Hg0 Sn10 3.128257 1_555
Hg0 Na9 3.250835 1_655
Hg0 Na0 3.251676 1_565
Hg0 Na19 3.272545 1_655
Hg0 Na12 3.423756 1_555
Hg1 Sn22 2.905072 1_455
Hg1 Sn25 2.926518 1_555
Hg1 Sn36 2.944028 1_545
Hg1 Sn12 3.128257 1_555
Hg1 Na7 3.250835 1_455
Hg1 Na1 3.251676 1_555
Hg1 Na18 3.272545 1_455
Hg1 Na13 3.423756 1_555
Hg2 Sn21 2.905072 1_555
Hg2 Sn26 2.926518 1_555
Hg2 Sn32 2.944028 1_554
Hg2 Sn8 3.128257 1_554
Hg2 Na11 3.250835 1_554
Hg2 Na2 3.251676 1_555
Hg2 Na17 3.272545 1_555
Hg2 Na14 3.423756 1_555
Hg3 Sn20 2.905072 1_655
Hg3 Sn27 2.926518 1_555
Hg3 Sn38 2.944028 1_546
Hg3 Sn14 3.128257 1_556
Hg3 Na5 3.250835 1_656
Hg3 Na0 3.251676 1_555
Hg3 Na16 3.272545 1_655
Hg3 Na15 3.423756 1_555
Hg4 Sn19 2.905072 1_555
Hg4 Sn28 2.926518 1_555
Hg4 Sn33 2.944028 1_556
Hg4 Sn9 3.128257 1_556
Hg4 Na10 3.250835 1_556
Hg4 Na3 3.251676 1_555
Hg4 Na15 3.272545 1_555
Hg4 Na16 3.423756 1_555
Hg5 Sn18 2.905072 1_455
Hg5 Sn29 2.926518 1_555
Hg5 Sn39 2.944028 1_564
Hg5 Sn15 3.128257 1_554
Hg5 Na4 3.250835 1_454
Hg5 Na1 3.251676 1_565
Hg5 Na14 3.272545 1_455
Hg5 Na17 3.423756 1_555
Hg6 Sn17 2.905072 1_555
Hg6 Sn30 2.926518 1_555
Hg6 Sn35 2.944028 1_555
Hg6 Sn11 3.128257 1_555
Hg6 Na8 3.250835 1_555
Hg6 Na2 3.251676 1_555
Hg6 Na13 3.272545 1_555
Hg6 Na18 3.423756 1_555
Hg7 Sn16 2.905072 1_555
Hg7 Sn31 2.926518 1_555
Hg7 Sn37 2.944028 1_555
Hg7 Sn13 3.128257 1_555
Hg7 Na6 3.250835 1_555
Hg7 Na3 3.251676 1_555
Hg7 Na12 3.272545 1_555
Hg7 Na19 3.423756 1_555
