# generated using pymatgen
data_Cs4Nb2S11
_symmetry_space_group_name_H-M   'P 1'
_cell_length_a   14.24491400
_cell_length_b   8.24293400
_cell_length_c   18.75667000
_cell_angle_alpha   90.00000000
_cell_angle_beta   90.00000000
_cell_angle_gamma   90.00000000
_symmetry_Int_Tables_number   1
_chemical_formula_structural   Cs4Nb2S11
_chemical_formula_sum   'Cs16 Nb8 S44'
_cell_volume   2202.40605197
_cell_formula_units_Z   4
loop_
 _symmetry_equiv_pos_site_id
 _symmetry_equiv_pos_as_xyz
  1  'x, y, z'
loop_
 _atom_site_type_symbol
 _atom_site_label
 _atom_site_symmetry_multiplicity
 _atom_site_fract_x
 _atom_site_fract_y
 _atom_site_fract_z
 _atom_site_occupancy
  Cs  Cs0  1  0.54796100  0.29995600  0.30295900  1
  Cs  Cs1  1  0.45203900  0.70004400  0.80295900  1
  Cs  Cs2  1  0.95203900  0.29995600  0.80295900  1
  Cs  Cs3  1  0.04796100  0.70004400  0.30295900  1
  Cs  Cs4  1  0.73711900  0.83804300  0.40907400  1
  Cs  Cs5  1  0.26288100  0.16195700  0.90907400  1
  Cs  Cs6  1  0.76288100  0.83804300  0.90907400  1
  Cs  Cs7  1  0.23711900  0.16195700  0.40907400  1
  Cs  Cs8  1  0.71442800  0.68932000  0.15684700  1
  Cs  Cs9  1  0.28557200  0.31068000  0.65684700  1
  Cs  Cs10  1  0.78557200  0.68932000  0.65684700  1
  Cs  Cs11  1  0.21442800  0.31068000  0.15684700  1
  Cs  Cs12  1  0.57710200  0.32214800  0.00515700  1
  Cs  Cs13  1  0.42289800  0.67785200  0.50515700  1
  Cs  Cs14  1  0.92289800  0.32214800  0.50515700  1
  Cs  Cs15  1  0.07710200  0.67785200  0.00515700  1
  Nb  Nb0  1  0.62154800  0.27916000  0.74913300  1
  Nb  Nb1  1  0.37845200  0.72084000  0.24913300  1
  Nb  Nb2  1  0.87845200  0.27916000  0.24913300  1
  Nb  Nb3  1  0.12154800  0.72084000  0.74913300  1
  Nb  Nb4  1  0.57074000  0.23661600  0.56448400  1
  Nb  Nb5  1  0.42926000  0.76338400  0.06448400  1
  Nb  Nb6  1  0.92926000  0.23661600  0.06448400  1
  Nb  Nb7  1  0.07074000  0.76338400  0.56448400  1
  S  S0  1  0.52594800  0.04367200  0.66163300  1
  S  S1  1  0.47405200  0.95632800  0.16163300  1
  S  S2  1  0.97405200  0.04367200  0.16163300  1
  S  S3  1  0.02594800  0.95632800  0.66163300  1
  S  S4  1  0.74039600  0.25114000  0.65078300  1
  S  S5  1  0.25960400  0.74886000  0.15078300  1
  S  S6  1  0.75960400  0.25114000  0.15078300  1
  S  S7  1  0.24039600  0.74886000  0.65078300  1
  S  S8  1  0.53695700  0.75793300  0.30013600  1
  S  S9  1  0.46304300  0.24206700  0.80013600  1
  S  S10  1  0.96304300  0.75793300  0.80013600  1
  S  S11  1  0.03695700  0.24206700  0.30013600  1
  S  S12  1  0.60266900  0.94353500  0.57802800  1
  S  S13  1  0.39733100  0.05646500  0.07802800  1
  S  S14  1  0.89733100  0.94353500  0.07802800  1
  S  S15  1  0.10266900  0.05646500  0.57802800  1
  S  S16  1  0.68528100  0.23372900  0.46240700  1
  S  S17  1  0.31471900  0.76627100  0.96240700  1
  S  S18  1  0.81471900  0.23372900  0.96240700  1
  S  S19  1  0.18528100  0.76627100  0.46240700  1
  S  S20  1  0.74787100  0.08420500  0.23339300  1
  S  S21  1  0.25212900  0.91579500  0.73339300  1
  S  S22  1  0.75212900  0.08420500  0.73339300  1
  S  S23  1  0.24787100  0.91579500  0.23339300  1
  S  S24  1  0.56336900  0.09230100  0.84618900  1
  S  S25  1  0.43663100  0.90769900  0.34618900  1
  S  S26  1  0.93663100  0.09230100  0.34618900  1
  S  S27  1  0.06336900  0.90769900  0.84618900  1
  S  S28  1  0.66798900  0.45633800  0.51240400  1
  S  S29  1  0.33201100  0.54366200  0.01240400  1
  S  S30  1  0.83201100  0.45633800  0.01240400  1
  S  S31  1  0.16798900  0.54366200  0.51240400  1
  S  S32  1  0.53553000  0.44838600  0.65771900  1
  S  S33  1  0.46447000  0.55161400  0.15771900  1
  S  S34  1  0.96447000  0.44838600  0.15771900  1
  S  S35  1  0.03553000  0.55161400  0.65771900  1
  S  S36  1  0.56410900  0.75091800  0.00148800  1
  S  S37  1  0.43589100  0.24908200  0.50148800  1
  S  S38  1  0.93589100  0.75091800  0.50148800  1
  S  S39  1  0.06410900  0.24908200  0.00148800  1
  S  S40  1  0.68413300  0.48247600  0.81446500  1
  S  S41  1  0.31586700  0.51752400  0.31446500  1
  S  S42  1  0.81586700  0.48247600  0.31446500  1
  S  S43  1  0.18413300  0.51752400  0.81446500  1
loop_
_geom_bond_atom_site_label_1
_geom_bond_atom_site_label_2
_geom_bond_distance
_geom_bond_site_symmetry_2
Cs0 S20 3.602049 1_555
Cs0 S16 3.615073 1_555
Cs0 S33 3.624775 1_555
Cs0 S25 3.691484 1_545
Cs0 S41 3.767432 1_555
Cs0 S8 3.778698 1_555
Cs0 S1 4.019737 1_545
Cs0 S37 4.073168 1_555
Cs0 S42 4.107825 1_555
Cs1 S21 3.602049 1_555
Cs1 S17 3.615073 1_555
Cs1 S32 3.624775 1_555
Cs1 S24 3.691484 1_565
Cs1 S40 3.767432 1_555
Cs1 S9 3.778698 1_555
Cs1 S0 4.019737 1_565
Cs1 S36 4.073168 1_556
Cs1 S43 4.107825 1_555
Cs2 S22 3.602049 1_555
Cs2 S18 3.615073 1_555
Cs2 S35 3.624775 1_655
Cs2 S27 3.691484 1_645
Cs2 S43 3.767432 1_655
Cs2 S10 3.778698 1_555
Cs2 S3 4.019737 1_645
Cs2 S39 4.073168 1_656
Cs2 S40 4.107825 1_555
Cs3 S23 3.602049 1_555
Cs3 S19 3.615073 1_555
Cs3 S34 3.624775 1_455
Cs3 S26 3.691484 1_465
Cs3 S42 3.767432 1_455
Cs3 S11 3.778698 1_555
Cs3 S2 4.019737 1_465
Cs3 S38 4.073168 1_455
Cs3 S41 4.107825 1_555
Cs4 S38 3.396719 1_555
Cs4 S16 3.490573 1_565
Cs4 S8 3.569459 1_555
Cs4 S42 3.605223 1_555
Cs4 S26 3.723024 1_565
Cs4 S12 3.803537 1_555
Cs4 S28 3.824357 1_555
Cs4 S20 3.872851 1_565
Cs5 S39 3.396719 1_556
Cs5 S17 3.490573 1_545
Cs5 S9 3.569459 1_555
Cs5 S43 3.605223 1_555
Cs5 S27 3.723024 1_545
Cs5 S13 3.803537 1_556
Cs5 S29 3.824357 1_556
Cs5 S21 3.872851 1_545
Cs6 S36 3.396719 1_556
Cs6 S18 3.490573 1_565
Cs6 S10 3.569459 1_555
Cs6 S40 3.605223 1_555
Cs6 S24 3.723024 1_565
Cs6 S14 3.803537 1_556
Cs6 S30 3.824357 1_556
Cs6 S22 3.872851 1_565
Cs7 S37 3.396719 1_555
Cs7 S19 3.490573 1_545
Cs7 S11 3.569459 1_555
Cs7 S41 3.605223 1_555
Cs7 S25 3.723024 1_545
Cs7 S15 3.803537 1_555
Cs7 S31 3.824357 1_555
Cs7 S23 3.872851 1_545
Cs8 S20 3.589348 1_565
Cs8 S36 3.651629 1_555
Cs8 S14 3.655810 1_555
Cs8 S6 3.670532 1_555
Cs8 S42 3.706111 1_555
Cs8 S30 3.719379 1_555
Cs8 S8 3.732865 1_555
Cs8 S33 3.737220 1_555
Cs8 S1 4.071468 1_555
Cs8 S34 4.078123 1_555
Cs9 S21 3.589348 1_545
Cs9 S37 3.651629 1_555
Cs9 S15 3.655810 1_555
Cs9 S7 3.670532 1_555
Cs9 S43 3.706111 1_555
Cs9 S31 3.719379 1_555
Cs9 S9 3.732865 1_555
Cs9 S32 3.737220 1_555
Cs9 S0 4.071468 1_555
Cs9 S35 4.078123 1_555
Cs10 S22 3.589348 1_565
Cs10 S38 3.651629 1_555
Cs10 S12 3.655810 1_555
Cs10 S4 3.670532 1_555
Cs10 S40 3.706111 1_555
Cs10 S28 3.719379 1_555
Cs10 S10 3.732865 1_555
Cs10 S35 3.737220 1_655
Cs10 S3 4.071468 1_655
Cs10 S32 4.078123 1_555
Cs11 S23 3.589348 1_545
Cs11 S39 3.651629 1_555
Cs11 S13 3.655810 1_555
Cs11 S5 3.670532 1_555
Cs11 S41 3.706111 1_555
Cs11 S29 3.719379 1_555
Cs11 S11 3.732865 1_555
Cs11 S34 3.737220 1_455
Cs11 S2 4.071468 1_455
Cs11 S33 4.078123 1_555
Cs12 S24 3.538139 1_554
Cs12 S36 3.539835 1_555
Cs12 S18 3.554048 1_554
Cs12 S13 3.636225 1_555
Cs12 S33 3.786869 1_555
Cs12 S30 3.798325 1_555
Cs12 S6 3.816023 1_555
Cs12 S29 3.942291 1_555
Cs12 S40 4.106607 1_554
Cs13 S25 3.538139 1_555
Cs13 S37 3.539835 1_555
Cs13 S19 3.554048 1_555
Cs13 S12 3.636225 1_555
Cs13 S32 3.786869 1_555
Cs13 S31 3.798325 1_555
Cs13 S7 3.816023 1_555
Cs13 S28 3.942291 1_555
Cs13 S41 4.106607 1_555
Cs14 S26 3.538139 1_555
Cs14 S38 3.539835 1_555
Cs14 S16 3.554048 1_555
Cs14 S15 3.636225 1_655
Cs14 S35 3.786869 1_655
Cs14 S28 3.798325 1_555
Cs14 S4 3.816023 1_555
Cs14 S31 3.942291 1_655
Cs14 S42 4.106607 1_555
Cs15 S27 3.538139 1_554
Cs15 S39 3.539835 1_555
Cs15 S17 3.554048 1_554
Cs15 S14 3.636225 1_455
Cs15 S34 3.786869 1_455
Cs15 S29 3.798325 1_555
Cs15 S5 3.816023 1_555
Cs15 S30 3.942291 1_455
Cs15 S43 4.106607 1_554
Nb0 S40 2.259457 1_555
Nb0 S9 2.471179 1_555
Nb0 S22 2.475811 1_555
Nb0 S4 2.514461 1_555
Nb0 S24 2.524536 1_555
Nb0 S32 2.527278 1_555
Nb0 S0 2.883751 1_555
Nb1 S41 2.259457 1_555
Nb1 S8 2.471179 1_555
Nb1 S23 2.475811 1_555
Nb1 S5 2.514461 1_555
Nb1 S25 2.524536 1_555
Nb1 S33 2.527278 1_555
Nb1 S1 2.883751 1_555
Nb2 S42 2.259457 1_555
Nb2 S11 2.471179 1_655
Nb2 S20 2.475811 1_555
Nb2 S6 2.514461 1_555
Nb2 S26 2.524536 1_555
Nb2 S34 2.527278 1_555
Nb2 S2 2.883751 1_555
Nb3 S43 2.259457 1_555
Nb3 S10 2.471179 1_455
Nb3 S21 2.475811 1_555
Nb3 S7 2.514461 1_555
Nb3 S27 2.524536 1_555
Nb3 S35 2.527278 1_555
Nb3 S3 2.883751 1_555
Nb4 S37 2.257572 1_555
Nb4 S12 2.471380 1_545
Nb4 S28 2.480640 1_555
Nb4 S0 2.501390 1_555
Nb4 S16 2.515663 1_555
Nb4 S32 2.521296 1_555
Nb4 S4 2.911198 1_555
Nb5 S36 2.257572 1_555
Nb5 S13 2.471380 1_565
Nb5 S29 2.480640 1_555
Nb5 S1 2.501390 1_555
Nb5 S17 2.515663 1_554
Nb5 S33 2.521296 1_555
Nb5 S5 2.911198 1_555
Nb6 S39 2.257572 1_655
Nb6 S14 2.471380 1_545
Nb6 S30 2.480640 1_555
Nb6 S2 2.501390 1_555
Nb6 S18 2.515663 1_554
Nb6 S34 2.521296 1_555
Nb6 S6 2.911198 1_555
Nb7 S38 2.257572 1_455
Nb7 S15 2.471380 1_565
Nb7 S31 2.480640 1_555
Nb7 S3 2.501390 1_555
Nb7 S19 2.515663 1_555
Nb7 S35 2.521296 1_555
Nb7 S7 2.911198 1_555
S0 S12 2.082022 1_545
S1 S13 2.082022 1_565
S10 S27 2.076679 1_655
S11 S26 2.076679 1_455
S14 S2 2.082022 1_565
S15 S3 2.082022 1_545
S16 S28 2.075367 1_555
S17 S29 2.075367 1_556
S18 S30 2.075367 1_556
S19 S31 2.075367 1_555
S20 S6 2.079019 1_555
S21 S7 2.079019 1_555
S22 S4 2.079019 1_555
S23 S5 2.079019 1_555
S24 S9 2.076679 1_555
S25 S8 2.076679 1_555
