# generated using pymatgen
data_Li3MnCoO5
_symmetry_space_group_name_H-M   'P 1'
_cell_length_a   7.87355699
_cell_length_b   7.87355699
_cell_length_c   8.19937421
_cell_angle_alpha   75.75974773
_cell_angle_beta   75.75974773
_cell_angle_gamma   21.44704796
_symmetry_Int_Tables_number   1
_chemical_formula_structural   Li3MnCoO5
_chemical_formula_sum   'Li6 Mn2 Co2 O10'
_cell_volume   179.93747307
_cell_formula_units_Z   2
loop_
 _symmetry_equiv_pos_site_id
 _symmetry_equiv_pos_as_xyz
  1  'x, y, z'
loop_
 _atom_site_type_symbol
 _atom_site_label
 _atom_site_symmetry_multiplicity
 _atom_site_fract_x
 _atom_site_fract_y
 _atom_site_fract_z
 _atom_site_occupancy
  Li  Li0  1  0.39151600  0.39151600  0.31426800  1
  Li  Li1  1  0.60874000  0.60874000  0.67830200  1
  Li  Li2  1  0.79630600  0.79630600  0.11689700  1
  Li  Li3  1  0.00245100  0.00245100  0.50239700  1
  Li  Li4  1  0.20769100  0.20769100  0.89078900  1
  Li  Li5  1  0.20001400  0.20001400  0.40514500  1
  Mn  Mn0  1  0.00065200  0.00065200  0.99527900  1
  Mn  Mn1  1  0.60232200  0.60232200  0.20937800  1
  Co  Co0  1  0.39529500  0.39529500  0.78735400  1
  Co  Co1  1  0.79245100  0.79245100  0.58557500  1
  O  O0  1  0.58746500  0.58746500  0.96363700  1
  O  O1  1  0.80317000  0.80317000  0.36008200  1
  O  O2  1  0.99505700  0.99505700  0.76928500  1
  O  O3  1  0.18641500  0.18641500  0.15287900  1
  O  O4  1  0.39866900  0.39866900  0.56286300  1
  O  O5  1  0.20405000  0.20405000  0.65227800  1
  O  O6  1  0.41374100  0.41374100  0.04130300  1
  O  O7  1  0.59740400  0.59740400  0.42980800  1
  O  O8  1  0.80513700  0.80513700  0.85157400  1
  O  O9  1  0.01145600  0.01145600  0.23090700  1
loop_
_geom_bond_atom_site_label_1
_geom_bond_atom_site_label_2
_geom_bond_distance
_geom_bond_site_symmetry_2
Li0 O1 1.974523 1_545
Li0 O1 1.974523 1_455
Li0 O4 2.068808 1_555
Li0 O6 2.177650 1_555
Li0 O9 2.328541 1_565
Li0 O9 2.328541 1_655
Li1 O5 2.051555 1_655
Li1 O5 2.051555 1_565
Li1 O7 2.088322 1_555
Li1 O2 2.267070 1_455
Li1 O2 2.267070 1_545
Li1 O0 2.279544 1_555
Li2 O1 2.023168 1_555
Li2 O8 2.145357 1_554
Li2 O3 2.207494 1_655
Li2 O3 2.207494 1_565
Li2 O6 2.295204 1_655
Li2 O6 2.295204 1_565
Li3 O7 2.054522 1_455
Li3 O7 2.054522 1_545
Li3 O4 2.138191 1_455
Li3 O4 2.138191 1_545
Li3 O2 2.162511 1_445
Li3 O9 2.195314 1_555
Li4 O5 1.970500 1_555
Li4 O8 2.068844 1_545
Li4 O8 2.068844 1_455
Li4 O3 2.090989 1_556
Li4 O0 2.325277 1_545
Li4 O0 2.325277 1_455
Li5 O5 2.042865 1_555
Li5 O1 2.129532 1_545
Li5 O1 2.129532 1_455
Li5 O3 2.130860 1_555
Li5 O7 2.132350 1_545
Li5 O7 2.132350 1_455
Mn0 O2 1.876555 1_445
Mn0 O6 1.960319 1_546
Mn0 O6 1.960319 1_456
Mn0 O0 1.960427 1_455
Mn0 O0 1.960427 1_545
Mn0 O9 1.980476 1_556
Mn1 O7 1.789854 1_555
Mn1 O3 1.937002 1_655
Mn1 O3 1.937002 1_565
Mn1 O9 2.007421 1_565
Mn1 O9 2.007421 1_655
Mn1 O0 2.084387 1_554
Co0 O4 1.828315 1_555
Co0 O8 2.000411 1_455
Co0 O8 2.000411 1_545
Co0 O2 2.106240 1_545
Co0 O2 2.106240 1_455
Co0 O6 2.171328 1_556
Co1 O1 1.814498 1_555
Co1 O5 1.985352 1_655
Co1 O5 1.985352 1_565
Co1 O4 2.174529 1_655
Co1 O4 2.174529 1_565
Co1 O8 2.238247 1_555
