# generated using pymatgen
data_Sr2Pr2MnCuO8
_symmetry_space_group_name_H-M   'P 1'
_cell_length_a   3.86390400
_cell_length_b   3.86390400
_cell_length_c   12.58814900
_cell_angle_alpha   90.00000000
_cell_angle_beta   90.00000000
_cell_angle_gamma   90.00000000
_symmetry_Int_Tables_number   1
_chemical_formula_structural   Sr2Pr2MnCuO8
_chemical_formula_sum   'Sr2 Pr2 Mn1 Cu1 O8'
_cell_volume   187.93796941
_cell_formula_units_Z   1
loop_
 _symmetry_equiv_pos_site_id
 _symmetry_equiv_pos_as_xyz
  1  'x, y, z'
loop_
 _atom_site_type_symbol
 _atom_site_label
 _atom_site_symmetry_multiplicity
 _atom_site_fract_x
 _atom_site_fract_y
 _atom_site_fract_z
 _atom_site_occupancy
  Sr  Sr0  1  0.00000000  0.00000000  0.64156600  1
  Sr  Sr1  1  0.00000000  0.00000000  0.35843400  1
  Pr  Pr0  1  0.50000000  0.50000000  0.13946200  1
  Pr  Pr1  1  0.50000000  0.50000000  0.86053800  1
  Mn  Mn0  1  0.50000000  0.50000000  0.50000000  1
  Cu  Cu0  1  0.00000000  0.00000000  0.00000000  1
  O  O0  1  0.50000000  0.50000000  0.32034700  1
  O  O1  1  0.00000000  0.00000000  0.83884100  1
  O  O2  1  0.00000000  0.00000000  0.16115900  1
  O  O3  1  0.50000000  0.50000000  0.67965300  1
  O  O4  1  0.00000000  0.50000000  0.50000000  1
  O  O5  1  0.50000000  0.00000000  0.00000000  1
  O  O6  1  0.00000000  0.50000000  0.00000000  1
  O  O7  1  0.50000000  0.00000000  0.50000000  1
loop_
_geom_bond_atom_site_label_1
_geom_bond_atom_site_label_2
_geom_bond_distance
_geom_bond_site_symmetry_2
Mn0 O4 1.931952 1_555
Mn0 O7 1.931952 1_555
Mn0 O7 1.931952 1_565
Mn0 O4 1.931952 1_655
Mn0 O3 2.261499 1_555
Mn0 O0 2.261499 1_555
Cu0 O6 1.931952 1_545
Cu0 O5 1.931952 1_455
Cu0 O5 1.931952 1_555
Cu0 O6 1.931952 1_555
Cu0 O2 2.028694 1_555
Cu0 O1 2.028694 1_554
O0 Pr0 2.277007 1_555
O0 Sr1 2.773940 1_555
O0 Sr1 2.773940 1_655
O0 Sr1 2.773940 1_565
O0 Sr1 2.773940 1_665
O1 Sr0 2.483327 1_555
O1 Pr1 2.745810 1_455
O1 Pr1 2.745810 1_555
O1 Pr1 2.745810 1_545
O1 Pr1 2.745810 1_445
O2 Sr1 2.483327 1_555
O2 Pr0 2.745810 1_445
O2 Pr0 2.745810 1_455
O2 Pr0 2.745810 1_545
O2 Pr0 2.745810 1_555
O3 Pr1 2.277007 1_555
O3 Sr0 2.773940 1_555
O3 Sr0 2.773940 1_565
O3 Sr0 2.773940 1_665
O3 Sr0 2.773940 1_655
O4 Sr0 2.628337 1_555
O4 Sr0 2.628337 1_565
O4 Sr1 2.628337 1_565
O4 Sr1 2.628337 1_555
O5 Pr0 2.610452 1_545
O5 Pr0 2.610452 1_555
O5 Pr1 2.610452 1_544
O5 Pr1 2.610452 1_554
O6 Pr0 2.610452 1_555
O6 Pr0 2.610452 1_455
O6 Pr1 2.610452 1_454
O6 Pr1 2.610452 1_554
O7 Sr0 2.628337 1_555
O7 Sr0 2.628337 1_655
O7 Sr1 2.628337 1_655
O7 Sr1 2.628337 1_555
