# generated using pymatgen
data_K3NaFeCl6
_symmetry_space_group_name_H-M   'P 1'
_cell_length_a   11.87797669
_cell_length_b   11.87797669
_cell_length_c   7.26348514
_cell_angle_alpha   77.37608676
_cell_angle_beta   77.37608676
_cell_angle_gamma   124.24905668
_symmetry_Int_Tables_number   1
_chemical_formula_structural   K3NaFeCl6
_chemical_formula_sum   'K6 Na2 Fe2 Cl12'
_cell_volume   748.84212830
_cell_formula_units_Z   2
loop_
 _symmetry_equiv_pos_site_id
 _symmetry_equiv_pos_as_xyz
  1  'x, y, z'
loop_
 _atom_site_type_symbol
 _atom_site_label
 _atom_site_symmetry_multiplicity
 _atom_site_fract_x
 _atom_site_fract_y
 _atom_site_fract_z
 _atom_site_occupancy
  K  K0  1  0.86651700  0.55060500  0.56920200  1
  K  K1  1  0.28308700  0.71691300  0.75000000  1
  K  K2  1  0.44939500  0.13348300  0.93079800  1
  K  K3  1  0.13348300  0.44939500  0.43079800  1
  K  K4  1  0.71691300  0.28308700  0.25000000  1
  K  K5  1  0.55060500  0.86651700  0.06920200  1
  Na  Na0  1  0.50310900  0.49689100  0.25000000  1
  Na  Na1  1  0.49689100  0.50310900  0.75000000  1
  Fe  Fe0  1  0.00000000  0.00000000  0.00000000  1
  Fe  Fe1  1  0.00000000  0.00000000  0.50000000  1
  Cl  Cl0  1  0.04737700  0.59992700  0.17280900  1
  Cl  Cl1  1  0.43913500  0.62396200  0.47462900  1
  Cl  Cl2  1  0.83321200  0.84713100  0.86777400  1
  Cl  Cl3  1  0.95262300  0.40007300  0.82719100  1
  Cl  Cl4  1  0.56086500  0.37603800  0.52537100  1
  Cl  Cl5  1  0.16678800  0.15286900  0.13222600  1
  Cl  Cl6  1  0.62396200  0.43913500  0.97462900  1
  Cl  Cl7  1  0.84713100  0.83321200  0.36777400  1
  Cl  Cl8  1  0.59992700  0.04737700  0.67280900  1
  Cl  Cl9  1  0.37603800  0.56086500  0.02537100  1
  Cl  Cl10  1  0.15286900  0.16678800  0.63222600  1
  Cl  Cl11  1  0.40007300  0.95262300  0.32719100  1
loop_
_geom_bond_atom_site_label_1
_geom_bond_atom_site_label_2
_geom_bond_distance
_geom_bond_site_symmetry_2
Cl0 K0 2.896637 1_455
Cl0 K3 3.030861 1_555
Cl0 K1 3.032882 1_554
Cl0 K4 3.372455 1_455
Cl1 Na1 2.642932 1_555
Cl1 Na0 2.709813 1_555
Cl1 K5 3.003183 1_555
Cl1 K3 3.146741 1_555
Cl1 K1 3.209886 1_555
Cl2 Fe0 2.385197 1_666
Cl2 Fe1 2.423922 1_665
Cl2 K5 3.511734 1_556
Cl3 K3 2.896637 1_655
Cl3 K0 3.030861 1_555
Cl3 K4 3.032882 1_556
Cl3 K1 3.372455 1_655
Cl4 Na0 2.642932 1_555
Cl4 Na1 2.709813 1_555
Cl4 K2 3.003183 1_555
Cl4 K0 3.146741 1_555
Cl4 K4 3.209886 1_555
Cl5 Fe0 2.385197 1_555
Cl5 Fe1 2.423922 1_555
Cl5 K2 3.511734 1_554
Cl6 Na0 2.642932 1_556
Cl6 Na1 2.709813 1_555
Cl6 K0 3.003183 1_555
Cl6 K2 3.146741 1_555
Cl6 K4 3.209886 1_556
Cl7 Fe1 2.385197 1_665
Cl7 Fe0 2.423922 1_665
Cl7 K0 3.511734 1_555
Cl8 K5 2.896637 1_546
Cl8 K2 3.030861 1_555
Cl8 K4 3.032882 1_555
Cl8 K1 3.372455 1_545
Cl9 Na1 2.642932 1_554
Cl9 Na0 2.709813 1_555
Cl9 K3 3.003183 1_555
Cl9 K5 3.146741 1_555
Cl9 K1 3.209886 1_554
Cl10 Fe1 2.385197 1_555
Cl10 Fe0 2.423922 1_556
Cl10 K3 3.511734 1_555
Cl11 K2 2.896637 1_564
Cl11 K5 3.030861 1_555
Cl11 K1 3.032882 1_555
Cl11 K4 3.372455 1_565
