# generated using pymatgen
data_NaAgTe5O14
_symmetry_space_group_name_H-M   'P 1'
_cell_length_a   24.68938156
_cell_length_b   6.67168338
_cell_length_c   7.32936734
_cell_angle_alpha   68.97665989
_cell_angle_beta   90.00000000
_cell_angle_gamma   90.00000000
_symmetry_Int_Tables_number   1
_chemical_formula_structural   NaAgTe5O14
_chemical_formula_sum   'Na4 Ag4 Te20 O56'
_cell_volume   1126.92733218
_cell_formula_units_Z   4
loop_
 _symmetry_equiv_pos_site_id
 _symmetry_equiv_pos_as_xyz
  1  'x, y, z'
loop_
 _atom_site_type_symbol
 _atom_site_label
 _atom_site_symmetry_multiplicity
 _atom_site_fract_x
 _atom_site_fract_y
 _atom_site_fract_z
 _atom_site_occupancy
  Na  Na0  1  0.37361042  0.94902964  0.76364911  1
  Na  Na1  1  0.62638958  0.05097036  0.23635089  1
  Na  Na2  1  0.87361042  0.05097036  0.73635089  1
  Na  Na3  1  0.12638958  0.94902964  0.26364911  1
  Ag  Ag0  1  0.06600934  0.47907179  0.65120792  1
  Ag  Ag1  1  0.93399066  0.52092821  0.34879208  1
  Ag  Ag2  1  0.56600934  0.52092821  0.84879208  1
  Ag  Ag3  1  0.43399066  0.47907179  0.15120792  1
  Te  Te0  1  0.12532186  0.93178486  0.77257949  1
  Te  Te1  1  0.87467814  0.06821514  0.22742051  1
  Te  Te2  1  0.62532186  0.06821514  0.72742051  1
  Te  Te3  1  0.37467814  0.93178486  0.27257949  1
  Te  Te4  1  0.31148915  0.39942926  0.89538924  1
  Te  Te5  1  0.68851085  0.60057074  0.10461076  1
  Te  Te6  1  0.81148915  0.60057074  0.60461076  1
  Te  Te7  1  0.18851085  0.39942926  0.39538924  1
  Te  Te8  1  0.25093278  0.86690687  0.55094997  1
  Te  Te9  1  0.74906722  0.13309313  0.44905003  1
  Te  Te10  1  0.75093278  0.13309313  0.94905003  1
  Te  Te11  1  0.24906722  0.86690687  0.05094997  1
  Te  Te12  1  0.42921336  0.46948422  0.66841458  1
  Te  Te13  1  0.57078664  0.53051578  0.33158542  1
  Te  Te14  1  0.92921336  0.53051578  0.83158542  1
  Te  Te15  1  0.07078664  0.46948422  0.16841458  1
  Te  Te16  1  0.50000000  0.00000000  0.00000000  1
  Te  Te17  1  0.00000000  0.00000000  0.50000000  1
  Te  Te18  1  0.50000000  0.00000000  0.50000000  1
  Te  Te19  1  0.00000000  0.00000000  0.00000000  1
  O  O0  1  0.10464548  0.64302629  0.90896799  1
  O  O1  1  0.89535452  0.35697371  0.09103201  1
  O  O2  1  0.60464548  0.35697371  0.59103201  1
  O  O3  1  0.39535452  0.64302629  0.40896799  1
  O  O4  1  0.26350450  0.56966449  0.63562406  1
  O  O5  1  0.73649550  0.43033551  0.36437594  1
  O  O6  1  0.76350450  0.43033551  0.86437594  1
  O  O7  1  0.23649550  0.56966449  0.13562406  1
  O  O8  1  0.98186988  0.70865583  0.55977716  1
  O  O9  1  0.01813012  0.29134417  0.44022284  1
  O  O10  1  0.48186988  0.29134417  0.94022284  1
  O  O11  1  0.51813012  0.70865583  0.05977716  1
  O  O12  1  0.27600752  0.86958213  0.80195515  1
  O  O13  1  0.72399248  0.13041787  0.19804485  1
  O  O14  1  0.77600752  0.13041787  0.69804485  1
  O  O15  1  0.22399248  0.86958213  0.30195515  1
  O  O16  1  0.17414816  0.92186050  0.98134979  1
  O  O17  1  0.82585184  0.07813950  0.01865021  1
  O  O18  1  0.67414816  0.07813950  0.51865021  1
  O  O19  1  0.32585184  0.92186050  0.48134979  1
  O  O20  1  0.97419576  0.97521910  0.75965820  1
  O  O21  1  0.02580424  0.02478090  0.24034180  1
  O  O22  1  0.47419576  0.02478090  0.74034180  1
  O  O23  1  0.52580424  0.97521910  0.25965820  1
  O  O24  1  0.14272474  0.22158299  0.63847574  1
  O  O25  1  0.85727526  0.77841701  0.36152426  1
  O  O26  1  0.64272474  0.77841701  0.86152426  1
  O  O27  1  0.35727526  0.22158299  0.13847574  1
  O  O28  1  0.75713327  0.82721716  0.54209944  1
  O  O29  1  0.24286673  0.17278284  0.45790056  1
  O  O30  1  0.25713327  0.17278284  0.95790056  1
  O  O31  1  0.74286673  0.82721716  0.04209944  1
  O  O32  1  0.92519074  0.96062412  0.07955904  1
  O  O33  1  0.07480926  0.03937588  0.92044096  1
  O  O34  1  0.42519074  0.03937588  0.42044096  1
  O  O35  1  0.57480926  0.96062412  0.57955904  1
  O  O36  1  0.49292203  0.69457458  0.60697226  1
  O  O37  1  0.50707797  0.30542542  0.39302774  1
  O  O38  1  0.99292203  0.30542542  0.89302774  1
  O  O39  1  0.00707797  0.69457458  0.10697226  1
  O  O40  1  0.85454924  0.71116650  0.76007939  1
  O  O41  1  0.14545076  0.28883350  0.23992061  1
  O  O42  1  0.35454924  0.28883350  0.73992061  1
  O  O43  1  0.64545076  0.71116650  0.26007939  1
  O  O44  1  0.17600469  0.82321822  0.62883916  1
  O  O45  1  0.82399531  0.17678178  0.37116084  1
  O  O46  1  0.67600469  0.17678178  0.87116084  1
  O  O47  1  0.32399531  0.82321822  0.12883916  1
  O  O48  1  0.07506146  0.92156576  0.57280180  1
  O  O49  1  0.92493854  0.07843424  0.42719820  1
  O  O50  1  0.57506146  0.07843424  0.92719820  1
  O  O51  1  0.42493854  0.92156576  0.07280180  1
  O  O52  1  0.39553936  0.60489272  0.81999332  1
  O  O53  1  0.60446064  0.39510728  0.18000668  1
  O  O54  1  0.89553936  0.39510728  0.68000668  1
  O  O55  1  0.10446064  0.60489272  0.31999332  1
loop_
_geom_bond_atom_site_label_1
_geom_bond_atom_site_label_2
_geom_bond_distance
_geom_bond_site_symmetry_2
Na0 O52 2.248301 1_555
Na0 O42 2.260178 1_565
Na0 O19 2.444048 1_555
Na0 O12 2.461691 1_555
Na0 O22 2.527821 1_565
Na0 O51 2.544780 1_556
Na0 O34 2.687921 1_565
Na0 O47 2.785204 1_556
Na1 O53 2.248301 1_555
Na1 O43 2.260178 1_545
Na1 O18 2.444048 1_555
Na1 O13 2.461691 1_555
Na1 O23 2.527821 1_545
Na1 O50 2.544780 1_554
Na1 O35 2.687921 1_545
Na1 O46 2.785204 1_554
Na2 O54 2.248301 1_555
Na2 O40 2.260178 1_545
Na2 O17 2.444048 1_556
Na2 O14 2.461691 1_555
Na2 O20 2.527821 1_545
Na2 O49 2.544780 1_555
Na2 O32 2.687921 1_546
Na2 O45 2.785204 1_555
Na3 O55 2.248301 1_555
Na3 O41 2.260178 1_565
Na3 O16 2.444048 1_554
Na3 O15 2.461691 1_555
Na3 O21 2.527821 1_565
Na3 O48 2.544780 1_555
Na3 O33 2.687921 1_564
Na3 O44 2.785204 1_555
Ag0 O55 2.457028 1_555
Ag0 O38 2.503277 1_455
Ag0 O8 2.524704 1_455
Ag0 O24 2.581144 1_555
Ag0 O9 2.597496 1_555
Ag0 O0 2.675503 1_555
Ag1 O54 2.457028 1_555
Ag1 O39 2.503277 1_655
Ag1 O9 2.524704 1_655
Ag1 O25 2.581144 1_555
Ag1 O8 2.597496 1_555
Ag1 O1 2.675503 1_555
Ag2 O53 2.457028 1_556
Ag2 O36 2.503277 1_555
Ag2 O10 2.524704 1_555
Ag2 O26 2.581144 1_555
Ag2 O11 2.597496 1_556
Ag2 O2 2.675503 1_555
Ag3 O52 2.457028 1_554
Ag3 O37 2.503277 1_555
Ag3 O11 2.524704 1_555
Ag3 O27 2.581144 1_555
Ag3 O10 2.597496 1_554
Ag3 O3 2.675503 1_555
O0 Te0 1.894608 1_555
O0 Te15 2.018828 1_556
O1 Te1 1.894608 1_555
O1 Te14 2.018828 1_554
O2 Te2 1.894608 1_555
O2 Te13 2.018828 1_555
O3 Te3 1.894608 1_555
O3 Te12 2.018828 1_555
O4 Te8 1.879139 1_555
O4 Te4 2.183316 1_555
O5 Te9 1.879139 1_555
O5 Te5 2.183316 1_555
O6 Te10 1.879139 1_555
O6 Te6 2.183316 1_555
O7 Te11 1.879139 1_555
O7 Te7 2.183316 1_555
O8 Te17 1.886658 1_665
O8 Te14 2.317896 1_555
O9 Te17 1.886658 1_555
O9 Te15 2.317896 1_555
O10 Te16 1.886658 1_556
O10 Te12 2.317896 1_555
O11 Te16 1.886658 1_565
O11 Te13 2.317896 1_555
O12 Te11 1.936463 1_556
O12 Te8 1.947221 1_555
O13 Te10 1.936463 1_554
O13 Te9 1.947221 1_555
O14 Te9 1.936463 1_555
O14 Te10 1.947221 1_555
O15 Te8 1.936463 1_555
O15 Te11 1.947221 1_555
O16 Te11 1.918819 1_556
O16 Te0 1.930355 1_555
O17 Te10 1.918819 1_554
O17 Te1 1.930355 1_555
O18 Te9 1.918819 1_555
O18 Te2 1.930355 1_555
O19 Te8 1.918819 1_555
O19 Te3 1.930355 1_555
O20 Te19 1.935265 1_666
O20 Te17 1.956877 1_665
O21 Te19 1.935265 1_555
O21 Te17 1.956877 1_555
O22 Te18 1.935265 1_555
O22 Te16 1.956877 1_556
O23 Te18 1.935265 1_565
O23 Te16 1.956877 1_565
O24 Te0 1.877600 1_545
O24 Te7 2.084056 1_555
O25 Te1 1.877600 1_565
O25 Te6 2.084056 1_555
O26 Te2 1.877600 1_565
O26 Te5 2.084056 1_556
O27 Te3 1.877600 1_545
O27 Te4 2.084056 1_554
O28 Te9 1.915904 1_565
O28 Te6 1.949441 1_555
O29 Te8 1.915904 1_545
O29 Te7 1.949441 1_555
O30 Te11 1.915904 1_546
O30 Te4 1.949441 1_555
O31 Te10 1.915904 1_564
O31 Te5 1.949441 1_555
O32 Te19 1.926270 1_665
O32 Te1 1.950180 1_565
O33 Te19 1.926270 1_556
O33 Te0 1.950180 1_545
O34 Te18 1.926270 1_555
O34 Te3 1.950180 1_545
O35 Te18 1.926270 1_565
O35 Te2 1.950180 1_565
O36 Te18 1.910807 1_565
O36 Te12 2.108761 1_555
O37 Te18 1.910807 1_555
O37 Te13 2.108761 1_555
O38 Te19 1.910807 1_656
O38 Te14 2.108761 1_555
O39 Te19 1.910807 1_565
O39 Te15 2.108761 1_555
O40 Te6 1.891128 1_555
O40 Te14 2.161536 1_555
O41 Te7 1.891128 1_555
O41 Te15 2.161536 1_555
O42 Te4 1.891128 1_555
O42 Te12 2.161536 1_555
O43 Te5 1.891128 1_555
O43 Te13 2.161536 1_555
O44 Te8 1.927098 1_555
O44 Te0 1.935948 1_555
O45 Te9 1.927098 1_555
O45 Te1 1.935948 1_555
O46 Te10 1.927098 1_555
O46 Te2 1.935948 1_555
O47 Te11 1.927098 1_555
O47 Te3 1.935948 1_555
O48 Te0 1.939102 1_555
O48 Te17 1.947470 1_565
O49 Te1 1.939102 1_555
O49 Te17 1.947470 1_655
O50 Te2 1.939102 1_555
O50 Te16 1.947470 1_556
O51 Te3 1.939102 1_555
O51 Te16 1.947470 1_565
O52 Te12 1.860574 1_555
O52 Te4 2.438680 1_555
O53 Te13 1.860574 1_555
O53 Te5 2.438680 1_555
O54 Te14 1.860574 1_555
O54 Te6 2.438680 1_555
O55 Te15 1.860574 1_555
O55 Te7 2.438680 1_555
