# generated using pymatgen
data_Dy4CoB13
_symmetry_space_group_name_H-M   'P 1'
_cell_length_a   7.30732600
_cell_length_b   7.30732600
_cell_length_c   6.89485200
_cell_angle_alpha   90.00000000
_cell_angle_beta   90.00000000
_cell_angle_gamma   90.00000000
_symmetry_Int_Tables_number   1
_chemical_formula_structural   Dy4CoB13
_chemical_formula_sum   'Dy8 Co2 B26'
_cell_volume   368.16450374
_cell_formula_units_Z   2
loop_
 _symmetry_equiv_pos_site_id
 _symmetry_equiv_pos_as_xyz
  1  'x, y, z'
loop_
 _atom_site_type_symbol
 _atom_site_label
 _atom_site_symmetry_multiplicity
 _atom_site_fract_x
 _atom_site_fract_y
 _atom_site_fract_z
 _atom_site_occupancy
  Dy  Dy0  1  0.68534400  0.18156700  0.50000000  1
  Dy  Dy1  1  0.31465600  0.81843300  0.50000000  1
  Dy  Dy2  1  0.18534400  0.31843300  0.00000000  1
  Dy  Dy3  1  0.81465600  0.68156700  0.00000000  1
  Dy  Dy4  1  0.81843300  0.68534400  0.50000000  1
  Dy  Dy5  1  0.18156700  0.31465600  0.50000000  1
  Dy  Dy6  1  0.68156700  0.18534400  0.00000000  1
  Dy  Dy7  1  0.31843300  0.81465600  0.00000000  1
  Co  Co0  1  0.50000000  0.50000000  0.50000000  1
  Co  Co1  1  0.00000000  0.00000000  0.00000000  1
  B  B0  1  0.50000000  0.50000000  0.00000000  1
  B  B1  1  0.00000000  0.00000000  0.50000000  1
  B  B2  1  0.90865300  0.40865300  0.25000000  1
  B  B3  1  0.09134700  0.59134700  0.25000000  1
  B  B4  1  0.40865300  0.09134700  0.75000000  1
  B  B5  1  0.59134700  0.90865300  0.75000000  1
  B  B6  1  0.59134700  0.90865300  0.25000000  1
  B  B7  1  0.40865300  0.09134700  0.25000000  1
  B  B8  1  0.90865300  0.40865300  0.75000000  1
  B  B9  1  0.09134700  0.59134700  0.75000000  1
  B  B10  1  0.53919600  0.67017700  0.24688400  1
  B  B11  1  0.46080400  0.32982300  0.24688400  1
  B  B12  1  0.03919600  0.82982300  0.74688400  1
  B  B13  1  0.96080400  0.17017700  0.74688400  1
  B  B14  1  0.32982300  0.53919600  0.24688400  1
  B  B15  1  0.67017700  0.46080400  0.24688400  1
  B  B16  1  0.17017700  0.03919600  0.74688400  1
  B  B17  1  0.82982300  0.96080400  0.74688400  1
  B  B18  1  0.46080400  0.32982300  0.75311600  1
  B  B19  1  0.53919600  0.67017700  0.75311600  1
  B  B20  1  0.96080400  0.17017700  0.25311600  1
  B  B21  1  0.03919600  0.82982300  0.25311600  1
  B  B22  1  0.67017700  0.46080400  0.75311600  1
  B  B23  1  0.32982300  0.53919600  0.75311600  1
  B  B24  1  0.82982300  0.96080400  0.25311600  1
  B  B25  1  0.17017700  0.03919600  0.25311600  1
loop_
_geom_bond_atom_site_label_1
_geom_bond_atom_site_label_2
_geom_bond_distance
_geom_bond_site_symmetry_2
Co0 Dy4 2.692350 1_555
Co0 Dy1 2.692350 1_555
Co0 Dy0 2.692350 1_555
Co0 Dy5 2.692350 1_555
Co1 Dy2 2.692350 1_555
Co1 Dy7 2.692350 1_545
Co1 Dy6 2.692350 1_455
Co1 Dy3 2.692350 1_445
B0 B15 2.127441 1_555
B0 B22 2.127441 1_554
B0 B19 2.127441 1_554
B0 B23 2.127441 1_554
B0 B10 2.127441 1_555
B0 B14 2.127441 1_555
B0 B11 2.127441 1_555
B0 B18 2.127441 1_554
B0 Dy3 2.654632 1_555
B0 Dy7 2.654632 1_555
B0 Dy6 2.654632 1_555
B0 Dy2 2.654632 1_555
B1 B21 2.127441 1_545
B1 B24 2.127441 1_445
B1 B25 2.127441 1_555
B1 B13 2.127441 1_455
B1 B20 2.127441 1_455
B1 B17 2.127441 1_445
B1 B16 2.127441 1_555
B1 B12 2.127441 1_545
B1 Dy5 2.654632 1_555
B1 Dy0 2.654632 1_455
B1 Dy4 2.654632 1_445
B1 Dy1 2.654632 1_545
B2 B20 1.783933 1_555
B2 B3 1.887982 1_655
B2 Dy3 2.723984 1_555
B2 Dy5 2.723984 1_655
B2 Dy4 2.737478 1_555
B2 Dy2 2.737478 1_655
B2 Dy0 2.896120 1_555
B2 Dy6 2.896120 1_555
B3 Dy4 2.723984 1_455
B3 Dy2 2.723984 1_555
B3 Dy5 2.737478 1_555
B3 Dy3 2.737478 1_455
B3 Dy7 2.896120 1_555
B3 Dy1 2.896120 1_555
B4 B5 1.887982 1_545
B4 Dy6 2.723984 1_556
B4 Dy1 2.723984 1_545
B4 Dy0 2.737478 1_555
B4 Dy7 2.737478 1_546
B4 Dy2 2.896120 1_556
B4 Dy5 2.896120 1_555
B5 Dy0 2.723984 1_565
B5 Dy7 2.723984 1_556
B5 Dy1 2.737478 1_555
B5 Dy6 2.737478 1_566
B5 Dy3 2.896120 1_556
B5 Dy4 2.896120 1_555
B6 B7 1.887982 1_565
B6 Dy0 2.723984 1_565
B6 Dy7 2.723984 1_555
B6 Dy1 2.737478 1_555
B6 Dy6 2.737478 1_565
B6 Dy3 2.896120 1_555
B6 Dy4 2.896120 1_555
B7 Dy6 2.723984 1_555
B7 Dy1 2.723984 1_545
B7 Dy0 2.737478 1_555
B7 Dy7 2.737478 1_545
B7 Dy2 2.896120 1_555
B7 Dy5 2.896120 1_555
B8 B9 1.887982 1_655
B8 Dy3 2.723984 1_556
B8 Dy5 2.723984 1_655
B8 Dy4 2.737478 1_555
B8 Dy2 2.737478 1_656
B8 Dy0 2.896120 1_555
B8 Dy6 2.896120 1_556
B9 Dy4 2.723984 1_455
B9 Dy2 2.723984 1_556
B9 Dy5 2.737478 1_555
B9 Dy3 2.737478 1_456
B9 Dy7 2.896120 1_556
B9 Dy1 2.896120 1_555
B10 B6 1.783933 1_555
B10 B14 1.804674 1_555
B10 B15 1.804674 1_555
B10 Co0 2.161975 1_555
B10 Dy7 2.571881 1_555
B10 Dy1 2.628983 1_555
B10 Dy3 2.637457 1_555
B10 Dy4 2.687292 1_555
B11 B7 1.783933 1_555
B11 B14 1.804674 1_555
B11 B15 1.804674 1_555
B11 Co0 2.161975 1_555
B11 Dy6 2.571881 1_555
B11 Dy0 2.628983 1_555
B11 Dy2 2.637457 1_555
B11 Dy5 2.687292 1_555
B12 B9 1.783933 1_555
B12 B17 1.804674 1_455
B12 B16 1.804674 1_565
B12 Co1 2.161975 1_566
B12 Dy4 2.571881 1_455
B12 Dy3 2.628983 1_456
B12 Dy1 2.637457 1_555
B12 Dy7 2.687292 1_556
B13 B8 1.783933 1_555
B13 B17 1.804674 1_545
B13 B16 1.804674 1_655
B13 Co1 2.161975 1_656
B13 Dy5 2.571881 1_655
B13 Dy2 2.628983 1_656
B13 Dy0 2.637457 1_555
B13 Dy6 2.687292 1_556
B14 B3 1.783933 1_555
B14 Co0 2.161975 1_555
B14 Dy2 2.571881 1_555
B14 Dy5 2.628983 1_555
B14 Dy7 2.637457 1_555
B14 Dy1 2.687292 1_555
B15 B2 1.783933 1_555
B15 Co0 2.161975 1_555
B15 Dy3 2.571881 1_555
B15 Dy4 2.628983 1_555
B15 Dy6 2.637457 1_555
B15 Dy0 2.687292 1_555
B16 B4 1.783933 1_555
B16 Co1 2.161975 1_556
B16 Dy1 2.571881 1_545
B16 Dy7 2.628983 1_546
B16 Dy5 2.637457 1_555
B16 Dy2 2.687292 1_556
B17 B5 1.783933 1_555
B17 Co1 2.161975 1_666
B17 Dy0 2.571881 1_565
B17 Dy6 2.628983 1_566
B17 Dy4 2.637457 1_555
B17 Dy3 2.687292 1_556
B18 B4 1.783933 1_555
B18 B22 1.804674 1_555
B18 B23 1.804674 1_555
B18 Co0 2.161975 1_555
B18 Dy6 2.571881 1_556
B18 Dy0 2.628983 1_555
B18 Dy2 2.637457 1_556
B18 Dy5 2.687292 1_555
B19 B5 1.783933 1_555
B19 B22 1.804674 1_555
B19 B23 1.804674 1_555
B19 Co0 2.161975 1_555
B19 Dy7 2.571881 1_556
B19 Dy1 2.628983 1_555
B19 Dy3 2.637457 1_556
B19 Dy4 2.687292 1_555
B20 B24 1.804674 1_545
B20 B25 1.804674 1_655
B20 Co1 2.161975 1_655
B20 Dy5 2.571881 1_655
B20 Dy2 2.628983 1_655
B20 Dy0 2.637457 1_555
B20 Dy6 2.687292 1_555
B21 B3 1.783933 1_555
B21 B25 1.804674 1_565
B21 B24 1.804674 1_455
B21 Co1 2.161975 1_565
B21 Dy4 2.571881 1_455
B21 Dy3 2.628983 1_455
B21 Dy1 2.637457 1_555
B21 Dy7 2.687292 1_555
B22 B8 1.783933 1_555
B22 Co0 2.161975 1_555
B22 Dy3 2.571881 1_556
B22 Dy4 2.628983 1_555
B22 Dy6 2.637457 1_556
B22 Dy0 2.687292 1_555
B23 B9 1.783933 1_555
B23 Co0 2.161975 1_555
B23 Dy2 2.571881 1_556
B23 Dy5 2.628983 1_555
B23 Dy7 2.637457 1_556
B23 Dy1 2.687292 1_555
B24 B6 1.783933 1_555
B24 Co1 2.161975 1_665
B24 Dy0 2.571881 1_565
B24 Dy6 2.628983 1_565
B24 Dy4 2.637457 1_555
B24 Dy3 2.687292 1_555
B25 B7 1.783933 1_555
B25 Co1 2.161975 1_555
B25 Dy1 2.571881 1_545
B25 Dy7 2.628983 1_545
B25 Dy5 2.637457 1_555
B25 Dy2 2.687292 1_555
