# generated using pymatgen
data_Ce4AlCo25
_symmetry_space_group_name_H-M   'P 1'
_cell_length_a   4.02926627
_cell_length_b   4.81000158
_cell_length_c   21.01448583
_cell_angle_alpha   96.57161252
_cell_angle_beta   90.00000000
_cell_angle_gamma   90.00000000
_symmetry_Int_Tables_number   1
_chemical_formula_structural   Ce4AlCo25
_chemical_formula_sum   'Ce4 Al1 Co25'
_cell_volume   404.60108935
_cell_formula_units_Z   1
loop_
 _symmetry_equiv_pos_site_id
 _symmetry_equiv_pos_as_xyz
  1  'x, y, z'
loop_
 _atom_site_type_symbol
 _atom_site_label
 _atom_site_symmetry_multiplicity
 _atom_site_fract_x
 _atom_site_fract_y
 _atom_site_fract_z
 _atom_site_occupancy
  Ce  Ce0  1  -0.00000000  0.59823441  0.19664286  1
  Ce  Ce1  1  -0.00000000  0.19975931  0.39953765  1
  Ce  Ce2  1  -0.00000000  0.80022167  0.60046235  1
  Ce  Ce3  1  -0.00000000  0.40159154  0.80335714  1
  Al  Al0  1  -0.00000000  0.00003241  0.00000000  1
  Co  Co0  1  -0.00000000  0.06066888  0.12126977  1
  Co  Co1  1  -0.00000000  0.66636814  0.33286100  1
  Co  Co2  1  0.00000000  0.26661357  0.53322666  1
  Co  Co3  1  -0.00000000  0.86722208  0.73441790  1
  Co  Co4  1  0.00000000  0.47001944  0.94004195  1
  Co  Co5  1  0.00000000  0.52997749  0.05995805  1
  Co  Co6  1  -0.00000000  0.13280418  0.26558210  1
  Co  Co7  1  0.00000000  0.73338692  0.46677334  1
  Co  Co8  1  -0.00000000  0.33350715  0.66713900  1
  Co  Co9  1  -0.00000000  0.93939911  0.87873023  1
  Co  Co10  1  0.50000000  0.09881321  0.19772249  1
  Co  Co11  1  0.50000000  0.69989635  0.39975164  1
  Co  Co12  1  0.50000000  0.30014471  0.60024836  1
  Co  Co13  1  0.50000000  0.90109071  0.80227751  1
  Co  Co14  1  0.50000000  0.49982624  1.00000000  1
  Co  Co15  1  0.50000000  0.28923903  0.09462465  1
  Co  Co16  1  0.50000000  0.89974899  0.29898944  1
  Co  Co17  1  0.50000000  0.50000892  0.50000090  1
  Co  Co18  1  0.50000000  0.10022473  0.70100429  1
  Co  Co19  1  0.50000000  0.71074184  0.90538527  1
  Co  Co20  1  0.50000000  0.80535657  0.09461473  1
  Co  Co21  1  0.50000000  0.39922044  0.29899571  1
  Co  Co22  1  0.50000000  0.00000802  0.49999910  1
  Co  Co23  1  0.50000000  0.60075955  0.70101056  1
  Co  Co24  1  0.50000000  0.19461438  0.90537535  1
loop_
_geom_bond_atom_site_label_1
_geom_bond_atom_site_label_2
_geom_bond_distance
_geom_bond_site_symmetry_2
Ce0 Co6 2.802324 1_555
Ce0 Co6 2.803151 1_565
Ce0 Co1 2.843746 1_555
Ce0 Co5 2.853488 1_555
Ce0 Co0 2.873533 1_555
Ce0 Co0 2.874508 1_565
Ce0 Co10 3.137257 1_455
Ce0 Co10 3.137257 1_555
Ce0 Co10 3.137544 1_465
Ce0 Co10 3.137544 1_565
Ce0 Co21 3.173752 1_455
Ce0 Co21 3.173752 1_555
Ce0 Co16 3.173939 1_455
Ce0 Co16 3.173939 1_555
Ce0 Co15 3.183481 1_455
Ce0 Co15 3.183481 1_555
Ce0 Co20 3.183901 1_555
Ce0 Co20 3.183901 1_455
Ce1 Co1 2.778558 1_555
Ce1 Co1 2.778998 1_545
Ce1 Co7 2.784602 1_545
Ce1 Co7 2.784683 1_555
Ce1 Co2 2.790947 1_555
Ce1 Co6 2.796511 1_555
Ce1 Co11 3.137212 1_545
Ce1 Co11 3.137212 1_445
Ce1 Co11 3.137434 1_455
Ce1 Co11 3.137434 1_555
Ce1 Co22 3.146920 1_455
Ce1 Co22 3.146920 1_555
Ce1 Co17 3.147011 1_455
Ce1 Co17 3.147011 1_555
Ce1 Co21 3.147581 1_455
Ce1 Co21 3.147581 1_555
Ce1 Co16 3.147676 1_445
Ce1 Co16 3.147676 1_545
Ce2 Co8 2.778558 1_565
Ce2 Co8 2.778998 1_555
Ce2 Co2 2.784602 1_555
Ce2 Co2 2.784683 1_565
Ce2 Co7 2.790947 1_555
Ce2 Co3 2.796511 1_555
Ce2 Co12 3.137212 1_555
Ce2 Co12 3.137212 1_455
Ce2 Co12 3.137434 1_465
Ce2 Co12 3.137434 1_565
Ce2 Co17 3.146920 1_455
Ce2 Co17 3.146920 1_555
Ce2 Co22 3.147011 1_465
Ce2 Co22 3.147011 1_565
Ce2 Co18 3.147581 1_565
Ce2 Co18 3.147581 1_465
Ce2 Co23 3.147676 1_455
Ce2 Co23 3.147676 1_555
Ce3 Co3 2.802324 1_545
Ce3 Co3 2.803151 1_555
Ce3 Co8 2.843746 1_555
Ce3 Co4 2.853488 1_555
Ce3 Co9 2.873533 1_545
Ce3 Co9 2.874507 1_555
Ce3 Co13 3.137257 1_445
Ce3 Co13 3.137257 1_545
Ce3 Co13 3.137544 1_455
Ce3 Co13 3.137544 1_555
Ce3 Co18 3.173752 1_555
Ce3 Co18 3.173752 1_455
Ce3 Co23 3.173939 1_555
Ce3 Co23 3.173939 1_455
Ce3 Co24 3.183481 1_555
Ce3 Co24 3.183481 1_455
Ce3 Co19 3.183901 1_455
Ce3 Co19 3.183901 1_555
Al0 Co0 2.531678 1_555
Al0 Co9 2.531678 1_544
Al0 Co5 2.711092 1_555
Al0 Co4 2.711092 1_554
Al0 Co4 2.711381 1_544
Al0 Co5 2.711382 1_545
Al0 Co15 3.052016 1_455
Al0 Co15 3.052016 1_555
Al0 Co24 3.052016 1_454
Al0 Co24 3.052016 1_554
Al0 Co19 3.052045 1_544
Al0 Co19 3.052045 1_444
Al0 Co20 3.052045 1_545
Al0 Co20 3.052045 1_445
Al0 Co14 3.136560 1_454
Al0 Co14 3.136560 1_554
Al0 Co14 3.138080 1_444
Al0 Co14 3.138080 1_544
Co0 Co15 2.392051 1_455
Co0 Co15 2.392051 1_555
Co0 Co20 2.392315 1_445
Co0 Co20 2.392315 1_545
Co0 Co10 2.570243 1_455
Co0 Co10 2.570243 1_555
Co0 Co5 2.724248 1_555
Co0 Co5 2.724550 1_545
Co0 Co6 3.012724 1_555
Co1 Co21 2.450933 1_455
Co1 Co21 2.450933 1_555
Co1 Co16 2.451211 1_555
Co1 Co16 2.451211 1_455
Co1 Co11 2.451282 1_555
Co1 Co11 2.451282 1_455
Co1 Co6 2.784784 1_555
Co1 Co6 2.785411 1_565
Co1 Co7 2.795609 1_555
Co2 Co22 2.446598 1_555
Co2 Co22 2.446598 1_455
Co2 Co7 2.776445 1_545
Co2 Co7 2.776446 1_555
Co2 Co8 2.795609 1_555
Co3 Co8 2.784784 1_565
Co3 Co8 2.785411 1_555
Co3 Co9 3.012724 1_555
Co4 Co5 2.503418 1_556
Co4 Co9 2.724248 1_545
Co4 Co9 2.724550 1_555
Co10 Co16 2.431438 1_545
Co10 Co21 2.431725 1_555
Co10 Co15 2.446858 1_555
Co10 Co20 2.446875 1_545
Co10 Co6 2.462862 1_655
Co10 Co6 2.462862 1_555
Co11 Co22 2.413651 1_565
Co11 Co17 2.413741 1_555
Co11 Co16 2.423561 1_555
Co11 Co21 2.423601 1_555
Co11 Co7 2.452841 1_655
Co11 Co7 2.452841 1_555
Co12 Co17 2.413651 1_555
Co12 Co22 2.413741 1_555
Co12 Co23 2.423561 1_555
Co12 Co18 2.423601 1_555
Co12 Co8 2.451282 1_655
Co12 Co8 2.451282 1_555
Co12 Co2 2.452841 1_655
Co12 Co2 2.452841 1_555
Co13 Co23 2.431438 1_555
Co13 Co18 2.431725 1_565
Co13 Co24 2.446857 1_565
Co13 Co19 2.446875 1_555
Co13 Co3 2.462862 1_555
Co13 Co3 2.462862 1_655
Co13 Co9 2.570243 1_555
Co13 Co9 2.570243 1_655
Co14 Co24 2.332623 1_555
Co14 Co15 2.332623 1_556
Co14 Co20 2.333275 1_556
Co14 Co19 2.333275 1_555
Co14 Co5 2.371818 1_656
Co14 Co5 2.371818 1_556
Co14 Co4 2.371818 1_555
Co14 Co4 2.371818 1_655
Co15 Co20 2.327452 1_545
Co15 Co5 2.474550 1_655
Co15 Co5 2.474550 1_555
Co15 Co20 2.482550 1_555
Co16 Co21 2.402443 1_565
Co16 Co21 2.407558 1_555
Co16 Co6 2.447114 1_665
Co16 Co6 2.447114 1_565
Co17 Co22 2.405001 1_555
Co17 Co22 2.405001 1_565
Co17 Co7 2.446598 1_555
Co17 Co7 2.446598 1_655
Co17 Co2 2.446626 1_655
Co17 Co2 2.446626 1_555
Co18 Co23 2.402443 1_545
Co18 Co23 2.407558 1_555
Co18 Co3 2.447035 1_645
Co18 Co3 2.447035 1_545
Co18 Co8 2.450933 1_655
Co18 Co8 2.450933 1_555
Co19 Co24 2.327452 1_565
Co19 Co9 2.392315 1_655
Co19 Co9 2.392315 1_555
Co19 Co4 2.474439 1_655
Co19 Co4 2.474439 1_555
Co19 Co24 2.482550 1_555
Co20 Co5 2.474439 1_555
Co20 Co5 2.474439 1_655
Co21 Co6 2.447035 1_655
Co21 Co6 2.447035 1_555
Co22 Co7 2.446626 1_645
Co22 Co7 2.446626 1_545
Co23 Co3 2.447114 1_555
Co23 Co3 2.447114 1_655
Co23 Co8 2.451210 1_555
Co23 Co8 2.451210 1_655
Co24 Co9 2.392051 1_545
Co24 Co9 2.392051 1_645
Co24 Co4 2.474550 1_555
Co24 Co4 2.474550 1_655
