# generated using pymatgen
data_Tm4MgRh
_symmetry_space_group_name_H-M   'P 1'
_cell_length_a   9.54078218
_cell_length_b   9.54078373
_cell_length_c   9.54078185
_cell_angle_alpha   59.99920396
_cell_angle_beta   59.99922703
_cell_angle_gamma   59.99925001
_symmetry_Int_Tables_number   1
_chemical_formula_structural   Tm4MgRh
_chemical_formula_sum   'Tm16 Mg4 Rh4'
_cell_volume   614.08627165
_cell_formula_units_Z   4
loop_
 _symmetry_equiv_pos_site_id
 _symmetry_equiv_pos_as_xyz
  1  'x, y, z'
loop_
 _atom_site_type_symbol
 _atom_site_label
 _atom_site_symmetry_multiplicity
 _atom_site_fract_x
 _atom_site_fract_y
 _atom_site_fract_z
 _atom_site_occupancy
  Tm  Tm0  1  0.59572416  0.59572504  0.59572499  1
  Tm  Tm1  1  0.59572557  0.59572577  0.21282346  1
  Tm  Tm2  1  0.59572477  0.21282358  0.59572530  1
  Tm  Tm3  1  0.21282335  0.59572508  0.59572579  1
  Tm  Tm4  1  0.06245323  0.43754686  0.43754698  1
  Tm  Tm5  1  0.43754615  0.06245349  0.06245296  1
  Tm  Tm6  1  0.43754691  0.06245271  0.43754735  1
  Tm  Tm7  1  0.06245358  0.43754610  0.06245302  1
  Tm  Tm8  1  0.43754701  0.43754741  0.06245256  1
  Tm  Tm9  1  0.06245345  0.06245307  0.43754628  1
  Tm  Tm10  1  0.18558171  0.81442085  0.81442076  1
  Tm  Tm11  1  0.81441935  0.18557952  0.18557949  1
  Tm  Tm12  1  0.81442056  0.18558174  0.81442063  1
  Tm  Tm13  1  0.18557998  0.81441952  0.18557927  1
  Tm  Tm14  1  0.81442065  0.81442055  0.18558164  1
  Tm  Tm15  1  0.18557990  0.18557937  0.81441956  1
  Mg  Mg0  1  0.82901536  0.82901617  0.82901593  1
  Mg  Mg1  1  0.82901643  0.82901649  0.51294752  1
  Mg  Mg2  1  0.82901643  0.51294794  0.82901637  1
  Mg  Mg3  1  0.51294767  0.82901657  0.82901669  1
  Rh  Rh0  1  0.39127815  0.39127745  0.39127804  1
  Rh  Rh1  1  0.39128016  0.39127969  0.82616487  1
  Rh  Rh2  1  0.39127969  0.82616513  0.39127978  1
  Rh  Rh3  1  0.82616477  0.39127988  0.39127978  1
loop_
_geom_bond_atom_site_label_1
_geom_bond_atom_site_label_2
_geom_bond_distance
_geom_bond_site_symmetry_2
Tm0 Tm10 3.470335 1_555
Tm0 Tm14 3.470338 1_555
Tm0 Tm12 3.470339 1_555
Tm1 Tm13 3.470359 1_555
Tm1 Tm11 3.470364 1_555
Tm1 Tm14 3.470407 1_555
Tm10 Tm3 3.470416 1_555
Tm10 Tm14 3.541125 1_456
Tm10 Tm12 3.541127 1_465
Tm10 Tm13 3.541128 1_556
Tm10 Tm15 3.541129 1_565
Tm10 Tm6 3.583787 1_565
Tm10 Tm8 3.583789 1_556
Tm10 Tm9 3.583833 1_565
Tm10 Tm7 3.583834 1_556
Tm11 Tm2 3.470359 1_555
Tm11 Tm15 3.541118 1_654
Tm11 Tm13 3.541120 1_645
Tm11 Tm12 3.541129 1_554
Tm11 Tm14 3.541131 1_545
Tm11 Tm6 3.583809 1_555
Tm11 Tm8 3.583810 1_555
Tm11 Tm7 3.583847 1_655
Tm11 Tm9 3.583848 1_655
Tm12 Tm2 3.470417 1_555
Tm12 Tm14 3.541125 1_546
Tm12 Tm15 3.541134 1_655
Tm12 Tm4 3.583792 1_655
Tm12 Tm8 3.583793 1_556
Tm12 Tm5 3.583832 1_556
Tm12 Tm9 3.583835 1_655
Tm13 Tm3 3.470362 1_555
Tm13 Tm15 3.541112 1_564
Tm13 Tm14 3.541134 1_455
Tm13 Tm8 3.583808 1_555
Tm13 Tm4 3.583810 1_555
Tm13 Tm5 3.583842 1_565
Tm13 Tm9 3.583846 1_565
Tm14 Tm4 3.583794 1_655
Tm14 Tm6 3.583795 1_565
Tm14 Tm5 3.583836 1_565
Tm14 Tm7 3.583837 1_655
Tm15 Tm2 3.470352 1_555
Tm15 Tm3 3.470356 1_555
Tm15 Tm6 3.583808 1_555
Tm15 Tm4 3.583810 1_555
Tm15 Tm5 3.583840 1_556
Tm15 Tm7 3.583844 1_556
Mg0 Mg3 3.015527 1_555
Mg0 Mg2 3.015531 1_555
Mg0 Mg1 3.015533 1_555
Mg0 Tm14 3.268601 1_556
Mg0 Tm12 3.268601 1_565
Mg0 Tm10 3.268606 1_655
Mg0 Tm1 3.459781 1_556
Mg0 Tm2 3.459786 1_565
Mg0 Tm3 3.459789 1_655
Mg0 Tm5 3.491940 1_566
Mg0 Tm9 3.491942 1_665
Mg0 Tm7 3.491946 1_656
Mg1 Mg2 3.015507 1_555
Mg1 Mg3 3.015510 1_555
Mg1 Tm11 3.268519 1_565
Mg1 Tm13 3.268524 1_655
Mg1 Tm14 3.268524 1_555
Mg1 Tm3 3.459815 1_655
Mg1 Tm2 3.459816 1_565
Mg1 Tm0 3.459834 1_555
Mg1 Tm6 3.491937 1_565
Mg1 Tm4 3.491940 1_655
Mg1 Tm9 3.491993 1_665
Mg2 Mg3 3.015509 1_555
Mg2 Tm11 3.268521 1_556
Mg2 Tm15 3.268526 1_655
Mg2 Tm12 3.268527 1_555
Mg2 Tm3 3.459810 1_655
Mg2 Tm1 3.459815 1_556
Mg2 Tm0 3.459835 1_555
Mg2 Tm8 3.491936 1_556
Mg2 Tm4 3.491939 1_655
Mg2 Tm7 3.491993 1_656
Mg3 Tm13 3.268516 1_556
Mg3 Tm15 3.268519 1_565
Mg3 Tm10 3.268524 1_555
Mg3 Tm2 3.459810 1_565
Mg3 Tm1 3.459811 1_556
Mg3 Tm0 3.459835 1_555
Mg3 Tm8 3.491935 1_556
Mg3 Tm6 3.491936 1_565
Mg3 Tm5 3.491990 1_566
Rh0 Tm6 2.767135 1_555
Rh0 Tm4 2.767136 1_555
Rh0 Tm8 2.767139 1_555
Rh0 Tm2 2.769655 1_555
Rh0 Tm3 2.769666 1_555
Rh0 Tm1 2.769667 1_555
Rh0 Tm15 3.465050 1_555
Rh0 Tm11 3.465051 1_555
Rh0 Tm13 3.465056 1_555
Rh1 Tm5 2.767127 1_556
Rh1 Tm7 2.767130 1_556
Rh1 Tm8 2.767143 1_556
Rh1 Tm0 2.769617 1_555
Rh1 Tm3 2.769662 1_555
Rh1 Tm2 2.769663 1_555
Rh1 Tm12 3.465058 1_555
Rh1 Tm10 3.465065 1_555
Rh1 Tm15 3.465142 1_555
Rh2 Tm9 2.767128 1_565
Rh2 Tm5 2.767131 1_565
Rh2 Tm6 2.767143 1_565
Rh2 Tm0 2.769620 1_555
Rh2 Tm1 2.769663 1_555
Rh2 Tm3 2.769666 1_555
Rh2 Tm14 3.465061 1_555
Rh2 Tm10 3.465062 1_555
Rh2 Tm13 3.465141 1_555
Rh3 Tm7 2.767133 1_655
Rh3 Tm9 2.767134 1_655
Rh3 Tm4 2.767147 1_655
Rh3 Tm0 2.769626 1_555
Rh3 Tm1 2.769660 1_555
Rh3 Tm2 2.769665 1_555
Rh3 Tm14 3.465060 1_555
Rh3 Tm12 3.465060 1_555
Rh3 Tm11 3.465144 1_555
