# generated using pymatgen
data_Fe6P4H17O27
_symmetry_space_group_name_H-M   'P 1'
_cell_length_a   11.02353828
_cell_length_b   11.02353828
_cell_length_c   19.40176259
_cell_angle_alpha   85.98376142
_cell_angle_beta   85.98376142
_cell_angle_gamma   27.21057662
_symmetry_Int_Tables_number   1
_chemical_formula_structural   Fe6P4H17O27
_chemical_formula_sum   'Fe12 P8 H34 O54'
_cell_volume   1075.27086232
_cell_formula_units_Z   2
loop_
 _symmetry_equiv_pos_site_id
 _symmetry_equiv_pos_as_xyz
  1  'x, y, z'
loop_
 _atom_site_type_symbol
 _atom_site_label
 _atom_site_symmetry_multiplicity
 _atom_site_fract_x
 _atom_site_fract_y
 _atom_site_fract_z
 _atom_site_occupancy
  Fe  Fe0  1  0.00000000  0.00000000  0.00000000  1
  Fe  Fe1  1  0.00000000  0.00000000  0.50000000  1
  Fe  Fe2  1  0.00000000  0.50000000  0.00000000  1
  Fe  Fe3  1  0.50000000  0.00000000  0.50000000  1
  Fe  Fe4  1  0.22745800  0.68486800  0.17287200  1
  Fe  Fe5  1  0.31513200  0.77254200  0.32712800  1
  Fe  Fe6  1  0.77254200  0.31513200  0.82712800  1
  Fe  Fe7  1  0.68486800  0.22745800  0.67287200  1
  Fe  Fe8  1  0.92841200  0.85311500  0.42014600  1
  Fe  Fe9  1  0.14688500  0.07158800  0.07985400  1
  Fe  Fe10  1  0.07158800  0.14688500  0.57985400  1
  Fe  Fe11  1  0.85311500  0.92841200  0.92014600  1
  P  P0  1  0.36669000  0.42093900  0.02705800  1
  P  P1  1  0.57906100  0.63331000  0.47294200  1
  P  P2  1  0.63331000  0.57906100  0.97294200  1
  P  P3  1  0.42093900  0.36669000  0.52705800  1
  P  P4  1  0.63706700  0.54698000  0.17953000  1
  P  P5  1  0.45302000  0.36293300  0.32047000  1
  P  P6  1  0.36293300  0.45302000  0.82047000  1
  P  P7  1  0.54698000  0.63706700  0.67953000  1
  H  H0  1  0.84180600  0.14824000  0.37310100  1
  H  H1  1  0.85176000  0.15819400  0.12689900  1
  H  H2  1  0.15819400  0.85176000  0.62689900  1
  H  H3  1  0.14824000  0.84180600  0.87310100  1
  H  H4  1  0.99755000  0.61181800  0.49775900  1
  H  H5  1  0.38818200  0.00245000  0.00224100  1
  H  H6  1  0.00245000  0.38818200  0.50224100  1
  H  H7  1  0.61181800  0.99755000  0.99775900  1
  H  H8  1  0.91982500  0.08017500  0.25000000  1
  H  H9  1  0.08017500  0.91982500  0.75000000  1
  H  H10  1  0.90872500  0.30524000  0.30844100  1
  H  H11  1  0.69476000  0.09127500  0.19155900  1
  H  H12  1  0.09127500  0.69476000  0.69155900  1
  H  H13  1  0.30524000  0.90872500  0.80844100  1
  H  H14  1  0.13302800  0.12224700  0.25454700  1
  H  H15  1  0.87775300  0.86697200  0.24545300  1
  H  H16  1  0.86697200  0.87775300  0.74545300  1
  H  H17  1  0.12224700  0.13302800  0.75454700  1
  H  H18  1  0.96516500  0.55028500  0.13954400  1
  H  H19  1  0.44971500  0.03483500  0.36045600  1
  H  H20  1  0.03483500  0.44971500  0.86045600  1
  H  H21  1  0.55028500  0.96516500  0.63954400  1
  H  H22  1  0.70124600  0.71923800  0.11542800  1
  H  H23  1  0.28076200  0.29875400  0.38457200  1
  H  H24  1  0.29875400  0.28076200  0.88457200  1
  H  H25  1  0.71923800  0.70124600  0.61542800  1
  H  H26  1  0.24660500  0.38842900  0.22629300  1
  H  H27  1  0.61157100  0.75339500  0.27370700  1
  H  H28  1  0.75339500  0.61157100  0.77370700  1
  H  H29  1  0.38842900  0.24660500  0.72629300  1
  H  H30  1  0.32315700  0.18359700  0.23466600  1
  H  H31  1  0.81640300  0.67684300  0.26533400  1
  H  H32  1  0.67684300  0.81640300  0.76533400  1
  H  H33  1  0.18359700  0.32315700  0.73466600  1
  O  O0  1  0.30442800  0.33986100  0.02176600  1
  O  O1  1  0.66013900  0.69557200  0.47823400  1
  O  O2  1  0.69557200  0.66013900  0.97823400  1
  O  O3  1  0.33986100  0.30442800  0.52176600  1
  O  O4  1  0.82897100  0.32577000  0.01842100  1
  O  O5  1  0.67423000  0.17102900  0.48157900  1
  O  O6  1  0.17102900  0.67423000  0.98157900  1
  O  O7  1  0.32577000  0.82897100  0.51842100  1
  O  O8  1  0.81060000  0.34492000  0.50127900  1
  O  O9  1  0.65508000  0.18940000  0.99872100  1
  O  O10  1  0.18940000  0.65508000  0.49872100  1
  O  O11  1  0.34492000  0.81060000  0.00127900  1
  O  O12  1  0.34990600  0.47107200  0.10198800  1
  O  O13  1  0.52892800  0.65009400  0.39801200  1
  O  O14  1  0.65009400  0.52892800  0.89801200  1
  O  O15  1  0.47107200  0.34990600  0.60198800  1
  O  O16  1  0.56946000  0.47382100  0.16552200  1
  O  O17  1  0.52617900  0.43054000  0.33447800  1
  O  O18  1  0.43054000  0.52617900  0.83447800  1
  O  O19  1  0.47382100  0.56946000  0.66552200  1
  O  O20  1  0.38881500  0.41188900  0.24254000  1
  O  O21  1  0.58811100  0.61118500  0.25746000  1
  O  O22  1  0.61118500  0.58811100  0.75746000  1
  O  O23  1  0.41188900  0.38881500  0.74254000  1
  O  O24  1  0.93562900  0.30454200  0.16247500  1
  O  O25  1  0.69545800  0.06437100  0.33752500  1
  O  O26  1  0.06437100  0.69545800  0.83752500  1
  O  O27  1  0.30454200  0.93562900  0.66247500  1
  O  O28  1  0.21326800  0.52703500  0.36514700  1
  O  O29  1  0.47296500  0.78673200  0.13485300  1
  O  O30  1  0.78673200  0.47296500  0.63485300  1
  O  O31  1  0.52703500  0.21326800  0.86514700  1
  O  O32  1  0.01929700  0.96836600  0.39235600  1
  O  O33  1  0.03163400  0.98070300  0.10764400  1
  O  O34  1  0.98070300  0.03163400  0.60764400  1
  O  O35  1  0.96836600  0.01929700  0.89235600  1
  O  O36  1  0.84191800  0.77225000  0.46851700  1
  O  O37  1  0.22775000  0.15808200  0.03148300  1
  O  O38  1  0.15808200  0.22775000  0.53148300  1
  O  O39  1  0.77225000  0.84191800  0.96851700  1
  O  O40  1  0.10804900  0.89195100  0.25000000  1
  O  O41  1  0.89195100  0.10804900  0.75000000  1
  O  O42  1  0.10478000  0.12741100  0.30457300  1
  O  O43  1  0.87258900  0.89522000  0.19542700  1
  O  O44  1  0.89522000  0.87258900  0.69542700  1
  O  O45  1  0.12741100  0.10478000  0.80457300  1
  O  O46  1  0.84233900  0.65277400  0.10047000  1
  O  O47  1  0.34722600  0.15766100  0.39953000  1
  O  O48  1  0.15766100  0.34722600  0.89953000  1
  O  O49  1  0.65277400  0.84233900  0.60047000  1
  O  O50  1  0.62744200  0.82814300  0.27694100  1
  O  O51  1  0.17185700  0.37255800  0.22305900  1
  O  O52  1  0.37255800  0.17185700  0.72305900  1
  O  O53  1  0.82814300  0.62744200  0.77694100  1
loop_
_geom_bond_atom_site_label_1
_geom_bond_atom_site_label_2
_geom_bond_distance
_geom_bond_site_symmetry_2
Fe0 O33 2.106291 1_545
Fe0 O35 2.106291 1_454
Fe0 O6 2.149751 1_544
Fe0 O4 2.149751 1_455
Fe0 O9 2.168585 1_454
Fe0 O11 2.168585 1_545
Fe1 O34 2.106291 1_455
Fe1 O32 2.106291 1_545
Fe1 O5 2.149751 1_455
Fe1 O7 2.149751 1_545
Fe1 O8 2.168585 1_455
Fe1 O10 2.168585 1_545
Fe2 O39 1.985902 1_454
Fe2 O37 1.985902 1_555
Fe2 O0 2.028196 1_555
Fe2 O2 2.028196 1_454
Fe2 O48 2.106130 1_554
Fe2 O46 2.106130 1_455
Fe3 O38 1.985902 1_555
Fe3 O36 1.985902 1_545
Fe3 O3 2.028196 1_555
Fe3 O1 2.028196 1_545
Fe3 O47 2.106130 1_555
Fe3 O49 2.106130 1_545
Fe4 O12 1.950255 1_555
Fe4 O16 2.004192 1_555
Fe4 O40 2.010229 1_555
Fe4 O33 2.044443 1_555
Fe4 O20 2.071914 1_555
Fe4 O43 2.153955 1_455
Fe5 O13 1.950255 1_555
Fe5 O17 2.004192 1_555
Fe5 O40 2.010229 1_555
Fe5 O32 2.044443 1_555
Fe5 O21 2.071914 1_555
Fe5 O42 2.153955 1_565
Fe6 O14 1.950255 1_555
Fe6 O18 2.004192 1_555
Fe6 O41 2.010229 1_555
Fe6 O35 2.044443 1_555
Fe6 O22 2.071914 1_555
Fe6 O45 2.153955 1_655
Fe7 O15 1.950255 1_555
Fe7 O19 2.004192 1_555
Fe7 O41 2.010229 1_555
Fe7 O34 2.044443 1_555
Fe7 O23 2.071914 1_555
Fe7 O44 2.153955 1_545
Fe8 O36 1.963087 1_555
Fe8 O28 1.977723 1_655
Fe8 O25 2.001039 1_565
Fe8 O5 2.050602 1_565
Fe8 O10 2.084226 1_655
Fe8 O32 2.236275 1_655
Fe9 O37 1.963087 1_555
Fe9 O29 1.977723 1_545
Fe9 O24 2.001039 1_455
Fe9 O4 2.050602 1_455
Fe9 O11 2.084226 1_545
Fe9 O33 2.236275 1_545
Fe10 O38 1.963087 1_555
Fe10 O30 1.977723 1_455
Fe10 O27 2.001039 1_545
Fe10 O7 2.050602 1_545
Fe10 O8 2.084226 1_455
Fe10 O34 2.236275 1_455
Fe11 O39 1.963087 1_555
Fe11 O31 1.977723 1_565
Fe11 O26 2.001039 1_655
Fe11 O6 2.050602 1_655
Fe11 O9 2.084226 1_565
Fe11 O35 2.236275 1_565
H0 O32 0.998786 1_645
H1 O33 0.998786 1_645
H2 O34 0.998786 1_465
H3 O35 0.998786 1_465
H4 O36 0.996010 1_555
H5 O37 0.996010 1_555
H6 O38 0.996010 1_555
H7 O39 0.996010 1_555
H8 O40 0.976162 1_645
H9 O41 0.976162 1_465
H10 O42 0.990762 1_655
H11 O43 0.990762 1_545
H12 O44 0.990762 1_455
H13 O45 0.990762 1_565
H14 O42 0.987993 1_555
H15 O43 0.987993 1_555
H16 O44 0.987993 1_555
H17 O45 0.987993 1_555
H18 O46 0.993665 1_555
H19 O47 0.993665 1_555
H20 O48 0.993665 1_555
H21 O49 0.993665 1_555
H22 O46 0.989847 1_555
H23 O47 0.989847 1_555
H24 O48 0.989847 1_555
H25 O49 0.989847 1_555
H26 O51 0.989290 1_555
H27 O50 0.989290 1_555
H28 O53 0.989290 1_555
H29 O52 0.989290 1_555
H30 O51 0.989412 1_555
H31 O50 0.989412 1_555
H32 O53 0.989412 1_555
H33 O52 0.989412 1_555
O0 P0 1.547337 1_555
O1 P1 1.547337 1_555
O2 P2 1.547337 1_555
O3 P3 1.547337 1_555
O4 P2 1.560965 1_554
O5 P3 1.560965 1_555
O6 P0 1.560965 1_556
O7 P1 1.560965 1_555
O8 P1 1.562921 1_555
O9 P0 1.562921 1_556
O10 P3 1.562921 1_555
O11 P2 1.562921 1_554
O12 P0 1.531699 1_555
O13 P1 1.531699 1_555
O14 P2 1.531699 1_555
O15 P3 1.531699 1_555
O16 P4 1.551710 1_555
O17 P5 1.551710 1_555
O18 P6 1.551710 1_555
O19 P7 1.551710 1_555
O20 P5 1.560283 1_555
O21 P4 1.560283 1_555
O22 P7 1.560283 1_555
O23 P6 1.560283 1_555
O24 P4 1.552554 1_555
O25 P5 1.552554 1_555
O26 P6 1.552554 1_555
O27 P7 1.552554 1_555
O28 P5 1.550404 1_555
O29 P4 1.550404 1_555
O30 P7 1.550404 1_555
O31 P6 1.550404 1_555
