# generated using pymatgen
data_KMn6As7O24
_symmetry_space_group_name_H-M   'P 1'
_cell_length_a   28.17731100
_cell_length_b   5.61727900
_cell_length_c   6.90803756
_cell_angle_alpha   72.66273564
_cell_angle_beta   90.00000000
_cell_angle_gamma   90.00000000
_symmetry_Int_Tables_number   1
_chemical_formula_structural   KMn6As7O24
_chemical_formula_sum   'K2 Mn12 As14 O48'
_cell_volume   1043.72655570
_cell_formula_units_Z   2
loop_
 _symmetry_equiv_pos_site_id
 _symmetry_equiv_pos_as_xyz
  1  'x, y, z'
loop_
 _atom_site_type_symbol
 _atom_site_label
 _atom_site_symmetry_multiplicity
 _atom_site_fract_x
 _atom_site_fract_y
 _atom_site_fract_z
 _atom_site_occupancy
  K  K0  1  0.25000000  0.19974900  0.41326300  1
  K  K1  1  0.75000000  0.80025100  0.58673700  1
  Mn  Mn0  1  0.04351700  0.68209500  0.32132900  1
  Mn  Mn1  1  0.54351700  0.31790500  0.67867100  1
  Mn  Mn2  1  0.95648300  0.31790500  0.67867100  1
  Mn  Mn3  1  0.45648300  0.68209500  0.32132900  1
  Mn  Mn4  1  0.09807400  0.28381400  0.10125200  1
  Mn  Mn5  1  0.59807400  0.71618600  0.89874800  1
  Mn  Mn6  1  0.90192600  0.71618600  0.89874800  1
  Mn  Mn7  1  0.40192600  0.28381400  0.10125200  1
  Mn  Mn8  1  0.18431300  0.60905800  0.75249500  1
  Mn  Mn9  1  0.68431300  0.39094200  0.24750500  1
  Mn  Mn10  1  0.81568700  0.39094200  0.24750500  1
  Mn  Mn11  1  0.31568700  0.60905800  0.75249500  1
  As  As0  1  0.02308300  0.77185000  0.80312500  1
  As  As1  1  0.52308300  0.22815000  0.19687500  1
  As  As2  1  0.97691700  0.22815000  0.19687500  1
  As  As3  1  0.47691700  0.77185000  0.80312500  1
  As  As4  1  0.25000000  0.02956500  0.93815100  1
  As  As5  1  0.75000000  0.97043500  0.06184900  1
  As  As6  1  0.16401300  0.72720000  0.22911900  1
  As  As7  1  0.66401300  0.27280000  0.77088100  1
  As  As8  1  0.83598700  0.27280000  0.77088100  1
  As  As9  1  0.33598700  0.72720000  0.22911900  1
  As  As10  1  0.11399400  0.18384700  0.62552600  1
  As  As11  1  0.61399400  0.81615300  0.37447400  1
  As  As12  1  0.88600600  0.81615300  0.37447400  1
  As  As13  1  0.38600600  0.18384700  0.62552600  1
  O  O0  1  0.20125400  0.99948600  0.10407800  1
  O  O1  1  0.70125400  0.00051400  0.89592200  1
  O  O2  1  0.79874600  0.00051400  0.89592200  1
  O  O3  1  0.29874600  0.99948600  0.10407800  1
  O  O4  1  0.15815000  0.98260200  0.62624200  1
  O  O5  1  0.65815000  0.01739800  0.37375800  1
  O  O6  1  0.84185000  0.01739800  0.37375800  1
  O  O7  1  0.34185000  0.98260200  0.62624200  1
  O  O8  1  0.01977900  0.60823300  0.63134300  1
  O  O9  1  0.51977900  0.39176700  0.36865700  1
  O  O10  1  0.98022100  0.39176700  0.36865700  1
  O  O11  1  0.48022100  0.60823300  0.63134300  1
  O  O12  1  0.97132300  0.92080000  0.82527400  1
  O  O13  1  0.47132300  0.07920000  0.17472600  1
  O  O14  1  0.02867700  0.07920000  0.17472600  1
  O  O15  1  0.52867700  0.92080000  0.82527400  1
  O  O16  1  0.05803600  0.04175400  0.70168600  1
  O  O17  1  0.55803600  0.95824600  0.29831400  1
  O  O18  1  0.94196400  0.95824600  0.29831400  1
  O  O19  1  0.44196400  0.04175400  0.70168600  1
  O  O20  1  0.25000000  0.81369000  0.81087500  1
  O  O21  1  0.75000000  0.18631000  0.18912500  1
  O  O22  1  0.04808900  0.60463700  0.02821300  1
  O  O23  1  0.54808900  0.39536300  0.97178700  1
  O  O24  1  0.95191100  0.39536300  0.97178700  1
  O  O25  1  0.45191100  0.60463700  0.02821300  1
  O  O26  1  0.11341500  0.89137000  0.23734000  1
  O  O27  1  0.61341500  0.10863000  0.76266000  1
  O  O28  1  0.88658500  0.10863000  0.76266000  1
  O  O29  1  0.38658500  0.89137000  0.23734000  1
  O  O30  1  0.09839700  0.37658800  0.39007300  1
  O  O31  1  0.59839700  0.62341200  0.60992700  1
  O  O32  1  0.90160300  0.62341200  0.60992700  1
  O  O33  1  0.40160300  0.37658800  0.39007300  1
  O  O34  1  0.16337800  0.54762000  0.06782200  1
  O  O35  1  0.66337800  0.45238000  0.93217800  1
  O  O36  1  0.83662200  0.45238000  0.93217800  1
  O  O37  1  0.33662200  0.54762000  0.06782200  1
  O  O38  1  0.25000000  0.33392400  0.80131000  1
  O  O39  1  0.75000000  0.66607600  0.19869000  1
  O  O40  1  0.19351300  0.59235000  0.44728500  1
  O  O41  1  0.69351300  0.40765000  0.55271500  1
  O  O42  1  0.80648700  0.40765000  0.55271500  1
  O  O43  1  0.30648700  0.59235000  0.44728500  1
  O  O44  1  0.12386300  0.35118900  0.79299600  1
  O  O45  1  0.62386300  0.64881100  0.20700400  1
  O  O46  1  0.87613700  0.64881100  0.20700400  1
  O  O47  1  0.37613700  0.35118900  0.79299600  1
loop_
_geom_bond_atom_site_label_1
_geom_bond_atom_site_label_2
_geom_bond_distance
_geom_bond_site_symmetry_2
K0 O43 2.785869 1_555
K0 O40 2.785869 1_555
K0 O20 2.949110 1_545
K0 O38 2.993000 1_555
K0 O0 3.024228 1_545
K0 O3 3.024228 1_545
K0 O4 3.046488 1_545
K0 O7 3.046488 1_545
K1 O41 2.785869 1_555
K1 O42 2.785869 1_555
K1 O21 2.949110 1_565
K1 O39 2.993000 1_555
K1 O2 3.024228 1_565
K1 O1 3.024228 1_565
K1 O5 3.046488 1_565
K1 O6 3.046488 1_565
Mn0 O8 2.162491 1_555
Mn0 O14 2.197704 1_565
Mn0 O22 2.197962 1_555
Mn0 O30 2.253027 1_555
Mn0 O26 2.278408 1_555
Mn0 O10 2.372700 1_455
Mn1 O9 2.162491 1_555
Mn1 O15 2.197704 1_545
Mn1 O23 2.197962 1_555
Mn1 O31 2.253027 1_555
Mn1 O27 2.278408 1_555
Mn1 O11 2.372700 1_555
Mn2 O10 2.162491 1_555
Mn2 O12 2.197704 1_545
Mn2 O24 2.197962 1_555
Mn2 O32 2.253027 1_555
Mn2 O28 2.278408 1_555
Mn2 O8 2.372700 1_655
Mn3 O11 2.162491 1_555
Mn3 O13 2.197704 1_565
Mn3 O25 2.197962 1_555
Mn3 O33 2.253027 1_555
Mn3 O29 2.278408 1_555
Mn3 O9 2.372700 1_555
Mn4 O26 2.166836 1_545
Mn4 O44 2.173819 1_554
Mn4 O30 2.207290 1_555
Mn4 O22 2.223536 1_555
Mn4 O14 2.248257 1_555
Mn4 O34 2.330505 1_555
Mn5 O27 2.166836 1_565
Mn5 O45 2.173819 1_556
Mn5 O31 2.207290 1_555
Mn5 O23 2.223536 1_555
Mn5 O15 2.248257 1_555
Mn5 O35 2.330505 1_555
Mn6 O28 2.166836 1_565
Mn6 O46 2.173819 1_556
Mn6 O32 2.207290 1_555
Mn6 O24 2.223536 1_555
Mn6 O12 2.248257 1_555
Mn6 O36 2.330505 1_555
Mn7 O29 2.166836 1_545
Mn7 O47 2.173819 1_554
Mn7 O33 2.207290 1_555
Mn7 O25 2.223536 1_555
Mn7 O13 2.248257 1_555
Mn7 O37 2.330505 1_555
Mn8 O4 2.148558 1_555
Mn8 O40 2.153904 1_555
Mn8 O34 2.182655 1_556
Mn8 O44 2.199148 1_555
Mn8 O20 2.277277 1_555
Mn8 O38 2.370117 1_555
Mn9 O5 2.148558 1_555
Mn9 O41 2.153904 1_555
Mn9 O35 2.182655 1_554
Mn9 O45 2.199148 1_555
Mn9 O21 2.277277 1_555
Mn9 O39 2.370117 1_555
Mn10 O6 2.148558 1_555
Mn10 O42 2.153904 1_555
Mn10 O36 2.182655 1_554
Mn10 O46 2.199148 1_555
Mn10 O21 2.277277 1_555
Mn10 O39 2.370117 1_555
Mn11 O7 2.148558 1_555
Mn11 O43 2.153904 1_555
Mn11 O37 2.182655 1_556
Mn11 O47 2.199148 1_555
Mn11 O20 2.277277 1_555
Mn11 O38 2.370117 1_555
As0 O8 1.706341 1_555
As0 O22 1.710564 1_556
As0 O12 1.710808 1_455
As0 O16 1.768186 1_565
As1 O9 1.706341 1_555
As1 O23 1.710564 1_554
As1 O13 1.710808 1_555
As1 O17 1.768186 1_545
As2 O10 1.706341 1_555
As2 O24 1.710564 1_554
As2 O14 1.710808 1_655
As2 O18 1.768186 1_545
As3 O11 1.706341 1_555
As3 O25 1.710564 1_556
As3 O15 1.710808 1_555
As3 O19 1.768186 1_565
As4 O38 1.689187 1_555
As4 O20 1.696746 1_545
As4 O3 1.764527 1_546
As4 O0 1.764527 1_546
As5 O39 1.689187 1_555
As5 O21 1.696746 1_565
As5 O2 1.764527 1_564
As5 O1 1.764527 1_564
As6 O40 1.689879 1_555
As6 O26 1.708079 1_555
As6 O34 1.711530 1_555
As6 O0 1.843706 1_555
As7 O41 1.689879 1_555
As7 O27 1.708079 1_555
As7 O35 1.711530 1_555
As7 O1 1.843706 1_555
As8 O42 1.689879 1_555
As8 O28 1.708079 1_555
As8 O36 1.711530 1_555
As8 O2 1.843706 1_555
As9 O43 1.689879 1_555
As9 O29 1.708079 1_555
As9 O37 1.711530 1_555
As9 O3 1.843706 1_555
As10 O4 1.680070 1_545
As10 O44 1.716818 1_555
As10 O30 1.720861 1_555
As10 O16 1.774749 1_555
As11 O5 1.680070 1_565
As11 O45 1.716818 1_555
As11 O31 1.720861 1_555
As11 O17 1.774749 1_555
As12 O6 1.680070 1_565
As12 O46 1.716818 1_555
As12 O32 1.720861 1_555
As12 O18 1.774749 1_555
As13 O7 1.680070 1_545
As13 O47 1.716818 1_555
As13 O33 1.720861 1_555
As13 O19 1.774749 1_555
