# generated using pymatgen
data_PrHf2F11
_symmetry_space_group_name_H-M   'P 1'
_cell_length_a   8.36340898
_cell_length_b   8.36333256
_cell_length_c   8.36338434
_cell_angle_alpha   125.15491277
_cell_angle_beta   106.55268302
_cell_angle_gamma   98.00820906
_symmetry_Int_Tables_number   1
_chemical_formula_structural   PrHf2F11
_chemical_formula_sum   'Pr2 Hf4 F22'
_cell_volume   422.72421663
_cell_formula_units_Z   2
loop_
 _symmetry_equiv_pos_site_id
 _symmetry_equiv_pos_as_xyz
  1  'x, y, z'
loop_
 _atom_site_type_symbol
 _atom_site_label
 _atom_site_symmetry_multiplicity
 _atom_site_fract_x
 _atom_site_fract_y
 _atom_site_fract_z
 _atom_site_occupancy
  Pr  Pr0  1  0.74999635  0.24999506  0.49998652  1
  Pr  Pr1  1  0.25000354  0.75000484  0.50001354  1
  Hf  Hf0  1  0.68049545  0.63213537  0.31263112  1
  Hf  Hf1  1  0.31950470  0.36786427  0.68736864  1
  Hf  Hf2  1  0.18049416  0.86786447  0.04836649  1
  Hf  Hf3  1  0.81950591  0.13213591  0.95163398  1
  F  F0  1  0.70520432  0.89081263  0.33919517  1
  F  F1  1  0.29479554  0.10918736  0.66080505  1
  F  F2  1  0.55162069  0.36601149  0.66081879  1
  F  F3  1  0.94839174  0.60917868  0.81439049  1
  F  F4  1  0.44837908  0.63398865  0.33918156  1
  F  F5  1  0.05160832  0.39082115  0.18560943  1
  F  F6  1  0.79478972  0.13399774  0.18560382  1
  F  F7  1  0.20521046  0.86600250  0.81439659  1
  F  F8  1  0.49999992  0.50000001  0.00000004  1
  F  F9  1  0.00000004  -0.00000012  0.00000013  1
  F  F10  1  0.78014385  0.86930729  0.64945224  1
  F  F11  1  0.21985620  0.13069280  0.35054797  1
  F  F12  1  0.28016128  0.63069583  0.91085256  1
  F  F13  1  0.71983892  0.36930449  0.08914780  1
  F  F14  1  0.94937830  0.73843457  0.41645503  1
  F  F15  1  0.05062179  0.26156561  0.58354540  1
  F  F16  1  0.32196723  0.53291718  0.58353501  1
  F  F17  1  0.17803802  0.76156669  0.21095764  1
  F  F18  1  0.67803224  0.46708270  0.41646293  1
  F  F19  1  0.82196197  0.23843349  0.78904265  1
  F  F20  1  0.55061596  0.96708378  0.78904800  1
  F  F21  1  0.44938431  0.03291653  0.21095240  1
loop_
_geom_bond_atom_site_label_1
_geom_bond_atom_site_label_2
_geom_bond_distance
_geom_bond_site_symmetry_2
F0 Hf0 2.016969 1_555
F0 Pr0 2.391649 1_565
F1 Hf1 2.016968 1_555
F1 Pr1 2.391650 1_545
F2 Hf1 2.016965 1_555
F2 Pr0 2.391759 1_555
F3 Hf2 2.016963 1_656
F3 Pr0 2.391689 1_555
F4 Hf0 2.016970 1_555
F4 Pr1 2.391757 1_555
F5 Hf3 2.016960 1_454
F5 Pr1 2.391689 1_555
F6 Hf3 2.016989 1_554
F6 Pr0 2.391620 1_555
F7 Hf2 2.016989 1_556
F7 Pr1 2.391620 1_555
F8 Hf0 2.072494 1_555
F8 Hf1 2.072494 1_554
F9 Hf2 2.072496 1_545
F9 Hf3 2.072499 1_454
F10 Hf3 2.062573 1_565
F10 Hf0 2.081222 1_555
F11 Hf2 2.062571 1_545
F11 Hf1 2.081219 1_555
F12 Hf1 2.062589 1_555
F12 Hf2 2.081294 1_556
F13 Hf0 2.062584 1_555
F13 Hf3 2.081292 1_554
F14 Hf0 2.010651 1_555
F14 Pr1 2.381676 1_655
F15 Hf1 2.010652 1_555
F15 Pr0 2.381677 1_455
F16 Hf1 2.010655 1_555
F16 Pr1 2.381567 1_555
F17 Hf2 2.010668 1_555
F17 Pr1 2.381635 1_555
F18 Hf0 2.010640 1_555
F18 Pr0 2.381579 1_555
F19 Hf3 2.010668 1_555
F19 Pr0 2.381635 1_555
F20 Hf3 2.010689 1_565
F20 Pr1 2.381556 1_555
F21 Hf2 2.010691 1_545
F21 Pr0 2.381553 1_555
