# generated using pymatgen
data_NaCu3
_symmetry_space_group_name_H-M   'P 1'
_cell_length_a   3.82589200
_cell_length_b   3.82589200
_cell_length_c   3.82589200
_cell_angle_alpha   90.00000000
_cell_angle_beta   90.00000000
_cell_angle_gamma   90.00000000
_symmetry_Int_Tables_number   1
_chemical_formula_structural   NaCu3
_chemical_formula_sum   'Na1 Cu3'
_cell_volume   56.00130131
_cell_formula_units_Z   1
loop_
 _symmetry_equiv_pos_site_id
 _symmetry_equiv_pos_as_xyz
  1  'x, y, z'
loop_
 _atom_site_type_symbol
 _atom_site_label
 _atom_site_symmetry_multiplicity
 _atom_site_fract_x
 _atom_site_fract_y
 _atom_site_fract_z
 _atom_site_occupancy
  Na  Na0  1  0.00000000  0.00000000  0.00000000  1
  Cu  Cu0  1  0.00000000  0.50000000  0.50000000  1
  Cu  Cu1  1  0.50000000  0.00000000  0.50000000  1
  Cu  Cu2  1  0.50000000  0.50000000  0.00000000  1
loop_
_geom_bond_atom_site_label_1
_geom_bond_atom_site_label_2
_geom_bond_distance
_geom_bond_site_symmetry_2
Cu0 Na0 2.705314 1_556
Cu0 Na0 2.705314 1_565
Cu0 Na0 2.705314 1_566
Cu0 Na0 2.705314 1_555
Cu1 Na0 2.705314 1_656
Cu1 Na0 2.705314 1_655
Cu1 Na0 2.705314 1_556
Cu1 Na0 2.705314 1_555
Cu2 Na0 2.705314 1_655
Cu2 Na0 2.705314 1_565
Cu2 Na0 2.705314 1_665
Cu2 Na0 2.705314 1_555
