# generated using pymatgen
data_NaSr3GdP3O12F
_symmetry_space_group_name_H-M   'P 1'
_cell_length_a   9.68743405
_cell_length_b   9.68743405
_cell_length_c   7.20672600
_cell_angle_alpha   90.00000000
_cell_angle_beta   90.00000000
_cell_angle_gamma   120.00000035
_symmetry_Int_Tables_number   1
_chemical_formula_structural   NaSr3GdP3O12F
_chemical_formula_sum   'Na2 Sr6 Gd2 P6 O24 F2'
_cell_volume   585.71474681
_cell_formula_units_Z   2
loop_
 _symmetry_equiv_pos_site_id
 _symmetry_equiv_pos_as_xyz
  1  'x, y, z'
loop_
 _atom_site_type_symbol
 _atom_site_label
 _atom_site_symmetry_multiplicity
 _atom_site_fract_x
 _atom_site_fract_y
 _atom_site_fract_z
 _atom_site_occupancy
  Na  Na0  1  0.66666700  0.33333300  0.98462800  1
  Na  Na1  1  0.33333300  0.66666700  0.01537200  1
  Sr  Sr0  1  0.98087500  0.24042500  0.76188100  1
  Sr  Sr1  1  0.25955000  0.01912500  0.76188100  1
  Sr  Sr2  1  0.75957500  0.74045000  0.76188100  1
  Sr  Sr3  1  0.01912500  0.75957500  0.23811900  1
  Sr  Sr4  1  0.74045000  0.98087500  0.23811900  1
  Sr  Sr5  1  0.24042500  0.25955000  0.23811900  1
  Gd  Gd0  1  0.66666700  0.33333300  0.48260000  1
  Gd  Gd1  1  0.33333300  0.66666700  0.51740000  1
  P  P0  1  0.96685500  0.37432300  0.26116200  1
  P  P1  1  0.40746700  0.03314500  0.26116200  1
  P  P2  1  0.62567700  0.59253300  0.26116200  1
  P  P3  1  0.03314500  0.62567700  0.73883800  1
  P  P4  1  0.59253300  0.96685500  0.73883800  1
  P  P5  1  0.37432300  0.40746700  0.73883800  1
  O  O0  1  0.14756600  0.49779400  0.28089200  1
  O  O1  1  0.35022700  0.85243400  0.28089200  1
  O  O2  1  0.50220600  0.64977300  0.28089200  1
  O  O3  1  0.85243400  0.50220600  0.71910800  1
  O  O4  1  0.64977300  0.14756600  0.71910800  1
  O  O5  1  0.49779400  0.35022700  0.71910800  1
  O  O6  1  0.86904700  0.46007400  0.23270000  1
  O  O7  1  0.59102700  0.13095300  0.23270000  1
  O  O8  1  0.53992600  0.40897300  0.23270000  1
  O  O9  1  0.13095300  0.53992600  0.76730000  1
  O  O10  1  0.40897300  0.86904700  0.76730000  1
  O  O11  1  0.46007400  0.59102700  0.76730000  1
  O  O12  1  0.94452200  0.26017400  0.09912700  1
  O  O13  1  0.31565200  0.05547800  0.09912700  1
  O  O14  1  0.73982600  0.68434800  0.09912700  1
  O  O15  1  0.05547800  0.73982600  0.90087300  1
  O  O16  1  0.68434800  0.94452200  0.90087300  1
  O  O17  1  0.26017400  0.31565200  0.90087300  1
  O  O18  1  0.89488000  0.27105000  0.43986700  1
  O  O19  1  0.37616900  0.10512000  0.43986700  1
  O  O20  1  0.72895000  0.62383100  0.43986700  1
  O  O21  1  0.10512000  0.72895000  0.56013300  1
  O  O22  1  0.62383100  0.89488000  0.56013300  1
  O  O23  1  0.27105000  0.37616900  0.56013300  1
  F  F0  1  0.00000000  0.00000000  0.73739000  1
  F  F1  1  0.00000000  0.00000000  0.26261000  1
loop_
_geom_bond_atom_site_label_1
_geom_bond_atom_site_label_2
_geom_bond_distance
_geom_bond_site_symmetry_2
Na0 O7 2.477951 1_556
Na0 O6 2.477952 1_556
Na0 O8 2.477957 1_556
Na0 O3 2.575352 1_555
Na0 O4 2.575352 1_555
Na0 O5 2.575352 1_555
Na1 O10 2.477951 1_554
Na1 O9 2.477952 1_554
Na1 O11 2.477957 1_554
Na1 O0 2.575352 1_555
Na1 O1 2.575352 1_555
Na1 O2 2.575352 1_555
Gd0 O3 2.424043 1_555
Gd0 O4 2.424043 1_555
Gd0 O5 2.424043 1_555
Gd0 O7 2.487472 1_555
Gd0 O6 2.487473 1_555
Gd0 O8 2.487479 1_555
Gd0 O18 2.584653 1_555
Gd0 O19 2.584666 1_555
Gd0 O20 2.584672 1_555
Gd1 O0 2.424043 1_555
Gd1 O1 2.424043 1_555
Gd1 O2 2.424043 1_555
Gd1 O10 2.487472 1_555
Gd1 O9 2.487473 1_555
Gd1 O11 2.487479 1_555
Gd1 O21 2.584653 1_555
Gd1 O22 2.584666 1_555
Gd1 O23 2.584672 1_555
O0 P0 1.556166 1_455
O0 Sr5 2.882213 1_555
O1 P1 1.556166 1_565
O1 Sr3 2.882203 1_555
O2 P2 1.556166 1_555
O2 Sr4 2.882206 1_555
O3 P3 1.556166 1_655
O3 Sr2 2.882213 1_555
O4 P4 1.556166 1_545
O4 Sr0 2.882203 1_555
O5 P5 1.556166 1_555
O5 Sr1 2.882206 1_555
O6 P0 1.554678 1_555
O6 Sr3 2.512988 1_655
O7 P1 1.554686 1_555
O7 Sr4 2.512988 1_545
O8 P2 1.554686 1_555
O8 Sr5 2.512988 1_555
O9 P3 1.554678 1_555
O9 Sr0 2.512988 1_455
O10 P4 1.554686 1_555
O10 Sr1 2.512988 1_565
O11 P5 1.554686 1_555
O11 Sr2 2.512988 1_555
O12 P0 1.547257 1_555
O12 Sr0 2.476900 1_554
O12 Sr4 2.623626 1_545
O12 Sr5 3.039371 1_655
O13 P1 1.547251 1_555
O13 Sr1 2.476900 1_554
O13 Sr5 2.623626 1_555
O13 Sr3 3.039371 1_545
O14 P2 1.547255 1_555
O14 Sr2 2.476900 1_554
O14 Sr3 2.623626 1_655
O14 Sr4 3.039371 1_555
O15 P3 1.547257 1_555
O15 Sr3 2.476900 1_556
O15 Sr1 2.623626 1_565
O15 Sr2 3.039371 1_455
O16 P4 1.547251 1_555
O16 Sr4 2.476900 1_556
O16 Sr2 2.623626 1_555
O16 Sr0 3.039371 1_565
O17 P5 1.547255 1_555
O17 Sr5 2.476900 1_556
O17 Sr0 2.623626 1_455
O17 Sr1 3.039371 1_555
O18 P0 1.564649 1_555
O18 Sr0 2.532720 1_555
O18 Sr4 2.837014 1_545
O19 P1 1.564649 1_555
O19 Sr1 2.532718 1_555
O19 Sr5 2.837007 1_555
O20 P2 1.564649 1_555
O20 Sr2 2.532717 1_555
O20 Sr3 2.837014 1_655
O21 P3 1.564649 1_555
O21 Sr3 2.532720 1_555
O21 Sr1 2.837014 1_565
O22 P4 1.564649 1_555
O22 Sr4 2.532718 1_555
O22 Sr2 2.837007 1_555
O23 P5 1.564649 1_555
O23 Sr5 2.532717 1_555
O23 Sr0 2.837014 1_455
F0 Sr2 2.433456 1_445
F0 Sr1 2.433456 1_555
F0 Sr0 2.433456 1_455
F1 Sr5 2.433456 1_555
F1 Sr4 2.433456 1_445
F1 Sr3 2.433456 1_545
