# generated using pymatgen
data_Co2B4Mo
_symmetry_space_group_name_H-M   'P 1'
_cell_length_a   3.01454897
_cell_length_b   3.04282201
_cell_length_c   6.55034990
_cell_angle_alpha   103.43039516
_cell_angle_beta   103.30331742
_cell_angle_gamma   89.99998107
_symmetry_Int_Tables_number   1
_chemical_formula_structural   Co2B4Mo
_chemical_formula_sum   'Co2 B4 Mo1'
_cell_volume   56.78250890
_cell_formula_units_Z   1
loop_
 _symmetry_equiv_pos_site_id
 _symmetry_equiv_pos_as_xyz
  1  'x, y, z'
loop_
 _atom_site_type_symbol
 _atom_site_label
 _atom_site_symmetry_multiplicity
 _atom_site_fract_x
 _atom_site_fract_y
 _atom_site_fract_z
 _atom_site_occupancy
  Co  Co0  1  0.81443874  0.81443874  0.62887548  1
  Co  Co1  1  0.18556126  0.18556126  0.37112452  1
  B  B0  1  0.92514447  0.42514447  0.85028794  1
  B  B1  1  0.07485553  0.57485553  0.14971206  1
  B  B2  1  0.34773265  0.34773265  0.69546431  1
  B  B3  1  0.65226735  0.65226735  0.30453569  1
  Mo  Mo0  1  0.50000000  0.00000000  0.00000000  1
loop_
_geom_bond_atom_site_label_1
_geom_bond_atom_site_label_2
_geom_bond_distance
_geom_bond_site_symmetry_2
B0 B2 1.786178 1_555
B0 B2 1.786178 1_655
B0 B1 1.853542 1_656
B0 Co0 2.047753 1_545
B0 Co0 2.047755 1_555
B0 Mo0 2.333552 1_666
B0 Mo0 2.333553 1_656
B0 Mo0 2.333553 1_566
B0 Mo0 2.333556 1_556
B1 B3 1.786178 1_555
B1 B3 1.786178 1_455
B1 Co1 2.047753 1_565
B1 Co1 2.047755 1_555
B1 Mo0 2.333552 1_455
B1 Mo0 2.333553 1_465
B1 Mo0 2.333553 1_555
B1 Mo0 2.333556 1_565
B2 Co1 2.007779 1_555
B2 Co0 2.180935 1_445
B2 Co0 2.180936 1_455
B2 Co0 2.180936 1_545
B2 Co0 2.180939 1_555
B2 Mo0 2.422521 1_566
B2 Mo0 2.422523 1_556
B3 Co0 2.007779 1_555
B3 Co1 2.180935 1_665
B3 Co1 2.180936 1_655
B3 Co1 2.180936 1_565
B3 Co1 2.180939 1_555
B3 Mo0 2.422521 1_555
B3 Mo0 2.422523 1_565
