# generated using pymatgen
data_KNaTe(HO)6
_symmetry_space_group_name_H-M   'P 1'
_cell_length_a   6.69361780
_cell_length_b   6.69361780
_cell_length_c   9.00686600
_cell_angle_alpha   90.00000000
_cell_angle_beta   90.00000000
_cell_angle_gamma   119.99999802
_symmetry_Int_Tables_number   1
_chemical_formula_structural   KNaTe(HO)6
_chemical_formula_sum   'K2 Na2 Te2 H12 O12'
_cell_volume   349.48308735
_cell_formula_units_Z   2
loop_
 _symmetry_equiv_pos_site_id
 _symmetry_equiv_pos_as_xyz
  1  'x, y, z'
loop_
 _atom_site_type_symbol
 _atom_site_label
 _atom_site_symmetry_multiplicity
 _atom_site_fract_x
 _atom_site_fract_y
 _atom_site_fract_z
 _atom_site_occupancy
  K  K0  1  0.66666700  0.33333300  0.28915500  1
  K  K1  1  0.33333300  0.66666700  0.78915500  1
  Na  Na0  1  0.33333300  0.66666700  0.21739200  1
  Na  Na1  1  0.66666700  0.33333300  0.71739200  1
  Te  Te0  1  0.00000000  0.00000000  0.26973900  1
  Te  Te1  1  0.00000000  0.00000000  0.76973900  1
  H  H0  1  0.38074900  0.06008400  0.98630800  1
  H  H1  1  0.67933500  0.61925100  0.98630800  1
  H  H2  1  0.93991600  0.32066500  0.98630800  1
  H  H3  1  0.32066500  0.93991600  0.48630800  1
  H  H4  1  0.06008400  0.38074900  0.48630800  1
  H  H5  1  0.61925100  0.67933500  0.48630800  1
  H  H6  1  0.59712200  0.02793500  0.99622300  1
  H  H7  1  0.43081300  0.40287800  0.99622300  1
  H  H8  1  0.97206500  0.56918700  0.99622300  1
  H  H9  1  0.56918700  0.97206500  0.49622300  1
  H  H10  1  0.02793500  0.59712200  0.49622300  1
  H  H11  1  0.40287800  0.43081300  0.49622300  1
  O  O0  1  0.10105700  0.81249000  0.36292000  1
  O  O1  1  0.71143300  0.89894300  0.36292000  1
  O  O2  1  0.18751000  0.28856700  0.36292000  1
  O  O3  1  0.28856700  0.18751000  0.86292000  1
  O  O4  1  0.81249000  0.10105700  0.86292000  1
  O  O5  1  0.89894300  0.71143300  0.86292000  1
  O  O6  1  0.00437800  0.46080800  0.05234900  1
  O  O7  1  0.45642900  0.99562200  0.05234900  1
  O  O8  1  0.53919200  0.54357100  0.05234900  1
  O  O9  1  0.54357100  0.53919200  0.55234900  1
  O  O10  1  0.46080800  0.00437800  0.55234900  1
  O  O11  1  0.99562200  0.45642900  0.55234900  1
loop_
_geom_bond_atom_site_label_1
_geom_bond_atom_site_label_2
_geom_bond_distance
_geom_bond_site_symmetry_2
K0 O6 2.908319 1_655
K0 O7 2.908321 1_545
K0 O8 2.908328 1_555
K0 O1 3.139561 1_545
K0 O0 3.139565 1_655
K0 O2 3.139567 1_555
K1 O10 2.908319 1_565
K1 O11 2.908321 1_455
K1 O9 2.908328 1_555
K1 O5 3.139561 1_455
K1 O4 3.139565 1_565
K1 O3 3.139567 1_555
Na0 O8 2.433667 1_555
Na0 O7 2.433667 1_555
Na0 O6 2.433667 1_555
Na0 O0 2.570154 1_555
Na0 O1 2.570158 1_555
Na0 O2 2.570159 1_555
Na1 O9 2.433667 1_555
Na1 O11 2.433667 1_555
Na1 O10 2.433667 1_555
Na1 O4 2.570154 1_555
Na1 O5 2.570158 1_555
Na1 O3 2.570159 1_555
H0 O7 1.007565 1_546
H0 O3 1.693990 1_555
H1 O8 1.007569 1_556
H1 O5 1.693990 1_555
H2 O6 1.007569 1_656
H2 O4 1.693990 1_555
H3 O10 1.007569 1_565
H3 O0 1.693990 1_555
H4 O11 1.007565 1_455
H4 O2 1.693990 1_555
H5 O9 1.007569 1_555
H5 O1 1.693990 1_555
H6 O7 0.992736 1_546
H6 O4 1.747484 1_555
H6 K1 2.859002 1_545
H7 O8 0.992734 1_556
H7 O3 1.747484 1_555
H7 K1 2.859006 1_555
H8 O6 0.992730 1_656
H8 O5 1.747484 1_555
H8 K1 2.859001 1_655
H9 O10 0.992730 1_565
H9 O1 1.747484 1_555
H9 K0 2.859001 1_565
H10 O11 0.992736 1_455
H10 O0 1.747484 1_555
H10 K0 2.859002 1_455
H11 O9 0.992734 1_555
H11 O2 1.747484 1_555
H11 K0 2.859006 1_555
O0 Te0 1.893746 1_565
O1 Te0 1.893746 1_665
O2 Te0 1.893746 1_555
O3 Te1 1.893746 1_555
O4 Te1 1.893746 1_655
O5 Te1 1.893746 1_665
