# generated using pymatgen
data_TiGaTc2
_symmetry_space_group_name_H-M   'P 1'
_cell_length_a   4.33416187
_cell_length_b   4.33416187
_cell_length_c   4.33416187
_cell_angle_alpha   60.00000000
_cell_angle_beta   60.00000000
_cell_angle_gamma   60.00000000
_symmetry_Int_Tables_number   1
_chemical_formula_structural   TiGaTc2
_chemical_formula_sum   'Ti1 Ga1 Tc2'
_cell_volume   57.57055071
_cell_formula_units_Z   1
loop_
 _symmetry_equiv_pos_site_id
 _symmetry_equiv_pos_as_xyz
  1  'x, y, z'
loop_
 _atom_site_type_symbol
 _atom_site_label
 _atom_site_symmetry_multiplicity
 _atom_site_fract_x
 _atom_site_fract_y
 _atom_site_fract_z
 _atom_site_occupancy
  Ti  Ti0  1  -0.00000000  -0.00000000  0.00000000  1
  Ga  Ga0  1  0.50000000  0.50000000  0.50000000  1
  Tc  Tc0  1  0.25000000  0.25000000  0.25000000  1
  Tc  Tc1  1  0.75000000  0.75000000  0.75000000  1
loop_
_geom_bond_atom_site_label_1
_geom_bond_atom_site_label_2
_geom_bond_distance
_geom_bond_site_symmetry_2
Ga0 Tc1 2.654121 1_555
Ga0 Tc1 2.654121 1_545
Ga0 Tc0 2.654121 1_556
Ga0 Tc0 2.654121 1_565
Ga0 Tc1 2.654121 1_554
Ga0 Tc0 2.654121 1_555
Ga0 Tc1 2.654121 1_455
Ga0 Tc0 2.654121 1_655
Ga0 Ti0 3.064715 1_566
Ga0 Ti0 3.064715 1_565
Ga0 Ti0 3.064715 1_655
Ga0 Ti0 3.064715 1_665
Ga0 Ti0 3.064715 1_656
Ga0 Ti0 3.064715 1_556
Tc0 Ti0 2.654121 1_565
Tc0 Ti0 2.654121 1_556
Tc0 Ti0 2.654121 1_555
Tc0 Ti0 2.654121 1_655
Tc1 Ti0 2.654121 1_665
Tc1 Ti0 2.654121 1_656
Tc1 Ti0 2.654121 1_666
Tc1 Ti0 2.654121 1_566
