# generated using pymatgen
data_Li2VO2F
_symmetry_space_group_name_H-M   'P 1'
_cell_length_a   2.95839830
_cell_length_b   8.89639303
_cell_length_c   4.21782548
_cell_angle_alpha   90.05686997
_cell_angle_beta   89.99977993
_cell_angle_gamma   89.99881933
_symmetry_Int_Tables_number   1
_chemical_formula_structural   Li2VO2F
_chemical_formula_sum   'Li4 V2 O4 F2'
_cell_volume   111.00920628
_cell_formula_units_Z   2
loop_
 _symmetry_equiv_pos_site_id
 _symmetry_equiv_pos_as_xyz
  1  'x, y, z'
loop_
 _atom_site_type_symbol
 _atom_site_label
 _atom_site_symmetry_multiplicity
 _atom_site_fract_x
 _atom_site_fract_y
 _atom_site_fract_z
 _atom_site_occupancy
  Li  Li0  1  0.00003000  0.33322700  0.00065800  1
  Li  Li1  1  0.50004200  0.49982500  0.49963100  1
  Li  Li2  1  0.00001200  0.64738200  0.00014700  1
  Li  Li3  1  0.50002900  0.18552700  0.49913500  1
  V  V0  1  0.49994600  0.82360900  0.50017000  1
  V  V1  1  0.99999100  0.00945900  0.99951400  1
  O  O0  1  0.49998500  0.15878000  0.00127100  1
  O  O1  1  0.99999500  0.67460700  0.49909600  1
  O  O2  1  0.49999700  0.84614800  0.99994400  1
  O  O3  1  0.99997400  0.98709500  0.49974900  1
  F  F0  1  0.50000000  0.49517900  0.99999700  1
  F  F1  1  0.00000000  0.33916200  0.50068800  1
loop_
_geom_bond_atom_site_label_1
_geom_bond_atom_site_label_2
_geom_bond_distance
_geom_bond_site_symmetry_2
Li0 O0 2.143852 1_555
Li0 O0 2.144080 1_455
Li1 O1 2.146050 1_555
Li1 O1 2.146198 1_455
Li2 O1 2.118133 1_455
Li2 O1 2.127418 1_454
Li2 O2 2.305406 1_554
Li2 O2 2.305416 1_454
Li3 O0 2.113108 1_555
Li3 O0 2.131482 1_556
Li3 O3 2.303008 1_545
Li3 O3 2.303263 1_445
O0 V1 1.988148 1_554
O0 V1 1.988162 1_454
O1 V0 1.986166 1_655
O1 V0 1.986341 1_555
O2 V1 2.073369 1_465
O2 V1 2.073387 1_565
O2 V0 2.117277 1_555
O2 V0 2.119571 1_556
O3 V0 2.074389 1_655
O3 V0 2.074549 1_555
O3 V1 2.117094 1_565
O3 V1 2.119460 1_564
F0 Li2 2.005321 1_556
F0 Li2 2.005415 1_656
F0 Li0 2.064883 1_556
F0 Li0 2.064968 1_656
F0 Li1 2.107733 1_556
F0 Li1 2.110902 1_555
F1 Li3 2.013956 1_455
F1 Li3 2.014041 1_555
F1 Li1 2.056834 1_455
F1 Li1 2.057055 1_555
F1 Li0 2.109500 1_556
F1 Li0 2.109648 1_555
