# generated using pymatgen
data_Sm2Fe15Co2C3
_symmetry_space_group_name_H-M   'P 1'
_cell_length_a   6.51448146
_cell_length_b   6.51448146
_cell_length_c   6.53323116
_cell_angle_alpha   83.77449069
_cell_angle_beta   83.77449069
_cell_angle_gamma   83.70265031
_symmetry_Int_Tables_number   1
_chemical_formula_structural   Sm2Fe15Co2C3
_chemical_formula_sum   'Sm2 Fe15 Co2 C3'
_cell_volume   272.65123362
_cell_formula_units_Z   1
loop_
 _symmetry_equiv_pos_site_id
 _symmetry_equiv_pos_as_xyz
  1  'x, y, z'
loop_
 _atom_site_type_symbol
 _atom_site_label
 _atom_site_symmetry_multiplicity
 _atom_site_fract_x
 _atom_site_fract_y
 _atom_site_fract_z
 _atom_site_occupancy
  Sm  Sm0  1  0.65444900  0.65444900  0.65392300  1
  Sm  Sm1  1  0.34633300  0.34633300  0.34565300  1
  Fe  Fe0  1  0.28347000  0.99932100  0.71711000  1
  Fe  Fe1  1  0.71588500  0.28381900  0.00012900  1
  Fe  Fe2  1  0.99981500  0.71640200  0.28340700  1
  Fe  Fe3  1  0.28381900  0.71588500  0.00012900  1
  Fe  Fe4  1  0.99932100  0.28347000  0.71711000  1
  Fe  Fe5  1  0.71640200  0.99981500  0.28340700  1
  Fe  Fe6  1  0.00026200  0.49940200  0.00107800  1
  Fe  Fe7  1  0.00041800  0.00041800  0.49946100  1
  Fe  Fe8  1  0.49940200  0.00026200  0.00107800  1
  Fe  Fe9  1  0.90468200  0.90468200  0.90390500  1
  Fe  Fe10  1  0.09452800  0.09452800  0.09478900  1
  Fe  Fe11  1  0.34165400  0.34165400  0.85736900  1
  Fe  Fe12  1  0.14179000  0.65657600  0.65768900  1
  Fe  Fe13  1  0.65657600  0.14179000  0.65768900  1
  Fe  Fe14  1  0.65856400  0.65856400  0.14197400  1
  Co  Co0  1  0.86171500  0.34249700  0.34271200  1
  Co  Co1  1  0.34249700  0.86171500  0.34271200  1
  C  C0  1  0.49898300  0.99982500  0.49918600  1
  C  C1  1  0.49961000  0.49961000  0.00030500  1
  C  C2  1  0.99982500  0.49898300  0.49918600  1
loop_
_geom_bond_atom_site_label_1
_geom_bond_atom_site_label_2
_geom_bond_distance
_geom_bond_site_symmetry_2
Fe0 Fe7 2.446563 1_565
Fe0 Fe8 2.447660 1_566
Fe0 Fe9 2.734217 1_455
Fe0 Fe10 2.737483 1_566
Fe1 Fe8 2.443006 1_555
Fe1 Fe6 2.445315 1_655
Fe1 Fe10 2.735996 1_655
Fe1 Fe9 2.740595 1_544
Fe2 Fe6 2.442152 1_655
Fe2 Fe7 2.446417 1_665
Fe2 Fe9 2.746404 1_554
Fe3 Fe6 2.443006 1_555
Fe3 Fe8 2.445315 1_565
Fe3 Fe9 2.740595 1_454
Fe4 Fe7 2.446563 1_655
Fe4 Fe6 2.447660 1_656
Fe4 Fe9 2.734217 1_545
Fe5 Fe8 2.442152 1_565
Fe5 Fe7 2.446417 1_665
Fe5 Fe9 2.746404 1_554
Fe6 Fe9 2.668877 1_454
Fe6 Sm1 3.356417 1_555
Fe6 Sm0 3.369188 1_454
Fe7 Fe9 2.670266 1_445
Fe7 Sm1 3.361200 1_555
Fe7 Sm0 3.362359 1_445
Fe8 Fe9 2.668877 1_544
Fe8 Sm1 3.356417 1_555
Fe8 Sm0 3.369188 1_544
Fe9 Sm0 3.117660 1_555
Fe10 Fe9 2.370419 1_444
Fe10 Fe11 2.659870 1_554
Fe10 Fe8 2.661687 1_555
Fe10 Fe6 2.661687 1_555
Fe10 Fe7 2.668495 1_555
Fe10 Fe2 2.734450 1_445
Fe10 Fe5 2.734450 1_445
Fe10 Fe3 2.735996 1_545
Fe10 Fe4 2.737483 1_454
Fe10 Sm1 3.134381 1_555
Fe11 Fe6 2.477642 1_556
Fe11 Fe8 2.477642 1_556
Fe12 Fe7 2.487148 1_565
Fe12 Fe6 2.488323 1_556
Fe12 Fe9 2.657654 1_455
Fe13 Fe7 2.487148 1_655
Fe13 Fe8 2.488323 1_556
Fe13 Fe9 2.657654 1_545
Fe14 Fe6 2.476628 1_655
Fe14 Fe8 2.476628 1_565
Fe14 Fe9 2.653812 1_554
Co0 Fe7 2.468857 1_655
Co0 Fe6 2.472205 1_655
Co0 Fe10 2.651508 1_655
Co1 Fe7 2.468857 1_565
Co1 Fe8 2.472205 1_565
Co1 Fe10 2.651508 1_565
C0 Co1 1.876296 1_555
C0 Fe5 1.886904 1_555
C0 Fe0 1.888023 1_555
C0 Fe13 1.904783 1_565
C0 Sm1 2.514627 1_565
C0 Sm0 2.517700 1_555
C1 Fe3 1.877960 1_555
C1 Fe1 1.877960 1_555
C1 Fe11 1.907573 1_554
C1 Fe14 1.911059 1_555
C1 Sm1 2.515192 1_555
C1 Sm0 2.527674 1_554
C2 Co0 1.876296 1_555
C2 Fe2 1.886904 1_555
C2 Fe4 1.888023 1_555
C2 Fe12 1.904783 1_655
C2 Sm1 2.514627 1_655
C2 Sm0 2.517700 1_555
