# generated using pymatgen
data_TiCo2Sn
_symmetry_space_group_name_H-M   'P 1'
_cell_length_a   6.23491400
_cell_length_b   6.23491400
_cell_length_c   11.74018200
_cell_angle_alpha   90.00000000
_cell_angle_beta   90.00000000
_cell_angle_gamma   90.00000000
_symmetry_Int_Tables_number   1
_chemical_formula_structural   TiCo2Sn
_chemical_formula_sum   'Ti8 Co16 Sn8'
_cell_volume   456.38962647
_cell_formula_units_Z   8
loop_
 _symmetry_equiv_pos_site_id
 _symmetry_equiv_pos_as_xyz
  1  'x, y, z'
loop_
 _atom_site_type_symbol
 _atom_site_label
 _atom_site_symmetry_multiplicity
 _atom_site_fract_x
 _atom_site_fract_y
 _atom_site_fract_z
 _atom_site_occupancy
  Ti  Ti0_0  1  0.00000000  0.00000000  0.25000000  1
  Ti  Ti0_1  1  0.00000000  0.00000000  0.75000000  1
  Ti  Ti0_2  1  0.00000000  0.50000000  0.25000000  1
  Ti  Ti0_3  1  0.00000000  0.50000000  0.75000000  1
  Ti  Ti0_4  1  0.50000000  0.00000000  0.25000000  1
  Ti  Ti0_5  1  0.50000000  0.00000000  0.75000000  1
  Ti  Ti0_6  1  0.50000000  0.50000000  0.25000000  1
  Ti  Ti0_7  1  0.50000000  0.50000000  0.75000000  1
  Co  Co0_0  1  0.25000000  0.25000000  0.13469500  1
  Co  Co0_1  1  0.25000000  0.25000000  0.63469500  1
  Co  Co0_2  1  0.25000000  0.75000000  0.13469500  1
  Co  Co0_3  1  0.25000000  0.75000000  0.63469500  1
  Co  Co0_4  1  0.75000000  0.25000000  0.13469500  1
  Co  Co0_5  1  0.75000000  0.25000000  0.63469500  1
  Co  Co0_6  1  0.75000000  0.75000000  0.13469500  1
  Co  Co0_7  1  0.75000000  0.75000000  0.63469500  1
  Co  Co1_0  1  0.25000000  0.25000000  0.36530500  1
  Co  Co1_1  1  0.25000000  0.25000000  0.86530500  1
  Co  Co1_2  1  0.25000000  0.75000000  0.36530500  1
  Co  Co1_3  1  0.25000000  0.75000000  0.86530500  1
  Co  Co1_4  1  0.75000000  0.25000000  0.36530500  1
  Co  Co1_5  1  0.75000000  0.25000000  0.86530500  1
  Co  Co1_6  1  0.75000000  0.75000000  0.36530500  1
  Co  Co1_7  1  0.75000000  0.75000000  0.86530500  1
  Sn  Sn0_0  1  0.00000000  0.00000000  0.00000000  1
  Sn  Sn0_1  1  0.00000000  0.00000000  0.50000000  1
  Sn  Sn0_2  1  0.00000000  0.50000000  0.00000000  1
  Sn  Sn0_3  1  0.00000000  0.50000000  0.50000000  1
  Sn  Sn0_4  1  0.50000000  0.00000000  0.00000000  1
  Sn  Sn0_5  1  0.50000000  0.00000000  0.50000000  1
  Sn  Sn0_6  1  0.50000000  0.50000000  0.00000000  1
  Sn  Sn0_7  1  0.50000000  0.50000000  0.50000000  1
loop_
_geom_bond_atom_site_label_1
_geom_bond_atom_site_label_2
_geom_bond_distance
_geom_bond_site_symmetry_2
Co0_0 Ti0_0 2.586847 1_555
Co0_0 Ti0_6 2.586847 1_555
Co0_0 Ti0_4 2.586847 1_555
Co0_0 Ti0_2 2.586847 1_555
Co0_0 Co1_0 2.707403 1_555
Co0_0 Sn0_6 2.712917 1_555
Co0_0 Sn0_0 2.712917 1_555
Co0_0 Sn0_4 2.712917 1_555
Co0_0 Sn0_2 2.712917 1_555
Co0_1 Ti0_5 2.586847 1_555
Co0_1 Ti0_3 2.586847 1_555
Co0_1 Ti0_7 2.586847 1_555
Co0_1 Ti0_1 2.586847 1_555
Co0_1 Co1_1 2.707403 1_555
Co0_1 Sn0_7 2.712917 1_555
Co0_1 Sn0_1 2.712917 1_555
Co0_1 Sn0_5 2.712917 1_555
Co0_1 Sn0_3 2.712917 1_555
Co0_2 Ti0_0 2.586847 1_565
Co0_2 Ti0_4 2.586847 1_565
Co0_2 Ti0_2 2.586847 1_555
Co0_2 Ti0_6 2.586847 1_555
Co0_2 Co1_2 2.707403 1_555
Co0_2 Sn0_0 2.712917 1_565
Co0_2 Sn0_4 2.712917 1_565
Co0_2 Sn0_2 2.712917 1_555
Co0_2 Sn0_6 2.712917 1_555
Co0_3 Ti0_1 2.586847 1_565
Co0_3 Ti0_5 2.586847 1_565
Co0_3 Ti0_3 2.586847 1_555
Co0_3 Ti0_7 2.586847 1_555
Co0_3 Co1_3 2.707403 1_555
Co0_3 Sn0_1 2.712917 1_565
Co0_3 Sn0_5 2.712917 1_565
Co0_3 Sn0_3 2.712917 1_555
Co0_3 Sn0_7 2.712917 1_555
Co0_4 Ti0_0 2.586847 1_655
Co0_4 Ti0_2 2.586847 1_655
Co0_4 Ti0_6 2.586847 1_555
Co0_4 Ti0_4 2.586847 1_555
Co0_4 Co1_4 2.707403 1_555
Co0_4 Sn0_0 2.712917 1_655
Co0_4 Sn0_2 2.712917 1_655
Co0_4 Sn0_6 2.712917 1_555
Co0_4 Sn0_4 2.712917 1_555
Co0_5 Ti0_3 2.586847 1_655
Co0_5 Ti0_1 2.586847 1_655
Co0_5 Ti0_7 2.586847 1_555
Co0_5 Ti0_5 2.586847 1_555
Co0_5 Co1_5 2.707403 1_555
Co0_5 Sn0_1 2.712917 1_655
Co0_5 Sn0_3 2.712917 1_655
Co0_5 Sn0_5 2.712917 1_555
Co0_5 Sn0_7 2.712917 1_555
Co0_6 Ti0_0 2.586847 1_665
Co0_6 Ti0_2 2.586847 1_655
Co0_6 Ti0_4 2.586847 1_565
Co0_6 Ti0_6 2.586847 1_555
Co0_6 Co1_6 2.707403 1_555
Co0_6 Sn0_0 2.712917 1_665
Co0_6 Sn0_4 2.712917 1_565
Co0_6 Sn0_2 2.712917 1_655
Co0_6 Sn0_6 2.712917 1_555
Co0_7 Ti0_1 2.586847 1_665
Co0_7 Ti0_5 2.586847 1_565
Co0_7 Ti0_3 2.586847 1_655
Co0_7 Ti0_7 2.586847 1_555
Co0_7 Co1_7 2.707403 1_555
Co0_7 Sn0_1 2.712917 1_665
Co0_7 Sn0_5 2.712917 1_565
Co0_7 Sn0_3 2.712917 1_655
Co0_7 Sn0_7 2.712917 1_555
Co1_0 Ti0_6 2.586847 1_555
Co1_0 Ti0_2 2.586847 1_555
Co1_0 Ti0_0 2.586847 1_555
Co1_0 Ti0_4 2.586847 1_555
Co1_0 Sn0_5 2.712917 1_555
Co1_0 Sn0_3 2.712917 1_555
Co1_0 Sn0_1 2.712917 1_555
Co1_0 Sn0_7 2.712917 1_555
Co1_1 Ti0_3 2.586847 1_555
Co1_1 Ti0_7 2.586847 1_555
Co1_1 Ti0_1 2.586847 1_555
Co1_1 Ti0_5 2.586847 1_555
Co1_1 Sn0_2 2.712917 1_556
Co1_1 Sn0_6 2.712917 1_556
Co1_1 Sn0_0 2.712917 1_556
Co1_1 Sn0_4 2.712917 1_556
Co1_2 Ti0_0 2.586847 1_565
Co1_2 Ti0_4 2.586847 1_565
Co1_2 Ti0_6 2.586847 1_555
Co1_2 Ti0_2 2.586847 1_555
Co1_2 Sn0_1 2.712917 1_565
Co1_2 Sn0_5 2.712917 1_565
Co1_2 Sn0_7 2.712917 1_555
Co1_2 Sn0_3 2.712917 1_555
Co1_3 Ti0_1 2.586847 1_565
Co1_3 Ti0_5 2.586847 1_565
Co1_3 Ti0_3 2.586847 1_555
Co1_3 Ti0_7 2.586847 1_555
Co1_3 Sn0_0 2.712917 1_566
Co1_3 Sn0_4 2.712917 1_566
Co1_3 Sn0_6 2.712917 1_556
Co1_3 Sn0_2 2.712917 1_556
Co1_4 Ti0_2 2.586847 1_655
Co1_4 Ti0_0 2.586847 1_655
Co1_4 Ti0_4 2.586847 1_555
Co1_4 Ti0_6 2.586847 1_555
Co1_4 Sn0_3 2.712917 1_655
Co1_4 Sn0_1 2.712917 1_655
Co1_4 Sn0_7 2.712917 1_555
Co1_4 Sn0_5 2.712917 1_555
Co1_5 Ti0_3 2.586847 1_655
Co1_5 Ti0_1 2.586847 1_655
Co1_5 Ti0_5 2.586847 1_555
Co1_5 Ti0_7 2.586847 1_555
Co1_5 Sn0_2 2.712917 1_656
Co1_5 Sn0_0 2.712917 1_656
Co1_5 Sn0_6 2.712917 1_556
Co1_5 Sn0_4 2.712917 1_556
Co1_6 Ti0_0 2.586847 1_665
Co1_6 Ti0_4 2.586847 1_565
Co1_6 Ti0_2 2.586847 1_655
Co1_6 Ti0_6 2.586847 1_555
Co1_6 Sn0_1 2.712917 1_665
Co1_6 Sn0_3 2.712917 1_655
Co1_6 Sn0_5 2.712917 1_565
Co1_6 Sn0_7 2.712917 1_555
Co1_7 Ti0_1 2.586847 1_665
Co1_7 Ti0_5 2.586847 1_565
Co1_7 Ti0_3 2.586847 1_655
Co1_7 Ti0_7 2.586847 1_555
Co1_7 Sn0_0 2.712917 1_666
Co1_7 Sn0_4 2.712917 1_566
Co1_7 Sn0_2 2.712917 1_656
Co1_7 Sn0_6 2.712917 1_556
Sn0_0 Ti0_0 2.935046 1_555
Sn0_0 Ti0_1 2.935046 1_554
Sn0_0 Sn0_2 3.117457 1_545
Sn0_0 Sn0_2 3.117457 1_555
Sn0_0 Sn0_4 3.117457 1_455
Sn0_0 Sn0_4 3.117457 1_555
Sn0_1 Ti0_1 2.935045 1_555
Sn0_1 Ti0_0 2.935046 1_555
Sn0_1 Sn0_5 3.117457 1_555
Sn0_1 Sn0_5 3.117457 1_455
Sn0_1 Sn0_3 3.117457 1_555
Sn0_1 Sn0_3 3.117457 1_545
Sn0_2 Ti0_2 2.935046 1_555
Sn0_2 Ti0_3 2.935046 1_554
Sn0_2 Sn0_6 3.117457 1_555
Sn0_2 Sn0_6 3.117457 1_455
Sn0_3 Ti0_3 2.935045 1_555
Sn0_3 Ti0_2 2.935046 1_555
Sn0_3 Sn0_7 3.117457 1_455
Sn0_3 Sn0_7 3.117457 1_555
Sn0_4 Ti0_4 2.935046 1_555
Sn0_4 Ti0_5 2.935046 1_554
Sn0_4 Sn0_6 3.117457 1_555
Sn0_4 Sn0_6 3.117457 1_545
Sn0_5 Ti0_5 2.935045 1_555
Sn0_5 Ti0_4 2.935046 1_555
Sn0_5 Sn0_7 3.117457 1_545
Sn0_5 Sn0_7 3.117457 1_555
Sn0_6 Ti0_6 2.935046 1_555
Sn0_6 Ti0_7 2.935046 1_554
Sn0_7 Ti0_7 2.935045 1_555
Sn0_7 Ti0_6 2.935046 1_555
