# generated using pymatgen
data_Ti4FeSe8
_symmetry_space_group_name_H-M   'P 1'
_cell_length_a   6.98634610
_cell_length_b   6.98634610
_cell_length_c   8.57960824
_cell_angle_alpha   53.16596903
_cell_angle_beta   53.16596903
_cell_angle_gamma   61.24666379
_symmetry_Int_Tables_number   1
_chemical_formula_structural   Ti4FeSe8
_chemical_formula_sum   'Ti4 Fe1 Se8'
_cell_volume   263.37889128
_cell_formula_units_Z   1
loop_
 _symmetry_equiv_pos_site_id
 _symmetry_equiv_pos_as_xyz
  1  'x, y, z'
loop_
 _atom_site_type_symbol
 _atom_site_label
 _atom_site_symmetry_multiplicity
 _atom_site_fract_x
 _atom_site_fract_y
 _atom_site_fract_z
 _atom_site_occupancy
  Ti  Ti0  1  0.73837900  0.26162100  0.50000000  1
  Ti  Ti1  1  0.26162100  0.73837900  0.50000000  1
  Ti  Ti2  1  0.74645700  0.74645700  0.00951500  1
  Ti  Ti3  1  0.25354300  0.25354300  0.99048500  1
  Fe  Fe0  1  0.00000000  0.00000000  0.00000000  1
  Se  Se0  1  0.45346900  0.45346900  0.33098000  1
  Se  Se1  1  0.54653100  0.54653100  0.66902000  1
  Se  Se2  1  0.54376100  0.04833900  0.16917000  1
  Se  Se3  1  0.45623900  0.95166100  0.83083000  1
  Se  Se4  1  0.95166100  0.45623900  0.83083000  1
  Se  Se5  1  0.04833900  0.54376100  0.16917000  1
  Se  Se6  1  0.95564300  0.95564300  0.33522200  1
  Se  Se7  1  0.04435700  0.04435700  0.66477800  1
loop_
_geom_bond_atom_site_label_1
_geom_bond_atom_site_label_2
_geom_bond_distance
_geom_bond_site_symmetry_2
Fe0 Se4 2.526975 1_454
Fe0 Se3 2.526975 1_544
Fe0 Se2 2.526975 1_455
Fe0 Se5 2.526975 1_545
Fe0 Se6 2.533571 1_445
Fe0 Se7 2.533571 1_554
Se0 Ti0 2.534769 1_555
Se0 Ti1 2.534769 1_555
Se0 Ti2 2.545519 1_555
Se1 Ti0 2.534769 1_555
Se1 Ti1 2.534769 1_555
Se1 Ti3 2.545519 1_555
Se2 Ti2 2.567962 1_545
Se2 Ti1 2.580679 1_545
Se2 Ti3 2.609927 1_554
Se3 Ti3 2.567962 1_565
Se3 Ti0 2.580679 1_565
Se3 Ti2 2.609927 1_556
Se4 Ti3 2.567962 1_655
Se4 Ti1 2.580679 1_655
Se4 Ti2 2.609927 1_556
Se5 Ti2 2.567962 1_455
Se5 Ti0 2.580679 1_455
Se5 Ti3 2.609927 1_554
Se6 Ti0 2.607895 1_565
Se6 Ti1 2.607895 1_655
Se6 Ti3 2.610953 1_664
Se7 Ti1 2.607895 1_545
Se7 Ti0 2.607895 1_455
Se7 Ti2 2.610953 1_446
