# generated using pymatgen
data_PrC2ClO7
_symmetry_space_group_name_H-M   'P 1'
_cell_length_a   14.11172100
_cell_length_b   6.07556600
_cell_length_c   9.58414127
_cell_angle_alpha   69.15897254
_cell_angle_beta   90.00000000
_cell_angle_gamma   90.00000000
_symmetry_Int_Tables_number   1
_chemical_formula_structural   PrC2ClO7
_chemical_formula_sum   'Pr4 C8 Cl4 O28'
_cell_volume   767.94886869
_cell_formula_units_Z   4
loop_
 _symmetry_equiv_pos_site_id
 _symmetry_equiv_pos_as_xyz
  1  'x, y, z'
loop_
 _atom_site_type_symbol
 _atom_site_label
 _atom_site_symmetry_multiplicity
 _atom_site_fract_x
 _atom_site_fract_y
 _atom_site_fract_z
 _atom_site_occupancy
  Pr  Pr0  1  0.61345600  0.32725500  0.15613200  1
  Pr  Pr1  1  0.88654400  0.32725500  0.65613200  1
  Pr  Pr2  1  0.38654400  0.67274500  0.84386800  1
  Pr  Pr3  1  0.11345600  0.67274500  0.34386800  1
  C  C0  1  0.53241000  0.89654700  0.04639000  1
  C  C1  1  0.96759000  0.89654700  0.54639000  1
  C  C2  1  0.46759000  0.10345300  0.95361000  1
  C  C3  1  0.03241000  0.10345300  0.45361000  1
  C  C4  1  0.58418600  0.79461600  0.55669800  1
  C  C5  1  0.91581400  0.79461600  0.05669800  1
  C  C6  1  0.41581400  0.20538400  0.44330200  1
  C  C7  1  0.08418600  0.20538400  0.94330200  1
  Cl  Cl0  1  0.80193400  0.17840000  0.15692500  1
  Cl  Cl1  1  0.69806600  0.17840000  0.65692500  1
  Cl  Cl2  1  0.19806600  0.82160000  0.84307500  1
  Cl  Cl3  1  0.30193400  0.82160000  0.34307500  1
  O  O0  1  0.52265100  0.70389100  0.02080800  1
  O  O1  1  0.97734900  0.70389100  0.52080800  1
  O  O2  1  0.47734900  0.29610900  0.97919200  1
  O  O3  1  0.02265100  0.29610900  0.47919200  1
  O  O4  1  0.60494200  0.92434500  0.43725700  1
  O  O5  1  0.89505800  0.92434500  0.93725700  1
  O  O6  1  0.39505800  0.07565500  0.56274300  1
  O  O7  1  0.10494200  0.07565500  0.06274300  1
  O  O8  1  0.58817800  0.92950100  0.13816500  1
  O  O9  1  0.91182200  0.92950100  0.63816500  1
  O  O10  1  0.41182200  0.07049900  0.86183500  1
  O  O11  1  0.08817800  0.07049900  0.36183500  1
  O  O12  1  0.44405800  0.32661900  0.32530300  1
  O  O13  1  0.05594200  0.32661900  0.82530300  1
  O  O14  1  0.55594200  0.67338100  0.67469700  1
  O  O15  1  0.94405800  0.67338100  0.17469700  1
  O  O16  1  0.71107700  0.39218900  0.93411300  1
  O  O17  1  0.78892300  0.39218900  0.43411300  1
  O  O18  1  0.28892300  0.60781100  0.06588700  1
  O  O19  1  0.21107700  0.60781100  0.56588700  1
  O  O20  1  0.74150400  0.59218600  0.08914900  1
  O  O21  1  0.75849600  0.59218600  0.58914900  1
  O  O22  1  0.25849600  0.40781400  0.91085100  1
  O  O23  1  0.24150400  0.40781400  0.41085100  1
  O  O24  1  0.65514100  0.46326900  0.35196800  1
  O  O25  1  0.84485900  0.46326900  0.85196800  1
  O  O26  1  0.34485900  0.53673100  0.64803200  1
  O  O27  1  0.15514100  0.53673100  0.14803200  1
loop_
_geom_bond_atom_site_label_1
_geom_bond_atom_site_label_2
_geom_bond_distance
_geom_bond_site_symmetry_2
C0 O8 1.248361 1_555
C0 O0 1.285823 1_555
C1 O9 1.248361 1_555
C1 O1 1.285823 1_555
C2 O10 1.248361 1_555
C2 O2 1.285823 1_555
C3 O11 1.248361 1_555
C3 O3 1.285823 1_555
C4 O4 1.172792 1_555
C4 O14 1.177985 1_555
C5 O5 1.172792 1_554
C5 O15 1.177985 1_555
C6 O6 1.172792 1_555
C6 O12 1.177985 1_555
C7 O7 1.172792 1_556
C7 O13 1.177985 1_555
Cl0 Pr0 2.808439 1_555
Cl1 Pr1 2.808439 1_555
Cl2 Pr2 2.808439 1_555
Cl3 Pr3 2.808439 1_555
O0 Pr0 2.539409 1_555
O0 Pr2 2.613244 1_554
O1 Pr1 2.539409 1_555
O1 Pr3 2.613244 1_655
O2 Pr2 2.539409 1_555
O2 Pr0 2.613244 1_556
O3 Pr3 2.539409 1_555
O3 Pr1 2.613244 1_455
O4 Pr0 2.927988 1_565
O5 Pr1 2.927988 1_565
O6 Pr2 2.927988 1_545
O7 Pr3 2.927988 1_545
O8 Pr0 2.508557 1_565
O9 Pr1 2.508557 1_565
O10 Pr2 2.508557 1_545
O11 Pr3 2.508557 1_545
O12 Pr0 2.887705 1_555
O13 Pr1 2.887705 1_455
O14 Pr2 2.887705 1_555
O15 Pr3 2.887705 1_655
O16 Pr0 2.446200 1_556
O17 Pr1 2.446200 1_555
O18 Pr2 2.446200 1_554
O19 Pr3 2.446200 1_555
O20 Pr0 2.352204 1_555
O21 Pr1 2.352204 1_555
O22 Pr2 2.352204 1_555
O23 Pr3 2.352204 1_555
O24 Pr0 2.378101 1_555
O25 Pr1 2.378101 1_555
O26 Pr2 2.378101 1_555
O27 Pr3 2.378101 1_555
