# generated using pymatgen
data_Co3Ni2Te3O16
_symmetry_space_group_name_H-M   'P 1'
_cell_length_a   5.94319700
_cell_length_b   6.01308172
_cell_length_c   9.19146608
_cell_angle_alpha   89.96443977
_cell_angle_beta   90.16716004
_cell_angle_gamma   119.35808262
_symmetry_Int_Tables_number   1
_chemical_formula_structural   Co3Ni2Te3O16
_chemical_formula_sum   'Co3 Ni2 Te3 O16'
_cell_volume   286.28830998
_cell_formula_units_Z   1
loop_
 _symmetry_equiv_pos_site_id
 _symmetry_equiv_pos_as_xyz
  1  'x, y, z'
loop_
 _atom_site_type_symbol
 _atom_site_label
 _atom_site_symmetry_multiplicity
 _atom_site_fract_x
 _atom_site_fract_y
 _atom_site_fract_z
 _atom_site_occupancy
  Co  Co0  1  0.33661900  0.16807300  0.79099600  1
  Co  Co1  1  0.16985300  0.83540300  0.29068900  1
  Co  Co2  1  0.16619700  0.33250200  0.28693300  1
  Ni  Ni0  1  0.65669900  0.32661900  0.50378000  1
  Ni  Ni1  1  0.30744100  0.65408200  0.01332700  1
  Te  Te0  1  0.83564900  0.66643300  0.78423800  1
  Te  Te1  1  0.83623400  0.16941500  0.78589200  1
  Te  Te2  1  0.66603600  0.83227600  0.28799100  1
  O  O0  1  0.84874000  0.68285400  0.39589700  1
  O  O1  1  0.97515300  0.48467200  0.65959100  1
  O  O2  1  0.69250000  0.34809000  0.90869800  1
  O  O3  1  0.98632000  0.99246400  0.67155800  1
  O  O4  1  0.99090900  0.97825600  0.17717700  1
  O  O5  1  0.84055300  0.15987800  0.39228700  1
  O  O6  1  0.53464200  0.49650700  0.66560200  1
  O  O7  1  0.53635300  0.04204400  0.66628000  1
  O  O8  1  0.67308900  0.83775600  0.89887300  1
  O  O9  1  0.31361900  0.15821600  0.38249500  1
  O  O10  1  0.46641700  0.95639700  0.16898000  1
  O  O11  1  0.47742900  0.51832100  0.16890400  1
  O  O12  1  0.34706800  0.69256600  0.40489800  1
  O  O13  1  0.14584400  0.82570500  0.89442400  1
  O  O14  1  0.05104500  0.52455100  0.18754700  1
  O  O15  1  0.14558800  0.31712000  0.89722700  1
loop_
_geom_bond_atom_site_label_1
_geom_bond_atom_site_label_2
_geom_bond_distance
_geom_bond_site_symmetry_2
Co0 O15 2.012680 1_555
Co0 O13 2.035338 1_545
Co0 O7 2.046593 1_555
Co0 O6 2.083214 1_555
Co0 O3 2.118261 1_445
Co0 O2 2.135145 1_555
Co1 O9 1.892500 1_565
Co1 O14 1.896133 1_555
Co1 O10 1.907996 1_555
Co1 O0 1.926611 1_455
Co1 O12 1.956621 1_555
Co1 O4 1.961023 1_455
Co2 O14 1.845644 1_555
Co2 O9 1.879403 1_555
Co2 O5 1.949536 1_455
Co2 O11 1.957164 1_555
Co2 O4 2.112112 1_445
Co2 O12 2.175511 1_555
Ni0 O5 2.081208 1_555
Ni0 O9 2.095053 1_555
Ni0 O7 2.115077 1_555
Ni0 O0 2.116868 1_555
Ni0 O6 2.125296 1_555
Ni0 O1 2.181389 1_555
Ni1 O13 2.036192 1_554
Ni1 O15 2.062783 1_554
Ni1 O14 2.083715 1_555
Ni1 O11 2.128545 1_555
Ni1 O10 2.134322 1_555
Ni1 O8 2.169672 1_554
O0 Te2 1.979715 1_555
O1 Te0 2.022412 1_555
O1 Te1 2.022646 1_555
O2 Te1 2.016233 1_555
O2 Te0 2.025544 1_555
O3 Te1 1.992398 1_565
O3 Te0 1.999860 1_555
O4 Te2 1.970890 1_555
O5 Te2 1.966824 1_545
O6 Te0 1.905542 1_555
O7 Te1 1.903388 1_555
O8 Te0 2.021898 1_555
O8 Te1 2.025589 1_565
O10 Te2 2.005177 1_555
O11 Te2 1.984690 1_555
O12 Te2 1.975667 1_555
O13 Te0 1.897547 1_455
O15 Te1 1.898768 1_455
