# generated using pymatgen
data_YbAg(MoO4)2
_symmetry_space_group_name_H-M   'P 1'
_cell_length_a   6.82342493
_cell_length_b   6.82342493
_cell_length_c   6.82342493
_cell_angle_alpha   134.70947333
_cell_angle_beta   134.70947333
_cell_angle_gamma   65.98194901
_symmetry_Int_Tables_number   1
_chemical_formula_structural   YbAg(MoO4)2
_chemical_formula_sum   'Yb1 Ag1 Mo2 O8'
_cell_volume   158.00829014
_cell_formula_units_Z   1
loop_
 _symmetry_equiv_pos_site_id
 _symmetry_equiv_pos_as_xyz
  1  'x, y, z'
loop_
 _atom_site_type_symbol
 _atom_site_label
 _atom_site_symmetry_multiplicity
 _atom_site_fract_x
 _atom_site_fract_y
 _atom_site_fract_z
 _atom_site_occupancy
  Yb  Yb0  1  0.50000000  0.50000000  0.00000000  1
  Ag  Ag0  1  0.75000000  0.25000000  0.50000000  1
  Mo  Mo0  1  0.25000000  0.75000000  0.50000000  1
  Mo  Mo1  1  0.00000000  0.00000000  0.00000000  1
  O  O0  1  0.75949000  0.66987200  0.59672300  1
  O  O1  1  0.07314800  0.16276600  0.40327700  1
  O  O2  1  0.83723400  0.24051000  0.91038200  1
  O  O3  1  0.33012800  0.92685200  0.08961800  1
  O  O4  1  0.18694100  0.59536900  0.10611100  1
  O  O5  1  0.48925800  0.08083000  0.89388900  1
  O  O6  1  0.91917000  0.81305900  0.40842800  1
  O  O7  1  0.40463100  0.51074200  0.59157200  1
loop_
_geom_bond_atom_site_label_1
_geom_bond_atom_site_label_2
_geom_bond_distance
_geom_bond_site_symmetry_2
Ag0 O1 2.465401 1_655
Ag0 O2 2.465406 1_555
Ag0 O3 2.465406 1_545
Ag0 O0 2.465410 1_555
Ag0 O5 2.490768 1_554
Ag0 O7 2.490768 1_555
Ag0 O6 2.490768 1_545
Ag0 O4 2.490768 1_656
Mo0 O7 1.809522 1_555
Mo0 O6 1.809522 1_455
Mo0 O4 1.809522 1_555
Mo0 O5 1.809522 1_565
Mo1 O2 1.809236 1_454
Mo1 O3 1.809236 1_545
Mo1 O0 1.809236 1_444
Mo1 O1 1.809242 1_555
O0 Yb0 2.437971 1_555
O1 Yb0 2.437976 1_556
O2 Yb0 2.437977 1_556
O3 Yb0 2.437977 1_555
O4 Yb0 2.427430 1_555
O5 Yb0 2.427430 1_556
O6 Yb0 2.427430 1_555
O7 Yb0 2.427430 1_556
