# generated using pymatgen
data_Ca2Pr19(CoI12)3
_symmetry_space_group_name_H-M   'P 1'
_cell_length_a   10.02209200
_cell_length_b   10.05186445
_cell_length_c   26.45544496
_cell_angle_alpha   93.67464426
_cell_angle_beta   93.72426410
_cell_angle_gamma   106.86399135
_symmetry_Int_Tables_number   1
_chemical_formula_structural   Ca2Pr19(CoI12)3
_chemical_formula_sum   'Ca2 Pr19 Co3 I36'
_cell_volume   2535.52684725
_cell_formula_units_Z   1
loop_
 _symmetry_equiv_pos_site_id
 _symmetry_equiv_pos_as_xyz
  1  'x, y, z'
loop_
 _atom_site_type_symbol
 _atom_site_label
 _atom_site_symmetry_multiplicity
 _atom_site_fract_x
 _atom_site_fract_y
 _atom_site_fract_z
 _atom_site_occupancy
  Ca  Ca0  1  0.16659900  0.16661400  0.83336900  1
  Ca  Ca1  1  0.83340100  0.83338600  0.16663100  1
  Pr  Pr0  1  0.57327100  0.50198900  0.89880100  1
  Pr  Pr1  1  0.23907100  0.16836100  0.23281100  1
  Pr  Pr2  1  0.90735300  0.83676300  0.56680100  1
  Pr  Pr3  1  0.40993300  0.20545900  0.99076200  1
  Pr  Pr4  1  0.07673100  0.87423000  0.32385200  1
  Pr  Pr5  1  0.74438500  0.54135200  0.65817500  1
  Pr  Pr6  1  0.23543200  0.50550300  0.96749900  1
  Pr  Pr7  1  0.90021300  0.17119500  0.30045600  1
  Pr  Pr8  1  0.56747700  0.83957500  0.63460800  1
  Pr  Pr9  1  0.76092900  0.83163900  0.76718900  1
  Pr  Pr10  1  0.42672900  0.49801100  0.10119900  1
  Pr  Pr11  1  0.09264700  0.16323700  0.43319900  1
  Pr  Pr12  1  0.92326900  0.12577000  0.67614800  1
  Pr  Pr13  1  0.59006700  0.79454100  0.00923800  1
  Pr  Pr14  1  0.25561500  0.45864800  0.34182500  1
  Pr  Pr15  1  0.09978700  0.82880500  0.69954400  1
  Pr  Pr16  1  0.76456800  0.49449700  0.03250100  1
  Pr  Pr17  1  0.43252300  0.16042500  0.36539200  1
  Pr  Pr18  1  0.50000000  0.50000000  0.50000000  1
  Co  Co0  1  0.83306400  0.83302300  0.66659000  1
  Co  Co1  1  0.50000000  0.50000000  0.00000000  1
  Co  Co2  1  0.16693600  0.16697700  0.33341000  1
  I  I0  1  0.26890900  0.49605100  0.84554100  1
  I  I1  1  0.93540900  0.16273300  0.17888000  1
  I  I2  1  0.60076000  0.83081800  0.51092100  1
  I  I3  1  0.47046700  0.16530500  0.87166400  1
  I  I4  1  0.13723300  0.83193900  0.20505300  1
  I  I5  1  0.80541400  0.49572400  0.53745800  1
  I  I6  1  0.08925800  0.16794700  0.94717900  1
  I  I7  1  0.75539700  0.83411300  0.28053900  1
  I  I8  1  0.41857500  0.49808600  0.61379300  1
  I  I9  1  0.06459100  0.83726700  0.82112000  1
  I  I10  1  0.73109100  0.50394900  0.15445900  1
  I  I11  1  0.39924000  0.16918200  0.48907900  1
  I  I12  1  0.86276700  0.16806100  0.79494700  1
  I  I13  1  0.52953300  0.83469500  0.12833600  1
  I  I14  1  0.19458600  0.50427600  0.46254200  1
  I  I15  1  0.24460300  0.16588700  0.71946100  1
  I  I16  1  0.91074200  0.83205300  0.05282100  1
  I  I17  1  0.58142500  0.50191400  0.38620700  1
  I  I18  1  0.67937000  0.83310800  0.89413600  1
  I  I19  1  0.34632900  0.50023000  0.22766100  1
  I  I20  1  0.01287600  0.16728400  0.56065600  1
  I  I21  1  0.03687100  0.49119800  0.69103100  1
  I  I22  1  0.70309800  0.15764100  0.02456600  1
  I  I23  1  0.37018100  0.82432700  0.35820900  1
  I  I24  1  0.43931300  0.83095200  0.74226300  1
  I  I25  1  0.10617200  0.49780200  0.07559500  1
  I  I26  1  0.77263600  0.16517400  0.40928300  1
  I  I27  1  0.65367100  0.49977000  0.77233900  1
  I  I28  1  0.32063000  0.16689200  0.10586400  1
  I  I29  1  0.98712400  0.83271600  0.43934400  1
  I  I30  1  0.29690200  0.84235900  0.97543400  1
  I  I31  1  0.96312900  0.50880200  0.30896900  1
  I  I32  1  0.62981900  0.17567300  0.64179100  1
  I  I33  1  0.89382800  0.50219800  0.92440500  1
  I  I34  1  0.56068700  0.16904800  0.25773700  1
  I  I35  1  0.22736400  0.83482600  0.59071700  1
loop_
_geom_bond_atom_site_label_1
_geom_bond_atom_site_label_2
_geom_bond_distance
_geom_bond_site_symmetry_2
Ca0 I3 3.150418 1_555
Ca0 I12 3.151372 1_455
Ca0 I9 3.156848 1_545
Ca0 I6 3.157612 1_555
Ca0 I0 3.157718 1_555
Ca0 I15 3.162095 1_555
Ca1 I13 3.150418 1_555
Ca1 I4 3.151372 1_655
Ca1 I1 3.156848 1_565
Ca1 I16 3.157612 1_555
Ca1 I10 3.157718 1_555
Ca1 I7 3.162095 1_555
Co0 Pr8 2.760679 1_555
Co0 Pr15 2.770412 1_655
Co0 Pr2 2.788721 1_555
Co0 Pr5 2.795340 1_555
Co0 Pr9 2.802625 1_555
Co0 Pr12 2.805684 1_565
Co1 Pr16 2.750994 1_555
Co1 Pr6 2.750994 1_554
Co1 Pr0 2.821547 1_554
Co1 Pr10 2.821547 1_555
Co1 Pr13 2.822799 1_555
Co1 Pr3 2.822799 1_554
Co2 Pr17 2.760679 1_555
Co2 Pr7 2.770412 1_455
Co2 Pr11 2.788721 1_555
Co2 Pr14 2.795340 1_555
Co2 Pr1 2.802625 1_555
Co2 Pr4 2.805684 1_545
I0 Pr0 3.258638 1_555
I0 Pr6 3.263652 1_555
I1 Pr7 3.256728 1_555
I1 Pr1 3.259815 1_655
I2 Pr18 3.170444 1_555
I2 Pr2 3.304930 1_555
I2 Pr8 3.308804 1_555
I3 Pr0 3.255737 1_555
I3 Pr3 3.268920 1_555
I4 Pr1 3.255522 1_565
I4 Pr4 3.263732 1_555
I5 Pr18 3.168697 1_555
I5 Pr2 3.304833 1_555
I5 Pr5 3.318501 1_555
I6 Pr3 3.249633 1_555
I6 Pr6 3.275344 1_555
I7 Pr4 3.248807 1_655
I7 Pr7 3.268525 1_565
I8 Pr18 3.169628 1_555
I8 Pr5 3.292791 1_555
I8 Pr8 3.315395 1_555
I9 Pr15 3.256728 1_555
I9 Pr9 3.259815 1_455
I10 Pr10 3.258638 1_555
I10 Pr16 3.263652 1_555
I11 Pr18 3.170444 1_555
I11 Pr11 3.304930 1_555
I11 Pr17 3.308804 1_555
I12 Pr9 3.255522 1_545
I12 Pr12 3.263732 1_555
I13 Pr10 3.255737 1_555
I13 Pr13 3.268920 1_555
I14 Pr18 3.168697 1_555
I14 Pr11 3.304833 1_555
I14 Pr14 3.318501 1_555
I15 Pr12 3.248807 1_455
I15 Pr15 3.268525 1_545
I16 Pr13 3.249633 1_555
I16 Pr16 3.275344 1_555
I17 Pr18 3.169628 1_555
I17 Pr14 3.292791 1_555
I17 Pr17 3.315395 1_555
I18 Pr0 3.200029 1_555
I18 Pr13 3.244665 1_556
I18 Pr9 3.507810 1_555
I19 Pr1 3.209213 1_555
I19 Pr14 3.228199 1_555
I19 Pr10 3.491983 1_555
I20 Pr2 3.199354 1_445
I20 Pr12 3.258605 1_455
I20 Pr11 3.515996 1_555
I21 Pr5 3.191385 1_455
I21 Pr15 3.256801 1_555
I21 Pr12 3.503404 1_455
I22 Pr3 3.193201 1_554
I22 Pr16 3.251245 1_555
I22 Pr13 3.481479 1_545
I23 Pr4 3.208469 1_555
I23 Pr17 3.243105 1_565
I23 Pr14 3.507107 1_555
I24 Pr8 3.195484 1_555
I24 Pr9 3.245722 1_555
I24 Pr15 3.508727 1_555
I25 Pr6 3.211496 1_554
I25 Pr10 3.239315 1_555
I25 Pr16 3.527593 1_455
I26 Pr7 3.222287 1_555
I26 Pr11 3.234331 1_655
I26 Pr17 3.514786 1_555
I27 Pr9 3.209213 1_555
I27 Pr5 3.228199 1_555
I27 Pr0 3.491983 1_555
I28 Pr10 3.200029 1_555
I28 Pr3 3.244665 1_554
I28 Pr1 3.507810 1_555
I29 Pr11 3.199354 1_665
I29 Pr4 3.258605 1_655
I29 Pr2 3.515996 1_555
I30 Pr13 3.193201 1_556
I30 Pr6 3.251245 1_555
I30 Pr3 3.481479 1_565
I31 Pr14 3.191385 1_655
I31 Pr7 3.256801 1_555
I31 Pr4 3.503404 1_655
I32 Pr12 3.208469 1_555
I32 Pr8 3.243105 1_545
I32 Pr5 3.507107 1_555
I33 Pr16 3.211496 1_556
I33 Pr0 3.239315 1_555
I33 Pr6 3.527593 1_655
I34 Pr17 3.195484 1_555
I34 Pr1 3.245722 1_555
I34 Pr7 3.508727 1_555
I35 Pr15 3.222287 1_555
I35 Pr2 3.234331 1_455
I35 Pr8 3.514786 1_555
