# generated using pymatgen
data_TlCo(NCl)6
_symmetry_space_group_name_H-M   'P 1'
_cell_length_a   10.93543600
_cell_length_b   10.93543600
_cell_length_c   10.93543600
_cell_angle_alpha   90.00000000
_cell_angle_beta   90.00000000
_cell_angle_gamma   90.00000000
_symmetry_Int_Tables_number   1
_chemical_formula_structural   TlCo(NCl)6
_chemical_formula_sum   'Tl4 Co4 N24 Cl24'
_cell_volume   1307.70055970
_cell_formula_units_Z   4
loop_
 _symmetry_equiv_pos_site_id
 _symmetry_equiv_pos_as_xyz
  1  'x, y, z'
loop_
 _atom_site_type_symbol
 _atom_site_label
 _atom_site_symmetry_multiplicity
 _atom_site_fract_x
 _atom_site_fract_y
 _atom_site_fract_z
 _atom_site_occupancy
  Tl  Tl0  1  0.50000000  0.50000000  0.00000000  1
  Tl  Tl1  1  0.50000000  0.00000000  0.50000000  1
  Tl  Tl2  1  0.00000000  0.50000000  0.50000000  1
  Tl  Tl3  1  0.00000000  0.00000000  0.00000000  1
  Co  Co0  1  0.00000000  0.00000000  0.50000000  1
  Co  Co1  1  0.00000000  0.50000000  0.00000000  1
  Co  Co2  1  0.50000000  0.00000000  0.00000000  1
  Co  Co3  1  0.50000000  0.50000000  0.50000000  1
  N  N0  1  0.43197800  0.58450400  0.63922900  1
  N  N1  1  0.56802200  0.08450400  0.86077100  1
  N  N2  1  0.06802200  0.41549600  0.13922900  1
  N  N3  1  0.93197800  0.91549600  0.36077100  1
  N  N4  1  0.63922900  0.43197800  0.58450400  1
  N  N5  1  0.86077100  0.56802200  0.08450400  1
  N  N6  1  0.13922900  0.06802200  0.41549600  1
  N  N7  1  0.36077100  0.93197800  0.91549600  1
  N  N8  1  0.58450400  0.63922900  0.43197800  1
  N  N9  1  0.08450400  0.86077100  0.56802200  1
  N  N10  1  0.41549600  0.13922900  0.06802200  1
  N  N11  1  0.91549600  0.36077100  0.93197800  1
  N  N12  1  0.56802200  0.41549600  0.36077100  1
  N  N13  1  0.43197800  0.91549600  0.13922900  1
  N  N14  1  0.93197800  0.58450400  0.86077100  1
  N  N15  1  0.06802200  0.08450400  0.63922900  1
  N  N16  1  0.36077100  0.56802200  0.41549600  1
  N  N17  1  0.13922900  0.43197800  0.91549600  1
  N  N18  1  0.86077100  0.93197800  0.58450400  1
  N  N19  1  0.63922900  0.06802200  0.08450400  1
  N  N20  1  0.41549600  0.36077100  0.56802200  1
  N  N21  1  0.91549600  0.13922900  0.43197800  1
  N  N22  1  0.58450400  0.86077100  0.93197800  1
  N  N23  1  0.08450400  0.63922900  0.06802200  1
  Cl  Cl0  1  0.57750600  0.68176600  0.28644500  1
  Cl  Cl1  1  0.42249400  0.18176600  0.21355500  1
  Cl  Cl2  1  0.92249400  0.31823400  0.78644500  1
  Cl  Cl3  1  0.07750600  0.81823400  0.71355500  1
  Cl  Cl4  1  0.28644500  0.57750600  0.68176600  1
  Cl  Cl5  1  0.21355500  0.42249400  0.18176600  1
  Cl  Cl6  1  0.78644500  0.92249400  0.31823400  1
  Cl  Cl7  1  0.71355500  0.07750600  0.81823400  1
  Cl  Cl8  1  0.68176600  0.28644500  0.57750600  1
  Cl  Cl9  1  0.18176600  0.21355500  0.42249400  1
  Cl  Cl10  1  0.31823400  0.78644500  0.92249400  1
  Cl  Cl11  1  0.81823400  0.71355500  0.07750600  1
  Cl  Cl12  1  0.42249400  0.31823400  0.71355500  1
  Cl  Cl13  1  0.57750600  0.81823400  0.78644500  1
  Cl  Cl14  1  0.07750600  0.68176600  0.21355500  1
  Cl  Cl15  1  0.92249400  0.18176600  0.28644500  1
  Cl  Cl16  1  0.71355500  0.42249400  0.31823400  1
  Cl  Cl17  1  0.78644500  0.57750600  0.81823400  1
  Cl  Cl18  1  0.21355500  0.07750600  0.68176600  1
  Cl  Cl19  1  0.28644500  0.92249400  0.18176600  1
  Cl  Cl20  1  0.31823400  0.71355500  0.42249400  1
  Cl  Cl21  1  0.81823400  0.78644500  0.57750600  1
  Cl  Cl22  1  0.68176600  0.21355500  0.07750600  1
  Cl  Cl23  1  0.18176600  0.28644500  0.92249400  1
loop_
_geom_bond_atom_site_label_1
_geom_bond_atom_site_label_2
_geom_bond_distance
_geom_bond_site_symmetry_2
Co0 N21 1.930116 1_455
Co0 N3 1.930116 1_445
Co0 N6 1.930116 1_555
Co0 N15 1.930116 1_555
Co0 N18 1.930116 1_445
Co0 N9 1.930116 1_545
Co1 N2 1.930116 1_555
Co1 N11 1.930116 1_454
Co1 N17 1.930116 1_554
Co1 N23 1.930116 1_555
Co1 N5 1.930116 1_455
Co1 N14 1.930116 1_454
Co2 N10 1.930116 1_555
Co2 N7 1.930116 1_544
Co2 N13 1.930116 1_545
Co2 N19 1.930116 1_555
Co2 N1 1.930116 1_554
Co2 N22 1.930116 1_544
Co3 N16 1.930116 1_555
Co3 N20 1.930116 1_555
Co3 N12 1.930116 1_555
Co3 N8 1.930116 1_555
Co3 N0 1.930116 1_555
Co3 N4 1.930116 1_555
Cl0 N8 1.659818 1_555
Cl1 N10 1.659818 1_555
Cl2 N11 1.659818 1_555
Cl3 N9 1.659818 1_555
Cl4 N0 1.659818 1_555
Cl5 N2 1.659818 1_555
Cl6 N3 1.659818 1_555
Cl7 N1 1.659818 1_555
Cl8 N4 1.659818 1_555
Cl9 N6 1.659818 1_555
Cl10 N7 1.659818 1_555
Cl11 N5 1.659818 1_555
Cl12 N20 1.659818 1_555
Cl13 N22 1.659818 1_555
Cl14 N23 1.659818 1_555
Cl15 N21 1.659818 1_555
Cl16 N12 1.659818 1_555
Cl17 N14 1.659818 1_555
Cl18 N15 1.659818 1_555
Cl19 N13 1.659818 1_555
Cl20 N16 1.659818 1_555
Cl21 N18 1.659818 1_555
Cl22 N19 1.659818 1_555
Cl23 N17 1.659818 1_555
