# generated using pymatgen
data_Tm2TeS2
_symmetry_space_group_name_H-M   'P 1'
_cell_length_a   7.42115422
_cell_length_b   7.42115422
_cell_length_c   7.42115422
_cell_angle_alpha   147.77128249
_cell_angle_beta   138.38900400
_cell_angle_gamma   53.58734625
_symmetry_Int_Tables_number   1
_chemical_formula_structural   Tm2TeS2
_chemical_formula_sum   'Tm2 Te1 S2'
_cell_volume   143.86897942
_cell_formula_units_Z   1
loop_
 _symmetry_equiv_pos_site_id
 _symmetry_equiv_pos_as_xyz
  1  'x, y, z'
loop_
 _atom_site_type_symbol
 _atom_site_label
 _atom_site_symmetry_multiplicity
 _atom_site_fract_x
 _atom_site_fract_y
 _atom_site_fract_z
 _atom_site_occupancy
  Tm  Tm0  1  0.83260420  0.33260420  0.50000000  1
  Tm  Tm1  1  0.16739580  0.66739580  0.50000000  1
  Te  Te0  1  -0.00000000  -0.00000000  -0.00000000  1
  S  S0  1  0.70244505  0.70244505  -0.00000000  1
  S  S1  1  0.29755495  0.29755495  0.00000000  1
loop_
_geom_bond_atom_site_label_1
_geom_bond_atom_site_label_2
_geom_bond_distance
_geom_bond_site_symmetry_2
Te0 Tm1 3.026762 1_544
Te0 Tm1 3.026762 1_555
Te0 Tm0 3.026762 1_455
Te0 Tm0 3.026762 1_444
S0 Tm1 2.676558 1_655
S0 Tm1 2.676558 1_554
S0 Tm0 2.686340 1_565
S0 Tm0 2.686340 1_554
S1 Tm0 2.676558 1_454
S1 Tm0 2.676558 1_555
S1 Tm1 2.686340 1_544
S1 Tm1 2.686340 1_555
