# generated using pymatgen
data_UH25C12NO8
_symmetry_space_group_name_H-M   'P 1'
_cell_length_a   11.05051798
_cell_length_b   12.91577941
_cell_length_c   13.81067338
_cell_angle_alpha   90.00000000
_cell_angle_beta   90.00000000
_cell_angle_gamma   90.00000000
_symmetry_Int_Tables_number   1
_chemical_formula_structural   UH25C12NO8
_chemical_formula_sum   'U4 H100 C48 N4 O32'
_cell_volume   1971.14289522
_cell_formula_units_Z   4
loop_
 _symmetry_equiv_pos_site_id
 _symmetry_equiv_pos_as_xyz
  1  'x, y, z'
loop_
 _atom_site_type_symbol
 _atom_site_label
 _atom_site_symmetry_multiplicity
 _atom_site_fract_x
 _atom_site_fract_y
 _atom_site_fract_z
 _atom_site_occupancy
  U  U0  1  0.89472162  0.00107817  0.29814374  1
  U  U1  1  0.10527838  0.50107817  0.70185626  1
  U  U2  1  0.39472162  0.50107817  0.20185626  1
  U  U3  1  0.60527838  0.00107817  0.79814374  1
  H  H0  1  0.31403028  0.12059824  0.27870776  1
  H  H1  1  0.68596972  0.62059824  0.72129224  1
  H  H2  1  0.81403028  0.62059824  0.22129224  1
  H  H3  1  0.18596972  0.12059824  0.77870776  1
  H  H4  1  0.27062340  0.12616411  0.15388138  1
  H  H5  1  0.72937660  0.62616411  0.84611862  1
  H  H6  1  0.77062340  0.62616411  0.34611862  1
  H  H7  1  0.22937660  0.12616411  0.65388138  1
  H  H8  1  0.23387986  0.22971985  0.23149706  1
  H  H9  1  0.76612014  0.72971985  0.76850294  1
  H  H10  1  0.73387986  0.72971985  0.26850294  1
  H  H11  1  0.26612014  0.22971985  0.73149706  1
  H  H12  1  0.80267088  0.72205872  0.52489099  1
  H  H13  1  0.19732912  0.22205872  0.47510901  1
  H  H14  1  0.30267088  0.22205872  0.97510901  1
  H  H15  1  0.69732912  0.72205872  0.02489099  1
  H  H16  1  0.94460218  0.76592875  0.57211132  1
  H  H17  1  0.05539782  0.26592875  0.42788868  1
  H  H18  1  0.44460218  0.26592875  0.92788868  1
  H  H19  1  0.55539782  0.76592875  0.07211132  1
  H  H20  1  0.80655218  0.83061267  0.60273083  1
  H  H21  1  0.19344782  0.33061267  0.39726917  1
  H  H22  1  0.30655218  0.33061267  0.89726917  1
  H  H23  1  0.69344782  0.83061267  0.10273083  1
  H  H24  1  0.50203973  0.05941400  0.13960672  1
  H  H25  1  0.49796027  0.55941400  0.86039328  1
  H  H26  1  0.00203973  0.55941400  0.36039328  1
  H  H27  1  0.99796027  0.05941400  0.63960672  1
  H  H28  1  0.55832068  0.18685338  0.15897550  1
  H  H29  1  0.44167932  0.68685338  0.84102450  1
  H  H30  1  0.05832068  0.68685338  0.34102450  1
  H  H31  1  0.94167932  0.18685338  0.65897550  1
  H  H32  1  0.60094972  0.11829859  0.05266827  1
  H  H33  1  0.39905028  0.61829859  0.94733173  1
  H  H34  1  0.10094972  0.61829859  0.44733173  1
  H  H35  1  0.89905028  0.11829859  0.55266827  1
  H  H36  1  0.72135151  0.35007544  0.09817513  1
  H  H37  1  0.27864849  0.85007544  0.90182487  1
  H  H38  1  0.22135151  0.85007544  0.40182487  1
  H  H39  1  0.77864849  0.35007544  0.59817513  1
  H  H40  1  0.73935864  0.27755132  0.99008796  1
  H  H41  1  0.26064136  0.77755132  0.00991204  1
  H  H42  1  0.23935864  0.77755132  0.50991204  1
  H  H43  1  0.76064136  0.27755132  0.49008796  1
  H  H44  1  0.70260137  0.46219397  0.95967490  1
  H  H45  1  0.29739863  0.96219397  0.04032510  1
  H  H46  1  0.20260137  0.96219397  0.54032510  1
  H  H47  1  0.79739863  0.46219397  0.45967490  1
  H  H48  1  0.83502478  0.49976508  0.02239579  1
  H  H49  1  0.16497522  0.99976508  0.97760421  1
  H  H50  1  0.33502478  0.99976508  0.47760421  1
  H  H51  1  0.66497522  0.49976508  0.52239579  1
  H  H52  1  0.84793860  0.42853098  0.91250862  1
  H  H53  1  0.15206140  0.92853098  0.08749138  1
  H  H54  1  0.34793860  0.92853098  0.58749138  1
  H  H55  1  0.65206140  0.42853098  0.41250862  1
  H  H56  1  0.01515257  0.33842704  0.96038418  1
  H  H57  1  0.98484743  0.83842704  0.03961582  1
  H  H58  1  0.51515257  0.83842704  0.53961582  1
  H  H59  1  0.48484743  0.33842704  0.46038418  1
  H  H60  1  0.06454041  0.23474539  0.03488040  1
  H  H61  1  0.93545959  0.73474539  0.96511960  1
  H  H62  1  0.56454041  0.73474539  0.46511960  1
  H  H63  1  0.43545959  0.23474539  0.53488040  1
  H  H64  1  0.01271642  0.16681319  0.87592296  1
  H  H65  1  0.98728358  0.66681319  0.12407704  1
  H  H66  1  0.51271642  0.66681319  0.62407704  1
  H  H67  1  0.48728358  0.16681319  0.37592296  1
  H  H68  1  0.90035453  0.12073517  0.95877557  1
  H  H69  1  0.09964547  0.62073517  0.04122443  1
  H  H70  1  0.40035453  0.62073517  0.54122443  1
  H  H71  1  0.59964547  0.12073517  0.45877557  1
  H  H72  1  0.86644397  0.22232391  0.87656192  1
  H  H73  1  0.13355603  0.72232391  0.12343808  1
  H  H74  1  0.36644397  0.72232391  0.62343808  1
  H  H75  1  0.63355603  0.22232391  0.37656192  1
  H  H76  1  0.04452420  0.32556062  0.16325301  1
  H  H77  1  0.95547580  0.82556062  0.83674699  1
  H  H78  1  0.54452420  0.82556062  0.33674699  1
  H  H79  1  0.45547580  0.32556062  0.66325301  1
  H  H80  1  0.97028104  0.43608893  0.11842542  1
  H  H81  1  0.02971896  0.93608893  0.88157458  1
  H  H82  1  0.47028104  0.93608893  0.38157458  1
  H  H83  1  0.52971896  0.43608893  0.61842542  1
  H  H84  1  0.93660069  0.40151616  0.29729698  1
  H  H85  1  0.06339931  0.90151616  0.70270302  1
  H  H86  1  0.43660069  0.90151616  0.20270302  1
  H  H87  1  0.56339931  0.40151616  0.79729698  1
  H  H88  1  0.79663325  0.40787455  0.23294575  1
  H  H89  1  0.20336675  0.90787455  0.76705425  1
  H  H90  1  0.29663325  0.90787455  0.26705425  1
  H  H91  1  0.70336675  0.40787455  0.73294575  1
  H  H92  1  0.85838937  0.28561822  0.26764096  1
  H  H93  1  0.14161063  0.78561822  0.73235904  1
  H  H94  1  0.35838937  0.78561822  0.23235904  1
  H  H95  1  0.64161063  0.28561822  0.76764096  1
  H  H96  1  0.87169075  0.22342812  0.10751560  1
  H  H97  1  0.12830925  0.72342812  0.89248440  1
  H  H98  1  0.37169075  0.72342812  0.39248440  1
  H  H99  1  0.62830925  0.22342812  0.60751560  1
  C  C0  1  0.78015242  0.33780992  0.03540245  1
  C  C1  1  0.21984758  0.83780992  0.96459755  1
  C  C2  1  0.28015242  0.83780992  0.46459755  1
  C  C3  1  0.71984758  0.33780992  0.53540245  1
  C  C4  1  0.79452292  0.43766028  0.97897222  1
  C  C5  1  0.20547708  0.93766028  0.02102778  1
  C  C6  1  0.29452292  0.93766028  0.52102778  1
  C  C7  1  0.70547708  0.43766028  0.47897222  1
  C  C8  1  0.98658952  0.26646226  0.99580357  1
  C  C9  1  0.01341048  0.76646226  0.00419643  1
  C  C10  1  0.48658952  0.76646226  0.50419643  1
  C  C11  1  0.51341048  0.26646226  0.49580357  1
  C  C12  1  0.93737392  0.18968970  0.92299042  1
  C  C13  1  0.06262608  0.68968970  0.07700958  1
  C  C14  1  0.43737392  0.68968970  0.57700958  1
  C  C15  1  0.56262608  0.18968970  0.42299042  1
  C  C16  1  0.95522967  0.35930862  0.14994492  1
  C  C17  1  0.04477033  0.85930862  0.85005508  1
  C  C18  1  0.45522967  0.85930862  0.35005508  1
  C  C19  1  0.54477033  0.35930862  0.64994492  1
  C  C20  1  0.88078527  0.36378681  0.24194365  1
  C  C21  1  0.11921473  0.86378681  0.75805635  1
  C  C22  1  0.38078527  0.86378681  0.25805635  1
  C  C23  1  0.61921473  0.36378681  0.74194365  1
  C  C24  1  0.12478366  0.09332156  0.25106003  1
  C  C25  1  0.87521634  0.59332156  0.74893997  1
  C  C26  1  0.62478366  0.59332156  0.24893997  1
  C  C27  1  0.37521634  0.09332156  0.75106003  1
  C  C28  1  0.86930517  0.86198135  0.45911441  1
  C  C29  1  0.13069483  0.36198135  0.54088559  1
  C  C30  1  0.36930517  0.36198135  0.04088559  1
  C  C31  1  0.63069483  0.86198135  0.95911441  1
  C  C32  1  0.68873032  0.06833302  0.18366361  1
  C  C33  1  0.31126968  0.56833302  0.81633639  1
  C  C34  1  0.18873032  0.56833302  0.31633639  1
  C  C35  1  0.81126968  0.06833302  0.68366361  1
  C  C36  1  0.24329428  0.14516428  0.22827583  1
  C  C37  1  0.75670572  0.64516428  0.77172417  1
  C  C38  1  0.74329428  0.64516428  0.27172417  1
  C  C39  1  0.25670572  0.14516428  0.72827583  1
  C  C40  1  0.85611783  0.79051288  0.54469361  1
  C  C41  1  0.14388217  0.29051288  0.45530639  1
  C  C42  1  0.35611783  0.29051288  0.95530639  1
  C  C43  1  0.64388217  0.79051288  0.04469361  1
  C  C44  1  0.58076922  0.10979192  0.13009688  1
  C  C45  1  0.41923078  0.60979192  0.86990312  1
  C  C46  1  0.08076922  0.60979192  0.36990312  1
  C  C47  1  0.91923078  0.10979192  0.63009688  1
  N  N0  1  0.89665918  0.29277791  0.07376817  1
  N  N1  1  0.10334082  0.79277791  0.92623183  1
  N  N2  1  0.39665918  0.79277791  0.42623183  1
  N  N3  1  0.60334082  0.29277791  0.57376817  1
  O  O0  1  0.86482772  0.11061023  0.37758154  1
  O  O1  1  0.13517228  0.61061023  0.62241846  1
  O  O2  1  0.36482772  0.61061023  0.12241846  1
  O  O3  1  0.63517228  0.11061023  0.87758154  1
  O  O4  1  0.92441528  0.89239805  0.21841681  1
  O  O5  1  0.07558472  0.39239805  0.78158319  1
  O  O6  1  0.42441528  0.39239805  0.28158319  1
  O  O7  1  0.57558472  0.89239805  0.71841681  1
  O  O8  1  0.11608364  0.02824973  0.32056136  1
  O  O9  1  0.88391636  0.52824973  0.67943864  1
  O  O10  1  0.61608364  0.52824973  0.17943864  1
  O  O11  1  0.38391636  0.02824973  0.82056136  1
  O  O12  1  0.03084467  0.11435449  0.20031584  1
  O  O13  1  0.96915533  0.61435449  0.79968416  1
  O  O14  1  0.53084467  0.61435449  0.29968416  1
  O  O15  1  0.46915533  0.11435449  0.70031584  1
  O  O16  1  0.97273009  0.90065217  0.43765392  1
  O  O17  1  0.02726991  0.40065217  0.56234608  1
  O  O18  1  0.47273009  0.40065217  0.06234608  1
  O  O19  1  0.52726991  0.90065217  0.93765392  1
  O  O20  1  0.77709068  0.88585087  0.40732632  1
  O  O21  1  0.22290932  0.38585087  0.59267368  1
  O  O22  1  0.27709068  0.38585087  0.09267368  1
  O  O23  1  0.72290932  0.88585087  0.90732632  1
  O  O24  1  0.79478634  0.10486966  0.16594350  1
  O  O25  1  0.20521366  0.60486966  0.83405650  1
  O  O26  1  0.29478634  0.60486966  0.33405650  1
  O  O27  1  0.70521366  0.10486966  0.66594350  1
  O  O28  1  0.67764798  0.99840973  0.24843024  1
  O  O29  1  0.32235202  0.49840973  0.75156976  1
  O  O30  1  0.17764798  0.49840973  0.25156976  1
  O  O31  1  0.82235202  0.99840973  0.74843024  1
loop_
_geom_bond_atom_site_label_1
_geom_bond_atom_site_label_2
_geom_bond_distance
_geom_bond_site_symmetry_2
H96 N0 1.046730 1_555
H97 N1 1.046730 1_555
H98 N2 1.046730 1_555
H99 N3 1.046730 1_555
C0 H36 1.094936 1_555
C0 H40 1.095719 1_554
C0 N0 1.508836 1_555
C0 C4 1.515181 1_554
C1 H37 1.094936 1_555
C1 H41 1.095719 1_556
C1 N1 1.508836 1_555
C1 C5 1.515181 1_556
C2 H38 1.094936 1_555
C2 H42 1.095719 1_555
C2 N2 1.508836 1_555
C2 C6 1.515181 1_555
C3 H39 1.094936 1_555
C3 H43 1.095719 1_555
C3 N3 1.508836 1_555
C3 C7 1.515181 1_555
C4 H44 1.096925 1_555
C4 H48 1.096988 1_556
C4 H52 1.097669 1_555
C5 H45 1.096925 1_555
C5 H49 1.096988 1_554
C5 H53 1.097669 1_555
C6 H46 1.096925 1_555
C6 H50 1.096988 1_555
C6 H54 1.097669 1_555
C7 H47 1.096925 1_555
C7 H51 1.096988 1_555
C7 H55 1.097669 1_555
C8 H60 1.095933 1_656
C8 H56 1.096743 1_655
C8 N0 1.504158 1_556
C9 H61 1.095933 1_454
C9 H57 1.096743 1_455
C9 N1 1.504158 1_554
C10 H62 1.095933 1_555
C10 H58 1.096743 1_555
C10 N2 1.504158 1_555
C10 C14 1.513353 1_555
C11 H63 1.095933 1_555
C11 H59 1.096743 1_555
C11 N3 1.504158 1_555
C11 C15 1.513353 1_555
C12 H64 1.096824 1_655
C12 H72 1.096891 1_555
C12 H68 1.097620 1_555
C12 C8 1.513353 1_555
C13 H65 1.096824 1_455
C13 H73 1.096891 1_555
C13 H69 1.097620 1_555
C13 C9 1.513353 1_555
C14 H66 1.096824 1_555
C14 H74 1.096891 1_555
C14 H70 1.097620 1_555
C15 H67 1.096824 1_555
C15 H75 1.096891 1_555
C15 H71 1.097620 1_555
C16 H76 1.094281 1_655
C16 H80 1.095710 1_555
C16 N0 1.504698 1_555
C16 C20 1.514738 1_555
C17 H77 1.094281 1_455
C17 H81 1.095710 1_555
C17 N1 1.504698 1_555
C17 C21 1.514738 1_555
C18 H78 1.094281 1_555
C18 H82 1.095710 1_555
C18 N2 1.504698 1_555
C18 C22 1.514738 1_555
C19 H79 1.094281 1_555
C19 H83 1.095710 1_555
C19 N3 1.504698 1_555
C19 C23 1.514738 1_555
C20 H84 1.096496 1_555
C20 H88 1.097473 1_555
C20 H92 1.098413 1_555
C21 H85 1.096496 1_555
C21 H89 1.097473 1_555
C21 H93 1.098413 1_555
C22 H86 1.096496 1_555
C22 H90 1.097473 1_555
C22 H94 1.098413 1_555
C23 H87 1.096496 1_555
C23 H91 1.097473 1_555
C23 H95 1.098413 1_555
C24 O8 1.279428 1_555
C24 O12 1.281613 1_555
C25 O9 1.279428 1_555
C25 O13 1.281613 1_555
C26 O10 1.279428 1_555
C26 O14 1.281613 1_555
C27 O11 1.279428 1_555
C27 O15 1.281613 1_555
C28 O16 1.282001 1_555
C28 O20 1.282573 1_555
C29 O17 1.282001 1_555
C29 O21 1.282573 1_555
C30 O18 1.282001 1_555
C30 O22 1.282573 1_555
C31 O19 1.282001 1_555
C31 O23 1.282573 1_555
C32 O28 1.276985 1_545
C32 O24 1.286897 1_555
C33 O29 1.276985 1_555
C33 O25 1.286897 1_555
C34 O30 1.276985 1_555
C34 O26 1.286897 1_555
C35 O31 1.276985 1_545
C35 O27 1.286897 1_555
C36 H0 1.093979 1_555
C36 H8 1.097947 1_555
C36 H4 1.098660 1_555
C37 H1 1.093979 1_555
C37 H9 1.097947 1_555
C37 H5 1.098660 1_555
C38 H2 1.093979 1_555
C38 H10 1.097947 1_555
C38 H6 1.098660 1_555
C39 H3 1.093979 1_555
C39 H11 1.097947 1_555
C39 H7 1.098660 1_555
C40 H16 1.095578 1_555
C40 H12 1.097873 1_555
C40 H20 1.100318 1_555
C41 H17 1.095578 1_555
C41 H13 1.097873 1_555
C41 H21 1.100318 1_555
C42 H18 1.095578 1_555
C42 H14 1.097873 1_555
C42 H22 1.100318 1_555
C43 H19 1.095578 1_555
C43 H15 1.097873 1_555
C43 H23 1.100318 1_555
C44 H24 1.094314 1_555
C44 H32 1.097859 1_555
C44 H28 1.100566 1_555
C45 H25 1.094314 1_555
C45 H33 1.097859 1_555
C45 H29 1.100566 1_555
C46 H26 1.094314 1_555
C46 H34 1.097859 1_555
C46 H30 1.100566 1_555
C47 H27 1.094314 1_555
C47 H35 1.097859 1_555
C47 H31 1.100566 1_555
O0 U0 1.820463 1_555
O1 U1 1.820463 1_555
O2 U2 1.820463 1_555
O3 U3 1.820463 1_555
O4 U0 1.813944 1_565
O5 U1 1.813944 1_555
O6 U2 1.813944 1_555
O7 U3 1.813944 1_565
