# generated using pymatgen
data_H4PbI3N
_symmetry_space_group_name_H-M   'P 1'
_cell_length_a   4.82979500
_cell_length_b   10.55387700
_cell_length_c   17.42170600
_cell_angle_alpha   90.00000000
_cell_angle_beta   90.00000000
_cell_angle_gamma   90.00000000
_symmetry_Int_Tables_number   1
_chemical_formula_structural   H4PbI3N
_chemical_formula_sum   'H16 Pb4 I12 N4'
_cell_volume   888.03770645
_cell_formula_units_Z   4
loop_
 _symmetry_equiv_pos_site_id
 _symmetry_equiv_pos_as_xyz
  1  'x, y, z'
loop_
 _atom_site_type_symbol
 _atom_site_label
 _atom_site_symmetry_multiplicity
 _atom_site_fract_x
 _atom_site_fract_y
 _atom_site_fract_z
 _atom_site_occupancy
  H  H0  1  0.75000000  0.96456400  0.27265400  1
  H  H1  1  0.75000000  0.46456400  0.22734600  1
  H  H2  1  0.25000000  0.03543600  0.72734600  1
  H  H3  1  0.25000000  0.53543600  0.77265400  1
  H  H4  1  0.75000000  0.97772400  0.36959200  1
  H  H5  1  0.75000000  0.47772400  0.13040800  1
  H  H6  1  0.25000000  0.02227600  0.63040800  1
  H  H7  1  0.25000000  0.52227600  0.86959200  1
  H  H8  1  0.92221600  0.85669900  0.32641000  1
  H  H9  1  0.57778400  0.35669900  0.17359000  1
  H  H10  1  0.42221600  0.14330100  0.67359000  1
  H  H11  1  0.07778400  0.64330100  0.82641000  1
  H  H12  1  0.07778400  0.14330100  0.67359000  1
  H  H13  1  0.42221600  0.64330100  0.82641000  1
  H  H14  1  0.57778400  0.85669900  0.32641000  1
  H  H15  1  0.92221600  0.35669900  0.17359000  1
  Pb  Pb0  1  0.75000000  0.66862700  0.55872600  1
  Pb  Pb1  1  0.75000000  0.16862700  0.94127400  1
  Pb  Pb2  1  0.25000000  0.33137300  0.44127400  1
  Pb  Pb3  1  0.25000000  0.83137300  0.05872600  1
  I  I0  1  0.25000000  0.47722200  0.61623100  1
  I  I1  1  0.25000000  0.97722200  0.88376900  1
  I  I2  1  0.75000000  0.52277800  0.38376900  1
  I  I3  1  0.75000000  0.02277800  0.11623100  1
  I  I4  1  0.75000000  0.80777900  0.71471500  1
  I  I5  1  0.75000000  0.30777900  0.78528500  1
  I  I6  1  0.25000000  0.19222100  0.28528500  1
  I  I7  1  0.25000000  0.69222100  0.21471500  1
  I  I8  1  0.25000000  0.84214400  0.48791400  1
  I  I9  1  0.25000000  0.34214400  0.01208600  1
  I  I10  1  0.75000000  0.15785600  0.51208600  1
  I  I11  1  0.75000000  0.65785600  0.98791400  1
  N  N0  1  0.75000000  0.91478000  0.32399900  1
  N  N1  1  0.75000000  0.41478000  0.17600100  1
  N  N2  1  0.25000000  0.08522000  0.67600100  1
  N  N3  1  0.25000000  0.58522000  0.82399900  1
loop_
_geom_bond_atom_site_label_1
_geom_bond_atom_site_label_2
_geom_bond_distance
_geom_bond_site_symmetry_2
H0 N0 1.037411 1_555
H1 N1 1.037411 1_555
H2 N2 1.037411 1_555
H3 N3 1.037411 1_555
H4 N0 1.035482 1_555
H5 N1 1.035482 1_555
H6 N2 1.035482 1_555
H7 N3 1.035482 1_555
H8 N0 1.034092 1_555
H9 N1 1.034092 1_555
H10 N2 1.034092 1_555
H11 N3 1.034092 1_555
H12 N2 1.034092 1_555
H13 N3 1.034092 1_555
H14 N0 1.034092 1_555
H15 N1 1.034092 1_555
I0 Pb0 3.303947 1_555
I0 Pb0 3.303947 1_455
I0 Pb2 3.414669 1_555
I1 Pb1 3.303947 1_465
I1 Pb1 3.303947 1_565
I1 Pb3 3.414669 1_556
I2 Pb2 3.303947 1_555
I2 Pb2 3.303947 1_655
I2 Pb0 3.414669 1_555
I3 Pb3 3.303947 1_545
I3 Pb3 3.303947 1_645
I3 Pb1 3.414669 1_554
I4 Pb0 3.089027 1_555
I5 Pb1 3.089027 1_555
I6 Pb2 3.089027 1_555
I7 Pb3 3.089027 1_555
I8 Pb0 3.272191 1_555
I8 Pb0 3.272191 1_455
I9 Pb1 3.272191 1_454
I9 Pb1 3.272191 1_554
I10 Pb2 3.272191 1_655
I10 Pb2 3.272191 1_555
I11 Pb3 3.272191 1_656
I11 Pb3 3.272191 1_556
