# generated using pymatgen
data_Mg2Ti
_symmetry_space_group_name_H-M   'P 1'
_cell_length_a   16.84666008
_cell_length_b   16.84666008
_cell_length_c   9.82835200
_cell_angle_alpha   90.00000000
_cell_angle_beta   90.00000000
_cell_angle_gamma   159.37533331
_symmetry_Int_Tables_number   1
_chemical_formula_structural   Mg2Ti
_chemical_formula_sum   'Mg32 Ti16'
_cell_volume   982.54551224
_cell_formula_units_Z   16
loop_
 _symmetry_equiv_pos_site_id
 _symmetry_equiv_pos_as_xyz
  1  'x, y, z'
loop_
 _atom_site_type_symbol
 _atom_site_label
 _atom_site_symmetry_multiplicity
 _atom_site_fract_x
 _atom_site_fract_y
 _atom_site_fract_z
 _atom_site_occupancy
  Mg  Mg0_0  1  0.10651700  0.39348300  0.12500000  1
  Mg  Mg0_1  1  0.10651700  0.39348300  0.62500000  1
  Mg  Mg0_2  1  0.10651700  0.89348300  0.12500000  1
  Mg  Mg0_3  1  0.10651700  0.89348300  0.62500000  1
  Mg  Mg0_4  1  0.60651700  0.39348300  0.12500000  1
  Mg  Mg0_5  1  0.60651700  0.39348300  0.62500000  1
  Mg  Mg0_6  1  0.60651700  0.89348300  0.12500000  1
  Mg  Mg0_7  1  0.60651700  0.89348300  0.62500000  1
  Mg  Mg1_0  1  0.44519550  0.05480450  0.12500000  1
  Mg  Mg1_1  1  0.44519550  0.05480450  0.62500000  1
  Mg  Mg1_2  1  0.44519550  0.55480450  0.12500000  1
  Mg  Mg1_3  1  0.44519550  0.55480450  0.62500000  1
  Mg  Mg1_4  1  0.94519550  0.05480450  0.12500000  1
  Mg  Mg1_5  1  0.94519550  0.05480450  0.62500000  1
  Mg  Mg1_6  1  0.94519550  0.55480450  0.12500000  1
  Mg  Mg1_7  1  0.94519550  0.55480450  0.62500000  1
  Mg  Mg2_0  1  0.05480450  0.44519550  0.37500000  1
  Mg  Mg2_1  1  0.05480450  0.44519550  0.87500000  1
  Mg  Mg2_2  1  0.05480450  0.94519550  0.37500000  1
  Mg  Mg2_3  1  0.05480450  0.94519550  0.87500000  1
  Mg  Mg2_4  1  0.55480450  0.44519550  0.37500000  1
  Mg  Mg2_5  1  0.55480450  0.44519550  0.87500000  1
  Mg  Mg2_6  1  0.55480450  0.94519550  0.37500000  1
  Mg  Mg2_7  1  0.55480450  0.94519550  0.87500000  1
  Mg  Mg3_0  1  0.39348300  0.10651700  0.37500000  1
  Mg  Mg3_1  1  0.39348300  0.10651700  0.87500000  1
  Mg  Mg3_2  1  0.39348300  0.60651700  0.37500000  1
  Mg  Mg3_3  1  0.39348300  0.60651700  0.87500000  1
  Mg  Mg3_4  1  0.89348300  0.10651700  0.37500000  1
  Mg  Mg3_5  1  0.89348300  0.10651700  0.87500000  1
  Mg  Mg3_6  1  0.89348300  0.60651700  0.37500000  1
  Mg  Mg3_7  1  0.89348300  0.60651700  0.87500000  1
  Ti  Ti0_0  1  0.27255700  0.22744300  0.12500000  1
  Ti  Ti0_1  1  0.27255700  0.22744300  0.62500000  1
  Ti  Ti0_2  1  0.27255700  0.72744300  0.12500000  1
  Ti  Ti0_3  1  0.27255700  0.72744300  0.62500000  1
  Ti  Ti0_4  1  0.77255700  0.22744300  0.12500000  1
  Ti  Ti0_5  1  0.77255700  0.22744300  0.62500000  1
  Ti  Ti0_6  1  0.77255700  0.72744300  0.12500000  1
  Ti  Ti0_7  1  0.77255700  0.72744300  0.62500000  1
  Ti  Ti1_0  1  0.22744300  0.27255700  0.37500000  1
  Ti  Ti1_1  1  0.22744300  0.27255700  0.87500000  1
  Ti  Ti1_2  1  0.22744300  0.77255700  0.37500000  1
  Ti  Ti1_3  1  0.22744300  0.77255700  0.87500000  1
  Ti  Ti1_4  1  0.72744300  0.27255700  0.37500000  1
  Ti  Ti1_5  1  0.72744300  0.27255700  0.87500000  1
  Ti  Ti1_6  1  0.72744300  0.77255700  0.37500000  1
  Ti  Ti1_7  1  0.72744300  0.77255700  0.87500000  1
loop_
_geom_bond_atom_site_label_1
_geom_bond_atom_site_label_2
_geom_bond_distance
_geom_bond_site_symmetry_2
Mg0_0 Mg2_0 2.995970 1_555
Mg0_0 Mg2_1 2.995970 1_554
Mg0_0 Mg0_6 3.015788 1_445
Mg0_0 Mg0_6 3.015788 1_555
Mg0_0 Mg3_4 3.132507 1_455
Mg0_0 Mg3_2 3.132507 1_555
Mg0_0 Mg3_5 3.132507 1_454
Mg0_0 Mg3_3 3.132507 1_554
Mg0_0 Ti0_2 3.165425 1_555
Mg0_0 Ti0_4 3.165425 1_455
Mg0_0 Mg1_4 3.303792 1_455
Mg0_0 Mg1_2 3.303792 1_555
Mg0_1 Mg2_1 2.995970 1_555
Mg0_1 Mg2_0 2.995970 1_555
Mg0_1 Mg0_7 3.015788 1_555
Mg0_1 Mg0_7 3.015788 1_445
Mg0_1 Mg3_5 3.132507 1_455
Mg0_1 Mg3_3 3.132507 1_555
Mg0_1 Mg3_2 3.132507 1_555
Mg0_1 Mg3_4 3.132507 1_455
Mg0_1 Ti0_3 3.165425 1_555
Mg0_1 Ti0_5 3.165425 1_455
Mg0_1 Mg1_5 3.303792 1_455
Mg0_1 Mg1_3 3.303792 1_555
Mg0_2 Mg2_2 2.995970 1_555
Mg0_2 Mg2_3 2.995970 1_554
Mg0_2 Mg0_4 3.015788 1_565
Mg0_2 Mg0_4 3.015788 1_455
Mg0_2 Mg3_0 3.132507 1_565
Mg0_2 Mg3_6 3.132507 1_455
Mg0_2 Mg3_1 3.132507 1_564
Mg0_2 Mg3_7 3.132507 1_454
Mg0_2 Ti0_6 3.165425 1_455
Mg0_2 Ti0_0 3.165425 1_565
Mg0_2 Mg1_6 3.303792 1_455
Mg0_2 Mg1_0 3.303792 1_565
Mg0_3 Mg2_3 2.995970 1_555
Mg0_3 Mg2_2 2.995970 1_555
Mg0_3 Mg0_5 3.015788 1_565
Mg0_3 Mg0_5 3.015788 1_455
Mg0_3 Mg3_1 3.132507 1_565
Mg0_3 Mg3_7 3.132507 1_455
Mg0_3 Mg3_6 3.132507 1_455
Mg0_3 Mg3_0 3.132507 1_565
Mg0_3 Ti0_7 3.165425 1_455
Mg0_3 Ti0_1 3.165425 1_565
Mg0_3 Mg1_7 3.303792 1_455
Mg0_3 Mg1_1 3.303792 1_565
Mg0_4 Mg2_4 2.995970 1_555
Mg0_4 Mg2_5 2.995970 1_554
Mg0_4 Mg3_0 3.132507 1_555
Mg0_4 Mg3_6 3.132507 1_555
Mg0_4 Mg3_1 3.132507 1_554
Mg0_4 Mg3_7 3.132507 1_554
Mg0_4 Ti0_6 3.165425 1_555
Mg0_4 Ti0_0 3.165425 1_555
Mg0_4 Mg1_0 3.303792 1_555
Mg0_4 Mg1_6 3.303792 1_555
Mg0_5 Mg2_5 2.995970 1_555
Mg0_5 Mg2_4 2.995970 1_555
Mg0_5 Mg3_1 3.132507 1_555
Mg0_5 Mg3_7 3.132507 1_555
Mg0_5 Mg3_0 3.132507 1_555
Mg0_5 Mg3_6 3.132507 1_555
Mg0_5 Ti0_7 3.165425 1_555
Mg0_5 Ti0_1 3.165425 1_555
Mg0_5 Mg1_1 3.303792 1_555
Mg0_5 Mg1_7 3.303792 1_555
Mg0_6 Mg2_6 2.995970 1_555
Mg0_6 Mg2_7 2.995970 1_554
Mg0_6 Mg3_4 3.132507 1_565
Mg0_6 Mg3_2 3.132507 1_555
Mg0_6 Mg3_5 3.132507 1_564
Mg0_6 Mg3_3 3.132507 1_554
Mg0_6 Ti0_2 3.165425 1_555
Mg0_6 Ti0_4 3.165425 1_565
Mg0_6 Mg1_2 3.303792 1_555
Mg0_6 Mg1_4 3.303792 1_565
Mg0_7 Mg2_7 2.995970 1_555
Mg0_7 Mg2_6 2.995970 1_555
Mg0_7 Mg3_5 3.132507 1_565
Mg0_7 Mg3_3 3.132507 1_555
Mg0_7 Mg3_4 3.132507 1_565
Mg0_7 Mg3_2 3.132507 1_555
Mg0_7 Ti0_3 3.165425 1_555
Mg0_7 Ti0_5 3.165425 1_565
Mg0_7 Mg1_3 3.303792 1_555
Mg0_7 Mg1_5 3.303792 1_565
Mg1_0 Ti0_4 2.974929 1_555
Mg1_0 Ti0_2 2.974929 1_545
Mg1_0 Mg3_0 2.995970 1_555
Mg1_0 Mg3_1 2.995970 1_554
Mg1_0 Mg1_6 3.015788 1_445
Mg1_0 Mg1_6 3.015788 1_555
Mg1_0 Ti1_2 3.074692 1_545
Mg1_0 Ti1_4 3.074692 1_555
Mg1_0 Ti1_5 3.074692 1_554
Mg1_0 Ti1_3 3.074692 1_544
Mg1_1 Ti0_5 2.974929 1_555
Mg1_1 Ti0_3 2.974929 1_545
Mg1_1 Mg3_1 2.995970 1_555
Mg1_1 Mg3_0 2.995970 1_555
Mg1_1 Mg1_7 3.015788 1_555
Mg1_1 Mg1_7 3.015788 1_445
Mg1_1 Ti1_5 3.074692 1_555
Mg1_1 Ti1_3 3.074692 1_545
Mg1_1 Ti1_4 3.074692 1_555
Mg1_1 Ti1_2 3.074692 1_545
Mg1_2 Ti0_0 2.974929 1_555
Mg1_2 Ti0_6 2.974929 1_555
Mg1_2 Mg3_2 2.995970 1_555
Mg1_2 Mg3_3 2.995970 1_554
Mg1_2 Mg1_4 3.015788 1_565
Mg1_2 Mg1_4 3.015788 1_455
Mg1_2 Ti1_6 3.074692 1_555
Mg1_2 Ti1_0 3.074692 1_555
Mg1_2 Ti1_7 3.074692 1_554
Mg1_2 Ti1_1 3.074692 1_554
Mg1_3 Ti0_1 2.974929 1_555
Mg1_3 Ti0_7 2.974929 1_555
Mg1_3 Mg3_3 2.995970 1_555
Mg1_3 Mg3_2 2.995970 1_555
Mg1_3 Mg1_5 3.015788 1_565
Mg1_3 Mg1_5 3.015788 1_455
Mg1_3 Ti1_1 3.074692 1_555
Mg1_3 Ti1_7 3.074692 1_555
Mg1_3 Ti1_6 3.074692 1_555
Mg1_3 Ti1_0 3.074692 1_555
Mg1_4 Ti0_0 2.974929 1_655
Mg1_4 Ti0_6 2.974929 1_545
Mg1_4 Mg3_4 2.995970 1_555
Mg1_4 Mg3_5 2.995970 1_554
Mg1_4 Ti1_6 3.074692 1_545
Mg1_4 Ti1_7 3.074692 1_544
Mg1_4 Ti1_0 3.074692 1_655
Mg1_4 Ti1_1 3.074692 1_654
Mg1_5 Ti0_1 2.974929 1_655
Mg1_5 Ti0_7 2.974929 1_545
Mg1_5 Mg3_5 2.995970 1_555
Mg1_5 Mg3_4 2.995970 1_555
Mg1_5 Ti1_7 3.074692 1_545
Mg1_5 Ti1_6 3.074692 1_545
Mg1_5 Ti1_1 3.074692 1_655
Mg1_5 Ti1_0 3.074692 1_655
Mg1_6 Ti0_2 2.974929 1_655
Mg1_6 Ti0_4 2.974929 1_555
Mg1_6 Mg3_6 2.995970 1_555
Mg1_6 Mg3_7 2.995970 1_554
Mg1_6 Ti1_4 3.074692 1_555
Mg1_6 Ti1_2 3.074692 1_655
Mg1_6 Ti1_5 3.074692 1_554
Mg1_6 Ti1_3 3.074692 1_654
Mg1_7 Ti0_3 2.974929 1_655
Mg1_7 Ti0_5 2.974929 1_555
Mg1_7 Mg3_7 2.995970 1_555
Mg1_7 Mg3_6 2.995970 1_555
Mg1_7 Ti1_5 3.074692 1_555
Mg1_7 Ti1_4 3.074692 1_555
Mg1_7 Ti1_3 3.074692 1_655
Mg1_7 Ti1_2 3.074692 1_655
Mg2_0 Ti1_2 2.974929 1_555
Mg2_0 Ti1_4 2.974929 1_455
Mg2_0 Mg2_6 3.015788 1_445
Mg2_0 Mg2_6 3.015788 1_555
Mg2_0 Ti0_2 3.074692 1_555
Mg2_0 Ti0_4 3.074692 1_455
Mg2_0 Ti0_5 3.074692 1_455
Mg2_0 Ti0_3 3.074692 1_555
Mg2_0 Mg3_4 3.303792 1_455
Mg2_0 Mg3_2 3.303792 1_555
Mg2_1 Ti1_3 2.974929 1_555
Mg2_1 Ti1_5 2.974929 1_455
Mg2_1 Mg2_7 3.015788 1_445
Mg2_1 Mg2_7 3.015788 1_555
Mg2_1 Ti0_3 3.074692 1_555
Mg2_1 Ti0_5 3.074692 1_455
Mg2_1 Ti0_2 3.074692 1_556
Mg2_1 Ti0_4 3.074692 1_456
Mg2_1 Mg3_5 3.303792 1_455
Mg2_1 Mg3_3 3.303792 1_555
Mg2_2 Ti1_0 2.974929 1_565
Mg2_2 Ti1_6 2.974929 1_455
Mg2_2 Mg2_4 3.015788 1_565
Mg2_2 Mg2_4 3.015788 1_455
Mg2_2 Ti0_6 3.074692 1_455
Mg2_2 Ti0_7 3.074692 1_455
Mg2_2 Ti0_0 3.074692 1_565
Mg2_2 Ti0_1 3.074692 1_565
Mg2_2 Mg3_0 3.303792 1_565
Mg2_2 Mg3_6 3.303792 1_455
Mg2_3 Ti1_1 2.974929 1_565
Mg2_3 Ti1_7 2.974929 1_455
Mg2_3 Mg2_5 3.015788 1_455
Mg2_3 Mg2_5 3.015788 1_565
Mg2_3 Ti0_7 3.074692 1_455
Mg2_3 Ti0_6 3.074692 1_456
Mg2_3 Ti0_1 3.074692 1_565
Mg2_3 Ti0_0 3.074692 1_566
Mg2_3 Mg3_1 3.303792 1_565
Mg2_3 Mg3_7 3.303792 1_455
Mg2_4 Ti1_0 2.974929 1_555
Mg2_4 Ti1_6 2.974929 1_555
Mg2_4 Ti0_6 3.074692 1_555
Mg2_4 Ti0_0 3.074692 1_555
Mg2_4 Ti0_7 3.074692 1_555
Mg2_4 Ti0_1 3.074692 1_555
Mg2_4 Mg3_0 3.303792 1_555
Mg2_4 Mg3_6 3.303792 1_555
Mg2_5 Ti1_1 2.974929 1_555
Mg2_5 Ti1_7 2.974929 1_555
Mg2_5 Ti0_7 3.074692 1_555
Mg2_5 Ti0_1 3.074692 1_555
Mg2_5 Ti0_6 3.074692 1_556
Mg2_5 Ti0_0 3.074692 1_556
Mg2_5 Mg3_1 3.303792 1_555
Mg2_5 Mg3_7 3.303792 1_555
Mg2_6 Ti1_4 2.974929 1_565
Mg2_6 Ti1_2 2.974929 1_555
Mg2_6 Ti0_2 3.074692 1_555
Mg2_6 Ti0_3 3.074692 1_555
Mg2_6 Ti0_4 3.074692 1_565
Mg2_6 Ti0_5 3.074692 1_565
Mg2_6 Mg3_4 3.303792 1_565
Mg2_6 Mg3_2 3.303792 1_555
Mg2_7 Ti1_5 2.974929 1_565
Mg2_7 Ti1_3 2.974929 1_555
Mg2_7 Ti0_3 3.074692 1_555
Mg2_7 Ti0_5 3.074692 1_565
Mg2_7 Ti0_2 3.074692 1_556
Mg2_7 Ti0_4 3.074692 1_566
Mg2_7 Mg3_5 3.303792 1_565
Mg2_7 Mg3_3 3.303792 1_555
Mg3_0 Mg3_6 3.015788 1_445
Mg3_0 Mg3_6 3.015788 1_555
Mg3_0 Ti1_4 3.165425 1_555
Mg3_0 Ti1_2 3.165425 1_545
Mg3_1 Mg3_7 3.015788 1_445
Mg3_1 Mg3_7 3.015788 1_555
Mg3_1 Ti1_5 3.165425 1_555
Mg3_1 Ti1_3 3.165425 1_545
Mg3_2 Mg3_4 3.015788 1_455
Mg3_2 Mg3_4 3.015788 1_565
Mg3_2 Ti1_6 3.165425 1_555
Mg3_2 Ti1_0 3.165425 1_555
Mg3_3 Mg3_5 3.015788 1_455
Mg3_3 Mg3_5 3.015788 1_565
Mg3_3 Ti1_7 3.165425 1_555
Mg3_3 Ti1_1 3.165425 1_555
Mg3_4 Ti1_6 3.165425 1_545
Mg3_4 Ti1_0 3.165425 1_655
Mg3_5 Ti1_7 3.165425 1_545
Mg3_5 Ti1_1 3.165425 1_655
Mg3_6 Ti1_4 3.165425 1_555
Mg3_6 Ti1_2 3.165425 1_655
Mg3_7 Ti1_5 3.165425 1_555
Mg3_7 Ti1_3 3.165425 1_655
Ti0_0 Ti1_0 2.876415 1_555
Ti0_0 Ti1_1 2.876415 1_554
Ti0_0 Ti0_6 3.015788 1_445
Ti0_0 Ti0_6 3.015788 1_555
Ti0_1 Ti1_1 2.876415 1_555
Ti0_1 Ti1_0 2.876415 1_555
Ti0_1 Ti0_7 3.015788 1_445
Ti0_1 Ti0_7 3.015788 1_555
Ti0_2 Ti1_2 2.876415 1_555
Ti0_2 Ti1_3 2.876415 1_554
Ti0_2 Ti0_4 3.015788 1_565
Ti0_2 Ti0_4 3.015788 1_455
Ti0_3 Ti1_3 2.876415 1_555
Ti0_3 Ti1_2 2.876415 1_555
Ti0_3 Ti0_5 3.015788 1_565
Ti0_3 Ti0_5 3.015788 1_455
Ti0_4 Ti1_4 2.876415 1_555
Ti0_4 Ti1_5 2.876415 1_554
Ti0_5 Ti1_5 2.876415 1_555
Ti0_5 Ti1_4 2.876415 1_555
Ti0_6 Ti1_6 2.876415 1_555
Ti0_6 Ti1_7 2.876415 1_554
Ti0_7 Ti1_7 2.876415 1_555
Ti0_7 Ti1_6 2.876415 1_555
Ti1_0 Ti1_6 3.015788 1_555
Ti1_0 Ti1_6 3.015788 1_445
Ti1_1 Ti1_7 3.015788 1_445
Ti1_1 Ti1_7 3.015788 1_555
Ti1_2 Ti1_4 3.015788 1_455
Ti1_2 Ti1_4 3.015788 1_565
Ti1_3 Ti1_5 3.015788 1_455
Ti1_3 Ti1_5 3.015788 1_565
