# generated using pymatgen
data_BaMg2V6(Cu4O13)2
_symmetry_space_group_name_H-M   'P 1'
_cell_length_a   6.08011100
_cell_length_b   8.40952600
_cell_length_c   10.89325836
_cell_angle_alpha   81.85508629
_cell_angle_beta   90.00000000
_cell_angle_gamma   90.00000000
_symmetry_Int_Tables_number   1
_chemical_formula_structural   BaMg2V6(Cu4O13)2
_chemical_formula_sum   'Ba1 Mg2 V6 Cu8 O26'
_cell_volume   551.36324846
_cell_formula_units_Z   1
loop_
 _symmetry_equiv_pos_site_id
 _symmetry_equiv_pos_as_xyz
  1  'x, y, z'
loop_
 _atom_site_type_symbol
 _atom_site_label
 _atom_site_symmetry_multiplicity
 _atom_site_fract_x
 _atom_site_fract_y
 _atom_site_fract_z
 _atom_site_occupancy
  Ba  Ba0  1  0.00000000  0.48604400  0.91150300  1
  Mg  Mg0  1  0.00000000  0.19019600  0.15091400  1
  Mg  Mg1  1  0.50000000  0.80319700  0.86576700  1
  V  V0  1  0.00000000  0.53094500  0.28832700  1
  V  V1  1  0.50000000  0.46868400  0.70767900  1
  V  V2  1  0.00000000  0.87180900  0.99767600  1
  V  V3  1  0.50000000  0.13762700  0.00208200  1
  V  V4  1  0.00000000  0.82104200  0.62554300  1
  V  V5  1  0.50000000  0.18127700  0.37271700  1
  Cu  Cu0  1  0.75049300  0.10536900  0.73012500  1
  Cu  Cu1  1  0.25033500  0.89359200  0.27073900  1
  Cu  Cu2  1  0.74966500  0.89359200  0.27073900  1
  Cu  Cu3  1  0.24950700  0.10536900  0.73012500  1
  Cu  Cu4  1  0.00000000  0.39833400  0.60120300  1
  Cu  Cu5  1  0.50000000  0.60186100  0.38772300  1
  Cu  Cu6  1  0.00000000  0.14310900  0.44118800  1
  Cu  Cu7  1  0.50000000  0.85617700  0.55773300  1
  O  O0  1  0.00000000  0.15687600  0.62049700  1
  O  O1  1  0.50000000  0.84195500  0.37845900  1
  O  O2  1  0.00000000  0.61679400  0.63328100  1
  O  O3  1  0.50000000  0.38069500  0.37579800  1
  O  O4  1  0.00000000  0.38228700  0.42309000  1
  O  O5  1  0.50000000  0.61495600  0.57365300  1
  O  O6  1  0.00000000  0.90790100  0.47141800  1
  O  O7  1  0.50000000  0.09159800  0.52687600  1
  O  O8  1  0.00000000  0.03517600  0.88792900  1
  O  O9  1  0.50000000  0.97188900  0.10914700  1
  O  O10  1  0.00000000  0.93888900  0.15926500  1
  O  O11  1  0.50000000  0.05999000  0.84291500  1
  O  O12  1  0.77178000  0.66129000  0.28140300  1
  O  O13  1  0.26448400  0.34174600  0.72378700  1
  O  O14  1  0.73551600  0.34174600  0.72378700  1
  O  O15  1  0.22822000  0.66129000  0.28140300  1
  O  O16  1  0.77639300  0.75584600  0.97038700  1
  O  O17  1  0.26077500  0.24171500  0.02358600  1
  O  O18  1  0.73922500  0.24171500  0.02358600  1
  O  O19  1  0.22360700  0.75584600  0.97038700  1
  O  O20  1  0.00000000  0.42880700  0.16387600  1
  O  O21  1  0.50000000  0.57085200  0.83187700  1
  O  O22  1  0.75255500  0.12356000  0.29984000  1
  O  O23  1  0.25043400  0.87589900  0.69966300  1
  O  O24  1  0.74956600  0.87589900  0.69966300  1
  O  O25  1  0.24744500  0.12356000  0.29984000  1
loop_
_geom_bond_atom_site_label_1
_geom_bond_atom_site_label_2
_geom_bond_distance
_geom_bond_site_symmetry_2
Ba0 O20 2.722982 1_556
Ba0 O18 2.741454 1_456
Ba0 O17 2.741454 1_556
Ba0 O16 2.796454 1_455
Ba0 O19 2.796454 1_555
Ba0 O13 2.990478 1_555
Ba0 O14 2.990478 1_455
Ba0 O2 3.074109 1_555
Ba0 O21 3.213667 1_455
Ba0 O21 3.213667 1_555
Mg0 O20 2.031424 1_555
Mg0 O10 2.102414 1_545
Mg0 O18 2.110731 1_455
Mg0 O17 2.110731 1_555
Mg0 O25 2.225253 1_555
Mg0 O22 2.225253 1_455
Mg1 O16 2.037857 1_555
Mg1 O19 2.037857 1_555
Mg1 O21 2.039228 1_555
Mg1 O11 2.138485 1_565
Mg1 O24 2.374191 1_555
Mg1 O23 2.374191 1_555
Cu0 O0 1.941277 1_655
Cu0 O11 1.960092 1_555
Cu0 O14 1.981311 1_555
Cu0 O24 2.003861 1_545
Cu0 O8 2.305919 1_655
Cu1 O1 1.930129 1_555
Cu1 O15 1.945155 1_555
Cu1 O10 1.950712 1_555
Cu1 O25 2.003639 1_565
Cu1 O9 2.346903 1_555
Cu2 O1 1.930129 1_555
Cu2 O12 1.945155 1_555
Cu2 O10 1.950712 1_655
Cu2 O22 2.003639 1_565
Cu2 O9 2.346903 1_555
Cu3 O0 1.941277 1_555
Cu3 O11 1.960092 1_555
Cu3 O13 1.981311 1_555
Cu3 O23 2.003861 1_545
Cu3 O8 2.305919 1_555
Cu4 O2 1.918100 1_555
Cu4 O4 1.963899 1_555
Cu4 O0 2.011559 1_555
Cu4 O13 2.101307 1_555
Cu4 O14 2.101307 1_455
Cu5 O3 1.882702 1_555
Cu5 O1 2.007267 1_555
Cu5 O15 2.039049 1_555
Cu5 O12 2.039049 1_555
Cu5 O5 2.043895 1_555
Cu6 O6 1.958650 1_545
Cu6 O0 1.972993 1_555
Cu6 O4 1.993020 1_555
Cu6 O25 2.175558 1_555
Cu6 O22 2.175558 1_455
Cu7 O7 1.960599 1_565
Cu7 O1 1.973377 1_555
Cu7 O5 2.011324 1_555
Cu7 O24 2.189292 1_555
Cu7 O23 2.189292 1_555
O2 V4 1.707726 1_555
O3 V5 1.682094 1_555
O4 V0 1.788264 1_555
O5 V1 1.770808 1_555
O6 V4 1.733447 1_555
O7 V5 1.740668 1_555
O8 V2 1.688571 1_545
O9 V3 1.685893 1_565
O10 V2 1.923017 1_554
O11 V3 1.937331 1_556
O12 V0 1.763300 1_655
O13 V1 1.779822 1_555
O14 V1 1.779822 1_555
O15 V0 1.763300 1_555
O16 V2 1.723341 1_655
O17 V3 1.730546 1_555
O18 V3 1.730546 1_555
O19 V2 1.723341 1_555
O20 V0 1.704574 1_555
O21 V1 1.702342 1_555
O22 V5 1.825636 1_555
O23 V4 1.813500 1_555
O24 V4 1.813500 1_655
O25 V5 1.825636 1_555
