# generated using pymatgen
data_Na3La(AsO4)2
_symmetry_space_group_name_H-M   'P 1'
_cell_length_a   5.64756650
_cell_length_b   14.47504154
_cell_length_c   19.69883532
_cell_angle_alpha   90.00000000
_cell_angle_beta   90.00000000
_cell_angle_gamma   90.00000000
_symmetry_Int_Tables_number   1
_chemical_formula_structural   Na3La(AsO4)2
_chemical_formula_sum   'Na24 La8 As16 O64'
_cell_volume   1610.35535470
_cell_formula_units_Z   8
loop_
 _symmetry_equiv_pos_site_id
 _symmetry_equiv_pos_as_xyz
  1  'x, y, z'
loop_
 _atom_site_type_symbol
 _atom_site_label
 _atom_site_symmetry_multiplicity
 _atom_site_fract_x
 _atom_site_fract_y
 _atom_site_fract_z
 _atom_site_occupancy
  Na  Na0  1  0.97715653  0.21653612  0.99416675  1
  Na  Na1  1  0.02284347  0.78346388  0.49416675  1
  Na  Na2  1  0.02284347  0.71653612  0.99416675  1
  Na  Na3  1  0.97715653  0.28346388  0.49416675  1
  Na  Na4  1  0.98370134  0.95283886  0.64742887  1
  Na  Na5  1  0.01629866  0.04716114  0.14742887  1
  Na  Na6  1  0.01629866  0.45283886  0.64742887  1
  Na  Na7  1  0.98370134  0.54716114  0.14742887  1
  Na  Na8  1  0.98643987  0.86202498  0.82723773  1
  Na  Na9  1  0.01356013  0.13797502  0.32723773  1
  Na  Na10  1  0.01356013  0.36202498  0.82723773  1
  Na  Na11  1  0.98643987  0.63797502  0.32723773  1
  Na  Na12  1  0.47002349  0.79721472  0.73273823  1
  Na  Na13  1  0.52997651  0.20278528  0.23273823  1
  Na  Na14  1  0.52997651  0.29721472  0.73273823  1
  Na  Na15  1  0.47002349  0.70278528  0.23273823  1
  Na  Na16  1  0.54230259  0.96692122  0.88790829  1
  Na  Na17  1  0.45769741  0.03307878  0.38790829  1
  Na  Na18  1  0.45769741  0.46692122  0.88790829  1
  Na  Na19  1  0.54230259  0.53307878  0.38790829  1
  Na  Na20  1  0.49361297  0.88356578  0.55223261  1
  Na  Na21  1  0.50638703  0.11643422  0.05223261  1
  Na  Na22  1  0.50638703  0.38356578  0.55223261  1
  Na  Na23  1  0.49361297  0.61643422  0.05223261  1
  La  La0  1  0.93061594  0.61203830  0.80374739  1
  La  La1  1  0.06938406  0.38796170  0.30374739  1
  La  La2  1  0.06938406  0.11203830  0.80374739  1
  La  La3  1  0.93061594  0.88796170  0.30374739  1
  La  La4  1  0.55960018  0.63654131  0.57380223  1
  La  La5  1  0.44039982  0.36345869  0.07380223  1
  La  La6  1  0.44039982  0.13654131  0.57380223  1
  La  La7  1  0.55960018  0.86345869  0.07380223  1
  As  As0  1  0.96625534  0.47554263  0.98098784  1
  As  As1  1  0.03374466  0.52445737  0.48098784  1
  As  As2  1  0.03374466  0.97554263  0.98098784  1
  As  As3  1  0.96625534  0.02445737  0.48098784  1
  As  As4  1  0.98420796  0.22786570  0.65285221  1
  As  As5  1  0.01579204  0.77213430  0.15285221  1
  As  As6  1  0.01579204  0.72786570  0.65285221  1
  As  As7  1  0.98420796  0.27213430  0.15285221  1
  As  As8  1  0.47331812  0.52167568  0.72368785  1
  As  As9  1  0.52668188  0.47832432  0.22368785  1
  As  As10  1  0.52668188  0.02167568  0.72368785  1
  As  As11  1  0.47331812  0.97832432  0.22368785  1
  As  As12  1  0.45908522  0.72652619  0.89619852  1
  As  As13  1  0.54091478  0.27347381  0.39619852  1
  As  As14  1  0.54091478  0.22652619  0.89619852  1
  As  As15  1  0.45908522  0.77347381  0.39619852  1
  O  O0  1  0.58864806  0.81033862  0.84776158  1
  O  O1  1  0.41135194  0.18966138  0.34776158  1
  O  O2  1  0.41135194  0.31033862  0.84776158  1
  O  O3  1  0.58864806  0.68966138  0.34776158  1
  O  O4  1  0.70338755  0.46769718  0.76527150  1
  O  O5  1  0.29661245  0.53230282  0.26527150  1
  O  O6  1  0.29661245  0.96769718  0.76527150  1
  O  O7  1  0.70338755  0.03230282  0.26527150  1
  O  O8  1  0.89385660  0.87166320  0.99750071  1
  O  O9  1  0.10614340  0.12833680  0.49750071  1
  O  O10  1  0.10614340  0.37166320  0.99750071  1
  O  O11  1  0.89385660  0.62833680  0.49750071  1
  O  O12  1  0.79594531  0.78373588  0.60807193  1
  O  O13  1  0.20405469  0.21626412  0.10807193  1
  O  O14  1  0.20405469  0.28373588  0.60807193  1
  O  O15  1  0.79594531  0.71626412  0.10807193  1
  O  O16  1  0.66488526  0.46580840  0.99694598  1
  O  O17  1  0.33511474  0.53419160  0.49694598  1
  O  O18  1  0.33511474  0.96580840  0.99694598  1
  O  O19  1  0.66488526  0.03419160  0.49694598  1
  O  O20  1  0.90683754  0.44047337  0.53026629  1
  O  O21  1  0.09316246  0.55952663  0.03026629  1
  O  O22  1  0.09316246  0.94047337  0.53026629  1
  O  O23  1  0.90683754  0.05952663  0.03026629  1
  O  O24  1  0.79000858  0.99137693  0.76131655  1
  O  O25  1  0.20999142  0.00862307  0.26131655  1
  O  O26  1  0.20999142  0.49137693  0.76131655  1
  O  O27  1  0.79000858  0.50862307  0.26131655  1
  O  O28  1  0.60156145  0.62267275  0.88222095  1
  O  O29  1  0.39843855  0.37732725  0.38222095  1
  O  O30  1  0.39843855  0.12267275  0.88222095  1
  O  O31  1  0.60156145  0.87732725  0.38222095  1
  O  O32  1  0.52412820  0.63852041  0.72614445  1
  O  O33  1  0.47587180  0.36147959  0.22614445  1
  O  O34  1  0.47587180  0.13852041  0.72614445  1
  O  O35  1  0.52412820  0.86147959  0.22614445  1
  O  O36  1  0.95380390  0.61169406  0.64936923  1
  O  O37  1  0.04619610  0.38830594  0.14936923  1
  O  O38  1  0.04619610  0.11169406  0.64936923  1
  O  O39  1  0.95380390  0.88830594  0.14936923  1
  O  O40  1  0.84002259  0.21668634  0.87641425  1
  O  O41  1  0.15997741  0.78331366  0.37641425  1
  O  O42  1  0.15997741  0.71668634  0.87641425  1
  O  O43  1  0.84002259  0.28331366  0.37641425  1
  O  O44  1  0.98540941  0.25981873  0.73689880  1
  O  O45  1  0.01459059  0.74018127  0.23689880  1
  O  O46  1  0.01459059  0.75981873  0.73689880  1
  O  O47  1  0.98540941  0.24018127  0.23689880  1
  O  O48  1  0.53302522  0.98876393  0.63958335  1
  O  O49  1  0.46697478  0.01123607  0.13958335  1
  O  O50  1  0.46697478  0.48876393  0.63958335  1
  O  O51  1  0.53302522  0.51123607  0.13958335  1
  O  O52  1  0.98552832  0.99607074  0.89570425  1
  O  O53  1  0.01447168  0.00392926  0.39570425  1
  O  O54  1  0.01447168  0.49607074  0.89570425  1
  O  O55  1  0.98552832  0.50392926  0.39570425  1
  O  O56  1  0.28476656  0.75689674  0.61790474  1
  O  O57  1  0.71523344  0.24310326  0.11790474  1
  O  O58  1  0.71523344  0.25689674  0.61790474  1
  O  O59  1  0.28476656  0.74310326  0.11790474  1
  O  O60  1  0.46820831  0.74867454  0.98223689  1
  O  O61  1  0.53179169  0.25132546  0.48223689  1
  O  O62  1  0.53179169  0.24867454  0.98223689  1
  O  O63  1  0.46820831  0.75132546  0.48223689  1
loop_
_geom_bond_atom_site_label_1
_geom_bond_atom_site_label_2
_geom_bond_distance
_geom_bond_site_symmetry_2
Na0 O10 2.361590 1_655
Na0 O23 2.414261 1_556
Na0 O40 2.445465 1_555
Na0 O62 2.568660 1_555
Na0 O13 2.583930 1_656
Na0 O57 2.877044 1_556
Na1 O11 2.361590 1_455
Na1 O22 2.414261 1_555
Na1 O41 2.445465 1_555
Na1 O63 2.568660 1_555
Na1 O12 2.583930 1_455
Na1 O56 2.877044 1_555
Na2 O8 2.361590 1_455
Na2 O21 2.414261 1_556
Na2 O42 2.445465 1_555
Na2 O60 2.568660 1_555
Na2 O15 2.583930 1_456
Na2 O59 2.877044 1_556
Na3 O9 2.361590 1_655
Na3 O20 2.414261 1_555
Na3 O43 2.445465 1_555
Na3 O61 2.568660 1_555
Na3 O14 2.583930 1_655
Na3 O58 2.877044 1_555
Na4 O38 2.326679 1_665
Na4 O22 2.396018 1_655
Na4 O24 2.557514 1_555
Na4 O48 2.602396 1_555
Na4 O12 2.777955 1_555
Na4 O6 2.925394 1_655
Na5 O39 2.326679 1_445
Na5 O23 2.396018 1_455
Na5 O25 2.557514 1_555
Na5 O49 2.602396 1_555
Na5 O13 2.777955 1_555
Na5 O7 2.925394 1_455
Na6 O36 2.326679 1_455
Na6 O20 2.396018 1_455
Na6 O26 2.557514 1_555
Na6 O50 2.602396 1_555
Na6 O14 2.777955 1_555
Na6 O4 2.925394 1_455
Na7 O37 2.326679 1_655
Na7 O21 2.396018 1_655
Na7 O27 2.557514 1_555
Na7 O51 2.602396 1_555
Na7 O15 2.777955 1_555
Na7 O5 2.925394 1_655
Na8 O46 2.319675 1_655
Na8 O52 2.363024 1_555
Na8 O0 2.402127 1_555
Na8 O42 2.514925 1_655
Na8 O24 2.534314 1_555
Na8 O6 2.626451 1_655
Na9 O47 2.319675 1_455
Na9 O53 2.363024 1_555
Na9 O1 2.402127 1_555
Na9 O43 2.514925 1_455
Na9 O25 2.534314 1_555
Na9 O7 2.626451 1_455
Na10 O44 2.319675 1_455
Na10 O54 2.363024 1_555
Na10 O2 2.402127 1_555
Na10 O40 2.514925 1_455
Na10 O26 2.534314 1_555
Na10 O4 2.626451 1_455
Na11 O45 2.319675 1_655
Na11 O55 2.363024 1_555
Na11 O3 2.402127 1_555
Na11 O41 2.514925 1_655
Na11 O27 2.534314 1_555
Na11 O5 2.626451 1_655
Na12 O32 2.320978 1_555
Na12 O0 2.370417 1_555
Na12 O56 2.559740 1_555
Na12 O46 2.629708 1_555
Na12 O6 2.731224 1_555
Na13 O33 2.320978 1_555
Na13 O1 2.370417 1_555
Na13 O57 2.559740 1_555
Na13 O47 2.629708 1_555
Na13 O7 2.731224 1_555
Na14 O34 2.320978 1_555
Na14 O2 2.370417 1_555
Na14 O58 2.559740 1_555
Na14 O44 2.629708 1_555
Na14 O4 2.731224 1_555
Na15 O35 2.320978 1_555
Na15 O3 2.370417 1_555
Na15 O59 2.559740 1_555
Na15 O45 2.629708 1_555
Na15 O5 2.731224 1_555
Na16 O30 2.399061 1_565
Na16 O0 2.414776 1_555
Na16 O18 2.446007 1_555
Na16 O52 2.543101 1_555
Na16 O6 2.785951 1_555
Na16 O24 2.881133 1_555
Na17 O31 2.399061 1_545
Na17 O1 2.414776 1_555
Na17 O19 2.446007 1_555
Na17 O53 2.543101 1_555
Na17 O7 2.785951 1_555
Na17 O25 2.881133 1_555
Na18 O28 2.399061 1_555
Na18 O2 2.414776 1_555
Na18 O16 2.446007 1_555
Na18 O54 2.543101 1_555
Na18 O4 2.785951 1_555
Na18 O26 2.881133 1_555
Na19 O29 2.399061 1_555
Na19 O3 2.414776 1_555
Na19 O17 2.446007 1_555
Na19 O55 2.543101 1_555
Na19 O5 2.785951 1_555
Na19 O27 2.881133 1_555
Na20 O48 2.308493 1_555
Na20 O63 2.363444 1_555
Na20 O22 2.445504 1_555
Na20 O12 2.492677 1_555
Na20 O56 2.535073 1_555
Na20 O19 2.622115 1_565
Na21 O49 2.308493 1_555
Na21 O62 2.363444 1_554
Na21 O23 2.445504 1_555
Na21 O13 2.492677 1_555
Na21 O57 2.535073 1_555
Na21 O18 2.622115 1_544
Na22 O50 2.308493 1_555
Na22 O61 2.363444 1_555
Na22 O20 2.445504 1_555
Na22 O14 2.492677 1_555
Na22 O58 2.535073 1_555
Na22 O17 2.622115 1_555
Na23 O51 2.308493 1_555
Na23 O60 2.363444 1_554
Na23 O21 2.445504 1_555
Na23 O15 2.492677 1_555
Na23 O59 2.535073 1_555
Na23 O16 2.622115 1_554
La0 O28 2.422148 1_555
La0 O42 2.453878 1_655
La0 O26 2.497716 1_655
La0 O54 2.514641 1_655
La0 O46 2.556335 1_655
La0 O4 2.566445 1_555
La0 O32 2.784585 1_555
La0 O36 3.043892 1_555
La1 O29 2.422148 1_555
La1 O43 2.453878 1_455
La1 O27 2.497716 1_455
La1 O55 2.514641 1_455
La1 O47 2.556335 1_455
La1 O5 2.566445 1_555
La1 O33 2.784585 1_555
La1 O37 3.043892 1_555
La2 O30 2.422148 1_555
La2 O40 2.453878 1_455
La2 O24 2.497716 1_445
La2 O52 2.514641 1_445
La2 O44 2.556335 1_455
La2 O6 2.566445 1_545
La2 O34 2.784585 1_555
La2 O38 3.043892 1_555
La3 O31 2.422148 1_555
La3 O41 2.453878 1_655
La3 O25 2.497716 1_665
La3 O53 2.514641 1_665
La3 O45 2.556335 1_655
La3 O7 2.566445 1_565
La3 O35 2.784585 1_555
La3 O39 3.043892 1_555
La4 O11 2.415949 1_555
La4 O17 2.468670 1_555
La4 O56 2.489776 1_555
La4 O63 2.506082 1_555
La4 O50 2.555083 1_555
La4 O12 2.603268 1_555
La4 O36 2.702149 1_555
La4 O32 3.007780 1_555
La5 O10 2.415949 1_554
La5 O16 2.468670 1_554
La5 O57 2.489776 1_555
La5 O62 2.506082 1_554
La5 O51 2.555083 1_555
La5 O13 2.603268 1_555
La5 O37 2.702149 1_555
La5 O33 3.007780 1_555
La6 O9 2.415949 1_555
La6 O19 2.468670 1_555
La6 O58 2.489776 1_555
La6 O61 2.506082 1_555
La6 O48 2.555083 1_545
La6 O14 2.603268 1_555
La6 O38 2.702149 1_555
La6 O34 3.007780 1_555
La7 O8 2.415949 1_554
La7 O18 2.468670 1_554
La7 O59 2.489776 1_555
La7 O60 2.506082 1_554
La7 O49 2.555083 1_565
La7 O15 2.603268 1_555
La7 O39 2.702149 1_555
La7 O35 3.007780 1_555
As0 O21 1.712850 1_656
As0 O54 1.727658 1_655
As0 O10 1.729434 1_655
As0 O16 1.736521 1_555
As1 O20 1.712850 1_455
As1 O55 1.727658 1_455
As1 O11 1.729434 1_455
As1 O17 1.736521 1_555
As2 O23 1.712850 1_466
As2 O52 1.727658 1_455
As2 O8 1.729434 1_455
As2 O18 1.736521 1_555
As3 O22 1.712850 1_645
As3 O53 1.727658 1_655
As3 O9 1.729434 1_655
As3 O19 1.736521 1_555
As4 O38 1.719014 1_655
As4 O44 1.719026 1_555
As4 O58 1.719894 1_555
As4 O14 1.724452 1_655
As5 O39 1.719014 1_455
As5 O45 1.719026 1_555
As5 O59 1.719894 1_555
As5 O15 1.724452 1_455
As6 O36 1.719014 1_455
As6 O46 1.719026 1_555
As6 O56 1.719894 1_555
As6 O12 1.724452 1_455
As7 O37 1.719014 1_655
As7 O47 1.719026 1_555
As7 O57 1.719894 1_555
As7 O13 1.724452 1_655
As8 O32 1.716184 1_555
As8 O26 1.718551 1_555
As8 O4 1.723300 1_555
As8 O50 1.724267 1_555
As9 O33 1.716184 1_555
As9 O27 1.718551 1_555
As9 O5 1.723300 1_555
As9 O51 1.724267 1_555
As10 O34 1.716184 1_555
As10 O24 1.718551 1_545
As10 O6 1.723300 1_545
As10 O48 1.724267 1_545
As11 O35 1.716184 1_555
As11 O25 1.718551 1_565
As11 O7 1.723300 1_565
As11 O49 1.724267 1_565
As12 O0 1.708109 1_555
As12 O60 1.725681 1_555
As12 O28 1.727172 1_555
As12 O42 1.739447 1_555
As13 O1 1.708109 1_555
As13 O61 1.725681 1_555
As13 O29 1.727172 1_555
As13 O43 1.739447 1_555
As14 O2 1.708109 1_555
As14 O62 1.725681 1_555
As14 O30 1.727172 1_555
As14 O40 1.739447 1_555
As15 O3 1.708109 1_555
As15 O63 1.725681 1_555
As15 O31 1.727172 1_555
As15 O41 1.739447 1_555
