# generated using pymatgen
data_Mo3W(Se3S)2
_symmetry_space_group_name_H-M   'P 1'
_cell_length_a   3.29200392
_cell_length_b   3.29200392
_cell_length_c   37.41087700
_cell_angle_alpha   90.00000000
_cell_angle_beta   90.00000000
_cell_angle_gamma   119.99999838
_symmetry_Int_Tables_number   1
_chemical_formula_structural   Mo3W(Se3S)2
_chemical_formula_sum   'Mo3 W1 Se6 S2'
_cell_volume   351.11486400
_cell_formula_units_Z   1
loop_
 _symmetry_equiv_pos_site_id
 _symmetry_equiv_pos_as_xyz
  1  'x, y, z'
loop_
 _atom_site_type_symbol
 _atom_site_label
 _atom_site_symmetry_multiplicity
 _atom_site_fract_x
 _atom_site_fract_y
 _atom_site_fract_z
 _atom_site_occupancy
  Mo  Mo0  1  0.33333300  0.66666700  0.09390000  1
  Mo  Mo1  1  0.33333300  0.66666700  0.46966800  1
  Mo  Mo2  1  0.66666700  0.33333300  0.65755000  1
  W  W0  1  0.66666700  0.33333300  0.28174100  1
  Se  Se0  1  0.33333300  0.66666700  0.32709700  1
  Se  Se1  1  0.33333300  0.66666700  0.70265400  1
  Se  Se2  1  0.66666700  0.33333300  0.42460900  1
  Se  Se3  1  0.66666700  0.33333300  0.51471500  1
  Se  Se4  1  0.33333300  0.66666700  0.23651200  1
  Se  Se5  1  0.33333300  0.66666700  0.61248600  1
  S  S0  1  0.66666700  0.33333300  0.05284700  1
  S  S1  1  0.66666700  0.33333300  0.13497000  1
loop_
_geom_bond_atom_site_label_1
_geom_bond_atom_site_label_2
_geom_bond_distance
_geom_bond_site_symmetry_2
Mo0 S0 2.443602 1_455
Mo0 S0 2.443602 1_565
Mo0 S0 2.443607 1_555
Mo0 S1 2.444002 1_455
Mo0 S1 2.444002 1_565
Mo0 S1 2.444007 1_555
Mo1 Se3 2.540174 1_455
Mo1 Se3 2.540174 1_565
Mo1 Se3 2.540178 1_555
Mo1 Se2 2.540472 1_565
Mo1 Se2 2.540472 1_455
Mo1 Se2 2.540476 1_555
Mo2 Se5 2.540596 1_545
Mo2 Se5 2.540596 1_655
Mo2 Se5 2.540600 1_555
Mo2 Se1 2.541589 1_655
Mo2 Se1 2.541589 1_545
Mo2 Se1 2.541593 1_555
Se0 W0 2.547858 1_455
Se0 W0 2.547858 1_565
Se0 W0 2.547862 1_555
Se4 W0 2.544696 1_455
Se4 W0 2.544696 1_565
Se4 W0 2.544700 1_555
