# generated using pymatgen
data_Na2Y2B2TeO10
_symmetry_space_group_name_H-M   'P 1'
_cell_length_a   10.07531900
_cell_length_b   6.38790200
_cell_length_c   6.81485718
_cell_angle_alpha   75.76800329
_cell_angle_beta   90.00000000
_cell_angle_gamma   90.00000000
_symmetry_Int_Tables_number   1
_chemical_formula_structural   Na2Y2B2TeO10
_chemical_formula_sum   'Na4 Y4 B4 Te2 O20'
_cell_volume   425.14365236
_cell_formula_units_Z   2
loop_
 _symmetry_equiv_pos_site_id
 _symmetry_equiv_pos_as_xyz
  1  'x, y, z'
loop_
 _atom_site_type_symbol
 _atom_site_label
 _atom_site_symmetry_multiplicity
 _atom_site_fract_x
 _atom_site_fract_y
 _atom_site_fract_z
 _atom_site_occupancy
  Na  Na0  1  0.61082000  0.41574200  0.16608500  1
  Na  Na1  1  0.11082000  0.58425800  0.33391500  1
  Na  Na2  1  0.38918000  0.58425800  0.83391500  1
  Na  Na3  1  0.88918000  0.41574200  0.66608500  1
  Y  Y0  1  0.83393900  0.87306800  0.02379400  1
  Y  Y1  1  0.33393900  0.12693200  0.47620600  1
  Y  Y2  1  0.16606100  0.12693200  0.97620600  1
  Y  Y3  1  0.66606100  0.87306800  0.52379400  1
  B  B0  1  0.39967100  0.66356400  0.37190000  1
  B  B1  1  0.89967100  0.33643600  0.12810000  1
  B  B2  1  0.60032900  0.33643600  0.62810000  1
  B  B3  1  0.10032900  0.66356400  0.87190000  1
  Te  Te0  1  0.50000000  0.00000000  0.00000000  1
  Te  Te1  1  0.00000000  0.00000000  0.50000000  1
  O  O0  1  0.82705800  0.51834700  0.05679500  1
  O  O1  1  0.32705800  0.48165300  0.44320500  1
  O  O2  1  0.17294200  0.48165300  0.94320500  1
  O  O3  1  0.67294200  0.51834700  0.55679500  1
  O  O4  1  0.65006800  0.00499700  0.17704200  1
  O  O5  1  0.15006800  0.99500300  0.32295800  1
  O  O6  1  0.34993200  0.99500300  0.82295800  1
  O  O7  1  0.84993200  0.00499700  0.67704200  1
  O  O8  1  0.43830900  0.70992000  0.16429900  1
  O  O9  1  0.93830900  0.29008000  0.33570100  1
  O  O10  1  0.56169100  0.29008000  0.83570100  1
  O  O11  1  0.06169100  0.70992000  0.66429900  1
  O  O12  1  0.93756700  0.20031500  0.00889600  1
  O  O13  1  0.43756700  0.79968500  0.49110400  1
  O  O14  1  0.06243300  0.79968500  0.99110400  1
  O  O15  1  0.56243300  0.20031500  0.50889600  1
  O  O16  1  0.38489600  0.16254600  0.13453600  1
  O  O17  1  0.88489600  0.83745400  0.36546400  1
  O  O18  1  0.61510400  0.83745400  0.86546400  1
  O  O19  1  0.11510400  0.16254600  0.63453600  1
loop_
_geom_bond_atom_site_label_1
_geom_bond_atom_site_label_2
_geom_bond_distance
_geom_bond_site_symmetry_2
Na0 O0 2.343261 1_555
Na0 O15 2.451223 1_555
Na0 O8 2.557582 1_555
Na0 O10 2.616748 1_554
Na0 O4 2.636272 1_555
Na0 O16 2.830991 1_555
Na0 O18 2.956726 1_554
Na0 O3 2.961258 1_555
Na1 O1 2.343261 1_555
Na1 O14 2.451223 1_554
Na1 O9 2.557582 1_455
Na1 O11 2.616748 1_555
Na1 O5 2.636272 1_555
Na1 O17 2.830991 1_455
Na1 O19 2.956726 1_555
Na1 O2 2.961258 1_554
Na2 O2 2.343261 1_555
Na2 O13 2.451223 1_555
Na2 O10 2.557582 1_555
Na2 O8 2.616748 1_556
Na2 O6 2.636272 1_555
Na2 O18 2.830991 1_555
Na2 O16 2.956726 1_556
Na2 O1 2.961258 1_555
Na3 O3 2.343261 1_555
Na3 O12 2.451223 1_556
Na3 O11 2.557582 1_655
Na3 O9 2.616748 1_555
Na3 O7 2.636272 1_555
Na3 O19 2.830991 1_655
Na3 O17 2.956726 1_555
Na3 O0 2.961258 1_556
B0 O1 1.357953 1_555
B0 O13 1.381704 1_555
B0 O8 1.426471 1_555
B1 O0 1.357953 1_555
B1 O12 1.381704 1_555
B1 O9 1.426471 1_555
B2 O3 1.357953 1_555
B2 O15 1.381704 1_555
B2 O10 1.426471 1_555
B3 O2 1.357953 1_555
B3 O14 1.381704 1_555
B3 O11 1.426471 1_555
O0 Y0 2.222436 1_555
O1 Y1 2.222436 1_555
O2 Y2 2.222436 1_555
O3 Y3 2.222436 1_555
O4 Te0 1.939518 1_555
O4 Y3 2.311075 1_545
O4 Y0 2.380264 1_545
O5 Te1 1.939518 1_565
O5 Y2 2.311075 1_564
O5 Y1 2.380264 1_565
O6 Te0 1.939518 1_566
O6 Y1 2.311075 1_565
O6 Y2 2.380264 1_565
O7 Te1 1.939518 1_655
O7 Y0 2.311075 1_546
O7 Y3 2.380264 1_545
O8 Te0 2.013323 1_565
O9 Te1 2.013323 1_655
O10 Te0 2.013323 1_556
O11 Te1 2.013323 1_565
O12 Y0 2.316448 1_545
O12 Y2 2.370783 1_654
O13 Y1 2.316448 1_565
O13 Y3 2.370783 1_555
O14 Y2 2.316448 1_565
O14 Y0 2.370783 1_456
O15 Y3 2.316448 1_545
O15 Y1 2.370783 1_555
O16 Te0 1.931772 1_555
O16 Y1 2.340188 1_555
O16 Y2 2.489573 1_554
O17 Te1 1.931772 1_665
O17 Y0 2.340188 1_555
O17 Y3 2.489573 1_555
O18 Te0 1.931772 1_566
O18 Y3 2.340188 1_555
O18 Y0 2.489573 1_556
O19 Te1 1.931772 1_555
O19 Y2 2.340188 1_555
O19 Y1 2.489573 1_555
