# generated using pymatgen
data_Ce5Ge4
_symmetry_space_group_name_H-M   'P 1'
_cell_length_a   7.83285400
_cell_length_b   7.92572200
_cell_length_c   14.93257500
_cell_angle_alpha   90.00000000
_cell_angle_beta   90.00000000
_cell_angle_gamma   90.00000000
_symmetry_Int_Tables_number   1
_chemical_formula_structural   Ce5Ge4
_chemical_formula_sum   'Ce20 Ge16'
_cell_volume   927.02953606
_cell_formula_units_Z   4
loop_
 _symmetry_equiv_pos_site_id
 _symmetry_equiv_pos_as_xyz
  1  'x, y, z'
loop_
 _atom_site_type_symbol
 _atom_site_label
 _atom_site_symmetry_multiplicity
 _atom_site_fract_x
 _atom_site_fract_y
 _atom_site_fract_z
 _atom_site_occupancy
  Ce  Ce0  1  0.61300900  0.16360800  0.61822800  1
  Ce  Ce1  1  0.11300900  0.33639200  0.88177200  1
  Ce  Ce2  1  0.38699100  0.83639200  0.11822800  1
  Ce  Ce3  1  0.88699100  0.66360800  0.38177200  1
  Ce  Ce4  1  0.38699100  0.83639200  0.38177200  1
  Ce  Ce5  1  0.88699100  0.66360800  0.11822800  1
  Ce  Ce6  1  0.61300900  0.16360800  0.88177200  1
  Ce  Ce7  1  0.11300900  0.33639200  0.61822800  1
  Ce  Ce8  1  0.47619700  0.68565800  0.60154100  1
  Ce  Ce9  1  0.97619700  0.81434200  0.89845900  1
  Ce  Ce10  1  0.52380300  0.31434200  0.10154100  1
  Ce  Ce11  1  0.02380300  0.18565800  0.39845900  1
  Ce  Ce12  1  0.52380300  0.31434200  0.39845900  1
  Ce  Ce13  1  0.02380300  0.18565800  0.10154100  1
  Ce  Ce14  1  0.47619700  0.68565800  0.89845900  1
  Ce  Ce15  1  0.97619700  0.81434200  0.60154100  1
  Ce  Ce16  1  0.79817300  0.49491300  0.75000000  1
  Ce  Ce17  1  0.29817300  0.00508700  0.75000000  1
  Ce  Ce18  1  0.20182700  0.50508700  0.25000000  1
  Ce  Ce19  1  0.70182700  0.99491300  0.25000000  1
  Ge  Ge0  1  0.72293200  0.96833100  0.45749700  1
  Ge  Ge1  1  0.22293200  0.53166900  0.04250300  1
  Ge  Ge2  1  0.27706800  0.03166900  0.95749700  1
  Ge  Ge3  1  0.77706800  0.46833100  0.54250300  1
  Ge  Ge4  1  0.27706800  0.03166900  0.54250300  1
  Ge  Ge5  1  0.77706800  0.46833100  0.95749700  1
  Ge  Ge6  1  0.72293200  0.96833100  0.04250300  1
  Ge  Ge7  1  0.22293200  0.53166900  0.45749700  1
  Ge  Ge8  1  0.41716000  0.39160300  0.75000000  1
  Ge  Ge9  1  0.91716000  0.10839700  0.75000000  1
  Ge  Ge10  1  0.58284000  0.60839700  0.25000000  1
  Ge  Ge11  1  0.08284000  0.89160300  0.25000000  1
  Ge  Ge12  1  0.67887800  0.86448200  0.75000000  1
  Ge  Ge13  1  0.17887800  0.63551800  0.75000000  1
  Ge  Ge14  1  0.32112200  0.13551800  0.25000000  1
  Ge  Ge15  1  0.82112200  0.36448200  0.25000000  1
loop_
_geom_bond_atom_site_label_1
_geom_bond_atom_site_label_2
_geom_bond_distance
_geom_bond_site_symmetry_2
Ce0 Ge3 2.960227 1_555
Ce0 Ge0 2.982845 1_545
Ce0 Ge4 3.048983 1_555
Ce0 Ge8 3.080664 1_555
Ce0 Ge9 3.120736 1_555
Ce0 Ge12 3.123886 1_545
Ce1 Ge2 2.960227 1_555
Ce1 Ge1 2.982845 1_556
Ce1 Ge5 3.048983 1_455
Ce1 Ge9 3.080664 1_455
Ce1 Ge8 3.120736 1_555
Ce1 Ge13 3.123886 1_555
Ce2 Ge1 2.960227 1_555
Ce2 Ge2 2.982845 1_564
Ce2 Ge6 3.048983 1_555
Ce2 Ge10 3.080664 1_555
Ce2 Ge11 3.120736 1_555
Ce2 Ge14 3.123886 1_565
Ce3 Ge0 2.960227 1_555
Ce3 Ge3 2.982845 1_555
Ce3 Ge7 3.048983 1_655
Ce3 Ge11 3.080664 1_655
Ce3 Ge10 3.120736 1_555
Ce3 Ge15 3.123886 1_555
Ce4 Ge7 2.960227 1_555
Ce4 Ge4 2.982845 1_565
Ce4 Ge0 3.048983 1_555
Ce4 Ge10 3.080664 1_555
Ce4 Ge11 3.120736 1_555
Ce4 Ge14 3.123886 1_565
Ce5 Ge6 2.960227 1_555
Ce5 Ge5 2.982845 1_554
Ce5 Ge1 3.048983 1_655
Ce5 Ge11 3.080664 1_655
Ce5 Ge10 3.120736 1_555
Ce5 Ge15 3.123886 1_555
Ce6 Ge5 2.960227 1_555
Ce6 Ge6 2.982845 1_546
Ce6 Ge2 3.048983 1_555
Ce6 Ge8 3.080664 1_555
Ce6 Ge9 3.120736 1_555
Ce6 Ge12 3.123886 1_545
Ce7 Ge4 2.960227 1_555
Ce7 Ge7 2.982845 1_555
Ce7 Ge3 3.048983 1_455
Ce7 Ge9 3.080664 1_455
Ce7 Ge8 3.120736 1_555
Ce7 Ge13 3.123886 1_555
Ce8 Ge3 3.049270 1_555
Ce8 Ge12 3.073057 1_555
Ce8 Ge7 3.170418 1_555
Ce8 Ge13 3.239758 1_555
Ce8 Ge8 3.249625 1_555
Ce8 Ge4 3.275775 1_565
Ce8 Ge0 3.658006 1_555
Ce9 Ge2 3.049270 1_665
Ce9 Ge13 3.073057 1_655
Ce9 Ge6 3.170418 1_556
Ce9 Ge12 3.239758 1_555
Ce9 Ge9 3.249625 1_565
Ce9 Ge5 3.275775 1_555
Ce9 Ge1 3.658006 1_656
Ce10 Ge1 3.049270 1_555
Ce10 Ge14 3.073057 1_555
Ce10 Ge5 3.170418 1_554
Ce10 Ge15 3.239758 1_555
Ce10 Ge10 3.249625 1_555
Ce10 Ge6 3.275775 1_545
Ce10 Ge2 3.658006 1_554
Ce11 Ge0 3.049270 1_445
Ce11 Ge15 3.073057 1_455
Ce11 Ge4 3.170418 1_555
Ce11 Ge14 3.239758 1_555
Ce11 Ge11 3.249625 1_545
Ce11 Ge7 3.275775 1_555
Ce11 Ge3 3.658006 1_455
Ce12 Ge7 3.049270 1_555
Ce12 Ge14 3.073057 1_555
Ce12 Ge3 3.170418 1_555
Ce12 Ge15 3.239758 1_555
Ce12 Ge10 3.249625 1_555
Ce12 Ge0 3.275775 1_545
Ce12 Ge4 3.658006 1_555
Ce13 Ge6 3.049270 1_445
Ce13 Ge15 3.073057 1_455
Ce13 Ge2 3.170418 1_554
Ce13 Ge14 3.239758 1_555
Ce13 Ge11 3.249625 1_545
Ce13 Ge1 3.275775 1_555
Ce13 Ge5 3.658006 1_454
Ce14 Ge5 3.049270 1_555
Ce14 Ge12 3.073057 1_555
Ce14 Ge1 3.170418 1_556
Ce14 Ge13 3.239758 1_555
Ce14 Ge8 3.249625 1_555
Ce14 Ge2 3.275775 1_565
Ce14 Ge6 3.658006 1_556
Ce15 Ge4 3.049270 1_665
Ce15 Ge13 3.073057 1_655
Ce15 Ge0 3.170418 1_555
Ce15 Ge12 3.239758 1_555
Ce15 Ge9 3.249625 1_565
Ce15 Ge3 3.275775 1_555
Ce15 Ge7 3.658006 1_655
Ce16 Ge12 3.074537 1_555
Ce16 Ge8 3.094705 1_555
Ce16 Ge5 3.110016 1_555
Ce16 Ge3 3.110016 1_555
Ce16 Ge13 3.183433 1_655
Ce16 Ge9 3.202057 1_555
Ce17 Ge13 3.074537 1_545
Ce17 Ge9 3.094705 1_455
Ce17 Ge2 3.110016 1_555
Ce17 Ge4 3.110016 1_555
Ce17 Ge12 3.183433 1_545
Ce17 Ge8 3.202057 1_555
Ce18 Ge14 3.074537 1_555
Ce18 Ge10 3.094705 1_555
Ce18 Ge1 3.110016 1_555
Ce18 Ge7 3.110016 1_555
Ce18 Ge15 3.183433 1_455
Ce18 Ge11 3.202057 1_555
Ce19 Ge15 3.074537 1_565
Ce19 Ge11 3.094705 1_655
Ce19 Ge6 3.110016 1_555
Ce19 Ge0 3.110016 1_555
Ce19 Ge14 3.183433 1_565
Ce19 Ge10 3.202057 1_555
Ge10 Ge15 2.687159 1_555
Ge11 Ge14 2.687159 1_565
Ge12 Ge9 2.687159 1_565
Ge13 Ge8 2.687159 1_555
