# generated using pymatgen
data_CoH20PtC4(NO3)4
_symmetry_space_group_name_H-M   'P 1'
_cell_length_a   9.17717098
_cell_length_b   9.17717098
_cell_length_c   9.17717098
_cell_angle_alpha   134.08435223
_cell_angle_beta   132.01440210
_cell_angle_gamma   68.59032291
_symmetry_Int_Tables_number   1
_chemical_formula_structural   CoH20PtC4(NO3)4
_chemical_formula_sum   'Co1 H20 Pt1 C4 N4 O12'
_cell_volume   405.09602828
_cell_formula_units_Z   1
loop_
 _symmetry_equiv_pos_site_id
 _symmetry_equiv_pos_as_xyz
  1  'x, y, z'
loop_
 _atom_site_type_symbol
 _atom_site_label
 _atom_site_symmetry_multiplicity
 _atom_site_fract_x
 _atom_site_fract_y
 _atom_site_fract_z
 _atom_site_occupancy
  Co  Co0  1  0.50000000  0.50000000  0.00000000  1
  H  H0  1  0.20400300  0.79546000  0.16735200  1
  H  H1  1  0.62810800  0.03665100  0.83264800  1
  H  H2  1  0.79599700  0.96334900  0.59145700  1
  H  H3  1  0.37189200  0.20454000  0.40854300  1
  H  H4  1  0.18856500  0.01450200  0.39077000  1
  H  H5  1  0.62373200  0.79779500  0.60923000  1
  H  H6  1  0.81143500  0.20220500  0.82593700  1
  H  H7  1  0.37626800  0.98549800  0.17406300  1
  H  H8  1  0.99273900  0.81889100  0.12103400  1
  H  H9  1  0.69785700  0.87170500  0.87896600  1
  H  H10  1  0.00726100  0.12829500  0.82615200  1
  H  H11  1  0.30214300  0.18110900  0.17384800  1
  H  H12  1  0.09213400  0.44473700  0.64465900  1
  H  H13  1  0.80007800  0.44747500  0.35534100  1
  H  H14  1  0.90786600  0.55252500  0.35260300  1
  H  H15  1  0.19992200  0.55526300  0.64739700  1
  H  H16  1  0.17934000  0.57377000  0.38556800  1
  H  H17  1  0.18820100  0.79377200  0.61443200  1
  H  H18  1  0.82066000  0.20622800  0.39442900  1
  H  H19  1  0.81179900  0.42623000  0.60557100  1
  Pt  Pt0  1  0.00000000  0.00000000  0.00000000  1
  C  C0  1  0.32086900  0.42855000  0.11223200  1
  C  C1  1  0.31631800  0.20863700  0.88776800  1
  C  C2  1  0.67913100  0.79136300  0.10768100  1
  C  C3  1  0.68368200  0.57145000  0.89231900  1
  N  N0  1  0.11006500  0.89785800  0.19364500  1
  N  N1  1  0.70421300  0.91642000  0.80635500  1
  N  N2  1  0.88993500  0.08358000  0.78779300  1
  N  N3  1  0.29578700  0.10214200  0.21220700  1
  O  O0  1  0.39808900  0.58440700  0.19450700  1
  O  O1  1  0.38990000  0.20358100  0.80549300  1
  O  O2  1  0.60191100  0.79641900  0.18631800  1
  O  O3  1  0.61010000  0.41559300  0.81368200  1
  O  O4  1  0.24903100  0.43344600  0.19317200  1
  O  O5  1  0.24027400  0.05585900  0.80682800  1
  O  O6  1  0.75096900  0.94414100  0.18441500  1
  O  O7  1  0.75972600  0.56655400  0.81558500  1
  O  O8  1  0.22243300  0.50000000  0.72243300  1
  O  O9  1  0.77756700  0.50000000  0.27756700  1
  O  O10  1  0.14363300  0.64363300  0.50000000  1
  O  O11  1  0.85636700  0.35636700  0.50000000  1
loop_
_geom_bond_atom_site_label_1
_geom_bond_atom_site_label_2
_geom_bond_distance
_geom_bond_site_symmetry_2
Co0 O9 2.071559 1_555
Co0 O8 2.071559 1_554
Co0 O3 2.107836 1_554
Co0 O0 2.107836 1_555
Co0 O1 2.107844 1_554
Co0 O2 2.107844 1_555
H0 N0 1.027619 1_555
H1 N1 1.027619 1_545
H2 N2 1.027619 1_565
H3 N3 1.027619 1_555
H4 N0 1.030255 1_545
H5 N1 1.030255 1_555
H6 N2 1.030255 1_555
H7 N3 1.030255 1_565
H8 N0 1.032388 1_655
H9 N1 1.032388 1_555
H10 N2 1.032388 1_455
H11 N3 1.032388 1_555
H12 O8 0.996544 1_555
H13 O9 0.996544 1_555
H14 O9 0.996544 1_555
H15 O8 0.996544 1_555
H16 O10 0.995843 1_555
H17 O10 0.995841 1_555
H18 O11 0.995841 1_555
H19 O11 0.995842 1_555
C0 O4 1.255340 1_555
C0 O0 1.280300 1_555
C1 O5 1.255340 1_555
C1 O1 1.280295 1_555
C2 O6 1.255340 1_555
C2 O2 1.280295 1_555
C3 O7 1.255340 1_555
C3 O3 1.280300 1_555
N0 Pt0 2.069011 1_565
N1 Pt0 2.069011 1_666
N2 Pt0 2.069011 1_656
N3 Pt0 2.069011 1_555
