# generated using pymatgen
data_LiLa4AlO8
_symmetry_space_group_name_H-M   'P 1'
_cell_length_a   6.89493126
_cell_length_b   6.89493126
_cell_length_c   5.39493300
_cell_angle_alpha   90.00000000
_cell_angle_beta   90.00000000
_cell_angle_gamma   134.05069851
_symmetry_Int_Tables_number   1
_chemical_formula_structural   LiLa4AlO8
_chemical_formula_sum   'Li1 La4 Al1 O8'
_cell_volume   184.33533650
_cell_formula_units_Z   1
loop_
 _symmetry_equiv_pos_site_id
 _symmetry_equiv_pos_as_xyz
  1  'x, y, z'
loop_
 _atom_site_type_symbol
 _atom_site_label
 _atom_site_symmetry_multiplicity
 _atom_site_fract_x
 _atom_site_fract_y
 _atom_site_fract_z
 _atom_site_occupancy
  Li  Li0  1  0.00000000  0.00000000  0.00000000  1
  La  La0  1  0.36289600  0.63710400  0.00000000  1
  La  La1  1  0.86387100  0.13612900  0.50000000  1
  La  La2  1  0.13612900  0.86387100  0.50000000  1
  La  La3  1  0.63710400  0.36289600  0.00000000  1
  Al  Al0  1  0.50000000  0.50000000  0.50000000  1
  O  O0  1  0.18036100  0.81963900  0.00000000  1
  O  O1  1  0.67040800  0.32959200  0.50000000  1
  O  O2  1  0.32959200  0.67040800  0.50000000  1
  O  O3  1  0.81963900  0.18036100  0.00000000  1
  O  O4  1  0.25739300  0.25739300  0.26083200  1
  O  O5  1  0.74260700  0.74260700  0.73916800  1
  O  O6  1  0.25739300  0.25739300  0.73916800  1
  O  O7  1  0.74260700  0.74260700  0.26083200  1
loop_
_geom_bond_atom_site_label_1
_geom_bond_atom_site_label_2
_geom_bond_distance
_geom_bond_site_symmetry_2
Li0 O5 1.974721 1_444
Li0 O6 1.974721 1_554
Li0 O4 1.974721 1_555
Li0 O7 1.974721 1_445
Li0 O0 2.289867 1_545
Li0 O3 2.289867 1_455
La0 O0 2.317468 1_555
La0 O6 2.591387 1_554
La0 O4 2.591387 1_555
La0 O7 2.591387 1_555
La0 O5 2.591387 1_554
La0 O2 2.730405 1_554
La0 O2 2.730405 1_555
La0 O3 2.746720 1_565
La0 O3 2.746720 1_455
La1 O1 2.456210 1_555
La1 O7 2.563447 1_545
La1 O4 2.563447 1_655
La1 O6 2.563447 1_655
La1 O5 2.563447 1_545
La1 O2 2.726218 1_655
La1 O2 2.726218 1_545
La1 O3 2.755302 1_555
La1 O3 2.755302 1_556
La2 O2 2.456210 1_555
La2 O7 2.563447 1_455
La2 O4 2.563447 1_565
La2 O6 2.563447 1_565
La2 O5 2.563447 1_455
La2 O1 2.726218 1_565
La2 O1 2.726218 1_455
La2 O0 2.755302 1_555
La2 O0 2.755302 1_556
La3 O3 2.317468 1_555
La3 O6 2.591387 1_554
La3 O4 2.591387 1_555
La3 O7 2.591387 1_555
La3 O5 2.591387 1_554
La3 O1 2.730405 1_555
La3 O1 2.730405 1_554
La3 O0 2.746720 1_655
La3 O0 2.746720 1_545
Al0 O7 1.835774 1_555
Al0 O4 1.835774 1_555
Al0 O5 1.835774 1_555
Al0 O6 1.835774 1_555
Al0 O1 2.163503 1_555
Al0 O2 2.163503 1_555
