# generated using pymatgen
data_CrCu4NiSn2
_symmetry_space_group_name_H-M   'P 1'
_cell_length_a   7.51787856
_cell_length_b   7.51787856
_cell_length_c   7.51787896
_cell_angle_alpha   33.73100025
_cell_angle_beta   33.73100025
_cell_angle_gamma   33.73099867
_symmetry_Int_Tables_number   1
_chemical_formula_structural   CrCu4NiSn2
_chemical_formula_sum   'Cr1 Cu4 Ni1 Sn2'
_cell_volume   116.73468470
_cell_formula_units_Z   1
loop_
 _symmetry_equiv_pos_site_id
 _symmetry_equiv_pos_as_xyz
  1  'x, y, z'
loop_
 _atom_site_type_symbol
 _atom_site_label
 _atom_site_symmetry_multiplicity
 _atom_site_fract_x
 _atom_site_fract_y
 _atom_site_fract_z
 _atom_site_occupancy
  Cr  Cr0  1  0.00000000  0.00000000  0.00000000  1
  Cu  Cu0  1  0.37636200  0.37636200  0.37636200  1
  Cu  Cu1  1  0.87391800  0.87391800  0.87391800  1
  Cu  Cu2  1  0.62363800  0.62363800  0.62363800  1
  Cu  Cu3  1  0.12608200  0.12608200  0.12608200  1
  Ni  Ni0  1  0.50000000  0.50000000  0.50000000  1
  Sn  Sn0  1  0.75044200  0.75044200  0.75044200  1
  Sn  Sn1  1  0.24955800  0.24955800  0.24955800  1
loop_
_geom_bond_atom_site_label_1
_geom_bond_atom_site_label_2
_geom_bond_distance
_geom_bond_site_symmetry_2
Cr0 Cu3 2.679290 1_555
Cr0 Cu1 2.679290 1_444
Cr0 Cu0 2.679403 1_545
Cr0 Cu0 2.679403 1_455
Cr0 Cu2 2.679403 1_454
Cr0 Cu2 2.679403 1_544
Cr0 Cu2 2.679403 1_445
Cr0 Cu0 2.679403 1_554
Cu0 Ni0 2.627354 1_555
Cu0 Sn0 2.663244 1_455
Cu0 Sn0 2.663244 1_545
Cu0 Sn0 2.663244 1_554
Cu0 Sn1 2.694633 1_555
Cu1 Sn0 2.623911 1_555
Cu1 Ni0 2.662127 1_565
Cu1 Ni0 2.662127 1_655
Cu1 Ni0 2.662127 1_556
Cu1 Sn1 2.674206 1_656
Cu1 Sn1 2.674206 1_566
Cu1 Sn1 2.674206 1_665
Cu2 Ni0 2.627354 1_555
Cu2 Sn1 2.663244 1_655
Cu2 Sn1 2.663244 1_565
Cu2 Sn1 2.663244 1_556
Cu2 Sn0 2.694633 1_555
Cu3 Sn1 2.623911 1_555
Cu3 Ni0 2.662127 1_545
Cu3 Ni0 2.662127 1_455
Cu3 Ni0 2.662127 1_554
Cu3 Sn0 2.674206 1_454
Cu3 Sn0 2.674206 1_544
Cu3 Sn0 2.674206 1_445
