# generated using pymatgen
data_La2ZnMoO6
_symmetry_space_group_name_H-M   'P 1'
_cell_length_a   5.65127805
_cell_length_b   5.65127805
_cell_length_c   5.65127818
_cell_angle_alpha   61.69051484
_cell_angle_beta   61.69051484
_cell_angle_gamma   61.69051467
_symmetry_Int_Tables_number   1
_chemical_formula_structural   La2ZnMoO6
_chemical_formula_sum   'La2 Zn1 Mo1 O6'
_cell_volume   132.45830581
_cell_formula_units_Z   1
loop_
 _symmetry_equiv_pos_site_id
 _symmetry_equiv_pos_as_xyz
  1  'x, y, z'
loop_
 _atom_site_type_symbol
 _atom_site_label
 _atom_site_symmetry_multiplicity
 _atom_site_fract_x
 _atom_site_fract_y
 _atom_site_fract_z
 _atom_site_occupancy
  La  La0  1  0.75054500  0.75054500  0.75054500  1
  La  La1  1  0.24945500  0.24945500  0.24945500  1
  Zn  Zn0  1  0.50000000  0.50000000  0.50000000  1
  Mo  Mo0  1  0.00000000  0.00000000  0.00000000  1
  O  O0  1  0.75565600  0.33921100  0.15405200  1
  O  O1  1  0.15405200  0.75565600  0.33921100  1
  O  O2  1  0.33921100  0.15405200  0.75565600  1
  O  O3  1  0.24434400  0.66078900  0.84594800  1
  O  O4  1  0.66078900  0.84594800  0.24434400  1
  O  O5  1  0.84594800  0.24434400  0.66078900  1
loop_
_geom_bond_atom_site_label_1
_geom_bond_atom_site_label_2
_geom_bond_distance
_geom_bond_site_symmetry_2
La0 O2 2.361252 1_565
La0 O0 2.361252 1_556
La0 O1 2.361252 1_655
La0 O5 2.856655 1_565
La0 O3 2.856655 1_655
La0 O4 2.856655 1_556
La0 O3 2.895773 1_555
La0 O5 2.895773 1_555
La0 O4 2.895774 1_555
La1 O4 2.361252 1_545
La1 O3 2.361252 1_554
La1 O5 2.361252 1_455
La1 O1 2.856655 1_545
La1 O0 2.856655 1_455
La1 O2 2.856655 1_554
La1 O0 2.895773 1_555
La1 O1 2.895773 1_555
La1 O2 2.895774 1_555
Mo0 O4 2.066765 1_445
Mo0 O2 2.066765 1_554
Mo0 O0 2.066765 1_455
Mo0 O3 2.066765 1_544
Mo0 O5 2.066765 1_454
Mo0 O1 2.066765 1_545
O0 Zn0 2.120374 1_555
O1 Zn0 2.120374 1_555
O2 Zn0 2.120374 1_555
O3 Zn0 2.120374 1_555
O4 Zn0 2.120374 1_555
O5 Zn0 2.120374 1_555
