# generated using pymatgen
data_BaAl4(SbO6)2
_symmetry_space_group_name_H-M   'P 1'
_cell_length_a   8.25069941
_cell_length_b   8.25069941
_cell_length_c   8.25069941
_cell_angle_alpha   106.44867466
_cell_angle_beta   106.44867466
_cell_angle_gamma   115.70179745
_symmetry_Int_Tables_number   1
_chemical_formula_structural   BaAl4(SbO6)2
_chemical_formula_sum   'Ba2 Al8 Sb4 O24'
_cell_volume   428.48920201
_cell_formula_units_Z   2
loop_
 _symmetry_equiv_pos_site_id
 _symmetry_equiv_pos_as_xyz
  1  'x, y, z'
loop_
 _atom_site_type_symbol
 _atom_site_label
 _atom_site_symmetry_multiplicity
 _atom_site_fract_x
 _atom_site_fract_y
 _atom_site_fract_z
 _atom_site_occupancy
  Ba  Ba0  1  0.21472356  0.21472356  0.00000000  1
  Ba  Ba1  1  0.78527644  0.78527644  0.00000000  1
  Al  Al0  1  0.98465597  0.50055716  0.81601484  1
  Al  Al1  1  0.68454332  0.16864213  0.18398516  1
  Al  Al2  1  0.16864213  0.98465597  0.48409881  1
  Al  Al3  1  0.50055716  0.68454332  0.51590119  1
  Al  Al4  1  0.01534403  0.49944284  0.18398516  1
  Al  Al5  1  0.31545668  0.83135787  0.81601484  1
  Al  Al6  1  0.83135787  0.01534403  0.51590119  1
  Al  Al7  1  0.49944284  0.31545668  0.48409881  1
  Sb  Sb0  1  0.64963338  0.16214978  0.81178416  1
  Sb  Sb1  1  0.35036662  0.83785022  0.18821584  1
  Sb  Sb2  1  0.83785022  0.64963338  0.48748360  1
  Sb  Sb3  1  0.16214978  0.35036662  0.51251640  1
  O  O0  1  0.85061644  0.19956581  0.05018225  1
  O  O1  1  0.14938356  0.80043419  0.94981775  1
  O  O2  1  0.80043419  0.85061644  0.65104963  1
  O  O3  1  0.19956581  0.14938356  0.34895037  1
  O  O4  1  0.17504739  0.53464211  0.04629008  1
  O  O5  1  0.48835303  0.12875831  0.95370992  1
  O  O6  1  0.12875831  0.17504739  0.64040528  1
  O  O7  1  0.53464211  0.48835303  0.35959472  1
  O  O8  1  0.82495261  0.46535789  0.95370992  1
  O  O9  1  0.51164697  0.87124169  0.04629008  1
  O  O10  1  0.87124169  0.82495261  0.35959472  1
  O  O11  1  0.46535789  0.51164697  0.64040528  1
  O  O12  1  0.45236406  0.15773860  0.61010266  1
  O  O13  1  0.54763594  0.84226140  0.38989734  1
  O  O14  1  0.84226140  0.45236406  0.29462546  1
  O  O15  1  0.15773860  0.54763594  0.70537454  1
  O  O16  1  0.78745921  0.49430679  0.63114589  1
  O  O17  1  0.86316090  0.15631332  0.36885411  1
  O  O18  1  0.15631332  0.78745921  0.29315242  1
  O  O19  1  0.49430679  0.86316090  0.70684758  1
  O  O20  1  0.21254079  0.50569321  0.36885411  1
  O  O21  1  0.13683910  0.84368668  0.63114589  1
  O  O22  1  0.84368668  0.21254079  0.70684758  1
  O  O23  1  0.50569321  0.13683910  0.29315242  1
loop_
_geom_bond_atom_site_label_1
_geom_bond_atom_site_label_2
_geom_bond_distance
_geom_bond_site_symmetry_2
Ba0 O4 2.733063 1_555
Ba0 O6 2.733064 1_554
Ba0 O7 2.733064 1_555
Ba0 O5 2.733067 1_554
Ba0 O1 3.101574 1_544
Ba0 O0 3.101574 1_455
Ba0 O2 3.101577 1_444
Ba0 O3 3.101582 1_555
Ba1 O8 2.733063 1_554
Ba1 O10 2.733064 1_555
Ba1 O11 2.733064 1_554
Ba1 O9 2.733067 1_555
Ba1 O0 3.101574 1_565
Ba1 O1 3.101574 1_654
Ba1 O3 3.101577 1_665
Ba1 O2 3.101582 1_554
Al0 O16 1.858395 1_555
Al0 O15 1.865865 1_655
Al0 O22 1.899552 1_555
Al0 O4 1.944350 1_656
Al0 O8 1.952932 1_555
Al0 O1 1.968323 1_655
Al1 O17 1.858395 1_555
Al1 O14 1.865858 1_555
Al1 O23 1.899558 1_555
Al1 O5 1.944350 1_554
Al1 O9 1.952945 1_545
Al1 O0 1.968316 1_555
Al2 O18 1.858390 1_555
Al2 O12 1.865858 1_565
Al2 O21 1.899552 1_555
Al2 O6 1.944350 1_565
Al2 O10 1.952945 1_455
Al2 O3 1.968316 1_565
Al3 O19 1.858390 1_555
Al3 O13 1.865858 1_555
Al3 O20 1.899552 1_555
Al3 O7 1.944350 1_555
Al3 O11 1.952945 1_555
Al3 O2 1.968323 1_555
Al4 O20 1.858395 1_555
Al4 O14 1.865865 1_455
Al4 O18 1.899552 1_555
Al4 O8 1.944350 1_454
Al4 O4 1.952932 1_555
Al4 O0 1.968323 1_455
Al5 O21 1.858395 1_555
Al5 O15 1.865858 1_555
Al5 O19 1.899558 1_555
Al5 O9 1.944350 1_556
Al5 O5 1.952945 1_565
Al5 O1 1.968316 1_555
Al6 O22 1.858390 1_555
Al6 O13 1.865858 1_545
Al6 O17 1.899552 1_555
Al6 O10 1.944350 1_545
Al6 O6 1.952945 1_655
Al6 O2 1.968316 1_545
Al7 O23 1.858390 1_555
Al7 O12 1.865858 1_555
Al7 O16 1.899552 1_555
Al7 O11 1.944350 1_555
Al7 O7 1.952945 1_555
Al7 O3 1.968323 1_555
O0 Sb0 2.019642 1_554
O1 Sb1 2.019642 1_556
O2 Sb2 2.019644 1_555
O3 Sb3 2.019644 1_555
O4 Sb1 1.991232 1_555
O5 Sb0 1.991219 1_555
O6 Sb3 1.991233 1_555
O7 Sb2 1.991233 1_555
O8 Sb0 1.991232 1_555
O9 Sb1 1.991219 1_555
O10 Sb2 1.991233 1_555
O11 Sb3 1.991233 1_555
O12 Sb0 1.949338 1_555
O13 Sb1 1.949338 1_555
O14 Sb2 1.949333 1_555
O15 Sb3 1.949333 1_555
O16 Sb2 1.974180 1_555
O17 Sb3 1.974180 1_655
O18 Sb1 1.974186 1_555
O19 Sb0 1.974179 1_565
O20 Sb3 1.974180 1_555
O21 Sb2 1.974180 1_455
O22 Sb0 1.974186 1_555
O23 Sb1 1.974179 1_545
