# generated using pymatgen
data_Ag3As2C3Se5N
_symmetry_space_group_name_H-M   'P 1'
_cell_length_a   10.58297090
_cell_length_b   12.38368750
_cell_length_c   6.87834525
_cell_angle_alpha   105.28943734
_cell_angle_beta   108.34463950
_cell_angle_gamma   86.85381078
_symmetry_Int_Tables_number   1
_chemical_formula_structural   Ag3As2C3Se5N
_chemical_formula_sum   'Ag6 As4 C6 Se10 N2'
_cell_volume   824.96514339
_cell_formula_units_Z   2
loop_
 _symmetry_equiv_pos_site_id
 _symmetry_equiv_pos_as_xyz
  1  'x, y, z'
loop_
 _atom_site_type_symbol
 _atom_site_label
 _atom_site_symmetry_multiplicity
 _atom_site_fract_x
 _atom_site_fract_y
 _atom_site_fract_z
 _atom_site_occupancy
  Ag  Ag0  1  0.18948300  0.81343300  0.70333100  1
  Ag  Ag1  1  0.81051700  0.18656700  0.29666900  1
  Ag  Ag2  1  0.38074900  0.06143600  0.04670600  1
  Ag  Ag3  1  0.61925100  0.93856400  0.95329400  1
  Ag  Ag4  1  0.06845000  0.81518600  0.15736000  1
  Ag  Ag5  1  0.93155000  0.18481400  0.84264000  1
  As  As0  1  0.41259200  0.88615800  0.39858600  1
  As  As1  1  0.58740800  0.11384200  0.60141400  1
  As  As2  1  0.80850200  0.91419300  0.63469500  1
  As  As3  1  0.19149800  0.08580700  0.36530500  1
  C  C0  1  0.67800000  0.44221200  0.21147200  1
  C  C1  1  0.32200000  0.55778800  0.78852800  1
  C  C2  1  0.75069300  0.62315900  0.18193600  1
  C  C3  1  0.24930700  0.37684100  0.81806400  1
  C  C4  1  0.78590100  0.71653300  0.18512700  1
  C  C5  1  0.21409900  0.28346700  0.81487300  1
  Se  Se0  1  0.27253200  0.73320900  0.37767600  1
  Se  Se1  1  0.72746800  0.26679100  0.62232400  1
  Se  Se2  1  0.96227800  0.77854600  0.75041900  1
  Se  Se3  1  0.03772200  0.22145400  0.24958100  1
  Se  Se4  1  0.41455700  0.84581700  0.03390300  1
  Se  Se5  1  0.58544300  0.15418300  0.96609700  1
  Se  Se6  1  0.38141000  0.20590700  0.42378300  1
  Se  Se7  1  0.61859000  0.79409300  0.57621700  1
  Se  Se8  1  0.17041100  0.13601700  0.75646800  1
  Se  Se9  1  0.82958900  0.86398300  0.24353200  1
  N  N0  1  0.71351400  0.52629800  0.18730400  1
  N  N1  1  0.28648600  0.47370200  0.81269600  1
loop_
_geom_bond_atom_site_label_1
_geom_bond_atom_site_label_2
_geom_bond_distance
_geom_bond_site_symmetry_2
Ag0 Se0 2.597437 1_555
Ag0 Se2 2.598314 1_455
Ag0 Se4 2.686888 1_556
Ag1 Se1 2.597437 1_555
Ag1 Se3 2.598314 1_655
Ag1 Se5 2.686888 1_554
Ag2 Se4 2.656401 1_545
Ag2 Se6 2.733255 1_555
Ag2 Se5 2.772063 1_554
Ag2 Se8 2.782625 1_554
Ag3 Se5 2.656401 1_565
Ag3 Se7 2.733255 1_555
Ag3 Se4 2.772063 1_556
Ag3 Se9 2.782625 1_556
Ag4 Se0 2.549943 1_555
Ag4 Se2 2.590303 1_454
Ag4 Se9 2.773646 1_455
Ag5 Se1 2.549943 1_555
Ag5 Se3 2.590303 1_656
Ag5 Se8 2.773646 1_655
As0 Se0 2.415693 1_555
As0 Se4 2.431657 1_555
As0 Se7 2.516053 1_555
As1 Se1 2.415693 1_555
As1 Se5 2.431657 1_555
As1 Se6 2.516053 1_555
As2 Se2 2.386108 1_555
As2 Se7 2.432482 1_555
As2 Se9 2.675056 1_555
As3 Se3 2.386108 1_555
As3 Se6 2.432482 1_555
As3 Se8 2.675056 1_555
C0 N0 1.194473 1_555
C1 N1 1.194473 1_555
C2 C4 1.226841 1_555
C2 N0 1.295869 1_555
C3 C5 1.226841 1_555
C3 N1 1.295869 1_555
C4 Se9 1.816101 1_555
C5 Se8 1.816101 1_555
