# generated using pymatgen
data_Cr(WO4)3
_symmetry_space_group_name_H-M   'P 1'
_cell_length_a   5.26989200
_cell_length_b   5.38640029
_cell_length_c   7.53658027
_cell_angle_alpha   91.55465828
_cell_angle_beta   90.00513159
_cell_angle_gamma   90.01893407
_symmetry_Int_Tables_number   1
_chemical_formula_structural   Cr(WO4)3
_chemical_formula_sum   'Cr1 W3 O12'
_cell_volume   213.85270555
_cell_formula_units_Z   1
loop_
 _symmetry_equiv_pos_site_id
 _symmetry_equiv_pos_as_xyz
  1  'x, y, z'
loop_
 _atom_site_type_symbol
 _atom_site_label
 _atom_site_symmetry_multiplicity
 _atom_site_fract_x
 _atom_site_fract_y
 _atom_site_fract_z
 _atom_site_occupancy
  Cr  Cr0  1  0.50190900  0.56041500  0.46917500  1
  W  W0  1  0.99944200  0.99523700  0.00477200  1
  W  W1  1  0.01012000  0.05694900  0.50327800  1
  W  W2  1  0.49185900  0.49579400  0.96889000  1
  O  O0  1  0.29743400  0.22579100  0.46289900  1
  O  O1  1  0.06652600  0.99150000  0.75040100  1
  O  O2  1  0.28608800  0.78081600  0.03851400  1
  O  O3  1  0.22766700  0.71307400  0.45645500  1
  O  O4  1  0.78392300  0.70718600  0.96515100  1
  O  O5  1  0.42086600  0.50143100  0.73824300  1
  O  O6  1  0.57819400  0.50800500  0.25866900  1
  O  O7  1  0.21193200  0.28278800  0.03623900  1
  O  O8  1  0.78563400  0.30235000  0.53801600  1
  O  O9  1  0.70943500  0.20925600  0.96681200  1
  O  O10  1  0.92672600  0.99473900  0.25447500  1
  O  O11  1  0.70224400  0.78426900  0.53321100  1
loop_
_geom_bond_atom_site_label_1
_geom_bond_atom_site_label_2
_geom_bond_distance
_geom_bond_site_symmetry_2
Cr0 O6 1.653531 1_555
Cr0 O11 1.663994 1_555
Cr0 O3 1.667049 1_555
Cr0 O0 2.099088 1_555
Cr0 O5 2.104888 1_555
Cr0 O8 2.115983 1_555
O0 W1 1.796230 1_555
O1 W1 1.927953 1_565
O1 W0 1.949011 1_456
O2 W0 1.922891 1_455
O2 W2 1.940542 1_554
O3 W1 2.199024 1_565
O4 W2 1.914905 1_555
O4 W0 1.939095 1_556
O5 W2 1.779128 1_555
O6 W2 2.230010 1_554
O7 W0 1.920430 1_445
O7 W2 1.944429 1_554
O8 W1 1.788187 1_655
O9 W2 1.922736 1_555
O9 W0 1.940483 1_546
O10 W0 1.920632 1_555
O10 W1 1.946066 1_665
O11 W1 2.203871 1_665
