# generated using pymatgen
data_Rb2CrCl5O
_symmetry_space_group_name_H-M   'P 1'
_cell_length_a   7.13877300
_cell_length_b   10.19424400
_cell_length_c   14.15213200
_cell_angle_alpha   90.00000000
_cell_angle_beta   90.00000000
_cell_angle_gamma   90.00000000
_symmetry_Int_Tables_number   1
_chemical_formula_structural   Rb2CrCl5O
_chemical_formula_sum   'Rb8 Cr4 Cl20 O4'
_cell_volume   1029.91282760
_cell_formula_units_Z   4
loop_
 _symmetry_equiv_pos_site_id
 _symmetry_equiv_pos_as_xyz
  1  'x, y, z'
loop_
 _atom_site_type_symbol
 _atom_site_label
 _atom_site_symmetry_multiplicity
 _atom_site_fract_x
 _atom_site_fract_y
 _atom_site_fract_z
 _atom_site_occupancy
  Rb  Rb0  1  0.69613700  0.99854500  0.14146500  1
  Rb  Rb1  1  0.80386300  0.50145500  0.64146500  1
  Rb  Rb2  1  0.30386300  0.49854500  0.85853500  1
  Rb  Rb3  1  0.19613700  0.00145500  0.35853500  1
  Rb  Rb4  1  0.30386300  0.00145500  0.85853500  1
  Rb  Rb5  1  0.19613700  0.49854500  0.35853500  1
  Rb  Rb6  1  0.69613700  0.50145500  0.14146500  1
  Rb  Rb7  1  0.80386300  0.99854500  0.64146500  1
  Cr  Cr0  1  0.69059400  0.75000000  0.39875100  1
  Cr  Cr1  1  0.80940600  0.75000000  0.89875100  1
  Cr  Cr2  1  0.30940600  0.25000000  0.60124900  1
  Cr  Cr3  1  0.19059400  0.25000000  0.10124900  1
  Cl  Cl0  1  0.95368700  0.75000000  0.49733700  1
  Cl  Cl1  1  0.54631300  0.75000000  0.99733700  1
  Cl  Cl2  1  0.04631300  0.25000000  0.50266300  1
  Cl  Cl3  1  0.45368700  0.25000000  0.00266300  1
  Cl  Cl4  1  0.92420400  0.75000000  0.26695700  1
  Cl  Cl5  1  0.57579600  0.75000000  0.76695700  1
  Cl  Cl6  1  0.07579600  0.25000000  0.73304300  1
  Cl  Cl7  1  0.42420400  0.25000000  0.23304300  1
  Cl  Cl8  1  0.46981000  0.75000000  0.27541700  1
  Cl  Cl9  1  0.03019000  0.75000000  0.77541700  1
  Cl  Cl10  1  0.53019000  0.25000000  0.72458300  1
  Cl  Cl11  1  0.96981000  0.25000000  0.22458300  1
  Cl  Cl12  1  0.70650000  0.97961500  0.39032700  1
  Cl  Cl13  1  0.79350000  0.52038500  0.89032800  1
  Cl  Cl14  1  0.29350000  0.47961500  0.60967200  1
  Cl  Cl15  1  0.20650000  0.02038500  0.10967300  1
  Cl  Cl16  1  0.29350000  0.02038500  0.60967200  1
  Cl  Cl17  1  0.20650000  0.47961500  0.10967300  1
  Cl  Cl18  1  0.70650000  0.52038500  0.39032700  1
  Cl  Cl19  1  0.79350000  0.97961500  0.89032800  1
  O  O0  1  0.53624300  0.75000000  0.48113300  1
  O  O1  1  0.96375700  0.75000000  0.98113300  1
  O  O2  1  0.46375700  0.25000000  0.51886700  1
  O  O3  1  0.03624300  0.25000000  0.01886700  1
loop_
_geom_bond_atom_site_label_1
_geom_bond_atom_site_label_2
_geom_bond_distance
_geom_bond_site_symmetry_2
Cr0 O0 1.604185 1_555
Cr1 O1 1.604185 1_555
Cr2 O2 1.604185 1_555
Cr3 O3 1.604185 1_555
Cl0 Cr0 2.339675 1_555
Cl0 Rb7 3.424060 1_555
Cl0 Rb1 3.424060 1_555
Cl0 Rb3 3.664054 1_665
Cl0 Rb5 3.664054 1_655
Cl1 Cr1 2.339675 1_555
Cl1 Rb0 3.424060 1_556
Cl1 Rb6 3.424060 1_556
Cl1 Rb4 3.664054 1_565
Cl1 Rb2 3.664054 1_555
Cl2 Cr2 2.339675 1_555
Cl2 Rb5 3.424060 1_555
Cl2 Rb3 3.424060 1_555
Cl2 Rb1 3.664054 1_455
Cl2 Rb7 3.664054 1_445
Cl3 Cr3 2.339675 1_555
Cl3 Rb2 3.424060 1_554
Cl3 Rb4 3.424060 1_554
Cl3 Rb6 3.664054 1_555
Cl3 Rb0 3.664054 1_545
Cl4 Cr0 2.502005 1_555
Cl4 Rb3 3.466870 1_665
Cl4 Rb5 3.466870 1_655
Cl4 Rb0 3.496377 1_555
Cl4 Rb6 3.496377 1_555
Cl5 Cr1 2.502005 1_555
Cl5 Rb4 3.466870 1_565
Cl5 Rb2 3.466870 1_555
Cl5 Rb7 3.496377 1_555
Cl5 Rb1 3.496377 1_555
Cl6 Cr2 2.502005 1_555
Cl6 Rb1 3.466870 1_455
Cl6 Rb7 3.466870 1_445
Cl6 Rb2 3.496377 1_555
Cl6 Rb4 3.496377 1_555
Cl7 Cr3 2.502005 1_555
Cl7 Rb6 3.466870 1_555
Cl7 Rb0 3.466870 1_545
Cl7 Rb5 3.496377 1_555
Cl7 Rb3 3.496377 1_555
Cl8 Cr0 2.351751 1_555
Cl8 Rb3 3.430971 1_565
Cl8 Rb5 3.430971 1_555
Cl8 Rb0 3.553021 1_555
Cl8 Rb6 3.553021 1_555
Cl9 Cr1 2.351751 1_455
Cl9 Rb4 3.430971 1_565
Cl9 Rb2 3.430971 1_555
Cl9 Rb7 3.553021 1_455
Cl9 Rb1 3.553021 1_455
Cl10 Cr2 2.351751 1_555
Cl10 Rb1 3.430971 1_555
Cl10 Rb7 3.430971 1_545
Cl10 Rb2 3.553021 1_555
Cl10 Rb4 3.553021 1_555
Cl11 Cr3 2.351751 1_655
Cl11 Rb6 3.430971 1_555
Cl11 Rb0 3.430971 1_545
Cl11 Rb5 3.553021 1_655
Cl11 Rb3 3.553021 1_655
Cl12 Cr0 2.346534 1_555
Cl12 Rb0 3.527987 1_555
Cl12 Rb3 3.531271 1_665
Cl12 Rb7 3.626601 1_555
Cl12 Rb3 3.677787 1_565
Cl13 Cr1 2.346534 1_555
Cl13 Rb1 3.528001 1_555
Cl13 Rb2 3.531273 1_555
Cl13 Rb6 3.626587 1_556
Cl13 Rb2 3.677788 1_655
Cl14 Cr2 2.346534 1_555
Cl14 Rb2 3.528001 1_555
Cl14 Rb1 3.531273 1_455
Cl14 Rb5 3.626587 1_555
Cl14 Rb1 3.677788 1_555
Cl15 Cr3 2.346534 1_555
Cl15 Rb3 3.527987 1_555
Cl15 Rb0 3.531271 1_545
Cl15 Rb4 3.626601 1_554
Cl15 Rb0 3.677787 1_445
Cl16 Cr2 2.346534 1_555
Cl16 Rb4 3.528001 1_555
Cl16 Rb7 3.531273 1_445
Cl16 Rb3 3.626587 1_555
Cl16 Rb7 3.677788 1_545
Cl17 Cr3 2.346534 1_555
Cl17 Rb5 3.527987 1_555
Cl17 Rb6 3.531271 1_555
Cl17 Rb2 3.626601 1_554
Cl17 Rb6 3.677787 1_455
Cl18 Cr0 2.346534 1_555
Cl18 Rb6 3.527987 1_555
Cl18 Rb5 3.531271 1_655
Cl18 Rb1 3.626601 1_555
Cl18 Rb5 3.677787 1_555
Cl19 Cr1 2.346534 1_555
Cl19 Rb7 3.528001 1_555
Cl19 Rb4 3.531273 1_565
Cl19 Rb0 3.626587 1_556
Cl19 Rb4 3.677788 1_665
