# generated using pymatgen
data_SnPbS2
_symmetry_space_group_name_H-M   'P 1'
_cell_length_a   4.09993600
_cell_length_b   4.42535100
_cell_length_c   11.70174300
_cell_angle_alpha   90.00000000
_cell_angle_beta   90.00000000
_cell_angle_gamma   90.00000000
_symmetry_Int_Tables_number   1
_chemical_formula_structural   SnPbS2
_chemical_formula_sum   'Sn2 Pb2 S4'
_cell_volume   212.31239816
_cell_formula_units_Z   2
loop_
 _symmetry_equiv_pos_site_id
 _symmetry_equiv_pos_as_xyz
  1  'x, y, z'
loop_
 _atom_site_type_symbol
 _atom_site_label
 _atom_site_symmetry_multiplicity
 _atom_site_fract_x
 _atom_site_fract_y
 _atom_site_fract_z
 _atom_site_occupancy
  Sn  Sn0  1  0.50000000  0.37014000  0.37296700  1
  Sn  Sn1  1  0.50000000  0.62986000  0.87296700  1
  Pb  Pb0  1  0.00000000  0.13994100  0.61751700  1
  Pb  Pb1  1  0.00000000  0.86005900  0.11751700  1
  S  S0  1  0.00000000  0.24198800  0.85543600  1
  S  S1  1  0.00000000  0.75801200  0.35543600  1
  S  S2  1  0.50000000  0.28633500  0.15408100  1
  S  S3  1  0.50000000  0.71366500  0.65408100  1
loop_
_geom_bond_atom_site_label_1
_geom_bond_atom_site_label_2
_geom_bond_distance
_geom_bond_site_symmetry_2
Pb0 S3 2.818514 1_445
Pb0 S3 2.818514 1_545
Pb0 S0 2.820455 1_555
Pb1 S2 2.818514 1_465
Pb1 S2 2.818514 1_565
Pb1 S1 2.820455 1_555
S0 Sn1 2.681552 1_555
S0 Sn1 2.681552 1_455
S1 Sn0 2.681552 1_555
S1 Sn0 2.681552 1_455
S2 Sn0 2.588058 1_555
S3 Sn1 2.588058 1_555
