# generated using pymatgen
data_Mg2CoMo3S8
_symmetry_space_group_name_H-M   'P 1'
_cell_length_a   7.25860237
_cell_length_b   7.25897897
_cell_length_c   7.25897496
_cell_angle_alpha   61.13433832
_cell_angle_beta   61.13255843
_cell_angle_gamma   61.13546657
_symmetry_Int_Tables_number   1
_chemical_formula_structural   Mg2CoMo3S8
_chemical_formula_sum   'Mg2 Co1 Mo3 S8'
_cell_volume   277.35378677
_cell_formula_units_Z   1
loop_
 _symmetry_equiv_pos_site_id
 _symmetry_equiv_pos_as_xyz
  1  'x, y, z'
loop_
 _atom_site_type_symbol
 _atom_site_label
 _atom_site_symmetry_multiplicity
 _atom_site_fract_x
 _atom_site_fract_y
 _atom_site_fract_z
 _atom_site_occupancy
  Mg  Mg0  1  0.87805000  0.87802100  0.87803000  1
  Mg  Mg1  1  0.12194800  0.12198400  0.12196900  1
  Co  Co0  1  0.50000200  0.50000400  0.49999300  1
  Mo  Mo0  1  0.50000300  0.49999500  0.00000100  1
  Mo  Mo1  1  0.00000100  0.49999400  0.50000900  1
  Mo  Mo2  1  0.50000200  0.99999600  0.50000600  1
  S  S0  1  0.73990500  0.73993100  0.73993100  1
  S  S1  1  0.27032800  0.27029100  0.71187300  1
  S  S2  1  0.27034100  0.71187300  0.27030000  1
  S  S3  1  0.71185900  0.27030700  0.27029900  1
  S  S4  1  0.72964800  0.28813300  0.72968700  1
  S  S5  1  0.28814100  0.72968800  0.72969400  1
  S  S6  1  0.26009300  0.26006400  0.26008100  1
  S  S7  1  0.72968500  0.72971300  0.28812800  1
loop_
_geom_bond_atom_site_label_1
_geom_bond_atom_site_label_2
_geom_bond_distance
_geom_bond_site_symmetry_2
Mg0 S0 2.434427 1_555
Mg0 S5 2.471752 1_655
Mg0 S7 2.471880 1_556
Mg0 S4 2.472073 1_565
Mg1 S6 2.434445 1_555
Mg1 S3 2.471734 1_455
Mg1 S1 2.471875 1_554
Mg1 S2 2.472058 1_545
Co0 S4 2.378347 1_555
Co0 S2 2.378421 1_555
Co0 S1 2.378494 1_555
Co0 S7 2.378523 1_555
Co0 S5 2.378591 1_555
Co0 S3 2.378623 1_555
Mo0 S0 2.491804 1_554
Mo0 S6 2.491824 1_555
Mo0 S3 2.504755 1_555
Mo0 S5 2.504833 1_554
Mo0 S2 2.504855 1_555
Mo0 S4 2.504861 1_554
Mo1 S6 2.492010 1_555
Mo1 S0 2.492017 1_455
Mo1 S1 2.504934 1_555
Mo1 S4 2.504953 1_455
Mo1 S7 2.504955 1_455
Mo1 S2 2.504967 1_555
Mo2 S0 2.491864 1_555
Mo2 S6 2.491895 1_565
Mo2 S3 2.504732 1_565
Mo2 S5 2.504736 1_555
Mo2 S7 2.504779 1_555
Mo2 S1 2.504792 1_565
