# generated using pymatgen
data_Ce4CrS7
_symmetry_space_group_name_H-M   'P 1'
_cell_length_a   6.84623459
_cell_length_b   9.69841269
_cell_length_c   9.79980761
_cell_angle_alpha   118.77724897
_cell_angle_beta   90.00000000
_cell_angle_gamma   90.00000000
_symmetry_Int_Tables_number   1
_chemical_formula_structural   Ce4CrS7
_chemical_formula_sum   'Ce8 Cr2 S14'
_cell_volume   570.32297823
_cell_formula_units_Z   2
loop_
 _symmetry_equiv_pos_site_id
 _symmetry_equiv_pos_as_xyz
  1  'x, y, z'
loop_
 _atom_site_type_symbol
 _atom_site_label
 _atom_site_symmetry_multiplicity
 _atom_site_fract_x
 _atom_site_fract_y
 _atom_site_fract_z
 _atom_site_occupancy
  Ce  Ce0  1  0.27580440  0.23050435  0.37977123  1
  Ce  Ce1  1  0.24080600  0.62262924  0.83674915  1
  Ce  Ce2  1  0.28884948  0.15796684  0.78880817  1
  Ce  Ce3  1  0.77580440  0.76949565  0.62022877  1
  Ce  Ce4  1  0.74080600  0.37737076  0.16325085  1
  Ce  Ce5  1  0.78884948  0.84203316  0.21119183  1
  Ce  Ce6  1  0.80271823  0.25792131  0.62932481  1
  Ce  Ce7  1  0.30271823  0.74207869  0.37067519  1
  Cr  Cr0  1  0.46621905  0.01123167  0.02418692  1
  Cr  Cr1  1  0.96621905  0.98876833  0.97581308  1
  S  S0  1  0.67404883  0.14895676  0.27326968  1
  S  S1  1  0.69330352  0.78242529  0.90901598  1
  S  S2  1  0.68683017  0.10259549  0.87569476  1
  S  S3  1  0.17404883  0.85104324  0.72673032  1
  S  S4  1  0.19330352  0.21757471  0.09098402  1
  S  S5  1  0.18683017  0.89740451  0.12430524  1
  S  S6  1  0.08338013  0.03738902  0.49611445  1
  S  S7  1  0.99892988  0.46651722  0.56050779  1
  S  S8  1  0.00956608  0.41868952  0.90262928  1
  S  S9  1  0.58338013  0.96261098  0.50388555  1
  S  S10  1  0.49892988  0.53348278  0.43949221  1
  S  S11  1  0.50956608  0.58131048  0.09737072  1
  S  S12  1  0.43354421  0.35017401  0.67723278  1
  S  S13  1  0.93354421  0.64982599  0.32276722  1
loop_
_geom_bond_atom_site_label_1
_geom_bond_atom_site_label_2
_geom_bond_distance
_geom_bond_site_symmetry_2
Ce0 S12 2.784498 1_555
Ce0 S4 2.828833 1_555
Ce0 S7 2.840089 1_455
Ce0 S0 2.890279 1_555
Ce0 S6 2.932437 1_555
Ce0 S5 3.047638 1_545
Ce0 S10 3.107166 1_555
Ce1 S12 2.681418 1_555
Ce1 S5 2.819379 1_556
Ce1 S8 2.839826 1_555
Ce1 S7 2.901148 1_455
Ce1 S3 2.928865 1_555
Ce1 S11 3.324861 1_556
Ce1 S1 3.382840 1_555
Ce2 S12 2.759385 1_555
Ce2 S4 2.807656 1_556
Ce2 S3 2.846905 1_545
Ce2 S6 2.888626 1_555
Ce2 S8 2.928873 1_555
Ce2 S2 2.979506 1_555
Ce2 S9 3.218461 1_545
Ce3 S13 2.784498 1_555
Ce3 S1 2.828833 1_555
Ce3 S10 2.840089 1_555
Ce3 S3 2.890279 1_655
Ce3 S9 2.932437 1_555
Ce3 S2 3.047638 1_565
Ce3 S7 3.107166 1_555
Ce4 S13 2.681418 1_555
Ce4 S2 2.819379 1_554
Ce4 S11 2.839826 1_555
Ce4 S10 2.901148 1_555
Ce4 S0 2.928865 1_555
Ce4 S8 3.324861 1_654
Ce4 S4 3.382840 1_655
Ce5 S13 2.759385 1_555
Ce5 S1 2.807656 1_554
Ce5 S0 2.846905 1_565
Ce5 S9 2.888626 1_555
Ce5 S11 2.928873 1_555
Ce5 S5 2.979506 1_655
Ce5 S6 3.218461 1_665
Ce6 S12 2.646601 1_555
Ce6 S6 2.698613 1_655
Ce6 S8 2.754856 1_655
Ce6 S7 2.768684 1_555
Ce6 S9 2.928994 1_545
Ce6 S0 3.243073 1_555
Ce6 S2 3.497110 1_555
Ce7 S13 2.646601 1_455
Ce7 S9 2.698613 1_555
Ce7 S11 2.754856 1_555
Ce7 S10 2.768684 1_555
Ce7 S6 2.928994 1_565
Ce7 S3 3.243073 1_555
Ce7 S5 3.497110 1_555
Cr0 S1 2.490719 1_544
Cr0 S2 2.534834 1_554
Cr0 S0 2.574444 1_555
Cr0 S4 2.581301 1_555
Cr0 S5 2.623514 1_545
Cr1 S4 2.490719 1_666
Cr1 S5 2.534834 1_656
Cr1 S3 2.574444 1_655
Cr1 S1 2.581301 1_555
Cr1 S2 2.623514 1_565
