# generated using pymatgen
data_Ti3WC3N
_symmetry_space_group_name_H-M   'P 1'
_cell_length_a   10.21341438
_cell_length_b   10.21341438
_cell_length_c   10.21341506
_cell_angle_alpha   17.23250785
_cell_angle_beta   17.23250785
_cell_angle_gamma   17.23250585
_symmetry_Int_Tables_number   1
_chemical_formula_structural   Ti3WC3N
_chemical_formula_sum   'Ti3 W1 C3 N1'
_cell_volume   81.58705316
_cell_formula_units_Z   1
loop_
 _symmetry_equiv_pos_site_id
 _symmetry_equiv_pos_as_xyz
  1  'x, y, z'
loop_
 _atom_site_type_symbol
 _atom_site_label
 _atom_site_symmetry_multiplicity
 _atom_site_fract_x
 _atom_site_fract_y
 _atom_site_fract_z
 _atom_site_occupancy
  Ti  Ti0  1  0.99861600  0.99861600  0.99861600  1
  Ti  Ti1  1  0.24979600  0.24979600  0.24979600  1
  Ti  Ti2  1  0.50061100  0.50061100  0.50061100  1
  W  W0  1  0.75126200  0.75126200  0.75126200  1
  C  C0  1  0.62569700  0.62569700  0.62569700  1
  C  C1  1  0.87514500  0.87514500  0.87514500  1
  C  C2  1  0.12501500  0.12501500  0.12501500  1
  N  N0  1  0.37385800  0.37385800  0.37385800  1
loop_
_geom_bond_atom_site_label_1
_geom_bond_atom_site_label_2
_geom_bond_distance
_geom_bond_site_symmetry_2
C0 Ti0 2.132808 1_554
C0 Ti0 2.132808 1_455
C0 Ti0 2.132808 1_545
C0 Ti1 2.184486 1_556
C0 Ti1 2.184487 1_655
C0 Ti1 2.184487 1_565
C1 Ti2 2.160484 1_556
C1 Ti2 2.160484 1_565
C1 Ti2 2.160484 1_655
C1 Ti1 2.162518 1_665
C1 Ti1 2.162518 1_566
C1 Ti1 2.162518 1_656
C2 W0 2.147007 1_445
C2 W0 2.147007 1_544
C2 W0 2.147007 1_454
C2 Ti2 2.179086 1_554
C2 Ti2 2.179087 1_545
C2 Ti2 2.179087 1_455
N0 Ti0 2.172851 1_445
N0 Ti0 2.172851 1_544
N0 Ti0 2.172851 1_454
N0 W0 2.211464 1_554
N0 W0 2.211464 1_455
N0 W0 2.211464 1_545
