# generated using pymatgen
data_U2Cu(PO10)2
_symmetry_space_group_name_H-M   'P 1'
_cell_length_a   6.99233800
_cell_length_b   6.99233800
_cell_length_c   9.08189300
_cell_angle_alpha   90.00000000
_cell_angle_beta   90.00000000
_cell_angle_gamma   90.00000000
_symmetry_Int_Tables_number   1
_chemical_formula_structural   U2Cu(PO10)2
_chemical_formula_sum   'U2 Cu1 P2 O20'
_cell_volume   444.03909367
_cell_formula_units_Z   1
loop_
 _symmetry_equiv_pos_site_id
 _symmetry_equiv_pos_as_xyz
  1  'x, y, z'
loop_
 _atom_site_type_symbol
 _atom_site_label
 _atom_site_symmetry_multiplicity
 _atom_site_fract_x
 _atom_site_fract_y
 _atom_site_fract_z
 _atom_site_occupancy
  U  U0  1  0.50000000  0.50000000  0.89042000  1
  U  U1  1  0.00000000  0.00000000  0.11030700  1
  Cu  Cu0  1  0.50000000  0.50000000  0.39440300  1
  P  P0  1  0.00000000  0.50000000  0.99949700  1
  P  P1  1  0.50000000  0.00000000  0.99949700  1
  O  O0  1  0.50000000  0.75305200  0.40110300  1
  O  O1  1  0.50000000  0.24694800  0.40110300  1
  O  O2  1  0.75305200  0.50000000  0.40110300  1
  O  O3  1  0.24694800  0.50000000  0.40110300  1
  O  O4  1  0.00000000  0.85375200  0.59997000  1
  O  O5  1  0.00000000  0.14624800  0.59997000  1
  O  O6  1  0.85375200  0.00000000  0.59997000  1
  O  O7  1  0.14624800  0.00000000  0.59997000  1
  O  O8  1  0.50000000  0.50000000  0.09069700  1
  O  O9  1  0.00000000  0.00000000  0.91061700  1
  O  O10  1  0.17840200  0.50000000  0.89862000  1
  O  O11  1  0.82159800  0.50000000  0.89862000  1
  O  O12  1  0.50000000  0.17840200  0.89862000  1
  O  O13  1  0.50000000  0.82159800  0.89862000  1
  O  O14  1  0.32127000  0.00000000  0.09922400  1
  O  O15  1  0.67873000  0.00000000  0.09922400  1
  O  O16  1  0.00000000  0.32127000  0.09922400  1
  O  O17  1  0.00000000  0.67873000  0.09922400  1
  O  O18  1  0.50000000  0.50000000  0.68879400  1
  O  O19  1  0.00000000  0.00000000  0.31010200  1
loop_
_geom_bond_atom_site_label_1
_geom_bond_atom_site_label_2
_geom_bond_distance
_geom_bond_site_symmetry_2
Cu0 O0 1.770471 1_555
Cu0 O2 1.770471 1_555
Cu0 O1 1.770471 1_555
Cu0 O3 1.770471 1_555
O4 O7 1.446197 1_565
O4 O6 1.446197 1_465
O5 O7 1.446197 1_555
O5 O6 1.446197 1_455
O8 U0 1.818894 1_554
O9 U1 1.813563 1_556
O10 P0 1.547728 1_555
O10 U0 2.249955 1_555
O11 P0 1.547728 1_655
O11 U0 2.249955 1_555
O12 P1 1.547728 1_555
O12 U0 2.249955 1_555
O13 P1 1.547728 1_565
O13 U0 2.249955 1_555
O14 P1 1.543425 1_554
O14 U1 2.248682 1_555
O15 P1 1.543425 1_554
O15 U1 2.248682 1_655
O16 P0 1.543425 1_554
O16 U1 2.248682 1_555
O17 P0 1.543425 1_554
O17 U1 2.248682 1_565
O18 U0 1.831146 1_555
O19 U1 1.814517 1_555
