# generated using pymatgen
data_La5S4NO2
_symmetry_space_group_name_H-M   'P 1'
_cell_length_a   8.13279523
_cell_length_b   8.13279523
_cell_length_c   16.83536031
_cell_angle_alpha   79.27526978
_cell_angle_beta   79.27526978
_cell_angle_gamma   29.17810962
_symmetry_Int_Tables_number   1
_chemical_formula_structural   La5S4NO2
_chemical_formula_sum   'La10 S8 N2 O4'
_cell_volume   532.74403643
_cell_formula_units_Z   2
loop_
 _symmetry_equiv_pos_site_id
 _symmetry_equiv_pos_as_xyz
  1  'x, y, z'
loop_
 _atom_site_type_symbol
 _atom_site_label
 _atom_site_symmetry_multiplicity
 _atom_site_fract_x
 _atom_site_fract_y
 _atom_site_fract_z
 _atom_site_occupancy
  La  La0  1  0.12447500  0.12447500  0.97586600  1
  La  La1  1  0.87552500  0.87552500  0.02413400  1
  La  La2  1  0.48201900  0.48201900  0.16829300  1
  La  La3  1  0.51798100  0.51798100  0.83170700  1
  La  La4  1  0.23211900  0.23211900  0.20567000  1
  La  La5  1  0.76788100  0.76788100  0.79433000  1
  La  La6  1  0.42149300  0.42149300  0.59270300  1
  La  La7  1  0.57850700  0.57850700  0.40729700  1
  La  La8  1  0.14058400  0.14058400  0.58567500  1
  La  La9  1  0.85941600  0.85941600  0.41432500  1
  S  S0  1  0.32250900  0.32250900  0.90081900  1
  S  S1  1  0.67749100  0.67749100  0.09918100  1
  S  S2  1  0.15956600  0.15956600  0.75580000  1
  S  S3  1  0.84043400  0.84043400  0.24420000  1
  S  S4  1  0.04582200  0.04582200  0.28443300  1
  S  S5  1  0.95417800  0.95417800  0.71556700  1
  S  S6  1  0.21296600  0.21296600  0.40700200  1
  S  S7  1  0.78703400  0.78703400  0.59299800  1
  N  N0  1  0.42734700  0.42734700  0.45031300  1
  N  N1  1  0.57265300  0.57265300  0.54968700  1
  O  O0  1  0.00248100  0.00248100  0.08618100  1
  O  O1  1  0.99751900  0.99751900  0.91381900  1
  O  O2  1  0.36059900  0.36059900  0.09646700  1
  O  O3  1  0.63940100  0.63940100  0.90353300  1
loop_
_geom_bond_atom_site_label_1
_geom_bond_atom_site_label_2
_geom_bond_distance
_geom_bond_site_symmetry_2
La0 O3 2.371612 1_545
La0 O3 2.371612 1_455
La0 O0 2.401091 1_556
La0 O1 2.426461 1_445
La0 S0 3.130345 1_555
La0 S1 3.141527 1_546
La0 S1 3.141527 1_456
La1 O2 2.371612 1_655
La1 O2 2.371612 1_565
La1 O1 2.401091 1_554
La1 O0 2.426461 1_665
La1 S1 3.130345 1_555
La1 S0 3.141527 1_654
La1 S0 3.141527 1_564
La2 O2 2.450319 1_555
La2 O0 2.457631 1_565
La2 O0 2.457631 1_655
La2 S1 3.073204 1_555
La2 S3 3.114700 1_545
La2 S3 3.114700 1_455
La2 S4 3.127841 1_565
La2 S4 3.127841 1_655
La3 O3 2.450319 1_555
La3 O1 2.457631 1_545
La3 O1 2.457631 1_455
La3 S0 3.073204 1_555
La3 S2 3.114700 1_565
La3 S2 3.114700 1_655
La3 S5 3.127841 1_545
La3 S5 3.127841 1_455
La4 O2 2.457688 1_555
La4 S3 2.819502 1_545
La4 S3 2.819502 1_455
La4 S1 2.956829 1_545
La4 S1 2.956829 1_455
La4 S4 2.977003 1_555
La4 S6 3.344635 1_555
La5 O3 2.457688 1_555
La5 S2 2.819502 1_565
La5 S2 2.819502 1_655
La5 S0 2.956829 1_655
La5 S0 2.956829 1_565
La5 S5 2.977003 1_555
La5 S7 3.344635 1_555
La6 N1 2.350202 1_555
La6 N0 2.381185 1_555
La6 S7 2.944855 1_455
La6 S7 2.944855 1_545
La6 S5 3.024726 1_545
La6 S5 3.024726 1_455
La7 N0 2.350202 1_555
La7 N1 2.381185 1_555
La7 S6 2.944855 1_565
La7 S6 2.944855 1_655
La7 S4 3.024726 1_565
La7 S4 3.024726 1_655
La8 N1 2.440516 1_545
La8 N1 2.440516 1_455
La8 S2 2.936250 1_555
La8 S6 3.004717 1_555
La8 S7 3.104081 1_455
La8 S7 3.104081 1_545
La8 S5 3.305163 1_445
La9 N0 2.440516 1_655
La9 N0 2.440516 1_565
La9 S3 2.936250 1_555
La9 S7 3.004717 1_555
La9 S6 3.104081 1_565
La9 S6 3.104081 1_655
La9 S4 3.305163 1_665
