# generated using pymatgen
data_K7Na(TeO8)4
_symmetry_space_group_name_H-M   'P 1'
_cell_length_a   11.83585060
_cell_length_b   11.83585060
_cell_length_c   11.83585060
_cell_angle_alpha   145.67572393
_cell_angle_beta   104.89443024
_cell_angle_gamma   85.24481994
_symmetry_Int_Tables_number   1
_chemical_formula_structural   K7Na(TeO8)4
_chemical_formula_sum   'K7 Na1 Te4 O32'
_cell_volume   877.68819953
_cell_formula_units_Z   1
loop_
 _symmetry_equiv_pos_site_id
 _symmetry_equiv_pos_as_xyz
  1  'x, y, z'
loop_
 _atom_site_type_symbol
 _atom_site_label
 _atom_site_symmetry_multiplicity
 _atom_site_fract_x
 _atom_site_fract_y
 _atom_site_fract_z
 _atom_site_occupancy
  K  K0  1  0.69564400  0.19564400  0.50000000  1
  K  K1  1  0.30435600  0.80435600  0.50000000  1
  K  K2  1  0.86568700  0.36568700  0.50000000  1
  K  K3  1  0.13431300  0.63431300  0.50000000  1
  K  K4  1  0.73416200  0.50000000  0.23416200  1
  K  K5  1  0.26583800  0.50000000  0.76583800  1
  K  K6  1  0.50000000  0.00000000  0.50000000  1
  Na  Na0  1  0.00000000  0.00000000  0.00000000  1
  Te  Te0  1  0.65986500  0.76974900  0.89011700  1
  Te  Te1  1  0.12036800  0.23025100  0.89011700  1
  Te  Te2  1  0.87963200  0.76974900  0.10988300  1
  Te  Te3  1  0.34013500  0.23025100  0.10988300  1
  O  O0  1  0.70054000  0.70054000  0.00000000  1
  O  O1  1  0.29946000  0.29946000  0.00000000  1
  O  O2  1  0.84990000  0.84990000  0.00000000  1
  O  O3  1  0.15010000  0.15010000  0.00000000  1
  O  O4  1  0.49496200  0.69124500  0.80371600  1
  O  O5  1  0.11247100  0.30875500  0.80371600  1
  O  O6  1  0.88752900  0.69124500  0.19628400  1
  O  O7  1  0.50503800  0.30875500  0.19628400  1
  O  O8  1  0.61750500  0.91945500  0.69805100  1
  O  O9  1  0.77859600  0.08054500  0.69805100  1
  O  O10  1  0.22140400  0.91945500  0.30194900  1
  O  O11  1  0.38249500  0.08054500  0.30194900  1
  O  O12  1  0.68340400  0.55866800  0.62840500  1
  O  O13  1  0.06973700  0.44133200  0.12473500  1
  O  O14  1  0.93026300  0.05499800  0.37159500  1
  O  O15  1  0.31659600  0.94500200  0.87526500  1
  O  O16  1  0.31659600  0.44133200  0.37159500  1
  O  O17  1  0.93026300  0.55866800  0.87526500  1
  O  O18  1  0.06973700  0.94500200  0.62840500  1
  O  O19  1  0.68340400  0.05499800  0.12473500  1
  O  O20  1  0.95511000  0.68427000  0.63938000  1
  O  O21  1  0.95511000  0.31573000  0.27084100  1
  O  O22  1  0.04489000  0.31573000  0.36062000  1
  O  O23  1  0.04489000  0.68427000  0.72915900  1
  O  O24  1  0.56475400  0.75518400  0.48756500  1
  O  O25  1  0.73238100  0.24481600  0.80957000  1
  O  O26  1  0.26761900  0.07718900  0.51243500  1
  O  O27  1  0.43524600  0.92281100  0.19043000  1
  O  O28  1  0.43524600  0.24481600  0.51243500  1
  O  O29  1  0.26761900  0.75518400  0.19043000  1
  O  O30  1  0.73238100  0.92281100  0.48756500  1
  O  O31  1  0.56475400  0.07718900  0.80957000  1
loop_
_geom_bond_atom_site_label_1
_geom_bond_atom_site_label_2
_geom_bond_distance
_geom_bond_site_symmetry_2
K0 O30 3.107027 1_545
K0 O25 3.107027 1_555
K0 O27 3.107027 1_545
K0 O28 3.107027 1_555
K0 O12 3.164889 1_555
K0 O17 3.164889 1_555
K0 O14 3.164889 1_555
K0 O19 3.164893 1_555
K1 O26 3.107027 1_565
K1 O29 3.107027 1_555
K1 O31 3.107027 1_565
K1 O24 3.107027 1_555
K1 O16 3.164889 1_555
K1 O18 3.164889 1_555
K1 O13 3.164889 1_555
K1 O15 3.164893 1_555
K2 O12 2.704893 1_555
K2 O19 2.704897 1_555
K2 O14 2.704903 1_555
K2 O17 2.704903 1_555
K2 O21 2.747622 1_555
K2 O20 2.747633 1_555
K2 O22 2.747633 1_655
K2 O23 2.747637 1_655
K3 O16 2.704893 1_555
K3 O15 2.704897 1_555
K3 O13 2.704903 1_555
K3 O18 2.704903 1_555
K3 O23 2.747622 1_555
K3 O20 2.747633 1_455
K3 O22 2.747633 1_555
K3 O21 2.747637 1_455
K4 O25 3.043558 1_554
K4 O30 3.043558 1_555
K4 O31 3.043558 1_554
K4 O24 3.043558 1_555
K4 O6 3.375712 1_555
K4 O7 3.375722 1_555
K4 O20 3.437817 1_555
K4 O21 3.437822 1_555
K5 O27 3.043558 1_556
K5 O29 3.043558 1_556
K5 O26 3.043558 1_555
K5 O28 3.043558 1_555
K5 O5 3.375712 1_555
K5 O4 3.375722 1_555
K5 O22 3.437817 1_555
K5 O23 3.437822 1_555
K6 O28 2.826759 1_555
K6 O27 2.826759 1_545
K6 O24 2.826759 1_545
K6 O25 2.826759 1_555
K6 O26 2.826759 1_555
K6 O29 2.826759 1_545
K6 O31 2.826759 1_555
K6 O30 2.826759 1_545
Na0 O20 2.298498 1_444
Na0 O22 2.298498 1_555
Na0 O21 2.298499 1_455
Na0 O23 2.298499 1_544
Na0 O2 2.614502 1_445
Na0 O3 2.614502 1_555
O0 Te2 1.991638 1_555
O0 Te0 1.991639 1_554
O1 Te1 1.991638 1_554
O1 Te3 1.991639 1_555
O2 Te2 2.112456 1_555
O2 Te0 2.112467 1_554
O3 Te1 2.112456 1_554
O3 Te3 2.112467 1_555
O4 Te0 1.850317 1_555
O5 Te1 1.850339 1_555
O6 Te2 1.850339 1_555
O7 Te3 1.850317 1_555
O10 O29 1.333290 1_555
O10 O26 1.333290 1_565
O11 O27 1.333283 1_545
O11 O28 1.333289 1_555
O12 Te0 1.860174 1_555
O13 Te1 1.860163 1_554
O14 Te2 1.860163 1_545
O15 Te3 1.860161 1_566
O16 Te3 1.860174 1_555
O17 Te2 1.860163 1_556
O18 Te1 1.860163 1_565
O19 Te0 1.860161 1_544
O20 O23 1.295313 1_655
O21 O22 1.295313 1_655
O24 O8 1.333289 1_555
O25 O9 1.333290 1_555
O30 O9 1.333290 1_565
O31 O8 1.333283 1_545
