# generated using pymatgen
data_KLiMg14O15
_symmetry_space_group_name_H-M   'P 1'
_cell_length_a   8.63148445
_cell_length_b   8.60264852
_cell_length_c   4.41096749
_cell_angle_alpha   90.00000000
_cell_angle_beta   90.00000000
_cell_angle_gamma   90.00000000
_symmetry_Int_Tables_number   1
_chemical_formula_structural   KLiMg14O15
_chemical_formula_sum   'K1 Li1 Mg14 O15'
_cell_volume   327.53033440
_cell_formula_units_Z   1
loop_
 _symmetry_equiv_pos_site_id
 _symmetry_equiv_pos_as_xyz
  1  'x, y, z'
loop_
 _atom_site_type_symbol
 _atom_site_label
 _atom_site_symmetry_multiplicity
 _atom_site_fract_x
 _atom_site_fract_y
 _atom_site_fract_z
 _atom_site_occupancy
  K  K0  1  0.99173523  -0.00000000  0.00000000  1
  Li  Li0  1  0.97614672  0.50000000  0.00000000  1
  Mg  Mg0  1  0.49950044  -0.00000000  0.00000000  1
  Mg  Mg1  1  0.52003326  0.50000000  0.00000000  1
  Mg  Mg2  1  0.00468550  0.25835801  0.50000000  1
  Mg  Mg3  1  0.00468550  0.74164199  0.50000000  1
  Mg  Mg4  1  0.49820061  0.25204724  0.50000000  1
  Mg  Mg5  1  0.49820061  0.74795276  0.50000000  1
  Mg  Mg6  1  0.24901579  -0.00000000  0.50000000  1
  Mg  Mg7  1  0.23813270  0.50000000  0.50000000  1
  Mg  Mg8  1  0.74932389  -0.00000000  0.50000000  1
  Mg  Mg9  1  0.76645209  0.50000000  0.50000000  1
  Mg  Mg10  1  0.24496649  0.22867886  0.00000000  1
  Mg  Mg11  1  0.24496649  0.77132114  -0.00000000  1
  Mg  Mg12  1  0.75830410  0.25413038  -0.00000000  1
  Mg  Mg13  1  0.75830410  0.74586962  0.00000000  1
  O  O0  1  0.27360034  -0.00000000  0.00000000  1
  O  O1  1  0.72158802  -0.00000000  0.00000000  1
  O  O2  1  0.74586858  0.50000000  0.00000000  1
  O  O3  1  0.25190749  0.25769116  0.50000000  1
  O  O4  1  0.25190749  0.74230884  0.50000000  1
  O  O5  1  0.75007826  0.25289086  0.50000000  1
  O  O6  1  0.75007826  0.74710914  0.50000000  1
  O  O7  1  0.00900416  -0.00000000  0.50000000  1
  O  O8  1  0.00680560  0.50000000  0.50000000  1
  O  O9  1  0.49684443  -0.00000000  0.50000000  1
  O  O10  1  0.48369015  0.50000000  0.50000000  1
  O  O11  1  0.01593011  0.28141463  0.00000000  1
  O  O12  1  0.01593011  0.71858537  0.00000000  1
  O  O13  1  0.48705673  0.26520894  0.00000000  1
  O  O14  1  0.48705673  0.73479106  0.00000000  1
loop_
_geom_bond_atom_site_label_1
_geom_bond_atom_site_label_2
_geom_bond_distance
_geom_bond_site_symmetry_2
K0 O7 2.210515 1_654
K0 O7 2.210515 1_655
K0 O1 2.331771 1_555
K0 O11 2.429902 1_655
K0 O12 2.429902 1_645
K0 O0 2.432914 1_655
Li0 O11 1.911510 1_655
Li0 O12 1.911510 1_655
Li0 O2 1.987642 1_555
Li0 O8 2.221303 1_654
Li0 O8 2.221303 1_655
Mg0 O1 1.916945 1_555
Mg0 O0 1.949853 1_555
Mg0 O9 2.205603 1_555
Mg0 O9 2.205603 1_554
Mg0 O14 2.284026 1_545
Mg0 O13 2.284026 1_555
Mg1 O2 1.949294 1_555
Mg1 O13 2.039782 1_555
Mg1 O14 2.039782 1_555
Mg1 O10 2.227681 1_555
Mg1 O10 2.227681 1_554
Mg2 O8 2.078842 1_555
Mg2 O3 2.133900 1_555
Mg2 O5 2.198142 1_455
Mg2 O11 2.216511 1_556
Mg2 O11 2.216511 1_555
Mg2 O7 2.222876 1_555
Mg3 O8 2.078842 1_555
Mg3 O4 2.133900 1_555
Mg3 O6 2.198142 1_455
Mg3 O12 2.216511 1_556
Mg3 O12 2.216511 1_555
Mg3 O7 2.222876 1_565
Mg4 O3 2.126430 1_555
Mg4 O10 2.136724 1_555
Mg4 O9 2.168305 1_555
Mg4 O5 2.174090 1_555
Mg4 O13 2.210482 1_555
Mg4 O13 2.210482 1_556
Mg5 O4 2.126430 1_555
Mg5 O10 2.136724 1_555
Mg5 O9 2.168305 1_565
Mg5 O6 2.174090 1_555
Mg5 O14 2.210482 1_556
Mg5 O14 2.210482 1_555
Mg6 O7 2.071657 1_555
Mg6 O9 2.139129 1_555
Mg6 O0 2.215669 1_555
Mg6 O0 2.215669 1_556
Mg6 O3 2.216967 1_555
Mg6 O4 2.216967 1_545
Mg7 O8 1.996696 1_555
Mg7 O4 2.087886 1_555
Mg7 O3 2.087886 1_555
Mg7 O10 2.119525 1_555
Mg8 O5 2.175541 1_555
Mg8 O6 2.175541 1_545
Mg8 O9 2.179273 1_555
Mg8 O1 2.218439 1_556
Mg8 O1 2.218439 1_555
Mg8 O7 2.241426 1_655
Mg9 O8 2.074608 1_655
Mg9 O6 2.130486 1_555
Mg9 O5 2.130486 1_555
Mg9 O2 2.212628 1_556
Mg9 O2 2.212628 1_555
Mg9 O10 2.440655 1_555
Mg10 O0 1.982708 1_555
Mg10 O11 2.028310 1_555
Mg10 O13 2.113097 1_555
Mg10 O3 2.220369 1_555
Mg10 O3 2.220369 1_554
Mg11 O0 1.982708 1_565
Mg11 O12 2.028310 1_555
Mg11 O14 2.113097 1_555
Mg11 O4 2.220369 1_554
Mg11 O4 2.220369 1_555
Mg12 O2 2.117852 1_555
Mg12 O5 2.206652 1_555
Mg12 O5 2.206652 1_554
Mg12 O1 2.209045 1_555
Mg12 O11 2.236048 1_655
Mg12 O13 2.343206 1_555
Mg13 O2 2.117852 1_555
Mg13 O6 2.206652 1_555
Mg13 O6 2.206652 1_554
Mg13 O1 2.209045 1_565
Mg13 O12 2.236048 1_655
Mg13 O14 2.343206 1_555
