# generated using pymatgen
data_Mg5Zn
_symmetry_space_group_name_H-M   'P 1'
_cell_length_a   6.22180372
_cell_length_b   6.22180372
_cell_length_c   30.72090600
_cell_angle_alpha   90.00000000
_cell_angle_beta   90.00000000
_cell_angle_gamma   119.99999704
_symmetry_Int_Tables_number   1
_chemical_formula_structural   Mg5Zn
_chemical_formula_sum   'Mg40 Zn8'
_cell_volume   1029.90526151
_cell_formula_units_Z   8
loop_
 _symmetry_equiv_pos_site_id
 _symmetry_equiv_pos_as_xyz
  1  'x, y, z'
loop_
 _atom_site_type_symbol
 _atom_site_label
 _atom_site_symmetry_multiplicity
 _atom_site_fract_x
 _atom_site_fract_y
 _atom_site_fract_z
 _atom_site_occupancy
  Mg  Mg0_0  1  0.00000000  0.00000000  0.42514700  1
  Mg  Mg0_1  1  0.00000000  0.00000000  0.92514700  1
  Mg  Mg0_2  1  0.00000000  0.50000000  0.42514700  1
  Mg  Mg0_3  1  0.00000000  0.50000000  0.92514700  1
  Mg  Mg0_4  1  0.50000000  0.00000000  0.42514700  1
  Mg  Mg0_5  1  0.50000000  0.00000000  0.92514700  1
  Mg  Mg0_6  1  0.50000000  0.50000000  0.42514700  1
  Mg  Mg0_7  1  0.50000000  0.50000000  0.92514700  1
  Mg  Mg1_0  1  0.33333350  0.16666650  0.33670900  1
  Mg  Mg1_1  1  0.33333350  0.16666650  0.83670900  1
  Mg  Mg1_2  1  0.33333350  0.66666650  0.33670900  1
  Mg  Mg1_3  1  0.33333350  0.66666650  0.83670900  1
  Mg  Mg1_4  1  0.83333350  0.16666650  0.33670900  1
  Mg  Mg1_5  1  0.83333350  0.16666650  0.83670900  1
  Mg  Mg1_6  1  0.83333350  0.66666650  0.33670900  1
  Mg  Mg1_7  1  0.83333350  0.66666650  0.83670900  1
  Mg  Mg2_0  1  0.00000000  0.00000000  0.25000000  1
  Mg  Mg2_1  1  0.00000000  0.00000000  0.75000000  1
  Mg  Mg2_2  1  0.00000000  0.50000000  0.25000000  1
  Mg  Mg2_3  1  0.00000000  0.50000000  0.75000000  1
  Mg  Mg2_4  1  0.50000000  0.00000000  0.25000000  1
  Mg  Mg2_5  1  0.50000000  0.00000000  0.75000000  1
  Mg  Mg2_6  1  0.50000000  0.50000000  0.25000000  1
  Mg  Mg2_7  1  0.50000000  0.50000000  0.75000000  1
  Mg  Mg3_0  1  0.33333350  0.16666650  0.16329100  1
  Mg  Mg3_1  1  0.33333350  0.16666650  0.66329100  1
  Mg  Mg3_2  1  0.33333350  0.66666650  0.16329100  1
  Mg  Mg3_3  1  0.33333350  0.66666650  0.66329100  1
  Mg  Mg3_4  1  0.83333350  0.16666650  0.16329100  1
  Mg  Mg3_5  1  0.83333350  0.16666650  0.66329100  1
  Mg  Mg3_6  1  0.83333350  0.66666650  0.16329100  1
  Mg  Mg3_7  1  0.83333350  0.66666650  0.66329100  1
  Mg  Mg4_0  1  0.00000000  0.00000000  0.07485300  1
  Mg  Mg4_1  1  0.00000000  0.00000000  0.57485300  1
  Mg  Mg4_2  1  0.00000000  0.50000000  0.07485300  1
  Mg  Mg4_3  1  0.00000000  0.50000000  0.57485300  1
  Mg  Mg4_4  1  0.50000000  0.00000000  0.07485300  1
  Mg  Mg4_5  1  0.50000000  0.00000000  0.57485300  1
  Mg  Mg4_6  1  0.50000000  0.50000000  0.07485300  1
  Mg  Mg4_7  1  0.50000000  0.50000000  0.57485300  1
  Zn  Zn0_0  1  0.33333350  0.16666650  0.00000000  1
  Zn  Zn0_1  1  0.33333350  0.16666650  0.50000000  1
  Zn  Zn0_2  1  0.33333350  0.66666650  0.00000000  1
  Zn  Zn0_3  1  0.33333350  0.66666650  0.50000000  1
  Zn  Zn0_4  1  0.83333350  0.16666650  0.00000000  1
  Zn  Zn0_5  1  0.83333350  0.16666650  0.50000000  1
  Zn  Zn0_6  1  0.83333350  0.66666650  0.00000000  1
  Zn  Zn0_7  1  0.83333350  0.66666650  0.50000000  1
loop_
_geom_bond_atom_site_label_1
_geom_bond_atom_site_label_2
_geom_bond_distance
_geom_bond_site_symmetry_2
Mg0_0 Zn0_5 2.917848 1_455
Mg0_0 Zn0_1 2.917850 1_555
Mg0_0 Zn0_7 2.917850 1_445
Mg0_0 Mg1_4 3.256903 1_455
Mg0_0 Mg1_0 3.256905 1_555
Mg0_0 Mg1_6 3.256905 1_445
Mg0_1 Zn0_4 2.917848 1_456
Mg0_1 Zn0_0 2.917850 1_556
Mg0_1 Zn0_6 2.917850 1_446
Mg0_1 Mg1_5 3.256903 1_455
Mg0_1 Mg1_7 3.256905 1_445
Mg0_1 Mg1_1 3.256905 1_555
Mg0_2 Zn0_7 2.917848 1_455
Mg0_2 Zn0_5 2.917850 1_455
Mg0_2 Zn0_3 2.917850 1_555
Mg0_2 Mg1_6 3.256903 1_455
Mg0_2 Mg1_2 3.256905 1_555
Mg0_2 Mg1_4 3.256905 1_455
Mg0_3 Zn0_6 2.917848 1_456
Mg0_3 Zn0_4 2.917850 1_456
Mg0_3 Zn0_2 2.917850 1_556
Mg0_3 Mg1_7 3.256903 1_455
Mg0_3 Mg1_3 3.256905 1_555
Mg0_3 Mg1_5 3.256905 1_455
Mg0_4 Zn0_1 2.917848 1_555
Mg0_4 Zn0_5 2.917850 1_555
Mg0_4 Zn0_3 2.917850 1_545
Mg0_4 Mg1_0 3.256903 1_555
Mg0_4 Mg1_2 3.256905 1_545
Mg0_4 Mg1_4 3.256905 1_555
Mg0_5 Zn0_0 2.917848 1_556
Mg0_5 Zn0_2 2.917850 1_546
Mg0_5 Zn0_4 2.917850 1_556
Mg0_5 Mg1_1 3.256903 1_555
Mg0_5 Mg1_5 3.256905 1_555
Mg0_5 Mg1_3 3.256905 1_545
Mg0_6 Zn0_3 2.917848 1_555
Mg0_6 Zn0_7 2.917850 1_555
Mg0_6 Zn0_1 2.917850 1_555
Mg0_6 Mg1_2 3.256903 1_555
Mg0_6 Mg1_0 3.256905 1_555
Mg0_6 Mg1_6 3.256905 1_555
Mg0_7 Zn0_2 2.917848 1_556
Mg0_7 Zn0_6 2.917850 1_556
Mg0_7 Zn0_0 2.917850 1_556
Mg0_7 Mg1_3 3.256903 1_555
Mg0_7 Mg1_7 3.256905 1_555
Mg0_7 Mg1_1 3.256905 1_555
Mg1_0 Mg1_2 3.110902 1_545
Mg1_0 Mg1_4 3.110902 1_555
Mg1_0 Mg1_4 3.110902 1_455
Mg1_0 Mg1_2 3.110902 1_555
Mg1_0 Mg1_6 3.110902 1_555
Mg1_0 Mg1_6 3.110902 1_445
Mg1_0 Mg2_4 3.212727 1_555
Mg1_0 Mg2_6 3.212729 1_555
Mg1_0 Mg2_0 3.212729 1_555
Mg1_1 Mg1_5 3.110902 1_555
Mg1_1 Mg1_3 3.110902 1_545
Mg1_1 Mg1_5 3.110902 1_455
Mg1_1 Mg1_3 3.110902 1_555
Mg1_1 Mg1_7 3.110902 1_555
Mg1_1 Mg1_7 3.110902 1_445
Mg1_1 Mg2_5 3.212727 1_555
Mg1_1 Mg2_1 3.212729 1_555
Mg1_1 Mg2_7 3.212729 1_555
Mg1_2 Mg1_6 3.110902 1_555
Mg1_2 Mg1_6 3.110902 1_455
Mg1_2 Mg1_4 3.110902 1_565
Mg1_2 Mg1_4 3.110902 1_455
Mg1_2 Mg2_6 3.212727 1_555
Mg1_2 Mg2_4 3.212729 1_565
Mg1_2 Mg2_2 3.212729 1_555
Mg1_3 Mg1_7 3.110902 1_555
Mg1_3 Mg1_7 3.110902 1_455
Mg1_3 Mg1_5 3.110902 1_565
Mg1_3 Mg1_5 3.110902 1_455
Mg1_3 Mg2_7 3.212727 1_555
Mg1_3 Mg2_5 3.212729 1_565
Mg1_3 Mg2_3 3.212729 1_555
Mg1_4 Mg1_6 3.110902 1_545
Mg1_4 Mg1_6 3.110902 1_555
Mg1_4 Mg2_0 3.212727 1_655
Mg1_4 Mg2_2 3.212729 1_655
Mg1_4 Mg2_4 3.212729 1_555
Mg1_5 Mg1_7 3.110902 1_555
Mg1_5 Mg1_7 3.110902 1_545
Mg1_5 Mg2_1 3.212727 1_655
Mg1_5 Mg2_3 3.212729 1_655
Mg1_5 Mg2_5 3.212729 1_555
Mg1_6 Mg2_2 3.212727 1_655
Mg1_6 Mg2_0 3.212729 1_665
Mg1_6 Mg2_6 3.212729 1_555
Mg1_7 Mg2_3 3.212727 1_655
Mg1_7 Mg2_7 3.212729 1_555
Mg1_7 Mg2_1 3.212729 1_665
Mg2_0 Mg2_2 3.110902 1_545
Mg2_0 Mg2_2 3.110902 1_555
Mg2_0 Mg2_4 3.110902 1_455
Mg2_0 Mg2_4 3.110902 1_555
Mg2_0 Mg2_6 3.110902 1_555
Mg2_0 Mg2_6 3.110902 1_445
Mg2_0 Mg3_4 3.212727 1_455
Mg2_0 Mg3_6 3.212729 1_445
Mg2_0 Mg3_0 3.212729 1_555
Mg2_1 Mg2_3 3.110902 1_555
Mg2_1 Mg2_5 3.110902 1_555
Mg2_1 Mg2_3 3.110902 1_545
Mg2_1 Mg2_5 3.110902 1_455
Mg2_1 Mg2_7 3.110902 1_445
Mg2_1 Mg2_7 3.110902 1_555
Mg2_1 Mg3_5 3.212727 1_455
Mg2_1 Mg3_7 3.212729 1_445
Mg2_1 Mg3_1 3.212729 1_555
Mg2_2 Mg2_6 3.110902 1_455
Mg2_2 Mg2_6 3.110902 1_555
Mg2_2 Mg2_4 3.110902 1_565
Mg2_2 Mg2_4 3.110902 1_455
Mg2_2 Mg3_6 3.212727 1_455
Mg2_2 Mg3_4 3.212729 1_455
Mg2_2 Mg3_2 3.212729 1_555
Mg2_3 Mg2_7 3.110902 1_455
Mg2_3 Mg2_7 3.110902 1_555
Mg2_3 Mg2_5 3.110902 1_455
Mg2_3 Mg2_5 3.110902 1_565
Mg2_3 Mg3_7 3.212727 1_455
Mg2_3 Mg3_5 3.212729 1_455
Mg2_3 Mg3_3 3.212729 1_555
Mg2_4 Mg2_6 3.110902 1_555
Mg2_4 Mg2_6 3.110902 1_545
Mg2_4 Mg3_0 3.212727 1_555
Mg2_4 Mg3_2 3.212729 1_545
Mg2_4 Mg3_4 3.212729 1_555
Mg2_5 Mg2_7 3.110902 1_545
Mg2_5 Mg2_7 3.110902 1_555
Mg2_5 Mg3_1 3.212727 1_555
Mg2_5 Mg3_5 3.212729 1_555
Mg2_5 Mg3_3 3.212729 1_545
Mg2_6 Mg3_2 3.212727 1_555
Mg2_6 Mg3_6 3.212729 1_555
Mg2_6 Mg3_0 3.212729 1_555
Mg2_7 Mg3_3 3.212727 1_555
Mg2_7 Mg3_7 3.212729 1_555
Mg2_7 Mg3_1 3.212729 1_555
Mg3_0 Mg3_4 3.110902 1_555
Mg3_0 Mg3_2 3.110902 1_545
Mg3_0 Mg3_4 3.110902 1_455
Mg3_0 Mg3_2 3.110902 1_555
Mg3_0 Mg3_6 3.110902 1_555
Mg3_0 Mg3_6 3.110902 1_445
Mg3_0 Mg4_4 3.256903 1_555
Mg3_0 Mg4_6 3.256905 1_555
Mg3_0 Mg4_0 3.256905 1_555
Mg3_1 Mg3_5 3.110902 1_555
Mg3_1 Mg3_3 3.110902 1_545
Mg3_1 Mg3_3 3.110902 1_555
Mg3_1 Mg3_5 3.110902 1_455
Mg3_1 Mg3_7 3.110902 1_555
Mg3_1 Mg3_7 3.110902 1_445
Mg3_1 Mg4_5 3.256903 1_555
Mg3_1 Mg4_1 3.256905 1_555
Mg3_1 Mg4_7 3.256905 1_555
Mg3_2 Mg3_6 3.110902 1_555
Mg3_2 Mg3_6 3.110902 1_455
Mg3_2 Mg3_4 3.110902 1_565
Mg3_2 Mg3_4 3.110902 1_455
Mg3_2 Mg4_6 3.256903 1_555
Mg3_2 Mg4_2 3.256905 1_555
Mg3_2 Mg4_4 3.256905 1_565
Mg3_3 Mg3_7 3.110902 1_555
Mg3_3 Mg3_7 3.110902 1_455
Mg3_3 Mg3_5 3.110902 1_565
Mg3_3 Mg3_5 3.110902 1_455
Mg3_3 Mg4_7 3.256903 1_555
Mg3_3 Mg4_5 3.256905 1_565
Mg3_3 Mg4_3 3.256905 1_555
Mg3_4 Mg3_6 3.110902 1_545
Mg3_4 Mg3_6 3.110902 1_555
Mg3_4 Mg4_0 3.256903 1_655
Mg3_4 Mg4_2 3.256905 1_655
Mg3_4 Mg4_4 3.256905 1_555
Mg3_5 Mg3_7 3.110902 1_545
Mg3_5 Mg3_7 3.110902 1_555
Mg3_5 Mg4_1 3.256903 1_655
Mg3_5 Mg4_3 3.256905 1_655
Mg3_5 Mg4_5 3.256905 1_555
Mg3_6 Mg4_2 3.256903 1_655
Mg3_6 Mg4_6 3.256905 1_555
Mg3_6 Mg4_0 3.256905 1_665
Mg3_7 Mg4_3 3.256903 1_655
Mg3_7 Mg4_1 3.256905 1_665
Mg3_7 Mg4_7 3.256905 1_555
Mg4_0 Zn0_4 2.917848 1_455
Mg4_0 Zn0_0 2.917850 1_555
Mg4_0 Zn0_6 2.917850 1_445
Mg4_1 Zn0_5 2.917848 1_455
Mg4_1 Zn0_7 2.917850 1_445
Mg4_1 Zn0_1 2.917850 1_555
Mg4_2 Zn0_6 2.917848 1_455
Mg4_2 Zn0_2 2.917850 1_555
Mg4_2 Zn0_4 2.917850 1_455
Mg4_3 Zn0_7 2.917848 1_455
Mg4_3 Zn0_5 2.917850 1_455
Mg4_3 Zn0_3 2.917850 1_555
Mg4_4 Zn0_0 2.917848 1_555
Mg4_4 Zn0_2 2.917850 1_545
Mg4_4 Zn0_4 2.917850 1_555
Mg4_5 Zn0_1 2.917848 1_555
Mg4_5 Zn0_5 2.917850 1_555
Mg4_5 Zn0_3 2.917850 1_545
Mg4_6 Zn0_2 2.917848 1_555
Mg4_6 Zn0_6 2.917850 1_555
Mg4_6 Zn0_0 2.917850 1_555
Mg4_7 Zn0_3 2.917848 1_555
Mg4_7 Zn0_7 2.917850 1_555
Mg4_7 Zn0_1 2.917850 1_555
