# generated using pymatgen
data_BaSrEuSeO6
_symmetry_space_group_name_H-M   'P 1'
_cell_length_a   8.41301375
_cell_length_b   8.42879572
_cell_length_c   8.45541765
_cell_angle_alpha   90.00000000
_cell_angle_beta   90.00000000
_cell_angle_gamma   90.00000000
_symmetry_Int_Tables_number   1
_chemical_formula_structural   BaSrEuSeO6
_chemical_formula_sum   'Ba4 Sr4 Eu4 Se4 O24'
_cell_volume   599.58697683
_cell_formula_units_Z   4
loop_
 _symmetry_equiv_pos_site_id
 _symmetry_equiv_pos_as_xyz
  1  'x, y, z'
loop_
 _atom_site_type_symbol
 _atom_site_label
 _atom_site_symmetry_multiplicity
 _atom_site_fract_x
 _atom_site_fract_y
 _atom_site_fract_z
 _atom_site_occupancy
  Ba  Ba0  1  -0.00000000  0.00000000  -0.00000000  1
  Ba  Ba1  1  0.50000000  0.50000000  0.50000000  1
  Ba  Ba2  1  0.50000000  0.00000000  0.00000000  1
  Ba  Ba3  1  -0.00000000  0.00000000  0.50000000  1
  Sr  Sr0  1  0.25089178  0.25114586  0.25030495  1
  Sr  Sr1  1  0.74910822  0.74885414  0.25030495  1
  Sr  Sr2  1  0.74910822  0.25114586  0.74969505  1
  Sr  Sr3  1  0.25089178  0.74885414  0.74969505  1
  Eu  Eu0  1  -0.00000000  0.50000000  0.50000000  1
  Eu  Eu1  1  0.50000000  0.00000000  0.50000000  1
  Eu  Eu2  1  0.50000000  0.50000000  0.00000000  1
  Eu  Eu3  1  -0.00000000  0.50000000  0.00000000  1
  Se  Se0  1  0.75158148  0.74553900  0.74899517  1
  Se  Se1  1  0.24841852  0.25446100  0.74899517  1
  Se  Se2  1  0.24841852  0.74553900  0.25100483  1
  Se  Se3  1  0.75158148  0.25446100  0.25100483  1
  O  O0  1  0.96783854  0.22570991  0.27844324  1
  O  O1  1  0.03216146  0.77429009  0.27844324  1
  O  O2  1  0.03216146  0.22570991  0.72155676  1
  O  O3  1  0.96783854  0.77429009  0.72155676  1
  O  O4  1  0.27456360  0.96389304  0.22118573  1
  O  O5  1  0.27456360  0.03610696  0.77881427  1
  O  O6  1  0.72543640  0.03610696  0.22118573  1
  O  O7  1  0.72543640  0.96389304  0.77881427  1
  O  O8  1  0.21354308  0.28846843  0.96605722  1
  O  O9  1  0.78645692  0.28846843  0.03394278  1
  O  O10  1  0.21354308  0.71153157  0.03394278  1
  O  O11  1  0.78645692  0.71153157  0.96605722  1
  O  O12  1  0.53528060  0.29230955  0.21330084  1
  O  O13  1  0.46471940  0.70769045  0.21330084  1
  O  O14  1  0.46471940  0.29230955  0.78669916  1
  O  O15  1  0.53528060  0.70769045  0.78669916  1
  O  O16  1  0.21467823  0.53133872  0.29190532  1
  O  O17  1  0.21467823  0.46866128  0.70809468  1
  O  O18  1  0.78532177  0.46866128  0.29190532  1
  O  O19  1  0.78532177  0.53133872  0.70809468  1
  O  O20  1  0.29141458  0.21846065  0.53472740  1
  O  O21  1  0.70858542  0.21846065  0.46527260  1
  O  O22  1  0.29141458  0.78153935  0.46527260  1
  O  O23  1  0.70858542  0.78153935  0.53472740  1
loop_
_geom_bond_atom_site_label_1
_geom_bond_atom_site_label_2
_geom_bond_distance
_geom_bond_site_symmetry_2
Ba0 O6 2.987643 1_455
Ba0 O4 2.987643 1_545
Ba0 O5 2.987643 1_554
Ba0 O7 2.987643 1_444
Ba0 O8 3.036748 1_554
Ba0 O9 3.036748 1_455
Ba0 O11 3.036748 1_444
Ba0 O10 3.036748 1_545
Ba0 O1 3.039006 1_545
Ba0 O3 3.039006 1_444
Ba0 O2 3.039006 1_554
Ba0 O0 3.039006 1_455
Ba1 O22 2.965968 1_555
Ba1 O20 2.965968 1_555
Ba1 O23 2.965968 1_555
Ba1 O21 2.965968 1_555
Ba1 O17 2.987927 1_555
Ba1 O18 2.987927 1_555
Ba1 O16 2.987927 1_555
Ba1 O19 2.987927 1_555
Ba1 O15 3.004861 1_555
Ba1 O13 3.004861 1_555
Ba1 O14 3.004861 1_555
Ba1 O12 3.004861 1_555
Ba2 O5 2.680937 1_554
Ba2 O7 2.680937 1_544
Ba2 O6 2.680937 1_555
Ba2 O4 2.680937 1_545
Ba2 O12 3.067781 1_555
Ba2 O13 3.067781 1_545
Ba2 O15 3.067781 1_544
Ba2 O14 3.067781 1_554
Ba3 O1 2.683661 1_545
Ba3 O3 2.683661 1_445
Ba3 O0 2.683661 1_455
Ba3 O2 2.683661 1_555
Ba3 O21 3.080185 1_455
Ba3 O20 3.080185 1_555
Ba3 O22 3.080185 1_545
Ba3 O23 3.080185 1_445
Eu0 O18 2.535286 1_455
Eu0 O19 2.535286 1_455
Eu0 O16 2.535286 1_555
Eu0 O17 2.535286 1_555
Eu0 O0 2.987928 1_455
Eu0 O2 2.987928 1_555
Eu0 O3 2.987928 1_455
Eu0 O1 2.987928 1_555
Eu1 O20 2.560520 1_555
Eu1 O22 2.560520 1_545
Eu1 O21 2.560520 1_555
Eu1 O23 2.560520 1_545
Eu1 O6 3.040966 1_555
Eu1 O4 3.040966 1_545
Eu1 O5 3.040966 1_555
Eu1 O7 3.040966 1_545
Eu2 O13 2.530892 1_555
Eu2 O15 2.530892 1_554
Eu2 O12 2.530892 1_555
Eu2 O14 2.530892 1_554
Eu2 O8 3.011518 1_554
Eu2 O9 3.011518 1_555
Eu2 O10 3.011518 1_555
Eu2 O11 3.011518 1_554
Eu3 O9 2.547324 1_455
Eu3 O10 2.547324 1_555
Eu3 O11 2.547324 1_454
Eu3 O8 2.547324 1_554
Eu3 O16 3.069798 1_555
Eu3 O17 3.069798 1_554
Eu3 O18 3.069798 1_455
Eu3 O19 3.069798 1_454
O0 Se3 1.850047 1_555
O0 Sr0 2.402771 1_655
O1 Se2 1.850047 1_555
O1 Sr1 2.402771 1_455
O2 Se1 1.850047 1_555
O2 Sr2 2.402771 1_455
O3 Se0 1.850047 1_555
O3 Sr3 2.402771 1_655
O4 Se2 1.870629 1_555
O4 Sr0 2.441817 1_565
O5 Se1 1.870629 1_555
O5 Sr3 2.441817 1_545
O6 Se3 1.870629 1_555
O6 Sr1 2.441817 1_545
O7 Se0 1.870629 1_555
O7 Sr2 2.441817 1_565
O8 Se1 1.880628 1_555
O8 Sr0 2.444215 1_556
O9 Se3 1.880628 1_555
O9 Sr2 2.444215 1_554
O10 Se2 1.880628 1_555
O10 Sr3 2.444215 1_554
O11 Se0 1.880628 1_555
O11 Sr1 2.444215 1_556
O12 Se3 1.874799 1_555
O12 Sr0 2.437756 1_555
O13 Se2 1.874799 1_555
O13 Sr1 2.437756 1_555
O14 Se1 1.874799 1_555
O14 Sr2 2.437756 1_555
O15 Se0 1.874799 1_555
O15 Sr3 2.437756 1_555
O16 Se2 1.860061 1_555
O16 Sr0 2.407098 1_555
O17 Se1 1.860061 1_555
O17 Sr3 2.407098 1_555
O18 Se3 1.860061 1_555
O18 Sr1 2.407098 1_555
O19 Se0 1.860061 1_555
O19 Sr2 2.407098 1_555
O20 Se1 1.872235 1_555
O20 Sr0 2.444528 1_555
O21 Se3 1.872235 1_555
O21 Sr2 2.444528 1_555
O22 Se2 1.872235 1_555
O22 Sr3 2.444528 1_555
O23 Se0 1.872235 1_555
O23 Sr1 2.444528 1_555
