# generated using pymatgen
data_KPr(NiO3)4
_symmetry_space_group_name_H-M   'P 1'
_cell_length_a   5.46818515
_cell_length_b   5.46818515
_cell_length_c   7.75024238
_cell_angle_alpha   90.00000000
_cell_angle_beta   90.00000000
_cell_angle_gamma   90.23058562
_symmetry_Int_Tables_number   1
_chemical_formula_structural   KPr(NiO3)4
_chemical_formula_sum   'K1 Pr1 Ni4 O12'
_cell_volume   231.73849894
_cell_formula_units_Z   1
loop_
 _symmetry_equiv_pos_site_id
 _symmetry_equiv_pos_as_xyz
  1  'x, y, z'
loop_
 _atom_site_type_symbol
 _atom_site_label
 _atom_site_symmetry_multiplicity
 _atom_site_fract_x
 _atom_site_fract_y
 _atom_site_fract_z
 _atom_site_occupancy
  K  K0  1  0.99953802  0.99953802  0.00000000  1
  Pr  Pr0  1  0.50545217  0.50545217  0.50000000  1
  Ni  Ni0  1  0.49918240  0.00031303  0.75358440  1
  Ni  Ni1  1  0.49918240  0.00031303  0.24641560  1
  Ni  Ni2  1  0.00031303  0.49918240  0.24641560  1
  Ni  Ni3  1  0.00031303  0.49918240  0.75358440  1
  O  O0  1  0.73121185  0.26950405  0.73443073  1
  O  O1  1  0.26950405  0.73121185  0.73443073  1
  O  O2  1  0.26950405  0.73121185  0.26556927  1
  O  O3  1  0.73121185  0.26950405  0.26556927  1
  O  O4  1  0.73952861  0.73952861  0.74063771  1
  O  O5  1  0.26216535  0.26216535  0.72550059  1
  O  O6  1  0.26216535  0.26216535  0.27449941  1
  O  O7  1  0.73952861  0.73952861  0.25936229  1
  O  O8  1  0.49576796  0.00583663  0.00000000  1
  O  O9  1  0.50633724  0.98225741  0.50000000  1
  O  O10  1  0.00583663  0.49576796  0.00000000  1
  O  O11  1  0.98225741  0.50633724  0.50000000  1
loop_
_geom_bond_atom_site_label_1
_geom_bond_atom_site_label_2
_geom_bond_distance
_geom_bond_site_symmetry_2
K0 O10 2.713557 1_665
K0 O8 2.713557 1_665
K0 O10 2.755062 1_655
K0 O8 2.755062 1_565
K0 O7 2.840287 1_555
K0 O4 2.840287 1_554
K0 O0 2.930155 1_564
K0 O1 2.930155 1_654
K0 O3 2.930155 1_565
K0 O2 2.930155 1_655
K0 O6 2.938388 1_665
K0 O5 2.938388 1_664
Ni0 O8 1.910112 1_556
Ni0 O1 1.936441 1_545
Ni0 O0 1.945135 1_555
Ni0 O4 1.945752 1_545
Ni0 O5 1.947378 1_555
Ni0 O9 1.968216 1_545
Ni1 O8 1.910112 1_555
Ni1 O2 1.936441 1_545
Ni1 O3 1.945135 1_555
Ni1 O7 1.945752 1_545
Ni1 O6 1.947378 1_555
Ni1 O9 1.968216 1_545
Ni2 O10 1.910112 1_555
Ni2 O3 1.936441 1_455
Ni2 O2 1.945135 1_555
Ni2 O7 1.945752 1_455
Ni2 O6 1.947378 1_555
Ni2 O11 1.968216 1_455
Ni3 O10 1.910112 1_556
Ni3 O0 1.936441 1_455
Ni3 O1 1.945135 1_555
Ni3 O4 1.945752 1_455
Ni3 O5 1.947378 1_555
Ni3 O11 1.968216 1_455
O0 Pr0 2.550009 1_555
O1 Pr0 2.550009 1_555
O2 Pr0 2.550009 1_555
O3 Pr0 2.550009 1_555
O4 Pr0 2.596479 1_555
O5 Pr0 2.565102 1_555
O6 Pr0 2.565102 1_555
O7 Pr0 2.596479 1_555
O9 Pr0 2.607244 1_555
O9 Pr0 2.860949 1_565
O11 Pr0 2.607244 1_555
O11 Pr0 2.860949 1_655
