# generated using pymatgen
data_K2Ti4O9
_symmetry_space_group_name_H-M   'P 1'
_cell_length_a   3.77972347
_cell_length_b   9.36455307
_cell_length_c   12.05080933
_cell_angle_alpha   106.33566059
_cell_angle_beta   89.99671710
_cell_angle_gamma   101.63877213
_symmetry_Int_Tables_number   1
_chemical_formula_structural   K2Ti4O9
_chemical_formula_sum   'K4 Ti8 O18'
_cell_volume   400.17818877
_cell_formula_units_Z   2
loop_
 _symmetry_equiv_pos_site_id
 _symmetry_equiv_pos_as_xyz
  1  'x, y, z'
loop_
 _atom_site_type_symbol
 _atom_site_label
 _atom_site_symmetry_multiplicity
 _atom_site_fract_x
 _atom_site_fract_y
 _atom_site_fract_z
 _atom_site_occupancy
  K  K0  1  0.58291420  0.16537247  0.08253442  1
  K  K1  1  0.41710598  0.83461049  0.91741139  1
  K  K2  1  0.52281016  0.04493627  0.32921597  1
  K  K3  1  0.47711290  0.95510243  0.67079161  1
  Ti  Ti0  1  0.24615835  0.49207814  0.16650899  1
  Ti  Ti1  1  0.75385537  0.50792170  0.83350147  1
  Ti  Ti2  1  0.83910716  0.67827987  0.37625505  1
  Ti  Ti3  1  0.16090410  0.32172802  0.62374613  1
  Ti  Ti4  1  0.87849534  0.75691303  0.13873424  1
  Ti  Ti5  1  0.12150399  0.24308217  0.86126833  1
  Ti  Ti6  1  0.20296765  0.40567605  0.39605831  1
  Ti  Ti7  1  0.79703302  0.59432688  0.60394328  1
  O  O0  1  0.76799685  0.53580081  0.20075263  1
  O  O1  1  0.23201314  0.46419212  0.79925305  1
  O  O2  1  0.30832478  0.61664245  0.35884456  1
  O  O3  1  0.69168107  0.38335485  0.64115659  1
  O  O4  1  0.35003694  0.69998823  0.14417492  1
  O  O5  1  0.64996491  0.30000234  0.85582945  1
  O  O6  1  0.72997523  0.45986851  0.42174484  1
  O  O7  1  0.27003482  0.54013203  0.57825776  1
  O  O8  1  0.91709729  0.83426605  0.31751199  1
  O  O9  1  0.08290081  0.16574647  0.68249410  1
  O  O10  1  0.96824557  0.93655826  0.11983448  1
  O  O11  1  0.03175376  0.06342711  0.88015765  1
  O  O12  1  0.12136141  0.24265956  0.46093628  1
  O  O13  1  0.87863940  0.75734632  0.53906824  1
  O  O14  1  0.16113317  0.32204138  0.24198035  1
  O  O15  1  0.83886959  0.67795127  0.75802551  1
  O  O16  1  0.18244330  0.36470706  0.02628168  1
  O  O17  1  0.81756071  0.63528767  0.97372773  1
loop_
_geom_bond_atom_site_label_1
_geom_bond_atom_site_label_2
_geom_bond_distance
_geom_bond_site_symmetry_2
K0 O14 2.782421 1_655
K0 O14 2.782727 1_555
K0 O16 2.843230 1_655
K0 O16 2.843803 1_555
K0 O10 2.952234 1_545
K0 O10 2.953657 1_445
K0 O11 3.013392 1_654
K0 O11 3.014540 1_554
K1 O15 2.782058 1_455
K1 O15 2.782249 1_555
K1 O17 2.843532 1_455
K1 O17 2.843995 1_555
K1 O11 2.952105 1_565
K1 O11 2.953421 1_665
K1 O10 3.013848 1_456
K1 O10 3.014892 1_556
K2 O8 2.676317 1_545
K2 O8 2.678537 1_445
K2 O12 2.779066 1_655
K2 O12 2.780363 1_555
K2 O10 3.078906 1_545
K2 O10 3.080912 1_445
K3 O9 2.675915 1_565
K3 O9 2.678606 1_665
K3 O13 2.778985 1_455
K3 O13 2.780766 1_555
K3 O11 3.078489 1_565
K3 O11 3.080973 1_665
O0 Ti0 1.951286 1_555
O0 Ti0 1.951353 1_655
O0 Ti2 2.143235 1_555
O0 Ti4 2.354148 1_555
O1 Ti1 1.951305 1_555
O1 Ti1 1.951369 1_455
O1 Ti3 2.143234 1_555
O1 Ti5 2.354107 1_555
O2 Ti2 1.966408 1_555
O2 Ti2 1.966572 1_455
O2 Ti6 2.107996 1_555
O2 Ti0 2.270831 1_555
O3 Ti3 1.966383 1_555
O3 Ti3 1.966548 1_655
O3 Ti7 2.108044 1_555
O3 Ti1 2.270934 1_555
O4 Ti4 1.966741 1_455
O4 Ti4 1.966776 1_555
O4 Ti0 2.000918 1_555
O5 Ti5 1.966710 1_655
O5 Ti5 1.966780 1_555
O5 Ti1 2.000972 1_555
O6 Ti6 1.955768 1_555
O6 Ti6 1.956313 1_655
O6 Ti7 2.187837 1_555
O6 Ti2 2.223578 1_555
O7 Ti7 1.955733 1_555
O7 Ti7 1.956355 1_455
O7 Ti6 2.187841 1_555
O7 Ti3 2.223504 1_555
O8 Ti2 1.769099 1_555
O8 Ti4 2.065678 1_555
O9 Ti3 1.769097 1_555
O9 Ti5 2.065631 1_555
O10 Ti4 1.726945 1_555
O11 Ti5 1.726984 1_555
O12 Ti6 1.875691 1_555
O12 Ti3 1.886312 1_555
O13 Ti7 1.875693 1_555
O13 Ti2 1.886348 1_555
O14 Ti6 1.793880 1_555
O14 Ti0 2.018435 1_555
O15 Ti7 1.793915 1_555
O15 Ti1 2.018412 1_555
O16 Ti0 1.756877 1_555
O16 Ti5 1.981097 1_554
O17 Ti1 1.756849 1_555
O17 Ti4 1.981028 1_556
