# generated using pymatgen
data_VCr2O4
_symmetry_space_group_name_H-M   'P 1'
_cell_length_a   6.07895869
_cell_length_b   6.08379871
_cell_length_c   6.12704615
_cell_angle_alpha   59.93071830
_cell_angle_beta   119.20253117
_cell_angle_gamma   120.35283403
_symmetry_Int_Tables_number   1
_chemical_formula_structural   VCr2O4
_chemical_formula_sum   'V2 Cr4 O8'
_cell_volume   160.64760741
_cell_formula_units_Z   2
loop_
 _symmetry_equiv_pos_site_id
 _symmetry_equiv_pos_as_xyz
  1  'x, y, z'
loop_
 _atom_site_type_symbol
 _atom_site_label
 _atom_site_symmetry_multiplicity
 _atom_site_fract_x
 _atom_site_fract_y
 _atom_site_fract_z
 _atom_site_occupancy
  V  V0  1  0.11480600  0.36451500  0.36542600  1
  V  V1  1  0.88009500  0.63119600  0.62742700  1
  Cr  Cr0  1  0.50046800  0.99986500  0.50149700  1
  Cr  Cr1  1  0.99746500  0.99827500  0.99924400  1
  Cr  Cr2  1  0.50062000  0.50448300  0.99656800  1
  Cr  Cr3  1  0.50001600  0.99855300  0.99878700  1
  O  O0  1  0.26114500  0.24618900  0.77217000  1
  O  O1  1  0.77004600  0.22941400  0.80267700  1
  O  O2  1  0.25722100  0.23809200  0.23711100  1
  O  O3  1  0.71838600  0.24308800  0.23272000  1
  O  O4  1  0.29112300  0.76029900  0.77280600  1
  O  O5  1  0.74232300  0.76701200  0.76657200  1
  O  O6  1  0.23095100  0.75361300  0.21276000  1
  O  O7  1  0.73533400  0.76540700  0.21423400  1
loop_
_geom_bond_atom_site_label_1
_geom_bond_atom_site_label_2
_geom_bond_distance
_geom_bond_site_symmetry_2
Cr0 O4 2.066140 1_555
Cr0 O5 2.067727 1_555
Cr0 O3 2.088582 1_565
Cr0 O2 2.094524 1_565
Cr0 O1 2.315118 1_565
Cr0 O6 2.324955 1_555
Cr1 O1 1.995502 1_565
Cr1 O5 2.016033 1_555
Cr1 O7 2.044020 1_556
Cr1 O2 2.074362 1_666
Cr1 O6 2.076898 1_656
Cr1 O0 2.099953 1_665
Cr2 O4 2.021105 1_555
Cr2 O5 2.022105 1_555
Cr2 O2 2.073353 1_556
Cr2 O7 2.076030 1_556
Cr2 O3 2.080312 1_556
Cr2 O0 2.092588 1_555
Cr3 O1 2.003596 1_565
Cr3 O4 2.016407 1_555
Cr3 O7 2.032841 1_556
Cr3 O6 2.070285 1_556
Cr3 O3 2.077043 1_566
Cr3 O0 2.110337 1_565
O0 V0 2.050964 1_555
O1 V1 1.998385 1_555
O2 V0 1.975405 1_555
O3 V0 1.976068 1_655
O4 V1 2.049236 1_455
O5 V1 2.052567 1_555
O6 V0 1.927039 1_555
O7 V1 2.081142 1_555
