# generated using pymatgen
data_Ca(AgO2)2
_symmetry_space_group_name_H-M   'P 1'
_cell_length_a   6.63948095
_cell_length_b   6.63948095
_cell_length_c   6.63948095
_cell_angle_alpha   60.00000000
_cell_angle_beta   60.00000000
_cell_angle_gamma   60.00000000
_symmetry_Int_Tables_number   1
_chemical_formula_structural   Ca(AgO2)2
_chemical_formula_sum   'Ca2 Ag4 O8'
_cell_volume   206.96046369
_cell_formula_units_Z   2
loop_
 _symmetry_equiv_pos_site_id
 _symmetry_equiv_pos_as_xyz
  1  'x, y, z'
loop_
 _atom_site_type_symbol
 _atom_site_label
 _atom_site_symmetry_multiplicity
 _atom_site_fract_x
 _atom_site_fract_y
 _atom_site_fract_z
 _atom_site_occupancy
  Ca  Ca0  1  0.75000000  0.75000000  0.75000000  1
  Ca  Ca1  1  0.50000000  0.50000000  0.50000000  1
  Ag  Ag0  1  0.12500000  0.12500000  0.62500000  1
  Ag  Ag1  1  0.62500000  0.12500000  0.12500000  1
  Ag  Ag2  1  0.12500000  0.12500000  0.12500000  1
  Ag  Ag3  1  0.12500000  0.62500000  0.12500000  1
  O  O0  1  0.91379600  0.36206800  0.36206800  1
  O  O1  1  0.36206800  0.36206800  0.91379600  1
  O  O2  1  0.36206800  0.36206800  0.36206800  1
  O  O3  1  0.33620400  0.88793200  0.88793200  1
  O  O4  1  0.88793200  0.33620400  0.88793200  1
  O  O5  1  0.88793200  0.88793200  0.33620400  1
  O  O6  1  0.36206800  0.91379600  0.36206800  1
  O  O7  1  0.88793200  0.88793200  0.88793200  1
loop_
_geom_bond_atom_site_label_1
_geom_bond_atom_site_label_2
_geom_bond_distance
_geom_bond_site_symmetry_2
Ca0 O7 2.243235 1_555
Ca0 O3 2.243235 1_555
Ca0 O4 2.243235 1_555
Ca0 O5 2.243235 1_555
Ca1 O1 2.243235 1_555
Ca1 O0 2.243235 1_555
Ca1 O6 2.243235 1_555
Ca1 O2 2.243235 1_555
Ag0 O3 2.232598 1_545
Ag0 O4 2.232598 1_455
Ag0 O2 2.232598 1_555
Ag0 O6 2.232598 1_545
Ag0 O0 2.232598 1_455
Ag0 O7 2.232598 1_445
Ag1 O4 2.232598 1_554
Ag1 O5 2.232598 1_545
Ag1 O2 2.232598 1_555
Ag1 O1 2.232598 1_554
Ag1 O6 2.232598 1_545
Ag1 O7 2.232598 1_544
Ag2 O0 2.232598 1_455
Ag2 O6 2.232598 1_545
Ag2 O1 2.232598 1_554
Ag2 O3 2.232598 1_544
Ag2 O5 2.232598 1_445
Ag2 O4 2.232598 1_454
Ag3 O3 2.232598 1_554
Ag3 O5 2.232598 1_455
Ag3 O2 2.232598 1_555
Ag3 O1 2.232598 1_554
Ag3 O0 2.232598 1_455
Ag3 O7 2.232598 1_454
