# generated using pymatgen
data_Ca5ZnN4
_symmetry_space_group_name_H-M   'P 1'
_cell_length_a   7.82109600
_cell_length_b   7.52410300
_cell_length_c   5.90240000
_cell_angle_alpha   90.00000000
_cell_angle_beta   90.00000000
_cell_angle_gamma   90.00000000
_symmetry_Int_Tables_number   1
_chemical_formula_structural   Ca5ZnN4
_chemical_formula_sum   'Ca10 Zn2 N8'
_cell_volume   347.33695023
_cell_formula_units_Z   2
loop_
 _symmetry_equiv_pos_site_id
 _symmetry_equiv_pos_as_xyz
  1  'x, y, z'
loop_
 _atom_site_type_symbol
 _atom_site_label
 _atom_site_symmetry_multiplicity
 _atom_site_fract_x
 _atom_site_fract_y
 _atom_site_fract_z
 _atom_site_occupancy
  Ca  Ca0  1  0.54712200  0.50564700  0.24397400  1
  Ca  Ca1  1  0.95287800  0.50564700  0.24397400  1
  Ca  Ca2  1  0.54712200  0.99435300  0.24397400  1
  Ca  Ca3  1  0.95287800  0.99435300  0.24397400  1
  Ca  Ca4  1  0.45287800  0.49435300  0.75602600  1
  Ca  Ca5  1  0.04712200  0.49435300  0.75602600  1
  Ca  Ca6  1  0.45287800  0.00564700  0.75602600  1
  Ca  Ca7  1  0.04712200  0.00564700  0.75602600  1
  Ca  Ca8  1  0.75000000  0.75000000  0.69800300  1
  Ca  Ca9  1  0.25000000  0.25000000  0.30199700  1
  Zn  Zn0  1  0.75000000  0.25000000  0.71033500  1
  Zn  Zn1  1  0.25000000  0.75000000  0.28966500  1
  N  N0  1  0.75000000  0.00951800  0.92164000  1
  N  N1  1  0.75000000  0.49048200  0.92164000  1
  N  N2  1  0.25000000  0.99048200  0.07836000  1
  N  N3  1  0.25000000  0.50951800  0.07836000  1
  N  N4  1  0.49167600  0.75000000  0.49037900  1
  N  N5  1  0.00832400  0.75000000  0.49037900  1
  N  N6  1  0.50832400  0.25000000  0.50962100  1
  N  N7  1  0.99167600  0.25000000  0.50962100  1
loop_
_geom_bond_atom_site_label_1
_geom_bond_atom_site_label_2
_geom_bond_distance
_geom_bond_site_symmetry_2
Ca0 N4 2.384008 1_555
Ca0 N1 2.480000 1_554
Ca0 N6 2.500093 1_555
Ca0 N3 2.521216 1_555
Ca1 N5 2.384008 1_655
Ca1 N1 2.480000 1_554
Ca1 N7 2.500093 1_555
Ca1 N3 2.521216 1_655
Ca2 N4 2.384008 1_555
Ca2 N0 2.480000 1_564
Ca2 N6 2.500093 1_565
Ca2 N2 2.521216 1_555
Ca3 N5 2.384008 1_655
Ca3 N0 2.480000 1_564
Ca3 N7 2.500093 1_565
Ca3 N2 2.521216 1_655
Ca4 N6 2.384008 1_555
Ca4 N3 2.480000 1_556
Ca4 N4 2.500093 1_555
Ca4 N1 2.521216 1_555
Ca5 N7 2.384008 1_455
Ca5 N3 2.480000 1_556
Ca5 N5 2.500093 1_555
Ca5 N1 2.521216 1_455
Ca6 N6 2.384008 1_555
Ca6 N2 2.480000 1_546
Ca6 N4 2.500093 1_545
Ca6 N0 2.521216 1_555
Ca7 N7 2.384008 1_455
Ca7 N2 2.480000 1_546
Ca7 N5 2.500093 1_545
Ca7 N0 2.521216 1_455
Ca8 N0 2.356945 1_565
Ca8 N1 2.356945 1_555
Ca8 N5 2.362990 1_655
Ca8 N4 2.362990 1_555
Ca9 N2 2.356945 1_545
Ca9 N3 2.356945 1_555
Ca9 N7 2.362990 1_455
Ca9 N6 2.362990 1_555
N0 Zn0 2.197611 1_555
N1 Zn0 2.197611 1_555
N2 Zn1 2.197611 1_555
N3 Zn1 2.197611 1_555
N4 Zn1 2.230750 1_555
N5 Zn1 2.230750 1_555
N6 Zn0 2.230750 1_555
N7 Zn0 2.230750 1_555
