# generated using pymatgen
data_La2Nb3(SO4)2
_symmetry_space_group_name_H-M   'P 1'
_cell_length_a   7.72014300
_cell_length_b   9.99772800
_cell_length_c   11.96251600
_cell_angle_alpha   90.00000000
_cell_angle_beta   90.00000000
_cell_angle_gamma   90.00000000
_symmetry_Int_Tables_number   1
_chemical_formula_structural   La2Nb3(SO4)2
_chemical_formula_sum   'La8 Nb12 S8 O32'
_cell_volume   923.31351709
_cell_formula_units_Z   4
loop_
 _symmetry_equiv_pos_site_id
 _symmetry_equiv_pos_as_xyz
  1  'x, y, z'
loop_
 _atom_site_type_symbol
 _atom_site_label
 _atom_site_symmetry_multiplicity
 _atom_site_fract_x
 _atom_site_fract_y
 _atom_site_fract_z
 _atom_site_occupancy
  La  La0  1  0.00000000  0.23130000  0.34948800  1
  La  La1  1  0.00000000  0.76870000  0.65051200  1
  La  La2  1  0.50000000  0.26870000  0.84948800  1
  La  La3  1  0.50000000  0.73130000  0.15051200  1
  La  La4  1  0.00000000  0.70750800  0.15991800  1
  La  La5  1  0.00000000  0.29249200  0.84008200  1
  La  La6  1  0.50000000  0.79249200  0.65991800  1
  La  La7  1  0.50000000  0.20750800  0.34008200  1
  Nb  Nb0  1  0.25015700  0.36484400  0.08514500  1
  Nb  Nb1  1  0.74984300  0.63515600  0.91485500  1
  Nb  Nb2  1  0.25015700  0.63515600  0.91485500  1
  Nb  Nb3  1  0.24984300  0.13515600  0.58514500  1
  Nb  Nb4  1  0.74984300  0.36484400  0.08514500  1
  Nb  Nb5  1  0.75015700  0.86484400  0.41485500  1
  Nb  Nb6  1  0.24984300  0.86484400  0.41485500  1
  Nb  Nb7  1  0.75015700  0.13515600  0.58514500  1
  Nb  Nb8  1  0.21279000  0.00000000  0.00000000  1
  Nb  Nb9  1  0.78721000  0.00000000  0.00000000  1
  Nb  Nb10  1  0.28721000  0.50000000  0.50000000  1
  Nb  Nb11  1  0.71279000  0.50000000  0.50000000  1
  S  S0  1  0.00000000  0.01696200  0.15362900  1
  S  S1  1  0.00000000  0.98303800  0.84637100  1
  S  S2  1  0.50000000  0.48303800  0.65362900  1
  S  S3  1  0.50000000  0.51696200  0.34637100  1
  S  S4  1  0.00000000  0.51954600  0.36554900  1
  S  S5  1  0.00000000  0.48045400  0.63445100  1
  S  S6  1  0.50000000  0.98045400  0.86554900  1
  S  S7  1  0.50000000  0.01954600  0.13445100  1
  O  O0  1  0.00000000  0.36679800  0.05133200  1
  O  O1  1  0.00000000  0.63320200  0.94866800  1
  O  O2  1  0.50000000  0.13320200  0.55133200  1
  O  O3  1  0.50000000  0.86679800  0.44866800  1
  O  O4  1  0.24850800  0.28629500  0.22590000  1
  O  O5  1  0.75149200  0.71370500  0.77410000  1
  O  O6  1  0.24850800  0.71370500  0.77410000  1
  O  O7  1  0.25149200  0.21370500  0.72590000  1
  O  O8  1  0.75149200  0.28629500  0.22590000  1
  O  O9  1  0.74850800  0.78629500  0.27410000  1
  O  O10  1  0.25149200  0.78629500  0.27410000  1
  O  O11  1  0.74850800  0.21370500  0.72590000  1
  O  O12  1  0.00000000  0.14864600  0.55012500  1
  O  O13  1  0.00000000  0.85135400  0.44987500  1
  O  O14  1  0.50000000  0.35135400  0.05012500  1
  O  O15  1  0.50000000  0.64864600  0.94987500  1
  O  O16  1  0.26337600  0.30218900  0.47495600  1
  O  O17  1  0.73662400  0.69781100  0.52504400  1
  O  O18  1  0.26337600  0.69781100  0.52504400  1
  O  O19  1  0.23662400  0.19781100  0.97495600  1
  O  O20  1  0.73662400  0.30218900  0.47495600  1
  O  O21  1  0.76337600  0.80218900  0.02504400  1
  O  O22  1  0.23662400  0.80218900  0.02504400  1
  O  O23  1  0.76337600  0.19781100  0.97495600  1
  O  O24  1  0.24435500  0.05628500  0.39478700  1
  O  O25  1  0.75564500  0.94371500  0.60521300  1
  O  O26  1  0.24435500  0.94371500  0.60521300  1
  O  O27  1  0.25564500  0.44371500  0.89478700  1
  O  O28  1  0.75564500  0.05628500  0.39478700  1
  O  O29  1  0.74435500  0.55628500  0.10521300  1
  O  O30  1  0.25564500  0.55628500  0.10521300  1
  O  O31  1  0.74435500  0.44371500  0.89478700  1
loop_
_geom_bond_atom_site_label_1
_geom_bond_atom_site_label_2
_geom_bond_distance
_geom_bond_site_symmetry_2
La0 O4 2.483697 1_555
La0 O8 2.483697 1_455
La0 O12 2.538395 1_555
La0 O16 2.624757 1_555
La0 O20 2.624757 1_455
La0 O28 2.629447 1_455
La0 O24 2.629447 1_555
La0 S4 2.888203 1_555
La0 S0 3.175135 1_555
La1 O6 2.483697 1_555
La1 O5 2.483697 1_455
La1 O13 2.538395 1_555
La1 O18 2.624757 1_555
La1 O17 2.624757 1_455
La1 O25 2.629447 1_455
La1 O26 2.629447 1_555
La1 S5 2.888203 1_555
La1 S1 3.175135 1_555
La2 O11 2.483697 1_555
La2 O7 2.483697 1_555
La2 O14 2.538395 1_556
La2 O23 2.624757 1_555
La2 O19 2.624757 1_555
La2 O27 2.629447 1_555
La2 O31 2.629447 1_555
La2 S6 2.888203 1_545
La2 S2 3.175135 1_555
La3 O9 2.483697 1_555
La3 O10 2.483697 1_555
La3 O15 2.538395 1_554
La3 O21 2.624757 1_555
La3 O22 2.624757 1_555
La3 O30 2.629447 1_555
La3 O29 2.629447 1_555
La3 S7 2.888203 1_565
La3 S3 3.175135 1_555
La4 O10 2.501156 1_555
La4 O9 2.501156 1_455
La4 O29 2.570839 1_455
La4 O30 2.570839 1_555
La4 O22 2.614632 1_555
La4 O21 2.614632 1_455
La4 O1 2.634014 1_554
La4 S0 3.094751 1_565
La4 S4 3.095529 1_555
La5 O7 2.501156 1_555
La5 O11 2.501156 1_455
La5 O27 2.570839 1_555
La5 O31 2.570839 1_455
La5 O19 2.614632 1_555
La5 O23 2.614632 1_455
La5 O0 2.634014 1_556
La5 S1 3.094751 1_545
La5 S5 3.095529 1_555
La6 O5 2.501156 1_555
La6 O6 2.501156 1_555
La6 O26 2.570839 1_555
La6 O25 2.570839 1_555
La6 O17 2.614632 1_555
La6 O18 2.614632 1_555
La6 O3 2.634014 1_555
La6 S2 3.094751 1_555
La6 S6 3.095529 1_555
La7 O8 2.501156 1_555
La7 O4 2.501156 1_555
La7 O24 2.570839 1_555
La7 O28 2.570839 1_555
La7 O16 2.614632 1_555
La7 O20 2.614632 1_555
La7 O2 2.634014 1_555
La7 S3 3.094751 1_555
La7 S7 3.095529 1_555
Nb0 O4 1.857957 1_555
Nb0 O30 1.929437 1_555
Nb0 O0 1.973249 1_555
Nb0 O14 1.978396 1_555
Nb0 O19 2.130056 1_554
Nb0 O27 2.410194 1_554
Nb1 O5 1.857957 1_555
Nb1 O31 1.929437 1_555
Nb1 O1 1.973249 1_655
Nb1 O15 1.978396 1_555
Nb1 O21 2.130056 1_556
Nb1 O29 2.410194 1_556
Nb2 O6 1.857957 1_555
Nb2 O27 1.929437 1_555
Nb2 O1 1.973249 1_555
Nb2 O15 1.978396 1_555
Nb2 O22 2.130056 1_556
Nb2 O30 2.410194 1_556
Nb3 O7 1.857957 1_555
Nb3 O26 1.929437 1_545
Nb3 O2 1.973249 1_555
Nb3 O12 1.978396 1_555
Nb3 O16 2.130056 1_555
Nb3 O24 2.410194 1_555
Nb4 O8 1.857957 1_555
Nb4 O29 1.929437 1_555
Nb4 O0 1.973249 1_655
Nb4 O14 1.978396 1_555
Nb4 O23 2.130056 1_554
Nb4 O31 2.410194 1_554
Nb5 O9 1.857957 1_555
Nb5 O28 1.929437 1_565
Nb5 O3 1.973249 1_555
Nb5 O13 1.978396 1_655
Nb5 O17 2.130056 1_555
Nb5 O25 2.410194 1_555
Nb6 O10 1.857957 1_555
Nb6 O24 1.929437 1_565
Nb6 O3 1.973249 1_555
Nb6 O13 1.978396 1_555
Nb6 O18 2.130056 1_555
Nb6 O26 2.410194 1_555
Nb7 O11 1.857957 1_555
Nb7 O25 1.929437 1_545
Nb7 O2 1.973249 1_555
Nb7 O12 1.978396 1_655
Nb7 O20 2.130056 1_555
Nb7 O28 2.410194 1_555
Nb8 O19 2.008669 1_554
Nb8 O22 2.008669 1_545
Nb8 S0 2.470813 1_555
Nb8 S1 2.470813 1_544
Nb8 S7 2.746175 1_555
Nb8 S6 2.746175 1_544
Nb9 O23 2.008669 1_554
Nb9 O21 2.008669 1_545
Nb9 S0 2.470813 1_655
Nb9 S1 2.470813 1_644
Nb9 S7 2.746175 1_555
Nb9 S6 2.746175 1_544
Nb10 O18 2.008669 1_555
Nb10 O16 2.008669 1_555
Nb10 S3 2.470813 1_555
Nb10 S2 2.470813 1_555
Nb10 S5 2.746175 1_555
Nb10 S4 2.746175 1_555
Nb11 O17 2.008669 1_555
Nb11 O20 2.008669 1_555
Nb11 S3 2.470813 1_555
Nb11 S2 2.470813 1_555
Nb11 S5 2.746175 1_655
Nb11 S4 2.746175 1_655
