# generated using pymatgen
data_Mg6MnB
_symmetry_space_group_name_H-M   'P 1'
_cell_length_a   4.40431800
_cell_length_b   6.35114100
_cell_length_c   10.83975100
_cell_angle_alpha   90.00000000
_cell_angle_beta   90.00000000
_cell_angle_gamma   90.00000000
_symmetry_Int_Tables_number   1
_chemical_formula_structural   Mg6MnB
_chemical_formula_sum   'Mg12 Mn2 B2'
_cell_volume   303.21433462
_cell_formula_units_Z   2
loop_
 _symmetry_equiv_pos_site_id
 _symmetry_equiv_pos_as_xyz
  1  'x, y, z'
loop_
 _atom_site_type_symbol
 _atom_site_label
 _atom_site_symmetry_multiplicity
 _atom_site_fract_x
 _atom_site_fract_y
 _atom_site_fract_z
 _atom_site_occupancy
  Mg  Mg0  1  0.00000000  0.27020900  0.08981000  1
  Mg  Mg1  1  0.00000000  0.72979100  0.08981000  1
  Mg  Mg2  1  0.00000000  0.50000000  0.83372200  1
  Mg  Mg3  1  0.50000000  0.23174700  0.90085900  1
  Mg  Mg4  1  0.50000000  0.76825300  0.90085900  1
  Mg  Mg5  1  0.50000000  0.50000000  0.66249200  1
  Mg  Mg6  1  0.00000000  0.77020900  0.58981000  1
  Mg  Mg7  1  0.00000000  0.22979100  0.58981000  1
  Mg  Mg8  1  0.00000000  0.00000000  0.33372200  1
  Mg  Mg9  1  0.50000000  0.73174700  0.40085900  1
  Mg  Mg10  1  0.50000000  0.26825300  0.40085900  1
  Mg  Mg11  1  0.50000000  0.00000000  0.16249200  1
  Mn  Mn0  1  0.00000000  0.50000000  0.30323100  1
  Mn  Mn1  1  0.00000000  0.00000000  0.80323100  1
  B  B0  1  0.50000000  0.50000000  0.21921800  1
  B  B1  1  0.50000000  0.00000000  0.71921800  1
loop_
_geom_bond_atom_site_label_1
_geom_bond_atom_site_label_2
_geom_bond_distance
_geom_bond_site_symmetry_2
Mg0 Mn0 2.735308 1_555
Mg0 Mg11 2.900921 1_455
Mg0 Mg11 2.900921 1_555
Mg0 Mg2 3.136198 1_554
Mg0 Mg8 3.152074 1_555
Mg1 Mn0 2.735308 1_555
Mg1 Mg11 2.900921 1_565
Mg1 Mg11 2.900921 1_465
Mg1 Mg2 3.136198 1_554
Mg1 Mg8 3.152074 1_565
Mg2 Mg3 2.877804 1_455
Mg2 Mg4 2.877804 1_455
Mg2 Mg3 2.877804 1_555
Mg2 Mg4 2.877804 1_555
Mg2 Mg5 2.880031 1_455
Mg2 Mg5 2.880031 1_555
Mg2 Mg6 3.152074 1_555
Mg2 Mg7 3.152074 1_555
Mg2 Mn1 3.192724 1_555
Mg2 Mn1 3.192724 1_565
Mg3 Mg5 3.094973 1_555
Mg4 Mg5 3.094973 1_555
Mg5 Mg7 2.900921 1_655
Mg5 Mg6 2.900921 1_555
Mg5 Mg7 2.900921 1_555
Mg5 Mg6 2.900921 1_655
Mg5 Mg9 3.195226 1_555
Mg6 Mn1 2.735308 1_565
Mg6 Mg8 3.136198 1_565
Mg7 Mn1 2.735308 1_555
Mg7 Mg8 3.136198 1_555
Mg8 Mg9 2.877804 1_545
Mg8 Mg9 2.877804 1_445
Mg8 Mn0 3.192724 1_555
Mg8 Mn0 3.192724 1_545
Mg10 Mg8 2.877804 1_655
Mg10 Mg8 2.877804 1_555
Mg10 Mg11 3.094973 1_555
Mg10 Mg5 3.195226 1_555
Mg11 Mg8 2.880031 1_555
Mg11 Mg8 2.880031 1_655
Mg11 Mg9 3.094973 1_545
Mg11 Mg4 3.195226 1_544
Mg11 Mg3 3.195226 1_554
B0 Mn0 2.383032 1_655
B0 Mn0 2.383032 1_555
B0 Mg10 2.458272 1_555
B0 Mg9 2.458272 1_555
B1 Mn1 2.383032 1_655
B1 Mn1 2.383032 1_555
B1 Mg3 2.458272 1_555
B1 Mg4 2.458272 1_545
