# generated using pymatgen
data_Sr5Mn(Fe2O5)2
_symmetry_space_group_name_H-M   'P 1'
_cell_length_a   5.35979946
_cell_length_b   5.35982039
_cell_length_c   20.56573458
_cell_angle_alpha   83.67245882
_cell_angle_beta   83.67243319
_cell_angle_gamma   98.89076865
_symmetry_Int_Tables_number   1
_chemical_formula_structural   Sr5Mn(Fe2O5)2
_chemical_formula_sum   'Sr10 Mn2 Fe8 O20'
_cell_volume   575.25744951
_cell_formula_units_Z   2
loop_
 _symmetry_equiv_pos_site_id
 _symmetry_equiv_pos_as_xyz
  1  'x, y, z'
loop_
 _atom_site_type_symbol
 _atom_site_label
 _atom_site_symmetry_multiplicity
 _atom_site_fract_x
 _atom_site_fract_y
 _atom_site_fract_z
 _atom_site_occupancy
  Sr  Sr0  1  0.25002500  0.75003400  0.49994200  1
  Sr  Sr1  1  0.75002700  0.25002900  0.49994400  1
  Sr  Sr2  1  0.45032500  0.95031900  0.09933200  1
  Sr  Sr3  1  0.95032100  0.45031800  0.09933100  1
  Sr  Sr4  1  0.04968000  0.54968300  0.90066300  1
  Sr  Sr5  1  0.54968600  0.04967900  0.90066100  1
  Sr  Sr6  1  0.34996300  0.84996900  0.30005100  1
  Sr  Sr7  1  0.84996700  0.34996400  0.30005000  1
  Sr  Sr8  1  0.14999000  0.64999500  0.70002900  1
  Sr  Sr9  1  0.64998700  0.14999400  0.70002900  1
  Mn  Mn0  1  0.50005400  0.50002000  0.99988200  1
  Mn  Mn1  1  0.00003700  0.00002700  0.99996400  1
  Fe  Fe0  1  0.09986500  0.09987000  0.80025900  1
  Fe  Fe1  1  0.29993600  0.29994200  0.40013100  1
  Fe  Fe2  1  0.69998100  0.69998200  0.60004600  1
  Fe  Fe3  1  0.39987400  0.39987800  0.20023700  1
  Fe  Fe4  1  0.90035900  0.90036000  0.19925100  1
  Fe  Fe5  1  0.60012700  0.60012500  0.79976100  1
  Fe  Fe6  1  0.79984500  0.79984900  0.40030500  1
  Fe  Fe7  1  0.19998800  0.19999300  0.60002400  1
  O  O0  1  0.24993100  0.24993600  0.50018300  1
  O  O1  1  0.74996400  0.74996800  0.50008400  1
  O  O2  1  0.76222900  0.23794000  0.99984400  1
  O  O3  1  0.23796100  0.76222400  0.99984500  1
  O  O4  1  0.44938500  0.44938400  0.10114300  1
  O  O5  1  0.95132800  0.95132100  0.09740100  1
  O  O6  1  0.04881500  0.04881000  0.90232300  1
  O  O7  1  0.55085000  0.55085000  0.89835100  1
  O  O8  1  0.35001500  0.35001800  0.29996200  1
  O  O9  1  0.84989700  0.84990000  0.30019400  1
  O  O10  1  0.15002900  0.15003500  0.69990900  1
  O  O11  1  0.64981000  0.64981400  0.70040300  1
  O  O12  1  0.65185400  0.14832300  0.19984900  1
  O  O13  1  0.14829600  0.65182400  0.19984900  1
  O  O14  1  0.34723400  0.85258100  0.80012700  1
  O  O15  1  0.85263200  0.34729200  0.80012700  1
  O  O16  1  0.54955600  0.05035000  0.40014200  1
  O  O17  1  0.05029700  0.54951000  0.40014200  1
  O  O18  1  0.45016700  0.94970500  0.60011500  1
  O  O19  1  0.94971500  0.45018500  0.60011500  1
loop_
_geom_bond_atom_site_label_1
_geom_bond_atom_site_label_2
_geom_bond_distance
_geom_bond_site_symmetry_2
Mn0 O4 2.052369 1_556
Mn0 O7 2.057841 1_555
Mn0 O2 2.134930 1_555
Mn0 O3 2.135101 1_555
Mn1 O2 1.937286 1_455
Mn1 O3 1.937310 1_545
Mn1 O5 1.974864 1_446
Mn1 O6 1.978998 1_555
Fe0 O15 2.014391 1_455
Fe0 O14 2.014403 1_545
Fe0 O10 2.033905 1_555
Fe0 O6 2.068644 1_555
Fe1 O0 2.027865 1_555
Fe1 O8 2.030236 1_555
Fe1 O17 2.032926 1_555
Fe1 O16 2.032947 1_555
Fe2 O1 2.026041 1_555
Fe2 O11 2.034047 1_555
Fe2 O19 2.034246 1_555
Fe2 O18 2.034271 1_555
Fe3 O4 2.008448 1_555
Fe3 O8 2.021237 1_555
Fe3 O13 2.050522 1_555
Fe3 O12 2.050566 1_555
Fe4 O12 2.021809 1_565
Fe4 O13 2.021829 1_655
Fe4 O9 2.045924 1_555
Fe4 O5 2.064307 1_555
Fe5 O7 1.998233 1_555
Fe5 O11 2.013799 1_555
Fe5 O15 2.057907 1_555
Fe5 O14 2.057952 1_555
Fe6 O1 2.022332 1_555
Fe6 O9 2.029061 1_555
Fe6 O16 2.039376 1_565
Fe6 O17 2.039380 1_655
Fe7 O0 2.023588 1_555
Fe7 O10 2.024480 1_555
Fe7 O19 2.038050 1_455
Fe7 O18 2.038058 1_545
O0 Sr1 2.679800 1_555
O0 Sr0 2.679816 1_555
O0 Sr1 2.680008 1_455
O0 Sr0 2.680014 1_545
O1 Sr0 2.679852 1_655
O1 Sr1 2.679869 1_565
O1 Sr0 2.679951 1_555
O1 Sr1 2.679954 1_555
O2 Sr4 2.662027 1_655
O2 Sr5 2.662171 1_555
O2 Sr3 2.666760 1_556
O2 Sr2 2.666782 1_546
O3 Sr5 2.662031 1_565
O3 Sr4 2.662192 1_555
O3 Sr2 2.666732 1_556
O3 Sr3 2.666802 1_456
O4 Sr3 2.680015 1_455
O4 Sr2 2.680034 1_545
O4 Sr3 2.680287 1_555
O4 Sr2 2.680290 1_555
O5 Sr2 2.680016 1_655
O5 Sr3 2.680028 1_565
O5 Sr2 2.680355 1_555
O5 Sr3 2.680363 1_555
O6 Sr4 2.679921 1_545
O6 Sr5 2.679930 1_455
O6 Sr5 2.680293 1_555
O6 Sr4 2.680321 1_555
O7 Sr5 2.680243 1_565
O7 Sr4 2.680246 1_655
O7 Sr4 2.680373 1_555
O7 Sr5 2.680395 1_555
O8 Sr7 2.679887 1_555
O8 Sr6 2.679893 1_555
O8 Sr7 2.679913 1_455
O8 Sr6 2.679929 1_545
O9 Sr7 2.679870 1_565
O9 Sr6 2.679874 1_655
O9 Sr6 2.679929 1_555
O9 Sr7 2.679953 1_555
O10 Sr9 2.679820 1_455
O10 Sr8 2.679821 1_545
O10 Sr9 2.679982 1_555
O10 Sr8 2.680001 1_555
O11 Sr8 2.679878 1_655
O11 Sr9 2.679891 1_565
O11 Sr8 2.679943 1_555
O11 Sr9 2.679950 1_555
O12 Sr7 2.675927 1_555
O12 Sr6 2.675966 1_545
O12 Sr3 2.680606 1_555
O12 Sr2 2.681006 1_545
O13 Sr7 2.675826 1_455
O13 Sr6 2.676076 1_555
O13 Sr2 2.680733 1_555
O13 Sr3 2.680906 1_455
O14 Sr8 2.674331 1_555
O14 Sr9 2.674473 1_565
O14 Sr4 2.680869 1_555
O14 Sr5 2.681395 1_565
O15 Sr8 2.674235 1_655
O15 Sr9 2.674588 1_555
O15 Sr5 2.681085 1_555
O15 Sr4 2.681179 1_655
O16 Sr1 2.669750 1_555
O16 Sr0 2.669760 1_545
O16 Sr7 2.673988 1_555
O16 Sr6 2.674448 1_545
O17 Sr1 2.669568 1_455
O17 Sr0 2.669947 1_555
O17 Sr6 2.674202 1_555
O17 Sr7 2.674243 1_455
O18 Sr8 2.671342 1_555
O18 Sr9 2.671631 1_565
O18 Sr1 2.675383 1_565
O18 Sr0 2.675528 1_555
O19 Sr9 2.671415 1_555
O19 Sr8 2.671576 1_655
O19 Sr0 2.675353 1_655
O19 Sr1 2.675563 1_555
