# generated using pymatgen
data_LaGaO3
_symmetry_space_group_name_H-M   'P 1'
_cell_length_a   5.54631100
_cell_length_b   5.59421300
_cell_length_c   7.85052300
_cell_angle_alpha   90.00000000
_cell_angle_beta   90.00000000
_cell_angle_gamma   90.00000000
_symmetry_Int_Tables_number   1
_chemical_formula_structural   LaGaO3
_chemical_formula_sum   'La4 Ga4 O12'
_cell_volume   243.58010127
_cell_formula_units_Z   4
loop_
 _symmetry_equiv_pos_site_id
 _symmetry_equiv_pos_as_xyz
  1  'x, y, z'
loop_
 _atom_site_type_symbol
 _atom_site_label
 _atom_site_symmetry_multiplicity
 _atom_site_fract_x
 _atom_site_fract_y
 _atom_site_fract_z
 _atom_site_occupancy
  La  La0  1  0.49515800  0.50807800  0.75000000  1
  La  La1  1  0.99515800  0.99192200  0.75000000  1
  La  La2  1  0.00484200  0.00807800  0.25000000  1
  La  La3  1  0.50484200  0.49192200  0.25000000  1
  Ga  Ga0  1  0.00000000  0.50000000  0.50000000  1
  Ga  Ga1  1  0.50000000  0.00000000  0.00000000  1
  Ga  Ga2  1  0.50000000  0.00000000  0.50000000  1
  Ga  Ga3  1  0.00000000  0.50000000  0.00000000  1
  O  O0  1  0.74443500  0.74577200  0.54445800  1
  O  O1  1  0.49912000  0.91873000  0.25000000  1
  O  O2  1  0.00088000  0.41873000  0.75000000  1
  O  O3  1  0.25556500  0.25422800  0.45554200  1
  O  O4  1  0.50088000  0.08127000  0.75000000  1
  O  O5  1  0.24443500  0.75422800  0.95554200  1
  O  O6  1  0.24443500  0.75422800  0.54445800  1
  O  O7  1  0.75556500  0.24577200  0.45554200  1
  O  O8  1  0.99912000  0.58127000  0.25000000  1
  O  O9  1  0.74443500  0.74577200  0.95554200  1
  O  O10  1  0.25556500  0.25422800  0.04445800  1
  O  O11  1  0.75556500  0.24577200  0.04445800  1
loop_
_geom_bond_atom_site_label_1
_geom_bond_atom_site_label_2
_geom_bond_distance
_geom_bond_site_symmetry_2
La0 O4 2.387866 1_555
La0 O9 2.506665 1_555
La0 O0 2.506665 1_555
La0 O5 2.536464 1_555
La0 O6 2.536464 1_555
La1 O2 2.387866 1_665
La1 O6 2.506665 1_655
La1 O5 2.506665 1_655
La1 O0 2.536464 1_555
La1 O9 2.536464 1_555
La2 O8 2.387866 1_445
La2 O7 2.506665 1_455
La2 O11 2.506665 1_455
La2 O10 2.536464 1_555
La2 O3 2.536464 1_555
La3 O1 2.387866 1_555
La3 O10 2.506665 1_555
La3 O3 2.506665 1_555
La3 O7 2.536464 1_555
La3 O11 2.536464 1_555
Ga0 O7 1.995605 1_455
Ga0 O6 1.995605 1_555
Ga0 O3 2.005321 1_555
Ga0 O0 2.005321 1_455
Ga0 O2 2.014607 1_555
Ga0 O8 2.014607 1_455
Ga1 O9 1.995605 1_544
Ga1 O10 1.995605 1_555
Ga1 O5 2.005321 1_544
Ga1 O11 2.005321 1_555
Ga1 O1 2.014607 1_545
Ga1 O4 2.014607 1_554
Ga2 O0 1.995605 1_545
Ga2 O3 1.995605 1_555
Ga2 O7 2.005321 1_555
Ga2 O6 2.005321 1_545
Ga2 O1 2.014607 1_545
Ga2 O4 2.014607 1_555
Ga3 O11 1.995605 1_455
Ga3 O5 1.995605 1_554
Ga3 O9 2.005321 1_454
Ga3 O10 2.005321 1_555
Ga3 O8 2.014607 1_455
Ga3 O2 2.014607 1_554
