# generated using pymatgen
data_MgSn
_symmetry_space_group_name_H-M   'P 1'
_cell_length_a   7.91576359
_cell_length_b   7.91576359
_cell_length_c   5.21074100
_cell_angle_alpha   90.00000000
_cell_angle_beta   90.00000000
_cell_angle_gamma   152.89630035
_symmetry_Int_Tables_number   1
_chemical_formula_structural   MgSn
_chemical_formula_sum   'Mg3 Sn3'
_cell_volume   148.75484133
_cell_formula_units_Z   3
loop_
 _symmetry_equiv_pos_site_id
 _symmetry_equiv_pos_as_xyz
  1  'x, y, z'
loop_
 _atom_site_type_symbol
 _atom_site_label
 _atom_site_symmetry_multiplicity
 _atom_site_fract_x
 _atom_site_fract_y
 _atom_site_fract_z
 _atom_site_occupancy
  Mg  Mg0  1  0.33255600  0.66744400  0.00000000  1
  Mg  Mg1  1  0.10875000  0.89125000  0.50000000  1
  Mg  Mg2  1  0.78163100  0.21836900  0.50000000  1
  Sn  Sn0  1  0.99394500  0.00605500  0.00000000  1
  Sn  Sn1  1  0.67344900  0.32655100  0.00000000  1
  Sn  Sn2  1  0.44300300  0.55699700  0.50000000  1
loop_
_geom_bond_atom_site_label_1
_geom_bond_atom_site_label_2
_geom_bond_distance
_geom_bond_site_symmetry_2
Mg0 Sn1 3.071973 1_565
Mg0 Sn1 3.071973 1_455
Mg0 Sn0 3.100043 1_455
Mg0 Sn0 3.100043 1_565
Mg0 Sn2 3.110866 1_555
Mg0 Sn2 3.110866 1_554
Mg1 Sn0 3.148018 1_465
Mg1 Sn0 3.148018 1_466
Mg1 Sn2 3.154040 1_455
Mg1 Sn2 3.154040 1_565
Mg1 Mg2 3.243486 1_455
Mg1 Mg2 3.243486 1_565
Mg1 Sn1 3.349630 1_456
Mg1 Sn1 3.349630 1_565
Mg1 Sn1 3.349630 1_455
Mg1 Sn1 3.349630 1_566
Mg2 Sn1 3.091955 1_555
Mg2 Sn1 3.091955 1_556
Mg2 Sn2 3.099833 1_545
Mg2 Sn2 3.099833 1_655
