# generated using pymatgen
data_CaSmAlO4
_symmetry_space_group_name_H-M   'P 1'
_cell_length_a   6.58423269
_cell_length_b   6.58423269
_cell_length_c   6.58423269
_cell_angle_alpha   147.37002393
_cell_angle_beta   147.37002393
_cell_angle_gamma   46.81621206
_symmetry_Int_Tables_number   1
_chemical_formula_structural   CaSmAlO4
_chemical_formula_sum   'Ca1 Sm1 Al1 O4'
_cell_volume   82.68637124
_cell_formula_units_Z   1
loop_
 _symmetry_equiv_pos_site_id
 _symmetry_equiv_pos_as_xyz
  1  'x, y, z'
loop_
 _atom_site_type_symbol
 _atom_site_label
 _atom_site_symmetry_multiplicity
 _atom_site_fract_x
 _atom_site_fract_y
 _atom_site_fract_z
 _atom_site_occupancy
  Ca  Ca0  1  0.64331500  0.64331500  0.00000000  1
  Sm  Sm0  1  0.35828400  0.35828400  0.00000000  1
  Al  Al0  1  0.00721800  0.00721800  0.00000000  1
  O  O0  1  0.83229800  0.83229800  0.00000000  1
  O  O1  1  0.16719000  0.16719000  0.00000000  1
  O  O2  1  0.99584800  0.49584800  0.50000000  1
  O  O3  1  0.49584800  0.99584800  0.50000000  1
loop_
_geom_bond_atom_site_label_1
_geom_bond_atom_site_label_2
_geom_bond_distance
_geom_bond_site_symmetry_2
Ca0 O0 2.283799 1_555
Ca0 O3 2.568457 1_544
Ca0 O2 2.568457 1_454
Ca0 O3 2.568457 1_555
Ca0 O2 2.568457 1_555
Ca0 O1 2.631633 1_565
Ca0 O1 2.631633 1_655
Ca0 O1 2.631633 1_666
Ca0 O1 2.631633 1_554
Al0 O3 1.854725 1_545
Al0 O2 1.854725 1_455
Al0 O2 1.854725 1_444
Al0 O3 1.854725 1_444
Al0 O1 1.933210 1_555
Al0 O0 2.113852 1_445
O0 Sm0 2.634552 1_666
O0 Sm0 2.634552 1_554
O0 Sm0 2.634552 1_565
O0 Sm0 2.634552 1_655
O1 Sm0 2.309310 1_555
O2 Sm0 2.486917 1_656
O2 Sm0 2.486917 1_555
O3 Sm0 2.486917 1_566
O3 Sm0 2.486917 1_555
