# generated using pymatgen
data_MgFeO2
_symmetry_space_group_name_H-M   'P 1'
_cell_length_a   8.25117204
_cell_length_b   8.25117204
_cell_length_c   9.89114400
_cell_angle_alpha   53.28246667
_cell_angle_beta   53.28246667
_cell_angle_gamma   21.65278833
_symmetry_Int_Tables_number   1
_chemical_formula_structural   MgFeO2
_chemical_formula_sum   'Mg4 Fe4 O8'
_cell_volume   197.13885724
_cell_formula_units_Z   4
loop_
 _symmetry_equiv_pos_site_id
 _symmetry_equiv_pos_as_xyz
  1  'x, y, z'
loop_
 _atom_site_type_symbol
 _atom_site_label
 _atom_site_symmetry_multiplicity
 _atom_site_fract_x
 _atom_site_fract_y
 _atom_site_fract_z
 _atom_site_occupancy
  Mg  Mg0  1  0.31767400  0.31767400  0.23685400  1
  Mg  Mg1  1  0.68232600  0.68232600  0.76314600  1
  Mg  Mg2  1  0.04794400  0.04794400  0.11557700  1
  Mg  Mg3  1  0.95205600  0.95205600  0.88442300  1
  Fe  Fe0  1  0.59015600  0.59015600  0.56150300  1
  Fe  Fe1  1  0.18017300  0.18017300  0.17578100  1
  Fe  Fe2  1  0.81982700  0.81982700  0.82421900  1
  Fe  Fe3  1  0.40984400  0.40984400  0.43849700  1
  O  O0  1  0.83468400  0.83468400  0.59485500  1
  O  O1  1  0.43803300  0.43803300  0.76677600  1
  O  O2  1  0.56196700  0.56196700  0.23322400  1
  O  O3  1  0.16531600  0.16531600  0.40514500  1
  O  O4  1  0.09713300  0.09713300  0.77445500  1
  O  O5  1  0.79781300  0.79781300  0.08061200  1
  O  O6  1  0.90286700  0.90286700  0.22554500  1
  O  O7  1  0.20218700  0.20218700  0.91938800  1
loop_
_geom_bond_atom_site_label_1
_geom_bond_atom_site_label_2
_geom_bond_distance
_geom_bond_site_symmetry_2
Mg0 O3 1.965938 1_555
Mg0 O6 2.033046 1_545
Mg0 O6 2.033046 1_455
Mg0 O5 2.345127 1_545
Mg0 O5 2.345127 1_455
Mg1 O0 1.965938 1_555
Mg1 O4 2.033046 1_655
Mg1 O4 2.033046 1_565
Mg1 O7 2.345127 1_565
Mg1 O7 2.345127 1_655
Mg2 O6 1.897057 1_445
Mg2 O7 2.027260 1_554
Mg2 O2 2.032192 1_545
Mg2 O2 2.032192 1_455
Mg3 O4 1.897057 1_665
Mg3 O5 2.027260 1_556
Mg3 O1 2.032192 1_565
Mg3 O1 2.032192 1_655
Fe0 O3 1.996068 1_655
Fe0 O3 1.996068 1_565
Fe0 O1 2.026673 1_555
Fe1 O3 2.130673 1_555
Fe1 O5 2.176880 1_455
Fe1 O5 2.176880 1_545
Fe1 O2 2.251770 1_455
Fe1 O2 2.251770 1_545
Fe1 O7 2.336041 1_554
Fe2 O0 2.130673 1_555
Fe2 O7 2.176880 1_655
Fe2 O7 2.176880 1_565
Fe2 O1 2.251770 1_655
Fe2 O1 2.251770 1_565
Fe2 O5 2.336041 1_556
Fe3 O0 1.996068 1_455
Fe3 O0 1.996068 1_545
Fe3 O2 2.026673 1_555
