# generated using pymatgen
data_Ge7HO20
_symmetry_space_group_name_H-M   'P 1'
_cell_length_a   7.86737300
_cell_length_b   7.86737300
_cell_length_c   7.86737300
_cell_angle_alpha   90.00000000
_cell_angle_beta   90.00000000
_cell_angle_gamma   90.00000000
_symmetry_Int_Tables_number   1
_chemical_formula_structural   Ge7HO20
_chemical_formula_sum   'Ge7 H1 O20'
_cell_volume   486.95544121
_cell_formula_units_Z   1
loop_
 _symmetry_equiv_pos_site_id
 _symmetry_equiv_pos_as_xyz
  1  'x, y, z'
loop_
 _atom_site_type_symbol
 _atom_site_label
 _atom_site_symmetry_multiplicity
 _atom_site_fract_x
 _atom_site_fract_y
 _atom_site_fract_z
 _atom_site_occupancy
  Ge  Ge0  1  0.00000000  0.50000000  0.50000000  1
  Ge  Ge1  1  0.50000000  0.50000000  0.00000000  1
  Ge  Ge2  1  0.50000000  0.00000000  0.50000000  1
  Ge  Ge3  1  0.65631900  0.65631900  0.34368100  1
  Ge  Ge4  1  0.65631900  0.34368100  0.65631900  1
  Ge  Ge5  1  0.34368100  0.65631900  0.65631900  1
  Ge  Ge6  1  0.34368100  0.34368100  0.34368100  1
  H  H0  1  0.50000000  0.50000000  0.50000000  1
  O  O0  1  0.88151800  0.63439100  0.36560900  1
  O  O1  1  0.63439100  0.63439100  0.11848200  1
  O  O2  1  0.63439100  0.88151800  0.36560900  1
  O  O3  1  0.88151800  0.36560900  0.63439100  1
  O  O4  1  0.63439100  0.36560900  0.88151800  1
  O  O5  1  0.63439100  0.11848200  0.63439100  1
  O  O6  1  0.11848200  0.63439100  0.63439100  1
  O  O7  1  0.36560900  0.63439100  0.88151800  1
  O  O8  1  0.36560900  0.88151800  0.63439100  1
  O  O9  1  0.11848200  0.36560900  0.36560900  1
  O  O10  1  0.36560900  0.36560900  0.11848200  1
  O  O11  1  0.36560900  0.11848200  0.36560900  1
  O  O12  1  0.39018700  0.39018700  0.60981300  1
  O  O13  1  0.39018700  0.60981300  0.39018700  1
  O  O14  1  0.60981300  0.39018700  0.39018700  1
  O  O15  1  0.60981300  0.60981300  0.60981300  1
  O  O16  1  0.19496900  0.19496900  0.80503100  1
  O  O17  1  0.19496900  0.80503100  0.19496900  1
  O  O18  1  0.80503100  0.19496900  0.19496900  1
  O  O19  1  0.80503100  0.80503100  0.80503100  1
loop_
_geom_bond_atom_site_label_1
_geom_bond_atom_site_label_2
_geom_bond_distance
_geom_bond_site_symmetry_2
Ge0 O0 1.762008 1_455
Ge0 O9 1.762008 1_555
Ge0 O3 1.762008 1_455
Ge0 O6 1.762008 1_555
Ge1 O10 1.762008 1_555
Ge1 O7 1.762008 1_554
Ge1 O4 1.762008 1_554
Ge1 O1 1.762008 1_555
Ge2 O8 1.762008 1_545
Ge2 O2 1.762008 1_545
Ge2 O11 1.762008 1_555
Ge2 O5 1.762008 1_555
Ge3 O1 1.788444 1_555
Ge3 O0 1.788444 1_555
Ge3 O2 1.788444 1_555
Ge3 O13 2.156749 1_555
Ge3 O14 2.156749 1_555
Ge3 O15 2.156749 1_555
Ge4 O5 1.788444 1_555
Ge4 O3 1.788444 1_555
Ge4 O4 1.788444 1_555
Ge4 O12 2.156749 1_555
Ge4 O14 2.156749 1_555
Ge4 O15 2.156749 1_555
Ge5 O6 1.788444 1_555
Ge5 O7 1.788444 1_555
Ge5 O8 1.788444 1_555
Ge5 O12 2.156749 1_555
Ge5 O13 2.156749 1_555
Ge5 O15 2.156749 1_555
Ge6 O11 1.788444 1_555
Ge6 O9 1.788444 1_555
Ge6 O10 1.788444 1_555
Ge6 O13 2.156749 1_555
Ge6 O14 2.156749 1_555
Ge6 O12 2.156749 1_555
H0 O13 1.496388 1_555
H0 O12 1.496388 1_555
H0 O14 1.496388 1_555
H0 O15 1.496388 1_555
