# generated using pymatgen
data_V2CdO4
_symmetry_space_group_name_H-M   'P 1'
_cell_length_a   6.26357270
_cell_length_b   6.25803819
_cell_length_c   6.26493019
_cell_angle_alpha   60.13369834
_cell_angle_beta   60.08374249
_cell_angle_gamma   60.03838596
_symmetry_Int_Tables_number   1
_chemical_formula_structural   V2CdO4
_chemical_formula_sum   'V4 Cd2 O8'
_cell_volume   173.98002043
_cell_formula_units_Z   2
loop_
 _symmetry_equiv_pos_site_id
 _symmetry_equiv_pos_as_xyz
  1  'x, y, z'
loop_
 _atom_site_type_symbol
 _atom_site_label
 _atom_site_symmetry_multiplicity
 _atom_site_fract_x
 _atom_site_fract_y
 _atom_site_fract_z
 _atom_site_occupancy
  V  V0  1  0.50000300  0.99999800  0.49999500  1
  V  V1  1  0.99999900  0.50000300  0.50000000  1
  V  V2  1  0.50000200  0.49999600  0.00000000  1
  V  V3  1  0.50000300  0.50000700  0.50000600  1
  Cd  Cd0  1  0.12557700  0.12472800  0.12493900  1
  Cd  Cd1  1  0.87442400  0.87527300  0.87506200  1
  O  O0  1  0.73104200  0.73276800  0.73379300  1
  O  O1  1  0.26531000  0.26844400  0.69730800  1
  O  O2  1  0.26727600  0.69768900  0.26672500  1
  O  O3  1  0.69739100  0.26743500  0.26800000  1
  O  O4  1  0.73272000  0.30231000  0.73327500  1
  O  O5  1  0.30260800  0.73256400  0.73200000  1
  O  O6  1  0.26896000  0.26723100  0.26620600  1
  O  O7  1  0.73468600  0.73155400  0.30269100  1
loop_
_geom_bond_atom_site_label_1
_geom_bond_atom_site_label_2
_geom_bond_distance
_geom_bond_site_symmetry_2
Cd0 O6 2.182657 1_555
Cd0 O2 2.184405 1_545
Cd0 O1 2.190887 1_554
Cd0 O3 2.191109 1_455
Cd1 O0 2.182673 1_555
Cd1 O4 2.184394 1_565
Cd1 O7 2.190877 1_556
Cd1 O5 2.191099 1_655
O0 V2 2.067904 1_556
O0 V0 2.072128 1_555
O0 V1 2.077927 1_555
O1 V1 2.061333 1_455
O1 V0 2.073708 1_545
O1 V3 2.078495 1_555
O2 V2 2.067785 1_555
O2 V1 2.072806 1_455
O2 V3 2.077103 1_555
O3 V3 2.068005 1_555
O3 V0 2.072148 1_545
O3 V2 2.074938 1_555
O4 V2 2.067757 1_556
O4 V1 2.072844 1_555
O4 V3 2.076989 1_555
O5 V3 2.067872 1_555
O5 V0 2.072163 1_555
O5 V2 2.074959 1_556
O6 V2 2.067883 1_555
O6 V0 2.072109 1_545
O6 V1 2.077962 1_455
O7 V1 2.061347 1_555
O7 V0 2.073661 1_555
O7 V3 2.078363 1_555
