# generated using pymatgen
data_Bi2O3
_symmetry_space_group_name_H-M   'P 1'
_cell_length_a   5.52257621
_cell_length_b   5.20447886
_cell_length_c   12.04469033
_cell_angle_alpha   90.00000000
_cell_angle_beta   90.00000000
_cell_angle_gamma   90.00000000
_symmetry_Int_Tables_number   1
_chemical_formula_structural   Bi2O3
_chemical_formula_sum   'Bi8 O12'
_cell_volume   346.19006898
_cell_formula_units_Z   4
loop_
 _symmetry_equiv_pos_site_id
 _symmetry_equiv_pos_as_xyz
  1  'x, y, z'
loop_
 _atom_site_type_symbol
 _atom_site_label
 _atom_site_symmetry_multiplicity
 _atom_site_fract_x
 _atom_site_fract_y
 _atom_site_fract_z
 _atom_site_occupancy
  Bi  Bi0  1  0.94918268  0.29035985  0.87536653  1
  Bi  Bi1  1  0.44918268  0.20964015  0.62463347  1
  Bi  Bi2  1  0.05081732  0.20964015  0.37536653  1
  Bi  Bi3  1  0.55081732  0.29035985  0.12463347  1
  Bi  Bi4  1  0.05081732  0.70964015  0.12463347  1
  Bi  Bi5  1  0.55081732  0.79035985  0.37536653  1
  Bi  Bi6  1  0.94918268  0.79035985  0.62463347  1
  Bi  Bi7  1  0.44918268  0.70964015  0.87536653  1
  O  O0  1  0.25000000  0.45113356  -0.00000000  1
  O  O1  1  0.75000000  0.04886644  0.50000000  1
  O  O2  1  0.75000000  0.54886644  -0.00000000  1
  O  O3  1  0.25000000  0.95113356  0.50000000  1
  O  O4  1  0.41246007  0.12528118  0.30039642  1
  O  O5  1  0.91246007  0.37471882  0.19960358  1
  O  O6  1  0.58753993  0.37471882  0.80039642  1
  O  O7  1  0.08753993  0.12528118  0.69960358  1
  O  O8  1  0.58753993  0.87471882  0.69960358  1
  O  O9  1  0.08753993  0.62528118  0.80039642  1
  O  O10  1  0.41246007  0.62528118  0.19960358  1
  O  O11  1  0.91246007  0.87471882  0.30039642  1
loop_
_geom_bond_atom_site_label_1
_geom_bond_atom_site_label_2
_geom_bond_distance
_geom_bond_site_symmetry_2
Bi0 O9 2.106559 1_655
Bi0 O6 2.235388 1_555
Bi0 O2 2.296432 1_556
Bi0 O0 2.390299 1_656
Bi0 O7 2.409087 1_655
Bi1 O8 2.106559 1_545
Bi1 O7 2.235388 1_555
Bi1 O3 2.296432 1_545
Bi1 O1 2.390299 1_555
Bi1 O6 2.409087 1_555
Bi2 O11 2.106559 1_445
Bi2 O4 2.235388 1_555
Bi2 O3 2.296432 1_545
Bi2 O1 2.390299 1_455
Bi2 O5 2.409087 1_455
Bi3 O10 2.106559 1_555
Bi3 O5 2.235388 1_555
Bi3 O2 2.296432 1_555
Bi3 O0 2.390299 1_555
Bi3 O4 2.409087 1_555
Bi4 O5 2.106559 1_455
Bi4 O10 2.235388 1_555
Bi4 O0 2.296432 1_555
Bi4 O2 2.390299 1_455
Bi4 O11 2.409087 1_455
Bi5 O4 2.106559 1_565
Bi5 O11 2.235388 1_555
Bi5 O1 2.296432 1_565
Bi5 O3 2.390299 1_555
Bi5 O10 2.409087 1_555
Bi6 O7 2.106559 1_665
Bi6 O8 2.235388 1_555
Bi6 O1 2.296432 1_565
Bi6 O3 2.390299 1_655
Bi6 O9 2.409087 1_655
Bi7 O6 2.106559 1_555
Bi7 O9 2.235388 1_555
Bi7 O0 2.296432 1_556
Bi7 O2 2.390299 1_556
Bi7 O8 2.409087 1_555
