# generated using pymatgen
data_Ba12MnRu5(ClO6)4
_symmetry_space_group_name_H-M   'P 1'
_cell_length_a   5.91720042
_cell_length_b   5.91720042
_cell_length_c   30.10253700
_cell_angle_alpha   90.00000000
_cell_angle_beta   90.00000000
_cell_angle_gamma   120.00000465
_symmetry_Int_Tables_number   1
_chemical_formula_structural   Ba12MnRu5(ClO6)4
_chemical_formula_sum   'Ba12 Mn1 Ru5 Cl4 O24'
_cell_volume   912.78032118
_cell_formula_units_Z   1
loop_
 _symmetry_equiv_pos_site_id
 _symmetry_equiv_pos_as_xyz
  1  'x, y, z'
loop_
 _atom_site_type_symbol
 _atom_site_label
 _atom_site_symmetry_multiplicity
 _atom_site_fract_x
 _atom_site_fract_y
 _atom_site_fract_z
 _atom_site_occupancy
  Ba  Ba0  1  0.33333300  0.66666700  0.89316200  1
  Ba  Ba1  1  0.33333300  0.66666700  0.39506700  1
  Ba  Ba2  1  0.66666700  0.33333300  0.60493300  1
  Ba  Ba3  1  0.66666700  0.33333300  0.10683800  1
  Ba  Ba4  1  0.33333300  0.66666700  0.68204200  1
  Ba  Ba5  1  0.33333300  0.66666700  0.18168200  1
  Ba  Ba6  1  0.66666700  0.33333300  0.81831800  1
  Ba  Ba7  1  0.66666700  0.33333300  0.31795800  1
  Ba  Ba8  1  0.33333300  0.66666700  0.53835600  1
  Ba  Ba9  1  0.33333300  0.66666700  0.03963200  1
  Ba  Ba10  1  0.66666700  0.33333300  0.96036800  1
  Ba  Ba11  1  0.66666700  0.33333300  0.46164400  1
  Mn  Mn0  1  0.00000000  0.00000000  0.50000000  1
  Ru  Ru0  1  0.00000000  0.00000000  0.91237200  1
  Ru  Ru1  1  0.00000000  0.00000000  0.41066400  1
  Ru  Ru2  1  0.00000000  0.00000000  0.58933600  1
  Ru  Ru3  1  0.00000000  0.00000000  0.08762800  1
  Ru  Ru4  1  0.00000000  0.00000000  0.00000000  1
  Cl  Cl0  1  0.33333300  0.66666700  0.78902000  1
  Cl  Cl1  1  0.33333300  0.66666700  0.28939300  1
  Cl  Cl2  1  0.66666700  0.33333300  0.71060700  1
  Cl  Cl3  1  0.66666700  0.33333300  0.21098000  1
  O  O0  1  0.31779100  0.15889600  0.87959200  1
  O  O1  1  0.32131300  0.16065700  0.37950800  1
  O  O2  1  0.84110400  0.68220900  0.87959200  1
  O  O3  1  0.83934300  0.67868700  0.37950800  1
  O  O4  1  0.84110400  0.15889600  0.87959200  1
  O  O5  1  0.83934300  0.16065700  0.37950800  1
  O  O6  1  0.67868700  0.83934300  0.62049200  1
  O  O7  1  0.68220900  0.84110400  0.12040800  1
  O  O8  1  0.16065700  0.32131300  0.62049200  1
  O  O9  1  0.15889600  0.31779100  0.12040800  1
  O  O10  1  0.16065700  0.83934300  0.62049200  1
  O  O11  1  0.15889600  0.84110400  0.12040800  1
  O  O12  1  0.29732600  0.14866300  0.54048500  1
  O  O13  1  0.30939600  0.15469800  0.04135600  1
  O  O14  1  0.85133700  0.70267400  0.54048500  1
  O  O15  1  0.84530200  0.69060400  0.04135600  1
  O  O16  1  0.85133700  0.14866300  0.54048500  1
  O  O17  1  0.84530200  0.15469800  0.04135600  1
  O  O18  1  0.69060400  0.84530200  0.95864400  1
  O  O19  1  0.70267400  0.85133700  0.45951500  1
  O  O20  1  0.15469800  0.30939600  0.95864400  1
  O  O21  1  0.14866300  0.29732600  0.45951500  1
  O  O22  1  0.15469800  0.84530200  0.95864400  1
  O  O23  1  0.14866300  0.85133700  0.45951500  1
loop_
_geom_bond_atom_site_label_1
_geom_bond_atom_site_label_2
_geom_bond_distance
_geom_bond_site_symmetry_2
Ba0 O22 2.690241 1_555
Ba0 O20 2.690244 1_555
Ba0 O18 2.690244 1_555
Ba0 O4 2.987729 1_565
Ba0 O4 2.987729 1_455
Ba0 O2 2.987729 1_555
Ba0 O0 2.987729 1_555
Ba0 O0 2.987729 1_565
Ba0 O2 2.987729 1_455
Ba0 Cl0 3.134938 1_555
Ba1 O23 2.710343 1_555
Ba1 O21 2.710347 1_555
Ba1 O19 2.710347 1_555
Ba1 O5 2.996076 1_565
Ba1 O5 2.996076 1_455
Ba1 O1 2.996077 1_555
Ba1 O3 2.996077 1_555
Ba1 O3 2.996077 1_455
Ba1 O1 2.996077 1_565
Ba1 Cl1 3.181055 1_555
Ba2 O16 2.710343 1_555
Ba2 O12 2.710347 1_555
Ba2 O14 2.710347 1_555
Ba2 O10 2.996076 1_655
Ba2 O10 2.996076 1_545
Ba2 O8 2.996077 1_555
Ba2 O6 2.996077 1_555
Ba2 O6 2.996077 1_545
Ba2 O8 2.996077 1_655
Ba2 Cl2 3.181055 1_555
Ba3 O17 2.690241 1_555
Ba3 O13 2.690244 1_555
Ba3 O15 2.690244 1_555
Ba3 O11 2.987729 1_655
Ba3 O11 2.987729 1_545
Ba3 O7 2.987729 1_555
Ba3 O9 2.987729 1_555
Ba3 O9 2.987729 1_655
Ba3 O7 2.987729 1_545
Ba3 Cl3 3.134938 1_555
Ba4 O10 2.562202 1_555
Ba4 O6 2.562209 1_555
Ba4 O8 2.562209 1_555
Ba4 Cl0 3.220309 1_555
Ba4 Cl2 3.522847 1_455
Ba4 Cl2 3.522847 1_565
Ba4 Cl2 3.522858 1_555
Ba5 O11 2.568729 1_555
Ba5 O7 2.568736 1_555
Ba5 O9 2.568736 1_555
Ba5 Cl1 3.242374 1_555
Ba5 Cl3 3.528298 1_455
Ba5 Cl3 3.528298 1_565
Ba5 Cl3 3.528308 1_555
Ba6 O4 2.568729 1_555
Ba6 O2 2.568736 1_555
Ba6 O0 2.568736 1_555
Ba6 Cl2 3.242374 1_555
Ba6 Cl0 3.528298 1_545
Ba6 Cl0 3.528298 1_655
Ba6 Cl0 3.528308 1_555
Ba7 O5 2.562202 1_555
Ba7 O3 2.562209 1_555
Ba7 O1 2.562209 1_555
Ba7 Cl3 3.220309 1_555
Ba7 Cl1 3.522847 1_545
Ba7 Cl1 3.522847 1_655
Ba7 Cl1 3.522858 1_555
Ba8 O12 2.965038 1_565
Ba8 O14 2.965038 1_455
Ba8 O16 2.965041 1_455
Ba8 O16 2.965041 1_565
Ba8 O12 2.965044 1_555
Ba8 O14 2.965044 1_555
Ba8 O23 3.035588 1_555
Ba8 O21 3.035591 1_555
Ba8 O19 3.035591 1_555
Ba8 O10 3.040598 1_555
Ba8 O6 3.040604 1_555
Ba8 O8 3.040604 1_555
Ba9 O13 2.961594 1_565
Ba9 O15 2.961594 1_455
Ba9 O17 2.961597 1_455
Ba9 O17 2.961597 1_565
Ba9 O13 2.961600 1_555
Ba9 O15 2.961600 1_555
Ba9 O11 3.018058 1_555
Ba9 O7 3.018064 1_555
Ba9 O9 3.018064 1_555
Ba9 O22 3.048842 1_554
Ba9 O20 3.048845 1_554
Ba9 O18 3.048845 1_554
Ba10 O20 2.961594 1_655
Ba10 O18 2.961594 1_545
Ba10 O22 2.961597 1_655
Ba10 O22 2.961597 1_545
Ba10 O18 2.961600 1_555
Ba10 O20 2.961600 1_555
Ba10 O4 3.018058 1_555
Ba10 O2 3.018064 1_555
Ba10 O0 3.018064 1_555
Ba10 O17 3.048842 1_556
Ba10 O15 3.048845 1_556
Ba10 O13 3.048845 1_556
Ba11 O19 2.965038 1_545
Ba11 O21 2.965038 1_655
Ba11 O23 2.965041 1_655
Ba11 O23 2.965041 1_545
Ba11 O21 2.965044 1_555
Ba11 O19 2.965044 1_555
Ba11 O16 3.035588 1_555
Ba11 O12 3.035591 1_555
Ba11 O14 3.035591 1_555
Ba11 O5 3.040598 1_555
Ba11 O3 3.040604 1_555
Ba11 O1 3.040604 1_555
Mn0 O19 1.951072 1_445
Mn0 O21 1.951072 1_555
Mn0 O12 1.951072 1_555
Mn0 O14 1.951072 1_445
Mn0 O23 1.951073 1_545
Mn0 O16 1.951073 1_455
O0 Ru0 1.904132 1_555
O1 Ru1 1.894925 1_555
O2 Ru0 1.904132 1_665
O3 Ru1 1.894925 1_665
O4 Ru0 1.904136 1_655
O5 Ru1 1.894929 1_655
O6 Ru2 1.894925 1_665
O7 Ru3 1.904132 1_665
O8 Ru2 1.894925 1_555
O9 Ru3 1.904132 1_555
O10 Ru2 1.894929 1_565
O11 Ru3 1.904136 1_565
O12 Ru2 2.117531 1_555
O13 Ru4 2.015833 1_555
O13 Ru3 2.110436 1_555
O14 Ru2 2.117531 1_665
O15 Ru4 2.015833 1_665
O15 Ru3 2.110436 1_665
O16 Ru2 2.117531 1_655
O17 Ru4 2.015833 1_655
O17 Ru3 2.110436 1_655
O18 Ru4 2.015833 1_666
O18 Ru0 2.110436 1_665
O19 Ru1 2.117531 1_665
O20 Ru4 2.015833 1_556
O20 Ru0 2.110436 1_555
O21 Ru1 2.117531 1_555
O22 Ru4 2.015833 1_566
O22 Ru0 2.110436 1_565
O23 Ru1 2.117531 1_565
