# generated using pymatgen
data_TeWSe
_symmetry_space_group_name_H-M   'P 1'
_cell_length_a   3.43770400
_cell_length_b   3.43770400
_cell_length_c   39.19360300
_cell_angle_alpha   90.00000000
_cell_angle_beta   90.00000000
_cell_angle_gamma   120.00000009
_symmetry_Int_Tables_number   1
_chemical_formula_structural   TeWSe
_chemical_formula_sum   'Te4 W4 Se4'
_cell_volume   401.12781759
_cell_formula_units_Z   4
loop_
 _symmetry_equiv_pos_site_id
 _symmetry_equiv_pos_as_xyz
  1  'x, y, z'
loop_
 _atom_site_type_symbol
 _atom_site_label
 _atom_site_symmetry_multiplicity
 _atom_site_fract_x
 _atom_site_fract_y
 _atom_site_fract_z
 _atom_site_occupancy
  Te  Te0  1  0.33333300  0.66666700  0.70515400  1
  Te  Te1  1  0.66666700  0.33333300  0.42201600  1
  Te  Te2  1  0.66666700  0.33333300  0.51724400  1
  Te  Te3  1  0.33333300  0.66666700  0.60993000  1
  W  W0  1  0.33333300  0.66666700  0.09392400  1
  W  W1  1  0.33333300  0.66666700  0.46964300  1
  W  W2  1  0.66666700  0.33333300  0.28179600  1
  W  W3  1  0.66666700  0.33333300  0.65758100  1
  Se  Se0  1  0.33333300  0.66666700  0.32371500  1
  Se  Se1  1  0.66666700  0.33333300  0.05202700  1
  Se  Se2  1  0.66666700  0.33333300  0.13583600  1
  Se  Se3  1  0.33333300  0.66666700  0.23988200  1
loop_
_geom_bond_atom_site_label_1
_geom_bond_atom_site_label_2
_geom_bond_distance
_geom_bond_site_symmetry_2
Te0 W3 2.723203 1_455
Te0 W3 2.723203 1_565
Te0 W3 2.723208 1_555
Te1 W1 2.724653 1_545
Te1 W1 2.724653 1_655
Te1 W1 2.724657 1_555
Te2 W1 2.723955 1_545
Te2 W1 2.723955 1_655
Te2 W1 2.723959 1_555
Te3 W3 2.725297 1_455
Te3 W3 2.725297 1_565
Te3 W3 2.725302 1_555
Se0 W2 2.576542 1_455
Se0 W2 2.576542 1_565
Se0 W2 2.576547 1_555
Se1 W0 2.575992 1_545
Se1 W0 2.575992 1_655
Se1 W0 2.575997 1_555
Se2 W0 2.576367 1_545
Se2 W0 2.576367 1_655
Se2 W0 2.576372 1_555
Se3 W2 2.576417 1_455
Se3 W2 2.576417 1_565
Se3 W2 2.576422 1_555
