# generated using pymatgen
data_NdPO4
_symmetry_space_group_name_H-M   'P 1'
_cell_length_a   5.90364289
_cell_length_b   5.90364289
_cell_length_c   5.90364289
_cell_angle_alpha   106.06672588
_cell_angle_beta   106.06672588
_cell_angle_gamma   116.51849786
_symmetry_Int_Tables_number   1
_chemical_formula_structural   NdPO4
_chemical_formula_sum   'Nd2 P2 O8'
_cell_volume   156.57546614
_cell_formula_units_Z   2
loop_
 _symmetry_equiv_pos_site_id
 _symmetry_equiv_pos_as_xyz
  1  'x, y, z'
loop_
 _atom_site_type_symbol
 _atom_site_label
 _atom_site_symmetry_multiplicity
 _atom_site_fract_x
 _atom_site_fract_y
 _atom_site_fract_z
 _atom_site_occupancy
  Nd  Nd0  1  0.87500000  0.12500000  0.25000000  1
  Nd  Nd1  1  0.12500000  0.87500000  0.75000000  1
  P  P0  1  0.62500000  0.37500000  0.75000000  1
  P  P1  1  0.37500000  0.62500000  0.25000000  1
  O  O0  1  0.64335712  0.22237049  0.92098563  1
  O  O1  1  0.22237049  0.64335712  0.42098563  1
  O  O2  1  0.22237049  0.30138387  0.07901437  1
  O  O3  1  0.30138387  0.22237049  0.57901437  1
  O  O4  1  0.35664288  0.77762951  0.07901437  1
  O  O5  1  0.77762951  0.35664288  0.57901437  1
  O  O6  1  0.77762951  0.69861613  0.92098563  1
  O  O7  1  0.69861613  0.77762951  0.42098563  1
loop_
_geom_bond_atom_site_label_1
_geom_bond_atom_site_label_2
_geom_bond_distance
_geom_bond_site_symmetry_2
Nd0 O6 2.413124 1_544
Nd0 O3 2.413124 1_655
Nd0 O0 2.413126 1_554
Nd0 O5 2.413126 1_555
Nd0 O7 2.475804 1_545
Nd0 O2 2.475804 1_655
Nd0 O4 2.475809 1_545
Nd0 O1 2.475809 1_655
Nd1 O2 2.413124 1_566
Nd1 O7 2.413124 1_455
Nd1 O4 2.413126 1_556
Nd1 O1 2.413126 1_555
Nd1 O6 2.475804 1_455
Nd1 O3 2.475804 1_565
Nd1 O5 2.475809 1_455
Nd1 O0 2.475809 1_565
O0 P0 1.540373 1_555
O1 P1 1.540373 1_555
O2 P1 1.540376 1_555
O3 P0 1.540376 1_555
O4 P1 1.540373 1_555
O5 P0 1.540373 1_555
O6 P0 1.540376 1_555
O7 P1 1.540376 1_555
