# generated using pymatgen
data_Er6Mn23
_symmetry_space_group_name_H-M   'P 1'
_cell_length_a   8.45101498
_cell_length_b   8.45101498
_cell_length_c   8.45101498
_cell_angle_alpha   60.00000000
_cell_angle_beta   60.00000000
_cell_angle_gamma   60.00000000
_symmetry_Int_Tables_number   1
_chemical_formula_structural   Er6Mn23
_chemical_formula_sum   'Er6 Mn23'
_cell_volume   426.78742689
_cell_formula_units_Z   1
loop_
 _symmetry_equiv_pos_site_id
 _symmetry_equiv_pos_as_xyz
  1  'x, y, z'
loop_
 _atom_site_type_symbol
 _atom_site_label
 _atom_site_symmetry_multiplicity
 _atom_site_fract_x
 _atom_site_fract_y
 _atom_site_fract_z
 _atom_site_occupancy
  Er  Er0  1  0.70387500  0.29612500  0.29612500  1
  Er  Er1  1  0.70387500  0.29612500  0.70387500  1
  Er  Er2  1  0.70387500  0.70387500  0.29612500  1
  Er  Er3  1  0.29612500  0.70387500  0.70387500  1
  Er  Er4  1  0.29612500  0.70387500  0.29612500  1
  Er  Er5  1  0.29612500  0.29612500  0.70387500  1
  Mn  Mn0  1  0.00000000  0.00000000  0.00000000  1
  Mn  Mn1  1  0.50000000  0.00000000  0.00000000  1
  Mn  Mn2  1  0.50000000  0.00000000  0.50000000  1
  Mn  Mn3  1  0.50000000  0.50000000  0.00000000  1
  Mn  Mn4  1  0.00000000  0.50000000  0.50000000  1
  Mn  Mn5  1  0.00000000  0.50000000  0.00000000  1
  Mn  Mn6  1  0.00000000  0.00000000  0.50000000  1
  Mn  Mn7  1  0.63506100  0.12164600  0.12164600  1
  Mn  Mn8  1  0.12164600  0.63506100  0.12164600  1
  Mn  Mn9  1  0.12164600  0.12164600  0.63506100  1
  Mn  Mn10  1  0.12164600  0.12164600  0.12164600  1
  Mn  Mn11  1  0.36493900  0.87835400  0.87835400  1
  Mn  Mn12  1  0.87835400  0.36493900  0.87835400  1
  Mn  Mn13  1  0.87835400  0.87835400  0.36493900  1
  Mn  Mn14  1  0.87835400  0.87835400  0.87835400  1
  Mn  Mn15  1  0.03150000  0.32283300  0.32283300  1
  Mn  Mn16  1  0.32283300  0.03150000  0.32283300  1
  Mn  Mn17  1  0.32283300  0.32283300  0.03150000  1
  Mn  Mn18  1  0.32283300  0.32283300  0.32283300  1
  Mn  Mn19  1  0.96850000  0.67716700  0.67716700  1
  Mn  Mn20  1  0.67716700  0.96850000  0.67716700  1
  Mn  Mn21  1  0.67716700  0.67716700  0.96850000  1
  Mn  Mn22  1  0.67716700  0.67716700  0.67716700  1
loop_
_geom_bond_atom_site_label_1
_geom_bond_atom_site_label_2
_geom_bond_distance
_geom_bond_site_symmetry_2
Er0 Mn12 2.928453 1_554
Er0 Mn13 2.928453 1_545
Er0 Mn10 2.928455 1_655
Er0 Mn7 2.928461 1_555
Er0 Mn15 3.011438 1_655
Er0 Mn21 3.011443 1_554
Er0 Mn20 3.011443 1_545
Er0 Mn18 3.011447 1_555
Er0 Mn5 3.038314 1_655
Er0 Mn6 3.038314 1_655
Er0 Mn2 3.038314 1_555
Er0 Mn3 3.038314 1_555
Er1 Mn9 2.928453 1_655
Er1 Mn7 2.928453 1_556
Er1 Mn14 2.928455 1_545
Er1 Mn12 2.928461 1_555
Er1 Mn20 3.011438 1_545
Er1 Mn15 3.011443 1_655
Er1 Mn17 3.011443 1_556
Er1 Mn22 3.011447 1_555
Er1 Mn3 3.038314 1_556
Er1 Mn4 3.038314 1_655
Er1 Mn6 3.038314 1_655
Er1 Mn1 3.038314 1_556
Er2 Mn8 2.928453 1_655
Er2 Mn7 2.928453 1_565
Er2 Mn14 2.928455 1_554
Er2 Mn13 2.928461 1_555
Er2 Mn21 3.011438 1_554
Er2 Mn15 3.011443 1_655
Er2 Mn16 3.011443 1_565
Er2 Mn22 3.011447 1_555
Er2 Mn4 3.038314 1_655
Er2 Mn2 3.038314 1_565
Er2 Mn5 3.038314 1_655
Er2 Mn1 3.038314 1_565
Er3 Mn8 2.928453 1_556
Er3 Mn9 2.928453 1_565
Er3 Mn14 2.928455 1_455
Er3 Mn11 2.928461 1_555
Er3 Mn19 3.011438 1_455
Er3 Mn17 3.011443 1_556
Er3 Mn16 3.011443 1_565
Er3 Mn22 3.011447 1_555
Er3 Mn3 3.038314 1_556
Er3 Mn2 3.038314 1_565
Er3 Mn6 3.038314 1_565
Er3 Mn5 3.038314 1_556
Er4 Mn11 2.928453 1_554
Er4 Mn13 2.928453 1_455
Er4 Mn10 2.928455 1_565
Er4 Mn8 2.928461 1_555
Er4 Mn16 3.011438 1_565
Er4 Mn21 3.011443 1_554
Er4 Mn19 3.011443 1_455
Er4 Mn18 3.011447 1_555
Er4 Mn1 3.038314 1_565
Er4 Mn6 3.038314 1_565
Er4 Mn4 3.038314 1_555
Er4 Mn3 3.038314 1_555
Er5 Mn12 2.928453 1_455
Er5 Mn11 2.928453 1_545
Er5 Mn10 2.928455 1_556
Er5 Mn9 2.928461 1_555
Er5 Mn17 3.011438 1_556
Er5 Mn20 3.011443 1_545
Er5 Mn19 3.011443 1_455
Er5 Mn18 3.011447 1_555
Er5 Mn1 3.038314 1_556
Er5 Mn5 3.038314 1_556
Er5 Mn4 3.038314 1_555
Er5 Mn2 3.038314 1_555
Mn0 Mn10 2.518154 1_555
Mn0 Mn14 2.518154 1_444
Mn0 Mn12 2.518161 1_454
Mn0 Mn7 2.518161 1_455
Mn0 Mn11 2.518161 1_544
Mn0 Mn8 2.518161 1_545
Mn0 Mn13 2.518161 1_445
Mn0 Mn9 2.518161 1_554
Mn1 Mn20 2.449259 1_544
Mn1 Mn16 2.449259 1_555
Mn1 Mn21 2.449259 1_544
Mn1 Mn17 2.449259 1_555
Mn1 Mn11 2.611541 1_544
Mn1 Mn7 2.611541 1_555
Mn1 Mn10 2.611548 1_555
Mn1 Mn14 2.611548 1_544
Mn2 Mn22 2.449262 1_545
Mn2 Mn20 2.449266 1_545
Mn2 Mn9 2.611548 1_555
Mn2 Mn7 2.611548 1_555
Mn3 Mn7 2.611548 1_555
Mn3 Mn8 2.611548 1_555
Mn4 Mn8 2.611548 1_555
Mn4 Mn9 2.611548 1_555
Mn5 Mn8 2.611541 1_555
Mn6 Mn9 2.611541 1_555
Mn10 Mn15 2.581125 1_555
Mn10 Mn16 2.581125 1_555
Mn10 Mn17 2.581125 1_555
Mn10 Mn5 2.611548 1_555
Mn10 Mn6 2.611548 1_555
Mn10 Mn12 2.907714 1_454
Mn10 Mn11 2.907714 1_544
Mn10 Mn13 2.907714 1_445
Mn11 Mn22 2.581125 1_555
Mn11 Mn21 2.581125 1_555
Mn11 Mn20 2.581125 1_555
Mn11 Mn2 2.611548 1_565
Mn11 Mn3 2.611548 1_556
Mn11 Mn8 2.907726 1_556
Mn11 Mn9 2.907726 1_565
Mn12 Mn19 2.581125 1_555
Mn12 Mn22 2.581125 1_555
Mn12 Mn21 2.581125 1_555
Mn12 Mn5 2.611541 1_656
Mn12 Mn4 2.611548 1_655
Mn12 Mn3 2.611548 1_556
Mn12 Mn9 2.907726 1_655
Mn12 Mn7 2.907726 1_556
Mn13 Mn22 2.581125 1_555
Mn13 Mn20 2.581125 1_555
Mn13 Mn19 2.581125 1_555
Mn13 Mn6 2.611541 1_665
Mn13 Mn4 2.611548 1_655
Mn13 Mn2 2.611548 1_565
Mn13 Mn8 2.907726 1_655
Mn13 Mn7 2.907726 1_565
Mn14 Mn21 2.581125 1_555
Mn14 Mn20 2.581125 1_555
Mn14 Mn19 2.581125 1_555
Mn14 Mn5 2.611548 1_656
Mn14 Mn6 2.611548 1_665
Mn14 Mn9 2.907714 1_665
Mn14 Mn7 2.907714 1_566
Mn14 Mn8 2.907714 1_656
Mn15 Mn6 2.449259 1_555
Mn15 Mn5 2.449259 1_555
Mn15 Mn4 2.449266 1_555
Mn15 Mn17 2.462060 1_555
Mn15 Mn16 2.462060 1_555
Mn15 Mn18 2.462060 1_555
Mn15 Mn8 2.581125 1_555
Mn15 Mn9 2.581125 1_555
Mn16 Mn6 2.449259 1_555
Mn16 Mn2 2.449266 1_555
Mn16 Mn17 2.462060 1_555
Mn16 Mn18 2.462060 1_555
Mn16 Mn7 2.581125 1_555
Mn16 Mn9 2.581125 1_555
Mn17 Mn5 2.449259 1_555
Mn17 Mn3 2.449266 1_555
Mn17 Mn18 2.462060 1_555
Mn17 Mn7 2.581125 1_555
Mn17 Mn8 2.581125 1_555
Mn18 Mn3 2.449262 1_555
Mn18 Mn4 2.449262 1_555
Mn18 Mn2 2.449262 1_555
Mn18 Mn8 2.581125 1_555
Mn18 Mn9 2.581125 1_555
Mn18 Mn7 2.581125 1_555
Mn19 Mn5 2.449259 1_656
Mn19 Mn6 2.449259 1_665
Mn19 Mn4 2.449266 1_655
Mn19 Mn21 2.462060 1_555
Mn19 Mn22 2.462060 1_555
Mn19 Mn20 2.462060 1_555
Mn20 Mn6 2.449259 1_665
Mn20 Mn21 2.462060 1_555
Mn20 Mn22 2.462060 1_555
Mn21 Mn5 2.449259 1_656
Mn21 Mn3 2.449266 1_556
Mn21 Mn22 2.462060 1_555
Mn22 Mn3 2.449262 1_556
Mn22 Mn4 2.449262 1_655
