# generated using pymatgen
data_Sr2Ti(SiO4)2
_symmetry_space_group_name_H-M   'P 1'
_cell_length_a   8.48821800
_cell_length_b   8.48821800
_cell_length_c   5.10869900
_cell_angle_alpha   90.00000000
_cell_angle_beta   90.00000000
_cell_angle_gamma   90.00000000
_symmetry_Int_Tables_number   1
_chemical_formula_structural   Sr2Ti(SiO4)2
_chemical_formula_sum   'Sr4 Ti2 Si4 O16'
_cell_volume   368.08097016
_cell_formula_units_Z   2
loop_
 _symmetry_equiv_pos_site_id
 _symmetry_equiv_pos_as_xyz
  1  'x, y, z'
loop_
 _atom_site_type_symbol
 _atom_site_label
 _atom_site_symmetry_multiplicity
 _atom_site_fract_x
 _atom_site_fract_y
 _atom_site_fract_z
 _atom_site_occupancy
  Sr  Sr0  1  0.17335400  0.67335400  0.99788300  1
  Sr  Sr1  1  0.82664600  0.32664600  0.99788300  1
  Sr  Sr2  1  0.67335400  0.82664600  0.99788300  1
  Sr  Sr3  1  0.32664600  0.17335400  0.99788300  1
  Ti  Ti0  1  0.50000000  0.50000000  0.55436800  1
  Ti  Ti1  1  0.00000000  0.00000000  0.55436800  1
  Si  Si0  1  0.37055000  0.87055000  0.53062900  1
  Si  Si1  1  0.62945000  0.12945000  0.53062900  1
  Si  Si2  1  0.87055000  0.62945000  0.53062900  1
  Si  Si3  1  0.12945000  0.37055000  0.53062900  1
  O  O0  1  0.50000000  0.00000000  0.65651600  1
  O  O1  1  0.00000000  0.50000000  0.65651600  1
  O  O2  1  0.37183400  0.87183400  0.21650900  1
  O  O3  1  0.62816600  0.12816600  0.21650900  1
  O  O4  1  0.87183400  0.62816600  0.21650900  1
  O  O5  1  0.12816600  0.37183400  0.21650900  1
  O  O6  1  0.20526400  0.91943800  0.67372200  1
  O  O7  1  0.79473600  0.08056200  0.67372200  1
  O  O8  1  0.70526400  0.58056200  0.67372200  1
  O  O9  1  0.29473600  0.41943800  0.67372200  1
  O  O10  1  0.08056200  0.20526400  0.67372200  1
  O  O11  1  0.91943800  0.79473600  0.67372200  1
  O  O12  1  0.41943800  0.70526400  0.67372200  1
  O  O13  1  0.58056200  0.29473600  0.67372200  1
  O  O14  1  0.50000000  0.50000000  0.22018800  1
  O  O15  1  0.00000000  0.00000000  0.22018800  1
loop_
_geom_bond_atom_site_label_1
_geom_bond_atom_site_label_2
_geom_bond_distance
_geom_bond_site_symmetry_2
O0 Si0 1.681762 1_545
O0 Si1 1.681762 1_555
O0 Sr3 2.715098 1_555
O0 Sr2 2.715098 1_545
O1 Si2 1.681762 1_455
O1 Si3 1.681762 1_555
O1 Sr0 2.715098 1_555
O1 Sr1 2.715098 1_455
O2 Si0 1.604819 1_555
O2 Sr0 2.631380 1_554
O2 Sr3 2.818677 1_564
O2 Sr2 2.818677 1_554
O3 Si1 1.604819 1_555
O3 Sr1 2.631380 1_554
O3 Sr3 2.818677 1_554
O3 Sr2 2.818677 1_544
O4 Si2 1.604819 1_555
O4 Sr2 2.631380 1_554
O4 Sr0 2.818677 1_654
O4 Sr1 2.818677 1_554
O5 Si3 1.604819 1_555
O5 Sr3 2.631380 1_554
O5 Sr1 2.818677 1_454
O5 Sr0 2.818677 1_554
O6 Si0 1.635529 1_555
O6 Ti1 1.968529 1_565
O6 Sr0 2.679362 1_555
O6 Sr3 2.906771 1_565
O7 Si1 1.635529 1_555
O7 Ti1 1.968529 1_655
O7 Sr1 2.679362 1_555
O7 Sr2 2.906771 1_545
O8 Si2 1.635529 1_555
O8 Ti0 1.968529 1_555
O8 Sr2 2.679362 1_555
O8 Sr1 2.906771 1_555
O9 Si3 1.635529 1_555
O9 Ti0 1.968529 1_555
O9 Sr3 2.679362 1_555
O9 Sr0 2.906771 1_555
O10 Si3 1.635529 1_555
O10 Ti1 1.968529 1_555
O10 Sr3 2.679362 1_555
O10 Sr1 2.906771 1_455
O11 Si2 1.635529 1_555
O11 Ti1 1.968529 1_665
O11 Sr2 2.679362 1_555
O11 Sr0 2.906771 1_655
O12 Si0 1.635529 1_555
O12 Ti0 1.968529 1_555
O12 Sr0 2.679362 1_555
O12 Sr2 2.906771 1_555
O13 Si1 1.635529 1_555
O13 Ti0 1.968529 1_555
O13 Sr1 2.679362 1_555
O13 Sr3 2.906771 1_555
O14 Ti0 1.707225 1_555
O15 Ti1 1.707225 1_555
