# generated using pymatgen
data_Ca4Sn3S10
_symmetry_space_group_name_H-M   'P 1'
_cell_length_a   5.02365200
_cell_length_b   5.02365200
_cell_length_c   16.93405913
_cell_angle_alpha   98.53014977
_cell_angle_beta   98.53014977
_cell_angle_gamma   90.00000000
_symmetry_Int_Tables_number   1
_chemical_formula_structural   Ca4Sn3S10
_chemical_formula_sum   'Ca4 Sn3 S10'
_cell_volume   417.85761742
_cell_formula_units_Z   1
loop_
 _symmetry_equiv_pos_site_id
 _symmetry_equiv_pos_as_xyz
  1  'x, y, z'
loop_
 _atom_site_type_symbol
 _atom_site_label
 _atom_site_symmetry_multiplicity
 _atom_site_fract_x
 _atom_site_fract_y
 _atom_site_fract_z
 _atom_site_occupancy
  Ca  Ca0  1  0.43442900  0.43442900  0.86885900  1
  Ca  Ca1  1  0.56557100  0.56557100  0.13114100  1
  Ca  Ca2  1  0.30747900  0.30747900  0.61495700  1
  Ca  Ca3  1  0.69252100  0.69252100  0.38504300  1
  Sn  Sn0  1  0.00000000  0.00000000  0.00000000  1
  Sn  Sn1  1  0.15390200  0.15390200  0.30780400  1
  Sn  Sn2  1  0.84609800  0.84609800  0.69219600  1
  S  S0  1  0.50000000  0.00000000  0.00000000  1
  S  S1  1  0.00000000  0.50000000  0.00000000  1
  S  S2  1  0.07481800  0.07481800  0.14963500  1
  S  S3  1  0.92518200  0.92518200  0.85036500  1
  S  S4  1  0.63747500  0.13747500  0.27495000  1
  S  S5  1  0.13747500  0.63747500  0.27495000  1
  S  S6  1  0.36252500  0.86252500  0.72505000  1
  S  S7  1  0.86252500  0.36252500  0.72505000  1
  S  S8  1  0.22547100  0.22547100  0.45094100  1
  S  S9  1  0.77452900  0.77452900  0.54905900  1
loop_
_geom_bond_atom_site_label_1
_geom_bond_atom_site_label_2
_geom_bond_distance
_geom_bond_site_symmetry_2
Ca0 S0 3.320237 1_556
Ca0 S1 3.320237 1_556
Ca0 S1 3.320241 1_656
Ca0 S0 3.320241 1_566
Ca0 S7 3.461045 1_455
Ca0 S6 3.461045 1_545
Ca0 S7 3.461049 1_555
Ca0 S6 3.461049 1_555
Ca0 S3 3.565432 1_445
Ca0 S3 3.565432 1_545
Ca0 S3 3.565432 1_455
Ca0 S3 3.565432 1_555
Ca1 S0 3.320237 1_565
Ca1 S1 3.320237 1_655
Ca1 S0 3.320241 1_555
Ca1 S1 3.320241 1_555
Ca1 S5 3.461045 1_655
Ca1 S4 3.461045 1_565
Ca1 S4 3.461049 1_555
Ca1 S5 3.461049 1_555
Ca1 S2 3.565432 1_555
Ca1 S2 3.565432 1_565
Ca1 S2 3.565432 1_655
Ca1 S2 3.565432 1_665
Ca2 S8 2.715660 1_555
Ca2 S7 3.103548 1_555
Ca2 S6 3.103548 1_555
Ca2 S7 3.103552 1_455
Ca2 S6 3.103552 1_545
Ca3 S9 2.715660 1_555
Ca3 S4 3.103548 1_555
Ca3 S5 3.103548 1_555
Ca3 S5 3.103552 1_655
Ca3 S4 3.103552 1_565
S0 Sn0 2.511826 1_555
S0 Sn0 2.511826 1_655
S1 Sn0 2.511826 1_565
S1 Sn0 2.511826 1_555
S2 Sn0 2.477550 1_555
S2 Sn1 2.618850 1_555
S3 Sn0 2.477550 1_666
S3 Sn2 2.618850 1_555
S4 Sn1 2.570054 1_655
S4 Sn1 2.570054 1_555
S5 Sn1 2.570054 1_565
S5 Sn1 2.570054 1_555
S6 Sn2 2.570054 1_455
S6 Sn2 2.570054 1_555
S7 Sn2 2.570054 1_545
S7 Sn2 2.570054 1_555
S8 Sn1 2.369961 1_555
S9 Sn2 2.369961 1_555
