# generated using pymatgen
data_Hf21Re25
_symmetry_space_group_name_H-M   'P 1'
_cell_length_a   15.17703248
_cell_length_b   15.17703248
_cell_length_c   15.17703191
_cell_angle_alpha   116.40865620
_cell_angle_beta   116.40865620
_cell_angle_gamma   116.40865467
_symmetry_Int_Tables_number   1
_chemical_formula_structural   Hf21Re25
_chemical_formula_sum   'Hf42 Re50'
_cell_volume   1678.64952347
_cell_formula_units_Z   2
loop_
 _symmetry_equiv_pos_site_id
 _symmetry_equiv_pos_as_xyz
  1  'x, y, z'
loop_
 _atom_site_type_symbol
 _atom_site_label
 _atom_site_symmetry_multiplicity
 _atom_site_fract_x
 _atom_site_fract_y
 _atom_site_fract_z
 _atom_site_occupancy
  Hf  Hf0  1  0.05463400  0.44536600  0.75000000  1
  Hf  Hf1  1  0.75000000  0.05463400  0.44536600  1
  Hf  Hf2  1  0.44536600  0.75000000  0.05463400  1
  Hf  Hf3  1  0.25000000  0.94536600  0.55463400  1
  Hf  Hf4  1  0.55463400  0.25000000  0.94536600  1
  Hf  Hf5  1  0.94536600  0.55463400  0.25000000  1
  Hf  Hf6  1  0.95322100  0.72695600  0.18611900  1
  Hf  Hf7  1  0.18611900  0.95322100  0.72695600  1
  Hf  Hf8  1  0.72695600  0.18611900  0.95322100  1
  Hf  Hf9  1  0.68611900  0.22695600  0.45322100  1
  Hf  Hf10  1  0.45322100  0.68611900  0.22695600  1
  Hf  Hf11  1  0.22695600  0.45322100  0.68611900  1
  Hf  Hf12  1  0.04677900  0.27304400  0.81388100  1
  Hf  Hf13  1  0.81388100  0.04677900  0.27304400  1
  Hf  Hf14  1  0.27304400  0.81388100  0.04677900  1
  Hf  Hf15  1  0.31388100  0.77304400  0.54677900  1
  Hf  Hf16  1  0.54677900  0.31388100  0.77304400  1
  Hf  Hf17  1  0.77304400  0.54677900  0.31388100  1
  Hf  Hf18  1  0.81864400  0.93401400  0.04950600  1
  Hf  Hf19  1  0.04950600  0.81864400  0.93401400  1
  Hf  Hf20  1  0.93401400  0.04950600  0.81864400  1
  Hf  Hf21  1  0.54950600  0.43401400  0.31864400  1
  Hf  Hf22  1  0.31864400  0.54950600  0.43401400  1
  Hf  Hf23  1  0.43401400  0.31864400  0.54950600  1
  Hf  Hf24  1  0.18135600  0.06598600  0.95049400  1
  Hf  Hf25  1  0.95049400  0.18135600  0.06598600  1
  Hf  Hf26  1  0.06598600  0.95049400  0.18135600  1
  Hf  Hf27  1  0.45049400  0.56598600  0.68135600  1
  Hf  Hf28  1  0.68135600  0.45049400  0.56598600  1
  Hf  Hf29  1  0.56598600  0.68135600  0.45049400  1
  Hf  Hf30  1  0.43916600  0.95741700  0.86210300  1
  Hf  Hf31  1  0.86210300  0.43916600  0.95741700  1
  Hf  Hf32  1  0.95741700  0.86210300  0.43916600  1
  Hf  Hf33  1  0.36210300  0.45741700  0.93916600  1
  Hf  Hf34  1  0.93916600  0.36210300  0.45741700  1
  Hf  Hf35  1  0.45741700  0.93916600  0.36210300  1
  Hf  Hf36  1  0.56083400  0.04258300  0.13789700  1
  Hf  Hf37  1  0.13789700  0.56083400  0.04258300  1
  Hf  Hf38  1  0.04258300  0.13789700  0.56083400  1
  Hf  Hf39  1  0.63789700  0.54258300  0.06083400  1
  Hf  Hf40  1  0.06083400  0.63789700  0.54258300  1
  Hf  Hf41  1  0.54258300  0.06083400  0.63789700  1
  Re  Re0  1  0.00000000  0.00000000  0.00000000  1
  Re  Re1  1  0.50000000  0.50000000  0.50000000  1
  Re  Re2  1  0.68862900  0.81137100  0.75000000  1
  Re  Re3  1  0.75000000  0.68862900  0.81137100  1
  Re  Re4  1  0.81137100  0.75000000  0.68862900  1
  Re  Re5  1  0.25000000  0.31137100  0.18862900  1
  Re  Re6  1  0.18862900  0.25000000  0.31137100  1
  Re  Re7  1  0.31137100  0.18862900  0.25000000  1
  Re  Re8  1  0.30626200  0.19373800  0.75000000  1
  Re  Re9  1  0.75000000  0.30626200  0.19373800  1
  Re  Re10  1  0.19373800  0.75000000  0.30626200  1
  Re  Re11  1  0.25000000  0.69373800  0.80626200  1
  Re  Re12  1  0.80626200  0.25000000  0.69373800  1
  Re  Re13  1  0.69373800  0.80626200  0.25000000  1
  Re  Re14  1  0.69363100  0.63177000  0.93006800  1
  Re  Re15  1  0.93006800  0.69363100  0.63177000  1
  Re  Re16  1  0.63177000  0.93006800  0.69363100  1
  Re  Re17  1  0.43006800  0.13177000  0.19363100  1
  Re  Re18  1  0.19363100  0.43006800  0.13177000  1
  Re  Re19  1  0.13177000  0.19363100  0.43006800  1
  Re  Re20  1  0.30636900  0.36823000  0.06993200  1
  Re  Re21  1  0.06993200  0.30636900  0.36823000  1
  Re  Re22  1  0.36823000  0.06993200  0.30636900  1
  Re  Re23  1  0.56993200  0.86823000  0.80636900  1
  Re  Re24  1  0.80636900  0.56993200  0.86823000  1
  Re  Re25  1  0.86823000  0.80636900  0.56993200  1
  Re  Re26  1  0.51943600  0.81183900  0.92946600  1
  Re  Re27  1  0.92946600  0.51943600  0.81183900  1
  Re  Re28  1  0.81183900  0.92946600  0.51943600  1
  Re  Re29  1  0.42946600  0.31183900  0.01943600  1
  Re  Re30  1  0.01943600  0.42946600  0.31183900  1
  Re  Re31  1  0.31183900  0.01943600  0.42946600  1
  Re  Re32  1  0.48056400  0.18816100  0.07053400  1
  Re  Re33  1  0.07053400  0.48056400  0.18816100  1
  Re  Re34  1  0.18816100  0.07053400  0.48056400  1
  Re  Re35  1  0.57053400  0.68816100  0.98056400  1
  Re  Re36  1  0.98056400  0.57053400  0.68816100  1
  Re  Re37  1  0.68816100  0.98056400  0.57053400  1
  Re  Re38  1  0.76456300  0.11918500  0.11638900  1
  Re  Re39  1  0.11638900  0.76456300  0.11918500  1
  Re  Re40  1  0.11918500  0.11638900  0.76456300  1
  Re  Re41  1  0.61638900  0.61918500  0.26456300  1
  Re  Re42  1  0.26456300  0.61638900  0.61918500  1
  Re  Re43  1  0.61918500  0.26456300  0.61638900  1
  Re  Re44  1  0.23543700  0.88081500  0.88361100  1
  Re  Re45  1  0.88361100  0.23543700  0.88081500  1
  Re  Re46  1  0.88081500  0.88361100  0.23543700  1
  Re  Re47  1  0.38361100  0.38081500  0.73543700  1
  Re  Re48  1  0.73543700  0.38361100  0.38081500  1
  Re  Re49  1  0.38081500  0.73543700  0.38361100  1
loop_
_geom_bond_atom_site_label_1
_geom_bond_atom_site_label_2
_geom_bond_distance
_geom_bond_site_symmetry_2
Hf0 Re36 2.881054 1_455
Hf0 Re27 2.881054 1_455
Hf0 Re12 2.944909 1_455
Hf0 Re11 2.944909 1_555
Hf1 Re37 2.881054 1_545
Hf1 Re28 2.881054 1_545
Hf1 Re12 2.944909 1_555
Hf1 Re13 2.944909 1_545
Hf2 Re26 2.881054 1_554
Hf2 Re35 2.881054 1_554
Hf2 Re11 2.944909 1_554
Hf2 Re13 2.944909 1_555
Hf3 Re31 2.881054 1_565
Hf3 Re34 2.881054 1_565
Hf3 Re10 2.944909 1_555
Hf3 Re8 2.944909 1_565
Hf4 Re32 2.881054 1_556
Hf4 Re29 2.881054 1_556
Hf4 Re9 2.944909 1_556
Hf4 Re8 2.944909 1_555
Hf5 Re33 2.881054 1_655
Hf5 Re30 2.881054 1_655
Hf5 Re9 2.944909 1_555
Hf5 Re10 2.944909 1_655
Hf6 Re34 2.903958 1_665
Hf6 Re46 2.982181 1_555
Hf6 Re39 2.997763 1_655
Hf6 Re31 3.002030 1_665
Hf6 Re14 3.005777 1_554
Hf6 Re10 3.024620 1_655
Hf6 Re24 3.066912 1_554
Hf7 Re32 2.903958 1_566
Hf7 Re44 2.982181 1_555
Hf7 Re40 2.997763 1_565
Hf7 Re29 3.002030 1_566
Hf7 Re15 3.005778 1_455
Hf7 Re8 3.024620 1_565
Hf7 Re25 3.066912 1_455
Hf8 Re33 2.903958 1_656
Hf8 Re45 2.982181 1_555
Hf8 Re38 2.997763 1_556
Hf8 Re30 3.002029 1_656
Hf8 Re16 3.005777 1_545
Hf8 Re9 3.024620 1_556
Hf8 Re23 3.066912 1_545
Hf9 Re36 2.903958 1_555
Hf9 Re48 2.982181 1_555
Hf9 Re43 2.997763 1_555
Hf9 Re27 3.002029 1_555
Hf9 Re17 3.005777 1_555
Hf9 Re12 3.024620 1_555
Hf9 Re22 3.066912 1_555
Hf10 Re37 2.903958 1_555
Hf10 Re49 2.982181 1_555
Hf10 Re41 2.997763 1_555
Hf10 Re28 3.002030 1_555
Hf10 Re18 3.005778 1_555
Hf10 Re13 3.024620 1_555
Hf10 Re20 3.066912 1_555
Hf10 Hf29 3.099604 1_555
Hf11 Re35 2.903958 1_555
Hf11 Re47 2.982181 1_555
Hf11 Re42 2.997763 1_555
Hf11 Re26 3.002030 1_555
Hf11 Re19 3.005777 1_555
Hf11 Re11 3.024620 1_555
Hf11 Re21 3.066912 1_555
Hf11 Hf27 3.099604 1_555
Hf12 Re28 2.903958 1_445
Hf12 Re40 2.982181 1_555
Hf12 Re45 2.997763 1_455
Hf12 Re37 3.002030 1_445
Hf12 Re20 3.005777 1_556
Hf12 Re12 3.024620 1_455
Hf12 Re18 3.066912 1_556
Hf12 Hf20 3.099604 1_455
Hf13 Re26 2.903958 1_544
Hf13 Re38 2.982181 1_555
Hf13 Re46 2.997763 1_545
Hf13 Re35 3.002030 1_544
Hf13 Re21 3.005778 1_655
Hf13 Re13 3.024620 1_545
Hf13 Re19 3.066912 1_655
Hf13 Hf18 3.099604 1_545
Hf14 Re27 2.903958 1_454
Hf14 Re39 2.982181 1_555
Hf14 Re44 2.997763 1_554
Hf14 Re36 3.002029 1_454
Hf14 Re22 3.005777 1_565
Hf14 Re11 3.024620 1_554
Hf14 Re17 3.066912 1_565
Hf14 Hf19 3.099604 1_554
Hf15 Re30 2.903958 1_555
Hf15 Re42 2.982181 1_555
Hf15 Re49 2.997763 1_555
Hf15 Re33 3.002029 1_555
Hf15 Re23 3.005777 1_555
Hf15 Re10 3.024620 1_555
Hf15 Re16 3.066912 1_555
Hf15 Hf22 3.099604 1_555
Hf16 Re31 2.903958 1_555
Hf16 Re43 2.982181 1_555
Hf16 Re47 2.997763 1_555
Hf16 Re34 3.002030 1_555
Hf16 Re24 3.005778 1_555
Hf16 Re8 3.024620 1_555
Hf16 Re14 3.066912 1_555
Hf16 Hf23 3.099604 1_555
Hf17 Re29 2.903958 1_555
Hf17 Re41 2.982181 1_555
Hf17 Re48 2.997763 1_555
Hf17 Re32 3.002030 1_555
Hf17 Re25 3.005777 1_555
Hf17 Re9 3.024620 1_555
Hf17 Re15 3.066912 1_555
Hf17 Hf21 3.099604 1_555
Hf18 Re0 3.033214 1_665
Hf18 Re3 3.040314 1_554
Hf18 Re2 3.041133 1_554
Hf18 Re26 3.086146 1_554
Hf18 Re6 3.092660 1_665
Hf18 Re46 3.103588 1_555
Hf18 Re35 3.117814 1_554
Hf18 Re14 3.119255 1_554
Hf18 Re23 3.137187 1_554
Hf18 Re38 3.139674 1_565
Hf18 Re21 3.159301 1_665
Hf18 Re19 3.186270 1_665
Hf18 Hf26 3.193152 1_655
Hf18 Hf25 3.193152 1_565
Hf18 Hf27 3.216066 1_554
Hf19 Re0 3.033214 1_566
Hf19 Re4 3.040314 1_455
Hf19 Re3 3.041133 1_455
Hf19 Re27 3.086146 1_455
Hf19 Re7 3.092660 1_566
Hf19 Re44 3.103588 1_555
Hf19 Re36 3.117814 1_455
Hf19 Re15 3.119255 1_455
Hf19 Re24 3.137188 1_455
Hf19 Re39 3.139674 1_556
Hf19 Re22 3.159301 1_566
Hf19 Re17 3.186270 1_566
Hf19 Hf26 3.193152 1_556
Hf19 Hf24 3.193152 1_565
Hf19 Hf28 3.216066 1_455
Hf20 Re0 3.033214 1_656
Hf20 Re2 3.040314 1_545
Hf20 Re4 3.041133 1_545
Hf20 Re28 3.086146 1_545
Hf20 Re5 3.092660 1_656
Hf20 Re45 3.103588 1_555
Hf20 Re37 3.117814 1_545
Hf20 Re16 3.119255 1_545
Hf20 Re25 3.137187 1_545
Hf20 Re40 3.139674 1_655
Hf20 Re20 3.159301 1_656
Hf20 Re18 3.186270 1_656
Hf20 Hf25 3.193152 1_556
Hf20 Hf24 3.193152 1_655
Hf20 Hf29 3.216066 1_545
Hf21 Re1 3.033214 1_555
Hf21 Re7 3.040314 1_555
Hf21 Re5 3.041133 1_555
Hf21 Re29 3.086146 1_555
Hf21 Re4 3.092660 1_555
Hf21 Re48 3.103588 1_555
Hf21 Re32 3.117814 1_555
Hf21 Re17 3.119255 1_555
Hf21 Re20 3.137187 1_555
Hf21 Re41 3.139674 1_555
Hf21 Re25 3.159301 1_555
Hf21 Re15 3.186270 1_555
Hf21 Hf28 3.193152 1_555
Hf21 Hf29 3.193152 1_555
Hf21 Hf24 3.216066 1_554
Hf22 Re1 3.033214 1_555
Hf22 Re5 3.040314 1_555
Hf22 Re6 3.041133 1_555
Hf22 Re30 3.086146 1_555
Hf22 Re2 3.092660 1_555
Hf22 Re49 3.103588 1_555
Hf22 Re33 3.117814 1_555
Hf22 Re18 3.119255 1_555
Hf22 Re21 3.137188 1_555
Hf22 Re42 3.139674 1_555
Hf22 Re23 3.159301 1_555
Hf22 Re16 3.186270 1_555
Hf22 Hf27 3.193152 1_555
Hf22 Hf29 3.193152 1_555
Hf22 Hf25 3.216066 1_455
Hf23 Re1 3.033214 1_555
Hf23 Re6 3.040314 1_555
Hf23 Re7 3.041133 1_555
Hf23 Re31 3.086146 1_555
Hf23 Re3 3.092660 1_555
Hf23 Re47 3.103588 1_555
Hf23 Re34 3.117814 1_555
Hf23 Re19 3.119255 1_555
Hf23 Re22 3.137187 1_555
Hf23 Re43 3.139674 1_555
Hf23 Re24 3.159301 1_555
Hf23 Re14 3.186270 1_555
Hf23 Hf27 3.193152 1_555
Hf23 Hf28 3.193152 1_555
Hf23 Hf26 3.216066 1_545
Hf24 Re0 3.033214 1_556
Hf24 Re5 3.040314 1_556
Hf24 Re7 3.041133 1_556
Hf24 Re32 3.086146 1_556
Hf24 Re4 3.092660 1_445
Hf24 Hf7 3.099604 1_545
Hf24 Re40 3.103588 1_555
Hf24 Re29 3.117814 1_556
Hf24 Re20 3.119255 1_556
Hf24 Re17 3.137187 1_556
Hf24 Re44 3.139674 1_545
Hf24 Re15 3.159301 1_445
Hf24 Re25 3.186270 1_445
Hf25 Re0 3.033214 1_655
Hf25 Re6 3.040314 1_655
Hf25 Re5 3.041133 1_655
Hf25 Re33 3.086146 1_655
Hf25 Re2 3.092660 1_544
Hf25 Hf8 3.099604 1_554
Hf25 Re38 3.103588 1_555
Hf25 Re30 3.117814 1_655
Hf25 Re21 3.119255 1_655
Hf25 Re18 3.137188 1_655
Hf25 Re45 3.139674 1_554
Hf25 Re16 3.159301 1_544
Hf25 Re23 3.186270 1_544
Hf26 Re0 3.033214 1_565
Hf26 Re7 3.040314 1_565
Hf26 Re6 3.041133 1_565
Hf26 Re34 3.086146 1_565
Hf26 Re3 3.092660 1_454
Hf26 Hf6 3.099604 1_455
Hf26 Re39 3.103588 1_555
Hf26 Re31 3.117814 1_565
Hf26 Re22 3.119255 1_565
Hf26 Re19 3.137187 1_565
Hf26 Re46 3.139674 1_455
Hf26 Re14 3.159301 1_454
Hf26 Re24 3.186270 1_454
Hf27 Re1 3.033214 1_555
Hf27 Re2 3.040314 1_555
Hf27 Re3 3.041133 1_555
Hf27 Re35 3.086146 1_555
Hf27 Re6 3.092660 1_555
Hf27 Re42 3.103588 1_555
Hf27 Re26 3.117814 1_555
Hf27 Re23 3.119255 1_555
Hf27 Re14 3.137187 1_555
Hf27 Re47 3.139674 1_555
Hf27 Re19 3.159301 1_555
Hf27 Re21 3.186270 1_555
Hf28 Re1 3.033214 1_555
Hf28 Re3 3.040314 1_555
Hf28 Re4 3.041133 1_555
Hf28 Re36 3.086146 1_555
Hf28 Re7 3.092660 1_555
Hf28 Hf9 3.099604 1_555
Hf28 Re43 3.103588 1_555
Hf28 Re27 3.117814 1_555
Hf28 Re24 3.119255 1_555
Hf28 Re15 3.137188 1_555
Hf28 Re48 3.139674 1_555
Hf28 Re17 3.159301 1_555
Hf28 Re22 3.186270 1_555
Hf29 Re1 3.033214 1_555
Hf29 Re4 3.040314 1_555
Hf29 Re2 3.041133 1_555
Hf29 Re37 3.086146 1_555
Hf29 Re5 3.092660 1_555
Hf29 Re41 3.103588 1_555
Hf29 Re28 3.117814 1_555
Hf29 Re25 3.119255 1_555
Hf29 Re16 3.137187 1_555
Hf29 Re49 3.139674 1_555
Hf29 Re18 3.159301 1_555
Hf29 Re20 3.186270 1_555
Hf30 Re9 2.928406 1_566
Hf30 Re44 3.009384 1_555
Hf30 Re32 3.014297 1_566
Hf30 Re38 3.023751 1_566
Hf30 Re23 3.057941 1_555
Hf30 Re42 3.088360 1_555
Hf30 Re11 3.094217 1_555
Hf30 Re26 3.272126 1_555
Hf31 Re10 2.928406 1_656
Hf31 Re45 3.009384 1_555
Hf31 Re33 3.014297 1_656
Hf31 Re39 3.023752 1_656
Hf31 Re24 3.057941 1_555
Hf31 Re43 3.088359 1_555
Hf31 Re12 3.094217 1_555
Hf31 Re27 3.272126 1_555
Hf32 Re8 2.928407 1_665
Hf32 Re46 3.009384 1_555
Hf32 Re34 3.014297 1_665
Hf32 Re40 3.023751 1_665
Hf32 Re25 3.057941 1_555
Hf32 Re41 3.088360 1_555
Hf32 Re13 3.094217 1_555
Hf32 Re28 3.272126 1_555
Hf33 Re13 2.928407 1_556
Hf33 Re47 3.009384 1_555
Hf33 Re35 3.014297 1_555
Hf33 Re41 3.023751 1_556
Hf33 Re20 3.057941 1_556
Hf33 Re40 3.088360 1_555
Hf33 Re8 3.094217 1_555
Hf33 Re29 3.272126 1_556
Hf34 Re11 2.928406 1_655
Hf34 Re48 3.009384 1_555
Hf34 Re36 3.014297 1_555
Hf34 Re42 3.023752 1_655
Hf34 Re21 3.057941 1_655
Hf34 Re38 3.088359 1_555
Hf34 Re9 3.094217 1_555
Hf34 Re30 3.272126 1_655
Hf35 Re12 2.928406 1_565
Hf35 Re49 3.009384 1_555
Hf35 Re37 3.014297 1_555
Hf35 Re43 3.023751 1_565
Hf35 Re22 3.057941 1_565
Hf35 Re39 3.088360 1_555
Hf35 Re10 3.094217 1_555
Hf35 Re31 3.272126 1_565
Hf36 Re11 2.928406 1_544
Hf36 Re38 3.009384 1_555
Hf36 Re26 3.014297 1_544
Hf36 Re44 3.023751 1_544
Hf36 Re17 3.057941 1_555
Hf36 Re48 3.088360 1_555
Hf36 Re9 3.094217 1_555
Hf36 Re32 3.272126 1_555
Hf37 Re12 2.928406 1_454
Hf37 Re39 3.009384 1_555
Hf37 Re27 3.014297 1_454
Hf37 Re45 3.023752 1_454
Hf37 Re18 3.057941 1_555
Hf37 Re49 3.088359 1_555
Hf37 Re10 3.094217 1_555
Hf37 Re33 3.272126 1_555
Hf38 Re13 2.928407 1_445
Hf38 Re40 3.009384 1_555
Hf38 Re28 3.014297 1_445
Hf38 Re46 3.023751 1_445
Hf38 Re19 3.057941 1_555
Hf38 Re47 3.088360 1_555
Hf38 Re8 3.094217 1_555
Hf38 Re34 3.272126 1_555
Hf39 Re8 2.928407 1_554
Hf39 Re41 3.009384 1_555
Hf39 Re29 3.014297 1_555
Hf39 Re47 3.023751 1_554
Hf39 Re14 3.057941 1_554
Hf39 Re46 3.088360 1_555
Hf39 Re13 3.094217 1_555
Hf39 Re35 3.272126 1_554
Hf40 Re9 2.928406 1_455
Hf40 Re42 3.009384 1_555
Hf40 Re30 3.014297 1_555
Hf40 Re48 3.023752 1_455
Hf40 Re15 3.057941 1_455
Hf40 Re44 3.088359 1_555
Hf40 Re11 3.094217 1_555
Hf40 Re36 3.272126 1_455
Hf41 Re10 2.928406 1_545
Hf41 Re43 3.009384 1_555
Hf41 Re31 3.014297 1_555
Hf41 Re49 3.023751 1_545
Hf41 Re16 3.057941 1_545
Hf41 Re45 3.088360 1_555
Hf41 Re12 3.094217 1_555
Hf41 Re37 3.272126 1_545
Re0 Re6 2.697682 1_555
Re0 Re4 2.697682 1_444
Re0 Re7 2.697682 1_555
Re0 Re2 2.697682 1_444
Re0 Re5 2.697682 1_555
Re0 Re3 2.697682 1_444
Re1 Re5 2.697682 1_555
Re1 Re3 2.697682 1_555
Re1 Re7 2.697682 1_555
Re1 Re2 2.697682 1_555
Re1 Re6 2.697682 1_555
Re1 Re4 2.697682 1_555
Re2 Re23 2.611314 1_555
Re2 Re3 2.742364 1_555
Re2 Re4 2.742364 1_555
Re3 Re4 2.742364 1_555
Re5 Re6 2.742364 1_555
Re5 Re7 2.742364 1_555
Re6 Re7 2.742364 1_555
Re10 Re31 2.669818 1_565
Re10 Re33 2.669818 1_555
Re10 Re39 2.704170 1_555
Re10 Re49 2.704170 1_555
Re11 Re26 2.669818 1_555
Re11 Re36 2.669818 1_455
Re11 Re42 2.704170 1_555
Re11 Re44 2.704170 1_555
Re12 Re37 2.669818 1_545
Re12 Re27 2.669818 1_555
Re12 Re45 2.704170 1_555
Re12 Re43 2.704170 1_555
Re13 Re28 2.669817 1_555
Re13 Re35 2.669817 1_554
Re13 Re41 2.704170 1_555
Re13 Re46 2.704170 1_555
Re14 Re24 2.600506 1_555
Re14 Re3 2.611314 1_555
Re14 Re35 2.631094 1_555
Re14 Re46 2.651532 1_556
Re14 Re47 2.656715 1_555
Re15 Re25 2.600506 1_555
Re15 Re4 2.611314 1_555
Re15 Re36 2.631094 1_555
Re15 Re44 2.651532 1_655
Re15 Re48 2.656715 1_555
Re16 Re23 2.600506 1_555
Re16 Re2 2.611314 1_555
Re16 Re37 2.631094 1_555
Re16 Re45 2.651532 1_565
Re16 Re49 2.656715 1_555
Re17 Re22 2.600506 1_555
Re17 Re7 2.611314 1_555
Re17 Re32 2.631094 1_555
Re17 Re48 2.651532 1_555
Re17 Re44 2.656715 1_544
Re18 Re20 2.600506 1_555
Re18 Re5 2.611314 1_555
Re18 Re33 2.631094 1_555
Re18 Re49 2.651532 1_555
Re18 Re45 2.656715 1_454
Re19 Re21 2.600506 1_555
Re19 Re6 2.611314 1_555
Re19 Re34 2.631094 1_555
Re19 Re47 2.651532 1_555
Re19 Re46 2.656715 1_445
Re20 Re5 2.611314 1_555
Re20 Re29 2.631094 1_555
Re20 Re40 2.651532 1_554
Re20 Re41 2.656715 1_555
Re21 Re6 2.611314 1_555
Re21 Re30 2.631094 1_555
Re21 Re38 2.651532 1_455
Re21 Re42 2.656715 1_555
Re22 Re7 2.611314 1_555
Re22 Re31 2.631094 1_555
Re22 Re39 2.651532 1_545
Re22 Re43 2.656715 1_555
Re23 Re26 2.631094 1_555
Re23 Re42 2.651532 1_555
Re23 Re38 2.656715 1_566
Re24 Re3 2.611314 1_555
Re24 Re27 2.631094 1_555
Re24 Re43 2.651532 1_555
Re24 Re39 2.656715 1_656
Re25 Re4 2.611314 1_555
Re25 Re28 2.631094 1_555
Re25 Re41 2.651532 1_555
Re25 Re40 2.656715 1_665
Re26 Re35 2.604041 1_555
Re26 Re38 2.655298 1_566
Re26 Re42 2.664865 1_555
Re27 Re36 2.604041 1_555
Re27 Re39 2.655297 1_656
Re27 Re43 2.664865 1_555
Re28 Re37 2.604041 1_555
Re28 Re40 2.655298 1_665
Re28 Re41 2.664865 1_555
Re29 Re32 2.604041 1_555
Re29 Re41 2.655298 1_555
Re29 Re40 2.664865 1_554
Re29 Re8 2.669817 1_554
Re30 Re33 2.604041 1_555
Re30 Re42 2.655297 1_555
Re30 Re38 2.664865 1_455
Re30 Re9 2.669818 1_455
Re31 Re34 2.604041 1_555
Re31 Re43 2.655298 1_555
Re31 Re39 2.664865 1_545
Re32 Re44 2.655298 1_544
Re32 Re48 2.664865 1_555
Re32 Re9 2.669818 1_555
Re33 Re45 2.655297 1_454
Re33 Re49 2.664865 1_555
Re34 Re46 2.655298 1_445
Re34 Re47 2.664865 1_555
Re34 Re8 2.669817 1_555
Re35 Re47 2.655298 1_555
Re35 Re46 2.664865 1_556
Re36 Re48 2.655297 1_555
Re36 Re44 2.664865 1_655
Re37 Re49 2.655298 1_555
Re37 Re45 2.664865 1_565
Re38 Re9 2.704170 1_555
Re40 Re8 2.704170 1_555
Re47 Re8 2.704170 1_555
Re48 Re9 2.704170 1_555
