# generated using pymatgen
data_ZnAgBiO5
_symmetry_space_group_name_H-M   'P 1'
_cell_length_a   10.66219200
_cell_length_b   5.47424400
_cell_length_c   9.11909764
_cell_angle_alpha   64.13596631
_cell_angle_beta   90.00000000
_cell_angle_gamma   90.00000000
_symmetry_Int_Tables_number   1
_chemical_formula_structural   ZnAgBiO5
_chemical_formula_sum   'Zn4 Ag4 Bi4 O20'
_cell_volume   478.94302229
_cell_formula_units_Z   4
loop_
 _symmetry_equiv_pos_site_id
 _symmetry_equiv_pos_as_xyz
  1  'x, y, z'
loop_
 _atom_site_type_symbol
 _atom_site_label
 _atom_site_symmetry_multiplicity
 _atom_site_fract_x
 _atom_site_fract_y
 _atom_site_fract_z
 _atom_site_occupancy
  Zn  Zn0  1  0.08136000  0.59520100  0.83422400  1
  Zn  Zn1  1  0.91864000  0.40479900  0.16577600  1
  Zn  Zn2  1  0.58136000  0.40479900  0.66577600  1
  Zn  Zn3  1  0.41864000  0.59520100  0.33422400  1
  Ag  Ag0  1  0.38173400  0.28559200  0.02149200  1
  Ag  Ag1  1  0.61826600  0.71440800  0.97850800  1
  Ag  Ag2  1  0.88173400  0.71440800  0.47850800  1
  Ag  Ag3  1  0.11826600  0.28559200  0.52149200  1
  Bi  Bi0  1  0.88745000  0.01603000  0.85809800  1
  Bi  Bi1  1  0.11255000  0.98397000  0.14190200  1
  Bi  Bi2  1  0.61255000  0.01603000  0.35809800  1
  Bi  Bi3  1  0.38745000  0.98397000  0.64190200  1
  O  O0  1  0.93578600  0.80750300  0.72362100  1
  O  O1  1  0.96888100  0.36647700  0.64716200  1
  O  O2  1  0.80902900  0.08130900  0.30955000  1
  O  O3  1  0.45421500  0.75448300  0.51318500  1
  O  O4  1  0.70394500  0.69329900  0.57235900  1
  O  O5  1  0.79605500  0.69329900  0.07235900  1
  O  O6  1  0.53111900  0.36647700  0.14716200  1
  O  O7  1  0.46888100  0.63352300  0.85283800  1
  O  O8  1  0.54578500  0.24551700  0.48681500  1
  O  O9  1  0.43578600  0.19249700  0.77637900  1
  O  O10  1  0.29605500  0.30670100  0.42764100  1
  O  O11  1  0.06421400  0.19249700  0.27637900  1
  O  O12  1  0.56421400  0.80750300  0.22362100  1
  O  O13  1  0.20394500  0.30670100  0.92764100  1
  O  O14  1  0.95421500  0.24551700  0.98681500  1
  O  O15  1  0.04578500  0.75448300  0.01318500  1
  O  O16  1  0.19097100  0.91869100  0.69045000  1
  O  O17  1  0.03111900  0.63352300  0.35283800  1
  O  O18  1  0.30902900  0.91869100  0.19045000  1
  O  O19  1  0.69097100  0.08130900  0.80955000  1
loop_
_geom_bond_atom_site_label_1
_geom_bond_atom_site_label_2
_geom_bond_distance
_geom_bond_site_symmetry_2
Ag0 O13 2.062256 1_554
Ag0 O7 2.073815 1_554
Ag0 O18 2.075804 1_545
Ag0 O6 2.118728 1_555
Ag0 O9 2.565515 1_554
Ag1 O5 2.062256 1_556
Ag1 O6 2.073815 1_556
Ag1 O19 2.075804 1_565
Ag1 O7 2.118728 1_555
Ag1 O12 2.565515 1_556
Ag2 O4 2.062256 1_555
Ag2 O1 2.073815 1_555
Ag2 O2 2.075804 1_565
Ag2 O17 2.118728 1_655
Ag2 O0 2.565515 1_555
Ag3 O10 2.062256 1_555
Ag3 O17 2.073815 1_555
Ag3 O16 2.075804 1_545
Ag3 O1 2.118728 1_455
Ag3 O11 2.565515 1_555
Bi0 O0 2.072165 1_545
Bi0 O19 2.138752 1_555
Bi0 O14 2.179280 1_555
Bi0 O5 2.208335 1_546
Bi0 O1 2.216899 1_555
Bi0 O15 2.265708 1_646
Bi1 O11 2.072165 1_565
Bi1 O18 2.138752 1_555
Bi1 O15 2.179280 1_555
Bi1 O13 2.208335 1_564
Bi1 O17 2.216899 1_555
Bi1 O14 2.265708 1_464
Bi2 O12 2.072165 1_545
Bi2 O2 2.138752 1_555
Bi2 O8 2.179280 1_555
Bi2 O4 2.208335 1_545
Bi2 O6 2.216899 1_555
Bi2 O3 2.265708 1_545
Bi3 O9 2.072165 1_565
Bi3 O16 2.138752 1_555
Bi3 O3 2.179280 1_555
Bi3 O10 2.208335 1_565
Bi3 O7 2.216899 1_555
Bi3 O8 2.265708 1_565
O0 Zn0 1.937626 1_655
O2 Zn1 2.048190 1_555
O3 Zn3 2.192941 1_555
O3 Zn2 2.261507 1_555
O4 Zn2 1.937639 1_555
O5 Zn1 1.937639 1_555
O8 Zn2 2.192941 1_555
O8 Zn3 2.261507 1_555
O9 Zn2 1.937626 1_555
O10 Zn3 1.937639 1_555
O11 Zn1 1.937626 1_455
O12 Zn3 1.937626 1_555
O13 Zn0 1.937639 1_555
O14 Zn1 2.192941 1_556
O14 Zn0 2.261507 1_655
O15 Zn0 2.192941 1_554
O15 Zn1 2.261507 1_455
O16 Zn0 2.048190 1_555
O18 Zn3 2.048190 1_555
O19 Zn2 2.048190 1_555
