# generated using pymatgen
data_Mn(FeO2)2
_symmetry_space_group_name_H-M   'P 1'
_cell_length_a   5.82254696
_cell_length_b   5.85892430
_cell_length_c   5.81842737
_cell_angle_alpha   59.69732529
_cell_angle_beta   59.78165586
_cell_angle_gamma   59.61407642
_symmetry_Int_Tables_number   1
_chemical_formula_structural   Mn(FeO2)2
_chemical_formula_sum   'Mn2 Fe4 O8'
_cell_volume   139.38851348
_cell_formula_units_Z   2
loop_
 _symmetry_equiv_pos_site_id
 _symmetry_equiv_pos_as_xyz
  1  'x, y, z'
loop_
 _atom_site_type_symbol
 _atom_site_label
 _atom_site_symmetry_multiplicity
 _atom_site_fract_x
 _atom_site_fract_y
 _atom_site_fract_z
 _atom_site_occupancy
  Mn  Mn0  1  0.12509029  0.12495990  0.12529350  1
  Mn  Mn1  1  0.87491071  0.87504010  0.87470550  1
  Fe  Fe0  1  0.49999900  0.50000100  0.50000000  1
  Fe  Fe1  1  0.49999900  0.50000100  0.00000000  1
  Fe  Fe2  1  -0.00000000  0.50000100  0.49999900  1
  Fe  Fe3  1  0.50000000  -0.00000000  0.50000000  1
  O  O0  1  0.73522246  0.73509027  0.73710825  1
  O  O1  1  0.26526533  0.26501010  0.70512367  1
  O  O2  1  0.26467566  0.70732868  0.26401410  1
  O  O3  1  0.70560270  0.26327371  0.26781956  1
  O  O4  1  0.73532534  0.29267132  0.73598490  1
  O  O5  1  0.29439730  0.73672629  0.73217944  1
  O  O6  1  0.26477554  0.26490973  0.26289175  1
  O  O7  1  0.73473267  0.73498990  0.29487633  1
loop_
_geom_bond_atom_site_label_1
_geom_bond_atom_site_label_2
_geom_bond_distance
_geom_bond_site_symmetry_2
Mn0 O3 1.986727 1_455
Mn0 O2 1.988637 1_545
Mn0 O1 1.990180 1_554
Mn0 O6 1.991821 1_555
Mn1 O5 1.986722 1_655
Mn1 O4 1.988637 1_565
Mn1 O7 1.990185 1_556
Mn1 O0 1.991830 1_555
Fe0 O5 1.940347 1_555
Fe0 O3 1.940359 1_555
Fe0 O2 1.940390 1_555
Fe0 O4 1.940398 1_555
Fe0 O7 1.947158 1_555
Fe0 O1 1.947167 1_555
Fe1 O0 1.945821 1_554
Fe1 O6 1.945829 1_555
Fe1 O2 1.947633 1_555
Fe1 O4 1.947645 1_554
Fe1 O5 1.949894 1_554
Fe1 O3 1.949898 1_555
Fe2 O1 1.936912 1_555
Fe2 O7 1.936914 1_455
Fe2 O6 1.950818 1_555
Fe2 O0 1.950819 1_455
Fe2 O2 1.953583 1_555
Fe2 O4 1.953587 1_455
Fe3 O3 1.942877 1_555
Fe3 O5 1.942877 1_545
Fe3 O0 1.943887 1_545
Fe3 O6 1.943895 1_555
Fe3 O1 1.945376 1_555
Fe3 O7 1.945376 1_545
