# generated using pymatgen
data_Be(HO)2
_symmetry_space_group_name_H-M   'P 1'
_cell_length_a   10.89520124
_cell_length_b   4.77683100
_cell_length_c   8.64051006
_cell_angle_alpha   90.00000000
_cell_angle_beta   95.62661421
_cell_angle_gamma   90.00000000
_symmetry_Int_Tables_number   1
_chemical_formula_structural   Be(HO)2
_chemical_formula_sum   'Be12 H24 O24'
_cell_volume   447.52470010
_cell_formula_units_Z   12
loop_
 _symmetry_equiv_pos_site_id
 _symmetry_equiv_pos_as_xyz
  1  'x, y, z'
loop_
 _atom_site_type_symbol
 _atom_site_label
 _atom_site_symmetry_multiplicity
 _atom_site_fract_x
 _atom_site_fract_y
 _atom_site_fract_z
 _atom_site_occupancy
  Be  Be0  1  0.67720900  0.07484700  0.59209000  1
  Be  Be1  1  0.32279100  0.57484700  0.40791000  1
  Be  Be2  1  0.68623000  0.58251200  0.78349900  1
  Be  Be3  1  0.31377000  0.08251200  0.21650100  1
  Be  Be4  1  0.67745900  0.87342700  0.07996000  1
  Be  Be5  1  0.32254100  0.37342700  0.92004000  1
  Be  Be6  1  0.30201400  0.81153500  0.71452700  1
  Be  Be7  1  0.69798600  0.31153500  0.28547300  1
  Be  Be8  1  0.08775800  0.71742100  0.53588400  1
  Be  Be9  1  0.91224200  0.21742100  0.46411600  1
  Be  Be10  1  0.91938500  0.73462700  0.97724700  1
  Be  Be11  1  0.08061500  0.23462700  0.02275300  1
  H  H0  1  0.65255000  0.62639800  0.53751900  1
  H  H1  1  0.34745000  0.12639800  0.46248100  1
  H  H2  1  0.35815400  0.83980500  0.96177800  1
  H  H3  1  0.64184600  0.33980500  0.03822200  1
  H  H4  1  0.37805400  0.36280800  0.67538700  1
  H  H5  1  0.62194600  0.86280800  0.32461300  1
  H  H6  1  0.68115400  0.13493200  0.83200100  1
  H  H7  1  0.31884600  0.63493200  0.16799900  1
  H  H8  1  0.86376600  0.03102600  0.68719500  1
  H  H9  1  0.13623400  0.53102600  0.31280500  1
  H  H10  1  0.47408100  0.71561100  0.59470200  1
  H  H11  1  0.52591900  0.21561100  0.40529800  1
  H  H12  1  0.04983800  0.33063500  0.64431800  1
  H  H13  1  0.95016200  0.83063500  0.35568200  1
  H  H14  1  0.87845600  0.55604800  0.73494400  1
  H  H15  1  0.12154400  0.05604800  0.26505600  1
  H  H16  1  0.15100000  0.53403500  0.84158900  1
  H  H17  1  0.84900000  0.03403500  0.15841100  1
  H  H18  1  0.48265500  0.19607900  0.77065200  1
  H  H19  1  0.51734500  0.69607900  0.22934800  1
  H  H20  1  0.06552500  0.92173300  0.83976300  1
  H  H21  1  0.93447500  0.42173300  0.16023700  1
  H  H22  1  0.52710800  0.70015300  0.91167200  1
  H  H23  1  0.47289200  0.20015300  0.08832800  1
  O  O0  1  0.62762600  0.74589900  0.62061600  1
  O  O1  1  0.37237400  0.24589900  0.37938400  1
  O  O2  1  0.63549000  0.24660800  0.75074700  1
  O  O3  1  0.36451000  0.74660800  0.24925300  1
  O  O4  1  0.61778400  0.18995800  0.42221500  1
  O  O5  1  0.38221600  0.68995800  0.57778500  1
  O  O6  1  0.81897100  0.09141500  0.58982800  1
  O  O7  1  0.18102900  0.59141500  0.41017200  1
  O  O8  1  0.61920900  0.70103000  0.93193000  1
  O  O9  1  0.38079200  0.20103000  0.06807000  1
  O  O10  1  0.83016300  0.61785900  0.81957400  1
  O  O11  1  0.16983700  0.11785900  0.18042500  1
  O  O12  1  0.62696000  0.19534800  0.11543900  1
  O  O13  1  0.37304000  0.69534800  0.88456100  1
  O  O14  1  0.82004200  0.87901400  0.08732400  1
  O  O15  1  0.17995800  0.37901400  0.91267600  1
  O  O16  1  0.61139900  0.71019100  0.24425100  1
  O  O17  1  0.38860100  0.21019100  0.75574900  1
  O  O18  1  0.99618600  0.44892000  0.57447800  1
  O  O19  1  0.00381400  0.94892000  0.42552200  1
  O  O20  1  0.01250200  0.97464600  0.92282700  1
  O  O21  1  0.98749800  0.47464600  0.07717300  1
  O  O22  1  0.16561600  0.81748100  0.69060600  1
  O  O23  1  0.83438400  0.31748100  0.30939400  1
loop_
_geom_bond_atom_site_label_1
_geom_bond_atom_site_label_2
_geom_bond_distance
_geom_bond_site_symmetry_2
Be0 O6 1.548588 1_555
Be0 O4 1.640014 1_555
Be0 O0 1.687534 1_545
Be0 O2 1.697431 1_555
Be1 O7 1.548588 1_555
Be1 O5 1.640014 1_555
Be1 O1 1.687534 1_555
Be1 O3 1.697431 1_555
Be2 O10 1.577658 1_555
Be2 O8 1.637747 1_555
Be2 O0 1.679691 1_555
Be2 O2 1.711614 1_555
Be3 O11 1.577659 1_555
Be3 O9 1.637752 1_555
Be3 O1 1.679691 1_555
Be3 O3 1.711614 1_545
Be4 O14 1.548757 1_555
Be4 O8 1.599297 1_554
Be4 O12 1.671670 1_565
Be4 O16 1.827984 1_555
Be5 O15 1.548757 1_555
Be5 O9 1.599301 1_556
Be5 O13 1.671670 1_555
Be5 O17 1.827984 1_555
Be6 O22 1.480453 1_555
Be6 O5 1.642946 1_555
Be6 O13 1.685947 1_555
Be6 O17 2.139475 1_565
Be7 O23 1.480453 1_555
Be7 O4 1.642946 1_555
Be7 O12 1.685947 1_555
Be7 O16 2.139475 1_555
Be8 O22 1.585212 1_555
Be8 O7 1.670713 1_555
Be8 O19 1.672614 1_555
Be8 O18 1.678351 1_455
Be9 O23 1.585212 1_555
Be9 O6 1.670713 1_555
Be9 O18 1.672614 1_555
Be9 O19 1.678351 1_645
Be10 O20 1.630475 1_655
Be10 O21 1.647069 1_556
Be10 O14 1.659430 1_556
Be10 O10 1.688921 1_555
Be11 O21 1.630475 1_455
Be11 O20 1.647069 1_544
Be11 O15 1.659430 1_554
Be11 O11 1.688915 1_555
H0 O0 0.976397 1_555
H1 O1 0.976397 1_555
H2 O13 0.984295 1_555
H3 O12 0.984295 1_555
H4 O17 1.005577 1_555
H5 O16 1.005577 1_555
H6 O2 0.978018 1_555
H7 O3 0.978018 1_555
H8 O6 0.974002 1_555
H9 O7 0.974002 1_555
H10 O5 1.004724 1_555
H10 O0 1.672191 1_555
H11 O4 1.004724 1_555
H11 O1 1.672191 1_555
H12 O18 0.977721 1_455
H13 O19 0.977721 1_655
H14 O10 0.987012 1_555
H15 O11 0.987019 1_555
H16 O15 0.993565 1_555
H17 O14 0.993565 1_545
H18 O17 1.022417 1_555
H19 O16 1.022417 1_555
H20 O20 0.997014 1_555
H21 O21 0.997014 1_555
H22 O8 1.001571 1_555
H22 O13 1.672124 1_555
H23 O9 1.001560 1_555
H23 O12 1.672124 1_555
