# generated using pymatgen
data_Zr6FeCl15
_symmetry_space_group_name_H-M   'P 1'
_cell_length_a   8.98230290
_cell_length_b   8.98230290
_cell_length_c   8.98230290
_cell_angle_alpha   109.47122063
_cell_angle_beta   109.47122063
_cell_angle_gamma   109.47122063
_symmetry_Int_Tables_number   1
_chemical_formula_structural   Zr6FeCl15
_chemical_formula_sum   'Zr6 Fe1 Cl15'
_cell_volume   557.88052190
_cell_formula_units_Z   1
loop_
 _symmetry_equiv_pos_site_id
 _symmetry_equiv_pos_as_xyz
  1  'x, y, z'
loop_
 _atom_site_type_symbol
 _atom_site_label
 _atom_site_symmetry_multiplicity
 _atom_site_fract_x
 _atom_site_fract_y
 _atom_site_fract_z
 _atom_site_occupancy
  Zr  Zr0  1  0.76077700  0.76077700  0.00000000  1
  Zr  Zr1  1  0.23922300  0.00000000  0.23922300  1
  Zr  Zr2  1  0.00000000  0.23922300  0.23922300  1
  Zr  Zr3  1  0.23922300  0.23922300  0.00000000  1
  Zr  Zr4  1  0.76077700  0.00000000  0.76077700  1
  Zr  Zr5  1  0.00000000  0.76077700  0.76077700  1
  Fe  Fe0  1  0.00000000  0.00000000  0.00000000  1
  Cl  Cl0  1  0.24724200  0.24724200  0.49448500  1
  Cl  Cl1  1  0.75275800  0.00000000  0.24724200  1
  Cl  Cl2  1  0.00000000  0.75275800  0.24724200  1
  Cl  Cl3  1  0.75275800  0.24724200  0.00000000  1
  Cl  Cl4  1  0.24724200  0.49448500  0.24724200  1
  Cl  Cl5  1  0.00000000  0.24724200  0.75275800  1
  Cl  Cl6  1  0.24724200  0.75275800  0.00000000  1
  Cl  Cl7  1  0.24724200  0.00000000  0.75275800  1
  Cl  Cl8  1  0.49448500  0.24724200  0.24724200  1
  Cl  Cl9  1  0.75275800  0.75275800  0.50551500  1
  Cl  Cl10  1  0.75275800  0.50551500  0.75275800  1
  Cl  Cl11  1  0.50551500  0.75275800  0.75275800  1
  Cl  Cl12  1  0.50000000  0.50000000  0.00000000  1
  Cl  Cl13  1  0.50000000  0.00000000  0.50000000  1
  Cl  Cl14  1  0.00000000  0.50000000  0.50000000  1
loop_
_geom_bond_atom_site_label_1
_geom_bond_atom_site_label_2
_geom_bond_distance
_geom_bond_site_symmetry_2
Fe0 Zr2 2.481190 1_555
Fe0 Zr1 2.481190 1_555
Fe0 Zr3 2.481190 1_555
Fe0 Zr5 2.481190 1_544
Fe0 Zr4 2.481190 1_454
Fe0 Zr0 2.481190 1_445
Cl0 Zr2 2.565716 1_555
Cl0 Zr1 2.565716 1_555
Cl1 Zr0 2.565710 1_545
Cl1 Zr2 2.565710 1_655
Cl2 Zr0 2.565710 1_455
Cl2 Zr1 2.565710 1_565
Cl3 Zr4 2.565710 1_554
Cl3 Zr2 2.565710 1_655
Cl4 Zr2 2.565716 1_555
Cl4 Zr3 2.565716 1_555
Cl5 Zr4 2.565710 1_455
Cl5 Zr3 2.565710 1_556
Cl6 Zr5 2.565710 1_554
Cl6 Zr1 2.565710 1_565
Cl7 Zr5 2.565710 1_545
Cl7 Zr3 2.565710 1_556
Cl8 Zr1 2.565716 1_555
Cl8 Zr3 2.565716 1_555
Cl9 Zr5 2.565716 1_655
Cl9 Zr4 2.565716 1_565
Cl10 Zr0 2.565716 1_556
Cl10 Zr5 2.565716 1_655
Cl11 Zr0 2.565716 1_556
Cl11 Zr4 2.565716 1_565
Cl12 Zr0 2.704745 1_555
Cl12 Zr3 2.704745 1_555
Cl13 Zr4 2.704745 1_555
Cl13 Zr1 2.704745 1_555
Cl14 Zr5 2.704745 1_555
Cl14 Zr2 2.704745 1_555
