# generated using pymatgen
data_Li9Mn2Co5O16
_symmetry_space_group_name_H-M   'P 1'
_cell_length_a   5.78730150
_cell_length_b   8.50108239
_cell_length_c   6.51869664
_cell_angle_alpha   90.24287449
_cell_angle_beta   116.35299026
_cell_angle_gamma   89.99999960
_symmetry_Int_Tables_number   1
_chemical_formula_structural   Li9Mn2Co5O16
_chemical_formula_sum   'Li9 Mn2 Co5 O16'
_cell_volume   287.37648036
_cell_formula_units_Z   1
loop_
 _symmetry_equiv_pos_site_id
 _symmetry_equiv_pos_as_xyz
  1  'x, y, z'
loop_
 _atom_site_type_symbol
 _atom_site_label
 _atom_site_symmetry_multiplicity
 _atom_site_fract_x
 _atom_site_fract_y
 _atom_site_fract_z
 _atom_site_occupancy
  Li  Li0  1  0.62406300  0.25000000  0.75000000  1
  Li  Li1  1  0.37588300  0.75017500  0.25147800  1
  Li  Li2  1  0.12554600  0.25000000  0.75000000  1
  Li  Li3  1  0.49852400  0.50996700  0.99819100  1
  Li  Li4  1  0.25033400  0.99003300  0.50180900  1
  Li  Li5  1  0.99731500  0.50709300  0.99641700  1
  Li  Li6  1  0.87440500  0.74982500  0.24852200  1
  Li  Li7  1  0.75089800  0.99290700  0.50358300  1
  Li  Li8  1  0.62214000  0.75000000  0.75000000  1
  Mn  Mn0  1  0.99981900  0.99802200  0.99532100  1
  Mn  Mn1  1  0.75449800  0.50197800  0.50467900  1
  Co  Co0  1  0.50068600  0.99157100  0.99229000  1
  Co  Co1  1  0.25839700  0.50842900  0.50771000  1
  Co  Co2  1  0.37654800  0.25217600  0.24889400  1
  Co  Co3  1  0.12322400  0.75000000  0.75000000  1
  Co  Co4  1  0.87765300  0.24782400  0.25110600  1
  O  O0  1  0.63983800  0.00426500  0.77374900  1
  O  O1  1  0.39441000  0.49830000  0.26603100  1
  O  O2  1  0.11921300  0.00709800  0.76456600  1
  O  O3  1  0.51405600  0.24820600  0.02384200  1
  O  O4  1  0.23933700  0.73951200  0.51979900  1
  O  O5  1  0.00421300  0.23021600  0.00842700  1
  O  O6  1  0.88555100  0.49444300  0.27073000  1
  O  O7  1  0.76929600  0.72797300  0.51461400  1
  O  O8  1  0.61608800  0.49573500  0.72625100  1
  O  O9  1  0.36482100  0.00555700  0.22927000  1
  O  O10  1  0.10464700  0.49290200  0.73543400  1
  O  O11  1  0.46953700  0.76048800  0.98020100  1
  O  O12  1  0.24021400  0.25179400  0.47615800  1
  O  O13  1  0.00468200  0.77202700  0.98538600  1
  O  O14  1  0.87837900  0.00170000  0.23396900  1
  O  O15  1  0.74578600  0.26978400  0.49157300  1
loop_
_geom_bond_atom_site_label_1
_geom_bond_atom_site_label_2
_geom_bond_distance
_geom_bond_site_symmetry_2
Li0 O8 2.094391 1_555
Li0 O0 2.094391 1_555
Li0 O15 2.102000 1_555
Li0 O5 2.102000 1_656
Li0 O3 2.145062 1_556
Li0 O12 2.145062 1_555
Li1 O11 2.069018 1_554
Li1 O13 2.086327 1_554
Li1 O1 2.144287 1_555
Li1 O7 2.167310 1_555
Li1 O9 2.175508 1_565
Li1 O4 2.218222 1_555
Li2 O10 2.068586 1_555
Li2 O2 2.068586 1_555
Li2 O5 2.100441 1_556
Li2 O15 2.100442 1_455
Li2 O12 2.163126 1_555
Li2 O3 2.163127 1_556
Li3 O1 2.087281 1_556
Li3 O11 2.135923 1_555
Li3 O6 2.158651 1_556
Li3 O10 2.163904 1_555
Li3 O8 2.165400 1_555
Li3 O3 2.231053 1_556
Li4 O14 2.087285 1_465
Li4 O4 2.135923 1_555
Li4 O9 2.158647 1_565
Li4 O2 2.163908 1_565
Li4 O0 2.165400 1_565
Li4 O12 2.231053 1_565
Li5 O10 2.056981 1_655
Li5 O8 2.127800 1_555
Li5 O6 2.157759 1_556
Li5 O1 2.188858 1_656
Li5 O13 2.254685 1_655
Li5 O5 2.355137 1_656
Li6 O4 2.069022 1_655
Li6 O7 2.086327 1_555
Li6 O14 2.144287 1_565
Li6 O13 2.167310 1_654
Li6 O6 2.175508 1_555
Li6 O11 2.218226 1_554
Li7 O2 2.056981 1_665
Li7 O0 2.127795 1_565
Li7 O9 2.157759 1_565
Li7 O14 2.188858 1_565
Li7 O7 2.254685 1_555
Li7 O15 2.355137 1_565
Li8 O4 2.053091 1_555
Li8 O11 2.053095 1_555
Li8 O7 2.066995 1_555
Li8 O13 2.066995 1_655
Li8 O8 2.165582 1_555
Li8 O0 2.165582 1_565
Mn0 O2 1.915675 1_665
Mn0 O13 1.922646 1_655
Mn0 O0 1.938663 1_565
Mn0 O14 1.971116 1_566
Mn0 O5 1.975062 1_666
Mn0 O9 1.982712 1_666
Mn1 O10 1.915676 1_655
Mn1 O7 1.922646 1_555
Mn1 O8 1.938667 1_555
Mn1 O1 1.971116 1_555
Mn1 O15 1.975062 1_555
Mn1 O6 1.982712 1_555
Co0 O0 1.926007 1_565
Co0 O11 1.970753 1_555
Co0 O9 2.023764 1_566
Co0 O2 2.046243 1_565
Co0 O14 2.051544 1_566
Co0 O3 2.188622 1_566
Co1 O8 1.925999 1_555
Co1 O4 1.970753 1_555
Co1 O6 2.023769 1_455
Co1 O10 2.046247 1_555
Co1 O1 2.051539 1_555
Co1 O12 2.188622 1_555
Co2 O3 1.955179 1_555
Co2 O12 1.963430 1_555
Co2 O15 2.021906 1_555
Co2 O5 2.033222 1_555
Co2 O1 2.094931 1_555
Co2 O9 2.099148 1_555
Co3 O11 1.898797 1_555
Co3 O4 1.898801 1_555
Co3 O13 1.947369 1_555
Co3 O7 1.947369 1_455
Co3 O2 2.187841 1_565
Co3 O10 2.187841 1_555
Co4 O12 1.955184 1_655
Co4 O3 1.963426 1_555
Co4 O5 2.021909 1_655
Co4 O15 2.033218 1_555
Co4 O14 2.094931 1_555
Co4 O6 2.099147 1_555
