# generated using pymatgen
data_Sc4Si2Pt7
_symmetry_space_group_name_H-M   'P 1'
_cell_length_a   3.99508144
_cell_length_b   6.50971073
_cell_length_c   16.28085673
_cell_angle_alpha   90.00000000
_cell_angle_beta   90.00000000
_cell_angle_gamma   90.00000000
_symmetry_Int_Tables_number   1
_chemical_formula_structural   Sc4Si2Pt7
_chemical_formula_sum   'Sc8 Si4 Pt14'
_cell_volume   423.41338397
_cell_formula_units_Z   2
loop_
 _symmetry_equiv_pos_site_id
 _symmetry_equiv_pos_as_xyz
  1  'x, y, z'
loop_
 _atom_site_type_symbol
 _atom_site_label
 _atom_site_symmetry_multiplicity
 _atom_site_fract_x
 _atom_site_fract_y
 _atom_site_fract_z
 _atom_site_occupancy
  Sc  Sc0  1  0.00000000  0.28540203  0.46112543  1
  Sc  Sc1  1  0.00000000  0.71459797  0.53887457  1
  Sc  Sc2  1  0.00000000  0.78540203  0.03887457  1
  Sc  Sc3  1  0.00000000  0.21459797  0.96112543  1
  Sc  Sc4  1  0.00000000  0.52534410  0.29112876  1
  Sc  Sc5  1  0.00000000  0.47465590  0.70887124  1
  Sc  Sc6  1  0.00000000  0.02534410  0.20887124  1
  Sc  Sc7  1  0.00000000  0.97465590  0.79112876  1
  Si  Si0  1  0.50000000  0.84044238  0.30771281  1
  Si  Si1  1  0.50000000  0.15955762  0.69228719  1
  Si  Si2  1  0.50000000  0.34044238  0.19228719  1
  Si  Si3  1  0.50000000  0.65955762  0.80771281  1
  Pt  Pt0  1  -0.00000000  0.90818587  0.38222865  1
  Pt  Pt1  1  -0.00000000  0.09181413  0.61777135  1
  Pt  Pt2  1  -0.00000000  0.40818587  0.11777135  1
  Pt  Pt3  1  0.00000000  0.59181413  0.88222865  1
  Pt  Pt4  1  0.50000000  0.59544753  0.42102073  1
  Pt  Pt5  1  0.50000000  0.40455247  0.57897927  1
  Pt  Pt6  1  0.50000000  0.09544753  0.07897927  1
  Pt  Pt7  1  0.50000000  0.90455247  0.92102073  1
  Pt  Pt8  1  0.50000000  0.50000000  -0.00000000  1
  Pt  Pt9  1  0.50000000  -0.00000000  0.50000000  1
  Pt  Pt10  1  0.50000000  0.21446279  0.33129240  1
  Pt  Pt11  1  0.50000000  0.78553721  0.66870760  1
  Pt  Pt12  1  0.50000000  0.71446279  0.16870760  1
  Pt  Pt13  1  0.50000000  0.28553721  0.83129240  1
loop_
_geom_bond_atom_site_label_1
_geom_bond_atom_site_label_2
_geom_bond_distance
_geom_bond_site_symmetry_2
Sc4 Si2 2.833472 1_555
Sc4 Si2 2.833472 1_455
Sc4 Si0 2.875845 1_455
Sc4 Si0 2.875845 1_555
Sc5 Si3 2.833472 1_555
Sc5 Si3 2.833472 1_455
Sc5 Si1 2.875845 1_455
Sc5 Si1 2.875845 1_555
Sc6 Si0 2.833472 1_545
Sc6 Si0 2.833472 1_445
Sc6 Si2 2.875845 1_555
Sc6 Si2 2.875845 1_455
Sc7 Si1 2.833472 1_565
Sc7 Si1 2.833472 1_465
Sc7 Si3 2.875845 1_555
Sc7 Si3 2.875845 1_455
Pt0 Si0 2.378330 1_555
Pt0 Si0 2.378330 1_455
Pt0 Sc0 2.771240 1_565
Pt0 Sc1 2.844695 1_555
Pt0 Sc4 2.900145 1_555
Pt0 Sc6 2.923635 1_565
Pt1 Si1 2.378330 1_555
Pt1 Si1 2.378330 1_455
Pt1 Sc1 2.771240 1_545
Pt1 Sc0 2.844695 1_555
Pt1 Sc5 2.900145 1_555
Pt1 Sc7 2.923635 1_545
Pt2 Si2 2.378330 1_455
Pt2 Si2 2.378330 1_555
Pt2 Sc2 2.771240 1_555
Pt2 Sc3 2.844695 1_554
Pt2 Sc6 2.900145 1_555
Pt2 Sc4 2.923635 1_555
Pt3 Si3 2.378330 1_455
Pt3 Si3 2.378330 1_555
Pt3 Sc3 2.771240 1_555
Pt3 Sc2 2.844695 1_556
Pt3 Sc7 2.900145 1_555
Pt3 Sc5 2.923635 1_555
Pt4 Si0 2.438572 1_555
Pt4 Sc1 2.876356 1_555
Pt4 Sc1 2.876356 1_655
Pt4 Sc0 2.913771 1_555
Pt4 Sc0 2.913771 1_655
Pt4 Sc4 2.944589 1_655
Pt4 Sc4 2.944589 1_555
Pt5 Si1 2.438572 1_555
Pt5 Sc0 2.876356 1_655
Pt5 Sc0 2.876356 1_555
Pt5 Sc1 2.913771 1_655
Pt5 Sc1 2.913771 1_555
Pt5 Sc5 2.944589 1_655
Pt5 Sc5 2.944589 1_555
Pt6 Si2 2.438572 1_555
Pt6 Sc3 2.876356 1_654
Pt6 Sc3 2.876356 1_554
Pt6 Sc2 2.913771 1_645
Pt6 Sc2 2.913771 1_545
Pt6 Sc6 2.944589 1_555
Pt6 Sc6 2.944589 1_655
Pt7 Si3 2.438572 1_555
Pt7 Sc2 2.876356 1_656
Pt7 Sc2 2.876356 1_556
Pt7 Sc3 2.913771 1_565
Pt7 Sc3 2.913771 1_665
Pt7 Sc7 2.944589 1_655
Pt7 Sc7 2.944589 1_555
Pt8 Sc2 2.800443 1_555
Pt8 Sc2 2.800443 1_655
Pt8 Sc3 2.800443 1_654
Pt8 Sc3 2.800443 1_554
Pt9 Sc0 2.800443 1_555
Pt9 Sc0 2.800443 1_655
Pt9 Sc1 2.800443 1_645
Pt9 Sc1 2.800443 1_545
Pt10 Si2 2.407131 1_555
Pt10 Si0 2.464844 1_545
Pt10 Sc4 2.917757 1_655
Pt10 Sc4 2.917757 1_555
Pt10 Sc0 2.944748 1_555
Pt10 Sc0 2.944748 1_655
Pt10 Sc6 3.078689 1_555
Pt10 Sc6 3.078689 1_655
Pt11 Si3 2.407131 1_555
Pt11 Si1 2.464844 1_565
Pt11 Sc5 2.917757 1_555
Pt11 Sc5 2.917757 1_655
Pt11 Sc1 2.944748 1_555
Pt11 Sc1 2.944748 1_655
Pt11 Sc7 3.078689 1_655
Pt11 Sc7 3.078689 1_555
Pt12 Si0 2.407131 1_555
Pt12 Si2 2.464844 1_555
Pt12 Sc6 2.917757 1_565
Pt12 Sc6 2.917757 1_665
Pt12 Sc2 2.944748 1_555
Pt12 Sc2 2.944748 1_655
Pt12 Sc4 3.078689 1_655
Pt12 Sc4 3.078689 1_555
Pt13 Si1 2.407131 1_555
Pt13 Si3 2.464844 1_555
Pt13 Sc7 2.917757 1_545
Pt13 Sc7 2.917757 1_645
Pt13 Sc3 2.944748 1_555
Pt13 Sc3 2.944748 1_655
Pt13 Sc5 3.078689 1_555
Pt13 Sc5 3.078689 1_655
