# generated using pymatgen
data_Th3Ti
_symmetry_space_group_name_H-M   'P 1'
_cell_length_a   6.88738219
_cell_length_b   6.88738219
_cell_length_c   5.64444600
_cell_angle_alpha   90.00000000
_cell_angle_beta   90.00000000
_cell_angle_gamma   120.00000185
_symmetry_Int_Tables_number   1
_chemical_formula_structural   Th3Ti
_chemical_formula_sum   'Th6 Ti2'
_cell_volume   231.87840957
_cell_formula_units_Z   2
loop_
 _symmetry_equiv_pos_site_id
 _symmetry_equiv_pos_as_xyz
  1  'x, y, z'
loop_
 _atom_site_type_symbol
 _atom_site_label
 _atom_site_symmetry_multiplicity
 _atom_site_fract_x
 _atom_site_fract_y
 _atom_site_fract_z
 _atom_site_occupancy
  Th  Th0  1  0.17542900  0.35085900  0.25000000  1
  Th  Th1  1  0.64914100  0.82457100  0.25000000  1
  Th  Th2  1  0.17542900  0.82457100  0.25000000  1
  Th  Th3  1  0.82457100  0.64914100  0.75000000  1
  Th  Th4  1  0.35085900  0.17542900  0.75000000  1
  Th  Th5  1  0.82457100  0.17542900  0.75000000  1
  Ti  Ti0  1  0.33333300  0.66666700  0.75000000  1
  Ti  Ti1  1  0.66666700  0.33333300  0.25000000  1
loop_
_geom_bond_atom_site_label_1
_geom_bond_atom_site_label_2
_geom_bond_distance
_geom_bond_site_symmetry_2
Th0 Th1 3.262636 1_555
Th0 Th2 3.262636 1_555
Th0 Ti0 3.393112 1_555
Th0 Ti0 3.393112 1_554
Th0 Ti1 3.445270 1_455
Th0 Ti1 3.445284 1_555
Th0 Th5 3.513477 1_455
Th0 Th5 3.513477 1_454
Th0 Th4 3.513484 1_555
Th0 Th4 3.513484 1_554
Th0 Th1 3.624746 1_445
Th0 Th2 3.624747 1_545
Th1 Th2 3.262636 1_555
Th1 Ti0 3.393112 1_554
Th1 Ti0 3.393112 1_555
Th1 Ti1 3.445270 1_565
Th1 Ti1 3.445284 1_555
Th1 Th5 3.513477 1_564
Th1 Th5 3.513477 1_565
Th1 Th3 3.513484 1_554
Th1 Th3 3.513484 1_555
Th1 Th2 3.624747 1_655
Th2 Ti0 3.393112 1_555
Th2 Ti0 3.393112 1_554
Th2 Ti1 3.445277 1_455
Th2 Ti1 3.445277 1_565
Th2 Th3 3.513477 1_455
Th2 Th4 3.513477 1_565
Th2 Th3 3.513477 1_454
Th2 Th4 3.513477 1_564
Th3 Th4 3.262636 1_555
Th3 Th5 3.262636 1_555
Th3 Ti1 3.393112 1_556
Th3 Ti1 3.393112 1_555
Th3 Ti0 3.445270 1_655
Th3 Ti0 3.445284 1_555
Th3 Th4 3.624746 1_665
Th3 Th5 3.624747 1_565
Th4 Th5 3.262636 1_555
Th4 Ti1 3.393112 1_555
Th4 Ti1 3.393112 1_556
Th4 Ti0 3.445270 1_545
Th4 Ti0 3.445284 1_555
Th4 Th5 3.624747 1_455
Th5 Ti1 3.393112 1_556
Th5 Ti1 3.393112 1_555
Th5 Ti0 3.445277 1_545
Th5 Ti0 3.445277 1_655
