# generated using pymatgen
data_MnFeH4NF6
_symmetry_space_group_name_H-M   'P 1'
_cell_length_a   10.81698900
_cell_length_b   7.98924400
_cell_length_c   13.09478800
_cell_angle_alpha   90.00000000
_cell_angle_beta   90.00000000
_cell_angle_gamma   90.00000000
_symmetry_Int_Tables_number   1
_chemical_formula_structural   MnFeH4NF6
_chemical_formula_sum   'Mn8 Fe8 H32 N8 F48'
_cell_volume   1131.64587574
_cell_formula_units_Z   8
loop_
 _symmetry_equiv_pos_site_id
 _symmetry_equiv_pos_as_xyz
  1  'x, y, z'
loop_
 _atom_site_type_symbol
 _atom_site_label
 _atom_site_symmetry_multiplicity
 _atom_site_fract_x
 _atom_site_fract_y
 _atom_site_fract_z
 _atom_site_occupancy
  Mn  Mn0  1  0.32183000  0.75021600  0.60317900  1
  Mn  Mn1  1  0.67817000  0.24978400  0.60317900  1
  Mn  Mn2  1  0.67817000  0.25021600  0.10317900  1
  Mn  Mn3  1  0.32183000  0.74978400  0.10317900  1
  Mn  Mn4  1  0.82102900  0.74578700  0.88710300  1
  Mn  Mn5  1  0.17897100  0.25421300  0.88710300  1
  Mn  Mn6  1  0.17897100  0.24578700  0.38710300  1
  Mn  Mn7  1  0.82102900  0.75421300  0.38710300  1
  Fe  Fe0  1  0.32445000  0.25002900  0.60420200  1
  Fe  Fe1  1  0.67555000  0.74997100  0.60420200  1
  Fe  Fe2  1  0.67555000  0.75002900  0.10420200  1
  Fe  Fe3  1  0.32445000  0.24997100  0.10420200  1
  Fe  Fe4  1  0.82244600  0.24889800  0.88575300  1
  Fe  Fe5  1  0.17755400  0.75110200  0.88575300  1
  Fe  Fe6  1  0.17755400  0.74889800  0.38575300  1
  Fe  Fe7  1  0.82244600  0.25110200  0.38575300  1
  H  H0  1  0.55872800  0.42885900  0.88671000  1
  H  H1  1  0.44127100  0.57114100  0.88671000  1
  H  H2  1  0.44127100  0.92885900  0.38671000  1
  H  H3  1  0.55872800  0.07114100  0.38671000  1
  H  H4  1  0.55022300  0.57824700  0.79514300  1
  H  H5  1  0.44977700  0.42175300  0.79514300  1
  H  H6  1  0.44977700  0.07824700  0.29514300  1
  H  H7  1  0.55022300  0.92175300  0.29514300  1
  H  H8  1  0.54257400  0.41083900  0.37601700  1
  H  H9  1  0.45742600  0.58916100  0.37601700  1
  H  H10  1  0.45742600  0.91083900  0.87601700  1
  H  H11  1  0.54257400  0.08916100  0.87601700  1
  H  H12  1  0.43400400  0.44405800  0.28482000  1
  H  H13  1  0.56599600  0.55594200  0.28482000  1
  H  H14  1  0.56599600  0.94405800  0.78482000  1
  H  H15  1  0.43400400  0.05594200  0.78482000  1
  H  H16  1  0.05845800  0.42818700  0.58571600  1
  H  H17  1  0.94154200  0.57181300  0.58571600  1
  H  H18  1  0.94154200  0.92818700  0.08571600  1
  H  H19  1  0.05845800  0.07181300  0.08571600  1
  H  H20  1  0.94816900  0.42224400  0.67591100  1
  H  H21  1  0.05183100  0.57775600  0.67591100  1
  H  H22  1  0.05183100  0.92224400  0.17591100  1
  H  H23  1  0.94816900  0.07775600  0.17591100  1
  H  H24  1  0.05382000  0.42263200  0.12200400  1
  H  H25  1  0.94618000  0.57736800  0.12200400  1
  H  H26  1  0.94618000  0.92263200  0.62200400  1
  H  H27  1  0.05382000  0.07736800  0.62200400  1
  H  H28  1  0.94297400  0.42877800  0.21348900  1
  H  H29  1  0.05702600  0.57122200  0.21348900  1
  H  H30  1  0.05702600  0.92877800  0.71348900  1
  H  H31  1  0.94297400  0.07122200  0.71348900  1
  N  N0  1  0.50000000  0.50000000  0.84170100  1
  N  N1  1  0.50000000  0.00000000  0.34170100  1
  N  N2  1  0.50000000  0.50000000  0.33017400  1
  N  N3  1  0.50000000  0.00000000  0.83017400  1
  N  N4  1  0.00000000  0.50000000  0.63014800  1
  N  N5  1  0.00000000  0.00000000  0.13014800  1
  N  N6  1  0.00000000  0.50000000  0.16791300  1
  N  N7  1  0.00000000  0.00000000  0.66791300  1
  F  F0  1  0.49325000  0.28349600  0.65564800  1
  F  F1  1  0.50675000  0.71650400  0.65564800  1
  F  F2  1  0.50675000  0.78349600  0.15564800  1
  F  F3  1  0.49325000  0.21650400  0.15564800  1
  F  F4  1  0.36052300  0.22772000  0.95915700  1
  F  F5  1  0.63947700  0.77228000  0.95915700  1
  F  F6  1  0.63947700  0.72772000  0.45915700  1
  F  F7  1  0.36052300  0.27228000  0.45915700  1
  F  F8  1  0.85876900  0.27259600  0.03077300  1
  F  F9  1  0.14123100  0.72740400  0.03077300  1
  F  F10  1  0.14123100  0.77259600  0.53077300  1
  F  F11  1  0.85876900  0.22740400  0.53077300  1
  F  F12  1  0.77102400  0.21030000  0.74444600  1
  F  F13  1  0.22897600  0.78970000  0.74444600  1
  F  F14  1  0.22897600  0.71030000  0.24444600  1
  F  F15  1  0.77102400  0.28970000  0.24444600  1
  F  F16  1  0.29094500  0.48844300  0.61799600  1
  F  F17  1  0.70905500  0.51155700  0.61799600  1
  F  F18  1  0.70905500  0.98844300  0.11799600  1
  F  F19  1  0.29094500  0.01155700  0.11799600  1
  F  F20  1  0.79255800  0.48638000  0.86756500  1
  F  F21  1  0.20744200  0.51362000  0.86756500  1
  F  F22  1  0.20744200  0.98638000  0.36756500  1
  F  F23  1  0.79255800  0.01362000  0.36756500  1
  F  F24  1  0.99251800  0.27886000  0.83795600  1
  F  F25  1  0.00748200  0.72114000  0.83795600  1
  F  F26  1  0.00748200  0.77886000  0.33795600  1
  F  F27  1  0.99251800  0.22114000  0.33795600  1
  F  F28  1  0.35483800  0.76710800  0.93563800  1
  F  F29  1  0.64516200  0.23289200  0.93563800  1
  F  F30  1  0.64516200  0.26710800  0.43563800  1
  F  F31  1  0.35483800  0.73289200  0.43563800  1
  F  F32  1  0.85166200  0.72158300  0.05415900  1
  F  F33  1  0.14833800  0.27841700  0.05415900  1
  F  F34  1  0.14833800  0.22158300  0.55415900  1
  F  F35  1  0.85166200  0.77841700  0.55415900  1
  F  F36  1  0.72972400  0.78364200  0.74515600  1
  F  F37  1  0.27027600  0.21635800  0.74515600  1
  F  F38  1  0.27027600  0.28364200  0.24515600  1
  F  F39  1  0.72972400  0.71635800  0.24515600  1
  F  F40  1  0.35421600  0.01096500  0.59638900  1
  F  F41  1  0.64578400  0.98903500  0.59638900  1
  F  F42  1  0.64578400  0.51096500  0.09638900  1
  F  F43  1  0.35421600  0.48903500  0.09638900  1
  F  F44  1  0.84955600  0.00874900  0.89560100  1
  F  F45  1  0.15044400  0.99125100  0.89560100  1
  F  F46  1  0.15044400  0.50874900  0.39560100  1
  F  F47  1  0.84955600  0.49125100  0.39560100  1
loop_
_geom_bond_atom_site_label_1
_geom_bond_atom_site_label_2
_geom_bond_distance
_geom_bond_site_symmetry_2
H0 N0 1.036323 1_555
H1 N0 1.036329 1_555
H2 N1 1.036329 1_565
H3 N1 1.036323 1_555
H4 N0 1.028407 1_555
H5 N0 1.028407 1_555
H6 N1 1.028407 1_555
H7 N1 1.028407 1_565
H8 N2 1.039163 1_555
H9 N2 1.039163 1_555
H10 N3 1.039163 1_565
H11 N3 1.039163 1_555
H12 N2 1.030578 1_555
H13 N2 1.030578 1_555
H14 N3 1.030578 1_565
H15 N3 1.030578 1_555
H16 N4 1.033221 1_555
H17 N4 1.033221 1_655
H18 N5 1.033221 1_665
H19 N5 1.033221 1_555
H20 N4 1.029246 1_655
H21 N4 1.029246 1_555
H22 N5 1.029246 1_565
H23 N5 1.029246 1_655
H24 N6 1.040379 1_555
H25 N6 1.040379 1_655
H26 N7 1.040379 1_665
H27 N7 1.040379 1_555
H28 N6 1.029784 1_655
H29 N6 1.029784 1_555
H30 N7 1.029784 1_565
H31 N7 1.029784 1_655
F0 Fe0 1.964502 1_555
F0 Mn1 2.132069 1_555
F1 Fe1 1.964502 1_555
F1 Mn0 2.132069 1_555
F2 Fe2 1.964502 1_555
F2 Mn3 2.132069 1_555
F3 Fe3 1.964502 1_555
F3 Mn2 2.132069 1_555
F4 Fe3 1.947133 1_556
F4 Mn5 2.189005 1_555
F5 Fe2 1.947133 1_556
F5 Mn4 2.189005 1_555
F6 Fe1 1.947133 1_555
F6 Mn7 2.189005 1_555
F7 Fe0 1.947133 1_555
F7 Mn6 2.189005 1_555
F8 Fe4 1.948447 1_554
F8 Mn2 2.178818 1_555
F9 Fe5 1.948447 1_554
F9 Mn3 2.178818 1_555
F10 Fe6 1.948447 1_555
F10 Mn0 2.178818 1_555
F11 Fe7 1.948447 1_555
F11 Mn1 2.178818 1_555
F12 Fe4 1.956632 1_555
F12 Mn1 2.128454 1_555
F13 Fe5 1.956632 1_555
F13 Mn0 2.128454 1_555
F14 Fe6 1.956632 1_555
F14 Mn3 2.128454 1_555
F15 Fe7 1.956632 1_555
F15 Mn2 2.128454 1_555
F16 Fe0 1.947316 1_555
F16 Mn0 2.126753 1_555
F17 Fe1 1.947316 1_555
F17 Mn1 2.126753 1_555
F18 Fe2 1.947316 1_555
F18 Mn2 2.126753 1_565
F19 Fe3 1.947316 1_555
F19 Mn3 2.126753 1_545
F20 Fe4 1.939330 1_555
F20 Mn4 2.110786 1_555
F21 Fe5 1.939330 1_555
F21 Mn5 2.110786 1_555
F22 Fe6 1.939330 1_555
F22 Mn6 2.110786 1_565
F23 Fe7 1.939330 1_555
F23 Mn7 2.110786 1_545
F24 Fe4 1.957911 1_555
F24 Mn5 2.126189 1_655
F25 Fe5 1.957911 1_555
F25 Mn4 2.126189 1_455
F26 Fe6 1.957911 1_555
F26 Mn7 2.126189 1_455
F27 Fe7 1.957911 1_555
F27 Mn6 2.126189 1_655
F28 Fe5 2.029916 1_555
F28 Mn3 2.227083 1_556
F29 Fe4 2.029916 1_555
F29 Mn2 2.227083 1_556
F30 Fe7 2.029916 1_555
F30 Mn1 2.227083 1_555
F31 Fe6 2.029916 1_555
F31 Mn0 2.227083 1_555
F32 Fe2 2.027338 1_555
F32 Mn4 2.220951 1_554
F33 Fe3 2.027338 1_555
F33 Mn5 2.220951 1_554
F34 Fe0 2.027338 1_555
F34 Mn6 2.220951 1_555
F35 Fe1 2.027338 1_555
F35 Mn7 2.220951 1_555
F36 Fe1 1.955147 1_555
F36 Mn4 2.126480 1_555
F37 Fe0 1.955147 1_555
F37 Mn5 2.126480 1_555
F38 Fe3 1.955147 1_555
F38 Mn6 2.126480 1_555
F39 Fe2 1.955147 1_555
F39 Mn7 2.126480 1_555
F40 Fe0 1.939590 1_555
F40 Mn0 2.114308 1_545
F41 Fe1 1.939590 1_555
F41 Mn1 2.114308 1_565
F42 Fe2 1.939590 1_555
F42 Mn2 2.114308 1_555
F43 Fe3 1.939590 1_555
F43 Mn3 2.114308 1_555
F44 Fe4 1.945170 1_555
F44 Mn4 2.126322 1_545
F45 Fe5 1.945170 1_555
F45 Mn5 2.126322 1_565
F46 Fe6 1.945170 1_555
F46 Mn6 2.126322 1_555
F47 Fe7 1.945170 1_555
F47 Mn7 2.126322 1_555
