# generated using pymatgen
data_Sm4Co10Si
_symmetry_space_group_name_H-M   'P 1'
_cell_length_a   8.09638000
_cell_length_b   9.42701278
_cell_length_c   9.42701278
_cell_angle_alpha   79.37353336
_cell_angle_beta   64.56895868
_cell_angle_gamma   64.56895868
_symmetry_Int_Tables_number   1
_chemical_formula_structural   Sm4Co10Si
_chemical_formula_sum   'Sm8 Co20 Si2'
_cell_volume   586.83151462
_cell_formula_units_Z   2
loop_
 _symmetry_equiv_pos_site_id
 _symmetry_equiv_pos_as_xyz
  1  'x, y, z'
loop_
 _atom_site_type_symbol
 _atom_site_label
 _atom_site_symmetry_multiplicity
 _atom_site_fract_x
 _atom_site_fract_y
 _atom_site_fract_z
 _atom_site_occupancy
  Sm  Sm0  1  0.44107900  0.21758800  0.78241200  1
  Sm  Sm1  1  0.44107900  0.78241200  0.21758800  1
  Sm  Sm2  1  0.47349000  0.71758800  0.71758800  1
  Sm  Sm3  1  0.80892100  0.71758800  0.28241200  1
  Sm  Sm4  1  0.80892100  0.28241200  0.71758800  1
  Sm  Sm5  1  0.90866700  0.28241200  0.28241200  1
  Sm  Sm6  1  0.77651000  0.78241200  0.78241200  1
  Sm  Sm7  1  0.34133300  0.21758800  0.21758800  1
  Co  Co0  1  0.12500000  0.75000000  0.25000000  1
  Co  Co1  1  0.12500000  0.25000000  0.75000000  1
  Co  Co2  1  0.62500000  0.25000000  0.25000000  1
  Co  Co3  1  0.12500000  0.75000000  0.75000000  1
  Co  Co4  1  0.30017200  0.87005300  0.51621200  1
  Co  Co5  1  0.68643600  0.12994700  0.48378800  1
  Co  Co6  1  0.06638400  0.98378800  0.37005300  1
  Co  Co7  1  0.94982800  0.98378800  0.62994700  1
  Co  Co8  1  0.94982800  0.62994700  0.98378800  1
  Co  Co9  1  0.42022500  0.01621200  0.62994700  1
  Co  Co10  1  0.56356400  0.01621200  0.37005300  1
  Co  Co11  1  0.56356400  0.37005300  0.01621200  1
  Co  Co12  1  0.18361600  0.12994700  0.51621200  1
  Co  Co13  1  0.18361600  0.51621200  0.12994700  1
  Co  Co14  1  0.82977500  0.87005300  0.48378800  1
  Co  Co15  1  0.82977500  0.48378800  0.87005300  1
  Co  Co16  1  0.30017200  0.51621200  0.87005300  1
  Co  Co17  1  0.68643600  0.48378800  0.12994700  1
  Co  Co18  1  0.42022500  0.62994700  0.01621200  1
  Co  Co19  1  0.06638400  0.37005300  0.98378800  1
  Si  Si0  1  0.00000000  0.00000000  0.00000000  1
  Si  Si1  1  0.25000000  0.50000000  0.50000000  1
loop_
_geom_bond_atom_site_label_1
_geom_bond_atom_site_label_2
_geom_bond_distance
_geom_bond_site_symmetry_2
Co0 Co18 2.433858 1_555
Co0 Co14 2.433858 1_455
Co0 Co13 2.433858 1_555
Co0 Co6 2.433858 1_555
Co0 Sm3 2.588679 1_455
Co0 Sm1 2.588679 1_555
Co0 Si1 3.175584 1_555
Co0 Si0 3.175584 1_565
Co1 Co9 2.433858 1_555
Co1 Co15 2.433858 1_455
Co1 Co12 2.433858 1_555
Co1 Co19 2.433858 1_555
Co1 Sm0 2.588679 1_555
Co1 Sm4 2.588679 1_455
Co1 Si0 3.175584 1_556
Co1 Si1 3.175584 1_555
Co2 Co5 2.433855 1_555
Co2 Sm7 2.588679 1_555
Co2 Sm5 2.588679 1_555
Co2 Si0 3.175584 1_655
Co2 Si1 3.175584 1_555
Co3 Co7 2.433858 1_455
Co3 Co8 2.433858 1_455
Co3 Co4 2.433858 1_555
Co3 Sm6 2.588671 1_455
Co3 Sm2 2.588671 1_555
Co3 Si0 3.175584 1_566
Co3 Si1 3.175584 1_555
Co4 Co7 2.354780 1_455
Co4 Co6 2.565719 1_555
Co4 Co9 2.565719 1_565
Co4 Sm2 2.681066 1_555
Co4 Sm1 2.683109 1_555
Co4 Sm3 3.489506 1_555
Co5 Co9 2.565712 1_555
Co5 Co6 2.565725 1_645
Co5 Sm5 2.681076 1_555
Co5 Sm0 2.683108 1_555
Co5 Co7 2.764847 1_545
Co5 Sm4 3.489511 1_555
Co6 Co7 2.215278 1_455
Co6 Sm1 2.681071 1_555
Co6 Sm5 2.683109 1_465
Co6 Sm7 3.489506 1_565
Co7 Sm6 2.681066 1_555
Co7 Sm4 2.683109 1_565
Co7 Sm0 3.489506 1_565
Co8 Sm6 2.681066 1_555
Co8 Sm3 2.683109 1_556
Co8 Sm1 3.489506 1_556
Co9 Sm0 2.681071 1_555
Co9 Sm2 2.683110 1_545
Co9 Sm6 3.489511 1_545
Co10 Co9 2.215279 1_555
Co10 Co5 2.354766 1_555
Co10 Co2 2.433855 1_555
Co10 Co14 2.565712 1_545
Co10 Co12 2.565725 1_555
Co10 Sm7 2.681076 1_555
Co10 Sm3 2.683108 1_545
Co10 Co4 2.764847 1_545
Co10 Sm1 3.489511 1_545
Co11 Co18 2.215279 1_555
Co11 Co17 2.354766 1_555
Co11 Co2 2.433855 1_555
Co11 Co15 2.565712 1_554
Co11 Co13 2.565725 1_555
Co11 Sm7 2.681076 1_555
Co11 Sm4 2.683108 1_554
Co11 Co16 2.764847 1_554
Co11 Sm0 3.489511 1_554
Co12 Co4 2.215278 1_545
Co12 Co9 2.354780 1_555
Co12 Co7 2.565719 1_445
Co12 Sm4 2.681071 1_455
Co12 Sm7 2.683109 1_555
Co12 Co6 2.764841 1_545
Co12 Sm5 3.489506 1_455
Co13 Co16 2.215278 1_554
Co13 Co18 2.354780 1_555
Co13 Co8 2.565719 1_454
Co13 Sm3 2.681071 1_455
Co13 Sm7 2.683109 1_555
Co13 Co19 2.764841 1_554
Co13 Sm5 3.489506 1_455
Co14 Co5 2.215279 1_565
Co14 Co6 2.354780 1_655
Co14 Co7 2.565719 1_555
Co14 Sm3 2.681071 1_555
Co14 Sm6 2.683110 1_555
Co14 Co9 2.764841 1_565
Co14 Sm2 3.489511 1_555
Co15 Co17 2.215279 1_556
Co15 Co19 2.354780 1_655
Co15 Co8 2.565719 1_555
Co15 Sm4 2.681071 1_555
Co15 Sm6 2.683110 1_555
Co15 Co18 2.764841 1_556
Co15 Sm2 3.489511 1_555
Co16 Co8 2.354780 1_455
Co16 Co3 2.433858 1_555
Co16 Co18 2.565719 1_556
Co16 Co19 2.565719 1_555
Co16 Sm2 2.681066 1_555
Co16 Sm0 2.683109 1_555
Co16 Sm4 3.489506 1_555
Co17 Co2 2.433855 1_555
Co17 Co18 2.565712 1_555
Co17 Co19 2.565725 1_654
Co17 Sm5 2.681076 1_555
Co17 Sm1 2.683108 1_555
Co17 Co8 2.764847 1_554
Co17 Sm3 3.489511 1_555
Co18 Sm1 2.681071 1_555
Co18 Sm2 2.683110 1_554
Co18 Sm6 3.489511 1_554
Co19 Co8 2.215278 1_455
Co19 Sm0 2.681071 1_555
Co19 Sm5 2.683109 1_456
Co19 Sm7 3.489506 1_556
Si0 Sm2 3.735633 1_544
Si0 Sm3 3.735637 1_445
Si0 Sm5 3.735637 1_455
Si0 Sm4 3.735637 1_454
Si1 Sm6 3.735633 1_455
Si1 Sm0 3.735637 1_555
Si1 Sm7 3.735637 1_555
Si1 Sm1 3.735637 1_555
