# generated using pymatgen
data_CaSn2O5
_symmetry_space_group_name_H-M   'P 1'
_cell_length_a   3.61734900
_cell_length_b   5.47686300
_cell_length_c   12.46773300
_cell_angle_alpha   90.00000000
_cell_angle_beta   90.00000000
_cell_angle_gamma   90.00000000
_symmetry_Int_Tables_number   1
_chemical_formula_structural   CaSn2O5
_chemical_formula_sum   'Ca2 Sn4 O10'
_cell_volume   247.00729628
_cell_formula_units_Z   2
loop_
 _symmetry_equiv_pos_site_id
 _symmetry_equiv_pos_as_xyz
  1  'x, y, z'
loop_
 _atom_site_type_symbol
 _atom_site_label
 _atom_site_symmetry_multiplicity
 _atom_site_fract_x
 _atom_site_fract_y
 _atom_site_fract_z
 _atom_site_occupancy
  Ca  Ca0  1  0.00000000  0.60420600  0.50000000  1
  Ca  Ca1  1  0.50000000  0.39579400  0.00000000  1
  Sn  Sn0  1  0.50000000  0.10022900  0.64743200  1
  Sn  Sn1  1  0.00000000  0.89977100  0.85256800  1
  Sn  Sn2  1  0.00000000  0.89977100  0.14743200  1
  Sn  Sn3  1  0.50000000  0.10022900  0.35256800  1
  O  O0  1  0.00000000  0.07789900  0.00000000  1
  O  O1  1  0.50000000  0.92210100  0.50000000  1
  O  O2  1  0.00000000  0.93075300  0.68118400  1
  O  O3  1  0.50000000  0.06924700  0.81881600  1
  O  O4  1  0.00000000  0.93075300  0.31881600  1
  O  O5  1  0.50000000  0.06924700  0.18118400  1
  O  O6  1  0.50000000  0.44526500  0.38764400  1
  O  O7  1  0.00000000  0.55473500  0.11235600  1
  O  O8  1  0.00000000  0.55473500  0.88764400  1
  O  O9  1  0.50000000  0.44526500  0.61235600  1
loop_
_geom_bond_atom_site_label_1
_geom_bond_atom_site_label_2
_geom_bond_distance
_geom_bond_site_symmetry_2
Ca0 O6 2.447730 1_455
Ca0 O9 2.447730 1_455
Ca0 O6 2.447730 1_555
Ca0 O9 2.447730 1_555
Ca0 O1 2.510502 1_455
Ca0 O1 2.510502 1_555
Ca0 O4 2.881221 1_555
Ca0 O2 2.881221 1_555
Ca1 O7 2.447730 1_655
Ca1 O7 2.447730 1_555
Ca1 O8 2.447730 1_554
Ca1 O8 2.447730 1_654
Ca1 O0 2.510502 1_655
Ca1 O0 2.510502 1_555
Ca1 O5 2.881221 1_555
Ca1 O3 2.881221 1_554
O0 Sn2 2.080993 1_545
O0 Sn1 2.080993 1_544
O1 Sn0 2.080993 1_565
O1 Sn3 2.080993 1_565
O2 Sn0 2.076038 1_465
O2 Sn0 2.076038 1_565
O2 Sn1 2.143497 1_555
O3 Sn1 2.076038 1_645
O3 Sn1 2.076038 1_545
O3 Sn0 2.143497 1_555
O4 Sn3 2.076038 1_565
O4 Sn3 2.076038 1_465
O4 Sn2 2.143497 1_555
O5 Sn2 2.076038 1_545
O5 Sn2 2.076038 1_645
O5 Sn3 2.143497 1_555
O6 Sn3 1.939657 1_555
O7 Sn2 1.939657 1_555
O8 Sn1 1.939657 1_555
O9 Sn0 1.939657 1_555
