# generated using pymatgen
data_BaTb2O4
_symmetry_space_group_name_H-M   'P 1'
_cell_length_a   3.48064670
_cell_length_b   10.46330435
_cell_length_c   12.17428788
_cell_angle_alpha   90.00000000
_cell_angle_beta   90.00000000
_cell_angle_gamma   90.00000000
_symmetry_Int_Tables_number   1
_chemical_formula_structural   BaTb2O4
_chemical_formula_sum   'Ba4 Tb8 O16'
_cell_volume   443.37619085
_cell_formula_units_Z   4
loop_
 _symmetry_equiv_pos_site_id
 _symmetry_equiv_pos_as_xyz
  1  'x, y, z'
loop_
 _atom_site_type_symbol
 _atom_site_label
 _atom_site_symmetry_multiplicity
 _atom_site_fract_x
 _atom_site_fract_y
 _atom_site_fract_z
 _atom_site_occupancy
  Ba  Ba0  1  0.75000000  0.74712900  0.85086572  1
  Ba  Ba1  1  0.25000000  0.25287100  0.14913428  1
  Ba  Ba2  1  0.75000000  0.24712900  0.64913428  1
  Ba  Ba3  1  0.25000000  0.75287100  0.35086572  1
  Tb  Tb0  1  0.25000000  0.42546212  0.38905440  1
  Tb  Tb1  1  0.75000000  0.57453788  0.61094560  1
  Tb  Tb2  1  0.25000000  0.92546212  0.11094560  1
  Tb  Tb3  1  0.75000000  0.07453788  0.88905440  1
  Tb  Tb4  1  0.75000000  0.07755978  0.39047025  1
  Tb  Tb5  1  0.25000000  0.92244022  0.60952975  1
  Tb  Tb6  1  0.75000000  0.57755978  0.10952975  1
  Tb  Tb7  1  0.25000000  0.42244022  0.89047025  1
  O  O0  1  0.25000000  0.43003574  0.57434508  1
  O  O1  1  0.75000000  0.56996426  0.42565492  1
  O  O2  1  0.25000000  0.93003574  0.92565492  1
  O  O3  1  0.75000000  0.06996426  0.07434508  1
  O  O4  1  0.25000000  0.51867153  0.21737031  1
  O  O5  1  0.75000000  0.48132847  0.78262969  1
  O  O6  1  0.25000000  0.01867153  0.28262969  1
  O  O7  1  0.75000000  0.98132847  0.71737031  1
  O  O8  1  0.25000000  0.11601928  0.51795746  1
  O  O9  1  0.75000000  0.88398072  0.48204254  1
  O  O10  1  0.25000000  0.61601928  0.98204254  1
  O  O11  1  0.75000000  0.38398072  0.01795746  1
  O  O12  1  0.75000000  0.29028831  0.33982128  1
  O  O13  1  0.25000000  0.70971169  0.66017872  1
  O  O14  1  0.75000000  0.79028831  0.16017872  1
  O  O15  1  0.25000000  0.20971169  0.83982128  1
loop_
_geom_bond_atom_site_label_1
_geom_bond_atom_site_label_2
_geom_bond_distance
_geom_bond_site_symmetry_2
Ba0 O10 2.731489 1_555
Ba0 O10 2.731489 1_655
Ba0 O2 2.742337 1_555
Ba0 O2 2.742337 1_655
Ba0 O5 2.902570 1_555
Ba0 O13 2.927673 1_555
Ba0 O13 2.927673 1_655
Ba0 O7 2.940453 1_555
Ba1 O11 2.731489 1_455
Ba1 O11 2.731489 1_555
Ba1 O3 2.742337 1_455
Ba1 O3 2.742337 1_555
Ba1 O4 2.902570 1_555
Ba1 O12 2.927673 1_455
Ba1 O12 2.927673 1_555
Ba1 O6 2.940453 1_555
Ba2 O8 2.731489 1_655
Ba2 O8 2.731489 1_555
Ba2 O0 2.742337 1_555
Ba2 O0 2.742337 1_655
Ba2 O7 2.902570 1_545
Ba2 O15 2.927673 1_655
Ba2 O15 2.927673 1_555
Ba2 O5 2.940453 1_555
Ba3 O9 2.731489 1_555
Ba3 O9 2.731489 1_455
Ba3 O1 2.742337 1_455
Ba3 O1 2.742337 1_555
Ba3 O6 2.902570 1_565
Ba3 O14 2.927673 1_555
Ba3 O14 2.927673 1_455
Ba3 O4 2.940453 1_555
O0 Tb0 2.256290 1_555
O0 Tb1 2.348047 1_555
O0 Tb1 2.348047 1_455
O1 Tb1 2.256290 1_555
O1 Tb0 2.348047 1_555
O1 Tb0 2.348047 1_655
O2 Tb2 2.256290 1_556
O2 Tb3 2.348047 1_565
O2 Tb3 2.348047 1_465
O3 Tb3 2.256290 1_554
O3 Tb2 2.348047 1_545
O3 Tb2 2.348047 1_645
O4 Tb6 2.265402 1_455
O4 Tb6 2.265402 1_555
O4 Tb0 2.306473 1_555
O5 Tb7 2.265402 1_555
O5 Tb7 2.265402 1_655
O5 Tb1 2.306473 1_555
O6 Tb4 2.265402 1_455
O6 Tb4 2.265402 1_555
O6 Tb2 2.306473 1_545
O7 Tb5 2.265402 1_555
O7 Tb5 2.265402 1_655
O7 Tb3 2.306473 1_565
O8 Tb5 2.312011 1_545
O8 Tb4 2.366341 1_555
O8 Tb4 2.366341 1_455
O9 Tb4 2.312011 1_565
O9 Tb5 2.366341 1_555
O9 Tb5 2.366341 1_655
O10 Tb7 2.312011 1_555
O10 Tb6 2.366341 1_556
O10 Tb6 2.366341 1_456
O11 Tb6 2.312011 1_555
O11 Tb7 2.366341 1_554
O11 Tb7 2.366341 1_654
O12 Tb4 2.309674 1_555
O12 Tb0 2.321294 1_555
O12 Tb0 2.321294 1_655
O13 Tb5 2.309674 1_555
O13 Tb1 2.321294 1_455
O13 Tb1 2.321294 1_555
O14 Tb6 2.309674 1_555
O14 Tb2 2.321294 1_655
O14 Tb2 2.321294 1_555
O15 Tb7 2.309674 1_555
O15 Tb3 2.321294 1_555
O15 Tb3 2.321294 1_455
