# generated using pymatgen
data_Cs2Th(Si2O5)3
_symmetry_space_group_name_H-M   'P 1'
_cell_length_a   7.21463997
_cell_length_b   13.73908535
_cell_length_c   16.34394297
_cell_angle_alpha   90.00000000
_cell_angle_beta   90.00000000
_cell_angle_gamma   90.00000000
_symmetry_Int_Tables_number   1
_chemical_formula_structural   Cs2Th(Si2O5)3
_chemical_formula_sum   'Cs8 Th4 Si24 O60'
_cell_volume   1620.05337480
_cell_formula_units_Z   4
loop_
 _symmetry_equiv_pos_site_id
 _symmetry_equiv_pos_as_xyz
  1  'x, y, z'
loop_
 _atom_site_type_symbol
 _atom_site_label
 _atom_site_symmetry_multiplicity
 _atom_site_fract_x
 _atom_site_fract_y
 _atom_site_fract_z
 _atom_site_occupancy
  Cs  Cs0  1  0.24426822  0.00008249  0.53125886  1
  Cs  Cs1  1  0.75573178  0.50008249  0.46874114  1
  Cs  Cs2  1  0.24426822  0.50008249  0.96874114  1
  Cs  Cs3  1  0.75573178  0.00008249  0.03125886  1
  Cs  Cs4  1  0.22571666  0.31020724  0.64219966  1
  Cs  Cs5  1  0.77428334  0.81020724  0.35780034  1
  Cs  Cs6  1  0.22571666  0.81020724  0.85780034  1
  Cs  Cs7  1  0.77428334  0.31020724  0.14219966  1
  Th  Th0  1  0.71150822  0.14986359  0.61995735  1
  Th  Th1  1  0.28849178  0.64986359  0.38004265  1
  Th  Th2  1  0.71150822  0.64986359  0.88004265  1
  Th  Th3  1  0.28849178  0.14986359  0.11995735  1
  Si  Si0  1  0.54628462  0.22109228  0.42237311  1
  Si  Si1  1  0.45371538  0.72109228  0.57762689  1
  Si  Si2  1  0.54628462  0.72109228  0.07762689  1
  Si  Si3  1  0.45371538  0.22109228  0.92237311  1
  Si  Si4  1  0.96524431  0.22859129  0.44383591  1
  Si  Si5  1  0.03475569  0.72859129  0.55616409  1
  Si  Si6  1  0.96524431  0.72859129  0.05616409  1
  Si  Si7  1  0.03475569  0.22859129  0.94383591  1
  Si  Si8  1  0.98484196  0.07494002  0.80845647  1
  Si  Si9  1  0.01515804  0.57494002  0.19154353  1
  Si  Si10  1  0.98484196  0.57494002  0.69154353  1
  Si  Si11  1  0.01515804  0.07494002  0.30845647  1
  Si  Si12  1  0.41836149  0.07114843  0.78267711  1
  Si  Si13  1  0.58163851  0.57114843  0.21732289  1
  Si  Si14  1  0.41836149  0.57114843  0.71732289  1
  Si  Si15  1  0.58163851  0.07114843  0.28267711  1
  Si  Si16  1  0.75127050  0.88268434  0.60894800  1
  Si  Si17  1  0.24872950  0.38268434  0.39105200  1
  Si  Si18  1  0.75127050  0.38268434  0.89105200  1
  Si  Si19  1  0.24872950  0.88268434  0.10894800  1
  Si  Si20  1  0.71984941  0.40597711  0.70422223  1
  Si  Si21  1  0.28015059  0.90597711  0.29577777  1
  Si  Si22  1  0.71984941  0.90597711  0.79577777  1
  Si  Si23  1  0.28015059  0.40597711  0.20422223  1
  O  O0  1  0.51117479  0.17814038  0.51166405  1
  O  O1  1  0.48882521  0.67814038  0.48833595  1
  O  O2  1  0.51117479  0.67814038  0.98833595  1
  O  O3  1  0.48882521  0.17814038  0.01166405  1
  O  O4  1  0.43603087  0.32172428  0.40776805  1
  O  O5  1  0.56396913  0.82172428  0.59223195  1
  O  O6  1  0.43603087  0.82172428  0.09223195  1
  O  O7  1  0.56396913  0.32172428  0.90776805  1
  O  O8  1  0.49454087  0.14187854  0.35240337  1
  O  O9  1  0.50545913  0.64187854  0.64759663  1
  O  O10  1  0.49454087  0.64187854  0.14759663  1
  O  O11  1  0.50545913  0.14187854  0.85240337  1
  O  O12  1  0.76084958  0.25511942  0.40904733  1
  O  O13  1  0.23915042  0.75511942  0.59095267  1
  O  O14  1  0.76084958  0.75511942  0.09095267  1
  O  O15  1  0.23915042  0.25511942  0.90904733  1
  O  O16  1  0.95914429  0.18732451  0.53494571  1
  O  O17  1  0.04085571  0.68732451  0.46505529  1
  O  O18  1  0.95914429  0.68732451  0.96505429  1
  O  O19  1  0.04085571  0.18732451  0.03494471  1
  O  O20  1  0.05791072  0.15042081  0.38238978  1
  O  O21  1  0.94208928  0.65042081  0.61761022  1
  O  O22  1  0.05791072  0.65042081  0.11761022  1
  O  O23  1  0.94208928  0.15042081  0.88238978  1
  O  O24  1  0.91464932  0.11517593  0.72274155  1
  O  O25  1  0.08535068  0.61517593  0.27725845  1
  O  O26  1  0.91464932  0.61517593  0.77725845  1
  O  O27  1  0.08535068  0.11517593  0.22274155  1
  O  O28  1  0.20443647  0.04690368  0.80709994  1
  O  O29  1  0.79556353  0.54690368  0.19290006  1
  O  O30  1  0.20443647  0.54690368  0.69290006  1
  O  O31  1  0.79556353  0.04690368  0.30709994  1
  O  O32  1  0.87911760  0.97501974  0.83683842  1
  O  O33  1  0.12088240  0.47501974  0.16316158  1
  O  O34  1  0.87911760  0.47501974  0.66316158  1
  O  O35  1  0.12088240  0.97501974  0.33683842  1
  O  O36  1  0.44108232  0.11724997  0.69370884  1
  O  O37  1  0.55891768  0.61724997  0.30629116  1
  O  O38  1  0.44108232  0.61724997  0.80629116  1
  O  O39  1  0.55891768  0.11724997  0.19370884  1
  O  O40  1  0.72737024  0.99139835  0.57786020  1
  O  O41  1  0.27262976  0.49139835  0.42213980  1
  O  O42  1  0.72737024  0.49139835  0.92213980  1
  O  O43  1  0.27262976  0.99139835  0.07786020  1
  O  O44  1  0.91921155  0.83025393  0.55877669  1
  O  O45  1  0.08078845  0.33025393  0.44122331  1
  O  O46  1  0.91921155  0.33025393  0.94122331  1
  O  O47  1  0.08078845  0.83025393  0.05877669  1
  O  O48  1  0.68679088  0.31323827  0.64824723  1
  O  O49  1  0.31320912  0.81323827  0.35175277  1
  O  O50  1  0.68679088  0.81323827  0.85175277  1
  O  O51  1  0.31320912  0.31323827  0.14824723  1
  O  O52  1  0.79784433  0.37640109  0.79401892  1
  O  O53  1  0.20215567  0.87640109  0.20598108  1
  O  O54  1  0.79784433  0.87640109  0.70598108  1
  O  O55  1  0.20215567  0.37640109  0.29401892  1
  O  O56  1  0.52665606  0.46694730  0.71189560  1
  O  O57  1  0.47334394  0.96694730  0.28810440  1
  O  O58  1  0.52665606  0.96694730  0.78810440  1
  O  O59  1  0.47334394  0.46694730  0.21189560  1
loop_
_geom_bond_atom_site_label_1
_geom_bond_atom_site_label_2
_geom_bond_distance
_geom_bond_site_symmetry_2
Cs0 O0 3.129740 1_555
Cs0 O16 3.294402 1_455
Cs0 O35 3.317848 1_545
Cs0 O44 3.338611 1_445
Cs0 O36 3.414238 1_555
Cs0 O20 3.463241 1_555
Cs0 O13 3.504322 1_545
Cs0 O5 3.509702 1_545
Cs0 O40 3.569651 1_545
Cs1 O1 3.129740 1_555
Cs1 O17 3.294402 1_655
Cs1 O34 3.317848 1_555
Cs1 O45 3.338611 1_655
Cs1 O37 3.414238 1_555
Cs1 O21 3.463241 1_555
Cs1 O12 3.504322 1_555
Cs1 O4 3.509702 1_555
Cs1 O41 3.569651 1_555
Cs2 O2 3.129740 1_555
Cs2 O18 3.294402 1_455
Cs2 O33 3.317848 1_556
Cs2 O46 3.338611 1_455
Cs2 O38 3.414238 1_555
Cs2 O22 3.463241 1_556
Cs2 O15 3.504322 1_555
Cs2 O7 3.509702 1_555
Cs2 O42 3.569651 1_555
Cs3 O3 3.129740 1_555
Cs3 O19 3.294402 1_655
Cs3 O32 3.317848 1_544
Cs3 O47 3.338611 1_645
Cs3 O39 3.414238 1_555
Cs3 O23 3.463241 1_554
Cs3 O14 3.504322 1_545
Cs3 O6 3.509702 1_545
Cs3 O43 3.569651 1_545
Cs4 O16 3.101931 1_455
Cs4 O36 3.186077 1_555
Cs4 O56 3.263273 1_555
Cs4 O48 3.328213 1_555
Cs4 O30 3.359416 1_555
Cs4 O34 3.390826 1_455
Cs4 O45 3.458136 1_555
Cs4 O0 3.476414 1_555
Cs4 O24 3.734895 1_455
Cs5 O17 3.101940 1_655
Cs5 O37 3.186077 1_555
Cs5 O57 3.263273 1_555
Cs5 O49 3.328213 1_555
Cs5 O31 3.359416 1_565
Cs5 O35 3.390826 1_655
Cs5 O44 3.458136 1_555
Cs5 O1 3.476414 1_555
Cs5 O25 3.734895 1_655
Cs6 O18 3.101931 1_455
Cs6 O38 3.186077 1_555
Cs6 O58 3.263273 1_555
Cs6 O50 3.328213 1_555
Cs6 O28 3.359416 1_565
Cs6 O32 3.390826 1_455
Cs6 O47 3.458136 1_556
Cs6 O2 3.476414 1_555
Cs6 O26 3.734895 1_455
Cs7 O19 3.101940 1_655
Cs7 O39 3.186077 1_555
Cs7 O59 3.263273 1_555
Cs7 O51 3.328213 1_555
Cs7 O29 3.359416 1_555
Cs7 O33 3.390826 1_655
Cs7 O46 3.458136 1_554
Cs7 O3 3.476414 1_555
Cs7 O27 3.734895 1_655
O0 Si0 1.594413 1_555
O0 Th0 2.317888 1_555
O1 Si1 1.594413 1_555
O1 Th1 2.317888 1_555
O2 Si2 1.594413 1_556
O2 Th2 2.317888 1_555
O3 Si3 1.594413 1_554
O3 Th3 2.317888 1_555
O4 Si0 1.612844 1_555
O4 Si17 1.613118 1_555
O5 Si1 1.612844 1_555
O5 Si16 1.613118 1_555
O6 Si2 1.612844 1_555
O6 Si19 1.613118 1_555
O7 Si3 1.612844 1_555
O7 Si18 1.613118 1_555
O8 Si0 1.622218 1_555
O8 Si15 1.624156 1_555
O9 Si1 1.622218 1_555
O9 Si14 1.624156 1_555
O10 Si2 1.622218 1_555
O10 Si13 1.624156 1_555
O11 Si3 1.622218 1_555
O11 Si12 1.624156 1_555
O12 Si4 1.621935 1_555
O12 Si0 1.631663 1_555
O13 Si5 1.621935 1_555
O13 Si1 1.631663 1_555
O14 Si6 1.621935 1_555
O14 Si2 1.631663 1_555
O15 Si7 1.621935 1_555
O15 Si3 1.631663 1_555
O16 Si4 1.593985 1_555
O16 Th0 2.321068 1_555
O17 Si5 1.593970 1_555
O17 Th1 2.321077 1_555
O18 Si6 1.593985 1_556
O18 Th2 2.321068 1_555
O19 Si7 1.593970 1_554
O19 Th3 2.321077 1_555
O20 Si4 1.615235 1_455
O20 Si11 1.621950 1_555
O21 Si5 1.615235 1_655
O21 Si10 1.621950 1_555
O22 Si6 1.615235 1_455
O22 Si9 1.621950 1_555
O23 Si7 1.615235 1_655
O23 Si8 1.621950 1_555
O24 Si8 1.588907 1_555
O24 Th0 2.279724 1_555
O25 Si9 1.588907 1_555
O25 Th1 2.279724 1_555
O26 Si10 1.588907 1_555
O26 Th2 2.279724 1_555
O27 Si11 1.588907 1_555
O27 Th3 2.279724 1_555
O28 Si12 1.628603 1_555
O28 Si8 1.630600 1_455
O29 Si13 1.628603 1_555
O29 Si9 1.630600 1_655
O30 Si14 1.628603 1_555
O30 Si10 1.630600 1_455
O31 Si15 1.628603 1_555
O31 Si11 1.630600 1_655
O32 Si22 1.634172 1_555
O32 Si8 1.637560 1_565
O33 Si23 1.634172 1_555
O33 Si9 1.637560 1_555
O34 Si20 1.634172 1_555
O34 Si10 1.637560 1_555
O35 Si21 1.634172 1_555
O35 Si11 1.637560 1_565
O36 Si12 1.594504 1_555
O36 Th0 2.336716 1_555
O37 Si13 1.594504 1_555
O37 Th1 2.336716 1_555
O38 Si14 1.594504 1_555
O38 Th2 2.336716 1_555
O39 Si15 1.594504 1_555
O39 Th3 2.336716 1_555
O40 Si16 1.587082 1_555
O40 Th0 2.286164 1_565
O41 Si17 1.587082 1_555
O41 Th1 2.286164 1_555
O42 Si18 1.587082 1_555
O42 Th2 2.286164 1_555
O43 Si19 1.587082 1_555
O43 Th3 2.286164 1_565
O44 Si5 1.627158 1_655
O44 Si16 1.630752 1_555
O45 Si4 1.627158 1_455
O45 Si17 1.630752 1_555
O46 Si7 1.627158 1_655
O46 Si18 1.630752 1_555
O47 Si6 1.627158 1_455
O47 Si19 1.630752 1_555
O48 Si20 1.586597 1_555
O48 Th0 2.298673 1_555
O49 Si21 1.586597 1_555
O49 Th1 2.298673 1_555
O50 Si22 1.586597 1_555
O50 Th2 2.298673 1_555
O51 Si23 1.586597 1_555
O51 Th3 2.298673 1_555
O52 Si18 1.623406 1_555
O52 Si20 1.623484 1_555
O53 Si19 1.623406 1_555
O53 Si21 1.623484 1_555
O54 Si16 1.623406 1_555
O54 Si22 1.623484 1_555
O55 Si17 1.623406 1_555
O55 Si23 1.623484 1_555
O56 Si20 1.631001 1_555
O56 Si14 1.633361 1_555
O57 Si21 1.631001 1_555
O57 Si15 1.633361 1_565
O58 Si22 1.631001 1_555
O58 Si12 1.633361 1_565
O59 Si23 1.631001 1_555
O59 Si13 1.633361 1_555
