# generated using pymatgen
data_ZrScMnNi3
_symmetry_space_group_name_H-M   'P 1'
_cell_length_a   4.94620062
_cell_length_b   4.94620062
_cell_length_c   4.93594301
_cell_angle_alpha   59.93123162
_cell_angle_beta   120.06876838
_cell_angle_gamma   120.00000000
_symmetry_Int_Tables_number   1
_chemical_formula_structural   ZrScMnNi3
_chemical_formula_sum   'Zr1 Sc1 Mn1 Ni3'
_cell_volume   85.29948138
_cell_formula_units_Z   1
loop_
 _symmetry_equiv_pos_site_id
 _symmetry_equiv_pos_as_xyz
  1  'x, y, z'
loop_
 _atom_site_type_symbol
 _atom_site_label
 _atom_site_symmetry_multiplicity
 _atom_site_fract_x
 _atom_site_fract_y
 _atom_site_fract_z
 _atom_site_occupancy
  Zr  Zr0  1  0.99966300  0.00033700  0.99898900  1
  Sc  Sc0  1  0.25018200  0.74981800  0.75054600  1
  Mn  Mn0  1  0.62487500  0.37512500  0.87462400  1
  Ni  Ni0  1  0.62496800  0.37503200  0.37528000  1
  Ni  Ni1  1  0.62496800  0.87465500  0.37528000  1
  Ni  Ni2  1  0.12534500  0.37503200  0.37528000  1
loop_
_geom_bond_atom_site_label_1
_geom_bond_atom_site_label_2
_geom_bond_distance
_geom_bond_site_symmetry_2
Sc0 Zr0 3.025758 1_464
Sc0 Zr0 3.025793 1_565
Sc0 Zr0 3.025793 1_455
Sc0 Zr0 3.025793 1_465
Mn0 Ni2 2.465195 1_555
Mn0 Ni1 2.465195 1_555
Mn0 Ni0 2.465195 1_555
Mn0 Ni1 2.470749 1_546
Mn0 Ni0 2.470749 1_556
Mn0 Ni2 2.470749 1_656
Mn0 Sc0 2.899051 1_545
Mn0 Sc0 2.899051 1_655
Mn0 Sc0 2.899055 1_555
Mn0 Zr0 2.899249 1_555
Mn0 Zr0 2.899253 1_455
Mn0 Zr0 2.899253 1_565
Ni0 Ni2 2.471236 1_555
Ni0 Ni1 2.471236 1_555
Ni0 Ni2 2.474965 1_655
Ni0 Ni1 2.474965 1_545
Ni0 Zr0 2.889144 1_555
Ni0 Sc0 2.891671 1_554
Ni0 Sc0 2.898067 1_545
Ni0 Sc0 2.898067 1_655
Ni0 Zr0 2.900220 1_454
Ni0 Zr0 2.900220 1_564
Ni1 Ni2 2.471236 1_555
Ni1 Ni2 2.474965 1_665
Ni1 Zr0 2.889146 1_565
Ni1 Sc0 2.891669 1_554
Ni1 Sc0 2.898065 1_655
Ni1 Sc0 2.898069 1_555
Ni1 Zr0 2.900218 1_564
Ni1 Zr0 2.900222 1_464
Ni2 Zr0 2.889146 1_455
Ni2 Sc0 2.891669 1_554
Ni2 Sc0 2.898065 1_545
Ni2 Sc0 2.898069 1_555
Ni2 Zr0 2.900218 1_454
Ni2 Zr0 2.900222 1_464
