# generated using pymatgen
data_TbGaAg
_symmetry_space_group_name_H-M   'P 1'
_cell_length_a   5.68770737
_cell_length_b   5.68770737
_cell_length_c   7.19290143
_cell_angle_alpha   52.13282943
_cell_angle_beta   52.13282943
_cell_angle_gamma   46.89529548
_symmetry_Int_Tables_number   1
_chemical_formula_structural   TbGaAg
_chemical_formula_sum   'Tb2 Ga2 Ag2'
_cell_volume   126.25920219
_cell_formula_units_Z   2
loop_
 _symmetry_equiv_pos_site_id
 _symmetry_equiv_pos_as_xyz
  1  'x, y, z'
loop_
 _atom_site_type_symbol
 _atom_site_label
 _atom_site_symmetry_multiplicity
 _atom_site_fract_x
 _atom_site_fract_y
 _atom_site_fract_z
 _atom_site_occupancy
  Tb  Tb0  1  0.46646642  0.46646642  0.29046967  1
  Tb  Tb1  1  0.53353358  0.53353358  0.70953033  1
  Ga  Ga0  1  0.15778471  0.15778471  0.88279515  1
  Ga  Ga1  1  0.84221529  0.84221529  0.11720485  1
  Ag  Ag0  1  0.82661430  0.82661430  0.72190898  1
  Ag  Ag1  1  0.17338570  0.17338570  0.27809102  1
loop_
_geom_bond_atom_site_label_1
_geom_bond_atom_site_label_2
_geom_bond_distance
_geom_bond_site_symmetry_2
Ga0 Ga1 2.501638 1_446
Ga0 Tb0 3.142070 1_546
Ga0 Tb0 3.142070 1_456
Ga0 Tb0 3.188014 1_555
Ga0 Tb1 3.223418 1_555
Ga0 Tb1 3.243337 1_545
Ga0 Tb1 3.243337 1_455
Ga1 Tb1 3.142070 1_654
Ga1 Tb1 3.142070 1_564
Ga1 Tb1 3.188014 1_555
Ga1 Tb0 3.223418 1_555
Ga1 Tb0 3.243337 1_565
Ga1 Tb0 3.243337 1_655
Ag0 Ga0 2.614798 1_565
Ag0 Ga0 2.614798 1_655
Ag0 Ag1 2.797866 1_665
Ag0 Ga1 2.954738 1_556
Ag0 Tb1 3.088015 1_565
Ag0 Tb1 3.088015 1_655
Ag0 Tb1 3.118890 1_555
Ag0 Tb0 3.206647 1_556
Ag0 Tb0 3.289646 1_655
Ag0 Tb0 3.289646 1_565
Ag1 Ga1 2.614798 1_455
Ag1 Ga1 2.614798 1_545
Ag1 Ga0 2.954738 1_554
Ag1 Tb0 3.088015 1_455
Ag1 Tb0 3.088015 1_545
Ag1 Tb0 3.118890 1_555
Ag1 Tb1 3.206647 1_554
Ag1 Tb1 3.289646 1_545
Ag1 Tb1 3.289646 1_455
