# generated using pymatgen
data_Ca5Al6O14
_symmetry_space_group_name_H-M   'P 1'
_cell_length_a   7.94461151
_cell_length_b   7.94461151
_cell_length_c   10.39685000
_cell_angle_alpha   90.00000000
_cell_angle_beta   90.00000000
_cell_angle_gamma   91.48731579
_symmetry_Int_Tables_number   1
_chemical_formula_structural   Ca5Al6O14
_chemical_formula_sum   'Ca10 Al12 O28'
_cell_volume   655.99536174
_cell_formula_units_Z   2
loop_
 _symmetry_equiv_pos_site_id
 _symmetry_equiv_pos_as_xyz
  1  'x, y, z'
loop_
 _atom_site_type_symbol
 _atom_site_label
 _atom_site_symmetry_multiplicity
 _atom_site_fract_x
 _atom_site_fract_y
 _atom_site_fract_z
 _atom_site_occupancy
  Ca  Ca0  1  0.47476400  0.47476400  0.74206700  1
  Ca  Ca1  1  0.52523600  0.52523600  0.24206700  1
  Ca  Ca2  1  0.67543700  0.95938900  0.19909000  1
  Ca  Ca3  1  0.32456300  0.04061100  0.69909000  1
  Ca  Ca4  1  0.04061100  0.32456300  0.69909000  1
  Ca  Ca5  1  0.95938900  0.67543700  0.19909000  1
  Ca  Ca6  1  0.26428500  0.94737000  0.24965900  1
  Ca  Ca7  1  0.73571500  0.05263000  0.74965900  1
  Ca  Ca8  1  0.05263000  0.73571500  0.74965900  1
  Ca  Ca9  1  0.94737000  0.26428500  0.24965900  1
  Al  Al0  1  0.64658800  0.15695700  0.47594400  1
  Al  Al1  1  0.35341200  0.84304300  0.97594400  1
  Al  Al2  1  0.84304300  0.35341200  0.97594400  1
  Al  Al3  1  0.15695700  0.64658800  0.47594400  1
  Al  Al4  1  0.00068100  0.00068100  0.96252900  1
  Al  Al5  1  0.99931900  0.99931900  0.46252900  1
  Al  Al6  1  0.70086000  0.70086000  0.94077200  1
  Al  Al7  1  0.29914000  0.29914000  0.44077200  1
  Al  Al8  1  0.50236200  0.78908600  0.50847200  1
  Al  Al9  1  0.49763800  0.21091400  0.00847200  1
  Al  Al10  1  0.21091400  0.49763800  0.00847200  1
  Al  Al11  1  0.78908600  0.50236200  0.50847200  1
  O  O0  1  0.69974500  0.69974500  0.10969500  1
  O  O1  1  0.30025500  0.30025500  0.60969500  1
  O  O2  1  0.49501300  0.24324200  0.37308200  1
  O  O3  1  0.50498700  0.75675800  0.87308200  1
  O  O4  1  0.75675800  0.50498700  0.87308200  1
  O  O5  1  0.24324200  0.49501300  0.37308200  1
  O  O6  1  0.99303500  0.99303500  0.13126000  1
  O  O7  1  0.00696500  0.00696500  0.63126000  1
  O  O8  1  0.48932000  0.80875400  0.33972400  1
  O  O9  1  0.51068000  0.19124600  0.83972400  1
  O  O10  1  0.19124600  0.51068000  0.83972400  1
  O  O11  1  0.80875400  0.48932000  0.33972400  1
  O  O12  1  0.85391700  0.85391700  0.88780100  1
  O  O13  1  0.14608300  0.14608300  0.38780100  1
  O  O14  1  0.80888700  0.06285800  0.38448700  1
  O  O15  1  0.19111300  0.93714200  0.88448700  1
  O  O16  1  0.93714200  0.19111300  0.88448700  1
  O  O17  1  0.06285800  0.80888700  0.38448700  1
  O  O18  1  0.29863500  0.75234400  0.58442300  1
  O  O19  1  0.70136500  0.24765600  0.08442300  1
  O  O20  1  0.24765600  0.70136500  0.08442300  1
  O  O21  1  0.75234400  0.29863500  0.58442300  1
  O  O22  1  0.99102300  0.56281100  0.57609600  1
  O  O23  1  0.00897700  0.43718900  0.07609600  1
  O  O24  1  0.43718900  0.00897700  0.07609600  1
  O  O25  1  0.56281100  0.99102300  0.57609600  1
  O  O26  1  0.62557800  0.62557800  0.56682400  1
  O  O27  1  0.37442200  0.37442200  0.06682400  1
loop_
_geom_bond_atom_site_label_1
_geom_bond_atom_site_label_2
_geom_bond_distance
_geom_bond_site_symmetry_2
Ca0 O1 2.374560 1_555
Ca0 O26 2.473103 1_555
Ca0 O9 2.493823 1_555
Ca0 O10 2.493823 1_555
Ca0 O4 2.627595 1_555
Ca0 O3 2.627595 1_555
Ca1 O0 2.374560 1_555
Ca1 O27 2.473103 1_555
Ca1 O8 2.493823 1_555
Ca1 O11 2.493823 1_555
Ca1 O5 2.627595 1_555
Ca1 O2 2.627595 1_555
Ca2 O0 2.275265 1_555
Ca2 O24 2.326319 1_565
Ca2 O14 2.338792 1_565
Ca2 O8 2.380030 1_555
Ca2 O19 2.585363 1_565
Ca2 O6 2.626837 1_555
Ca3 O1 2.275265 1_555
Ca3 O25 2.326319 1_545
Ca3 O15 2.338792 1_545
Ca3 O9 2.380030 1_555
Ca3 O18 2.585363 1_545
Ca3 O7 2.626837 1_555
Ca4 O1 2.275265 1_555
Ca4 O22 2.326319 1_455
Ca4 O16 2.338792 1_455
Ca4 O10 2.380030 1_555
Ca4 O21 2.585363 1_455
Ca4 O7 2.626837 1_555
Ca5 O0 2.275265 1_555
Ca5 O23 2.326319 1_655
Ca5 O17 2.338792 1_655
Ca5 O11 2.380030 1_555
Ca5 O20 2.585363 1_655
Ca5 O6 2.626837 1_555
Ca6 O24 2.312538 1_565
Ca6 O8 2.321222 1_555
Ca6 O13 2.348166 1_565
Ca6 O17 2.375893 1_555
Ca6 O6 2.516233 1_455
Ca6 O20 2.602899 1_555
Ca7 O25 2.312538 1_545
Ca7 O9 2.321222 1_555
Ca7 O12 2.348166 1_545
Ca7 O16 2.375893 1_555
Ca7 O7 2.516233 1_655
Ca7 O21 2.602899 1_555
Ca8 O22 2.312538 1_455
Ca8 O10 2.321222 1_555
Ca8 O12 2.348166 1_455
Ca8 O15 2.375893 1_555
Ca8 O7 2.516233 1_565
Ca8 O18 2.602899 1_555
Ca9 O23 2.312538 1_655
Ca9 O11 2.321222 1_555
Ca9 O13 2.348166 1_655
Ca9 O14 2.375893 1_555
Ca9 O6 2.516233 1_545
Ca9 O19 2.602899 1_555
Al0 O2 1.762548 1_555
Al0 O14 1.782026 1_555
Al0 O21 1.787673 1_555
Al0 O25 1.794308 1_545
Al1 O3 1.762548 1_555
Al1 O15 1.782026 1_555
Al1 O20 1.787673 1_556
Al1 O24 1.794308 1_566
Al2 O4 1.762548 1_555
Al2 O16 1.782026 1_555
Al2 O19 1.787673 1_556
Al2 O23 1.794308 1_656
Al3 O5 1.762548 1_555
Al3 O17 1.782026 1_555
Al3 O18 1.787673 1_555
Al3 O22 1.794308 1_455
Al4 O6 1.756318 1_446
Al4 O15 1.800474 1_545
Al4 O16 1.800474 1_455
Al4 O12 1.803355 1_445
Al5 O7 1.756318 1_665
Al5 O17 1.800474 1_655
Al5 O14 1.800474 1_565
Al5 O13 1.803355 1_665
Al6 O0 1.756311 1_556
Al6 O3 1.774803 1_555
Al6 O4 1.774803 1_555
Al6 O12 1.784308 1_555
Al7 O1 1.756311 1_555
Al7 O2 1.774803 1_555
Al7 O5 1.774803 1_555
Al7 O13 1.784308 1_555
Al8 O26 1.754919 1_555
Al8 O8 1.764675 1_555
Al8 O25 1.805206 1_555
Al8 O18 1.817656 1_555
Al9 O27 1.754919 1_555
Al9 O9 1.764675 1_554
Al9 O24 1.805206 1_555
Al9 O19 1.817656 1_555
Al10 O27 1.754919 1_555
Al10 O10 1.764675 1_554
Al10 O23 1.805206 1_555
Al10 O20 1.817656 1_555
Al11 O26 1.754919 1_555
Al11 O11 1.764675 1_555
Al11 O22 1.805206 1_555
Al11 O21 1.817656 1_555
