# generated using pymatgen
data_Y3Sb
_symmetry_space_group_name_H-M   'P 1'
_cell_length_a   6.21756410
_cell_length_b   12.45317899
_cell_length_c   12.45285838
_cell_angle_alpha   90.00157937
_cell_angle_beta   90.00183703
_cell_angle_gamma   89.99575269
_symmetry_Int_Tables_number   1
_chemical_formula_structural   Y3Sb
_chemical_formula_sum   'Y24 Sb8'
_cell_volume   964.20537597
_cell_formula_units_Z   8
loop_
 _symmetry_equiv_pos_site_id
 _symmetry_equiv_pos_as_xyz
  1  'x, y, z'
loop_
 _atom_site_type_symbol
 _atom_site_label
 _atom_site_symmetry_multiplicity
 _atom_site_fract_x
 _atom_site_fract_y
 _atom_site_fract_z
 _atom_site_occupancy
  Y  Y0  1  0.28625231  0.14017836  0.66565108  1
  Y  Y1  1  0.28627741  0.35976645  0.83441873  1
  Y  Y2  1  0.78628583  0.16555395  0.85978484  1
  Y  Y3  1  0.78627097  0.33437341  0.64029659  1
  Y  Y4  1  0.71373175  0.85974688  0.33435543  1
  Y  Y5  1  0.71372209  0.64030847  0.16556654  1
  Y  Y6  1  0.21372590  0.83437085  0.14020620  1
  Y  Y7  1  0.21372933  0.66569934  0.35971877  1
  Y  Y8  1  0.23261742  0.96557427  0.42599219  1
  Y  Y9  1  0.23263369  0.53444251  0.07397628  1
  Y  Y10  1  0.73261327  0.92595956  0.03438144  1
  Y  Y11  1  0.73261819  0.57407761  0.46560023  1
  Y  Y12  1  0.76739363  0.03433973  0.57400782  1
  Y  Y13  1  0.76738296  0.46565049  0.92602061  1
  Y  Y14  1  0.26737601  0.07393145  0.96560977  1
  Y  Y15  1  0.26738547  0.42603444  0.53441003  1
  Y  Y16  1  0.53561270  0.21850864  0.39262190  1
  Y  Y17  1  0.53562059  0.28141440  0.10732529  1
  Y  Y18  1  0.03562937  0.89264493  0.78146441  1
  Y  Y19  1  0.03565176  0.60741311  0.71861475  1
  Y  Y20  1  0.46436254  0.78146866  0.60737249  1
  Y  Y21  1  0.46438411  0.71860738  0.89267940  1
  Y  Y22  1  0.96435380  0.10727956  0.21853439  1
  Y  Y23  1  0.96434997  0.39266565  0.28138398  1
  Sb  Sb0  1  0.54207632  0.95054487  0.79252224  1
  Sb  Sb1  1  0.54212544  0.54949306  0.70750802  1
  Sb  Sb2  1  0.04208295  0.29251115  0.04944235  1
  Sb  Sb3  1  0.04207625  0.20743096  0.45055464  1
  Sb  Sb4  1  0.45790762  0.04935281  0.20743782  1
  Sb  Sb5  1  0.45792647  0.45061063  0.29252132  1
  Sb  Sb6  1  0.95789973  0.70749033  0.95054850  1
  Sb  Sb7  1  0.95792218  0.79254907  0.54947298  1
loop_
_geom_bond_atom_site_label_1
_geom_bond_atom_site_label_2
_geom_bond_distance
_geom_bond_site_symmetry_2
Sb0 Y14 3.150193 1_565
Sb0 Y18 3.155227 1_655
Sb0 Y20 3.159519 1_555
Sb0 Y21 3.183083 1_555
Sb0 Y2 3.190102 1_565
Sb0 Y18 3.233345 1_555
Sb0 Y12 3.233677 1_565
Sb0 Y10 3.250866 1_556
Sb0 Y0 3.256146 1_565
Sb1 Y15 3.150902 1_555
Sb1 Y19 3.155245 1_655
Sb1 Y21 3.160033 1_555
Sb1 Y20 3.183398 1_555
Sb1 Y3 3.190738 1_555
Sb1 Y19 3.233493 1_555
Sb1 Y13 3.233546 1_555
Sb1 Y11 3.251413 1_555
Sb1 Y1 3.257519 1_555
Sb2 Y13 3.150834 1_454
Sb2 Y17 3.155120 1_555
Sb2 Y22 3.160525 1_455
Sb2 Y23 3.183000 1_455
Sb2 Y1 3.190161 1_554
Sb2 Y17 3.233394 1_455
Sb2 Y14 3.234306 1_554
Sb2 Y9 3.251847 1_555
Sb2 Y2 3.256844 1_454
Sb3 Y12 3.150784 1_455
Sb3 Y16 3.155309 1_555
Sb3 Y23 3.161129 1_455
Sb3 Y22 3.183863 1_455
Sb3 Y0 3.190718 1_555
Sb3 Y16 3.233465 1_455
Sb3 Y15 3.234836 1_555
Sb3 Y8 3.250841 1_545
Sb3 Y3 3.257502 1_455
Sb4 Y10 3.149986 1_545
Sb4 Y22 3.155329 1_455
Sb4 Y16 3.160483 1_555
Sb4 Y17 3.184288 1_555
Sb4 Y6 3.189635 1_545
Sb4 Y22 3.233436 1_555
Sb4 Y8 3.233958 1_545
Sb4 Y14 3.250487 1_554
Sb4 Y4 3.256178 1_545
Sb5 Y11 3.150627 1_555
Sb5 Y23 3.155636 1_455
Sb5 Y17 3.160892 1_555
Sb5 Y16 3.184584 1_555
Sb5 Y7 3.190521 1_555
Sb5 Y23 3.233275 1_555
Sb5 Y9 3.233938 1_555
Sb5 Y15 3.251292 1_555
Sb5 Y5 3.257366 1_555
Sb6 Y9 3.150206 1_656
Sb6 Y21 3.154958 1_555
Sb6 Y18 3.159759 1_655
Sb6 Y19 3.182552 1_655
Sb6 Y5 3.189812 1_556
Sb6 Y10 3.233132 1_556
Sb6 Y21 3.233500 1_655
Sb6 Y13 3.250707 1_555
Sb6 Y6 3.256470 1_656
Sb7 Y8 3.150431 1_655
Sb7 Y20 3.155356 1_555
Sb7 Y19 3.159996 1_655
Sb7 Y18 3.183252 1_655
Sb7 Y4 3.190802 1_555
Sb7 Y20 3.233233 1_655
Sb7 Y11 3.233508 1_555
Sb7 Y12 3.250019 1_565
Sb7 Y7 3.257058 1_655
