# generated using pymatgen
data_Mg4Mn5(TeO6)3
_symmetry_space_group_name_H-M   'P 1'
_cell_length_a   8.89701117
_cell_length_b   8.89701117
_cell_length_c   10.71589040
_cell_angle_alpha   87.28404914
_cell_angle_beta   87.28404914
_cell_angle_gamma   61.01685500
_symmetry_Int_Tables_number   1
_chemical_formula_structural   Mg4Mn5(TeO6)3
_chemical_formula_sum   'Mg8 Mn10 Te6 O36'
_cell_volume   740.88149562
_cell_formula_units_Z   2
loop_
 _symmetry_equiv_pos_site_id
 _symmetry_equiv_pos_as_xyz
  1  'x, y, z'
loop_
 _atom_site_type_symbol
 _atom_site_label
 _atom_site_symmetry_multiplicity
 _atom_site_fract_x
 _atom_site_fract_y
 _atom_site_fract_z
 _atom_site_occupancy
  Mg  Mg0  1  0.93386400  0.65627100  0.42756500  1
  Mg  Mg1  1  0.32133100  0.62681700  0.55016300  1
  Mg  Mg2  1  0.34372900  0.06613600  0.07243500  1
  Mg  Mg3  1  0.37318300  0.67866900  0.94983700  1
  Mg  Mg4  1  0.62681700  0.32133100  0.05016300  1
  Mg  Mg5  1  0.65627100  0.93386400  0.92756500  1
  Mg  Mg6  1  0.06613600  0.34372900  0.57243500  1
  Mg  Mg7  1  0.67866900  0.37318300  0.44983700  1
  Mn  Mn0  1  0.00323300  0.71535500  0.76002100  1
  Mn  Mn1  1  0.71535500  0.00323300  0.26002100  1
  Mn  Mn2  1  0.45073700  0.87636300  0.44183800  1
  Mn  Mn3  1  0.87636300  0.45073700  0.94183800  1
  Mn  Mn4  1  0.12363700  0.54926300  0.05816200  1
  Mn  Mn5  1  0.81049000  0.18951000  0.75000000  1
  Mn  Mn6  1  0.18951000  0.81049000  0.25000000  1
  Mn  Mn7  1  0.54926300  0.12363700  0.55816200  1
  Mn  Mn8  1  0.99676700  0.28464500  0.23997900  1
  Mn  Mn9  1  0.28464500  0.99676700  0.73997900  1
  Te  Te0  1  0.34008600  0.33531300  0.80568200  1
  Te  Te1  1  0.00000000  0.00000000  0.50000000  1
  Te  Te2  1  0.00000000  0.00000000  0.00000000  1
  Te  Te3  1  0.33531300  0.34008600  0.30568200  1
  Te  Te4  1  0.65991400  0.66468700  0.19431800  1
  Te  Te5  1  0.66468700  0.65991400  0.69431800  1
  O  O0  1  0.41181900  0.11482900  0.89974900  1
  O  O1  1  0.09746400  0.76726400  0.93346400  1
  O  O2  1  0.24222300  0.55813800  0.21661200  1
  O  O3  1  0.08790400  0.04928200  0.34318700  1
  O  O4  1  0.23273600  0.90253600  0.56653600  1
  O  O5  1  0.95071800  0.91209600  0.15681300  1
  O  O6  1  0.42970100  0.41447300  0.43810600  1
  O  O7  1  0.76535400  0.08244500  0.94395700  1
  O  O8  1  0.23464600  0.91755500  0.05604300  1
  O  O9  1  0.72861900  0.76959400  0.32588600  1
  O  O10  1  0.24955800  0.54511000  0.70244300  1
  O  O11  1  0.27138100  0.23040600  0.67411400  1
  O  O12  1  0.90253600  0.23273600  0.06653600  1
  O  O13  1  0.11490900  0.43448400  0.89004400  1
  O  O14  1  0.45489000  0.75044200  0.79755700  1
  O  O15  1  0.57029900  0.58552700  0.56189400  1
  O  O16  1  0.75044200  0.45489000  0.29755700  1
  O  O17  1  0.56551600  0.88509100  0.60995600  1
  O  O18  1  0.44186200  0.75777700  0.28338800  1
  O  O19  1  0.54511000  0.24955800  0.20244300  1
  O  O20  1  0.11482900  0.41181900  0.39974900  1
  O  O21  1  0.88509100  0.56551600  0.10995600  1
  O  O22  1  0.91755500  0.23464600  0.55604300  1
  O  O23  1  0.41447300  0.42970100  0.93810600  1
  O  O24  1  0.75777700  0.44186200  0.78338800  1
  O  O25  1  0.04928200  0.08790400  0.84318700  1
  O  O26  1  0.76959400  0.72861900  0.82588600  1
  O  O27  1  0.58552700  0.57029900  0.06189400  1
  O  O28  1  0.76726400  0.09746400  0.43346400  1
  O  O29  1  0.43448400  0.11490900  0.39004400  1
  O  O30  1  0.58818100  0.88517100  0.10025100  1
  O  O31  1  0.91209600  0.95071800  0.65681300  1
  O  O32  1  0.08244500  0.76535400  0.44395700  1
  O  O33  1  0.23040600  0.27138100  0.17411400  1
  O  O34  1  0.55813800  0.24222300  0.71661200  1
  O  O35  1  0.88517100  0.58818100  0.60025100  1
loop_
_geom_bond_atom_site_label_1
_geom_bond_atom_site_label_2
_geom_bond_distance
_geom_bond_site_symmetry_2
Mg0 O9 1.959202 1_555
Mg0 O32 2.000428 1_655
Mg0 O20 2.008412 1_655
Mg0 O35 2.012732 1_555
Mg1 O10 1.959013 1_555
Mg1 O6 2.068988 1_555
Mg1 O15 2.071406 1_555
Mg1 O4 2.196247 1_555
Mg1 O32 2.211164 1_555
Mg2 O33 1.959202 1_555
Mg2 O8 2.000428 1_545
Mg2 O30 2.008412 1_545
Mg2 O0 2.012732 1_554
Mg3 O14 1.959013 1_555
Mg3 O27 2.068988 1_556
Mg3 O23 2.071406 1_555
Mg3 O1 2.196247 1_555
Mg3 O8 2.211164 1_556
Mg4 O19 1.959013 1_555
Mg4 O23 2.068988 1_554
Mg4 O27 2.071406 1_555
Mg4 O12 2.196247 1_555
Mg4 O7 2.211164 1_554
Mg5 O26 1.959202 1_555
Mg5 O7 2.000428 1_565
Mg5 O0 2.008412 1_565
Mg5 O30 2.012732 1_556
Mg6 O11 1.959202 1_555
Mg6 O22 2.000428 1_455
Mg6 O35 2.008412 1_455
Mg6 O20 2.012732 1_555
Mg7 O16 1.959013 1_555
Mg7 O15 2.068988 1_555
Mg7 O6 2.071406 1_555
Mg7 O28 2.196247 1_555
Mg7 O22 2.211164 1_555
Mn0 O10 2.054587 1_555
Mn0 O26 2.112855 1_455
Mn0 O31 2.117927 1_455
Mn0 O1 2.230423 1_555
Mn0 O13 2.562841 1_555
Mn0 O35 2.611619 1_455
Mn1 O19 2.054587 1_555
Mn1 O9 2.112855 1_545
Mn1 O5 2.117927 1_545
Mn1 O28 2.230423 1_555
Mn1 O29 2.562841 1_555
Mn1 O30 2.611619 1_545
Mn2 O18 2.065327 1_555
Mn2 O29 2.105200 1_565
Mn2 O17 2.135144 1_555
Mn2 O4 2.224376 1_555
Mn2 O9 2.470500 1_555
Mn2 O15 2.574668 1_555
Mn3 O24 2.065327 1_555
Mn3 O13 2.105200 1_655
Mn3 O21 2.135144 1_556
Mn3 O12 2.224376 1_556
Mn3 O26 2.470500 1_555
Mn3 O27 2.574668 1_556
Mn4 O2 2.065327 1_555
Mn4 O21 2.105200 1_455
Mn4 O13 2.135144 1_554
Mn4 O1 2.224376 1_554
Mn4 O33 2.470500 1_555
Mn4 O23 2.574668 1_554
Mn5 O24 2.104419 1_555
Mn5 O34 2.104419 1_555
Mn5 O25 2.140630 1_655
Mn5 O31 2.140630 1_545
Mn5 O7 2.343598 1_555
Mn5 O22 2.343598 1_555
Mn6 O18 2.104419 1_555
Mn6 O2 2.104419 1_555
Mn6 O3 2.140630 1_565
Mn6 O5 2.140630 1_455
Mn6 O32 2.343598 1_555
Mn6 O8 2.343598 1_555
Mn7 O34 2.065327 1_555
Mn7 O17 2.105200 1_545
Mn7 O29 2.135144 1_555
Mn7 O28 2.224376 1_555
Mn7 O11 2.470500 1_555
Mn7 O6 2.574668 1_555
Mn8 O16 2.054587 1_555
Mn8 O33 2.112855 1_655
Mn8 O3 2.117927 1_655
Mn8 O12 2.230423 1_555
Mn8 O21 2.562841 1_555
Mn8 O20 2.611619 1_655
Mn9 O14 2.054587 1_555
Mn9 O11 2.112855 1_565
Mn9 O25 2.117927 1_565
Mn9 O4 2.230423 1_555
Mn9 O17 2.562841 1_555
Mn9 O0 2.611619 1_565
O0 Te0 1.982870 1_555
O1 Te2 1.972093 1_566
O2 Te3 1.924295 1_555
O3 Te1 1.940506 1_555
O4 Te1 1.972093 1_565
O5 Te2 1.940506 1_665
O6 Te3 1.974195 1_555
O7 Te2 1.962152 1_656
O8 Te2 1.962152 1_565
O9 Te4 1.997955 1_555
O10 Te0 1.946404 1_555
O11 Te0 1.997955 1_555
O12 Te2 1.972093 1_655
O13 Te0 1.949429 1_555
O14 Te5 1.946404 1_555
O15 Te5 1.974195 1_555
O16 Te4 1.946404 1_555
O17 Te5 1.949429 1_555
O18 Te4 1.924295 1_555
O19 Te3 1.946404 1_555
O20 Te3 1.982870 1_555
O21 Te4 1.949429 1_555
O22 Te1 1.962152 1_655
O23 Te0 1.974195 1_555
O24 Te5 1.924295 1_555
O25 Te2 1.940506 1_556
O26 Te5 1.997955 1_555
O27 Te4 1.974195 1_555
O28 Te1 1.972093 1_655
O29 Te3 1.949429 1_555
O30 Te4 1.982870 1_555
O31 Te1 1.940506 1_665
O32 Te1 1.962152 1_565
O33 Te3 1.997955 1_555
O34 Te0 1.924295 1_555
O35 Te5 1.982870 1_555
