# generated using pymatgen
data_MnReN2
_symmetry_space_group_name_H-M   'P 1'
_cell_length_a   5.08805000
_cell_length_b   6.07242900
_cell_length_c   5.38841300
_cell_angle_alpha   90.00000000
_cell_angle_beta   90.00000000
_cell_angle_gamma   90.00000000
_symmetry_Int_Tables_number   1
_chemical_formula_structural   MnReN2
_chemical_formula_sum   'Mn4 Re4 N8'
_cell_volume   166.48483934
_cell_formula_units_Z   4
loop_
 _symmetry_equiv_pos_site_id
 _symmetry_equiv_pos_as_xyz
  1  'x, y, z'
loop_
 _atom_site_type_symbol
 _atom_site_label
 _atom_site_symmetry_multiplicity
 _atom_site_fract_x
 _atom_site_fract_y
 _atom_site_fract_z
 _atom_site_occupancy
  Mn  Mn0  1  0.57263700  0.88640200  0.94545400  1
  Mn  Mn1  1  0.42736300  0.11359800  0.44545400  1
  Mn  Mn2  1  0.92736300  0.38640200  0.44545400  1
  Mn  Mn3  1  0.07263700  0.61359800  0.94545400  1
  Re  Re0  1  0.61937500  0.32835200  0.05864300  1
  Re  Re1  1  0.38062500  0.67164800  0.55864300  1
  Re  Re2  1  0.88062500  0.82835200  0.55864300  1
  Re  Re3  1  0.11937500  0.17164800  0.05864300  1
  N  N0  1  0.58013000  0.86473300  0.30635700  1
  N  N1  1  0.41987000  0.13526700  0.80635700  1
  N  N2  1  0.91987000  0.36473300  0.80635700  1
  N  N3  1  0.08013000  0.63526700  0.30635700  1
  N  N4  1  0.55901300  0.41266700  0.41154800  1
  N  N5  1  0.44098700  0.58733300  0.91154800  1
  N  N6  1  0.94098700  0.91266700  0.91154800  1
  N  N7  1  0.05901300  0.08733300  0.41154800  1
loop_
_geom_bond_atom_site_label_1
_geom_bond_atom_site_label_2
_geom_bond_distance
_geom_bond_site_symmetry_2
Mn0 N1 1.857340 1_565
Mn0 N6 1.889809 1_555
Mn0 N5 1.944273 1_555
Mn0 N0 1.949514 1_556
Mn1 N0 1.857340 1_545
Mn1 N7 1.889809 1_555
Mn1 N4 1.944273 1_555
Mn1 N1 1.949514 1_555
Mn2 N3 1.857340 1_655
Mn2 N4 1.889809 1_555
Mn2 N7 1.944273 1_655
Mn2 N2 1.949514 1_555
Mn3 N2 1.857340 1_455
Mn3 N5 1.889809 1_555
Mn3 N6 1.944273 1_455
Mn3 N3 1.949514 1_556
N0 Re2 2.057783 1_555
N0 Re1 2.062324 1_555
N1 Re3 2.057783 1_556
N1 Re0 2.062324 1_556
N2 Re0 2.057783 1_556
N2 Re3 2.062324 1_656
N3 Re1 2.057783 1_555
N3 Re2 2.062324 1_455
N4 Re1 1.981227 1_555
N4 Re0 1.993123 1_555
N5 Re0 1.981227 1_556
N5 Re1 1.993123 1_555
N6 Re3 1.981227 1_666
N6 Re2 1.993123 1_555
N7 Re2 1.981227 1_445
N7 Re3 1.993123 1_555
