# generated using pymatgen
data_HfGeMo
_symmetry_space_group_name_H-M   'P 1'
_cell_length_a   3.52630986
_cell_length_b   6.97605618
_cell_length_c   8.30871440
_cell_angle_alpha   90.00000000
_cell_angle_beta   90.00000000
_cell_angle_gamma   90.00000000
_symmetry_Int_Tables_number   1
_chemical_formula_structural   HfGeMo
_chemical_formula_sum   'Hf4 Ge4 Mo4'
_cell_volume   204.39217818
_cell_formula_units_Z   4
loop_
 _symmetry_equiv_pos_site_id
 _symmetry_equiv_pos_as_xyz
  1  'x, y, z'
loop_
 _atom_site_type_symbol
 _atom_site_label
 _atom_site_symmetry_multiplicity
 _atom_site_fract_x
 _atom_site_fract_y
 _atom_site_fract_z
 _atom_site_occupancy
  Hf  Hf0  1  0.25000000  0.54895146  0.16651209  1
  Hf  Hf1  1  0.25000000  0.04895146  0.33348791  1
  Hf  Hf2  1  0.75000000  0.45104854  0.83348791  1
  Hf  Hf3  1  0.75000000  0.95104854  0.66651209  1
  Ge  Ge0  1  0.25000000  0.75169954  0.86148503  1
  Ge  Ge1  1  0.25000000  0.25169954  0.63851497  1
  Ge  Ge2  1  0.75000000  0.24830046  0.13851497  1
  Ge  Ge3  1  0.75000000  0.74830046  0.36148503  1
  Mo  Mo0  1  0.25000000  0.63181264  0.56206969  1
  Mo  Mo1  1  0.25000000  0.13181264  0.93793031  1
  Mo  Mo2  1  0.75000000  0.36818736  0.43793031  1
  Mo  Mo3  1  0.75000000  0.86818736  0.06206969  1
loop_
_geom_bond_atom_site_label_1
_geom_bond_atom_site_label_2
_geom_bond_distance
_geom_bond_site_symmetry_2
Hf0 Mo3 2.970071 1_555
Hf0 Mo3 2.970071 1_455
Hf0 Mo2 3.128023 1_455
Hf0 Mo2 3.128023 1_555
Hf1 Mo2 2.970071 1_555
Hf1 Mo2 2.970071 1_455
Hf1 Mo3 3.128023 1_545
Hf1 Mo3 3.128023 1_445
Hf2 Mo1 2.970071 1_555
Hf2 Mo1 2.970071 1_655
Hf2 Mo0 3.128023 1_655
Hf2 Mo0 3.128023 1_555
Hf3 Mo0 2.970071 1_655
Hf3 Mo0 2.970071 1_555
Hf3 Mo1 3.128023 1_665
Hf3 Mo1 3.128023 1_565
Ge0 Mo3 2.558639 1_456
Ge0 Mo3 2.558639 1_556
Ge0 Mo0 2.624575 1_555
Ge0 Mo1 2.726700 1_565
Ge0 Hf2 2.749862 1_555
Ge0 Hf2 2.749862 1_455
Ge0 Hf3 2.768934 1_455
Ge0 Hf3 2.768934 1_555
Ge0 Hf0 2.902339 1_556
Ge1 Mo2 2.558639 1_555
Ge1 Mo2 2.558639 1_455
Ge1 Mo1 2.624575 1_555
Ge1 Mo0 2.726700 1_555
Ge1 Hf3 2.749862 1_445
Ge1 Hf3 2.749862 1_545
Ge1 Hf2 2.768934 1_455
Ge1 Hf2 2.768934 1_555
Ge1 Hf1 2.902339 1_555
Ge2 Mo1 2.558639 1_654
Ge2 Mo1 2.558639 1_554
Ge2 Mo2 2.624575 1_555
Ge2 Mo3 2.726700 1_545
Ge2 Hf0 2.749862 1_555
Ge2 Hf0 2.749862 1_655
Ge2 Hf1 2.768934 1_655
Ge2 Hf1 2.768934 1_555
Ge2 Hf2 2.902339 1_554
Ge3 Mo0 2.558639 1_655
Ge3 Mo0 2.558639 1_555
Ge3 Mo3 2.624575 1_555
Ge3 Mo2 2.726700 1_555
Ge3 Hf1 2.749862 1_565
Ge3 Hf1 2.749862 1_665
Ge3 Hf0 2.768934 1_655
Ge3 Hf0 2.768934 1_555
Ge3 Hf3 2.902339 1_555
Mo0 Mo2 2.748589 1_555
Mo0 Mo2 2.748589 1_455
Mo1 Mo3 2.748589 1_446
Mo1 Mo3 2.748589 1_546
