# generated using pymatgen
data_Ti2AlC
_symmetry_space_group_name_H-M   'P 1'
_cell_length_a   6.11489670
_cell_length_b   6.11489680
_cell_length_c   27.37196038
_cell_angle_alpha   90.00000000
_cell_angle_beta   90.00000000
_cell_angle_gamma   120.00002139
_symmetry_Int_Tables_number   1
_chemical_formula_structural   Ti2AlC
_chemical_formula_sum   'Ti32 Al16 C16'
_cell_volume   886.36928380
_cell_formula_units_Z   16
loop_
 _symmetry_equiv_pos_site_id
 _symmetry_equiv_pos_as_xyz
  1  'x, y, z'
loop_
 _atom_site_type_symbol
 _atom_site_label
 _atom_site_symmetry_multiplicity
 _atom_site_fract_x
 _atom_site_fract_y
 _atom_site_fract_z
 _atom_site_occupancy
  Ti  Ti0_0  1  0.16666650  0.33333350  0.04200656  1
  Ti  Ti0_1  1  0.16666650  0.33333350  0.54200655  1
  Ti  Ti0_2  1  0.16666650  0.83333350  0.04200656  1
  Ti  Ti0_3  1  0.16666650  0.83333350  0.54200655  1
  Ti  Ti0_4  1  0.66666650  0.33333350  0.04200656  1
  Ti  Ti0_5  1  0.66666650  0.33333350  0.54200655  1
  Ti  Ti0_6  1  0.66666650  0.83333350  0.04200656  1
  Ti  Ti0_7  1  0.66666650  0.83333350  0.54200655  1
  Ti  Ti1_0  1  0.33333350  0.16666650  0.29200656  1
  Ti  Ti1_1  1  0.33333350  0.16666650  0.79200655  1
  Ti  Ti1_2  1  0.33333350  0.66666650  0.29200656  1
  Ti  Ti1_3  1  0.33333350  0.66666650  0.79200655  1
  Ti  Ti1_4  1  0.83333350  0.16666650  0.29200656  1
  Ti  Ti1_5  1  0.83333350  0.16666650  0.79200655  1
  Ti  Ti1_6  1  0.83333350  0.66666650  0.29200656  1
  Ti  Ti1_7  1  0.83333350  0.66666650  0.79200655  1
  Ti  Ti2_0  1  0.33333350  0.16666650  0.45799344  1
  Ti  Ti2_1  1  0.33333350  0.16666650  0.95799344  1
  Ti  Ti2_2  1  0.33333350  0.66666650  0.45799344  1
  Ti  Ti2_3  1  0.33333350  0.66666650  0.95799344  1
  Ti  Ti2_4  1  0.83333350  0.16666650  0.45799344  1
  Ti  Ti2_5  1  0.83333350  0.16666650  0.95799344  1
  Ti  Ti2_6  1  0.83333350  0.66666650  0.45799344  1
  Ti  Ti2_7  1  0.83333350  0.66666650  0.95799344  1
  Ti  Ti3_0  1  0.16666650  0.33333350  0.20799344  1
  Ti  Ti3_1  1  0.16666650  0.33333350  0.70799344  1
  Ti  Ti3_2  1  0.16666650  0.83333350  0.20799344  1
  Ti  Ti3_3  1  0.16666650  0.83333350  0.70799344  1
  Ti  Ti3_4  1  0.66666650  0.33333350  0.20799344  1
  Ti  Ti3_5  1  0.66666650  0.33333350  0.70799344  1
  Ti  Ti3_6  1  0.66666650  0.83333350  0.20799344  1
  Ti  Ti3_7  1  0.66666650  0.83333350  0.70799344  1
  Al  Al0_0  1  0.16666650  0.33333350  0.37500000  1
  Al  Al0_1  1  0.16666650  0.33333350  0.87500000  1
  Al  Al0_2  1  0.16666650  0.83333350  0.37500000  1
  Al  Al0_3  1  0.16666650  0.83333350  0.87500000  1
  Al  Al0_4  1  0.66666650  0.33333350  0.37500000  1
  Al  Al0_5  1  0.66666650  0.33333350  0.87500000  1
  Al  Al0_6  1  0.66666650  0.83333350  0.37500000  1
  Al  Al0_7  1  0.66666650  0.83333350  0.87500000  1
  Al  Al1_0  1  0.33333350  0.16666650  0.12500000  1
  Al  Al1_1  1  0.33333350  0.16666650  0.62500000  1
  Al  Al1_2  1  0.33333350  0.66666650  0.12500000  1
  Al  Al1_3  1  0.33333350  0.66666650  0.62500000  1
  Al  Al1_4  1  0.83333350  0.16666650  0.12500000  1
  Al  Al1_5  1  0.83333350  0.16666650  0.62500000  1
  Al  Al1_6  1  0.83333350  0.66666650  0.12500000  1
  Al  Al1_7  1  0.83333350  0.66666650  0.62500000  1
  C  C0_0  1  0.00000000  0.00000000  0.00000000  1
  C  C0_1  1  0.00000000  0.00000000  0.50000000  1
  C  C0_2  1  0.00000000  0.50000000  0.00000000  1
  C  C0_3  1  0.00000000  0.50000000  0.50000000  1
  C  C0_4  1  0.50000000  0.00000000  0.00000000  1
  C  C0_5  1  0.50000000  0.00000000  0.50000000  1
  C  C0_6  1  0.50000000  0.50000000  0.00000000  1
  C  C0_7  1  0.50000000  0.50000000  0.50000000  1
  C  C1_0  1  0.00000000  0.00000000  0.25000000  1
  C  C1_1  1  0.00000000  0.00000000  0.75000000  1
  C  C1_2  1  0.00000000  0.50000000  0.25000000  1
  C  C1_3  1  0.00000000  0.50000000  0.75000000  1
  C  C1_4  1  0.50000000  0.00000000  0.25000000  1
  C  C1_5  1  0.50000000  0.00000000  0.75000000  1
  C  C1_6  1  0.50000000  0.50000000  0.25000000  1
  C  C1_7  1  0.50000000  0.50000000  0.75000000  1
loop_
_geom_bond_atom_site_label_1
_geom_bond_atom_site_label_2
_geom_bond_distance
_geom_bond_site_symmetry_2
Al0_0 Ti1_4 2.876905 1_455
Al0_0 Ti2_4 2.876905 1_455
Al0_0 Ti1_2 2.876905 1_555
Al0_0 Ti2_2 2.876905 1_555
Al0_0 Ti1_0 2.876908 1_555
Al0_0 Ti2_0 2.876908 1_555
Al0_0 Al0_6 3.057447 1_445
Al0_0 Al0_6 3.057447 1_555
Al0_0 Al0_4 3.057448 1_455
Al0_0 Al0_4 3.057448 1_555
Al0_0 Al0_2 3.057448 1_555
Al0_0 Al0_2 3.057448 1_545
Al0_1 Ti2_5 2.876905 1_455
Al0_1 Ti1_5 2.876905 1_455
Al0_1 Ti2_3 2.876905 1_555
Al0_1 Ti1_3 2.876905 1_555
Al0_1 Ti2_1 2.876908 1_555
Al0_1 Ti1_1 2.876908 1_555
Al0_1 Al0_7 3.057447 1_555
Al0_1 Al0_7 3.057447 1_445
Al0_1 Al0_5 3.057448 1_455
Al0_1 Al0_5 3.057448 1_555
Al0_1 Al0_3 3.057448 1_555
Al0_1 Al0_3 3.057448 1_545
Al0_2 Ti1_6 2.876905 1_455
Al0_2 Ti2_6 2.876905 1_455
Al0_2 Ti1_0 2.876905 1_565
Al0_2 Ti2_0 2.876905 1_565
Al0_2 Ti1_2 2.876908 1_555
Al0_2 Ti2_2 2.876908 1_555
Al0_2 Al0_4 3.057447 1_455
Al0_2 Al0_4 3.057447 1_565
Al0_2 Al0_6 3.057448 1_455
Al0_2 Al0_6 3.057448 1_555
Al0_3 Ti2_7 2.876905 1_455
Al0_3 Ti1_7 2.876905 1_455
Al0_3 Ti2_1 2.876905 1_565
Al0_3 Ti1_1 2.876905 1_565
Al0_3 Ti2_3 2.876908 1_555
Al0_3 Ti1_3 2.876908 1_555
Al0_3 Al0_5 3.057447 1_455
Al0_3 Al0_5 3.057447 1_565
Al0_3 Al0_7 3.057448 1_455
Al0_3 Al0_7 3.057448 1_555
Al0_4 Ti1_0 2.876905 1_555
Al0_4 Ti2_0 2.876905 1_555
Al0_4 Ti1_6 2.876905 1_555
Al0_4 Ti2_6 2.876905 1_555
Al0_4 Ti1_4 2.876908 1_555
Al0_4 Ti2_4 2.876908 1_555
Al0_4 Al0_6 3.057448 1_555
Al0_4 Al0_6 3.057448 1_545
Al0_5 Ti2_1 2.876905 1_555
Al0_5 Ti1_1 2.876905 1_555
Al0_5 Ti2_7 2.876905 1_555
Al0_5 Ti1_7 2.876905 1_555
Al0_5 Ti2_5 2.876908 1_555
Al0_5 Ti1_5 2.876908 1_555
Al0_5 Al0_7 3.057448 1_555
Al0_5 Al0_7 3.057448 1_545
Al0_6 Ti1_2 2.876905 1_555
Al0_6 Ti2_2 2.876905 1_555
Al0_6 Ti1_4 2.876905 1_565
Al0_6 Ti2_4 2.876905 1_565
Al0_6 Ti1_6 2.876908 1_555
Al0_6 Ti2_6 2.876908 1_555
Al0_7 Ti2_3 2.876905 1_555
Al0_7 Ti1_3 2.876905 1_555
Al0_7 Ti2_5 2.876905 1_565
Al0_7 Ti1_5 2.876905 1_565
Al0_7 Ti2_7 2.876908 1_555
Al0_7 Ti1_7 2.876908 1_555
Al1_0 Ti0_4 2.876905 1_555
Al1_0 Ti3_4 2.876905 1_555
Al1_0 Ti3_2 2.876905 1_545
Al1_0 Ti0_2 2.876905 1_545
Al1_0 Ti3_0 2.876908 1_555
Al1_0 Ti0_0 2.876908 1_555
Al1_0 Al1_6 3.057447 1_445
Al1_0 Al1_6 3.057447 1_555
Al1_0 Al1_4 3.057448 1_455
Al1_0 Al1_4 3.057448 1_555
Al1_0 Al1_2 3.057448 1_545
Al1_0 Al1_2 3.057448 1_555
Al1_1 Ti3_5 2.876905 1_555
Al1_1 Ti0_5 2.876905 1_555
Al1_1 Ti3_3 2.876905 1_545
Al1_1 Ti0_3 2.876905 1_545
Al1_1 Ti3_1 2.876908 1_555
Al1_1 Ti0_1 2.876908 1_555
Al1_1 Al1_7 3.057447 1_445
Al1_1 Al1_7 3.057447 1_555
Al1_1 Al1_5 3.057448 1_555
Al1_1 Al1_5 3.057448 1_455
Al1_1 Al1_3 3.057448 1_545
Al1_1 Al1_3 3.057448 1_555
Al1_2 Ti0_6 2.876905 1_555
Al1_2 Ti3_6 2.876905 1_555
Al1_2 Ti3_0 2.876905 1_555
Al1_2 Ti0_0 2.876905 1_555
Al1_2 Ti3_2 2.876908 1_555
Al1_2 Ti0_2 2.876908 1_555
Al1_2 Al1_4 3.057447 1_455
Al1_2 Al1_4 3.057447 1_565
Al1_2 Al1_6 3.057448 1_455
Al1_2 Al1_6 3.057448 1_555
Al1_3 Ti3_7 2.876905 1_555
Al1_3 Ti0_7 2.876905 1_555
Al1_3 Ti3_1 2.876905 1_555
Al1_3 Ti0_1 2.876905 1_555
Al1_3 Ti3_3 2.876908 1_555
Al1_3 Ti0_3 2.876908 1_555
Al1_3 Al1_5 3.057447 1_455
Al1_3 Al1_5 3.057447 1_565
Al1_3 Al1_7 3.057448 1_455
Al1_3 Al1_7 3.057448 1_555
Al1_4 Ti0_0 2.876905 1_655
Al1_4 Ti3_0 2.876905 1_655
Al1_4 Ti0_6 2.876905 1_545
Al1_4 Ti3_6 2.876905 1_545
Al1_4 Ti0_4 2.876908 1_555
Al1_4 Ti3_4 2.876908 1_555
Al1_4 Al1_6 3.057448 1_545
Al1_4 Al1_6 3.057448 1_555
Al1_5 Ti3_1 2.876905 1_655
Al1_5 Ti0_1 2.876905 1_655
Al1_5 Ti3_7 2.876905 1_545
Al1_5 Ti0_7 2.876905 1_545
Al1_5 Ti3_5 2.876908 1_555
Al1_5 Ti0_5 2.876908 1_555
Al1_5 Al1_7 3.057448 1_545
Al1_5 Al1_7 3.057448 1_555
Al1_6 Ti0_2 2.876905 1_655
Al1_6 Ti3_2 2.876905 1_655
Al1_6 Ti0_4 2.876905 1_555
Al1_6 Ti3_4 2.876905 1_555
Al1_6 Ti3_6 2.876908 1_555
Al1_6 Ti0_6 2.876908 1_555
Al1_7 Ti3_3 2.876905 1_655
Al1_7 Ti0_3 2.876905 1_655
Al1_7 Ti3_5 2.876905 1_555
Al1_7 Ti0_5 2.876905 1_555
Al1_7 Ti3_7 2.876908 1_555
Al1_7 Ti0_7 2.876908 1_555
C0_0 Ti0_2 2.106665 1_545
C0_0 Ti2_5 2.106665 1_454
C0_0 Ti0_6 2.106666 1_445
C0_0 Ti2_1 2.106666 1_554
C0_0 Ti0_0 2.106666 1_555
C0_0 Ti2_7 2.106666 1_444
C0_1 Ti0_3 2.106665 1_545
C0_1 Ti2_4 2.106665 1_455
C0_1 Ti0_7 2.106666 1_445
C0_1 Ti2_0 2.106666 1_555
C0_1 Ti0_1 2.106666 1_555
C0_1 Ti2_6 2.106666 1_445
C0_2 Ti0_0 2.106665 1_555
C0_2 Ti2_7 2.106665 1_454
C0_2 Ti0_4 2.106666 1_455
C0_2 Ti2_3 2.106666 1_554
C0_2 Ti0_2 2.106666 1_555
C0_2 Ti2_5 2.106666 1_454
C0_3 Ti0_1 2.106665 1_555
C0_3 Ti2_6 2.106665 1_455
C0_3 Ti0_5 2.106666 1_455
C0_3 Ti2_2 2.106666 1_555
C0_3 Ti0_3 2.106666 1_555
C0_3 Ti2_4 2.106666 1_455
C0_4 Ti0_6 2.106665 1_545
C0_4 Ti2_1 2.106665 1_554
C0_4 Ti0_2 2.106666 1_545
C0_4 Ti2_5 2.106666 1_554
C0_4 Ti0_4 2.106666 1_555
C0_4 Ti2_3 2.106666 1_544
C0_5 Ti0_7 2.106665 1_545
C0_5 Ti2_0 2.106665 1_555
C0_5 Ti0_3 2.106666 1_545
C0_5 Ti2_4 2.106666 1_555
C0_5 Ti0_5 2.106666 1_555
C0_5 Ti2_2 2.106666 1_545
C0_6 Ti0_4 2.106665 1_555
C0_6 Ti2_3 2.106665 1_554
C0_6 Ti0_0 2.106666 1_555
C0_6 Ti2_7 2.106666 1_554
C0_6 Ti0_6 2.106666 1_555
C0_6 Ti2_1 2.106666 1_554
C0_7 Ti0_5 2.106665 1_555
C0_7 Ti2_2 2.106665 1_555
C0_7 Ti0_1 2.106666 1_555
C0_7 Ti2_6 2.106666 1_555
C0_7 Ti0_7 2.106666 1_555
C0_7 Ti2_0 2.106666 1_555
C1_0 Ti1_4 2.106665 1_455
C1_0 Ti3_2 2.106665 1_545
C1_0 Ti1_0 2.106666 1_555
C1_0 Ti3_6 2.106666 1_445
C1_0 Ti1_6 2.106666 1_445
C1_0 Ti3_0 2.106666 1_555
C1_1 Ti3_3 2.106665 1_545
C1_1 Ti1_5 2.106665 1_455
C1_1 Ti3_7 2.106666 1_445
C1_1 Ti1_1 2.106666 1_555
C1_1 Ti3_1 2.106666 1_555
C1_1 Ti1_7 2.106666 1_445
C1_2 Ti1_6 2.106665 1_455
C1_2 Ti3_0 2.106665 1_555
C1_2 Ti3_4 2.106666 1_455
C1_2 Ti1_2 2.106666 1_555
C1_2 Ti1_4 2.106666 1_455
C1_2 Ti3_2 2.106666 1_555
C1_3 Ti3_1 2.106665 1_555
C1_3 Ti1_7 2.106665 1_455
C1_3 Ti3_5 2.106666 1_455
C1_3 Ti1_3 2.106666 1_555
C1_3 Ti3_3 2.106666 1_555
C1_3 Ti1_5 2.106666 1_455
C1_4 Ti1_0 2.106665 1_555
C1_4 Ti3_6 2.106665 1_545
C1_4 Ti1_4 2.106666 1_555
C1_4 Ti3_2 2.106666 1_545
C1_4 Ti1_2 2.106666 1_545
C1_4 Ti3_4 2.106666 1_555
C1_5 Ti3_7 2.106665 1_545
C1_5 Ti1_1 2.106665 1_555
C1_5 Ti3_3 2.106666 1_545
C1_5 Ti1_5 2.106666 1_555
C1_5 Ti3_5 2.106666 1_555
C1_5 Ti1_3 2.106666 1_545
C1_6 Ti1_2 2.106665 1_555
C1_6 Ti3_4 2.106665 1_555
C1_6 Ti1_6 2.106666 1_555
C1_6 Ti3_0 2.106666 1_555
C1_6 Ti1_0 2.106666 1_555
C1_6 Ti3_6 2.106666 1_555
C1_7 Ti3_5 2.106665 1_555
C1_7 Ti1_3 2.106665 1_555
C1_7 Ti3_1 2.106666 1_555
C1_7 Ti1_7 2.106666 1_555
C1_7 Ti3_7 2.106666 1_555
C1_7 Ti1_1 2.106666 1_555
