# generated using pymatgen
data_CeAu2
_symmetry_space_group_name_H-M   'P 1'
_cell_length_a   5.96209337
_cell_length_b   5.96505204
_cell_length_c   5.96505204
_cell_angle_alpha   133.07291433
_cell_angle_beta   106.10531065
_cell_angle_gamma   92.28241465
_symmetry_Int_Tables_number   1
_chemical_formula_structural   CeAu2
_chemical_formula_sum   'Ce2 Au4'
_cell_volume   140.71612115
_cell_formula_units_Z   2
loop_
 _symmetry_equiv_pos_site_id
 _symmetry_equiv_pos_as_xyz
  1  'x, y, z'
loop_
 _atom_site_type_symbol
 _atom_site_label
 _atom_site_symmetry_multiplicity
 _atom_site_fract_x
 _atom_site_fract_y
 _atom_site_fract_z
 _atom_site_occupancy
  Ce  Ce0  1  0.74355740  0.49369935  0.24985805  1
  Ce  Ce1  1  0.25644260  0.50630065  0.75014195  1
  Au  Au0  1  0.84019427  0.83378538  0.00640989  1
  Au  Au1  1  0.15980573  0.16621462  0.99359011  1
  Au  Au2  1  0.67394148  0.16621112  0.50773035  1
  Au  Au3  1  0.32605852  0.83378888  0.49226965  1
loop_
_geom_bond_atom_site_label_1
_geom_bond_atom_site_label_2
_geom_bond_distance
_geom_bond_site_symmetry_2
Ce0 Ce1 3.584129 1_554
Ce0 Ce1 3.588074 1_655
Au0 Au1 2.748835 1_664
Au0 Au2 2.749345 1_565
Au0 Au2 2.749349 1_554
Au0 Ce1 3.270155 1_554
Au0 Ce1 3.274734 1_665
Au0 Ce1 3.274738 1_654
Au0 Ce0 3.282265 1_565
Au0 Ce0 3.282269 1_554
Au0 Ce0 3.309224 1_555
Au1 Au3 2.749345 1_545
Au1 Au3 2.749349 1_556
Au1 Ce0 3.270155 1_556
Au1 Ce0 3.274734 1_445
Au1 Ce0 3.274738 1_456
Au1 Ce1 3.282265 1_545
Au1 Ce1 3.282269 1_556
Au1 Ce1 3.309224 1_555
Au2 Au3 2.749347 1_545
Au2 Ce0 3.269502 1_545
Au2 Ce0 3.269502 1_556
Au2 Ce0 3.278473 1_555
Au2 Ce1 3.285543 1_544
Au2 Ce1 3.285543 1_555
Au2 Ce1 3.303573 1_655
Au3 Ce1 3.269502 1_565
Au3 Ce1 3.269502 1_554
Au3 Ce1 3.278473 1_555
Au3 Ce0 3.285543 1_566
Au3 Ce0 3.285543 1_555
Au3 Ce0 3.303573 1_455
