# generated using pymatgen
data_LaPu3
_symmetry_space_group_name_H-M   'P 1'
_cell_length_a   6.86686171
_cell_length_b   6.92831602
_cell_length_c   5.36624400
_cell_angle_alpha   90.00000000
_cell_angle_beta   90.00000000
_cell_angle_gamma   119.36409814
_symmetry_Int_Tables_number   1
_chemical_formula_structural   LaPu3
_chemical_formula_sum   'La2 Pu6'
_cell_volume   222.50223820
_cell_formula_units_Z   2
loop_
 _symmetry_equiv_pos_site_id
 _symmetry_equiv_pos_as_xyz
  1  'x, y, z'
loop_
 _atom_site_type_symbol
 _atom_site_label
 _atom_site_symmetry_multiplicity
 _atom_site_fract_x
 _atom_site_fract_y
 _atom_site_fract_z
 _atom_site_occupancy
  La  La0  1  0.32802500  0.65580200  0.75000100  1
  La  La1  1  0.66881200  0.32676100  0.25000000  1
  Pu  Pu0  1  0.17020100  0.34011100  0.25000000  1
  Pu  Pu1  1  0.68043700  0.84682300  0.25000000  1
  Pu  Pu2  1  0.15999600  0.87305200  0.25000000  1
  Pu  Pu3  1  0.83417200  0.65182500  0.75000100  1
  Pu  Pu4  1  0.31281400  0.15549200  0.75000100  1
  Pu  Pu5  1  0.84554100  0.15013300  0.75000100  1
loop_
_geom_bond_atom_site_label_1
_geom_bond_atom_site_label_2
_geom_bond_distance
_geom_bond_site_symmetry_2
La0 Pu0 3.291326 1_556
La0 Pu0 3.291335 1_555
La0 Pu3 3.377794 1_455
La0 Pu1 3.415542 1_556
La0 Pu1 3.415550 1_555
La0 Pu4 3.416300 1_555
La0 Pu5 3.444918 1_455
La0 Pu3 3.489235 1_555
La0 Pu4 3.514408 1_565
La0 Pu5 3.524535 1_565
La0 Pu2 3.535425 1_556
La0 Pu2 3.535433 1_555
La1 Pu3 3.324551 1_554
La1 Pu3 3.324560 1_555
La1 Pu2 3.364187 1_545
La1 Pu1 3.365025 1_545
La1 Pu0 3.398570 1_655
La1 Pu5 3.409671 1_554
La1 Pu5 3.409679 1_555
La1 Pu4 3.426126 1_554
La1 Pu4 3.426134 1_555
La1 Pu0 3.470184 1_555
La1 Pu1 3.564689 1_555
La1 Pu2 3.630689 1_655
Pu0 Pu2 3.202152 1_545
Pu0 Pu4 3.320047 1_554
Pu0 Pu4 3.320056 1_555
Pu0 Pu5 3.320236 1_454
Pu0 Pu5 3.320245 1_455
Pu0 Pu1 3.423257 1_445
Pu0 Pu1 3.540851 1_555
Pu0 Pu2 3.727247 1_555
Pu1 Pu2 3.207868 1_655
Pu1 Pu5 3.250223 1_564
Pu1 Pu5 3.250232 1_565
Pu1 Pu3 3.396692 1_554
Pu1 Pu3 3.396700 1_555
Pu1 Pu2 3.666328 1_555
Pu2 Pu4 3.180511 1_564
Pu2 Pu4 3.180520 1_565
Pu2 Pu3 3.345311 1_454
Pu2 Pu3 3.345319 1_455
Pu3 Pu5 3.414831 1_565
Pu3 Pu4 3.425156 1_665
Pu3 Pu5 3.514821 1_555
Pu3 Pu4 3.545200 1_555
Pu4 Pu5 3.190657 1_455
Pu4 Pu5 3.676511 1_555
