# generated using pymatgen
data_LaYMg6
_symmetry_space_group_name_H-M   'P 1'
_cell_length_a   6.69629799
_cell_length_b   6.69629799
_cell_length_c   5.23569800
_cell_angle_alpha   90.00000000
_cell_angle_beta   90.00000000
_cell_angle_gamma   116.73277632
_symmetry_Int_Tables_number   1
_chemical_formula_structural   LaYMg6
_chemical_formula_sum   'La1 Y1 Mg6'
_cell_volume   209.67716170
_cell_formula_units_Z   1
loop_
 _symmetry_equiv_pos_site_id
 _symmetry_equiv_pos_as_xyz
  1  'x, y, z'
loop_
 _atom_site_type_symbol
 _atom_site_label
 _atom_site_symmetry_multiplicity
 _atom_site_fract_x
 _atom_site_fract_y
 _atom_site_fract_z
 _atom_site_occupancy
  La  La0  1  0.59943900  0.40056100  0.50000000  1
  Y  Y0  1  0.90195700  0.09804300  0.00000000  1
  Mg  Mg0  1  0.93477500  0.61501600  0.00000000  1
  Mg  Mg1  1  0.38498400  0.06522500  0.00000000  1
  Mg  Mg2  1  0.41385600  0.58614400  0.00000000  1
  Mg  Mg3  1  0.57022600  0.88675400  0.50000000  1
  Mg  Mg4  1  0.11324600  0.42977400  0.50000000  1
  Mg  Mg5  1  0.08151800  0.91848200  0.50000000  1
loop_
_geom_bond_atom_site_label_1
_geom_bond_atom_site_label_2
_geom_bond_distance
_geom_bond_site_symmetry_2
La0 Mg0 3.325145 1_555
La0 Mg0 3.325145 1_556
La0 Mg1 3.325145 1_555
La0 Mg1 3.325145 1_556
La0 Mg3 3.348250 1_555
La0 Mg4 3.348250 1_555
La0 Mg4 3.357159 1_655
La0 Mg3 3.357159 1_545
La0 Mg2 3.366189 1_555
La0 Mg2 3.366189 1_556
La0 Mg5 3.518051 1_655
La0 Mg5 3.518051 1_545
Mg0 Mg1 3.162368 1_665
Mg0 Mg5 3.186170 1_654
Mg0 Mg5 3.186170 1_655
Mg0 Mg2 3.299558 1_655
Mg0 Y0 3.339120 1_565
Mg0 Mg4 3.339724 1_654
Mg0 Mg4 3.339724 1_655
Mg0 Y0 3.368674 1_555
Mg0 Mg2 3.405641 1_555
Mg1 Mg5 3.186170 1_545
Mg1 Mg5 3.186170 1_544
Mg1 Mg2 3.299558 1_545
Mg1 Y0 3.339120 1_455
Mg1 Mg3 3.339724 1_545
Mg1 Mg3 3.339724 1_544
Mg1 Y0 3.368674 1_555
Mg1 Mg2 3.405641 1_555
Mg2 Mg3 3.178888 1_554
Mg2 Mg3 3.178888 1_555
Mg2 Mg4 3.178888 1_555
Mg2 Mg4 3.178888 1_554
Mg2 Y0 3.514731 1_565
Mg2 Y0 3.514731 1_455
Mg3 Mg4 3.209929 1_555
Mg3 Y0 3.310872 1_566
Mg3 Y0 3.310872 1_565
Mg3 Mg5 3.333597 1_655
Mg3 Mg5 3.373446 1_555
Mg4 Y0 3.310872 1_456
Mg4 Y0 3.310872 1_455
Mg4 Mg5 3.333597 1_545
Mg4 Mg5 3.373446 1_555
Mg5 Y0 3.323450 1_466
Mg5 Y0 3.323450 1_465
