# generated using pymatgen
data_Er2As7Rh12
_symmetry_space_group_name_H-M   'P 1'
_cell_length_a   9.99584551
_cell_length_b   9.99584551
_cell_length_c   3.91424900
_cell_angle_alpha   90.00000000
_cell_angle_beta   90.00000000
_cell_angle_gamma   119.99999674
_symmetry_Int_Tables_number   1
_chemical_formula_structural   Er2As7Rh12
_chemical_formula_sum   'Er2 As7 Rh12'
_cell_volume   338.70231550
_cell_formula_units_Z   1
loop_
 _symmetry_equiv_pos_site_id
 _symmetry_equiv_pos_as_xyz
  1  'x, y, z'
loop_
 _atom_site_type_symbol
 _atom_site_label
 _atom_site_symmetry_multiplicity
 _atom_site_fract_x
 _atom_site_fract_y
 _atom_site_fract_z
 _atom_site_occupancy
  Er  Er0  1  0.66666700  0.33333300  0.74929900  1
  Er  Er1  1  0.33333300  0.66666700  0.24999800  1
  As  As0  1  0.00000000  0.00000000  0.58939900  1
  As  As1  1  0.28699600  0.88039400  0.75116600  1
  As  As2  1  0.11960600  0.40660200  0.75116600  1
  As  As3  1  0.59339800  0.71300400  0.75116600  1
  As  As4  1  0.71160000  0.11655900  0.24910200  1
  As  As5  1  0.88344100  0.59504100  0.24910200  1
  As  As6  1  0.40495900  0.28840000  0.24910200  1
  Rh  Rh0  1  0.06781000  0.61842300  0.75173900  1
  Rh  Rh1  1  0.38157700  0.44938700  0.75173900  1
  Rh  Rh2  1  0.55061300  0.93219000  0.75173900  1
  Rh  Rh3  1  0.93147600  0.38117200  0.25050600  1
  Rh  Rh4  1  0.61882800  0.55030400  0.25050600  1
  Rh  Rh5  1  0.44969600  0.06852400  0.25050600  1
  Rh  Rh6  1  0.26939100  0.11634400  0.75202900  1
  Rh  Rh7  1  0.88365600  0.15304800  0.75202900  1
  Rh  Rh8  1  0.84695200  0.73060900  0.75202900  1
  Rh  Rh9  1  0.73961100  0.88554400  0.25043400  1
  Rh  Rh10  1  0.11445600  0.85406800  0.25043400  1
  Rh  Rh11  1  0.14593200  0.26038900  0.25043400  1
loop_
_geom_bond_atom_site_label_1
_geom_bond_atom_site_label_2
_geom_bond_distance
_geom_bond_site_symmetry_2
Er0 Rh3 3.127510 1_555
Er0 Rh5 3.127513 1_555
Er0 Rh4 3.127518 1_555
Er0 Rh3 3.133418 1_556
Er0 Rh5 3.133420 1_556
Er0 Rh4 3.133425 1_556
Er1 Rh0 3.130611 1_554
Er1 Rh2 3.130614 1_554
Er1 Rh1 3.130619 1_554
Er1 Rh0 3.139120 1_555
Er1 Rh2 3.139123 1_555
Er1 Rh1 3.139128 1_555
As0 Rh6 2.424298 1_555
As0 Rh8 2.424298 1_445
As0 Rh7 2.424306 1_455
As0 Rh10 2.620314 1_545
As0 Rh11 2.620322 1_555
As0 Rh9 2.620322 1_445
As1 Rh2 2.418137 1_555
As1 Rh0 2.433141 1_555
As1 Rh6 2.451253 1_565
As1 Rh10 2.531612 1_556
As1 Rh10 2.536038 1_555
As1 Rh5 2.634991 1_566
As1 Rh5 2.638826 1_565
As1 Er1 3.095262 1_556
As1 Er1 3.101038 1_555
As2 Rh0 2.418137 1_555
As2 Rh1 2.433141 1_555
As2 Rh7 2.451247 1_455
As2 Rh11 2.531605 1_556
As2 Rh11 2.536032 1_555
As2 Rh3 2.634991 1_456
As2 Rh3 2.638826 1_455
As2 Er1 3.095267 1_556
As2 Er1 3.101043 1_555
As3 Rh1 2.418137 1_555
As3 Rh2 2.433141 1_555
As3 Rh8 2.451243 1_555
As3 Rh9 2.531609 1_556
As3 Rh9 2.536036 1_555
As3 Rh4 2.634991 1_556
As3 Rh4 2.638826 1_555
As3 Er1 3.095270 1_556
As3 Er1 3.101046 1_555
As4 Rh5 2.413967 1_555
As4 Rh3 2.452219 1_555
As4 Rh9 2.461167 1_545
As4 Rh7 2.499846 1_554
As4 Rh7 2.517721 1_555
As4 Rh2 2.609656 1_544
As4 Rh2 2.625092 1_545
As4 Er0 3.114075 1_554
As4 Er0 3.115044 1_555
As5 Rh3 2.413967 1_555
As5 Rh4 2.452218 1_555
As5 Rh10 2.461173 1_655
As5 Rh8 2.499852 1_554
As5 Rh8 2.517728 1_555
As5 Rh0 2.609656 1_654
As5 Rh0 2.625092 1_655
As5 Er0 3.114080 1_554
As5 Er0 3.115049 1_555
As6 Rh4 2.413967 1_555
As6 Rh5 2.452218 1_555
As6 Rh11 2.461177 1_555
As6 Rh6 2.499848 1_554
As6 Rh6 2.517723 1_555
As6 Rh1 2.609656 1_554
As6 Rh1 2.625092 1_555
As6 Er0 3.114083 1_554
As6 Er0 3.115052 1_555
