# generated using pymatgen
data_CrGa3(CoSe4)2
_symmetry_space_group_name_H-M   'P 1'
_cell_length_a   3.77643100
_cell_length_b   6.59350655
_cell_length_c   13.09007965
_cell_angle_alpha   85.41585757
_cell_angle_beta   81.70627746
_cell_angle_gamma   90.00000000
_symmetry_Int_Tables_number   1
_chemical_formula_structural   CrGa3(CoSe4)2
_chemical_formula_sum   'Cr1 Ga3 Co2 Se8'
_cell_volume   321.47940523
_cell_formula_units_Z   1
loop_
 _symmetry_equiv_pos_site_id
 _symmetry_equiv_pos_as_xyz
  1  'x, y, z'
loop_
 _atom_site_type_symbol
 _atom_site_label
 _atom_site_symmetry_multiplicity
 _atom_site_fract_x
 _atom_site_fract_y
 _atom_site_fract_z
 _atom_site_occupancy
  Cr  Cr0  1  0.35308800  0.11490400  0.29382300  1
  Ga  Ga0  1  0.00312700  0.00394500  0.99374600  1
  Ga  Ga1  1  0.50330000  0.49821900  0.99340000  1
  Ga  Ga2  1  0.85152300  0.61846900  0.29695500  1
  Co  Co0  1  0.64727100  0.87962100  0.70545800  1
  Co  Co1  1  0.14725800  0.38415100  0.70548500  1
  Se  Se0  1  0.31009500  0.43666900  0.37981000  1
  Se  Se1  1  0.81066600  0.93842100  0.37866800  1
  Se  Se2  1  0.17679400  0.06236200  0.64641200  1
  Se  Se3  1  0.67681700  0.55822800  0.64636500  1
  Se  Se4  1  0.44677200  0.14956400  0.10645600  1
  Se  Se5  1  0.94628800  0.64883900  0.10742400  1
  Se  Se6  1  0.05811200  0.35226900  0.88377600  1
  Se  Se7  1  0.55689000  0.85034000  0.88622000  1
loop_
_geom_bond_atom_site_label_1
_geom_bond_atom_site_label_2
_geom_bond_distance
_geom_bond_site_symmetry_2
Cr0 Se4 2.419287 1_555
Cr0 Se1 2.433241 1_445
Cr0 Se1 2.433244 1_545
Cr0 Se0 2.474527 1_555
Ga0 Se7 2.599785 1_445
Ga0 Se7 2.599785 1_545
Ga0 Se6 2.602949 1_555
Ga0 Se4 2.616318 1_556
Ga0 Se4 2.616318 1_456
Ga0 Se5 2.663350 1_446
Ga1 Se6 2.593935 1_555
Ga1 Se6 2.593935 1_655
Ga1 Se7 2.607127 1_555
Ga1 Se4 2.624025 1_556
Ga1 Se5 2.640080 1_556
Ga1 Se5 2.640080 1_456
Ga2 Se1 2.435453 1_555
Ga2 Se0 2.438494 1_655
Ga2 Se0 2.438497 1_555
Ga2 Se5 2.447009 1_555
Co0 Se3 2.310527 1_555
Co0 Se7 2.333796 1_555
Co0 Se2 2.335221 1_565
Co0 Se2 2.335221 1_665
Co1 Se6 2.302012 1_555
Co1 Se3 2.308071 1_555
Co1 Se3 2.308077 1_455
Co1 Se2 2.312887 1_555
