# generated using pymatgen
data_Cs2Th2P2Se13
_symmetry_space_group_name_H-M   'P 1'
_cell_length_a   12.24185287
_cell_length_b   14.82961772
_cell_length_c   27.56722315
_cell_angle_alpha   90.00000000
_cell_angle_beta   90.00000000
_cell_angle_gamma   90.00000000
_symmetry_Int_Tables_number   1
_chemical_formula_structural   Cs2Th2P2Se13
_chemical_formula_sum   'Cs16 Th16 P16 Se104'
_cell_volume   5004.60877676
_cell_formula_units_Z   8
loop_
 _symmetry_equiv_pos_site_id
 _symmetry_equiv_pos_as_xyz
  1  'x, y, z'
loop_
 _atom_site_type_symbol
 _atom_site_label
 _atom_site_symmetry_multiplicity
 _atom_site_fract_x
 _atom_site_fract_y
 _atom_site_fract_z
 _atom_site_occupancy
  Cs  Cs0  1  0.28798208  0.02262009  0.55792329  1
  Cs  Cs1  1  0.78798208  0.47737991  0.44207671  1
  Cs  Cs2  1  0.71201792  0.52262009  0.94207671  1
  Cs  Cs3  1  0.21201792  0.97737991  0.05792329  1
  Cs  Cs4  1  0.71201792  0.97737991  0.44207671  1
  Cs  Cs5  1  0.21201792  0.52262009  0.55792329  1
  Cs  Cs6  1  0.28798208  0.47737991  0.05792329  1
  Cs  Cs7  1  0.78798208  0.02262009  0.94207671  1
  Cs  Cs8  1  0.69855001  0.28984091  0.81225148  1
  Cs  Cs9  1  0.19855001  0.21015909  0.18774852  1
  Cs  Cs10  1  0.30144999  0.78984091  0.68774852  1
  Cs  Cs11  1  0.80144999  0.71015909  0.31225148  1
  Cs  Cs12  1  0.30144999  0.71015909  0.18774852  1
  Cs  Cs13  1  0.80144999  0.78984091  0.81225148  1
  Cs  Cs14  1  0.69855001  0.21015909  0.31225148  1
  Cs  Cs15  1  0.19855001  0.28984091  0.68774852  1
  Th  Th0  1  0.28618928  0.01929425  0.82922076  1
  Th  Th1  1  0.78618928  0.48070575  0.17077924  1
  Th  Th2  1  0.71381072  0.51929425  0.67077924  1
  Th  Th3  1  0.21381072  0.98070575  0.32922076  1
  Th  Th4  1  0.71381072  0.98070575  0.17077924  1
  Th  Th5  1  0.21381072  0.51929425  0.82922076  1
  Th  Th6  1  0.28618928  0.48070575  0.32922076  1
  Th  Th7  1  0.78618928  0.01929425  0.67077924  1
  Th  Th8  1  0.28458453  0.24816267  0.91967715  1
  Th  Th9  1  0.78458453  0.25183733  0.08032285  1
  Th  Th10  1  0.71541547  0.74816267  0.58032285  1
  Th  Th11  1  0.21541547  0.75183733  0.41967715  1
  Th  Th12  1  0.71541547  0.75183733  0.08032285  1
  Th  Th13  1  0.21541547  0.74816267  0.91967715  1
  Th  Th14  1  0.28458453  0.25183733  0.41967715  1
  Th  Th15  1  0.78458453  0.24816267  0.58032285  1
  P  P0  1  0.04428467  0.01850214  0.74247192  1
  P  P1  1  0.54428467  0.48149786  0.25752808  1
  P  P2  1  0.95571533  0.51850214  0.75752808  1
  P  P3  1  0.45571533  0.98149786  0.24247192  1
  P  P4  1  0.95571533  0.98149786  0.25752808  1
  P  P5  1  0.45571533  0.51850214  0.74247192  1
  P  P6  1  0.04428467  0.48149786  0.24247192  1
  P  P7  1  0.54428467  0.01850214  0.75752808  1
  P  P8  1  0.55022984  0.25935917  0.98878916  1
  P  P9  1  0.05022984  0.24064083  0.01121084  1
  P  P10  1  0.44977016  0.75935917  0.51121084  1
  P  P11  1  0.94977016  0.74064083  0.48878916  1
  P  P12  1  0.44977016  0.74064083  0.01121084  1
  P  P13  1  0.94977016  0.75935917  0.98878916  1
  P  P14  1  0.55022984  0.24064083  0.48878916  1
  P  P15  1  0.05022984  0.25935917  0.51121084  1
  Se  Se0  1  0.46161249  0.12934544  0.96931031  1
  Se  Se1  1  0.96161249  0.37065456  0.03068969  1
  Se  Se2  1  0.53838751  0.62934544  0.53068969  1
  Se  Se3  1  0.03838751  0.87065456  0.46931031  1
  Se  Se4  1  0.53838751  0.87065456  0.03068969  1
  Se  Se5  1  0.03838751  0.62934544  0.96931031  1
  Se  Se6  1  0.46161249  0.37065456  0.46931031  1
  Se  Se7  1  0.96161249  0.12934544  0.53068969  1
  Se  Se8  1  0.45038149  0.14476745  0.77800203  1
  Se  Se9  1  0.95038149  0.35523255  0.22199797  1
  Se  Se10  1  0.54961851  0.64476745  0.72199797  1
  Se  Se11  1  0.04961851  0.85523255  0.27800203  1
  Se  Se12  1  0.54961851  0.85523255  0.22199797  1
  Se  Se13  1  0.04961851  0.64476745  0.77800203  1
  Se  Se14  1  0.45038149  0.35523255  0.27800203  1
  Se  Se15  1  0.95038149  0.14476745  0.72199797  1
  Se  Se16  1  0.18545669  0.21427718  0.82357436  1
  Se  Se17  1  0.68545669  0.28572282  0.17642564  1
  Se  Se18  1  0.81454331  0.71427718  0.67642564  1
  Se  Se19  1  0.31454331  0.78572282  0.32357436  1
  Se  Se20  1  0.81454331  0.78572282  0.17642564  1
  Se  Se21  1  0.31454331  0.71427718  0.82357436  1
  Se  Se22  1  0.18545669  0.28572282  0.32357436  1
  Se  Se23  1  0.68545669  0.21427718  0.67642564  1
  Se  Se24  1  0.17553714  0.83283750  0.82127035  1
  Se  Se25  1  0.67553714  0.66716250  0.17872965  1
  Se  Se26  1  0.82446286  0.33283750  0.67872965  1
  Se  Se27  1  0.32446286  0.16716250  0.32127035  1
  Se  Se28  1  0.82446286  0.16716250  0.17872965  1
  Se  Se29  1  0.32446286  0.33283750  0.82127035  1
  Se  Se30  1  0.17553714  0.66716250  0.32127035  1
  Se  Se31  1  0.67553714  0.83283750  0.67872965  1
  Se  Se32  1  0.19527442  0.05038696  0.92795920  1
  Se  Se33  1  0.69527442  0.44961304  0.07204080  1
  Se  Se34  1  0.80472558  0.55038696  0.57204080  1
  Se  Se35  1  0.30472558  0.94961304  0.42795920  1
  Se  Se36  1  0.80472558  0.94961304  0.07204080  1
  Se  Se37  1  0.30472558  0.55038696  0.92795920  1
  Se  Se38  1  0.19527442  0.44961304  0.42795920  1
  Se  Se39  1  0.69527442  0.05038696  0.57204080  1
  Se  Se40  1  0.33452430  0.93233732  0.92618926  1
  Se  Se41  1  0.83452430  0.56766268  0.07381074  1
  Se  Se42  1  0.66547570  0.43233732  0.57381074  1
  Se  Se43  1  0.16547570  0.06766268  0.42618926  1
  Se  Se44  1  0.66547570  0.06766268  0.07381074  1
  Se  Se45  1  0.16547570  0.43233732  0.92618926  1
  Se  Se46  1  0.33452430  0.56766268  0.42618926  1
  Se  Se47  1  0.83452430  0.93233732  0.57381074  1
  Se  Se48  1  0.46984857  0.13628903  0.87380290  1
  Se  Se49  1  0.96984857  0.36371097  0.12619710  1
  Se  Se50  1  0.53015143  0.63628903  0.62619710  1
  Se  Se51  1  0.03015143  0.86371097  0.37380290  1
  Se  Se52  1  0.53015143  0.86371097  0.12619710  1
  Se  Se53  1  0.03015143  0.63628903  0.87380290  1
  Se  Se54  1  0.46984857  0.36371097  0.37380290  1
  Se  Se55  1  0.96984857  0.13628903  0.62619710  1
  Se  Se56  1  0.21845392  0.03075160  0.72073580  1
  Se  Se57  1  0.71845392  0.46924840  0.27926420  1
  Se  Se58  1  0.78154608  0.53075160  0.77926420  1
  Se  Se59  1  0.28154608  0.96924840  0.22073580  1
  Se  Se60  1  0.78154608  0.96924840  0.27926420  1
  Se  Se61  1  0.28154608  0.53075160  0.72073580  1
  Se  Se62  1  0.21845392  0.46924840  0.22073580  1
  Se  Se63  1  0.71845392  0.03075160  0.77926420  1
  Se  Se64  1  0.46551607  0.89895142  0.79121929  1
  Se  Se65  1  0.96551607  0.60104858  0.20878071  1
  Se  Se66  1  0.53448393  0.39895142  0.70878071  1
  Se  Se67  1  0.03448393  0.10104858  0.29121929  1
  Se  Se68  1  0.53448393  0.10104858  0.20878071  1
  Se  Se69  1  0.03448393  0.39895142  0.79121929  1
  Se  Se70  1  0.46551607  0.60104858  0.29121929  1
  Se  Se71  1  0.96551607  0.89895142  0.70878071  1
  Se  Se72  1  0.03816344  0.23015938  0.93019558  1
  Se  Se73  1  0.53816344  0.26984062  0.06980442  1
  Se  Se74  1  0.96183656  0.73015938  0.56980442  1
  Se  Se75  1  0.46183656  0.76984062  0.43019558  1
  Se  Se76  1  0.96183656  0.76984062  0.06980442  1
  Se  Se77  1  0.46183656  0.73015938  0.93019558  1
  Se  Se78  1  0.03816344  0.26984062  0.43019558  1
  Se  Se79  1  0.53816344  0.23015938  0.56980442  1
  Se  Se80  1  0.22680790  0.24116241  0.03034633  1
  Se  Se81  1  0.72680790  0.25883759  0.96965367  1
  Se  Se82  1  0.77319210  0.74116241  0.46965367  1
  Se  Se83  1  0.27319210  0.75883759  0.53034633  1
  Se  Se84  1  0.77319210  0.75883759  0.96965367  1
  Se  Se85  1  0.27319210  0.74116241  0.03034633  1
  Se  Se86  1  0.22680790  0.25883759  0.53034633  1
  Se  Se87  1  0.72680790  0.24116241  0.46965367  1
  Se  Se88  1  0.03854951  0.01731401  0.82377250  1
  Se  Se89  1  0.53854951  0.48268599  0.17622750  1
  Se  Se90  1  0.96145049  0.51731401  0.67622750  1
  Se  Se91  1  0.46145049  0.98268599  0.32377250  1
  Se  Se92  1  0.96145049  0.98268599  0.17622750  1
  Se  Se93  1  0.46145049  0.51731401  0.82377250  1
  Se  Se94  1  0.03854951  0.48268599  0.32377250  1
  Se  Se95  1  0.53854951  0.01731401  0.67622750  1
  Se  Se96  1  0.46630740  0.37226082  0.95129545  1
  Se  Se97  1  0.96630740  0.12773918  0.04870455  1
  Se  Se98  1  0.53369260  0.87226082  0.54870455  1
  Se  Se99  1  0.03369260  0.62773918  0.45129545  1
  Se  Se100  1  0.53369260  0.62773918  0.04870455  1
  Se  Se101  1  0.03369260  0.87226082  0.95129545  1
  Se  Se102  1  0.46630740  0.12773918  0.45129545  1
  Se  Se103  1  0.96630740  0.37226082  0.54870455  1
loop_
_geom_bond_atom_site_label_1
_geom_bond_atom_site_label_2
_geom_bond_distance
_geom_bond_site_symmetry_2
Cs0 Se86 3.661950 1_555
Cs0 Se35 3.748369 1_545
Cs0 Se98 3.752897 1_545
Cs0 Se102 3.979446 1_555
Cs0 Se43 3.985396 1_555
Cs0 Se83 3.989091 1_545
Cs1 Se87 3.661950 1_555
Cs1 Se34 3.748369 1_555
Cs1 Se99 3.752897 1_655
Cs1 Se103 3.979446 1_555
Cs1 Se42 3.985396 1_555
Cs1 Se82 3.989091 1_555
Cs2 Se84 3.661950 1_555
Cs2 Se33 3.748369 1_556
Cs2 Se96 3.752897 1_555
Cs2 Se100 3.979446 1_556
Cs2 Se41 3.985396 1_556
Cs2 Se81 3.989091 1_555
Cs3 Se85 3.661950 1_555
Cs3 Se32 3.748369 1_564
Cs3 Se97 3.752897 1_465
Cs3 Se101 3.979446 1_554
Cs3 Se40 3.985396 1_554
Cs3 Se80 3.989091 1_565
Cs4 Se82 3.661950 1_555
Cs4 Se39 3.748369 1_565
Cs4 Se102 3.752897 1_565
Cs4 Se98 3.979446 1_555
Cs4 Se47 3.985396 1_555
Cs4 Se87 3.989091 1_565
Cs5 Se83 3.661950 1_555
Cs5 Se38 3.748369 1_555
Cs5 Se103 3.752897 1_455
Cs5 Se99 3.979446 1_555
Cs5 Se46 3.985396 1_555
Cs5 Se86 3.989091 1_555
Cs6 Se80 3.661950 1_555
Cs6 Se37 3.748369 1_554
Cs6 Se100 3.752897 1_555
Cs6 Se96 3.979446 1_554
Cs6 Se45 3.985396 1_554
Cs6 Se85 3.989091 1_555
Cs7 Se81 3.661950 1_555
Cs7 Se36 3.748369 1_546
Cs7 Se101 3.752897 1_645
Cs7 Se97 3.979446 1_556
Cs7 Se44 3.985396 1_556
Cs7 Se84 3.989091 1_545
Cs8 Se58 3.823980 1_555
Cs8 Se8 3.840520 1_555
Cs8 Se66 3.845556 1_555
Cs8 Se23 3.911711 1_555
Cs8 Se63 3.955855 1_555
Cs8 Se48 3.987841 1_555
Cs8 Se26 4.041160 1_555
Cs8 Se81 4.377122 1_555
Cs9 Se59 3.823980 1_545
Cs9 Se9 3.840520 1_455
Cs9 Se67 3.845556 1_555
Cs9 Se22 3.911711 1_555
Cs9 Se62 3.955855 1_555
Cs9 Se49 3.987841 1_455
Cs9 Se27 4.041160 1_555
Cs9 Se80 4.377122 1_555
Cs10 Se56 3.823980 1_565
Cs10 Se10 3.840520 1_555
Cs10 Se64 3.845556 1_555
Cs10 Se21 3.911711 1_555
Cs10 Se61 3.955855 1_555
Cs10 Se50 3.987841 1_555
Cs10 Se24 4.041160 1_555
Cs10 Se83 4.377122 1_555
Cs11 Se57 3.823980 1_555
Cs11 Se11 3.840520 1_655
Cs11 Se65 3.845556 1_555
Cs11 Se20 3.911711 1_555
Cs11 Se60 3.955855 1_555
Cs11 Se51 3.987841 1_655
Cs11 Se25 4.041160 1_555
Cs11 Se82 4.377122 1_555
Cs12 Se62 3.823980 1_555
Cs12 Se12 3.840520 1_555
Cs12 Se70 3.845556 1_555
Cs12 Se19 3.911711 1_555
Cs12 Se59 3.955855 1_555
Cs12 Se52 3.987841 1_555
Cs12 Se30 4.041160 1_555
Cs12 Se85 4.377122 1_555
Cs13 Se63 3.823980 1_565
Cs13 Se13 3.840520 1_655
Cs13 Se71 3.845556 1_555
Cs13 Se18 3.911711 1_555
Cs13 Se58 3.955855 1_555
Cs13 Se53 3.987841 1_655
Cs13 Se31 4.041160 1_555
Cs13 Se84 4.377122 1_555
Cs14 Se60 3.823980 1_545
Cs14 Se14 3.840520 1_555
Cs14 Se68 3.845556 1_555
Cs14 Se17 3.911711 1_555
Cs14 Se57 3.955855 1_555
Cs14 Se54 3.987841 1_555
Cs14 Se28 4.041160 1_555
Cs14 Se87 4.377122 1_555
Cs15 Se61 3.823980 1_555
Cs15 Se15 3.840520 1_455
Cs15 Se69 3.845556 1_555
Cs15 Se16 3.911711 1_555
Cs15 Se56 3.955855 1_555
Cs15 Se55 3.987841 1_455
Cs15 Se29 4.041160 1_555
Cs15 Se86 4.377122 1_555
P0 Se71 2.221618 1_445
P0 Se56 2.222190 1_555
P0 Se88 2.242400 1_555
P0 Se15 2.268513 1_455
P1 Se70 2.221618 1_555
P1 Se57 2.222190 1_555
P1 Se89 2.242400 1_555
P1 Se14 2.268513 1_555
P2 Se69 2.221618 1_655
P2 Se58 2.222190 1_555
P2 Se90 2.242400 1_555
P2 Se13 2.268513 1_655
P3 Se68 2.221618 1_565
P3 Se59 2.222190 1_555
P3 Se91 2.242400 1_555
P3 Se12 2.268513 1_555
P4 Se67 2.221618 1_665
P4 Se60 2.222190 1_555
P4 Se92 2.242400 1_555
P4 Se11 2.268513 1_655
P5 Se66 2.221618 1_555
P5 Se61 2.222190 1_555
P5 Se93 2.242400 1_555
P5 Se10 2.268513 1_555
P6 Se65 2.221618 1_455
P6 Se62 2.222190 1_555
P6 Se94 2.242400 1_555
P6 Se9 2.268513 1_455
P7 Se64 2.221618 1_545
P7 Se63 2.222190 1_555
P7 Se95 2.242400 1_555
P7 Se8 2.268513 1_555
P8 Se96 2.219695 1_555
P8 Se81 2.225091 1_555
P8 Se73 2.243636 1_556
P8 Se0 2.276536 1_555
P9 Se97 2.219695 1_455
P9 Se80 2.225091 1_555
P9 Se72 2.243636 1_554
P9 Se1 2.276536 1_455
P10 Se98 2.219695 1_555
P10 Se83 2.225091 1_555
P10 Se75 2.243636 1_555
P10 Se2 2.276536 1_555
P11 Se99 2.219695 1_655
P11 Se82 2.225091 1_555
P11 Se74 2.243636 1_555
P11 Se3 2.276536 1_655
P12 Se100 2.219695 1_555
P12 Se85 2.225091 1_555
P12 Se77 2.243636 1_554
P12 Se4 2.276536 1_555
P13 Se101 2.219695 1_655
P13 Se84 2.225091 1_555
P13 Se76 2.243636 1_556
P13 Se5 2.276536 1_655
P14 Se102 2.219695 1_555
P14 Se87 2.225091 1_555
P14 Se79 2.243636 1_555
P14 Se6 2.276536 1_555
P15 Se103 2.219695 1_455
P15 Se86 2.225091 1_555
P15 Se78 2.243636 1_555
P15 Se7 2.276536 1_455
Se0 Se48 2.636815 1_555
Se0 Th8 3.110199 1_555
Se1 Se49 2.636815 1_555
Se1 Th9 3.110199 1_555
Se2 Se50 2.636815 1_555
Se2 Th10 3.110199 1_555
Se3 Se51 2.636815 1_555
Se3 Th11 3.110199 1_555
Se4 Se52 2.636815 1_555
Se4 Th12 3.110199 1_555
Se5 Se53 2.636815 1_555
Se5 Th13 3.110199 1_555
Se6 Th14 3.110199 1_555
Se7 Th15 3.110199 1_555
Se8 Th0 3.081570 1_555
Se9 Th1 3.081570 1_555
Se10 Se50 2.654674 1_555
Se10 Th2 3.081570 1_555
Se11 Se51 2.654674 1_555
Se11 Th3 3.081570 1_555
Se12 Se52 2.654674 1_555
Se12 Th4 3.081570 1_555
Se13 Se53 2.654674 1_555
Se13 Th5 3.081570 1_555
Se14 Se54 2.654674 1_555
Se14 Th6 3.081570 1_555
Se15 Se55 2.654674 1_555
Se15 Th7 3.081570 1_555
Se16 Se29 2.447667 1_555
Se16 Th8 2.956998 1_555
Se16 Th0 3.147348 1_555
Se17 Se28 2.447667 1_555
Se17 Th9 2.956998 1_555
Se17 Th1 3.147348 1_555
Se18 Se31 2.447667 1_555
Se18 Th10 2.956998 1_555
Se18 Th2 3.147348 1_555
Se19 Se30 2.447667 1_555
Se19 Th11 2.956998 1_555
Se19 Th3 3.147348 1_555
Se20 Se25 2.447667 1_555
Se20 Th12 2.956998 1_555
Se20 Th4 3.147348 1_555
Se21 Se24 2.447667 1_555
Se21 Th13 2.956998 1_555
Se21 Th5 3.147348 1_555
Se22 Se27 2.447667 1_555
Se22 Th14 2.956998 1_555
Se22 Th6 3.147348 1_555
Se23 Se26 2.447667 1_555
Se23 Th15 2.956998 1_555
Se23 Th7 3.147348 1_555
Se24 Th13 3.028926 1_555
Se24 Th0 3.086847 1_565
Se25 Th12 3.028926 1_555
Se25 Th1 3.086847 1_555
Se26 Th15 3.028926 1_555
Se26 Th2 3.086847 1_555
Se27 Th14 3.028926 1_555
Se27 Th3 3.086847 1_545
Se28 Th9 3.028926 1_555
Se28 Th4 3.086847 1_545
Se29 Th8 3.028926 1_555
Se29 Th5 3.086847 1_555
Se30 Th11 3.028926 1_555
Se30 Th6 3.086847 1_555
Se31 Th10 3.028926 1_555
Se31 Th7 3.086847 1_565
Se32 Se40 2.443975 1_545
Se32 Th0 2.976623 1_555
Se32 Th8 3.138408 1_555
Se33 Se41 2.443975 1_555
Se33 Th1 2.976623 1_555
Se33 Th9 3.138408 1_555
Se34 Se42 2.443975 1_555
Se34 Th2 2.976623 1_555
Se34 Th10 3.138408 1_555
Se35 Se43 2.443975 1_565
Se35 Th3 2.976623 1_555
Se35 Th11 3.138408 1_555
Se36 Se44 2.443975 1_565
Se36 Th4 2.976623 1_555
Se36 Th12 3.138408 1_555
Se37 Se45 2.443975 1_555
Se37 Th5 2.976623 1_555
Se37 Th13 3.138408 1_555
Se38 Se46 2.443975 1_555
Se38 Th6 2.976623 1_555
Se38 Th14 3.138408 1_555
Se39 Se47 2.443975 1_545
Se39 Th7 2.976623 1_555
Se39 Th15 3.138408 1_555
Se40 Th0 3.026346 1_565
Se40 Th13 3.101289 1_555
Se41 Th1 3.026346 1_555
Se41 Th12 3.101289 1_555
Se42 Th2 3.026346 1_555
Se42 Th15 3.101289 1_555
Se43 Th3 3.026346 1_545
Se43 Th14 3.101289 1_555
Se44 Th4 3.026346 1_545
Se44 Th9 3.101289 1_555
Se45 Th5 3.026346 1_555
Se45 Th8 3.101289 1_555
Se46 Th6 3.026346 1_555
Se46 Th11 3.101289 1_555
Se47 Th7 3.026346 1_565
Se47 Th10 3.101289 1_555
Se48 Se8 2.654674 1_555
Se48 Th8 3.081463 1_555
Se48 Th0 3.094451 1_555
Se49 Se9 2.654674 1_555
Se49 Th9 3.081463 1_555
Se49 Th1 3.094451 1_555
Se50 Th10 3.081463 1_555
Se50 Th2 3.094451 1_555
Se51 Th11 3.081463 1_555
Se51 Th3 3.094451 1_555
Se52 Th12 3.081463 1_555
Se52 Th4 3.094451 1_555
Se53 Th13 3.081463 1_555
Se53 Th5 3.094451 1_555
Se54 Se6 2.636815 1_555
Se54 Th14 3.081463 1_555
Se54 Th6 3.094451 1_555
Se55 Se7 2.636815 1_555
Se55 Th15 3.081463 1_555
Se55 Th7 3.094451 1_555
Se56 Th0 3.108105 1_555
Se57 Th1 3.108105 1_555
Se58 Th2 3.108105 1_555
Se59 Th3 3.108105 1_555
Se60 Th4 3.108105 1_555
Se61 Th5 3.108105 1_555
Se62 Th6 3.108105 1_555
Se63 Th7 3.108105 1_555
Se64 Th0 3.016902 1_565
Se65 Th1 3.016902 1_555
Se66 Th2 3.016902 1_555
Se67 Th3 3.016902 1_545
Se68 Th4 3.016902 1_545
Se69 Th5 3.016902 1_555
Se70 Th6 3.016902 1_555
Se71 Th7 3.016902 1_565
Se72 Th8 3.042292 1_555
Se73 Th9 3.042292 1_555
Se74 Th10 3.042292 1_555
Se75 Th11 3.042292 1_555
Se76 Th12 3.042292 1_555
Se77 Th13 3.042292 1_555
Se78 Th14 3.042292 1_555
Se79 Th15 3.042292 1_555
Se80 Th8 3.133477 1_554
Se81 Th9 3.133477 1_556
Se82 Th10 3.133477 1_555
Se83 Th11 3.133477 1_555
Se84 Th12 3.133477 1_556
Se85 Th13 3.133477 1_554
Se86 Th14 3.133477 1_555
Se87 Th15 3.133477 1_555
Se88 Th0 3.035430 1_555
Se89 Th1 3.035430 1_555
Se90 Th2 3.035430 1_555
Se91 Th3 3.035430 1_555
Se92 Th4 3.035430 1_555
Se93 Th5 3.035430 1_555
Se94 Th6 3.035430 1_555
Se95 Th7 3.035430 1_555
Se96 Th8 3.015875 1_555
Se97 Th9 3.015875 1_555
Se98 Th10 3.015875 1_555
Se99 Th11 3.015875 1_555
Se100 Th12 3.015875 1_555
Se101 Th13 3.015875 1_555
Se102 Th14 3.015875 1_555
Se103 Th15 3.015875 1_555
