# generated using pymatgen
data_BaEu2Sc2O7
_symmetry_space_group_name_H-M   'P 1'
_cell_length_a   5.87427100
_cell_length_b   5.87427100
_cell_length_c   20.13909900
_cell_angle_alpha   90.00000000
_cell_angle_beta   90.00000000
_cell_angle_gamma   90.00000000
_symmetry_Int_Tables_number   1
_chemical_formula_structural   BaEu2Sc2O7
_chemical_formula_sum   'Ba4 Eu8 Sc8 O28'
_cell_volume   694.94109314
_cell_formula_units_Z   4
loop_
 _symmetry_equiv_pos_site_id
 _symmetry_equiv_pos_as_xyz
  1  'x, y, z'
loop_
 _atom_site_type_symbol
 _atom_site_label
 _atom_site_symmetry_multiplicity
 _atom_site_fract_x
 _atom_site_fract_y
 _atom_site_fract_z
 _atom_site_occupancy
  Ba  Ba0  1  0.23784200  0.76215800  0.50000000  1
  Ba  Ba1  1  0.76215800  0.23784200  0.50000000  1
  Ba  Ba2  1  0.26215800  0.26215800  0.00000000  1
  Ba  Ba3  1  0.73784200  0.73784200  0.00000000  1
  Eu  Eu0  1  0.21429400  0.78570600  0.31481900  1
  Eu  Eu1  1  0.78570600  0.21429400  0.31481900  1
  Eu  Eu2  1  0.28570600  0.28570600  0.81481900  1
  Eu  Eu3  1  0.71429400  0.71429400  0.81481900  1
  Eu  Eu4  1  0.78570600  0.21429400  0.68518100  1
  Eu  Eu5  1  0.21429400  0.78570600  0.68518100  1
  Eu  Eu6  1  0.71429400  0.71429400  0.18518100  1
  Eu  Eu7  1  0.28570600  0.28570600  0.18518100  1
  Sc  Sc0  1  0.23643500  0.76356500  0.10378700  1
  Sc  Sc1  1  0.76356500  0.23643500  0.10378700  1
  Sc  Sc2  1  0.26356500  0.26356500  0.60378700  1
  Sc  Sc3  1  0.73643500  0.73643500  0.60378700  1
  Sc  Sc4  1  0.76356500  0.23643500  0.89621300  1
  Sc  Sc5  1  0.23643500  0.76356500  0.89621300  1
  Sc  Sc6  1  0.73643500  0.73643500  0.39621300  1
  Sc  Sc7  1  0.26356500  0.26356500  0.39621300  1
  O  O0  1  0.28481900  0.28481900  0.50000000  1
  O  O1  1  0.71518100  0.71518100  0.50000000  1
  O  O2  1  0.21518100  0.78481900  0.00000000  1
  O  O3  1  0.78481900  0.21518100  0.00000000  1
  O  O4  1  0.31890800  0.68109200  0.21091100  1
  O  O5  1  0.68109200  0.31890800  0.21091100  1
  O  O6  1  0.18109200  0.18109200  0.71091100  1
  O  O7  1  0.81890800  0.81890800  0.71091100  1
  O  O8  1  0.68109200  0.31890800  0.78908900  1
  O  O9  1  0.31890800  0.68109200  0.78908900  1
  O  O10  1  0.81890800  0.81890800  0.28908900  1
  O  O11  1  0.18109200  0.18109200  0.28908900  1
  O  O12  1  0.00000000  0.50000000  0.38653200  1
  O  O13  1  0.50000000  0.00000000  0.88653200  1
  O  O14  1  0.00000000  0.50000000  0.61346800  1
  O  O15  1  0.50000000  0.00000000  0.11346800  1
  O  O16  1  0.50000000  0.00000000  0.38653200  1
  O  O17  1  0.00000000  0.50000000  0.88653200  1
  O  O18  1  0.50000000  0.00000000  0.61346800  1
  O  O19  1  0.00000000  0.50000000  0.11346800  1
  O  O20  1  0.50000000  0.50000000  0.36840700  1
  O  O21  1  0.00000000  0.00000000  0.86840700  1
  O  O22  1  0.50000000  0.50000000  0.63159300  1
  O  O23  1  0.00000000  0.00000000  0.13159300  1
  O  O24  1  0.50000000  0.50000000  0.09553300  1
  O  O25  1  0.00000000  0.00000000  0.59553300  1
  O  O26  1  0.50000000  0.50000000  0.90446700  1
  O  O27  1  0.00000000  0.00000000  0.40446700  1
loop_
_geom_bond_atom_site_label_1
_geom_bond_atom_site_label_2
_geom_bond_distance
_geom_bond_site_symmetry_2
Ba0 O25 2.757830 1_565
Ba0 O27 2.757830 1_565
Ba0 O1 2.817565 1_555
Ba0 O0 2.817565 1_555
Ba0 O0 3.082629 1_565
Ba0 O1 3.082629 1_455
Ba0 O12 3.089573 1_555
Ba0 O14 3.089573 1_555
Ba0 O16 3.089573 1_565
Ba0 O18 3.089573 1_565
Ba1 O25 2.757830 1_655
Ba1 O27 2.757830 1_655
Ba1 O1 2.817565 1_555
Ba1 O0 2.817565 1_555
Ba1 O0 3.082629 1_655
Ba1 O1 3.082629 1_545
Ba1 O14 3.089573 1_655
Ba1 O12 3.089573 1_655
Ba1 O18 3.089573 1_555
Ba1 O16 3.089573 1_555
Ba2 O24 2.757830 1_555
Ba2 O26 2.757830 1_554
Ba2 O2 2.817565 1_545
Ba2 O3 2.817565 1_455
Ba2 O3 3.082629 1_555
Ba2 O2 3.082629 1_555
Ba2 O15 3.089573 1_555
Ba2 O13 3.089573 1_554
Ba2 O17 3.089573 1_554
Ba2 O19 3.089573 1_555
Ba3 O24 2.757830 1_555
Ba3 O26 2.757830 1_554
Ba3 O2 2.817565 1_655
Ba3 O3 2.817565 1_565
Ba3 O3 3.082629 1_555
Ba3 O2 3.082629 1_555
Ba3 O13 3.089573 1_564
Ba3 O15 3.089573 1_565
Ba3 O17 3.089573 1_654
Ba3 O19 3.089573 1_655
Eu0 O4 2.265906 1_555
Eu0 O10 2.387685 1_455
Eu0 O11 2.387685 1_565
Eu0 O27 2.535515 1_565
Eu0 O12 2.546995 1_555
Eu0 O16 2.546995 1_565
Eu0 O20 2.607332 1_555
Eu1 O5 2.265906 1_555
Eu1 O10 2.387685 1_545
Eu1 O11 2.387685 1_655
Eu1 O27 2.535515 1_655
Eu1 O16 2.546995 1_555
Eu1 O12 2.546995 1_655
Eu1 O20 2.607332 1_555
Eu2 O6 2.265906 1_555
Eu2 O8 2.387685 1_555
Eu2 O9 2.387685 1_555
Eu2 O26 2.535515 1_555
Eu2 O13 2.546995 1_555
Eu2 O17 2.546995 1_555
Eu2 O21 2.607332 1_555
Eu3 O7 2.265906 1_555
Eu3 O8 2.387685 1_555
Eu3 O9 2.387685 1_555
Eu3 O26 2.535515 1_555
Eu3 O13 2.546995 1_565
Eu3 O17 2.546995 1_655
Eu3 O21 2.607332 1_665
Eu4 O8 2.265906 1_555
Eu4 O7 2.387685 1_545
Eu4 O6 2.387685 1_655
Eu4 O25 2.535515 1_655
Eu4 O18 2.546995 1_555
Eu4 O14 2.546995 1_655
Eu4 O22 2.607332 1_555
Eu5 O9 2.265906 1_555
Eu5 O7 2.387685 1_455
Eu5 O6 2.387685 1_565
Eu5 O25 2.535515 1_565
Eu5 O14 2.546995 1_555
Eu5 O18 2.546995 1_565
Eu5 O22 2.607332 1_555
Eu6 O10 2.265906 1_555
Eu6 O4 2.387685 1_555
Eu6 O5 2.387685 1_555
Eu6 O24 2.535515 1_555
Eu6 O15 2.546995 1_565
Eu6 O19 2.546995 1_655
Eu6 O23 2.607332 1_665
Eu7 O11 2.265906 1_555
Eu7 O4 2.387685 1_555
Eu7 O5 2.387685 1_555
Eu7 O24 2.535515 1_555
Eu7 O19 2.546995 1_555
Eu7 O15 2.546995 1_555
Eu7 O23 2.607332 1_555
O0 Sc2 2.097621 1_555
O0 Sc7 2.097621 1_555
O1 Sc3 2.097621 1_555
O1 Sc6 2.097621 1_555
O2 Sc0 2.097621 1_555
O2 Sc5 2.097621 1_554
O3 Sc1 2.097621 1_555
O3 Sc4 2.097621 1_554
O4 Sc0 2.263562 1_555
O5 Sc1 2.263562 1_555
O6 Sc2 2.263562 1_555
O7 Sc3 2.263562 1_555
O8 Sc4 2.263562 1_555
O9 Sc5 2.263562 1_555
O10 Sc6 2.263562 1_555
O11 Sc7 2.263562 1_555
O12 Sc7 2.089041 1_555
O12 Sc6 2.089041 1_455
O13 Sc4 2.089041 1_555
O13 Sc5 2.089041 1_545
O14 Sc3 2.089041 1_455
O14 Sc2 2.089041 1_555
O15 Sc1 2.089041 1_555
O15 Sc0 2.089041 1_545
O16 Sc7 2.089041 1_555
O16 Sc6 2.089041 1_545
O17 Sc5 2.089041 1_555
O17 Sc4 2.089041 1_455
O18 Sc3 2.089041 1_545
O18 Sc2 2.089041 1_555
O19 Sc0 2.089041 1_555
O19 Sc1 2.089041 1_455
O20 Sc6 2.042445 1_555
O20 Sc7 2.042445 1_555
O21 Sc4 2.042445 1_455
O21 Sc5 2.042445 1_545
O22 Sc3 2.042445 1_555
O22 Sc2 2.042445 1_555
O23 Sc0 2.042445 1_545
O23 Sc1 2.042445 1_455
O24 Sc0 2.195860 1_555
O24 Sc1 2.195860 1_555
O25 Sc2 2.195860 1_555
O25 Sc3 2.195860 1_445
O26 Sc4 2.195860 1_555
O26 Sc5 2.195860 1_555
O27 Sc7 2.195860 1_555
O27 Sc6 2.195860 1_445
