# generated using pymatgen
data_NbVCo
_symmetry_space_group_name_H-M   'P 1'
_cell_length_a   4.83692914
_cell_length_b   4.83692914
_cell_length_c   8.05391373
_cell_angle_alpha   90.00000000
_cell_angle_beta   90.00000000
_cell_angle_gamma   118.73976281
_symmetry_Int_Tables_number   1
_chemical_formula_structural   NbVCo
_chemical_formula_sum   'Nb4 V4 Co4'
_cell_volume   165.21643484
_cell_formula_units_Z   4
loop_
 _symmetry_equiv_pos_site_id
 _symmetry_equiv_pos_as_xyz
  1  'x, y, z'
loop_
 _atom_site_type_symbol
 _atom_site_label
 _atom_site_symmetry_multiplicity
 _atom_site_fract_x
 _atom_site_fract_y
 _atom_site_fract_z
 _atom_site_occupancy
  Nb  Nb0  1  0.67120499  0.32879501  0.31617143  1
  Nb  Nb1  1  0.34086219  0.65913781  0.19631680  1
  Nb  Nb2  1  0.34086219  0.65913781  0.80368320  1
  Nb  Nb3  1  0.67120499  0.32879501  0.68382857  1
  V  V0  1  0.15649834  0.84350166  0.50000000  1
  V  V1  1  0.33983270  0.16203581  -0.00000000  1
  V  V2  1  0.83796419  0.66016730  -0.00000000  1
  V  V3  1  0.83304012  0.16695988  -0.00000000  1
  Co  Co0  1  0.00024357  0.99975643  0.25695015  1
  Co  Co1  1  0.00024357  0.99975643  0.74304985  1
  Co  Co2  1  0.65067339  0.84228427  0.50000000  1
  Co  Co3  1  0.15771573  0.34932661  0.50000000  1
loop_
_geom_bond_atom_site_label_1
_geom_bond_atom_site_label_2
_geom_bond_distance
_geom_bond_site_symmetry_2
Nb0 V0 2.877530 1_655
Nb0 V0 2.877530 1_545
Nb0 V3 2.880800 1_555
Nb0 V2 2.908714 1_555
Nb0 V1 2.908714 1_555
Nb0 Nb1 2.914318 1_555
Nb0 Nb3 2.961079 1_555
Nb0 Nb1 2.999905 1_545
Nb0 Nb1 2.999905 1_655
Nb1 V2 2.875728 1_555
Nb1 V1 2.875728 1_555
Nb1 V0 2.887442 1_555
Nb1 V1 2.903201 1_565
Nb1 V2 2.903201 1_455
Nb1 V3 2.928715 1_565
Nb1 V3 2.928715 1_455
Nb1 Nb2 3.162237 1_554
Nb2 V1 2.875728 1_556
Nb2 V2 2.875728 1_556
Nb2 V0 2.887442 1_555
Nb2 V1 2.903201 1_566
Nb2 V2 2.903201 1_456
Nb2 Nb3 2.914318 1_555
Nb2 V3 2.928715 1_566
Nb2 V3 2.928715 1_456
Nb2 Nb3 2.999905 1_565
Nb2 Nb3 2.999905 1_455
Nb3 V0 2.877530 1_655
Nb3 V0 2.877530 1_545
Nb3 V3 2.880800 1_556
Nb3 V2 2.908714 1_556
Nb3 V1 2.908714 1_556
V1 V3 2.374249 1_555
V1 V2 2.455176 1_555
V1 V3 2.462860 1_455
V1 V2 2.473595 1_445
V2 V3 2.374249 1_555
V2 V3 2.462860 1_565
Co0 V0 2.350232 1_555
Co0 Co3 2.456099 1_565
Co0 Co2 2.456099 1_455
Co0 V3 2.493953 1_465
Co0 V1 2.521292 1_565
Co0 V2 2.521292 1_455
Co0 Nb0 2.780171 1_465
Co0 Nb1 2.841095 1_565
Co0 Nb1 2.841095 1_455
Co0 Nb1 2.877092 1_555
Co0 Nb0 2.885465 1_565
Co0 Nb0 2.885465 1_455
Co1 V0 2.350232 1_555
Co1 Co3 2.456099 1_565
Co1 Co2 2.456099 1_455
Co1 V3 2.493953 1_466
Co1 V2 2.521292 1_456
Co1 V1 2.521292 1_566
Co1 Nb3 2.780171 1_465
Co1 Nb2 2.841095 1_565
Co1 Nb2 2.841095 1_455
Co1 Nb2 2.877092 1_555
Co1 Nb3 2.885465 1_565
Co1 Nb3 2.885465 1_455
Co2 V0 2.393127 1_555
Co2 Co3 2.429675 1_555
Co2 V0 2.443814 1_655
Co2 Co3 2.499096 1_665
Co2 Nb3 2.741305 1_565
Co2 Nb0 2.741305 1_565
Co2 Nb2 2.781345 1_555
Co2 Nb1 2.781345 1_555
Co2 Nb3 2.933919 1_555
Co2 Nb0 2.933919 1_555
Co3 V0 2.393127 1_555
Co3 V0 2.443814 1_545
Co3 Nb0 2.741305 1_455
Co3 Nb3 2.741305 1_455
Co3 Nb2 2.781345 1_555
Co3 Nb1 2.781345 1_555
Co3 Nb3 2.933919 1_555
Co3 Nb0 2.933919 1_555
