# generated using pymatgen
data_Ca3Mg
_symmetry_space_group_name_H-M   'P 1'
_cell_length_a   7.49032118
_cell_length_b   7.49032455
_cell_length_c   6.06094949
_cell_angle_alpha   90.00000000
_cell_angle_beta   90.00000000
_cell_angle_gamma   120.00001002
_symmetry_Int_Tables_number   1
_chemical_formula_structural   Ca3Mg
_chemical_formula_sum   'Ca6 Mg2'
_cell_volume   294.49120468
_cell_formula_units_Z   2
loop_
 _symmetry_equiv_pos_site_id
 _symmetry_equiv_pos_as_xyz
  1  'x, y, z'
loop_
 _atom_site_type_symbol
 _atom_site_label
 _atom_site_symmetry_multiplicity
 _atom_site_fract_x
 _atom_site_fract_y
 _atom_site_fract_z
 _atom_site_occupancy
  Ca  Ca0  1  0.17078593  0.82921407  0.75000000  1
  Ca  Ca1  1  0.65842714  0.82921407  0.75000000  1
  Ca  Ca2  1  0.17078593  0.34157286  0.75000000  1
  Ca  Ca3  1  0.82921407  0.17078593  0.25000000  1
  Ca  Ca4  1  0.82921407  0.65842714  0.25000000  1
  Ca  Ca5  1  0.34157286  0.17078593  0.25000000  1
  Mg  Mg0  1  0.66666700  0.33333300  0.75000000  1
  Mg  Mg1  1  0.33333300  0.66666700  0.25000000  1
loop_
_geom_bond_atom_site_label_1
_geom_bond_atom_site_label_2
_geom_bond_distance
_geom_bond_site_symmetry_2
Ca0 Ca1 3.652589 1_555
Ca0 Ca2 3.652591 1_555
Ca0 Mg1 3.692007 1_556
Ca0 Mg1 3.692007 1_555
Ca0 Mg0 3.745542 1_455
Ca0 Mg0 3.745542 1_565
Ca0 Ca4 3.754085 1_456
Ca0 Ca4 3.754085 1_455
Ca0 Ca5 3.754085 1_566
Ca0 Ca5 3.754085 1_565
Ca0 Ca1 3.837732 1_455
Ca0 Ca2 3.837734 1_565
Ca1 Ca2 3.652590 1_555
Ca1 Mg1 3.692007 1_555
Ca1 Mg1 3.692007 1_556
Ca1 Mg0 3.745536 1_565
Ca1 Mg0 3.745551 1_555
Ca1 Ca3 3.754085 1_565
Ca1 Ca3 3.754085 1_566
Ca1 Ca4 3.754093 1_555
Ca1 Ca4 3.754093 1_556
Ca1 Ca2 3.837732 1_665
Ca2 Mg1 3.692007 1_556
Ca2 Mg1 3.692007 1_555
Ca2 Mg0 3.745534 1_455
Ca2 Mg0 3.745550 1_555
Ca2 Ca3 3.754085 1_456
Ca2 Ca3 3.754085 1_455
Ca2 Ca5 3.754093 1_556
Ca2 Ca5 3.754093 1_555
Ca3 Ca5 3.652589 1_555
Ca3 Ca4 3.652591 1_555
Ca3 Mg0 3.692007 1_554
Ca3 Mg0 3.692007 1_555
Ca3 Mg1 3.745542 1_655
Ca3 Mg1 3.745542 1_545
Ca3 Ca5 3.837732 1_655
Ca3 Ca4 3.837734 1_545
Ca4 Ca5 3.652590 1_555
Ca4 Mg0 3.692007 1_555
Ca4 Mg0 3.692007 1_554
Ca4 Mg1 3.745534 1_655
Ca4 Mg1 3.745550 1_555
Ca4 Ca5 3.837732 1_665
Ca5 Mg0 3.692007 1_554
Ca5 Mg0 3.692007 1_555
Ca5 Mg1 3.745536 1_545
Ca5 Mg1 3.745551 1_555
