# generated using pymatgen
data_ZnFe2(CuO4)2
_symmetry_space_group_name_H-M   'P 1'
_cell_length_a   6.41467057
_cell_length_b   8.30306000
_cell_length_c   11.93230666
_cell_angle_alpha   90.00000000
_cell_angle_beta   92.51267196
_cell_angle_gamma   90.00000000
_symmetry_Int_Tables_number   1
_chemical_formula_structural   ZnFe2(CuO4)2
_chemical_formula_sum   'Zn4 Fe8 Cu8 O32'
_cell_volume   634.92026204
_cell_formula_units_Z   4
loop_
 _symmetry_equiv_pos_site_id
 _symmetry_equiv_pos_as_xyz
  1  'x, y, z'
loop_
 _atom_site_type_symbol
 _atom_site_label
 _atom_site_symmetry_multiplicity
 _atom_site_fract_x
 _atom_site_fract_y
 _atom_site_fract_z
 _atom_site_occupancy
  Zn  Zn0  1  0.11224600  0.15735500  0.04947300  1
  Zn  Zn1  1  0.88775400  0.84264500  0.95052700  1
  Zn  Zn2  1  0.88775400  0.65735500  0.45052700  1
  Zn  Zn3  1  0.11224600  0.34264500  0.54947300  1
  Fe  Fe0  1  0.09999600  0.45780700  0.83984500  1
  Fe  Fe1  1  0.09999600  0.04219300  0.33984500  1
  Fe  Fe2  1  0.60851400  0.09344900  0.13263600  1
  Fe  Fe3  1  0.90000400  0.95780700  0.66015500  1
  Fe  Fe4  1  0.39148600  0.90655100  0.86736400  1
  Fe  Fe5  1  0.39148600  0.59344900  0.36736400  1
  Fe  Fe6  1  0.60851400  0.40655100  0.63263600  1
  Fe  Fe7  1  0.90000400  0.54219300  0.16015500  1
  Cu  Cu0  1  0.75516500  0.18925100  0.87765000  1
  Cu  Cu1  1  0.37517900  0.05659600  0.62931500  1
  Cu  Cu2  1  0.62482100  0.94340400  0.37068500  1
  Cu  Cu3  1  0.24483500  0.81074900  0.12235000  1
  Cu  Cu4  1  0.75516500  0.31074900  0.37765000  1
  Cu  Cu5  1  0.37517900  0.44340400  0.12931500  1
  Cu  Cu6  1  0.24483500  0.68925100  0.62235000  1
  Cu  Cu7  1  0.62482100  0.55659600  0.87068500  1
  O  O0  1  0.02553300  0.23823600  0.39750500  1
  O  O1  1  0.64802100  0.01786400  0.60091400  1
  O  O2  1  0.18923200  0.57864400  0.48140900  1
  O  O3  1  0.81076800  0.07864400  0.01859100  1
  O  O4  1  0.02553300  0.26176400  0.89750500  1
  O  O5  1  0.97446700  0.76176400  0.60249500  1
  O  O6  1  0.09557100  0.10759600  0.61831400  1
  O  O7  1  0.50592400  0.88773700  0.14162500  1
  O  O8  1  0.50592400  0.61226300  0.64162500  1
  O  O9  1  0.31406900  0.87104700  0.71191200  1
  O  O10  1  0.68593100  0.37104700  0.78808800  1
  O  O11  1  0.49407600  0.11226300  0.85837500  1
  O  O12  1  0.90442900  0.89240400  0.38168600  1
  O  O13  1  0.87027900  0.52554500  0.30609900  1
  O  O14  1  0.40446000  0.26330100  0.57891300  1
  O  O15  1  0.40446000  0.23669900  0.07891300  1
  O  O16  1  0.12972100  0.02554500  0.19390100  1
  O  O17  1  0.49407600  0.38773700  0.35837500  1
  O  O18  1  0.12972100  0.47445500  0.69390100  1
  O  O19  1  0.81076800  0.42135600  0.51859100  1
  O  O20  1  0.64802100  0.48213600  0.10091400  1
  O  O21  1  0.68593100  0.12895300  0.28808800  1
  O  O22  1  0.97446700  0.73823600  0.10249500  1
  O  O23  1  0.09557100  0.39240400  0.11831400  1
  O  O24  1  0.18923200  0.92135600  0.98140900  1
  O  O25  1  0.59554000  0.76330100  0.92108700  1
  O  O26  1  0.35197900  0.98213600  0.39908600  1
  O  O27  1  0.35197900  0.51786400  0.89908600  1
  O  O28  1  0.90442900  0.60759600  0.88168600  1
  O  O29  1  0.59554000  0.73669900  0.42108700  1
  O  O30  1  0.31406900  0.62895300  0.21191200  1
  O  O31  1  0.87027900  0.97445500  0.80609900  1
loop_
_geom_bond_atom_site_label_1
_geom_bond_atom_site_label_2
_geom_bond_distance
_geom_bond_site_symmetry_2
Fe0 O18 1.765566 1_555
Fe0 O27 1.805787 1_555
Fe0 O4 1.838458 1_555
Fe0 O28 1.850608 1_455
Fe1 O16 1.765566 1_555
Fe1 O26 1.805787 1_545
Fe1 O0 1.838458 1_555
Fe1 O12 1.850608 1_445
Fe2 O7 1.835255 1_545
Fe2 O15 1.861555 1_555
Fe2 O21 1.921824 1_555
Fe2 O3 1.924830 1_555
Fe3 O31 1.765566 1_555
Fe3 O1 1.805787 1_565
Fe3 O5 1.838458 1_555
Fe3 O6 1.850608 1_665
Fe4 O11 1.835255 1_565
Fe4 O25 1.861555 1_555
Fe4 O9 1.921824 1_555
Fe4 O24 1.924830 1_555
Fe5 O17 1.835255 1_555
Fe5 O29 1.861555 1_555
Fe5 O30 1.921824 1_555
Fe5 O2 1.924830 1_555
Fe6 O8 1.835255 1_555
Fe6 O14 1.861555 1_555
Fe6 O10 1.921824 1_555
Fe6 O19 1.924830 1_555
Fe7 O13 1.765566 1_555
Fe7 O20 1.805787 1_555
Fe7 O22 1.838458 1_555
Fe7 O23 1.850608 1_655
Cu0 O11 1.797971 1_555
Cu0 O4 1.841324 1_655
Cu0 O10 1.891079 1_555
Cu0 O3 1.935543 1_556
Cu0 O31 2.123724 1_545
Cu1 O1 1.825772 1_555
Cu1 O14 1.830986 1_555
Cu1 O6 1.841977 1_555
Cu1 O9 1.879472 1_545
Cu2 O26 1.825772 1_555
Cu2 O29 1.830986 1_555
Cu2 O12 1.841977 1_555
Cu2 O21 1.879472 1_565
Cu3 O7 1.797971 1_555
Cu3 O22 1.841324 1_455
Cu3 O30 1.891079 1_555
Cu3 O24 1.935543 1_554
Cu3 O16 2.123724 1_565
Cu4 O17 1.797971 1_555
Cu4 O0 1.841324 1_655
Cu4 O21 1.891079 1_555
Cu4 O19 1.935543 1_555
Cu4 O13 2.123724 1_555
Cu5 O20 1.825772 1_555
Cu5 O15 1.830986 1_555
Cu5 O23 1.841977 1_555
Cu5 O30 1.879472 1_555
Cu6 O8 1.797971 1_555
Cu6 O5 1.841324 1_455
Cu6 O9 1.891079 1_555
Cu6 O2 1.935543 1_555
Cu6 O18 2.123724 1_555
Cu7 O27 1.825772 1_555
Cu7 O25 1.830986 1_555
Cu7 O28 1.841977 1_555
Cu7 O10 1.879472 1_555
O0 Zn3 2.064137 1_555
O2 Zn2 2.059204 1_455
O2 Zn3 2.185942 1_555
O3 Zn0 2.059204 1_655
O3 Zn1 2.185942 1_544
O4 Zn0 2.064137 1_556
O5 Zn2 2.064137 1_555
O6 Zn3 2.121966 1_555
O12 Zn2 2.121966 1_555
O13 Zn2 2.040432 1_555
O14 Zn3 2.003315 1_555
O15 Zn0 2.003315 1_555
O16 Zn0 2.040432 1_555
O18 Zn3 2.040432 1_555
O19 Zn3 2.059204 1_655
O19 Zn2 2.185942 1_555
O22 Zn1 2.064137 1_554
O23 Zn0 2.121966 1_555
O24 Zn1 2.059204 1_455
O24 Zn0 2.185942 1_566
O25 Zn1 2.003315 1_555
O28 Zn1 2.121966 1_555
O29 Zn2 2.003315 1_555
O31 Zn1 2.040432 1_555
