# generated using pymatgen
data_Ti2HCSe4Cl16O5
_symmetry_space_group_name_H-M   'P 1'
_cell_length_a   8.88728000
_cell_length_b   13.22376400
_cell_length_c   18.23655120
_cell_angle_alpha   50.64021786
_cell_angle_beta   90.00000000
_cell_angle_gamma   90.00000000
_symmetry_Int_Tables_number   1
_chemical_formula_structural   Ti2HCSe4Cl16O5
_chemical_formula_sum   'Ti4 H2 C2 Se8 Cl32 O10'
_cell_volume   1657.09218606
_cell_formula_units_Z   2
loop_
 _symmetry_equiv_pos_site_id
 _symmetry_equiv_pos_as_xyz
  1  'x, y, z'
loop_
 _atom_site_type_symbol
 _atom_site_label
 _atom_site_symmetry_multiplicity
 _atom_site_fract_x
 _atom_site_fract_y
 _atom_site_fract_z
 _atom_site_occupancy
  Ti  Ti0  1  0.99693200  0.38886900  0.72450600  1
  Ti  Ti1  1  0.00253900  0.61024300  0.27533300  1
  Ti  Ti2  1  0.99746100  0.61024300  0.77533300  1
  Ti  Ti3  1  0.00306800  0.38886900  0.22450600  1
  H  H0  1  0.86477800  0.92307300  0.76709400  1
  H  H1  1  0.13522200  0.92307300  0.26709400  1
  C  C0  1  0.76964600  0.98416100  0.75358900  1
  C  C1  1  0.23035400  0.98416100  0.25358900  1
  Se  Se0  1  0.16742400  0.33097900  0.58867700  1
  Se  Se1  1  0.83221400  0.66877400  0.41157500  1
  Se  Se2  1  0.16778600  0.66877400  0.91157500  1
  Se  Se3  1  0.83257600  0.33097900  0.08867700  1
  Se  Se4  1  0.26568400  0.25060200  0.88824000  1
  Se  Se5  1  0.73407000  0.74948500  0.11161200  1
  Se  Se6  1  0.26593000  0.74948500  0.61161200  1
  Se  Se7  1  0.73431600  0.25060200  0.38824000  1
  Cl  Cl0  1  0.67683400  0.06413100  0.64906200  1
  Cl  Cl1  1  0.32204700  0.95373600  0.34735000  1
  Cl  Cl2  1  0.67795300  0.95373600  0.84735000  1
  Cl  Cl3  1  0.32316600  0.06413100  0.14906200  1
  Cl  Cl4  1  0.48794300  0.32367600  0.88836800  1
  Cl  Cl5  1  0.51215700  0.67568300  0.11224400  1
  Cl  Cl6  1  0.48784300  0.67568300  0.61224400  1
  Cl  Cl7  1  0.51205700  0.32367600  0.38836800  1
  Cl  Cl8  1  0.76996200  0.41189000  0.66006700  1
  Cl  Cl9  1  0.22967500  0.58857500  0.33976000  1
  Cl  Cl10  1  0.77032500  0.58857500  0.83976000  1
  Cl  Cl11  1  0.23003800  0.41189000  0.16006700  1
  Cl  Cl12  1  0.94841400  0.19532400  0.87469800  1
  Cl  Cl13  1  0.05164600  0.80503100  0.12548500  1
  Cl  Cl14  1  0.94835400  0.80503100  0.62548500  1
  Cl  Cl15  1  0.05158600  0.19532400  0.37469800  1
  Cl  Cl16  1  0.17001000  0.15139300  0.60417800  1
  Cl  Cl17  1  0.83021700  0.84827100  0.39641700  1
  Cl  Cl18  1  0.16978300  0.84827100  0.89641700  1
  Cl  Cl19  1  0.82999000  0.15139300  0.10417800  1
  Cl  Cl20  1  0.40734100  0.32846800  0.62121100  1
  Cl  Cl21  1  0.59247100  0.67196000  0.37830700  1
  Cl  Cl22  1  0.40752900  0.67196000  0.87830700  1
  Cl  Cl23  1  0.59265900  0.32846800  0.12121100  1
  Cl  Cl24  1  0.11140200  0.56483700  0.57094200  1
  Cl  Cl25  1  0.88800800  0.43595200  0.42876400  1
  Cl  Cl26  1  0.11199200  0.43595200  0.92876400  1
  Cl  Cl27  1  0.88859800  0.56483700  0.07094200  1
  Cl  Cl28  1  0.34907900  0.08117700  0.90220400  1
  Cl  Cl29  1  0.64942700  0.91869300  0.09789200  1
  Cl  Cl30  1  0.35057300  0.91869300  0.59789200  1
  Cl  Cl31  1  0.65092100  0.08117700  0.40220400  1
  O  O0  1  0.22398100  0.36284800  0.77281500  1
  O  O1  1  0.77641100  0.63759900  0.22709800  1
  O  O2  1  0.22358900  0.63759900  0.72709800  1
  O  O3  1  0.77601900  0.36284800  0.27281500  1
  O  O4  1  0.07572000  0.27161300  0.68923500  1
  O  O5  1  0.92530000  0.72910600  0.31118100  1
  O  O6  1  0.07470000  0.72910600  0.81118100  1
  O  O7  1  0.92428000  0.27161300  0.18923500  1
  O  O8  1  0.96652600  0.49995000  0.74989600  1
  O  O9  1  0.03347400  0.49995000  0.24989600  1
loop_
_geom_bond_atom_site_label_1
_geom_bond_atom_site_label_2
_geom_bond_distance
_geom_bond_site_symmetry_2
C0 H0 1.084289 1_555
C0 Cl0 1.695731 1_565
C0 Cl2 1.696187 1_555
C1 H1 1.084289 1_555
C1 Cl3 1.695731 1_565
C1 Cl1 1.696187 1_555
Cl4 Se4 2.199625 1_555
Cl5 Se5 2.197251 1_555
Cl6 Se6 2.197251 1_555
Cl7 Se7 2.199625 1_555
Cl8 Ti0 2.255829 1_555
Cl9 Ti1 2.260615 1_555
Cl10 Ti2 2.260615 1_555
Cl11 Ti3 2.255829 1_555
Cl12 Ti0 2.312351 1_555
Cl13 Ti1 2.316243 1_555
Cl14 Ti2 2.316243 1_555
Cl15 Ti3 2.312351 1_555
Cl16 Se0 2.206500 1_555
Cl17 Se1 2.208754 1_555
Cl18 Se2 2.208754 1_555
Cl19 Se3 2.206500 1_555
Cl20 Se0 2.207815 1_555
Cl21 Se1 2.208429 1_555
Cl22 Se2 2.208429 1_555
Cl23 Se3 2.207815 1_555
Cl24 Ti0 2.454969 1_455
Cl25 Ti1 2.448989 1_655
Cl26 Ti2 2.448989 1_455
Cl27 Ti3 2.454969 1_655
Cl28 Se4 2.215865 1_555
Cl29 Se5 2.219252 1_555
Cl30 Se6 2.219252 1_555
Cl31 Se7 2.215865 1_555
O0 Se4 1.675844 1_555
O0 Ti0 2.140503 1_455
O1 Se5 1.677464 1_555
O1 Ti1 2.130672 1_655
O2 Se6 1.677464 1_555
O2 Ti2 2.130672 1_455
O3 Se7 1.675844 1_555
O3 Ti3 2.140503 1_655
O4 Se0 1.678527 1_555
O4 Ti0 2.138529 1_455
O5 Se1 1.679344 1_555
O5 Ti1 2.161604 1_655
O6 Se2 1.679344 1_555
O6 Ti2 2.161604 1_455
O7 Se3 1.678527 1_555
O7 Ti3 2.138529 1_655
O8 Ti2 1.810001 1_555
O8 Ti0 1.818732 1_555
O9 Ti1 1.810001 1_555
O9 Ti3 1.818732 1_555
