# generated using pymatgen
data_K2LiNb2P2(CO7)2
_symmetry_space_group_name_H-M   'P 1'
_cell_length_a   10.52196763
_cell_length_b   6.60691973
_cell_length_c   5.28292177
_cell_angle_alpha   89.81845657
_cell_angle_beta   87.54113494
_cell_angle_gamma   87.63558614
_symmetry_Int_Tables_number   1
_chemical_formula_structural   K2LiNb2P2(CO7)2
_chemical_formula_sum   'K2 Li1 Nb2 P2 C2 O14'
_cell_volume   366.60619673
_cell_formula_units_Z   1
loop_
 _symmetry_equiv_pos_site_id
 _symmetry_equiv_pos_as_xyz
  1  'x, y, z'
loop_
 _atom_site_type_symbol
 _atom_site_label
 _atom_site_symmetry_multiplicity
 _atom_site_fract_x
 _atom_site_fract_y
 _atom_site_fract_z
 _atom_site_occupancy
  K  K0  1  0.22560300  0.40019000  0.25305000  1
  K  K1  1  0.77509100  0.90537100  0.75506400  1
  Li  Li0  1  0.09167400  0.89704600  0.26464300  1
  Nb  Nb0  1  0.36032500  0.79312200  0.79425500  1
  Nb  Nb1  1  0.65942900  0.27994500  0.21998200  1
  P  P0  1  0.44111500  0.28373100  0.72171200  1
  P  P1  1  0.57369100  0.77947400  0.29420600  1
  C  C0  1  0.11508200  0.77533100  0.70594400  1
  C  C1  1  0.90036700  0.21294300  0.26735900  1
  O  O0  1  0.01716800  0.16631100  0.29034500  1
  O  O1  1  0.15652700  0.78147100  0.93901900  1
  O  O2  1  0.20944400  0.78456200  0.52674400  1
  O  O3  1  0.35123300  0.10484700  0.77678900  1
  O  O4  1  0.35611400  0.47718100  0.78940700  1
  O  O5  1  0.45506600  0.78464300  0.13340800  1
  O  O6  1  0.48013200  0.28851100  0.43648100  1
  O  O7  1  0.53775500  0.78171900  0.58000800  1
  O  O8  1  0.55810000  0.26709100  0.88637400  1
  O  O9  1  0.65892100  0.96147000  0.23240200  1
  O  O10  1  0.65962500  0.58582700  0.22954700  1
  O  O11  1  0.81750900  0.23940200  0.46180800  1
  O  O12  1  0.84725900  0.23538200  0.04652200  1
  O  O13  1  0.00277000  0.76221400  0.64493100  1
loop_
_geom_bond_atom_site_label_1
_geom_bond_atom_site_label_2
_geom_bond_distance
_geom_bond_site_symmetry_2
K0 O0 2.734415 1_555
K0 O4 2.811611 1_554
K0 O2 2.921512 1_555
K0 O6 2.951451 1_555
K0 O1 3.090677 1_554
K0 O4 3.251778 1_555
K0 O3 3.379108 1_554
K1 O13 2.582458 1_655
K1 O11 2.733153 1_565
K1 O9 2.773934 1_556
K1 O12 2.821276 1_566
K1 O7 2.851349 1_555
Li0 O0 1.917087 1_565
Li0 O1 1.967886 1_554
Li0 O2 2.017388 1_555
Li0 O13 2.366642 1_555
Nb0 O3 2.059776 1_565
Nb0 O5 2.086897 1_556
Nb0 O4 2.089955 1_555
Nb0 O7 2.140035 1_555
Nb0 O2 2.172840 1_555
Nb0 O1 2.249801 1_555
Nb1 O10 2.021818 1_555
Nb1 O8 2.102319 1_554
Nb1 O9 2.105174 1_545
Nb1 O11 2.147997 1_555
Nb1 O12 2.151896 1_555
Nb1 O6 2.162618 1_555
C0 O13 1.244682 1_555
C0 O1 1.325068 1_555
C0 O2 1.345265 1_555
C1 O0 1.265455 1_655
C1 O12 1.320360 1_555
C1 O11 1.325754 1_555
O3 P0 1.562797 1_555
O4 P0 1.562851 1_555
O5 P1 1.538827 1_555
O6 P0 1.545261 1_555
O7 P1 1.540647 1_555
O8 P0 1.537549 1_555
O9 P1 1.555005 1_555
O10 P1 1.565873 1_555
