# generated using pymatgen
data_Er3(FeGe)4
_symmetry_space_group_name_H-M   'P 1'
_cell_length_a   7.82122438
_cell_length_b   7.82122438
_cell_length_c   7.82122438
_cell_angle_alpha   149.00512843
_cell_angle_beta   129.17372226
_cell_angle_gamma   60.73253212
_symmetry_Int_Tables_number   1
_chemical_formula_structural   Er3(FeGe)4
_chemical_formula_sum   'Er3 Fe4 Ge4'
_cell_volume   189.33467533
_cell_formula_units_Z   1
loop_
 _symmetry_equiv_pos_site_id
 _symmetry_equiv_pos_as_xyz
  1  'x, y, z'
loop_
 _atom_site_type_symbol
 _atom_site_label
 _atom_site_symmetry_multiplicity
 _atom_site_fract_x
 _atom_site_fract_y
 _atom_site_fract_z
 _atom_site_occupancy
  Er  Er0  1  0.50000000  0.00000000  0.50000000  1
  Er  Er1  1  0.87115300  0.87115300  0.00000000  1
  Er  Er2  1  0.12884700  0.12884700  0.00000000  1
  Fe  Fe0  1  0.85537400  0.67452500  0.18084900  1
  Fe  Fe1  1  0.49367600  0.67452500  0.81915100  1
  Fe  Fe2  1  0.50632400  0.32547500  0.18084900  1
  Fe  Fe3  1  0.14462600  0.32547500  0.81915100  1
  Ge  Ge0  1  0.27923200  0.77923200  0.50000000  1
  Ge  Ge1  1  0.72076800  0.22076800  0.50000000  1
  Ge  Ge2  1  0.19572900  0.50000000  0.69572900  1
  Ge  Ge3  1  0.80427100  0.50000000  0.30427100  1
loop_
_geom_bond_atom_site_label_1
_geom_bond_atom_site_label_2
_geom_bond_distance
_geom_bond_site_symmetry_2
Er0 Ge2 2.922179 1_555
Er0 Ge3 2.922179 1_556
Er0 Ge3 2.922179 1_545
Er0 Ge2 2.922179 1_544
Er0 Ge1 2.979592 1_555
Er0 Ge0 2.979592 1_545
Er1 Ge1 2.913210 1_565
Er1 Ge1 2.913210 1_554
Er1 Fe1 2.918288 1_554
Er1 Fe0 2.918288 1_555
Er1 Ge3 3.019540 1_565
Er1 Ge2 3.019540 1_665
Er1 Ge3 3.019540 1_554
Er1 Ge2 3.019540 1_654
Er1 Fe3 3.055686 1_665
Er1 Fe2 3.055686 1_554
Er1 Fe3 3.055686 1_654
Er1 Fe2 3.055686 1_565
Er2 Ge0 2.913210 1_544
Er2 Ge0 2.913210 1_555
Er2 Fe2 2.918288 1_555
Er2 Fe3 2.918288 1_554
Er2 Ge2 3.019540 1_544
Er2 Ge3 3.019540 1_455
Er2 Ge2 3.019540 1_555
Er2 Ge3 3.019540 1_444
Er2 Fe1 3.055686 1_555
Er2 Fe0 3.055686 1_444
Er2 Fe1 3.055686 1_544
Er2 Fe0 3.055686 1_455
Fe0 Fe1 2.428019 1_554
Fe0 Ge1 2.496113 1_554
Fe0 Ge1 2.496113 1_565
Fe0 Ge3 2.496936 1_555
Fe0 Ge0 2.566511 1_655
Fe1 Ge1 2.496113 1_555
Fe1 Ge1 2.496113 1_566
Fe1 Ge2 2.496936 1_555
Fe1 Ge0 2.566511 1_555
Fe2 Fe3 2.428019 1_554
Fe2 Ge0 2.496113 1_555
Fe2 Ge0 2.496113 1_544
Fe2 Ge3 2.496936 1_555
Fe2 Ge1 2.566511 1_555
Fe3 Ge0 2.496113 1_556
Fe3 Ge0 2.496113 1_545
Fe3 Ge2 2.496936 1_555
Fe3 Ge1 2.566511 1_455
Ge2 Ge3 2.627793 1_455
