# generated using pymatgen
data_Nd6Ge3S14
_symmetry_space_group_name_H-M   'P 1'
_cell_length_a   10.25228002
_cell_length_b   10.25228203
_cell_length_c   5.79494390
_cell_angle_alpha   90.00010186
_cell_angle_beta   90.00005076
_cell_angle_gamma   119.99985528
_symmetry_Int_Tables_number   1
_chemical_formula_structural   Nd6Ge3S14
_chemical_formula_sum   'Nd6 Ge3 S14'
_cell_volume   527.49883540
_cell_formula_units_Z   1
loop_
 _symmetry_equiv_pos_site_id
 _symmetry_equiv_pos_as_xyz
  1  'x, y, z'
loop_
 _atom_site_type_symbol
 _atom_site_label
 _atom_site_symmetry_multiplicity
 _atom_site_fract_x
 _atom_site_fract_y
 _atom_site_fract_z
 _atom_site_occupancy
  Nd  Nd0  1  0.56565150  0.02421190  0.24361439  1
  Nd  Nd1  1  0.97578761  0.54143999  0.24361312  1
  Nd  Nd2  1  0.45856032  0.43434902  0.24361449  1
  Nd  Nd3  1  0.10067711  0.30766428  0.75219624  1
  Nd  Nd4  1  0.69233455  0.79301138  0.75219573  1
  Nd  Nd5  1  0.20698876  0.89932214  0.75219615  1
  Ge  Ge0  1  0.66666577  0.33333196  0.82762617  1
  Ge  Ge1  1  0.00000077  0.00000084  0.33614962  1
  Ge  Ge2  1  0.33333421  0.66666696  0.48594653  1
  S  S0  1  0.44033806  0.18619696  0.98256532  1
  S  S1  1  0.81380470  0.25414405  0.98256431  1
  S  S2  1  0.74585591  0.55966046  0.98256376  1
  S  S3  1  0.22673277  0.14740808  0.48888540  1
  S  S4  1  0.85258624  0.07932034  0.48888265  1
  S  S5  1  0.92067776  0.77326871  0.48888568  1
  S  S6  1  0.66666664  0.33333408  0.45243431  1
  S  S7  1  0.00000101  0.00000032  0.96022648  1
  S  S8  1  0.49607053  0.92001104  0.72439725  1
  S  S9  1  0.07999100  0.57606037  0.72439626  1
  S  S10  1  0.42394000  0.50393007  0.72439728  1
  S  S11  1  0.16630892  0.41053515  0.23521231  1
  S  S12  1  0.58946608  0.75577271  0.23521133  1
  S  S13  1  0.24422678  0.83369119  0.23521023  1
loop_
_geom_bond_atom_site_label_1
_geom_bond_atom_site_label_2
_geom_bond_distance
_geom_bond_site_symmetry_2
Nd0 S13 2.870579 1_545
Nd0 S12 2.882369 1_545
Nd0 S1 2.884577 1_554
Nd0 S8 2.941171 1_545
Nd0 S0 2.971635 1_554
Nd0 S6 3.049363 1_555
Nd0 S4 3.054687 1_555
Nd0 S8 3.152956 1_544
Nd1 S11 2.870585 1_655
Nd1 S13 2.882361 1_655
Nd1 S2 2.884559 1_554
Nd1 S9 2.941176 1_655
Nd1 S1 2.971615 1_554
Nd1 S6 3.049363 1_555
Nd1 S5 3.054726 1_555
Nd1 S9 3.152965 1_654
Nd2 S12 2.870567 1_555
Nd2 S11 2.882348 1_555
Nd2 S0 2.884550 1_554
Nd2 S10 2.941168 1_555
Nd2 S2 2.971624 1_554
Nd2 S6 3.049353 1_555
Nd2 S3 3.054743 1_555
Nd2 S10 3.152960 1_554
Nd3 S9 2.868136 1_555
Nd3 S4 2.885094 1_455
Nd3 S10 2.896535 1_555
Nd3 S11 2.947896 1_556
Nd3 S3 2.970053 1_555
Nd3 S1 3.019850 1_455
Nd3 S7 3.035180 1_555
Nd3 S11 3.135412 1_555
Nd4 S10 2.868129 1_555
Nd4 S5 2.885056 1_555
Nd4 S8 2.896532 1_555
Nd4 S12 2.947890 1_556
Nd4 S4 2.970045 1_565
Nd4 S2 3.019843 1_555
Nd4 S7 3.035197 1_665
Nd4 S12 3.135404 1_555
Nd5 S8 2.868119 1_555
Nd5 S3 2.885056 1_565
Nd5 S9 2.896522 1_555
Nd5 S13 2.947882 1_556
Nd5 S5 2.970049 1_455
Nd5 S0 3.019857 1_565
Nd5 S7 3.035187 1_565
Nd5 S13 3.135414 1_555
Ge0 S6 2.174216 1_555
Ge0 S1 2.228351 1_555
Ge0 S0 2.228360 1_555
Ge0 S2 2.228362 1_555
Ge1 S7 2.178454 1_554
Ge1 S3 2.226600 1_555
Ge1 S5 2.226607 1_445
Ge1 S4 2.226617 1_455
Ge2 S10 2.665660 1_555
Ge2 S9 2.665665 1_555
Ge2 S8 2.665670 1_555
Ge2 S11 2.728072 1_555
Ge2 S13 2.728075 1_555
Ge2 S12 2.728080 1_555
