# generated using pymatgen
data_Nd
_symmetry_space_group_name_H-M   'P 1'
_cell_length_a   7.42014926
_cell_length_b   7.42014576
_cell_length_c   23.79843094
_cell_angle_alpha   90.00000000
_cell_angle_beta   90.00000000
_cell_angle_gamma   119.99997731
_symmetry_Int_Tables_number   1
_chemical_formula_structural   Nd
_chemical_formula_sum   Nd32
_cell_volume   1134.76030040
_cell_formula_units_Z   32
loop_
 _symmetry_equiv_pos_site_id
 _symmetry_equiv_pos_as_xyz
  1  'x, y, z'
loop_
 _atom_site_type_symbol
 _atom_site_label
 _atom_site_symmetry_multiplicity
 _atom_site_fract_x
 _atom_site_fract_y
 _atom_site_fract_z
 _atom_site_occupancy
  Nd  Nd0_0  1  0.00000000  0.00000000  0.00000000  1
  Nd  Nd0_1  1  0.00000000  0.00000000  0.50000000  1
  Nd  Nd0_2  1  0.00000000  0.50000000  0.00000000  1
  Nd  Nd0_3  1  0.00000000  0.50000000  0.50000000  1
  Nd  Nd0_4  1  0.50000000  0.00000000  0.00000000  1
  Nd  Nd0_5  1  0.50000000  0.00000000  0.50000000  1
  Nd  Nd0_6  1  0.50000000  0.50000000  0.00000000  1
  Nd  Nd0_7  1  0.50000000  0.50000000  0.50000000  1
  Nd  Nd1_0  1  0.00000000  0.00000000  0.25000000  1
  Nd  Nd1_1  1  0.00000000  0.00000000  0.75000000  1
  Nd  Nd1_2  1  0.00000000  0.50000000  0.25000000  1
  Nd  Nd1_3  1  0.00000000  0.50000000  0.75000000  1
  Nd  Nd1_4  1  0.50000000  0.00000000  0.25000000  1
  Nd  Nd1_5  1  0.50000000  0.00000000  0.75000000  1
  Nd  Nd1_6  1  0.50000000  0.50000000  0.25000000  1
  Nd  Nd1_7  1  0.50000000  0.50000000  0.75000000  1
  Nd  Nd2_0  1  0.16666650  0.33333350  0.12500000  1
  Nd  Nd2_1  1  0.16666650  0.33333350  0.62500000  1
  Nd  Nd2_2  1  0.16666650  0.83333350  0.12500000  1
  Nd  Nd2_3  1  0.16666650  0.83333350  0.62500000  1
  Nd  Nd2_4  1  0.66666650  0.33333350  0.12500000  1
  Nd  Nd2_5  1  0.66666650  0.33333350  0.62500000  1
  Nd  Nd2_6  1  0.66666650  0.83333350  0.12500000  1
  Nd  Nd2_7  1  0.66666650  0.83333350  0.62500000  1
  Nd  Nd3_0  1  0.33333350  0.16666650  0.37500000  1
  Nd  Nd3_1  1  0.33333350  0.16666650  0.87500000  1
  Nd  Nd3_2  1  0.33333350  0.66666650  0.37500000  1
  Nd  Nd3_3  1  0.33333350  0.66666650  0.87500000  1
  Nd  Nd3_4  1  0.83333350  0.16666650  0.37500000  1
  Nd  Nd3_5  1  0.83333350  0.16666650  0.87500000  1
  Nd  Nd3_6  1  0.83333350  0.66666650  0.37500000  1
  Nd  Nd3_7  1  0.83333350  0.66666650  0.87500000  1
loop_
_geom_bond_atom_site_label_1
_geom_bond_atom_site_label_2
_geom_bond_distance
_geom_bond_site_symmetry_2
Nd0_0 Nd2_2 3.665742 1_545
Nd0_0 Nd3_5 3.665742 1_454
Nd0_0 Nd3_7 3.665744 1_444
Nd0_0 Nd2_0 3.665744 1_555
Nd0_0 Nd2_6 3.665744 1_445
Nd0_0 Nd3_1 3.665744 1_554
Nd0_0 Nd0_2 3.710073 1_555
Nd0_0 Nd0_2 3.710073 1_545
Nd0_0 Nd0_4 3.710075 1_455
Nd0_0 Nd0_4 3.710075 1_555
Nd0_0 Nd0_6 3.710075 1_445
Nd0_0 Nd0_6 3.710075 1_555
Nd0_1 Nd2_3 3.665742 1_545
Nd0_1 Nd3_4 3.665742 1_455
Nd0_1 Nd3_6 3.665744 1_445
Nd0_1 Nd2_1 3.665744 1_555
Nd0_1 Nd2_7 3.665744 1_445
Nd0_1 Nd3_0 3.665744 1_555
Nd0_1 Nd0_3 3.710073 1_555
Nd0_1 Nd0_3 3.710073 1_545
Nd0_1 Nd0_5 3.710075 1_555
Nd0_1 Nd0_5 3.710075 1_455
Nd0_1 Nd0_7 3.710075 1_445
Nd0_1 Nd0_7 3.710075 1_555
Nd0_2 Nd2_0 3.665742 1_555
Nd0_2 Nd3_7 3.665742 1_454
Nd0_2 Nd3_5 3.665744 1_454
Nd0_2 Nd2_2 3.665744 1_555
Nd0_2 Nd2_4 3.665744 1_455
Nd0_2 Nd3_3 3.665744 1_554
Nd0_2 Nd0_6 3.710075 1_455
Nd0_2 Nd0_6 3.710075 1_555
Nd0_2 Nd0_4 3.710075 1_455
Nd0_2 Nd0_4 3.710075 1_565
Nd0_3 Nd2_1 3.665742 1_555
Nd0_3 Nd3_6 3.665742 1_455
Nd0_3 Nd3_4 3.665744 1_455
Nd0_3 Nd2_3 3.665744 1_555
Nd0_3 Nd2_5 3.665744 1_455
Nd0_3 Nd3_2 3.665744 1_555
Nd0_3 Nd0_7 3.710075 1_455
Nd0_3 Nd0_7 3.710075 1_555
Nd0_3 Nd0_5 3.710075 1_565
Nd0_3 Nd0_5 3.710075 1_455
Nd0_4 Nd3_1 3.665742 1_554
Nd0_4 Nd2_6 3.665742 1_545
Nd0_4 Nd3_3 3.665744 1_544
Nd0_4 Nd2_4 3.665744 1_555
Nd0_4 Nd2_2 3.665744 1_545
Nd0_4 Nd3_5 3.665744 1_554
Nd0_4 Nd0_6 3.710073 1_555
Nd0_4 Nd0_6 3.710073 1_545
Nd0_5 Nd2_7 3.665742 1_545
Nd0_5 Nd3_0 3.665742 1_555
Nd0_5 Nd3_2 3.665744 1_545
Nd0_5 Nd2_5 3.665744 1_555
Nd0_5 Nd2_3 3.665744 1_545
Nd0_5 Nd3_4 3.665744 1_555
Nd0_5 Nd0_7 3.710073 1_555
Nd0_5 Nd0_7 3.710073 1_545
Nd0_6 Nd2_4 3.665742 1_555
Nd0_6 Nd3_3 3.665742 1_554
Nd0_6 Nd3_1 3.665744 1_554
Nd0_6 Nd2_6 3.665744 1_555
Nd0_6 Nd3_7 3.665744 1_554
Nd0_6 Nd2_0 3.665744 1_555
Nd0_7 Nd2_5 3.665742 1_555
Nd0_7 Nd3_2 3.665742 1_555
Nd0_7 Nd3_0 3.665744 1_555
Nd0_7 Nd2_7 3.665744 1_555
Nd0_7 Nd3_6 3.665744 1_555
Nd0_7 Nd2_1 3.665744 1_555
Nd1_0 Nd2_2 3.665742 1_545
Nd1_0 Nd3_4 3.665742 1_455
Nd1_0 Nd3_6 3.665744 1_445
Nd1_0 Nd2_0 3.665744 1_555
Nd1_0 Nd2_6 3.665744 1_445
Nd1_0 Nd3_0 3.665744 1_555
Nd1_0 Nd1_2 3.710073 1_555
Nd1_0 Nd1_2 3.710073 1_545
Nd1_0 Nd1_4 3.710075 1_455
Nd1_0 Nd1_4 3.710075 1_555
Nd1_0 Nd1_6 3.710075 1_445
Nd1_0 Nd1_6 3.710075 1_555
Nd1_1 Nd3_5 3.665742 1_455
Nd1_1 Nd2_3 3.665742 1_545
Nd1_1 Nd3_7 3.665744 1_445
Nd1_1 Nd2_1 3.665744 1_555
Nd1_1 Nd2_7 3.665744 1_445
Nd1_1 Nd3_1 3.665744 1_555
Nd1_1 Nd1_3 3.710073 1_555
Nd1_1 Nd1_3 3.710073 1_545
Nd1_1 Nd1_5 3.710075 1_555
Nd1_1 Nd1_5 3.710075 1_455
Nd1_1 Nd1_7 3.710075 1_445
Nd1_1 Nd1_7 3.710075 1_555
Nd1_2 Nd2_0 3.665742 1_555
Nd1_2 Nd3_6 3.665742 1_455
Nd1_2 Nd3_4 3.665744 1_455
Nd1_2 Nd2_2 3.665744 1_555
Nd1_2 Nd2_4 3.665744 1_455
Nd1_2 Nd3_2 3.665744 1_555
Nd1_2 Nd1_6 3.710075 1_455
Nd1_2 Nd1_6 3.710075 1_555
Nd1_2 Nd1_4 3.710075 1_455
Nd1_2 Nd1_4 3.710075 1_565
Nd1_3 Nd2_1 3.665742 1_555
Nd1_3 Nd3_7 3.665742 1_455
Nd1_3 Nd3_5 3.665744 1_455
Nd1_3 Nd2_3 3.665744 1_555
Nd1_3 Nd2_5 3.665744 1_455
Nd1_3 Nd3_3 3.665744 1_555
Nd1_3 Nd1_7 3.710075 1_455
Nd1_3 Nd1_7 3.710075 1_555
Nd1_3 Nd1_5 3.710075 1_455
Nd1_3 Nd1_5 3.710075 1_565
Nd1_4 Nd3_0 3.665742 1_555
Nd1_4 Nd2_6 3.665742 1_545
Nd1_4 Nd3_2 3.665744 1_545
Nd1_4 Nd2_4 3.665744 1_555
Nd1_4 Nd2_2 3.665744 1_545
Nd1_4 Nd3_4 3.665744 1_555
Nd1_4 Nd1_6 3.710073 1_555
Nd1_4 Nd1_6 3.710073 1_545
Nd1_5 Nd2_7 3.665742 1_545
Nd1_5 Nd3_1 3.665742 1_555
Nd1_5 Nd3_3 3.665744 1_545
Nd1_5 Nd2_5 3.665744 1_555
Nd1_5 Nd2_3 3.665744 1_545
Nd1_5 Nd3_5 3.665744 1_555
Nd1_5 Nd1_7 3.710073 1_555
Nd1_5 Nd1_7 3.710073 1_545
Nd1_6 Nd2_4 3.665742 1_555
Nd1_6 Nd3_2 3.665742 1_555
Nd1_6 Nd3_0 3.665744 1_555
Nd1_6 Nd2_6 3.665744 1_555
Nd1_6 Nd3_6 3.665744 1_555
Nd1_6 Nd2_0 3.665744 1_555
Nd1_7 Nd2_5 3.665742 1_555
Nd1_7 Nd3_3 3.665742 1_555
Nd1_7 Nd3_1 3.665744 1_555
Nd1_7 Nd2_7 3.665744 1_555
Nd1_7 Nd3_7 3.665744 1_555
Nd1_7 Nd2_1 3.665744 1_555
Nd2_0 Nd2_2 3.710073 1_545
Nd2_0 Nd2_2 3.710073 1_555
Nd2_0 Nd2_4 3.710075 1_455
Nd2_0 Nd2_4 3.710075 1_555
Nd2_0 Nd2_6 3.710075 1_555
Nd2_0 Nd2_6 3.710075 1_445
Nd2_1 Nd2_3 3.710073 1_545
Nd2_1 Nd2_3 3.710073 1_555
Nd2_1 Nd2_5 3.710075 1_555
Nd2_1 Nd2_5 3.710075 1_455
Nd2_1 Nd2_7 3.710075 1_445
Nd2_1 Nd2_7 3.710075 1_555
Nd2_2 Nd2_6 3.710075 1_455
Nd2_2 Nd2_6 3.710075 1_555
Nd2_2 Nd2_4 3.710075 1_455
Nd2_2 Nd2_4 3.710075 1_565
Nd2_3 Nd2_7 3.710075 1_455
Nd2_3 Nd2_7 3.710075 1_555
Nd2_3 Nd2_5 3.710075 1_565
Nd2_3 Nd2_5 3.710075 1_455
Nd2_4 Nd2_6 3.710073 1_555
Nd2_4 Nd2_6 3.710073 1_545
Nd2_5 Nd2_7 3.710073 1_545
Nd2_5 Nd2_7 3.710073 1_555
Nd3_0 Nd3_2 3.710073 1_545
Nd3_0 Nd3_2 3.710073 1_555
Nd3_0 Nd3_4 3.710075 1_455
Nd3_0 Nd3_4 3.710075 1_555
Nd3_0 Nd3_6 3.710075 1_445
Nd3_0 Nd3_6 3.710075 1_555
Nd3_1 Nd3_3 3.710073 1_545
Nd3_1 Nd3_3 3.710073 1_555
Nd3_1 Nd3_5 3.710075 1_455
Nd3_1 Nd3_5 3.710075 1_555
Nd3_1 Nd3_7 3.710075 1_445
Nd3_1 Nd3_7 3.710075 1_555
Nd3_2 Nd3_6 3.710075 1_455
Nd3_2 Nd3_6 3.710075 1_555
Nd3_2 Nd3_4 3.710075 1_455
Nd3_2 Nd3_4 3.710075 1_565
Nd3_3 Nd3_7 3.710075 1_555
Nd3_3 Nd3_7 3.710075 1_455
Nd3_3 Nd3_5 3.710075 1_455
Nd3_3 Nd3_5 3.710075 1_565
Nd3_4 Nd3_6 3.710073 1_545
Nd3_4 Nd3_6 3.710073 1_555
Nd3_5 Nd3_7 3.710073 1_545
Nd3_5 Nd3_7 3.710073 1_555
