# generated using pymatgen
data_Sr3La3Mn3RuO14
_symmetry_space_group_name_H-M   'P 1'
_cell_length_a   5.60450289
_cell_length_b   5.59699342
_cell_length_c   10.65828488
_cell_angle_alpha   90.00000000
_cell_angle_beta   74.75674285
_cell_angle_gamma   90.00000000
_symmetry_Int_Tables_number   1
_chemical_formula_structural   Sr3La3Mn3RuO14
_chemical_formula_sum   'Sr3 La3 Mn3 Ru1 O14'
_cell_volume   322.57056693
_cell_formula_units_Z   1
loop_
 _symmetry_equiv_pos_site_id
 _symmetry_equiv_pos_as_xyz
  1  'x, y, z'
loop_
 _atom_site_type_symbol
 _atom_site_label
 _atom_site_symmetry_multiplicity
 _atom_site_fract_x
 _atom_site_fract_y
 _atom_site_fract_z
 _atom_site_occupancy
  Sr  Sr0  1  0.99904800  0.50000000  0.00190400  1
  Sr  Sr1  1  0.81751300  0.50000000  0.36497400  1
  Sr  Sr2  1  0.31613800  0.00000000  0.36772300  1
  La  La0  1  0.49768700  0.00000000  0.00462700  1
  La  La1  1  0.68300500  0.00000000  0.63399000  1
  La  La2  1  0.18063700  0.50000000  0.63872700  1
  Mn  Mn0  1  0.59764700  0.50000000  0.80470700  1
  Mn  Mn1  1  0.09678100  0.00000000  0.80643800  1
  Mn  Mn2  1  0.89867200  0.00000000  0.20265600  1
  Ru  Ru0  1  0.39893500  0.50000000  0.20213000  1
  O  O0  1  0.19810900  0.00000000  0.60378200  1
  O  O1  1  0.70143100  0.50000000  0.59713900  1
  O  O2  1  0.29724400  0.50000000  0.40551200  1
  O  O3  1  0.79460400  0.00000000  0.41079200  1
  O  O4  1  0.34957500  0.24483000  0.80025200  1
  O  O5  1  0.85017300  0.75517000  0.80025200  1
  O  O6  1  0.85017300  0.24483000  0.80025200  1
  O  O7  1  0.34957500  0.75517000  0.80025200  1
  O  O8  1  0.16526100  0.24848300  0.18834400  1
  O  O9  1  0.64639500  0.75151700  0.18834400  1
  O  O10  1  0.64639500  0.24848300  0.18834400  1
  O  O11  1  0.16526100  0.75151700  0.18834400  1
  O  O12  1  0.49693400  0.50000000  0.00613200  1
  O  O13  1  0.00280800  0.00000000  0.99438300  1
loop_
_geom_bond_atom_site_label_1
_geom_bond_atom_site_label_2
_geom_bond_distance
_geom_bond_site_symmetry_2
La0 O10 2.705762 1_555
La0 O9 2.705762 1_545
La0 O8 2.705765 1_555
La0 O11 2.705765 1_545
La0 O12 2.798540 1_555
La0 O12 2.798540 1_545
La0 O13 2.804225 1_654
La0 O13 2.804236 1_554
La0 O6 2.874463 1_554
La0 O5 2.874463 1_544
La0 O7 2.874465 1_544
La0 O4 2.874465 1_554
La1 O3 2.295214 1_555
La1 O6 2.601684 1_555
La1 O5 2.601684 1_545
La1 O4 2.601684 1_555
La1 O7 2.601684 1_545
La1 O0 2.819416 1_655
La1 O0 2.819416 1_555
La1 O1 2.824037 1_545
La1 O1 2.824037 1_555
La2 O2 2.398222 1_555
La2 O7 2.599447 1_555
La2 O4 2.599447 1_555
La2 O5 2.599450 1_455
La2 O6 2.599450 1_455
La2 O0 2.821474 1_565
La2 O0 2.821474 1_555
La2 O1 2.834697 1_555
La2 O1 2.834697 1_455
Mn0 O6 2.002412 1_555
Mn0 O5 2.002412 1_555
Mn0 O7 2.002416 1_555
Mn0 O4 2.002416 1_555
Mn0 O12 2.071315 1_556
Mn0 O1 2.134486 1_555
Mn1 O13 1.932696 1_555
Mn1 O5 1.959659 1_445
Mn1 O6 1.959659 1_455
Mn1 O7 1.959659 1_545
Mn1 O4 1.959659 1_555
Mn1 O0 2.083974 1_555
Mn2 O10 2.017415 1_555
Mn2 O8 2.017415 1_655
Mn2 O9 2.017415 1_545
Mn2 O11 2.017415 1_645
Mn2 O3 2.140327 1_555
Mn2 O13 2.141735 1_654
O0 Sr2 2.427467 1_555
O1 Sr1 2.387424 1_555
O2 Ru0 2.091440 1_555
O2 Sr2 2.825348 1_555
O2 Sr2 2.825348 1_565
O2 Sr1 2.833088 1_555
O2 Sr1 2.833088 1_455
O3 Sr2 2.837032 1_655
O3 Sr2 2.837038 1_555
O3 Sr1 2.837882 1_545
O3 Sr1 2.837882 1_555
O4 Sr0 2.880659 1_456
O5 Sr0 2.880659 1_556
O6 Sr0 2.880659 1_556
O7 Sr0 2.880659 1_456
O8 Ru0 1.954387 1_555
O8 Sr2 2.674806 1_555
O8 Sr1 2.719360 1_455
O8 Sr0 2.787751 1_455
O9 Ru0 1.954387 1_555
O9 Sr2 2.674808 1_565
O9 Sr1 2.719360 1_555
O9 Sr0 2.787751 1_555
O10 Ru0 1.954387 1_555
O10 Sr2 2.674808 1_555
O10 Sr1 2.719360 1_555
O10 Sr0 2.787751 1_555
O11 Ru0 1.954387 1_555
O11 Sr2 2.674806 1_565
O11 Sr1 2.719360 1_455
O11 Sr0 2.787751 1_455
O12 Ru0 2.015508 1_555
O12 Sr0 2.802589 1_555
O12 Sr0 2.802589 1_455
O13 Sr0 2.799565 1_446
O13 Sr0 2.799565 1_456
