# generated using pymatgen
data_Na2H2WO4
_symmetry_space_group_name_H-M   'P 1'
_cell_length_a   8.62995400
_cell_length_b   10.60706000
_cell_length_c   14.04205900
_cell_angle_alpha   90.00000000
_cell_angle_beta   90.00000000
_cell_angle_gamma   90.00000000
_symmetry_Int_Tables_number   1
_chemical_formula_structural   Na2H2WO4
_chemical_formula_sum   'Na16 H16 W8 O32'
_cell_volume   1285.38817350
_cell_formula_units_Z   8
loop_
 _symmetry_equiv_pos_site_id
 _symmetry_equiv_pos_as_xyz
  1  'x, y, z'
loop_
 _atom_site_type_symbol
 _atom_site_label
 _atom_site_symmetry_multiplicity
 _atom_site_fract_x
 _atom_site_fract_y
 _atom_site_fract_z
 _atom_site_occupancy
  Na  Na0  1  0.26232900  0.43884900  0.14234600  1
  Na  Na1  1  0.73767100  0.56115100  0.85765400  1
  Na  Na2  1  0.23767100  0.56115100  0.64234600  1
  Na  Na3  1  0.73767100  0.93884900  0.35765400  1
  Na  Na4  1  0.76232900  0.43884900  0.35765400  1
  Na  Na5  1  0.26232900  0.06115100  0.64234600  1
  Na  Na6  1  0.76232900  0.06115100  0.85765400  1
  Na  Na7  1  0.23767100  0.93884900  0.14234600  1
  Na  Na8  1  0.16574800  0.00313300  0.43611500  1
  Na  Na9  1  0.83425200  0.99686700  0.56388500  1
  Na  Na10  1  0.33425200  0.99686700  0.93611500  1
  Na  Na11  1  0.83425200  0.50313300  0.06388500  1
  Na  Na12  1  0.66574800  0.00313300  0.06388500  1
  Na  Na13  1  0.16574800  0.49686700  0.93611500  1
  Na  Na14  1  0.66574800  0.49686700  0.56388500  1
  Na  Na15  1  0.33425200  0.50313300  0.43611500  1
  H  H0  1  0.21670700  0.34008600  0.30839500  1
  H  H1  1  0.78329300  0.65991400  0.69160500  1
  H  H2  1  0.28329300  0.65991400  0.80839500  1
  H  H3  1  0.78329300  0.84008600  0.19160500  1
  H  H4  1  0.71670700  0.34008600  0.19160500  1
  H  H5  1  0.21670700  0.15991400  0.80839500  1
  H  H6  1  0.71670700  0.15991400  0.69160500  1
  H  H7  1  0.28329300  0.84008600  0.30839500  1
  H  H8  1  0.46493300  0.10494600  0.20730100  1
  H  H9  1  0.53506700  0.89505400  0.79269900  1
  H  H10  1  0.03506700  0.89505400  0.70730100  1
  H  H11  1  0.53506700  0.60494600  0.29269900  1
  H  H12  1  0.96493300  0.10494600  0.29269900  1
  H  H13  1  0.46493300  0.39505400  0.70730100  1
  H  H14  1  0.96493300  0.39505400  0.79269900  1
  H  H15  1  0.03506700  0.60494600  0.20730100  1
  W  W0  1  0.01258200  0.20173300  0.02764900  1
  W  W1  1  0.98741800  0.79826700  0.97235100  1
  W  W2  1  0.48741800  0.79826700  0.52764900  1
  W  W3  1  0.98741800  0.70173300  0.47235100  1
  W  W4  1  0.51258200  0.20173300  0.47235100  1
  W  W5  1  0.01258200  0.29826700  0.52764900  1
  W  W6  1  0.51258200  0.29826700  0.97235100  1
  W  W7  1  0.48741800  0.70173300  0.02764900  1
  O  O0  1  0.35757500  0.14288200  0.39783900  1
  O  O1  1  0.64242500  0.85711800  0.60216100  1
  O  O2  1  0.14242500  0.85711800  0.89783900  1
  O  O3  1  0.64242500  0.64288200  0.10216100  1
  O  O4  1  0.85757500  0.14288200  0.10216100  1
  O  O5  1  0.35757500  0.35711800  0.89783900  1
  O  O6  1  0.85757500  0.35711800  0.60216100  1
  O  O7  1  0.14242500  0.64288200  0.39783900  1
  O  O8  1  0.18623200  0.10859800  0.04867100  1
  O  O9  1  0.81376800  0.89140200  0.95132900  1
  O  O10  1  0.31376800  0.89140200  0.54867100  1
  O  O11  1  0.81376800  0.60859800  0.45132900  1
  O  O12  1  0.68623200  0.10859800  0.45132900  1
  O  O13  1  0.18623200  0.39140200  0.54867100  1
  O  O14  1  0.68623200  0.39140200  0.95132900  1
  O  O15  1  0.31376800  0.60859800  0.04867100  1
  O  O16  1  0.46095100  0.31388400  0.09664600  1
  O  O17  1  0.53904900  0.68611600  0.90335400  1
  O  O18  1  0.03904900  0.68611600  0.59664600  1
  O  O19  1  0.53904900  0.81388400  0.40335400  1
  O  O20  1  0.96095100  0.31388400  0.40335400  1
  O  O21  1  0.46095100  0.18611600  0.59664600  1
  O  O22  1  0.96095100  0.18611600  0.90335400  1
  O  O23  1  0.03904900  0.81388400  0.09664600  1
  O  O24  1  0.04983800  0.36880400  0.05753000  1
  O  O25  1  0.95016200  0.63119600  0.94247000  1
  O  O26  1  0.45016200  0.63119600  0.55753000  1
  O  O27  1  0.95016200  0.86880400  0.44247000  1
  O  O28  1  0.54983800  0.36880400  0.44247000  1
  O  O29  1  0.04983800  0.13119600  0.55753000  1
  O  O30  1  0.54983800  0.13119600  0.94247000  1
  O  O31  1  0.45016200  0.86880400  0.05753000  1
loop_
_geom_bond_atom_site_label_1
_geom_bond_atom_site_label_2
_geom_bond_distance
_geom_bond_site_symmetry_2
Na0 O16 2.259850 1_555
Na0 O15 2.273598 1_555
Na0 O24 2.309382 1_555
Na1 O17 2.259850 1_555
Na1 O14 2.273598 1_555
Na1 O25 2.309382 1_555
Na2 O18 2.259850 1_555
Na2 O13 2.273598 1_555
Na2 O26 2.309382 1_555
Na3 O19 2.259850 1_555
Na3 O12 2.273598 1_565
Na3 O27 2.309382 1_555
Na4 O20 2.259850 1_555
Na4 O11 2.273598 1_555
Na4 O28 2.309382 1_555
Na5 O21 2.259850 1_555
Na5 O10 2.273598 1_545
Na5 O29 2.309382 1_555
Na6 O22 2.259850 1_555
Na6 O9 2.273598 1_545
Na6 O30 2.309382 1_555
Na7 O23 2.259850 1_555
Na7 O8 2.273598 1_565
Na7 O31 2.309382 1_555
Na8 O0 2.286200 1_555
Na8 O27 2.345116 1_445
Na8 O10 2.352521 1_545
Na8 O29 2.398439 1_555
Na9 O1 2.286200 1_555
Na9 O29 2.345116 1_665
Na9 O12 2.352521 1_565
Na9 O27 2.398439 1_555
Na10 O2 2.286200 1_555
Na10 O30 2.345116 1_565
Na10 O8 2.352521 1_566
Na10 O31 2.398439 1_556
Na11 O3 2.286200 1_555
Na11 O24 2.345116 1_655
Na11 O14 2.352521 1_554
Na11 O25 2.398439 1_554
Na12 O4 2.286200 1_555
Na12 O31 2.345116 1_545
Na12 O9 2.352521 1_544
Na12 O30 2.398439 1_554
Na13 O5 2.286200 1_555
Na13 O25 2.345116 1_455
Na13 O15 2.352521 1_556
Na13 O24 2.398439 1_556
Na14 O6 2.286200 1_555
Na14 O26 2.345116 1_555
Na14 O11 2.352521 1_555
Na14 O28 2.398439 1_555
Na15 O7 2.286200 1_555
Na15 O28 2.345116 1_555
Na15 O13 2.352521 1_555
Na15 O26 2.398439 1_555
H0 Na0 2.586335 1_555
H0 Na15 2.690072 1_555
H1 Na1 2.586335 1_555
H1 Na14 2.690072 1_555
H2 Na2 2.586335 1_555
H2 Na13 2.690072 1_555
H3 Na3 2.586335 1_555
H3 Na12 2.690072 1_565
H4 Na4 2.586335 1_555
H4 Na11 2.690072 1_555
H5 Na5 2.586335 1_555
H5 Na10 2.690072 1_545
H6 Na6 2.586335 1_555
H6 Na9 2.690072 1_545
H7 Na7 2.586335 1_555
H7 Na8 2.690072 1_565
O0 W4 1.809383 1_555
O1 W2 1.809383 1_555
O2 W1 1.809383 1_455
O3 W7 1.809383 1_555
O4 W0 1.809383 1_655
O5 W6 1.809383 1_555
O6 W5 1.809383 1_655
O7 W3 1.809383 1_455
O8 W0 1.819021 1_555
O9 W1 1.819021 1_555
O10 W2 1.819021 1_555
O11 W3 1.819021 1_555
O12 W4 1.819021 1_555
O13 W5 1.819021 1_555
O14 W6 1.819021 1_555
O15 W7 1.819021 1_555
O16 W6 1.808936 1_554
O17 W7 1.808936 1_556
O18 W3 1.808936 1_455
O19 W2 1.808936 1_555
O20 W5 1.808936 1_655
O21 W4 1.808936 1_555
O22 W0 1.808936 1_656
O23 W1 1.808936 1_454
O24 W0 1.849292 1_555
O25 W1 1.849292 1_555
O26 W2 1.849292 1_555
O27 W3 1.849292 1_555
O28 W4 1.849292 1_555
O29 W5 1.849292 1_555
O30 W6 1.849292 1_555
O31 W7 1.849292 1_555
