# generated using pymatgen
data_Sn3Au
_symmetry_space_group_name_H-M   'P 1'
_cell_length_a   6.66853909
_cell_length_b   6.66853909
_cell_length_c   5.23583200
_cell_angle_alpha   90.00000000
_cell_angle_beta   90.00000000
_cell_angle_gamma   119.99999101
_symmetry_Int_Tables_number   1
_chemical_formula_structural   Sn3Au
_chemical_formula_sum   'Sn6 Au2'
_cell_volume   201.64050535
_cell_formula_units_Z   2
loop_
 _symmetry_equiv_pos_site_id
 _symmetry_equiv_pos_as_xyz
  1  'x, y, z'
loop_
 _atom_site_type_symbol
 _atom_site_label
 _atom_site_symmetry_multiplicity
 _atom_site_fract_x
 _atom_site_fract_y
 _atom_site_fract_z
 _atom_site_occupancy
  Sn  Sn0  1  0.17118500  0.34237100  0.25000000  1
  Sn  Sn1  1  0.65762900  0.82881500  0.25000000  1
  Sn  Sn2  1  0.17118500  0.82881500  0.25000000  1
  Sn  Sn3  1  0.82881500  0.65762900  0.75000000  1
  Sn  Sn4  1  0.34237100  0.17118500  0.75000000  1
  Sn  Sn5  1  0.82881500  0.17118500  0.75000000  1
  Au  Au0  1  0.33333300  0.66666700  0.75000000  1
  Au  Au1  1  0.66666700  0.33333300  0.25000000  1
loop_
_geom_bond_atom_site_label_1
_geom_bond_atom_site_label_2
_geom_bond_distance
_geom_bond_site_symmetry_2
Au0 Sn2 3.218858 1_556
Au0 Sn2 3.218858 1_555
Au0 Sn1 3.218859 1_556
Au0 Sn1 3.218859 1_555
Au0 Sn0 3.218859 1_555
Au0 Sn0 3.218859 1_556
Au0 Sn4 3.334671 1_565
Au0 Sn3 3.334671 1_455
Au0 Sn5 3.334678 1_565
Au0 Sn5 3.334678 1_455
Au0 Sn4 3.334685 1_555
Au0 Sn3 3.334685 1_555
Au1 Sn5 3.218858 1_555
Au1 Sn5 3.218858 1_554
Au1 Sn4 3.218859 1_555
Au1 Sn3 3.218859 1_554
Au1 Sn4 3.218859 1_554
Au1 Sn3 3.218859 1_555
Au1 Sn0 3.334671 1_655
Au1 Sn1 3.334671 1_545
Au1 Sn2 3.334678 1_655
Au1 Sn2 3.334678 1_545
Au1 Sn1 3.334685 1_555
Au1 Sn0 3.334685 1_555
