# generated using pymatgen
data_Rb3LiPb4
_symmetry_space_group_name_H-M   'P 1'
_cell_length_a   8.98634883
_cell_length_b   8.98634883
_cell_length_c   10.65835174
_cell_angle_alpha   90.00000000
_cell_angle_beta   90.00000000
_cell_angle_gamma   132.22789407
_symmetry_Int_Tables_number   1
_chemical_formula_structural   Rb3LiPb4
_chemical_formula_sum   'Rb6 Li2 Pb8'
_cell_volume   637.33600285
_cell_formula_units_Z   2
loop_
 _symmetry_equiv_pos_site_id
 _symmetry_equiv_pos_as_xyz
  1  'x, y, z'
loop_
 _atom_site_type_symbol
 _atom_site_label
 _atom_site_symmetry_multiplicity
 _atom_site_fract_x
 _atom_site_fract_y
 _atom_site_fract_z
 _atom_site_occupancy
  Rb  Rb0  1  0.22621322  0.77378678  0.25000000  1
  Rb  Rb1  1  0.77378678  0.22621322  0.75000000  1
  Rb  Rb2  1  0.61281717  0.38718283  0.04378585  1
  Rb  Rb3  1  0.38718283  0.61281717  0.95621415  1
  Rb  Rb4  1  0.38718283  0.61281717  0.54378585  1
  Rb  Rb5  1  0.61281717  0.38718283  0.45621415  1
  Li  Li0  1  -0.00000000  0.00000000  -0.00000000  1
  Li  Li1  1  -0.00000000  0.00000000  0.50000000  1
  Pb  Pb0  1  0.18341799  0.25052711  0.25000000  1
  Pb  Pb1  1  0.81658201  0.74947289  0.75000000  1
  Pb  Pb2  1  0.74947289  0.81658201  0.25000000  1
  Pb  Pb3  1  0.25052711  0.18341799  0.75000000  1
  Pb  Pb4  1  0.83269243  0.16730757  0.10675102  1
  Pb  Pb5  1  0.16730757  0.83269243  0.89324898  1
  Pb  Pb6  1  0.16730757  0.83269243  0.60675102  1
  Pb  Pb7  1  0.83269243  0.16730757  0.39324898  1
loop_
_geom_bond_atom_site_label_1
_geom_bond_atom_site_label_2
_geom_bond_distance
_geom_bond_site_symmetry_2
Li0 Pb5 2.975555 1_544
Li0 Pb4 2.975555 1_455
Li0 Pb1 3.146009 1_444
Li0 Pb0 3.146009 1_555
Li0 Pb3 3.146009 1_554
Li0 Pb2 3.146009 1_445
Li1 Pb7 2.975555 1_455
Li1 Pb6 2.975555 1_545
Li1 Pb3 3.146009 1_555
Li1 Pb0 3.146009 1_555
Li1 Pb1 3.146009 1_445
Li1 Pb2 3.146009 1_445
Pb0 Pb4 3.107357 1_455
Pb0 Pb7 3.107357 1_455
Pb0 Rb5 3.854754 1_555
Pb0 Rb2 3.854754 1_555
Pb0 Rb4 3.967870 1_555
Pb0 Rb3 3.967870 1_554
Pb1 Pb6 3.107357 1_655
Pb1 Pb5 3.107357 1_655
Pb1 Rb3 3.854754 1_555
Pb1 Rb4 3.854754 1_555
Pb1 Rb2 3.967870 1_556
Pb1 Rb5 3.967870 1_555
Pb2 Pb7 3.107357 1_565
Pb2 Pb4 3.107357 1_565
Pb2 Rb5 3.854754 1_555
Pb2 Rb2 3.854754 1_555
Pb2 Rb4 3.967870 1_555
Pb2 Rb3 3.967870 1_554
Pb3 Pb5 3.107357 1_545
Pb3 Pb6 3.107357 1_545
Pb3 Rb4 3.854754 1_555
Pb3 Rb3 3.854754 1_555
Pb3 Rb2 3.967870 1_556
Pb3 Rb5 3.967870 1_555
Pb4 Pb7 3.053596 1_555
Pb4 Rb2 3.675089 1_555
Pb4 Rb1 3.923664 1_554
Pb4 Rb3 4.076352 1_654
Pb4 Rb3 4.076352 1_544
Pb4 Rb0 4.316644 1_545
Pb4 Rb0 4.316644 1_655
Pb5 Pb6 3.053596 1_555
Pb5 Rb3 3.675089 1_555
Pb5 Rb0 3.923664 1_556
Pb5 Rb2 4.076352 1_456
Pb5 Rb2 4.076352 1_566
Pb5 Rb1 4.316644 1_455
Pb5 Rb1 4.316644 1_565
Pb6 Rb4 3.675089 1_555
Pb6 Rb0 3.923664 1_555
Pb6 Rb5 4.076352 1_455
Pb6 Rb5 4.076352 1_565
Pb6 Rb1 4.316644 1_455
Pb6 Rb1 4.316644 1_565
Pb7 Rb5 3.675089 1_555
Pb7 Rb1 3.923664 1_555
Pb7 Rb4 4.076352 1_545
Pb7 Rb4 4.076352 1_655
Pb7 Rb0 4.316644 1_545
Pb7 Rb0 4.316644 1_655
