# generated using pymatgen
data_Pr2(SiPt)3
_symmetry_space_group_name_H-M   'P 1'
_cell_length_a   5.63694600
_cell_length_b   5.63694600
_cell_length_c   42.57168600
_cell_angle_alpha   90.00000000
_cell_angle_beta   90.00000000
_cell_angle_gamma   90.00000000
_symmetry_Int_Tables_number   1
_chemical_formula_structural   Pr2(SiPt)3
_chemical_formula_sum   'Pr16 Si24 Pt24'
_cell_volume   1352.72214293
_cell_formula_units_Z   8
loop_
 _symmetry_equiv_pos_site_id
 _symmetry_equiv_pos_as_xyz
  1  'x, y, z'
loop_
 _atom_site_type_symbol
 _atom_site_label
 _atom_site_symmetry_multiplicity
 _atom_site_fract_x
 _atom_site_fract_y
 _atom_site_fract_z
 _atom_site_occupancy
  Pr  Pr0_0  1  0.25000000  0.25000000  0.37702700  1
  Pr  Pr0_1  1  0.25000000  0.25000000  0.87702700  1
  Pr  Pr0_2  1  0.25000000  0.75000000  0.37702700  1
  Pr  Pr0_3  1  0.25000000  0.75000000  0.87702700  1
  Pr  Pr0_4  1  0.75000000  0.25000000  0.37702700  1
  Pr  Pr0_5  1  0.75000000  0.25000000  0.87702700  1
  Pr  Pr0_6  1  0.75000000  0.75000000  0.37702700  1
  Pr  Pr0_7  1  0.75000000  0.75000000  0.87702700  1
  Pr  Pr1_0  1  0.25000000  0.25000000  0.12297300  1
  Pr  Pr1_1  1  0.25000000  0.25000000  0.62297300  1
  Pr  Pr1_2  1  0.25000000  0.75000000  0.12297300  1
  Pr  Pr1_3  1  0.25000000  0.75000000  0.62297300  1
  Pr  Pr1_4  1  0.75000000  0.25000000  0.12297300  1
  Pr  Pr1_5  1  0.75000000  0.25000000  0.62297300  1
  Pr  Pr1_6  1  0.75000000  0.75000000  0.12297300  1
  Pr  Pr1_7  1  0.75000000  0.75000000  0.62297300  1
  Si  Si0_0  1  0.25000000  0.25000000  0.19480550  1
  Si  Si0_1  1  0.25000000  0.25000000  0.69480550  1
  Si  Si0_2  1  0.25000000  0.75000000  0.19480550  1
  Si  Si0_3  1  0.25000000  0.75000000  0.69480550  1
  Si  Si0_4  1  0.75000000  0.25000000  0.19480550  1
  Si  Si0_5  1  0.75000000  0.25000000  0.69480550  1
  Si  Si0_6  1  0.75000000  0.75000000  0.19480550  1
  Si  Si0_7  1  0.75000000  0.75000000  0.69480550  1
  Si  Si1_0  1  0.25000000  0.25000000  0.30519450  1
  Si  Si1_1  1  0.25000000  0.25000000  0.80519450  1
  Si  Si1_2  1  0.25000000  0.75000000  0.30519450  1
  Si  Si1_3  1  0.25000000  0.75000000  0.80519450  1
  Si  Si1_4  1  0.75000000  0.25000000  0.30519450  1
  Si  Si1_5  1  0.75000000  0.25000000  0.80519450  1
  Si  Si1_6  1  0.75000000  0.75000000  0.30519450  1
  Si  Si1_7  1  0.75000000  0.75000000  0.80519450  1
  Si  Si2_0  1  0.25000000  0.25000000  0.00000000  1
  Si  Si2_1  1  0.25000000  0.25000000  0.50000000  1
  Si  Si2_2  1  0.25000000  0.75000000  0.00000000  1
  Si  Si2_3  1  0.25000000  0.75000000  0.50000000  1
  Si  Si2_4  1  0.75000000  0.25000000  0.00000000  1
  Si  Si2_5  1  0.75000000  0.25000000  0.50000000  1
  Si  Si2_6  1  0.75000000  0.75000000  0.00000000  1
  Si  Si2_7  1  0.75000000  0.75000000  0.50000000  1
  Pt  Pt0_0  1  0.25000000  0.25000000  0.05575800  1
  Pt  Pt0_1  1  0.25000000  0.25000000  0.55575800  1
  Pt  Pt0_2  1  0.25000000  0.75000000  0.05575800  1
  Pt  Pt0_3  1  0.25000000  0.75000000  0.55575800  1
  Pt  Pt0_4  1  0.75000000  0.25000000  0.05575800  1
  Pt  Pt0_5  1  0.75000000  0.25000000  0.55575800  1
  Pt  Pt0_6  1  0.75000000  0.75000000  0.05575800  1
  Pt  Pt0_7  1  0.75000000  0.75000000  0.55575800  1
  Pt  Pt1_0  1  0.25000000  0.25000000  0.44424200  1
  Pt  Pt1_1  1  0.25000000  0.25000000  0.94424200  1
  Pt  Pt1_2  1  0.25000000  0.75000000  0.44424200  1
  Pt  Pt1_3  1  0.25000000  0.75000000  0.94424200  1
  Pt  Pt1_4  1  0.75000000  0.25000000  0.44424200  1
  Pt  Pt1_5  1  0.75000000  0.25000000  0.94424200  1
  Pt  Pt1_6  1  0.75000000  0.75000000  0.44424200  1
  Pt  Pt1_7  1  0.75000000  0.75000000  0.94424200  1
  Pt  Pt2_0  1  0.25000000  0.25000000  0.25000000  1
  Pt  Pt2_1  1  0.25000000  0.25000000  0.75000000  1
  Pt  Pt2_2  1  0.25000000  0.75000000  0.25000000  1
  Pt  Pt2_3  1  0.25000000  0.75000000  0.75000000  1
  Pt  Pt2_4  1  0.75000000  0.25000000  0.25000000  1
  Pt  Pt2_5  1  0.75000000  0.25000000  0.75000000  1
  Pt  Pt2_6  1  0.75000000  0.75000000  0.25000000  1
  Pt  Pt2_7  1  0.75000000  0.75000000  0.75000000  1
loop_
_geom_bond_atom_site_label_1
_geom_bond_atom_site_label_2
_geom_bond_distance
_geom_bond_site_symmetry_2
Pr0_0 Pr0_2 2.818473 1_555
Pr0_0 Pr0_4 2.818473 1_555
Pr0_0 Pr0_4 2.818473 1_455
Pr0_0 Pr0_2 2.818473 1_545
Pr0_0 Pt1_0 2.861456 1_555
Pr0_0 Si1_0 3.058031 1_555
Pr0_1 Pr0_3 2.818473 1_555
Pr0_1 Pr0_5 2.818473 1_555
Pr0_1 Pr0_3 2.818473 1_545
Pr0_1 Pr0_5 2.818473 1_455
Pr0_1 Pt1_1 2.861456 1_555
Pr0_1 Si1_1 3.058031 1_555
Pr0_2 Pr0_6 2.818473 1_555
Pr0_2 Pr0_6 2.818473 1_455
Pr0_2 Pt1_2 2.861456 1_555
Pr0_2 Si1_2 3.058031 1_555
Pr0_3 Pr0_7 2.818473 1_555
Pr0_3 Pr0_7 2.818473 1_455
Pr0_3 Pt1_3 2.861456 1_555
Pr0_3 Si1_3 3.058031 1_555
Pr0_4 Pr0_6 2.818473 1_555
Pr0_4 Pr0_6 2.818473 1_545
Pr0_4 Pt1_4 2.861456 1_555
Pr0_4 Si1_4 3.058031 1_555
Pr0_5 Pr0_7 2.818473 1_555
Pr0_5 Pr0_7 2.818473 1_545
Pr0_5 Pt1_5 2.861456 1_555
Pr0_5 Si1_5 3.058031 1_555
Pr0_6 Pt1_6 2.861456 1_555
Pr0_6 Si1_6 3.058031 1_555
Pr0_7 Pt1_7 2.861456 1_555
Pr0_7 Si1_7 3.058031 1_555
Pr1_0 Pr1_4 2.818473 1_555
Pr1_0 Pr1_2 2.818473 1_555
Pr1_0 Pr1_2 2.818473 1_545
Pr1_0 Pr1_4 2.818473 1_455
Pr1_0 Pt0_0 2.861456 1_555
Pr1_0 Si0_0 3.058031 1_555
Pr1_1 Pr1_3 2.818473 1_555
Pr1_1 Pr1_5 2.818473 1_555
Pr1_1 Pr1_5 2.818473 1_455
Pr1_1 Pr1_3 2.818473 1_545
Pr1_1 Pt0_1 2.861456 1_555
Pr1_1 Si0_1 3.058031 1_555
Pr1_2 Pr1_6 2.818473 1_555
Pr1_2 Pr1_6 2.818473 1_455
Pr1_2 Pt0_2 2.861456 1_555
Pr1_2 Si0_2 3.058031 1_555
Pr1_3 Pr1_7 2.818473 1_555
Pr1_3 Pr1_7 2.818473 1_455
Pr1_3 Pt0_3 2.861456 1_555
Pr1_3 Si0_3 3.058031 1_555
Pr1_4 Pr1_6 2.818473 1_555
Pr1_4 Pr1_6 2.818473 1_545
Pr1_4 Pt0_4 2.861456 1_555
Pr1_4 Si0_4 3.058031 1_555
Pr1_5 Pr1_7 2.818473 1_555
Pr1_5 Pr1_7 2.818473 1_545
Pr1_5 Pt0_5 2.861456 1_555
Pr1_5 Si0_5 3.058031 1_555
Pr1_6 Pt0_6 2.861456 1_555
Pr1_6 Si0_6 3.058031 1_555
Pr1_7 Pt0_7 2.861456 1_555
Pr1_7 Si0_7 3.058031 1_555
Pt0_0 Si2_0 2.373712 1_555
Pt0_1 Si2_1 2.373712 1_555
Pt0_2 Si2_2 2.373712 1_555
Pt0_3 Si2_3 2.373712 1_555
Pt0_4 Si2_4 2.373712 1_555
Pt0_5 Si2_5 2.373712 1_555
Pt0_6 Si2_6 2.373712 1_555
Pt0_7 Si2_7 2.373712 1_555
Pt1_0 Si2_1 2.373712 1_555
Pt1_1 Si2_0 2.373712 1_556
Pt1_2 Si2_3 2.373712 1_555
Pt1_3 Si2_2 2.373712 1_556
Pt1_4 Si2_5 2.373712 1_555
Pt1_5 Si2_4 2.373712 1_556
Pt1_6 Si2_7 2.373712 1_555
Pt1_7 Si2_6 2.373712 1_556
Pt2_0 Si1_0 2.349723 1_555
Pt2_0 Si0_0 2.349723 1_555
Pt2_1 Si0_1 2.349723 1_555
Pt2_1 Si1_1 2.349723 1_555
Pt2_2 Si1_2 2.349723 1_555
Pt2_2 Si0_2 2.349723 1_555
Pt2_3 Si1_3 2.349723 1_555
Pt2_3 Si0_3 2.349723 1_555
Pt2_4 Si1_4 2.349723 1_555
Pt2_4 Si0_4 2.349723 1_555
Pt2_5 Si1_5 2.349723 1_555
Pt2_5 Si0_5 2.349723 1_555
Pt2_6 Si1_6 2.349723 1_555
Pt2_6 Si0_6 2.349723 1_555
Pt2_7 Si0_7 2.349723 1_555
Pt2_7 Si1_7 2.349723 1_555
