# generated using pymatgen
data_Zr2V3Ge4
_symmetry_space_group_name_H-M   'P 1'
_cell_length_a   6.64778768
_cell_length_b   6.76383681
_cell_length_c   12.75797927
_cell_angle_alpha   90.00000000
_cell_angle_beta   90.00000000
_cell_angle_gamma   90.00000000
_symmetry_Int_Tables_number   1
_chemical_formula_structural   Zr2V3Ge4
_chemical_formula_sum   'Zr8 V12 Ge16'
_cell_volume   573.65680973
_cell_formula_units_Z   4
loop_
 _symmetry_equiv_pos_site_id
 _symmetry_equiv_pos_as_xyz
  1  'x, y, z'
loop_
 _atom_site_type_symbol
 _atom_site_label
 _atom_site_symmetry_multiplicity
 _atom_site_fract_x
 _atom_site_fract_y
 _atom_site_fract_z
 _atom_site_occupancy
  Zr  Zr0  1  0.49020106  0.67297096  0.09365336  1
  Zr  Zr1  1  0.99020106  0.82702904  0.40634664  1
  Zr  Zr2  1  0.50979894  0.32702904  0.59365336  1
  Zr  Zr3  1  0.00979894  0.17297096  0.90634664  1
  Zr  Zr4  1  0.50979894  0.32702904  0.90634664  1
  Zr  Zr5  1  0.00979894  0.17297096  0.59365336  1
  Zr  Zr6  1  0.49020106  0.67297096  0.40634664  1
  Zr  Zr7  1  0.99020106  0.82702904  0.09365336  1
  V  V0  1  0.33563838  0.00960155  0.25000000  1
  V  V1  1  0.83563838  0.49039845  0.25000000  1
  V  V2  1  0.66436162  0.99039845  0.75000000  1
  V  V3  1  0.16436162  0.50960155  0.75000000  1
  V  V4  1  0.65998150  0.16407257  0.12510425  1
  V  V5  1  0.15998150  0.33592743  0.37489575  1
  V  V6  1  0.34001850  0.83592743  0.62510425  1
  V  V7  1  0.84001850  0.66407257  0.87489575  1
  V  V8  1  0.34001850  0.83592743  0.87489575  1
  V  V9  1  0.84001850  0.66407257  0.62510425  1
  V  V10  1  0.65998150  0.16407257  0.37489575  1
  V  V11  1  0.15998150  0.33592743  0.12510425  1
  Ge  Ge0  1  0.69205928  0.85949360  0.25000000  1
  Ge  Ge1  1  0.19205928  0.64050640  0.25000000  1
  Ge  Ge2  1  0.30794072  0.14050640  0.75000000  1
  Ge  Ge3  1  0.80794072  0.35949360  0.75000000  1
  Ge  Ge4  1  0.67768470  0.95484980  0.95778773  1
  Ge  Ge5  1  0.17768470  0.54515020  0.54221227  1
  Ge  Ge6  1  0.32231530  0.04515020  0.45778773  1
  Ge  Ge7  1  0.82231530  0.45484980  0.04221227  1
  Ge  Ge8  1  0.32231530  0.04515020  0.04221227  1
  Ge  Ge9  1  0.82231530  0.45484980  0.45778773  1
  Ge  Ge10  1  0.67768470  0.95484980  0.54221227  1
  Ge  Ge11  1  0.17768470  0.54515020  0.95778773  1
  Ge  Ge12  1  0.46498241  0.37354302  0.25000000  1
  Ge  Ge13  1  0.96498241  0.12645698  0.25000000  1
  Ge  Ge14  1  0.53501759  0.62645698  0.75000000  1
  Ge  Ge15  1  0.03501759  0.87354302  0.75000000  1
loop_
_geom_bond_atom_site_label_1
_geom_bond_atom_site_label_2
_geom_bond_distance
_geom_bond_site_symmetry_2
Ge0 Ge13 2.559756 1_565
Ge0 V0 2.577780 1_565
Ge0 V10 2.613151 1_565
Ge0 V4 2.613151 1_565
Ge0 V1 2.672742 1_555
Ge0 Zr0 2.714973 1_555
Ge0 Zr6 2.714973 1_555
Ge0 Zr7 2.820492 1_555
Ge0 Zr1 2.820492 1_555
Ge1 Ge12 2.559756 1_555
Ge1 V1 2.577780 1_455
Ge1 V11 2.613151 1_555
Ge1 V5 2.613151 1_555
Ge1 V0 2.672742 1_565
Ge1 Zr7 2.714973 1_455
Ge1 Zr1 2.714973 1_455
Ge1 Zr0 2.820492 1_555
Ge1 Zr6 2.820492 1_555
Ge2 V2 2.577780 1_545
Ge2 V8 2.613151 1_545
Ge2 V6 2.613151 1_545
Ge2 V3 2.672742 1_555
Ge2 Zr4 2.714973 1_555
Ge2 Zr2 2.714973 1_555
Ge2 Zr5 2.820492 1_555
Ge2 Zr3 2.820492 1_555
Ge3 V3 2.577780 1_655
Ge3 V7 2.613151 1_555
Ge3 V9 2.613151 1_555
Ge3 V2 2.672742 1_545
Ge3 Zr5 2.714973 1_655
Ge3 Zr3 2.714973 1_655
Ge3 Zr2 2.820492 1_555
Ge3 Zr4 2.820492 1_555
Ge4 V7 2.480151 1_555
Ge4 V4 2.563806 1_566
Ge4 V8 2.608490 1_555
Ge4 V2 2.663307 1_555
Ge4 Zr3 2.735291 1_665
Ge4 Zr4 2.830798 1_565
Ge4 Zr7 2.840461 1_556
Ge4 Zr0 2.862346 1_556
Ge5 V6 2.480151 1_555
Ge5 V5 2.563806 1_555
Ge5 V9 2.608490 1_455
Ge5 V3 2.663307 1_555
Ge5 Zr2 2.735291 1_555
Ge5 Zr5 2.830798 1_555
Ge5 Zr6 2.840461 1_555
Ge5 Zr1 2.862346 1_455
Ge6 V5 2.480151 1_555
Ge6 V6 2.563806 1_545
Ge6 V10 2.608490 1_555
Ge6 V0 2.663307 1_555
Ge6 Zr1 2.735291 1_445
Ge6 Zr6 2.830798 1_545
Ge6 Zr5 2.840461 1_555
Ge6 Zr2 2.862346 1_555
Ge7 V4 2.480151 1_555
Ge7 V7 2.563806 1_554
Ge7 V11 2.608490 1_655
Ge7 V1 2.663307 1_555
Ge7 Zr0 2.735291 1_555
Ge7 Zr7 2.830798 1_555
Ge7 Zr4 2.840461 1_554
Ge7 Zr3 2.862346 1_654
Ge8 V11 2.480151 1_555
Ge8 V8 2.563806 1_544
Ge8 V4 2.608490 1_555
Ge8 V0 2.663307 1_555
Ge8 Zr7 2.735291 1_445
Ge8 Zr0 2.830798 1_545
Ge8 Zr3 2.840461 1_554
Ge8 Zr4 2.862346 1_554
Ge9 V10 2.480151 1_555
Ge9 V9 2.563806 1_555
Ge9 V5 2.608490 1_655
Ge9 V1 2.663307 1_555
Ge9 Zr6 2.735291 1_555
Ge9 Zr1 2.830798 1_555
Ge9 Zr2 2.840461 1_555
Ge9 Zr5 2.862346 1_655
Ge10 V9 2.480151 1_555
Ge10 V10 2.563806 1_565
Ge10 V6 2.608490 1_555
Ge10 V2 2.663307 1_555
Ge10 Zr5 2.735291 1_665
Ge10 Zr2 2.830798 1_565
Ge10 Zr1 2.840461 1_555
Ge10 Zr6 2.862346 1_555
Ge11 V8 2.480151 1_555
Ge11 V11 2.563806 1_556
Ge11 V7 2.608490 1_455
Ge11 V3 2.663307 1_555
Ge11 Zr4 2.735291 1_555
Ge11 Zr3 2.830798 1_555
Ge11 Zr0 2.840461 1_556
Ge11 Zr7 2.862346 1_456
Ge12 V4 2.495355 1_555
Ge12 V10 2.495355 1_555
Ge12 V1 2.587706 1_555
Ge12 V5 2.591293 1_555
Ge12 V11 2.591293 1_555
Ge12 V0 2.607493 1_555
Ge12 Zr0 2.847555 1_555
Ge12 Zr6 2.847555 1_555
Ge13 V11 2.495355 1_655
Ge13 V5 2.495355 1_655
Ge13 V0 2.587706 1_655
Ge13 V4 2.591293 1_555
Ge13 V10 2.591293 1_555
Ge13 V1 2.607493 1_555
Ge13 Zr1 2.847555 1_545
Ge13 Zr7 2.847555 1_545
Ge14 V8 2.495355 1_555
Ge14 V6 2.495355 1_555
Ge14 Ge3 2.559756 1_555
Ge14 V3 2.587706 1_555
Ge14 V9 2.591293 1_555
Ge14 V7 2.591293 1_555
Ge14 V2 2.607493 1_555
Ge14 Zr4 2.847555 1_555
Ge14 Zr2 2.847555 1_555
Ge15 V9 2.495355 1_455
Ge15 V7 2.495355 1_455
Ge15 Ge2 2.559756 1_565
Ge15 V2 2.587706 1_455
Ge15 V6 2.591293 1_555
Ge15 V8 2.591293 1_555
Ge15 V3 2.607493 1_555
Ge15 Zr5 2.847555 1_565
Ge15 Zr3 2.847555 1_565
