# generated using pymatgen
data_Ni2BiB(PO5)2
_symmetry_space_group_name_H-M   'P 1'
_cell_length_a   5.11080075
_cell_length_b   6.40132604
_cell_length_c   11.35912700
_cell_angle_alpha   89.99996192
_cell_angle_beta   90.00004762
_cell_angle_gamma   107.03887436
_symmetry_Int_Tables_number   1
_chemical_formula_structural   Ni2BiB(PO5)2
_chemical_formula_sum   'Ni4 Bi2 B2 P4 O20'
_cell_volume   355.31207897
_cell_formula_units_Z   2
loop_
 _symmetry_equiv_pos_site_id
 _symmetry_equiv_pos_as_xyz
  1  'x, y, z'
loop_
 _atom_site_type_symbol
 _atom_site_label
 _atom_site_symmetry_multiplicity
 _atom_site_fract_x
 _atom_site_fract_y
 _atom_site_fract_z
 _atom_site_occupancy
  Ni  Ni0  1  0.34925000  0.33516200  0.39454100  1
  Ni  Ni1  1  0.65075900  0.66484000  0.89454000  1
  Ni  Ni2  1  0.65010000  0.66491400  0.60559100  1
  Ni  Ni3  1  0.34990400  0.33508600  0.10559400  1
  Bi  Bi0  1  0.25039200  0.94130300  0.74997100  1
  Bi  Bi1  1  0.74960900  0.05869600  0.24997100  1
  B  B0  1  0.06004800  0.48688700  0.74998700  1
  B  B1  1  0.93995200  0.51311300  0.24998700  1
  P  P0  1  0.79240400  0.21415200  0.56453800  1
  P  P1  1  0.20759500  0.78584700  0.06453900  1
  P  P2  1  0.20757200  0.78583900  0.43544700  1
  P  P3  1  0.79242700  0.21416200  0.93544800  1
  O  O0  1  0.87424600  0.62573900  0.75000500  1
  O  O1  1  0.12575300  0.37426000  0.25000600  1
  O  O2  1  0.34739600  0.63293500  0.74997800  1
  O  O3  1  0.65260300  0.36706500  0.24997800  1
  O  O4  1  0.03144500  0.34467300  0.64506500  1
  O  O5  1  0.96855300  0.65532700  0.14506500  1
  O  O6  1  0.96855600  0.65530900  0.35490700  1
  O  O7  1  0.03144200  0.34469100  0.85490700  1
  O  O8  1  0.64486000  0.99230200  0.62520200  1
  O  O9  1  0.35513800  0.00769800  0.12520300  1
  O  O10  1  0.35514500  0.00765000  0.37476100  1
  O  O11  1  0.64485300  0.99235000  0.87476100  1
  O  O12  1  0.93045900  0.18106000  0.44874400  1
  O  O13  1  0.06954000  0.81894000  0.94874500  1
  O  O14  1  0.06955300  0.81895100  0.55124200  1
  O  O15  1  0.93044600  0.18104900  0.05124200  1
  O  O16  1  0.58358900  0.34554500  0.54883500  1
  O  O17  1  0.41641200  0.65445500  0.04883600  1
  O  O18  1  0.41635400  0.65438700  0.45118100  1
  O  O19  1  0.58364500  0.34561400  0.95118200  1
loop_
_geom_bond_atom_site_label_1
_geom_bond_atom_site_label_2
_geom_bond_distance
_geom_bond_site_symmetry_2
Ni0 O1 2.056790 1_555
Ni0 O18 2.072823 1_555
Ni0 O16 2.112799 1_555
Ni0 O10 2.117491 1_555
Ni0 O12 2.167017 1_455
Ni0 O3 2.226286 1_555
Ni1 O0 2.056767 1_555
Ni1 O19 2.072829 1_555
Ni1 O17 2.112840 1_556
Ni1 O11 2.117493 1_555
Ni1 O13 2.166977 1_655
Ni1 O2 2.226309 1_555
Ni2 O0 2.057797 1_555
Ni2 O16 2.074472 1_555
Ni2 O18 2.112081 1_555
Ni2 O8 2.115482 1_555
Ni2 O14 2.170311 1_655
Ni2 O2 2.222536 1_555
Ni3 O1 2.057793 1_555
Ni3 O17 2.074481 1_555
Ni3 O19 2.112086 1_554
Ni3 O9 2.115470 1_555
Ni3 O15 2.170342 1_455
Ni3 O3 2.222493 1_555
Bi0 O2 2.171598 1_555
Bi0 O0 2.345289 1_455
Bi0 O8 2.407065 1_555
Bi0 O11 2.407142 1_555
Bi0 O14 2.477743 1_555
Bi0 O13 2.478242 1_555
Bi1 O3 2.171609 1_555
Bi1 O1 2.345283 1_655
Bi1 O9 2.407070 1_555
Bi1 O10 2.407157 1_555
Bi1 O15 2.477742 1_555
Bi1 O12 2.478230 1_555
B0 O0 1.478650 1_455
B0 O7 1.480646 1_555
B0 O4 1.480734 1_555
B0 O2 1.492026 1_555
B1 O1 1.478651 1_655
B1 O6 1.480648 1_555
B1 O5 1.480734 1_555
B1 O3 1.492030 1_555
O4 P0 1.558562 1_455
O5 P1 1.558557 1_655
O6 P2 1.558586 1_655
O7 P3 1.558588 1_455
O8 P0 1.559701 1_565
O9 P1 1.559705 1_545
O10 P2 1.559651 1_545
O11 P3 1.559663 1_565
O12 P0 1.536347 1_555
O13 P1 1.536347 1_556
O14 P2 1.536299 1_555
O15 P3 1.536290 1_554
O16 P0 1.550558 1_555
O17 P1 1.550563 1_555
O18 P2 1.550737 1_555
O19 P3 1.550737 1_555
