# generated using pymatgen
data_Mg3CuO4
_symmetry_space_group_name_H-M   'P 1'
_cell_length_a   4.19964400
_cell_length_b   4.19964400
_cell_length_c   4.19964400
_cell_angle_alpha   90.00000000
_cell_angle_beta   90.00000000
_cell_angle_gamma   90.00000000
_symmetry_Int_Tables_number   1
_chemical_formula_structural   Mg3CuO4
_chemical_formula_sum   'Mg3 Cu1 O4'
_cell_volume   74.06916208
_cell_formula_units_Z   1
loop_
 _symmetry_equiv_pos_site_id
 _symmetry_equiv_pos_as_xyz
  1  'x, y, z'
loop_
 _atom_site_type_symbol
 _atom_site_label
 _atom_site_symmetry_multiplicity
 _atom_site_fract_x
 _atom_site_fract_y
 _atom_site_fract_z
 _atom_site_occupancy
  Mg  Mg0  1  0.00000000  0.50000000  0.50000000  1
  Mg  Mg1  1  0.50000000  0.00000000  0.50000000  1
  Mg  Mg2  1  0.50000000  0.50000000  0.00000000  1
  Cu  Cu0  1  0.00000000  0.00000000  0.00000000  1
  O  O0  1  0.50000000  0.00000000  0.00000000  1
  O  O1  1  0.50000000  0.50000000  0.50000000  1
  O  O2  1  0.00000000  0.00000000  0.50000000  1
  O  O3  1  0.00000000  0.50000000  0.00000000  1
loop_
_geom_bond_atom_site_label_1
_geom_bond_atom_site_label_2
_geom_bond_distance
_geom_bond_site_symmetry_2
Mg0 O1 2.099822 1_555
Mg0 O3 2.099822 1_555
Mg0 O3 2.099822 1_556
Mg0 O2 2.099822 1_555
Mg0 O2 2.099822 1_565
Mg0 O1 2.099822 1_455
Mg1 O1 2.099822 1_555
Mg1 O1 2.099822 1_545
Mg1 O2 2.099822 1_655
Mg1 O0 2.099822 1_555
Mg1 O0 2.099822 1_556
Mg1 O2 2.099822 1_555
Mg2 O1 2.099822 1_555
Mg2 O1 2.099822 1_554
Mg2 O0 2.099822 1_565
Mg2 O3 2.099822 1_655
Mg2 O3 2.099822 1_555
Mg2 O0 2.099822 1_555
Cu0 O3 2.099822 1_545
Cu0 O2 2.099822 1_554
Cu0 O3 2.099822 1_555
Cu0 O0 2.099822 1_455
Cu0 O0 2.099822 1_555
Cu0 O2 2.099822 1_555
