# generated using pymatgen
data_SbXeO2F7
_symmetry_space_group_name_H-M   'P 1'
_cell_length_a   9.22714500
_cell_length_b   9.23484100
_cell_length_c   9.24449296
_cell_angle_alpha   92.57681349
_cell_angle_beta   92.67328122
_cell_angle_gamma   92.48551719
_symmetry_Int_Tables_number   1
_chemical_formula_structural   SbXeO2F7
_chemical_formula_sum   'Sb4 Xe4 O8 F28'
_cell_volume   785.26533467
_cell_formula_units_Z   4
loop_
 _symmetry_equiv_pos_site_id
 _symmetry_equiv_pos_as_xyz
  1  'x, y, z'
loop_
 _atom_site_type_symbol
 _atom_site_label
 _atom_site_symmetry_multiplicity
 _atom_site_fract_x
 _atom_site_fract_y
 _atom_site_fract_z
 _atom_site_occupancy
  Sb  Sb0  1  0.82824900  0.82829400  0.82823600  1
  Sb  Sb1  1  0.23696000  0.77245700  0.45083200  1
  Sb  Sb2  1  0.77031200  0.45017400  0.23717700  1
  Sb  Sb3  1  0.45038600  0.23718100  0.77055500  1
  Xe  Xe0  1  0.69340000  0.92648500  0.35956300  1
  Xe  Xe1  1  0.92545700  0.35982600  0.69293300  1
  Xe  Xe2  1  0.36020300  0.69262400  0.92617400  1
  Xe  Xe3  1  0.29296300  0.31097900  0.30104700  1
  O  O0  1  0.65471500  0.10151600  0.44937200  1
  O  O1  1  0.10118800  0.44970700  0.65498200  1
  O  O2  1  0.45003300  0.65489200  0.10210200  1
  O  O3  1  0.62674500  0.93267600  0.16871800  1
  O  O4  1  0.93269200  0.16939300  0.62687000  1
  O  O5  1  0.16940500  0.62655200  0.93295400  1
  O  O6  1  0.11751600  0.24939700  0.37007100  1
  O  O7  1  0.25707700  0.36537600  0.11381000  1
  F  F0  1  0.28149100  0.56936300  0.40005300  1
  F  F1  1  0.56982800  0.39978700  0.28122200  1
  F  F2  1  0.39993200  0.28154200  0.57015600  1
  F  F3  1  0.04434200  0.71002400  0.48671400  1
  F  F4  1  0.71056400  0.48746300  0.04403000  1
  F  F5  1  0.48715700  0.04401000  0.71036600  1
  F  F6  1  0.62476700  0.77093800  0.85341200  1
  F  F7  1  0.77082200  0.85341300  0.62494100  1
  F  F8  1  0.85364400  0.62489500  0.77098500  1
  F  F9  1  0.19395800  0.80025100  0.25204300  1
  F  F10  1  0.80155700  0.25188200  0.19433500  1
  F  F11  1  0.25177000  0.19467600  0.80143700  1
  F  F12  1  0.78900400  0.02401400  0.87601400  1
  F  F13  1  0.02419200  0.87572100  0.78909300  1
  F  F14  1  0.87630400  0.78896500  0.02397400  1
  F  F15  1  0.21075700  0.96854800  0.50660300  1
  F  F16  1  0.96740200  0.50597600  0.21207500  1
  F  F17  1  0.50672000  0.21139500  0.96693200  1
  F  F18  1  0.30150900  0.72946900  0.64649700  1
  F  F19  1  0.73011100  0.64732800  0.30147000  1
  F  F20  1  0.64746600  0.30155700  0.73032100  1
  F  F21  1  0.44333400  0.81696700  0.42014700  1
  F  F22  1  0.81862500  0.42006700  0.44373000  1
  F  F23  1  0.41985400  0.44414800  0.81813400  1
  F  F24  1  0.36821000  0.11164000  0.25180900  1
  F  F25  1  0.90895300  0.96558400  0.33410100  1
  F  F26  1  0.96568700  0.33426300  0.90794300  1
  F  F27  1  0.33398100  0.90772200  0.96530700  1
loop_
_geom_bond_atom_site_label_1
_geom_bond_atom_site_label_2
_geom_bond_distance
_geom_bond_site_symmetry_2
O0 Xe0 1.840224 1_545
O1 Xe1 1.844942 1_455
O2 Xe2 1.844932 1_554
O3 Xe0 1.845283 1_555
O4 Xe1 1.840540 1_555
O5 Xe2 1.842885 1_555
O6 Xe3 1.844037 1_555
O7 Xe3 1.843149 1_555
F0 Sb1 1.978008 1_555
F0 Xe3 2.525296 1_555
F1 Sb2 1.953730 1_555
F1 Xe3 2.666088 1_555
F2 Sb3 1.954731 1_555
F2 Xe3 2.663113 1_555
F3 Sb1 1.893307 1_555
F4 Sb2 1.894894 1_555
F5 Sb3 1.894171 1_555
F6 Sb0 1.955898 1_555
F6 Xe2 2.641704 1_555
F7 Sb0 1.955390 1_555
F7 Xe0 2.647925 1_555
F8 Sb0 1.955403 1_555
F8 Xe1 2.641637 1_555
F9 Sb1 1.893067 1_555
F10 Sb2 1.893272 1_555
F11 Sb3 1.894916 1_555
F12 Sb0 1.895513 1_545
F13 Sb0 1.896895 1_455
F14 Sb0 1.897637 1_554
F15 Sb1 1.889226 1_555
F16 Sb2 1.896172 1_555
F17 Sb3 1.893193 1_555
F18 Sb1 1.941331 1_555
F18 Xe2 2.656731 1_555
F19 Sb2 1.946174 1_555
F19 Xe0 2.649020 1_555
F20 Sb3 1.946246 1_555
F20 Xe1 2.639749 1_555
F21 Sb1 1.966862 1_555
F21 Xe0 2.574823 1_555
F22 Sb2 1.975151 1_555
F22 Xe1 2.557236 1_555
F23 Sb3 1.977017 1_555
F23 Xe2 2.553548 1_555
F24 Xe3 2.035445 1_555
F25 Xe0 2.032408 1_555
F26 Xe1 2.031078 1_555
F27 Xe2 2.029882 1_555
