# generated using pymatgen
data_MnO
_symmetry_space_group_name_H-M   'P 1'
_cell_length_a   3.15460529
_cell_length_b   4.39705891
_cell_length_c   6.19318731
_cell_angle_alpha   90.00000076
_cell_angle_beta   90.00101439
_cell_angle_gamma   89.99994390
_symmetry_Int_Tables_number   1
_chemical_formula_structural   MnO
_chemical_formula_sum   'Mn4 O4'
_cell_volume   85.90561004
_cell_formula_units_Z   4
loop_
 _symmetry_equiv_pos_site_id
 _symmetry_equiv_pos_as_xyz
  1  'x, y, z'
loop_
 _atom_site_type_symbol
 _atom_site_label
 _atom_site_symmetry_multiplicity
 _atom_site_fract_x
 _atom_site_fract_y
 _atom_site_fract_z
 _atom_site_occupancy
  Mn  Mn0  1  0.50000342  0.49999947  0.73913940  1
  Mn  Mn1  1  0.00000151  0.00000038  0.01085157  1
  Mn  Mn2  1  0.49997282  0.49999947  0.23913476  1
  Mn  Mn3  1  0.00000868  0.00000006  0.51078809  1
  O  O0  1  0.00000238  0.49999986  0.49314103  1
  O  O1  1  0.50000386  0.00000055  0.75692311  1
  O  O2  1  0.00000306  0.49999951  0.99310319  1
  O  O3  1  0.50000427  0.00000070  0.25691984  1
loop_
_geom_bond_atom_site_label_1
_geom_bond_atom_site_label_2
_geom_bond_distance
_geom_bond_site_symmetry_2
Mn0 O0 2.192921 1_555
Mn0 O0 2.192955 1_655
Mn0 O1 2.201282 1_555
Mn0 O1 2.201291 1_565
Mn0 O2 2.227473 1_655
Mn0 O2 2.227514 1_555
Mn1 O3 2.193226 1_555
Mn1 O3 2.193252 1_455
Mn1 O2 2.201272 1_554
Mn1 O2 2.201279 1_544
Mn1 O1 2.227314 1_454
Mn1 O1 2.227364 1_554
Mn2 O2 2.192993 1_554
Mn2 O2 2.193169 1_654
Mn2 O3 2.201281 1_555
Mn2 O3 2.201292 1_565
Mn2 O0 2.227633 1_555
Mn2 O0 2.227725 1_655
Mn3 O1 2.193496 1_555
Mn3 O1 2.193557 1_455
Mn3 O0 2.201243 1_555
Mn3 O0 2.201245 1_545
Mn3 O3 2.227066 1_455
Mn3 O3 2.227085 1_555
