# generated using pymatgen
data_RbNaMg14O15
_symmetry_space_group_name_H-M   'P 1'
_cell_length_a   4.20504300
_cell_length_b   8.38365300
_cell_length_c   10.38118700
_cell_angle_alpha   90.00000000
_cell_angle_beta   90.00000000
_cell_angle_gamma   90.00000000
_symmetry_Int_Tables_number   1
_chemical_formula_structural   RbNaMg14O15
_chemical_formula_sum   'Rb1 Na1 Mg14 O15'
_cell_volume   365.97443579
_cell_formula_units_Z   1
loop_
 _symmetry_equiv_pos_site_id
 _symmetry_equiv_pos_as_xyz
  1  'x, y, z'
loop_
 _atom_site_type_symbol
 _atom_site_label
 _atom_site_symmetry_multiplicity
 _atom_site_fract_x
 _atom_site_fract_y
 _atom_site_fract_z
 _atom_site_occupancy
  Rb  Rb0  1  0.00000000  0.50000000  0.05313400  1
  Na  Na0  1  0.00000000  0.00000000  0.03597600  1
  Mg  Mg0  1  0.00000000  0.00000000  0.47674200  1
  Mg  Mg1  1  0.00000000  0.50000000  0.51330400  1
  Mg  Mg2  1  0.50000000  0.74611400  0.94090300  1
  Mg  Mg3  1  0.50000000  0.25388600  0.94090300  1
  Mg  Mg4  1  0.50000000  0.76345300  0.51763300  1
  Mg  Mg5  1  0.50000000  0.23654700  0.51763300  1
  Mg  Mg6  1  0.50000000  0.00000000  0.79708700  1
  Mg  Mg7  1  0.50000000  0.50000000  0.73012000  1
  Mg  Mg8  1  0.50000000  0.00000000  0.26786400  1
  Mg  Mg9  1  0.50000000  0.50000000  0.31719000  1
  Mg  Mg10  1  0.00000000  0.72986200  0.73436600  1
  Mg  Mg11  1  0.00000000  0.27013800  0.73436600  1
  Mg  Mg12  1  0.00000000  0.74688900  0.30321400  1
  Mg  Mg13  1  0.00000000  0.25311100  0.30321400  1
  O  O0  1  0.00000000  0.50000000  0.70385500  1
  O  O1  1  0.00000000  0.00000000  0.27533700  1
  O  O2  1  0.00000000  0.50000000  0.31546100  1
  O  O3  1  0.50000000  0.77920200  0.72173600  1
  O  O4  1  0.50000000  0.22079800  0.72173600  1
  O  O5  1  0.50000000  0.74256100  0.28365100  1
  O  O6  1  0.50000000  0.25743900  0.28365100  1
  O  O7  1  0.50000000  0.00000000  0.98604600  1
  O  O8  1  0.50000000  0.50000000  0.92013500  1
  O  O9  1  0.50000000  0.00000000  0.47858600  1
  O  O10  1  0.50000000  0.50000000  0.51654400  1
  O  O11  1  0.00000000  0.77464600  0.91783500  1
  O  O12  1  0.00000000  0.22535400  0.91783500  1
  O  O13  1  0.00000000  0.76183400  0.51197200  1
  O  O14  1  0.00000000  0.23816600  0.51197200  1
loop_
_geom_bond_atom_site_label_1
_geom_bond_atom_site_label_2
_geom_bond_distance
_geom_bond_site_symmetry_2
Na0 O7 2.165471 1_554
Na0 O7 2.165471 1_454
Na0 O12 2.252461 1_554
Na0 O11 2.252461 1_544
Na0 O1 2.484851 1_555
Mg0 O14 2.029919 1_555
Mg0 O13 2.029919 1_545
Mg0 O1 2.090823 1_555
Mg0 O9 2.102609 1_455
Mg0 O9 2.102609 1_555
Mg1 O0 1.978146 1_555
Mg1 O2 2.053845 1_555
Mg1 O10 2.102791 1_555
Mg1 O10 2.102791 1_455
Mg1 O13 2.195169 1_555
Mg1 O14 2.195169 1_555
Mg2 O8 2.074568 1_555
Mg2 O11 2.129592 1_555
Mg2 O11 2.129592 1_655
Mg2 O7 2.179472 1_565
Mg2 O3 2.292062 1_555
Mg3 O8 2.074568 1_555
Mg3 O12 2.129592 1_555
Mg3 O12 2.129592 1_655
Mg3 O7 2.179472 1_555
Mg3 O4 2.292062 1_555
Mg4 O9 2.024132 1_565
Mg4 O13 2.103386 1_655
Mg4 O13 2.103386 1_555
Mg4 O3 2.122941 1_555
Mg4 O10 2.208727 1_555
Mg4 O5 2.435318 1_555
Mg5 O9 2.024132 1_555
Mg5 O14 2.103386 1_555
Mg5 O14 2.103386 1_655
Mg5 O4 2.122941 1_555
Mg5 O10 2.208727 1_555
Mg5 O6 2.435318 1_555
Mg6 O7 1.961619 1_555
Mg6 O4 2.009586 1_555
Mg6 O3 2.009586 1_545
Mg7 O8 1.972581 1_555
Mg7 O0 2.120128 1_655
Mg7 O0 2.120128 1_555
Mg7 O10 2.217172 1_555
Mg7 O3 2.342350 1_555
Mg7 O4 2.342350 1_555
Mg8 O1 2.103952 1_555
Mg8 O1 2.103952 1_655
Mg8 O6 2.164493 1_555
Mg8 O5 2.164493 1_545
Mg8 O9 2.187544 1_555
Mg9 O5 2.063138 1_555
Mg9 O6 2.063138 1_555
Mg9 O10 2.069531 1_555
Mg9 O2 2.102598 1_655
Mg9 O2 2.102598 1_555
Mg10 O11 1.941279 1_555
Mg10 O0 1.952940 1_555
Mg10 O3 2.146833 1_455
Mg10 O3 2.146833 1_555
Mg10 O13 2.324221 1_555
Mg11 O12 1.941279 1_555
Mg11 O0 1.952940 1_555
Mg11 O4 2.146833 1_455
Mg11 O4 2.146833 1_555
Mg11 O14 2.324221 1_555
Mg12 O2 2.073733 1_555
Mg12 O5 2.112619 1_555
Mg12 O5 2.112619 1_455
Mg12 O1 2.141638 1_565
Mg12 O13 2.170775 1_555
Mg13 O2 2.073733 1_555
Mg13 O6 2.112619 1_455
Mg13 O6 2.112619 1_555
Mg13 O1 2.141638 1_555
Mg13 O14 2.170775 1_555
O2 Rb0 2.723266 1_555
O8 Rb0 2.515332 1_556
O8 Rb0 2.515332 1_656
O11 Rb0 2.697124 1_556
O12 Rb0 2.697124 1_556
