# generated using pymatgen
data_CaAsHO5
_symmetry_space_group_name_H-M   'P 1'
_cell_length_a   6.82907300
_cell_length_b   7.93273600
_cell_length_c   16.32287400
_cell_angle_alpha   90.00000000
_cell_angle_beta   90.00000000
_cell_angle_gamma   90.00000000
_symmetry_Int_Tables_number   1
_chemical_formula_structural   CaAsHO5
_chemical_formula_sum   'Ca8 As8 H8 O40'
_cell_volume   884.26286025
_cell_formula_units_Z   8
loop_
 _symmetry_equiv_pos_site_id
 _symmetry_equiv_pos_as_xyz
  1  'x, y, z'
loop_
 _atom_site_type_symbol
 _atom_site_label
 _atom_site_symmetry_multiplicity
 _atom_site_fract_x
 _atom_site_fract_y
 _atom_site_fract_z
 _atom_site_occupancy
  Ca  Ca0  1  0.87288700  0.68265800  0.04759400  1
  Ca  Ca1  1  0.62711300  0.81734200  0.54759400  1
  Ca  Ca2  1  0.37288700  0.81734200  0.95240600  1
  Ca  Ca3  1  0.12711300  0.68265800  0.45240600  1
  Ca  Ca4  1  0.12711300  0.31734200  0.95240600  1
  Ca  Ca5  1  0.37288700  0.18265800  0.45240600  1
  Ca  Ca6  1  0.62711300  0.18265800  0.04759400  1
  Ca  Ca7  1  0.87288700  0.31734200  0.54759400  1
  As  As0  1  0.87157400  0.06558100  0.38642900  1
  As  As1  1  0.62842600  0.43441900  0.88642900  1
  As  As2  1  0.37157400  0.43441900  0.61357100  1
  As  As3  1  0.12842600  0.06558100  0.11357100  1
  As  As4  1  0.12842600  0.93441900  0.61357100  1
  As  As5  1  0.37157400  0.56558100  0.11357100  1
  As  As6  1  0.62842600  0.56558100  0.38642900  1
  As  As7  1  0.87157400  0.93441900  0.88642900  1
  H  H0  1  0.67861800  0.24157800  0.31308500  1
  H  H1  1  0.82138200  0.25842200  0.81308500  1
  H  H2  1  0.17861800  0.25842200  0.68691500  1
  H  H3  1  0.32138200  0.24157800  0.18691500  1
  H  H4  1  0.32138200  0.75842200  0.68691500  1
  H  H5  1  0.17861800  0.74157800  0.18691500  1
  H  H6  1  0.82138200  0.74157800  0.31308500  1
  H  H7  1  0.67861800  0.75842200  0.81308500  1
  O  O0  1  0.69938100  0.05837700  0.46409400  1
  O  O1  1  0.80061900  0.44162300  0.96409400  1
  O  O2  1  0.19938100  0.44162300  0.53590600  1
  O  O3  1  0.30061900  0.05837700  0.03590600  1
  O  O4  1  0.30061900  0.94162300  0.53590600  1
  O  O5  1  0.19938100  0.55837700  0.03590600  1
  O  O6  1  0.80061900  0.55837700  0.46409400  1
  O  O7  1  0.69938100  0.94162300  0.96409400  1
  O  O8  1  0.03912000  0.20711100  0.42506800  1
  O  O9  1  0.46088100  0.29288900  0.92506800  1
  O  O10  1  0.53911900  0.29288900  0.57493200  1
  O  O11  1  0.96088100  0.20711100  0.07493200  1
  O  O12  1  0.96088100  0.79288900  0.57493200  1
  O  O13  1  0.53911900  0.70711100  0.07493200  1
  O  O14  1  0.46088100  0.70711100  0.42506800  1
  O  O15  1  0.03912000  0.79288900  0.92506800  1
  O  O16  1  0.96897900  0.87335600  0.36491300  1
  O  O17  1  0.53102100  0.62664400  0.86491300  1
  O  O18  1  0.46897900  0.62664400  0.63508700  1
  O  O19  1  0.03102100  0.87335600  0.13508700  1
  O  O20  1  0.03102100  0.12664400  0.63508700  1
  O  O21  1  0.46897900  0.37335600  0.13508700  1
  O  O22  1  0.53102100  0.37335600  0.36491300  1
  O  O23  1  0.96897900  0.12664400  0.86491300  1
  O  O24  1  0.76036800  0.14026300  0.29668900  1
  O  O25  1  0.73963200  0.35973700  0.79668900  1
  O  O26  1  0.26036800  0.35973700  0.70331100  1
  O  O27  1  0.23963200  0.14026300  0.20331100  1
  O  O28  1  0.23963200  0.85973700  0.70331100  1
  O  O29  1  0.26036800  0.64026300  0.20331100  1
  O  O30  1  0.73963200  0.64026300  0.29668900  1
  O  O31  1  0.76036800  0.85973700  0.79668900  1
  O  O32  1  0.88793400  0.46152400  0.15900600  1
  O  O33  1  0.61206600  0.03847600  0.65900600  1
  O  O34  1  0.38793400  0.03847600  0.84099400  1
  O  O35  1  0.11206600  0.46152400  0.34099400  1
  O  O36  1  0.11206600  0.53847600  0.84099400  1
  O  O37  1  0.38793400  0.96152400  0.34099400  1
  O  O38  1  0.61206600  0.96152400  0.15900600  1
  O  O39  1  0.88793400  0.53847600  0.65900600  1
loop_
_geom_bond_atom_site_label_1
_geom_bond_atom_site_label_2
_geom_bond_distance
_geom_bond_site_symmetry_2
Ca0 O13 2.330682 1_555
Ca0 O19 2.343974 1_655
Ca0 O1 2.399422 1_554
Ca0 O5 2.445346 1_655
Ca0 O15 2.460337 1_654
Ca0 O32 2.528823 1_555
Ca0 O7 2.735282 1_554
Ca1 O12 2.330682 1_555
Ca1 O18 2.343974 1_555
Ca1 O0 2.399422 1_565
Ca1 O4 2.445346 1_555
Ca1 O14 2.460334 1_555
Ca1 O33 2.528823 1_565
Ca1 O6 2.735282 1_555
Ca2 O15 2.330676 1_555
Ca2 O17 2.343974 1_555
Ca2 O3 2.399422 1_566
Ca2 O7 2.445346 1_555
Ca2 O13 2.460334 1_556
Ca2 O34 2.528823 1_565
Ca2 O5 2.735282 1_556
Ca3 O14 2.330682 1_555
Ca3 O16 2.343974 1_455
Ca3 O2 2.399422 1_555
Ca3 O6 2.445346 1_455
Ca3 O12 2.460334 1_455
Ca3 O35 2.528823 1_555
Ca3 O4 2.735282 1_555
Ca4 O9 2.330682 1_555
Ca4 O23 2.343974 1_455
Ca4 O5 2.399422 1_556
Ca4 O1 2.445346 1_455
Ca4 O11 2.460334 1_456
Ca4 O36 2.528823 1_555
Ca4 O3 2.735282 1_556
Ca5 O8 2.330676 1_555
Ca5 O22 2.343974 1_555
Ca5 O4 2.399422 1_545
Ca5 O0 2.445346 1_555
Ca5 O10 2.460334 1_555
Ca5 O37 2.528823 1_545
Ca5 O2 2.735282 1_555
Ca6 O11 2.330682 1_555
Ca6 O21 2.343974 1_555
Ca6 O7 2.399422 1_544
Ca6 O3 2.445346 1_555
Ca6 O9 2.460334 1_554
Ca6 O38 2.528823 1_545
Ca6 O1 2.735282 1_554
Ca7 O10 2.330682 1_555
Ca7 O20 2.343974 1_655
Ca7 O6 2.399422 1_555
Ca7 O2 2.445346 1_655
Ca7 O8 2.460337 1_655
Ca7 O39 2.528823 1_555
Ca7 O0 2.735282 1_555
As0 O16 1.700307 1_545
As0 O8 1.722626 1_655
As0 O0 1.730073 1_555
As0 O24 1.753111 1_555
As1 O17 1.700307 1_555
As1 O9 1.722621 1_555
As1 O1 1.730073 1_555
As1 O25 1.753111 1_555
As2 O18 1.700307 1_555
As2 O10 1.722621 1_555
As2 O2 1.730073 1_555
As2 O26 1.753111 1_555
As3 O19 1.700307 1_545
As3 O11 1.722621 1_455
As3 O3 1.730073 1_555
As3 O27 1.753111 1_555
As4 O20 1.700307 1_565
As4 O12 1.722621 1_455
As4 O4 1.730073 1_555
As4 O28 1.753111 1_555
As5 O21 1.700307 1_555
As5 O13 1.722621 1_555
As5 O5 1.730073 1_555
As5 O29 1.753111 1_555
As6 O22 1.700307 1_555
As6 O14 1.722621 1_555
As6 O6 1.730073 1_555
As6 O30 1.753111 1_555
As7 O23 1.700307 1_565
As7 O15 1.722626 1_655
As7 O7 1.730073 1_555
As7 O31 1.753111 1_555
H0 O24 1.014515 1_555
H0 O22 1.680603 1_555
H1 O25 1.014515 1_555
H1 O23 1.680603 1_555
H2 O26 1.014515 1_555
H2 O20 1.680603 1_555
H3 O27 1.014515 1_555
H3 O21 1.680603 1_555
H4 O28 1.014515 1_555
H4 O18 1.680603 1_555
H5 O29 1.014515 1_555
H5 O19 1.680603 1_555
H6 O30 1.014515 1_555
H6 O16 1.680603 1_555
H7 O31 1.014515 1_555
H7 O17 1.680603 1_555
