# generated using pymatgen
data_In2Bi4Pb4Se13
_symmetry_space_group_name_H-M   'P 1'
_cell_length_a   4.19960100
_cell_length_b   22.75317100
_cell_length_c   28.03919000
_cell_angle_alpha   90.00000000
_cell_angle_beta   90.00000000
_cell_angle_gamma   90.00000000
_symmetry_Int_Tables_number   1
_chemical_formula_structural   In2Bi4Pb4Se13
_chemical_formula_sum   'In8 Bi16 Pb16 Se52'
_cell_volume   2679.26348183
_cell_formula_units_Z   4
loop_
 _symmetry_equiv_pos_site_id
 _symmetry_equiv_pos_as_xyz
  1  'x, y, z'
loop_
 _atom_site_type_symbol
 _atom_site_label
 _atom_site_symmetry_multiplicity
 _atom_site_fract_x
 _atom_site_fract_y
 _atom_site_fract_z
 _atom_site_occupancy
  In  In0  1  0.00000000  0.22529400  0.33895400  1
  In  In1  1  0.00000000  0.77470600  0.66104600  1
  In  In2  1  0.00000000  0.27470600  0.83895400  1
  In  In3  1  0.00000000  0.72529400  0.16104600  1
  In  In4  1  0.00000000  0.00000000  0.50000000  1
  In  In5  1  0.00000000  0.50000000  0.00000000  1
  In  In6  1  0.00000000  0.00000000  0.00000000  1
  In  In7  1  0.00000000  0.50000000  0.50000000  1
  Bi  Bi0  1  0.50000000  0.15312100  0.47615100  1
  Bi  Bi1  1  0.50000000  0.84687900  0.52384900  1
  Bi  Bi2  1  0.50000000  0.34687900  0.97615100  1
  Bi  Bi3  1  0.50000000  0.65312100  0.02384900  1
  Bi  Bi4  1  0.00000000  0.02196000  0.15496600  1
  Bi  Bi5  1  0.00000000  0.97803900  0.84503400  1
  Bi  Bi6  1  0.00000000  0.47804000  0.65496600  1
  Bi  Bi7  1  0.00000000  0.52196100  0.34503400  1
  Bi  Bi8  1  0.00000000  0.35865000  0.10767200  1
  Bi  Bi9  1  0.00000000  0.64135000  0.89232800  1
  Bi  Bi10  1  0.00000000  0.14135000  0.60767200  1
  Bi  Bi11  1  0.00000000  0.85865000  0.39232800  1
  Bi  Bi12  1  0.50000000  0.38472800  0.41570400  1
  Bi  Bi13  1  0.50000000  0.61527200  0.58429600  1
  Bi  Bi14  1  0.50000000  0.11527200  0.91570400  1
  Bi  Bi15  1  0.50000000  0.88472800  0.08429600  1
  Pb  Pb0  1  0.50000000  0.03243200  0.34429600  1
  Pb  Pb1  1  0.50000000  0.96756800  0.65570400  1
  Pb  Pb2  1  0.50000000  0.46756800  0.84429600  1
  Pb  Pb3  1  0.50000000  0.53243200  0.15570400  1
  Pb  Pb4  1  0.50000000  0.37249400  0.24929800  1
  Pb  Pb5  1  0.50000000  0.62750600  0.75070200  1
  Pb  Pb6  1  0.50000000  0.12750600  0.74929800  1
  Pb  Pb7  1  0.50000000  0.87249400  0.25070200  1
  Pb  Pb8  1  0.50000000  0.16727200  0.22537200  1
  Pb  Pb9  1  0.50000000  0.83272800  0.77462800  1
  Pb  Pb10  1  0.50000000  0.33272800  0.72537200  1
  Pb  Pb11  1  0.50000000  0.66727200  0.27462800  1
  Pb  Pb12  1  0.50000000  0.18669600  0.07303400  1
  Pb  Pb13  1  0.50000000  0.81330400  0.92696600  1
  Pb  Pb14  1  0.50000000  0.31330400  0.57303400  1
  Pb  Pb15  1  0.50000000  0.68669600  0.42696600  1
  Se  Se0  1  0.50000000  0.29132600  0.14735000  1
  Se  Se1  1  0.50000000  0.70867400  0.85265000  1
  Se  Se2  1  0.50000000  0.20867400  0.64735000  1
  Se  Se3  1  0.50000000  0.79132600  0.35265000  1
  Se  Se4  1  0.00000000  0.15050400  0.14193500  1
  Se  Se5  1  0.00000000  0.84949600  0.85806500  1
  Se  Se6  1  0.00000000  0.34949600  0.64193500  1
  Se  Se7  1  0.00000000  0.65050400  0.35806500  1
  Se  Se8  1  0.50000000  0.43677500  0.04939100  1
  Se  Se9  1  0.50000000  0.56322500  0.95060900  1
  Se  Se10  1  0.50000000  0.06322500  0.54939100  1
  Se  Se11  1  0.50000000  0.93677500  0.45060900  1
  Se  Se12  1  0.50000000  0.02710500  0.22209600  1
  Se  Se13  1  0.50000000  0.97289500  0.77790400  1
  Se  Se14  1  0.50000000  0.47289500  0.72209600  1
  Se  Se15  1  0.50000000  0.52710500  0.27790400  1
  Se  Se16  1  0.00000000  0.39337700  0.34210900  1
  Se  Se17  1  0.00000000  0.60662300  0.65789100  1
  Se  Se18  1  0.00000000  0.10662300  0.84210900  1
  Se  Se19  1  0.00000000  0.89337700  0.15789100  1
  Se  Se20  1  0.00000000  0.38231700  0.49213100  1
  Se  Se21  1  0.00000000  0.61768300  0.50786900  1
  Se  Se22  1  0.00000000  0.11768300  0.99213100  1
  Se  Se23  1  0.00000000  0.88231700  0.00786900  1
  Se  Se24  1  0.00000000  0.11900800  0.30128700  1
  Se  Se25  1  0.00000000  0.88099200  0.69871300  1
  Se  Se26  1  0.00000000  0.38099200  0.80128700  1
  Se  Se27  1  0.00000000  0.61900800  0.19871300  1
  Se  Se28  1  0.00000000  0.27206500  0.25408300  1
  Se  Se29  1  0.00000000  0.72793500  0.74591700  1
  Se  Se30  1  0.00000000  0.22793500  0.75408300  1
  Se  Se31  1  0.00000000  0.77206500  0.24591700  1
  Se  Se32  1  0.00000000  0.27733900  0.02177700  1
  Se  Se33  1  0.00000000  0.72266100  0.97822300  1
  Se  Se34  1  0.00000000  0.22266100  0.52177700  1
  Se  Se35  1  0.00000000  0.77733900  0.47822300  1
  Se  Se36  1  0.00000000  0.43944300  0.18611900  1
  Se  Se37  1  0.00000000  0.56055700  0.81388100  1
  Se  Se38  1  0.00000000  0.06055700  0.68611900  1
  Se  Se39  1  0.00000000  0.93944300  0.31388100  1
  Se  Se40  1  0.50000000  0.00852500  0.07039200  1
  Se  Se41  1  0.50000000  0.99147500  0.92960800  1
  Se  Se42  1  0.50000000  0.49147500  0.57039200  1
  Se  Se43  1  0.50000000  0.50852500  0.42960800  1
  Se  Se44  1  0.50000000  0.24591700  0.39520400  1
  Se  Se45  1  0.50000000  0.75408300  0.60479600  1
  Se  Se46  1  0.50000000  0.25408300  0.89520400  1
  Se  Se47  1  0.50000000  0.74591700  0.10479600  1
  Se  Se48  1  0.00000000  0.07844700  0.42872600  1
  Se  Se49  1  0.00000000  0.92155200  0.57127400  1
  Se  Se50  1  0.00000000  0.42155200  0.92872600  1
  Se  Se51  1  0.00000000  0.57844800  0.07127400  1
loop_
_geom_bond_atom_site_label_1
_geom_bond_atom_site_label_2
_geom_bond_distance
_geom_bond_site_symmetry_2
In0 Se28 2.606825 1_555
In0 Se24 2.638909 1_555
In0 Se44 2.667756 1_555
In0 Se44 2.667756 1_455
In1 Se29 2.606825 1_555
In1 Se25 2.638909 1_555
In1 Se45 2.667756 1_455
In1 Se45 2.667756 1_555
In2 Se30 2.606825 1_555
In2 Se26 2.638909 1_555
In2 Se46 2.667756 1_455
In2 Se46 2.667756 1_555
In3 Se31 2.606825 1_555
In3 Se27 2.638909 1_555
In3 Se47 2.667756 1_455
In3 Se47 2.667756 1_555
In4 Se48 2.679514 1_555
In4 Se49 2.679529 1_545
In4 Se11 2.897679 1_445
In4 Se10 2.897679 1_555
In4 Se11 2.897679 1_545
In4 Se10 2.897679 1_455
In5 Se50 2.679529 1_554
In5 Se51 2.679529 1_555
In5 Se9 2.897679 1_454
In5 Se9 2.897679 1_554
In5 Se8 2.897679 1_555
In5 Se8 2.897679 1_455
In6 Se23 2.686736 1_545
In6 Se22 2.686736 1_554
In6 Se41 2.888324 1_444
In6 Se40 2.888324 1_455
In6 Se40 2.888324 1_555
In6 Se41 2.888324 1_544
In7 Se20 2.686736 1_555
In7 Se21 2.686736 1_555
In7 Se43 2.888324 1_455
In7 Se43 2.888324 1_555
In7 Se42 2.888324 1_455
In7 Se42 2.888324 1_555
Bi0 Se10 2.898443 1_555
Bi0 Se34 2.923926 1_555
Bi0 Se34 2.923926 1_655
Bi0 Se48 3.010691 1_655
Bi0 Se48 3.010691 1_555
Bi0 Se44 3.099921 1_555
Bi1 Se11 2.898443 1_555
Bi1 Se35 2.923926 1_555
Bi1 Se35 2.923926 1_655
Bi1 Se49 3.010678 1_655
Bi1 Se49 3.010678 1_555
Bi1 Se45 3.099921 1_555
Bi2 Se8 2.898443 1_556
Bi2 Se32 2.923926 1_656
Bi2 Se32 2.923926 1_556
Bi2 Se50 3.010678 1_655
Bi2 Se50 3.010678 1_555
Bi2 Se46 3.099921 1_555
Bi3 Se9 2.898443 1_554
Bi3 Se33 2.923926 1_654
Bi3 Se33 2.923926 1_554
Bi3 Se51 3.010678 1_655
Bi3 Se51 3.010678 1_555
Bi3 Se47 3.099921 1_555
Bi4 Se12 2.822377 1_455
Bi4 Se12 2.822377 1_555
Bi4 Se19 2.926820 1_545
Bi4 Se4 2.947518 1_555
Bi4 Se40 3.182150 1_555
Bi4 Se40 3.182150 1_455
Bi5 Se13 2.822376 1_455
Bi5 Se13 2.822376 1_555
Bi5 Se18 2.926843 1_565
Bi5 Se5 2.947495 1_555
Bi5 Se41 3.182153 1_555
Bi5 Se41 3.182153 1_455
Bi6 Se14 2.822377 1_455
Bi6 Se14 2.822377 1_555
Bi6 Se17 2.926820 1_555
Bi6 Se6 2.947518 1_555
Bi6 Se42 3.182150 1_455
Bi6 Se42 3.182150 1_555
Bi7 Se15 2.822376 1_555
Bi7 Se15 2.822376 1_455
Bi7 Se16 2.926843 1_555
Bi7 Se7 2.947495 1_555
Bi7 Se43 3.182153 1_555
Bi7 Se43 3.182153 1_455
Bi8 Se0 2.827264 1_455
Bi8 Se0 2.827264 1_555
Bi8 Se36 2.866624 1_555
Bi8 Se32 3.036993 1_555
Bi8 Se8 3.199914 1_555
Bi8 Se8 3.199914 1_455
Bi9 Se1 2.827264 1_555
Bi9 Se1 2.827264 1_455
Bi9 Se37 2.866624 1_555
Bi9 Se33 3.036993 1_555
Bi9 Se9 3.199914 1_555
Bi9 Se9 3.199914 1_455
Bi10 Se2 2.827264 1_455
Bi10 Se2 2.827264 1_555
Bi10 Se38 2.866624 1_555
Bi10 Se34 3.036993 1_555
Bi10 Se10 3.199914 1_555
Bi10 Se10 3.199914 1_455
Bi11 Se3 2.827264 1_555
Bi11 Se3 2.827264 1_455
Bi11 Se39 2.866624 1_555
Bi11 Se35 3.036993 1_555
Bi11 Se11 3.199914 1_555
Bi11 Se11 3.199914 1_455
Bi12 Se43 2.843625 1_555
Bi12 Se16 2.950611 1_655
Bi12 Se16 2.950611 1_555
Bi12 Se20 3.000735 1_655
Bi12 Se20 3.000735 1_555
Bi12 Se44 3.210269 1_555
Bi13 Se42 2.843625 1_555
Bi13 Se17 2.950611 1_555
Bi13 Se17 2.950611 1_655
Bi13 Se21 3.000735 1_655
Bi13 Se21 3.000735 1_555
Bi13 Se45 3.210269 1_555
Bi14 Se41 2.843625 1_545
Bi14 Se18 2.950611 1_655
Bi14 Se18 2.950611 1_555
Bi14 Se22 3.000735 1_555
Bi14 Se22 3.000735 1_655
Bi14 Se46 3.210269 1_555
Bi15 Se40 2.843625 1_565
Bi15 Se19 2.950611 1_555
Bi15 Se19 2.950611 1_655
Bi15 Se23 3.000735 1_555
Bi15 Se23 3.000735 1_655
Bi15 Se47 3.210269 1_555
Pb0 Se39 3.100490 1_645
Pb0 Se39 3.100490 1_545
Pb0 Se24 3.121517 1_655
Pb0 Se24 3.121517 1_555
Pb0 Se48 3.333119 1_555
Pb0 Se48 3.333119 1_655
Pb0 Se12 3.428532 1_555
Pb1 Se38 3.100490 1_665
Pb1 Se38 3.100490 1_565
Pb1 Se25 3.121517 1_555
Pb1 Se25 3.121517 1_655
Pb1 Se49 3.333127 1_655
Pb1 Se49 3.333127 1_555
Pb1 Se13 3.428532 1_555
Pb2 Se37 3.100490 1_655
Pb2 Se37 3.100490 1_555
Pb2 Se26 3.121517 1_555
Pb2 Se26 3.121517 1_655
Pb2 Se50 3.333127 1_655
Pb2 Se50 3.333127 1_555
Pb2 Se14 3.428532 1_555
Pb3 Se36 3.100490 1_655
Pb3 Se36 3.100490 1_555
Pb3 Se27 3.121517 1_555
Pb3 Se27 3.121517 1_655
Pb3 Se51 3.333127 1_555
Pb3 Se51 3.333127 1_655
Pb3 Se15 3.428532 1_555
Pb4 Se28 3.106243 1_655
Pb4 Se28 3.106243 1_555
Pb4 Se36 3.141302 1_655
Pb4 Se36 3.141302 1_555
Pb4 Se16 3.377445 1_555
Pb4 Se16 3.377445 1_655
Pb4 Se0 3.403238 1_555
Pb5 Se29 3.106243 1_555
Pb5 Se29 3.106243 1_655
Pb5 Se37 3.141302 1_655
Pb5 Se37 3.141302 1_555
Pb5 Se17 3.377445 1_655
Pb5 Se17 3.377445 1_555
Pb5 Se1 3.403238 1_555
Pb6 Se30 3.106243 1_555
Pb6 Se30 3.106243 1_655
Pb6 Se38 3.141302 1_655
Pb6 Se38 3.141302 1_555
Pb6 Se18 3.377445 1_555
Pb6 Se18 3.377445 1_655
Pb6 Se2 3.403238 1_555
Pb7 Se31 3.106243 1_655
Pb7 Se31 3.106243 1_555
Pb7 Se39 3.141302 1_655
Pb7 Se39 3.141302 1_555
Pb7 Se19 3.377445 1_655
Pb7 Se19 3.377445 1_555
Pb7 Se3 3.403238 1_555
Pb8 Se4 3.166704 1_655
Pb8 Se4 3.166704 1_555
Pb8 Se24 3.185284 1_555
Pb8 Se24 3.185284 1_655
Pb8 Se12 3.190566 1_555
Pb8 Se28 3.277572 1_555
Pb8 Se28 3.277572 1_655
Pb9 Se5 3.166704 1_655
Pb9 Se5 3.166704 1_555
Pb9 Se25 3.185284 1_655
Pb9 Se25 3.185284 1_555
Pb9 Se13 3.190566 1_555
Pb9 Se29 3.277572 1_655
Pb9 Se29 3.277572 1_555
Pb10 Se6 3.166704 1_555
Pb10 Se6 3.166704 1_655
Pb10 Se26 3.185284 1_555
Pb10 Se26 3.185284 1_655
Pb10 Se14 3.190566 1_555
Pb10 Se30 3.277572 1_555
Pb10 Se30 3.277572 1_655
Pb11 Se7 3.166704 1_655
Pb11 Se7 3.166704 1_555
Pb11 Se27 3.185284 1_655
Pb11 Se27 3.185284 1_555
Pb11 Se15 3.190566 1_555
Pb11 Se31 3.277572 1_555
Pb11 Se31 3.277572 1_655
Pb12 Se4 2.969787 1_655
Pb12 Se4 2.969787 1_555
Pb12 Se0 3.163798 1_555
Pb12 Se32 3.275405 1_655
Pb12 Se32 3.275405 1_555
Pb13 Se5 2.969787 1_655
Pb13 Se5 2.969787 1_555
Pb13 Se1 3.163798 1_555
Pb13 Se33 3.275405 1_655
Pb13 Se33 3.275405 1_555
Pb14 Se6 2.969787 1_555
Pb14 Se6 2.969787 1_655
Pb14 Se2 3.163798 1_555
Pb14 Se34 3.275405 1_555
Pb14 Se34 3.275405 1_655
Pb15 Se7 2.969787 1_655
Pb15 Se7 2.969787 1_555
Pb15 Se3 3.163798 1_555
Pb15 Se35 3.275405 1_655
Pb15 Se35 3.275405 1_555
