# generated using pymatgen
data_Ba3Pr(BO2)9
_symmetry_space_group_name_H-M   'P 1'
_cell_length_a   7.33385548
_cell_length_b   7.33385548
_cell_length_c   17.85176000
_cell_angle_alpha   90.00000000
_cell_angle_beta   90.00000000
_cell_angle_gamma   119.99999528
_symmetry_Int_Tables_number   1
_chemical_formula_structural   Ba3Pr(BO2)9
_chemical_formula_sum   'Ba6 Pr2 B18 O36'
_cell_volume   831.52705965
_cell_formula_units_Z   2
loop_
 _symmetry_equiv_pos_site_id
 _symmetry_equiv_pos_as_xyz
  1  'x, y, z'
loop_
 _atom_site_type_symbol
 _atom_site_label
 _atom_site_symmetry_multiplicity
 _atom_site_fract_x
 _atom_site_fract_y
 _atom_site_fract_z
 _atom_site_occupancy
  Ba  Ba0  1  0.66666700  0.33333300  0.86386000  1
  Ba  Ba1  1  0.33333300  0.66666700  0.13614000  1
  Ba  Ba2  1  0.33333300  0.66666700  0.36386000  1
  Ba  Ba3  1  0.66666700  0.33333300  0.63614000  1
  Ba  Ba4  1  0.00000000  0.00000000  0.75000000  1
  Ba  Ba5  1  0.00000000  0.00000000  0.25000000  1
  Pr  Pr0  1  0.00000000  0.00000000  0.00000000  1
  Pr  Pr1  1  0.00000000  0.00000000  0.50000000  1
  B  B0  1  0.54627600  0.83704800  0.91665500  1
  B  B1  1  0.45372400  0.16295200  0.08334500  1
  B  B2  1  0.29077300  0.45372400  0.91665500  1
  B  B3  1  0.45372400  0.16295200  0.41665500  1
  B  B4  1  0.70922700  0.54627600  0.08334500  1
  B  B5  1  0.54627600  0.83704800  0.58334500  1
  B  B6  1  0.16295200  0.70922700  0.91665500  1
  B  B7  1  0.70922700  0.54627600  0.41665500  1
  B  B8  1  0.83704800  0.29077300  0.08334500  1
  B  B9  1  0.29077300  0.45372400  0.58334500  1
  B  B10  1  0.83704800  0.29077300  0.41665500  1
  B  B11  1  0.16295200  0.70922700  0.58334500  1
  B  B12  1  0.50325800  0.62231900  0.75000000  1
  B  B13  1  0.49674200  0.37768100  0.25000000  1
  B  B14  1  0.11906100  0.49674200  0.75000000  1
  B  B15  1  0.88093900  0.50325800  0.25000000  1
  B  B16  1  0.37768100  0.88093900  0.75000000  1
  B  B17  1  0.62231900  0.11906100  0.25000000  1
  O  O0  1  0.54029200  0.83143600  0.75000000  1
  O  O1  1  0.45970800  0.16856400  0.25000000  1
  O  O2  1  0.29114500  0.45970800  0.75000000  1
  O  O3  1  0.70885500  0.54029200  0.25000000  1
  O  O4  1  0.16856400  0.70885500  0.75000000  1
  O  O5  1  0.83143600  0.29114500  0.25000000  1
  O  O6  1  0.92253100  0.33516100  0.75000000  1
  O  O7  1  0.07746900  0.66483900  0.25000000  1
  O  O8  1  0.41263000  0.07746900  0.75000000  1
  O  O9  1  0.58737000  0.92253100  0.25000000  1
  O  O10  1  0.66483900  0.58737000  0.75000000  1
  O  O11  1  0.33516100  0.41263000  0.25000000  1
  O  O12  1  0.74328500  0.99919700  0.91519200  1
  O  O13  1  0.25671500  0.00080300  0.08480800  1
  O  O14  1  0.25591100  0.25671500  0.91519200  1
  O  O15  1  0.25671500  0.00080300  0.41519200  1
  O  O16  1  0.74408900  0.74328500  0.08480800  1
  O  O17  1  0.74328500  0.99919700  0.58480800  1
  O  O18  1  0.00080300  0.74408900  0.91519200  1
  O  O19  1  0.74408900  0.74328500  0.41519200  1
  O  O20  1  0.99919700  0.25591100  0.08480800  1
  O  O21  1  0.25591100  0.25671500  0.58480800  1
  O  O22  1  0.99919700  0.25591100  0.41519200  1
  O  O23  1  0.00080300  0.74408900  0.58480800  1
  O  O24  1  0.49890800  0.62551900  0.91774700  1
  O  O25  1  0.50109200  0.37448100  0.08225300  1
  O  O26  1  0.12661100  0.50109200  0.91774700  1
  O  O27  1  0.50109200  0.37448100  0.41774700  1
  O  O28  1  0.87338900  0.49890800  0.08225300  1
  O  O29  1  0.49890800  0.62551900  0.58225300  1
  O  O30  1  0.37448100  0.87338900  0.91774700  1
  O  O31  1  0.87338900  0.49890800  0.41774700  1
  O  O32  1  0.62551900  0.12661100  0.08225300  1
  O  O33  1  0.12661100  0.50109200  0.58225300  1
  O  O34  1  0.62551900  0.12661100  0.41774700  1
  O  O35  1  0.37448100  0.87338900  0.58225300  1
loop_
_geom_bond_atom_site_label_1
_geom_bond_atom_site_label_2
_geom_bond_distance
_geom_bond_site_symmetry_2
Ba0 O6 2.761816 1_555
Ba0 O8 2.761819 1_555
Ba0 O10 2.761821 1_555
Ba0 O12 2.921882 1_545
Ba0 O18 2.921891 1_655
Ba0 O14 2.921895 1_555
Ba0 O26 3.109220 1_655
Ba0 O30 3.109221 1_545
Ba0 O24 3.109226 1_555
Ba1 O7 2.761816 1_555
Ba1 O9 2.761819 1_555
Ba1 O11 2.761821 1_555
Ba1 O13 2.921882 1_565
Ba1 O20 2.921891 1_455
Ba1 O16 2.921895 1_555
Ba1 O28 3.109220 1_455
Ba1 O32 3.109221 1_565
Ba1 O25 3.109226 1_555
Ba2 O7 2.761816 1_555
Ba2 O9 2.761819 1_555
Ba2 O11 2.761821 1_555
Ba2 O15 2.921882 1_565
Ba2 O22 2.921891 1_455
Ba2 O19 2.921895 1_555
Ba2 O31 3.109220 1_455
Ba2 O34 3.109221 1_565
Ba2 O27 3.109226 1_555
Ba3 O6 2.761816 1_555
Ba3 O8 2.761819 1_555
Ba3 O10 2.761821 1_555
Ba3 O17 2.921882 1_545
Ba3 O23 2.921891 1_655
Ba3 O21 2.921895 1_555
Ba3 O33 3.109220 1_655
Ba3 O35 3.109221 1_545
Ba3 O29 3.109226 1_555
Ba4 O6 2.785890 1_455
Ba4 O8 2.785890 1_555
Ba4 O10 2.785890 1_445
Ba4 O0 2.954143 1_445
Ba4 O2 2.954144 1_555
Ba4 O4 2.954149 1_545
Ba5 O7 2.785890 1_545
Ba5 O9 2.785890 1_445
Ba5 O11 2.785890 1_555
Ba5 O1 2.954143 1_555
Ba5 O3 2.954144 1_445
Ba5 O5 2.954149 1_455
B0 O12 1.335743 1_555
B0 O24 1.410230 1_555
B0 O30 1.412304 1_555
B1 O13 1.335743 1_555
B1 O25 1.410230 1_555
B1 O32 1.412304 1_555
B2 O14 1.335738 1_555
B2 O26 1.410237 1_555
B2 O24 1.412300 1_555
B3 O15 1.335743 1_555
B3 O27 1.410230 1_555
B3 O34 1.412304 1_555
B4 O16 1.335738 1_555
B4 O28 1.410237 1_555
B4 O25 1.412300 1_555
B5 O17 1.335743 1_555
B5 O29 1.410230 1_555
B5 O35 1.412304 1_555
B6 O18 1.335752 1_555
B6 O30 1.410232 1_555
B6 O26 1.412297 1_555
B7 O19 1.335738 1_555
B7 O31 1.410237 1_555
B7 O27 1.412300 1_555
B8 O20 1.335752 1_555
B8 O32 1.410232 1_555
B8 O28 1.412297 1_555
B9 O21 1.335738 1_555
B9 O33 1.410237 1_555
B9 O29 1.412300 1_555
B10 O22 1.335752 1_555
B10 O34 1.410232 1_555
B10 O31 1.412297 1_555
B11 O23 1.335752 1_555
B11 O35 1.410232 1_555
B11 O33 1.412297 1_555
B12 O10 1.331796 1_555
B12 O2 1.409596 1_555
B12 O0 1.417485 1_555
B13 O11 1.331796 1_555
B13 O3 1.409596 1_555
B13 O1 1.417485 1_555
B14 O6 1.331796 1_455
B14 O4 1.409594 1_555
B14 O2 1.417492 1_555
B15 O7 1.331796 1_655
B15 O5 1.409594 1_555
B15 O3 1.417492 1_555
B16 O8 1.331796 1_565
B16 O0 1.409601 1_555
B16 O4 1.417487 1_555
B17 O9 1.331796 1_545
B17 O1 1.409601 1_555
B17 O5 1.417487 1_555
O12 Pr0 2.413640 1_666
O13 Pr0 2.413640 1_555
O14 Pr0 2.413637 1_556
O15 Pr1 2.413640 1_555
O16 Pr0 2.413637 1_665
O17 Pr1 2.413640 1_665
O18 Pr0 2.413634 1_566
O19 Pr1 2.413637 1_665
O20 Pr0 2.413634 1_655
O21 Pr1 2.413637 1_555
O22 Pr1 2.413634 1_655
O23 Pr1 2.413634 1_565
