# generated using pymatgen
data_Li6V3P8O29
_symmetry_space_group_name_H-M   'P 1'
_cell_length_a   9.83099200
_cell_length_b   9.84357296
_cell_length_c   14.01260269
_cell_angle_alpha   90.02823710
_cell_angle_beta   90.00460816
_cell_angle_gamma   119.90743011
_symmetry_Int_Tables_number   1
_chemical_formula_structural   Li6V3P8O29
_chemical_formula_sum   'Li12 V6 P16 O58'
_cell_volume   1175.44906989
_cell_formula_units_Z   2
loop_
 _symmetry_equiv_pos_site_id
 _symmetry_equiv_pos_as_xyz
  1  'x, y, z'
loop_
 _atom_site_type_symbol
 _atom_site_label
 _atom_site_symmetry_multiplicity
 _atom_site_fract_x
 _atom_site_fract_y
 _atom_site_fract_z
 _atom_site_occupancy
  Li  Li0  1  0.09393400  0.32166800  0.43698700  1
  Li  Li1  1  0.68164100  0.77138200  0.43857900  1
  Li  Li2  1  0.32635200  0.66121700  0.11347300  1
  Li  Li3  1  0.67809400  0.91086500  0.94040700  1
  Li  Li4  1  0.09575900  0.77457000  0.94267300  1
  Li  Li5  1  0.77382700  0.09186600  0.55801300  1
  Li  Li6  1  0.23036700  0.90794900  0.43554600  1
  Li  Li7  1  0.66192500  0.32815200  0.89030600  1
  Li  Li8  1  0.32109200  0.22797500  0.56073900  1
  Li  Li9  1  0.91095000  0.68195000  0.55819300  1
  Li  Li10  1  0.77023400  0.67850800  0.06196900  1
  Li  Li11  1  0.05175100  0.07779700  0.99872500  1
  V  V0  1  0.56560500  0.99761100  0.74891400  1
  V  V1  1  0.43490800  0.00373300  0.24389000  1
  V  V2  1  0.99657700  0.42814700  0.24887600  1
  V  V3  1  0.00174600  0.56404400  0.75345000  1
  V  V4  1  0.42685000  0.42976300  0.75328400  1
  V  V5  1  0.56247400  0.56105100  0.24966600  1
  P  P0  1  0.22312600  0.31180500  0.16020400  1
  P  P1  1  0.08572100  0.31863600  0.65748500  1
  P  P2  1  0.67944400  0.76386300  0.65955400  1
  P  P3  1  0.33287500  0.66649900  0.87327500  1
  P  P4  1  0.33454900  0.66856000  0.37040000  1
  P  P5  1  0.68362700  0.90861000  0.15608900  1
  P  P6  1  0.76582200  0.08521700  0.34003200  1
  P  P7  1  0.09018700  0.77213100  0.15749100  1
  P  P8  1  0.91171400  0.22146700  0.84161300  1
  P  P9  1  0.23163200  0.91316300  0.65604200  1
  P  P10  1  0.31240300  0.08837300  0.84031400  1
  P  P11  1  0.66828700  0.33392400  0.62999300  1
  P  P12  1  0.66589000  0.33316900  0.12845700  1
  P  P13  1  0.31851600  0.23030200  0.34337200  1
  P  P14  1  0.91380700  0.68057500  0.34105800  1
  P  P15  1  0.77122100  0.68101600  0.84360300  1
  O  O0  1  0.24359100  0.24339400  0.43416400  1
  O  O1  1  0.24931200  0.33157300  0.66070500  1
  O  O2  1  0.99432300  0.20559000  0.92485700  1
  O  O3  1  0.08336200  0.34360900  0.16709300  1
  O  O4  1  0.37406000  0.47618300  0.16865000  1
  O  O5  1  0.32629400  0.51903900  0.83026000  1
  O  O6  1  0.52197500  0.61473400  0.68014200  1
  O  O7  1  0.76284000  0.76660000  0.93062500  1
  O  O8  1  0.66489900  0.74301600  0.15970300  1
  O  O9  1  0.18641100  0.51467500  0.33465000  1
  O  O10  1  0.10035800  0.47915300  0.67683700  1
  O  O11  1  0.48467300  0.66655200  0.32650800  1
  O  O12  1  0.32875400  0.67090200  0.98021900  1
  O  O13  1  0.34703100  0.67801800  0.47647900  1
  O  O14  1  0.48392400  0.81446700  0.83570000  1
  O  O15  1  0.10559600  0.62409700  0.16961000  1
  O  O16  1  0.18185700  0.67082100  0.83380400  1
  O  O17  1  0.66259600  0.91209400  0.65935400  1
  O  O18  1  0.78749800  0.99706200  0.24894100  1
  O  O19  1  0.75687800  0.99592600  0.42956300  1
  O  O20  1  0.76542200  0.99089900  0.06658800  1
  O  O21  1  0.51776400  0.89051500  0.16978200  1
  O  O22  1  0.33246700  0.81518900  0.32632600  1
  O  O23  1  0.73873100  0.07956500  0.83666900  1
  O  O24  1  0.38178900  0.90424300  0.67937900  1
  O  O25  1  0.08546800  0.74943400  0.65888100  1
  O  O26  1  0.98858900  0.20352500  0.74403100  1
  O  O27  1  0.00005500  0.24488400  0.56622700  1
  O  O28  1  0.00453800  0.75722500  0.43066800  1
  O  O29  1  0.91512800  0.24940000  0.34050700  1
  O  O30  1  0.61737900  0.09575600  0.32399400  1
  O  O31  1  0.25407700  0.91595500  0.15850000  1
  O  O32  1  0.67310600  0.18461900  0.66786200  1
  O  O33  1  0.47565900  0.10143600  0.83187500  1
  O  O34  1  0.21036800  0.99728800  0.92193600  1
  O  O35  1  0.24861900  0.99975500  0.56467700  1
  O  O36  1  0.21600500  0.01092500  0.74257200  1
  O  O37  1  0.33257200  0.08150000  0.34011700  1
  O  O38  1  0.80885900  0.33130600  0.17109500  1
  O  O39  1  0.89851900  0.37243300  0.83370500  1
  O  O40  1  0.51593900  0.18510500  0.16928300  1
  O  O41  1  0.66539300  0.34010500  0.02182200  1
  O  O42  1  0.68042100  0.34470500  0.52409800  1
  O  O43  1  0.51543000  0.32810600  0.66833500  1
  O  O44  1  0.90726700  0.52329300  0.32138300  1
  O  O45  1  0.81725400  0.48276900  0.67724700  1
  O  O46  1  0.34108700  0.25820900  0.83654100  1
  O  O47  1  0.20526900  0.21379900  0.25607200  1
  O  O48  1  0.21407200  0.21761000  0.07620500  1
  O  O49  1  0.47876800  0.37749300  0.32535200  1
  O  O50  1  0.66432000  0.48434500  0.16770400  1
  O  O51  1  0.62688400  0.51641300  0.82958200  1
  O  O52  1  0.92036000  0.66684600  0.84504300  1
  O  O53  1  0.99740100  0.76648000  0.06995700  1
  O  O54  1  0.00129000  0.78918700  0.25009100  1
  O  O55  1  0.74918100  0.66190000  0.34203000  1
  O  O56  1  0.75578400  0.75172400  0.56952500  1
  O  O57  1  0.79028000  0.78567100  0.74992000  1
loop_
_geom_bond_atom_site_label_1
_geom_bond_atom_site_label_2
_geom_bond_distance
_geom_bond_site_symmetry_2
Li0 O0 1.972385 1_555
Li0 O27 2.002185 1_555
Li0 O29 2.043398 1_455
Li0 O9 2.184703 1_555
Li1 O19 1.954109 1_555
Li1 O56 2.019000 1_555
Li1 O55 2.035909 1_555
Li1 O11 2.299119 1_555
Li2 O12 1.869265 1_554
Li2 O15 2.161495 1_555
Li2 O4 2.233486 1_555
Li2 O21 2.240696 1_555
Li3 O20 1.951384 1_556
Li3 O7 1.977165 1_555
Li3 O23 2.059471 1_565
Li3 O14 2.211082 1_555
Li4 O34 1.922950 1_555
Li4 O53 2.011501 1_456
Li4 O52 2.035728 1_455
Li4 O16 2.224266 1_555
Li5 O27 1.971702 1_655
Li5 O19 2.000176 1_545
Li5 O17 2.101633 1_545
Li5 O32 2.254733 1_555
Li6 O28 1.962156 1_555
Li6 O35 1.989888 1_555
Li6 O37 2.001738 1_565
Li6 O22 2.257509 1_555
Li7 O41 1.845805 1_556
Li7 O51 2.216985 1_555
Li7 O33 2.219647 1_555
Li7 O39 2.284456 1_555
Li8 O0 1.965891 1_555
Li8 O35 1.990341 1_545
Li8 O1 2.053403 1_555
Li8 O43 2.239427 1_555
Li9 O56 1.966877 1_555
Li9 O28 1.977501 1_655
Li9 O25 2.058559 1_655
Li9 O45 2.382904 1_555
Li10 O53 1.954813 1_555
Li10 O8 2.001553 1_555
Li10 O7 2.051575 1_554
Li10 O50 2.225045 1_555
Li11 O48 1.851357 1_556
Li11 O2 1.918842 1_455
Li11 O34 2.334358 1_545
O0 P13 1.507446 1_555
O1 P1 1.549358 1_555
O1 V4 1.994893 1_555
O2 P8 1.473504 1_555
O3 P0 1.556984 1_555
O3 V2 1.854970 1_455
O4 P0 1.561880 1_555
O4 V5 1.968077 1_555
O5 P3 1.542702 1_555
O5 V4 1.943848 1_555
O6 P2 1.539160 1_555
O6 V4 1.882613 1_555
O7 P15 1.507211 1_555
O8 P5 1.547350 1_555
O8 V5 2.003819 1_555
O9 P4 1.570259 1_555
O9 V2 2.016555 1_455
O10 P1 1.537425 1_555
O10 V3 1.896772 1_555
O11 P4 1.608128 1_555
O11 V5 1.901061 1_555
O12 P3 1.500303 1_555
O13 P4 1.490530 1_555
O14 P3 1.564567 1_555
O14 V0 1.983050 1_555
O15 P7 1.547751 1_555
O15 V2 2.010885 1_455
O16 P3 1.604619 1_555
O16 V3 1.910615 1_555
O17 P2 1.548382 1_555
O17 V0 1.998081 1_555
O18 P5 1.614237 1_555
O18 P6 1.615866 1_565
O19 P6 1.509382 1_565
O20 P5 1.492397 1_555
O21 P5 1.561361 1_555
O21 V1 1.971844 1_565
O22 P4 1.579697 1_555
O22 V1 1.982814 1_565
O23 P8 1.574497 1_555
O23 V0 1.920728 1_545
O24 P9 1.556597 1_555
O24 V0 1.844534 1_555
O25 P9 1.534455 1_555
O25 V3 2.066033 1_555
O26 P1 1.609054 1_655
O26 P8 1.614037 1_555
O27 P1 1.503585 1_555
O28 P14 1.506445 1_455
O29 P6 1.549483 1_555
O29 V2 1.995774 1_555
O30 P6 1.530323 1_555
O30 V1 1.917475 1_555
O31 P7 1.525061 1_555
O31 V1 1.950781 1_565
O32 P11 1.585568 1_555
O32 V0 1.964109 1_545
O33 P10 1.549415 1_555
O33 V0 2.019407 1_545
O34 P10 1.490831 1_565
O35 P9 1.500888 1_555
O36 P9 1.601925 1_545
O36 P10 1.622798 1_555
O37 P13 1.538968 1_555
O37 V1 2.045364 1_555
O38 P12 1.535705 1_555
O38 V2 1.935639 1_555
O39 P8 1.558790 1_555
O39 V3 1.986353 1_655
O40 P12 1.575783 1_555
O40 V1 1.870488 1_555
O41 P12 1.495945 1_555
O42 P11 1.488256 1_555
O43 P11 1.569871 1_555
O43 V4 2.011117 1_555
O44 P14 1.541892 1_555
O44 V2 1.870715 1_555
O45 P11 1.609058 1_555
O45 V3 1.903093 1_655
O46 P10 1.551510 1_555
O46 V4 1.872417 1_555
O47 P13 1.606733 1_555
O47 P0 1.612007 1_555
O48 P0 1.472988 1_555
O49 P13 1.539226 1_555
O49 V5 1.893683 1_555
O50 P12 1.593506 1_555
O50 V5 1.909158 1_555
O51 P15 1.544132 1_555
O51 V4 2.015918 1_555
O52 P15 1.540615 1_555
O52 V3 2.029218 1_655
O53 P7 1.512883 1_655
O54 P14 1.610010 1_455
O54 P7 1.619239 1_555
O55 P14 1.535135 1_555
O55 V5 2.052076 1_555
O56 P2 1.502811 1_555
O57 P2 1.613397 1_555
O57 P15 1.621283 1_555
