# generated using pymatgen
data_Th5Pb4
_symmetry_space_group_name_H-M   'P 1'
_cell_length_a   6.62073569
_cell_length_b   9.84138664
_cell_length_c   9.84136347
_cell_angle_alpha   120.00058666
_cell_angle_beta   90.00000000
_cell_angle_gamma   90.00000000
_symmetry_Int_Tables_number   1
_chemical_formula_structural   Th5Pb4
_chemical_formula_sum   'Th10 Pb8'
_cell_volume   555.32328139
_cell_formula_units_Z   2
loop_
 _symmetry_equiv_pos_site_id
 _symmetry_equiv_pos_as_xyz
  1  'x, y, z'
loop_
 _atom_site_type_symbol
 _atom_site_label
 _atom_site_symmetry_multiplicity
 _atom_site_fract_x
 _atom_site_fract_y
 _atom_site_fract_z
 _atom_site_occupancy
  Th  Th0  1  0.49999900  0.33333303  0.66666505  1
  Th  Th1  1  0.50000000  0.66666797  0.33333495  1
  Th  Th2  1  0.00000000  0.66666697  0.33333495  1
  Th  Th3  1  0.00000000  0.33333203  0.66666505  1
  Th  Th4  1  0.74999900  0.28085889  0.00000000  1
  Th  Th5  1  0.75000000  0.71914047  0.71913993  1
  Th  Th6  1  0.75000000  0.00000154  0.28086007  1
  Th  Th7  1  0.24999900  0.71914111  -0.00000000  1
  Th  Th8  1  0.25000000  0.28085953  0.28086007  1
  Th  Th9  1  0.25000000  0.99999846  0.71913993  1
  Pb  Pb0  1  0.50000000  0.00000000  0.00000000  1
  Pb  Pb1  1  -0.00000000  0.00000000  0.00000000  1
  Pb  Pb2  1  0.74999900  0.61965614  -0.00000000  1
  Pb  Pb3  1  0.75000100  0.38034581  0.38034243  1
  Pb  Pb4  1  0.75000100  0.00000339  0.61965757  1
  Pb  Pb5  1  0.24999900  0.38034386  0.00000000  1
  Pb  Pb6  1  0.25000100  0.61965419  0.61965757  1
  Pb  Pb7  1  0.25000100  -0.00000339  0.38034243  1
loop_
_geom_bond_atom_site_label_1
_geom_bond_atom_site_label_2
_geom_bond_distance
_geom_bond_site_symmetry_2
Th0 Th3 3.310361 1_555
Th0 Th3 3.310374 1_655
Th0 Th6 3.932105 1_555
Th0 Th8 3.932120 1_555
Th0 Th7 3.932133 1_556
Th0 Th5 3.932151 1_555
Th0 Th4 3.932166 1_556
Th0 Th9 3.932171 1_545
Th1 Th2 3.310368 1_555
Th1 Th2 3.310368 1_655
Th1 Th9 3.932099 1_555
Th1 Th5 3.932126 1_555
Th1 Th4 3.932136 1_555
Th1 Th8 3.932157 1_555
Th1 Th7 3.932164 1_555
Th1 Th6 3.932164 1_565
Th2 Th9 3.932102 1_555
Th2 Th5 3.932123 1_455
Th2 Th4 3.932136 1_455
Th2 Th8 3.932148 1_555
Th2 Th7 3.932164 1_555
Th2 Th6 3.932173 1_465
Th3 Th6 3.932099 1_455
Th3 Th8 3.932126 1_555
Th3 Th7 3.932136 1_556
Th3 Th5 3.932157 1_455
Th3 Th4 3.932164 1_456
Th3 Th9 3.932164 1_545
Pb0 Th5 3.221716 1_544
Pb0 Th8 3.221716 1_555
Pb0 Th4 3.221728 1_555
Pb0 Th6 3.221730 1_555
Pb0 Th9 3.221730 1_544
Pb0 Th7 3.221735 1_545
Pb0 Pb1 3.310368 1_555
Pb0 Pb1 3.310368 1_655
Pb1 Th5 3.221716 1_444
Pb1 Th8 3.221716 1_555
Pb1 Th7 3.221728 1_545
Pb1 Th6 3.221730 1_455
Pb1 Th9 3.221730 1_544
Pb1 Th4 3.221735 1_455
Pb2 Th4 3.334235 1_555
Pb2 Th6 3.362230 1_565
Pb2 Th5 3.362252 1_554
Pb2 Th7 3.452117 1_555
Pb2 Th7 3.452117 1_655
Pb2 Th0 3.492461 1_554
Pb2 Th3 3.492467 1_654
Pb2 Th1 3.492475 1_555
Pb2 Th2 3.492484 1_655
Pb3 Th5 3.334190 1_555
Pb3 Th4 3.362208 1_555
Pb3 Th6 3.362246 1_555
Pb3 Th8 3.452106 1_655
Pb3 Th8 3.452119 1_555
Pb3 Th2 3.492448 1_655
Pb3 Th1 3.492463 1_555
Pb3 Th3 3.492489 1_655
Pb3 Th0 3.492493 1_555
Pb4 Th6 3.334220 1_555
Pb4 Th4 3.362193 1_556
Pb4 Th5 3.362271 1_545
Pb4 Th9 3.452110 1_645
Pb4 Th9 3.452123 1_545
Pb4 Th3 3.492442 1_655
Pb4 Th0 3.492460 1_555
Pb4 Th2 3.492466 1_645
Pb4 Th1 3.492467 1_545
Pb5 Th7 3.334235 1_555
Pb5 Th9 3.362230 1_544
Pb5 Th8 3.362252 1_555
Pb5 Th4 3.452117 1_455
Pb5 Th4 3.452117 1_555
Pb5 Th2 3.492458 1_555
Pb5 Th1 3.492467 1_555
Pb5 Th3 3.492475 1_554
Pb5 Th0 3.492481 1_554
Pb6 Th8 3.334190 1_555
Pb6 Th7 3.362208 1_556
Pb6 Th9 3.362246 1_555
Pb6 Th5 3.452106 1_555
Pb6 Th5 3.452119 1_455
Pb6 Th0 3.492445 1_555
Pb6 Th3 3.492463 1_555
Pb6 Th1 3.492489 1_555
Pb6 Th2 3.492490 1_555
Pb7 Th9 3.334220 1_545
Pb7 Th7 3.362193 1_545
Pb7 Th8 3.362271 1_555
Pb7 Th6 3.452110 1_555
Pb7 Th6 3.452123 1_455
Pb7 Th1 3.492442 1_545
Pb7 Th2 3.492457 1_545
Pb7 Th0 3.492462 1_555
Pb7 Th3 3.492467 1_555
