# generated using pymatgen
data_BaMgCrF7
_symmetry_space_group_name_H-M   'P 1'
_cell_length_a   9.95709200
_cell_length_b   5.62860700
_cell_length_c   9.72047764
_cell_angle_alpha   86.87056081
_cell_angle_beta   90.00000000
_cell_angle_gamma   90.00000000
_symmetry_Int_Tables_number   1
_chemical_formula_structural   BaMgCrF7
_chemical_formula_sum   'Ba4 Mg4 Cr4 F28'
_cell_volume   543.96746853
_cell_formula_units_Z   4
loop_
 _symmetry_equiv_pos_site_id
 _symmetry_equiv_pos_as_xyz
  1  'x, y, z'
loop_
 _atom_site_type_symbol
 _atom_site_label
 _atom_site_symmetry_multiplicity
 _atom_site_fract_x
 _atom_site_fract_y
 _atom_site_fract_z
 _atom_site_occupancy
  Ba  Ba0  1  0.32250200  0.73709300  0.49907900  1
  Ba  Ba1  1  0.82250200  0.26290700  0.00092100  1
  Ba  Ba2  1  0.67749800  0.26290700  0.50092100  1
  Ba  Ba3  1  0.17749800  0.73709300  0.99907900  1
  Mg  Mg0  1  0.39547200  0.30527300  0.81075500  1
  Mg  Mg1  1  0.89547200  0.69472700  0.68924500  1
  Mg  Mg2  1  0.10452800  0.30527300  0.31075500  1
  Mg  Mg3  1  0.60452800  0.69472700  0.18924500  1
  Cr  Cr0  1  0.61270000  0.80619500  0.81306200  1
  Cr  Cr1  1  0.38730000  0.19380500  0.18693800  1
  Cr  Cr2  1  0.88730000  0.80619500  0.31306200  1
  Cr  Cr3  1  0.11270000  0.19380500  0.68693800  1
  F  F0  1  0.44833400  0.88850900  0.12584300  1
  F  F1  1  0.04882600  0.63068600  0.36852200  1
  F  F2  1  0.71156000  0.52805700  0.75052500  1
  F  F3  1  0.28844000  0.47194300  0.24947500  1
  F  F4  1  0.45700600  0.11195100  0.36651200  1
  F  F5  1  0.81037200  0.74051200  0.49889500  1
  F  F6  1  0.77872200  0.97219300  0.75249300  1
  F  F7  1  0.95700600  0.88804900  0.13348800  1
  F  F8  1  0.45117400  0.63068600  0.86852200  1
  F  F9  1  0.21156000  0.47194300  0.74947500  1
  F  F10  1  0.05166600  0.88850900  0.62584300  1
  F  F11  1  0.55166600  0.11149100  0.87415700  1
  F  F12  1  0.27872200  0.02780700  0.74750700  1
  F  F13  1  0.95745500  0.61374600  0.87299900  1
  F  F14  1  0.54299400  0.88804900  0.63348800  1
  F  F15  1  0.04299400  0.11195100  0.86651200  1
  F  F16  1  0.22127800  0.02780700  0.24750700  1
  F  F17  1  0.94833400  0.11149100  0.37415700  1
  F  F18  1  0.45745500  0.38625400  0.62700100  1
  F  F19  1  0.95117400  0.36931400  0.63147800  1
  F  F20  1  0.04254500  0.38625400  0.12700100  1
  F  F21  1  0.72127800  0.97219300  0.25249300  1
  F  F22  1  0.54254500  0.61374600  0.37299900  1
  F  F23  1  0.31037200  0.25948800  0.00110500  1
  F  F24  1  0.18962800  0.25948800  0.50110500  1
  F  F25  1  0.68962800  0.74051200  0.99889500  1
  F  F26  1  0.54882600  0.36931400  0.13147800  1
  F  F27  1  0.78844000  0.52805700  0.25052500  1
loop_
_geom_bond_atom_site_label_1
_geom_bond_atom_site_label_2
_geom_bond_distance
_geom_bond_site_symmetry_2
Ba0 F22 2.622468 1_555
Ba0 F18 2.642596 1_555
Ba0 F14 2.714808 1_555
Ba0 F4 2.758461 1_565
Ba0 F3 2.936751 1_555
Ba0 F24 2.995285 1_555
Ba0 F9 2.995863 1_555
Ba0 F12 3.021661 1_565
Ba0 F16 3.039156 1_565
Ba0 F1 3.078631 1_555
Ba0 F10 3.103505 1_555
Ba0 F24 3.225343 1_565
Ba1 F20 2.622468 1_655
Ba1 F13 2.642596 1_554
Ba1 F15 2.714808 1_654
Ba1 F7 2.758461 1_545
Ba1 F27 2.936751 1_555
Ba1 F25 2.995285 1_554
Ba1 F2 2.995863 1_554
Ba1 F6 3.021661 1_544
Ba1 F21 3.039156 1_545
Ba1 F26 3.078631 1_555
Ba1 F11 3.103505 1_554
Ba1 F25 3.225343 1_544
Ba2 F18 2.622468 1_555
Ba2 F22 2.642596 1_555
Ba2 F4 2.714808 1_555
Ba2 F14 2.758461 1_545
Ba2 F2 2.936751 1_555
Ba2 F5 2.995285 1_555
Ba2 F27 2.995863 1_555
Ba2 F21 3.021661 1_545
Ba2 F6 3.039156 1_545
Ba2 F19 3.078631 1_555
Ba2 F17 3.103505 1_555
Ba2 F5 3.225343 1_545
Ba3 F13 2.622468 1_455
Ba3 F20 2.642596 1_556
Ba3 F7 2.714808 1_456
Ba3 F15 2.758461 1_565
Ba3 F9 2.936751 1_555
Ba3 F23 2.995285 1_556
Ba3 F3 2.995863 1_556
Ba3 F16 3.021661 1_566
Ba3 F12 3.039156 1_565
Ba3 F8 3.078631 1_555
Ba3 F0 3.103505 1_556
Ba3 F23 3.225343 1_566
Cr0 F14 1.911313 1_555
Cr0 F11 1.945842 1_565
Cr0 F8 1.948100 1_555
Cr0 F6 1.972889 1_555
Cr0 F2 1.973140 1_555
Cr0 F25 1.978261 1_555
Cr1 F4 1.911313 1_555
Cr1 F0 1.945842 1_545
Cr1 F26 1.948100 1_555
Cr1 F16 1.972889 1_555
Cr1 F3 1.973140 1_555
Cr1 F23 1.978261 1_555
Cr2 F7 1.911313 1_555
Cr2 F17 1.945842 1_565
Cr2 F1 1.948100 1_655
Cr2 F21 1.972889 1_555
Cr2 F27 1.973140 1_555
Cr2 F5 1.978261 1_555
Cr3 F15 1.911313 1_555
Cr3 F10 1.945842 1_545
Cr3 F19 1.948100 1_455
Cr3 F12 1.972889 1_555
Cr3 F9 1.973140 1_555
Cr3 F24 1.978261 1_555
F0 Mg3 1.978603 1_555
F1 Mg2 2.022389 1_555
F2 Mg1 2.127740 1_555
F3 Mg2 2.127740 1_555
F5 Mg1 2.038611 1_555
F6 Mg1 2.067185 1_555
F8 Mg0 2.022389 1_555
F9 Mg0 2.127740 1_555
F10 Mg1 1.978603 1_455
F11 Mg0 1.978603 1_555
F12 Mg0 2.067185 1_555
F13 Mg1 1.920988 1_555
F16 Mg2 2.067185 1_555
F17 Mg2 1.978603 1_655
F18 Mg0 1.920988 1_555
F19 Mg1 2.022389 1_555
F20 Mg2 1.920988 1_555
F21 Mg3 2.067185 1_555
F22 Mg3 1.920988 1_555
F23 Mg0 2.038611 1_554
F24 Mg2 2.038611 1_555
F25 Mg3 2.038611 1_556
F26 Mg3 2.022389 1_555
F27 Mg3 2.127740 1_555
