# generated using pymatgen
data_Ho(Fe5Re)2
_symmetry_space_group_name_H-M   'P 1'
_cell_length_a   4.69068500
_cell_length_b   6.47580883
_cell_length_c   6.47580883
_cell_angle_alpha   96.74005258
_cell_angle_beta   111.23351659
_cell_angle_gamma   68.76648341
_symmetry_Int_Tables_number   1
_chemical_formula_structural   Ho(Fe5Re)2
_chemical_formula_sum   'Ho1 Fe10 Re2'
_cell_volume   170.88572887
_cell_formula_units_Z   1
loop_
 _symmetry_equiv_pos_site_id
 _symmetry_equiv_pos_as_xyz
  1  'x, y, z'
loop_
 _atom_site_type_symbol
 _atom_site_label
 _atom_site_symmetry_multiplicity
 _atom_site_fract_x
 _atom_site_fract_y
 _atom_site_fract_z
 _atom_site_occupancy
  Ho  Ho0  1  0.00000000  0.00000000  0.00000000  1
  Fe  Fe0  1  0.50000000  0.00000000  0.50000000  1
  Fe  Fe1  1  0.00000000  0.00000000  0.50000000  1
  Fe  Fe2  1  0.50000000  0.50000000  0.00000000  1
  Fe  Fe3  1  0.00000000  0.50000000  0.00000000  1
  Fe  Fe4  1  0.72021600  0.77978400  0.22021600  1
  Fe  Fe5  1  0.27978400  0.22021600  0.77978400  1
  Fe  Fe6  1  0.50000000  0.77187500  0.77187500  1
  Fe  Fe7  1  0.50000000  0.22812500  0.22812500  1
  Fe  Fe8  1  0.64120500  0.35879500  0.64120500  1
  Fe  Fe9  1  0.35879500  0.64120500  0.35879500  1
  Re  Re0  1  0.00000000  0.35747900  0.35747900  1
  Re  Re1  1  0.00000000  0.64252100  0.64252100  1
loop_
_geom_bond_atom_site_label_1
_geom_bond_atom_site_label_2
_geom_bond_distance
_geom_bond_site_symmetry_2
Ho0 Re1 3.075744 1_544
Ho0 Re0 3.075744 1_555
Fe0 Fe1 2.345343 1_555
Fe0 Fe1 2.345343 1_655
Fe0 Fe6 2.427481 1_545
Fe0 Fe7 2.427481 1_555
Fe0 Fe5 2.462835 1_555
Fe0 Fe4 2.462835 1_545
Fe0 Re0 2.590830 1_555
Fe0 Re1 2.590830 1_645
Fe0 Fe8 2.617397 1_555
Fe0 Fe9 2.617397 1_545
Fe0 Ho0 3.237904 1_656
Fe0 Ho0 3.237904 1_555
Fe1 Fe7 2.427481 1_455
Fe1 Fe6 2.427481 1_545
Fe1 Fe5 2.462835 1_555
Fe1 Fe4 2.462835 1_445
Fe1 Re1 2.590830 1_545
Fe1 Re0 2.590830 1_555
Fe1 Fe9 2.617397 1_545
Fe1 Fe8 2.617397 1_455
Fe1 Ho0 3.237904 1_555
Fe1 Ho0 3.237904 1_556
Fe2 Fe3 2.345343 1_655
Fe2 Fe3 2.345343 1_555
Fe2 Fe6 2.427481 1_554
Fe2 Fe7 2.427481 1_555
Fe2 Fe5 2.462835 1_554
Fe2 Fe4 2.462835 1_555
Fe2 Re1 2.590830 1_554
Fe2 Re0 2.590830 1_655
Fe2 Fe8 2.617397 1_554
Fe2 Fe9 2.617397 1_555
Fe2 Ho0 3.237904 1_565
Fe2 Ho0 3.237904 1_655
Fe3 Fe6 2.427481 1_454
Fe3 Fe7 2.427481 1_555
Fe3 Fe4 2.462835 1_455
Fe3 Fe5 2.462835 1_554
Fe3 Re1 2.590830 1_554
Fe3 Re0 2.590830 1_555
Fe3 Fe8 2.617397 1_454
Fe3 Fe9 2.617397 1_555
Fe3 Ho0 3.237904 1_555
Fe3 Ho0 3.237904 1_565
Fe4 Fe9 2.622560 1_655
Fe4 Fe9 2.622561 1_555
Fe4 Re0 2.667834 1_655
Fe4 Re1 2.667834 1_655
Fe4 Fe7 2.707446 1_565
Fe4 Fe6 2.707446 1_554
Fe4 Ho0 2.996394 1_565
Fe4 Ho0 2.996394 1_665
Fe5 Fe8 2.622560 1_455
Fe5 Fe8 2.622561 1_555
Fe5 Re1 2.667834 1_555
Fe5 Re0 2.667834 1_555
Fe5 Fe7 2.707446 1_556
Fe5 Fe6 2.707446 1_545
Fe5 Ho0 2.996394 1_656
Fe5 Ho0 2.996394 1_556
Fe6 Re1 2.596018 1_655
Fe6 Re1 2.596018 1_555
Fe6 Fe9 2.627123 1_555
Fe6 Fe8 2.627123 1_555
Fe6 Ho0 3.058292 1_566
Fe6 Ho0 3.058292 1_666
Fe7 Re0 2.596018 1_655
Fe7 Re0 2.596018 1_555
Fe7 Fe9 2.627123 1_555
Fe7 Fe8 2.627123 1_555
Fe7 Ho0 3.058292 1_555
Fe7 Ho0 3.058292 1_655
Fe8 Fe9 2.391553 1_555
Fe8 Re1 2.904169 1_555
Fe8 Re0 2.904169 1_555
Fe8 Re0 2.904169 1_655
Fe8 Re1 2.904169 1_655
Fe8 Ho0 3.038410 1_656
Fe9 Re1 2.904169 1_655
Fe9 Re0 2.904169 1_655
Fe9 Re1 2.904169 1_555
Fe9 Re0 2.904169 1_555
Fe9 Ho0 3.038410 1_565
Re0 Re1 2.452497 1_555
