# generated using pymatgen
data_BaMg6Co
_symmetry_space_group_name_H-M   'P 1'
_cell_length_a   4.98374000
_cell_length_b   5.94952300
_cell_length_c   13.74880700
_cell_angle_alpha   90.00000000
_cell_angle_beta   90.00000000
_cell_angle_gamma   90.00000000
_symmetry_Int_Tables_number   1
_chemical_formula_structural   BaMg6Co
_chemical_formula_sum   'Ba2 Mg12 Co2'
_cell_volume   407.66416815
_cell_formula_units_Z   2
loop_
 _symmetry_equiv_pos_site_id
 _symmetry_equiv_pos_as_xyz
  1  'x, y, z'
loop_
 _atom_site_type_symbol
 _atom_site_label
 _atom_site_symmetry_multiplicity
 _atom_site_fract_x
 _atom_site_fract_y
 _atom_site_fract_z
 _atom_site_occupancy
  Ba  Ba0  1  0.50000000  0.50000000  0.20207000  1
  Ba  Ba1  1  0.50000000  0.00000000  0.70207000  1
  Mg  Mg0  1  0.50000000  0.24464000  0.44512700  1
  Mg  Mg1  1  0.50000000  0.75536000  0.44512700  1
  Mg  Mg2  1  0.00000000  0.76533800  0.07502100  1
  Mg  Mg3  1  0.00000000  0.23466200  0.07502100  1
  Mg  Mg4  1  0.00000000  0.00000000  0.28934500  1
  Mg  Mg5  1  0.00000000  0.50000000  0.37377300  1
  Mg  Mg6  1  0.50000000  0.74464000  0.94512700  1
  Mg  Mg7  1  0.50000000  0.25536000  0.94512700  1
  Mg  Mg8  1  0.00000000  0.26533800  0.57502100  1
  Mg  Mg9  1  0.00000000  0.73466200  0.57502100  1
  Mg  Mg10  1  0.00000000  0.50000000  0.78934500  1
  Mg  Mg11  1  0.00000000  0.00000000  0.87377300  1
  Co  Co0  1  0.50000000  0.00000000  0.09451100  1
  Co  Co1  1  0.50000000  0.50000000  0.59451100  1
loop_
_geom_bond_atom_site_label_1
_geom_bond_atom_site_label_2
_geom_bond_distance
_geom_bond_site_symmetry_2
Ba0 Co0 3.322059 1_555
Ba0 Co0 3.322059 1_565
Ba0 Mg2 3.428223 1_555
Ba0 Mg2 3.428223 1_655
Ba0 Mg3 3.428223 1_555
Ba0 Mg3 3.428223 1_655
Ba0 Mg5 3.432546 1_655
Ba0 Mg5 3.432546 1_555
Ba0 Mg1 3.670890 1_555
Ba0 Mg0 3.670890 1_555
Ba0 Mg6 3.820751 1_554
Ba0 Mg7 3.820751 1_554
Ba0 Mg4 4.061828 1_555
Ba0 Mg4 4.061828 1_565
Ba0 Mg4 4.061828 1_655
Ba0 Mg4 4.061828 1_665
Ba1 Co1 3.322059 1_555
Ba1 Co1 3.322059 1_545
Ba1 Mg8 3.428223 1_555
Ba1 Mg8 3.428223 1_655
Ba1 Mg9 3.428223 1_545
Ba1 Mg9 3.428223 1_645
Ba1 Mg11 3.432546 1_655
Ba1 Mg11 3.432546 1_555
Ba1 Mg7 3.670890 1_555
Ba1 Mg6 3.670890 1_545
Ba1 Mg0 3.820751 1_555
Ba1 Mg1 3.820751 1_545
Ba1 Mg10 4.061828 1_555
Ba1 Mg10 4.061828 1_545
Ba1 Mg10 4.061828 1_645
Ba1 Mg10 4.061828 1_655
Mg0 Mg8 3.068220 1_555
Mg0 Mg8 3.068220 1_655
Mg0 Mg5 3.078965 1_555
Mg0 Mg5 3.078965 1_655
Mg1 Mg9 3.068220 1_655
Mg1 Mg9 3.068220 1_555
Mg1 Mg5 3.078965 1_655
Mg1 Mg5 3.078965 1_555
Mg2 Mg3 2.792254 1_565
Mg2 Mg6 3.068220 1_554
Mg2 Mg6 3.068220 1_454
Mg2 Mg3 3.157269 1_555
Mg2 Mg4 3.260707 1_565
Mg3 Mg7 3.068220 1_554
Mg3 Mg7 3.068220 1_454
Mg3 Mg4 3.260707 1_555
Mg4 Mg5 3.193216 1_555
Mg4 Mg5 3.193216 1_545
Mg5 Mg9 3.099196 1_555
Mg5 Mg8 3.099196 1_555
Mg8 Mg9 2.792254 1_555
Mg8 Mg9 3.157269 1_545
Mg10 Mg11 3.193216 1_565
Mg10 Mg11 3.193216 1_555
Mg10 Mg9 3.260707 1_555
Mg10 Mg8 3.260707 1_555
Mg11 Mg6 3.078965 1_445
Mg11 Mg6 3.078965 1_545
Mg11 Mg7 3.078965 1_555
Mg11 Mg7 3.078965 1_455
Mg11 Mg3 3.099196 1_556
Mg11 Mg2 3.099196 1_546
Co0 Mg6 2.554699 1_544
Co0 Mg7 2.554699 1_554
Co0 Mg3 2.868866 1_655
Co0 Mg3 2.868866 1_555
Co0 Mg2 2.868866 1_645
Co0 Mg2 2.868866 1_545
Co1 Mg1 2.554699 1_555
Co1 Mg0 2.554699 1_555
Co1 Mg9 2.868866 1_655
Co1 Mg9 2.868866 1_555
Co1 Mg8 2.868866 1_555
Co1 Mg8 2.868866 1_655
