# generated using pymatgen
data_Na6MnNi3(SbO6)2
_symmetry_space_group_name_H-M   'P 1'
_cell_length_a   9.37044900
_cell_length_b   5.41612500
_cell_length_c   5.71684067
_cell_angle_alpha   71.60562169
_cell_angle_beta   90.00000000
_cell_angle_gamma   90.00000000
_symmetry_Int_Tables_number   1
_chemical_formula_structural   Na6MnNi3(SbO6)2
_chemical_formula_sum   'Na6 Mn1 Ni3 Sb2 O12'
_cell_volume   275.31432488
_cell_formula_units_Z   1
loop_
 _symmetry_equiv_pos_site_id
 _symmetry_equiv_pos_as_xyz
  1  'x, y, z'
loop_
 _atom_site_type_symbol
 _atom_site_label
 _atom_site_symmetry_multiplicity
 _atom_site_fract_x
 _atom_site_fract_y
 _atom_site_fract_z
 _atom_site_occupancy
  Na  Na0  1  0.99868300  0.50000000  0.50000000  1
  Na  Na1  1  0.82565700  0.00000000  0.50000000  1
  Na  Na2  1  0.17225800  0.00000000  0.50000000  1
  Na  Na3  1  0.50176200  0.00000000  0.50000000  1
  Na  Na4  1  0.32583900  0.50000000  0.50000000  1
  Na  Na5  1  0.67478900  0.50000000  0.50000000  1
  Mn  Mn0  1  0.33397200  0.00000000  0.00000000  1
  Ni  Ni0  1  0.16497000  0.50000000  0.00000000  1
  Ni  Ni1  1  0.83392000  0.50000000  0.00000000  1
  Ni  Ni2  1  0.66775600  0.00000000  0.00000000  1
  Sb  Sb0  1  0.99700200  0.00000000  0.00000000  1
  Sb  Sb1  1  0.50318900  0.50000000  0.00000000  1
  O  O0  1  0.15249900  0.23069200  0.79227200  1
  O  O1  1  0.99984500  0.24955100  0.20163800  1
  O  O2  1  0.99984500  0.75044900  0.79836200  1
  O  O3  1  0.83966200  0.22642800  0.79764100  1
  O  O4  1  0.15249900  0.76930800  0.20772800  1
  O  O5  1  0.83966200  0.77357200  0.20235900  1
  O  O6  1  0.65990900  0.72877500  0.79755900  1
  O  O7  1  0.50562300  0.74270000  0.20704400  1
  O  O8  1  0.50562300  0.25730000  0.79295600  1
  O  O9  1  0.34256300  0.71713700  0.79157200  1
  O  O10  1  0.65990900  0.27122500  0.20244100  1
  O  O11  1  0.34256300  0.28286300  0.20842800  1
loop_
_geom_bond_atom_site_label_1
_geom_bond_atom_site_label_2
_geom_bond_distance
_geom_bond_site_symmetry_2
Na0 O0 2.336376 1_655
Na0 O4 2.336376 1_655
Na0 O5 2.391650 1_555
Na0 O3 2.391650 1_555
Na0 O1 2.491924 1_555
Na0 O2 2.491924 1_555
Na1 O5 2.394468 1_545
Na1 O3 2.394468 1_555
Na1 O10 2.426273 1_555
Na1 O6 2.426273 1_545
Na1 O1 2.438312 1_555
Na1 O2 2.438312 1_545
Na2 O0 2.388472 1_555
Na2 O4 2.388472 1_545
Na2 O1 2.427209 1_455
Na2 O2 2.427209 1_445
Na2 O11 2.461824 1_555
Na2 O9 2.461824 1_545
Na3 O10 2.381309 1_555
Na3 O6 2.381309 1_545
Na3 O11 2.395674 1_555
Na3 O9 2.395674 1_545
Na3 O8 2.494235 1_555
Na3 O7 2.494235 1_545
Na4 O11 2.328790 1_555
Na4 O9 2.328790 1_555
Na4 O8 2.445705 1_555
Na4 O7 2.445705 1_555
Na4 O0 2.453467 1_555
Na4 O4 2.453467 1_555
Na5 O8 2.378264 1_555
Na5 O7 2.378264 1_555
Na5 O6 2.403898 1_555
Na5 O10 2.403898 1_555
Na5 O5 2.426194 1_555
Na5 O3 2.426194 1_555
Mn0 O8 2.211137 1_554
Mn0 O7 2.211137 1_545
Mn0 O9 2.219334 1_544
Mn0 O11 2.219334 1_555
Mn0 O0 2.219599 1_554
Mn0 O4 2.219599 1_545
Ni0 O2 2.139176 1_454
Ni0 O1 2.139176 1_455
Ni0 O4 2.155144 1_555
Ni0 O0 2.155144 1_554
Ni0 O9 2.165132 1_554
Ni0 O11 2.165132 1_555
Ni1 O2 2.144605 1_554
Ni1 O1 2.144605 1_555
Ni1 O3 2.149055 1_554
Ni1 O5 2.149055 1_555
Ni1 O10 2.151374 1_555
Ni1 O6 2.151374 1_554
Ni2 O3 2.131126 1_554
Ni2 O5 2.131126 1_545
Ni2 O6 2.139084 1_544
Ni2 O10 2.139084 1_555
Ni2 O7 2.147131 1_545
Ni2 O8 2.147131 1_554
O0 Sb0 2.039129 1_456
O1 Sb0 2.034604 1_555
O2 Sb0 2.034604 1_566
O3 Sb0 2.029926 1_556
O4 Sb0 2.039129 1_465
O5 Sb0 2.029926 1_565
O6 Sb1 2.031325 1_556
O7 Sb1 2.027646 1_555
O8 Sb1 2.027646 1_556
O9 Sb1 2.045463 1_556
O10 Sb1 2.031325 1_555
O11 Sb1 2.045463 1_555
