# generated using pymatgen
data_In3SbTe4
_symmetry_space_group_name_H-M   'P 1'
_cell_length_a   6.91281735
_cell_length_b   6.91281735
_cell_length_c   6.91281735
_cell_angle_alpha   105.79483820
_cell_angle_beta   105.79483820
_cell_angle_gamma   117.10437504
_symmetry_Int_Tables_number   1
_chemical_formula_structural   In3SbTe4
_chemical_formula_sum   'In3 Sb1 Te4'
_cell_volume   250.87076805
_cell_formula_units_Z   1
loop_
 _symmetry_equiv_pos_site_id
 _symmetry_equiv_pos_as_xyz
  1  'x, y, z'
loop_
 _atom_site_type_symbol
 _atom_site_label
 _atom_site_symmetry_multiplicity
 _atom_site_fract_x
 _atom_site_fract_y
 _atom_site_fract_z
 _atom_site_occupancy
  In  In0  1  0.50000000  0.50000000  0.00000000  1
  In  In1  1  0.50000000  0.00000000  0.50000000  1
  In  In2  1  0.00000000  0.50000000  0.50000000  1
  Sb  Sb0  1  0.00000000  0.00000000  0.00000000  1
  Te  Te0  1  0.94095100  0.44095100  0.88190200  1
  Te  Te1  1  0.55904900  0.05904900  0.11809800  1
  Te  Te2  1  0.05904900  0.94095100  0.50000000  1
  Te  Te3  1  0.44095100  0.55904900  0.50000000  1
loop_
_geom_bond_atom_site_label_1
_geom_bond_atom_site_label_2
_geom_bond_distance
_geom_bond_site_symmetry_2
In0 Te1 3.525881 1_565
In0 Te1 3.525881 1_555
In0 Te0 3.525881 1_454
In0 Te2 3.525881 1_655
In0 Te3 3.525881 1_554
In0 Te2 3.525881 1_544
In0 Te0 3.525881 1_554
In0 Te3 3.525881 1_555
In1 Te3 2.885208 1_545
In1 Te2 2.885208 1_545
In1 Te0 2.885208 1_555
In1 Te1 2.885208 1_555
In2 Te0 2.885208 1_455
In2 Te2 2.885208 1_555
In2 Te3 2.885208 1_555
In2 Te1 2.885208 1_455
