# generated using pymatgen
data_LiMnV(P2O7)2
_symmetry_space_group_name_H-M   'P 1'
_cell_length_a   7.04097300
_cell_length_b   8.18654901
_cell_length_c   9.69746587
_cell_angle_alpha   89.18535241
_cell_angle_beta   71.49192584
_cell_angle_gamma   88.00622877
_symmetry_Int_Tables_number   1
_chemical_formula_structural   LiMnV(P2O7)2
_chemical_formula_sum   'Li2 Mn2 V2 P8 O28'
_cell_volume   529.73964492
_cell_formula_units_Z   2
loop_
 _symmetry_equiv_pos_site_id
 _symmetry_equiv_pos_as_xyz
  1  'x, y, z'
loop_
 _atom_site_type_symbol
 _atom_site_label
 _atom_site_symmetry_multiplicity
 _atom_site_fract_x
 _atom_site_fract_y
 _atom_site_fract_z
 _atom_site_occupancy
  Li  Li0  1  0.32893000  0.86261800  0.58457200  1
  Li  Li1  1  0.67108700  0.35775400  0.91293500  1
  Mn  Mn0  1  0.73362800  0.00715400  0.39096600  1
  Mn  Mn1  1  0.72164400  0.99252200  0.89646000  1
  V  V0  1  0.27509600  0.50576700  0.10898400  1
  V  V1  1  0.28065900  0.49550700  0.60136800  1
  P  P0  1  0.48199800  0.17565600  0.19997000  1
  P  P1  1  0.90999900  0.78047200  0.11007500  1
  P  P2  1  0.08720800  0.28689800  0.39152400  1
  P  P3  1  0.51520000  0.67885900  0.30236800  1
  P  P4  1  0.47703000  0.17757600  0.70284300  1
  P  P5  1  0.90759400  0.78095600  0.60974100  1
  P  P6  1  0.09111300  0.29118500  0.89391900  1
  P  P7  1  0.51642000  0.68176700  0.79929600  1
  O  O0  1  0.16124200  0.34050900  0.02200600  1
  O  O1  1  0.10511700  0.67771700  0.06921000  1
  O  O2  1  0.52962200  0.03866100  0.08824900  1
  O  O3  1  0.48618200  0.34496700  0.12488400  1
  O  O4  1  0.39387000  0.66145900  0.19530300  1
  O  O5  1  0.09373500  0.43981200  0.29454800  1
  O  O6  1  0.25254200  0.15278900  0.29968200  1
  O  O7  1  0.74563300  0.65302800  0.20440900  1
  O  O8  1  0.91008000  0.93172500  0.20018400  1
  O  O9  1  0.60965600  0.17465800  0.30154200  1
  O  O10  1  0.48817900  0.84418900  0.37562300  1
  O  O11  1  0.47252100  0.53602900  0.41136500  1
  O  O12  1  0.15582300  0.33861400  0.52155900  1
  O  O13  1  0.11159000  0.68847500  0.57107500  1
  O  O14  1  0.89386200  0.20020800  0.44178100  1
  O  O15  1  0.85501800  0.82692000  0.47244000  1
  O  O16  1  0.51772500  0.03905100  0.59217600  1
  O  O17  1  0.48157300  0.34773900  0.63314400  1
  O  O18  1  0.39301400  0.66869100  0.69298200  1
  O  O19  1  0.09945200  0.44094500  0.79263300  1
  O  O20  1  0.24800200  0.15080300  0.80389100  1
  O  O21  1  0.75025100  0.64864800  0.70140200  1
  O  O22  1  0.90774200  0.93073200  0.70395000  1
  O  O23  1  0.60992400  0.17646800  0.80164800  1
  O  O24  1  0.49452000  0.84789300  0.86598800  1
  O  O25  1  0.48070800  0.53747700  0.90798400  1
  O  O26  1  0.88893700  0.21467300  0.93812600  1
  O  O27  1  0.86126800  0.82157800  0.96984600  1
loop_
_geom_bond_atom_site_label_1
_geom_bond_atom_site_label_2
_geom_bond_distance
_geom_bond_site_symmetry_2
Li0 O10 1.985014 1_555
Li0 O18 2.008267 1_555
Li0 O16 2.014339 1_565
Li0 O13 2.162312 1_555
Li1 O25 1.966087 1_555
Li1 O26 1.972113 1_555
Li1 O23 1.984385 1_555
Li1 O3 2.057903 1_556
Mn0 O9 1.938509 1_555
Mn0 O15 1.959509 1_545
Mn0 O8 1.966605 1_545
Mn0 O16 2.071252 1_555
Mn0 O14 2.124301 1_555
Mn0 O10 2.262303 1_545
Mn1 O27 1.936875 1_555
Mn1 O2 1.953902 1_566
Mn1 O22 1.971212 1_555
Mn1 O23 2.017223 1_565
Mn1 O24 2.118555 1_555
Mn1 O26 2.308750 1_565
O0 P6 1.538587 1_554
O0 V0 1.929138 1_555
O1 P1 1.528228 1_455
O1 V0 1.929535 1_555
O2 P0 1.523731 1_555
O3 P0 1.553314 1_555
O3 V0 1.992285 1_555
O4 P3 1.550437 1_555
O4 V0 1.890387 1_555
O5 P2 1.548125 1_555
O5 V0 1.929206 1_555
O6 P0 1.613777 1_555
O6 P2 1.623079 1_555
O7 P3 1.607130 1_555
O7 P1 1.627716 1_555
O8 P1 1.525762 1_555
O9 P0 1.529551 1_555
O10 P3 1.515381 1_555
O11 P3 1.537015 1_555
O11 V1 1.939970 1_555
O12 P2 1.555308 1_555
O12 V1 1.886796 1_555
O13 P5 1.538611 1_455
O13 V1 2.019141 1_555
O14 P2 1.493523 1_655
O15 P5 1.529847 1_555
O16 P4 1.528613 1_555
O17 P4 1.536571 1_555
O17 V1 1.925255 1_555
O18 P7 1.551676 1_555
O18 V1 1.996317 1_555
O19 P6 1.550958 1_555
O19 V1 1.944551 1_555
O20 P4 1.619858 1_555
O20 P6 1.622078 1_555
O21 P5 1.619125 1_555
O21 P7 1.633806 1_555
O22 P5 1.539686 1_555
O23 P4 1.536897 1_555
O24 P7 1.496247 1_555
O25 P7 1.544819 1_555
O25 V0 2.045195 1_556
O26 P6 1.506481 1_655
O27 P1 1.534726 1_556
