# generated using pymatgen
data_Ca4H16C8O25
_symmetry_space_group_name_H-M   'P 1'
_cell_length_a   9.65025381
_cell_length_b   9.65025381
_cell_length_c   9.65025381
_cell_angle_alpha   98.35454381
_cell_angle_beta   98.35454381
_cell_angle_gamma   135.18642210
_symmetry_Int_Tables_number   1
_chemical_formula_structural   Ca4H16C8O25
_chemical_formula_sum   'Ca4 H16 C8 O25'
_cell_volume   585.58625284
_cell_formula_units_Z   1
loop_
 _symmetry_equiv_pos_site_id
 _symmetry_equiv_pos_as_xyz
  1  'x, y, z'
loop_
 _atom_site_type_symbol
 _atom_site_label
 _atom_site_symmetry_multiplicity
 _atom_site_fract_x
 _atom_site_fract_y
 _atom_site_fract_z
 _atom_site_occupancy
  Ca  Ca0  1  0.29942800  0.20227400  0.50283400  1
  Ca  Ca1  1  0.69944000  0.79659400  0.49716600  1
  Ca  Ca2  1  0.20227400  0.69944000  0.90284600  1
  Ca  Ca3  1  0.79659400  0.29942800  0.09715400  1
  H  H0  1  0.18235500  0.27363200  0.24128100  1
  H  H1  1  0.03235000  0.94107400  0.75871900  1
  H  H2  1  0.27363200  0.03235000  0.09127600  1
  H  H3  1  0.94107400  0.18235500  0.90872400  1
  H  H4  1  0.82027200  0.72377200  0.75458200  1
  H  H5  1  0.96919000  0.06569000  0.24541800  1
  H  H6  1  0.72377200  0.96919000  0.90350000  1
  H  H7  1  0.06569000  0.82027200  0.09650000  1
  H  H8  1  0.24661000  0.88189200  0.34099800  1
  H  H9  1  0.54089400  0.90561200  0.65900200  1
  H  H10  1  0.88189200  0.54089400  0.63528200  1
  H  H11  1  0.90561200  0.24661000  0.36471800  1
  H  H12  1  0.75670600  0.11846000  0.66075500  1
  H  H13  1  0.45770500  0.09595100  0.33924500  1
  H  H14  1  0.11846000  0.45770500  0.36175500  1
  H  H15  1  0.09595100  0.75670600  0.63824500  1
  C  C0  1  0.65738900  0.34932300  0.79494500  1
  C  C1  1  0.55437800  0.86244400  0.20505500  1
  C  C2  1  0.34932300  0.55437800  0.69193400  1
  C  C3  1  0.86244400  0.65738900  0.30806600  1
  C  C4  1  0.34143300  0.65132400  0.20641600  1
  C  C5  1  0.44490800  0.13501700  0.79358400  1
  C  C6  1  0.65132400  0.44490800  0.30989100  1
  C  C7  1  0.13501700  0.34143300  0.69010900  1
  O  O0  1  0.11632600  0.14743300  0.26462700  1
  O  O1  1  0.88280600  0.85169900  0.73537300  1
  O  O2  1  0.14743300  0.88280600  0.03110600  1
  O  O3  1  0.85169900  0.11632600  0.96889400  1
  O  O4  1  0.37785800  0.02870300  0.40508900  1
  O  O5  1  0.62361400  0.97277000  0.59491100  1
  O  O6  1  0.02870300  0.62361400  0.65084500  1
  O  O7  1  0.97277000  0.37785800  0.34915500  1
  O  O8  1  0.64561700  0.42248800  0.70080700  1
  O  O9  1  0.72168100  0.94481000  0.29919300  1
  O  O10  1  0.42248800  0.72168100  0.77687100  1
  O  O11  1  0.94481000  0.64561700  0.22312900  1
  O  O12  1  0.35283000  0.58149700  0.30371700  1
  O  O13  1  0.27778100  0.04911300  0.69628300  1
  O  O14  1  0.58149700  0.27778100  0.22866700  1
  O  O15  1  0.04911300  0.35283000  0.77133300  1
  O  O16  1  0.82358900  0.42878200  0.88782700  1
  O  O17  1  0.54095600  0.93576200  0.11217300  1
  O  O18  1  0.42878200  0.54095600  0.60519400  1
  O  O19  1  0.93576200  0.82358900  0.39480600  1
  O  O20  1  0.17545000  0.57155600  0.11293600  1
  O  O21  1  0.45862000  0.06251400  0.88706400  1
  O  O22  1  0.57155600  0.45862000  0.39610600  1
  O  O23  1  0.06251400  0.17545000  0.60389400  1
  O  O24  1  0.34862700  0.34862700  0.00000000  1
loop_
_geom_bond_atom_site_label_1
_geom_bond_atom_site_label_2
_geom_bond_distance
_geom_bond_site_symmetry_2
Ca0 O4 2.411488 1_555
Ca0 O0 2.413694 1_555
Ca0 O23 2.475243 1_555
Ca0 O18 2.476110 1_555
Ca0 O13 2.488050 1_555
Ca0 O8 2.493901 1_555
Ca0 O22 2.527073 1_555
Ca0 O19 2.528112 1_445
Ca1 O5 2.411496 1_555
Ca1 O1 2.413694 1_555
Ca1 O22 2.475243 1_555
Ca1 O19 2.476105 1_555
Ca1 O12 2.488048 1_555
Ca1 O9 2.493901 1_555
Ca1 O23 2.527073 1_665
Ca1 O18 2.528116 1_555
Ca2 O6 2.411488 1_555
Ca2 O2 2.413690 1_556
Ca2 O20 2.475243 1_556
Ca2 O17 2.476105 1_556
Ca2 O15 2.488048 1_555
Ca2 O10 2.493901 1_555
Ca2 O21 2.527073 1_565
Ca2 O16 2.528112 1_455
Ca3 O7 2.411491 1_555
Ca3 O3 2.413690 1_554
Ca3 O21 2.475243 1_554
Ca3 O16 2.476100 1_554
Ca3 O14 2.488052 1_555
Ca3 O11 2.493901 1_555
Ca3 O20 2.527073 1_655
Ca3 O17 2.528112 1_545
H0 O0 0.979990 1_555
H1 O1 0.979982 1_455
H2 O2 0.979985 1_545
H3 O3 0.979990 1_555
H4 O1 0.982139 1_555
H5 O0 0.982139 1_655
H6 O3 0.982141 1_565
H7 O2 0.982147 1_555
H8 O4 0.982712 1_565
H9 O5 0.982714 1_555
H10 O6 0.982712 1_655
H11 O7 0.982710 1_555
H12 O5 0.985524 1_545
H13 O4 0.985528 1_555
H14 O7 0.985518 1_455
H15 O6 0.985532 1_555
C0 O16 1.265462 1_555
C0 O8 1.267646 1_555
C1 O17 1.265458 1_555
C1 O9 1.267646 1_555
C2 O18 1.265450 1_555
C2 O10 1.267646 1_555
C3 O19 1.265458 1_555
C3 O11 1.267646 1_555
C4 O20 1.265280 1_555
C4 O12 1.267620 1_555
C5 O21 1.265280 1_555
C5 O13 1.267613 1_555
C6 O22 1.265280 1_555
C6 O14 1.267612 1_555
C7 O23 1.265280 1_555
C7 O15 1.267620 1_555
