# generated using pymatgen
data_La2MgFeO6
_symmetry_space_group_name_H-M   'P 1'
_cell_length_a   5.53035780
_cell_length_b   5.52137231
_cell_length_c   5.53130951
_cell_angle_alpha   61.41345487
_cell_angle_beta   61.38998748
_cell_angle_gamma   61.53461993
_symmetry_Int_Tables_number   1
_chemical_formula_structural   La2MgFeO6
_chemical_formula_sum   'La2 Mg1 Fe1 O6'
_cell_volume   123.30760465
_cell_formula_units_Z   1
loop_
 _symmetry_equiv_pos_site_id
 _symmetry_equiv_pos_as_xyz
  1  'x, y, z'
loop_
 _atom_site_type_symbol
 _atom_site_label
 _atom_site_symmetry_multiplicity
 _atom_site_fract_x
 _atom_site_fract_y
 _atom_site_fract_z
 _atom_site_occupancy
  La  La0  1  0.75093400  0.75140500  0.75144000  1
  La  La1  1  0.24906600  0.24859500  0.24856000  1
  Mg  Mg0  1  0.50000000  0.50000000  0.50000000  1
  Fe  Fe0  1  0.99999900  0.00000000  0.00000000  1
  O  O0  1  0.31782900  0.76070700  0.17099000  1
  O  O1  1  0.76111600  0.17083000  0.31743200  1
  O  O2  1  0.17024100  0.31659100  0.76176500  1
  O  O3  1  0.68217100  0.23929300  0.82901000  1
  O  O4  1  0.82976000  0.68340900  0.23823500  1
  O  O5  1  0.23888500  0.82917000  0.68256800  1
loop_
_geom_bond_atom_site_label_1
_geom_bond_atom_site_label_2
_geom_bond_distance
_geom_bond_site_symmetry_2
La0 O0 2.408044 1_556
La0 O1 2.409111 1_565
La0 O2 2.415162 1_655
La0 O3 2.749295 1_565
La0 O5 2.752286 1_655
La0 O4 2.753524 1_556
La0 O3 2.834001 1_555
La0 O5 2.840107 1_555
La0 O4 2.840407 1_555
La1 O3 2.408044 1_554
La1 O5 2.409111 1_545
La1 O4 2.415159 1_455
La1 O0 2.749295 1_545
La1 O1 2.752281 1_455
La1 O2 2.753521 1_554
La1 O0 2.834001 1_555
La1 O1 2.840113 1_555
La1 O2 2.840410 1_555
Mg0 O0 2.065304 1_555
Mg0 O3 2.065304 1_555
Mg0 O5 2.065488 1_555
Mg0 O1 2.065488 1_555
Mg0 O2 2.067911 1_555
Mg0 O4 2.067915 1_555
Fe0 O4 1.963347 1_545
Fe0 O2 1.963357 1_654
Fe0 O1 1.973170 1_555
Fe0 O5 1.973170 1_644
Fe0 O3 1.977922 1_554
Fe0 O0 1.977931 1_645
