# generated using pymatgen
data_CeMg2
_symmetry_space_group_name_H-M   'P 1'
_cell_length_a   18.05547673
_cell_length_b   18.05547673
_cell_length_c   11.07521400
_cell_angle_alpha   90.00000000
_cell_angle_beta   90.00000000
_cell_angle_gamma   159.67630379
_symmetry_Int_Tables_number   1
_chemical_formula_structural   CeMg2
_chemical_formula_sum   'Ce16 Mg32'
_cell_volume   1254.01932455
_cell_formula_units_Z   16
loop_
 _symmetry_equiv_pos_site_id
 _symmetry_equiv_pos_as_xyz
  1  'x, y, z'
loop_
 _atom_site_type_symbol
 _atom_site_label
 _atom_site_symmetry_multiplicity
 _atom_site_fract_x
 _atom_site_fract_y
 _atom_site_fract_z
 _atom_site_occupancy
  Ce  Ce0_0  1  0.05516100  0.44483900  0.12500000  1
  Ce  Ce0_1  1  0.05516100  0.44483900  0.62500000  1
  Ce  Ce0_2  1  0.05516100  0.94483900  0.12500000  1
  Ce  Ce0_3  1  0.05516100  0.94483900  0.62500000  1
  Ce  Ce0_4  1  0.55516100  0.44483900  0.12500000  1
  Ce  Ce0_5  1  0.55516100  0.44483900  0.62500000  1
  Ce  Ce0_6  1  0.55516100  0.94483900  0.12500000  1
  Ce  Ce0_7  1  0.55516100  0.94483900  0.62500000  1
  Ce  Ce1_0  1  0.44483900  0.05516100  0.37500000  1
  Ce  Ce1_1  1  0.44483900  0.05516100  0.87500000  1
  Ce  Ce1_2  1  0.44483900  0.55516100  0.37500000  1
  Ce  Ce1_3  1  0.44483900  0.55516100  0.87500000  1
  Ce  Ce1_4  1  0.94483900  0.05516100  0.37500000  1
  Ce  Ce1_5  1  0.94483900  0.05516100  0.87500000  1
  Ce  Ce1_6  1  0.94483900  0.55516100  0.37500000  1
  Ce  Ce1_7  1  0.94483900  0.55516100  0.87500000  1
  Mg  Mg0_0  1  0.22194950  0.27805050  0.12500000  1
  Mg  Mg0_1  1  0.22194950  0.27805050  0.62500000  1
  Mg  Mg0_2  1  0.22194950  0.77805050  0.12500000  1
  Mg  Mg0_3  1  0.22194950  0.77805050  0.62500000  1
  Mg  Mg0_4  1  0.72194950  0.27805050  0.12500000  1
  Mg  Mg0_5  1  0.72194950  0.27805050  0.62500000  1
  Mg  Mg0_6  1  0.72194950  0.77805050  0.12500000  1
  Mg  Mg0_7  1  0.72194950  0.77805050  0.62500000  1
  Mg  Mg1_0  1  0.39043800  0.10956200  0.12500000  1
  Mg  Mg1_1  1  0.39043800  0.10956200  0.62500000  1
  Mg  Mg1_2  1  0.39043800  0.60956200  0.12500000  1
  Mg  Mg1_3  1  0.39043800  0.60956200  0.62500000  1
  Mg  Mg1_4  1  0.89043800  0.10956200  0.12500000  1
  Mg  Mg1_5  1  0.89043800  0.10956200  0.62500000  1
  Mg  Mg1_6  1  0.89043800  0.60956200  0.12500000  1
  Mg  Mg1_7  1  0.89043800  0.60956200  0.62500000  1
  Mg  Mg2_0  1  0.10956200  0.39043800  0.37500000  1
  Mg  Mg2_1  1  0.10956200  0.39043800  0.87500000  1
  Mg  Mg2_2  1  0.10956200  0.89043800  0.37500000  1
  Mg  Mg2_3  1  0.10956200  0.89043800  0.87500000  1
  Mg  Mg2_4  1  0.60956200  0.39043800  0.37500000  1
  Mg  Mg2_5  1  0.60956200  0.39043800  0.87500000  1
  Mg  Mg2_6  1  0.60956200  0.89043800  0.37500000  1
  Mg  Mg2_7  1  0.60956200  0.89043800  0.87500000  1
  Mg  Mg3_0  1  0.27805050  0.22194950  0.37500000  1
  Mg  Mg3_1  1  0.27805050  0.22194950  0.87500000  1
  Mg  Mg3_2  1  0.27805050  0.72194950  0.37500000  1
  Mg  Mg3_3  1  0.27805050  0.72194950  0.87500000  1
  Mg  Mg3_4  1  0.77805050  0.22194950  0.37500000  1
  Mg  Mg3_5  1  0.77805050  0.22194950  0.87500000  1
  Mg  Mg3_6  1  0.77805050  0.72194950  0.37500000  1
  Mg  Mg3_7  1  0.77805050  0.72194950  0.87500000  1
loop_
_geom_bond_atom_site_label_1
_geom_bond_atom_site_label_2
_geom_bond_distance
_geom_bond_site_symmetry_2
Ce0_0 Ce0_6 3.185516 1_445
Ce0_0 Ce0_6 3.185516 1_555
Ce0_0 Mg3_4 3.336425 1_455
Ce0_0 Mg3_3 3.336425 1_554
Ce0_0 Mg3_2 3.336425 1_555
Ce0_0 Mg3_5 3.336425 1_454
Ce0_0 Mg0_2 3.359305 1_555
Ce0_0 Mg0_4 3.359305 1_455
Ce0_0 Mg2_0 3.377173 1_555
Ce0_0 Mg2_1 3.377173 1_554
Ce0_0 Mg1_4 3.424122 1_455
Ce0_0 Mg1_2 3.424122 1_555
Ce0_1 Ce0_7 3.185516 1_555
Ce0_1 Ce0_7 3.185516 1_445
Ce0_1 Mg3_3 3.336425 1_555
Ce0_1 Mg3_5 3.336425 1_455
Ce0_1 Mg3_4 3.336425 1_455
Ce0_1 Mg3_2 3.336425 1_555
Ce0_1 Mg0_3 3.359305 1_555
Ce0_1 Mg0_5 3.359305 1_455
Ce0_1 Mg2_1 3.377173 1_555
Ce0_1 Mg2_0 3.377173 1_555
Ce0_1 Mg1_5 3.424122 1_455
Ce0_1 Mg1_3 3.424122 1_555
Ce0_2 Ce0_4 3.185516 1_455
Ce0_2 Ce0_4 3.185516 1_565
Ce0_2 Mg3_1 3.336425 1_564
Ce0_2 Mg3_0 3.336425 1_565
Ce0_2 Mg3_6 3.336425 1_455
Ce0_2 Mg3_7 3.336425 1_454
Ce0_2 Mg0_0 3.359305 1_565
Ce0_2 Mg0_6 3.359305 1_455
Ce0_2 Mg2_3 3.377173 1_554
Ce0_2 Mg2_2 3.377173 1_555
Ce0_2 Mg1_6 3.424122 1_455
Ce0_2 Mg1_0 3.424122 1_565
Ce0_3 Ce0_5 3.185516 1_565
Ce0_3 Ce0_5 3.185516 1_455
Ce0_3 Mg3_7 3.336425 1_455
Ce0_3 Mg3_1 3.336425 1_565
Ce0_3 Mg3_0 3.336425 1_565
Ce0_3 Mg3_6 3.336425 1_455
Ce0_3 Mg0_1 3.359305 1_565
Ce0_3 Mg0_7 3.359305 1_455
Ce0_3 Mg2_3 3.377173 1_555
Ce0_3 Mg2_2 3.377173 1_555
Ce0_3 Mg1_7 3.424122 1_455
Ce0_3 Mg1_1 3.424122 1_565
Ce0_4 Mg3_7 3.336425 1_554
Ce0_4 Mg3_6 3.336425 1_555
Ce0_4 Mg3_0 3.336425 1_555
Ce0_4 Mg3_1 3.336425 1_554
Ce0_4 Mg0_6 3.359305 1_555
Ce0_4 Mg0_0 3.359305 1_555
Ce0_4 Mg2_5 3.377173 1_554
Ce0_4 Mg2_4 3.377173 1_555
Ce0_4 Mg1_6 3.424122 1_555
Ce0_4 Mg1_0 3.424122 1_555
Ce0_5 Mg3_1 3.336425 1_555
Ce0_5 Mg3_7 3.336425 1_555
Ce0_5 Mg3_0 3.336425 1_555
Ce0_5 Mg3_6 3.336425 1_555
Ce0_5 Mg0_7 3.359305 1_555
Ce0_5 Mg0_1 3.359305 1_555
Ce0_5 Mg2_5 3.377173 1_555
Ce0_5 Mg2_4 3.377173 1_555
Ce0_5 Mg1_7 3.424122 1_555
Ce0_5 Mg1_1 3.424122 1_555
Ce0_6 Mg3_5 3.336425 1_564
Ce0_6 Mg3_3 3.336425 1_554
Ce0_6 Mg3_2 3.336425 1_555
Ce0_6 Mg3_4 3.336425 1_565
Ce0_6 Mg0_4 3.359305 1_565
Ce0_6 Mg0_2 3.359305 1_555
Ce0_6 Mg2_7 3.377173 1_554
Ce0_6 Mg2_6 3.377173 1_555
Ce0_6 Mg1_2 3.424122 1_555
Ce0_6 Mg1_4 3.424122 1_565
Ce0_7 Mg3_3 3.336425 1_555
Ce0_7 Mg3_5 3.336425 1_565
Ce0_7 Mg3_2 3.336425 1_555
Ce0_7 Mg3_4 3.336425 1_565
Ce0_7 Mg0_5 3.359305 1_565
Ce0_7 Mg0_3 3.359305 1_555
Ce0_7 Mg2_7 3.377173 1_555
Ce0_7 Mg2_6 3.377173 1_555
Ce0_7 Mg1_3 3.424122 1_555
Ce0_7 Mg1_5 3.424122 1_565
Ce1_0 Ce1_6 3.185516 1_555
Ce1_0 Ce1_6 3.185516 1_445
Ce1_0 Mg0_4 3.336425 1_555
Ce1_0 Mg0_2 3.336425 1_545
Ce1_0 Mg0_3 3.336425 1_545
Ce1_0 Mg0_5 3.336425 1_555
Ce1_0 Mg3_2 3.359305 1_545
Ce1_0 Mg3_4 3.359305 1_555
Ce1_0 Mg1_0 3.377173 1_555
Ce1_0 Mg1_1 3.377173 1_555
Ce1_0 Mg2_4 3.424122 1_555
Ce1_0 Mg2_2 3.424122 1_545
Ce1_1 Ce1_7 3.185516 1_445
Ce1_1 Ce1_7 3.185516 1_555
Ce1_1 Mg0_3 3.336425 1_545
Ce1_1 Mg0_5 3.336425 1_555
Ce1_1 Mg0_4 3.336425 1_556
Ce1_1 Mg0_2 3.336425 1_546
Ce1_1 Mg3_3 3.359305 1_545
Ce1_1 Mg3_5 3.359305 1_555
Ce1_1 Mg1_1 3.377173 1_555
Ce1_1 Mg1_0 3.377173 1_556
Ce1_1 Mg2_5 3.424122 1_555
Ce1_1 Mg2_3 3.424122 1_545
Ce1_2 Ce1_4 3.185516 1_565
Ce1_2 Ce1_4 3.185516 1_455
Ce1_2 Mg0_0 3.336425 1_555
Ce1_2 Mg0_6 3.336425 1_555
Ce1_2 Mg0_7 3.336425 1_555
Ce1_2 Mg0_1 3.336425 1_555
Ce1_2 Mg3_0 3.359305 1_555
Ce1_2 Mg3_6 3.359305 1_555
Ce1_2 Mg1_2 3.377173 1_555
Ce1_2 Mg1_3 3.377173 1_555
Ce1_2 Mg2_6 3.424122 1_555
Ce1_2 Mg2_0 3.424122 1_555
Ce1_3 Ce1_5 3.185516 1_455
Ce1_3 Ce1_5 3.185516 1_565
Ce1_3 Mg0_1 3.336425 1_555
Ce1_3 Mg0_7 3.336425 1_555
Ce1_3 Mg0_6 3.336425 1_556
Ce1_3 Mg0_0 3.336425 1_556
Ce1_3 Mg3_1 3.359305 1_555
Ce1_3 Mg3_7 3.359305 1_555
Ce1_3 Mg1_3 3.377173 1_555
Ce1_3 Mg1_2 3.377173 1_556
Ce1_3 Mg2_7 3.424122 1_555
Ce1_3 Mg2_1 3.424122 1_555
Ce1_4 Mg0_0 3.336425 1_655
Ce1_4 Mg0_6 3.336425 1_545
Ce1_4 Mg0_7 3.336425 1_545
Ce1_4 Mg0_1 3.336425 1_655
Ce1_4 Mg3_6 3.359305 1_545
Ce1_4 Mg3_0 3.359305 1_655
Ce1_4 Mg1_4 3.377173 1_555
Ce1_4 Mg1_5 3.377173 1_555
Ce1_4 Mg2_6 3.424122 1_545
Ce1_4 Mg2_0 3.424122 1_655
Ce1_5 Mg0_7 3.336425 1_545
Ce1_5 Mg0_1 3.336425 1_655
Ce1_5 Mg0_6 3.336425 1_546
Ce1_5 Mg0_0 3.336425 1_656
Ce1_5 Mg3_7 3.359305 1_545
Ce1_5 Mg3_1 3.359305 1_655
Ce1_5 Mg1_5 3.377173 1_555
Ce1_5 Mg1_4 3.377173 1_556
Ce1_5 Mg2_7 3.424122 1_545
Ce1_5 Mg2_1 3.424122 1_655
Ce1_6 Mg0_4 3.336425 1_555
Ce1_6 Mg0_2 3.336425 1_655
Ce1_6 Mg0_3 3.336425 1_655
Ce1_6 Mg0_5 3.336425 1_555
Ce1_6 Mg3_4 3.359305 1_555
Ce1_6 Mg3_2 3.359305 1_655
Ce1_6 Mg1_6 3.377173 1_555
Ce1_6 Mg1_7 3.377173 1_555
Ce1_6 Mg2_4 3.424122 1_555
Ce1_6 Mg2_2 3.424122 1_655
Ce1_7 Mg0_3 3.336425 1_655
Ce1_7 Mg0_5 3.336425 1_555
Ce1_7 Mg0_4 3.336425 1_556
Ce1_7 Mg0_2 3.336425 1_656
Ce1_7 Mg3_5 3.359305 1_555
Ce1_7 Mg3_3 3.359305 1_655
Ce1_7 Mg1_7 3.377173 1_555
Ce1_7 Mg1_6 3.377173 1_556
Ce1_7 Mg2_5 3.424122 1_555
Ce1_7 Mg2_3 3.424122 1_655
Mg0_0 Mg0_6 3.185516 1_555
Mg0_0 Mg0_6 3.185516 1_445
Mg0_0 Mg1_2 3.306227 1_555
Mg0_0 Mg1_4 3.306227 1_455
Mg0_0 Mg3_1 3.412130 1_554
Mg0_0 Mg3_0 3.412130 1_555
Mg0_1 Mg0_7 3.185516 1_555
Mg0_1 Mg0_7 3.185516 1_445
Mg0_1 Mg1_5 3.306227 1_455
Mg0_1 Mg1_3 3.306227 1_555
Mg0_1 Mg3_1 3.412130 1_555
Mg0_1 Mg3_0 3.412130 1_555
Mg0_2 Mg0_4 3.185516 1_565
Mg0_2 Mg0_4 3.185516 1_455
Mg0_2 Mg1_0 3.306227 1_565
Mg0_2 Mg1_6 3.306227 1_455
Mg0_2 Mg3_2 3.412130 1_555
Mg0_2 Mg3_3 3.412130 1_554
Mg0_3 Mg0_5 3.185516 1_565
Mg0_3 Mg0_5 3.185516 1_455
Mg0_3 Mg1_1 3.306227 1_565
Mg0_3 Mg1_7 3.306227 1_455
Mg0_3 Mg3_3 3.412130 1_555
Mg0_3 Mg3_2 3.412130 1_555
Mg0_4 Mg1_0 3.306227 1_555
Mg0_4 Mg1_6 3.306227 1_555
Mg0_4 Mg3_4 3.412130 1_555
Mg0_4 Mg3_5 3.412130 1_554
Mg0_5 Mg1_1 3.306227 1_555
Mg0_5 Mg1_7 3.306227 1_555
Mg0_5 Mg3_5 3.412130 1_555
Mg0_5 Mg3_4 3.412130 1_555
Mg0_6 Mg1_4 3.306227 1_565
Mg0_6 Mg1_2 3.306227 1_555
Mg0_6 Mg3_6 3.412130 1_555
Mg0_6 Mg3_7 3.412130 1_554
Mg0_7 Mg1_5 3.306227 1_565
Mg0_7 Mg1_3 3.306227 1_555
Mg0_7 Mg3_7 3.412130 1_555
Mg0_7 Mg3_6 3.412130 1_555
Mg1_0 Mg1_6 3.185516 1_555
Mg1_0 Mg1_6 3.185516 1_445
Mg1_0 Mg2_5 3.377513 1_554
Mg1_0 Mg2_4 3.377513 1_555
Mg1_0 Mg2_2 3.377513 1_545
Mg1_0 Mg2_3 3.377513 1_544
Mg1_1 Mg1_7 3.185516 1_555
Mg1_1 Mg1_7 3.185516 1_445
Mg1_1 Mg2_5 3.377513 1_555
Mg1_1 Mg2_3 3.377513 1_545
Mg1_1 Mg2_4 3.377513 1_555
Mg1_1 Mg2_2 3.377513 1_545
Mg1_2 Mg1_4 3.185516 1_565
Mg1_2 Mg1_4 3.185516 1_455
Mg1_2 Mg2_7 3.377513 1_554
Mg1_2 Mg2_6 3.377513 1_555
Mg1_2 Mg2_1 3.377513 1_554
Mg1_2 Mg2_0 3.377513 1_555
Mg1_3 Mg1_5 3.185516 1_565
Mg1_3 Mg1_5 3.185516 1_455
Mg1_3 Mg2_7 3.377513 1_555
Mg1_3 Mg2_1 3.377513 1_555
Mg1_3 Mg2_6 3.377513 1_555
Mg1_3 Mg2_0 3.377513 1_555
Mg1_4 Mg2_6 3.377513 1_545
Mg1_4 Mg2_7 3.377513 1_544
Mg1_4 Mg2_1 3.377513 1_654
Mg1_4 Mg2_0 3.377513 1_655
Mg1_5 Mg2_7 3.377513 1_545
Mg1_5 Mg2_1 3.377513 1_655
Mg1_5 Mg2_6 3.377513 1_545
Mg1_5 Mg2_0 3.377513 1_655
Mg1_6 Mg2_5 3.377513 1_554
Mg1_6 Mg2_4 3.377513 1_555
Mg1_6 Mg2_2 3.377513 1_655
Mg1_6 Mg2_3 3.377513 1_654
Mg1_7 Mg2_3 3.377513 1_655
Mg1_7 Mg2_5 3.377513 1_555
Mg1_7 Mg2_4 3.377513 1_555
Mg1_7 Mg2_2 3.377513 1_655
Mg2_0 Mg2_6 3.185516 1_555
Mg2_0 Mg2_6 3.185516 1_445
Mg2_0 Mg3_2 3.306227 1_555
Mg2_0 Mg3_4 3.306227 1_455
Mg2_1 Mg2_7 3.185516 1_555
Mg2_1 Mg2_7 3.185516 1_445
Mg2_1 Mg3_5 3.306227 1_455
Mg2_1 Mg3_3 3.306227 1_555
Mg2_2 Mg2_4 3.185516 1_455
Mg2_2 Mg2_4 3.185516 1_565
Mg2_2 Mg3_0 3.306227 1_565
Mg2_2 Mg3_6 3.306227 1_455
Mg2_3 Mg2_5 3.185516 1_455
Mg2_3 Mg2_5 3.185516 1_565
Mg2_3 Mg3_7 3.306227 1_455
Mg2_3 Mg3_1 3.306227 1_565
Mg2_4 Mg3_0 3.306227 1_555
Mg2_4 Mg3_6 3.306227 1_555
Mg2_5 Mg3_1 3.306227 1_555
Mg2_5 Mg3_7 3.306227 1_555
Mg2_6 Mg3_2 3.306227 1_555
Mg2_6 Mg3_4 3.306227 1_565
Mg2_7 Mg3_5 3.306227 1_565
Mg2_7 Mg3_3 3.306227 1_555
Mg3_0 Mg3_6 3.185516 1_445
Mg3_0 Mg3_6 3.185516 1_555
Mg3_1 Mg3_7 3.185516 1_445
Mg3_1 Mg3_7 3.185516 1_555
Mg3_2 Mg3_4 3.185516 1_455
Mg3_2 Mg3_4 3.185516 1_565
Mg3_3 Mg3_5 3.185516 1_455
Mg3_3 Mg3_5 3.185516 1_565
