# generated using pymatgen
data_Eu5B3ClO9
_symmetry_space_group_name_H-M   'P 1'
_cell_length_a   8.75354794
_cell_length_b   8.75354794
_cell_length_c   7.44533300
_cell_angle_alpha   90.00000000
_cell_angle_beta   90.00000000
_cell_angle_gamma   109.78463931
_symmetry_Int_Tables_number   1
_chemical_formula_structural   Eu5B3ClO9
_chemical_formula_sum   'Eu10 B6 Cl2 O18'
_cell_volume   536.82019787
_cell_formula_units_Z   2
loop_
 _symmetry_equiv_pos_site_id
 _symmetry_equiv_pos_as_xyz
  1  'x, y, z'
loop_
 _atom_site_type_symbol
 _atom_site_label
 _atom_site_symmetry_multiplicity
 _atom_site_fract_x
 _atom_site_fract_y
 _atom_site_fract_z
 _atom_site_occupancy
  Eu  Eu0  1  0.23858600  0.23858600  0.00000000  1
  Eu  Eu1  1  0.76141400  0.76141400  0.50000000  1
  Eu  Eu2  1  0.99495800  0.73973900  0.06127600  1
  Eu  Eu3  1  0.73973900  0.99495800  0.93872400  1
  Eu  Eu4  1  0.00504200  0.26026100  0.56127600  1
  Eu  Eu5  1  0.26026100  0.00504200  0.43872400  1
  Eu  Eu6  1  0.63540400  0.36459600  0.25000000  1
  Eu  Eu7  1  0.36459600  0.63540400  0.75000000  1
  Eu  Eu8  1  0.36206900  0.63793100  0.25000000  1
  Eu  Eu9  1  0.63793100  0.36206900  0.75000000  1
  B  B0  1  0.41032400  0.98583500  0.03123900  1
  B  B1  1  0.98583500  0.41032400  0.96876100  1
  B  B2  1  0.58967600  0.01416500  0.53123900  1
  B  B3  1  0.01416500  0.58967600  0.46876100  1
  B  B4  1  0.63045900  0.63045900  0.00000000  1
  B  B5  1  0.36954100  0.36954100  0.50000000  1
  Cl  Cl0  1  0.94811900  0.05188100  0.25000000  1
  Cl  Cl1  1  0.05188100  0.94811900  0.75000000  1
  O  O0  1  0.49112900  0.49112900  0.00000000  1
  O  O1  1  0.50887100  0.50887100  0.50000000  1
  O  O2  1  0.52228300  0.13990700  0.99237800  1
  O  O3  1  0.13990700  0.52228300  0.00762200  1
  O  O4  1  0.47771700  0.86009300  0.49237800  1
  O  O5  1  0.86009300  0.47771700  0.50762200  1
  O  O6  1  0.84796200  0.44636600  0.01265800  1
  O  O7  1  0.44636600  0.84796200  0.98734200  1
  O  O8  1  0.15203800  0.55363400  0.51265800  1
  O  O9  1  0.55363400  0.15203800  0.48734200  1
  O  O10  1  0.30319000  0.30354700  0.66283900  1
  O  O11  1  0.30354700  0.30319000  0.33716100  1
  O  O12  1  0.69681000  0.69645300  0.16283900  1
  O  O13  1  0.69645300  0.69681000  0.83716100  1
  O  O14  1  0.26622800  0.97197400  0.11713400  1
  O  O15  1  0.97197400  0.26622800  0.88286600  1
  O  O16  1  0.73377200  0.02802600  0.61713400  1
  O  O17  1  0.02802600  0.73377200  0.38286600  1
loop_
_geom_bond_atom_site_label_1
_geom_bond_atom_site_label_2
_geom_bond_distance
_geom_bond_site_symmetry_2
Eu0 O0 2.542752 1_555
Eu0 O15 2.578376 1_454
Eu0 O14 2.578376 1_545
Eu0 O10 2.593636 1_554
Eu0 O11 2.593636 1_555
Eu0 O3 2.892850 1_555
Eu0 O2 2.892850 1_554
Eu1 O1 2.542752 1_555
Eu1 O17 2.578376 1_655
Eu1 O16 2.578376 1_565
Eu1 O13 2.593636 1_555
Eu1 O12 2.593636 1_555
Eu1 O4 2.892850 1_555
Eu1 O5 2.892850 1_555
Eu2 O17 2.414464 1_655
Eu2 O6 2.478837 1_555
Eu2 O14 2.583848 1_655
Eu2 O12 2.618634 1_555
Eu2 O3 2.651011 1_655
Eu2 O13 3.014698 1_554
Eu3 O16 2.414464 1_565
Eu3 O7 2.478837 1_555
Eu3 O15 2.583848 1_565
Eu3 O13 2.618634 1_555
Eu3 O2 2.651011 1_565
Eu3 O12 3.014698 1_556
Eu4 O15 2.414464 1_455
Eu4 O8 2.478837 1_555
Eu4 O16 2.583848 1_455
Eu4 O10 2.618634 1_555
Eu4 O5 2.651011 1_455
Eu4 O11 3.014698 1_555
Eu5 O14 2.414464 1_545
Eu5 O9 2.478837 1_555
Eu5 O17 2.583848 1_545
Eu5 O11 2.618634 1_555
Eu5 O4 2.651011 1_545
Eu5 O10 3.014698 1_555
Eu6 O9 2.489040 1_555
Eu6 O6 2.489040 1_555
Eu6 O2 2.685053 1_554
Eu6 O5 2.685053 1_555
Eu6 O0 2.689478 1_555
Eu6 O1 2.689478 1_555
Eu6 O11 2.844572 1_555
Eu6 O12 2.844572 1_555
Eu7 O8 2.489040 1_555
Eu7 O7 2.489040 1_555
Eu7 O3 2.685053 1_556
Eu7 O4 2.685053 1_555
Eu7 O1 2.689478 1_555
Eu7 O0 2.689478 1_556
Eu7 O10 2.844572 1_555
Eu7 O13 2.844572 1_555
Eu8 O4 2.594316 1_555
Eu8 O3 2.594316 1_555
Eu8 O7 2.613524 1_554
Eu8 O8 2.613524 1_555
Eu8 O1 2.715690 1_555
Eu8 O0 2.715690 1_555
Eu8 O12 2.872853 1_555
Eu8 O11 2.872853 1_555
Eu9 O2 2.594316 1_555
Eu9 O5 2.594316 1_555
Eu9 O9 2.613524 1_555
Eu9 O6 2.613524 1_556
Eu9 O1 2.715690 1_555
Eu9 O0 2.715690 1_556
Eu9 O10 2.872853 1_555
Eu9 O13 2.872853 1_555
B0 O14 1.382427 1_555
B0 O7 1.385884 1_554
B0 O2 1.402971 1_564
B1 O15 1.382427 1_555
B1 O6 1.385884 1_556
B1 O3 1.402971 1_656
B2 O16 1.382427 1_555
B2 O9 1.385884 1_555
B2 O4 1.402971 1_545
B3 O17 1.382427 1_555
B3 O8 1.385884 1_555
B3 O5 1.402971 1_455
B4 O13 1.383403 1_554
B4 O12 1.383403 1_555
B4 O0 1.402857 1_555
B5 O10 1.383403 1_555
B5 O11 1.383403 1_555
B5 O1 1.402857 1_555
Cl0 Eu3 2.886391 1_544
Cl0 Eu4 2.886391 1_655
Cl0 Eu0 3.128476 1_655
Cl0 Eu1 3.128476 1_545
Cl0 Eu2 3.219718 1_545
Cl0 Eu5 3.219718 1_655
Cl1 Eu2 2.886391 1_456
Cl1 Eu5 2.886391 1_565
Cl1 Eu0 3.128476 1_566
Cl1 Eu1 3.128476 1_455
Cl1 Eu3 3.219718 1_455
Cl1 Eu4 3.219718 1_565
