# generated using pymatgen
data_LiMn2V4O8
_symmetry_space_group_name_H-M   'P 1'
_cell_length_a   6.35123140
_cell_length_b   6.30652638
_cell_length_c   6.34862457
_cell_angle_alpha   60.32748172
_cell_angle_beta   58.60500331
_cell_angle_gamma   60.11892449
_symmetry_Int_Tables_number   1
_chemical_formula_structural   LiMn2V4O8
_chemical_formula_sum   'Li1 Mn2 V4 O8'
_cell_volume   178.42193224
_cell_formula_units_Z   1
loop_
 _symmetry_equiv_pos_site_id
 _symmetry_equiv_pos_as_xyz
  1  'x, y, z'
loop_
 _atom_site_type_symbol
 _atom_site_label
 _atom_site_symmetry_multiplicity
 _atom_site_fract_x
 _atom_site_fract_y
 _atom_site_fract_z
 _atom_site_occupancy
  Li  Li0  1  0.37276800  0.37722100  0.37275700  1
  Mn  Mn0  1  0.13122600  0.11948900  0.12982600  1
  Mn  Mn1  1  0.87475200  0.87535600  0.87468900  1
  V  V0  1  0.51787200  0.50707100  0.96838300  1
  V  V1  1  0.50843500  0.97833500  0.50615500  1
  V  V2  1  0.50734400  0.50714900  0.50702200  1
  V  V3  1  0.96777800  0.50646400  0.51897400  1
  O  O0  1  0.71531500  0.25950800  0.26623300  1
  O  O1  1  0.72832300  0.75501800  0.73323200  1
  O  O2  1  0.26697600  0.25859700  0.26429100  1
  O  O3  1  0.26534500  0.25997600  0.71434500  1
  O  O4  1  0.72987600  0.28351700  0.73167400  1
  O  O5  1  0.29006400  0.73849300  0.73290300  1
  O  O6  1  0.73249800  0.73867900  0.28990900  1
  O  O7  1  0.26642800  0.71012800  0.26460800  1
loop_
_geom_bond_atom_site_label_1
_geom_bond_atom_site_label_2
_geom_bond_distance
_geom_bond_site_symmetry_2
Li0 O2 1.725763 1_555
Li0 O7 1.725824 1_555
Li0 O3 1.757454 1_555
Li0 O0 1.759702 1_555
Li0 V2 2.068084 1_555
Li0 V1 2.068587 1_545
Li0 V3 2.077171 1_455
Li0 V0 2.077517 1_554
Mn0 O2 2.122196 1_555
Mn0 O7 2.122250 1_545
Mn0 O0 2.134726 1_455
Mn0 O3 2.136684 1_554
Mn1 O4 2.119759 1_565
Mn1 O1 2.120278 1_555
Mn1 O5 2.130701 1_655
Mn1 O6 2.133796 1_556
O0 V2 2.173752 1_555
O0 V1 2.180151 1_545
O0 V0 2.276507 1_554
O1 V1 2.034645 1_555
O1 V0 2.037814 1_555
O1 V3 2.049555 1_555
O2 V1 2.213392 1_545
O2 V0 2.231246 1_554
O2 V3 2.238383 1_455
O3 V1 2.179744 1_545
O3 V2 2.184672 1_555
O3 V3 2.265543 1_455
O4 V2 2.035501 1_555
O4 V0 2.038875 1_555
O4 V3 2.048078 1_555
O5 V2 2.023109 1_555
O5 V1 2.034216 1_555
O5 V0 2.108958 1_555
O6 V1 2.017425 1_555
O6 V2 2.027583 1_555
O6 V3 2.113645 1_555
O7 V2 2.213518 1_555
O7 V0 2.223649 1_554
O7 V3 2.244534 1_455
