# generated using pymatgen
data_La12Ni6Pb
_symmetry_space_group_name_H-M   'P 1'
_cell_length_a   8.87317247
_cell_length_b   8.87319328
_cell_length_c   8.87318566
_cell_angle_alpha   109.46947443
_cell_angle_beta   109.47265291
_cell_angle_gamma   109.46850391
_symmetry_Int_Tables_number   1
_chemical_formula_structural   La12Ni6Pb
_chemical_formula_sum   'La12 Ni6 Pb1'
_cell_volume   537.81484394
_cell_formula_units_Z   1
loop_
 _symmetry_equiv_pos_site_id
 _symmetry_equiv_pos_as_xyz
  1  'x, y, z'
loop_
 _atom_site_type_symbol
 _atom_site_label
 _atom_site_symmetry_multiplicity
 _atom_site_fract_x
 _atom_site_fract_y
 _atom_site_fract_z
 _atom_site_occupancy
  La  La0  1  0.81775317  0.68730350  0.50505536  1
  La  La1  1  0.18224927  0.31269853  0.49494673  1
  La  La2  1  0.18224930  0.68730419  0.86955256  1
  La  La3  1  0.81775030  0.31269836  0.13044905  1
  La  La4  1  0.68732558  0.50506305  0.81773824  1
  La  La5  1  0.31267480  0.49493915  0.18226432  1
  La  La6  1  0.68732634  0.86959130  0.18226525  1
  La  La7  1  0.31267386  0.13041060  0.81773547  1
  La  La8  1  0.50506467  0.81775344  0.68731209  1
  La  La9  1  0.49493575  0.18224895  0.31268951  1
  La  La10  1  0.13043861  0.81775081  0.31268955  1
  La  La11  1  0.86956180  0.18225143  0.68731204  1
  Ni  Ni0  1  0.87495974  0.37495660  0.50000296  1
  Ni  Ni1  1  0.12504259  0.62504322  0.49999743  1
  Ni  Ni2  1  0.37497672  0.50000191  0.87497817  1
  Ni  Ni3  1  0.62502092  0.49999744  0.12502255  1
  Ni  Ni4  1  0.49999974  0.87495136  0.37495081  1
  Ni  Ni5  1  0.49999639  0.12503506  0.62503699  1
  Pb  Pb0  1  0.00000044  0.00000110  0.00000091  1
loop_
_geom_bond_atom_site_label_1
_geom_bond_atom_site_label_2
_geom_bond_distance
_geom_bond_site_symmetry_2
La0 Ni3 2.753645 1_555
La0 Ni1 2.968311 1_655
La0 Ni0 2.968345 1_555
La0 Pb0 3.708405 1_666
La0 Ni4 3.780882 1_555
La1 Ni2 2.753635 1_555
La1 Ni0 2.968299 1_455
La1 Ni1 2.968330 1_555
La1 Pb0 3.708404 1_555
La1 Ni5 3.780921 1_555
La2 Ni2 2.753519 1_555
La2 Ni1 2.968381 1_555
La2 Ni0 2.968468 1_455
La2 Pb0 3.708281 1_566
La2 Ni4 3.780983 1_556
La3 Ni3 2.753510 1_555
La3 Ni0 2.968370 1_555
La3 Ni1 2.968462 1_655
La3 Pb0 3.708292 1_655
La3 Ni5 3.781057 1_554
La4 Ni5 2.753679 1_555
La4 Ni3 2.968512 1_556
La4 Ni2 2.968514 1_555
La4 Pb0 3.708353 1_666
La4 Ni0 3.780784 1_555
La5 Ni4 2.753563 1_555
La5 Ni3 2.968504 1_555
La5 Ni2 2.968510 1_554
La5 Pb0 3.708351 1_555
La5 Ni1 3.780751 1_555
La6 Ni4 2.753456 1_555
La6 Ni3 2.968578 1_555
La6 Ni2 2.968672 1_554
La6 Pb0 3.708226 1_665
La6 Ni0 3.780880 1_565
La7 Ni5 2.753521 1_555
La7 Ni2 2.968562 1_555
La7 Ni3 2.968655 1_556
La7 Pb0 3.708228 1_556
La7 Ni1 3.780899 1_545
La8 Ni1 2.753580 1_555
La8 Ni5 2.968342 1_565
La8 Ni4 2.968410 1_555
La8 Pb0 3.708253 1_666
La8 Ni2 3.781075 1_555
La9 Ni0 2.753594 1_555
La9 Ni5 2.968367 1_555
La9 Ni4 2.968412 1_545
La9 Pb0 3.708249 1_555
La9 Ni3 3.781055 1_555
La10 Ni1 2.753435 1_555
La10 Ni4 2.968447 1_555
La10 Ni5 2.968495 1_565
La10 Pb0 3.708155 1_565
La10 Ni3 3.781190 1_455
La11 Ni0 2.753426 1_555
La11 Ni5 2.968419 1_555
La11 Ni4 2.968578 1_545
La11 Pb0 3.708158 1_656
La11 Ni2 3.781167 1_655
Ni0 Ni1 2.562450 1_655
Ni2 Ni3 2.561898 1_556
Ni4 Ni5 2.562412 1_565
