# generated using pymatgen
data_CeAlCo4
_symmetry_space_group_name_H-M   'P 1'
_cell_length_a   4.06487200
_cell_length_b   4.91071793
_cell_length_c   4.91071718
_cell_angle_alpha   60.83357278
_cell_angle_beta   90.00000000
_cell_angle_gamma   90.00000000
_symmetry_Int_Tables_number   1
_chemical_formula_structural   CeAlCo4
_chemical_formula_sum   'Ce1 Al1 Co4'
_cell_volume   85.59618092
_cell_formula_units_Z   1
loop_
 _symmetry_equiv_pos_site_id
 _symmetry_equiv_pos_as_xyz
  1  'x, y, z'
loop_
 _atom_site_type_symbol
 _atom_site_label
 _atom_site_symmetry_multiplicity
 _atom_site_fract_x
 _atom_site_fract_y
 _atom_site_fract_z
 _atom_site_occupancy
  Ce  Ce0  1  0.00000000  0.99999300  0.00000700  1
  Al  Al0  1  0.50000000  0.49998800  0.50001200  1
  Co  Co0  1  0.00000000  0.30930100  0.30938000  1
  Co  Co1  1  0.00000000  0.69062000  0.69069900  1
  Co  Co2  1  0.50000000  0.50000800  0.00000900  1
  Co  Co3  1  0.50000000  0.99999100  0.49999200  1
loop_
_geom_bond_atom_site_label_1
_geom_bond_atom_site_label_2
_geom_bond_distance
_geom_bond_site_symmetry_2
Ce0 Co0 2.620011 1_565
Ce0 Co1 2.620011 1_554
Ce0 Co0 2.964487 1_564
Ce0 Co1 2.964488 1_564
Ce0 Co1 2.964758 1_555
Ce0 Co0 2.964759 1_555
Ce0 Co3 3.187349 1_455
Ce0 Co3 3.187349 1_555
Ce0 Co2 3.187350 1_555
Ce0 Co2 3.187350 1_455
Ce0 Co3 3.187470 1_454
Ce0 Co3 3.187470 1_554
Ce0 Co2 3.187471 1_565
Ce0 Co2 3.187471 1_465
Al0 Co2 2.455325 1_555
Al0 Co3 2.455326 1_555
Al0 Co2 2.455392 1_556
Al0 Co3 2.455392 1_545
Al0 Co1 2.595852 1_555
Al0 Co1 2.595852 1_655
Al0 Co0 2.595852 1_555
Al0 Co0 2.595852 1_655
Al0 Ce0 3.211232 1_546
Al0 Ce0 3.211232 1_646
Al0 Ce0 3.211270 1_555
Al0 Ce0 3.211270 1_655
Co0 Co3 2.434815 1_445
Co0 Co3 2.434815 1_545
Co0 Co2 2.434983 1_455
Co0 Co2 2.434983 1_555
Co0 Co1 2.681742 1_554
Co0 Co1 2.681742 1_545
Co1 Co2 2.434814 1_456
Co1 Co2 2.434814 1_556
Co1 Co3 2.434983 1_455
Co1 Co3 2.434983 1_555
Co2 Co3 2.486230 1_554
Co2 Co3 2.486230 1_545
