# generated using pymatgen
data_Li2Ti(IO3)6
_symmetry_space_group_name_H-M   'P 1'
_cell_length_a   5.18293700
_cell_length_b   9.53497700
_cell_length_c   9.53489697
_cell_angle_alpha   59.99995795
_cell_angle_beta   89.99951990
_cell_angle_gamma   89.99984450
_symmetry_Int_Tables_number   1
_chemical_formula_structural   Li2Ti(IO3)6
_chemical_formula_sum   'Li2 Ti1 I6 O18'
_cell_volume   408.07691937
_cell_formula_units_Z   1
loop_
 _symmetry_equiv_pos_site_id
 _symmetry_equiv_pos_as_xyz
  1  'x, y, z'
loop_
 _atom_site_type_symbol
 _atom_site_label
 _atom_site_symmetry_multiplicity
 _atom_site_fract_x
 _atom_site_fract_y
 _atom_site_fract_z
 _atom_site_occupancy
  Li  Li0  1  0.72500200  0.33336500  0.33331800  1
  Li  Li1  1  0.22097900  0.66663500  0.66668300  1
  Ti  Ti0  1  0.66383200  0.00000000  0.99999900  1
  I  I0  1  0.78374300  0.96718000  0.67138700  1
  I  I1  1  0.78373300  0.36142800  0.96718200  1
  I  I2  1  0.78373600  0.67139200  0.36143100  1
  I  I3  1  0.29643300  0.02749200  0.31554600  1
  I  I4  1  0.29642300  0.65696700  0.02748800  1
  I  I5  1  0.29642700  0.31553800  0.65696400  1
  O  O0  1  0.49886600  0.24437700  0.55014300  1
  O  O1  1  0.49886200  0.20548200  0.24437000  1
  O  O2  1  0.49886200  0.55015100  0.20548000  1
  O  O3  1  0.00435000  0.75650000  0.44737800  1
  O  O4  1  0.00434200  0.79612200  0.75650600  1
  O  O5  1  0.00434100  0.44736900  0.79612700  1
  O  O6  1  0.88153400  0.04390300  0.81446000  1
  O  O7  1  0.88153700  0.14163600  0.04390200  1
  O  O8  1  0.88153800  0.81446400  0.14163600  1
  O  O9  1  0.44471500  0.94284600  0.19204600  1
  O  O10  1  0.44471400  0.86511000  0.94284300  1
  O  O11  1  0.44471100  0.19204500  0.86511000  1
  O  O12  1  0.96624100  0.11420200  0.49507500  1
  O  O13  1  0.96622800  0.39072400  0.11420300  1
  O  O14  1  0.96621700  0.49508100  0.39071900  1
  O  O15  1  0.45708700  0.88612200  0.50387300  1
  O  O16  1  0.45707500  0.61000200  0.88612500  1
  O  O17  1  0.45707100  0.50386900  0.61000700  1
loop_
_geom_bond_atom_site_label_1
_geom_bond_atom_site_label_2
_geom_bond_distance
_geom_bond_site_symmetry_2
Li0 O2 2.147707 1_555
Li0 O0 2.147925 1_555
Li0 O1 2.148036 1_555
Li0 O14 2.254806 1_555
Li0 O13 2.254884 1_555
Li0 O12 2.255215 1_555
Li1 O5 2.138843 1_555
Li1 O3 2.139069 1_555
Li1 O4 2.139160 1_555
Li1 O17 2.244243 1_555
Li1 O16 2.244348 1_555
Li1 O15 2.244634 1_555
I0 O4 1.817271 1_655
I0 O12 1.824643 1_565
I0 O6 1.910773 1_565
I1 O5 1.817263 1_655
I1 O13 1.824668 1_556
I1 O7 1.910768 1_556
I2 O3 1.817301 1_655
I2 O14 1.824609 1_555
I2 O8 1.910768 1_555
I3 O1 1.813788 1_555
I3 O15 1.820520 1_545
I3 O9 1.891848 1_545
I4 O2 1.813829 1_555
I4 O16 1.820494 1_554
I4 O10 1.891857 1_554
I5 O0 1.813762 1_555
I5 O17 1.820535 1_555
I5 O11 1.891851 1_555
O6 Ti0 1.958948 1_555
O7 Ti0 1.958979 1_554
O8 Ti0 1.958966 1_564
O9 Ti0 1.985420 1_564
O10 Ti0 1.985435 1_565
O11 Ti0 1.985435 1_555
