# generated using pymatgen
data_TlCuCl3
_symmetry_space_group_name_H-M   'P 1'
_cell_length_a   4.01326240
_cell_length_b   8.87140164
_cell_length_c   14.15560284
_cell_angle_alpha   90.00000000
_cell_angle_beta   90.00000000
_cell_angle_gamma   96.69851072
_symmetry_Int_Tables_number   1
_chemical_formula_structural   TlCuCl3
_chemical_formula_sum   'Tl4 Cu4 Cl12'
_cell_volume   500.54527904
_cell_formula_units_Z   4
loop_
 _symmetry_equiv_pos_site_id
 _symmetry_equiv_pos_as_xyz
  1  'x, y, z'
loop_
 _atom_site_type_symbol
 _atom_site_label
 _atom_site_symmetry_multiplicity
 _atom_site_fract_x
 _atom_site_fract_y
 _atom_site_fract_z
 _atom_site_occupancy
  Tl  Tl0  1  0.22393741  0.94828534  0.66776015  1
  Tl  Tl1  1  0.77606259  0.55171466  0.16776015  1
  Tl  Tl2  1  0.77606259  0.05171466  0.33223985  1
  Tl  Tl3  1  0.22393741  0.44828534  0.83223985  1
  Cu  Cu0  1  0.76450737  0.34607435  0.54804547  1
  Cu  Cu1  1  0.23549263  0.15392565  0.04804547  1
  Cu  Cu2  1  0.23549263  0.65392565  0.45195453  1
  Cu  Cu3  1  0.76450737  0.84607435  0.95195453  1
  Cl  Cl0  1  0.73181870  0.24034817  0.69322490  1
  Cl  Cl1  1  0.26818130  0.25965183  0.19322490  1
  Cl  Cl2  1  0.26818130  0.75965183  0.30677510  1
  Cl  Cl3  1  0.73181870  0.74034817  0.80677510  1
  Cl  Cl4  1  0.32647751  0.18219088  0.49265809  1
  Cl  Cl5  1  0.67352249  0.31780912  0.99265809  1
  Cl  Cl6  1  0.67352249  0.81780912  0.50734191  1
  Cl  Cl7  1  0.32647751  0.68219088  0.00734191  1
  Cl  Cl8  1  0.17847878  0.53473293  0.59656662  1
  Cl  Cl9  1  0.82152122  0.96526707  0.09656662  1
  Cl  Cl10  1  0.82152122  0.46526707  0.40343338  1
  Cl  Cl11  1  0.17847878  0.03473293  0.90343338  1
loop_
_geom_bond_atom_site_label_1
_geom_bond_atom_site_label_2
_geom_bond_distance
_geom_bond_site_symmetry_2
Cl0 Cu0 2.256475 1_555
Cl0 Tl0 3.125016 1_545
Cl0 Tl3 3.213407 1_655
Cl1 Cu1 2.256475 1_555
Cl1 Tl1 3.125016 1_555
Cl1 Tl2 3.213407 1_455
Cl2 Cu2 2.256475 1_555
Cl2 Tl2 3.125016 1_565
Cl2 Tl1 3.213407 1_455
Cl3 Cu3 2.256475 1_555
Cl3 Tl3 3.125016 1_555
Cl3 Tl0 3.213407 1_655
Cl4 Cu0 2.285289 1_555
Cl4 Cu0 2.929157 1_455
Cl4 Tl2 3.199870 1_555
Cl4 Tl0 3.227984 1_545
Cl4 Tl2 3.283205 1_455
Cl5 Cu1 2.285289 1_556
Cl5 Cu1 2.929157 1_656
Cl5 Tl3 3.199870 1_555
Cl5 Tl1 3.227984 1_556
Cl5 Tl3 3.283205 1_655
Cl6 Cu2 2.285289 1_555
Cl6 Cu2 2.929157 1_655
Cl6 Tl0 3.199870 1_555
Cl6 Tl2 3.227984 1_565
Cl6 Tl0 3.283205 1_655
Cl7 Cu3 2.285289 1_554
Cl7 Cu3 2.929157 1_454
Cl7 Tl1 3.199870 1_555
Cl7 Tl3 3.227984 1_554
Cl7 Tl1 3.283205 1_455
Cl8 Cu2 2.303154 1_555
Cl8 Cu0 2.320432 1_455
Cl9 Cu3 2.303154 1_554
Cl9 Cu1 2.320432 1_665
Cl10 Cu0 2.303154 1_555
Cl10 Cu2 2.320432 1_655
Cl11 Cu1 2.303154 1_556
Cl11 Cu3 2.320432 1_445
