# generated using pymatgen
data_Gd2MgTl2(WO4)4
_symmetry_space_group_name_H-M   'P 1'
_cell_length_a   7.56416309
_cell_length_b   7.89705072
_cell_length_c   7.54211800
_cell_angle_alpha   64.07018163
_cell_angle_beta   63.79243501
_cell_angle_gamma   90.95670573
_symmetry_Int_Tables_number   1
_chemical_formula_structural   Gd2MgTl2(WO4)4
_chemical_formula_sum   'Gd2 Mg1 Tl2 W4 O16'
_cell_volume   351.01543149
_cell_formula_units_Z   1
loop_
 _symmetry_equiv_pos_site_id
 _symmetry_equiv_pos_as_xyz
  1  'x, y, z'
loop_
 _atom_site_type_symbol
 _atom_site_label
 _atom_site_symmetry_multiplicity
 _atom_site_fract_x
 _atom_site_fract_y
 _atom_site_fract_z
 _atom_site_occupancy
  Gd  Gd0  1  0.23914025  0.80125322  0.74919784  1
  Gd  Gd1  1  0.74503671  0.22599233  0.26709056  1
  Mg  Mg0  1  0.08749767  0.03419247  0.12990244  1
  Tl  Tl0  1  0.77233654  0.19745609  0.76125650  1
  Tl  Tl1  1  0.22416770  0.70995393  0.28673018  1
  W  W0  1  0.29032264  0.33228237  0.69003353  1
  W  W1  1  0.70037942  0.69015975  0.29302127  1
  W  W2  1  0.68596103  0.69888731  0.79202772  1
  W  W3  1  0.31617494  0.29349615  0.20015975  1
  O  O0  1  0.36687743  0.23978487  0.94502254  1
  O  O1  1  0.62086946  0.75382042  0.07039121  1
  O  O2  1  0.74874615  0.62763019  0.56592415  1
  O  O3  1  0.22500162  0.38171394  0.44063071  1
  O  O4  1  0.61010845  0.92398998  0.64931934  1
  O  O5  1  0.39763466  0.08516660  0.36629811  1
  O  O6  1  0.04157322  0.34640486  0.88924629  1
  O  O7  1  0.94191874  0.64351546  0.13217251  1
  O  O8  1  0.40655753  0.64446863  0.52521228  1
  O  O9  1  0.58969738  0.38923323  0.46170255  1
  O  O10  1  0.36447820  0.58119492  0.97331952  1
  O  O11  1  0.63751519  0.42858992  0.02604289  1
  O  O12  1  0.20877091  0.04783696  0.81925687  1
  O  O13  1  0.79663038  0.94990971  0.20854927  1
  O  O14  1  0.95305528  0.78483406  0.70263655  1
  O  O15  1  0.02954952  0.18823362  0.30485541  1
loop_
_geom_bond_atom_site_label_1
_geom_bond_atom_site_label_2
_geom_bond_distance
_geom_bond_site_symmetry_2
Gd0 O12 2.220688 1_565
Gd0 O14 2.350460 1_455
Gd0 O10 2.382783 1_555
Gd0 O7 2.444067 1_456
Gd0 O8 2.445917 1_555
Gd0 O5 2.448221 1_565
Gd0 O4 2.604716 1_555
Gd1 O15 2.300031 1_655
Gd1 O11 2.309127 1_555
Gd1 O9 2.319251 1_555
Gd1 O13 2.412212 1_545
Gd1 O6 2.443282 1_654
Gd1 O5 2.477909 1_555
Gd1 O4 2.519407 1_545
Mg0 O13 2.022059 1_445
Mg0 O12 2.054267 1_554
Mg0 O15 2.079369 1_555
Mg0 O0 2.085452 1_554
Mg0 O6 2.483124 1_554
Mg0 Tl1 2.746607 1_545
O0 W3 2.024162 1_556
O0 W0 2.082460 1_555
O0 Tl0 2.850238 1_555
O1 W1 1.896749 1_555
O1 W2 2.174610 1_554
O1 Tl1 2.633072 1_555
O2 W2 1.892899 1_555
O2 W1 2.096766 1_555
O3 W0 2.029768 1_555
O3 W3 2.065572 1_555
O3 Tl1 2.332851 1_555
O4 W2 1.885189 1_555
O5 W3 1.889277 1_555
O6 W0 1.861938 1_555
O7 W1 1.844198 1_555
O8 W1 2.029641 1_555
O8 W0 2.162951 1_555
O8 Tl1 2.609235 1_555
O9 W0 2.034741 1_555
O9 W1 2.077417 1_555
O10 W3 2.059900 1_556
O10 W2 2.126771 1_555
O10 Tl1 2.769470 1_556
O11 W2 1.978276 1_554
O11 W3 2.153997 1_555
O12 W0 1.970860 1_555
O13 W1 1.881799 1_555
O14 W2 1.829738 1_555
O15 W3 1.966918 1_555
