# generated using pymatgen
data_Cr2S3
_symmetry_space_group_name_H-M   'P 1'
_cell_length_a   6.02587986
_cell_length_b   6.02587986
_cell_length_c   11.26503400
_cell_angle_alpha   90.00000000
_cell_angle_beta   90.00000000
_cell_angle_gamma   119.99999848
_symmetry_Int_Tables_number   1
_chemical_formula_structural   Cr2S3
_chemical_formula_sum   'Cr8 S12'
_cell_volume   354.24528858
_cell_formula_units_Z   4
loop_
 _symmetry_equiv_pos_site_id
 _symmetry_equiv_pos_as_xyz
  1  'x, y, z'
loop_
 _atom_site_type_symbol
 _atom_site_label
 _atom_site_symmetry_multiplicity
 _atom_site_fract_x
 _atom_site_fract_y
 _atom_site_fract_z
 _atom_site_occupancy
  Cr  Cr0  1  0.66666700  0.33333300  0.48251400  1
  Cr  Cr1  1  0.66666700  0.33333300  0.01748600  1
  Cr  Cr2  1  0.33333300  0.66666700  0.51748600  1
  Cr  Cr3  1  0.33333300  0.66666700  0.98251400  1
  Cr  Cr4  1  0.00000000  0.00000000  0.50000000  1
  Cr  Cr5  1  0.00000000  0.00000000  0.00000000  1
  Cr  Cr6  1  0.66666700  0.33333300  0.75000000  1
  Cr  Cr7  1  0.33333300  0.66666700  0.25000000  1
  S  S0  1  0.67543600  0.65378500  0.88349500  1
  S  S1  1  0.34621500  0.02165200  0.88349500  1
  S  S2  1  0.97834800  0.32456400  0.88349500  1
  S  S3  1  0.34621500  0.32456400  0.61650500  1
  S  S4  1  0.97834800  0.65378500  0.61650500  1
  S  S5  1  0.67543600  0.02165200  0.61650500  1
  S  S6  1  0.32456400  0.34621500  0.11650500  1
  S  S7  1  0.65378500  0.97834800  0.11650500  1
  S  S8  1  0.32456400  0.97834800  0.38349500  1
  S  S9  1  0.02165200  0.34621500  0.38349500  1
  S  S10  1  0.65378500  0.67543600  0.38349500  1
  S  S11  1  0.02165200  0.67543600  0.11650500  1
loop_
_geom_bond_atom_site_label_1
_geom_bond_atom_site_label_2
_geom_bond_distance
_geom_bond_site_symmetry_2
Cr0 S10 2.379064 1_555
Cr0 S9 2.379064 1_655
Cr0 S8 2.379064 1_545
Cr0 S5 2.430601 1_555
Cr0 S4 2.430606 1_555
Cr0 S3 2.430610 1_555
Cr1 S6 2.379064 1_555
Cr1 S7 2.379064 1_545
Cr1 S11 2.379064 1_655
Cr1 S2 2.430601 1_554
Cr1 S1 2.430606 1_554
Cr1 S0 2.430610 1_554
Cr2 S3 2.379064 1_555
Cr2 S4 2.379064 1_455
Cr2 S5 2.379064 1_565
Cr2 S8 2.430601 1_555
Cr2 S9 2.430606 1_555
Cr2 S10 2.430610 1_555
Cr3 S0 2.379064 1_555
Cr3 S1 2.379064 1_565
Cr3 S2 2.379064 1_455
Cr3 S11 2.430601 1_556
Cr3 S7 2.430606 1_556
Cr3 S6 2.430610 1_556
Cr4 S4 2.412415 1_445
Cr4 S9 2.412415 1_555
Cr4 S3 2.412417 1_555
Cr4 S10 2.412417 1_445
Cr4 S8 2.412420 1_545
Cr4 S5 2.412420 1_455
Cr5 S7 2.412415 1_445
Cr5 S1 2.412415 1_554
Cr5 S6 2.412417 1_555
Cr5 S0 2.412417 1_444
Cr5 S2 2.412420 1_454
Cr5 S11 2.412420 1_545
Cr6 S2 2.427135 1_555
Cr6 S5 2.427135 1_555
Cr6 S1 2.427140 1_555
Cr6 S4 2.427140 1_555
Cr6 S0 2.427144 1_555
Cr6 S3 2.427144 1_555
Cr7 S8 2.427135 1_555
Cr7 S11 2.427135 1_555
Cr7 S7 2.427140 1_555
Cr7 S9 2.427140 1_555
Cr7 S6 2.427144 1_555
Cr7 S10 2.427144 1_555
