# generated using pymatgen
data_LaMo12PbSe16
_symmetry_space_group_name_H-M   'P 1'
_cell_length_a   9.80043961
_cell_length_b   9.80043961
_cell_length_c   9.80043951
_cell_angle_alpha   58.86237697
_cell_angle_beta   58.86237697
_cell_angle_gamma   58.86238205
_symmetry_Int_Tables_number   1
_chemical_formula_structural   LaMo12PbSe16
_chemical_formula_sum   'La1 Mo12 Pb1 Se16'
_cell_volume   648.32655953
_cell_formula_units_Z   1
loop_
 _symmetry_equiv_pos_site_id
 _symmetry_equiv_pos_as_xyz
  1  'x, y, z'
loop_
 _atom_site_type_symbol
 _atom_site_label
 _atom_site_symmetry_multiplicity
 _atom_site_fract_x
 _atom_site_fract_y
 _atom_site_fract_z
 _atom_site_occupancy
  La  La0  1  0.50000000  0.50000000  0.50000000  1
  Mo  Mo0  1  0.87181000  0.55040000  0.68881400  1
  Mo  Mo1  1  0.37248400  0.04972100  0.18905300  1
  Mo  Mo2  1  0.55040000  0.68881400  0.87181000  1
  Mo  Mo3  1  0.04972100  0.18905300  0.37248400  1
  Mo  Mo4  1  0.68881400  0.87181000  0.55040000  1
  Mo  Mo5  1  0.18905300  0.37248400  0.04972100  1
  Mo  Mo6  1  0.62751600  0.95027900  0.81094700  1
  Mo  Mo7  1  0.12819000  0.44960000  0.31118600  1
  Mo  Mo8  1  0.95027900  0.81094700  0.62751600  1
  Mo  Mo9  1  0.44960000  0.31118600  0.12819000  1
  Mo  Mo10  1  0.81094700  0.62751600  0.95027900  1
  Mo  Mo11  1  0.31118600  0.12819000  0.44960000  1
  Pb  Pb0  1  0.00000000  0.00000000  0.00000000  1
  Se  Se0  1  0.37720100  0.00272000  0.74366600  1
  Se  Se1  1  0.87565700  0.50420200  0.24555700  1
  Se  Se2  1  0.00272000  0.74366600  0.37720100  1
  Se  Se3  1  0.50420200  0.24555700  0.87565700  1
  Se  Se4  1  0.74366600  0.37720100  0.00272000  1
  Se  Se5  1  0.24555700  0.87565700  0.50420200  1
  Se  Se6  1  0.12434300  0.49579800  0.75444300  1
  Se  Se7  1  0.62279900  0.99728000  0.25633400  1
  Se  Se8  1  0.49579800  0.75444300  0.12434300  1
  Se  Se9  1  0.99728000  0.25633400  0.62279900  1
  Se  Se10  1  0.75444300  0.12434300  0.49579800  1
  Se  Se11  1  0.25633400  0.62279900  0.99728000  1
  Se  Se12  1  0.62096200  0.62096200  0.62096200  1
  Se  Se13  1  0.12170300  0.12170300  0.12170300  1
  Se  Se14  1  0.87829700  0.87829700  0.87829700  1
  Se  Se15  1  0.37903800  0.37903800  0.37903800  1
loop_
_geom_bond_atom_site_label_1
_geom_bond_atom_site_label_2
_geom_bond_distance
_geom_bond_site_symmetry_2
La0 Se15 2.928539 1_555
La0 Se12 2.928539 1_555
La0 Se3 3.214073 1_555
La0 Se8 3.214073 1_555
La0 Se1 3.214073 1_555
La0 Se6 3.214073 1_555
La0 Se5 3.214073 1_555
La0 Se10 3.214073 1_555
Mo0 Se12 2.533998 1_555
Mo0 Se4 2.594460 1_556
Mo0 Se6 2.597308 1_655
Mo0 Se2 2.653115 1_655
Mo0 Se9 2.770734 1_555
Mo1 Se13 2.525272 1_555
Mo1 Se7 2.595307 1_545
Mo1 Se5 2.601757 1_545
Mo1 Se3 2.673770 1_554
Mo1 Se8 2.779496 1_545
Mo2 Se12 2.533998 1_555
Mo2 Se0 2.594460 1_565
Mo2 Se8 2.597308 1_556
Mo2 Se4 2.653115 1_556
Mo2 Se11 2.770734 1_555
Mo3 Se13 2.525272 1_555
Mo3 Se9 2.595307 1_455
Mo3 Se1 2.601757 1_455
Mo3 Se5 2.673770 1_545
Mo3 Se10 2.779495 1_455
Mo4 Se12 2.533998 1_555
Mo4 Se2 2.594460 1_655
Mo4 Se10 2.597308 1_565
Mo4 Se0 2.653115 1_565
Mo4 Se7 2.770734 1_555
Mo5 Se13 2.525272 1_555
Mo5 Se11 2.595307 1_554
Mo5 Se3 2.601757 1_554
Mo5 Se1 2.673770 1_455
Mo5 Se6 2.779495 1_554
Mo6 Se14 2.525272 1_555
Mo6 Se0 2.595307 1_565
Mo6 Se10 2.601757 1_565
Mo6 Se8 2.673770 1_556
Mo6 Se3 2.779496 1_565
Mo7 Se15 2.533998 1_555
Mo7 Se11 2.594460 1_554
Mo7 Se1 2.597308 1_455
Mo7 Se9 2.653115 1_455
Mo7 Se2 2.770734 1_555
Mo8 Se14 2.525272 1_555
Mo8 Se2 2.595307 1_655
Mo8 Se6 2.601757 1_655
Mo8 Se10 2.673770 1_565
Mo8 Se5 2.779495 1_655
Mo9 Se15 2.533998 1_555
Mo9 Se7 2.594460 1_545
Mo9 Se3 2.597308 1_554
Mo9 Se11 2.653115 1_554
Mo9 Se4 2.770734 1_555
Mo10 Se14 2.525272 1_555
Mo10 Se4 2.595307 1_556
Mo10 Se8 2.601757 1_556
Mo10 Se6 2.673770 1_655
Mo10 Se1 2.779495 1_556
Mo11 Se15 2.533998 1_555
Mo11 Se9 2.594460 1_455
Mo11 Se5 2.597308 1_545
Mo11 Se7 2.653115 1_545
Mo11 Se0 2.770734 1_555
Pb0 Se13 2.946479 1_555
Pb0 Se14 2.946479 1_444
Pb0 Se9 3.225815 1_454
Pb0 Se2 3.225815 1_545
Pb0 Se0 3.225815 1_554
Pb0 Se7 3.225815 1_445
Pb0 Se4 3.225816 1_455
Pb0 Se11 3.225816 1_544
