# generated using pymatgen
data_KRb2ErCl6
_symmetry_space_group_name_H-M   'P 1'
_cell_length_a   7.93187274
_cell_length_b   7.93187274
_cell_length_c   7.93187274
_cell_angle_alpha   60.00000000
_cell_angle_beta   60.00000000
_cell_angle_gamma   60.00000000
_symmetry_Int_Tables_number   1
_chemical_formula_structural   KRb2ErCl6
_chemical_formula_sum   'K1 Rb2 Er1 Cl6'
_cell_volume   352.86795036
_cell_formula_units_Z   1
loop_
 _symmetry_equiv_pos_site_id
 _symmetry_equiv_pos_as_xyz
  1  'x, y, z'
loop_
 _atom_site_type_symbol
 _atom_site_label
 _atom_site_symmetry_multiplicity
 _atom_site_fract_x
 _atom_site_fract_y
 _atom_site_fract_z
 _atom_site_occupancy
  K  K0  1  0.50000000  0.50000000  0.50000000  1
  Rb  Rb0  1  0.75000000  0.75000000  0.75000000  1
  Rb  Rb1  1  0.25000000  0.25000000  0.25000000  1
  Er  Er0  1  0.00000000  0.00000000  0.00000000  1
  Cl  Cl0  1  0.76724200  0.23275800  0.23275800  1
  Cl  Cl1  1  0.23275800  0.23275800  0.76724200  1
  Cl  Cl2  1  0.23275800  0.76724200  0.76724200  1
  Cl  Cl3  1  0.23275800  0.76724200  0.23275800  1
  Cl  Cl4  1  0.76724200  0.23275800  0.76724200  1
  Cl  Cl5  1  0.76724200  0.76724200  0.23275800  1
loop_
_geom_bond_atom_site_label_1
_geom_bond_atom_site_label_2
_geom_bond_distance
_geom_bond_site_symmetry_2
Cl0 Er0 2.610931 1_655
Cl0 K0 2.997750 1_555
Cl0 Rb0 3.970650 1_545
Cl0 Rb0 3.970650 1_554
Cl0 Rb1 3.970650 1_655
Cl0 Rb1 3.970650 1_555
Cl1 Er0 2.610931 1_556
Cl1 K0 2.997750 1_555
Cl1 Rb1 3.970650 1_556
Cl1 Rb0 3.970650 1_545
Cl1 Rb1 3.970650 1_555
Cl1 Rb0 3.970650 1_455
Cl2 Er0 2.610931 1_566
Cl2 K0 2.997750 1_555
Cl2 Rb1 3.970650 1_556
Cl2 Rb1 3.970650 1_565
Cl2 Rb0 3.970650 1_555
Cl2 Rb0 3.970650 1_455
Cl3 Er0 2.610931 1_565
Cl3 K0 2.997750 1_555
Cl3 Rb1 3.970650 1_565
Cl3 Rb1 3.970650 1_555
Cl3 Rb0 3.970650 1_455
Cl3 Rb0 3.970650 1_554
Cl4 Er0 2.610931 1_656
Cl4 K0 2.997750 1_555
Cl4 Rb1 3.970650 1_556
Cl4 Rb0 3.970650 1_545
Cl4 Rb0 3.970650 1_555
Cl4 Rb1 3.970650 1_655
Cl5 Er0 2.610931 1_665
Cl5 K0 2.997750 1_555
Cl5 Rb1 3.970650 1_565
Cl5 Rb0 3.970650 1_555
Cl5 Rb1 3.970650 1_655
Cl5 Rb0 3.970650 1_554
