# generated using pymatgen
data_Mg(Hg11N3)2
_symmetry_space_group_name_H-M   'P 1'
_cell_length_a   13.79411656
_cell_length_b   13.79411656
_cell_length_c   13.79411656
_cell_angle_alpha   148.69174498
_cell_angle_beta   148.69174498
_cell_angle_gamma   44.86524018
_symmetry_Int_Tables_number   1
_chemical_formula_structural   Mg(Hg11N3)2
_chemical_formula_sum   'Mg1 Hg22 N6'
_cell_volume   706.55732237
_cell_formula_units_Z   1
loop_
 _symmetry_equiv_pos_site_id
 _symmetry_equiv_pos_as_xyz
  1  'x, y, z'
loop_
 _atom_site_type_symbol
 _atom_site_label
 _atom_site_symmetry_multiplicity
 _atom_site_fract_x
 _atom_site_fract_y
 _atom_site_fract_z
 _atom_site_occupancy
  Mg  Mg0  1  0.00000000  0.00000000  0.00000000  1
  Hg  Hg0  1  0.74225200  0.74225200  0.00000000  1
  Hg  Hg1  1  0.25774800  0.25774800  0.00000000  1
  Hg  Hg2  1  0.86307100  0.47434100  0.21142200  1
  Hg  Hg3  1  0.26291900  0.65164900  0.78857800  1
  Hg  Hg4  1  0.65164900  0.86307100  0.38873000  1
  Hg  Hg5  1  0.47434100  0.26291900  0.61127000  1
  Hg  Hg6  1  0.13692900  0.52565900  0.78857800  1
  Hg  Hg7  1  0.73708100  0.34835100  0.21142200  1
  Hg  Hg8  1  0.34835100  0.13692900  0.61127000  1
  Hg  Hg9  1  0.52565900  0.73708100  0.38873000  1
  Hg  Hg10  1  0.84721600  0.25792900  0.80921800  1
  Hg  Hg11  1  0.44871100  0.03799800  0.19078200  1
  Hg  Hg12  1  0.03799800  0.84721600  0.58928700  1
  Hg  Hg13  1  0.25792900  0.44871100  0.41071300  1
  Hg  Hg14  1  0.15278400  0.74207100  0.19078200  1
  Hg  Hg15  1  0.55128900  0.96200200  0.80921800  1
  Hg  Hg16  1  0.96200200  0.15278400  0.41071300  1
  Hg  Hg17  1  0.74207100  0.55128900  0.58928700  1
  Hg  Hg18  1  0.63614000  0.63614000  0.00000000  1
  Hg  Hg19  1  0.36386000  0.36386000  0.00000000  1
  Hg  Hg20  1  0.25000000  0.75000000  0.50000000  1
  Hg  Hg21  1  0.75000000  0.25000000  0.50000000  1
  N  N0  1  0.82845500  0.82845500  0.00000000  1
  N  N1  1  0.17154500  0.17154500  0.00000000  1
  N  N2  1  0.06416200  0.72136500  0.78552700  1
  N  N3  1  0.93583800  0.27863500  0.21447300  1
  N  N4  1  0.27863500  0.06416200  0.34279700  1
  N  N5  1  0.72136500  0.93583800  0.65720300  1
loop_
_geom_bond_atom_site_label_1
_geom_bond_atom_site_label_2
_geom_bond_distance
_geom_bond_site_symmetry_2
Mg0 N2 2.128475 1_544
Mg0 N4 2.128475 1_555
Mg0 N5 2.128475 1_444
Mg0 N3 2.128475 1_455
Hg0 N0 2.198228 1_555
Hg0 Hg18 2.705920 1_555
Hg1 N1 2.198228 1_555
Hg1 Hg19 2.705920 1_555
Hg2 N3 2.139604 1_555
Hg3 N2 2.139604 1_555
Hg4 N5 2.139604 1_555
Hg5 N4 2.139604 1_555
Hg6 N2 2.139604 1_555
Hg7 N3 2.139604 1_555
Hg8 N4 2.139604 1_555
Hg9 N5 2.139604 1_555
Hg10 N1 2.458443 1_656
Hg10 Hg21 3.104919 1_555
Hg10 Hg18 3.274305 1_556
Hg11 N1 2.458443 1_555
Hg11 Hg21 3.104919 1_555
Hg11 Hg18 3.274305 1_545
Hg12 N1 2.458443 1_566
Hg12 Hg20 3.104919 1_555
Hg12 Hg18 3.274305 1_455
Hg13 N1 2.458443 1_555
Hg13 Hg20 3.104919 1_555
Hg13 Hg18 3.274305 1_556
Hg14 N0 2.458443 1_455
Hg14 Hg20 3.104919 1_555
Hg14 Hg19 3.274305 1_555
Hg15 N0 2.458443 1_556
Hg15 Hg20 3.104919 1_555
Hg15 Hg19 3.274305 1_566
Hg16 N0 2.458443 1_545
Hg16 Hg21 3.104919 1_555
Hg16 Hg19 3.274305 1_656
Hg17 N0 2.458443 1_556
Hg17 Hg21 3.104919 1_555
Hg17 Hg19 3.274305 1_555
Hg18 Hg5 2.984047 1_554
Hg18 Hg2 2.984047 1_555
Hg18 Hg3 2.984047 1_554
Hg18 Hg4 2.984047 1_555
Hg19 Hg9 2.984047 1_555
Hg19 Hg6 2.984047 1_554
Hg19 Hg7 2.984047 1_555
Hg19 Hg8 2.984047 1_554
