# generated using pymatgen
data_W4C3O
_symmetry_space_group_name_H-M   'P 1'
_cell_length_a   2.95352193
_cell_length_b   2.95352193
_cell_length_c   11.90066500
_cell_angle_alpha   90.00000000
_cell_angle_beta   90.00000000
_cell_angle_gamma   119.99999840
_symmetry_Int_Tables_number   1
_chemical_formula_structural   W4C3O
_chemical_formula_sum   'W4 C3 O1'
_cell_volume   89.90467348
_cell_formula_units_Z   1
loop_
 _symmetry_equiv_pos_site_id
 _symmetry_equiv_pos_as_xyz
  1  'x, y, z'
loop_
 _atom_site_type_symbol
 _atom_site_label
 _atom_site_symmetry_multiplicity
 _atom_site_fract_x
 _atom_site_fract_y
 _atom_site_fract_z
 _atom_site_occupancy
  W  W0  1  0.00000000  0.00000000  0.36078300  1
  W  W1  1  0.00000000  0.00000000  0.12134900  1
  W  W2  1  0.00000000  0.00000000  0.87865100  1
  W  W3  1  0.00000000  0.00000000  0.63921700  1
  C  C0  1  0.66666700  0.33333300  0.24474300  1
  C  C1  1  0.66666700  0.33333300  0.00000000  1
  C  C2  1  0.66666700  0.33333300  0.75525700  1
  O  O0  1  0.66666700  0.33333300  0.50000000  1
loop_
_geom_bond_atom_site_label_1
_geom_bond_atom_site_label_2
_geom_bond_distance
_geom_bond_site_symmetry_2
C0 W0 2.194263 1_655
C0 W0 2.194265 1_665
C0 W0 2.194265 1_555
C0 W1 2.250370 1_655
C0 W1 2.250372 1_555
C0 W1 2.250372 1_665
C1 W1 2.234565 1_655
C1 W2 2.234565 1_654
C1 W1 2.234567 1_555
C1 W1 2.234567 1_665
C1 W2 2.234567 1_664
C1 W2 2.234567 1_554
C2 W3 2.194263 1_655
C2 W3 2.194265 1_555
C2 W3 2.194265 1_665
C2 W2 2.250370 1_655
C2 W2 2.250372 1_665
C2 W2 2.250372 1_555
O0 W3 2.377533 1_655
O0 W0 2.377533 1_655
O0 W3 2.377534 1_665
O0 W3 2.377534 1_555
O0 W0 2.377534 1_555
O0 W0 2.377534 1_665
