# generated using pymatgen
data_MgMn6(OF2)4
_symmetry_space_group_name_H-M   'P 1'
_cell_length_a   5.30611859
_cell_length_b   7.96454833
_cell_length_c   5.74942602
_cell_angle_alpha   90.41069787
_cell_angle_beta   95.59276615
_cell_angle_gamma   85.49371366
_symmetry_Int_Tables_number   1
_chemical_formula_structural   MgMn6(OF2)4
_chemical_formula_sum   'Mg1 Mn6 O4 F8'
_cell_volume   241.07136814
_cell_formula_units_Z   1
loop_
 _symmetry_equiv_pos_site_id
 _symmetry_equiv_pos_as_xyz
  1  'x, y, z'
loop_
 _atom_site_type_symbol
 _atom_site_label
 _atom_site_symmetry_multiplicity
 _atom_site_fract_x
 _atom_site_fract_y
 _atom_site_fract_z
 _atom_site_occupancy
  Mg  Mg0  1  0.02856800  0.81297900  0.36728200  1
  Mn  Mn0  1  0.52410700  0.01804700  0.49089200  1
  Mn  Mn1  1  0.56240000  0.64099800  0.24868700  1
  Mn  Mn2  1  0.45978500  0.33926600  0.80078800  1
  Mn  Mn3  1  0.81862300  0.62020700  0.80265400  1
  Mn  Mn4  1  0.01675900  0.33255300  0.29606600  1
  Mn  Mn5  1  0.02897000  0.99058000  0.93246500  1
  O  O0  1  0.83458300  0.78357300  0.03761200  1
  O  O1  1  0.73309600  0.77658600  0.54019000  1
  O  O2  1  0.70860300  0.45412000  0.02759500  1
  O  O3  1  0.30455800  0.23999800  0.53448300  1
  F  F0  1  0.74241100  0.44658400  0.54934100  1
  F  F1  1  0.86656700  0.07161500  0.30598100  1
  F  F2  1  0.70755500  0.13575100  0.80211300  1
  F  F3  1  0.21620200  0.53739100  0.81396700  1
  F  F4  1  0.32165200  0.88612500  0.20232800  1
  F  F5  1  0.19715600  0.57972500  0.32936200  1
  F  F6  1  0.21967400  0.21449200  0.02331300  1
  F  F7  1  0.22261600  0.89440800  0.65530100  1
loop_
_geom_bond_atom_site_label_1
_geom_bond_atom_site_label_2
_geom_bond_distance
_geom_bond_site_symmetry_2
Mg0 O1 1.977284 1_455
Mg0 O0 2.087621 1_455
Mn0 O3 2.066831 1_555
Mn0 O1 2.149396 1_545
Mn1 O2 2.101577 1_555
Mn1 O1 2.151115 1_555
Mn1 O0 2.338180 1_555
Mn2 O3 1.867332 1_555
Mn2 O2 2.029142 1_556
Mn3 O0 1.869440 1_556
Mn3 O1 1.959329 1_555
Mn3 O2 2.014007 1_556
Mn4 O3 2.045481 1_555
Mn4 O2 2.296590 1_455
Mn5 O0 2.133224 1_456
F0 Mn3 2.034960 1_555
F0 Mn4 2.291487 1_655
F0 Mn2 2.389814 1_555
F0 Mn1 2.404599 1_555
F1 Mg0 2.186208 1_645
F1 Mn0 2.262548 1_555
F1 Mn4 2.286548 1_655
F1 Mn5 2.454452 1_644
F2 Mn2 2.004791 1_555
F2 Mn5 2.064115 1_645
F2 Mn0 2.192699 1_555
F3 Mn2 1.965489 1_555
F3 Mn3 2.155209 1_455
F4 Mg0 2.023624 1_555
F4 Mn0 2.194425 1_565
F4 Mn5 2.203882 1_554
F4 Mn1 2.250259 1_555
F5 Mg0 2.017448 1_555
F5 Mn1 2.129865 1_555
F5 Mn4 2.254621 1_555
F6 Mn5 2.155068 1_544
F6 Mn4 2.156728 1_555
F6 Mn2 2.186901 1_554
F7 Mg0 1.995025 1_555
F7 Mn5 2.088015 1_555
F7 Mn0 2.231148 1_565
