# generated using pymatgen
data_Er6Zn23Ge
_symmetry_space_group_name_H-M   'P 1'
_cell_length_a   9.02151156
_cell_length_b   9.02151156
_cell_length_c   9.02151156
_cell_angle_alpha   60.00000000
_cell_angle_beta   60.00000000
_cell_angle_gamma   60.00000000
_symmetry_Int_Tables_number   1
_chemical_formula_structural   Er6Zn23Ge
_chemical_formula_sum   'Er6 Zn23 Ge1'
_cell_volume   519.18595078
_cell_formula_units_Z   1
loop_
 _symmetry_equiv_pos_site_id
 _symmetry_equiv_pos_as_xyz
  1  'x, y, z'
loop_
 _atom_site_type_symbol
 _atom_site_label
 _atom_site_symmetry_multiplicity
 _atom_site_fract_x
 _atom_site_fract_y
 _atom_site_fract_z
 _atom_site_occupancy
  Er  Er0  1  0.71545700  0.28454300  0.28454300  1
  Er  Er1  1  0.71545700  0.28454300  0.71545700  1
  Er  Er2  1  0.71545700  0.71545700  0.28454300  1
  Er  Er3  1  0.28454300  0.71545700  0.71545700  1
  Er  Er4  1  0.28454300  0.71545700  0.28454300  1
  Er  Er5  1  0.28454300  0.28454300  0.71545700  1
  Zn  Zn0  1  0.62334200  0.12555300  0.12555300  1
  Zn  Zn1  1  0.12555300  0.62334200  0.12555300  1
  Zn  Zn2  1  0.12555300  0.12555300  0.62334200  1
  Zn  Zn3  1  0.12555300  0.12555300  0.12555300  1
  Zn  Zn4  1  0.37665800  0.87444700  0.87444700  1
  Zn  Zn5  1  0.87444700  0.37665800  0.87444700  1
  Zn  Zn6  1  0.87444700  0.87444700  0.37665800  1
  Zn  Zn7  1  0.87444700  0.87444700  0.87444700  1
  Zn  Zn8  1  0.50000000  0.00000000  0.00000000  1
  Zn  Zn9  1  0.50000000  0.00000000  0.50000000  1
  Zn  Zn10  1  0.50000000  0.50000000  0.00000000  1
  Zn  Zn11  1  0.00000000  0.50000000  0.50000000  1
  Zn  Zn12  1  0.00000000  0.50000000  0.00000000  1
  Zn  Zn13  1  0.00000000  0.00000000  0.50000000  1
  Zn  Zn14  1  0.00000000  0.00000000  0.00000000  1
  Zn  Zn15  1  0.00549000  0.33150300  0.33150300  1
  Zn  Zn16  1  0.33150300  0.00549000  0.33150300  1
  Zn  Zn17  1  0.33150300  0.33150300  0.00549000  1
  Zn  Zn18  1  0.33150300  0.33150300  0.33150300  1
  Zn  Zn19  1  0.99451000  0.66849700  0.66849700  1
  Zn  Zn20  1  0.66849700  0.99451000  0.66849700  1
  Zn  Zn21  1  0.66849700  0.66849700  0.99451000  1
  Zn  Zn22  1  0.66849700  0.66849700  0.66849700  1
  Ge  Ge0  1  0.50000000  0.50000000  0.50000000  1
loop_
_geom_bond_atom_site_label_1
_geom_bond_atom_site_label_2
_geom_bond_distance
_geom_bond_site_symmetry_2
Er0 Ge0 2.748875 1_555
Er0 Zn0 3.040790 1_555
Er0 Zn3 3.040796 1_655
Er0 Zn5 3.040797 1_554
Er0 Zn6 3.040797 1_545
Er0 Zn15 3.098660 1_655
Er0 Zn20 3.098665 1_545
Er0 Zn21 3.098665 1_554
Er0 Zn18 3.098668 1_555
Er0 Zn9 3.219889 1_555
Er0 Zn10 3.219889 1_555
Er0 Zn12 3.219889 1_655
Er0 Zn13 3.219889 1_655
Er1 Ge0 2.748875 1_555
Er1 Zn5 3.040790 1_555
Er1 Zn7 3.040796 1_545
Er1 Zn0 3.040797 1_556
Er1 Zn2 3.040797 1_655
Er1 Zn20 3.098660 1_545
Er1 Zn15 3.098665 1_655
Er1 Zn17 3.098665 1_556
Er1 Zn22 3.098668 1_555
Er1 Zn11 3.219889 1_655
Er1 Zn8 3.219889 1_556
Er1 Zn10 3.219889 1_556
Er1 Zn13 3.219889 1_655
Er2 Ge0 2.748875 1_555
Er2 Zn6 3.040790 1_555
Er2 Zn7 3.040796 1_554
Er2 Zn1 3.040797 1_655
Er2 Zn0 3.040797 1_565
Er2 Zn21 3.098660 1_554
Er2 Zn15 3.098665 1_655
Er2 Zn16 3.098665 1_565
Er2 Zn22 3.098668 1_555
Er2 Zn11 3.219889 1_655
Er2 Zn12 3.219889 1_655
Er2 Zn8 3.219889 1_565
Er2 Zn9 3.219889 1_565
Er3 Ge0 2.748875 1_555
Er3 Zn4 3.040790 1_555
Er3 Zn7 3.040796 1_455
Er3 Zn2 3.040797 1_565
Er3 Zn1 3.040797 1_556
Er3 Zn19 3.098660 1_455
Er3 Zn17 3.098665 1_556
Er3 Zn16 3.098665 1_565
Er3 Zn22 3.098668 1_555
Er3 Zn13 3.219889 1_565
Er3 Zn10 3.219889 1_556
Er3 Zn12 3.219889 1_556
Er3 Zn9 3.219889 1_565
Er4 Ge0 2.748875 1_555
Er4 Zn1 3.040790 1_555
Er4 Zn3 3.040796 1_565
Er4 Zn6 3.040797 1_455
Er4 Zn4 3.040797 1_554
Er4 Zn16 3.098660 1_565
Er4 Zn19 3.098665 1_455
Er4 Zn21 3.098665 1_554
Er4 Zn18 3.098668 1_555
Er4 Zn10 3.219889 1_555
Er4 Zn13 3.219889 1_565
Er4 Zn8 3.219889 1_565
Er4 Zn11 3.219889 1_555
Er5 Ge0 2.748875 1_555
Er5 Zn2 3.040790 1_555
Er5 Zn3 3.040796 1_556
Er5 Zn5 3.040797 1_455
Er5 Zn4 3.040797 1_545
Er5 Zn17 3.098660 1_556
Er5 Zn20 3.098665 1_545
Er5 Zn19 3.098665 1_455
Er5 Zn18 3.098668 1_555
Er5 Zn8 3.219889 1_556
Er5 Zn9 3.219889 1_555
Er5 Zn12 3.219889 1_556
Er5 Zn11 3.219889 1_555
Zn0 Zn18 2.739447 1_555
Zn0 Zn17 2.739457 1_555
Zn0 Zn16 2.739457 1_555
Zn0 Zn10 2.758213 1_555
Zn0 Zn9 2.758213 1_555
Zn0 Zn8 2.758220 1_555
Zn0 Zn14 2.774475 1_655
Zn1 Zn18 2.739447 1_555
Zn1 Zn15 2.739457 1_555
Zn1 Zn17 2.739457 1_555
Zn1 Zn10 2.758213 1_555
Zn1 Zn11 2.758213 1_555
Zn1 Zn12 2.758220 1_555
Zn1 Zn14 2.774475 1_565
Zn2 Zn9 2.758213 1_555
Zn3 Zn8 2.758213 1_555
Zn4 Zn9 2.758213 1_565
Zn4 Zn8 2.758220 1_566
Zn6 Zn9 2.758213 1_565
Zn7 Zn8 2.758213 1_566
Zn10 Zn18 2.604600 1_555
Zn10 Zn22 2.604600 1_554
Zn10 Zn17 2.604605 1_555
Zn10 Zn21 2.604605 1_554
Zn10 Zn4 2.758213 1_554
Zn10 Zn5 2.758213 1_554
Zn11 Zn18 2.604600 1_555
Zn11 Zn22 2.604600 1_455
Zn11 Zn15 2.604605 1_555
Zn11 Zn19 2.604605 1_455
Zn11 Zn2 2.758213 1_555
Zn11 Zn5 2.758213 1_455
Zn11 Zn6 2.758213 1_455
Zn12 Zn21 2.604597 1_454
Zn12 Zn19 2.604597 1_454
Zn12 Zn15 2.604597 1_555
Zn12 Zn17 2.604597 1_555
Zn12 Zn3 2.758213 1_555
Zn12 Zn7 2.758213 1_454
Zn12 Zn5 2.758220 1_454
Zn13 Zn20 2.604597 1_445
Zn13 Zn19 2.604597 1_445
Zn13 Zn15 2.604597 1_555
Zn13 Zn16 2.604597 1_555
Zn13 Zn3 2.758213 1_555
Zn13 Zn7 2.758213 1_445
Zn13 Zn2 2.758220 1_555
Zn13 Zn6 2.758220 1_445
Zn14 Zn6 2.774475 1_445
Zn14 Zn5 2.774475 1_454
Zn14 Zn4 2.774475 1_544
Zn14 Zn2 2.774475 1_554
Zn14 Zn3 2.774483 1_555
Zn14 Zn7 2.774483 1_444
Zn15 Zn3 2.739442 1_555
Zn15 Zn2 2.739457 1_555
Zn15 Zn17 2.941130 1_555
Zn15 Zn16 2.941130 1_555
Zn15 Zn18 2.941130 1_555
Zn16 Zn8 2.604597 1_555
Zn16 Zn9 2.604605 1_555
Zn16 Zn3 2.739442 1_555
Zn16 Zn2 2.739457 1_555
Zn16 Zn17 2.941130 1_555
Zn16 Zn18 2.941130 1_555
Zn17 Zn8 2.604597 1_555
Zn17 Zn3 2.739442 1_555
Zn17 Zn18 2.941130 1_555
Zn18 Zn9 2.604600 1_555
Zn18 Zn2 2.739447 1_555
Zn19 Zn7 2.739442 1_555
Zn19 Zn6 2.739457 1_555
Zn19 Zn5 2.739457 1_555
Zn19 Zn22 2.941130 1_555
Zn19 Zn20 2.941130 1_555
Zn19 Zn21 2.941130 1_555
Zn20 Zn8 2.604597 1_566
Zn20 Zn9 2.604605 1_565
Zn20 Zn7 2.739442 1_555
Zn20 Zn6 2.739457 1_555
Zn20 Zn4 2.739457 1_555
Zn20 Zn22 2.941130 1_555
Zn20 Zn21 2.941130 1_555
Zn21 Zn8 2.604597 1_566
Zn21 Zn7 2.739442 1_555
Zn21 Zn5 2.739457 1_555
Zn21 Zn4 2.739457 1_555
Zn21 Zn22 2.941130 1_555
Zn22 Zn9 2.604600 1_565
Zn22 Zn4 2.739447 1_555
Zn22 Zn5 2.739447 1_555
Zn22 Zn6 2.739447 1_555
