# generated using pymatgen
data_Ba2Mn2O5
_symmetry_space_group_name_H-M   'P 1'
_cell_length_a   9.27191484
_cell_length_b   9.27191484
_cell_length_c   9.27191484
_cell_angle_alpha   143.48845862
_cell_angle_beta   143.43926212
_cell_angle_gamma   52.62977825
_symmetry_Int_Tables_number   1
_chemical_formula_structural   Ba2Mn2O5
_chemical_formula_sum   'Ba4 Mn4 O10'
_cell_volume   280.82090193
_cell_formula_units_Z   2
loop_
 _symmetry_equiv_pos_site_id
 _symmetry_equiv_pos_as_xyz
  1  'x, y, z'
loop_
 _atom_site_type_symbol
 _atom_site_label
 _atom_site_symmetry_multiplicity
 _atom_site_fract_x
 _atom_site_fract_y
 _atom_site_fract_z
 _atom_site_occupancy
  Ba  Ba0  1  0.39070800  0.88781700  0.50566500  1
  Ba  Ba1  1  0.61784800  0.11218300  0.50289100  1
  Ba  Ba2  1  0.89070800  0.38504300  0.50289100  1
  Ba  Ba3  1  0.11784800  0.61495700  0.50566500  1
  Mn  Mn0  1  0.00461500  0.00000000  0.00461500  1
  Mn  Mn1  1  0.50461500  0.50000000  0.00461500  1
  Mn  Mn2  1  0.76489400  0.79923300  0.06412700  1
  Mn  Mn3  1  0.26489400  0.20076700  0.96566100  1
  O  O0  1  0.76042500  0.75232500  0.50472300  1
  O  O1  1  0.75239800  0.24767500  0.00810000  1
  O  O2  1  0.26042500  0.75570200  0.00810000  1
  O  O3  1  0.25239800  0.24429800  0.50472300  1
  O  O4  1  0.85408800  0.82050300  0.95725700  1
  O  O5  1  0.13675400  0.17949700  0.03358500  1
  O  O6  1  0.35408800  0.39683100  0.03358500  1
  O  O7  1  0.63675400  0.60316900  0.95725700  1
  O  O8  1  0.05427100  0.94414700  0.49841800  1
  O  O9  1  0.55427100  0.05585300  0.11012400  1
loop_
_geom_bond_atom_site_label_1
_geom_bond_atom_site_label_2
_geom_bond_distance
_geom_bond_site_symmetry_2
Ba0 O3 2.729902 1_565
Ba0 O6 2.730647 1_555
Ba0 O1 2.753400 1_566
Ba0 O8 2.783878 1_555
Ba0 O2 2.828889 1_555
Ba0 O0 2.851682 1_555
Ba0 O4 2.902917 1_555
Ba0 O4 3.004370 1_454
Ba0 O6 3.152539 1_566
Ba0 O9 3.363877 1_566
Ba1 O2 2.729902 1_545
Ba1 O7 2.730647 1_555
Ba1 O0 2.753400 1_545
Ba1 O9 2.783878 1_555
Ba1 O3 2.828889 1_555
Ba1 O1 2.851682 1_556
Ba1 O5 2.902917 1_656
Ba1 O5 3.004370 1_555
Ba1 O7 3.152539 1_544
Ba1 O8 3.363877 1_645
Ba2 O1 2.729902 1_555
Ba2 O4 2.730647 1_555
Ba2 O3 2.753400 1_655
Ba2 O9 2.783878 1_555
Ba2 O0 2.828889 1_555
Ba2 O2 2.851682 1_656
Ba2 O6 2.902917 1_656
Ba2 O6 3.004370 1_555
Ba2 O4 3.152539 1_544
Ba2 O8 3.363877 1_645
Ba3 O0 2.729902 1_455
Ba3 O5 2.730647 1_555
Ba3 O2 2.753400 1_556
Ba3 O8 2.783878 1_555
Ba3 O1 2.828889 1_455
Ba3 O3 2.851682 1_555
Ba3 O7 2.902917 1_555
Ba3 O7 3.004370 1_454
Ba3 O5 3.152539 1_566
Ba3 O9 3.363877 1_566
Mn0 O1 2.055809 1_455
Mn0 O0 2.055809 1_444
Mn0 O2 2.056734 1_545
Mn0 O3 2.056734 1_555
Mn0 O4 2.360302 1_444
Mn0 O5 2.360302 1_555
Mn1 O2 2.055809 1_555
Mn1 O3 2.055809 1_554
Mn1 O0 2.056734 1_555
Mn1 O1 2.056734 1_555
Mn1 O6 2.360302 1_555
Mn1 O7 2.360302 1_554
Mn2 O7 1.879688 1_554
Mn2 O4 1.879688 1_554
Mn2 O8 1.881957 1_655
Mn2 O9 1.929537 1_565
Mn3 O5 1.879688 1_556
Mn3 O6 1.879688 1_556
Mn3 O9 1.881957 1_556
Mn3 O8 1.929537 1_545
