# generated using pymatgen
data_Ba(ZnSn)2
_symmetry_space_group_name_H-M   'P 1'
_cell_length_a   4.78214518
_cell_length_b   4.78214518
_cell_length_c   11.27414641
_cell_angle_alpha   90.00000000
_cell_angle_beta   90.00000000
_cell_angle_gamma   90.00000000
_symmetry_Int_Tables_number   1
_chemical_formula_structural   Ba(ZnSn)2
_chemical_formula_sum   'Ba2 Zn4 Sn4'
_cell_volume   257.82746802
_cell_formula_units_Z   2
loop_
 _symmetry_equiv_pos_site_id
 _symmetry_equiv_pos_as_xyz
  1  'x, y, z'
loop_
 _atom_site_type_symbol
 _atom_site_label
 _atom_site_symmetry_multiplicity
 _atom_site_fract_x
 _atom_site_fract_y
 _atom_site_fract_z
 _atom_site_occupancy
  Ba  Ba0  1  0.75000000  0.75000000  0.75887641  1
  Ba  Ba1  1  0.25000000  0.25000000  0.24112359  1
  Zn  Zn0  1  0.75000000  0.75000000  0.36508869  1
  Zn  Zn1  1  0.25000000  0.25000000  0.63491131  1
  Zn  Zn2  1  0.25000000  0.75000000  0.00000000  1
  Zn  Zn3  1  0.75000000  0.25000000  0.00000000  1
  Sn  Sn0  1  0.25000000  0.25000000  0.87391521  1
  Sn  Sn1  1  0.75000000  0.75000000  0.12608479  1
  Sn  Sn2  1  0.25000000  0.75000000  0.50000000  1
  Sn  Sn3  1  0.75000000  0.25000000  0.50000000  1
loop_
_geom_bond_atom_site_label_1
_geom_bond_atom_site_label_2
_geom_bond_distance
_geom_bond_site_symmetry_2
Ba0 Zn2 3.620396 1_656
Ba0 Zn3 3.620396 1_566
Ba0 Zn3 3.620396 1_556
Ba0 Zn2 3.620396 1_556
Ba0 Sn0 3.621681 1_655
Ba0 Sn0 3.621681 1_565
Ba0 Sn0 3.621681 1_555
Ba0 Sn0 3.621681 1_665
Ba0 Zn1 3.658927 1_565
Ba0 Zn1 3.658927 1_555
Ba0 Zn1 3.658927 1_655
Ba0 Zn1 3.658927 1_665
Ba0 Sn2 3.772998 1_555
Ba0 Sn3 3.772998 1_555
Ba0 Sn3 3.772998 1_565
Ba0 Sn2 3.772998 1_655
Ba1 Zn2 3.620396 1_545
Ba1 Zn2 3.620396 1_555
Ba1 Zn3 3.620396 1_555
Ba1 Zn3 3.620396 1_455
Ba1 Sn1 3.621681 1_445
Ba1 Sn1 3.621681 1_545
Ba1 Sn1 3.621681 1_555
Ba1 Sn1 3.621681 1_455
Ba1 Zn0 3.658927 1_545
Ba1 Zn0 3.658927 1_555
Ba1 Zn0 3.658927 1_445
Ba1 Zn0 3.658927 1_455
Ba1 Sn2 3.772998 1_545
Ba1 Sn3 3.772998 1_555
Ba1 Sn2 3.772998 1_555
Ba1 Sn3 3.772998 1_455
Sn0 Zn1 2.694565 1_555
Sn0 Zn2 2.781706 1_546
Sn0 Zn3 2.781706 1_556
Sn0 Zn3 2.781706 1_456
Sn0 Zn2 2.781706 1_556
Sn1 Zn0 2.694565 1_555
Sn1 Zn2 2.781706 1_555
Sn1 Zn3 2.781706 1_565
Sn1 Zn3 2.781706 1_555
Sn1 Zn2 2.781706 1_655
Sn2 Zn0 2.833849 1_455
Sn2 Zn0 2.833849 1_555
Sn2 Zn1 2.833849 1_565
Sn2 Zn1 2.833849 1_555
Sn3 Zn0 2.833849 1_545
Sn3 Zn0 2.833849 1_555
Sn3 Zn1 2.833849 1_555
Sn3 Zn1 2.833849 1_655
