# generated using pymatgen
data_Y5Mn3(NiO6)3
_symmetry_space_group_name_H-M   'P 1'
_cell_length_a   5.51617300
_cell_length_b   7.48311700
_cell_length_c   17.53151620
_cell_angle_alpha   64.68836422
_cell_angle_beta   90.00000000
_cell_angle_gamma   90.00000000
_symmetry_Int_Tables_number   1
_chemical_formula_structural   Y5Mn3(NiO6)3
_chemical_formula_sum   'Y10 Mn6 Ni6 O36'
_cell_volume   654.19357741
_cell_formula_units_Z   2
loop_
 _symmetry_equiv_pos_site_id
 _symmetry_equiv_pos_as_xyz
  1  'x, y, z'
loop_
 _atom_site_type_symbol
 _atom_site_label
 _atom_site_symmetry_multiplicity
 _atom_site_fract_x
 _atom_site_fract_y
 _atom_site_fract_z
 _atom_site_occupancy
  Y  Y0  1  0.81337800  0.74829400  0.50465000  1
  Y  Y1  1  0.81566700  0.07918700  0.17097700  1
  Y  Y2  1  0.32007600  0.25510100  0.99151200  1
  Y  Y3  1  0.31542300  0.58678100  0.66361800  1
  Y  Y4  1  0.32393900  0.92421200  0.32731100  1
  Y  Y5  1  0.67606100  0.92421200  0.82731100  1
  Y  Y6  1  0.67992400  0.25510100  0.49151200  1
  Y  Y7  1  0.68457700  0.58678100  0.16361800  1
  Y  Y8  1  0.18433300  0.07918700  0.67097700  1
  Y  Y9  1  0.18662200  0.74829400  0.00465000  1
  Mn  Mn0  1  0.23049000  0.17857200  0.83179600  1
  Mn  Mn1  1  0.24353200  0.49971400  0.49606600  1
  Mn  Mn2  1  0.24662200  0.82449100  0.17042100  1
  Mn  Mn3  1  0.75646800  0.49971400  0.99606600  1
  Mn  Mn4  1  0.75337800  0.82449100  0.67042100  1
  Mn  Mn5  1  0.76951000  0.17857200  0.33179600  1
  Ni  Ni0  1  0.23068100  0.66096000  0.83395700  1
  Ni  Ni1  1  0.24806800  0.00659800  0.49655000  1
  Ni  Ni2  1  0.25031900  0.33456500  0.16748600  1
  Ni  Ni3  1  0.75193200  0.00659800  0.99655000  1
  Ni  Ni4  1  0.74968100  0.33456500  0.66748600  1
  Ni  Ni5  1  0.76931900  0.66096000  0.33395700  1
  O  O0  1  0.06617800  0.09545300  0.93746600  1
  O  O1  1  0.05776300  0.45247900  0.59874400  1
  O  O2  1  0.05268800  0.80845200  0.26094300  1
  O  O3  1  0.55434400  0.55215800  0.90501400  1
  O  O4  1  0.54932800  0.87814600  0.57073900  1
  O  O5  1  0.56226300  0.21994300  0.23409300  1
  O  O6  1  0.43773700  0.21994300  0.73409300  1
  O  O7  1  0.44565600  0.55215800  0.40501400  1
  O  O8  1  0.45067200  0.87814600  0.07073900  1
  O  O9  1  0.94731200  0.80845200  0.76094300  1
  O  O10  1  0.93382200  0.09545300  0.43746600  1
  O  O11  1  0.94223700  0.45247900  0.09874400  1
  O  O12  1  0.07018600  0.52186900  0.94436700  1
  O  O13  1  0.04195300  0.84395200  0.60446600  1
  O  O14  1  0.03823700  0.17077900  0.26444800  1
  O  O15  1  0.51337900  0.13169700  0.90000100  1
  O  O16  1  0.53846200  0.48939800  0.56422200  1
  O  O17  1  0.55046700  0.81875900  0.23216100  1
  O  O18  1  0.44953300  0.81875900  0.73216100  1
  O  O19  1  0.48662100  0.13169700  0.40000100  1
  O  O20  1  0.46153800  0.48939800  0.06422200  1
  O  O21  1  0.96176300  0.17077900  0.76444800  1
  O  O22  1  0.92981400  0.52186900  0.44436700  1
  O  O23  1  0.95804700  0.84395200  0.10446600  1
  O  O24  1  0.77974200  0.78042800  0.96517000  1
  O  O25  1  0.77318200  0.11446100  0.63132900  1
  O  O26  1  0.78571100  0.44823100  0.30078900  1
  O  O27  1  0.27329800  0.88252600  0.86381900  1
  O  O28  1  0.27768600  0.22140800  0.53231100  1
  O  O29  1  0.27962000  0.55980800  0.19587300  1
  O  O30  1  0.72038000  0.55980800  0.69587300  1
  O  O31  1  0.72670200  0.88252600  0.36381900  1
  O  O32  1  0.72231400  0.22140800  0.03231100  1
  O  O33  1  0.21428900  0.44823100  0.80078900  1
  O  O34  1  0.22025800  0.78042800  0.46517000  1
  O  O35  1  0.22681800  0.11446100  0.13132900  1
loop_
_geom_bond_atom_site_label_1
_geom_bond_atom_site_label_2
_geom_bond_distance
_geom_bond_site_symmetry_2
Mn0 O33 1.854024 1_555
Mn0 O15 1.905054 1_555
Mn0 O21 1.911467 1_455
Mn0 O0 1.911821 1_555
Mn0 O6 1.970610 1_555
Mn0 O27 2.053100 1_545
Mn1 O7 1.846502 1_555
Mn1 O28 1.909163 1_555
Mn1 O22 1.927485 1_455
Mn1 O34 1.936373 1_555
Mn1 O1 1.967566 1_555
Mn1 O16 2.000394 1_555
Mn2 O29 1.843777 1_555
Mn2 O2 1.874695 1_555
Mn2 O23 1.936014 1_455
Mn2 O8 1.970322 1_555
Mn2 O35 1.979495 1_565
Mn2 O17 1.985675 1_555
Mn3 O3 1.846502 1_555
Mn3 O32 1.909163 1_556
Mn3 O12 1.927485 1_655
Mn3 O24 1.936373 1_555
Mn3 O11 1.967566 1_556
Mn3 O20 2.000394 1_556
Mn4 O30 1.843777 1_555
Mn4 O9 1.874695 1_555
Mn4 O13 1.936014 1_655
Mn4 O4 1.970322 1_555
Mn4 O25 1.979495 1_565
Mn4 O18 1.985675 1_555
Mn5 O26 1.854024 1_555
Mn5 O19 1.905054 1_555
Mn5 O14 1.911467 1_655
Mn5 O10 1.911821 1_555
Mn5 O5 1.970610 1_555
Mn5 O31 2.053100 1_545
Ni0 O33 1.916215 1_555
Ni0 O27 1.954620 1_555
Ni0 O12 1.972600 1_555
Ni0 O9 2.022855 1_455
Ni0 O18 2.057844 1_555
Ni0 O3 2.129569 1_555
Ni1 O28 1.966057 1_555
Ni1 O10 1.982657 1_455
Ni1 O34 1.996685 1_545
Ni1 O19 2.029306 1_555
Ni1 O4 2.075616 1_545
Ni1 O13 2.093909 1_545
Ni2 O29 1.957560 1_555
Ni2 O14 1.994720 1_555
Ni2 O35 2.006038 1_555
Ni2 O20 2.045435 1_555
Ni2 O5 2.050309 1_555
Ni2 O11 2.051768 1_455
Ni3 O32 1.966057 1_556
Ni3 O0 1.982657 1_655
Ni3 O24 1.996685 1_545
Ni3 O15 2.029306 1_555
Ni3 O8 2.075616 1_546
Ni3 O23 2.093909 1_546
Ni4 O30 1.957560 1_555
Ni4 O21 1.994720 1_555
Ni4 O25 2.006038 1_555
Ni4 O16 2.045435 1_555
Ni4 O6 2.050309 1_555
Ni4 O1 2.051768 1_655
Ni5 O26 1.916215 1_555
Ni5 O31 1.954620 1_555
Ni5 O22 1.972600 1_555
Ni5 O2 2.022855 1_655
Ni5 O17 2.057844 1_555
Ni5 O7 2.129569 1_555
O0 Y2 2.292256 1_555
O0 Y9 2.441524 1_546
O1 Y3 2.302396 1_555
O1 Y0 2.513202 1_455
O1 Y8 2.620943 1_555
O2 Y4 2.281413 1_555
O2 Y1 2.359919 1_465
O3 Y2 2.455293 1_555
O3 Y5 2.610520 1_555
O4 Y0 2.317512 1_555
O4 Y3 2.456463 1_555
O4 Y6 2.656103 1_565
O5 Y1 2.298761 1_555
O5 Y4 2.490762 1_545
O5 Y7 2.572383 1_555
O6 Y8 2.298761 1_555
O6 Y5 2.490762 1_545
O6 Y3 2.572383 1_555
O7 Y6 2.455293 1_555
O7 Y4 2.610520 1_555
O8 Y9 2.317512 1_555
O8 Y7 2.456463 1_555
O8 Y2 2.656103 1_564
O9 Y5 2.281413 1_555
O9 Y8 2.359919 1_665
O10 Y6 2.292256 1_555
O10 Y0 2.441524 1_545
O11 Y7 2.302396 1_555
O11 Y9 2.513202 1_655
O11 Y1 2.620943 1_555
O12 Y2 2.270995 1_555
O12 Y9 2.435472 1_556
O13 Y3 2.312575 1_555
O13 Y0 2.497100 1_455
O13 Y8 2.613470 1_565
O14 Y4 2.316010 1_545
O14 Y1 2.371240 1_455
O15 Y2 2.414624 1_555
O15 Y5 2.555751 1_545
O16 Y0 2.326728 1_555
O16 Y3 2.483363 1_555
O16 Y6 2.686787 1_555
O17 Y1 2.302397 1_565
O17 Y4 2.468268 1_555
O17 Y7 2.605449 1_555
O18 Y8 2.302397 1_565
O18 Y5 2.468268 1_555
O18 Y3 2.605449 1_555
O19 Y6 2.414624 1_555
O19 Y4 2.555751 1_545
O20 Y9 2.326728 1_555
O20 Y7 2.483363 1_555
O20 Y2 2.686787 1_554
O21 Y5 2.316010 1_545
O21 Y8 2.371240 1_655
O22 Y6 2.270995 1_555
O22 Y0 2.435472 1_555
O23 Y7 2.312575 1_555
O23 Y9 2.497100 1_655
O23 Y1 2.613470 1_565
O24 Y5 2.258864 1_555
O24 Y9 2.330664 1_656
O25 Y6 2.274812 1_555
O25 Y8 2.353651 1_655
O26 Y7 2.244399 1_555
O27 Y9 2.283157 1_556
O27 Y5 2.296135 1_555
O28 Y8 2.257299 1_555
O28 Y6 2.311733 1_555
O29 Y7 2.291905 1_555
O30 Y3 2.291905 1_555
O31 Y0 2.283157 1_555
O31 Y4 2.296135 1_555
O32 Y1 2.257299 1_555
O32 Y2 2.311733 1_554
O33 Y3 2.244399 1_555
O34 Y4 2.258864 1_555
O34 Y0 2.330664 1_455
O35 Y2 2.274812 1_554
O35 Y1 2.353651 1_455
