# generated using pymatgen
data_BiWO5
_symmetry_space_group_name_H-M   'P 1'
_cell_length_a   11.46381300
_cell_length_b   5.75984300
_cell_length_c   9.33851181
_cell_angle_alpha   70.81947018
_cell_angle_beta   90.00000000
_cell_angle_gamma   90.00000000
_symmetry_Int_Tables_number   1
_chemical_formula_structural   BiWO5
_chemical_formula_sum   'Bi4 W4 O20'
_cell_volume   582.38997156
_cell_formula_units_Z   4
loop_
 _symmetry_equiv_pos_site_id
 _symmetry_equiv_pos_as_xyz
  1  'x, y, z'
loop_
 _atom_site_type_symbol
 _atom_site_label
 _atom_site_symmetry_multiplicity
 _atom_site_fract_x
 _atom_site_fract_y
 _atom_site_fract_z
 _atom_site_occupancy
  Bi  Bi0  1  0.91239600  0.00337700  0.83226200  1
  Bi  Bi1  1  0.08760400  0.99662300  0.16773800  1
  Bi  Bi2  1  0.58760400  0.00337700  0.33226200  1
  Bi  Bi3  1  0.41239600  0.99662300  0.66773800  1
  W  W0  1  0.35414600  0.16536900  0.05233500  1
  W  W1  1  0.64585400  0.83463100  0.94766500  1
  W  W2  1  0.85414600  0.83463100  0.44766500  1
  W  W3  1  0.14585400  0.16536900  0.55233500  1
  O  O0  1  0.90934800  0.83652900  0.63160900  1
  O  O1  1  0.03479500  0.26441900  0.66382300  1
  O  O2  1  0.79503400  0.13152500  0.33797800  1
  O  O3  1  0.44821300  0.83109700  0.48869300  1
  O  O4  1  0.72285900  0.65349000  0.46985500  1
  O  O5  1  0.77714100  0.65349000  0.96985500  1
  O  O6  1  0.46520500  0.26441900  0.16382300  1
  O  O7  1  0.53479500  0.73558100  0.83617700  1
  O  O8  1  0.55178700  0.16890300  0.51130700  1
  O  O9  1  0.40934800  0.16347100  0.86839100  1
  O  O10  1  0.27714100  0.34651000  0.53014500  1
  O  O11  1  0.09065200  0.16347100  0.36839100  1
  O  O12  1  0.59065200  0.83652900  0.13160900  1
  O  O13  1  0.22285900  0.34651000  0.03014500  1
  O  O14  1  0.94821300  0.16890300  0.01130700  1
  O  O15  1  0.05178700  0.83109700  0.98869300  1
  O  O16  1  0.20496600  0.86847500  0.66202200  1
  O  O17  1  0.96520500  0.73558100  0.33617700  1
  O  O18  1  0.29503400  0.86847500  0.16202200  1
  O  O19  1  0.70496600  0.13152500  0.83797800  1
loop_
_geom_bond_atom_site_label_1
_geom_bond_atom_site_label_2
_geom_bond_distance
_geom_bond_site_symmetry_2
Bi0 O15 2.172473 1_645
Bi0 O14 2.218259 1_556
Bi0 O1 2.269301 1_655
Bi0 O0 2.370478 1_545
Bi0 O19 2.495624 1_555
Bi0 O5 2.532796 1_545
Bi1 O14 2.172473 1_465
Bi1 O15 2.218259 1_554
Bi1 O17 2.269301 1_455
Bi1 O11 2.370478 1_565
Bi1 O18 2.495624 1_555
Bi1 O13 2.532796 1_565
Bi2 O3 2.172473 1_545
Bi2 O8 2.218259 1_555
Bi2 O6 2.269301 1_555
Bi2 O12 2.370478 1_545
Bi2 O2 2.495624 1_555
Bi2 O4 2.532796 1_545
Bi3 O8 2.172473 1_565
Bi3 O3 2.218259 1_555
Bi3 O7 2.269301 1_555
Bi3 O9 2.370478 1_565
Bi3 O16 2.495624 1_555
Bi3 O10 2.532796 1_565
O0 W2 1.834022 1_555
O1 W3 1.849506 1_555
O2 W2 1.811561 1_545
O4 W2 1.804055 1_555
O5 W1 1.804055 1_555
O6 W0 1.849506 1_555
O7 W1 1.849506 1_555
O9 W0 1.834022 1_556
O10 W3 1.804055 1_555
O11 W3 1.834022 1_555
O12 W1 1.834022 1_554
O13 W0 1.804055 1_555
O16 W3 1.811561 1_565
O17 W2 1.849506 1_555
O18 W0 1.811561 1_565
O19 W1 1.811561 1_545
