# generated using pymatgen
data_Tb5Bi3
_symmetry_space_group_name_H-M   'P 1'
_cell_length_a   8.30314301
_cell_length_b   9.49203056
_cell_length_c   12.12015970
_cell_angle_alpha   89.99858187
_cell_angle_beta   89.99783637
_cell_angle_gamma   89.99971532
_symmetry_Int_Tables_number   1
_chemical_formula_structural   Tb5Bi3
_chemical_formula_sum   'Tb20 Bi12'
_cell_volume   955.23447486
_cell_formula_units_Z   4
loop_
 _symmetry_equiv_pos_site_id
 _symmetry_equiv_pos_as_xyz
  1  'x, y, z'
loop_
 _atom_site_type_symbol
 _atom_site_label
 _atom_site_symmetry_multiplicity
 _atom_site_fract_x
 _atom_site_fract_y
 _atom_site_fract_z
 _atom_site_occupancy
  Tb  Tb0  1  0.81046106  0.56161761  0.06536626  1
  Tb  Tb1  1  0.68951827  0.93834616  0.56534532  1
  Tb  Tb2  1  0.18952030  0.06167839  0.93465104  1
  Tb  Tb3  1  0.31048388  0.43832793  0.43463377  1
  Tb  Tb4  1  0.18953973  0.43832392  0.93464150  1
  Tb  Tb5  1  0.31050558  0.06166833  0.43464596  1
  Tb  Tb6  1  0.81048047  0.93838716  0.06535669  1
  Tb  Tb7  1  0.68954074  0.56166055  0.56535747  1
  Tb  Tb8  1  0.17011854  0.75000015  0.22632470  1
  Tb  Tb9  1  0.32989973  0.75000158  0.72636723  1
  Tb  Tb10  1  0.82987253  0.24999855  0.77367521  1
  Tb  Tb11  1  0.67011505  0.24999808  0.27361531  1
  Tb  Tb12  1  0.47820635  0.74999011  0.00458617  1
  Tb  Tb13  1  0.02178593  0.74998855  0.50459632  1
  Tb  Tb14  1  0.52179910  0.25000958  0.99541495  1
  Tb  Tb15  1  0.97818089  0.25000746  0.49541253  1
  Tb  Tb16  1  0.65870098  0.75000289  0.29080912  1
  Tb  Tb17  1  0.84128091  0.75000274  0.79086664  1
  Tb  Tb18  1  0.34129580  0.24999442  0.70920635  1
  Tb  Tb19  1  0.15870105  0.24999448  0.20911762  1
  Bi  Bi0  1  0.40079716  0.74998441  0.47252690  1
  Bi  Bi1  1  0.09922894  0.74998706  0.97254018  1
  Bi  Bi2  1  0.59922031  0.25001549  0.52747900  1
  Bi  Bi3  1  0.90077222  0.25001955  0.02745438  1
  Bi  Bi4  1  0.93684406  0.50770305  0.32524625  1
  Bi  Bi5  1  0.56315221  0.99228921  0.82528817  1
  Bi  Bi6  1  0.06313306  0.00769750  0.67475304  1
  Bi  Bi7  1  0.43686374  0.49225169  0.17471536  1
  Bi  Bi8  1  0.06313147  0.49229246  0.67475831  1
  Bi  Bi9  1  0.43686280  0.00774529  0.17471084  1
  Bi  Bi10  1  0.93684211  0.99229949  0.32525174  1
  Bi  Bi11  1  0.56314505  0.50771816  0.82528569  1
loop_
_geom_bond_atom_site_label_1
_geom_bond_atom_site_label_2
_geom_bond_distance
_geom_bond_site_symmetry_2
Bi0 Tb16 3.071819 1_555
Bi0 Tb3 3.086200 1_555
Bi0 Tb5 3.086355 1_565
Bi0 Tb9 3.132375 1_555
Bi0 Tb13 3.170883 1_555
Bi0 Tb7 3.195199 1_555
Bi0 Tb1 3.195252 1_555
Bi0 Tb8 3.545891 1_555
Bi1 Tb17 3.071806 1_455
Bi1 Tb4 3.086250 1_555
Bi1 Tb2 3.086436 1_565
Bi1 Tb8 3.131742 1_556
Bi1 Tb12 3.170598 1_556
Bi1 Tb0 3.195522 1_456
Bi1 Tb6 3.195541 1_456
Bi1 Tb9 3.545436 1_555
Bi2 Tb18 3.072022 1_555
Bi2 Tb7 3.086084 1_555
Bi2 Tb1 3.086209 1_545
Bi2 Tb11 3.132649 1_555
Bi2 Tb15 3.170461 1_555
Bi2 Tb3 3.195156 1_555
Bi2 Tb5 3.195198 1_555
Bi2 Tb10 3.545711 1_555
Bi3 Tb19 3.071605 1_655
Bi3 Tb0 3.085683 1_555
Bi3 Tb6 3.085924 1_545
Bi3 Tb10 3.131694 1_554
Bi3 Tb14 3.170553 1_554
Bi3 Tb4 3.195118 1_654
Bi3 Tb2 3.195170 1_654
Bi3 Tb11 3.545252 1_555
Bi4 Tb15 3.217833 1_555
Bi4 Tb8 3.237025 1_655
Bi4 Tb13 3.242221 1_655
Bi4 Tb16 3.285942 1_555
Bi4 Tb11 3.358615 1_555
Bi4 Tb0 3.359228 1_555
Bi4 Tb19 3.370183 1_655
Bi4 Tb3 3.437500 1_655
Bi4 Tb7 3.598269 1_555
Bi5 Tb14 3.217781 1_565
Bi5 Tb9 3.236945 1_555
Bi5 Tb12 3.241784 1_556
Bi5 Tb17 3.285738 1_555
Bi5 Tb10 3.358503 1_565
Bi5 Tb1 3.359889 1_555
Bi5 Tb18 3.369928 1_565
Bi5 Tb2 3.437273 1_565
Bi5 Tb6 3.597999 1_556
Bi6 Tb13 3.217945 1_545
Bi6 Tb10 3.237013 1_455
Bi6 Tb15 3.242245 1_455
Bi6 Tb18 3.286093 1_555
Bi6 Tb9 3.358682 1_545
Bi6 Tb2 3.359565 1_555
Bi6 Tb17 3.369953 1_445
Bi6 Tb1 3.437382 1_445
Bi6 Tb5 3.598557 1_555
Bi7 Tb12 3.217845 1_555
Bi7 Tb11 3.236560 1_555
Bi7 Tb14 3.241473 1_554
Bi7 Tb19 3.285714 1_555
Bi7 Tb8 3.358908 1_555
Bi7 Tb3 3.359597 1_555
Bi7 Tb16 3.370282 1_555
Bi7 Tb0 3.436901 1_555
Bi7 Tb4 3.598089 1_554
Bi8 Tb13 3.217811 1_555
Bi8 Tb10 3.236905 1_455
Bi8 Tb15 3.242198 1_455
Bi8 Tb18 3.286071 1_555
Bi8 Tb9 3.358809 1_555
Bi8 Tb4 3.359408 1_555
Bi8 Tb17 3.370063 1_455
Bi8 Tb7 3.437182 1_455
Bi8 Tb3 3.598642 1_555
Bi9 Tb12 3.218007 1_545
Bi9 Tb11 3.236635 1_555
Bi9 Tb14 3.241516 1_554
Bi9 Tb19 3.285660 1_555
Bi9 Tb8 3.358884 1_545
Bi9 Tb5 3.359749 1_555
Bi9 Tb16 3.370185 1_545
Bi9 Tb6 3.437069 1_545
Bi9 Tb2 3.598023 1_554
Bi10 Tb15 3.217962 1_565
Bi10 Tb8 3.237102 1_655
Bi10 Tb13 3.242270 1_655
Bi10 Tb16 3.285948 1_555
Bi10 Tb11 3.358534 1_565
Bi10 Tb6 3.359365 1_555
Bi10 Tb19 3.370089 1_665
Bi10 Tb5 3.437716 1_665
Bi10 Tb1 3.598170 1_555
Bi11 Tb14 3.217633 1_555
Bi11 Tb9 3.236814 1_555
Bi11 Tb12 3.241680 1_556
Bi11 Tb17 3.285765 1_555
Bi11 Tb10 3.358614 1_555
Bi11 Tb7 3.359776 1_555
Bi11 Tb18 3.370074 1_555
Bi11 Tb4 3.437043 1_555
Bi11 Tb0 3.598079 1_556
