# generated using pymatgen
data_Li4MnCo2O7
_symmetry_space_group_name_H-M   'P 1'
_cell_length_a   6.55497100
_cell_length_b   6.59421481
_cell_length_c   6.61785890
_cell_angle_alpha   71.94302611
_cell_angle_beta   71.56732113
_cell_angle_gamma   72.19244843
_symmetry_Int_Tables_number   1
_chemical_formula_structural   Li4MnCo2O7
_chemical_formula_sum   'Li8 Mn2 Co4 O14'
_cell_volume   251.07292401
_cell_formula_units_Z   2
loop_
 _symmetry_equiv_pos_site_id
 _symmetry_equiv_pos_as_xyz
  1  'x, y, z'
loop_
 _atom_site_type_symbol
 _atom_site_label
 _atom_site_symmetry_multiplicity
 _atom_site_fract_x
 _atom_site_fract_y
 _atom_site_fract_z
 _atom_site_occupancy
  Li  Li0  1  0.92397100  0.22131200  0.34704000  1
  Li  Li1  1  0.21550200  0.35880600  0.93325800  1
  Li  Li2  1  0.50502600  0.49786300  0.49270000  1
  Li  Li3  1  0.64198200  0.07284700  0.78624800  1
  Li  Li4  1  0.36050800  0.93003200  0.21601500  1
  Li  Li5  1  0.07031200  0.78231600  0.64642500  1
  Li  Li6  1  0.78053200  0.63613800  0.07782800  1
  Li  Li7  1  0.57078500  0.28550600  0.14743200  1
  Mn  Mn0  1  0.99645000  0.00192800  0.00246000  1
  Mn  Mn1  1  0.28906800  0.14315500  0.56509600  1
  Co  Co0  1  0.85220200  0.42946600  0.72107400  1
  Co  Co1  1  0.15286000  0.56718700  0.28208800  1
  Co  Co2  1  0.43346700  0.70228500  0.86050800  1
  Co  Co3  1  0.71218100  0.86365700  0.42428900  1
  O  O0  1  0.90360500  0.29969900  0.02432900  1
  O  O1  1  0.17353400  0.44479100  0.60618400  1
  O  O2  1  0.44634400  0.61391000  0.17549100  1
  O  O3  1  0.58352000  0.17019700  0.47570800  1
  O  O4  1  0.30867000  0.02566900  0.87796600  1
  O  O5  1  0.02934100  0.89929800  0.29851600  1
  O  O6  1  0.74879800  0.74868900  0.73267900  1
  O  O7  1  0.97585100  0.10527700  0.69591800  1
  O  O8  1  0.24725800  0.24755400  0.27622700  1
  O  O9  1  0.54315000  0.41435400  0.81495700  1
  O  O10  1  0.70173500  0.95970300  0.11319400  1
  O  O11  1  0.38924500  0.84310700  0.53780500  1
  O  O12  1  0.10790500  0.69240000  0.97021500  1
  O  O13  1  0.83619700  0.54285300  0.39835100  1
loop_
_geom_bond_atom_site_label_1
_geom_bond_atom_site_label_2
_geom_bond_distance
_geom_bond_site_symmetry_2
Li0 O8 2.070340 1_655
Li0 O0 2.073590 1_555
Li0 O5 2.115309 1_645
Li0 O13 2.125720 1_555
Li0 O3 2.213456 1_555
Li0 O7 2.296517 1_555
Li1 O0 2.063393 1_456
Li1 O9 2.144739 1_555
Li1 O1 2.145386 1_555
Li1 O12 2.161439 1_555
Li1 O4 2.206607 1_555
Li1 O8 2.215014 1_556
Li2 O3 2.092859 1_555
Li2 O9 2.106826 1_555
Li2 O2 2.115448 1_555
Li2 O13 2.147614 1_555
Li2 O1 2.162936 1_555
Li2 O11 2.251505 1_555
Li3 O3 2.076570 1_555
Li3 O7 2.138296 1_555
Li3 O6 2.140677 1_545
Li3 O4 2.167677 1_555
Li3 O10 2.178996 1_546
Li3 O9 2.195958 1_555
Li4 O2 2.065844 1_555
Li4 O11 2.080862 1_555
Li4 O8 2.115032 1_565
Li4 O5 2.121907 1_555
Li4 O10 2.174152 1_555
Li4 O4 2.234522 1_564
Li5 O6 2.064760 1_455
Li5 O11 2.105144 1_555
Li5 O12 2.112057 1_555
Li5 O7 2.126925 1_465
Li5 O1 2.194293 1_555
Li5 O5 2.265296 1_555
Li6 O10 2.105497 1_555
Li6 O2 2.116656 1_555
Li6 O13 2.134057 1_555
Li6 O12 2.146281 1_654
Li6 O0 2.215795 1_555
Li6 O6 2.228574 1_554
Li7 O8 2.082269 1_555
Li7 O3 2.087254 1_555
Li7 O0 2.094188 1_555
Li7 O10 2.110606 1_545
Li7 O2 2.112485 1_555
Li7 O9 2.143573 1_554
Mn0 O0 1.906954 1_555
Mn0 O10 1.911503 1_545
Mn0 O5 1.923297 1_645
Mn0 O7 1.964174 1_554
Mn0 O4 1.985335 1_654
Mn0 O12 2.001175 1_644
Mn1 O3 1.878883 1_555
Mn1 O8 1.898336 1_555
Mn1 O11 1.931439 1_545
Mn1 O1 1.971679 1_555
Mn1 O4 2.004181 1_555
Mn1 O7 2.020595 1_455
Co0 O9 1.946553 1_555
Co0 O0 2.014963 1_556
Co0 O6 2.022638 1_555
Co0 O1 2.023539 1_655
Co0 O13 2.057958 1_555
Co0 O7 2.080920 1_555
Co1 O2 1.913918 1_555
Co1 O13 2.010862 1_455
Co1 O8 2.016110 1_555
Co1 O12 2.051279 1_554
Co1 O1 2.076969 1_555
Co1 O5 2.114453 1_555
Co2 O9 1.896203 1_555
Co2 O2 2.005004 1_556
Co2 O12 2.039971 1_555
Co2 O6 2.049957 1_555
Co2 O4 2.062991 1_565
Co2 O11 2.122400 1_555
Co3 O10 1.974510 1_555
Co3 O6 2.009195 1_555
Co3 O3 2.028620 1_565
Co3 O5 2.038006 1_655
Co3 O11 2.042160 1_555
Co3 O13 2.061666 1_555
