# generated using pymatgen
data_K2MoO2F5
_symmetry_space_group_name_H-M   'P 1'
_cell_length_a   6.33251822
_cell_length_b   6.33251822
_cell_length_c   9.61271763
_cell_angle_alpha   84.79778307
_cell_angle_beta   84.79778307
_cell_angle_gamma   90.07934562
_symmetry_Int_Tables_number   1
_chemical_formula_structural   K2MoO2F5
_chemical_formula_sum   'K4 Mo2 O4 F10'
_cell_volume   382.29050093
_cell_formula_units_Z   2
loop_
 _symmetry_equiv_pos_site_id
 _symmetry_equiv_pos_as_xyz
  1  'x, y, z'
loop_
 _atom_site_type_symbol
 _atom_site_label
 _atom_site_symmetry_multiplicity
 _atom_site_fract_x
 _atom_site_fract_y
 _atom_site_fract_z
 _atom_site_occupancy
  K  K0  1  0.70196900  0.70196900  0.79874600  1
  K  K1  1  0.29803100  0.29803100  0.20125400  1
  K  K2  1  0.75630100  0.24369900  0.50000000  1
  K  K3  1  0.24369900  0.75630100  0.50000000  1
  Mo  Mo0  1  0.21878100  0.21878100  0.73614300  1
  Mo  Mo1  1  0.78121900  0.78121900  0.26385700  1
  O  O0  1  0.21423900  0.21423900  0.91586100  1
  O  O1  1  0.78576100  0.78576100  0.08413900  1
  O  O2  1  0.69732000  0.30268000  0.00000000  1
  O  O3  1  0.30268000  0.69732000  0.00000000  1
  F  F0  1  0.99872400  0.99872400  0.72477600  1
  F  F1  1  0.00127600  0.00127600  0.27522400  1
  F  F2  1  0.22679100  0.22679100  0.51874400  1
  F  F3  1  0.77320900  0.77320900  0.48125600  1
  F  F4  1  0.44270500  0.44270500  0.68558800  1
  F  F5  1  0.55729500  0.55729500  0.31441200  1
  F  F6  1  0.00369200  0.44312600  0.70513700  1
  F  F7  1  0.44312600  0.00369200  0.70513700  1
  F  F8  1  0.99630800  0.55687400  0.29486300  1
  F  F9  1  0.55687400  0.99630800  0.29486300  1
loop_
_geom_bond_atom_site_label_1
_geom_bond_atom_site_label_2
_geom_bond_distance
_geom_bond_site_symmetry_2
K0 O1 2.935394 1_556
K0 O3 3.039618 1_556
K0 O2 3.039618 1_556
K1 O0 2.935394 1_554
K1 O2 3.039618 1_555
K1 O3 3.039618 1_555
Mo0 O0 1.722834 1_555
Mo1 O1 1.722834 1_555
F0 Mo0 1.986342 1_665
F0 K0 2.659704 1_555
F0 K3 3.071182 1_655
F0 K2 3.071182 1_565
F1 Mo1 1.986342 1_445
F1 K1 2.659704 1_555
F1 K2 3.071182 1_455
F1 K3 3.071182 1_545
F2 Mo0 2.081811 1_555
F2 K3 3.002567 1_545
F2 K2 3.002567 1_455
F2 K1 3.036687 1_555
F3 Mo1 2.081811 1_555
F3 K3 3.002567 1_655
F3 K2 3.002567 1_565
F3 K0 3.036687 1_555
F4 Mo0 2.000533 1_555
F4 K0 2.685969 1_555
F4 K2 2.913174 1_555
F4 K3 2.913174 1_555
F5 Mo1 2.000533 1_555
F5 K1 2.685969 1_555
F5 K2 2.913174 1_555
F5 K3 2.913174 1_555
F6 Mo0 1.991110 1_555
F6 K0 2.666732 1_455
F6 K3 2.978329 1_555
F6 K2 2.990639 1_455
F7 Mo0 1.991110 1_555
F7 K0 2.666732 1_545
F7 K2 2.978329 1_555
F7 K3 2.990639 1_545
F8 Mo1 1.991110 1_555
F8 K1 2.666732 1_655
F8 K2 2.978329 1_555
F8 K3 2.990639 1_655
F9 Mo1 1.991110 1_555
F9 K1 2.666732 1_565
F9 K3 2.978329 1_555
F9 K2 2.990639 1_565
