# generated using pymatgen
data_Na3NbN2
_symmetry_space_group_name_H-M   'P 1'
_cell_length_a   6.21636906
_cell_length_b   10.45930500
_cell_length_c   6.90885649
_cell_angle_alpha   90.00000000
_cell_angle_beta   102.95134493
_cell_angle_gamma   90.00000000
_symmetry_Int_Tables_number   1
_chemical_formula_structural   Na3NbN2
_chemical_formula_sum   'Na12 Nb4 N8'
_cell_volume   437.77877491
_cell_formula_units_Z   4
loop_
 _symmetry_equiv_pos_site_id
 _symmetry_equiv_pos_as_xyz
  1  'x, y, z'
loop_
 _atom_site_type_symbol
 _atom_site_label
 _atom_site_symmetry_multiplicity
 _atom_site_fract_x
 _atom_site_fract_y
 _atom_site_fract_z
 _atom_site_occupancy
  Na  Na0  1  0.20998500  0.98742600  0.80696600  1
  Na  Na1  1  0.79001500  0.48742600  0.69303400  1
  Na  Na2  1  0.79001500  0.01257400  0.19303400  1
  Na  Na3  1  0.20998500  0.51257400  0.30696600  1
  Na  Na4  1  0.28952300  0.52271100  0.82715400  1
  Na  Na5  1  0.71047700  0.02271100  0.67284600  1
  Na  Na6  1  0.71047700  0.47728900  0.17284600  1
  Na  Na7  1  0.28952300  0.97728900  0.32715400  1
  Na  Na8  1  0.55294900  0.24656900  0.88272400  1
  Na  Na9  1  0.44705100  0.74656900  0.61727600  1
  Na  Na10  1  0.44705100  0.75343100  0.11727600  1
  Na  Na11  1  0.55294900  0.25343100  0.38272400  1
  Nb  Nb0  1  0.08845800  0.24069800  0.53019900  1
  Nb  Nb1  1  0.91154200  0.74069800  0.96980100  1
  Nb  Nb2  1  0.91154200  0.75930200  0.46980100  1
  Nb  Nb3  1  0.08845800  0.25930200  0.03019900  1
  N  N0  1  0.08312500  0.75254100  0.75610100  1
  N  N1  1  0.91687500  0.25254100  0.74389900  1
  N  N2  1  0.91687500  0.24745900  0.24389900  1
  N  N3  1  0.08312500  0.74745900  0.25610100  1
  N  N4  1  0.65885400  0.63773100  0.91208800  1
  N  N5  1  0.34114600  0.13773100  0.58791200  1
  N  N6  1  0.34114600  0.36226900  0.08791200  1
  N  N7  1  0.65885400  0.86226900  0.41208800  1
loop_
_geom_bond_atom_site_label_1
_geom_bond_atom_site_label_2
_geom_bond_distance
_geom_bond_site_symmetry_2
N0 Nb1 2.009663 1_455
N0 Nb2 2.027187 1_455
N0 Na0 2.580061 1_555
N0 Na9 2.648476 1_555
N0 Na4 2.717244 1_555
N0 Na10 2.968876 1_556
N1 Nb0 2.009663 1_655
N1 Nb3 2.027187 1_656
N1 Na1 2.580061 1_555
N1 Na8 2.648476 1_555
N1 Na5 2.717244 1_555
N1 Na11 2.968876 1_555
N2 Nb3 2.009663 1_655
N2 Nb0 2.027187 1_655
N2 Na2 2.580061 1_555
N2 Na11 2.648476 1_555
N2 Na6 2.717244 1_555
N2 Na8 2.968876 1_554
N3 Nb2 2.009663 1_455
N3 Nb1 2.027187 1_454
N3 Na3 2.580061 1_555
N3 Na10 2.648476 1_555
N3 Na7 2.717244 1_555
N3 Na9 2.968876 1_555
N4 Nb1 1.872299 1_555
N4 Na6 2.430111 1_556
N4 Na9 2.444578 1_555
N4 Na1 2.445358 1_555
N4 Na10 2.458512 1_556
N4 Na4 2.541430 1_555
N5 Nb0 1.872299 1_555
N5 Na7 2.430111 1_545
N5 Na8 2.444578 1_555
N5 Na0 2.445358 1_545
N5 Na11 2.458512 1_555
N5 Na5 2.541430 1_555
N6 Nb3 1.872299 1_555
N6 Na4 2.430111 1_554
N6 Na11 2.444578 1_555
N6 Na3 2.445358 1_555
N6 Na8 2.458512 1_554
N6 Na6 2.541430 1_555
N7 Nb2 1.872299 1_555
N7 Na5 2.430111 1_565
N7 Na10 2.444578 1_555
N7 Na2 2.445358 1_565
N7 Na9 2.458512 1_555
N7 Na7 2.541430 1_555
