# generated using pymatgen
data_CsNiN
_symmetry_space_group_name_H-M   'P 1'
_cell_length_a   11.39912000
_cell_length_b   3.51559500
_cell_length_c   6.60221900
_cell_angle_alpha   90.00000000
_cell_angle_beta   90.00000000
_cell_angle_gamma   90.00000000
_symmetry_Int_Tables_number   1
_chemical_formula_structural   CsNiN
_chemical_formula_sum   'Cs4 Ni4 N4'
_cell_volume   264.58187496
_cell_formula_units_Z   4
loop_
 _symmetry_equiv_pos_site_id
 _symmetry_equiv_pos_as_xyz
  1  'x, y, z'
loop_
 _atom_site_type_symbol
 _atom_site_label
 _atom_site_symmetry_multiplicity
 _atom_site_fract_x
 _atom_site_fract_y
 _atom_site_fract_z
 _atom_site_occupancy
  Cs  Cs0  1  0.66008800  0.25000000  0.06619600  1
  Cs  Cs1  1  0.16008800  0.25000000  0.43380400  1
  Cs  Cs2  1  0.33991200  0.75000000  0.93380400  1
  Cs  Cs3  1  0.83991200  0.75000000  0.56619600  1
  Ni  Ni0  1  0.54922000  0.25000000  0.57987500  1
  Ni  Ni1  1  0.04922000  0.25000000  0.92012500  1
  Ni  Ni2  1  0.45078000  0.75000000  0.42012500  1
  Ni  Ni3  1  0.95078000  0.75000000  0.07987500  1
  N  N0  1  0.93342900  0.25000000  0.14892600  1
  N  N1  1  0.43342900  0.25000000  0.35107400  1
  N  N2  1  0.06657100  0.75000000  0.85107400  1
  N  N3  1  0.56657100  0.75000000  0.64892600  1
loop_
_geom_bond_atom_site_label_1
_geom_bond_atom_site_label_2
_geom_bond_distance
_geom_bond_site_symmetry_2
Cs0 N0 3.163359 1_555
Cs0 N1 3.195792 1_555
Cs0 N3 3.437405 1_544
Cs0 N3 3.437405 1_554
Cs1 N1 3.163359 1_555
Cs1 N0 3.195792 1_455
Cs1 N2 3.437405 1_555
Cs1 N2 3.437405 1_545
Cs2 N2 3.163359 1_555
Cs2 N3 3.195792 1_555
Cs2 N1 3.437405 1_556
Cs2 N1 3.437405 1_566
Cs3 N3 3.163359 1_555
Cs3 N2 3.195792 1_655
Cs3 N0 3.437405 1_565
Cs3 N0 3.437405 1_555
N0 Ni3 1.826693 1_545
N0 Ni3 1.826693 1_555
N0 Ni1 2.006009 1_654
N1 Ni2 1.826693 1_545
N1 Ni2 1.826693 1_555
N1 Ni0 2.006009 1_555
N2 Ni1 1.826693 1_555
N2 Ni1 1.826693 1_565
N2 Ni3 2.006009 1_456
N3 Ni0 1.826693 1_565
N3 Ni0 1.826693 1_555
N3 Ni2 2.006009 1_555
