# generated using pymatgen
data_Rh3(PbS)2
_symmetry_space_group_name_H-M   'P 1'
_cell_length_a   5.71511703
_cell_length_b   5.71511568
_cell_length_c   5.71511587
_cell_angle_alpha   60.53661771
_cell_angle_beta   60.53662848
_cell_angle_gamma   60.53662807
_symmetry_Int_Tables_number   1
_chemical_formula_structural   Rh3(PbS)2
_chemical_formula_sum   'Rh3 Pb2 S2'
_cell_volume   133.59624248
_cell_formula_units_Z   1
loop_
 _symmetry_equiv_pos_site_id
 _symmetry_equiv_pos_as_xyz
  1  'x, y, z'
loop_
 _atom_site_type_symbol
 _atom_site_label
 _atom_site_symmetry_multiplicity
 _atom_site_fract_x
 _atom_site_fract_y
 _atom_site_fract_z
 _atom_site_occupancy
  Rh  Rh0  1  0.50000000  -0.00000000  0.00000000  1
  Rh  Rh1  1  -0.00000000  -0.00000000  0.50000000  1
  Rh  Rh2  1  -0.00000000  0.50000000  0.00000000  1
  Pb  Pb0  1  0.50000000  0.50000000  0.50000000  1
  Pb  Pb1  1  -0.00000000  -0.00000000  0.00000000  1
  S  S0  1  0.71770433  0.71770433  0.71770433  1
  S  S1  1  0.28229567  0.28229567  0.28229567  1
loop_
_geom_bond_atom_site_label_1
_geom_bond_atom_site_label_2
_geom_bond_distance
_geom_bond_site_symmetry_2
Rh0 S0 2.316257 1_544
Rh0 S1 2.316257 1_555
Rh1 S1 2.316257 1_555
Rh1 S0 2.316257 1_445
Rh2 S1 2.316257 1_555
Rh2 S0 2.316257 1_454
Pb0 Rh0 2.880704 1_565
Pb0 Rh0 2.880704 1_556
Pb0 Rh1 2.880705 1_565
Pb0 Rh1 2.880705 1_655
Pb0 Rh2 2.880705 1_556
Pb0 Rh2 2.880705 1_655
Pb0 S0 3.035250 1_555
Pb0 S1 3.035250 1_555
Pb1 Rh2 2.857558 1_545
Pb1 Rh2 2.857558 1_555
Pb1 Rh1 2.857558 1_554
Pb1 Rh1 2.857558 1_555
Pb1 Rh0 2.857559 1_555
Pb1 Rh0 2.857559 1_455
