# generated using pymatgen
data_Eu2MgPtO6
_symmetry_space_group_name_H-M   'P 1'
_cell_length_a   5.70614100
_cell_length_b   5.54268600
_cell_length_c   9.64720622
_cell_angle_alpha   54.95401404
_cell_angle_beta   90.00000000
_cell_angle_gamma   90.00000000
_symmetry_Int_Tables_number   1
_chemical_formula_structural   Eu2MgPtO6
_chemical_formula_sum   'Eu4 Mg2 Pt2 O12'
_cell_volume   249.79548152
_cell_formula_units_Z   2
loop_
 _symmetry_equiv_pos_site_id
 _symmetry_equiv_pos_as_xyz
  1  'x, y, z'
loop_
 _atom_site_type_symbol
 _atom_site_label
 _atom_site_symmetry_multiplicity
 _atom_site_fract_x
 _atom_site_fract_y
 _atom_site_fract_z
 _atom_site_occupancy
  Eu  Eu0  1  0.44385300  0.23975700  0.74750800  1
  Eu  Eu1  1  0.55614700  0.76024300  0.25249200  1
  Eu  Eu2  1  0.94385300  0.76024300  0.75249200  1
  Eu  Eu3  1  0.05614700  0.23975700  0.24750800  1
  Mg  Mg0  1  0.00000000  0.50000000  0.50000000  1
  Mg  Mg1  1  0.50000000  0.50000000  0.00000000  1
  Pt  Pt0  1  0.00000000  0.00000000  0.00000000  1
  Pt  Pt1  1  0.50000000  0.00000000  0.50000000  1
  O  O0  1  0.03260700  0.34356300  0.75278800  1
  O  O1  1  0.96739300  0.65643700  0.24721200  1
  O  O2  1  0.53260700  0.65643700  0.74721200  1
  O  O3  1  0.46739300  0.34356300  0.25278800  1
  O  O4  1  0.70664600  0.85861700  0.94802900  1
  O  O5  1  0.29335400  0.14138300  0.05197100  1
  O  O6  1  0.20664600  0.14138300  0.55197100  1
  O  O7  1  0.79335400  0.85861700  0.44802900  1
  O  O8  1  0.19661600  0.74925900  0.95296200  1
  O  O9  1  0.80338400  0.25074100  0.04703800  1
  O  O10  1  0.69661600  0.25074100  0.54703800  1
  O  O11  1  0.30338400  0.74925900  0.45296200  1
loop_
_geom_bond_atom_site_label_1
_geom_bond_atom_site_label_2
_geom_bond_distance
_geom_bond_site_symmetry_2
Eu0 O2 2.362801 1_555
Eu0 O10 2.385158 1_555
Eu0 O4 2.400045 1_545
Eu0 O0 2.423625 1_555
Eu0 O6 2.620895 1_555
Eu0 O8 2.668599 1_545
Eu0 O11 2.734216 1_555
Eu0 O5 2.796913 1_556
Eu1 O3 2.362801 1_555
Eu1 O11 2.385158 1_555
Eu1 O5 2.400045 1_565
Eu1 O1 2.423625 1_555
Eu1 O7 2.620895 1_555
Eu1 O9 2.668599 1_565
Eu1 O10 2.734216 1_555
Eu1 O4 2.796913 1_554
Eu2 O0 2.362801 1_655
Eu2 O8 2.385158 1_655
Eu2 O6 2.400045 1_665
Eu2 O2 2.423625 1_555
Eu2 O4 2.620895 1_555
Eu2 O10 2.668599 1_565
Eu2 O9 2.734216 1_556
Eu2 O7 2.796913 1_555
Eu3 O1 2.362801 1_455
Eu3 O9 2.385158 1_455
Eu3 O7 2.400045 1_445
Eu3 O3 2.423625 1_555
Eu3 O5 2.620895 1_555
Eu3 O11 2.668599 1_545
Eu3 O8 2.734216 1_554
Eu3 O6 2.796913 1_555
Mg0 O0 2.074899 1_555
Mg0 O1 2.074899 1_455
Mg0 O10 2.095594 1_455
Mg0 O11 2.095594 1_555
Mg0 O7 2.109073 1_455
Mg0 O6 2.109073 1_555
Mg1 O3 2.074899 1_555
Mg1 O2 2.074899 1_554
Mg1 O9 2.095594 1_555
Mg1 O8 2.095594 1_554
Mg1 O4 2.109073 1_554
Mg1 O5 2.109073 1_555
O0 Pt0 2.032943 1_556
O1 Pt0 2.032943 1_665
O2 Pt1 2.032943 1_565
O3 Pt1 2.032943 1_555
O4 Pt0 2.029460 1_666
O5 Pt0 2.029460 1_555
O6 Pt1 2.029460 1_555
O7 Pt1 2.029460 1_565
O8 Pt0 2.029877 1_566
O9 Pt0 2.029877 1_655
O10 Pt1 2.029877 1_555
O11 Pt1 2.029877 1_565
