# generated using pymatgen
data_YZnCu3Se4
_symmetry_space_group_name_H-M   'P 1'
_cell_length_a   5.88614813
_cell_length_b   5.88812312
_cell_length_c   5.88726983
_cell_angle_alpha   90.04282721
_cell_angle_beta   90.04312646
_cell_angle_gamma   90.05630343
_symmetry_Int_Tables_number   1
_chemical_formula_structural   YZnCu3Se4
_chemical_formula_sum   'Y1 Zn1 Cu3 Se4'
_cell_volume   204.04293251
_cell_formula_units_Z   1
loop_
 _symmetry_equiv_pos_site_id
 _symmetry_equiv_pos_as_xyz
  1  'x, y, z'
loop_
 _atom_site_type_symbol
 _atom_site_label
 _atom_site_symmetry_multiplicity
 _atom_site_fract_x
 _atom_site_fract_y
 _atom_site_fract_z
 _atom_site_occupancy
  Y  Y0  1  0.00023800  0.00023500  0.00030100  1
  Zn  Zn0  1  0.50009700  0.50010100  0.50012800  1
  Cu  Cu0  1  0.00002900  0.49991500  0.00004300  1
  Cu  Cu1  1  0.00003100  0.00002900  0.49989300  1
  Cu  Cu2  1  0.49992100  0.00003000  0.00004800  1
  Se  Se0  1  0.25902400  0.25905100  0.25899800  1
  Se  Se1  1  0.74066200  0.74065300  0.25929300  1
  Se  Se2  1  0.25935900  0.74063200  0.74063800  1
  Se  Se3  1  0.74063900  0.25935300  0.74065700  1
loop_
_geom_bond_atom_site_label_1
_geom_bond_atom_site_label_2
_geom_bond_distance
_geom_bond_site_symmetry_2
Cu0 Se3 2.580400 1_454
Cu0 Se0 2.581403 1_555
Cu0 Se2 2.583370 1_554
Cu0 Se1 2.583421 1_455
Cu0 Y0 2.942180 1_555
Cu0 Y0 2.945944 1_565
Cu1 Se1 2.580418 1_445
Cu1 Se0 2.581347 1_555
Cu1 Se2 2.583844 1_545
Cu1 Se3 2.583882 1_455
Cu1 Y0 2.941235 1_555
Cu1 Y0 2.946036 1_556
Cu2 Se2 2.580554 1_544
Cu2 Se0 2.581633 1_555
Cu2 Se3 2.583341 1_554
Cu2 Se1 2.583481 1_545
Cu2 Y0 2.941211 1_555
Cu2 Y0 2.944938 1_655
Se0 Zn0 2.456276 1_555
Se0 Y0 2.636429 1_555
Se1 Zn0 2.454314 1_555
Se1 Y0 2.645360 1_665
Se2 Zn0 2.454110 1_555
Se2 Y0 2.646581 1_566
Se3 Zn0 2.454238 1_555
Se3 Y0 2.646483 1_656
