# generated using pymatgen
data_In2O3
_symmetry_space_group_name_H-M   'P 1'
_cell_length_a   3.18746700
_cell_length_b   8.54513600
_cell_length_c   8.88795900
_cell_angle_alpha   90.00000000
_cell_angle_beta   90.00000000
_cell_angle_gamma   90.00000000
_symmetry_Int_Tables_number   1
_chemical_formula_structural   In2O3
_chemical_formula_sum   'In8 O12'
_cell_volume   242.08435239
_cell_formula_units_Z   4
loop_
 _symmetry_equiv_pos_site_id
 _symmetry_equiv_pos_as_xyz
  1  'x, y, z'
loop_
 _atom_site_type_symbol
 _atom_site_label
 _atom_site_symmetry_multiplicity
 _atom_site_fract_x
 _atom_site_fract_y
 _atom_site_fract_z
 _atom_site_occupancy
  In  In0  1  0.25000000  0.81489100  0.48758000  1
  In  In1  1  0.25000000  0.31489100  0.01242000  1
  In  In2  1  0.75000000  0.18510900  0.51242000  1
  In  In3  1  0.75000000  0.68510900  0.98758000  1
  In  In4  1  0.25000000  0.99191300  0.81302600  1
  In  In5  1  0.25000000  0.49191300  0.68697400  1
  In  In6  1  0.75000000  0.00808700  0.18697400  1
  In  In7  1  0.75000000  0.50808700  0.31302600  1
  O  O0  1  0.25000000  0.72407800  0.82028100  1
  O  O1  1  0.25000000  0.22407800  0.67971900  1
  O  O2  1  0.75000000  0.27592200  0.17971900  1
  O  O3  1  0.75000000  0.77592200  0.32028100  1
  O  O4  1  0.25000000  0.05361300  0.37197100  1
  O  O5  1  0.25000000  0.55361300  0.12802900  1
  O  O6  1  0.75000000  0.94638700  0.62802900  1
  O  O7  1  0.75000000  0.44638700  0.87197100  1
  O  O8  1  0.25000000  0.38718700  0.43873900  1
  O  O9  1  0.25000000  0.88718700  0.06126100  1
  O  O10  1  0.75000000  0.61281300  0.56126100  1
  O  O11  1  0.75000000  0.11281300  0.93873900  1
loop_
_geom_bond_atom_site_label_1
_geom_bond_atom_site_label_2
_geom_bond_distance
_geom_bond_site_symmetry_2
In0 O3 2.204968 1_455
In0 O3 2.204968 1_555
In0 O4 2.284087 1_565
In0 O6 2.315350 1_455
In0 O6 2.315350 1_555
In0 O10 2.439391 1_555
In0 O10 2.439391 1_455
In1 O2 2.204968 1_555
In1 O2 2.204968 1_455
In1 O5 2.284087 1_555
In1 O7 2.315350 1_554
In1 O7 2.315350 1_454
In1 O11 2.439391 1_554
In1 O11 2.439391 1_454
In2 O1 2.204968 1_555
In2 O1 2.204968 1_655
In2 O6 2.284087 1_545
In2 O4 2.315350 1_655
In2 O4 2.315350 1_555
In2 O8 2.439391 1_655
In2 O8 2.439391 1_555
In3 O0 2.204968 1_555
In3 O0 2.204968 1_655
In3 O7 2.284087 1_555
In3 O5 2.315350 1_556
In3 O5 2.315350 1_656
In3 O9 2.439391 1_556
In3 O9 2.439391 1_656
In4 O11 2.203571 1_565
In4 O11 2.203571 1_465
In4 O0 2.289595 1_555
In4 O1 2.310758 1_565
In4 O6 2.322686 1_455
In4 O6 2.322686 1_555
In4 O9 2.380885 1_556
In5 O10 2.203571 1_555
In5 O10 2.203571 1_455
In5 O1 2.289595 1_555
In5 O0 2.310758 1_555
In5 O7 2.322686 1_555
In5 O7 2.322686 1_455
In5 O8 2.380885 1_555
In6 O9 2.203571 1_545
In6 O9 2.203571 1_645
In6 O2 2.289595 1_555
In6 O3 2.310758 1_545
In6 O4 2.322686 1_555
In6 O4 2.322686 1_655
In6 O11 2.380885 1_554
In7 O8 2.203571 1_655
In7 O8 2.203571 1_555
In7 O3 2.289595 1_555
In7 O2 2.310758 1_555
In7 O5 2.322686 1_655
In7 O5 2.322686 1_555
In7 O10 2.380885 1_555
