# generated using pymatgen
data_Pd(Br3N)2
_symmetry_space_group_name_H-M   'P 1'
_cell_length_a   7.30740128
_cell_length_b   7.30740128
_cell_length_c   7.30740128
_cell_angle_alpha   60.00000000
_cell_angle_beta   60.00000000
_cell_angle_gamma   60.00000000
_symmetry_Int_Tables_number   1
_chemical_formula_structural   Pd(Br3N)2
_chemical_formula_sum   'Pd1 Br6 N2'
_cell_volume   275.91408649
_cell_formula_units_Z   1
loop_
 _symmetry_equiv_pos_site_id
 _symmetry_equiv_pos_as_xyz
  1  'x, y, z'
loop_
 _atom_site_type_symbol
 _atom_site_label
 _atom_site_symmetry_multiplicity
 _atom_site_fract_x
 _atom_site_fract_y
 _atom_site_fract_z
 _atom_site_occupancy
  Pd  Pd0  1  0.00000000  0.00000000  0.00000000  1
  Br  Br0  1  0.76099900  0.23900100  0.23900100  1
  Br  Br1  1  0.23900100  0.76099900  0.76099900  1
  Br  Br2  1  0.23900100  0.76099900  0.23900100  1
  Br  Br3  1  0.76099900  0.23900100  0.76099900  1
  Br  Br4  1  0.23900100  0.23900100  0.76099900  1
  Br  Br5  1  0.76099900  0.76099900  0.23900100  1
  N  N0  1  0.25000000  0.25000000  0.25000000  1
  N  N1  1  0.75000000  0.75000000  0.75000000  1
loop_
_geom_bond_atom_site_label_1
_geom_bond_atom_site_label_2
_geom_bond_distance
_geom_bond_site_symmetry_2
Br0 Pd0 2.469890 1_655
Br1 Pd0 2.469890 1_566
Br2 Pd0 2.469890 1_565
Br3 Pd0 2.469890 1_656
Br4 Pd0 2.469890 1_556
Br5 Pd0 2.469890 1_665
