# generated using pymatgen
data_Tb2In3Cu
_symmetry_space_group_name_H-M   'P 1'
_cell_length_a   3.61132100
_cell_length_b   4.78494486
_cell_length_c   8.32880102
_cell_angle_alpha   89.99450611
_cell_angle_beta   90.00000000
_cell_angle_gamma   90.00000000
_symmetry_Int_Tables_number   1
_chemical_formula_structural   Tb2In3Cu
_chemical_formula_sum   'Tb2 In3 Cu1'
_cell_volume   143.92144654
_cell_formula_units_Z   1
loop_
 _symmetry_equiv_pos_site_id
 _symmetry_equiv_pos_as_xyz
  1  'x, y, z'
loop_
 _atom_site_type_symbol
 _atom_site_label
 _atom_site_symmetry_multiplicity
 _atom_site_fract_x
 _atom_site_fract_y
 _atom_site_fract_z
 _atom_site_occupancy
  Tb  Tb0  1  0.00000000  0.99996700  0.00779200  1
  Tb  Tb1  1  0.00000000  0.49999000  0.49573800  1
  In  In0  1  0.50000000  0.49996500  0.83704300  1
  In  In1  1  0.50000000  0.49995600  0.18285500  1
  In  In2  1  0.50000000  0.99998900  0.64684000  1
  Cu  Cu0  1  0.50000000  0.99993300  0.32973300  1
loop_
_geom_bond_atom_site_label_1
_geom_bond_atom_site_label_2
_geom_bond_distance
_geom_bond_site_symmetry_2
In0 In2 2.869376 1_555
In0 In2 2.869438 1_545
In0 In1 2.880199 1_556
In0 Tb0 3.317545 1_646
In0 Tb0 3.317545 1_546
In0 Tb0 3.317755 1_556
In0 Tb0 3.317755 1_656
In0 Tb1 3.367660 1_555
In0 Tb1 3.367660 1_655
In1 Tb1 3.170384 1_555
In1 Tb1 3.170384 1_655
In1 Tb0 3.333147 1_555
In1 Tb0 3.333147 1_655
In1 Tb0 3.333272 1_545
In1 Tb0 3.333272 1_645
In2 Tb1 3.250784 1_565
In2 Tb1 3.250784 1_665
In2 Tb1 3.250955 1_655
In2 Tb1 3.250955 1_555
In2 Tb0 3.506884 1_556
In2 Tb0 3.506884 1_656
Cu0 In2 2.641121 1_555
Cu0 In1 2.687079 1_565
Cu0 In1 2.687092 1_555
Cu0 Tb0 3.232680 1_555
Cu0 Tb0 3.232680 1_655
Cu0 Tb1 3.300612 1_555
Cu0 Tb1 3.300612 1_655
Cu0 Tb1 3.301200 1_565
Cu0 Tb1 3.301200 1_665
