# generated using pymatgen
data_Yb2Ga
_symmetry_space_group_name_H-M   'P 1'
_cell_length_a   5.07411200
_cell_length_b   6.95053900
_cell_length_c   9.45971100
_cell_angle_alpha   90.00000000
_cell_angle_beta   90.00000000
_cell_angle_gamma   90.00000000
_symmetry_Int_Tables_number   1
_chemical_formula_structural   Yb2Ga
_chemical_formula_sum   'Yb8 Ga4'
_cell_volume   333.62332186
_cell_formula_units_Z   4
loop_
 _symmetry_equiv_pos_site_id
 _symmetry_equiv_pos_as_xyz
  1  'x, y, z'
loop_
 _atom_site_type_symbol
 _atom_site_label
 _atom_site_symmetry_multiplicity
 _atom_site_fract_x
 _atom_site_fract_y
 _atom_site_fract_z
 _atom_site_occupancy
  Yb  Yb0  1  0.25000000  0.83008300  0.92996100  1
  Yb  Yb1  1  0.25000000  0.33008300  0.57003900  1
  Yb  Yb2  1  0.75000000  0.16991700  0.07003900  1
  Yb  Yb3  1  0.75000000  0.66991700  0.42996100  1
  Yb  Yb4  1  0.25000000  0.97584000  0.30498000  1
  Yb  Yb5  1  0.25000000  0.47584000  0.19502000  1
  Yb  Yb6  1  0.75000000  0.02416000  0.69502000  1
  Yb  Yb7  1  0.75000000  0.52416000  0.80498000  1
  Ga  Ga0  1  0.25000000  0.26893400  0.89349500  1
  Ga  Ga1  1  0.25000000  0.76893400  0.60650500  1
  Ga  Ga2  1  0.75000000  0.73106600  0.10650500  1
  Ga  Ga3  1  0.75000000  0.23106600  0.39349500  1
loop_
_geom_bond_atom_site_label_1
_geom_bond_atom_site_label_2
_geom_bond_distance
_geom_bond_site_symmetry_2
Ga0 Yb0 3.069695 1_545
Ga0 Yb1 3.089178 1_555
Ga0 Yb2 3.114384 1_456
Ga0 Yb2 3.114384 1_556
Ga0 Yb5 3.194369 1_556
Ga0 Yb7 3.206976 1_555
Ga0 Yb7 3.206976 1_455
Ga0 Yb6 3.585552 1_555
Ga0 Yb6 3.585552 1_455
Ga1 Yb1 3.069695 1_555
Ga1 Yb0 3.089178 1_555
Ga1 Yb3 3.114384 1_455
Ga1 Yb3 3.114384 1_555
Ga1 Yb4 3.194369 1_555
Ga1 Yb6 3.206976 1_465
Ga1 Yb6 3.206976 1_565
Ga1 Yb7 3.585552 1_455
Ga1 Yb7 3.585552 1_555
Ga2 Yb2 3.069695 1_565
Ga2 Yb3 3.089178 1_555
Ga2 Yb0 3.114384 1_554
Ga2 Yb0 3.114384 1_654
Ga2 Yb7 3.194369 1_554
Ga2 Yb5 3.206976 1_555
Ga2 Yb5 3.206976 1_655
Ga2 Yb4 3.585552 1_555
Ga2 Yb4 3.585552 1_655
Ga3 Yb3 3.069695 1_555
Ga3 Yb2 3.089178 1_555
Ga3 Yb1 3.114384 1_655
Ga3 Yb1 3.114384 1_555
Ga3 Yb6 3.194369 1_555
Ga3 Yb4 3.206976 1_545
Ga3 Yb4 3.206976 1_645
Ga3 Yb5 3.585552 1_555
Ga3 Yb5 3.585552 1_655
