# generated using pymatgen
data_Ca(AgO2)2
_symmetry_space_group_name_H-M   'P 1'
_cell_length_a   3.32609100
_cell_length_b   9.61512100
_cell_length_c   11.26707500
_cell_angle_alpha   90.00000000
_cell_angle_beta   90.00000000
_cell_angle_gamma   90.00000000
_symmetry_Int_Tables_number   1
_chemical_formula_structural   Ca(AgO2)2
_chemical_formula_sum   'Ca4 Ag8 O16'
_cell_volume   360.32970510
_cell_formula_units_Z   4
loop_
 _symmetry_equiv_pos_site_id
 _symmetry_equiv_pos_as_xyz
  1  'x, y, z'
loop_
 _atom_site_type_symbol
 _atom_site_label
 _atom_site_symmetry_multiplicity
 _atom_site_fract_x
 _atom_site_fract_y
 _atom_site_fract_z
 _atom_site_occupancy
  Ca  Ca0  1  0.25000000  0.24139000  0.34228600  1
  Ca  Ca1  1  0.75000000  0.75861000  0.65771400  1
  Ca  Ca2  1  0.25000000  0.74139000  0.15771400  1
  Ca  Ca3  1  0.75000000  0.25861000  0.84228600  1
  Ag  Ag0  1  0.75000000  0.41670100  0.10621200  1
  Ag  Ag1  1  0.25000000  0.08329900  0.60621200  1
  Ag  Ag2  1  0.75000000  0.91670100  0.39378800  1
  Ag  Ag3  1  0.25000000  0.58329900  0.89378800  1
  Ag  Ag4  1  0.25000000  0.56246900  0.38828800  1
  Ag  Ag5  1  0.75000000  0.43753100  0.61171200  1
  Ag  Ag6  1  0.25000000  0.06246900  0.11171200  1
  Ag  Ag7  1  0.75000000  0.93753100  0.88828800  1
  O  O0  1  0.75000000  0.89409300  0.06976800  1
  O  O1  1  0.25000000  0.10590700  0.93023200  1
  O  O2  1  0.75000000  0.39409300  0.43023200  1
  O  O3  1  0.25000000  0.60590700  0.56976800  1
  O  O4  1  0.75000000  0.02052000  0.72191700  1
  O  O5  1  0.25000000  0.97948000  0.27808300  1
  O  O6  1  0.75000000  0.52052000  0.77808300  1
  O  O7  1  0.25000000  0.47948000  0.22191700  1
  O  O8  1  0.75000000  0.61669400  0.03414000  1
  O  O9  1  0.25000000  0.38330600  0.96586000  1
  O  O10  1  0.75000000  0.11669400  0.46586000  1
  O  O11  1  0.25000000  0.88330600  0.53414000  1
  O  O12  1  0.25000000  0.78132300  0.81965900  1
  O  O13  1  0.75000000  0.21867700  0.18034100  1
  O  O14  1  0.75000000  0.71867700  0.31965900  1
  O  O15  1  0.25000000  0.28132300  0.68034100  1
loop_
_geom_bond_atom_site_label_1
_geom_bond_atom_site_label_2
_geom_bond_distance
_geom_bond_site_symmetry_2
Ca0 O2 2.429686 1_455
Ca0 O2 2.429686 1_555
Ca0 O10 2.478264 1_555
Ca0 O10 2.478264 1_455
Ca0 O13 2.478457 1_555
Ca0 O13 2.478457 1_455
Ca0 O5 2.620133 1_545
Ca0 O7 2.660832 1_555
Ca1 O3 2.429686 1_555
Ca1 O3 2.429686 1_655
Ca1 O11 2.478264 1_655
Ca1 O11 2.478264 1_555
Ca1 O12 2.478457 1_555
Ca1 O12 2.478457 1_655
Ca1 O4 2.620133 1_565
Ca1 O6 2.660832 1_555
Ca2 O0 2.429686 1_455
Ca2 O0 2.429686 1_555
Ca2 O8 2.478264 1_555
Ca2 O8 2.478264 1_455
Ca2 O14 2.478457 1_555
Ca2 O14 2.478457 1_455
Ca2 O7 2.620133 1_555
Ca2 O5 2.660832 1_555
Ca3 O1 2.429686 1_655
Ca3 O1 2.429686 1_555
Ca3 O9 2.478264 1_655
Ca3 O9 2.478264 1_555
Ca3 O15 2.478457 1_555
Ca3 O15 2.478457 1_655
Ca3 O6 2.620133 1_555
Ca3 O4 2.660832 1_555
Ag0 O13 2.079158 1_555
Ag0 O8 2.087384 1_555
Ag0 O7 2.197637 1_655
Ag0 O7 2.197637 1_555
Ag0 O9 2.317221 1_654
Ag0 O9 2.317221 1_554
Ag1 O15 2.079158 1_555
Ag1 O11 2.087384 1_545
Ag1 O4 2.197637 1_555
Ag1 O4 2.197637 1_455
Ag1 O10 2.317221 1_555
Ag1 O10 2.317221 1_455
Ag2 O14 2.079158 1_555
Ag2 O10 2.087384 1_565
Ag2 O5 2.197637 1_555
Ag2 O5 2.197637 1_655
Ag2 O11 2.317221 1_655
Ag2 O11 2.317221 1_555
Ag3 O12 2.079158 1_555
Ag3 O9 2.087384 1_555
Ag3 O6 2.197637 1_555
Ag3 O6 2.197637 1_455
Ag3 O8 2.317221 1_556
Ag3 O8 2.317221 1_456
Ag4 O7 2.037284 1_555
Ag4 O3 2.086969 1_555
Ag4 O2 2.368560 1_555
Ag4 O2 2.368560 1_455
Ag4 O14 2.370551 1_555
Ag4 O14 2.370551 1_455
Ag5 O6 2.037284 1_555
Ag5 O2 2.086969 1_555
Ag5 O3 2.368560 1_555
Ag5 O3 2.368560 1_655
Ag5 O15 2.370551 1_655
Ag5 O15 2.370551 1_555
Ag6 O5 2.037284 1_545
Ag6 O1 2.086969 1_554
Ag6 O0 2.368560 1_445
Ag6 O0 2.368560 1_545
Ag6 O13 2.370551 1_555
Ag6 O13 2.370551 1_455
Ag7 O4 2.037284 1_565
Ag7 O0 2.086969 1_556
Ag7 O1 2.368560 1_665
Ag7 O1 2.368560 1_565
Ag7 O12 2.370551 1_655
Ag7 O12 2.370551 1_555
