# generated using pymatgen
data_Ba2LiTmCu3O7
_symmetry_space_group_name_H-M   'P 1'
_cell_length_a   3.77473900
_cell_length_b   4.00590000
_cell_length_c   12.58585800
_cell_angle_alpha   90.00000000
_cell_angle_beta   90.00000000
_cell_angle_gamma   90.00000000
_symmetry_Int_Tables_number   1
_chemical_formula_structural   Ba2LiTmCu3O7
_chemical_formula_sum   'Ba2 Li1 Tm1 Cu3 O7'
_cell_volume   190.31361531
_cell_formula_units_Z   1
loop_
 _symmetry_equiv_pos_site_id
 _symmetry_equiv_pos_as_xyz
  1  'x, y, z'
loop_
 _atom_site_type_symbol
 _atom_site_label
 _atom_site_symmetry_multiplicity
 _atom_site_fract_x
 _atom_site_fract_y
 _atom_site_fract_z
 _atom_site_occupancy
  Ba  Ba0  1  0.50000000  0.50000000  0.23081100  1
  Ba  Ba1  1  0.50000000  0.50000000  0.80921100  1
  Li  Li0  1  0.50000000  0.00000000  0.07527200  1
  Tm  Tm0  1  0.50000000  0.50000000  0.51491600  1
  Cu  Cu0  1  0.00000000  0.00000000  0.63724800  1
  Cu  Cu1  1  0.00000000  0.00000000  0.39383500  1
  Cu  Cu2  1  0.00000000  0.00000000  0.97234900  1
  O  O0  1  0.50000000  0.00000000  0.38115500  1
  O  O1  1  0.00000000  0.00000000  0.82468400  1
  O  O2  1  0.50000000  0.00000000  0.60648900  1
  O  O3  1  0.00000000  0.50000000  0.39485400  1
  O  O4  1  0.00000000  0.50000000  0.62050100  1
  O  O5  1  0.00000000  0.00000000  0.13227700  1
  O  O6  1  0.00000000  0.50000000  0.97862000  1
loop_
_geom_bond_atom_site_label_1
_geom_bond_atom_site_label_2
_geom_bond_distance
_geom_bond_site_symmetry_2
Ba0 O0 2.755406 1_555
Ba0 O0 2.755406 1_565
Ba0 O3 2.797289 1_655
Ba0 O3 2.797289 1_555
Ba0 Li0 2.800710 1_555
Ba0 Li0 2.800710 1_565
Ba0 O5 3.018594 1_665
Ba0 O5 3.018594 1_555
Ba0 O5 3.018594 1_565
Ba0 O5 3.018594 1_655
Ba1 O1 2.758967 1_565
Ba1 O1 2.758967 1_665
Ba1 O1 2.758967 1_555
Ba1 O1 2.758967 1_655
Ba1 O6 2.847501 1_655
Ba1 O6 2.847501 1_555
Ba1 O4 3.033670 1_555
Ba1 O4 3.033670 1_655
Ba1 O2 3.243702 1_565
Ba1 O2 3.243702 1_555
Li0 O5 2.019135 1_655
Li0 O5 2.019135 1_555
Cu0 O2 1.926663 1_455
Cu0 O2 1.926663 1_555
Cu0 O4 2.014010 1_545
Cu0 O4 2.014010 1_555
Cu0 O1 2.359043 1_555
Cu1 O0 1.894105 1_555
Cu1 O0 1.894105 1_455
Cu1 O3 2.002991 1_555
Cu1 O3 2.002991 1_545
Cu2 O1 1.858491 1_555
Cu2 O6 2.004504 1_545
Cu2 O6 2.004504 1_555
Cu2 O5 2.012831 1_556
Cu2 Li0 2.289139 1_556
Cu2 Li0 2.289139 1_456
O0 Tm0 2.616481 1_555
O0 Tm0 2.616481 1_545
O2 Tm0 2.310870 1_545
O2 Tm0 2.310870 1_555
O3 Tm0 2.417754 1_555
O3 Tm0 2.417754 1_455
O4 Tm0 2.308263 1_555
O4 Tm0 2.308263 1_455
