# generated using pymatgen
data_Ba3Sm2WO9
_symmetry_space_group_name_H-M   'P 1'
_cell_length_a   10.75011940
_cell_length_b   10.75011940
_cell_length_c   10.75011940
_cell_angle_alpha   146.46845423
_cell_angle_beta   131.65245049
_cell_angle_gamma   60.11952420
_symmetry_Int_Tables_number   1
_chemical_formula_structural   Ba3Sm2WO9
_chemical_formula_sum   'Ba6 Sm4 W2 O18'
_cell_volume   508.05855978
_cell_formula_units_Z   2
loop_
 _symmetry_equiv_pos_site_id
 _symmetry_equiv_pos_as_xyz
  1  'x, y, z'
loop_
 _atom_site_type_symbol
 _atom_site_label
 _atom_site_symmetry_multiplicity
 _atom_site_fract_x
 _atom_site_fract_y
 _atom_site_fract_z
 _atom_site_occupancy
  Ba  Ba0  1  0.57904900  0.83952000  0.73952900  1
  Ba  Ba1  1  0.26537000  0.50000000  0.76537000  1
  Ba  Ba2  1  0.90000900  0.16048000  0.73952900  1
  Ba  Ba3  1  0.09999100  0.83952000  0.26047100  1
  Ba  Ba4  1  0.73463000  0.50000000  0.23463000  1
  Ba  Ba5  1  0.42095100  0.16048000  0.26047100  1
  Sm  Sm0  1  0.32638600  0.32638600  0.00000000  1
  Sm  Sm1  1  0.00000000  0.00000000  0.00000000  1
  Sm  Sm2  1  0.67361400  0.67361400  0.00000000  1
  Sm  Sm3  1  0.50000000  0.00000000  0.50000000  1
  W  W0  1  0.16508400  0.66508400  0.50000000  1
  W  W1  1  0.83491600  0.33491600  0.50000000  1
  O  O0  1  0.60565400  0.33068100  0.27497300  1
  O  O1  1  0.24713700  0.00000000  0.24713700  1
  O  O2  1  0.94429300  0.66931900  0.27497300  1
  O  O3  1  0.90952700  0.63467200  0.72514500  1
  O  O4  1  0.59026600  0.34088900  0.75062400  1
  O  O5  1  0.23877300  0.96421300  0.72544000  1
  O  O6  1  0.76122700  0.48666700  0.72544000  1
  O  O7  1  0.40973400  0.16035800  0.75062400  1
  O  O8  1  0.09047300  0.81561800  0.72514500  1
  O  O9  1  0.05570700  0.33068100  0.72502700  1
  O  O10  1  0.75286300  0.00000000  0.75286300  1
  O  O11  1  0.39434600  0.66931900  0.72502700  1
  O  O12  1  0.76122700  0.03578700  0.27456000  1
  O  O13  1  0.40973400  0.65911100  0.24937600  1
  O  O14  1  0.09047300  0.36532800  0.27485500  1
  O  O15  1  0.90952700  0.18438200  0.27485500  1
  O  O16  1  0.59026600  0.83964200  0.24937600  1
  O  O17  1  0.23877300  0.51333300  0.27456000  1
loop_
_geom_bond_atom_site_label_1
_geom_bond_atom_site_label_2
_geom_bond_distance
_geom_bond_site_symmetry_2
Ba0 O7 2.927584 1_565
Ba0 O13 2.927589 1_555
Ba0 O10 2.988604 1_565
Ba0 O0 3.120978 1_566
Ba0 O0 3.120978 1_555
Ba0 O15 3.140407 1_566
Ba0 O3 3.140407 1_555
Ba0 O5 3.149149 1_555
Ba0 O17 3.149149 1_555
Ba0 O11 3.169763 1_555
Ba0 O12 3.206467 1_566
Ba0 O6 3.206467 1_555
Ba1 O13 3.079113 1_556
Ba1 O4 3.079119 1_555
Ba1 O7 3.079120 1_555
Ba1 O16 3.079120 1_556
Ba1 O1 3.105130 1_566
Ba1 O1 3.105130 1_555
Ba1 O11 3.170736 1_555
Ba1 O9 3.170746 1_555
Ba1 O3 3.200489 1_455
Ba1 O15 3.200489 1_455
Ba1 O8 3.200489 1_555
Ba1 O14 3.200489 1_555
Ba2 O4 2.927583 1_555
Ba2 O16 2.927584 1_545
Ba2 O10 2.988604 1_555
Ba2 O2 3.120976 1_556
Ba2 O2 3.120982 1_545
Ba2 O14 3.140407 1_656
Ba2 O8 3.140407 1_645
Ba2 O6 3.149149 1_555
Ba2 O12 3.149149 1_555
Ba2 O9 3.169754 1_655
Ba2 O5 3.206467 1_645
Ba2 O17 3.206467 1_656
Ba3 O13 2.927583 1_555
Ba3 O7 2.927584 1_565
Ba3 O1 2.988604 1_565
Ba3 O9 3.120976 1_554
Ba3 O9 3.120982 1_565
Ba3 O15 3.140407 1_465
Ba3 O3 3.140407 1_454
Ba3 O5 3.149149 1_555
Ba3 O17 3.149149 1_555
Ba3 O2 3.169754 1_455
Ba3 O12 3.206467 1_465
Ba3 O6 3.206467 1_454
Ba4 O4 3.079113 1_554
Ba4 O13 3.079119 1_555
Ba4 O16 3.079120 1_555
Ba4 O7 3.079120 1_554
Ba4 O10 3.105130 1_565
Ba4 O10 3.105130 1_554
Ba4 O0 3.170736 1_555
Ba4 O2 3.170746 1_555
Ba4 O3 3.200489 1_555
Ba4 O15 3.200489 1_555
Ba4 O8 3.200489 1_655
Ba4 O14 3.200489 1_655
Ba5 O16 2.927584 1_545
Ba5 O4 2.927589 1_555
Ba5 O1 2.988604 1_555
Ba5 O11 3.120978 1_555
Ba5 O11 3.120978 1_544
Ba5 O14 3.140407 1_555
Ba5 O8 3.140407 1_544
Ba5 O6 3.149149 1_555
Ba5 O12 3.149149 1_555
Ba5 O0 3.169763 1_555
Ba5 O17 3.206467 1_555
Ba5 O5 3.206467 1_544
O0 W1 1.982809 1_555
O0 Sm0 2.422309 1_555
O1 Sm1 2.175909 1_555
O1 Sm3 2.226324 1_555
O2 W0 1.982805 1_655
O2 Sm2 2.422313 1_555
O3 W1 1.969117 1_555
O3 Sm1 2.395871 1_666
O4 Sm2 2.190347 1_556
O4 Sm3 2.288546 1_555
O5 W0 1.958363 1_555
O5 Sm0 2.357456 1_566
O6 W1 1.958363 1_555
O6 Sm2 2.357456 1_556
O7 Sm0 2.190338 1_556
O7 Sm3 2.288555 1_555
O8 W0 1.969117 1_555
O8 Sm1 2.395871 1_566
O9 W1 1.982805 1_455
O9 Sm0 2.422313 1_556
O10 Sm1 2.175909 1_656
O10 Sm3 2.226324 1_555
O11 W0 1.982809 1_555
O11 Sm2 2.422309 1_556
O12 W1 1.958363 1_555
O12 Sm2 2.357456 1_545
O13 Sm0 2.190347 1_555
O13 Sm3 2.288546 1_565
O14 W0 1.969117 1_555
O14 Sm1 2.395871 1_555
O15 W1 1.969117 1_555
O15 Sm1 2.395871 1_655
O16 Sm2 2.190338 1_555
O16 Sm3 2.288555 1_565
O17 W0 1.958363 1_555
O17 Sm0 2.357456 1_555
