# generated using pymatgen
data_Sr2YCu2BiO7
_symmetry_space_group_name_H-M   'P 1'
_cell_length_a   13.18762605
_cell_length_b   13.18762605
_cell_length_c   13.18762605
_cell_angle_alpha   156.30244697
_cell_angle_beta   156.22226823
_cell_angle_gamma   33.81938624
_symmetry_Int_Tables_number   1
_chemical_formula_structural   Sr2YCu2BiO7
_chemical_formula_sum   'Sr4 Y2 Cu4 Bi2 O14'
_cell_volume   371.28943165
_cell_formula_units_Z   2
loop_
 _symmetry_equiv_pos_site_id
 _symmetry_equiv_pos_as_xyz
  1  'x, y, z'
loop_
 _atom_site_type_symbol
 _atom_site_label
 _atom_site_symmetry_multiplicity
 _atom_site_fract_x
 _atom_site_fract_y
 _atom_site_fract_z
 _atom_site_occupancy
  Sr  Sr0  1  0.63611800  0.65912300  0.01754500  1
  Sr  Sr1  1  0.36388200  0.38142800  0.02300600  1
  Sr  Sr2  1  0.14157800  0.15912300  0.02300600  1
  Sr  Sr3  1  0.85842200  0.88142800  0.01754500  1
  Y  Y0  1  0.00000000  0.01755300  0.01755300  1
  Y  Y1  1  0.50000000  0.51755300  0.01755300  1
  Cu  Cu0  1  0.56680300  0.08562900  0.51991200  1
  Cu  Cu1  1  0.43319700  0.95310900  0.51882600  1
  Cu  Cu2  1  0.06571700  0.58562900  0.51882600  1
  Cu  Cu3  1  0.93428300  0.45310900  0.51991200  1
  Bi  Bi0  1  0.25988900  0.73963700  0.49952600  1
  Bi  Bi1  1  0.74011100  0.23963700  0.47974800  1
  O  O0  1  0.65733000  0.83304700  0.99037700  1
  O  O1  1  0.34267000  0.33304700  0.17571700  1
  O  O2  1  0.80186400  0.82058800  0.50801900  1
  O  O3  1  0.19813600  0.70615500  0.01872400  1
  O  O4  1  0.81256900  0.32058800  0.01872400  1
  O  O5  1  0.18743100  0.20615500  0.50801900  1
  O  O6  1  0.31384500  0.33390200  0.53012500  1
  O  O7  1  0.68615500  0.21628000  0.02005800  1
  O  O8  1  0.30377700  0.83390200  0.02005800  1
  O  O9  1  0.69622300  0.71628000  0.53012500  1
  O  O10  1  0.15666400  0.69023000  0.52696500  1
  O  O11  1  0.84333600  0.37030100  0.53356700  1
  O  O12  1  0.66326600  0.19023000  0.53356700  1
  O  O13  1  0.33673400  0.87030100  0.52696500  1
loop_
_geom_bond_atom_site_label_1
_geom_bond_atom_site_label_2
_geom_bond_distance
_geom_bond_site_symmetry_2
Cu0 O8 1.927168 1_545
Cu0 O4 1.927491 1_556
Cu0 O6 1.932060 1_555
Cu0 O2 1.932209 1_545
Cu0 O12 2.365408 1_555
Cu1 O9 1.927170 1_555
Cu1 O5 1.927491 1_565
Cu1 O7 1.932062 1_566
Cu1 O3 1.932209 1_555
Cu1 O13 2.365420 1_555
Cu2 O6 1.927170 1_555
Cu2 O2 1.927491 1_455
Cu2 O8 1.932065 1_556
Cu2 O4 1.932209 1_455
Cu2 O10 2.365408 1_555
Cu3 O7 1.927165 1_555
Cu3 O3 1.927491 1_656
Cu3 O9 1.932060 1_555
Cu3 O5 1.932209 1_655
Cu3 O11 2.365420 1_555
Bi0 O0 2.218022 1_555
Bi0 O1 2.247407 1_555
Bi0 O13 2.283779 1_555
Bi0 O10 2.283791 1_555
Bi1 O1 2.218022 1_555
Bi1 O0 2.247407 1_544
Bi1 O11 2.283779 1_555
Bi1 O12 2.283791 1_555
O0 Sr0 2.867388 1_556
O0 Sr3 2.867400 1_556
O1 Sr1 2.867388 1_555
O1 Sr2 2.867400 1_555
O2 Y1 2.371516 1_555
O2 Y0 2.429971 1_666
O2 Sr0 2.789884 1_555
O2 Sr2 2.854057 1_666
O3 Y1 2.371516 1_555
O3 Y0 2.429971 1_565
O3 Sr1 2.789881 1_555
O3 Sr3 2.854057 1_455
O4 Y0 2.371516 1_655
O4 Y1 2.429971 1_555
O4 Sr2 2.789874 1_655
O4 Sr0 2.854064 1_555
O5 Y0 2.371516 1_555
O5 Y1 2.429971 1_556
O5 Sr3 2.789874 1_445
O5 Sr1 2.854066 1_556
O6 Y1 2.387140 1_556
O6 Y0 2.463360 1_555
O6 Sr0 2.752247 1_556
O6 Sr2 2.804114 1_555
O7 Y1 2.387148 1_555
O7 Y0 2.463368 1_655
O7 Sr1 2.752241 1_555
O7 Sr3 2.804104 1_545
O8 Y0 2.387132 1_565
O8 Y1 2.463353 1_555
O8 Sr2 2.752247 1_565
O8 Sr0 2.804134 1_555
O9 Y0 2.387140 1_666
O9 Y1 2.463360 1_555
O9 Sr3 2.752238 1_556
O9 Sr1 2.804123 1_555
O10 Sr2 2.706878 1_566
O10 Sr0 2.766088 1_455
O10 Sr0 2.772171 1_556
O10 Sr2 2.813037 1_555
O11 Sr3 2.706877 1_556
O11 Sr1 2.766088 1_656
O11 Sr1 2.772176 1_555
O11 Sr3 2.813042 1_545
O12 Sr0 2.706872 1_556
O12 Sr2 2.766088 1_656
O12 Sr2 2.772176 1_555
O12 Sr0 2.813037 1_545
O13 Sr1 2.706878 1_566
O13 Sr3 2.766093 1_455
O13 Sr3 2.772176 1_556
O13 Sr1 2.813037 1_555
