# generated using pymatgen
data_K2LiNbO4
_symmetry_space_group_name_H-M   'P 1'
_cell_length_a   6.15259000
_cell_length_b   8.68000781
_cell_length_c   10.83311243
_cell_angle_alpha   87.62071832
_cell_angle_beta   80.91121137
_cell_angle_gamma   89.40323572
_symmetry_Int_Tables_number   1
_chemical_formula_structural   K2LiNbO4
_chemical_formula_sum   'K8 Li4 Nb4 O16'
_cell_volume   570.77672772
_cell_formula_units_Z   4
loop_
 _symmetry_equiv_pos_site_id
 _symmetry_equiv_pos_as_xyz
  1  'x, y, z'
loop_
 _atom_site_type_symbol
 _atom_site_label
 _atom_site_symmetry_multiplicity
 _atom_site_fract_x
 _atom_site_fract_y
 _atom_site_fract_z
 _atom_site_occupancy
  K  K0  1  0.64441800  0.80696400  0.11390500  1
  K  K1  1  0.30846300  0.48972900  0.30762100  1
  K  K2  1  0.12970900  0.73976500  0.57242000  1
  K  K3  1  0.24537600  0.01798300  0.24096900  1
  K  K4  1  0.82169900  0.05107200  0.80860300  1
  K  K5  1  0.83786300  0.21498000  0.41068600  1
  K  K6  1  0.74462000  0.45554100  0.66333800  1
  K  K7  1  0.32137900  0.26214300  0.90864600  1
  Li  Li0  1  0.70346200  0.53232500  0.93725400  1
  Li  Li1  1  0.90163500  0.54497600  0.21009800  1
  Li  Li2  1  0.60315700  0.73952600  0.79080700  1
  Li  Li3  1  0.41391700  0.96144100  0.69315200  1
  Nb  Nb0  1  0.79018400  0.28677600  0.07691300  1
  Nb  Nb1  1  0.30692200  0.21609700  0.56640800  1
  Nb  Nb2  1  0.68083600  0.76792500  0.43591400  1
  Nb  Nb3  1  0.17687600  0.70680900  0.92455900  1
  O  O0  1  0.62554500  0.10633900  0.08184600  1
  O  O1  1  0.65201300  0.47802900  0.12168600  1
  O  O2  1  0.40506700  0.20996100  0.39571700  1
  O  O3  1  0.43079300  0.77489700  0.35893900  1
  O  O4  1  0.15792600  0.40334300  0.59083400  1
  O  O5  1  0.14414000  0.03808400  0.62655800  1
  O  O6  1  0.03485400  0.28300700  0.16058900  1
  O  O7  1  0.09965100  0.69588700  0.09696100  1
  O  O8  1  0.87513600  0.33154000  0.90470200  1
  O  O9  1  0.90164000  0.70540400  0.85932500  1
  O  O10  1  0.86601800  0.92489400  0.36976100  1
  O  O11  1  0.82672300  0.57913200  0.39233700  1
  O  O12  1  0.54647300  0.18783900  0.65811500  1
  O  O13  1  0.60216600  0.78195700  0.61605300  1
  O  O14  1  0.41129000  0.56674200  0.87337400  1
  O  O15  1  0.33880800  0.88741800  0.87056500  1
loop_
_geom_bond_atom_site_label_1
_geom_bond_atom_site_label_2
_geom_bond_distance
_geom_bond_site_symmetry_2
K0 O0 2.611174 1_565
K0 O3 2.774036 1_555
K0 O1 2.853016 1_555
K0 O7 2.933278 1_655
K0 O9 3.111519 1_554
K1 O2 2.667930 1_555
K1 O1 2.683799 1_555
K1 O3 2.699575 1_555
K1 O6 3.120566 1_555
K1 O4 3.123921 1_555
K2 O5 2.684069 1_565
K2 O3 2.733625 1_555
K2 O4 2.923901 1_555
K2 O13 3.045960 1_555
K2 O9 3.204993 1_455
K2 O13 3.224498 1_455
K2 O11 3.264030 1_455
K2 O10 3.288204 1_455
K3 O10 2.638957 1_445
K3 O2 2.709033 1_555
K3 O3 2.751958 1_545
K3 O0 2.772087 1_555
K3 O6 2.802811 1_555
K4 O5 2.572034 1_655
K4 O8 2.730153 1_555
K4 O12 2.757546 1_555
K4 O0 3.070159 1_556
K4 O9 3.076361 1_545
K5 O10 2.574095 1_545
K5 O2 2.694106 1_555
K5 O6 2.828910 1_655
K5 O12 2.982030 1_555
K5 O11 3.159550 1_555
K6 O4 2.581297 1_655
K6 O12 2.642071 1_555
K6 O14 2.996944 1_555
K6 O13 3.004620 1_555
K6 O8 3.008615 1_555
K6 O11 3.050592 1_555
K7 O14 2.705947 1_555
K7 O8 2.811261 1_455
K7 O12 2.939245 1_555
K7 O6 3.017291 1_556
K7 O0 3.114083 1_556
K7 O15 3.294141 1_545
Li0 O1 2.009807 1_556
Li0 O9 2.015948 1_555
Li0 O14 2.040641 1_555
Li0 O8 2.042648 1_555
Li1 O11 1.989004 1_555
Li1 O7 2.032364 1_655
Li1 O1 2.035507 1_555
Li1 O6 2.460409 1_655
Li2 O13 1.914506 1_555
Li2 O14 2.008680 1_555
Li2 O9 2.100540 1_555
Li2 O15 2.155075 1_555
Li3 O15 1.985768 1_555
Li3 O5 2.008358 1_565
Li3 O13 2.056944 1_555
Li3 O12 2.131813 1_565
Nb0 O0 1.868394 1_555
Nb0 O6 1.875225 1_655
Nb0 O8 1.881632 1_554
Nb0 O1 1.902889 1_555
Nb1 O2 1.855111 1_555
Nb1 O4 1.865477 1_555
Nb1 O5 1.886166 1_555
Nb1 O12 1.911608 1_555
Nb2 O10 1.833408 1_555
Nb2 O3 1.861421 1_555
Nb2 O11 1.900961 1_555
Nb2 O13 1.943560 1_555
Nb3 O7 1.851687 1_556
Nb3 O15 1.888037 1_555
Nb3 O14 1.905906 1_555
Nb3 O9 1.935570 1_455
