# generated using pymatgen
data_Rb8SbO3
_symmetry_space_group_name_H-M   'P 1'
_cell_length_a   7.44754500
_cell_length_b   7.44754500
_cell_length_c   7.44754500
_cell_angle_alpha   90.00000000
_cell_angle_beta   90.00000000
_cell_angle_gamma   90.00000000
_symmetry_Int_Tables_number   1
_chemical_formula_structural   Rb8SbO3
_chemical_formula_sum   'Rb8 Sb1 O3'
_cell_volume   413.08498378
_cell_formula_units_Z   1
loop_
 _symmetry_equiv_pos_site_id
 _symmetry_equiv_pos_as_xyz
  1  'x, y, z'
loop_
 _atom_site_type_symbol
 _atom_site_label
 _atom_site_symmetry_multiplicity
 _atom_site_fract_x
 _atom_site_fract_y
 _atom_site_fract_z
 _atom_site_occupancy
  Rb  Rb0  1  0.26866000  0.26866000  0.26866000  1
  Rb  Rb1  1  0.73134000  0.73134000  0.26866000  1
  Rb  Rb2  1  0.73134000  0.26866000  0.73134000  1
  Rb  Rb3  1  0.26866000  0.73134000  0.73134000  1
  Rb  Rb4  1  0.26866000  0.26866000  0.73134000  1
  Rb  Rb5  1  0.73134000  0.73134000  0.73134000  1
  Rb  Rb6  1  0.73134000  0.26866000  0.26866000  1
  Rb  Rb7  1  0.26866000  0.73134000  0.26866000  1
  Sb  Sb0  1  0.00000000  0.00000000  0.00000000  1
  O  O0  1  0.00000000  0.50000000  0.50000000  1
  O  O1  1  0.50000000  0.50000000  0.00000000  1
  O  O2  1  0.50000000  0.00000000  0.50000000  1
loop_
_geom_bond_atom_site_label_1
_geom_bond_atom_site_label_2
_geom_bond_distance
_geom_bond_site_symmetry_2
Rb0 Sb0 3.465587 1_555
Rb1 Sb0 3.465587 1_665
Rb2 Sb0 3.465587 1_656
Rb3 Sb0 3.465587 1_566
Rb4 Sb0 3.465587 1_556
Rb5 Sb0 3.465587 1_666
Rb6 Sb0 3.465587 1_655
Rb7 Sb0 3.465587 1_565
O0 Rb6 3.152825 1_455
O0 Rb7 3.152825 1_555
O0 Rb0 3.152825 1_555
O0 Rb1 3.152825 1_455
O0 Rb2 3.152825 1_455
O0 Rb5 3.152825 1_455
O0 Rb4 3.152825 1_555
O0 Rb3 3.152825 1_555
O1 Rb4 3.152825 1_554
O1 Rb0 3.152825 1_555
O1 Rb3 3.152825 1_554
O1 Rb2 3.152825 1_554
O1 Rb7 3.152825 1_555
O1 Rb6 3.152825 1_555
O1 Rb1 3.152825 1_555
O1 Rb5 3.152825 1_554
O2 Rb7 3.152825 1_545
O2 Rb0 3.152825 1_555
O2 Rb3 3.152825 1_545
O2 Rb1 3.152825 1_545
O2 Rb6 3.152825 1_555
O2 Rb4 3.152825 1_555
O2 Rb2 3.152825 1_555
O2 Rb5 3.152825 1_545
