# generated using pymatgen
data_Ca3Ge4Au7
_symmetry_space_group_name_H-M   'P 1'
_cell_length_a   4.39504641
_cell_length_b   8.45218920
_cell_length_c   8.45219514
_cell_angle_alpha   70.04673252
_cell_angle_beta   75.00745861
_cell_angle_gamma   75.00687361
_symmetry_Int_Tables_number   1
_chemical_formula_structural   Ca3Ge4Au7
_chemical_formula_sum   'Ca3 Ge4 Au7'
_cell_volume   280.01908691
_cell_formula_units_Z   1
loop_
 _symmetry_equiv_pos_site_id
 _symmetry_equiv_pos_as_xyz
  1  'x, y, z'
loop_
 _atom_site_type_symbol
 _atom_site_label
 _atom_site_symmetry_multiplicity
 _atom_site_fract_x
 _atom_site_fract_y
 _atom_site_fract_z
 _atom_site_occupancy
  Ca  Ca0  1  0.99999591  0.99940309  0.00060099  1
  Ca  Ca1  1  0.31091347  0.69252773  0.68576411  1
  Ca  Ca2  1  0.68909276  0.31423429  0.30747447  1
  Ge  Ge0  1  0.13171127  0.14291257  0.59443646  1
  Ge  Ge1  1  0.86828809  0.40556547  0.85708887  1
  Ge  Ge2  1  0.31937671  0.03803777  0.32358017  1
  Ge  Ge3  1  0.68063023  0.67642400  0.96195985  1
  Au  Au0  1  0.33967508  0.27574613  0.04329070  1
  Au  Au1  1  0.66032494  0.95670926  0.72425407  1
  Au  Au2  1  0.49999112  0.69716572  0.30282592  1
  Au  Au3  1  0.13385522  0.60715004  0.12537311  1
  Au  Au4  1  0.86615799  0.87462264  0.39284277  1
  Au  Au5  1  0.50000262  0.30748114  0.69252142  1
  Au  Au6  1  -0.00001440  0.50018916  0.49981706  1
loop_
_geom_bond_atom_site_label_1
_geom_bond_atom_site_label_2
_geom_bond_distance
_geom_bond_site_symmetry_2
Ca0 Ge1 3.175638 1_564
Ca0 Ge0 3.175664 1_664
Ca0 Ge3 3.515302 1_554
Ca0 Ge2 3.515311 1_665
Ca0 Ge2 3.519245 1_565
Ca0 Ge3 3.519272 1_654
Ca1 Ge3 3.120884 1_555
Ca1 Ge3 3.126377 1_455
Ca1 Ge1 3.216319 1_555
Ca1 Ge1 3.217281 1_455
Ca1 Ge2 3.434629 1_565
Ca1 Ge0 3.530603 1_565
Ca2 Ge2 3.120893 1_555
Ca2 Ge2 3.126360 1_655
Ca2 Ge0 3.216358 1_555
Ca2 Ge0 3.217235 1_655
Ca2 Ge3 3.434679 1_554
Ca2 Ge1 3.530619 1_554
Ge0 Ge2 2.595545 1_555
Ge1 Ge3 2.595539 1_555
Au0 Ge2 2.528221 1_555
Au0 Ge1 2.702824 1_454
Au0 Ge1 2.706861 1_554
Au0 Au3 2.972594 1_555
Au0 Ca2 3.158900 1_555
Au0 Ca2 3.158918 1_455
Au0 Ca0 3.236134 1_445
Au0 Ca0 3.245655 1_545
Au1 Ge3 2.528185 1_555
Au1 Ge0 2.702849 1_665
Au1 Ge0 2.706837 1_565
Au1 Au4 2.972678 1_555
Au1 Ca1 3.158880 1_555
Au1 Ca1 3.158912 1_655
Au1 Ca0 3.236147 1_556
Au1 Ca0 3.245720 1_456
Au2 Ge3 2.837404 1_554
Au2 Ge2 2.837479 1_565
Au2 Au3 2.842355 1_555
Au2 Au4 2.842496 1_555
Au2 Au4 2.847671 1_455
Au2 Au3 2.847769 1_655
Au2 Au6 2.912253 1_655
Au2 Au6 2.912266 1_555
Au2 Ca2 3.115480 1_555
Au2 Ca1 3.115570 1_555
Au3 Ge3 2.546412 1_554
Au3 Ge3 2.546851 1_454
Au3 Au6 2.922139 1_555
Au3 Ca0 3.061965 1_455
Au3 Ca2 3.265904 1_455
Au3 Ca2 3.266508 1_555
Au3 Ca1 3.449200 1_554
Au4 Ge2 2.546393 1_565
Au4 Ge2 2.546867 1_665
Au4 Au6 2.922046 1_655
Au4 Ca0 3.061890 1_555
Au4 Ca1 3.265894 1_655
Au4 Ca1 3.266556 1_555
Au4 Ca2 3.449216 1_565
Au5 Ge1 2.808596 1_555
Au5 Ge0 2.808629 1_555
Au5 Ge0 2.815745 1_655
Au5 Ge1 2.815767 1_455
Au5 Au6 2.885158 1_655
Au5 Au6 2.885235 1_555
Au5 Ca1 3.127920 1_555
Au5 Ca2 3.127944 1_555
Au6 Ge1 2.789321 1_455
Au6 Ge0 2.789350 1_555
Au6 Ca2 3.314318 1_455
Au6 Ca1 3.314345 1_555
Au6 Ca1 3.319424 1_455
Au6 Ca2 3.319568 1_555
