# generated using pymatgen
data_Fe(CO3)2
_symmetry_space_group_name_H-M   'P 1'
_cell_length_a   4.82524677
_cell_length_b   11.60138758
_cell_length_c   8.34656193
_cell_angle_alpha   96.83584827
_cell_angle_beta   90.03405515
_cell_angle_gamma   78.02492943
_symmetry_Int_Tables_number   1
_chemical_formula_structural   Fe(CO3)2
_chemical_formula_sum   'Fe4 C8 O24'
_cell_volume   453.67988826
_cell_formula_units_Z   4
loop_
 _symmetry_equiv_pos_site_id
 _symmetry_equiv_pos_as_xyz
  1  'x, y, z'
loop_
 _atom_site_type_symbol
 _atom_site_label
 _atom_site_symmetry_multiplicity
 _atom_site_fract_x
 _atom_site_fract_y
 _atom_site_fract_z
 _atom_site_occupancy
  Fe  Fe0  1  0.37506000  0.25006600  0.87497800  1
  Fe  Fe1  1  0.12503900  0.74995900  0.62508000  1
  Fe  Fe2  1  0.87492000  0.24999500  0.37488000  1
  Fe  Fe3  1  0.62502000  0.74993700  0.12497300  1
  C  C0  1  0.32551800  0.35195700  0.56116500  1
  C  C1  1  0.82187800  0.35245200  0.05688300  1
  C  C2  1  0.57206300  0.85220600  0.80701800  1
  C  C3  1  0.07547000  0.85184500  0.31122700  1
  C  C4  1  0.42445300  0.14821300  0.18878100  1
  C  C5  1  0.92810100  0.14763400  0.69296000  1
  C  C6  1  0.67804400  0.64770000  0.44316100  1
  C  C7  1  0.17447400  0.64800400  0.93881800  1
  O  O0  1  0.68592400  0.14911300  0.21355000  1
  O  O1  1  0.19386400  0.14533100  0.71542700  1
  O  O2  1  0.94405500  0.64508900  0.46547800  1
  O  O3  1  0.43582000  0.64900700  0.96373400  1
  O  O4  1  0.91688900  0.35496600  0.20033000  1
  O  O5  1  0.42370000  0.35261600  0.70534300  1
  O  O6  1  0.17376600  0.85249700  0.45535900  1
  O  O7  1  0.66697600  0.85494900  0.95058200  1
  O  O8  1  0.49503200  0.35621300  0.44422500  1
  O  O9  1  0.98503900  0.35100900  0.93416500  1
  O  O10  1  0.73521900  0.85107100  0.68430800  1
  O  O11  1  0.24494000  0.85598500  0.19421000  1
  O  O12  1  0.25509400  0.14413300  0.30585900  1
  O  O13  1  0.76481700  0.14892200  0.81556900  1
  O  O14  1  0.51490700  0.64895800  0.56589700  1
  O  O15  1  0.00497300  0.64371700  0.05579600  1
  O  O16  1  0.83317300  0.14503400  0.54946300  1
  O  O17  1  0.32611900  0.14762300  0.04465100  1
  O  O18  1  0.07623400  0.64730500  0.79465100  1
  O  O19  1  0.58310400  0.64508800  0.29964800  1
  O  O20  1  0.06421300  0.35088700  0.53629800  1
  O  O21  1  0.55597600  0.35490100  0.03446500  1
  O  O22  1  0.30605700  0.85466700  0.78474800  1
  O  O23  1  0.81407000  0.85095400  0.28632000  1
loop_
_geom_bond_atom_site_label_1
_geom_bond_atom_site_label_2
_geom_bond_distance
_geom_bond_site_symmetry_2
Fe0 O17 1.997841 1_556
Fe0 O5 1.998116 1_555
Fe0 O21 2.016704 1_556
Fe0 O1 2.017059 1_555
Fe0 O9 2.026332 1_455
Fe0 O13 2.026460 1_555
Fe1 O6 1.998679 1_555
Fe1 O18 1.998742 1_555
Fe1 O22 2.016963 1_555
Fe1 O2 2.017701 1_455
Fe1 O14 2.025969 1_555
Fe1 O10 2.026308 1_455
Fe2 O0 2.020128 1_555
Fe2 O20 2.021454 1_655
Fe2 O12 2.025657 1_655
Fe2 O8 2.026750 1_555
Fe2 O16 2.042357 1_555
Fe2 O4 2.042462 1_555
Fe3 O3 2.020567 1_554
Fe3 O23 2.021291 1_555
Fe3 O11 2.026518 1_555
Fe3 O15 2.026704 1_655
Fe3 O7 2.041741 1_554
Fe3 O19 2.042230 1_555
C0 O20 1.280068 1_555
C0 O8 1.285816 1_555
C0 O5 1.292781 1_555
C1 O4 1.281060 1_555
C1 O9 1.288663 1_554
C1 O21 1.291461 1_555
C2 O7 1.281763 1_555
C2 O10 1.289345 1_555
C2 O22 1.291753 1_555
C3 O23 1.280171 1_455
C3 O11 1.285820 1_555
C3 O6 1.292629 1_555
C4 O0 1.280345 1_555
C4 O12 1.285684 1_555
C4 O17 1.292702 1_555
C5 O16 1.281290 1_555
C5 O13 1.288679 1_555
C5 O1 1.291141 1_655
C6 O19 1.281433 1_555
C6 O14 1.289161 1_555
C6 O2 1.291545 1_555
C7 O3 1.280178 1_555
C7 O15 1.286112 1_556
C7 O18 1.292786 1_555
