# generated using pymatgen
data_Mn2Zn3O7
_symmetry_space_group_name_H-M   'P 1'
_cell_length_a   9.40707956
_cell_length_b   9.40707956
_cell_length_c   5.18206300
_cell_angle_alpha   90.00000000
_cell_angle_beta   90.00000000
_cell_angle_gamma   148.14801747
_symmetry_Int_Tables_number   1
_chemical_formula_structural   Mn2Zn3O7
_chemical_formula_sum   'Mn4 Zn6 O14'
_cell_volume   242.00333735
_cell_formula_units_Z   2
loop_
 _symmetry_equiv_pos_site_id
 _symmetry_equiv_pos_as_xyz
  1  'x, y, z'
loop_
 _atom_site_type_symbol
 _atom_site_label
 _atom_site_symmetry_multiplicity
 _atom_site_fract_x
 _atom_site_fract_y
 _atom_site_fract_z
 _atom_site_occupancy
  Mn  Mn0  1  0.84991100  0.64619400  0.24841000  1
  Mn  Mn1  1  0.15008900  0.35380600  0.74841000  1
  Mn  Mn2  1  0.35380600  0.15008900  0.74841000  1
  Mn  Mn3  1  0.64619400  0.84991100  0.24841000  1
  Zn  Zn0  1  0.24995300  0.24995300  0.29274700  1
  Zn  Zn1  1  0.75004700  0.75004700  0.79274700  1
  Zn  Zn2  1  0.03035300  0.42338400  0.19748200  1
  Zn  Zn3  1  0.96964700  0.57661600  0.69748200  1
  Zn  Zn4  1  0.42338400  0.03035300  0.19748200  1
  Zn  Zn5  1  0.57661600  0.96964700  0.69748200  1
  O  O0  1  0.64854700  0.05425700  0.30703300  1
  O  O1  1  0.35145400  0.94574300  0.80703300  1
  O  O2  1  0.94574300  0.35145300  0.80703300  1
  O  O3  1  0.05425700  0.64854700  0.30703300  1
  O  O4  1  0.44298500  0.69972100  0.93192700  1
  O  O5  1  0.55701500  0.30027900  0.43192700  1
  O  O6  1  0.30027900  0.55701500  0.43192700  1
  O  O7  1  0.69972100  0.44298500  0.93192700  1
  O  O8  1  0.99256300  0.14686300  0.06583700  1
  O  O9  1  0.00743700  0.85313700  0.56583700  1
  O  O10  1  0.63329900  0.63329900  0.18587200  1
  O  O11  1  0.36670100  0.36670100  0.68587200  1
  O  O12  1  0.14686300  0.99256300  0.06583700  1
  O  O13  1  0.85313700  0.00743700  0.56583700  1
loop_
_geom_bond_atom_site_label_1
_geom_bond_atom_site_label_2
_geom_bond_distance
_geom_bond_site_symmetry_2
Mn0 O3 1.927622 1_655
Mn0 O7 1.936976 1_554
Mn0 O9 1.946972 1_655
Mn0 O10 1.962648 1_555
Mn0 O12 1.962771 1_655
Mn0 O5 1.963012 1_555
Mn1 O2 1.927622 1_455
Mn1 O6 1.936976 1_555
Mn1 O8 1.946972 1_456
Mn1 O11 1.962648 1_555
Mn1 O13 1.962771 1_455
Mn1 O4 1.963012 1_555
Mn2 O1 1.927630 1_545
Mn2 O5 1.936976 1_555
Mn2 O12 1.946972 1_546
Mn2 O11 1.962648 1_555
Mn2 O9 1.962771 1_545
Mn2 O7 1.963012 1_555
Mn3 O0 1.927622 1_565
Mn3 O4 1.936976 1_554
Mn3 O13 1.946972 1_565
Mn3 O10 1.962648 1_555
Mn3 O8 1.962771 1_565
Mn3 O6 1.963012 1_555
O0 Zn4 2.012501 1_555
O0 Zn2 2.023030 1_655
O0 Zn5 2.066470 1_545
O1 Zn5 2.012492 1_555
O1 Zn3 2.023033 1_455
O1 Zn4 2.066470 1_566
O2 Zn3 2.012501 1_555
O2 Zn5 2.023030 1_545
O2 Zn2 2.066470 1_656
O3 Zn2 2.012501 1_555
O3 Zn4 2.023030 1_565
O3 Zn3 2.066470 1_455
O4 Zn5 2.020202 1_555
O4 Zn2 2.564479 1_556
O5 Zn4 2.020202 1_555
O5 Zn3 2.564479 1_555
O6 Zn2 2.020202 1_555
O6 Zn5 2.564479 1_555
O7 Zn3 2.020202 1_555
O7 Zn4 2.564479 1_556
O8 Zn0 2.048590 1_655
O8 Zn2 2.405688 1_655
O9 Zn1 2.048590 1_455
O9 Zn3 2.405688 1_455
O10 Zn0 2.055066 1_555
O10 Zn1 2.124486 1_554
O11 Zn1 2.055066 1_555
O11 Zn0 2.124486 1_555
O12 Zn0 2.048590 1_565
O12 Zn4 2.405688 1_565
O13 Zn1 2.048590 1_545
O13 Zn5 2.405688 1_545
