# generated using pymatgen
data_DyAl3
_symmetry_space_group_name_H-M   'P 1'
_cell_length_a   6.07002681
_cell_length_b   6.07002681
_cell_length_c   12.42896649
_cell_angle_alpha   75.86610495
_cell_angle_beta   75.86610495
_cell_angle_gamma   60.00001607
_symmetry_Int_Tables_number   1
_chemical_formula_structural   DyAl3
_chemical_formula_sum   'Dy5 Al15'
_cell_volume   380.50278917
_cell_formula_units_Z   5
loop_
 _symmetry_equiv_pos_site_id
 _symmetry_equiv_pos_as_xyz
  1  'x, y, z'
loop_
 _atom_site_type_symbol
 _atom_site_label
 _atom_site_symmetry_multiplicity
 _atom_site_fract_x
 _atom_site_fract_y
 _atom_site_fract_z
 _atom_site_occupancy
  Dy  Dy0  1  -0.00000000  0.00000000  -0.00000000  1
  Dy  Dy1  1  0.13093997  0.13093997  0.60718208  1
  Dy  Dy2  1  0.86906003  0.86906003  0.39281792  1
  Dy  Dy3  1  0.40006547  0.40006547  0.79980560  1
  Dy  Dy4  1  0.59993453  0.59993453  0.20019440  1
  Al  Al0  1  0.50000000  0.50000000  -0.00000000  1
  Al  Al1  1  0.50000000  0.00000000  -0.00000000  1
  Al  Al2  1  -0.00000000  0.50000000  -0.00000000  1
  Al  Al3  1  0.12797956  0.63629178  0.59943688  1
  Al  Al4  1  0.63629178  0.63629178  0.59943688  1
  Al  Al5  1  0.63629178  0.12797956  0.59943688  1
  Al  Al6  1  0.87202044  0.36370822  0.40056312  1
  Al  Al7  1  0.36370822  0.36370822  0.40056312  1
  Al  Al8  1  0.36370822  0.87202044  0.40056312  1
  Al  Al9  1  0.43488768  0.88176841  0.80157549  1
  Al  Al10  1  0.88176841  0.88176841  0.80157549  1
  Al  Al11  1  0.88176841  0.43488768  0.80157549  1
  Al  Al12  1  0.56511232  0.11823159  0.19842451  1
  Al  Al13  1  0.11823159  0.11823159  0.19842451  1
  Al  Al14  1  0.11823159  0.56511232  0.19842451  1
loop_
_geom_bond_atom_site_label_1
_geom_bond_atom_site_label_2
_geom_bond_distance
_geom_bond_site_symmetry_2
Al0 Al11 2.894397 1_554
Al0 Al9 2.894397 1_554
Al0 Al14 2.894397 1_555
Al0 Al12 2.894397 1_555
Al0 Dy3 2.961313 1_554
Al0 Dy4 2.961313 1_555
Al0 Al1 3.035013 1_555
Al0 Al2 3.035013 1_655
Al0 Al2 3.035013 1_555
Al0 Al1 3.035013 1_565
Al0 Dy0 3.035014 1_655
Al0 Dy0 3.035014 1_565
Al1 Al9 2.894396 1_544
Al1 Al12 2.894396 1_555
Al1 Al10 2.894397 1_544
Al1 Al13 2.894397 1_555
Al1 Dy3 2.961319 1_554
Al1 Dy4 2.961319 1_545
Al1 Dy0 3.035013 1_655
Al1 Dy0 3.035013 1_555
Al1 Al2 3.035014 1_645
Al1 Al2 3.035014 1_555
Al2 Dy3 2.961319 1_554
Al2 Dy4 2.961319 1_455
Al2 Dy0 3.035013 1_565
Al2 Dy0 3.035013 1_555
Al3 Al8 2.966040 1_555
Al3 Al7 2.966040 1_555
Al3 Dy3 2.980315 1_555
Al3 Al4 2.984558 1_455
Al3 Al5 2.984559 1_465
Al3 Dy2 3.006629 1_455
Al3 Dy1 3.036552 1_555
Al3 Dy1 3.036564 1_565
Al3 Al4 3.085469 1_555
Al3 Al5 3.085470 1_555
Al4 Al9 2.921210 1_555
Al4 Al6 2.966040 1_555
Al4 Al8 2.966040 1_555
Al4 Dy3 2.980308 1_555
Al4 Al5 2.984558 1_565
Al4 Dy2 3.006622 1_555
Al4 Dy1 3.036559 1_655
Al4 Dy1 3.036559 1_565
Al4 Al5 3.085469 1_555
Al5 Al9 2.921209 1_545
Al5 Al6 2.966040 1_555
Al5 Al7 2.966040 1_555
Al5 Dy3 2.980315 1_555
Al5 Dy2 3.006629 1_545
Al5 Dy1 3.036552 1_555
Al5 Dy1 3.036564 1_655
Al6 Dy4 2.980315 1_555
Al6 Al7 2.984558 1_655
Al6 Al8 2.984559 1_645
Al6 Dy1 3.006629 1_655
Al6 Dy2 3.036552 1_555
Al6 Dy2 3.036564 1_545
Al6 Al7 3.085469 1_555
Al6 Al8 3.085470 1_555
Al7 Dy4 2.980308 1_555
Al7 Al8 2.984558 1_545
Al7 Dy1 3.006622 1_555
Al7 Dy2 3.036559 1_545
Al7 Dy2 3.036559 1_455
Al7 Al8 3.085469 1_555
Al8 Dy4 2.980315 1_555
Al8 Dy1 3.006629 1_565
Al8 Dy2 3.036552 1_555
Al8 Dy2 3.036564 1_455
Al9 Dy1 3.021746 1_565
Al9 Dy3 3.040784 1_555
Al9 Dy3 3.040796 1_565
Al9 Dy0 3.058779 1_566
Al10 Al9 2.712578 1_555
Al10 Al11 2.712578 1_555
Al10 Al2 2.894397 1_656
Al10 Al3 2.921210 1_655
Al10 Al5 2.921210 1_565
Al10 Dy1 3.021752 1_665
Al10 Dy3 3.040792 1_655
Al10 Dy3 3.040792 1_565
Al10 Dy0 3.058779 1_666
Al11 Al9 2.712579 1_555
Al11 Al2 2.894396 1_656
Al11 Al3 2.921209 1_655
Al11 Al4 2.921210 1_555
Al11 Dy1 3.021746 1_655
Al11 Dy3 3.040784 1_555
Al11 Dy3 3.040796 1_655
Al11 Dy0 3.058779 1_656
Al12 Al13 2.712578 1_555
Al12 Al14 2.712579 1_555
Al12 Al8 2.921209 1_545
Al12 Al7 2.921210 1_555
Al12 Dy2 3.021746 1_545
Al12 Dy4 3.040784 1_555
Al12 Dy4 3.040796 1_545
Al12 Dy0 3.058779 1_655
Al13 Al14 2.712578 1_555
Al13 Al2 2.894397 1_555
Al13 Al6 2.921210 1_455
Al13 Al8 2.921210 1_545
Al13 Dy2 3.021752 1_445
Al13 Dy4 3.040792 1_455
Al13 Dy4 3.040792 1_545
Al13 Dy0 3.058779 1_555
Al14 Al2 2.894396 1_555
Al14 Al6 2.921209 1_455
Al14 Al7 2.921210 1_555
Al14 Dy2 3.021746 1_455
Al14 Dy4 3.040784 1_555
Al14 Dy4 3.040796 1_455
Al14 Dy0 3.058779 1_565
