# generated using pymatgen
data_Li9Mn2Co5O16
_symmetry_space_group_name_H-M   'P 1'
_cell_length_a   5.17893300
_cell_length_b   6.44942531
_cell_length_c   8.60303433
_cell_angle_alpha   97.10335181
_cell_angle_beta   94.37233725
_cell_angle_gamma   95.61770480
_symmetry_Int_Tables_number   1
_chemical_formula_structural   Li9Mn2Co5O16
_chemical_formula_sum   'Li9 Mn2 Co5 O16'
_cell_volume   282.63845085
_cell_formula_units_Z   1
loop_
 _symmetry_equiv_pos_site_id
 _symmetry_equiv_pos_as_xyz
  1  'x, y, z'
loop_
 _atom_site_type_symbol
 _atom_site_label
 _atom_site_symmetry_multiplicity
 _atom_site_fract_x
 _atom_site_fract_y
 _atom_site_fract_z
 _atom_site_occupancy
  Li  Li0  1  0.74075300  0.56012600  0.93259100  1
  Li  Li1  1  0.25547700  0.93915600  0.56162800  1
  Li  Li2  1  0.74894900  0.31678300  0.19322000  1
  Li  Li3  1  0.25922800  0.44463600  0.06361100  1
  Li  Li4  1  0.74307400  0.80223000  0.68270700  1
  Li  Li5  1  0.25133200  0.19019800  0.31709600  1
  Li  Li6  1  0.25774800  0.67284200  0.80648900  1
  Li  Li7  1  0.74467500  0.07120300  0.44229400  1
  Li  Li8  1  0.50021000  0.37536400  0.62503800  1
  Mn  Mn0  1  0.00042900  0.99703500  0.00167800  1
  Mn  Mn1  1  0.49888400  0.12774700  0.87107000  1
  Co  Co0  1  0.00113200  0.74769200  0.25161500  1
  Co  Co1  1  0.00278300  0.50140300  0.49865400  1
  Co  Co2  1  0.50076700  0.87418600  0.12691200  1
  Co  Co3  1  0.98997100  0.25591700  0.74417000  1
  Co  Co4  1  0.49897600  0.62500300  0.37589200  1
  O  O0  1  0.11145800  0.72738800  0.04119400  1
  O  O1  1  0.62570800  0.08972900  0.66977000  1
  O  O2  1  0.11095500  0.48073000  0.28649100  1
  O  O3  1  0.61565900  0.61137700  0.16791100  1
  O  O4  1  0.14682300  0.99355800  0.79439800  1
  O  O5  1  0.65200800  0.37720300  0.41580600  1
  O  O6  1  0.60484200  0.85137100  0.91322300  1
  O  O7  1  0.09905700  0.24104700  0.53740200  1
  O  O8  1  0.37831400  0.38664600  0.84686200  1
  O  O9  1  0.89370400  0.76518500  0.46126500  1
  O  O10  1  0.39634500  0.14408400  0.08929700  1
  O  O11  1  0.85421000  0.25888300  0.95254800  1
  O  O12  1  0.34310500  0.63705300  0.56986200  1
  O  O13  1  0.88881900  0.01671600  0.21394900  1
  O  O14  1  0.89743600  0.52354100  0.70957800  1
  O  O15  1  0.38716700  0.89396700  0.33577700  1
loop_
_geom_bond_atom_site_label_1
_geom_bond_atom_site_label_2
_geom_bond_distance
_geom_bond_site_symmetry_2
Li0 O6 2.090411 1_555
Li0 O11 2.107130 1_555
Li0 O8 2.119609 1_555
Li0 O14 2.134950 1_555
Li0 O3 2.168834 1_556
Li0 O0 2.189575 1_656
Li1 O12 2.051717 1_555
Li1 O15 2.103869 1_555
Li1 O4 2.118152 1_555
Li1 O9 2.148711 1_455
Li1 O1 2.150592 1_565
Li1 O7 2.207713 1_565
Li2 O5 2.017707 1_555
Li2 O2 2.109374 1_655
Li2 O3 2.114225 1_555
Li2 O10 2.116876 1_555
Li2 O13 2.154500 1_555
Li2 O11 2.178157 1_554
Li3 O8 2.011312 1_554
Li3 O0 2.070275 1_555
Li3 O2 2.114132 1_555
Li3 O3 2.118777 1_555
Li3 O10 2.159154 1_555
Li3 O11 2.380598 1_454
Li4 O1 2.020221 1_565
Li4 O14 2.068578 1_555
Li4 O9 2.108428 1_555
Li4 O6 2.156671 1_555
Li4 O12 2.318115 1_555
Li4 O4 2.390278 1_655
Li5 O7 2.108660 1_555
Li5 O2 2.113854 1_555
Li5 O15 2.119583 1_545
Li5 O10 2.148752 1_555
Li5 O13 2.157128 1_455
Li5 O5 2.338745 1_555
Li6 O8 2.066065 1_555
Li6 O14 2.077696 1_455
Li6 O12 2.105656 1_555
Li6 O6 2.117028 1_555
Li6 O0 2.210108 1_556
Li6 O4 2.212690 1_555
Li7 O1 2.089042 1_555
Li7 O7 2.096077 1_655
Li7 O5 2.111166 1_555
Li7 O15 2.154604 1_545
Li7 O13 2.155018 1_555
Li7 O9 2.208228 1_545
Li8 O5 2.019283 1_555
Li8 O12 2.035657 1_555
Li8 O8 2.050366 1_555
Li8 O1 2.082250 1_555
Li8 O7 2.209599 1_555
Li8 O14 2.211201 1_555
Mn0 O0 1.944931 1_555
Mn0 O13 1.950158 1_465
Mn0 O4 1.988676 1_554
Mn0 O11 1.995528 1_464
Mn0 O6 2.206257 1_454
Mn0 O10 2.208773 1_565
Mn1 O8 1.868595 1_555
Mn1 O1 1.894880 1_555
Mn1 O4 1.968504 1_545
Mn1 O6 1.982636 1_545
Mn1 O10 1.982887 1_556
Mn1 O11 1.986204 1_555
Co0 O2 1.916093 1_555
Co0 O9 1.921016 1_455
Co0 O0 1.932455 1_555
Co0 O13 1.939492 1_465
Co0 O3 2.134819 1_455
Co0 O15 2.156924 1_555
Co1 O7 1.859101 1_555
Co1 O9 1.900685 1_455
Co1 O12 1.909982 1_555
Co1 O14 1.926889 1_455
Co1 O2 1.942546 1_555
Co1 O5 1.956093 1_455
Co2 O3 1.914335 1_555
Co2 O15 1.926225 1_555
Co2 O10 1.929792 1_565
Co2 O6 1.947177 1_554
Co2 O13 2.164066 1_565
Co2 O0 2.175352 1_555
Co3 O14 1.888018 1_555
Co3 O7 1.901119 1_655
Co3 O11 1.973515 1_555
Co3 O4 2.026349 1_645
Co3 O1 2.089902 1_555
Co3 O8 2.179261 1_655
Co4 O12 1.904718 1_555
Co4 O5 1.908503 1_555
Co4 O3 1.926329 1_555
Co4 O15 1.943631 1_555
Co4 O2 2.171827 1_555
Co4 O9 2.186518 1_555
