# generated using pymatgen
data_Bi3(AsO4)4
_symmetry_space_group_name_H-M   'P 1'
_cell_length_a   5.60017600
_cell_length_b   9.10831700
_cell_length_c   16.58197481
_cell_angle_alpha   71.86810824
_cell_angle_beta   90.00000000
_cell_angle_gamma   90.00000000
_symmetry_Int_Tables_number   1
_chemical_formula_structural   Bi3(AsO4)4
_chemical_formula_sum   'Bi6 As8 O32'
_cell_volume   803.81533564
_cell_formula_units_Z   2
loop_
 _symmetry_equiv_pos_site_id
 _symmetry_equiv_pos_as_xyz
  1  'x, y, z'
loop_
 _atom_site_type_symbol
 _atom_site_label
 _atom_site_symmetry_multiplicity
 _atom_site_fract_x
 _atom_site_fract_y
 _atom_site_fract_z
 _atom_site_occupancy
  Bi  Bi0  1  0.46324400  0.18382600  0.62378500  1
  Bi  Bi1  1  0.53675600  0.81617400  0.37621500  1
  Bi  Bi2  1  0.96324400  0.81617400  0.87621500  1
  Bi  Bi3  1  0.03675600  0.18382600  0.12378500  1
  Bi  Bi4  1  0.00000000  0.50000000  0.50000000  1
  Bi  Bi5  1  0.50000000  0.50000000  0.00000000  1
  As  As0  1  0.02721900  0.04896800  0.35827300  1
  As  As1  1  0.45204200  0.43360200  0.38999400  1
  As  As2  1  0.95204200  0.56639800  0.11000600  1
  As  As3  1  0.04795800  0.43360200  0.88999400  1
  As  As4  1  0.97278100  0.95103200  0.64172700  1
  As  As5  1  0.54795800  0.56639800  0.61000600  1
  As  As6  1  0.47278100  0.04896800  0.85827300  1
  As  As7  1  0.52721900  0.95103200  0.14172700  1
  O  O0  1  0.47402200  0.83120100  0.24458900  1
  O  O1  1  0.82421000  0.68546400  0.01283700  1
  O  O2  1  0.36709400  0.37478600  0.30930700  1
  O  O3  1  0.42482500  0.13660200  0.13825500  1
  O  O4  1  0.63290600  0.62521400  0.69069300  1
  O  O5  1  0.02597800  0.83120100  0.74458900  1
  O  O6  1  0.86709400  0.62521400  0.19069300  1
  O  O7  1  0.75410000  0.48225500  0.89582500  1
  O  O8  1  0.62192400  0.12217800  0.92392500  1
  O  O9  1  0.52597800  0.16879900  0.75541100  1
  O  O10  1  0.07517500  0.13660200  0.63825500  1
  O  O11  1  0.24590000  0.51774500  0.10417500  1
  O  O12  1  0.29798900  0.60525800  0.39587900  1
  O  O13  1  0.37807600  0.87782200  0.07607500  1
  O  O14  1  0.66592000  0.98064200  0.62190800  1
  O  O15  1  0.16592000  0.01935800  0.87809200  1
  O  O16  1  0.79798900  0.39474200  0.10412100  1
  O  O17  1  0.13290600  0.37478600  0.80930700  1
  O  O18  1  0.12192400  0.87782200  0.57607500  1
  O  O19  1  0.25410000  0.51774500  0.60417500  1
  O  O20  1  0.83408000  0.98064200  0.12190800  1
  O  O21  1  0.33408000  0.01935800  0.37809200  1
  O  O22  1  0.17579000  0.31453600  0.98716300  1
  O  O23  1  0.32421000  0.31453600  0.48716300  1
  O  O24  1  0.70201100  0.39474200  0.60412100  1
  O  O25  1  0.97402200  0.16879900  0.25541100  1
  O  O26  1  0.57517500  0.86339800  0.86174500  1
  O  O27  1  0.87807600  0.12217800  0.42392500  1
  O  O28  1  0.67579000  0.68546400  0.51283700  1
  O  O29  1  0.74590000  0.48225500  0.39582500  1
  O  O30  1  0.20201100  0.60525800  0.89587900  1
  O  O31  1  0.92482500  0.86339800  0.36174500  1
loop_
_geom_bond_atom_site_label_1
_geom_bond_atom_site_label_2
_geom_bond_distance
_geom_bond_site_symmetry_2
Bi0 O9 2.172567 1_555
Bi0 O14 2.179461 1_545
Bi0 O10 2.213907 1_555
Bi0 O24 2.279246 1_555
Bi0 O23 2.340350 1_555
Bi1 O0 2.172567 1_555
Bi1 O21 2.179461 1_565
Bi1 O31 2.213907 1_555
Bi1 O12 2.279246 1_555
Bi1 O28 2.340350 1_555
Bi2 O5 2.172567 1_655
Bi2 O15 2.179461 1_665
Bi2 O26 2.213907 1_555
Bi2 O30 2.279246 1_655
Bi2 O1 2.340350 1_556
Bi3 O25 2.172567 1_455
Bi3 O20 2.179461 1_445
Bi3 O3 2.213907 1_555
Bi3 O16 2.279246 1_455
Bi3 O22 2.340350 1_554
Bi4 O19 2.282290 1_555
Bi4 O29 2.282290 1_455
Bi4 O12 2.377955 1_555
Bi4 O24 2.377955 1_455
Bi4 O28 2.533625 1_455
Bi4 O23 2.533625 1_555
Bi5 O11 2.282290 1_555
Bi5 O7 2.282290 1_554
Bi5 O16 2.377955 1_555
Bi5 O30 2.377955 1_554
Bi5 O1 2.533625 1_555
Bi5 O22 2.533625 1_554
As0 O27 1.667098 1_455
As0 O25 1.740856 1_455
As0 O21 1.754632 1_555
As0 O31 1.768740 1_445
As1 O2 1.658171 1_555
As1 O29 1.714813 1_555
As1 O23 1.788058 1_555
As1 O12 1.814746 1_555
As2 O6 1.658171 1_555
As2 O11 1.714813 1_655
As2 O1 1.788058 1_555
As2 O16 1.814746 1_555
As3 O17 1.658171 1_555
As3 O7 1.714813 1_455
As3 O22 1.788058 1_555
As3 O30 1.814746 1_555
As4 O18 1.667098 1_655
As4 O5 1.740856 1_655
As4 O14 1.754632 1_555
As4 O10 1.768740 1_665
As5 O4 1.658171 1_555
As5 O19 1.714813 1_555
As5 O28 1.788058 1_555
As5 O24 1.814746 1_555
As6 O8 1.667098 1_555
As6 O9 1.740856 1_555
As6 O15 1.754632 1_555
As6 O26 1.768740 1_545
As7 O13 1.667098 1_555
As7 O0 1.740856 1_555
As7 O20 1.754632 1_555
As7 O3 1.768740 1_565
