# generated using pymatgen
data_Er4MgRh
_symmetry_space_group_name_H-M   'P 1'
_cell_length_a   9.57857544
_cell_length_b   9.57856069
_cell_length_c   9.57857423
_cell_angle_alpha   59.99954711
_cell_angle_beta   59.99954227
_cell_angle_gamma   59.99951800
_symmetry_Int_Tables_number   1
_chemical_formula_structural   Er4MgRh
_chemical_formula_sum   'Er16 Mg4 Rh4'
_cell_volume   621.41606989
_cell_formula_units_Z   4
loop_
 _symmetry_equiv_pos_site_id
 _symmetry_equiv_pos_as_xyz
  1  'x, y, z'
loop_
 _atom_site_type_symbol
 _atom_site_label
 _atom_site_symmetry_multiplicity
 _atom_site_fract_x
 _atom_site_fract_y
 _atom_site_fract_z
 _atom_site_occupancy
  Er  Er0  1  0.34614673  0.34614899  0.34614972  1
  Er  Er1  1  0.34614837  0.34615018  0.96155257  1
  Er  Er2  1  0.34614609  0.96155609  0.34614912  1
  Er  Er3  1  0.96155346  0.34614891  0.34614930  1
  Er  Er4  1  0.81275811  0.18724343  0.18724410  1
  Er  Er5  1  0.18724406  0.81275442  0.81275583  1
  Er  Er6  1  0.18724285  0.81275465  0.18724582  1
  Er  Er7  1  0.81275885  0.18724305  0.81275478  1
  Er  Er8  1  0.18724374  0.18724655  0.81275514  1
  Er  Er9  1  0.81275708  0.81275223  0.18724558  1
  Er  Er10  1  0.93559210  0.56440910  0.56440867  1
  Er  Er11  1  0.56440916  0.93559041  0.93559101  1
  Er  Er12  1  0.56440909  0.93558888  0.56440997  1
  Er  Er13  1  0.93559327  0.56440900  0.93558883  1
  Er  Er14  1  0.56440886  0.56440845  0.93559017  1
  Er  Er15  1  0.93559345  0.93558840  0.56440942  1
  Mg  Mg0  1  0.57933218  0.57933364  0.57933196  1
  Mg  Mg1  1  0.57932245  0.57932404  0.26202162  1
  Mg  Mg2  1  0.57932238  0.26202181  0.57932318  1
  Mg  Mg3  1  0.26201897  0.57932410  0.57932373  1
  Rh  Rh0  1  0.14165996  0.14166361  0.14165995  1
  Rh  Rh1  1  0.14166026  0.14166297  0.57501612  1
  Rh  Rh2  1  0.14165976  0.57501468  0.14166255  1
  Rh  Rh3  1  0.57501778  0.14166140  0.14165987  1
loop_
_geom_bond_atom_site_label_1
_geom_bond_atom_site_label_2
_geom_bond_distance
_geom_bond_site_symmetry_2
Er0 Rh1 2.779815 1_555
Er0 Rh2 2.779825 1_555
Er0 Rh3 2.779849 1_555
Er0 Mg3 3.466275 1_555
Er0 Mg2 3.466281 1_555
Er0 Mg1 3.466288 1_555
Er0 Er10 3.483362 1_455
Er0 Er14 3.483396 1_554
Er0 Er12 3.483399 1_545
Er1 Rh2 2.779826 1_556
Er1 Rh0 2.779836 1_556
Er1 Rh3 2.779847 1_556
Er1 Mg0 3.466325 1_555
Er1 Mg2 3.466329 1_555
Er1 Mg3 3.466329 1_555
Er1 Er13 3.483373 1_455
Er1 Er11 3.483399 1_545
Er1 Er14 3.483400 1_555
Er2 Rh1 2.779825 1_565
Er2 Rh0 2.779839 1_565
Er2 Rh3 2.779850 1_565
Er2 Mg0 3.466338 1_555
Er2 Mg3 3.466341 1_555
Er2 Mg1 3.466342 1_555
Er3 Rh2 2.779813 1_655
Er3 Rh1 2.779825 1_655
Er3 Rh0 2.779833 1_655
Er3 Mg0 3.466327 1_555
Er3 Mg2 3.466338 1_555
Er3 Mg1 3.466339 1_555
Er4 Rh0 2.783152 1_655
Er4 Rh3 2.783201 1_555
Er4 Mg2 3.508253 1_555
Er4 Mg1 3.508257 1_555
Er5 Rh2 2.783175 1_556
Er5 Rh1 2.783184 1_565
Er5 Mg0 3.508229 1_555
Er5 Mg3 3.508324 1_555
Er6 Rh2 2.783195 1_555
Er6 Rh0 2.783199 1_565
Er6 Mg3 3.508235 1_555
Er6 Mg1 3.508247 1_555
Er7 Rh1 2.783139 1_655
Er7 Rh3 2.783170 1_556
Er7 Mg0 3.508258 1_555
Er7 Mg2 3.508357 1_555
Er8 Rh0 2.783171 1_556
Er8 Rh1 2.783193 1_555
Er8 Mg3 3.508224 1_555
Er8 Mg2 3.508238 1_555
Er9 Rh2 2.783142 1_655
Er9 Rh3 2.783185 1_565
Er9 Mg0 3.508218 1_555
Er9 Mg1 3.508323 1_555
Er10 Mg0 3.275755 1_555
Er10 Mg3 3.275808 1_655
Er10 Rh1 3.478438 1_655
Er10 Rh2 3.478448 1_655
Er10 Er3 3.483411 1_555
Er10 Er12 3.555360 1_555
Er10 Er14 3.555374 1_555
Er10 Er15 3.555374 1_555
Er10 Er13 3.555382 1_555
Er10 Er6 3.598918 1_655
Er10 Er8 3.598924 1_655
Er10 Er9 3.598937 1_555
Er10 Er7 3.598949 1_555
Er11 Mg1 3.275846 1_556
Er11 Mg2 3.275857 1_565
Er11 Rh0 3.478461 1_566
Er11 Rh3 3.478482 1_566
Er11 Er2 3.483404 1_556
Er11 Er13 3.555373 1_555
Er11 Er15 3.555379 1_555
Er11 Er12 3.555393 1_555
Er11 Er14 3.555394 1_555
Er11 Er8 3.598959 1_565
Er11 Er6 3.598966 1_556
Er11 Er9 3.598976 1_556
Er11 Er7 3.598979 1_565
Er12 Mg0 3.275717 1_555
Er12 Mg2 3.275842 1_565
Er12 Rh1 3.478469 1_565
Er12 Rh3 3.478474 1_565
Er12 Er2 3.483420 1_555
Er12 Er14 3.555351 1_555
Er12 Er15 3.555412 1_555
Er12 Er5 3.598950 1_555
Er12 Er9 3.598954 1_555
Er12 Er8 3.598956 1_565
Er12 Er4 3.598963 1_565
Er13 Mg3 3.275820 1_655
Er13 Mg1 3.275881 1_556
Er13 Rh0 3.478425 1_656
Er13 Rh2 3.478471 1_656
Er13 Er3 3.483407 1_556
Er13 Er15 3.555343 1_555
Er13 Er14 3.555414 1_555
Er13 Er8 3.598920 1_655
Er13 Er5 3.598940 1_655
Er13 Er4 3.598954 1_556
Er13 Er9 3.598959 1_556
Er14 Mg0 3.275735 1_555
Er14 Mg1 3.275846 1_556
Er14 Rh3 3.478443 1_556
Er14 Rh2 3.478472 1_556
Er14 Er5 3.598947 1_555
Er14 Er7 3.598952 1_555
Er14 Er6 3.598953 1_556
Er14 Er4 3.598956 1_556
Er15 Mg3 3.275811 1_655
Er15 Mg2 3.275882 1_565
Er15 Rh0 3.478463 1_665
Er15 Rh1 3.478485 1_665
Er15 Er2 3.483366 1_655
Er15 Er3 3.483402 1_565
Er15 Er6 3.598933 1_655
Er15 Er5 3.598946 1_655
Er15 Er4 3.598956 1_565
Er15 Er7 3.598964 1_565
Mg0 Mg1 3.039473 1_555
Mg0 Mg2 3.039480 1_555
Mg0 Mg3 3.039494 1_555
Mg1 Mg2 3.039277 1_555
Mg1 Mg3 3.039288 1_555
Mg2 Mg3 3.039285 1_555
