# generated using pymatgen
data_Ba12Br3Cl2F19
_symmetry_space_group_name_H-M   'P 1'
_cell_length_a   14.36431195
_cell_length_b   14.36431195
_cell_length_c   4.39809100
_cell_angle_alpha   90.00000000
_cell_angle_beta   90.00000000
_cell_angle_gamma   120.01436020
_symmetry_Int_Tables_number   1
_chemical_formula_structural   Ba12Br3Cl2F19
_chemical_formula_sum   'Ba12 Br3 Cl2 F19'
_cell_volume   785.78120556
_cell_formula_units_Z   1
loop_
 _symmetry_equiv_pos_site_id
 _symmetry_equiv_pos_as_xyz
  1  'x, y, z'
loop_
 _atom_site_type_symbol
 _atom_site_label
 _atom_site_symmetry_multiplicity
 _atom_site_fract_x
 _atom_site_fract_y
 _atom_site_fract_z
 _atom_site_occupancy
  Ba  Ba0  1  0.00007000  0.37867300  0.00000000  1
  Ba  Ba1  1  0.37867300  0.00007000  0.00000000  1
  Ba  Ba2  1  0.61952700  0.61952700  0.00000000  1
  Ba  Ba3  1  0.17758200  0.17758200  0.00000000  1
  Ba  Ba4  1  0.00228100  0.82276600  0.00000000  1
  Ba  Ba5  1  0.82276600  0.00228100  0.00000000  1
  Ba  Ba6  1  0.69542400  0.16693200  0.50000000  1
  Ba  Ba7  1  0.47134000  0.30433800  0.50000000  1
  Ba  Ba8  1  0.83307900  0.52875700  0.50000000  1
  Ba  Ba9  1  0.16693200  0.69542400  0.50000000  1
  Ba  Ba10  1  0.30433800  0.47134000  0.50000000  1
  Ba  Ba11  1  0.52875700  0.83307900  0.50000000  1
  Br  Br0  1  0.80913200  0.80913200  0.50000000  1
  Br  Br1  1  0.66660500  0.33326700  0.00000000  1
  Br  Br2  1  0.33326700  0.66660500  0.00000000  1
  Cl  Cl0  1  0.00007000  0.19073300  0.50000000  1
  Cl  Cl1  1  0.19073300  0.00007000  0.50000000  1
  F  F0  1  0.80886900  0.18463500  0.00000000  1
  F  F1  1  0.37547800  0.19114300  0.00000000  1
  F  F2  1  0.81571200  0.62407300  0.00000000  1
  F  F3  1  0.18463500  0.80886900  0.00000000  1
  F  F4  1  0.19114300  0.37547800  0.00000000  1
  F  F5  1  0.62407300  0.81571200  0.00000000  1
  F  F6  1  0.56563800  0.00006800  0.00000000  1
  F  F7  1  0.43400400  0.43400400  0.00000000  1
  F  F8  1  0.00006800  0.56563800  0.00000000  1
  F  F9  1  0.00028400  0.00028400  0.00000000  1
  F  F10  1  0.72272200  0.00029100  0.50000000  1
  F  F11  1  0.27702500  0.27702500  0.50000000  1
  F  F12  1  0.00029100  0.72272200  0.50000000  1
  F  F13  1  0.87562100  0.36640200  0.50000000  1
  F  F14  1  0.49085500  0.12438700  0.50000000  1
  F  F15  1  0.63333800  0.50877700  0.50000000  1
  F  F16  1  0.36640200  0.87562100  0.50000000  1
  F  F17  1  0.12438700  0.49085500  0.50000000  1
  F  F18  1  0.50877700  0.63333800  0.50000000  1
loop_
_geom_bond_atom_site_label_1
_geom_bond_atom_site_label_2
_geom_bond_distance
_geom_bond_site_symmetry_2
Ba0 F8 2.685638 1_555
Ba0 F0 2.766471 1_455
Ba0 F4 2.767874 1_555
Ba0 F17 2.782533 1_555
Ba0 F17 2.782533 1_554
Ba0 F13 2.783386 1_455
Ba0 F13 2.783386 1_454
Ba0 Cl0 3.481924 1_555
Ba0 Cl0 3.481924 1_554
Ba1 F6 2.685638 1_555
Ba1 F3 2.766471 1_545
Ba1 F1 2.767874 1_555
Ba1 F14 2.782533 1_554
Ba1 F14 2.782533 1_555
Ba1 F16 2.783386 1_545
Ba1 F16 2.783386 1_544
Ba1 Cl1 3.481924 1_555
Ba1 Cl1 3.481924 1_554
Ba2 F7 2.664332 1_555
Ba2 F18 2.778793 1_554
Ba2 F18 2.778793 1_555
Ba2 F15 2.778793 1_554
Ba2 F15 2.778793 1_555
Ba2 F2 2.785972 1_555
Ba2 F5 2.785972 1_555
Ba2 Br0 3.500040 1_554
Ba2 Br0 3.500040 1_555
Ba3 F9 2.546211 1_555
Ba3 F11 2.622085 1_554
Ba3 F11 2.622085 1_555
Ba3 F4 2.750377 1_555
Ba3 F1 2.750377 1_555
Ba3 Cl1 3.443116 1_554
Ba3 Cl0 3.443116 1_555
Ba3 Cl0 3.443116 1_554
Ba3 Cl1 3.443116 1_555
Ba4 F9 2.564393 1_565
Ba4 F12 2.619289 1_554
Ba4 F12 2.619289 1_555
Ba4 F3 2.724732 1_555
Ba4 F2 2.770520 1_455
Ba4 Cl1 3.428226 1_564
Ba4 Cl1 3.428226 1_565
Ba4 Br0 3.468162 1_455
Ba4 Br0 3.468162 1_454
Ba5 F9 2.564393 1_655
Ba5 F10 2.619289 1_554
Ba5 F10 2.619289 1_555
Ba5 F0 2.724732 1_555
Ba5 F5 2.770520 1_545
Ba5 Cl0 3.428226 1_654
Ba5 Cl0 3.428226 1_655
Ba5 Br0 3.468162 1_544
Ba5 Br0 3.468162 1_545
Ba6 F10 2.611989 1_555
Ba6 F0 2.672333 1_556
Ba6 F0 2.672333 1_555
Ba6 F14 2.685450 1_555
Ba6 F13 2.736759 1_555
Ba6 F6 3.096128 1_555
Ba6 F6 3.096128 1_556
Ba6 Br1 3.421312 1_556
Ba6 Br1 3.421312 1_555
Ba7 F11 2.617093 1_555
Ba7 F1 2.671285 1_556
Ba7 F1 2.671285 1_555
Ba7 F15 2.683689 1_555
Ba7 F14 2.735882 1_555
Ba7 F7 3.097080 1_555
Ba7 F7 3.097080 1_556
Ba7 Br1 3.421929 1_555
Ba7 Br1 3.421929 1_556
Ba8 F12 2.614736 1_655
Ba8 F2 2.667265 1_555
Ba8 F2 2.667265 1_556
Ba8 F13 2.690343 1_555
Ba8 F15 2.736886 1_555
Ba8 F8 3.098198 1_655
Ba8 F8 3.098198 1_656
Ba8 Br1 3.423671 1_556
Ba8 Br1 3.423671 1_555
Ba9 F12 2.611989 1_555
Ba9 F3 2.672333 1_556
Ba9 F3 2.672333 1_555
Ba9 F17 2.685450 1_555
Ba9 F16 2.736759 1_555
Ba9 F8 3.096128 1_555
Ba9 F8 3.096128 1_556
Ba9 Br2 3.421312 1_556
Ba9 Br2 3.421312 1_555
Ba10 F11 2.617093 1_555
Ba10 F4 2.671285 1_556
Ba10 F4 2.671285 1_555
Ba10 F18 2.683689 1_555
Ba10 F17 2.735882 1_555
Ba10 F7 3.097080 1_555
Ba10 F7 3.097080 1_556
Ba10 Br2 3.421929 1_556
Ba10 Br2 3.421929 1_555
Ba11 F10 2.614736 1_565
Ba11 F5 2.667265 1_556
Ba11 F5 2.667265 1_555
Ba11 F16 2.690343 1_555
Ba11 F18 2.736886 1_555
Ba11 F6 3.098198 1_566
Ba11 F6 3.098198 1_565
Ba11 Br2 3.423671 1_556
Ba11 Br2 3.423671 1_555
