# generated using pymatgen
data_TmGa4Ni
_symmetry_space_group_name_H-M   'P 1'
_cell_length_a   7.75267741
_cell_length_b   7.75267741
_cell_length_c   6.50760877
_cell_angle_alpha   90.00000000
_cell_angle_beta   90.00000000
_cell_angle_gamma   149.79364497
_symmetry_Int_Tables_number   1
_chemical_formula_structural   TmGa4Ni
_chemical_formula_sum   'Tm2 Ga8 Ni2'
_cell_volume   196.78537713
_cell_formula_units_Z   2
loop_
 _symmetry_equiv_pos_site_id
 _symmetry_equiv_pos_as_xyz
  1  'x, y, z'
loop_
 _atom_site_type_symbol
 _atom_site_label
 _atom_site_symmetry_multiplicity
 _atom_site_fract_x
 _atom_site_fract_y
 _atom_site_fract_z
 _atom_site_occupancy
  Tm  Tm0  1  0.87893724  0.12106276  0.75000000  1
  Tm  Tm1  1  0.12106276  0.87893724  0.25000000  1
  Ga  Ga0  1  0.50000000  0.50000000  -0.00000000  1
  Ga  Ga1  1  0.50000000  0.50000000  0.50000000  1
  Ga  Ga2  1  0.06947845  0.93052155  0.75000000  1
  Ga  Ga3  1  0.93052155  0.06947845  0.25000000  1
  Ga  Ga4  1  0.68500081  0.31499919  0.94875327  1
  Ga  Ga5  1  0.31499919  0.68500081  0.05124673  1
  Ga  Ga6  1  0.68500081  0.31499919  0.55124673  1
  Ga  Ga7  1  0.31499919  0.68500081  0.44875327  1
  Ni  Ni0  1  0.22437596  0.77562404  0.75000000  1
  Ni  Ni1  1  0.77562404  0.22437596  0.25000000  1
loop_
_geom_bond_atom_site_label_1
_geom_bond_atom_site_label_2
_geom_bond_distance
_geom_bond_site_symmetry_2
Ga0 Ga4 2.789427 1_554
Ga0 Ga5 2.789427 1_555
Ga0 Ga2 2.794470 1_544
Ga0 Ga3 2.794470 1_565
Ga0 Ga2 2.794470 1_654
Ga0 Ga3 2.794470 1_455
Ga0 Tm1 3.164122 1_545
Ga0 Tm0 3.164122 1_564
Ga0 Tm0 3.164122 1_454
Ga0 Tm1 3.164122 1_655
Ga1 Ga6 2.789427 1_555
Ga1 Ga7 2.789427 1_555
Ga1 Ga2 2.794470 1_655
Ga1 Ga2 2.794470 1_545
Ga1 Ga3 2.794470 1_565
Ga1 Ga3 2.794470 1_455
Ga1 Tm0 3.164122 1_455
Ga1 Tm1 3.164122 1_545
Ga1 Tm0 3.164122 1_565
Ga1 Tm1 3.164122 1_655
Ga2 Ni0 2.318780 1_555
Ga2 Tm0 2.852358 1_465
Ga2 Ga4 2.957030 1_455
Ga2 Ga6 2.957030 1_565
Ga2 Ga4 2.957030 1_565
Ga2 Ga6 2.957030 1_455
Ga2 Tm1 3.344181 1_556
Ga2 Tm1 3.344181 1_555
Ga3 Ni1 2.318780 1_555
Ga3 Tm1 2.852358 1_645
Ga3 Ga5 2.957030 1_545
Ga3 Ga5 2.957030 1_655
Ga3 Ga7 2.957030 1_655
Ga3 Ga7 2.957030 1_545
Ga3 Tm0 3.344181 1_555
Ga3 Tm0 3.344181 1_554
Ga4 Ni1 2.384018 1_556
Ga4 Ni0 2.469986 1_655
Ga4 Ni0 2.469986 1_545
Ga4 Ga6 2.586817 1_555
Ga4 Ga5 2.883133 1_546
Ga4 Ga5 2.883133 1_656
Ga4 Tm1 2.973173 1_546
Ga4 Tm1 2.973173 1_656
Ga4 Tm0 3.178267 1_555
Ga5 Ni0 2.384018 1_554
Ga5 Ni1 2.469986 1_565
Ga5 Ni1 2.469986 1_455
Ga5 Ga7 2.586817 1_555
Ga5 Tm0 2.973173 1_564
Ga5 Tm0 2.973173 1_454
Ga5 Tm1 3.178267 1_555
Ga6 Ni1 2.384018 1_555
Ga6 Ni0 2.469986 1_655
Ga6 Ni0 2.469986 1_545
Ga6 Ga7 2.883133 1_545
Ga6 Ga7 2.883133 1_655
Ga6 Tm1 2.973173 1_655
Ga6 Tm1 2.973173 1_545
Ga6 Tm0 3.178267 1_555
Ga7 Ni0 2.384018 1_555
Ga7 Ni1 2.469986 1_565
Ga7 Ni1 2.469986 1_455
Ga7 Tm0 2.973173 1_455
Ga7 Tm0 2.973173 1_565
Ga7 Tm1 3.178267 1_555
Ni0 Tm0 3.071468 1_455
Ni0 Tm0 3.071468 1_565
Ni1 Tm1 3.071468 1_655
Ni1 Tm1 3.071468 1_545
