# generated using pymatgen
data_Sr(SbRu)2
_symmetry_space_group_name_H-M   'P 1'
_cell_length_a   6.54380421
_cell_length_b   6.54380421
_cell_length_c   6.54380421
_cell_angle_alpha   139.83609429
_cell_angle_beta   139.83609429
_cell_angle_gamma   58.10225073
_symmetry_Int_Tables_number   1
_chemical_formula_structural   Sr(SbRu)2
_chemical_formula_sum   'Sr1 Sb2 Ru2'
_cell_volume   115.52189932
_cell_formula_units_Z   1
loop_
 _symmetry_equiv_pos_site_id
 _symmetry_equiv_pos_as_xyz
  1  'x, y, z'
loop_
 _atom_site_type_symbol
 _atom_site_label
 _atom_site_symmetry_multiplicity
 _atom_site_fract_x
 _atom_site_fract_y
 _atom_site_fract_z
 _atom_site_occupancy
  Sr  Sr0  1  0.00000000  0.00000000  0.00000000  1
  Sb  Sb0  1  0.63643800  0.63643800  0.00000000  1
  Sb  Sb1  1  0.36356200  0.36356200  0.00000000  1
  Ru  Ru0  1  0.75000000  0.25000000  0.50000000  1
  Ru  Ru1  1  0.25000000  0.75000000  0.50000000  1
loop_
_geom_bond_atom_site_label_1
_geom_bond_atom_site_label_2
_geom_bond_distance
_geom_bond_site_symmetry_2
Sb0 Sb1 3.121978 1_555
Sb0 Sr0 3.540319 1_565
Sb0 Sr0 3.540319 1_666
Sb0 Sr0 3.540319 1_655
Sb0 Sr0 3.540319 1_554
Sb1 Sr0 3.540319 1_554
Sb1 Sr0 3.540319 1_655
Sb1 Sr0 3.540319 1_565
Sb1 Sr0 3.540319 1_666
Ru0 Sb1 2.595510 1_656
Ru0 Sb1 2.595510 1_555
Ru0 Sb0 2.595510 1_545
Ru0 Sb0 2.595510 1_556
Ru0 Sr0 3.637257 1_656
Ru0 Sr0 3.637257 1_666
Ru0 Sr0 3.637257 1_655
Ru0 Sr0 3.637257 1_555
Ru1 Sb1 2.595510 1_566
Ru1 Sb1 2.595510 1_555
Ru1 Sb0 2.595510 1_556
Ru1 Sb0 2.595510 1_455
Ru1 Sr0 3.637257 1_566
Ru1 Sr0 3.637257 1_565
Ru1 Sr0 3.637257 1_666
Ru1 Sr0 3.637257 1_555
