# generated using pymatgen
data_MnBe12
_symmetry_space_group_name_H-M   'P 1'
_cell_length_a   4.12486700
_cell_length_b   5.50490525
_cell_length_c   5.50490631
_cell_angle_alpha   81.90986503
_cell_angle_beta   67.98085668
_cell_angle_gamma   67.98088404
_symmetry_Int_Tables_number   1
_chemical_formula_structural   MnBe12
_chemical_formula_sum   'Mn1 Be12'
_cell_volume   107.42966433
_cell_formula_units_Z   1
loop_
 _symmetry_equiv_pos_site_id
 _symmetry_equiv_pos_as_xyz
  1  'x, y, z'
loop_
 _atom_site_type_symbol
 _atom_site_label
 _atom_site_symmetry_multiplicity
 _atom_site_fract_x
 _atom_site_fract_y
 _atom_site_fract_z
 _atom_site_occupancy
  Mn  Mn0  1  -0.00000000  0.00000000  0.00000000  1
  Be  Be0  1  -0.00000000  0.00000000  0.50000000  1
  Be  Be1  1  0.50000000  0.00000000  0.50000000  1
  Be  Be2  1  0.50000000  0.50000000  0.00000000  1
  Be  Be3  1  -0.00000000  0.50000000  0.00000000  1
  Be  Be4  1  0.00000000  0.34825625  0.65174375  1
  Be  Be5  1  -0.00000000  0.65174375  0.34825625  1
  Be  Be6  1  0.65289362  0.34777175  0.34777175  1
  Be  Be7  1  0.34710638  0.65222825  0.65222825  1
  Be  Be8  1  0.50000000  0.78541093  0.21458907  1
  Be  Be9  1  0.50000000  0.21458907  0.78541093  1
  Be  Be10  1  0.71421768  0.78594825  0.78594825  1
  Be  Be11  1  0.28578232  0.21405175  0.21405175  1
loop_
_geom_bond_atom_site_label_1
_geom_bond_atom_site_label_2
_geom_bond_distance
_geom_bond_site_symmetry_2
Be0 Be1 2.062434 1_455
Be0 Be1 2.062434 1_555
Be0 Be8 2.093659 1_545
Be0 Be9 2.093659 1_455
Be0 Be11 2.093805 1_555
Be0 Be10 2.093805 1_445
Be0 Be7 2.193198 1_545
Be0 Be6 2.193198 1_455
Be0 Be5 2.196330 1_545
Be0 Be4 2.196330 1_555
Be0 Mn0 2.752453 1_555
Be0 Mn0 2.752453 1_556
Be1 Be8 2.094371 1_545
Be1 Be9 2.094371 1_555
Be1 Be10 2.094582 1_545
Be1 Be11 2.094582 1_555
Be1 Be5 2.195652 1_645
Be1 Be4 2.195652 1_555
Be1 Be7 2.196042 1_545
Be1 Be6 2.196042 1_555
Be1 Mn0 2.751911 1_655
Be1 Mn0 2.751911 1_556
Be2 Be3 2.062434 1_555
Be2 Be3 2.062434 1_655
Be2 Be9 2.094371 1_554
Be2 Be8 2.094371 1_555
Be2 Be4 2.195652 1_654
Be2 Be5 2.195652 1_555
Be2 Be7 2.196043 1_554
Be2 Be6 2.196043 1_555
Be2 Mn0 2.751912 1_655
Be2 Mn0 2.751912 1_565
Be3 Be8 2.093660 1_455
Be3 Be9 2.093660 1_554
Be3 Be6 2.193197 1_455
Be3 Be7 2.193197 1_554
Be3 Be5 2.196331 1_555
Be3 Be4 2.196331 1_554
Be3 Mn0 2.752453 1_565
Be3 Mn0 2.752453 1_555
Be4 Be5 2.190132 1_555
Be4 Be9 2.276865 1_455
Be4 Be9 2.276866 1_555
Be4 Mn0 2.513208 1_556
Be5 Be8 2.276865 1_555
Be5 Be8 2.276866 1_455
Be5 Mn0 2.513208 1_565
Be6 Be7 2.197561 1_555
Be6 Be9 2.334439 1_555
Be6 Be8 2.334439 1_555
Be6 Mn0 2.510207 1_655
Be7 Be8 2.334439 1_555
Be7 Be9 2.334439 1_555
Be7 Mn0 2.510207 1_566
Be8 Mn0 2.579102 1_665
Be8 Mn0 2.579103 1_565
Be9 Mn0 2.579102 1_556
Be9 Mn0 2.579103 1_656
Be10 Be3 2.093805 1_656
Be10 Be2 2.094581 1_556
Be10 Be8 2.187514 1_556
Be10 Be9 2.187514 1_565
Be10 Be7 2.273652 1_655
Be10 Be7 2.280563 1_555
Be10 Be5 2.336476 1_655
Be10 Be4 2.336476 1_655
Be10 Mn0 2.576905 1_666
Be10 Mn0 2.577011 1_566
Be11 Be3 2.093805 1_555
Be11 Be2 2.094581 1_555
Be11 Be9 2.187514 1_554
Be11 Be8 2.187514 1_545
Be11 Be6 2.273652 1_455
Be11 Be6 2.280563 1_555
Be11 Be4 2.336476 1_555
Be11 Be5 2.336476 1_555
Be11 Mn0 2.576905 1_555
Be11 Mn0 2.577011 1_655
