# generated using pymatgen
data_K3Ni(NO2)5
_symmetry_space_group_name_H-M   'P 1'
_cell_length_a   11.15221800
_cell_length_b   7.23735100
_cell_length_c   7.32093386
_cell_angle_alpha   82.01401267
_cell_angle_beta   90.00000000
_cell_angle_gamma   90.00000000
_symmetry_Int_Tables_number   1
_chemical_formula_structural   K3Ni(NO2)5
_chemical_formula_sum   'K6 Ni2 N10 O20'
_cell_volume   585.16057608
_cell_formula_units_Z   2
loop_
 _symmetry_equiv_pos_site_id
 _symmetry_equiv_pos_as_xyz
  1  'x, y, z'
loop_
 _atom_site_type_symbol
 _atom_site_label
 _atom_site_symmetry_multiplicity
 _atom_site_fract_x
 _atom_site_fract_y
 _atom_site_fract_z
 _atom_site_occupancy
  K  K0  1  0.25031300  0.77350500  0.68696200  1
  K  K1  1  0.75031300  0.22649500  0.31303800  1
  K  K2  1  0.50611600  0.27459200  0.80371300  1
  K  K3  1  0.00611600  0.72540800  0.19628700  1
  K  K4  1  0.49172800  0.72461900  0.19554600  1
  K  K5  1  0.99172800  0.27538100  0.80445400  1
  Ni  Ni0  1  0.25022200  0.24122900  0.29031600  1
  Ni  Ni1  1  0.75022200  0.75877100  0.70968400  1
  N  N0  1  0.25497800  0.99748500  0.16897400  1
  N  N1  1  0.75497800  0.00251500  0.83102600  1
  N  N2  1  0.24997000  0.43683100  0.05207800  1
  N  N3  1  0.74997000  0.56316900  0.94792200  1
  N  N4  1  0.24965600  0.32127600  0.62320300  1
  N  N5  1  0.74965600  0.67872400  0.37679700  1
  N  N6  1  0.44458300  0.22277200  0.30143100  1
  N  N7  1  0.94458300  0.77722800  0.69856900  1
  N  N8  1  0.55666100  0.77649300  0.69805700  1
  N  N9  1  0.05666100  0.22350700  0.30194300  1
  O  O0  1  0.15331300  0.50295600  0.98127700  1
  O  O1  1  0.65331300  0.49704400  0.01872300  1
  O  O2  1  0.84672400  0.49771900  0.01875600  1
  O  O3  1  0.34672400  0.50228100  0.98124400  1
  O  O4  1  0.24790100  0.84191700  0.27358500  1
  O  O5  1  0.74790100  0.15808300  0.72641500  1
  O  O6  1  0.24962600  0.15466800  0.58331900  1
  O  O7  1  0.74962600  0.84533200  0.41668100  1
  O  O8  1  0.50292700  0.11940800  0.20741700  1
  O  O9  1  0.00292700  0.88059200  0.79258300  1
  O  O10  1  0.50015500  0.88076100  0.79318100  1
  O  O11  1  0.00015500  0.11923900  0.20681900  1
  O  O12  1  0.25007500  0.44363200  0.48104700  1
  O  O13  1  0.75007500  0.55636800  0.51895300  1
  O  O14  1  0.50357700  0.31250500  0.40667800  1
  O  O15  1  0.00357700  0.68749500  0.59332200  1
  O  O16  1  0.49599900  0.68872600  0.59297600  1
  O  O17  1  0.99599900  0.31127400  0.40702400  1
  O  O18  1  0.26967300  0.99596200  0.00018800  1
  O  O19  1  0.76967300  0.00403800  0.99981200  1
loop_
_geom_bond_atom_site_label_1
_geom_bond_atom_site_label_2
_geom_bond_distance
_geom_bond_site_symmetry_2
K0 O6 2.757555 1_565
K0 O0 2.911097 1_555
K0 O16 2.911101 1_555
K0 O3 2.911295 1_555
K0 O15 2.923630 1_555
K0 O18 2.987121 1_556
K0 O12 2.995374 1_555
K0 O9 2.996103 1_555
K0 O4 2.998008 1_555
K0 O10 3.022980 1_555
K1 O7 2.757555 1_545
K1 O1 2.911097 1_555
K1 O17 2.911101 1_555
K1 O2 2.911295 1_555
K1 O14 2.923630 1_555
K1 O19 2.987121 1_554
K1 O13 2.995374 1_555
K1 O8 2.996103 1_555
K1 O5 2.998008 1_555
K1 O11 3.022980 1_655
K2 O3 2.856490 1_555
K2 O10 2.862796 1_545
K2 O14 2.881526 1_555
K2 O5 2.904242 1_555
K2 O1 2.910088 1_556
K2 O8 3.012517 1_556
K2 N4 3.149066 1_555
K2 O16 3.176709 1_555
K3 O2 2.856490 1_455
K3 O11 2.862796 1_565
K3 O15 2.881526 1_555
K3 O4 2.904242 1_555
K3 O0 2.910088 1_554
K3 O9 3.012517 1_554
K3 N5 3.149066 1_455
K3 O17 3.176709 1_455
K4 O1 2.868492 1_555
K4 O8 2.873307 1_565
K4 O16 2.885354 1_555
K4 O3 2.892626 1_554
K4 O4 2.928474 1_555
K4 O10 3.006325 1_554
K4 O14 3.165690 1_555
K4 N5 3.165860 1_555
K5 O0 2.868492 1_655
K5 O9 2.873307 1_645
K5 O17 2.885354 1_555
K5 O2 2.892626 1_556
K5 O5 2.928474 1_555
K5 O11 3.006325 1_656
K5 O15 3.165690 1_655
K5 N4 3.165860 1_655
Ni0 O6 2.149507 1_555
Ni0 O12 2.159607 1_555
Ni1 O7 2.149507 1_555
Ni1 O13 2.159607 1_555
N0 O18 1.248057 1_555
N0 O4 1.273112 1_555
N0 Ni0 2.083098 1_565
N1 O19 1.248057 1_555
N1 O5 1.273112 1_555
N1 Ni1 2.083098 1_545
N2 O3 1.260685 1_554
N2 O0 1.261239 1_554
N2 Ni0 2.088052 1_555
N3 O2 1.260685 1_556
N3 O1 1.261239 1_556
N3 Ni1 2.088052 1_555
N4 O12 1.269332 1_555
N4 O6 1.279469 1_555
N5 O13 1.269332 1_555
N5 O7 1.279469 1_555
N6 O14 1.259892 1_555
N6 O8 1.264821 1_555
N6 Ni0 2.172497 1_555
N7 O15 1.259892 1_655
N7 O9 1.264821 1_655
N7 Ni1 2.172497 1_555
N8 O16 1.260453 1_555
N8 O10 1.263945 1_555
N8 Ni1 2.163415 1_555
N9 O17 1.260453 1_455
N9 O11 1.263945 1_555
N9 Ni0 2.163415 1_555
