# generated using pymatgen
data_LiMg5
_symmetry_space_group_name_H-M   'P 1'
_cell_length_a   16.60921685
_cell_length_b   16.60921685
_cell_length_c   10.24226588
_cell_angle_alpha   90.00000000
_cell_angle_beta   90.00000000
_cell_angle_gamma   158.14443537
_symmetry_Int_Tables_number   1
_chemical_formula_structural   LiMg5
_chemical_formula_sum   'Li8 Mg40'
_cell_volume   1051.84118246
_cell_formula_units_Z   8
loop_
 _symmetry_equiv_pos_site_id
 _symmetry_equiv_pos_as_xyz
  1  'x, y, z'
loop_
 _atom_site_type_symbol
 _atom_site_label
 _atom_site_symmetry_multiplicity
 _atom_site_fract_x
 _atom_site_fract_y
 _atom_site_fract_z
 _atom_site_occupancy
  Li  Li0_0  1  0.38887953  0.11112046  0.25000000  1
  Li  Li0_1  1  0.38887953  0.11112046  0.75000000  1
  Li  Li0_2  1  0.38887953  0.61112046  0.25000000  1
  Li  Li0_3  1  0.38887953  0.61112046  0.75000000  1
  Li  Li0_4  1  0.88887954  0.11112046  0.25000000  1
  Li  Li0_5  1  0.88887954  0.11112046  0.75000000  1
  Li  Li0_6  1  0.88887954  0.61112046  0.25000000  1
  Li  Li0_7  1  0.88887954  0.61112046  0.75000000  1
  Mg  Mg0_0  1  0.49994478  0.00005522  0.00000000  1
  Mg  Mg0_1  1  0.49994478  0.00005522  0.50000000  1
  Mg  Mg0_2  1  0.49994478  0.50005522  0.00000000  1
  Mg  Mg0_3  1  0.49994478  0.50005522  0.50000000  1
  Mg  Mg0_4  1  0.99994478  0.00005522  0.00000000  1
  Mg  Mg0_5  1  0.99994478  0.00005522  0.50000000  1
  Mg  Mg0_6  1  0.99994478  0.50005522  0.00000000  1
  Mg  Mg0_7  1  0.99994478  0.50005522  0.50000000  1
  Mg  Mg1_0  1  0.16592648  0.33407352  0.00000000  1
  Mg  Mg1_1  1  0.16592648  0.33407352  0.50000000  1
  Mg  Mg1_2  1  0.16592648  0.83407352  0.00000000  1
  Mg  Mg1_3  1  0.16592648  0.83407352  0.50000000  1
  Mg  Mg1_4  1  0.66592648  0.33407352  0.00000000  1
  Mg  Mg1_5  1  0.66592648  0.33407352  0.50000000  1
  Mg  Mg1_6  1  0.66592648  0.83407352  0.00000000  1
  Mg  Mg1_7  1  0.66592648  0.83407352  0.50000000  1
  Mg  Mg2_0  1  0.33415969  0.16584031  0.00000000  1
  Mg  Mg2_1  1  0.33415969  0.16584031  0.50000000  1
  Mg  Mg2_2  1  0.33415969  0.66584031  0.00000000  1
  Mg  Mg2_3  1  0.33415969  0.66584031  0.50000000  1
  Mg  Mg2_4  1  0.83415969  0.16584031  0.00000000  1
  Mg  Mg2_5  1  0.83415969  0.16584031  0.50000000  1
  Mg  Mg2_6  1  0.83415969  0.66584031  0.00000000  1
  Mg  Mg2_7  1  0.83415969  0.66584031  0.50000000  1
  Mg  Mg3_0  1  0.05647592  0.44352408  0.25000000  1
  Mg  Mg3_1  1  0.05647592  0.44352408  0.75000000  1
  Mg  Mg3_2  1  0.05647592  0.94352408  0.25000000  1
  Mg  Mg3_3  1  0.05647592  0.94352408  0.75000000  1
  Mg  Mg3_4  1  0.55647592  0.44352408  0.25000000  1
  Mg  Mg3_5  1  0.55647592  0.44352408  0.75000000  1
  Mg  Mg3_6  1  0.55647592  0.94352408  0.25000000  1
  Mg  Mg3_7  1  0.55647592  0.94352408  0.75000000  1
  Mg  Mg4_0  1  0.22127958  0.27872042  0.25000000  1
  Mg  Mg4_1  1  0.22127958  0.27872042  0.75000000  1
  Mg  Mg4_2  1  0.22127958  0.77872042  0.25000000  1
  Mg  Mg4_3  1  0.22127958  0.77872042  0.75000000  1
  Mg  Mg4_4  1  0.72127958  0.27872042  0.25000000  1
  Mg  Mg4_5  1  0.72127958  0.27872042  0.75000000  1
  Mg  Mg4_6  1  0.72127958  0.77872042  0.25000000  1
  Mg  Mg4_7  1  0.72127958  0.77872042  0.75000000  1
loop_
_geom_bond_atom_site_label_1
_geom_bond_atom_site_label_2
_geom_bond_distance
_geom_bond_site_symmetry_2
Li0_0 Mg4_2 3.114721 1_545
Li0_0 Mg4_4 3.114721 1_555
Li0_0 Mg3_2 3.114822 1_545
Li0_0 Mg3_4 3.114822 1_555
Li0_0 Mg2_1 3.121189 1_555
Li0_0 Mg2_0 3.121189 1_555
Li0_0 Mg1_3 3.132602 1_545
Li0_0 Mg1_2 3.132602 1_545
Li0_0 Mg1_5 3.132602 1_555
Li0_0 Mg1_4 3.132602 1_555
Li0_0 Li0_6 3.148635 1_555
Li0_0 Li0_6 3.148635 1_445
Li0_1 Mg4_3 3.114721 1_545
Li0_1 Mg4_5 3.114721 1_555
Li0_1 Mg3_3 3.114822 1_545
Li0_1 Mg3_5 3.114822 1_555
Li0_1 Mg2_0 3.121189 1_556
Li0_1 Mg2_1 3.121189 1_555
Li0_1 Mg1_2 3.132602 1_546
Li0_1 Mg1_4 3.132602 1_556
Li0_1 Mg1_3 3.132602 1_545
Li0_1 Mg1_5 3.132602 1_555
Li0_1 Li0_7 3.148635 1_445
Li0_1 Li0_7 3.148635 1_555
Li0_2 Mg4_0 3.114721 1_555
Li0_2 Mg4_6 3.114721 1_555
Li0_2 Mg3_6 3.114822 1_555
Li0_2 Mg3_0 3.114822 1_555
Li0_2 Mg2_3 3.121189 1_555
Li0_2 Mg2_2 3.121189 1_555
Li0_2 Mg1_0 3.132602 1_555
Li0_2 Mg1_1 3.132602 1_555
Li0_2 Mg1_6 3.132602 1_555
Li0_2 Mg1_7 3.132602 1_555
Li0_2 Li0_4 3.148635 1_455
Li0_2 Li0_4 3.148635 1_565
Li0_3 Mg4_1 3.114721 1_555
Li0_3 Mg4_7 3.114721 1_555
Li0_3 Mg3_7 3.114822 1_555
Li0_3 Mg3_1 3.114822 1_555
Li0_3 Mg2_2 3.121189 1_556
Li0_3 Mg2_3 3.121189 1_555
Li0_3 Mg1_0 3.132602 1_556
Li0_3 Mg1_6 3.132602 1_556
Li0_3 Mg1_1 3.132602 1_555
Li0_3 Mg1_7 3.132602 1_555
Li0_3 Li0_5 3.148635 1_455
Li0_3 Li0_5 3.148635 1_565
Li0_4 Mg4_0 3.114721 1_655
Li0_4 Mg4_6 3.114721 1_545
Li0_4 Mg3_0 3.114822 1_655
Li0_4 Mg3_6 3.114822 1_545
Li0_4 Mg2_4 3.121189 1_555
Li0_4 Mg2_5 3.121189 1_555
Li0_4 Mg1_0 3.132602 1_655
Li0_4 Mg1_6 3.132602 1_545
Li0_4 Mg1_7 3.132602 1_545
Li0_4 Mg1_1 3.132602 1_655
Li0_5 Mg4_1 3.114721 1_655
Li0_5 Mg4_7 3.114721 1_545
Li0_5 Mg3_1 3.114822 1_655
Li0_5 Mg3_7 3.114822 1_545
Li0_5 Mg2_4 3.121189 1_556
Li0_5 Mg2_5 3.121189 1_555
Li0_5 Mg1_0 3.132602 1_656
Li0_5 Mg1_6 3.132602 1_546
Li0_5 Mg1_1 3.132602 1_655
Li0_5 Mg1_7 3.132602 1_545
Li0_6 Mg4_4 3.114721 1_555
Li0_6 Mg4_2 3.114721 1_655
Li0_6 Mg3_2 3.114822 1_655
Li0_6 Mg3_4 3.114822 1_555
Li0_6 Mg2_6 3.121189 1_555
Li0_6 Mg2_7 3.121189 1_555
Li0_6 Mg1_2 3.132602 1_655
Li0_6 Mg1_3 3.132602 1_655
Li0_6 Mg1_5 3.132602 1_555
Li0_6 Mg1_4 3.132602 1_555
Li0_7 Mg4_5 3.114721 1_555
Li0_7 Mg4_3 3.114721 1_655
Li0_7 Mg3_3 3.114822 1_655
Li0_7 Mg3_5 3.114822 1_555
Li0_7 Mg2_6 3.121189 1_556
Li0_7 Mg2_7 3.121189 1_555
Li0_7 Mg1_4 3.132602 1_556
Li0_7 Mg1_2 3.132602 1_656
Li0_7 Mg1_5 3.132602 1_555
Li0_7 Mg1_3 3.132602 1_655
Mg0_0 Mg4_5 3.147873 1_554
Mg0_0 Mg4_3 3.147873 1_544
Mg0_0 Mg4_4 3.147873 1_555
Mg0_0 Mg4_2 3.147873 1_545
Mg0_0 Mg0_6 3.148635 1_555
Mg0_0 Mg0_6 3.148635 1_445
Mg0_0 Mg3_7 3.155343 1_544
Mg0_0 Mg3_6 3.155343 1_545
Mg0_0 Mg1_4 3.160377 1_555
Mg0_0 Mg1_2 3.160377 1_545
Mg0_0 Mg2_4 3.165939 1_555
Mg0_0 Mg2_2 3.165939 1_545
Mg0_1 Mg4_4 3.147873 1_555
Mg0_1 Mg4_2 3.147873 1_545
Mg0_1 Mg4_5 3.147873 1_555
Mg0_1 Mg4_3 3.147873 1_545
Mg0_1 Mg0_7 3.148635 1_445
Mg0_1 Mg0_7 3.148635 1_555
Mg0_1 Mg3_6 3.155343 1_545
Mg0_1 Mg3_7 3.155343 1_545
Mg0_1 Mg1_5 3.160377 1_555
Mg0_1 Mg1_3 3.160377 1_545
Mg0_1 Mg2_5 3.165939 1_555
Mg0_1 Mg2_3 3.165939 1_545
Mg0_2 Mg4_7 3.147873 1_554
Mg0_2 Mg4_1 3.147873 1_554
Mg0_2 Mg4_6 3.147873 1_555
Mg0_2 Mg4_0 3.147873 1_555
Mg0_2 Mg0_4 3.148635 1_565
Mg0_2 Mg0_4 3.148635 1_455
Mg0_2 Mg3_5 3.155343 1_554
Mg0_2 Mg3_4 3.155343 1_555
Mg0_2 Mg1_6 3.160377 1_555
Mg0_2 Mg1_0 3.160377 1_555
Mg0_2 Mg2_6 3.165939 1_555
Mg0_2 Mg2_0 3.165939 1_555
Mg0_3 Mg4_6 3.147873 1_555
Mg0_3 Mg4_0 3.147873 1_555
Mg0_3 Mg4_7 3.147873 1_555
Mg0_3 Mg4_1 3.147873 1_555
Mg0_3 Mg0_5 3.148635 1_565
Mg0_3 Mg0_5 3.148635 1_455
Mg0_3 Mg3_4 3.155343 1_555
Mg0_3 Mg3_5 3.155343 1_555
Mg0_3 Mg1_7 3.160377 1_555
Mg0_3 Mg1_1 3.160377 1_555
Mg0_3 Mg2_7 3.165939 1_555
Mg0_3 Mg2_1 3.165939 1_555
Mg0_4 Mg4_7 3.147873 1_544
Mg0_4 Mg4_1 3.147873 1_654
Mg0_4 Mg4_6 3.147873 1_545
Mg0_4 Mg4_0 3.147873 1_655
Mg0_4 Mg3_3 3.155343 1_644
Mg0_4 Mg3_2 3.155343 1_645
Mg0_4 Mg1_0 3.160377 1_655
Mg0_4 Mg1_6 3.160377 1_545
Mg0_4 Mg2_0 3.165939 1_655
Mg0_4 Mg2_6 3.165939 1_545
Mg0_5 Mg4_6 3.147873 1_545
Mg0_5 Mg4_0 3.147873 1_655
Mg0_5 Mg4_7 3.147873 1_545
Mg0_5 Mg4_1 3.147873 1_655
Mg0_5 Mg3_2 3.155343 1_645
Mg0_5 Mg3_3 3.155343 1_645
Mg0_5 Mg1_1 3.160377 1_655
Mg0_5 Mg1_7 3.160377 1_545
Mg0_5 Mg2_1 3.165939 1_655
Mg0_5 Mg2_7 3.165939 1_545
Mg0_6 Mg4_5 3.147873 1_554
Mg0_6 Mg4_3 3.147873 1_654
Mg0_6 Mg4_4 3.147873 1_555
Mg0_6 Mg4_2 3.147873 1_655
Mg0_6 Mg3_1 3.155343 1_654
Mg0_6 Mg3_0 3.155343 1_655
Mg0_6 Mg1_2 3.160377 1_655
Mg0_6 Mg1_4 3.160377 1_555
Mg0_6 Mg2_2 3.165939 1_655
Mg0_6 Mg2_4 3.165939 1_555
Mg0_7 Mg4_4 3.147873 1_555
Mg0_7 Mg4_2 3.147873 1_655
Mg0_7 Mg4_5 3.147873 1_555
Mg0_7 Mg4_3 3.147873 1_655
Mg0_7 Mg3_0 3.155343 1_655
Mg0_7 Mg3_1 3.155343 1_655
Mg0_7 Mg1_3 3.160377 1_655
Mg0_7 Mg1_5 3.160377 1_555
Mg0_7 Mg2_3 3.165939 1_655
Mg0_7 Mg2_5 3.165939 1_555
Mg1_0 Mg2_4 3.096917 1_455
Mg1_0 Mg2_2 3.096917 1_555
Mg1_0 Mg4_1 3.133045 1_554
Mg1_0 Mg4_0 3.133045 1_555
Mg1_0 Mg1_6 3.148635 1_555
Mg1_0 Mg1_6 3.148635 1_445
Mg1_1 Mg2_3 3.096917 1_555
Mg1_1 Mg2_5 3.096917 1_455
Mg1_1 Mg4_0 3.133045 1_555
Mg1_1 Mg4_1 3.133045 1_555
Mg1_1 Mg1_7 3.148635 1_555
Mg1_1 Mg1_7 3.148635 1_445
Mg1_2 Mg2_6 3.096917 1_455
Mg1_2 Mg2_0 3.096917 1_565
Mg1_2 Mg4_3 3.133045 1_554
Mg1_2 Mg4_2 3.133045 1_555
Mg1_2 Mg1_4 3.148635 1_565
Mg1_2 Mg1_4 3.148635 1_455
Mg1_3 Mg2_7 3.096917 1_455
Mg1_3 Mg2_1 3.096917 1_565
Mg1_3 Mg4_2 3.133045 1_555
Mg1_3 Mg4_3 3.133045 1_555
Mg1_3 Mg1_5 3.148635 1_565
Mg1_3 Mg1_5 3.148635 1_455
Mg1_4 Mg2_0 3.096917 1_555
Mg1_4 Mg2_6 3.096917 1_555
Mg1_4 Mg4_5 3.133045 1_554
Mg1_4 Mg4_4 3.133045 1_555
Mg1_5 Mg2_1 3.096917 1_555
Mg1_5 Mg2_7 3.096917 1_555
Mg1_5 Mg4_4 3.133045 1_555
Mg1_5 Mg4_5 3.133045 1_555
Mg1_6 Mg2_2 3.096917 1_555
Mg1_6 Mg2_4 3.096917 1_565
Mg1_6 Mg4_7 3.133045 1_554
Mg1_6 Mg4_6 3.133045 1_555
Mg1_7 Mg2_3 3.096917 1_555
Mg1_7 Mg2_5 3.096917 1_565
Mg1_7 Mg4_6 3.133045 1_555
Mg1_7 Mg4_7 3.133045 1_555
Mg2_0 Mg3_3 3.138514 1_544
Mg2_0 Mg3_5 3.138514 1_554
Mg2_0 Mg3_4 3.138514 1_555
Mg2_0 Mg3_2 3.138514 1_545
Mg2_0 Mg2_6 3.148635 1_555
Mg2_0 Mg2_6 3.148635 1_445
Mg2_1 Mg3_4 3.138514 1_555
Mg2_1 Mg3_2 3.138514 1_545
Mg2_1 Mg3_3 3.138514 1_545
Mg2_1 Mg3_5 3.138514 1_555
Mg2_1 Mg2_7 3.148635 1_445
Mg2_1 Mg2_7 3.148635 1_555
Mg2_2 Mg3_1 3.138514 1_554
Mg2_2 Mg3_7 3.138514 1_554
Mg2_2 Mg3_0 3.138514 1_555
Mg2_2 Mg3_6 3.138514 1_555
Mg2_2 Mg2_4 3.148635 1_455
Mg2_2 Mg2_4 3.148635 1_565
Mg2_3 Mg3_0 3.138514 1_555
Mg2_3 Mg3_6 3.138514 1_555
Mg2_3 Mg3_1 3.138514 1_555
Mg2_3 Mg3_7 3.138514 1_555
Mg2_3 Mg2_5 3.148635 1_455
Mg2_3 Mg2_5 3.148635 1_565
Mg2_4 Mg3_7 3.138514 1_544
Mg2_4 Mg3_1 3.138514 1_654
Mg2_4 Mg3_6 3.138514 1_545
Mg2_4 Mg3_0 3.138514 1_655
Mg2_5 Mg3_6 3.138514 1_545
Mg2_5 Mg3_0 3.138514 1_655
Mg2_5 Mg3_7 3.138514 1_545
Mg2_5 Mg3_1 3.138514 1_655
Mg2_6 Mg3_3 3.138514 1_654
Mg2_6 Mg3_5 3.138514 1_554
Mg2_6 Mg3_4 3.138514 1_555
Mg2_6 Mg3_2 3.138514 1_655
Mg2_7 Mg3_4 3.138514 1_555
Mg2_7 Mg3_2 3.138514 1_655
Mg2_7 Mg3_3 3.138514 1_655
Mg2_7 Mg3_5 3.138514 1_555
Mg3_0 Mg3_6 3.148635 1_445
Mg3_0 Mg3_6 3.148635 1_555
Mg3_0 Mg4_4 3.193751 1_455
Mg3_0 Mg4_2 3.193751 1_555
Mg3_1 Mg3_7 3.148635 1_555
Mg3_1 Mg3_7 3.148635 1_445
Mg3_1 Mg4_5 3.193751 1_455
Mg3_1 Mg4_3 3.193751 1_555
Mg3_2 Mg3_4 3.148635 1_455
Mg3_2 Mg3_4 3.148635 1_565
Mg3_2 Mg4_6 3.193751 1_455
Mg3_2 Mg4_0 3.193751 1_565
Mg3_3 Mg3_5 3.148635 1_455
Mg3_3 Mg3_5 3.148635 1_565
Mg3_3 Mg4_7 3.193751 1_455
Mg3_3 Mg4_1 3.193751 1_565
Mg3_4 Mg4_6 3.193751 1_555
Mg3_4 Mg4_0 3.193751 1_555
Mg3_5 Mg4_7 3.193751 1_555
Mg3_5 Mg4_1 3.193751 1_555
Mg3_6 Mg4_4 3.193751 1_565
Mg3_6 Mg4_2 3.193751 1_555
Mg3_7 Mg4_5 3.193751 1_565
Mg3_7 Mg4_3 3.193751 1_555
Mg4_0 Mg4_6 3.148635 1_555
Mg4_0 Mg4_6 3.148635 1_445
Mg4_1 Mg4_7 3.148635 1_445
Mg4_1 Mg4_7 3.148635 1_555
Mg4_2 Mg4_4 3.148635 1_565
Mg4_2 Mg4_4 3.148635 1_455
Mg4_3 Mg4_5 3.148635 1_565
Mg4_3 Mg4_5 3.148635 1_455
