# generated using pymatgen
data_DyPu3
_symmetry_space_group_name_H-M   'P 1'
_cell_length_a   5.92603944
_cell_length_b   5.92603944
_cell_length_c   5.92603944
_cell_angle_alpha   131.89021306
_cell_angle_beta   131.89021306
_cell_angle_gamma   70.40247879
_symmetry_Int_Tables_number   1
_chemical_formula_structural   DyPu3
_chemical_formula_sum   'Dy1 Pu3'
_cell_volume   113.01584311
_cell_formula_units_Z   1
loop_
 _symmetry_equiv_pos_site_id
 _symmetry_equiv_pos_as_xyz
  1  'x, y, z'
loop_
 _atom_site_type_symbol
 _atom_site_label
 _atom_site_symmetry_multiplicity
 _atom_site_fract_x
 _atom_site_fract_y
 _atom_site_fract_z
 _atom_site_occupancy
  Dy  Dy0  1  0.00000000  0.00000000  0.00000000  1
  Pu  Pu0  1  0.75000000  0.25000000  0.50000000  1
  Pu  Pu1  1  0.25000000  0.75000000  0.50000000  1
  Pu  Pu2  1  0.50000000  0.50000000  0.00000000  1
loop_
_geom_bond_atom_site_label_1
_geom_bond_atom_site_label_2
_geom_bond_distance
_geom_bond_site_symmetry_2
Dy0 Pu2 3.416065 1_545
Dy0 Pu2 3.416065 1_455
Dy0 Pu2 3.416065 1_556
Dy0 Pu2 3.416065 1_444
Dy0 Pu0 3.420067 1_555
Dy0 Pu1 3.420067 1_444
Dy0 Pu0 3.420067 1_455
Dy0 Pu1 3.420067 1_544
Dy0 Pu1 3.420067 1_545
Dy0 Pu0 3.420067 1_454
Dy0 Pu0 3.420067 1_444
Dy0 Pu1 3.420067 1_555
Pu0 Pu1 3.416065 1_645
Pu0 Pu1 3.416065 1_555
Pu0 Pu1 3.416065 1_656
Pu0 Pu1 3.416065 1_544
Pu0 Pu2 3.420067 1_656
Pu0 Pu2 3.420067 1_555
Pu0 Pu2 3.420067 1_545
Pu0 Pu2 3.420067 1_556
Pu1 Pu2 3.420067 1_455
Pu1 Pu2 3.420067 1_555
Pu1 Pu2 3.420067 1_556
Pu1 Pu2 3.420067 1_566
