# generated using pymatgen
data_Ba2V2BiPO11
_symmetry_space_group_name_H-M   'P 1'
_cell_length_a   7.83060900
_cell_length_b   11.08682208
_cell_length_c   12.45956474
_cell_angle_alpha   102.83217828
_cell_angle_beta   90.00000000
_cell_angle_gamma   90.00000000
_symmetry_Int_Tables_number   1
_chemical_formula_structural   Ba2V2BiPO11
_chemical_formula_sum   'Ba8 V8 Bi4 P4 O44'
_cell_volume   1054.68104129
_cell_formula_units_Z   4
loop_
 _symmetry_equiv_pos_site_id
 _symmetry_equiv_pos_as_xyz
  1  'x, y, z'
loop_
 _atom_site_type_symbol
 _atom_site_label
 _atom_site_symmetry_multiplicity
 _atom_site_fract_x
 _atom_site_fract_y
 _atom_site_fract_z
 _atom_site_occupancy
  Ba  Ba0  1  0.73338300  0.55515900  0.72299300  1
  Ba  Ba1  1  0.23338300  0.94484100  0.27700700  1
  Ba  Ba2  1  0.26661700  0.44484100  0.27700700  1
  Ba  Ba3  1  0.76661700  0.05515900  0.72299300  1
  Ba  Ba4  1  0.25201400  0.61081200  0.94534200  1
  Ba  Ba5  1  0.75201400  0.88918800  0.05465800  1
  Ba  Ba6  1  0.74798600  0.38918800  0.05465800  1
  Ba  Ba7  1  0.24798600  0.11081200  0.94534200  1
  V  V0  1  0.51848200  0.67030300  0.18795900  1
  V  V1  1  0.01848200  0.82969700  0.81204100  1
  V  V2  1  0.48151800  0.32969700  0.81204100  1
  V  V3  1  0.98151800  0.17030300  0.18795900  1
  V  V4  1  0.48213100  0.82542600  0.81501200  1
  V  V5  1  0.98213100  0.67457400  0.18498800  1
  V  V6  1  0.51786900  0.17457400  0.18498800  1
  V  V7  1  0.01786900  0.32542600  0.81501200  1
  Bi  Bi0  1  0.50144600  0.76965500  0.50143300  1
  Bi  Bi1  1  0.00144600  0.73034500  0.49856700  1
  Bi  Bi2  1  0.49855400  0.23034500  0.49856700  1
  Bi  Bi3  1  0.99855400  0.26965500  0.50143300  1
  P  P0  1  0.25219800  0.52326300  0.59469500  1
  P  P1  1  0.75219800  0.97673700  0.40530500  1
  P  P2  1  0.74780200  0.47673700  0.40530500  1
  P  P3  1  0.24780200  0.02326300  0.59469500  1
  O  O0  1  0.43547400  0.69076900  0.32045900  1
  O  O1  1  0.93547400  0.80923100  0.67954100  1
  O  O2  1  0.56452600  0.30923100  0.67954100  1
  O  O3  1  0.06452600  0.19076900  0.32045900  1
  O  O4  1  0.36355100  0.54839500  0.69690200  1
  O  O5  1  0.86355100  0.95160500  0.30309800  1
  O  O6  1  0.63644900  0.45160500  0.30309800  1
  O  O7  1  0.13644900  0.04839500  0.69690200  1
  O  O8  1  0.70981700  0.61024000  0.48349600  1
  O  O9  1  0.20981700  0.88976000  0.51650400  1
  O  O10  1  0.29018300  0.38976000  0.51650400  1
  O  O11  1  0.79018300  0.11024000  0.48349600  1
  O  O12  1  0.25027900  0.83132700  0.83042100  1
  O  O13  1  0.75027900  0.66867300  0.16957900  1
  O  O14  1  0.74972100  0.16867300  0.16957900  1
  O  O15  1  0.24972100  0.33132700  0.83042100  1
  O  O16  1  0.56015900  0.46519800  0.88711100  1
  O  O17  1  0.06015900  0.03480200  0.11288900  1
  O  O18  1  0.43984100  0.53480200  0.11288900  1
  O  O19  1  0.93984100  0.96519800  0.88711100  1
  O  O20  1  0.55840000  0.72755500  0.89120000  1
  O  O21  1  0.05840000  0.77244500  0.10880000  1
  O  O22  1  0.44160000  0.27244500  0.10880000  1
  O  O23  1  0.94160000  0.22755500  0.89120000  1
  O  O24  1  0.94479900  0.46809100  0.87601700  1
  O  O25  1  0.44479900  0.03190900  0.12398300  1
  O  O26  1  0.05520100  0.53190900  0.12398300  1
  O  O27  1  0.55520100  0.96809100  0.87601700  1
  O  O28  1  0.05867300  0.52724200  0.61757800  1
  O  O29  1  0.55867300  0.97275800  0.38242200  1
  O  O30  1  0.94132700  0.47275800  0.38242200  1
  O  O31  1  0.44132700  0.02724200  0.61757800  1
  O  O32  1  0.56856300  0.78055100  0.68329900  1
  O  O33  1  0.06856300  0.71944900  0.31670100  1
  O  O34  1  0.43143700  0.21944900  0.31670100  1
  O  O35  1  0.93143700  0.28055100  0.68329900  1
  O  O36  1  0.28762400  0.62088500  0.51898500  1
  O  O37  1  0.78762400  0.87911500  0.48101500  1
  O  O38  1  0.71237600  0.37911500  0.48101500  1
  O  O39  1  0.21237600  0.12088500  0.51898500  1
  O  O40  1  0.94230500  0.71737700  0.87159800  1
  O  O41  1  0.44230500  0.78262300  0.12840200  1
  O  O42  1  0.05769500  0.28262300  0.12840200  1
  O  O43  1  0.55769500  0.21737700  0.87159800  1
loop_
_geom_bond_atom_site_label_1
_geom_bond_atom_site_label_2
_geom_bond_distance
_geom_bond_site_symmetry_2
Ba0 O40 2.803585 1_555
Ba0 O16 2.814607 1_555
Ba0 O24 2.850481 1_555
Ba0 O28 2.851076 1_655
Ba0 O20 2.853713 1_555
Ba0 O4 2.913305 1_555
Ba0 O32 2.950208 1_555
Ba0 O2 2.969831 1_555
Ba0 O8 3.181326 1_555
Ba0 O38 3.211307 1_555
Ba0 O35 3.354127 1_555
Ba0 O1 3.377788 1_555
Ba1 O41 2.803585 1_555
Ba1 O17 2.814607 1_565
Ba1 O25 2.850481 1_565
Ba1 O29 2.851076 1_555
Ba1 O21 2.853713 1_555
Ba1 O5 2.913305 1_455
Ba1 O33 2.950208 1_555
Ba1 O3 2.969831 1_565
Ba1 O9 3.181326 1_555
Ba1 O39 3.211307 1_565
Ba1 O34 3.354127 1_565
Ba1 O0 3.377788 1_555
Ba2 O42 2.803585 1_555
Ba2 O18 2.814607 1_555
Ba2 O26 2.850481 1_555
Ba2 O30 2.851076 1_455
Ba2 O22 2.853713 1_555
Ba2 O6 2.913305 1_555
Ba2 O34 2.950208 1_555
Ba2 O0 2.969831 1_555
Ba2 O10 3.181326 1_555
Ba2 O36 3.211307 1_555
Ba2 O33 3.354127 1_555
Ba2 O3 3.377788 1_555
Ba3 O43 2.803585 1_555
Ba3 O19 2.814607 1_545
Ba3 O27 2.850481 1_545
Ba3 O31 2.851076 1_555
Ba3 O23 2.853713 1_555
Ba3 O7 2.913305 1_655
Ba3 O35 2.950208 1_555
Ba3 O1 2.969831 1_545
Ba3 O11 3.181326 1_555
Ba3 O37 3.211307 1_545
Ba3 O32 3.354127 1_545
Ba3 O2 3.377788 1_555
Ba4 O18 2.830681 1_556
Ba4 O21 2.834878 1_556
Ba4 O20 2.876498 1_555
Ba4 O24 2.903451 1_455
Ba4 O16 2.904270 1_555
Ba4 O40 2.933246 1_455
Ba4 O26 2.993235 1_556
Ba4 O41 3.020132 1_556
Ba4 O12 3.095558 1_555
Ba4 O15 3.111447 1_555
Ba4 O4 3.141982 1_555
Ba5 O19 2.830681 1_554
Ba5 O20 2.834878 1_554
Ba5 O21 2.876498 1_655
Ba5 O25 2.903451 1_565
Ba5 O17 2.904270 1_665
Ba5 O41 2.933246 1_555
Ba5 O27 2.993235 1_554
Ba5 O40 3.020132 1_554
Ba5 O13 3.095558 1_555
Ba5 O14 3.111447 1_565
Ba5 O5 3.141982 1_555
Ba6 O16 2.830681 1_554
Ba6 O23 2.834878 1_554
Ba6 O22 2.876498 1_555
Ba6 O26 2.903451 1_655
Ba6 O18 2.904270 1_555
Ba6 O42 2.933246 1_655
Ba6 O24 2.993235 1_554
Ba6 O43 3.020132 1_554
Ba6 O14 3.095558 1_555
Ba6 O13 3.111447 1_555
Ba6 O6 3.141982 1_555
Ba7 O17 2.830681 1_556
Ba7 O22 2.834878 1_556
Ba7 O23 2.876498 1_455
Ba7 O27 2.903451 1_545
Ba7 O19 2.904270 1_445
Ba7 O43 2.933246 1_555
Ba7 O25 2.993235 1_556
Ba7 O42 3.020132 1_556
Ba7 O15 3.095558 1_555
Ba7 O12 3.111447 1_545
Ba7 O7 3.141982 1_555
Bi0 O0 2.289146 1_555
Bi0 O32 2.303009 1_555
Bi0 O8 2.379195 1_555
Bi0 O36 2.394158 1_555
Bi0 O37 2.587748 1_555
Bi0 O9 2.629122 1_555
Bi1 O1 2.289146 1_455
Bi1 O33 2.303009 1_555
Bi1 O9 2.379195 1_555
Bi1 O37 2.394158 1_455
Bi1 O36 2.587748 1_555
Bi1 O8 2.629122 1_455
Bi2 O2 2.289146 1_555
Bi2 O34 2.303009 1_555
Bi2 O10 2.379195 1_555
Bi2 O38 2.394158 1_555
Bi2 O39 2.587748 1_555
Bi2 O11 2.629122 1_555
Bi3 O3 2.289146 1_655
Bi3 O35 2.303009 1_555
Bi3 O11 2.379195 1_555
Bi3 O39 2.394158 1_655
Bi3 O38 2.587748 1_555
Bi3 O10 2.629122 1_655
O0 V0 1.741564 1_555
O1 V1 1.741564 1_655
O2 V2 1.741564 1_555
O3 V3 1.741564 1_455
O4 P0 1.517244 1_555
O5 P1 1.517244 1_555
O6 P2 1.517244 1_555
O7 P3 1.517244 1_555
O8 P2 1.608677 1_555
O9 P3 1.608677 1_565
O10 P0 1.608677 1_555
O11 P1 1.608677 1_545
O12 V4 1.825310 1_555
O12 V1 1.829088 1_555
O13 V5 1.825310 1_555
O13 V0 1.829088 1_555
O14 V6 1.825310 1_555
O14 V3 1.829088 1_555
O15 V7 1.825310 1_555
O15 V2 1.829088 1_555
O16 V2 1.699046 1_555
O17 V3 1.699046 1_455
O18 V0 1.699046 1_555
O19 V1 1.699046 1_655
O20 V4 1.700802 1_555
O21 V5 1.700802 1_455
O22 V6 1.700802 1_555
O23 V7 1.700802 1_655
O24 V7 1.694960 1_655
O25 V6 1.694960 1_555
O26 V5 1.694960 1_455
O27 V4 1.694960 1_555
O28 P0 1.540825 1_555
O29 P1 1.540825 1_555
O30 P2 1.540825 1_555
O31 P3 1.540825 1_555
O32 V4 1.742441 1_555
O33 V5 1.742441 1_455
O34 V6 1.742441 1_555
O35 V7 1.742441 1_655
O36 P0 1.609879 1_555
O37 P1 1.609879 1_555
O38 P2 1.609879 1_555
O39 P3 1.609879 1_555
O40 V1 1.693409 1_655
O41 V0 1.693409 1_555
O42 V3 1.693409 1_455
O43 V2 1.693409 1_555
