# generated using pymatgen
data_Ba6Br2N3Cl
_symmetry_space_group_name_H-M   'P 1'
_cell_length_a   11.07420608
_cell_length_b   11.07420608
_cell_length_c   8.26487371
_cell_angle_alpha   73.31032734
_cell_angle_beta   73.31032734
_cell_angle_gamma   21.78632320
_symmetry_Int_Tables_number   1
_chemical_formula_structural   Ba6Br2N3Cl
_chemical_formula_sum   'Ba6 Br2 N3 Cl1'
_cell_volume   359.74173166
_cell_formula_units_Z   1
loop_
 _symmetry_equiv_pos_site_id
 _symmetry_equiv_pos_as_xyz
  1  'x, y, z'
loop_
 _atom_site_type_symbol
 _atom_site_label
 _atom_site_symmetry_multiplicity
 _atom_site_fract_x
 _atom_site_fract_y
 _atom_site_fract_z
 _atom_site_occupancy
  Ba  Ba0  1  0.92404400  0.92404400  0.68827200  1
  Ba  Ba1  1  0.25710000  0.25710000  0.68662400  1
  Ba  Ba2  1  0.58943900  0.58943900  0.68982500  1
  Ba  Ba3  1  0.07595600  0.07595600  0.31172800  1
  Ba  Ba4  1  0.41056100  0.41056100  0.31017500  1
  Ba  Ba5  1  0.74290000  0.74290000  0.31337600  1
  Br  Br0  1  0.33338200  0.33338200  0.00001300  1
  Br  Br1  1  0.66661800  0.66661800  0.99998700  1
  N  N0  1  0.50000000  0.50000000  0.50000000  1
  N  N1  1  0.83348600  0.83348600  0.49987900  1
  N  N2  1  0.16651400  0.16651400  0.50012100  1
  Cl  Cl0  1  0.00000000  0.00000000  0.00000000  1
loop_
_geom_bond_atom_site_label_1
_geom_bond_atom_site_label_2
_geom_bond_distance
_geom_bond_site_symmetry_2
Ba0 N0 2.833113 1_565
Ba0 N0 2.833113 1_655
Ba0 N1 2.845590 1_555
Ba0 Cl0 3.443309 1_666
Ba0 Br0 3.454651 1_566
Ba0 Br0 3.454651 1_656
Ba1 N1 2.832340 1_455
Ba1 N1 2.832340 1_545
Ba1 N2 2.834420 1_555
Ba1 Br0 3.460461 1_556
Ba1 Br1 3.461057 1_455
Ba1 Br1 3.461057 1_545
Ba2 N0 2.833797 1_555
Ba2 N2 2.847938 1_565
Ba2 N2 2.847938 1_655
Ba2 Cl0 3.437835 1_566
Ba2 Cl0 3.437835 1_656
Ba2 Br1 3.450482 1_555
Ba3 N0 2.833113 1_545
Ba3 N0 2.833113 1_455
Ba3 N2 2.845590 1_555
Ba3 Cl0 3.443309 1_555
Ba3 Br1 3.454651 1_454
Ba3 Br1 3.454651 1_544
Ba4 N0 2.833797 1_555
Ba4 N1 2.847938 1_455
Ba4 N1 2.847938 1_545
Ba4 Cl0 3.437835 1_655
Ba4 Cl0 3.437835 1_565
Ba4 Br0 3.450482 1_555
Ba5 N2 2.832340 1_565
Ba5 N2 2.832340 1_655
Ba5 N1 2.834420 1_555
Ba5 Br1 3.460461 1_554
Ba5 Br0 3.461057 1_655
Ba5 Br0 3.461057 1_565
