# generated using pymatgen
data_SmV2IO9
_symmetry_space_group_name_H-M   'P 1'
_cell_length_a   7.06086200
_cell_length_b   7.27972700
_cell_length_c   14.58919200
_cell_angle_alpha   90.00000000
_cell_angle_beta   90.00000000
_cell_angle_gamma   90.00000000
_symmetry_Int_Tables_number   1
_chemical_formula_structural   SmV2IO9
_chemical_formula_sum   'Sm4 V8 I4 O36'
_cell_volume   749.90121347
_cell_formula_units_Z   4
loop_
 _symmetry_equiv_pos_site_id
 _symmetry_equiv_pos_as_xyz
  1  'x, y, z'
loop_
 _atom_site_type_symbol
 _atom_site_label
 _atom_site_symmetry_multiplicity
 _atom_site_fract_x
 _atom_site_fract_y
 _atom_site_fract_z
 _atom_site_occupancy
  Sm  Sm0  1  0.85058900  0.25000000  0.95219700  1
  Sm  Sm1  1  0.14941100  0.75000000  0.04780300  1
  Sm  Sm2  1  0.85058900  0.75000000  0.54780300  1
  Sm  Sm3  1  0.14941100  0.25000000  0.45219700  1
  V  V0  1  0.46011200  0.00000000  0.25000000  1
  V  V1  1  0.53988800  0.50000000  0.75000000  1
  V  V2  1  0.53988800  0.00000000  0.75000000  1
  V  V3  1  0.46011200  0.50000000  0.25000000  1
  V  V4  1  0.81908000  0.25000000  0.22848000  1
  V  V5  1  0.18092000  0.75000000  0.77152000  1
  V  V6  1  0.81908000  0.75000000  0.27152000  1
  V  V7  1  0.18092000  0.25000000  0.72848000  1
  I  I0  1  0.29841200  0.25000000  0.05437100  1
  I  I1  1  0.70158800  0.75000000  0.94562900  1
  I  I2  1  0.29841200  0.75000000  0.44562900  1
  I  I3  1  0.70158800  0.25000000  0.55437100  1
  O  O0  1  0.17239500  0.06893100  0.98918900  1
  O  O1  1  0.82760500  0.56893100  0.01081100  1
  O  O2  1  0.17239500  0.93106900  0.51081100  1
  O  O3  1  0.82760500  0.43106900  0.48918900  1
  O  O4  1  0.82760500  0.93106900  0.01081100  1
  O  O5  1  0.17239500  0.43106900  0.98918900  1
  O  O6  1  0.82760500  0.06893100  0.48918900  1
  O  O7  1  0.17239500  0.56893100  0.51081100  1
  O  O8  1  0.52794100  0.25000000  0.99880000  1
  O  O9  1  0.47205900  0.75000000  0.00120000  1
  O  O10  1  0.52794100  0.75000000  0.50120000  1
  O  O11  1  0.47205900  0.25000000  0.49880000  1
  O  O12  1  0.32471700  0.95295400  0.15713400  1
  O  O13  1  0.67528300  0.45295400  0.84286600  1
  O  O14  1  0.32471700  0.04704600  0.34286600  1
  O  O15  1  0.67528300  0.54704600  0.65713400  1
  O  O16  1  0.67528300  0.04704600  0.84286600  1
  O  O17  1  0.32471700  0.54704600  0.15713400  1
  O  O18  1  0.67528300  0.95295400  0.65713400  1
  O  O19  1  0.32471700  0.45295400  0.34286600  1
  O  O20  1  0.52833200  0.75000000  0.28091200  1
  O  O21  1  0.47166800  0.25000000  0.71908800  1
  O  O22  1  0.52833200  0.25000000  0.21908800  1
  O  O23  1  0.47166800  0.75000000  0.78091200  1
  O  O24  1  0.73763700  0.00000000  0.25000000  1
  O  O25  1  0.26236300  0.50000000  0.75000000  1
  O  O26  1  0.26236300  0.00000000  0.75000000  1
  O  O27  1  0.73763700  0.50000000  0.25000000  1
  O  O28  1  0.98883200  0.25000000  0.30871700  1
  O  O29  1  0.01116800  0.75000000  0.69128300  1
  O  O30  1  0.98883200  0.75000000  0.19128300  1
  O  O31  1  0.01116800  0.25000000  0.80871700  1
  O  O32  1  0.91814200  0.25000000  0.12338800  1
  O  O33  1  0.08185800  0.75000000  0.87661200  1
  O  O34  1  0.91814200  0.75000000  0.37661200  1
  O  O35  1  0.08185800  0.25000000  0.62338800  1
loop_
_geom_bond_atom_site_label_1
_geom_bond_atom_site_label_2
_geom_bond_distance
_geom_bond_site_symmetry_2
I0 O8 1.812146 1_554
I0 O5 1.852973 1_554
I0 O0 1.852973 1_554
I1 O9 1.812146 1_556
I1 O4 1.852973 1_556
I1 O1 1.852973 1_556
I2 O10 1.812146 1_555
I2 O2 1.852973 1_555
I2 O7 1.852973 1_555
I3 O11 1.812146 1_555
I3 O6 1.852973 1_555
I3 O3 1.852973 1_555
O0 Sm1 2.479520 1_546
O0 Sm0 2.681744 1_455
O1 Sm0 2.479520 1_554
O1 Sm1 2.681744 1_655
O2 Sm3 2.479520 1_565
O2 Sm2 2.681744 1_455
O3 Sm2 2.479520 1_555
O3 Sm3 2.681744 1_655
O4 Sm0 2.479520 1_564
O4 Sm1 2.681744 1_655
O5 Sm1 2.479520 1_556
O5 Sm0 2.681744 1_455
O6 Sm2 2.479520 1_545
O6 Sm3 2.681744 1_655
O7 Sm3 2.479520 1_555
O7 Sm2 2.681744 1_455
O8 Sm0 2.377464 1_555
O9 Sm1 2.377464 1_555
O10 Sm2 2.377464 1_555
O11 Sm3 2.377464 1_555
O12 V0 1.693172 1_565
O12 Sm1 2.501844 1_555
O13 V1 1.693172 1_555
O13 Sm0 2.501844 1_555
O14 V0 1.693172 1_555
O14 Sm3 2.501844 1_555
O15 V1 1.693172 1_555
O15 Sm2 2.501844 1_555
O16 V2 1.693172 1_555
O16 Sm0 2.501844 1_555
O17 V3 1.693172 1_555
O17 Sm1 2.501844 1_555
O18 V2 1.693172 1_565
O18 Sm2 2.501844 1_555
O19 V3 1.693172 1_555
O19 Sm3 2.501844 1_555
O20 V0 1.935862 1_565
O20 V3 1.935862 1_555
O20 V6 2.057499 1_555
O21 V2 1.935862 1_555
O21 V1 1.935862 1_555
O21 V7 2.057499 1_555
O22 V3 1.935862 1_555
O22 V0 1.935862 1_555
O22 V4 2.057499 1_555
O23 V2 1.935862 1_565
O23 V1 1.935862 1_555
O23 V5 2.057499 1_555
O24 V4 1.934273 1_555
O24 V6 1.934273 1_545
O24 V0 1.959566 1_555
O25 V7 1.934273 1_555
O25 V5 1.934273 1_555
O25 V1 1.959566 1_555
O26 V5 1.934273 1_545
O26 V7 1.934273 1_555
O26 V2 1.959566 1_555
O27 V4 1.934273 1_555
O27 V6 1.934273 1_555
O27 V3 1.959566 1_555
O28 V4 1.675386 1_555
O28 Sm3 2.380607 1_655
O29 V5 1.675386 1_555
O29 Sm2 2.380607 1_455
O30 V6 1.675386 1_555
O30 Sm1 2.380607 1_655
O31 V7 1.675386 1_555
O31 Sm0 2.380607 1_455
O32 V4 1.685222 1_555
O32 Sm0 2.542678 1_554
O33 V5 1.685222 1_555
O33 Sm1 2.542678 1_556
O34 V6 1.685222 1_555
O34 Sm2 2.542678 1_555
O35 V7 1.685222 1_555
O35 Sm3 2.542678 1_555
