# generated using pymatgen
data_Li7Mn5O12
_symmetry_space_group_name_H-M   'P 1'
_cell_length_a   5.95706784
_cell_length_b   10.22070116
_cell_length_c   8.09065888
_cell_angle_alpha   69.03290525
_cell_angle_beta   74.44529146
_cell_angle_gamma   87.55221305
_symmetry_Int_Tables_number   1
_chemical_formula_structural   Li7Mn5O12
_chemical_formula_sum   'Li14 Mn10 O24'
_cell_volume   442.36190665
_cell_formula_units_Z   2
loop_
 _symmetry_equiv_pos_site_id
 _symmetry_equiv_pos_as_xyz
  1  'x, y, z'
loop_
 _atom_site_type_symbol
 _atom_site_label
 _atom_site_symmetry_multiplicity
 _atom_site_fract_x
 _atom_site_fract_y
 _atom_site_fract_z
 _atom_site_occupancy
  Li  Li0  1  0.16663700  0.83336500  0.33332800  1
  Li  Li1  1  0.66667700  0.83336600  0.33333200  1
  Li  Li2  1  0.91826800  0.06776600  0.34677100  1
  Li  Li3  1  0.41831200  0.06771200  0.34678500  1
  Li  Li4  1  0.91506900  0.59893300  0.31991600  1
  Li  Li5  1  0.41501800  0.59893400  0.31992300  1
  Li  Li6  1  0.08736200  0.41924700  0.66628000  1
  Li  Li7  1  0.58744600  0.41926300  0.66626900  1
  Li  Li8  1  0.74587100  0.24730300  0.00048600  1
  Li  Li9  1  0.24590700  0.24731000  0.00047400  1
  Li  Li10  1  0.27166700  0.75603800  0.02049200  1
  Li  Li11  1  0.77170900  0.75606000  0.02049600  1
  Li  Li12  1  0.06158400  0.91055800  0.64625200  1
  Li  Li13  1  0.56154800  0.91053900  0.64623500  1
  Mn  Mn0  1  0.66675400  0.33348300  0.33340300  1
  Mn  Mn1  1  0.00887800  0.99373900  0.01273200  1
  Mn  Mn2  1  0.32452200  0.67295300  0.65386700  1
  Mn  Mn3  1  0.84354600  0.16650100  0.67091200  1
  Mn  Mn4  1  0.48964900  0.50015200  0.99560300  1
  Mn  Mn5  1  0.16675100  0.33328100  0.33333700  1
  Mn  Mn6  1  0.50875700  0.99367300  0.01263800  1
  Mn  Mn7  1  0.82458500  0.67297800  0.65405000  1
  Mn  Mn8  1  0.34361200  0.16648700  0.67101800  1
  Mn  Mn9  1  0.98979700  0.50018600  0.99571100  1
  O  O0  1  0.20764000  0.03546200  0.14741500  1
  O  O1  1  0.70758100  0.03545400  0.14740700  1
  O  O2  1  0.12571700  0.63121000  0.51925300  1
  O  O3  1  0.62577400  0.63120800  0.51924400  1
  O  O4  1  0.89079800  0.36444100  0.50333900  1
  O  O5  1  0.39065300  0.36452800  0.50338800  1
  O  O6  1  0.94259400  0.30224400  0.16331100  1
  O  O7  1  0.44271900  0.30215300  0.16323800  1
  O  O8  1  0.01799800  0.69647900  0.81312300  1
  O  O9  1  0.51791500  0.69649800  0.81311700  1
  O  O10  1  0.81536100  0.97020300  0.85349700  1
  O  O11  1  0.31536300  0.97017000  0.85353100  1
  O  O12  1  0.86231200  0.86100400  0.51567400  1
  O  O13  1  0.36234200  0.86089800  0.51563700  1
  O  O14  1  0.97099700  0.80579600  0.15098700  1
  O  O15  1  0.47098900  0.80566400  0.15100900  1
  O  O16  1  0.06410900  0.19558600  0.83832900  1
  O  O17  1  0.56407200  0.19555400  0.83829400  1
  O  O18  1  0.76921100  0.47112200  0.82835400  1
  O  O19  1  0.26925100  0.47108500  0.82829600  1
  O  O20  1  0.21741200  0.53476900  0.16700700  1
  O  O21  1  0.71732300  0.53492800  0.16691400  1
  O  O22  1  0.11601700  0.13177500  0.49972300  1
  O  O23  1  0.61592500  0.13193800  0.49960500  1
loop_
_geom_bond_atom_site_label_1
_geom_bond_atom_site_label_2
_geom_bond_distance
_geom_bond_site_symmetry_2
Li0 O0 2.052138 1_565
Li0 O2 2.052632 1_555
Li0 O12 2.088772 1_455
Li0 O15 2.088989 1_555
Li0 O13 2.204834 1_555
Li0 O14 2.204923 1_455
Li1 O1 2.052122 1_565
Li1 O3 2.052623 1_555
Li1 O13 2.088255 1_555
Li1 O14 2.088500 1_555
Li1 O12 2.205184 1_555
Li1 O15 2.205533 1_555
Li2 O12 2.047809 1_545
Li2 O23 2.118526 1_555
Li2 O0 2.126826 1_655
Li2 O22 2.184970 1_655
Li2 O6 2.309997 1_555
Li2 O1 2.405903 1_555
Li3 O13 2.048132 1_545
Li3 O22 2.118188 1_555
Li3 O1 2.126379 1_555
Li3 O23 2.184692 1_555
Li3 O7 2.309838 1_555
Li3 O0 2.405629 1_555
Li4 O14 2.048684 1_555
Li4 O20 2.118770 1_655
Li4 O3 2.126299 1_555
Li4 O21 2.185267 1_555
Li4 O4 2.310058 1_555
Li4 O2 2.405408 1_655
Li5 O15 2.047572 1_555
Li5 O21 2.118216 1_555
Li5 O2 2.126334 1_555
Li5 O20 2.184970 1_555
Li5 O5 2.309396 1_555
Li5 O3 2.405740 1_555
Li6 O2 2.052505 1_555
Li6 O5 2.116143 1_555
Li6 O19 2.116783 1_555
Li6 O18 2.161344 1_455
Li6 O16 2.197465 1_555
Li6 O4 2.198909 1_455
Li7 O3 2.052345 1_555
Li7 O18 2.116853 1_555
Li7 O4 2.117014 1_555
Li7 O19 2.161124 1_555
Li7 O17 2.197773 1_555
Li7 O5 2.199109 1_555
Li8 O1 2.051363 1_555
Li8 O7 2.115635 1_555
Li8 O17 2.117170 1_554
Li8 O16 2.161332 1_654
Li8 O18 2.198915 1_554
Li8 O6 2.199473 1_555
Li9 O0 2.051382 1_555
Li9 O16 2.116718 1_554
Li9 O6 2.117006 1_455
Li9 O17 2.161280 1_554
Li9 O19 2.198637 1_554
Li9 O7 2.198943 1_555
Li10 O14 1.968165 1_455
Li10 O15 1.972155 1_555
Li10 O11 2.103964 1_554
Li10 O20 2.136007 1_555
Li10 O9 2.161400 1_554
Li11 O15 1.967798 1_555
Li11 O14 1.972370 1_555
Li11 O10 2.104130 1_554
Li11 O21 2.134725 1_555
Li11 O8 2.161723 1_654
Li12 O13 1.968522 1_555
Li12 O12 1.971970 1_455
Li12 O8 2.103353 1_555
Li12 O22 2.135613 1_565
Li12 O10 2.161170 1_455
Li13 O12 1.967856 1_555
Li13 O13 1.972222 1_555
Li13 O9 2.103056 1_555
Li13 O23 2.137320 1_565
Li13 O11 2.161277 1_555
Mn0 O5 1.936978 1_555
Mn0 O6 1.937192 1_555
Mn0 O21 1.998709 1_555
Mn0 O23 1.998932 1_555
Mn0 O4 2.259044 1_555
Mn0 O7 2.261976 1_555
Mn1 O14 1.831923 1_455
Mn1 O1 1.951600 1_465
Mn1 O0 1.959294 1_565
Mn1 O11 1.993417 1_554
Mn1 O16 2.020153 1_564
Mn1 O10 2.022018 1_454
Mn2 O13 1.831898 1_555
Mn2 O3 1.951348 1_555
Mn2 O2 1.959136 1_555
Mn2 O8 1.993648 1_555
Mn2 O19 2.020385 1_555
Mn2 O9 2.021602 1_555
Mn3 O17 1.931377 1_555
Mn3 O22 1.943127 1_655
Mn3 O4 1.972624 1_555
Mn3 O10 2.002585 1_545
Mn3 O16 2.219335 1_655
Mn3 O23 2.298606 1_555
Mn4 O18 1.931075 1_555
Mn4 O20 1.942758 1_556
Mn4 O7 1.973237 1_556
Mn4 O9 2.002629 1_555
Mn4 O19 2.217790 1_555
Mn4 O21 2.299732 1_556
Mn5 O4 1.936927 1_455
Mn5 O7 1.937285 1_555
Mn5 O20 1.998726 1_555
Mn5 O22 1.998999 1_555
Mn5 O5 2.260295 1_555
Mn5 O6 2.260460 1_455
Mn6 O15 1.832674 1_555
Mn6 O0 1.951394 1_565
Mn6 O1 1.960392 1_565
Mn6 O10 1.993408 1_554
Mn6 O17 2.020295 1_564
Mn6 O11 2.020483 1_554
Mn7 O12 1.832826 1_555
Mn7 O2 1.951443 1_655
Mn7 O3 1.960522 1_555
Mn7 O9 1.993593 1_555
Mn7 O18 2.020009 1_555
Mn7 O8 2.020331 1_655
Mn8 O16 1.931363 1_555
Mn8 O23 1.942807 1_555
Mn8 O5 1.973563 1_555
Mn8 O11 2.002494 1_545
Mn8 O17 2.217866 1_555
Mn8 O22 2.299011 1_555
Mn9 O19 1.931618 1_655
Mn9 O21 1.943267 1_556
Mn9 O6 1.972702 1_556
Mn9 O8 2.002549 1_655
Mn9 O18 2.218962 1_555
Mn9 O20 2.298587 1_656
