# generated using pymatgen
data_NaSr2IO6
_symmetry_space_group_name_H-M   'P 1'
_cell_length_a   5.74995165
_cell_length_b   5.80174100
_cell_length_c   8.12706492
_cell_angle_alpha   90.00000000
_cell_angle_beta   90.03553752
_cell_angle_gamma   90.00000000
_symmetry_Int_Tables_number   1
_chemical_formula_structural   NaSr2IO6
_chemical_formula_sum   'Na2 Sr4 I2 O12'
_cell_volume   271.11664116
_cell_formula_units_Z   2
loop_
 _symmetry_equiv_pos_site_id
 _symmetry_equiv_pos_as_xyz
  1  'x, y, z'
loop_
 _atom_site_type_symbol
 _atom_site_label
 _atom_site_symmetry_multiplicity
 _atom_site_fract_x
 _atom_site_fract_y
 _atom_site_fract_z
 _atom_site_occupancy
  Na  Na0  1  0.50000000  0.50000000  -0.00000000  1
  Na  Na1  1  0.00000000  0.00000000  0.50000000  1
  Sr  Sr0  1  0.50715342  0.03637527  0.75074046  1
  Sr  Sr1  1  0.99284658  0.53637527  0.74925954  1
  Sr  Sr2  1  0.49284658  0.96362473  0.24925954  1
  Sr  Sr3  1  0.00715342  0.46362473  0.25074046  1
  I  I0  1  0.50000000  0.50000000  0.50000000  1
  I  I1  1  0.00000000  0.00000000  -0.00000000  1
  O  O0  1  0.68540575  0.76110205  0.53935101  1
  O  O1  1  0.81459425  0.26110205  0.96064899  1
  O  O2  1  0.31459425  0.23889795  0.46064899  1
  O  O3  1  0.18540575  0.73889795  0.03935101  1
  O  O4  1  0.43064045  0.48003804  0.72500854  1
  O  O5  1  0.06935955  0.98003804  0.77499146  1
  O  O6  1  0.56935955  0.51996196  0.27499146  1
  O  O7  1  0.93064045  0.01996196  0.22500854  1
  O  O8  1  0.76015810  0.31023451  0.53350579  1
  O  O9  1  0.73984190  0.81023451  0.96649421  1
  O  O10  1  0.23984190  0.68976549  0.46649421  1
  O  O11  1  0.26015810  0.18976549  0.03350579  1
loop_
_geom_bond_atom_site_label_1
_geom_bond_atom_site_label_2
_geom_bond_distance
_geom_bond_site_symmetry_2
Na0 O4 2.272888 1_554
Na0 O6 2.272888 1_555
Na0 O9 2.283882 1_554
Na0 O11 2.283882 1_555
Na0 O1 2.301344 1_554
Na0 O3 2.301344 1_555
Na1 O7 2.272888 1_455
Na1 O5 2.272888 1_545
Na1 O10 2.283882 1_545
Na1 O8 2.283882 1_455
Na1 O0 2.301344 1_445
Na1 O2 2.301344 1_555
I0 O6 1.875464 1_555
I0 O4 1.875464 1_555
I0 O8 1.877095 1_555
I0 O10 1.877095 1_555
I0 O2 1.879662 1_555
I0 O0 1.879662 1_555
I1 O7 1.875464 1_455
I1 O5 1.875464 1_544
I1 O11 1.877095 1_555
I1 O9 1.877095 1_444
I1 O3 1.879662 1_545
I1 O1 1.879662 1_454
O0 Sr0 2.560224 1_565
O0 Sr1 2.780542 1_555
O0 Sr2 2.856833 1_555
O1 Sr1 2.560224 1_555
O1 Sr0 2.780542 1_555
O1 Sr3 2.856833 1_656
O2 Sr2 2.560224 1_545
O2 Sr3 2.780542 1_555
O2 Sr0 2.856833 1_555
O3 Sr3 2.560224 1_555
O3 Sr2 2.780542 1_555
O3 Sr1 2.856833 1_454
O4 Sr1 2.546185 1_455
O4 Sr0 2.619682 1_555
O5 Sr0 2.546185 1_565
O5 Sr1 2.619682 1_455
O6 Sr3 2.546185 1_655
O6 Sr2 2.619682 1_555
O7 Sr2 2.546185 1_545
O7 Sr3 2.619682 1_655
O8 Sr1 2.565762 1_555
O8 Sr0 2.785844 1_555
O8 Sr3 2.845008 1_655
O9 Sr0 2.565762 1_565
O9 Sr1 2.785844 1_555
O9 Sr2 2.845008 1_556
O10 Sr3 2.565762 1_555
O10 Sr2 2.785844 1_555
O10 Sr1 2.845008 1_455
O11 Sr2 2.565762 1_545
O11 Sr3 2.785844 1_555
O11 Sr0 2.845008 1_554
