# generated using pymatgen
data_Dy2Fe4Si9
_symmetry_space_group_name_H-M   'P 1'
_cell_length_a   3.94030678
_cell_length_b   3.94030678
_cell_length_c   16.03735400
_cell_angle_alpha   90.00000000
_cell_angle_beta   90.00000000
_cell_angle_gamma   120.00001316
_symmetry_Int_Tables_number   1
_chemical_formula_structural   Dy2Fe4Si9
_chemical_formula_sum   'Dy2 Fe4 Si9'
_cell_volume   215.63704042
_cell_formula_units_Z   1
loop_
 _symmetry_equiv_pos_site_id
 _symmetry_equiv_pos_as_xyz
  1  'x, y, z'
loop_
 _atom_site_type_symbol
 _atom_site_label
 _atom_site_symmetry_multiplicity
 _atom_site_fract_x
 _atom_site_fract_y
 _atom_site_fract_z
 _atom_site_occupancy
  Dy  Dy0  1  0.33333300  0.66666700  0.24157400  1
  Dy  Dy1  1  0.66666700  0.33333300  0.75842600  1
  Fe  Fe0  1  0.33333300  0.66666700  0.58909600  1
  Fe  Fe1  1  0.66666700  0.33333300  0.41090400  1
  Fe  Fe2  1  0.66666700  0.33333300  0.10147700  1
  Fe  Fe3  1  0.33333300  0.66666700  0.89852300  1
  Si  Si0  1  0.33333300  0.66666700  0.43529200  1
  Si  Si1  1  0.66666700  0.33333300  0.56470800  1
  Si  Si2  1  0.66666700  0.33333300  0.95684000  1
  Si  Si3  1  0.33333300  0.66666700  0.04316000  1
  Si  Si4  1  0.00000000  0.00000000  0.64988900  1
  Si  Si5  1  0.00000000  0.00000000  0.35011100  1
  Si  Si6  1  0.00000000  0.00000000  0.12637200  1
  Si  Si7  1  0.00000000  0.00000000  0.87362800  1
  Si  Si8  1  0.00000000  0.00000000  0.50000000  1
loop_
_geom_bond_atom_site_label_1
_geom_bond_atom_site_label_2
_geom_bond_distance
_geom_bond_site_symmetry_2
Dy0 Si5 2.864468 1_565
Dy0 Si5 2.864471 1_665
Dy0 Si5 2.864471 1_555
Dy0 Si6 2.930651 1_565
Dy0 Si6 2.930653 1_665
Dy0 Si6 2.930653 1_555
Dy0 Si0 3.106724 1_555
Dy0 Si3 3.182036 1_555
Dy0 Fe2 3.197401 1_455
Dy0 Fe2 3.197401 1_565
Dy0 Fe2 3.197406 1_555
Dy1 Si4 2.864468 1_655
Dy1 Si4 2.864471 1_555
Dy1 Si4 2.864471 1_665
Dy1 Si7 2.930651 1_655
Dy1 Si7 2.930653 1_665
Dy1 Si7 2.930653 1_555
Dy1 Si1 3.106724 1_555
Dy1 Si2 3.182036 1_555
Dy1 Fe3 3.197401 1_655
Dy1 Fe3 3.197401 1_545
Dy1 Fe3 3.197406 1_555
Fe0 Si1 2.308311 1_455
Fe0 Si1 2.308311 1_565
Fe0 Si1 2.308319 1_555
Fe0 Si0 2.466609 1_555
Fe0 Si4 2.475050 1_565
Fe0 Si4 2.475053 1_555
Fe0 Si4 2.475053 1_665
Fe0 Si8 2.686444 1_565
Fe0 Si8 2.686447 1_665
Fe0 Si8 2.686447 1_555
Fe1 Si0 2.308311 1_545
Fe1 Si0 2.308311 1_655
Fe1 Si0 2.308319 1_555
Fe1 Si1 2.466609 1_555
Fe1 Si5 2.475050 1_655
Fe1 Si5 2.475053 1_665
Fe1 Si5 2.475053 1_555
Fe1 Si8 2.686444 1_655
Fe1 Si8 2.686447 1_665
Fe1 Si8 2.686447 1_555
Fe2 Si6 2.309703 1_655
Fe2 Si6 2.309706 1_555
Fe2 Si6 2.309706 1_665
Fe2 Si2 2.319595 1_554
Fe2 Si3 2.459679 1_545
Fe2 Si3 2.459679 1_655
Fe2 Si3 2.459686 1_555
Fe3 Si7 2.309703 1_565
Fe3 Si7 2.309706 1_665
Fe3 Si7 2.309706 1_555
Fe3 Si3 2.319595 1_556
Fe3 Si2 2.459679 1_455
Fe3 Si2 2.459679 1_565
Fe3 Si2 2.459686 1_555
Si0 Si8 2.500449 1_565
Si0 Si8 2.500452 1_555
Si0 Si8 2.500452 1_665
Si0 Si5 2.653582 1_565
Si0 Si5 2.653585 1_665
Si0 Si5 2.653585 1_555
Si1 Si8 2.500449 1_655
Si1 Si8 2.500452 1_665
Si1 Si8 2.500452 1_555
Si1 Si4 2.653582 1_655
Si1 Si4 2.653585 1_555
Si1 Si4 2.653585 1_665
Si2 Si7 2.637465 1_655
Si2 Si7 2.637467 1_555
Si2 Si7 2.637467 1_665
Si2 Si3 2.663032 1_546
Si2 Si3 2.663032 1_656
Si2 Si3 2.663038 1_556
Si3 Si6 2.637465 1_565
Si3 Si6 2.637467 1_555
Si3 Si6 2.637467 1_665
Si4 Si8 2.403823 1_555
Si5 Si8 2.403823 1_555
