# generated using pymatgen
data_Y5Ni2Sb
_symmetry_space_group_name_H-M   'P 1'
_cell_length_a   8.60375688
_cell_length_b   8.60375688
_cell_length_c   8.60375688
_cell_angle_alpha   127.22814001
_cell_angle_beta   127.22814001
_cell_angle_gamma   77.87879094
_symmetry_Int_Tables_number   1
_chemical_formula_structural   Y5Ni2Sb
_chemical_formula_sum   'Y10 Ni4 Sb2'
_cell_volume   391.35995989
_cell_formula_units_Z   2
loop_
 _symmetry_equiv_pos_site_id
 _symmetry_equiv_pos_as_xyz
  1  'x, y, z'
loop_
 _atom_site_type_symbol
 _atom_site_label
 _atom_site_symmetry_multiplicity
 _atom_site_fract_x
 _atom_site_fract_y
 _atom_site_fract_z
 _atom_site_occupancy
  Y  Y0  1  0.00000000  0.00000000  0.00000000  1
  Y  Y1  1  0.50000000  0.50000000  0.00000000  1
  Y  Y2  1  0.79361584  0.29361584  0.81385937  1
  Y  Y3  1  0.20638416  0.70638416  0.18614063  1
  Y  Y4  1  0.47975647  0.97975647  0.18614063  1
  Y  Y5  1  0.29361584  0.47975647  0.50000000  1
  Y  Y6  1  0.02024353  0.20638416  0.50000000  1
  Y  Y7  1  0.52024353  0.02024353  0.81385937  1
  Y  Y8  1  0.70638416  0.52024353  0.50000000  1
  Y  Y9  1  0.97975647  0.79361584  0.50000000  1
  Ni  Ni0  1  0.12944738  0.62944738  0.75889475  1
  Ni  Ni1  1  0.87055262  0.37055262  0.24110525  1
  Ni  Ni2  1  0.62944738  0.87055262  0.50000000  1
  Ni  Ni3  1  0.37055262  0.12944738  0.50000000  1
  Sb  Sb0  1  0.25000000  0.25000000  0.00000000  1
  Sb  Sb1  1  0.75000000  0.75000000  0.00000000  1
loop_
_geom_bond_atom_site_label_1
_geom_bond_atom_site_label_2
_geom_bond_distance
_geom_bond_site_symmetry_2
Ni0 Ni1 2.799918 1_455
Ni0 Y9 2.861315 1_455
Ni0 Y5 2.861315 1_555
Ni0 Y6 2.861315 1_555
Ni0 Y8 2.861315 1_455
Ni0 Y4 2.946923 1_556
Ni0 Y3 2.946923 1_556
Ni0 Y0 3.001651 1_566
Ni0 Y1 3.001651 1_556
Ni1 Y8 2.861315 1_555
Ni1 Y6 2.861315 1_655
Ni1 Y5 2.861315 1_655
Ni1 Y9 2.861315 1_555
Ni1 Y7 2.946923 1_554
Ni1 Y2 2.946923 1_554
Ni1 Y0 3.001651 1_655
Ni1 Y1 3.001651 1_555
Ni2 Ni3 2.799918 1_565
Ni2 Y4 2.861315 1_555
Ni2 Y2 2.861315 1_565
Ni2 Y7 2.861315 1_565
Ni2 Y3 2.861315 1_555
Ni2 Y9 2.946923 1_555
Ni2 Y8 2.946923 1_555
Ni2 Y1 3.001651 1_555
Ni2 Y0 3.001651 1_666
Ni3 Y3 2.861315 1_545
Ni3 Y7 2.861315 1_555
Ni3 Y2 2.861315 1_555
Ni3 Y4 2.861315 1_545
Ni3 Y6 2.946923 1_555
Ni3 Y5 2.946923 1_555
Ni3 Y1 3.001651 1_556
Ni3 Y0 3.001651 1_555
Sb0 Y6 3.259351 1_554
Sb0 Y8 3.259351 1_555
Sb0 Y2 3.259351 1_454
Sb0 Y4 3.259351 1_545
Sb0 Y9 3.259351 1_444
Sb0 Y5 3.259351 1_555
Sb0 Y7 3.259351 1_554
Sb0 Y3 3.259351 1_555
Sb0 Y1 3.346049 1_555
Sb0 Y0 3.346049 1_555
Sb1 Y7 3.259351 1_564
Sb1 Y4 3.259351 1_555
Sb1 Y5 3.259351 1_554
Sb1 Y2 3.259351 1_554
Sb1 Y8 3.259351 1_554
Sb1 Y9 3.259351 1_555
Sb1 Y3 3.259351 1_655
Sb1 Y6 3.259351 1_665
Sb1 Y1 3.346049 1_555
Sb1 Y0 3.346049 1_665
