# generated using pymatgen
data_NaMnH2C3O7
_symmetry_space_group_name_H-M   'P 1'
_cell_length_a   6.01195465
_cell_length_b   7.47519343
_cell_length_c   16.05380200
_cell_angle_alpha   90.00000000
_cell_angle_beta   90.00000000
_cell_angle_gamma   101.09691416
_symmetry_Int_Tables_number   1
_chemical_formula_structural   NaMnH2C3O7
_chemical_formula_sum   'Na4 Mn4 H8 C12 O28'
_cell_volume   707.97703984
_cell_formula_units_Z   4
loop_
 _symmetry_equiv_pos_site_id
 _symmetry_equiv_pos_as_xyz
  1  'x, y, z'
loop_
 _atom_site_type_symbol
 _atom_site_label
 _atom_site_symmetry_multiplicity
 _atom_site_fract_x
 _atom_site_fract_y
 _atom_site_fract_z
 _atom_site_occupancy
  Na  Na0  1  0.96791100  0.79641800  0.32072800  1
  Na  Na1  1  0.03208900  0.20358200  0.67927200  1
  Na  Na2  1  0.03208900  0.70358200  0.82072800  1
  Na  Na3  1  0.96791100  0.29641800  0.17927200  1
  Mn  Mn0  1  0.22693500  0.78837400  0.60331300  1
  Mn  Mn1  1  0.77306500  0.21162600  0.39668700  1
  Mn  Mn2  1  0.77306500  0.71162600  0.10331300  1
  Mn  Mn3  1  0.22693500  0.28837400  0.89668700  1
  H  H0  1  0.45212700  0.64637500  0.88578100  1
  H  H1  1  0.54787300  0.35362500  0.11421900  1
  H  H2  1  0.54787300  0.85362500  0.38578100  1
  H  H3  1  0.45212700  0.14637500  0.61421900  1
  H  H4  1  0.67753900  0.86127400  0.47463000  1
  H  H5  1  0.32246100  0.13872600  0.52537000  1
  H  H6  1  0.32246100  0.63872600  0.97463000  1
  H  H7  1  0.67753900  0.36127400  0.02537000  1
  C  C0  1  0.55637400  0.75243700  0.73701000  1
  C  C1  1  0.44362600  0.24756300  0.26299000  1
  C  C2  1  0.44362600  0.74756300  0.23701000  1
  C  C3  1  0.55637400  0.25243700  0.76299000  1
  C  C4  1  0.70634100  0.79578700  0.65738700  1
  C  C5  1  0.29365900  0.20421300  0.34261300  1
  C  C6  1  0.29365900  0.70421300  0.15738700  1
  C  C7  1  0.70634100  0.29578700  0.84261300  1
  C  C8  1  0.99566700  0.93064100  0.96404200  1
  C  C9  1  0.00433300  0.06935900  0.03595800  1
  C  C10  1  0.00433300  0.56935900  0.46404200  1
  C  C11  1  0.99566700  0.43064100  0.53595800  1
  O  O0  1  0.68800500  0.90967100  0.41714700  1
  O  O1  1  0.31199500  0.09032900  0.58285300  1
  O  O2  1  0.31199500  0.59032900  0.91714700  1
  O  O3  1  0.68800500  0.40967100  0.08285300  1
  O  O4  1  0.91949700  0.83493100  0.66820300  1
  O  O5  1  0.08050300  0.16506900  0.33179700  1
  O  O6  1  0.08050300  0.66506900  0.16820300  1
  O  O7  1  0.91949700  0.33493100  0.83179700  1
  O  O8  1  0.89400800  0.76809800  0.97734300  1
  O  O9  1  0.10599200  0.23190200  0.02265700  1
  O  O10  1  0.10599200  0.73190200  0.47734300  1
  O  O11  1  0.89400800  0.26809800  0.52265700  1
  O  O12  1  0.90792900  0.51116400  0.39635800  1
  O  O13  1  0.09207100  0.48883600  0.60364200  1
  O  O14  1  0.09207100  0.98883600  0.89635800  1
  O  O15  1  0.90792900  0.01116400  0.10364200  1
  O  O16  1  0.34842300  0.76295600  0.72840900  1
  O  O17  1  0.65157700  0.23704400  0.27159100  1
  O  O18  1  0.65157700  0.73704400  0.22840900  1
  O  O19  1  0.34842300  0.26295600  0.77159100  1
  O  O20  1  0.64631100  0.70915500  0.80305000  1
  O  O21  1  0.35368900  0.29084500  0.19695000  1
  O  O22  1  0.35368900  0.79084500  0.30305000  1
  O  O23  1  0.64631100  0.20915500  0.69695000  1
  O  O24  1  0.60111100  0.78873700  0.58846600  1
  O  O25  1  0.39888900  0.21126300  0.41153400  1
  O  O26  1  0.39888900  0.71126300  0.08846600  1
  O  O27  1  0.60111100  0.28873700  0.91153400  1
loop_
_geom_bond_atom_site_label_1
_geom_bond_atom_site_label_2
_geom_bond_distance
_geom_bond_site_symmetry_2
Na0 O22 2.344894 1_655
Na0 O18 2.384406 1_555
Na0 O12 2.419717 1_555
Na0 O0 2.548103 1_555
Na0 O5 2.714003 1_665
Na0 O10 2.719808 1_655
Na0 O6 2.770153 1_655
Na1 O23 2.344894 1_455
Na1 O19 2.384406 1_555
Na1 O13 2.419717 1_555
Na1 O1 2.548103 1_555
Na1 O4 2.714003 1_445
Na1 O11 2.719808 1_455
Na1 O7 2.770153 1_455
Na2 O20 2.344894 1_455
Na2 O16 2.384406 1_555
Na2 O14 2.419717 1_555
Na2 O2 2.548103 1_555
Na2 O7 2.714003 1_455
Na2 O8 2.719808 1_455
Na2 O4 2.770153 1_455
Na3 O21 2.344894 1_655
Na3 O17 2.384406 1_555
Na3 O15 2.419717 1_555
Na3 O3 2.548103 1_555
Na3 O6 2.714003 1_655
Na3 O9 2.719808 1_655
Na3 O5 2.770153 1_655
Mn0 O16 2.157802 1_555
Mn0 O10 2.162965 1_555
Mn0 O4 2.206844 1_455
Mn0 O13 2.229836 1_555
Mn0 O1 2.240513 1_565
Mn0 O24 2.261603 1_555
Mn1 O17 2.157802 1_555
Mn1 O11 2.162965 1_555
Mn1 O5 2.206844 1_655
Mn1 O12 2.229836 1_555
Mn1 O0 2.240513 1_545
Mn1 O25 2.261603 1_555
Mn2 O18 2.157802 1_555
Mn2 O8 2.162965 1_554
Mn2 O6 2.206844 1_655
Mn2 O15 2.229836 1_565
Mn2 O3 2.240513 1_555
Mn2 O26 2.261603 1_555
Mn3 O19 2.157802 1_555
Mn3 O9 2.162965 1_556
Mn3 O7 2.206844 1_455
Mn3 O14 2.229836 1_545
Mn3 O2 2.240513 1_555
Mn3 O27 2.261603 1_555
H0 O2 1.001481 1_555
H1 O3 1.001481 1_555
H2 O0 1.001481 1_555
H3 O1 1.001481 1_555
H4 O0 0.988776 1_555
H5 O1 0.988776 1_555
H6 O2 0.988776 1_555
H7 O3 0.988776 1_555
C0 O20 1.260310 1_555
C0 O16 1.275174 1_555
C1 O21 1.260310 1_555
C1 O17 1.275174 1_555
C2 O22 1.260310 1_555
C2 O18 1.275174 1_555
C3 O23 1.260310 1_555
C3 O19 1.275174 1_555
C4 O4 1.270287 1_555
C4 O24 1.270588 1_555
C5 O5 1.270287 1_555
C5 O25 1.270588 1_555
C6 O6 1.270287 1_555
C6 O26 1.270588 1_555
C7 O7 1.270287 1_555
C7 O27 1.270588 1_555
C8 O14 1.268371 1_655
C8 O8 1.268698 1_555
C9 O15 1.268371 1_455
C9 O9 1.268698 1_555
C10 O12 1.268371 1_455
C10 O10 1.268698 1_555
C11 O13 1.268371 1_655
C11 O11 1.268698 1_555
