# generated using pymatgen
data_Ba2La3Ti3NbO15
_symmetry_space_group_name_H-M   'P 1'
_cell_length_a   5.66765593
_cell_length_b   5.66765593
_cell_length_c   23.42348700
_cell_angle_alpha   90.00000000
_cell_angle_beta   90.00000000
_cell_angle_gamma   119.99999923
_symmetry_Int_Tables_number   1
_chemical_formula_structural   Ba2La3Ti3NbO15
_chemical_formula_sum   'Ba4 La6 Ti6 Nb2 O30'
_cell_volume   651.61209724
_cell_formula_units_Z   2
loop_
 _symmetry_equiv_pos_site_id
 _symmetry_equiv_pos_as_xyz
  1  'x, y, z'
loop_
 _atom_site_type_symbol
 _atom_site_label
 _atom_site_symmetry_multiplicity
 _atom_site_fract_x
 _atom_site_fract_y
 _atom_site_fract_z
 _atom_site_occupancy
  Ba  Ba0  1  0.33333300  0.66666700  0.03861100  1
  Ba  Ba1  1  0.33333300  0.66666700  0.53861100  1
  Ba  Ba2  1  0.66666700  0.33333300  0.96594300  1
  Ba  Ba3  1  0.66666700  0.33333300  0.46594300  1
  La  La0  1  0.66666700  0.33333300  0.13930100  1
  La  La1  1  0.66666700  0.33333300  0.63930100  1
  La  La2  1  0.33333300  0.66666700  0.85335500  1
  La  La3  1  0.33333300  0.66666700  0.35335500  1
  La  La4  1  0.00000000  0.00000000  0.24812900  1
  La  La5  1  0.00000000  0.00000000  0.74812900  1
  Ti  Ti0  1  0.33333300  0.66666700  0.19839000  1
  Ti  Ti1  1  0.33333300  0.66666700  0.69839000  1
  Ti  Ti2  1  0.66666700  0.33333300  0.79681200  1
  Ti  Ti3  1  0.66666700  0.33333300  0.29681200  1
  Ti  Ti4  1  0.00000000  0.00000000  0.09642000  1
  Ti  Ti5  1  0.00000000  0.00000000  0.59642000  1
  Nb  Nb0  1  0.00000000  0.00000000  0.90246200  1
  Nb  Nb1  1  0.00000000  0.00000000  0.40246200  1
  O  O0  1  0.21802900  0.88687000  0.15927200  1
  O  O1  1  0.66884100  0.78197100  0.15927200  1
  O  O2  1  0.11313000  0.33115900  0.15927200  1
  O  O3  1  0.21802900  0.33115900  0.65927200  1
  O  O4  1  0.11313000  0.78197100  0.65927200  1
  O  O5  1  0.66884100  0.88687000  0.65927200  1
  O  O6  1  0.77717000  0.10620300  0.84168200  1
  O  O7  1  0.32903300  0.22283000  0.84168200  1
  O  O8  1  0.89379700  0.67096700  0.84168200  1
  O  O9  1  0.77717000  0.67096700  0.34168200  1
  O  O10  1  0.89379700  0.22283000  0.34168200  1
  O  O11  1  0.32903300  0.10620300  0.34168200  1
  O  O12  1  0.65772000  0.79718400  0.93841900  1
  O  O13  1  0.13946500  0.34228000  0.93841900  1
  O  O14  1  0.20281600  0.86053500  0.93841900  1
  O  O15  1  0.65772000  0.86053500  0.43841900  1
  O  O16  1  0.20281600  0.34228000  0.43841900  1
  O  O17  1  0.13946500  0.79718400  0.43841900  1
  O  O18  1  0.33432200  0.19487800  0.06243700  1
  O  O19  1  0.86055600  0.66567800  0.06243700  1
  O  O20  1  0.80512200  0.13944400  0.06243700  1
  O  O21  1  0.33432200  0.13944400  0.56243700  1
  O  O22  1  0.80512200  0.66567800  0.56243700  1
  O  O23  1  0.86055600  0.19487800  0.56243700  1
  O  O24  1  0.55797700  0.99913600  0.25171400  1
  O  O25  1  0.44115900  0.44202300  0.25171400  1
  O  O26  1  0.00086400  0.55884100  0.25171400  1
  O  O27  1  0.55797700  0.55884100  0.75171400  1
  O  O28  1  0.00086400  0.44202300  0.75171400  1
  O  O29  1  0.44115900  0.99913600  0.75171400  1
loop_
_geom_bond_atom_site_label_1
_geom_bond_atom_site_label_2
_geom_bond_distance
_geom_bond_site_symmetry_2
Ba0 O19 2.734300 1_455
Ba0 O20 2.734302 1_565
Ba0 O18 2.734305 1_555
Ba0 O14 2.841652 1_554
Ba0 O13 2.841657 1_554
Ba0 O12 2.841658 1_554
Ba0 O18 3.042542 1_565
Ba0 O20 3.042545 1_455
Ba0 O19 3.042548 1_555
Ba0 O0 3.284544 1_555
Ba0 O2 3.284547 1_555
Ba0 O1 3.284547 1_555
Ba1 O21 2.734300 1_565
Ba1 O23 2.734302 1_455
Ba1 O22 2.734305 1_555
Ba1 O17 2.841652 1_555
Ba1 O15 2.841657 1_555
Ba1 O16 2.841658 1_555
Ba1 O22 3.042542 1_455
Ba1 O23 3.042545 1_565
Ba1 O21 3.042548 1_555
Ba1 O4 3.284544 1_555
Ba1 O5 3.284547 1_555
Ba1 O3 3.284547 1_555
Ba2 O12 2.731830 1_555
Ba2 O13 2.731830 1_655
Ba2 O14 2.731830 1_545
Ba2 O20 2.791826 1_556
Ba2 O19 2.791829 1_556
Ba2 O18 2.791829 1_556
Ba2 O13 3.081863 1_555
Ba2 O12 3.081863 1_545
Ba2 O14 3.081863 1_655
Ba2 O6 3.365611 1_555
Ba2 O8 3.365613 1_555
Ba2 O7 3.365614 1_555
Ba3 O16 2.731830 1_555
Ba3 O15 2.731830 1_545
Ba3 O17 2.731830 1_655
Ba3 O23 2.791826 1_555
Ba3 O21 2.791829 1_555
Ba3 O22 2.791829 1_555
Ba3 O15 3.081863 1_555
Ba3 O16 3.081863 1_655
Ba3 O17 3.081863 1_545
Ba3 O10 3.365611 1_555
Ba3 O11 3.365613 1_555
Ba3 O9 3.365614 1_555
La0 O20 2.434583 1_555
La0 O19 2.434586 1_555
La0 O18 2.434586 1_555
La0 O2 2.579356 1_655
La0 O0 2.579358 1_545
La0 O1 2.579361 1_555
La1 O23 2.434583 1_555
La1 O21 2.434586 1_555
La1 O22 2.434586 1_555
La1 O5 2.579356 1_545
La1 O4 2.579358 1_655
La1 O3 2.579361 1_555
La2 O8 2.518301 1_455
La2 O6 2.518303 1_565
La2 O7 2.518306 1_555
La2 O14 2.556822 1_555
La2 O13 2.556827 1_555
La2 O12 2.556828 1_555
La2 O29 2.905293 1_555
La2 O28 2.905294 1_555
La2 O27 2.905296 1_555
La3 O11 2.518301 1_565
La3 O10 2.518303 1_455
La3 O9 2.518306 1_555
La3 O17 2.556822 1_555
La3 O15 2.556827 1_555
La3 O16 2.556828 1_555
La3 O26 2.905293 1_555
La3 O24 2.905294 1_555
La3 O25 2.905296 1_555
La4 O26 2.504198 1_545
La4 O24 2.504198 1_445
La4 O25 2.504198 1_555
La4 O0 2.657517 1_545
La4 O2 2.657517 1_555
La4 O1 2.657517 1_445
La4 O10 2.742158 1_455
La4 O11 2.742158 1_555
La4 O9 2.742158 1_445
La5 O29 2.504198 1_545
La5 O28 2.504198 1_555
La5 O27 2.504198 1_445
La5 O4 2.657517 1_545
La5 O5 2.657517 1_445
La5 O3 2.657517 1_555
La5 O6 2.742158 1_455
La5 O8 2.742158 1_445
La5 O7 2.742158 1_555
Nb0 O13 1.887876 1_555
Nb0 O12 1.887877 1_445
Nb0 O14 1.887881 1_545
Nb0 O6 2.178149 1_455
Nb0 O8 2.178149 1_445
Nb0 O7 2.178149 1_555
Nb1 O15 1.887876 1_445
Nb1 O16 1.887877 1_555
Nb1 O17 1.887881 1_545
Nb1 O10 2.178149 1_455
Nb1 O11 2.178149 1_555
Nb1 O9 2.178149 1_445
O0 Ti0 1.907832 1_555
O0 Ti4 2.213104 1_565
O1 Ti0 1.907836 1_555
O1 Ti4 2.213104 1_665
O2 Ti0 1.907835 1_555
O2 Ti4 2.213104 1_555
O3 Ti1 1.907836 1_555
O3 Ti5 2.213104 1_555
O4 Ti1 1.907832 1_555
O4 Ti5 2.213104 1_565
O5 Ti1 1.907835 1_555
O5 Ti5 2.213104 1_665
O6 Ti2 1.990030 1_555
O7 Ti2 1.990035 1_555
O8 Ti2 1.990034 1_555
O9 Ti3 1.990035 1_555
O10 Ti3 1.990030 1_555
O11 Ti3 1.990034 1_555
O18 Ti4 1.830589 1_555
O19 Ti4 1.830589 1_665
O20 Ti4 1.830589 1_655
O21 Ti5 1.830589 1_555
O22 Ti5 1.830589 1_665
O23 Ti5 1.830589 1_655
O24 Ti3 1.978943 1_565
O24 Ti0 2.081507 1_555
O25 Ti3 1.978948 1_555
O25 Ti0 2.081511 1_555
O26 Ti3 1.978944 1_455
O26 Ti0 2.081506 1_555
O27 Ti2 1.978948 1_555
O27 Ti1 2.081511 1_555
O28 Ti2 1.978943 1_455
O28 Ti1 2.081507 1_555
O29 Ti2 1.978944 1_565
O29 Ti1 2.081506 1_555
