# generated using pymatgen
data_KBa(AgTe2)2
_symmetry_space_group_name_H-M   'P 1'
_cell_length_a   12.79575237
_cell_length_b   12.79575237
_cell_length_c   12.79575237
_cell_angle_alpha   159.32919855
_cell_angle_beta   159.32919855
_cell_angle_gamma   29.39599914
_symmetry_Int_Tables_number   1
_chemical_formula_structural   KBa(AgTe2)2
_chemical_formula_sum   'K1 Ba1 Ag2 Te4'
_cell_volume   260.91668671
_cell_formula_units_Z   1
loop_
 _symmetry_equiv_pos_site_id
 _symmetry_equiv_pos_as_xyz
  1  'x, y, z'
loop_
 _atom_site_type_symbol
 _atom_site_label
 _atom_site_symmetry_multiplicity
 _atom_site_fract_x
 _atom_site_fract_y
 _atom_site_fract_z
 _atom_site_occupancy
  K  K0  1  0.88287600  0.88287600  0.00000000  1
  Ba  Ba0  1  0.11641100  0.11641100  0.00000000  1
  Ag  Ag0  1  0.25134400  0.75134400  0.50000000  1
  Ag  Ag1  1  0.75134400  0.25134400  0.50000000  1
  Te  Te0  1  0.50235600  0.00235600  0.50000000  1
  Te  Te1  1  0.00235600  0.50235600  0.50000000  1
  Te  Te2  1  0.32036300  0.32036300  0.00000000  1
  Te  Te3  1  0.67295000  0.67295000  0.00000000  1
loop_
_geom_bond_atom_site_label_1
_geom_bond_atom_site_label_2
_geom_bond_distance
_geom_bond_site_symmetry_2
K0 Te2 3.596521 1_655
K0 Te2 3.596521 1_554
K0 Te2 3.596521 1_565
K0 Te2 3.596521 1_666
K0 Te0 3.744018 1_564
K0 Te1 3.744018 1_654
K0 Te0 3.744018 1_665
K0 Te1 3.744018 1_665
Ba0 Te3 3.535414 1_455
Ba0 Te3 3.535414 1_545
Ba0 Te3 3.535414 1_556
Ba0 Te3 3.535414 1_444
Ba0 Te0 3.638865 1_555
Ba0 Te1 3.638865 1_555
Ba0 Te0 3.638865 1_454
Ba0 Te1 3.638865 1_544
Ag0 Te2 2.861670 1_566
Ag0 Te2 2.861670 1_555
Ag0 Te3 3.005993 1_556
Ag0 Te3 3.005993 1_455
Ag1 Te2 2.861670 1_656
Ag1 Te2 2.861670 1_555
Ag1 Te3 3.005993 1_556
Ag1 Te3 3.005993 1_545
Te0 Te1 3.246592 1_555
Te0 Te1 3.246592 1_656
Te0 Te1 3.246592 1_645
Te0 Te1 3.246592 1_544
