# generated using pymatgen
data_Sm2CdCu2
_symmetry_space_group_name_H-M   'P 1'
_cell_length_a   7.57918250
_cell_length_b   7.57918250
_cell_length_c   3.82363615
_cell_angle_alpha   90.00000000
_cell_angle_beta   90.00000000
_cell_angle_gamma   90.00000000
_symmetry_Int_Tables_number   1
_chemical_formula_structural   Sm2CdCu2
_chemical_formula_sum   'Sm4 Cd2 Cu4'
_cell_volume   219.64498317
_cell_formula_units_Z   2
loop_
 _symmetry_equiv_pos_site_id
 _symmetry_equiv_pos_as_xyz
  1  'x, y, z'
loop_
 _atom_site_type_symbol
 _atom_site_label
 _atom_site_symmetry_multiplicity
 _atom_site_fract_x
 _atom_site_fract_y
 _atom_site_fract_z
 _atom_site_occupancy
  Sm  Sm0  1  0.67570715  0.17570715  0.50000000  1
  Sm  Sm1  1  0.32429285  0.82429285  0.50000000  1
  Sm  Sm2  1  0.17570715  0.32429285  0.50000000  1
  Sm  Sm3  1  0.82429285  0.67570715  0.50000000  1
  Cd  Cd0  1  -0.00000000  0.00000000  -0.00000000  1
  Cd  Cd1  1  0.50000000  0.50000000  -0.00000000  1
  Cu  Cu0  1  0.11889059  0.61889059  -0.00000000  1
  Cu  Cu1  1  0.88110941  0.38110941  0.00000000  1
  Cu  Cu2  1  0.61889059  0.88110941  0.00000000  1
  Cu  Cu3  1  0.38110941  0.11889059  -0.00000000  1
loop_
_geom_bond_atom_site_label_1
_geom_bond_atom_site_label_2
_geom_bond_distance
_geom_bond_site_symmetry_2
Cd0 Cu2 3.025787 1_445
Cd0 Cu1 3.025787 1_455
Cd0 Cu0 3.025787 1_545
Cd0 Cu3 3.025787 1_555
Cd0 Sm0 3.386689 1_455
Cd0 Sm0 3.386689 1_454
Cd0 Sm3 3.386689 1_445
Cd0 Sm2 3.386689 1_555
Cd0 Sm2 3.386689 1_554
Cd0 Sm1 3.386689 1_544
Cd0 Sm1 3.386689 1_545
Cd0 Sm3 3.386689 1_444
Cd1 Cu2 3.025787 1_555
Cd1 Cu1 3.025787 1_555
Cd1 Cu0 3.025787 1_555
Cd1 Cu3 3.025787 1_555
Cd1 Sm1 3.386689 1_554
Cd1 Sm2 3.386689 1_554
Cd1 Sm2 3.386689 1_555
Cd1 Sm1 3.386689 1_555
Cd1 Sm3 3.386689 1_555
Cd1 Sm0 3.386689 1_554
Cd1 Sm3 3.386689 1_554
Cd1 Sm0 3.386689 1_555
Cu0 Cu1 2.548677 1_455
Cu0 Sm1 2.915850 1_555
Cu0 Sm1 2.915850 1_554
Cu0 Sm3 2.970846 1_455
Cu0 Sm3 2.970846 1_454
Cu0 Sm2 2.970846 1_555
Cu0 Sm2 2.970846 1_554
Cu1 Sm0 2.915850 1_555
Cu1 Sm0 2.915850 1_554
Cu1 Sm2 2.970846 1_655
Cu1 Sm3 2.970846 1_554
Cu1 Sm3 2.970846 1_555
Cu1 Sm2 2.970846 1_654
Cu2 Cu3 2.548677 1_565
Cu2 Sm3 2.915850 1_554
Cu2 Sm3 2.915850 1_555
Cu2 Sm1 2.970846 1_555
Cu2 Sm0 2.970846 1_565
Cu2 Sm0 2.970846 1_564
Cu2 Sm1 2.970846 1_554
Cu3 Sm2 2.915850 1_554
Cu3 Sm2 2.915850 1_555
Cu3 Sm0 2.970846 1_554
Cu3 Sm1 2.970846 1_544
Cu3 Sm1 2.970846 1_545
Cu3 Sm0 2.970846 1_555
