# generated using pymatgen
data_Mg3Bi2O7
_symmetry_space_group_name_H-M   'P 1'
_cell_length_a   10.19431249
_cell_length_b   10.19431249
_cell_length_c   5.64848500
_cell_angle_alpha   90.00000000
_cell_angle_beta   90.00000000
_cell_angle_gamma   147.63624465
_symmetry_Int_Tables_number   1
_chemical_formula_structural   Mg3Bi2O7
_chemical_formula_sum   'Mg6 Bi4 O14'
_cell_volume   314.22380509
_cell_formula_units_Z   2
loop_
 _symmetry_equiv_pos_site_id
 _symmetry_equiv_pos_as_xyz
  1  'x, y, z'
loop_
 _atom_site_type_symbol
 _atom_site_label
 _atom_site_symmetry_multiplicity
 _atom_site_fract_x
 _atom_site_fract_y
 _atom_site_fract_z
 _atom_site_occupancy
  Mg  Mg0  1  0.73882200  0.73882200  0.25931900  1
  Mg  Mg1  1  0.26117800  0.26117800  0.75931900  1
  Mg  Mg2  1  0.00372500  0.59140300  0.20727300  1
  Mg  Mg3  1  0.99627500  0.40859700  0.70727300  1
  Mg  Mg4  1  0.59140300  0.00372500  0.20727300  1
  Mg  Mg5  1  0.40859700  0.99627500  0.70727300  1
  Bi  Bi0  1  0.15763300  0.36696900  0.25162200  1
  Bi  Bi1  1  0.84236700  0.63303100  0.75162200  1
  Bi  Bi2  1  0.63303100  0.84236700  0.75162200  1
  Bi  Bi3  1  0.36696900  0.15763300  0.25162200  1
  O  O0  1  0.33977200  0.92163300  0.34098100  1
  O  O1  1  0.66022800  0.07836700  0.84098100  1
  O  O2  1  0.07836700  0.66022800  0.84098100  1
  O  O3  1  0.92163300  0.33977200  0.34098100  1
  O  O4  1  0.55246200  0.26089200  0.92050200  1
  O  O5  1  0.44753800  0.73910800  0.42050200  1
  O  O6  1  0.73910800  0.44753800  0.42050200  1
  O  O7  1  0.26089200  0.55246200  0.92050200  1
  O  O8  1  0.99163300  0.83762800  0.09536600  1
  O  O9  1  0.00836700  0.16237200  0.59536600  1
  O  O10  1  0.41728000  0.41728000  0.08919100  1
  O  O11  1  0.58272000  0.58272000  0.58919100  1
  O  O12  1  0.83762800  0.99163300  0.09536600  1
  O  O13  1  0.16237200  0.00836700  0.59536600  1
loop_
_geom_bond_atom_site_label_1
_geom_bond_atom_site_label_2
_geom_bond_distance
_geom_bond_site_symmetry_2
Mg0 O8 2.031977 1_555
Mg0 O12 2.031977 1_555
Mg0 O11 2.063622 1_555
Mg0 O10 2.064328 1_555
Mg1 O13 2.031977 1_555
Mg1 O9 2.031977 1_555
Mg1 O10 2.063622 1_556
Mg1 O11 2.064328 1_555
Mg2 O0 2.038811 1_555
Mg2 O6 2.048179 1_455
Mg2 O3 2.055349 1_455
Mg2 O2 2.109530 1_554
Mg2 O8 2.690360 1_455
Mg3 O1 2.038811 1_555
Mg3 O7 2.048179 1_655
Mg3 O2 2.055349 1_655
Mg3 O3 2.109530 1_555
Mg3 O9 2.690360 1_655
Mg4 O3 2.038811 1_555
Mg4 O5 2.048179 1_545
Mg4 O0 2.055349 1_545
Mg4 O1 2.109530 1_554
Mg4 O12 2.690360 1_545
Mg5 O2 2.038811 1_555
Mg5 O4 2.048179 1_565
Mg5 O1 2.055349 1_565
Mg5 O0 2.109530 1_555
Mg5 O13 2.690360 1_565
Bi0 O7 2.195289 1_554
Bi0 O12 2.230467 1_445
Bi0 O3 2.234489 1_455
Bi0 O9 2.252574 1_555
Bi0 O5 2.257405 1_555
Bi0 O10 2.411980 1_555
Bi1 O6 2.195289 1_555
Bi1 O13 2.230467 1_665
Bi1 O2 2.234489 1_655
Bi1 O8 2.252574 1_556
Bi1 O4 2.257405 1_555
Bi1 O11 2.411980 1_555
Bi2 O5 2.195289 1_555
Bi2 O9 2.230467 1_665
Bi2 O1 2.234489 1_565
Bi2 O12 2.252574 1_556
Bi2 O7 2.257405 1_555
Bi2 O11 2.411980 1_555
Bi3 O4 2.195289 1_554
Bi3 O8 2.230467 1_445
Bi3 O0 2.234489 1_545
Bi3 O13 2.252574 1_555
Bi3 O6 2.257405 1_555
Bi3 O10 2.411980 1_555
