# generated using pymatgen
data_Nd9(Ni13P6)2
_symmetry_space_group_name_H-M   'P 1'
_cell_length_a   14.38091189
_cell_length_b   14.38091189
_cell_length_c   3.86875100
_cell_angle_alpha   90.00000000
_cell_angle_beta   90.00000000
_cell_angle_gamma   119.99999952
_symmetry_Int_Tables_number   1
_chemical_formula_structural   Nd9(Ni13P6)2
_chemical_formula_sum   'Nd9 Ni26 P12'
_cell_volume   692.90590680
_cell_formula_units_Z   1
loop_
 _symmetry_equiv_pos_site_id
 _symmetry_equiv_pos_as_xyz
  1  'x, y, z'
loop_
 _atom_site_type_symbol
 _atom_site_label
 _atom_site_symmetry_multiplicity
 _atom_site_fract_x
 _atom_site_fract_y
 _atom_site_fract_z
 _atom_site_occupancy
  Nd  Nd0  1  0.19093600  0.80906400  0.50000000  1
  Nd  Nd1  1  0.19093600  0.38187200  0.50000000  1
  Nd  Nd2  1  0.61812800  0.80906400  0.50000000  1
  Nd  Nd3  1  0.90748100  0.09251900  0.50000000  1
  Nd  Nd4  1  0.90748100  0.81496300  0.50000000  1
  Nd  Nd5  1  0.18503700  0.09251900  0.50000000  1
  Nd  Nd6  1  0.57565700  0.42434300  0.00000000  1
  Nd  Nd7  1  0.57565700  0.15131300  0.00000000  1
  Nd  Nd8  1  0.84868700  0.42434300  0.00000000  1
  Ni  Ni0  1  0.80895000  0.19105000  0.00000000  1
  Ni  Ni1  1  0.80895000  0.61789900  0.00000000  1
  Ni  Ni2  1  0.38210100  0.19105000  0.00000000  1
  Ni  Ni3  1  0.40039800  0.59960200  0.50000000  1
  Ni  Ni4  1  0.40039800  0.80079700  0.50000000  1
  Ni  Ni5  1  0.19920300  0.59960200  0.50000000  1
  Ni  Ni6  1  0.27802200  0.72197800  0.00000000  1
  Ni  Ni7  1  0.27802200  0.55604400  0.00000000  1
  Ni  Ni8  1  0.44395600  0.72197800  0.00000000  1
  Ni  Ni9  1  0.09770500  0.90229500  0.00000000  1
  Ni  Ni10  1  0.09770500  0.19541100  0.00000000  1
  Ni  Ni11  1  0.80458900  0.90229500  0.00000000  1
  Ni  Ni12  1  0.37975000  0.05235200  0.50000000  1
  Ni  Ni13  1  0.94764800  0.32739800  0.50000000  1
  Ni  Ni14  1  0.94764800  0.62025000  0.50000000  1
  Ni  Ni15  1  0.67260200  0.62025000  0.50000000  1
  Ni  Ni16  1  0.67260200  0.05235200  0.50000000  1
  Ni  Ni17  1  0.37975000  0.32739800  0.50000000  1
  Ni  Ni18  1  0.07655500  0.45460200  0.00000000  1
  Ni  Ni19  1  0.54539800  0.62195200  0.00000000  1
  Ni  Ni20  1  0.54539800  0.92344500  0.00000000  1
  Ni  Ni21  1  0.37804800  0.92344500  0.00000000  1
  Ni  Ni22  1  0.37804800  0.45460200  0.00000000  1
  Ni  Ni23  1  0.07655500  0.62195200  0.00000000  1
  Ni  Ni24  1  0.66666700  0.33333300  0.50000000  1
  Ni  Ni25  1  0.00000000  0.00000000  0.00000000  1
  P  P0  1  0.48633200  0.51366800  0.50000000  1
  P  P1  1  0.48633200  0.97266400  0.50000000  1
  P  P2  1  0.02733600  0.51366800  0.50000000  1
  P  P3  1  0.99619800  0.27534200  0.00000000  1
  P  P4  1  0.72465800  0.72085700  0.00000000  1
  P  P5  1  0.72465800  0.00380200  0.00000000  1
  P  P6  1  0.27914300  0.00380200  0.00000000  1
  P  P7  1  0.27914300  0.27534200  0.00000000  1
  P  P8  1  0.99619800  0.72085700  0.00000000  1
  P  P9  1  0.75898400  0.24101600  0.50000000  1
  P  P10  1  0.75898400  0.51796700  0.50000000  1
  P  P11  1  0.48203300  0.24101600  0.50000000  1
loop_
_geom_bond_atom_site_label_1
_geom_bond_atom_site_label_2
_geom_bond_distance
_geom_bond_site_symmetry_2
Nd0 Ni6 2.906397 1_556
Nd0 Ni6 2.906397 1_555
Nd0 Ni9 3.022352 1_556
Nd0 Ni9 3.022352 1_555
Nd0 Ni21 3.043348 1_555
Nd0 Ni21 3.043348 1_556
Nd0 Ni23 3.043348 1_555
Nd0 Ni23 3.043348 1_556
Nd0 Ni4 3.073423 1_555
Nd0 Ni5 3.073423 1_555
Nd0 P6 3.105046 1_566
Nd0 P6 3.105046 1_565
Nd0 P8 3.105046 1_455
Nd0 P8 3.105046 1_456
Nd0 Ni12 3.180218 1_565
Nd0 Ni14 3.180218 1_455
Nd1 Ni7 2.906397 1_555
Nd1 Ni7 2.906397 1_556
Nd1 Ni10 3.022343 1_556
Nd1 Ni10 3.022343 1_555
Nd1 Ni18 3.043339 1_555
Nd1 Ni18 3.043339 1_556
Nd1 Ni22 3.043350 1_556
Nd1 Ni22 3.043350 1_555
Nd1 Ni3 3.073431 1_555
Nd1 Ni5 3.073437 1_555
Nd1 P7 3.105036 1_555
Nd1 P7 3.105036 1_556
Nd1 P3 3.105045 1_455
Nd1 P3 3.105045 1_456
Nd1 Ni17 3.180218 1_555
Nd1 Ni13 3.180218 1_455
Nd2 Ni8 2.906397 1_555
Nd2 Ni8 2.906397 1_556
Nd2 Ni11 3.022343 1_555
Nd2 Ni11 3.022343 1_556
Nd2 Ni20 3.043339 1_556
Nd2 Ni20 3.043339 1_555
Nd2 Ni19 3.043350 1_556
Nd2 Ni19 3.043350 1_555
Nd2 Ni3 3.073431 1_555
Nd2 Ni4 3.073437 1_555
Nd2 P4 3.105036 1_555
Nd2 P4 3.105036 1_556
Nd2 P5 3.105045 1_566
Nd2 P5 3.105045 1_565
Nd2 Ni15 3.180218 1_555
Nd2 Ni16 3.180218 1_565
Nd3 P3 2.987922 1_555
Nd3 P5 2.987922 1_555
Nd3 P5 2.987922 1_556
Nd3 P3 2.987922 1_556
Nd3 Ni25 3.008747 1_655
Nd3 Ni25 3.008747 1_656
Nd3 Ni11 3.060545 1_546
Nd3 Ni11 3.060545 1_545
Nd3 Ni10 3.060545 1_655
Nd3 Ni10 3.060545 1_656
Nd3 Ni0 3.124929 1_556
Nd3 Ni0 3.124929 1_555
Nd3 Ni13 3.129200 1_555
Nd3 Ni16 3.129200 1_555
Nd4 P8 2.987922 1_555
Nd4 P8 2.987922 1_556
Nd4 P4 2.987922 1_555
Nd4 P4 2.987922 1_556
Nd4 Ni25 3.008738 1_666
Nd4 Ni25 3.008738 1_665
Nd4 Ni11 3.060545 1_555
Nd4 Ni11 3.060545 1_556
Nd4 Ni9 3.060545 1_656
Nd4 Ni9 3.060545 1_655
Nd4 Ni1 3.124949 1_556
Nd4 Ni1 3.124949 1_555
Nd4 Ni15 3.129205 1_555
Nd4 Ni14 3.129214 1_555
Nd5 P6 2.987922 1_556
Nd5 P6 2.987922 1_555
Nd5 P7 2.987922 1_555
Nd5 P7 2.987922 1_556
Nd5 Ni25 3.008738 1_555
Nd5 Ni25 3.008738 1_556
Nd5 Ni10 3.060545 1_556
Nd5 Ni10 3.060545 1_555
Nd5 Ni9 3.060545 1_545
Nd5 Ni9 3.060545 1_546
Nd5 Ni2 3.124949 1_555
Nd5 Ni2 3.124949 1_556
Nd5 Ni17 3.129205 1_555
Nd5 Ni12 3.129214 1_555
Nd6 P0 2.948255 1_555
Nd6 P0 2.948255 1_554
Nd6 Ni24 2.980056 1_554
Nd6 Ni24 2.980056 1_555
Nd6 P11 2.992590 1_554
Nd6 P11 2.992590 1_555
Nd6 P10 2.992590 1_555
Nd6 P10 2.992590 1_554
Nd6 Ni22 3.082497 1_555
Nd6 Ni19 3.082497 1_555
Nd6 Ni2 3.108882 1_555
Nd6 Ni1 3.108882 1_555
Nd6 Ni17 3.113678 1_555
Nd6 Ni17 3.113678 1_554
Nd6 Ni15 3.113678 1_554
Nd6 Ni15 3.113678 1_555
Nd7 P1 2.948246 1_544
Nd7 P1 2.948246 1_545
Nd7 Ni24 2.980056 1_555
Nd7 Ni24 2.980056 1_554
Nd7 P11 2.992590 1_554
Nd7 P11 2.992590 1_555
Nd7 P9 2.992590 1_555
Nd7 P9 2.992590 1_554
Nd7 Ni20 3.082497 1_545
Nd7 Ni21 3.082497 1_545
Nd7 Ni2 3.108882 1_555
Nd7 Ni0 3.108882 1_555
Nd7 Ni16 3.113669 1_555
Nd7 Ni16 3.113669 1_554
Nd7 Ni12 3.113678 1_554
Nd7 Ni12 3.113678 1_555
Nd8 P2 2.948246 1_655
Nd8 P2 2.948246 1_654
Nd8 Ni24 2.980056 1_555
Nd8 Ni24 2.980056 1_554
Nd8 P10 2.992590 1_555
Nd8 P10 2.992590 1_554
Nd8 P9 2.992590 1_555
Nd8 P9 2.992590 1_554
Nd8 Ni18 3.082497 1_655
Nd8 Ni23 3.082497 1_655
Nd8 Ni1 3.108882 1_555
Nd8 Ni0 3.108882 1_555
Nd8 Ni13 3.113669 1_554
Nd8 Ni13 3.113669 1_555
Nd8 Ni14 3.113678 1_554
Nd8 Ni14 3.113678 1_555
Ni0 P9 2.300169 1_555
Ni0 P9 2.300169 1_554
Ni0 P3 2.335889 1_555
Ni0 P5 2.335889 1_555
Ni1 P10 2.300169 1_555
Ni1 P10 2.300169 1_554
Ni1 P8 2.335891 1_555
Ni1 P4 2.335915 1_555
Ni2 P11 2.300169 1_555
Ni2 P11 2.300169 1_554
Ni2 P6 2.335891 1_555
Ni2 P7 2.335915 1_555
Ni3 P0 2.140484 1_555
Ni3 Ni7 2.475675 1_555
Ni3 Ni7 2.475675 1_556
Ni3 Ni8 2.475675 1_555
Ni3 Ni8 2.475675 1_556
Ni4 P1 2.140472 1_555
Ni4 Ni6 2.475677 1_556
Ni4 Ni6 2.475677 1_555
Ni4 Ni8 2.475684 1_556
Ni4 Ni8 2.475684 1_555
Ni5 P2 2.140472 1_555
Ni5 Ni6 2.475677 1_556
Ni5 Ni6 2.475677 1_555
Ni5 Ni7 2.475684 1_555
Ni5 Ni7 2.475684 1_556
Ni6 Ni8 2.386282 1_555
Ni6 Ni7 2.386282 1_555
Ni7 Ni8 2.386282 1_555
Ni9 P6 2.264991 1_565
Ni9 P8 2.264991 1_455
Ni10 P3 2.264991 1_455
Ni10 P7 2.264991 1_555
Ni10 Ni25 2.433695 1_555
Ni11 P5 2.264991 1_565
Ni11 P4 2.264991 1_555
Ni11 Ni25 2.433695 1_665
Ni12 P6 2.304867 1_556
Ni12 P6 2.304867 1_555
Ni12 P1 2.327896 1_545
Ni12 P11 2.352446 1_555
Ni13 P3 2.304860 1_555
Ni13 P3 2.304860 1_556
Ni13 P2 2.327896 1_655
Ni13 P9 2.352446 1_555
Ni14 P8 2.304867 1_555
Ni14 P8 2.304867 1_556
Ni14 P2 2.327896 1_655
Ni14 P10 2.352446 1_555
Ni15 P4 2.304867 1_555
Ni15 P4 2.304867 1_556
Ni15 P0 2.327896 1_555
Ni15 P10 2.352458 1_555
Ni16 P5 2.304860 1_555
Ni16 P5 2.304860 1_556
Ni16 P1 2.327896 1_545
Ni16 P9 2.352446 1_555
Ni17 P7 2.304867 1_556
Ni17 P7 2.304867 1_555
Ni17 P0 2.327896 1_555
Ni17 P11 2.352458 1_555
Ni18 P3 2.236525 1_455
Ni18 P2 2.359144 1_554
Ni18 P2 2.359144 1_555
Ni18 Ni7 2.509138 1_555
Ni19 P4 2.236527 1_555
Ni19 P0 2.359137 1_555
Ni19 P0 2.359137 1_554
Ni19 Ni8 2.509150 1_555
Ni20 P5 2.236525 1_565
Ni20 P1 2.359144 1_554
Ni20 P1 2.359144 1_555
Ni20 Ni8 2.509138 1_555
Ni21 P6 2.236551 1_565
Ni21 P1 2.359137 1_554
Ni21 P1 2.359137 1_555
Ni21 Ni6 2.509138 1_555
Ni22 P7 2.236527 1_555
Ni22 P0 2.359137 1_555
Ni22 P0 2.359137 1_554
Ni22 Ni7 2.509150 1_555
Ni23 P8 2.236551 1_455
Ni23 P2 2.359137 1_554
Ni23 P2 2.359137 1_555
Ni23 Ni6 2.509138 1_555
Ni24 P9 2.299475 1_555
Ni24 P10 2.299475 1_555
Ni24 P11 2.299475 1_555
Ni25 Ni9 2.433682 1_545
