# generated using pymatgen
data_MgCd5
_symmetry_space_group_name_H-M   'P 1'
_cell_length_a   6.24703886
_cell_length_b   6.24703886
_cell_length_c   30.36523558
_cell_angle_alpha   90.00000000
_cell_angle_beta   90.00000000
_cell_angle_gamma   120.00003787
_symmetry_Int_Tables_number   1
_chemical_formula_structural   MgCd5
_chemical_formula_sum   'Mg8 Cd40'
_cell_volume   1026.25558882
_cell_formula_units_Z   8
loop_
 _symmetry_equiv_pos_site_id
 _symmetry_equiv_pos_as_xyz
  1  'x, y, z'
loop_
 _atom_site_type_symbol
 _atom_site_label
 _atom_site_symmetry_multiplicity
 _atom_site_fract_x
 _atom_site_fract_y
 _atom_site_fract_z
 _atom_site_occupancy
  Mg  Mg0_0  1  0.00000000  0.00000000  0.00000000  1
  Mg  Mg0_1  1  0.00000000  0.00000000  0.50000000  1
  Mg  Mg0_2  1  0.00000000  0.50000000  0.00000000  1
  Mg  Mg0_3  1  0.00000000  0.50000000  0.50000000  1
  Mg  Mg0_4  1  0.50000000  0.00000000  0.00000000  1
  Mg  Mg0_5  1  0.50000000  0.00000000  0.50000000  1
  Mg  Mg0_6  1  0.50000000  0.50000000  0.00000000  1
  Mg  Mg0_7  1  0.50000000  0.50000000  0.50000000  1
  Cd  Cd0_0  1  0.33333350  0.16666650  0.41766682  1
  Cd  Cd0_1  1  0.33333350  0.16666650  0.91766682  1
  Cd  Cd0_2  1  0.33333350  0.66666650  0.41766682  1
  Cd  Cd0_3  1  0.33333350  0.66666650  0.91766682  1
  Cd  Cd0_4  1  0.83333350  0.16666650  0.41766682  1
  Cd  Cd0_5  1  0.83333350  0.16666650  0.91766682  1
  Cd  Cd0_6  1  0.83333350  0.66666650  0.41766682  1
  Cd  Cd0_7  1  0.83333350  0.66666650  0.91766682  1
  Cd  Cd1_0  1  0.00000000  0.00000000  0.33382110  1
  Cd  Cd1_1  1  0.00000000  0.00000000  0.83382110  1
  Cd  Cd1_2  1  0.00000000  0.50000000  0.33382110  1
  Cd  Cd1_3  1  0.00000000  0.50000000  0.83382110  1
  Cd  Cd1_4  1  0.50000000  0.00000000  0.33382110  1
  Cd  Cd1_5  1  0.50000000  0.00000000  0.83382110  1
  Cd  Cd1_6  1  0.50000000  0.50000000  0.33382110  1
  Cd  Cd1_7  1  0.50000000  0.50000000  0.83382110  1
  Cd  Cd2_0  1  0.33333350  0.16666650  0.25000000  1
  Cd  Cd2_1  1  0.33333350  0.16666650  0.75000000  1
  Cd  Cd2_2  1  0.33333350  0.66666650  0.25000000  1
  Cd  Cd2_3  1  0.33333350  0.66666650  0.75000000  1
  Cd  Cd2_4  1  0.83333350  0.16666650  0.25000000  1
  Cd  Cd2_5  1  0.83333350  0.16666650  0.75000000  1
  Cd  Cd2_6  1  0.83333350  0.66666650  0.25000000  1
  Cd  Cd2_7  1  0.83333350  0.66666650  0.75000000  1
  Cd  Cd3_0  1  0.00000000  0.00000000  0.16617889  1
  Cd  Cd3_1  1  0.00000000  0.00000000  0.66617889  1
  Cd  Cd3_2  1  0.00000000  0.50000000  0.16617889  1
  Cd  Cd3_3  1  0.00000000  0.50000000  0.66617889  1
  Cd  Cd3_4  1  0.50000000  0.00000000  0.16617889  1
  Cd  Cd3_5  1  0.50000000  0.00000000  0.66617889  1
  Cd  Cd3_6  1  0.50000000  0.50000000  0.16617889  1
  Cd  Cd3_7  1  0.50000000  0.50000000  0.66617889  1
  Cd  Cd4_0  1  0.33333350  0.16666650  0.08233318  1
  Cd  Cd4_1  1  0.33333350  0.16666650  0.58233318  1
  Cd  Cd4_2  1  0.33333350  0.66666650  0.08233318  1
  Cd  Cd4_3  1  0.33333350  0.66666650  0.58233318  1
  Cd  Cd4_4  1  0.83333350  0.16666650  0.08233318  1
  Cd  Cd4_5  1  0.83333350  0.16666650  0.58233318  1
  Cd  Cd4_6  1  0.83333350  0.66666650  0.08233318  1
  Cd  Cd4_7  1  0.83333350  0.66666650  0.58233318  1
loop_
_geom_bond_atom_site_label_1
_geom_bond_atom_site_label_2
_geom_bond_distance
_geom_bond_site_symmetry_2
Mg0_0 Mg0_6 3.123518 1_445
Mg0_0 Mg0_6 3.123518 1_555
Mg0_0 Mg0_2 3.123519 1_545
Mg0_0 Mg0_4 3.123519 1_455
Mg0_0 Mg0_4 3.123519 1_555
Mg0_0 Mg0_2 3.123519 1_555
Mg0_1 Mg0_7 3.123518 1_555
Mg0_1 Mg0_7 3.123518 1_445
Mg0_1 Mg0_5 3.123519 1_555
Mg0_1 Mg0_3 3.123519 1_545
Mg0_1 Mg0_3 3.123519 1_555
Mg0_1 Mg0_5 3.123519 1_455
Mg0_2 Mg0_4 3.123518 1_565
Mg0_2 Mg0_4 3.123518 1_455
Mg0_2 Mg0_6 3.123519 1_455
Mg0_2 Mg0_6 3.123519 1_555
Mg0_3 Mg0_5 3.123518 1_565
Mg0_3 Mg0_5 3.123518 1_455
Mg0_3 Mg0_7 3.123519 1_455
Mg0_3 Mg0_7 3.123519 1_555
Mg0_4 Mg0_6 3.123519 1_555
Mg0_4 Mg0_6 3.123519 1_545
Mg0_5 Mg0_7 3.123519 1_555
Mg0_5 Mg0_7 3.123519 1_545
Cd0_0 Mg0_5 3.082605 1_555
Cd0_0 Mg0_7 3.082606 1_555
Cd0_0 Mg0_1 3.082606 1_555
Cd0_0 Cd1_4 3.119969 1_555
Cd0_0 Cd1_6 3.119970 1_555
Cd0_0 Cd1_0 3.119970 1_555
Cd0_0 Cd0_6 3.123518 1_555
Cd0_0 Cd0_6 3.123518 1_445
Cd0_0 Cd0_4 3.123519 1_455
Cd0_0 Cd0_2 3.123519 1_545
Cd0_0 Cd0_4 3.123519 1_555
Cd0_0 Cd0_2 3.123519 1_555
Cd0_1 Mg0_4 3.082605 1_556
Cd0_1 Mg0_6 3.082606 1_556
Cd0_1 Mg0_0 3.082606 1_556
Cd0_1 Cd1_5 3.119969 1_555
Cd0_1 Cd1_7 3.119970 1_555
Cd0_1 Cd1_1 3.119970 1_555
Cd0_1 Cd0_7 3.123518 1_445
Cd0_1 Cd0_7 3.123518 1_555
Cd0_1 Cd0_3 3.123519 1_545
Cd0_1 Cd0_5 3.123519 1_455
Cd0_1 Cd0_3 3.123519 1_555
Cd0_1 Cd0_5 3.123519 1_555
Cd0_2 Mg0_7 3.082605 1_555
Cd0_2 Mg0_3 3.082606 1_555
Cd0_2 Mg0_5 3.082606 1_565
Cd0_2 Cd1_6 3.119969 1_555
Cd0_2 Cd1_4 3.119970 1_565
Cd0_2 Cd1_2 3.119970 1_555
Cd0_2 Cd0_4 3.123518 1_455
Cd0_2 Cd0_4 3.123518 1_565
Cd0_2 Cd0_6 3.123519 1_455
Cd0_2 Cd0_6 3.123519 1_555
Cd0_3 Mg0_6 3.082605 1_556
Cd0_3 Mg0_2 3.082606 1_556
Cd0_3 Mg0_4 3.082606 1_566
Cd0_3 Cd1_7 3.119969 1_555
Cd0_3 Cd1_5 3.119970 1_565
Cd0_3 Cd1_3 3.119970 1_555
Cd0_3 Cd0_5 3.123518 1_565
Cd0_3 Cd0_5 3.123518 1_455
Cd0_3 Cd0_7 3.123519 1_455
Cd0_3 Cd0_7 3.123519 1_555
Cd0_4 Mg0_1 3.082605 1_655
Cd0_4 Mg0_3 3.082606 1_655
Cd0_4 Mg0_5 3.082606 1_555
Cd0_4 Cd1_0 3.119969 1_655
Cd0_4 Cd1_2 3.119970 1_655
Cd0_4 Cd1_4 3.119970 1_555
Cd0_4 Cd0_6 3.123519 1_555
Cd0_4 Cd0_6 3.123519 1_545
Cd0_5 Mg0_0 3.082605 1_656
Cd0_5 Mg0_4 3.082606 1_556
Cd0_5 Mg0_2 3.082606 1_656
Cd0_5 Cd1_1 3.119969 1_655
Cd0_5 Cd1_3 3.119970 1_655
Cd0_5 Cd1_5 3.119970 1_555
Cd0_5 Cd0_7 3.123519 1_555
Cd0_5 Cd0_7 3.123519 1_545
Cd0_6 Mg0_3 3.082605 1_655
Cd0_6 Mg0_7 3.082606 1_555
Cd0_6 Mg0_1 3.082606 1_665
Cd0_6 Cd1_2 3.119969 1_655
Cd0_6 Cd1_0 3.119970 1_665
Cd0_6 Cd1_6 3.119970 1_555
Cd0_7 Mg0_2 3.082605 1_656
Cd0_7 Mg0_6 3.082606 1_556
Cd0_7 Mg0_0 3.082606 1_666
Cd0_7 Cd1_3 3.119969 1_655
Cd0_7 Cd1_7 3.119970 1_555
Cd0_7 Cd1_1 3.119970 1_665
Cd1_0 Cd2_4 3.119360 1_455
Cd1_0 Cd2_6 3.119361 1_445
Cd1_0 Cd2_0 3.119361 1_555
Cd1_0 Cd1_6 3.123518 1_445
Cd1_0 Cd1_6 3.123518 1_555
Cd1_0 Cd1_2 3.123519 1_555
Cd1_0 Cd1_4 3.123519 1_455
Cd1_0 Cd1_4 3.123519 1_555
Cd1_0 Cd1_2 3.123519 1_545
Cd1_1 Cd2_5 3.119360 1_455
Cd1_1 Cd2_1 3.119361 1_555
Cd1_1 Cd2_7 3.119361 1_445
Cd1_1 Cd1_7 3.123518 1_555
Cd1_1 Cd1_7 3.123518 1_445
Cd1_1 Cd1_5 3.123519 1_455
Cd1_1 Cd1_5 3.123519 1_555
Cd1_1 Cd1_3 3.123519 1_555
Cd1_1 Cd1_3 3.123519 1_545
Cd1_2 Cd2_6 3.119360 1_455
Cd1_2 Cd2_2 3.119361 1_555
Cd1_2 Cd2_4 3.119361 1_455
Cd1_2 Cd1_4 3.123518 1_565
Cd1_2 Cd1_4 3.123518 1_455
Cd1_2 Cd1_6 3.123519 1_555
Cd1_2 Cd1_6 3.123519 1_455
Cd1_3 Cd2_7 3.119360 1_455
Cd1_3 Cd2_3 3.119361 1_555
Cd1_3 Cd2_5 3.119361 1_455
Cd1_3 Cd1_5 3.123518 1_455
Cd1_3 Cd1_5 3.123518 1_565
Cd1_3 Cd1_7 3.123519 1_555
Cd1_3 Cd1_7 3.123519 1_455
Cd1_4 Cd2_0 3.119360 1_555
Cd1_4 Cd2_2 3.119361 1_545
Cd1_4 Cd2_4 3.119361 1_555
Cd1_4 Cd1_6 3.123519 1_545
Cd1_4 Cd1_6 3.123519 1_555
Cd1_5 Cd2_1 3.119360 1_555
Cd1_5 Cd2_3 3.119361 1_545
Cd1_5 Cd2_5 3.119361 1_555
Cd1_5 Cd1_7 3.123519 1_545
Cd1_5 Cd1_7 3.123519 1_555
Cd1_6 Cd2_2 3.119360 1_555
Cd1_6 Cd2_6 3.119361 1_555
Cd1_6 Cd2_0 3.119361 1_555
Cd1_7 Cd2_3 3.119360 1_555
Cd1_7 Cd2_1 3.119361 1_555
Cd1_7 Cd2_7 3.119361 1_555
Cd2_0 Cd3_4 3.119360 1_555
Cd2_0 Cd3_0 3.119361 1_555
Cd2_0 Cd3_6 3.119361 1_555
Cd2_0 Cd2_6 3.123518 1_555
Cd2_0 Cd2_6 3.123518 1_445
Cd2_0 Cd2_4 3.123519 1_455
Cd2_0 Cd2_2 3.123519 1_545
Cd2_0 Cd2_2 3.123519 1_555
Cd2_0 Cd2_4 3.123519 1_555
Cd2_1 Cd3_5 3.119360 1_555
Cd2_1 Cd3_7 3.119361 1_555
Cd2_1 Cd3_1 3.119361 1_555
Cd2_1 Cd2_7 3.123518 1_555
Cd2_1 Cd2_7 3.123518 1_445
Cd2_1 Cd2_5 3.123519 1_455
Cd2_1 Cd2_3 3.123519 1_545
Cd2_1 Cd2_5 3.123519 1_555
Cd2_1 Cd2_3 3.123519 1_555
Cd2_2 Cd3_6 3.119360 1_555
Cd2_2 Cd3_2 3.119361 1_555
Cd2_2 Cd3_4 3.119361 1_565
Cd2_2 Cd2_4 3.123518 1_565
Cd2_2 Cd2_4 3.123518 1_455
Cd2_2 Cd2_6 3.123519 1_455
Cd2_2 Cd2_6 3.123519 1_555
Cd2_3 Cd3_7 3.119360 1_555
Cd2_3 Cd3_3 3.119361 1_555
Cd2_3 Cd3_5 3.119361 1_565
Cd2_3 Cd2_5 3.123518 1_565
Cd2_3 Cd2_5 3.123518 1_455
Cd2_3 Cd2_7 3.123519 1_455
Cd2_3 Cd2_7 3.123519 1_555
Cd2_4 Cd3_0 3.119360 1_655
Cd2_4 Cd3_2 3.119361 1_655
Cd2_4 Cd3_4 3.119361 1_555
Cd2_4 Cd2_6 3.123519 1_555
Cd2_4 Cd2_6 3.123519 1_545
Cd2_5 Cd3_1 3.119360 1_655
Cd2_5 Cd3_5 3.119361 1_555
Cd2_5 Cd3_3 3.119361 1_655
Cd2_5 Cd2_7 3.123519 1_555
Cd2_5 Cd2_7 3.123519 1_545
Cd2_6 Cd3_2 3.119360 1_655
Cd2_6 Cd3_6 3.119361 1_555
Cd2_6 Cd3_0 3.119361 1_665
Cd2_7 Cd3_3 3.119360 1_655
Cd2_7 Cd3_7 3.119361 1_555
Cd2_7 Cd3_1 3.119361 1_665
Cd3_0 Cd4_4 3.119969 1_455
Cd3_0 Cd4_0 3.119970 1_555
Cd3_0 Cd4_6 3.119970 1_445
Cd3_0 Cd3_6 3.123518 1_445
Cd3_0 Cd3_6 3.123518 1_555
Cd3_0 Cd3_2 3.123519 1_555
Cd3_0 Cd3_2 3.123519 1_545
Cd3_0 Cd3_4 3.123519 1_455
Cd3_0 Cd3_4 3.123519 1_555
Cd3_1 Cd4_5 3.119969 1_455
Cd3_1 Cd4_1 3.119970 1_555
Cd3_1 Cd4_7 3.119970 1_445
Cd3_1 Cd3_7 3.123518 1_555
Cd3_1 Cd3_7 3.123518 1_445
Cd3_1 Cd3_5 3.123519 1_455
Cd3_1 Cd3_3 3.123519 1_545
Cd3_1 Cd3_5 3.123519 1_555
Cd3_1 Cd3_3 3.123519 1_555
Cd3_2 Cd4_6 3.119969 1_455
Cd3_2 Cd4_2 3.119970 1_555
Cd3_2 Cd4_4 3.119970 1_455
Cd3_2 Cd3_4 3.123518 1_455
Cd3_2 Cd3_4 3.123518 1_565
Cd3_2 Cd3_6 3.123519 1_455
Cd3_2 Cd3_6 3.123519 1_555
Cd3_3 Cd4_7 3.119969 1_455
Cd3_3 Cd4_5 3.119970 1_455
Cd3_3 Cd4_3 3.119970 1_555
Cd3_3 Cd3_5 3.123518 1_565
Cd3_3 Cd3_5 3.123518 1_455
Cd3_3 Cd3_7 3.123519 1_455
Cd3_3 Cd3_7 3.123519 1_555
Cd3_4 Cd4_0 3.119969 1_555
Cd3_4 Cd4_2 3.119970 1_545
Cd3_4 Cd4_4 3.119970 1_555
Cd3_4 Cd3_6 3.123519 1_545
Cd3_4 Cd3_6 3.123519 1_555
Cd3_5 Cd4_1 3.119969 1_555
Cd3_5 Cd4_3 3.119970 1_545
Cd3_5 Cd4_5 3.119970 1_555
Cd3_5 Cd3_7 3.123519 1_545
Cd3_5 Cd3_7 3.123519 1_555
Cd3_6 Cd4_2 3.119969 1_555
Cd3_6 Cd4_0 3.119970 1_555
Cd3_6 Cd4_6 3.119970 1_555
Cd3_7 Cd4_3 3.119969 1_555
Cd3_7 Cd4_1 3.119970 1_555
Cd3_7 Cd4_7 3.119970 1_555
Cd4_0 Mg0_4 3.082605 1_555
Cd4_0 Mg0_6 3.082606 1_555
Cd4_0 Mg0_0 3.082606 1_555
Cd4_0 Cd4_6 3.123518 1_555
Cd4_0 Cd4_6 3.123518 1_445
Cd4_0 Cd4_4 3.123519 1_455
Cd4_0 Cd4_2 3.123519 1_545
Cd4_0 Cd4_4 3.123519 1_555
Cd4_0 Cd4_2 3.123519 1_555
Cd4_1 Mg0_5 3.082605 1_555
Cd4_1 Mg0_7 3.082606 1_555
Cd4_1 Mg0_1 3.082606 1_555
Cd4_1 Cd4_7 3.123518 1_445
Cd4_1 Cd4_7 3.123518 1_555
Cd4_1 Cd4_5 3.123519 1_455
Cd4_1 Cd4_3 3.123519 1_545
Cd4_1 Cd4_3 3.123519 1_555
Cd4_1 Cd4_5 3.123519 1_555
Cd4_2 Mg0_6 3.082605 1_555
Cd4_2 Mg0_2 3.082606 1_555
Cd4_2 Mg0_4 3.082606 1_565
Cd4_2 Cd4_4 3.123518 1_565
Cd4_2 Cd4_4 3.123518 1_455
Cd4_2 Cd4_6 3.123519 1_455
Cd4_2 Cd4_6 3.123519 1_555
Cd4_3 Mg0_7 3.082605 1_555
Cd4_3 Mg0_3 3.082606 1_555
Cd4_3 Mg0_5 3.082606 1_565
Cd4_3 Cd4_5 3.123518 1_455
Cd4_3 Cd4_5 3.123518 1_565
Cd4_3 Cd4_7 3.123519 1_455
Cd4_3 Cd4_7 3.123519 1_555
Cd4_4 Mg0_0 3.082605 1_655
Cd4_4 Mg0_2 3.082606 1_655
Cd4_4 Mg0_4 3.082606 1_555
Cd4_4 Cd4_6 3.123519 1_555
Cd4_4 Cd4_6 3.123519 1_545
Cd4_5 Mg0_1 3.082605 1_655
Cd4_5 Mg0_5 3.082606 1_555
Cd4_5 Mg0_3 3.082606 1_655
Cd4_5 Cd4_7 3.123519 1_555
Cd4_5 Cd4_7 3.123519 1_545
Cd4_6 Mg0_2 3.082605 1_655
Cd4_6 Mg0_0 3.082606 1_665
Cd4_6 Mg0_6 3.082606 1_555
Cd4_7 Mg0_3 3.082605 1_655
Cd4_7 Mg0_1 3.082606 1_665
Cd4_7 Mg0_7 3.082606 1_555
