# generated using pymatgen
data_MgCo(GeO3)2
_symmetry_space_group_name_H-M   'P 1'
_cell_length_a   5.24408543
_cell_length_b   6.65101506
_cell_length_c   6.64890228
_cell_angle_alpha   85.80583201
_cell_angle_beta   82.23040435
_cell_angle_gamma   82.17657065
_symmetry_Int_Tables_number   1
_chemical_formula_structural   MgCo(GeO3)2
_chemical_formula_sum   'Mg2 Co2 Ge4 O12'
_cell_volume   227.28189086
_cell_formula_units_Z   2
loop_
 _symmetry_equiv_pos_site_id
 _symmetry_equiv_pos_as_xyz
  1  'x, y, z'
loop_
 _atom_site_type_symbol
 _atom_site_label
 _atom_site_symmetry_multiplicity
 _atom_site_fract_x
 _atom_site_fract_y
 _atom_site_fract_z
 _atom_site_occupancy
  Mg  Mg0  1  0.74981500  0.26827400  0.73172400  1
  Mg  Mg1  1  0.24987600  0.73180200  0.26836500  1
  Co  Co0  1  0.74983100  0.90582700  0.09415000  1
  Co  Co1  1  0.24986900  0.09372800  0.90532200  1
  Ge  Ge0  1  0.78963300  0.39517100  0.20621000  1
  Ge  Ge1  1  0.71036400  0.79359400  0.60481900  1
  Ge  Ge2  1  0.21054800  0.60477000  0.79383200  1
  Ge  Ge3  1  0.28979700  0.20643800  0.39514400  1
  O  O0  1  0.59809600  0.29067800  0.43099300  1
  O  O1  1  0.90213100  0.56888300  0.70946700  1
  O  O2  1  0.40192500  0.70943100  0.56900700  1
  O  O3  1  0.09791200  0.43110000  0.29071100  1
  O  O4  1  0.11636400  0.14164500  0.62579400  1
  O  O5  1  0.38447900  0.37438800  0.85840700  1
  O  O6  1  0.88397600  0.85838600  0.37441300  1
  O  O7  1  0.61594400  0.62579200  0.14163900  1
  O  O8  1  0.86490200  0.20854400  0.02463400  1
  O  O9  1  0.63506100  0.97580700  0.79089400  1
  O  O10  1  0.13481500  0.79123300  0.97562900  1
  O  O11  1  0.36466000  0.02450800  0.20884400  1
loop_
_geom_bond_atom_site_label_1
_geom_bond_atom_site_label_2
_geom_bond_distance
_geom_bond_site_symmetry_2
Mg0 O5 2.039755 1_555
Mg0 O4 2.044571 1_655
Mg0 O9 2.107951 1_545
Mg0 O8 2.110520 1_556
Mg0 O0 2.237775 1_555
Mg0 O1 2.239836 1_555
Mg1 O6 2.041824 1_455
Mg1 O7 2.042884 1_555
Mg1 O10 2.109209 1_554
Mg1 O11 2.109708 1_565
Mg1 O2 2.238040 1_555
Mg1 O3 2.239522 1_555
Co0 O7 2.066804 1_555
Co0 O6 2.067569 1_555
Co0 O10 2.125228 1_654
Co0 O11 2.126501 1_565
Co0 O8 2.179606 1_565
Co0 O9 2.181513 1_554
Co1 O4 2.061645 1_555
Co1 O5 2.072221 1_555
Co1 O9 2.124790 1_545
Co1 O8 2.126950 1_456
Co1 O10 2.178746 1_545
Co1 O11 2.182687 1_556
Ge0 O7 1.730822 1_555
Ge0 O8 1.763809 1_555
Ge0 O3 1.832127 1_655
Ge0 O0 1.832437 1_555
Ge1 O6 1.730490 1_555
Ge1 O9 1.764151 1_555
Ge1 O2 1.832049 1_555
Ge1 O1 1.832225 1_555
Ge2 O5 1.730121 1_555
Ge2 O10 1.764146 1_555
Ge2 O1 1.832339 1_455
Ge2 O2 1.832666 1_555
Ge3 O4 1.731370 1_555
Ge3 O11 1.763819 1_555
Ge3 O0 1.831647 1_555
Ge3 O3 1.831732 1_555
