# generated using pymatgen
data_Sr2FeMoO6
_symmetry_space_group_name_H-M   'P 1'
_cell_length_a   5.66523148
_cell_length_b   5.67179088
_cell_length_c   56.67127079
_cell_angle_alpha   119.94654861
_cell_angle_beta   119.96639150
_cell_angle_gamma   90.11262685
_symmetry_Int_Tables_number   1
_chemical_formula_structural   Sr2FeMoO6
_chemical_formula_sum   'Sr20 Fe10 Mo10 O60'
_cell_volume   1288.04074343
_cell_formula_units_Z   10
loop_
 _symmetry_equiv_pos_site_id
 _symmetry_equiv_pos_as_xyz
  1  'x, y, z'
loop_
 _atom_site_type_symbol
 _atom_site_label
 _atom_site_symmetry_multiplicity
 _atom_site_fract_x
 _atom_site_fract_y
 _atom_site_fract_z
 _atom_site_occupancy
  Sr  Sr0  1  0.25118861  0.75034741  0.95035957  1
  Sr  Sr1  1  0.24149352  0.74127233  0.84827304  1
  Sr  Sr2  1  0.75693883  0.25437285  0.95137397  1
  Sr  Sr3  1  0.24910360  0.74900553  0.74973766  1
  Sr  Sr4  1  0.74231818  0.24383765  0.84866709  1
  Sr  Sr5  1  0.25010493  0.75000189  0.65000093  1
  Sr  Sr6  1  0.74814420  0.24787488  0.74953672  1
  Sr  Sr7  1  0.25054572  0.75054301  0.55009874  1
  Sr  Sr8  1  0.74968017  0.24959471  0.64995353  1
  Sr  Sr9  1  0.25151378  0.75148166  0.45028362  1
  Sr  Sr10  1  0.75008626  0.25004806  0.55003770  1
  Sr  Sr11  1  0.25361415  0.75371643  0.35071616  1
  Sr  Sr12  1  0.75106446  0.25103235  0.45022802  1
  Sr  Sr13  1  0.25980575  0.76016389  0.25202838  1
  Sr  Sr14  1  0.75332238  0.25334127  0.35067676  1
  Sr  Sr15  1  0.24679616  0.74743937  0.14959279  1
  Sr  Sr16  1  0.75829599  0.25832205  0.25169557  1
  Sr  Sr17  1  0.24443766  0.74475679  0.04890664  1
  Sr  Sr18  1  0.74666734  0.24881140  0.14972044  1
  Sr  Sr19  1  0.74563835  0.24414414  0.04894244  1
  Fe  Fe0  1  0.00533034  0.00491163  0.90115995  1
  Fe  Fe1  1  0.99818332  0.99835865  0.79955818  1
  Fe  Fe2  1  -0.00017291  0.99976342  0.69992103  1
  Fe  Fe3  1  0.00000577  -0.00002301  0.60000608  1
  Fe  Fe4  1  0.00054363  0.00051946  0.50010798  1
  Fe  Fe5  1  0.00177694  0.00177722  0.40035492  1
  Fe  Fe6  1  0.00193942  0.00198828  0.30039895  1
  Fe  Fe7  1  0.99530322  0.99588073  0.19921080  1
  Fe  Fe8  1  0.50501653  0.50560394  0.10123912  1
  Fe  Fe9  1  0.49396068  0.49287426  0.99877331  1
  Mo  Mo0  1  0.49412314  0.49347421  0.89882002  1
  Mo  Mo1  1  0.49911182  0.49921988  0.79967922  1
  Mo  Mo2  1  0.49923032  0.49913796  0.69981801  1
  Mo  Mo3  1  0.49986911  0.49982291  0.59997766  1
  Mo  Mo4  1  0.50045505  0.50045310  0.50009441  1
  Mo  Mo5  1  0.50220514  0.50220041  0.40043818  1
  Mo  Mo6  1  0.50235251  0.50241887  0.30047656  1
  Mo  Mo7  1  0.99316211  0.99396141  0.09878440  1
  Mo  Mo8  1  0.50347583  0.50379516  0.20083348  1
  Mo  Mo9  1  0.00466161  0.00388241  0.00087856  1
  O  O0  1  0.24580925  0.24554906  0.94954706  1
  O  O1  1  0.20785417  0.70956342  0.89895733  1
  O  O2  1  0.29609473  0.22738070  0.90036732  1
  O  O3  1  0.24971386  0.24910217  0.84966035  1
  O  O4  1  0.75711610  0.75525000  0.95107449  1
  O  O5  1  0.70526841  0.77417057  0.89991827  1
  O  O6  1  0.20981122  0.71047923  0.79933535  1
  O  O7  1  0.78160537  0.27908082  0.89890138  1
  O  O8  1  0.28449153  0.21153016  0.79957013  1
  O  O9  1  0.25719855  0.25779159  0.75128060  1
  O  O10  1  0.74506999  0.74378329  0.84856965  1
  O  O11  1  0.71326849  0.78713449  0.79975145  1
  O  O12  1  0.21167830  0.71357015  0.69991687  1
  O  O13  1  0.78408260  0.28328897  0.79915213  1
  O  O14  1  0.28519001  0.21092820  0.69982041  1
  O  O15  1  0.25723554  0.25751389  0.65144191  1
  O  O16  1  0.74183599  0.74129187  0.74828639  1
  O  O17  1  0.71390631  0.78798481  0.69991901  1
  O  O18  1  0.21188744  0.71386350  0.60001120  1
  O  O19  1  0.78716876  0.28517483  0.69982530  1
  O  O20  1  0.28588779  0.21127197  0.59996820  1
  O  O21  1  0.25777242  0.25802541  0.55157139  1
  O  O22  1  0.74238610  0.74213503  0.64846529  1
  O  O23  1  0.71384098  0.78837517  0.59997932  1
  O  O24  1  0.21238519  0.71425428  0.50010002  1
  O  O25  1  0.78779828  0.28577262  0.59993756  1
  O  O26  1  0.28641960  0.21177135  0.50005309  1
  O  O27  1  0.25796132  0.25828798  0.45162717  1
  O  O28  1  0.74278361  0.74251154  0.54854819  1
  O  O29  1  0.71410949  0.78873068  0.50005977  1
  O  O30  1  0.21377002  0.71580559  0.40029548  1
  O  O31  1  0.78818819  0.28631987  0.50002124  1
  O  O32  1  0.28696749  0.21321543  0.40026425  1
  O  O33  1  0.25878283  0.25908530  0.35177916  1
  O  O34  1  0.74308625  0.74281889  0.44861209  1
  O  O35  1  0.71558111  0.78932394  0.40024796  1
  O  O36  1  0.21466850  0.71541859  0.30066831  1
  O  O37  1  0.78878891  0.28675845  0.40021586  1
  O  O38  1  0.29225564  0.21476481  0.30078843  1
  O  O39  1  0.25684239  0.25718758  0.25142099  1
  O  O40  1  0.74422832  0.74385864  0.34881209  1
  O  O41  1  0.71547091  0.79308846  0.30078323  1
  O  O42  1  0.21850211  0.70261620  0.20039814  1
  O  O43  1  0.79152281  0.29081052  0.30058138  1
  O  O44  1  0.29781215  0.20680246  0.20043100  1
  O  O45  1  0.24837934  0.24820507  0.14978598  1
  O  O46  1  0.75163960  0.75106170  0.25031720  1
  O  O47  1  0.70574797  0.79665169  0.20046346  1
  O  O48  1  0.21044190  0.70925514  0.09922924  1
  O  O49  1  0.78457168  0.30046104  0.20033168  1
  O  O50  1  0.27256750  0.20150470  0.09897192  1
  O  O51  1  0.24656117  0.25217303  0.04937291  1
  O  O52  1  0.74913565  0.74840715  0.15007615  1
  O  O53  1  0.72182024  0.79313164  0.09987792  1
  O  O54  1  0.21158879  0.71563234  0.00014488  1
  O  O55  1  0.77925595  0.28203058  0.09907244  1
  O  O56  1  0.28812098  0.21375099  0.00038340  1
  O  O57  1  0.75004112  0.75207214  0.04952938  1
  O  O58  1  0.71388898  0.78535535  0.99965539  1
  O  O59  1  0.79085048  0.28673838  0.00048822  1
loop_
_geom_bond_atom_site_label_1
_geom_bond_atom_site_label_2
_geom_bond_distance
_geom_bond_site_symmetry_2
Fe0 O0 1.939682 1_555
Fe0 O1 2.019897 1_545
Fe0 O7 2.021223 1_455
Fe0 O5 2.094571 1_445
Fe0 O2 2.104735 1_555
Fe0 O10 2.108226 1_445
Fe1 O3 2.008400 1_665
Fe1 O11 2.015906 1_555
Fe1 O8 2.020669 1_665
Fe1 O13 2.024931 1_565
Fe1 O6 2.026281 1_655
Fe1 O16 2.055287 1_555
Fe2 O14 2.014060 1_565
Fe2 O17 2.014597 1_455
Fe2 O19 2.020364 1_465
Fe2 O12 2.020613 1_555
Fe2 O9 2.058814 1_565
Fe2 O22 2.062656 1_455
Fe3 O23 2.014131 1_445
Fe3 O20 2.014372 1_555
Fe3 O18 2.020407 1_545
Fe3 O25 2.020432 1_455
Fe3 O15 2.061858 1_555
Fe3 O28 2.062742 1_445
Fe4 O26 2.014874 1_555
Fe4 O29 2.015137 1_445
Fe4 O24 2.020886 1_545
Fe4 O31 2.021062 1_455
Fe4 O21 2.062964 1_555
Fe4 O34 2.064265 1_445
Fe5 O32 2.013804 1_555
Fe5 O35 2.013970 1_445
Fe5 O30 2.019758 1_545
Fe5 O37 2.019776 1_455
Fe5 O27 2.055301 1_555
Fe5 O40 2.066148 1_445
Fe6 O46 2.007581 1_445
Fe6 O38 2.022700 1_555
Fe6 O41 2.022785 1_445
Fe6 O43 2.026744 1_455
Fe6 O36 2.026954 1_545
Fe6 O33 2.059628 1_555
Fe7 O52 1.969641 1_555
Fe7 O47 2.040084 1_555
Fe7 O44 2.040573 1_665
Fe7 O39 2.092898 1_665
Fe7 O49 2.094735 1_565
Fe7 O42 2.098837 1_655
Fe8 O52 1.957695 1_555
Fe8 O55 2.019824 1_555
Fe8 O48 2.020198 1_555
Fe8 O51 2.079377 1_555
Fe8 O50 2.079990 1_555
Fe8 O53 2.094375 1_555
Fe9 O0 1.973320 1_555
Fe9 O56 2.029221 1_556
Fe9 O57 2.034880 1_556
Fe9 O58 2.038053 1_555
Fe9 O59 2.040395 1_556
Fe9 O54 2.048287 1_556
Mo0 O2 1.941084 1_555
Mo0 O5 1.946426 1_555
Mo0 O3 1.970651 1_555
Mo0 O7 2.033976 1_555
Mo0 O1 2.035499 1_555
Mo0 O4 2.094690 1_555
Mo1 O9 1.940109 1_555
Mo1 O10 1.959833 1_555
Mo1 O8 2.028670 1_555
Mo1 O11 2.029587 1_555
Mo1 O6 2.030125 1_555
Mo1 O13 2.031407 1_555
Mo2 O15 1.939204 1_555
Mo2 O16 1.942903 1_555
Mo2 O14 2.033493 1_555
Mo2 O17 2.034443 1_555
Mo2 O19 2.035009 1_555
Mo2 O12 2.035464 1_555
Mo3 O21 1.940414 1_555
Mo3 O22 1.943675 1_555
Mo3 O20 2.034378 1_555
Mo3 O23 2.034662 1_555
Mo3 O25 2.035539 1_555
Mo3 O18 2.035706 1_555
Mo4 O28 1.942318 1_555
Mo4 O27 1.942857 1_555
Mo4 O29 2.033781 1_555
Mo4 O26 2.033895 1_555
Mo4 O31 2.035123 1_555
Mo4 O24 2.035133 1_555
Mo5 O34 1.931100 1_555
Mo5 O33 1.950545 1_555
Mo5 O35 2.033766 1_555
Mo5 O32 2.034083 1_555
Mo5 O37 2.035220 1_555
Mo5 O30 2.035275 1_555
Mo6 O40 1.937578 1_555
Mo6 O39 1.966441 1_555
Mo6 O41 2.029428 1_555
Mo6 O38 2.030027 1_555
Mo6 O36 2.031788 1_555
Mo6 O43 2.032090 1_555
Mo7 O53 1.955273 1_555
Mo7 O50 1.963344 1_665
Mo7 O57 1.974682 1_555
Mo7 O55 2.034511 1_565
Mo7 O48 2.034912 1_655
Mo7 O45 2.044452 1_665
Mo8 O42 1.968202 1_555
Mo8 O49 1.971427 1_555
Mo8 O46 1.983605 1_555
Mo8 O44 2.030494 1_555
Mo8 O47 2.030728 1_555
Mo8 O45 2.046293 1_555
Mo9 O51 1.944242 1_555
Mo9 O4 1.996472 1_444
Mo9 O54 2.009287 1_545
Mo9 O58 2.011646 1_444
Mo9 O59 2.014397 1_455
Mo9 O56 2.016760 1_555
O0 Sr2 2.822327 1_455
O0 Sr0 2.831923 1_545
O0 Sr0 2.840261 1_555
O0 Sr2 2.844798 1_555
O1 Sr4 2.646390 1_455
O1 Sr0 2.685541 1_555
O1 Sr1 3.062918 1_555
O1 Sr2 3.100934 1_565
O2 Sr2 2.685664 1_555
O2 Sr1 2.714948 1_545
O2 Sr0 3.036855 1_555
O2 Sr4 3.086614 1_455
O3 Sr4 2.819174 1_555
O3 Sr1 2.831380 1_555
O3 Sr1 2.841520 1_545
O3 Sr4 2.846618 1_455
O4 Sr0 2.819483 1_655
O4 Sr2 2.822492 1_565
O4 Sr0 2.846059 1_555
O4 Sr2 2.849382 1_555
O5 Sr2 2.687358 1_565
O5 Sr1 2.697215 1_555
O5 Sr0 3.051270 1_655
O5 Sr4 3.068687 1_555
O6 Sr1 2.602549 1_555
O6 Sr6 2.626017 1_455
O6 Sr4 3.027076 1_565
O6 Sr3 3.039036 1_555
O7 Sr4 2.644372 1_555
O7 Sr0 2.676886 1_655
O7 Sr1 3.058531 1_545
O7 Sr2 3.116583 1_555
O8 Sr4 2.604282 1_555
O8 Sr3 2.633115 1_545
O8 Sr1 3.016602 1_555
O8 Sr6 3.048628 1_455
O9 Sr3 2.830479 1_555
O9 Sr6 2.831666 1_555
O9 Sr6 2.835307 1_455
O9 Sr3 2.842662 1_545
O10 Sr1 2.820809 1_655
O10 Sr4 2.833540 1_565
O10 Sr4 2.838375 1_555
O10 Sr1 2.844484 1_555
O11 Sr4 2.606718 1_565
O11 Sr3 2.633488 1_555
O11 Sr1 3.013451 1_655
O11 Sr6 3.060446 1_555
O12 Sr3 2.625310 1_555
O12 Sr8 2.631196 1_455
O12 Sr6 3.040748 1_565
O12 Sr5 3.048080 1_555
O13 Sr1 2.599930 1_655
O13 Sr6 2.617618 1_555
O13 Sr3 3.037025 1_545
O13 Sr4 3.044673 1_555
O14 Sr6 2.624360 1_555
O14 Sr5 2.629347 1_545
O14 Sr8 3.048754 1_455
O14 Sr3 3.052704 1_555
O15 Sr8 2.832662 1_555
O15 Sr8 2.833828 1_455
O15 Sr5 2.834722 1_555
O15 Sr5 2.838245 1_545
O16 Sr3 2.833208 1_555
O16 Sr3 2.833220 1_655
O16 Sr6 2.834443 1_555
O16 Sr6 2.838234 1_565
O17 Sr6 2.622708 1_565
O17 Sr5 2.630009 1_555
O17 Sr3 3.047491 1_655
O17 Sr8 3.053976 1_555
O18 Sr10 2.630317 1_455
O18 Sr5 2.630972 1_555
O18 Sr8 3.047792 1_565
O18 Sr7 3.049331 1_555
O19 Sr8 2.627649 1_555
O19 Sr3 2.630424 1_655
O19 Sr6 3.040948 1_555
O19 Sr5 3.044363 1_545
O20 Sr7 2.629691 1_545
O20 Sr8 2.631148 1_555
O20 Sr10 3.051647 1_455
O20 Sr5 3.056796 1_555
O21 Sr10 2.833242 1_555
O21 Sr10 2.833324 1_455
O21 Sr7 2.835813 1_555
O21 Sr7 2.837207 1_545
O22 Sr5 2.833113 1_555
O22 Sr5 2.833457 1_655
O22 Sr8 2.836397 1_555
O22 Sr8 2.836649 1_565
O23 Sr7 2.627938 1_555
O23 Sr8 2.632871 1_565
O23 Sr5 3.054223 1_655
O23 Sr10 3.054580 1_555
O24 Sr12 2.627065 1_455
O24 Sr7 2.631235 1_555
O24 Sr9 3.046979 1_555
O24 Sr10 3.047721 1_565
O25 Sr10 2.628281 1_555
O25 Sr5 2.633112 1_655
O25 Sr7 3.045049 1_545
O25 Sr8 3.052036 1_555
O26 Sr9 2.626634 1_545
O26 Sr10 2.630918 1_555
O26 Sr12 3.048994 1_455
O26 Sr7 3.057536 1_555
O27 Sr12 2.832557 1_455
O27 Sr12 2.833785 1_555
O27 Sr9 2.835884 1_555
O27 Sr9 2.836931 1_545
O28 Sr7 2.833291 1_655
O28 Sr7 2.833305 1_555
O28 Sr10 2.835998 1_555
O28 Sr10 2.837050 1_565
O29 Sr9 2.624451 1_555
O29 Sr10 2.632878 1_565
O29 Sr12 3.051934 1_555
O29 Sr7 3.054636 1_655
O30 Sr14 2.621704 1_455
O30 Sr9 2.633313 1_555
O30 Sr11 3.037812 1_555
O30 Sr12 3.044803 1_565
O31 Sr12 2.624919 1_555
O31 Sr7 2.633292 1_655
O31 Sr9 3.042518 1_545
O31 Sr10 3.052298 1_555
O32 Sr11 2.621890 1_545
O32 Sr12 2.632600 1_555
O32 Sr14 3.040207 1_455
O32 Sr9 3.054045 1_555
O33 Sr14 2.832626 1_455
O33 Sr14 2.833295 1_555
O33 Sr11 2.835894 1_555
O33 Sr11 2.836537 1_545
O34 Sr9 2.833077 1_555
O34 Sr9 2.833740 1_655
O34 Sr12 2.835854 1_555
O34 Sr12 2.837417 1_565
O35 Sr11 2.619668 1_555
O35 Sr12 2.635249 1_565
O35 Sr14 3.042279 1_555
O35 Sr9 3.051983 1_655
O36 Sr16 2.594276 1_455
O36 Sr11 2.626764 1_555
O36 Sr13 3.021645 1_555
O36 Sr14 3.056753 1_565
O37 Sr14 2.619756 1_555
O37 Sr9 2.635500 1_655
O37 Sr11 3.033503 1_545
O37 Sr12 3.049270 1_555
O38 Sr13 2.587477 1_545
O38 Sr14 2.620443 1_555
O38 Sr16 3.038708 1_455
O38 Sr11 3.063360 1_555
O39 Sr16 2.832188 1_455
O39 Sr16 2.833087 1_555
O39 Sr13 2.835665 1_555
O39 Sr13 2.836335 1_545
O40 Sr11 2.832810 1_655
O40 Sr11 2.834479 1_555
O40 Sr14 2.835950 1_555
O40 Sr14 2.837811 1_565
O41 Sr13 2.586618 1_555
O41 Sr14 2.622645 1_565
O41 Sr16 3.041439 1_555
O41 Sr11 3.060597 1_655
O42 Sr18 2.634760 1_455
O42 Sr13 2.661717 1_555
O42 Sr15 3.093835 1_555
O42 Sr16 3.109699 1_565
O43 Sr16 2.591108 1_555
O43 Sr11 2.629452 1_655
O43 Sr13 3.019876 1_545
O43 Sr14 3.060668 1_555
O44 Sr15 2.615955 1_545
O44 Sr16 2.628581 1_555
O44 Sr18 3.128475 1_455
O44 Sr13 3.149001 1_555
O45 Sr18 2.824772 1_555
O45 Sr15 2.834768 1_545
O45 Sr15 2.837048 1_555
O45 Sr18 2.840472 1_455
O46 Sr13 2.831172 1_655
O46 Sr16 2.834323 1_555
O46 Sr13 2.835724 1_555
O46 Sr16 2.838545 1_565
O47 Sr15 2.618213 1_555
O47 Sr16 2.630223 1_565
O47 Sr18 3.118650 1_555
O47 Sr13 3.142922 1_655
O48 Sr19 2.642883 1_455
O48 Sr15 2.651611 1_555
O48 Sr18 3.052635 1_565
O48 Sr17 3.054916 1_555
O49 Sr18 2.627569 1_555
O49 Sr13 2.663885 1_655
O49 Sr15 3.097552 1_545
O49 Sr16 3.111217 1_555
O50 Sr17 2.644800 1_545
O50 Sr18 2.658437 1_555
O50 Sr19 3.039844 1_455
O50 Sr15 3.064404 1_555
O51 Sr17 2.807109 1_555
O51 Sr19 2.825818 1_455
O51 Sr19 2.839911 1_555
O51 Sr17 2.864806 1_545
O52 Sr18 2.823551 1_555
O52 Sr15 2.832254 1_555
O52 Sr15 2.833133 1_655
O52 Sr18 2.848317 1_565
O53 Sr18 2.644045 1_565
O53 Sr17 2.671164 1_555
O53 Sr15 3.035046 1_655
O53 Sr19 3.076224 1_555
O54 Sr17 2.593965 1_555
O54 Sr2 2.600063 1_454
O54 Sr19 3.019391 1_565
O54 Sr0 3.039103 1_554
O55 Sr19 2.646352 1_555
O55 Sr15 2.651834 1_655
O55 Sr17 3.042678 1_545
O55 Sr18 3.062237 1_555
O56 Sr19 2.592287 1_555
O56 Sr0 2.637209 1_544
O56 Sr17 3.017933 1_555
O56 Sr2 3.019099 1_454
O57 Sr19 2.807694 1_565
O57 Sr17 2.818792 1_655
O57 Sr17 2.846861 1_555
O57 Sr19 2.864317 1_555
O58 Sr0 2.616055 1_555
O58 Sr19 2.616312 1_566
O58 Sr2 3.009735 1_555
O58 Sr17 3.023444 1_656
O59 Sr17 2.587308 1_655
O59 Sr2 2.602555 1_554
O59 Sr19 3.004825 1_555
O59 Sr0 3.054718 1_544
