# generated using pymatgen
data_Nb2Cr
_symmetry_space_group_name_H-M   'P 1'
_cell_length_a   5.39854956
_cell_length_b   5.39854956
_cell_length_c   5.39854956
_cell_angle_alpha   60.00000000
_cell_angle_beta   60.00000000
_cell_angle_gamma   60.00000000
_symmetry_Int_Tables_number   1
_chemical_formula_structural   Nb2Cr
_chemical_formula_sum   'Nb4 Cr2'
_cell_volume   111.25416519
_cell_formula_units_Z   2
loop_
 _symmetry_equiv_pos_site_id
 _symmetry_equiv_pos_as_xyz
  1  'x, y, z'
loop_
 _atom_site_type_symbol
 _atom_site_label
 _atom_site_symmetry_multiplicity
 _atom_site_fract_x
 _atom_site_fract_y
 _atom_site_fract_z
 _atom_site_occupancy
  Nb  Nb0  1  0.62500000  0.62500000  0.12500000  1
  Nb  Nb1  1  0.62500000  0.12500000  0.62500000  1
  Nb  Nb2  1  0.12500000  0.62500000  0.62500000  1
  Nb  Nb3  1  0.62500000  0.62500000  0.62500000  1
  Cr  Cr0  1  0.25000000  0.25000000  0.25000000  1
  Cr  Cr1  1  0.00000000  0.00000000  0.00000000  1
loop_
_geom_bond_atom_site_label_1
_geom_bond_atom_site_label_2
_geom_bond_distance
_geom_bond_site_symmetry_2
Nb0 Nb3 2.699275 1_555
Nb0 Nb1 2.699275 1_555
Nb0 Nb2 2.699275 1_555
Nb0 Nb3 2.699275 1_554
Nb0 Nb1 2.699275 1_564
Nb0 Nb2 2.699275 1_654
Nb1 Nb3 2.699275 1_555
Nb1 Nb3 2.699275 1_545
Nb1 Nb2 2.699275 1_555
Nb1 Nb2 2.699275 1_645
Nb2 Nb3 2.699275 1_555
Nb2 Nb3 2.699275 1_455
Cr0 Nb0 3.165180 1_555
Cr0 Nb1 3.165180 1_455
Cr0 Nb3 3.165180 1_545
Cr0 Nb1 3.165180 1_555
Cr0 Nb1 3.165180 1_554
Cr0 Nb3 3.165180 1_455
Cr0 Nb2 3.165180 1_555
Cr0 Nb0 3.165180 1_455
Cr0 Nb2 3.165180 1_554
Cr0 Nb2 3.165180 1_545
Cr0 Nb0 3.165180 1_545
Cr0 Nb3 3.165180 1_554
Cr0 Cr1 3.305923 1_655
Cr0 Cr1 3.305923 1_555
Cr0 Cr1 3.305923 1_556
Cr0 Cr1 3.305923 1_565
Cr1 Nb1 3.165180 1_455
Cr1 Nb1 3.165180 1_454
Cr1 Nb1 3.165180 1_554
Cr1 Nb3 3.165180 1_544
Cr1 Nb0 3.165180 1_445
Cr1 Nb0 3.165180 1_455
Cr1 Nb2 3.165180 1_544
Cr1 Nb2 3.165180 1_545
Cr1 Nb2 3.165180 1_554
Cr1 Nb0 3.165180 1_545
Cr1 Nb3 3.165180 1_454
Cr1 Nb3 3.165180 1_445
