# generated using pymatgen
data_Nb2B2Mo
_symmetry_space_group_name_H-M   'P 1'
_cell_length_a   6.12571917
_cell_length_b   6.12571917
_cell_length_c   3.29151858
_cell_angle_alpha   90.00000000
_cell_angle_beta   90.00000000
_cell_angle_gamma   90.00000000
_symmetry_Int_Tables_number   1
_chemical_formula_structural   Nb2B2Mo
_chemical_formula_sum   'Nb4 B4 Mo2'
_cell_volume   123.51237616
_cell_formula_units_Z   2
loop_
 _symmetry_equiv_pos_site_id
 _symmetry_equiv_pos_as_xyz
  1  'x, y, z'
loop_
 _atom_site_type_symbol
 _atom_site_label
 _atom_site_symmetry_multiplicity
 _atom_site_fract_x
 _atom_site_fract_y
 _atom_site_fract_z
 _atom_site_occupancy
  Nb  Nb0  1  0.67906466  0.17906466  0.50000000  1
  Nb  Nb1  1  0.32093534  0.82093534  0.50000000  1
  Nb  Nb2  1  0.17906466  0.32093534  0.50000000  1
  Nb  Nb3  1  0.82093534  0.67906466  0.50000000  1
  B  B0  1  0.10826448  0.60826448  -0.00000000  1
  B  B1  1  0.89173552  0.39173552  0.00000000  1
  B  B2  1  0.60826448  0.89173552  0.00000000  1
  B  B3  1  0.39173552  0.10826448  -0.00000000  1
  Mo  Mo0  1  0.00000000  0.00000000  -0.00000000  1
  Mo  Mo1  1  0.50000000  0.50000000  -0.00000000  1
loop_
_geom_bond_atom_site_label_1
_geom_bond_atom_site_label_2
_geom_bond_distance
_geom_bond_site_symmetry_2
B0 B1 1.875807 1_455
B0 Nb2 2.448380 1_554
B0 Nb3 2.448380 1_455
B0 Nb3 2.448380 1_454
B0 Nb2 2.448380 1_555
B0 Nb1 2.470405 1_555
B0 Nb1 2.470405 1_554
B0 Mo1 2.489620 1_555
B0 Mo0 2.489620 1_565
B1 Nb2 2.448380 1_655
B1 Nb2 2.448380 1_654
B1 Nb3 2.448380 1_554
B1 Nb3 2.448380 1_555
B1 Nb0 2.470405 1_555
B1 Nb0 2.470405 1_554
B1 Mo1 2.489620 1_555
B1 Mo0 2.489620 1_655
B2 B3 1.875807 1_565
B2 Nb0 2.448380 1_565
B2 Nb0 2.448380 1_564
B2 Nb1 2.448380 1_555
B2 Nb1 2.448380 1_554
B2 Nb3 2.470405 1_554
B2 Nb3 2.470405 1_555
B2 Mo1 2.489620 1_555
B2 Mo0 2.489620 1_665
B3 Nb0 2.448380 1_555
B3 Nb0 2.448380 1_554
B3 Nb1 2.448380 1_545
B3 Nb1 2.448380 1_544
B3 Nb2 2.470405 1_555
B3 Nb2 2.470405 1_554
B3 Mo1 2.489620 1_555
B3 Mo0 2.489620 1_555
Mo0 Nb3 2.788675 1_445
Mo0 Nb2 2.788675 1_555
Mo0 Nb2 2.788675 1_554
Mo0 Nb3 2.788675 1_444
Mo0 Nb1 2.788675 1_544
Mo0 Nb0 2.788675 1_455
Mo0 Nb0 2.788675 1_454
Mo0 Nb1 2.788675 1_545
Mo1 Nb0 2.788675 1_554
Mo1 Nb1 2.788675 1_555
Mo1 Nb1 2.788675 1_554
Mo1 Nb0 2.788675 1_555
Mo1 Nb3 2.788675 1_555
Mo1 Nb3 2.788675 1_554
Mo1 Nb2 2.788675 1_555
Mo1 Nb2 2.788675 1_554
