# generated using pymatgen
data_Sr3Pm
_symmetry_space_group_name_H-M   'P 1'
_cell_length_a   8.17959383
_cell_length_b   8.17959383
_cell_length_c   6.56395800
_cell_angle_alpha   90.00000000
_cell_angle_beta   90.00000000
_cell_angle_gamma   119.99999862
_symmetry_Int_Tables_number   1
_chemical_formula_structural   Sr3Pm
_chemical_formula_sum   'Sr6 Pm2'
_cell_volume   380.32940898
_cell_formula_units_Z   2
loop_
 _symmetry_equiv_pos_site_id
 _symmetry_equiv_pos_as_xyz
  1  'x, y, z'
loop_
 _atom_site_type_symbol
 _atom_site_label
 _atom_site_symmetry_multiplicity
 _atom_site_fract_x
 _atom_site_fract_y
 _atom_site_fract_z
 _atom_site_occupancy
  Sr  Sr0  1  0.17159300  0.34318600  0.25000000  1
  Sr  Sr1  1  0.65681400  0.82840700  0.25000000  1
  Sr  Sr2  1  0.17159300  0.82840700  0.25000000  1
  Sr  Sr3  1  0.82840700  0.65681400  0.75000000  1
  Sr  Sr4  1  0.34318600  0.17159300  0.75000000  1
  Sr  Sr5  1  0.82840700  0.17159300  0.75000000  1
  Pm  Pm0  1  0.33333300  0.66666700  0.75000000  1
  Pm  Pm1  1  0.66666700  0.33333300  0.25000000  1
loop_
_geom_bond_atom_site_label_1
_geom_bond_atom_site_label_2
_geom_bond_distance
_geom_bond_site_symmetry_2
Sr0 Sr2 3.968911 1_555
Sr0 Sr1 3.968911 1_555
Sr0 Sr4 4.084279 1_555
Sr0 Sr4 4.084279 1_554
Sr0 Sr5 4.084279 1_455
Sr0 Sr5 4.084279 1_454
Sr0 Sr2 4.210683 1_545
Sr0 Sr1 4.210683 1_445
Sr1 Sr2 3.968911 1_555
Sr1 Sr3 4.084279 1_554
Sr1 Sr3 4.084279 1_555
Sr1 Sr5 4.084279 1_564
Sr1 Sr5 4.084279 1_565
Sr1 Sr2 4.210683 1_655
Sr2 Sr3 4.084279 1_455
Sr2 Sr3 4.084279 1_454
Sr2 Sr4 4.084279 1_564
Sr2 Sr4 4.084279 1_565
Sr3 Sr5 3.968911 1_555
Sr3 Sr4 3.968911 1_555
Sr3 Sr5 4.210683 1_565
Sr3 Sr4 4.210683 1_665
Sr4 Sr5 3.968911 1_555
Sr4 Sr5 4.210683 1_455
Pm0 Sr2 4.002763 1_556
Pm0 Sr2 4.002763 1_555
Pm0 Sr0 4.002768 1_555
Pm0 Sr0 4.002768 1_556
Pm0 Sr1 4.002768 1_555
Pm0 Sr1 4.002768 1_556
Pm0 Sr3 4.090388 1_455
Pm0 Sr4 4.090388 1_565
Pm0 Sr5 4.090392 1_455
Pm0 Sr5 4.090392 1_565
Pm0 Sr3 4.090397 1_555
Pm0 Sr4 4.090397 1_555
Pm1 Sr5 4.002763 1_555
Pm1 Sr5 4.002763 1_554
Pm1 Sr3 4.002768 1_555
Pm1 Sr4 4.002768 1_555
Pm1 Sr4 4.002768 1_554
Pm1 Sr3 4.002768 1_554
Pm1 Sr0 4.090388 1_655
Pm1 Sr1 4.090388 1_545
Pm1 Sr2 4.090392 1_545
Pm1 Sr2 4.090392 1_655
Pm1 Sr0 4.090397 1_555
Pm1 Sr1 4.090397 1_555
