# generated using pymatgen
data_Y2RhAu
_symmetry_space_group_name_H-M   'P 1'
_cell_length_a   11.73367328
_cell_length_b   11.73367328
_cell_length_c   11.73367328
_cell_angle_alpha   126.22255850
_cell_angle_beta   118.00127032
_cell_angle_gamma   86.53639629
_symmetry_Int_Tables_number   1
_chemical_formula_structural   Y2RhAu
_chemical_formula_sum   'Y2 Rh1 Au1'
_cell_volume   1095.98211796
_cell_formula_units_Z   1
loop_
 _symmetry_equiv_pos_site_id
 _symmetry_equiv_pos_as_xyz
  1  'x, y, z'
loop_
 _atom_site_type_symbol
 _atom_site_label
 _atom_site_symmetry_multiplicity
 _atom_site_fract_x
 _atom_site_fract_y
 _atom_site_fract_z
 _atom_site_occupancy
  Y  Y0  1  0.00000000  0.22941200  0.22941200  1
  Y  Y1  1  0.00000000  0.77058800  0.77058800  1
  Rh  Rh0  1  0.00000000  0.00000000  0.00000000  1
  Au  Au0  1  0.00000000  0.50000000  0.50000000  1
loop_
_geom_bond_atom_site_label_1
_geom_bond_atom_site_label_2
_geom_bond_distance
_geom_bond_site_symmetry_2
Rh0 Y0 2.434823 1_555
Rh0 Y1 2.434823 1_544
Au0 Y1 2.871838 1_555
Au0 Y0 2.871838 1_555
