# generated using pymatgen
data_Ba2TaMnO6
_symmetry_space_group_name_H-M   'P 1'
_cell_length_a   5.81289857
_cell_length_b   5.81289857
_cell_length_c   5.81289857
_cell_angle_alpha   60.00000000
_cell_angle_beta   60.00000000
_cell_angle_gamma   60.00000000
_symmetry_Int_Tables_number   1
_chemical_formula_structural   Ba2TaMnO6
_chemical_formula_sum   'Ba2 Ta1 Mn1 O6'
_cell_volume   138.88752473
_cell_formula_units_Z   1
loop_
 _symmetry_equiv_pos_site_id
 _symmetry_equiv_pos_as_xyz
  1  'x, y, z'
loop_
 _atom_site_type_symbol
 _atom_site_label
 _atom_site_symmetry_multiplicity
 _atom_site_fract_x
 _atom_site_fract_y
 _atom_site_fract_z
 _atom_site_occupancy
  Ba  Ba0  1  0.25000000  0.25000000  0.25000000  1
  Ba  Ba1  1  0.75000000  0.75000000  0.75000000  1
  Ta  Ta0  1  0.00000000  0.00000000  0.00000000  1
  Mn  Mn0  1  0.50000000  0.50000000  0.50000000  1
  O  O0  1  0.75493500  0.24506500  0.24506500  1
  O  O1  1  0.24506500  0.75493500  0.75493500  1
  O  O2  1  0.24506500  0.24506500  0.75493500  1
  O  O3  1  0.75493500  0.75493500  0.24506500  1
  O  O4  1  0.24506500  0.75493500  0.24506500  1
  O  O5  1  0.75493500  0.24506500  0.75493500  1
loop_
_geom_bond_atom_site_label_1
_geom_bond_atom_site_label_2
_geom_bond_distance
_geom_bond_site_symmetry_2
Ba0 O0 2.906732 1_555
Ba0 O2 2.906732 1_555
Ba0 O4 2.906732 1_555
Ba0 O5 2.906732 1_455
Ba0 O3 2.906732 1_545
Ba0 O5 2.906732 1_554
Ba0 O3 2.906732 1_455
Ba0 O1 2.906732 1_545
Ba0 O1 2.906732 1_554
Ba0 O2 2.906732 1_554
Ba0 O0 2.906732 1_455
Ba0 O4 2.906732 1_545
Ba1 O5 2.906732 1_565
Ba1 O3 2.906732 1_556
Ba1 O1 2.906732 1_655
Ba1 O2 2.906732 1_655
Ba1 O0 2.906732 1_556
Ba1 O2 2.906732 1_565
Ba1 O4 2.906732 1_655
Ba1 O4 2.906732 1_556
Ba1 O0 2.906732 1_565
Ba1 O5 2.906732 1_555
Ba1 O3 2.906732 1_555
Ba1 O1 2.906732 1_555
Mn0 O3 2.095739 1_555
Mn0 O1 2.095739 1_555
Mn0 O5 2.095739 1_555
Mn0 O2 2.095739 1_555
Mn0 O4 2.095739 1_555
Mn0 O0 2.095739 1_555
O0 Ta0 2.014601 1_655
O1 Ta0 2.014601 1_566
O2 Ta0 2.014601 1_556
O3 Ta0 2.014601 1_665
O4 Ta0 2.014601 1_565
O5 Ta0 2.014601 1_656
