# generated using pymatgen
data_Li9Mn2Co5O16
_symmetry_space_group_name_H-M   'P 1'
_cell_length_a   6.61714135
_cell_length_b   6.61714135
_cell_length_c   15.31420722
_cell_angle_alpha   87.65834296
_cell_angle_beta   87.65834296
_cell_angle_gamma   25.55807837
_symmetry_Int_Tables_number   1
_chemical_formula_structural   Li9Mn2Co5O16
_chemical_formula_sum   'Li9 Mn2 Co5 O16'
_cell_volume   289.04133632
_cell_formula_units_Z   1
loop_
 _symmetry_equiv_pos_site_id
 _symmetry_equiv_pos_as_xyz
  1  'x, y, z'
loop_
 _atom_site_type_symbol
 _atom_site_label
 _atom_site_symmetry_multiplicity
 _atom_site_fract_x
 _atom_site_fract_y
 _atom_site_fract_z
 _atom_site_occupancy
  Li  Li0  1  0.81722100  0.81722100  0.56256200  1
  Li  Li1  1  0.18277900  0.18277900  0.43743800  1
  Li  Li2  1  0.56073800  0.56073800  0.31633000  1
  Li  Li3  1  0.43926200  0.43926200  0.68367000  1
  Li  Li4  1  0.06095500  0.06095500  0.81353400  1
  Li  Li5  1  0.68755900  0.68755900  0.93772900  1
  Li  Li6  1  0.93904500  0.93904500  0.18646600  1
  Li  Li7  1  0.31244100  0.31244100  0.06227100  1
  Li  Li8  1  0.50000000  0.50000000  0.50000000  1
  Mn  Mn0  1  0.11890700  0.11890700  0.62187300  1
  Mn  Mn1  1  0.88109300  0.88109300  0.37812700  1
  Co  Co0  1  0.25027100  0.25027100  0.25072900  1
  Co  Co1  1  0.62582700  0.62582700  0.12509100  1
  Co  Co2  1  0.00000000  0.00000000  0.00000000  1
  Co  Co3  1  0.37417300  0.37417300  0.87490900  1
  Co  Co4  1  0.74972900  0.74972900  0.74927100  1
  O  O0  1  0.65412300  0.65412300  0.54225200  1
  O  O1  1  0.01832900  0.01832900  0.40181800  1
  O  O2  1  0.40087200  0.40087200  0.29075700  1
  O  O3  1  0.27033100  0.27033100  0.66059500  1
  O  O4  1  0.90026300  0.90026300  0.78782100  1
  O  O5  1  0.52702900  0.52702900  0.91207900  1
  O  O6  1  0.77790200  0.77790200  0.16274900  1
  O  O7  1  0.15224200  0.15224200  0.03672500  1
  O  O8  1  0.98167100  0.98167100  0.59818200  1
  O  O9  1  0.34587700  0.34587700  0.45774800  1
  O  O10  1  0.72966900  0.72966900  0.33940500  1
  O  O11  1  0.59912800  0.59912800  0.70924300  1
  O  O12  1  0.22209800  0.22209800  0.83725100  1
  O  O13  1  0.84775800  0.84775800  0.96327500  1
  O  O14  1  0.09973700  0.09973700  0.21217900  1
  O  O15  1  0.47297100  0.47297100  0.08792100  1
loop_
_geom_bond_atom_site_label_1
_geom_bond_atom_site_label_2
_geom_bond_distance
_geom_bond_site_symmetry_2
Li0 O0 2.140727 1_555
Li0 O3 2.164787 1_565
Li0 O3 2.164787 1_655
Li0 O9 2.192218 1_655
Li0 O9 2.192218 1_565
Li0 O8 2.213471 1_555
Li1 O9 2.140727 1_555
Li1 O10 2.164787 1_545
Li1 O10 2.164787 1_455
Li1 O0 2.192218 1_455
Li1 O0 2.192218 1_545
Li1 O1 2.213471 1_555
Li2 O1 2.023807 1_655
Li2 O1 2.023807 1_565
Li2 O2 2.116203 1_555
Li2 O14 2.207344 1_655
Li2 O14 2.207344 1_565
Li2 O10 2.223321 1_555
Li3 O8 2.023807 1_455
Li3 O8 2.023807 1_545
Li3 O11 2.116203 1_555
Li3 O4 2.207344 1_455
Li3 O4 2.207344 1_545
Li3 O3 2.223321 1_555
Li4 O12 2.126202 1_555
Li4 O4 2.127164 1_445
Li4 O5 2.134513 1_455
Li4 O5 2.134513 1_545
Li4 O11 2.206791 1_455
Li4 O11 2.206791 1_545
Li5 O13 2.120334 1_555
Li5 O5 2.124892 1_555
Li5 O7 2.142557 1_656
Li5 O7 2.142557 1_566
Li5 O12 2.156677 1_655
Li5 O12 2.156677 1_565
Li6 O6 2.126202 1_555
Li6 O14 2.127164 1_665
Li6 O15 2.134513 1_565
Li6 O15 2.134513 1_655
Li6 O2 2.206791 1_655
Li6 O2 2.206791 1_565
Li7 O7 2.120334 1_555
Li7 O15 2.124892 1_555
Li7 O13 2.142557 1_544
Li7 O13 2.142557 1_454
Li7 O6 2.156677 1_545
Li7 O6 2.156677 1_455
Li8 O1 2.104567 1_565
Li8 O8 2.104567 1_455
Li8 O8 2.104567 1_545
Li8 O1 2.104567 1_655
Li8 O0 2.117401 1_555
Li8 O9 2.117401 1_555
Mn0 O8 1.822839 1_445
Mn0 O0 1.946589 1_455
Mn0 O0 1.946589 1_545
Mn0 O11 1.992257 1_545
Mn0 O11 1.992257 1_455
Mn0 O3 2.065971 1_555
Mn1 O1 1.822839 1_665
Mn1 O9 1.946589 1_565
Mn1 O9 1.946589 1_655
Mn1 O2 1.992257 1_655
Mn1 O2 1.992257 1_565
Mn1 O10 2.065971 1_555
Co0 O10 2.006716 1_455
Co0 O10 2.006716 1_545
Co0 O6 2.011105 1_545
Co0 O6 2.011105 1_455
Co0 O14 2.054107 1_555
Co0 O2 2.062446 1_555
Co1 O14 1.999190 1_655
Co1 O14 1.999190 1_565
Co1 O7 2.012750 1_565
Co1 O7 2.012750 1_655
Co1 O6 2.068774 1_555
Co1 O15 2.076099 1_555
Co2 O15 2.009361 1_545
Co2 O15 2.009361 1_455
Co2 O5 2.009361 1_544
Co2 O5 2.009361 1_454
Co2 O13 2.066342 1_444
Co2 O7 2.066342 1_555
Co3 O4 1.999190 1_455
Co3 O4 1.999190 1_545
Co3 O13 2.012750 1_455
Co3 O13 2.012750 1_545
Co3 O12 2.068774 1_555
Co3 O5 2.076099 1_555
Co4 O3 2.006716 1_655
Co4 O3 2.006716 1_565
Co4 O12 2.011105 1_565
Co4 O12 2.011105 1_655
Co4 O4 2.054107 1_555
Co4 O11 2.062446 1_555
