# generated using pymatgen
data_Na3CrO4
_symmetry_space_group_name_H-M   'P 1'
_cell_length_a   7.90905300
_cell_length_b   7.90905300
_cell_length_c   7.90905300
_cell_angle_alpha   90.00000000
_cell_angle_beta   90.00000000
_cell_angle_gamma   90.00000000
_symmetry_Int_Tables_number   1
_chemical_formula_structural   Na3CrO4
_chemical_formula_sum   'Na12 Cr4 O16'
_cell_volume   494.73593631
_cell_formula_units_Z   4
loop_
 _symmetry_equiv_pos_site_id
 _symmetry_equiv_pos_as_xyz
  1  'x, y, z'
loop_
 _atom_site_type_symbol
 _atom_site_label
 _atom_site_symmetry_multiplicity
 _atom_site_fract_x
 _atom_site_fract_y
 _atom_site_fract_z
 _atom_site_occupancy
  Na  Na0  1  0.00514300  0.00514300  0.00514300  1
  Na  Na1  1  0.49485700  0.99485700  0.50514300  1
  Na  Na2  1  0.99485700  0.50514300  0.49485700  1
  Na  Na3  1  0.50514300  0.49485700  0.99485700  1
  Na  Na4  1  0.21464200  0.21464200  0.21464200  1
  Na  Na5  1  0.28535800  0.78535800  0.71464200  1
  Na  Na6  1  0.78535800  0.71464200  0.28535800  1
  Na  Na7  1  0.71464200  0.28535800  0.78535800  1
  Na  Na8  1  0.74197900  0.74197900  0.74197900  1
  Na  Na9  1  0.75802100  0.25802100  0.24197900  1
  Na  Na10  1  0.25802100  0.24197900  0.75802100  1
  Na  Na11  1  0.24197900  0.75802100  0.25802100  1
  Cr  Cr0  1  0.49777400  0.49777400  0.49777400  1
  Cr  Cr1  1  0.00222600  0.50222600  0.99777400  1
  Cr  Cr2  1  0.50222600  0.99777400  0.00222600  1
  Cr  Cr3  1  0.99777400  0.00222600  0.50222600  1
  O  O0  1  0.37340700  0.37340700  0.37340700  1
  O  O1  1  0.12659300  0.62659300  0.87340700  1
  O  O2  1  0.62659300  0.87340700  0.12659300  1
  O  O3  1  0.87340700  0.12659300  0.62659300  1
  O  O4  1  0.97069200  0.05811400  0.29074900  1
  O  O5  1  0.52930800  0.94188600  0.79074900  1
  O  O6  1  0.02930800  0.55811400  0.20925100  1
  O  O7  1  0.29074900  0.97069200  0.05811400  1
  O  O8  1  0.47069200  0.44188600  0.70925100  1
  O  O9  1  0.79074900  0.52930800  0.94188600  1
  O  O10  1  0.20925100  0.02930800  0.55811400  1
  O  O11  1  0.70925100  0.47069200  0.44188600  1
  O  O12  1  0.05811400  0.29074900  0.97069200  1
  O  O13  1  0.55811400  0.20925100  0.02930800  1
  O  O14  1  0.44188600  0.70925100  0.47069200  1
  O  O15  1  0.94188600  0.79074900  0.52930800  1
loop_
_geom_bond_atom_site_label_1
_geom_bond_atom_site_label_2
_geom_bond_distance
_geom_bond_site_symmetry_2
Na0 O12 2.313497 1_554
Na0 O4 2.313497 1_455
Na0 O7 2.313497 1_545
Na1 O5 2.313497 1_555
Na1 O10 2.313497 1_565
Na1 O14 2.313497 1_555
Na2 O15 2.313497 1_555
Na2 O6 2.313497 1_655
Na2 O11 2.313497 1_555
Na3 O9 2.313497 1_555
Na3 O13 2.313497 1_556
Na3 O8 2.313497 1_555
Na4 O0 2.174903 1_555
Na4 O4 2.370143 1_455
Na4 O7 2.370143 1_545
Na4 O12 2.370143 1_554
Na5 O1 2.174903 1_555
Na5 O10 2.370143 1_565
Na5 O5 2.370143 1_555
Na5 O14 2.370143 1_555
Na6 O2 2.174903 1_555
Na6 O6 2.370143 1_655
Na6 O15 2.370143 1_555
Na6 O11 2.370143 1_555
Na7 O3 2.174903 1_555
Na7 O13 2.370143 1_556
Na7 O9 2.370143 1_555
Na7 O8 2.370143 1_555
Na8 O9 2.340469 1_555
Na8 O15 2.340469 1_555
Na8 O5 2.340469 1_555
Na9 O11 2.340469 1_555
Na9 O4 2.340469 1_555
Na9 O13 2.340469 1_555
Na10 O8 2.340469 1_555
Na10 O12 2.340469 1_555
Na10 O10 2.340469 1_555
Na11 O14 2.340469 1_555
Na11 O7 2.340469 1_555
Na11 O6 2.340469 1_555
Cr0 O0 1.703689 1_555
Cr0 O14 1.743214 1_555
Cr0 O11 1.743214 1_555
Cr0 O8 1.743214 1_555
Cr1 O1 1.703689 1_555
Cr1 O12 1.743214 1_555
Cr1 O9 1.743214 1_455
Cr1 O6 1.743214 1_556
Cr2 O2 1.703689 1_555
Cr2 O7 1.743214 1_555
Cr2 O5 1.743214 1_554
Cr2 O13 1.743214 1_565
Cr3 O3 1.703689 1_555
Cr3 O4 1.743214 1_555
Cr3 O15 1.743214 1_545
Cr3 O10 1.743214 1_655
