# generated using pymatgen
data_Na(SrAs)4
_symmetry_space_group_name_H-M   'P 1'
_cell_length_a   7.82998100
_cell_length_b   8.31285400
_cell_length_c   15.94453000
_cell_angle_alpha   90.00000000
_cell_angle_beta   90.00000000
_cell_angle_gamma   90.00000000
_symmetry_Int_Tables_number   1
_chemical_formula_structural   Na(SrAs)4
_chemical_formula_sum   'Na4 Sr16 As16'
_cell_volume   1037.82130806
_cell_formula_units_Z   4
loop_
 _symmetry_equiv_pos_site_id
 _symmetry_equiv_pos_as_xyz
  1  'x, y, z'
loop_
 _atom_site_type_symbol
 _atom_site_label
 _atom_site_symmetry_multiplicity
 _atom_site_fract_x
 _atom_site_fract_y
 _atom_site_fract_z
 _atom_site_occupancy
  Na  Na0  1  0.18374100  0.51805800  0.75000000  1
  Na  Na1  1  0.81625900  0.48194200  0.25000000  1
  Na  Na2  1  0.31625900  0.01805800  0.25000000  1
  Na  Na3  1  0.68374100  0.98194200  0.75000000  1
  Sr  Sr0  1  0.35200500  0.16701900  0.62260200  1
  Sr  Sr1  1  0.64799500  0.83298100  0.37739800  1
  Sr  Sr2  1  0.14799500  0.66701900  0.37739800  1
  Sr  Sr3  1  0.64799500  0.83298100  0.12260200  1
  Sr  Sr4  1  0.85200500  0.33298100  0.62260200  1
  Sr  Sr5  1  0.35200500  0.16701900  0.87739800  1
  Sr  Sr6  1  0.85200500  0.33298100  0.87739800  1
  Sr  Sr7  1  0.14799500  0.66701900  0.12260200  1
  Sr  Sr8  1  0.00322100  0.19253300  0.09500300  1
  Sr  Sr9  1  0.99677900  0.80746700  0.90499700  1
  Sr  Sr10  1  0.49677900  0.69253300  0.90499700  1
  Sr  Sr11  1  0.99677900  0.80746700  0.59500300  1
  Sr  Sr12  1  0.50322100  0.30746700  0.09500300  1
  Sr  Sr13  1  0.00322100  0.19253300  0.40499700  1
  Sr  Sr14  1  0.50322100  0.30746700  0.40499700  1
  Sr  Sr15  1  0.49677900  0.69253300  0.59500300  1
  As  As0  1  0.04966400  0.08425600  0.75000000  1
  As  As1  1  0.95033600  0.91574400  0.25000000  1
  As  As2  1  0.45033600  0.58425600  0.25000000  1
  As  As3  1  0.54966400  0.41574400  0.75000000  1
  As  As4  1  0.19365300  0.46334400  0.53821500  1
  As  As5  1  0.80634700  0.53665600  0.46178500  1
  As  As6  1  0.30634700  0.96334400  0.46178500  1
  As  As7  1  0.80634700  0.53665600  0.03821500  1
  As  As8  1  0.69365300  0.03665600  0.53821500  1
  As  As9  1  0.19365300  0.46334400  0.96178500  1
  As  As10  1  0.69365300  0.03665600  0.96178500  1
  As  As11  1  0.30634700  0.96334400  0.03821500  1
  As  As12  1  0.28361300  0.87277300  0.75000000  1
  As  As13  1  0.71638700  0.12722700  0.25000000  1
  As  As14  1  0.21638700  0.37277300  0.25000000  1
  As  As15  1  0.78361300  0.62722700  0.75000000  1
loop_
_geom_bond_atom_site_label_1
_geom_bond_atom_site_label_2
_geom_bond_distance
_geom_bond_site_symmetry_2
As0 As12 2.538939 1_545
As0 Na3 2.988743 1_445
As0 Sr5 3.194331 1_555
As0 Sr0 3.194331 1_555
As0 Sr6 3.285801 1_455
As0 Sr4 3.285801 1_455
As0 Sr9 3.401945 1_445
As0 Sr11 3.401945 1_445
As1 As13 2.538939 1_565
As1 Na2 2.988743 1_665
As1 Sr3 3.194331 1_555
As1 Sr1 3.194331 1_555
As1 Sr2 3.285801 1_655
As1 Sr7 3.285801 1_655
As1 Sr8 3.401945 1_665
As1 Sr13 3.401945 1_665
As2 Na1 2.988743 1_555
As2 Sr2 3.194331 1_555
As2 Sr7 3.194331 1_555
As2 Sr3 3.285801 1_555
As2 Sr1 3.285801 1_555
As2 Sr12 3.401945 1_555
As2 Sr14 3.401945 1_555
As3 Na0 2.988743 1_555
As3 Sr6 3.194331 1_555
As3 Sr4 3.194331 1_555
As3 Sr5 3.285801 1_555
As3 Sr0 3.285801 1_555
As3 Sr10 3.401945 1_555
As3 Sr15 3.401945 1_555
As4 Sr0 3.068487 1_555
As4 Sr2 3.093435 1_555
As4 Sr15 3.175384 1_555
As4 Sr4 3.184482 1_455
As4 Sr11 3.373340 1_455
As4 Na0 3.408189 1_555
As4 Sr13 3.435559 1_555
As4 Sr14 3.473643 1_555
As5 Sr1 3.068487 1_555
As5 Sr4 3.093435 1_555
As5 Sr14 3.175384 1_555
As5 Sr2 3.184482 1_655
As5 Sr13 3.373340 1_655
As5 Na1 3.408189 1_555
As5 Sr11 3.435559 1_555
As5 Sr15 3.473643 1_555
As6 Sr2 3.068487 1_555
As6 Sr0 3.093435 1_565
As6 Sr13 3.175384 1_565
As6 Sr1 3.184482 1_555
As6 Sr14 3.373340 1_565
As6 Na2 3.408189 1_565
As6 Sr15 3.435559 1_555
As6 Sr11 3.473643 1_455
As7 Sr3 3.068487 1_555
As7 Sr6 3.093435 1_554
As7 Sr12 3.175384 1_555
As7 Sr7 3.184482 1_655
As7 Sr8 3.373340 1_655
As7 Na1 3.408189 1_555
As7 Sr9 3.435559 1_554
As7 Sr10 3.473643 1_554
As8 Sr4 3.068487 1_555
As8 Sr1 3.093435 1_545
As8 Sr11 3.175384 1_545
As8 Sr0 3.184482 1_555
As8 Sr15 3.373340 1_545
As8 Na3 3.408189 1_545
As8 Sr14 3.435559 1_555
As8 Sr13 3.473643 1_655
As9 Sr5 3.068487 1_555
As9 Sr7 3.093435 1_556
As9 Sr10 3.175384 1_555
As9 Sr6 3.184482 1_455
As9 Sr9 3.373340 1_455
As9 Na0 3.408189 1_555
As9 Sr8 3.435559 1_556
As9 Sr12 3.473643 1_556
As10 Sr6 3.068487 1_555
As10 Sr3 3.093435 1_546
As10 Sr9 3.175384 1_545
As10 Sr5 3.184482 1_555
As10 Sr10 3.373340 1_545
As10 Na3 3.408189 1_545
As10 Sr12 3.435559 1_556
As10 Sr8 3.473643 1_656
As11 Sr7 3.068487 1_555
As11 Sr5 3.093435 1_564
As11 Sr8 3.175384 1_565
As11 Sr3 3.184482 1_555
As11 Sr12 3.373340 1_565
As11 Na2 3.408189 1_565
As11 Sr10 3.435559 1_554
As11 Sr9 3.473643 1_454
As12 Na0 3.050625 1_555
As12 Sr0 3.224281 1_565
As12 Sr5 3.224281 1_565
As12 Na3 3.261782 1_555
As12 Sr10 3.337419 1_555
As12 Sr15 3.337419 1_555
As12 Sr9 3.383253 1_455
As12 Sr11 3.383253 1_455
As13 Na1 3.050625 1_555
As13 Sr3 3.224281 1_545
As13 Sr1 3.224281 1_545
As13 Na2 3.261782 1_555
As13 Sr14 3.337419 1_555
As13 Sr12 3.337419 1_555
As13 Sr13 3.383253 1_655
As13 Sr8 3.383253 1_655
As14 As2 2.538939 1_555
As14 Na2 3.050625 1_555
As14 Sr7 3.224281 1_555
As14 Sr2 3.224281 1_555
As14 Na1 3.261782 1_455
As14 Sr8 3.337419 1_555
As14 Sr13 3.337419 1_555
As14 Sr12 3.383253 1_555
As14 Sr14 3.383253 1_555
As15 As3 2.538939 1_555
As15 Na3 3.050625 1_555
As15 Sr6 3.224281 1_555
As15 Sr4 3.224281 1_555
As15 Na0 3.261782 1_655
As15 Sr11 3.337419 1_555
As15 Sr9 3.337419 1_555
As15 Sr15 3.383253 1_555
As15 Sr10 3.383253 1_555
