# generated using pymatgen
data_BiP5O14
_symmetry_space_group_name_H-M   'P 1'
_cell_length_a   8.74654537
_cell_length_b   9.06764011
_cell_length_c   12.93313236
_cell_angle_alpha   90.00000000
_cell_angle_beta   90.00000000
_cell_angle_gamma   90.00000000
_symmetry_Int_Tables_number   1
_chemical_formula_structural   BiP5O14
_chemical_formula_sum   'Bi4 P20 O56'
_cell_volume   1025.73352540
_cell_formula_units_Z   4
loop_
 _symmetry_equiv_pos_site_id
 _symmetry_equiv_pos_as_xyz
  1  'x, y, z'
loop_
 _atom_site_type_symbol
 _atom_site_label
 _atom_site_symmetry_multiplicity
 _atom_site_fract_x
 _atom_site_fract_y
 _atom_site_fract_z
 _atom_site_occupancy
  Bi  Bi0  1  0.47849339  0.06243091  0.75000000  1
  Bi  Bi1  1  0.52150661  0.93756909  0.25000000  1
  Bi  Bi2  1  0.02150661  0.56243091  0.25000000  1
  Bi  Bi3  1  0.97849339  0.43756909  0.75000000  1
  P  P0  1  0.06888405  0.00517106  0.75000000  1
  P  P1  1  0.93111595  0.99482894  0.25000000  1
  P  P2  1  0.43111595  0.50517106  0.25000000  1
  P  P3  1  0.56888405  0.49482894  0.75000000  1
  P  P4  1  0.24423070  0.27204877  0.56332456  1
  P  P5  1  0.75576930  0.72795123  0.43667544  1
  P  P6  1  0.25576930  0.77204877  0.43667544  1
  P  P7  1  0.75576930  0.72795123  0.06332456  1
  P  P8  1  0.74423070  0.22795123  0.56332456  1
  P  P9  1  0.24423070  0.27204877  0.93667544  1
  P  P10  1  0.74423070  0.22795123  0.93667544  1
  P  P11  1  0.25576930  0.77204877  0.06332456  1
  P  P12  1  0.00767323  0.79839886  0.58381888  1
  P  P13  1  0.99232677  0.20160114  0.41618112  1
  P  P14  1  0.49232677  0.29839886  0.41618112  1
  P  P15  1  0.99232677  0.20160114  0.08381888  1
  P  P16  1  0.50767323  0.70160114  0.58381888  1
  P  P17  1  0.00767323  0.79839886  0.91618112  1
  P  P18  1  0.50767323  0.70160114  0.91618112  1
  P  P19  1  0.49232677  0.29839886  0.08381888  1
  O  O0  1  0.33770236  0.34414373  0.03136333  1
  O  O1  1  0.66229764  0.65585627  0.96863667  1
  O  O2  1  0.16229764  0.84414373  0.96863667  1
  O  O3  1  0.66229764  0.65585627  0.53136333  1
  O  O4  1  0.83770236  0.15585627  0.03136333  1
  O  O5  1  0.33770236  0.34414373  0.46863667  1
  O  O6  1  0.83770236  0.15585627  0.46863667  1
  O  O7  1  0.16229764  0.84414373  0.53136333  1
  O  O8  1  0.99287668  0.34463578  0.13510443  1
  O  O9  1  0.00712332  0.65536422  0.86489557  1
  O  O10  1  0.50712332  0.84463578  0.86489557  1
  O  O11  1  0.00712332  0.65536422  0.63510443  1
  O  O12  1  0.49287668  0.15536422  0.13510443  1
  O  O13  1  0.99287668  0.34463578  0.36489557  1
  O  O14  1  0.49287668  0.15536422  0.36489557  1
  O  O15  1  0.50712332  0.84463578  0.63510443  1
  O  O16  1  0.72543123  0.55729396  0.75000000  1
  O  O17  1  0.27456877  0.44270604  0.25000000  1
  O  O18  1  0.77456877  0.05729396  0.25000000  1
  O  O19  1  0.22543123  0.94270604  0.75000000  1
  O  O20  1  0.17613293  0.39390004  0.62240994  1
  O  O21  1  0.82386707  0.60609996  0.37759006  1
  O  O22  1  0.32386707  0.89390004  0.37759006  1
  O  O23  1  0.82386707  0.60609996  0.12240994  1
  O  O24  1  0.67613293  0.10609996  0.62240994  1
  O  O25  1  0.17613293  0.39390004  0.87759006  1
  O  O26  1  0.67613293  0.10609996  0.87759006  1
  O  O27  1  0.32386707  0.89390004  0.12240994  1
  O  O28  1  0.03679875  0.16423219  0.75000000  1
  O  O29  1  0.96320125  0.83576781  0.25000000  1
  O  O30  1  0.46320125  0.66423219  0.25000000  1
  O  O31  1  0.53679875  0.33576781  0.75000000  1
  O  O32  1  0.11518121  0.18001687  0.50220222  1
  O  O33  1  0.88481879  0.81998313  0.49779778  1
  O  O34  1  0.38481879  0.68001687  0.49779778  1
  O  O35  1  0.88481879  0.81998313  0.00220222  1
  O  O36  1  0.61518121  0.31998313  0.50220222  1
  O  O37  1  0.11518121  0.18001687  0.99779778  1
  O  O38  1  0.61518121  0.31998313  0.99779778  1
  O  O39  1  0.38481879  0.68001687  0.00220222  1
  O  O40  1  0.34291433  0.15876488  0.61123358  1
  O  O41  1  0.65708567  0.84123512  0.38876642  1
  O  O42  1  0.15708567  0.65876488  0.38876642  1
  O  O43  1  0.65708567  0.84123512  0.11123358  1
  O  O44  1  0.84291433  0.34123512  0.61123358  1
  O  O45  1  0.34291433  0.15876488  0.88876642  1
  O  O46  1  0.84291433  0.34123512  0.88876642  1
  O  O47  1  0.15708567  0.65876488  0.11123358  1
  O  O48  1  0.02564285  0.06557227  0.15442055  1
  O  O49  1  0.97435715  0.93442773  0.84557945  1
  O  O50  1  0.47435715  0.56557227  0.84557945  1
  O  O51  1  0.97435715  0.93442773  0.65442055  1
  O  O52  1  0.52564285  0.43442773  0.15442055  1
  O  O53  1  0.02564285  0.06557227  0.34557945  1
  O  O54  1  0.52564285  0.43442773  0.34557945  1
  O  O55  1  0.47435715  0.56557227  0.65442055  1
loop_
_geom_bond_atom_site_label_1
_geom_bond_atom_site_label_2
_geom_bond_distance
_geom_bond_site_symmetry_2
Bi0 O40 2.321674 1_555
Bi0 O45 2.321674 1_555
Bi0 O24 2.422402 1_555
Bi0 O26 2.422402 1_555
Bi0 O19 2.465320 1_545
Bi0 O15 2.484143 1_545
Bi0 O10 2.484143 1_545
Bi0 O31 2.530442 1_555
Bi1 O43 2.321674 1_555
Bi1 O41 2.321674 1_555
Bi1 O22 2.422402 1_555
Bi1 O27 2.422402 1_555
Bi1 O18 2.465320 1_565
Bi1 O12 2.484143 1_565
Bi1 O14 2.484143 1_565
Bi1 O30 2.530442 1_555
Bi2 O47 2.321674 1_555
Bi2 O42 2.321674 1_555
Bi2 O21 2.422402 1_455
Bi2 O23 2.422402 1_455
Bi2 O17 2.465320 1_555
Bi2 O13 2.484143 1_455
Bi2 O8 2.484143 1_455
Bi2 O29 2.530442 1_455
Bi3 O46 2.321674 1_555
Bi3 O44 2.321674 1_555
Bi3 O20 2.422402 1_655
Bi3 O25 2.422402 1_655
Bi3 O16 2.465320 1_555
Bi3 O9 2.484143 1_655
Bi3 O11 2.484143 1_655
Bi3 O28 2.530442 1_655
O0 P19 1.568875 1_555
O0 P9 1.611034 1_554
O1 P18 1.568875 1_555
O1 P7 1.611034 1_556
O2 P17 1.568875 1_555
O2 P11 1.611034 1_556
O3 P16 1.568875 1_555
O3 P5 1.611034 1_555
O4 P15 1.568875 1_555
O4 P10 1.611034 1_554
O5 P14 1.568875 1_555
O5 P4 1.611034 1_555
O6 P13 1.568875 1_555
O6 P8 1.611034 1_555
O7 P12 1.568875 1_555
O7 P6 1.611034 1_555
O8 P15 1.456757 1_555
O9 P17 1.456757 1_555
O10 P18 1.456757 1_555
O11 P12 1.456757 1_555
O12 P19 1.456757 1_555
O13 P13 1.456757 1_555
O14 P14 1.456757 1_555
O15 P16 1.456757 1_555
O16 P3 1.481775 1_555
O17 P2 1.481775 1_555
O18 P1 1.481775 1_545
O19 P0 1.481775 1_565
O20 P4 1.469529 1_555
O21 P5 1.469529 1_555
O22 P6 1.469529 1_555
O23 P7 1.469529 1_555
O24 P8 1.469529 1_555
O25 P9 1.469529 1_555
O26 P10 1.469529 1_555
O27 P11 1.469529 1_555
O28 P0 1.469358 1_555
O29 P1 1.469358 1_555
O30 P2 1.469358 1_555
O31 P3 1.469358 1_555
O32 P13 1.559062 1_455
O32 P4 1.611010 1_555
O33 P12 1.559062 1_655
O33 P5 1.611010 1_555
O34 P16 1.559062 1_555
O34 P6 1.611010 1_555
O35 P17 1.559062 1_654
O35 P7 1.611010 1_555
O36 P14 1.559062 1_555
O36 P8 1.611010 1_555
O37 P15 1.559062 1_456
O37 P9 1.611010 1_555
O38 P19 1.559062 1_556
O38 P10 1.611010 1_555
O39 P18 1.559062 1_554
O39 P11 1.611010 1_555
O40 P4 1.477873 1_555
O41 P5 1.477873 1_555
O42 P6 1.477873 1_555
O43 P7 1.477873 1_555
O44 P8 1.477873 1_555
O45 P9 1.477873 1_555
O46 P10 1.477873 1_555
O47 P11 1.477873 1_555
O48 P15 1.562080 1_455
O48 P1 1.619601 1_445
O49 P17 1.562080 1_655
O49 P0 1.619601 1_665
O50 P18 1.562080 1_555
O50 P3 1.619601 1_555
O51 P12 1.562080 1_655
O51 P0 1.619601 1_665
O52 P19 1.562080 1_555
O52 P2 1.619601 1_555
O53 P13 1.562080 1_455
O53 P1 1.619601 1_445
O54 P14 1.562080 1_555
O54 P2 1.619601 1_555
O55 P16 1.562080 1_555
O55 P3 1.619601 1_555
