# generated using pymatgen
data_Mg6NiW
_symmetry_space_group_name_H-M   'P 1'
_cell_length_a   4.78000200
_cell_length_b   5.75214200
_cell_length_c   10.67111500
_cell_angle_alpha   90.00000000
_cell_angle_beta   90.00000000
_cell_angle_gamma   90.00000000
_symmetry_Int_Tables_number   1
_chemical_formula_structural   Mg6NiW
_chemical_formula_sum   'Mg12 Ni2 W2'
_cell_volume   293.40497752
_cell_formula_units_Z   2
loop_
 _symmetry_equiv_pos_site_id
 _symmetry_equiv_pos_as_xyz
  1  'x, y, z'
loop_
 _atom_site_type_symbol
 _atom_site_label
 _atom_site_symmetry_multiplicity
 _atom_site_fract_x
 _atom_site_fract_y
 _atom_site_fract_z
 _atom_site_occupancy
  Mg  Mg0  1  0.50000000  0.75099100  0.92667500  1
  Mg  Mg1  1  0.50000000  0.24900900  0.92667500  1
  Mg  Mg2  1  0.00000000  0.24419600  0.58376000  1
  Mg  Mg3  1  0.00000000  0.75580400  0.58376000  1
  Mg  Mg4  1  0.00000000  0.50000000  0.81175300  1
  Mg  Mg5  1  0.00000000  0.00000000  0.82179200  1
  Mg  Mg6  1  0.50000000  0.25099100  0.42667500  1
  Mg  Mg7  1  0.50000000  0.74900900  0.42667500  1
  Mg  Mg8  1  0.00000000  0.74419600  0.08376000  1
  Mg  Mg9  1  0.00000000  0.25580400  0.08376000  1
  Mg  Mg10  1  0.00000000  0.00000000  0.31175300  1
  Mg  Mg11  1  0.00000000  0.50000000  0.32179200  1
  Ni  Ni0  1  0.50000000  0.50000000  0.66767800  1
  Ni  Ni1  1  0.50000000  0.00000000  0.16767800  1
  W  W0  1  0.50000000  0.00000000  0.67790400  1
  W  W1  1  0.50000000  0.50000000  0.17790400  1
loop_
_geom_bond_atom_site_label_1
_geom_bond_atom_site_label_2
_geom_bond_distance
_geom_bond_site_symmetry_2
Mg0 Mg1 2.864670 1_565
Mg0 Mg1 2.887472 1_555
Mg0 Mg8 2.919507 1_656
Mg0 Mg8 2.919507 1_556
Mg0 Ni1 2.943737 1_566
Mg0 Mg5 3.002722 1_565
Mg0 Mg5 3.002722 1_665
Mg0 W0 3.016426 1_565
Mg0 W1 3.044924 1_556
Mg0 Mg4 3.049656 1_655
Mg0 Mg4 3.049656 1_555
Mg0 Ni0 3.118155 1_555
Mg1 Mg9 2.919507 1_656
Mg1 Mg9 2.919507 1_556
Mg1 Ni1 2.943737 1_556
Mg1 Mg5 3.002722 1_655
Mg1 Mg5 3.002722 1_555
Mg1 W0 3.016426 1_555
Mg1 W1 3.044924 1_556
Mg1 Mg4 3.049656 1_555
Mg1 Mg4 3.049656 1_655
Mg1 Ni0 3.118155 1_555
Mg2 Mg6 2.919507 1_455
Mg2 Mg6 2.919507 1_555
Mg2 Ni0 2.946032 1_455
Mg2 Ni0 2.946032 1_555
Mg2 W0 2.948629 1_555
Mg2 W0 2.948629 1_455
Mg3 Mg7 2.919507 1_555
Mg3 Mg7 2.919507 1_455
Mg3 Ni0 2.946032 1_455
Mg3 Ni0 2.946032 1_555
Mg3 W0 2.948629 1_465
Mg3 W0 2.948629 1_565
Mg4 Ni0 2.841800 1_455
Mg4 Ni0 2.841800 1_555
Mg5 W0 2.840721 1_455
Mg5 W0 2.840721 1_555
Mg6 Mg7 2.864670 1_555
Mg6 Mg7 2.887472 1_545
Mg6 Ni0 2.943737 1_555
Mg6 W1 3.016426 1_555
Mg6 W0 3.044924 1_555
Mg6 Ni1 3.118155 1_555
Mg7 Ni0 2.943737 1_555
Mg7 W1 3.016426 1_555
Mg7 W0 3.044924 1_565
Mg7 Ni1 3.118155 1_565
Mg8 Ni1 2.946032 1_465
Mg8 Ni1 2.946032 1_565
Mg8 W1 2.948629 1_455
Mg8 W1 2.948629 1_555
Mg9 Ni1 2.946032 1_455
Mg9 Ni1 2.946032 1_555
Mg9 W1 2.948629 1_555
Mg9 W1 2.948629 1_455
Mg10 Ni1 2.841800 1_455
Mg10 Ni1 2.841800 1_555
Mg10 Mg6 3.049656 1_455
Mg10 Mg6 3.049656 1_555
Mg10 Mg7 3.049656 1_545
Mg10 Mg7 3.049656 1_445
Mg11 W1 2.840721 1_455
Mg11 W1 2.840721 1_555
Mg11 Mg7 3.002722 1_455
Mg11 Mg7 3.002722 1_555
Mg11 Mg6 3.002722 1_455
Mg11 Mg6 3.002722 1_555
Ni0 W0 2.878140 1_555
Ni0 W0 2.878140 1_565
Ni1 W1 2.878140 1_545
Ni1 W1 2.878140 1_555
