# generated using pymatgen
data_BaZnAsF
_symmetry_space_group_name_H-M   'P 1'
_cell_length_a   4.29923300
_cell_length_b   4.29923300
_cell_length_c   9.62169400
_cell_angle_alpha   90.00000000
_cell_angle_beta   90.00000000
_cell_angle_gamma   90.00000000
_symmetry_Int_Tables_number   1
_chemical_formula_structural   BaZnAsF
_chemical_formula_sum   'Ba2 Zn2 As2 F2'
_cell_volume   177.84166110
_cell_formula_units_Z   2
loop_
 _symmetry_equiv_pos_site_id
 _symmetry_equiv_pos_as_xyz
  1  'x, y, z'
loop_
 _atom_site_type_symbol
 _atom_site_label
 _atom_site_symmetry_multiplicity
 _atom_site_fract_x
 _atom_site_fract_y
 _atom_site_fract_z
 _atom_site_occupancy
  Ba  Ba0  1  0.00000000  0.50000000  0.83548700  1
  Ba  Ba1  1  0.50000000  0.00000000  0.16451300  1
  Zn  Zn0  1  0.50000000  0.50000000  0.50000000  1
  Zn  Zn1  1  0.00000000  0.00000000  0.50000000  1
  As  As0  1  0.00000000  0.50000000  0.34338900  1
  As  As1  1  0.50000000  0.00000000  0.65661100  1
  F  F0  1  0.50000000  0.50000000  0.00000000  1
  F  F1  1  0.00000000  0.00000000  0.00000000  1
loop_
_geom_bond_atom_site_label_1
_geom_bond_atom_site_label_2
_geom_bond_distance
_geom_bond_site_symmetry_2
Ba0 F1 2.669532 1_566
Ba0 F1 2.669532 1_556
Ba0 F0 2.669532 1_456
Ba0 F0 2.669532 1_556
Ba1 F1 2.669532 1_655
Ba1 F0 2.669532 1_545
Ba1 F0 2.669532 1_555
Ba1 F1 2.669532 1_555
As0 Zn0 2.625164 1_455
As0 Zn0 2.625164 1_555
As0 Zn1 2.625164 1_565
As0 Zn1 2.625164 1_555
As0 Ba1 3.493401 1_555
As0 Ba1 3.493401 1_455
As0 Ba1 3.493401 1_465
As0 Ba1 3.493401 1_565
As1 Zn0 2.625164 1_545
As1 Zn0 2.625164 1_555
As1 Zn1 2.625164 1_555
As1 Zn1 2.625164 1_655
As1 Ba0 3.493401 1_555
As1 Ba0 3.493401 1_645
As1 Ba0 3.493401 1_545
As1 Ba0 3.493401 1_655
