# generated using pymatgen
data_Ca2Cr2O5
_symmetry_space_group_name_H-M   'P 1'
_cell_length_a   3.92933600
_cell_length_b   5.43198700
_cell_length_c   10.27677700
_cell_angle_alpha   90.00000000
_cell_angle_beta   90.00000000
_cell_angle_gamma   90.00000000
_symmetry_Int_Tables_number   1
_chemical_formula_structural   Ca2Cr2O5
_chemical_formula_sum   'Ca4 Cr4 O10'
_cell_volume   219.34857725
_cell_formula_units_Z   2
loop_
 _symmetry_equiv_pos_site_id
 _symmetry_equiv_pos_as_xyz
  1  'x, y, z'
loop_
 _atom_site_type_symbol
 _atom_site_label
 _atom_site_symmetry_multiplicity
 _atom_site_fract_x
 _atom_site_fract_y
 _atom_site_fract_z
 _atom_site_occupancy
  Ca  Ca0  1  0.00000000  0.20707300  0.87792900  1
  Ca  Ca1  1  0.00000000  0.79292700  0.12207100  1
  Ca  Ca2  1  0.00000000  0.70707300  0.62207100  1
  Ca  Ca3  1  0.00000000  0.29292700  0.37792900  1
  Cr  Cr0  1  0.50000000  0.23405000  0.63148000  1
  Cr  Cr1  1  0.50000000  0.76595000  0.36852000  1
  Cr  Cr2  1  0.50000000  0.26595000  0.13148000  1
  Cr  Cr3  1  0.50000000  0.73405000  0.86852000  1
  O  O0  1  0.50000000  0.50000000  0.50000000  1
  O  O1  1  0.50000000  0.10069200  0.29536600  1
  O  O2  1  0.50000000  0.60069200  0.20463400  1
  O  O3  1  0.50000000  0.39930800  0.79536600  1
  O  O4  1  0.00000000  0.29118700  0.10725500  1
  O  O5  1  0.00000000  0.70881300  0.89274500  1
  O  O6  1  0.50000000  0.89930800  0.70463400  1
  O  O7  1  0.00000000  0.20881300  0.60725500  1
  O  O8  1  0.50000000  0.00000000  0.00000000  1
  O  O9  1  0.00000000  0.79118700  0.39274500  1
loop_
_geom_bond_atom_site_label_1
_geom_bond_atom_site_label_2
_geom_bond_distance
_geom_bond_site_symmetry_2
Ca0 O3 2.381225 1_455
Ca0 O3 2.381225 1_555
Ca0 O4 2.400614 1_556
Ca0 O8 2.588223 1_456
Ca0 O8 2.588223 1_556
Ca0 O5 2.710821 1_545
Ca0 O5 2.729695 1_555
Ca0 O7 2.781672 1_555
Ca1 O2 2.381225 1_455
Ca1 O2 2.381225 1_555
Ca1 O5 2.400614 1_554
Ca1 O8 2.588223 1_565
Ca1 O8 2.588223 1_465
Ca1 O4 2.710821 1_565
Ca1 O4 2.729695 1_555
Ca1 O9 2.781672 1_555
Ca2 O6 2.381225 1_455
Ca2 O6 2.381225 1_555
Ca2 O9 2.400614 1_555
Ca2 O0 2.588223 1_455
Ca2 O0 2.588223 1_555
Ca2 O7 2.710821 1_555
Ca2 O7 2.729695 1_565
Ca2 O5 2.781672 1_555
Ca3 O1 2.381225 1_555
Ca3 O1 2.381225 1_455
Ca3 O7 2.400614 1_555
Ca3 O0 2.588223 1_455
Ca3 O0 2.588223 1_555
Ca3 O9 2.710821 1_555
Ca3 O9 2.729695 1_545
Ca3 O4 2.781672 1_555
Cr0 O3 1.908514 1_555
Cr0 O6 1.967600 1_545
Cr0 O0 1.978053 1_555
Cr0 O7 1.985118 1_655
Cr0 O7 1.985118 1_555
Cr1 O2 1.908514 1_555
Cr1 O1 1.967600 1_565
Cr1 O0 1.978053 1_555
Cr1 O9 1.985118 1_555
Cr1 O9 1.985118 1_655
Cr2 O1 1.908514 1_555
Cr2 O2 1.967600 1_555
Cr2 O8 1.978053 1_555
Cr2 O4 1.985118 1_555
Cr2 O4 1.985118 1_655
Cr3 O6 1.908514 1_555
Cr3 O3 1.967600 1_555
Cr3 O8 1.978053 1_566
Cr3 O5 1.985118 1_655
Cr3 O5 1.985118 1_555
