# generated using pymatgen
data_ZnCoN2
_symmetry_space_group_name_H-M   'P 1'
_cell_length_a   5.44351400
_cell_length_b   6.28895500
_cell_length_c   5.12457000
_cell_angle_alpha   90.00000000
_cell_angle_beta   90.00000000
_cell_angle_gamma   90.00000000
_symmetry_Int_Tables_number   1
_chemical_formula_structural   ZnCoN2
_chemical_formula_sum   'Zn4 Co4 N8'
_cell_volume   175.43460414
_cell_formula_units_Z   4
loop_
 _symmetry_equiv_pos_site_id
 _symmetry_equiv_pos_as_xyz
  1  'x, y, z'
loop_
 _atom_site_type_symbol
 _atom_site_label
 _atom_site_symmetry_multiplicity
 _atom_site_fract_x
 _atom_site_fract_y
 _atom_site_fract_z
 _atom_site_occupancy
  Zn  Zn0  1  0.58870200  0.87846200  0.00038800  1
  Zn  Zn1  1  0.41129800  0.12153800  0.50038800  1
  Zn  Zn2  1  0.91129800  0.37846200  0.50038800  1
  Zn  Zn3  1  0.08870200  0.62153800  0.00038800  1
  Co  Co0  1  0.57238700  0.37068200  0.99842100  1
  Co  Co1  1  0.42761300  0.62931800  0.49842100  1
  Co  Co2  1  0.92761300  0.87068200  0.49842100  1
  Co  Co3  1  0.07238700  0.12931800  0.99842100  1
  N  N0  1  0.56395800  0.39124800  0.35101900  1
  N  N1  1  0.43604200  0.60875200  0.85101900  1
  N  N2  1  0.93604200  0.89124800  0.85101900  1
  N  N3  1  0.06395800  0.10875200  0.35101900  1
  N  N4  1  0.60717200  0.85820300  0.40017100  1
  N  N5  1  0.39282800  0.14179700  0.90017100  1
  N  N6  1  0.89282800  0.35820300  0.90017100  1
  N  N7  1  0.10717200  0.64179700  0.40017100  1
loop_
_geom_bond_atom_site_label_1
_geom_bond_atom_site_label_2
_geom_bond_distance
_geom_bond_site_symmetry_2
Co0 N5 1.811321 1_555
Co0 N0 1.812117 1_556
Co0 N6 1.817231 1_555
Co0 N1 1.833871 1_555
Co1 N4 1.811321 1_555
Co1 N1 1.812117 1_555
Co1 N7 1.817231 1_555
Co1 N0 1.833871 1_555
Co2 N7 1.811321 1_655
Co2 N2 1.812117 1_555
Co2 N4 1.817231 1_555
Co2 N3 1.833871 1_665
Co3 N6 1.811321 1_455
Co3 N3 1.812117 1_556
Co3 N5 1.817231 1_555
Co3 N2 1.833871 1_445
N0 Zn1 2.038029 1_555
N0 Zn2 2.041401 1_555
N1 Zn0 2.038029 1_556
N1 Zn3 2.041401 1_556
N2 Zn3 2.038029 1_656
N2 Zn0 2.041401 1_556
N3 Zn2 2.038029 1_455
N3 Zn1 2.041401 1_555
N4 Zn1 2.035510 1_565
N4 Zn0 2.055135 1_555
N5 Zn0 2.035510 1_546
N5 Zn1 2.055135 1_555
N6 Zn3 2.035510 1_656
N6 Zn2 2.055135 1_555
N7 Zn2 2.035510 1_455
N7 Zn3 2.055135 1_555
