# generated using pymatgen
data_Cs2NdCuBr6
_symmetry_space_group_name_H-M   'P 1'
_cell_length_a   7.94165768
_cell_length_b   7.94165768
_cell_length_c   7.94165768
_cell_angle_alpha   60.00000000
_cell_angle_beta   60.00000000
_cell_angle_gamma   60.00000000
_symmetry_Int_Tables_number   1
_chemical_formula_structural   Cs2NdCuBr6
_chemical_formula_sum   'Cs2 Nd1 Cu1 Br6'
_cell_volume   354.17548049
_cell_formula_units_Z   1
loop_
 _symmetry_equiv_pos_site_id
 _symmetry_equiv_pos_as_xyz
  1  'x, y, z'
loop_
 _atom_site_type_symbol
 _atom_site_label
 _atom_site_symmetry_multiplicity
 _atom_site_fract_x
 _atom_site_fract_y
 _atom_site_fract_z
 _atom_site_occupancy
  Cs  Cs0  1  0.75000000  0.75000000  0.75000000  1
  Cs  Cs1  1  0.25000000  0.25000000  0.25000000  1
  Nd  Nd0  1  0.50000000  0.50000000  0.50000000  1
  Cu  Cu0  1  0.00000000  0.00000000  0.00000000  1
  Br  Br0  1  0.75781500  0.24218500  0.24218500  1
  Br  Br1  1  0.24218500  0.24218500  0.75781500  1
  Br  Br2  1  0.24218500  0.75781500  0.75781500  1
  Br  Br3  1  0.24218500  0.75781500  0.24218500  1
  Br  Br4  1  0.75781500  0.24218500  0.75781500  1
  Br  Br5  1  0.75781500  0.75781500  0.24218500  1
loop_
_geom_bond_atom_site_label_1
_geom_bond_atom_site_label_2
_geom_bond_distance
_geom_bond_site_symmetry_2
Br0 Cu0 2.720028 1_655
Br0 Nd0 2.895572 1_555
Br0 Cs1 3.971799 1_555
Br0 Cs0 3.971799 1_545
Br0 Cs0 3.971799 1_554
Br0 Cs1 3.971799 1_655
Br1 Cu0 2.720028 1_556
Br1 Nd0 2.895572 1_555
Br1 Cs1 3.971799 1_555
Br1 Cs0 3.971799 1_545
Br1 Cs0 3.971799 1_455
Br1 Cs1 3.971799 1_556
Br2 Cu0 2.720028 1_566
Br2 Nd0 2.895572 1_555
Br2 Cs0 3.971799 1_455
Br2 Cs1 3.971799 1_556
Br2 Cs1 3.971799 1_565
Br2 Cs0 3.971799 1_555
Br3 Cu0 2.720028 1_565
Br3 Nd0 2.895572 1_555
Br3 Cs1 3.971799 1_555
Br3 Cs0 3.971799 1_554
Br3 Cs0 3.971799 1_455
Br3 Cs1 3.971799 1_565
Br4 Cu0 2.720028 1_656
Br4 Nd0 2.895572 1_555
Br4 Cs0 3.971799 1_545
Br4 Cs1 3.971799 1_556
Br4 Cs1 3.971799 1_655
Br4 Cs0 3.971799 1_555
Br5 Cu0 2.720028 1_665
Br5 Nd0 2.895572 1_555
Br5 Cs0 3.971799 1_554
Br5 Cs1 3.971799 1_565
Br5 Cs1 3.971799 1_655
Br5 Cs0 3.971799 1_555
