# generated using pymatgen
data_K3Fe(CN)6
_symmetry_space_group_name_H-M   'P 1'
_cell_length_a   8.46244127
_cell_length_b   10.61790400
_cell_length_c   14.24893710
_cell_angle_alpha   90.00000000
_cell_angle_beta   107.21358858
_cell_angle_gamma   90.00000000
_symmetry_Int_Tables_number   1
_chemical_formula_structural   K3Fe(CN)6
_chemical_formula_sum   'K12 Fe4 C24 N24'
_cell_volume   1222.96766713
_cell_formula_units_Z   4
loop_
 _symmetry_equiv_pos_site_id
 _symmetry_equiv_pos_as_xyz
  1  'x, y, z'
loop_
 _atom_site_type_symbol
 _atom_site_label
 _atom_site_symmetry_multiplicity
 _atom_site_fract_x
 _atom_site_fract_y
 _atom_site_fract_z
 _atom_site_occupancy
  K  K0  1  0.99684600  0.48892000  0.74390400  1
  K  K1  1  0.49684600  0.01108000  0.24390400  1
  K  K2  1  0.00315400  0.51108000  0.25609600  1
  K  K3  1  0.50315400  0.98892000  0.75609600  1
  K  K4  1  0.62532600  0.74931700  0.00111900  1
  K  K5  1  0.12532600  0.75068300  0.50111900  1
  K  K6  1  0.37467400  0.25068300  0.99888100  1
  K  K7  1  0.87467400  0.24931700  0.49888100  1
  K  K8  1  0.87604400  0.28200000  0.99966400  1
  K  K9  1  0.37604400  0.21800000  0.49966400  1
  K  K10  1  0.12395600  0.71800000  0.00033600  1
  K  K11  1  0.62395600  0.78200000  0.50033600  1
  Fe  Fe0  1  0.49842800  0.49021100  0.74670900  1
  Fe  Fe1  1  0.99842800  0.00978900  0.24670900  1
  Fe  Fe2  1  0.50157200  0.50978900  0.25329100  1
  Fe  Fe3  1  0.00157200  0.99021100  0.75329100  1
  C  C0  1  0.52812000  0.32716700  0.80649400  1
  C  C1  1  0.02812000  0.17283300  0.30649400  1
  C  C2  1  0.47188000  0.67283300  0.19350600  1
  C  C3  1  0.97188000  0.82716700  0.69350600  1
  C  C4  1  0.70319300  0.54169800  0.83745900  1
  C  C5  1  0.20319300  0.95830200  0.33745900  1
  C  C6  1  0.29680700  0.45830200  0.16254100  1
  C  C7  1  0.79680700  0.04169800  0.66254100  1
  C  C8  1  0.38669100  0.54050500  0.83943300  1
  C  C9  1  0.88669100  0.95949500  0.33943300  1
  C  C10  1  0.61330900  0.45949500  0.16056700  1
  C  C11  1  0.11330900  0.04050500  0.66056700  1
  C  C12  1  0.47063600  0.65401900  0.68821800  1
  C  C13  1  0.97063600  0.84598100  0.18821800  1
  C  C14  1  0.52936400  0.34598100  0.31178200  1
  C  C15  1  0.02936400  0.15401900  0.81178200  1
  C  C16  1  0.29520100  0.43418100  0.65674000  1
  C  C17  1  0.79520100  0.06581900  0.15674000  1
  C  C18  1  0.70479900  0.56581900  0.34326000  1
  C  C19  1  0.20479900  0.93418100  0.84326000  1
  C  C20  1  0.61018500  0.43505700  0.65501800  1
  C  C21  1  0.11018500  0.06494300  0.15501800  1
  C  C22  1  0.38981500  0.56494300  0.34498200  1
  C  C23  1  0.88981500  0.93505700  0.84498200  1
  N  N0  1  0.55042100  0.22939100  0.84730400  1
  N  N1  1  0.05042100  0.27060900  0.34730400  1
  N  N2  1  0.44957900  0.77060900  0.15269600  1
  N  N3  1  0.94957900  0.72939100  0.65269600  1
  N  N4  1  0.83142400  0.57008800  0.89320400  1
  N  N5  1  0.33142400  0.92991200  0.39320400  1
  N  N6  1  0.16857600  0.42991200  0.10679600  1
  N  N7  1  0.66857600  0.07008800  0.60679600  1
  N  N8  1  0.31531500  0.57042500  0.89549300  1
  N  N9  1  0.81531500  0.92957500  0.39549300  1
  N  N10  1  0.68468500  0.42957500  0.10450700  1
  N  N11  1  0.18468500  0.07042500  0.60450700  1
  N  N12  1  0.45106300  0.75394500  0.65071600  1
  N  N13  1  0.95106300  0.74605500  0.15071600  1
  N  N14  1  0.54893700  0.24605500  0.34928400  1
  N  N15  1  0.04893700  0.25394500  0.84928400  1
  N  N16  1  0.16818800  0.39925700  0.60336800  1
  N  N17  1  0.66818800  0.10074300  0.10336800  1
  N  N18  1  0.83181200  0.60074300  0.39663200  1
  N  N19  1  0.33181200  0.89925700  0.89663200  1
  N  N20  1  0.68232500  0.39837200  0.60128200  1
  N  N21  1  0.18232500  0.10162800  0.10128200  1
  N  N22  1  0.31767500  0.60162800  0.39871800  1
  N  N23  1  0.81767500  0.89837200  0.89871800  1
loop_
_geom_bond_atom_site_label_1
_geom_bond_atom_site_label_2
_geom_bond_distance
_geom_bond_site_symmetry_2
K0 N3 2.839129 1_555
K0 N15 2.877838 1_655
K0 N16 2.955887 1_655
K0 N20 2.989486 1_555
K0 N4 2.998450 1_555
K0 N8 3.038458 1_655
K1 N2 2.839129 1_545
K1 N14 2.877838 1_555
K1 N17 2.955887 1_555
K1 N21 2.989486 1_555
K1 N5 2.998450 1_545
K1 N9 3.038458 1_545
K2 N1 2.839129 1_555
K2 N13 2.877838 1_455
K2 N18 2.955887 1_455
K2 N22 2.989486 1_555
K2 N6 2.998450 1_555
K2 N10 3.038458 1_455
K3 N0 2.839129 1_565
K3 N12 2.877838 1_555
K3 N19 2.955887 1_555
K3 N23 2.989486 1_555
K3 N7 2.998450 1_565
K3 N11 3.038458 1_565
K4 N13 2.943749 1_555
K4 N23 2.947717 1_554
K4 N19 2.954991 1_554
K4 N2 2.971362 1_555
K4 N8 3.227796 1_554
K4 N4 3.258090 1_554
K5 N12 2.943749 1_555
K5 N22 2.947717 1_555
K5 N18 2.954991 1_455
K5 N3 2.971362 1_455
K5 N9 3.227796 1_455
K5 N5 3.258090 1_555
K6 N15 2.943749 1_555
K6 N21 2.947717 1_556
K6 N17 2.954991 1_556
K6 N0 2.971362 1_555
K6 N10 3.227796 1_556
K6 N6 3.258090 1_556
K7 N14 2.943749 1_555
K7 N20 2.947717 1_555
K7 N16 2.954991 1_655
K7 N1 2.971362 1_655
K7 N11 3.227796 1_655
K7 N7 3.258090 1_555
K8 N15 2.945561 1_655
K8 N6 2.947610 1_656
K8 N10 2.956553 1_556
K8 N0 3.012900 1_555
K8 N21 3.203291 1_656
K8 N17 3.243428 1_556
K8 N4 3.385482 1_555
K9 N14 2.945561 1_555
K9 N7 2.947610 1_555
K9 N11 2.956553 1_555
K9 N1 3.012900 1_555
K9 N20 3.203291 1_555
K9 N16 3.243428 1_555
K9 N5 3.385482 1_545
K10 N13 2.945561 1_455
K10 N4 2.947610 1_454
K10 N8 2.956553 1_554
K10 N2 3.012900 1_555
K10 N23 3.203291 1_454
K10 N19 3.243428 1_554
K10 N6 3.385482 1_555
K11 N12 2.945561 1_555
K11 N5 2.947610 1_555
K11 N9 2.956553 1_555
K11 N3 3.012900 1_555
K11 N22 3.203291 1_555
K11 N18 3.243428 1_555
K11 N7 3.385482 1_565
C0 N0 1.177546 1_555
C0 Fe0 1.912887 1_555
C1 N1 1.177546 1_555
C1 Fe1 1.912887 1_455
C2 N2 1.177546 1_555
C2 Fe2 1.912887 1_555
C3 N3 1.177546 1_555
C3 Fe3 1.912887 1_655
C4 N4 1.178635 1_555
C4 Fe0 1.909815 1_555
C5 N5 1.178635 1_555
C5 Fe1 1.909815 1_465
C6 N6 1.178635 1_555
C6 Fe2 1.909815 1_555
C7 N7 1.178635 1_555
C7 Fe3 1.909815 1_645
C8 N8 1.178729 1_555
C8 Fe0 1.914240 1_555
C9 N9 1.178729 1_555
C9 Fe1 1.914240 1_565
C10 N10 1.178729 1_555
C10 Fe2 1.914240 1_555
C11 N11 1.178729 1_555
C11 Fe3 1.914240 1_545
C12 N12 1.177423 1_555
C12 Fe0 1.912869 1_555
C13 N13 1.177423 1_555
C13 Fe1 1.912869 1_565
C14 N14 1.177423 1_555
C14 Fe2 1.912869 1_555
C15 N15 1.177423 1_555
C15 Fe3 1.912869 1_545
C16 N16 1.177854 1_555
C16 Fe0 1.910538 1_555
C17 N17 1.177854 1_555
C17 Fe1 1.910538 1_555
C18 N18 1.177854 1_555
C18 Fe2 1.910538 1_555
C19 N19 1.177854 1_555
C19 Fe3 1.910538 1_555
C20 N20 1.177853 1_555
C20 Fe0 1.917192 1_555
C21 N21 1.177853 1_555
C21 Fe1 1.917192 1_455
C22 N22 1.177853 1_555
C22 Fe2 1.917192 1_555
C23 N23 1.177853 1_555
C23 Fe3 1.917192 1_655
