# generated using pymatgen
data_Li4MnCo2O7
_symmetry_space_group_name_H-M   'P 1'
_cell_length_a   2.98189300
_cell_length_b   7.79588402
_cell_length_c   11.19753956
_cell_angle_alpha   79.89137218
_cell_angle_beta   82.81326920
_cell_angle_gamma   81.51667525
_symmetry_Int_Tables_number   1
_chemical_formula_structural   Li4MnCo2O7
_chemical_formula_sum   'Li8 Mn2 Co4 O14'
_cell_volume   252.13985445
_cell_formula_units_Z   2
loop_
 _symmetry_equiv_pos_site_id
 _symmetry_equiv_pos_as_xyz
  1  'x, y, z'
loop_
 _atom_site_type_symbol
 _atom_site_label
 _atom_site_symmetry_multiplicity
 _atom_site_fract_x
 _atom_site_fract_y
 _atom_site_fract_z
 _atom_site_occupancy
  Li  Li0  1  0.77627600  0.35731700  0.08136300  1
  Li  Li1  1  0.95117100  0.78109800  0.35129600  1
  Li  Li2  1  0.07452800  0.21338700  0.64537900  1
  Li  Li3  1  0.21973300  0.64136000  0.93121800  1
  Li  Li4  1  0.34162700  0.08342500  0.21507800  1
  Li  Li5  1  0.49192700  0.50337900  0.49432700  1
  Li  Li6  1  0.64433000  0.92867000  0.78305600  1
  Li  Li7  1  0.16365300  0.41971200  0.28084400  1
  Mn  Mn0  1  0.99228100  0.99712500  0.00231800  1
  Mn  Mn1  1  0.70169800  0.15065700  0.42573300  1
  Co  Co0  1  0.27949100  0.85968200  0.57272700  1
  Co  Co1  1  0.42030400  0.28783800  0.85674100  1
  Co  Co2  1  0.58741500  0.70093900  0.14955900  1
  Co  Co3  1  0.86443300  0.57279400  0.71216500  1
  O  O0  1  0.34980100  0.18119800  0.02821800  1
  O  O1  1  0.53804800  0.62218800  0.30651900  1
  O  O2  1  0.64845400  0.02857400  0.59875000  1
  O  O3  1  0.83139200  0.46361600  0.88126100  1
  O  O4  1  0.94475000  0.88528700  0.17141400  1
  O  O5  1  0.12630700  0.30018200  0.46077700  1
  O  O6  1  0.27588600  0.74646000  0.73856700  1
  O  O7  1  0.21245400  0.54953400  0.11008600  1
  O  O8  1  0.27795100  0.98220400  0.40618400  1
  O  O9  1  0.45802000  0.39518700  0.68481800  1
  O  O10  1  0.63281700  0.81660700  0.97843100  1
  O  O11  1  0.75152400  0.23797400  0.26243500  1
  O  O12  1  0.93010800  0.68456900  0.54014400  1
  O  O13  1  0.01362100  0.10903900  0.83059500  1
loop_
_geom_bond_atom_site_label_1
_geom_bond_atom_site_label_2
_geom_bond_distance
_geom_bond_site_symmetry_2
Li0 O11 2.074294 1_555
Li0 O7 2.113324 1_555
Li0 O0 2.122123 1_655
Li0 O0 2.201779 1_555
Li0 O7 2.211220 1_655
Li0 O3 2.242879 1_554
Li1 O1 2.031387 1_555
Li1 O4 2.036667 1_555
Li1 O1 2.051218 1_655
Li1 O12 2.112825 1_555
Li1 O8 2.173493 1_655
Li1 O8 2.442667 1_555
Li2 O5 2.052932 1_555
Li2 O9 2.082224 1_555
Li2 O13 2.086427 1_555
Li2 O2 2.142500 1_555
Li2 O9 2.197990 1_455
Li2 O2 2.220989 1_455
Li3 O7 2.003714 1_556
Li3 O3 2.116968 1_455
Li3 O10 2.127326 1_455
Li3 O10 2.139219 1_555
Li3 O6 2.163933 1_555
Li3 O3 2.197901 1_555
Li4 O11 2.011898 1_555
Li4 O11 2.048029 1_455
Li4 O0 2.095825 1_555
Li4 O8 2.141909 1_545
Li4 O4 2.230426 1_445
Li4 O4 2.254976 1_545
Li5 O12 2.099093 1_455
Li5 O1 2.140287 1_555
Li5 O9 2.147350 1_555
Li5 O5 2.158718 1_555
Li5 O12 2.220888 1_555
Li5 O5 2.318585 1_655
Li6 O2 2.073199 1_565
Li6 O6 2.078175 1_555
Li6 O13 2.083137 1_665
Li6 O10 2.206733 1_555
Li6 O13 2.242688 1_565
Li6 O6 2.244308 1_655
Li7 O7 1.999005 1_555
Li7 O11 2.059056 1_455
Li7 O5 2.062911 1_555
Li7 O11 2.098111 1_555
Li7 O1 2.140129 1_555
Li7 O1 2.282676 1_455
Mn0 O4 1.937848 1_555
Mn0 O10 1.962114 1_554
Mn0 O13 1.964576 1_664
Mn0 O0 1.988650 1_665
Mn0 O10 2.216171 1_654
Mn0 O0 2.238218 1_565
Mn1 O11 1.831372 1_555
Mn1 O5 1.958632 1_655
Mn1 O5 1.964338 1_555
Mn1 O2 2.001193 1_555
Mn1 O8 2.007193 1_545
Mn1 O8 2.016474 1_645
Co0 O6 1.910521 1_555
Co0 O2 1.916054 1_565
Co0 O8 1.940537 1_555
Co0 O12 1.942098 1_455
Co0 O2 2.150756 1_465
Co0 O12 2.230911 1_555
Co1 O0 1.952543 1_556
Co1 O9 1.956308 1_555
Co1 O3 2.041510 1_555
Co1 O13 2.056716 1_555
Co1 O3 2.082896 1_455
Co1 O13 2.108271 1_655
Co2 O1 1.752364 1_555
Co2 O7 1.880121 1_555
Co2 O10 1.966694 1_554
Co2 O4 1.975141 1_555
Co2 O7 2.095293 1_655
Co2 O4 2.234116 1_455
Co3 O3 1.931755 1_555
Co3 O12 1.968433 1_555
Co3 O6 2.036430 1_655
Co3 O9 2.053366 1_555
Co3 O6 2.076057 1_555
Co3 O9 2.105702 1_655
