# generated using pymatgen
data_BaZn(WO2)4
_symmetry_space_group_name_H-M   'P 1'
_cell_length_a   5.76166503
_cell_length_b   5.76166503
_cell_length_c   7.31953800
_cell_angle_alpha   90.00000000
_cell_angle_beta   90.00000000
_cell_angle_gamma   119.99998882
_symmetry_Int_Tables_number   1
_chemical_formula_structural   BaZn(WO2)4
_chemical_formula_sum   'Ba1 Zn1 W4 O8'
_cell_volume   210.43131129
_cell_formula_units_Z   1
loop_
 _symmetry_equiv_pos_site_id
 _symmetry_equiv_pos_as_xyz
  1  'x, y, z'
loop_
 _atom_site_type_symbol
 _atom_site_label
 _atom_site_symmetry_multiplicity
 _atom_site_fract_x
 _atom_site_fract_y
 _atom_site_fract_z
 _atom_site_occupancy
  Ba  Ba0  1  0.00000000  0.00000000  0.00000000  1
  Zn  Zn0  1  0.00000000  0.00000000  0.50000000  1
  W  W0  1  0.33333300  0.66666700  0.71725100  1
  W  W1  1  0.66666700  0.33333300  0.71725100  1
  W  W2  1  0.33333300  0.66666700  0.28274900  1
  W  W3  1  0.66666700  0.33333300  0.28274900  1
  O  O0  1  0.29153100  0.29153100  0.68585500  1
  O  O1  1  0.70846900  0.00000000  0.68585500  1
  O  O2  1  0.00000000  0.70846900  0.68585500  1
  O  O3  1  0.70846900  0.70846900  0.31414500  1
  O  O4  1  0.00000000  0.29153100  0.31414500  1
  O  O5  1  0.29153100  0.00000000  0.31414500  1
  O  O6  1  0.33333300  0.66666700  0.00000000  1
  O  O7  1  0.66666700  0.33333300  0.00000000  1
loop_
_geom_bond_atom_site_label_1
_geom_bond_atom_site_label_2
_geom_bond_distance
_geom_bond_site_symmetry_2
Ba0 O1 2.847565 1_454
Ba0 O2 2.847565 1_544
Ba0 O4 2.847565 1_555
Ba0 O5 2.847565 1_555
Ba0 O0 2.847566 1_554
Ba0 O3 2.847566 1_445
Ba0 O6 3.326495 1_545
Ba0 O7 3.326495 1_455
Ba0 O6 3.326501 1_555
Ba0 O6 3.326501 1_445
Ba0 O7 3.326501 1_555
Ba0 O7 3.326501 1_445
O0 W1 2.064444 1_555
O0 W0 2.064444 1_555
O0 Zn0 2.161486 1_555
O1 W1 2.064438 1_555
O1 W0 2.064442 1_545
O1 Zn0 2.161485 1_655
O2 W0 2.064438 1_555
O2 W1 2.064442 1_455
O2 Zn0 2.161485 1_565
O3 W2 2.064444 1_555
O3 W3 2.064444 1_555
O3 Zn0 2.161486 1_665
O4 W3 2.064438 1_455
O4 W2 2.064442 1_555
O4 Zn0 2.161485 1_555
O5 W2 2.064438 1_545
O5 W3 2.064442 1_555
O5 Zn0 2.161485 1_555
O6 W2 2.069592 1_555
O6 W0 2.069592 1_554
O7 W3 2.069592 1_555
O7 W1 2.069592 1_554
