# generated using pymatgen
data_BaZn(MoO2)4
_symmetry_space_group_name_H-M   'P 1'
_cell_length_a   5.74874953
_cell_length_b   5.74874953
_cell_length_c   7.30438100
_cell_angle_alpha   90.00000000
_cell_angle_beta   90.00000000
_cell_angle_gamma   119.99999462
_symmetry_Int_Tables_number   1
_chemical_formula_structural   BaZn(MoO2)4
_chemical_formula_sum   'Ba1 Zn1 Mo4 O8'
_cell_volume   209.05513901
_cell_formula_units_Z   1
loop_
 _symmetry_equiv_pos_site_id
 _symmetry_equiv_pos_as_xyz
  1  'x, y, z'
loop_
 _atom_site_type_symbol
 _atom_site_label
 _atom_site_symmetry_multiplicity
 _atom_site_fract_x
 _atom_site_fract_y
 _atom_site_fract_z
 _atom_site_occupancy
  Ba  Ba0  1  0.00000000  0.00000000  0.00000000  1
  Zn  Zn0  1  0.00000000  0.00000000  0.50000000  1
  Mo  Mo0  1  0.33333300  0.66666700  0.71827200  1
  Mo  Mo1  1  0.66666700  0.33333300  0.71827200  1
  Mo  Mo2  1  0.33333300  0.66666700  0.28172800  1
  Mo  Mo3  1  0.66666700  0.33333300  0.28172800  1
  O  O0  1  0.29339900  0.29339900  0.68185500  1
  O  O1  1  0.70660100  0.00000000  0.68185500  1
  O  O2  1  0.00000000  0.70660100  0.68185500  1
  O  O3  1  0.70660100  0.70660100  0.31814500  1
  O  O4  1  0.00000000  0.29339900  0.31814500  1
  O  O5  1  0.29339900  0.00000000  0.31814500  1
  O  O6  1  0.33333300  0.66666700  0.00000000  1
  O  O7  1  0.66666700  0.33333300  0.00000000  1
loop_
_geom_bond_atom_site_label_1
_geom_bond_atom_site_label_2
_geom_bond_distance
_geom_bond_site_symmetry_2
Ba0 O2 2.871440 1_544
Ba0 O4 2.871440 1_555
Ba0 O5 2.871440 1_555
Ba0 O1 2.871440 1_454
Ba0 O3 2.871440 1_445
Ba0 O0 2.871440 1_554
Ba0 O6 3.319039 1_545
Ba0 O7 3.319039 1_455
Ba0 O6 3.319044 1_445
Ba0 O7 3.319044 1_555
Ba0 O7 3.319044 1_445
Ba0 O6 3.319044 1_555
Mo0 O6 2.057849 1_556
Mo0 O2 2.058004 1_555
Mo0 O1 2.058008 1_565
Mo0 O0 2.058010 1_555
Mo1 O7 2.057849 1_556
Mo1 O1 2.058004 1_555
Mo1 O2 2.058008 1_655
Mo1 O0 2.058010 1_555
Mo2 O6 2.057849 1_555
Mo2 O5 2.058004 1_565
Mo2 O4 2.058008 1_555
Mo2 O3 2.058010 1_555
Mo3 O7 2.057849 1_555
Mo3 O4 2.058004 1_655
Mo3 O5 2.058008 1_555
Mo3 O3 2.058010 1_555
O0 Zn0 2.146943 1_555
O1 Zn0 2.146943 1_655
O2 Zn0 2.146943 1_565
O3 Zn0 2.146943 1_665
O4 Zn0 2.146943 1_555
O5 Zn0 2.146943 1_555
