# generated using pymatgen
data_RbUSeO8
_symmetry_space_group_name_H-M   'P 1'
_cell_length_a   8.33353500
_cell_length_b   8.71729200
_cell_length_c   11.94390647
_cell_angle_alpha   70.64187895
_cell_angle_beta   90.00000000
_cell_angle_gamma   90.00000000
_symmetry_Int_Tables_number   1
_chemical_formula_structural   RbUSeO8
_chemical_formula_sum   'Rb4 U4 Se4 O32'
_cell_volume   818.62147407
_cell_formula_units_Z   4
loop_
 _symmetry_equiv_pos_site_id
 _symmetry_equiv_pos_as_xyz
  1  'x, y, z'
loop_
 _atom_site_type_symbol
 _atom_site_label
 _atom_site_symmetry_multiplicity
 _atom_site_fract_x
 _atom_site_fract_y
 _atom_site_fract_z
 _atom_site_occupancy
  Rb  Rb0  1  0.95839900  0.06317000  0.20191000  1
  Rb  Rb1  1  0.45839900  0.93683000  0.29809000  1
  Rb  Rb2  1  0.04160100  0.93683000  0.79809000  1
  Rb  Rb3  1  0.54160100  0.06317000  0.70191000  1
  U  U0  1  0.09068400  0.56984600  0.20650400  1
  U  U1  1  0.59068400  0.43015400  0.29349600  1
  U  U2  1  0.90931600  0.43015400  0.79349600  1
  U  U3  1  0.40931600  0.56984600  0.70650400  1
  Se  Se0  1  0.23209600  0.20058000  0.46082500  1
  Se  Se1  1  0.73209600  0.79942000  0.03917500  1
  Se  Se2  1  0.76790400  0.79942000  0.53917500  1
  Se  Se3  1  0.26790400  0.20058000  0.96082500  1
  O  O0  1  0.02150600  0.41480500  0.14623600  1
  O  O1  1  0.52150600  0.58519500  0.35376400  1
  O  O2  1  0.97849400  0.58519500  0.85376400  1
  O  O3  1  0.47849400  0.41480500  0.64623600  1
  O  O4  1  0.17219900  0.74012700  0.24806900  1
  O  O5  1  0.67219900  0.25987300  0.25193100  1
  O  O6  1  0.82780100  0.25987300  0.75193100  1
  O  O7  1  0.32780100  0.74012700  0.74806900  1
  O  O8  1  0.84888600  0.53331400  0.29607000  1
  O  O9  1  0.34888600  0.46668600  0.20393000  1
  O  O10  1  0.15111400  0.46668600  0.70393000  1
  O  O11  1  0.65111400  0.53331400  0.79607000  1
  O  O12  1  0.93291800  0.77263800  0.07086700  1
  O  O13  1  0.43291800  0.22736200  0.42913300  1
  O  O14  1  0.06708200  0.22736200  0.92913300  1
  O  O15  1  0.56708200  0.77263800  0.57086700  1
  O  O16  1  0.14512500  0.38468600  0.39163900  1
  O  O17  1  0.64512500  0.61531400  0.10836100  1
  O  O18  1  0.85487500  0.61531400  0.60836100  1
  O  O19  1  0.35487500  0.38468600  0.89163900  1
  O  O20  1  0.27470900  0.67800800  0.05965800  1
  O  O21  1  0.77470900  0.32199200  0.44034200  1
  O  O22  1  0.72529100  0.32199200  0.94034200  1
  O  O23  1  0.22529100  0.67800800  0.55965800  1
  O  O24  1  0.21024100  0.15471600  0.60497600  1
  O  O25  1  0.71024100  0.84528400  0.89502400  1
  O  O26  1  0.78975900  0.84528400  0.39502400  1
  O  O27  1  0.28975900  0.15471600  0.10497600  1
  O  O28  1  0.16716300  0.06322500  0.40434100  1
  O  O29  1  0.66716300  0.93677500  0.09565900  1
  O  O30  1  0.83283700  0.93677500  0.59565900  1
  O  O31  1  0.33283700  0.06322500  0.90434100  1
loop_
_geom_bond_atom_site_label_1
_geom_bond_atom_site_label_2
_geom_bond_distance
_geom_bond_site_symmetry_2
O0 U0 1.822672 1_555
O0 Rb0 2.960331 1_455
O1 U1 1.822672 1_555
O1 Rb1 2.960331 1_555
O2 U2 1.822672 1_555
O2 Rb2 2.960331 1_655
O3 U3 1.822672 1_555
O3 Rb3 2.960331 1_555
O4 U0 1.843874 1_555
O4 Rb1 3.108834 1_555
O4 Rb0 3.221706 1_465
O5 U1 1.843874 1_555
O5 Rb0 3.108834 1_555
O5 Rb1 3.221706 1_545
O6 U2 1.843874 1_555
O6 Rb3 3.108834 1_555
O6 Rb2 3.221706 1_645
O7 U3 1.843874 1_555
O7 Rb2 3.108834 1_555
O7 Rb3 3.221706 1_565
O8 U0 2.253957 1_655
O8 U1 2.336223 1_555
O9 U1 2.253957 1_555
O9 U0 2.336223 1_555
O10 U2 2.253957 1_455
O10 U3 2.336223 1_555
O11 U3 2.253957 1_555
O11 U2 2.336223 1_555
O12 Se1 1.714642 1_555
O12 U0 2.362115 1_655
O12 Rb2 3.223696 1_654
O12 Rb0 3.396628 1_565
O13 Se0 1.714642 1_555
O13 U1 2.362115 1_555
O13 Rb3 3.223696 1_555
O13 Rb1 3.396628 1_545
O14 Se3 1.714642 1_555
O14 U2 2.362115 1_455
O14 Rb0 3.223696 1_456
O14 Rb2 3.396628 1_545
O15 Se2 1.714642 1_555
O15 U3 2.362115 1_555
O15 Rb1 3.223696 1_555
O15 Rb3 3.396628 1_565
O16 Se0 1.704310 1_555
O16 U0 2.309665 1_555
O17 Se1 1.704310 1_555
O17 U1 2.309665 1_555
O18 Se2 1.704310 1_555
O18 U2 2.309665 1_555
O19 Se3 1.704310 1_555
O19 U3 2.309665 1_555
O20 U0 2.284901 1_555
O21 U1 2.284901 1_555
O22 U2 2.284901 1_555
O23 U3 2.284901 1_555
O24 Se0 1.643476 1_555
O24 Rb2 2.828154 1_545
O24 Rb3 2.998350 1_555
O25 Se1 1.643476 1_556
O25 Rb3 2.828154 1_565
O25 Rb2 2.998350 1_655
O26 Se2 1.643476 1_555
O26 Rb0 2.828154 1_565
O26 Rb1 2.998350 1_555
O27 Se3 1.643476 1_554
O27 Rb1 2.828154 1_545
O27 Rb0 2.998350 1_455
O28 Se0 1.648378 1_555
O28 Rb0 2.978810 1_455
O28 Rb1 3.105146 1_545
O29 Se1 1.648378 1_555
O29 Rb1 2.978810 1_555
O29 Rb0 3.105146 1_565
O30 Se2 1.648378 1_555
O30 Rb2 2.978810 1_655
O30 Rb3 3.105146 1_565
O31 Se3 1.648378 1_555
O31 Rb3 2.978810 1_555
O31 Rb2 3.105146 1_545
