# generated using pymatgen
data_PRuSe
_symmetry_space_group_name_H-M   'P 1'
_cell_length_a   5.98080600
_cell_length_b   5.96711900
_cell_length_c   6.05615758
_cell_angle_alpha   67.91671867
_cell_angle_beta   90.00000000
_cell_angle_gamma   90.00000000
_symmetry_Int_Tables_number   1
_chemical_formula_structural   PRuSe
_chemical_formula_sum   'P4 Ru4 Se4'
_cell_volume   200.27736159
_cell_formula_units_Z   4
loop_
 _symmetry_equiv_pos_site_id
 _symmetry_equiv_pos_as_xyz
  1  'x, y, z'
loop_
 _atom_site_type_symbol
 _atom_site_label
 _atom_site_symmetry_multiplicity
 _atom_site_fract_x
 _atom_site_fract_y
 _atom_site_fract_z
 _atom_site_occupancy
  P  P0  1  0.12871200  0.85613300  0.88126500  1
  P  P1  1  0.62871200  0.14386700  0.61873500  1
  P  P2  1  0.87128800  0.14386700  0.11873500  1
  P  P3  1  0.37128800  0.85613300  0.38126500  1
  Ru  Ru0  1  0.48908400  0.73595900  0.79028900  1
  Ru  Ru1  1  0.98908400  0.26404100  0.70971100  1
  Ru  Ru2  1  0.51091600  0.26404100  0.20971100  1
  Ru  Ru3  1  0.01091600  0.73595900  0.29028900  1
  Se  Se0  1  0.87543100  0.66609300  0.69262600  1
  Se  Se1  1  0.37543100  0.33390700  0.80737400  1
  Se  Se2  1  0.12456900  0.33390700  0.30737400  1
  Se  Se3  1  0.62456900  0.66609300  0.19262600  1
loop_
_geom_bond_atom_site_label_1
_geom_bond_atom_site_label_2
_geom_bond_distance
_geom_bond_site_symmetry_2
P0 Ru0 2.400050 1_555
P0 Ru1 2.408291 1_465
P0 Ru3 2.410607 1_556
P0 Se0 2.420717 1_455
P1 Ru1 2.400050 1_555
P1 Ru0 2.408291 1_545
P1 Ru2 2.410607 1_555
P1 Se1 2.420717 1_555
P2 Ru2 2.400050 1_555
P2 Ru3 2.408291 1_645
P2 Ru1 2.410607 1_554
P2 Se2 2.420717 1_655
P3 Ru3 2.400050 1_555
P3 Ru2 2.408291 1_565
P3 Ru0 2.410607 1_555
P3 Se3 2.420717 1_555
Ru0 Se3 2.450245 1_556
Ru0 Se1 2.457996 1_555
Ru0 Se0 2.459312 1_555
Ru1 Se2 2.450245 1_655
Ru1 Se0 2.457996 1_555
Ru1 Se1 2.459312 1_655
Ru2 Se1 2.450245 1_554
Ru2 Se3 2.457996 1_555
Ru2 Se2 2.459312 1_555
Ru3 Se0 2.450245 1_455
Ru3 Se2 2.457996 1_555
Ru3 Se3 2.459312 1_455
