# generated using pymatgen
data_Ca2As
_symmetry_space_group_name_H-M   'P 1'
_cell_length_a   4.56231270
_cell_length_b   4.56231252
_cell_length_c   8.53744470
_cell_angle_alpha   105.50404597
_cell_angle_beta   105.50405067
_cell_angle_gamma   90.01324675
_symmetry_Int_Tables_number   1
_chemical_formula_structural   Ca2As
_chemical_formula_sum   'Ca4 As2'
_cell_volume   164.51441450
_cell_formula_units_Z   2
loop_
 _symmetry_equiv_pos_site_id
 _symmetry_equiv_pos_as_xyz
  1  'x, y, z'
loop_
 _atom_site_type_symbol
 _atom_site_label
 _atom_site_symmetry_multiplicity
 _atom_site_fract_x
 _atom_site_fract_y
 _atom_site_fract_z
 _atom_site_occupancy
  Ca  Ca0  1  0.50000000  0.00000000  -0.00000000  1
  Ca  Ca1  1  0.00000000  0.50000000  -0.00000000  1
  Ca  Ca2  1  0.32081307  0.32081307  0.64163632  1
  Ca  Ca3  1  0.67918693  0.67918693  0.35836368  1
  As  As0  1  0.13431404  0.13431404  0.26857900  1
  As  As1  1  0.86568596  0.86568596  0.73142100  1
loop_
_geom_bond_atom_site_label_1
_geom_bond_atom_site_label_2
_geom_bond_distance
_geom_bond_site_symmetry_2
As0 Ca2 2.948557 1_555
As0 Ca0 3.115859 1_455
As0 Ca1 3.115859 1_545
As0 Ca1 3.116279 1_555
As0 Ca0 3.116280 1_555
As0 Ca3 3.302499 1_555
As0 Ca3 3.303113 1_445
As0 Ca3 3.303534 1_545
As0 Ca3 3.303534 1_455
As1 Ca3 2.948557 1_555
As1 Ca0 3.115859 1_666
As1 Ca1 3.115859 1_666
As1 Ca1 3.116279 1_656
As1 Ca0 3.116280 1_566
As1 Ca2 3.302499 1_555
As1 Ca2 3.303113 1_665
As1 Ca2 3.303534 1_565
As1 Ca2 3.303534 1_655
