# generated using pymatgen
data_Cs2ZrMn(MoO4)4
_symmetry_space_group_name_H-M   'P 1'
_cell_length_a   5.95707936
_cell_length_b   10.25989865
_cell_length_c   17.82816399
_cell_angle_alpha   90.55673582
_cell_angle_beta   80.36656786
_cell_angle_gamma   73.11468375
_symmetry_Int_Tables_number   1
_chemical_formula_structural   Cs2ZrMn(MoO4)4
_chemical_formula_sum   'Cs4 Zr2 Mn2 Mo8 O32'
_cell_volume   1025.99421310
_cell_formula_units_Z   2
loop_
 _symmetry_equiv_pos_site_id
 _symmetry_equiv_pos_as_xyz
  1  'x, y, z'
loop_
 _atom_site_type_symbol
 _atom_site_label
 _atom_site_symmetry_multiplicity
 _atom_site_fract_x
 _atom_site_fract_y
 _atom_site_fract_z
 _atom_site_occupancy
  Cs  Cs0  1  0.75722200  0.35888000  0.12678600  1
  Cs  Cs1  1  0.75721200  0.85884800  0.62678700  1
  Cs  Cs2  1  0.24281500  0.14114700  0.37322200  1
  Cs  Cs3  1  0.24286500  0.64114500  0.87320900  1
  Zr  Zr0  1  0.49997100  0.75003300  0.25000500  1
  Zr  Zr1  1  0.50000800  0.24998200  0.74998700  1
  Mn  Mn0  1  0.99947400  0.49982100  0.50011000  1
  Mn  Mn1  1  0.00041800  0.00013500  0.00005900  1
  Mo  Mo0  1  0.88871900  0.83350500  0.38872700  1
  Mo  Mo1  1  0.88868300  0.33348800  0.88868300  1
  Mo  Mo2  1  0.11126200  0.66656100  0.11132500  1
  Mo  Mo3  1  0.11132200  0.16645700  0.61130500  1
  Mo  Mo4  1  0.39079800  0.08076800  0.13775000  1
  Mo  Mo5  1  0.39042400  0.58077200  0.63775600  1
  Mo  Mo6  1  0.60917900  0.41925700  0.36224300  1
  Mo  Mo7  1  0.60960400  0.91921500  0.86222000  1
  O  O0  1  0.78409500  0.99108500  0.44063800  1
  O  O1  1  0.78415700  0.49108100  0.94059600  1
  O  O2  1  0.21586900  0.50894500  0.05940800  1
  O  O3  1  0.21588900  0.00884800  0.55939600  1
  O  O4  1  0.28526200  0.23811700  0.19140700  1
  O  O5  1  0.28484700  0.73810900  0.69143400  1
  O  O6  1  0.71468000  0.26191200  0.30854500  1
  O  O7  1  0.71514400  0.76187100  0.80852000  1
  O  O8  1  0.92024400  0.70423500  0.45472100  1
  O  O9  1  0.92031400  0.20423700  0.95469500  1
  O  O10  1  0.07967400  0.79578500  0.04529800  1
  O  O11  1  0.07968100  0.29568200  0.54526800  1
  O  O12  1  0.42666900  0.94166200  0.20492200  1
  O  O13  1  0.42653400  0.44162200  0.70491000  1
  O  O14  1  0.57329100  0.55841600  0.29508600  1
  O  O15  1  0.57353100  0.05838000  0.79506100  1
  O  O16  1  0.67116900  0.82223400  0.32905500  1
  O  O17  1  0.67117900  0.32223000  0.82901900  1
  O  O18  1  0.17720900  0.82207200  0.32897400  1
  O  O19  1  0.17722300  0.32201100  0.82894300  1
  O  O20  1  0.32874200  0.67788100  0.17098200  1
  O  O21  1  0.32883800  0.17775800  0.67095000  1
  O  O22  1  0.82273200  0.67800600  0.17104400  1
  O  O23  1  0.82280600  0.17794100  0.67102800  1
  O  O24  1  0.17511600  0.07414000  0.08025000  1
  O  O25  1  0.17480200  0.57404100  0.58026600  1
  O  O26  1  0.67082000  0.07401000  0.08028800  1
  O  O27  1  0.67043200  0.57405600  0.58028000  1
  O  O28  1  0.82495000  0.42581000  0.41973800  1
  O  O29  1  0.82530700  0.92586200  0.91971300  1
  O  O30  1  0.32919000  0.42601600  0.41969700  1
  O  O31  1  0.32962800  0.92593300  0.91969300  1
loop_
_geom_bond_atom_site_label_1
_geom_bond_atom_site_label_2
_geom_bond_distance
_geom_bond_site_symmetry_2
Cs0 O24 3.233736 1_655
Cs0 O26 3.234830 1_555
Cs0 O9 3.299486 1_554
Cs0 O6 3.389493 1_555
Cs0 O4 3.425441 1_655
Cs0 O4 3.425531 1_555
Cs0 O14 3.445544 1_555
Cs0 O20 3.503111 1_555
Cs0 O22 3.505764 1_555
Cs0 O2 3.558028 1_655
Cs0 O2 3.558293 1_555
Cs0 O1 3.594403 1_554
Cs1 O25 3.233330 1_655
Cs1 O27 3.235162 1_555
Cs1 O8 3.298977 1_555
Cs1 O7 3.389085 1_555
Cs1 O5 3.423548 1_655
Cs1 O5 3.427574 1_555
Cs1 O15 3.445148 1_565
Cs1 O21 3.502118 1_565
Cs1 O23 3.505577 1_565
Cs1 O3 3.557787 1_665
Cs1 O3 3.558143 1_565
Cs1 O0 3.593878 1_555
Cs2 O28 3.233079 1_455
Cs2 O30 3.234633 1_555
Cs2 O11 3.298356 1_555
Cs2 O4 3.390445 1_555
Cs2 O6 3.425254 1_555
Cs2 O6 3.426428 1_455
Cs2 O12 3.445286 1_545
Cs2 O16 3.502097 1_545
Cs2 O18 3.505458 1_545
Cs2 O0 3.558258 1_545
Cs2 O0 3.558516 1_445
Cs2 O3 3.594542 1_555
Cs3 O29 3.232579 1_455
Cs3 O31 3.234964 1_555
Cs3 O10 3.299443 1_556
Cs3 O5 3.389751 1_555
Cs3 O7 3.424350 1_455
Cs3 O7 3.427200 1_555
Cs3 O13 3.445464 1_555
Cs3 O17 3.502051 1_555
Cs3 O19 3.506207 1_555
Cs3 O1 3.558066 1_555
Cs3 O1 3.558359 1_455
Cs3 O2 3.594546 1_556
Mn0 O27 2.153832 1_555
Mn0 O28 2.155619 1_555
Mn0 O25 2.157145 1_655
Mn0 O30 2.158471 1_655
Mn0 O11 2.200757 1_655
Mn0 O8 2.204967 1_555
Mn1 O24 2.153917 1_555
Mn1 O31 2.156277 1_544
Mn1 O26 2.156372 1_455
Mn1 O29 2.159017 1_444
Mn1 O9 2.201931 1_454
Mn1 O10 2.203280 1_545
Mo0 O0 1.746816 1_555
Mo0 O8 1.771494 1_555
Mo0 O18 1.835693 1_655
Mo0 O16 1.835961 1_555
Mo1 O1 1.746942 1_555
Mo1 O9 1.771574 1_555
Mo1 O17 1.835602 1_555
Mo1 O19 1.835743 1_655
Mo2 O2 1.747167 1_555
Mo2 O10 1.771558 1_555
Mo2 O20 1.835564 1_555
Mo2 O22 1.835606 1_455
Mo3 O3 1.747043 1_555
Mo3 O11 1.771688 1_555
Mo3 O23 1.835482 1_455
Mo3 O21 1.835540 1_555
Mo4 O4 1.759458 1_555
Mo4 O26 1.787842 1_555
Mo4 O24 1.787880 1_555
Mo4 O12 1.859686 1_545
Mo5 O5 1.759536 1_555
Mo5 O25 1.787717 1_555
Mo5 O27 1.787979 1_555
Mo5 O13 1.859805 1_555
Mo6 O6 1.759772 1_555
Mo6 O30 1.787617 1_555
Mo6 O28 1.788071 1_555
Mo6 O14 1.859909 1_555
Mo7 O7 1.759780 1_555
Mo7 O31 1.787795 1_555
Mo7 O29 1.787944 1_555
Mo7 O15 1.859979 1_565
O12 Zr0 2.086063 1_555
O13 Zr1 2.086117 1_555
O14 Zr0 2.085938 1_555
O15 Zr1 2.085749 1_555
O16 Zr0 2.115327 1_555
O17 Zr1 2.115210 1_555
O18 Zr0 2.115064 1_555
O19 Zr1 2.115033 1_555
O20 Zr0 2.114855 1_555
O21 Zr1 2.115153 1_555
O22 Zr0 2.114977 1_555
O23 Zr1 2.115124 1_555
