# generated using pymatgen
data_Li9Cr12Fe7O48
_symmetry_space_group_name_H-M   'P 1'
_cell_length_a   5.11148000
_cell_length_b   10.39144032
_cell_length_c   17.52161376
_cell_angle_alpha   90.16208406
_cell_angle_beta   90.18493550
_cell_angle_gamma   90.13375813
_symmetry_Int_Tables_number   1
_chemical_formula_structural   Li9Cr12Fe7O48
_chemical_formula_sum   'Li9 Cr12 Fe7 O48'
_cell_volume   930.66058926
_cell_formula_units_Z   1
loop_
 _symmetry_equiv_pos_site_id
 _symmetry_equiv_pos_as_xyz
  1  'x, y, z'
loop_
 _atom_site_type_symbol
 _atom_site_label
 _atom_site_symmetry_multiplicity
 _atom_site_fract_x
 _atom_site_fract_y
 _atom_site_fract_z
 _atom_site_occupancy
  Li  Li0  1  0.09162900  0.75055800  0.74791400  1
  Li  Li1  1  0.24329000  0.57624600  0.03216300  1
  Li  Li2  1  0.24751600  0.41812700  0.52397000  1
  Li  Li3  1  0.24679000  0.08129900  0.52385700  1
  Li  Li4  1  0.26302800  0.74081400  0.20016500  1
  Li  Li5  1  0.74499700  0.24988900  0.80549000  1
  Li  Li6  1  0.75271900  0.08103400  0.97215700  1
  Li  Li7  1  0.76219000  0.74588300  0.30135200  1
  Li  Li8  1  0.91142100  0.25409800  0.25521700  1
  Cr  Cr0  1  0.22652500  0.24871600  0.05634200  1
  Cr  Cr1  1  0.22542100  0.97059600  0.34359300  1
  Cr  Cr2  1  0.22471700  0.53077500  0.34520800  1
  Cr  Cr3  1  0.28174700  0.47092700  0.84561600  1
  Cr  Cr4  1  0.27895400  0.02800900  0.84490300  1
  Cr  Cr5  1  0.28153500  0.75084100  0.55601500  1
  Cr  Cr6  1  0.72097100  0.24934500  0.44248600  1
  Cr  Cr7  1  0.72326700  0.52822000  0.15647000  1
  Cr  Cr8  1  0.71811600  0.97134200  0.15272500  1
  Cr  Cr9  1  0.77142500  0.46903100  0.65542200  1
  Cr  Cr10  1  0.77022400  0.03078200  0.65556300  1
  Cr  Cr11  1  0.77332400  0.75368500  0.94554300  1
  Fe  Fe0  1  0.24936900  0.24876500  0.69744000  1
  Fe  Fe1  1  0.24262900  0.93060400  0.02658500  1
  Fe  Fe2  1  0.41143200  0.25224400  0.25089600  1
  Fe  Fe3  1  0.58939400  0.74979200  0.74965600  1
  Fe  Fe4  1  0.75311300  0.92828600  0.47160400  1
  Fe  Fe5  1  0.75443700  0.57034700  0.47161700  1
  Fe  Fe6  1  0.75728000  0.42734000  0.97570900  1
  O  O0  1  0.05363600  0.76215500  0.00016600  1
  O  O1  1  0.04855500  0.39049800  0.63242200  1
  O  O2  1  0.04807200  0.10933100  0.63174900  1
  O  O3  1  0.10600300  0.37354200  0.79030200  1
  O  O4  1  0.09688700  0.12294600  0.79042700  1
  O  O5  1  0.09935400  0.87774900  0.53439600  1
  O  O6  1  0.10268700  0.62278200  0.53455200  1
  O  O7  1  0.10188100  0.99620700  0.92496900  1
  O  O8  1  0.10057800  0.50152300  0.92241300  1
  O  O9  1  0.16882600  0.25033600  0.14978300  1
  O  O10  1  0.16701800  0.39145100  0.29864100  1
  O  O11  1  0.17004300  0.11023500  0.29715600  1
  O  O12  1  0.34400500  0.88973200  0.79886400  1
  O  O13  1  0.34592900  0.60935400  0.80023800  1
  O  O14  1  0.34872600  0.75040800  0.64983500  1
  O  O15  1  0.40368900  0.50121600  0.42292700  1
  O  O16  1  0.40598600  0.99883900  0.42180100  1
  O  O17  1  0.39507300  0.11360700  0.03311200  1
  O  O18  1  0.41197500  0.37354400  0.03409100  1
  O  O19  1  0.39533700  0.87458200  0.28845400  1
  O  O20  1  0.40086500  0.62582000  0.29164600  1
  O  O21  1  0.43493300  0.89426700  0.12327600  1
  O  O22  1  0.45246600  0.60440200  0.13028000  1
  O  O23  1  0.45558900  0.24917600  0.49692500  1
  O  O24  1  0.55996900  0.75114400  0.50032400  1
  O  O25  1  0.55950000  0.39410400  0.87296700  1
  O  O26  1  0.54979400  0.10450700  0.86920700  1
  O  O27  1  0.58185100  0.37389000  0.70795800  1
  O  O28  1  0.57929800  0.12705100  0.70741800  1
  O  O29  1  0.57688400  0.87700800  0.96817800  1
  O  O30  1  0.60929900  0.62219300  0.96721300  1
  O  O31  1  0.60126900  0.99764800  0.57711400  1
  O  O32  1  0.60526000  0.50188000  0.57625400  1
  O  O33  1  0.65078500  0.24873800  0.34862700  1
  O  O34  1  0.65849800  0.38862100  0.20218700  1
  O  O35  1  0.65679900  0.10864500  0.19798000  1
  O  O36  1  0.82982200  0.89344800  0.70320200  1
  O  O37  1  0.83112400  0.60662400  0.70335900  1
  O  O38  1  0.83120100  0.75307700  0.85200700  1
  O  O39  1  0.90385800  0.49733900  0.07749500  1
  O  O40  1  0.91277500  0.99920000  0.07575400  1
  O  O41  1  0.90145200  0.37878000  0.46409400  1
  O  O42  1  0.90098600  0.11926600  0.46358700  1
  O  O43  1  0.88185000  0.87669800  0.20803400  1
  O  O44  1  0.90157900  0.62414100  0.21012800  1
  O  O45  1  0.94574700  0.89405800  0.36858300  1
  O  O46  1  0.94404000  0.60775800  0.37083100  1
  O  O47  1  0.95078300  0.25288100  0.00339800  1
loop_
_geom_bond_atom_site_label_1
_geom_bond_atom_site_label_2
_geom_bond_distance
_geom_bond_site_symmetry_2
Li0 O12 2.128191 1_555
Li0 O37 2.144055 1_455
Li0 O36 2.149049 1_455
Li0 O13 2.166094 1_555
Li0 O14 2.166750 1_555
Li0 O38 2.261592 1_455
Li1 O22 2.041606 1_555
Li1 O39 2.078314 1_455
Li1 O8 2.193813 1_554
Li1 O0 2.235516 1_555
Li1 O30 2.244057 1_554
Li1 O18 2.278169 1_555
Li2 O41 2.092620 1_455
Li2 O23 2.108380 1_555
Li2 O15 2.128785 1_555
Li2 O1 2.177580 1_555
Li2 O32 2.217592 1_555
Li2 O6 2.260774 1_555
Li3 O42 2.094927 1_455
Li3 O23 2.098616 1_555
Li3 O16 2.144290 1_545
Li3 O2 2.168183 1_555
Li3 O31 2.215948 1_545
Li3 O5 2.252039 1_545
Li4 O22 2.109648 1_555
Li4 O20 2.121569 1_555
Li4 O19 2.181602 1_555
Li4 O44 2.215087 1_455
Li4 O21 2.267838 1_555
Li4 O43 2.412989 1_455
Li5 O26 2.129309 1_555
Li5 O25 2.132256 1_555
Li5 O4 2.248812 1_655
Li5 O3 2.262950 1_655
Li5 O28 2.296234 1_555
Li5 O27 2.298794 1_555
Li6 O26 2.093047 1_555
Li6 O47 2.120355 1_556
Li6 O17 2.147244 1_556
Li6 O7 2.158388 1_645
Li6 O40 2.165585 1_546
Li6 O29 2.301619 1_545
Li7 O46 2.101186 1_555
Li7 O45 2.148180 1_555
Li7 O44 2.159403 1_555
Li7 O43 2.215986 1_555
Li7 O20 2.232167 1_555
Li7 O19 2.316580 1_555
Li8 O10 2.074053 1_655
Li8 O33 2.114466 1_555
Li8 O34 2.120576 1_555
Li8 O11 2.128743 1_655
Li8 O35 2.226659 1_555
Li8 O9 2.271775 1_655
Cr0 O18 1.653072 1_555
Cr0 O9 1.664571 1_555
Cr0 O47 1.685543 1_455
Cr0 O17 1.698156 1_555
Cr1 O19 1.639265 1_555
Cr1 O16 1.674538 1_555
Cr1 O11 1.689619 1_565
Cr1 O45 1.693695 1_455
Cr2 O20 1.635071 1_555
Cr2 O15 1.667711 1_555
Cr2 O10 1.684800 1_555
Cr2 O46 1.705075 1_455
Cr3 O3 1.659809 1_555
Cr3 O8 1.666222 1_555
Cr3 O13 1.677770 1_555
Cr3 O25 1.698719 1_555
Cr4 O26 1.648919 1_555
Cr4 O4 1.659604 1_555
Cr4 O12 1.680288 1_545
Cr4 O7 1.704681 1_545
Cr5 O6 1.654456 1_555
Cr5 O5 1.660136 1_555
Cr5 O14 1.678307 1_555
Cr5 O24 1.728200 1_555
Cr6 O23 1.660807 1_555
Cr6 O41 1.671088 1_555
Cr6 O42 1.678366 1_555
Cr6 O33 1.682096 1_555
Cr7 O44 1.641066 1_555
Cr7 O22 1.660223 1_555
Cr7 O34 1.691640 1_555
Cr7 O39 1.696172 1_555
Cr8 O43 1.615812 1_555
Cr8 O35 1.661315 1_565
Cr8 O40 1.703590 1_555
Cr8 O21 1.729266 1_555
Cr9 O32 1.660882 1_555
Cr9 O27 1.664387 1_555
Cr9 O37 1.682979 1_555
Cr9 O1 1.685882 1_655
Cr10 O31 1.655910 1_545
Cr10 O28 1.668478 1_555
Cr10 O36 1.683236 1_545
Cr10 O2 1.690473 1_655
Cr11 O30 1.647351 1_555
Cr11 O38 1.666325 1_555
Cr11 O29 1.677338 1_555
Cr11 O0 1.722434 1_656
Fe0 O2 2.111598 1_555
Fe0 O28 2.117447 1_555
Fe0 O1 2.128288 1_555
Fe0 O27 2.144547 1_555
Fe0 O3 2.205866 1_555
Fe0 O4 2.233144 1_555
Fe1 O21 1.993399 1_555
Fe1 O40 2.025974 1_455
Fe1 O7 2.037963 1_554
Fe1 O0 2.048446 1_555
Fe1 O17 2.056176 1_565
Fe1 O29 2.071015 1_554
Fe2 O34 2.082549 1_555
Fe2 O10 2.088425 1_555
Fe2 O11 2.088477 1_555
Fe2 O33 2.101790 1_555
Fe2 O9 2.159276 1_555
Fe2 O35 2.160490 1_555
Fe3 O36 2.099050 1_555
Fe3 O37 2.099116 1_555
Fe3 O12 2.107060 1_555
Fe3 O13 2.114203 1_555
Fe3 O14 2.135101 1_555
Fe3 O38 2.174881 1_555
Fe4 O45 2.088989 1_555
Fe4 O16 2.108777 1_555
Fe4 O42 2.127150 1_565
Fe4 O31 2.131657 1_555
Fe4 O5 2.147908 1_655
Fe4 O24 2.148548 1_555
Fe5 O46 2.054770 1_555
Fe5 O15 2.106848 1_555
Fe5 O32 2.112553 1_555
Fe5 O41 2.133291 1_555
Fe5 O6 2.158923 1_655
Fe5 O24 2.185714 1_555
Fe6 O39 2.062194 1_556
Fe6 O25 2.089292 1_555
Fe6 O18 2.117664 1_556
Fe6 O47 2.123783 1_556
Fe6 O8 2.133964 1_655
Fe6 O30 2.168470 1_555
