# generated using pymatgen
data_HfMg6SiO8
_symmetry_space_group_name_H-M   'P 1'
_cell_length_a   10.36717937
_cell_length_b   4.21161842
_cell_length_c   4.21161842
_cell_angle_alpha   90.00000000
_cell_angle_beta   90.00000000
_cell_angle_gamma   90.00000000
_symmetry_Int_Tables_number   1
_chemical_formula_structural   HfMg6SiO8
_chemical_formula_sum   'Hf1 Mg6 Si1 O8'
_cell_volume   183.89022558
_cell_formula_units_Z   1
loop_
 _symmetry_equiv_pos_site_id
 _symmetry_equiv_pos_as_xyz
  1  'x, y, z'
loop_
 _atom_site_type_symbol
 _atom_site_label
 _atom_site_symmetry_multiplicity
 _atom_site_fract_x
 _atom_site_fract_y
 _atom_site_fract_z
 _atom_site_occupancy
  Hf  Hf0  1  0.50000000  -0.00000000  0.00000000  1
  Mg  Mg0  1  0.00000000  0.50000000  0.50000000  1
  Mg  Mg1  1  0.50000000  0.50000000  0.50000000  1
  Mg  Mg2  1  0.21546171  0.00000000  0.50000000  1
  Mg  Mg3  1  0.78453829  -0.00000000  0.50000000  1
  Mg  Mg4  1  0.21546171  0.50000000  0.00000000  1
  Mg  Mg5  1  0.78453829  0.50000000  -0.00000000  1
  Si  Si0  1  0.00000000  -0.00000000  0.00000000  1
  O  O0  1  0.30115424  0.00000000  0.00000000  1
  O  O1  1  0.69884576  -0.00000000  -0.00000000  1
  O  O2  1  0.21690962  0.50000000  0.50000000  1
  O  O3  1  0.78309038  0.50000000  0.50000000  1
  O  O4  1  0.00000000  -0.00000000  0.50000000  1
  O  O5  1  0.50000000  -0.00000000  0.50000000  1
  O  O6  1  0.00000000  0.50000000  0.00000000  1
  O  O7  1  0.50000000  0.50000000  0.00000000  1
loop_
_geom_bond_atom_site_label_1
_geom_bond_atom_site_label_2
_geom_bond_distance
_geom_bond_site_symmetry_2
Hf0 O0 2.061470 1_555
Hf0 O1 2.061470 1_555
Hf0 O7 2.105809 1_555
Hf0 O5 2.105809 1_554
Hf0 O5 2.105809 1_555
Hf0 O7 2.105809 1_545
Mg0 O4 2.105809 1_555
Mg0 O4 2.105809 1_565
Mg0 O6 2.105809 1_556
Mg0 O6 2.105809 1_555
Mg0 O2 2.248741 1_555
Mg0 O3 2.248741 1_455
Mg1 O5 2.105809 1_565
Mg1 O7 2.105809 1_555
Mg1 O7 2.105809 1_556
Mg1 O5 2.105809 1_555
Mg2 O2 2.105863 1_555
Mg2 O2 2.105863 1_545
Mg2 O4 2.233730 1_555
Mg2 O0 2.285535 1_555
Mg2 O0 2.285535 1_556
Mg3 O3 2.105863 1_545
Mg3 O3 2.105863 1_555
Mg3 O4 2.233730 1_655
Mg3 O1 2.285535 1_555
Mg3 O1 2.285535 1_556
Mg4 O2 2.105863 1_554
Mg4 O2 2.105863 1_555
Mg4 O6 2.233730 1_555
Mg4 O0 2.285535 1_555
Mg4 O0 2.285535 1_565
Mg5 O3 2.105863 1_555
Mg5 O3 2.105863 1_554
Mg5 O6 2.233730 1_655
Mg5 O1 2.285535 1_565
Mg5 O1 2.285535 1_555
O4 Si0 2.105809 1_555
O4 Si0 2.105809 1_556
O6 Si0 2.105809 1_565
O6 Si0 2.105809 1_555
