# generated using pymatgen
data_Li7Mn4CoO12
_symmetry_space_group_name_H-M   'P 1'
_cell_length_a   5.04534000
_cell_length_b   6.48161018
_cell_length_c   6.82159032
_cell_angle_alpha   84.20615062
_cell_angle_beta   80.46531397
_cell_angle_gamma   83.29765236
_symmetry_Int_Tables_number   1
_chemical_formula_structural   Li7Mn4CoO12
_chemical_formula_sum   'Li7 Mn4 Co1 O12'
_cell_volume   217.73401807
_cell_formula_units_Z   1
loop_
 _symmetry_equiv_pos_site_id
 _symmetry_equiv_pos_as_xyz
  1  'x, y, z'
loop_
 _atom_site_type_symbol
 _atom_site_label
 _atom_site_symmetry_multiplicity
 _atom_site_fract_x
 _atom_site_fract_y
 _atom_site_fract_z
 _atom_site_occupancy
  Li  Li0  1  0.75368700  0.74974500  0.74258500  1
  Li  Li1  1  0.76306400  0.42208100  0.10210700  1
  Li  Li2  1  0.24838700  0.90717700  0.58213600  1
  Li  Li3  1  0.24536700  0.58816600  0.91477100  1
  Li  Li4  1  0.74623500  0.07846500  0.40701800  1
  Li  Li5  1  0.23983500  0.25486300  0.25234500  1
  Li  Li6  1  0.99949000  0.66638300  0.33431200  1
  Mn  Mn0  1  0.00406400  0.99403000  0.01029600  1
  Mn  Mn1  1  0.50119900  0.50574000  0.48793100  1
  Mn  Mn2  1  0.99953900  0.33950600  0.65595700  1
  Mn  Mn3  1  0.49763800  0.16590200  0.83650100  1
  Co  Co0  1  0.50947000  0.82820100  0.17719000  1
  O  O0  1  0.86259700  0.72955200  0.03941900  1
  O  O1  1  0.84607300  0.37982000  0.38151600  1
  O  O2  1  0.35901300  0.89167300  0.87906900  1
  O  O3  1  0.39564200  0.55489400  0.22833300  1
  O  O4  1  0.87340700  0.05404300  0.73606900  1
  O  O5  1  0.35802400  0.22887600  0.53682900  1
  O  O6  1  0.61212800  0.77914500  0.45973700  1
  O  O7  1  0.62237900  0.44671300  0.76595000  1
  O  O8  1  0.13841000  0.95236800  0.25855000  1
  O  O9  1  0.13911900  0.60733900  0.62372100  1
  O  O10  1  0.64751400  0.10227600  0.12643600  1
  O  O11  1  0.13771800  0.27304500  0.96122100  1
loop_
_geom_bond_atom_site_label_1
_geom_bond_atom_site_label_2
_geom_bond_distance
_geom_bond_site_symmetry_2
Li0 O9 2.121506 1_655
Li0 O4 2.123311 1_565
Li0 O7 2.127834 1_555
Li0 O6 2.149375 1_555
Li0 O0 2.171985 1_556
Li0 O2 2.193027 1_555
Li1 O1 2.003893 1_555
Li1 O3 2.041393 1_555
Li1 O0 2.096934 1_555
Li1 O11 2.142250 1_654
Li1 O10 2.201068 1_555
Li1 O7 2.495315 1_554
Li2 O6 2.007616 1_555
Li2 O9 2.061141 1_555
Li2 O4 2.170573 1_465
Li2 O2 2.178268 1_555
Li2 O5 2.198122 1_565
Li2 O8 2.345944 1_555
Li3 O2 2.092442 1_555
Li3 O0 2.119569 1_456
Li3 O9 2.128834 1_555
Li3 O7 2.151863 1_555
Li3 O11 2.153699 1_555
Li3 O3 2.366984 1_556
Li4 O10 2.042940 1_555
Li4 O1 2.057005 1_555
Li4 O6 2.106173 1_545
Li4 O5 2.173683 1_555
Li4 O8 2.175906 1_645
Li4 O4 2.420100 1_555
Li5 O8 2.078000 1_545
Li5 O5 2.108065 1_555
Li5 O11 2.121507 1_554
Li5 O1 2.137240 1_455
Li5 O3 2.162509 1_555
Li5 O10 2.248997 1_555
Li6 O8 2.045531 1_655
Li6 O1 2.070021 1_555
Li6 O6 2.079584 1_555
Li6 O3 2.080712 1_655
Li6 O9 2.187604 1_655
Li6 O0 2.217960 1_555
Mn0 O8 1.909316 1_555
Mn0 O0 1.912434 1_455
Mn0 O10 1.923925 1_465
Mn0 O2 1.939091 1_554
Mn0 O11 1.981157 1_564
Mn0 O4 2.070510 1_464
Mn1 O1 1.894830 1_555
Mn1 O6 1.902003 1_555
Mn1 O3 1.918345 1_555
Mn1 O9 1.977549 1_555
Mn1 O5 1.988794 1_555
Mn1 O7 2.073657 1_555
Mn2 O9 1.927418 1_655
Mn2 O5 1.942644 1_655
Mn2 O7 1.997617 1_555
Mn2 O4 2.020538 1_555
Mn2 O1 2.122942 1_555
Mn2 O11 2.288595 1_655
Mn3 O11 1.953656 1_555
Mn3 O2 1.962524 1_545
Mn3 O7 1.982597 1_555
Mn3 O4 1.984573 1_555
Mn3 O10 2.216221 1_556
Mn3 O5 2.254588 1_555
Co0 O3 1.906819 1_555
Co0 O0 1.940889 1_555
Co0 O10 1.960984 1_565
Co0 O8 1.963377 1_555
Co0 O6 2.062247 1_555
Co0 O2 2.269555 1_554
