# generated using pymatgen
data_BaYb2NiO5
_symmetry_space_group_name_H-M   'P 1'
_cell_length_a   3.73641214
_cell_length_b   5.67715918
_cell_length_c   6.52053988
_cell_angle_alpha   115.80582718
_cell_angle_beta   106.64420198
_cell_angle_gamma   90.00187587
_symmetry_Int_Tables_number   1
_chemical_formula_structural   BaYb2NiO5
_chemical_formula_sum   'Ba1 Yb2 Ni1 O5'
_cell_volume   118.05050712
_cell_formula_units_Z   1
loop_
 _symmetry_equiv_pos_site_id
 _symmetry_equiv_pos_as_xyz
  1  'x, y, z'
loop_
 _atom_site_type_symbol
 _atom_site_label
 _atom_site_symmetry_multiplicity
 _atom_site_fract_x
 _atom_site_fract_y
 _atom_site_fract_z
 _atom_site_occupancy
  Ba  Ba0  1  0.49999797  0.49999826  0.99999662  1
  Yb  Yb0  1  0.70294135  0.20294279  0.40586703  1
  Yb  Yb1  1  0.29705916  0.79705660  0.59413229  1
  Ni  Ni0  1  0.00000008  0.99999917  0.99999892  1
  O  O0  1  0.50000037  0.99999983  0.00000085  1
  O  O1  1  0.84787688  0.60923128  0.69570168  1
  O  O2  1  0.15212511  0.39077018  0.30430061  1
  O  O3  1  0.15216683  0.91357381  0.30431180  1
  O  O4  1  0.84783425  0.08642708  0.69568920  1
loop_
_geom_bond_atom_site_label_1
_geom_bond_atom_site_label_2
_geom_bond_distance
_geom_bond_site_symmetry_2
Ba0 O0 2.838577 1_556
Ba0 O0 2.838583 1_546
Ba0 O1 2.925692 1_555
Ba0 O2 2.925716 1_556
Ba0 O1 2.925803 1_455
Ba0 O4 2.925807 1_555
Ba0 O3 2.925831 1_556
Ba0 O2 2.925835 1_656
Ba0 O4 2.925968 1_455
Ba0 O3 2.925998 1_656
Ni0 O0 1.868204 1_556
Ni0 O0 1.868209 1_456
Ni0 O4 2.168576 1_465
Ni0 O3 2.168586 1_556
Ni0 O1 2.168643 1_455
Ni0 O2 2.168666 1_566
O0 Yb0 2.258733 1_565
O0 Yb1 2.258746 1_554
O1 Yb0 2.191695 1_555
O1 Yb1 2.375696 1_655
O1 Yb1 2.376031 1_555
O2 Yb1 2.191680 1_555
O2 Yb0 2.375694 1_455
O2 Yb0 2.376029 1_555
O3 Yb1 2.191861 1_555
O3 Yb0 2.375774 1_565
O3 Yb0 2.375790 1_465
O4 Yb0 2.191865 1_555
O4 Yb1 2.375778 1_545
O4 Yb1 2.375795 1_645
