# generated using pymatgen
data_K2LiTaF6
_symmetry_space_group_name_H-M   'P 1'
_cell_length_a   5.91814110
_cell_length_b   5.91814110
_cell_length_c   5.91814110
_cell_angle_alpha   122.81536991
_cell_angle_beta   116.36267262
_cell_angle_gamma   90.80301410
_symmetry_Int_Tables_number   1
_chemical_formula_structural   K2LiTaF6
_chemical_formula_sum   'K2 Li1 Ta1 F6'
_cell_volume   146.88843107
_cell_formula_units_Z   1
loop_
 _symmetry_equiv_pos_site_id
 _symmetry_equiv_pos_as_xyz
  1  'x, y, z'
loop_
 _atom_site_type_symbol
 _atom_site_label
 _atom_site_symmetry_multiplicity
 _atom_site_fract_x
 _atom_site_fract_y
 _atom_site_fract_z
 _atom_site_occupancy
  K  K0  1  0.24788900  0.74788900  0.50000000  1
  K  K1  1  0.75211100  0.25211100  0.50000000  1
  Li  Li0  1  0.00000000  0.00000000  0.00000000  1
  Ta  Ta0  1  0.50000000  0.50000000  0.00000000  1
  F  F0  1  0.76469200  0.72987600  0.49456800  1
  F  F1  1  0.23530800  0.72987600  0.96518400  1
  F  F2  1  0.23530800  0.27012400  0.50543200  1
  F  F3  1  0.74901900  0.74901900  0.00000000  1
  F  F4  1  0.25098100  0.25098100  0.00000000  1
  F  F5  1  0.76469200  0.27012400  0.03481600  1
loop_
_geom_bond_atom_site_label_1
_geom_bond_atom_site_label_2
_geom_bond_distance
_geom_bond_site_symmetry_2
F0 Ta0 2.103337 1_555
F0 Li0 2.120752 1_666
F0 K1 2.845341 1_555
F0 K0 2.845341 1_655
F0 K0 3.075654 1_555
F0 K1 3.075654 1_565
F1 Ta0 2.103337 1_556
F1 Li0 2.120752 1_566
F1 K0 2.845341 1_555
F1 K1 2.845341 1_455
F1 K1 3.075654 1_566
F1 K0 3.075654 1_556
F2 Ta0 2.103337 1_556
F2 Li0 2.120752 1_555
F2 K0 2.845341 1_555
F2 K1 2.845341 1_455
F2 K1 3.075654 1_555
F2 K0 3.075654 1_545
F3 Ta0 2.069512 1_555
F3 Li0 2.085818 1_665
F3 K1 2.832386 1_565
F3 K1 2.832386 1_554
F3 K0 3.120251 1_554
F3 K0 3.120251 1_655
F4 Ta0 2.069512 1_555
F4 Li0 2.085818 1_555
F4 K0 2.832386 1_555
F4 K0 2.832386 1_544
F4 K1 3.120251 1_454
F4 K1 3.120251 1_555
F5 Ta0 2.103337 1_555
F5 Li0 2.120752 1_655
F5 K1 2.845341 1_555
F5 K0 2.845341 1_655
F5 K0 3.075654 1_544
F5 K1 3.075654 1_554
