# generated using pymatgen
data_LuTc2
_symmetry_space_group_name_H-M   'P 1'
_cell_length_a   5.29170236
_cell_length_b   5.29104045
_cell_length_c   8.72231932
_cell_angle_alpha   90.00277935
_cell_angle_beta   89.99672150
_cell_angle_gamma   119.99096771
_symmetry_Int_Tables_number   1
_chemical_formula_structural   LuTc2
_chemical_formula_sum   'Lu4 Tc8'
_cell_volume   211.51375906
_cell_formula_units_Z   4
loop_
 _symmetry_equiv_pos_site_id
 _symmetry_equiv_pos_as_xyz
  1  'x, y, z'
loop_
 _atom_site_type_symbol
 _atom_site_label
 _atom_site_symmetry_multiplicity
 _atom_site_fract_x
 _atom_site_fract_y
 _atom_site_fract_z
 _atom_site_occupancy
  Lu  Lu0  1  0.66667328  0.33332665  0.56295807  1
  Lu  Lu1  1  0.33332668  0.66666554  0.43704645  1
  Lu  Lu2  1  0.33332557  0.66666619  0.06295374  1
  Lu  Lu3  1  0.66667434  0.33332764  0.93704317  1
  Tc  Tc0  1  0.00000035  0.99999741  0.50001724  1
  Tc  Tc1  1  0.00000028  0.99999817  0.99998275  1
  Tc  Tc2  1  0.17218991  0.34438630  0.74999524  1
  Tc  Tc3  1  0.17220061  0.82779341  0.75000603  1
  Tc  Tc4  1  0.65576150  0.82788170  0.74999367  1
  Tc  Tc5  1  0.82783282  0.65565894  0.25000378  1
  Tc  Tc6  1  0.82781186  0.17219587  0.24999393  1
  Tc  Tc7  1  0.34419781  0.17209818  0.25000593  1
loop_
_geom_bond_atom_site_label_1
_geom_bond_atom_site_label_2
_geom_bond_distance
_geom_bond_site_symmetry_2
Lu0 Tc6 3.103526 1_555
Lu0 Tc0 3.103694 1_645
Lu0 Tc5 3.103748 1_555
Lu0 Tc0 3.104027 1_655
Lu0 Tc7 3.104152 1_555
Lu0 Tc0 3.104421 1_545
Lu0 Tc4 3.108464 1_555
Lu0 Tc4 3.108508 1_545
Lu0 Tc2 3.108756 1_555
Lu0 Tc2 3.108816 1_655
Lu0 Tc3 3.109000 1_545
Lu0 Tc3 3.109010 1_655
Lu0 Lu1 3.246397 1_555
Lu0 Lu1 3.246417 1_545
Lu0 Lu1 3.246728 1_655
Lu0 Lu3 3.262890 1_555
Lu1 Tc3 3.103457 1_555
Lu1 Tc2 3.103590 1_555
Lu1 Tc0 3.103749 1_555
Lu1 Tc4 3.104025 1_555
Lu1 Tc0 3.104061 1_545
Lu1 Tc0 3.104471 1_655
Lu1 Tc7 3.108448 1_555
Lu1 Tc7 3.108564 1_565
Lu1 Tc5 3.108761 1_555
Lu1 Tc5 3.108854 1_455
Lu1 Tc6 3.109008 1_455
Lu1 Tc6 3.109041 1_565
Lu1 Lu2 3.262956 1_555
Lu2 Tc3 3.103521 1_554
Lu2 Tc2 3.103607 1_554
Lu2 Tc1 3.103811 1_554
Lu2 Tc4 3.104027 1_554
Lu2 Tc1 3.104036 1_544
Lu2 Tc1 3.104434 1_654
Lu2 Tc7 3.108479 1_565
Lu2 Tc7 3.108644 1_555
Lu2 Tc5 3.108724 1_455
Lu2 Tc6 3.108923 1_455
Lu2 Tc5 3.108961 1_555
Lu2 Tc6 3.109006 1_565
Lu2 Lu3 3.246275 1_554
Lu2 Lu3 3.246463 1_564
Lu2 Lu3 3.246794 1_454
Lu3 Tc6 3.103581 1_556
Lu3 Tc5 3.103735 1_556
Lu3 Tc1 3.103754 1_645
Lu3 Tc1 3.103999 1_655
Lu3 Tc7 3.104137 1_556
Lu3 Tc1 3.104383 1_545
Lu3 Tc4 3.108441 1_545
Lu3 Tc4 3.108663 1_555
Lu3 Tc2 3.108705 1_655
Lu3 Tc3 3.108928 1_655
Lu3 Tc2 3.108968 1_555
Lu3 Tc3 3.108976 1_545
Tc0 Tc4 2.691267 1_455
Tc0 Tc7 2.691402 1_565
Tc0 Tc2 2.691585 1_565
Tc0 Tc5 2.691700 1_455
Tc0 Tc3 2.691741 1_555
Tc0 Tc6 2.691939 1_465
Tc1 Tc4 2.691454 1_455
Tc1 Tc3 2.691502 1_555
Tc1 Tc7 2.691584 1_566
Tc1 Tc6 2.691695 1_466
Tc1 Tc2 2.691709 1_565
Tc1 Tc5 2.691814 1_456
Tc2 Tc3 2.557698 1_555
Tc2 Tc4 2.558905 1_555
Tc2 Tc4 2.733189 1_445
Tc2 Tc3 2.733342 1_545
Tc3 Tc4 2.558627 1_555
Tc3 Tc4 2.733076 1_455
Tc5 Tc6 2.557967 1_555
Tc5 Tc7 2.559245 1_555
Tc5 Tc7 2.732848 1_665
Tc5 Tc6 2.733073 1_565
Tc6 Tc7 2.558883 1_555
Tc6 Tc7 2.732819 1_655
