# generated using pymatgen
data_Nd5Ni19
_symmetry_space_group_name_H-M   'P 1'
_cell_length_a   4.97905961
_cell_length_b   4.97906000
_cell_length_c   16.36139454
_cell_angle_alpha   81.24794760
_cell_angle_beta   81.24794681
_cell_angle_gamma   59.99999743
_symmetry_Int_Tables_number   1
_chemical_formula_structural   Nd5Ni19
_chemical_formula_sum   'Nd5 Ni19'
_cell_volume   345.80932673
_cell_formula_units_Z   1
loop_
 _symmetry_equiv_pos_site_id
 _symmetry_equiv_pos_as_xyz
  1  'x, y, z'
loop_
 _atom_site_type_symbol
 _atom_site_label
 _atom_site_symmetry_multiplicity
 _atom_site_fract_x
 _atom_site_fract_y
 _atom_site_fract_z
 _atom_site_occupancy
  Nd  Nd0  1  0.00000000  0.00000000  0.00000000  1
  Nd  Nd1  1  0.92188900  0.92188900  0.23433400  1
  Nd  Nd2  1  0.07811100  0.07811100  0.76566600  1
  Nd  Nd3  1  0.84834000  0.84834000  0.45498100  1
  Nd  Nd4  1  0.15166000  0.15166000  0.54501900  1
  Ni  Ni0  1  0.50000000  0.50000000  0.50000000  1
  Ni  Ni1  1  0.74872700  0.74872700  0.75382000  1
  Ni  Ni2  1  0.25127300  0.25127300  0.24618000  1
  Ni  Ni3  1  0.66665100  0.66665100  0.00004800  1
  Ni  Ni4  1  0.33334900  0.33334900  0.99995200  1
  Ni  Ni5  1  0.58500700  0.58500700  0.24497900  1
  Ni  Ni6  1  0.41499300  0.41499300  0.75502100  1
  Ni  Ni7  1  0.37782700  0.37782700  0.36780300  1
  Ni  Ni8  1  0.87654200  0.37782700  0.36780300  1
  Ni  Ni9  1  0.37782700  0.87654200  0.36780300  1
  Ni  Ni10  1  0.62217300  0.62217300  0.63219700  1
  Ni  Ni11  1  0.12345800  0.62217300  0.63219700  1
  Ni  Ni12  1  0.62217300  0.12345800  0.63219700  1
  Ni  Ni13  1  0.45917200  0.45917200  0.12189400  1
  Ni  Ni14  1  0.95976200  0.45917200  0.12189400  1
  Ni  Ni15  1  0.45917200  0.95976200  0.12189400  1
  Ni  Ni16  1  0.54082800  0.54082800  0.87810600  1
  Ni  Ni17  1  0.04023800  0.54082800  0.87810600  1
  Ni  Ni18  1  0.54082800  0.04023800  0.87810600  1
loop_
_geom_bond_atom_site_label_1
_geom_bond_atom_site_label_2
_geom_bond_distance
_geom_bond_site_symmetry_2
Nd0 Ni4 2.874659 1_554
Nd0 Ni3 2.874659 1_445
Nd0 Ni3 2.874663 1_545
Nd0 Ni4 2.874663 1_454
Nd0 Ni3 2.874663 1_455
Nd0 Ni4 2.874663 1_544
Nd0 Ni13 3.170557 1_455
Nd0 Ni15 3.170557 1_445
Nd0 Ni18 3.170557 1_554
Nd0 Ni16 3.170557 1_544
Nd0 Ni15 3.170557 1_545
Nd0 Ni13 3.170557 1_545
Nd0 Ni16 3.170557 1_454
Nd0 Ni18 3.170557 1_454
Nd0 Ni14 3.170557 1_455
Nd0 Ni14 3.170557 1_445
Nd0 Ni17 3.170557 1_554
Nd0 Ni17 3.170557 1_544
Nd1 Ni5 2.879769 1_655
Nd1 Ni5 2.879769 1_565
Nd1 Ni5 2.879773 1_555
Nd1 Ni2 2.880981 1_665
Nd1 Ni2 2.880989 1_565
Nd1 Ni2 2.880990 1_655
Nd1 Ni15 3.078584 1_655
Nd1 Ni14 3.078584 1_565
Nd1 Ni13 3.078586 1_655
Nd1 Ni13 3.078586 1_565
Nd1 Ni15 3.078588 1_555
Nd1 Ni14 3.078588 1_555
Nd1 Ni9 3.289264 1_655
Nd1 Ni8 3.289264 1_565
Nd1 Ni7 3.289267 1_565
Nd1 Ni7 3.289267 1_655
Nd1 Ni9 3.289271 1_555
Nd1 Ni8 3.289271 1_555
Nd2 Ni6 2.879769 1_455
Nd2 Ni6 2.879769 1_545
Nd2 Ni6 2.879773 1_555
Nd2 Ni1 2.880981 1_445
Nd2 Ni1 2.880989 1_545
Nd2 Ni1 2.880990 1_455
Nd2 Ni18 3.078584 1_455
Nd2 Ni17 3.078584 1_545
Nd2 Ni16 3.078586 1_455
Nd2 Ni16 3.078586 1_545
Nd2 Ni18 3.078588 1_555
Nd2 Ni17 3.078588 1_555
Nd2 Ni12 3.289264 1_455
Nd2 Ni11 3.289264 1_545
Nd2 Ni10 3.289267 1_545
Nd2 Ni10 3.289267 1_455
Nd2 Ni12 3.289271 1_555
Nd2 Ni11 3.289271 1_555
Nd3 Ni9 2.858221 1_655
Nd3 Ni8 2.858221 1_565
Nd3 Ni7 2.858225 1_655
Nd3 Ni7 2.858226 1_565
Nd3 Ni9 2.858230 1_555
Nd3 Ni8 2.858230 1_555
Nd3 Ni0 2.964703 1_655
Nd3 Ni0 2.964703 1_565
Nd3 Ni0 2.964707 1_555
Nd3 Ni11 3.197520 1_655
Nd3 Ni10 3.197520 1_555
Nd3 Ni12 3.197520 1_565
Nd4 Ni12 2.858221 1_455
Nd4 Ni11 2.858221 1_545
Nd4 Ni10 2.858225 1_455
Nd4 Ni10 2.858226 1_545
Nd4 Ni12 2.858230 1_555
Nd4 Ni11 2.858230 1_555
Nd4 Ni0 2.964703 1_455
Nd4 Ni0 2.964703 1_545
Nd4 Ni0 2.964707 1_555
Nd4 Ni8 3.197520 1_455
Nd4 Ni7 3.197520 1_555
Nd4 Ni9 3.197520 1_545
Ni0 Ni8 2.566934 1_555
Ni0 Ni11 2.566934 1_555
Ni0 Ni9 2.566934 1_555
Ni0 Ni12 2.566934 1_555
Ni0 Ni10 2.566936 1_555
Ni0 Ni7 2.566936 1_555
Ni1 Ni11 2.431893 1_655
Ni1 Ni10 2.431893 1_555
Ni1 Ni12 2.431893 1_565
Ni1 Ni17 2.463429 1_655
Ni1 Ni18 2.463429 1_565
Ni1 Ni16 2.463432 1_555
Ni2 Ni8 2.431893 1_455
Ni2 Ni9 2.431893 1_545
Ni2 Ni7 2.431893 1_555
Ni5 Ni8 2.443159 1_555
Ni5 Ni9 2.443159 1_555
Ni5 Ni7 2.443162 1_555
Ni7 Ni8 2.483132 1_555
Ni7 Ni9 2.483132 1_555
Ni7 Ni8 2.495928 1_455
Ni7 Ni9 2.495928 1_545
Ni8 Ni9 2.483132 1_555
Ni8 Ni9 2.495928 1_645
Ni10 Ni6 2.443162 1_555
Ni10 Ni11 2.483132 1_555
Ni10 Ni12 2.483132 1_555
Ni10 Ni11 2.495928 1_655
Ni10 Ni12 2.495928 1_565
Ni11 Ni6 2.443159 1_555
Ni11 Ni12 2.483132 1_555
Ni11 Ni12 2.495928 1_465
Ni12 Ni6 2.443159 1_555
Ni13 Ni4 2.432851 1_554
Ni13 Ni3 2.433607 1_555
Ni13 Ni5 2.449727 1_555
Ni13 Ni2 2.463432 1_555
Ni13 Ni14 2.486592 1_455
Ni13 Ni15 2.486592 1_545
Ni13 Ni14 2.492467 1_555
Ni13 Ni15 2.492468 1_555
Ni14 Ni4 2.432848 1_654
Ni14 Ni3 2.433604 1_555
Ni14 Ni5 2.449727 1_555
Ni14 Ni2 2.463429 1_655
Ni14 Ni15 2.486592 1_645
Ni14 Ni15 2.492467 1_555
Ni15 Ni4 2.432848 1_564
Ni15 Ni3 2.433605 1_555
Ni15 Ni5 2.449727 1_555
Ni15 Ni2 2.463429 1_565
Ni16 Ni3 2.432851 1_556
Ni16 Ni4 2.433607 1_555
Ni16 Ni6 2.449727 1_555
Ni16 Ni17 2.486592 1_655
Ni16 Ni18 2.486592 1_565
Ni16 Ni17 2.492467 1_555
Ni16 Ni18 2.492468 1_555
Ni17 Ni3 2.432848 1_456
Ni17 Ni4 2.433604 1_555
Ni17 Ni6 2.449727 1_555
Ni17 Ni18 2.486592 1_465
Ni17 Ni18 2.492467 1_555
Ni18 Ni3 2.432848 1_546
Ni18 Ni4 2.433605 1_555
Ni18 Ni6 2.449727 1_555
