# generated using pymatgen
data_CaAlCuSi2O9
_symmetry_space_group_name_H-M   'P 1'
_cell_length_a   8.64952384
_cell_length_b   8.64952384
_cell_length_c   4.86426864
_cell_angle_alpha   81.74376149
_cell_angle_beta   81.74376149
_cell_angle_gamma   83.07695423
_symmetry_Int_Tables_number   1
_chemical_formula_structural   CaAlCuSi2O9
_chemical_formula_sum   'Ca2 Al2 Cu2 Si4 O18'
_cell_volume   354.55272927
_cell_formula_units_Z   2
loop_
 _symmetry_equiv_pos_site_id
 _symmetry_equiv_pos_as_xyz
  1  'x, y, z'
loop_
 _atom_site_type_symbol
 _atom_site_label
 _atom_site_symmetry_multiplicity
 _atom_site_fract_x
 _atom_site_fract_y
 _atom_site_fract_z
 _atom_site_occupancy
  Ca  Ca0  1  0.83359000  0.16641000  0.50000000  1
  Ca  Ca1  1  0.16641000  0.83359000  0.50000000  1
  Al  Al0  1  0.00000000  0.50000000  0.50000000  1
  Al  Al1  1  0.50000000  0.00000000  0.50000000  1
  Cu  Cu0  1  0.22563500  0.22563500  0.43690400  1
  Cu  Cu1  1  0.77436500  0.77436500  0.56309600  1
  Si  Si0  1  0.74502400  0.48047300  0.06286000  1
  Si  Si1  1  0.48047300  0.74502400  0.06286000  1
  Si  Si2  1  0.25497600  0.51952700  0.93714000  1
  Si  Si3  1  0.51952700  0.25497600  0.93714000  1
  O  O0  1  0.82395600  0.56933300  0.76368600  1
  O  O1  1  0.56933300  0.82395600  0.76368600  1
  O  O2  1  0.17604400  0.43066700  0.23631400  1
  O  O3  1  0.43066700  0.17604400  0.23631400  1
  O  O4  1  0.04454300  0.28390600  0.66609700  1
  O  O5  1  0.28390600  0.04454300  0.66609700  1
  O  O6  1  0.95545700  0.71609400  0.33390300  1
  O  O7  1  0.71609400  0.95545700  0.33390300  1
  O  O8  1  0.86081000  0.42663200  0.29571700  1
  O  O9  1  0.42663200  0.86081000  0.29571700  1
  O  O10  1  0.13919000  0.57336800  0.70428300  1
  O  O11  1  0.57336800  0.13919000  0.70428300  1
  O  O12  1  0.68769300  0.31230700  0.00000000  1
  O  O13  1  0.31230700  0.68769300  0.00000000  1
  O  O14  1  0.59103800  0.59103800  0.18656300  1
  O  O15  1  0.40896200  0.40896200  0.81343700  1
  O  O16  1  0.08185900  0.08185900  0.29931500  1
  O  O17  1  0.91814100  0.91814100  0.70068500  1
loop_
_geom_bond_atom_site_label_1
_geom_bond_atom_site_label_2
_geom_bond_distance
_geom_bond_site_symmetry_2
Ca0 O16 2.307278 1_655
Ca0 O17 2.307278 1_545
Ca0 O8 2.350987 1_555
Ca0 O11 2.350987 1_555
Ca0 O7 2.474100 1_545
Ca0 O4 2.474100 1_655
Ca0 O12 2.952347 1_556
Ca0 O12 2.952347 1_555
Ca1 O16 2.307278 1_565
Ca1 O17 2.307278 1_455
Ca1 O9 2.350987 1_555
Ca1 O10 2.350987 1_555
Ca1 O5 2.474100 1_565
Ca1 O6 2.474100 1_455
Ca1 O13 2.952347 1_556
Ca1 O13 2.952347 1_555
Al0 O10 1.883732 1_555
Al0 O8 1.883732 1_455
Al0 O0 1.939912 1_455
Al0 O2 1.939912 1_555
Al0 O4 1.943416 1_555
Al0 O6 1.943416 1_455
Al1 O11 1.883732 1_555
Al1 O9 1.883732 1_545
Al1 O1 1.939912 1_545
Al1 O3 1.939912 1_555
Al1 O7 1.943416 1_545
Al1 O5 1.943416 1_555
Cu0 O5 1.849311 1_555
Cu0 O4 1.849311 1_555
Cu0 O3 1.928971 1_555
Cu0 O2 1.928971 1_555
Cu0 O16 2.095680 1_555
Cu1 O6 1.849311 1_555
Cu1 O7 1.849311 1_555
Cu1 O0 1.928971 1_555
Cu1 O1 1.928971 1_555
Cu1 O17 2.095680 1_555
O0 Si0 1.641511 1_556
O1 Si1 1.641511 1_556
O2 Si2 1.641511 1_554
O3 Si3 1.641511 1_554
O8 Si0 1.601465 1_555
O9 Si1 1.601465 1_555
O10 Si2 1.601465 1_555
O11 Si3 1.601465 1_555
O12 Si0 1.673408 1_555
O12 Si3 1.673408 1_554
O13 Si1 1.673408 1_555
O13 Si2 1.673408 1_554
O14 Si0 1.636659 1_555
O14 Si1 1.636659 1_555
O15 Si3 1.636659 1_555
O15 Si2 1.636659 1_555
