# generated using pymatgen
data_BaBClF4
_symmetry_space_group_name_H-M   'P 1'
_cell_length_a   4.79459700
_cell_length_b   5.32763700
_cell_length_c   9.51156300
_cell_angle_alpha   90.00000000
_cell_angle_beta   90.00000000
_cell_angle_gamma   90.00000000
_symmetry_Int_Tables_number   1
_chemical_formula_structural   BaBClF4
_chemical_formula_sum   'Ba2 B2 Cl2 F8'
_cell_volume   242.96215138
_cell_formula_units_Z   2
loop_
 _symmetry_equiv_pos_site_id
 _symmetry_equiv_pos_as_xyz
  1  'x, y, z'
loop_
 _atom_site_type_symbol
 _atom_site_label
 _atom_site_symmetry_multiplicity
 _atom_site_fract_x
 _atom_site_fract_y
 _atom_site_fract_z
 _atom_site_occupancy
  Ba  Ba0  1  0.47459300  0.50000000  0.29843900  1
  Ba  Ba1  1  0.97459300  0.00000000  0.70156100  1
  B  B0  1  0.88621400  0.00000000  0.13253100  1
  B  B1  1  0.38621400  0.50000000  0.86746900  1
  Cl  Cl0  1  0.48021700  0.00000000  0.47953400  1
  Cl  Cl1  1  0.98021700  0.50000000  0.52046600  1
  F  F0  1  0.59164500  0.00000000  0.14002100  1
  F  F1  1  0.09164500  0.50000000  0.85997900  1
  F  F2  1  0.98540200  0.78058400  0.20309100  1
  F  F3  1  0.98540200  0.21941600  0.20309100  1
  F  F4  1  0.48540200  0.71941600  0.79690900  1
  F  F5  1  0.48540200  0.28058400  0.79690900  1
  F  F6  1  0.97922800  0.00000000  0.99277100  1
  F  F7  1  0.47922800  0.50000000  0.00722900  1
loop_
_geom_bond_atom_site_label_1
_geom_bond_atom_site_label_2
_geom_bond_distance
_geom_bond_site_symmetry_2
Ba0 F7 2.769951 1_555
Ba0 F2 2.925458 1_455
Ba0 F3 2.925458 1_455
Ba0 F2 3.009197 1_555
Ba0 F3 3.009197 1_555
Ba0 F0 3.111487 1_565
Ba0 F0 3.111487 1_555
Ba0 Cl0 3.172326 1_565
Ba0 Cl0 3.172326 1_555
Ba0 Cl1 3.174631 1_455
Ba0 Cl1 3.215098 1_555
Ba1 F6 2.769951 1_555
Ba1 F5 2.925458 1_555
Ba1 F4 2.925458 1_545
Ba1 F5 3.009197 1_655
Ba1 F4 3.009197 1_645
Ba1 F1 3.111487 1_645
Ba1 F1 3.111487 1_655
Ba1 Cl1 3.172326 1_555
Ba1 Cl1 3.172326 1_545
Ba1 Cl0 3.174631 1_555
Ba1 Cl0 3.215098 1_655
B0 F6 1.402148 1_554
B0 F0 1.414135 1_555
B0 F3 1.429362 1_555
B0 F2 1.429362 1_545
B1 F7 1.402148 1_556
B1 F1 1.414135 1_555
B1 F4 1.429362 1_555
B1 F5 1.429362 1_555
