# generated using pymatgen
data_CsIn(PO3)4
_symmetry_space_group_name_H-M   'P 1'
_cell_length_a   15.19213536
_cell_length_b   15.19213536
_cell_length_c   15.19213536
_cell_angle_alpha   90.00000000
_cell_angle_beta   90.00000000
_cell_angle_gamma   90.00000000
_symmetry_Int_Tables_number   1
_chemical_formula_structural   CsIn(PO3)4
_chemical_formula_sum   'Cs12 In12 P48 O144'
_cell_volume   3506.35968071
_cell_formula_units_Z   12
loop_
 _symmetry_equiv_pos_site_id
 _symmetry_equiv_pos_as_xyz
  1  'x, y, z'
loop_
 _atom_site_type_symbol
 _atom_site_label
 _atom_site_symmetry_multiplicity
 _atom_site_fract_x
 _atom_site_fract_y
 _atom_site_fract_z
 _atom_site_occupancy
  O  O0  1  0.00496103  0.32387381  0.32080525  1
  O  O1  1  0.32080525  0.00496103  0.32387381  1
  O  O2  1  0.32387381  0.32080525  0.00496103  1
  O  O3  1  0.17612619  0.67919475  0.50496103  1
  O  O4  1  0.82080525  0.49503897  0.67612619  1
  O  O5  1  0.67612619  0.82080525  0.49503897  1
  O  O6  1  0.17919475  0.99503897  0.82387381  1
  O  O7  1  0.67919475  0.50496103  0.17612619  1
  O  O8  1  0.82387381  0.17919475  0.99503897  1
  O  O9  1  0.50496103  0.17612619  0.67919475  1
  O  O10  1  0.99503897  0.82387381  0.17919475  1
  O  O11  1  0.49503897  0.67612619  0.82080525  1
  O  O12  1  0.99503897  0.67612619  0.67919475  1
  O  O13  1  0.67919475  0.99503897  0.67612619  1
  O  O14  1  0.67612619  0.67919475  0.99503897  1
  O  O15  1  0.82387381  0.32080525  0.49503897  1
  O  O16  1  0.17919475  0.50496103  0.32387381  1
  O  O17  1  0.32387381  0.17919475  0.50496103  1
  O  O18  1  0.82080525  0.00496103  0.17612619  1
  O  O19  1  0.32080525  0.49503897  0.82387381  1
  O  O20  1  0.17612619  0.82080525  0.00496103  1
  O  O21  1  0.49503897  0.82387381  0.32080525  1
  O  O22  1  0.00496103  0.17612619  0.82080525  1
  O  O23  1  0.50496103  0.32387381  0.17919475  1
  O  O24  1  0.94314317  0.22212663  0.43875288  1
  O  O25  1  0.43875288  0.94314317  0.22212663  1
  O  O26  1  0.22212663  0.43875288  0.94314317  1
  O  O27  1  0.27787337  0.56124712  0.44314317  1
  O  O28  1  0.93875288  0.55685683  0.77787337  1
  O  O29  1  0.77787337  0.93875288  0.55685683  1
  O  O30  1  0.06124712  0.05685683  0.72212663  1
  O  O31  1  0.56124712  0.44314317  0.27787337  1
  O  O32  1  0.72212663  0.06124712  0.05685683  1
  O  O33  1  0.44314317  0.27787337  0.56124712  1
  O  O34  1  0.05685683  0.72212663  0.06124712  1
  O  O35  1  0.55685683  0.77787337  0.93875288  1
  O  O36  1  0.05685683  0.77787337  0.56124712  1
  O  O37  1  0.56124712  0.05685683  0.77787337  1
  O  O38  1  0.77787337  0.56124712  0.05685683  1
  O  O39  1  0.72212663  0.43875288  0.55685683  1
  O  O40  1  0.06124712  0.44314317  0.22212663  1
  O  O41  1  0.22212663  0.06124712  0.44314317  1
  O  O42  1  0.93875288  0.94314317  0.27787337  1
  O  O43  1  0.43875288  0.55685683  0.72212663  1
  O  O44  1  0.27787337  0.93875288  0.94314317  1
  O  O45  1  0.55685683  0.72212663  0.43875288  1
  O  O46  1  0.94314317  0.27787337  0.93875288  1
  O  O47  1  0.44314317  0.22212663  0.06124712  1
  O  O48  1  0.01158687  0.15700396  0.30352046  1
  O  O49  1  0.30352046  0.01158687  0.15700396  1
  O  O50  1  0.15700396  0.30352046  0.01158687  1
  O  O51  1  0.34299604  0.69647954  0.51158687  1
  O  O52  1  0.80352046  0.48841313  0.84299604  1
  O  O53  1  0.84299604  0.80352046  0.48841313  1
  O  O54  1  0.19647954  0.98841313  0.65700396  1
  O  O55  1  0.69647954  0.51158687  0.34299604  1
  O  O56  1  0.65700396  0.19647954  0.98841313  1
  O  O57  1  0.51158687  0.34299604  0.69647954  1
  O  O58  1  0.98841313  0.65700396  0.19647954  1
  O  O59  1  0.48841313  0.84299604  0.80352046  1
  O  O60  1  0.98841313  0.84299604  0.69647954  1
  O  O61  1  0.69647954  0.98841313  0.84299604  1
  O  O62  1  0.84299604  0.69647954  0.98841313  1
  O  O63  1  0.65700396  0.30352046  0.48841313  1
  O  O64  1  0.19647954  0.51158687  0.15700396  1
  O  O65  1  0.15700396  0.19647954  0.51158687  1
  O  O66  1  0.80352046  0.01158687  0.34299604  1
  O  O67  1  0.30352046  0.48841313  0.65700396  1
  O  O68  1  0.34299604  0.80352046  0.01158687  1
  O  O69  1  0.48841313  0.65700396  0.30352046  1
  O  O70  1  0.01158687  0.34299604  0.80352046  1
  O  O71  1  0.51158687  0.15700396  0.19647954  1
  O  O72  1  0.86109107  0.24049369  0.29621157  1
  O  O73  1  0.29621157  0.86109107  0.24049369  1
  O  O74  1  0.24049369  0.29621157  0.86109107  1
  O  O75  1  0.25950631  0.70378843  0.36109107  1
  O  O76  1  0.79621157  0.63890893  0.75950631  1
  O  O77  1  0.75950631  0.79621157  0.63890893  1
  O  O78  1  0.20378843  0.13890893  0.74049369  1
  O  O79  1  0.70378843  0.36109107  0.25950631  1
  O  O80  1  0.74049369  0.20378843  0.13890893  1
  O  O81  1  0.36109107  0.25950631  0.70378843  1
  O  O82  1  0.13890893  0.74049369  0.20378843  1
  O  O83  1  0.63890893  0.75950631  0.79621157  1
  O  O84  1  0.13890893  0.75950631  0.70378843  1
  O  O85  1  0.70378843  0.13890893  0.75950631  1
  O  O86  1  0.75950631  0.70378843  0.13890893  1
  O  O87  1  0.74049369  0.29621157  0.63890893  1
  O  O88  1  0.20378843  0.36109107  0.24049369  1
  O  O89  1  0.24049369  0.20378843  0.36109107  1
  O  O90  1  0.79621157  0.86109107  0.25950631  1
  O  O91  1  0.29621157  0.63890893  0.74049369  1
  O  O92  1  0.25950631  0.79621157  0.86109107  1
  O  O93  1  0.63890893  0.74049369  0.29621157  1
  O  O94  1  0.86109107  0.25950631  0.79621157  1
  O  O95  1  0.36109107  0.24049369  0.20378843  1
  O  O96  1  0.97823014  0.48439228  0.36135208  1
  O  O97  1  0.36135208  0.97823014  0.48439228  1
  O  O98  1  0.48439228  0.36135208  0.97823014  1
  O  O99  1  0.01560772  0.63864792  0.47823014  1
  O  O100  1  0.86135208  0.52176986  0.51560772  1
  O  O101  1  0.51560772  0.86135208  0.52176986  1
  O  O102  1  0.13864792  0.02176986  0.98439228  1
  O  O103  1  0.63864792  0.47823014  0.01560772  1
  O  O104  1  0.98439228  0.13864792  0.02176986  1
  O  O105  1  0.47823014  0.01560772  0.63864792  1
  O  O106  1  0.02176986  0.98439228  0.13864792  1
  O  O107  1  0.52176986  0.51560772  0.86135208  1
  O  O108  1  0.02176986  0.51560772  0.63864792  1
  O  O109  1  0.63864792  0.02176986  0.51560772  1
  O  O110  1  0.51560772  0.63864792  0.02176986  1
  O  O111  1  0.98439228  0.36135208  0.52176986  1
  O  O112  1  0.13864792  0.47823014  0.48439228  1
  O  O113  1  0.48439228  0.13864792  0.47823014  1
  O  O114  1  0.86135208  0.97823014  0.01560772  1
  O  O115  1  0.36135208  0.52176986  0.98439228  1
  O  O116  1  0.01560772  0.86135208  0.97823014  1
  O  O117  1  0.52176986  0.98439228  0.36135208  1
  O  O118  1  0.97823014  0.01560772  0.86135208  1
  O  O119  1  0.47823014  0.48439228  0.13864792  1
  O  O120  1  0.89990286  0.42067757  0.22812078  1
  O  O121  1  0.22812078  0.89990286  0.42067757  1
  O  O122  1  0.42067757  0.22812078  0.89990286  1
  O  O123  1  0.07932243  0.77187922  0.39990286  1
  O  O124  1  0.72812078  0.60009714  0.57932243  1
  O  O125  1  0.57932243  0.72812078  0.60009714  1
  O  O126  1  0.27187922  0.10009714  0.92067757  1
  O  O127  1  0.77187922  0.39990286  0.07932243  1
  O  O128  1  0.92067757  0.27187922  0.10009714  1
  O  O129  1  0.39990286  0.07932243  0.77187922  1
  O  O130  1  0.10009714  0.92067757  0.27187922  1
  O  O131  1  0.60009714  0.57932243  0.72812078  1
  O  O132  1  0.10009714  0.57932243  0.77187922  1
  O  O133  1  0.77187922  0.10009714  0.57932243  1
  O  O134  1  0.57932243  0.77187922  0.10009714  1
  O  O135  1  0.92067757  0.22812078  0.60009714  1
  O  O136  1  0.27187922  0.39990286  0.42067757  1
  O  O137  1  0.42067757  0.27187922  0.39990286  1
  O  O138  1  0.72812078  0.89990286  0.07932243  1
  O  O139  1  0.22812078  0.60009714  0.92067757  1
  O  O140  1  0.07932243  0.72812078  0.89990286  1
  O  O141  1  0.60009714  0.92067757  0.22812078  1
  O  O142  1  0.89990286  0.07932243  0.72812078  1
  O  O143  1  0.39990286  0.42067757  0.27187922  1
  P  P0  1  0.95384936  0.22948146  0.33224726  1
  P  P1  1  0.33224726  0.95384936  0.22948146  1
  P  P2  1  0.22948146  0.33224726  0.95384936  1
  P  P3  1  0.27051854  0.66775274  0.45384936  1
  P  P4  1  0.83224726  0.54615064  0.77051854  1
  P  P5  1  0.77051854  0.83224726  0.54615064  1
  P  P6  1  0.16775274  0.04615064  0.72948146  1
  P  P7  1  0.66775274  0.45384936  0.27051854  1
  P  P8  1  0.72948146  0.16775274  0.04615064  1
  P  P9  1  0.45384936  0.27051854  0.66775274  1
  P  P10  1  0.04615064  0.72948146  0.16775274  1
  P  P11  1  0.54615064  0.77051854  0.83224726  1
  P  P12  1  0.04615064  0.77051854  0.66775274  1
  P  P13  1  0.66775274  0.04615064  0.77051854  1
  P  P14  1  0.77051854  0.66775274  0.04615064  1
  P  P15  1  0.72948146  0.33224726  0.54615064  1
  P  P16  1  0.16775274  0.45384936  0.22948146  1
  P  P17  1  0.22948146  0.16775274  0.45384936  1
  P  P18  1  0.83224726  0.95384936  0.27051854  1
  P  P19  1  0.33224726  0.54615064  0.72948146  1
  P  P20  1  0.27051854  0.83224726  0.95384936  1
  P  P21  1  0.54615064  0.72948146  0.33224726  1
  P  P22  1  0.95384936  0.27051854  0.83224726  1
  P  P23  1  0.45384936  0.22948146  0.16775274  1
  P  P24  1  0.98070194  0.42047829  0.28571332  1
  P  P25  1  0.28571332  0.98070194  0.42047829  1
  P  P26  1  0.42047829  0.28571332  0.98070194  1
  P  P27  1  0.07952171  0.71428668  0.48070194  1
  P  P28  1  0.78571332  0.51929806  0.57952171  1
  P  P29  1  0.57952171  0.78571332  0.51929806  1
  P  P30  1  0.21428668  0.01929806  0.92047829  1
  P  P31  1  0.71428668  0.48070194  0.07952171  1
  P  P32  1  0.92047829  0.21428668  0.01929806  1
  P  P33  1  0.48070194  0.07952171  0.71428668  1
  P  P34  1  0.01929806  0.92047829  0.21428668  1
  P  P35  1  0.51929806  0.57952171  0.78571332  1
  P  P36  1  0.01929806  0.57952171  0.71428668  1
  P  P37  1  0.71428668  0.01929806  0.57952171  1
  P  P38  1  0.57952171  0.71428668  0.01929806  1
  P  P39  1  0.92047829  0.28571332  0.51929806  1
  P  P40  1  0.21428668  0.48070194  0.42047829  1
  P  P41  1  0.42047829  0.21428668  0.48070194  1
  P  P42  1  0.78571332  0.98070194  0.07952171  1
  P  P43  1  0.28571332  0.51929806  0.92047829  1
  P  P44  1  0.07952171  0.78571332  0.98070194  1
  P  P45  1  0.51929806  0.92047829  0.28571332  1
  P  P46  1  0.98070194  0.07952171  0.78571332  1
  P  P47  1  0.48070194  0.42047829  0.21428668  1
  In  In0  1  0.81457505  0.31457505  0.18542495  1
  In  In1  1  0.18542495  0.81457505  0.31457505  1
  In  In2  1  0.31457505  0.18542495  0.81457505  1
  In  In3  1  0.68542495  0.68542495  0.68542495  1
  In  In4  1  0.18542495  0.68542495  0.81457505  1
  In  In5  1  0.81457505  0.18542495  0.68542495  1
  In  In6  1  0.68542495  0.81457505  0.18542495  1
  In  In7  1  0.31457505  0.31457505  0.31457505  1
  In  In8  1  0.00000000  0.00000000  0.00000000  1
  In  In9  1  0.50000000  0.00000000  0.50000000  1
  In  In10  1  0.50000000  0.50000000  0.00000000  1
  In  In11  1  0.00000000  0.50000000  0.50000000  1
  Cs  Cs0  1  0.15908765  0.15908765  0.15908765  1
  Cs  Cs1  1  0.34091235  0.84091235  0.65908765  1
  Cs  Cs2  1  0.65908765  0.34091235  0.84091235  1
  Cs  Cs3  1  0.84091235  0.65908765  0.34091235  1
  Cs  Cs4  1  0.84091235  0.84091235  0.84091235  1
  Cs  Cs5  1  0.65908765  0.15908765  0.34091235  1
  Cs  Cs6  1  0.34091235  0.65908765  0.15908765  1
  Cs  Cs7  1  0.15908765  0.34091235  0.65908765  1
  Cs  Cs8  1  0.00000000  0.50000000  0.00000000  1
  Cs  Cs9  1  0.00000000  0.00000000  0.50000000  1
  Cs  Cs10  1  0.50000000  0.00000000  0.00000000  1
  Cs  Cs11  1  0.50000000  0.50000000  0.50000000  1
loop_
_geom_bond_atom_site_label_1
_geom_bond_atom_site_label_2
_geom_bond_distance
_geom_bond_site_symmetry_2
O0 P24 1.604362 1_455
O0 P0 1.639994 1_455
O1 P25 1.604362 1_545
O1 P1 1.639994 1_545
O2 P26 1.604362 1_554
O2 P2 1.639994 1_554
O3 P27 1.604362 1_555
O3 P3 1.639994 1_555
O4 P28 1.604362 1_555
O4 P4 1.639994 1_555
O5 P29 1.604362 1_555
O5 P5 1.639994 1_555
O6 P30 1.604362 1_565
O6 P6 1.639994 1_565
O7 P31 1.604362 1_555
O7 P7 1.639994 1_555
O8 P32 1.604362 1_556
O8 P8 1.639994 1_556
O9 P33 1.604362 1_555
O9 P9 1.639994 1_555
O10 P34 1.604362 1_655
O10 P10 1.639994 1_655
O11 P35 1.604362 1_555
O11 P11 1.639994 1_555
O12 P36 1.604362 1_655
O12 P12 1.639994 1_655
O13 P37 1.604362 1_565
O13 P13 1.639994 1_565
O14 P38 1.604362 1_556
O14 P14 1.639994 1_556
O15 P39 1.604362 1_555
O15 P15 1.639994 1_555
O16 P40 1.604362 1_555
O16 P16 1.639994 1_555
O17 P41 1.604362 1_555
O17 P17 1.639994 1_555
O18 P42 1.604362 1_545
O18 P18 1.639994 1_545
O19 P43 1.604362 1_555
O19 P19 1.639994 1_555
O20 P44 1.604362 1_554
O20 P20 1.639994 1_554
O21 P45 1.604362 1_555
O21 P21 1.639994 1_555
O22 P46 1.604362 1_455
O22 P22 1.639994 1_455
O23 P47 1.604362 1_555
O23 P23 1.639994 1_555
O24 P39 1.596584 1_555
O24 P0 1.630036 1_555
O25 P45 1.596584 1_555
O25 P1 1.630036 1_555
O26 P43 1.596584 1_555
O26 P2 1.630036 1_555
O27 P40 1.596584 1_555
O27 P3 1.630036 1_555
O28 P36 1.596584 1_655
O28 P4 1.630036 1_555
O29 P37 1.596584 1_565
O29 P5 1.630036 1_555
O30 P46 1.596584 1_455
O30 P6 1.630036 1_555
O31 P47 1.596584 1_555
O31 P7 1.630036 1_555
O32 P42 1.596584 1_545
O32 P8 1.630036 1_555
O33 P41 1.596584 1_555
O33 P9 1.630036 1_555
O34 P44 1.596584 1_554
O34 P10 1.630036 1_555
O35 P38 1.596584 1_556
O35 P11 1.630036 1_555
O36 P27 1.596584 1_555
O36 P12 1.630036 1_555
O37 P33 1.596584 1_555
O37 P13 1.630036 1_555
O38 P31 1.596584 1_555
O38 P14 1.630036 1_555
O39 P28 1.596584 1_555
O39 P15 1.630036 1_555
O40 P24 1.596584 1_455
O40 P16 1.630036 1_555
O41 P25 1.596584 1_545
O41 P17 1.630036 1_555
O42 P34 1.596584 1_655
O42 P18 1.630036 1_555
O43 P35 1.596584 1_555
O43 P19 1.630036 1_555
O44 P30 1.596584 1_565
O44 P20 1.630036 1_555
O45 P29 1.596584 1_555
O45 P21 1.630036 1_555
O46 P32 1.596584 1_556
O46 P22 1.630036 1_555
O47 P26 1.596584 1_554
O47 P23 1.630036 1_555
O48 P0 1.473859 1_455
O49 P1 1.473859 1_545
O50 P2 1.473859 1_554
O51 P3 1.473859 1_555
O52 P4 1.473859 1_555
O53 P5 1.473859 1_555
O54 P6 1.473859 1_565
O55 P7 1.473859 1_555
O56 P8 1.473859 1_556
O57 P9 1.473859 1_555
O58 P10 1.473859 1_655
O59 P11 1.473859 1_555
O60 P12 1.473859 1_655
O61 P13 1.473859 1_565
O62 P14 1.473859 1_556
O63 P15 1.473859 1_555
O64 P16 1.473859 1_555
O65 P17 1.473859 1_555
O66 P18 1.473859 1_545
O67 P19 1.473859 1_555
O68 P20 1.473859 1_554
O69 P21 1.473859 1_555
O70 P22 1.473859 1_455
O71 P23 1.473859 1_555
O72 P0 1.521031 1_555
O73 P1 1.521031 1_555
O74 P2 1.521031 1_555
O75 P3 1.521031 1_555
O76 P4 1.521031 1_555
O77 P5 1.521031 1_555
O78 P6 1.521031 1_555
O79 P7 1.521031 1_555
O80 P8 1.521031 1_555
O81 P9 1.521031 1_555
O82 P10 1.521031 1_555
O83 P11 1.521031 1_555
O84 P12 1.521031 1_555
O85 P13 1.521031 1_555
O86 P14 1.521031 1_555
O87 P15 1.521031 1_555
O88 P16 1.521031 1_555
O89 P17 1.521031 1_555
O90 P18 1.521031 1_555
O91 P19 1.521031 1_555
O92 P20 1.521031 1_555
O93 P21 1.521031 1_555
O94 P22 1.521031 1_555
O95 P23 1.521031 1_555
O96 P24 1.504890 1_555
O97 P25 1.504890 1_555
O98 P26 1.504890 1_555
O99 P27 1.504890 1_555
O100 P28 1.504890 1_555
O101 P29 1.504890 1_555
O102 P30 1.504890 1_555
O103 P31 1.504890 1_555
O104 P32 1.504890 1_555
O105 P33 1.504890 1_555
O106 P34 1.504890 1_555
O107 P35 1.504890 1_555
O108 P36 1.504890 1_555
O109 P37 1.504890 1_555
O110 P38 1.504890 1_555
O111 P39 1.504890 1_555
O112 P40 1.504890 1_555
O113 P41 1.504890 1_555
O114 P42 1.504890 1_555
O115 P43 1.504890 1_555
O116 P44 1.504890 1_555
O117 P45 1.504890 1_555
O118 P46 1.504890 1_555
O119 P47 1.504890 1_555
O120 P24 1.507427 1_555
O121 P25 1.507427 1_555
O122 P26 1.507427 1_555
O123 P27 1.507427 1_555
O124 P28 1.507427 1_555
O125 P29 1.507427 1_555
O126 P30 1.507427 1_555
O127 P31 1.507427 1_555
O128 P32 1.507427 1_555
O129 P33 1.507427 1_555
O130 P34 1.507427 1_555
O131 P35 1.507427 1_555
O132 P36 1.507427 1_555
O133 P37 1.507427 1_555
O134 P38 1.507427 1_555
O135 P39 1.507427 1_555
O136 P40 1.507427 1_555
O137 P41 1.507427 1_555
O138 P42 1.507427 1_555
O139 P43 1.507427 1_555
O140 P44 1.507427 1_555
O141 P45 1.507427 1_555
O142 P46 1.507427 1_555
O143 P47 1.507427 1_555
In0 O79 2.144485 1_555
In0 O72 2.144485 1_555
In0 O80 2.144485 1_555
In0 O120 2.167823 1_555
In0 O127 2.167823 1_555
In0 O128 2.167823 1_555
In1 O75 2.144485 1_555
In1 O73 2.144485 1_555
In1 O82 2.144485 1_555
In1 O121 2.167823 1_555
In1 O130 2.167823 1_555
In1 O123 2.167823 1_555
In2 O81 2.144485 1_555
In2 O74 2.144485 1_555
In2 O78 2.144485 1_555
In2 O122 2.167823 1_555
In2 O129 2.167823 1_555
In2 O126 2.167823 1_555
In3 O76 2.144485 1_555
In3 O77 2.144485 1_555
In3 O83 2.144485 1_555
In3 O124 2.167823 1_555
In3 O125 2.167823 1_555
In3 O131 2.167823 1_555
In4 O84 2.144485 1_555
In4 O91 2.144485 1_555
In4 O92 2.144485 1_555
In4 O139 2.167823 1_555
In4 O132 2.167823 1_555
In4 O140 2.167823 1_555
In5 O85 2.144485 1_555
In5 O94 2.144485 1_555
In5 O87 2.144485 1_555
In5 O135 2.167823 1_555
In5 O133 2.167823 1_555
In5 O142 2.167823 1_555
In6 O86 2.144485 1_555
In6 O90 2.144485 1_555
In6 O93 2.144485 1_555
In6 O134 2.167823 1_555
In6 O141 2.167823 1_555
In6 O138 2.167823 1_555
In7 O88 2.144485 1_555
In7 O95 2.144485 1_555
In7 O89 2.144485 1_555
In7 O143 2.167823 1_555
In7 O136 2.167823 1_555
In7 O137 2.167823 1_555
In8 O102 2.145309 1_554
In8 O106 2.145309 1_545
In8 O104 2.145309 1_455
In8 O114 2.145309 1_445
In8 O116 2.145309 1_544
In8 O118 2.145309 1_454
In9 O97 2.145309 1_545
In9 O117 2.145309 1_545
In9 O113 2.145309 1_555
In9 O109 2.145309 1_555
In9 O101 2.145309 1_545
In9 O105 2.145309 1_555
In10 O98 2.145309 1_554
In10 O115 2.145309 1_554
In10 O119 2.145309 1_555
In10 O110 2.145309 1_555
In10 O103 2.145309 1_555
In10 O107 2.145309 1_554
In11 O111 2.145309 1_455
In11 O96 2.145309 1_455
In11 O112 2.145309 1_555
In11 O100 2.145309 1_455
In11 O99 2.145309 1_555
In11 O108 2.145309 1_555
Cs0 O49 3.136418 1_555
Cs0 O48 3.136418 1_555
Cs0 O50 3.136418 1_555
Cs0 O89 3.377663 1_555
Cs0 O88 3.377663 1_555
Cs0 O95 3.377663 1_555
Cs0 O106 3.390006 1_545
Cs0 O104 3.390006 1_455
Cs0 O102 3.390006 1_554
Cs1 O54 3.136418 1_555
Cs1 O51 3.136418 1_555
Cs1 O59 3.136418 1_555
Cs1 O92 3.377663 1_555
Cs1 O91 3.377663 1_555
Cs1 O84 3.377663 1_555
Cs1 O97 3.390006 1_555
Cs1 O101 3.390006 1_555
Cs1 O105 3.390006 1_565
Cs2 O52 3.136418 1_555
Cs2 O57 3.136418 1_555
Cs2 O56 3.136418 1_555
Cs2 O87 3.377663 1_555
Cs2 O94 3.377663 1_555
Cs2 O85 3.377663 1_555
Cs2 O107 3.390006 1_555
Cs2 O98 3.390006 1_555
Cs2 O103 3.390006 1_556
Cs3 O55 3.136418 1_555
Cs3 O58 3.136418 1_555
Cs3 O53 3.136418 1_555
Cs3 O93 3.377663 1_555
Cs3 O90 3.377663 1_555
Cs3 O86 3.377663 1_555
Cs3 O96 3.390006 1_555
Cs3 O100 3.390006 1_555
Cs3 O99 3.390006 1_655
Cs4 O60 3.136418 1_555
Cs4 O61 3.136418 1_555
Cs4 O62 3.136418 1_555
Cs4 O76 3.377663 1_555
Cs4 O77 3.377663 1_555
Cs4 O83 3.377663 1_555
Cs4 O118 3.390006 1_565
Cs4 O114 3.390006 1_556
Cs4 O116 3.390006 1_655
Cs5 O66 3.136418 1_555
Cs5 O71 3.136418 1_555
Cs5 O63 3.136418 1_555
Cs5 O79 3.377663 1_555
Cs5 O72 3.377663 1_555
Cs5 O80 3.377663 1_555
Cs5 O117 3.390006 1_545
Cs5 O109 3.390006 1_555
Cs5 O113 3.390006 1_555
Cs6 O64 3.136418 1_555
Cs6 O68 3.136418 1_555
Cs6 O69 3.136418 1_555
Cs6 O82 3.377663 1_555
Cs6 O73 3.377663 1_555
Cs6 O75 3.377663 1_555
Cs6 O115 3.390006 1_554
Cs6 O110 3.390006 1_555
Cs6 O119 3.390006 1_555
Cs7 O70 3.136418 1_555
Cs7 O65 3.136418 1_555
Cs7 O67 3.136418 1_555
Cs7 O74 3.377663 1_555
Cs7 O78 3.377663 1_555
Cs7 O81 3.377663 1_555
Cs7 O111 3.390006 1_455
Cs7 O108 3.390006 1_555
Cs7 O112 3.390006 1_555
Cs8 O46 3.605505 1_454
Cs8 O28 3.605505 1_454
Cs8 O38 3.605505 1_455
Cs8 O26 3.605505 1_554
Cs8 O34 3.605505 1_555
Cs8 O40 3.605505 1_555
Cs9 O42 3.605505 1_445
Cs9 O29 3.605505 1_445
Cs9 O30 3.605505 1_555
Cs9 O36 3.605505 1_545
Cs9 O24 3.605505 1_455
Cs9 O41 3.605505 1_555
Cs10 O35 3.605505 1_544
Cs10 O44 3.605505 1_544
Cs10 O25 3.605505 1_545
Cs10 O37 3.605505 1_554
Cs10 O47 3.605505 1_555
Cs10 O32 3.605505 1_555
Cs11 O45 3.605505 1_555
Cs11 O27 3.605505 1_555
Cs11 O39 3.605505 1_555
Cs11 O33 3.605505 1_555
Cs11 O31 3.605505 1_555
Cs11 O43 3.605505 1_555
