# generated using pymatgen
data_Cs3H(SeO4)2
_symmetry_space_group_name_H-M   'P 1'
_cell_length_a   6.50205100
_cell_length_b   8.72888400
_cell_length_c   11.05596401
_cell_angle_alpha   68.20416052
_cell_angle_beta   90.00000000
_cell_angle_gamma   90.00000000
_symmetry_Int_Tables_number   1
_chemical_formula_structural   Cs3H(SeO4)2
_chemical_formula_sum   'Cs6 H2 Se4 O16'
_cell_volume   582.63101679
_cell_formula_units_Z   2
loop_
 _symmetry_equiv_pos_site_id
 _symmetry_equiv_pos_as_xyz
  1  'x, y, z'
loop_
 _atom_site_type_symbol
 _atom_site_label
 _atom_site_symmetry_multiplicity
 _atom_site_fract_x
 _atom_site_fract_y
 _atom_site_fract_z
 _atom_site_occupancy
  Cs  Cs0  1  0.25000000  0.00254700  0.26259800  1
  Cs  Cs1  1  0.75000000  0.99745300  0.73740200  1
  Cs  Cs2  1  0.25000000  0.38624500  0.44831700  1
  Cs  Cs3  1  0.75000000  0.61375500  0.55168300  1
  Cs  Cs4  1  0.25000000  0.60367500  0.05189400  1
  Cs  Cs5  1  0.75000000  0.39632500  0.94810600  1
  H  H0  1  0.25000000  0.00184700  0.77476000  1
  H  H1  1  0.75000000  0.99815300  0.22524000  1
  Se  Se0  1  0.25000000  0.76585300  0.67886300  1
  Se  Se1  1  0.75000000  0.23414700  0.32113700  1
  Se  Se2  1  0.25000000  0.23721100  0.82391700  1
  Se  Se3  1  0.75000000  0.76278900  0.17608300  1
  O  O0  1  0.03778900  0.68777200  0.76601400  1
  O  O1  1  0.53778900  0.31222800  0.23398600  1
  O  O2  1  0.96221100  0.31222800  0.23398600  1
  O  O3  1  0.46221100  0.68777200  0.76601400  1
  O  O4  1  0.25000000  0.97327100  0.64701100  1
  O  O5  1  0.75000000  0.02672900  0.35298900  1
  O  O6  1  0.25000000  0.73271700  0.53960800  1
  O  O7  1  0.75000000  0.26728300  0.46039200  1
  O  O8  1  0.03699800  0.30480300  0.73756300  1
  O  O9  1  0.53699800  0.69519700  0.26243700  1
  O  O10  1  0.96300200  0.69519700  0.26243700  1
  O  O11  1  0.46300200  0.30480300  0.73756300  1
  O  O12  1  0.25000000  0.02006700  0.86395800  1
  O  O13  1  0.75000000  0.97993300  0.13604200  1
  O  O14  1  0.25000000  0.25823600  0.96637100  1
  O  O15  1  0.75000000  0.74176400  0.03362900  1
loop_
_geom_bond_atom_site_label_1
_geom_bond_atom_site_label_2
_geom_bond_distance
_geom_bond_site_symmetry_2
Cs0 O6 3.093609 1_545
Cs0 O2 3.205254 1_455
Cs0 O1 3.205254 1_555
Cs0 O14 3.206136 1_554
Cs0 O9 3.268535 1_545
Cs0 O10 3.268535 1_445
Cs1 O7 3.093609 1_565
Cs1 O3 3.205254 1_555
Cs1 O0 3.205254 1_655
Cs1 O15 3.206136 1_556
Cs1 O11 3.268535 1_565
Cs1 O8 3.268535 1_665
Cs2 O2 3.266646 1_455
Cs2 O1 3.266646 1_555
Cs2 O9 3.295869 1_555
Cs2 O10 3.295869 1_455
Cs2 O11 3.310857 1_555
Cs2 O8 3.310857 1_555
Cs2 O7 3.400343 1_555
Cs2 O7 3.400343 1_455
Cs2 O4 3.455397 1_545
Cs2 O6 3.525897 1_555
Cs3 O3 3.266646 1_555
Cs3 O0 3.266646 1_655
Cs3 O11 3.295869 1_555
Cs3 O8 3.295869 1_655
Cs3 O10 3.310857 1_555
Cs3 O9 3.310857 1_555
Cs3 O6 3.400343 1_655
Cs3 O6 3.400343 1_555
Cs3 O5 3.455397 1_565
Cs3 O7 3.525897 1_555
Cs4 O1 3.197360 1_555
Cs4 O2 3.197360 1_455
Cs4 O3 3.272562 1_554
Cs4 O0 3.272562 1_554
Cs4 O9 3.304520 1_555
Cs4 O10 3.304520 1_455
Cs4 O15 3.447041 1_455
Cs4 O15 3.447041 1_555
Cs4 O12 3.452492 1_564
Cs4 O14 3.478976 1_554
Cs5 O3 3.197360 1_555
Cs5 O0 3.197360 1_655
Cs5 O1 3.272562 1_556
Cs5 O2 3.272562 1_556
Cs5 O11 3.304520 1_555
Cs5 O8 3.304520 1_655
Cs5 O14 3.447041 1_555
Cs5 O14 3.447041 1_655
Cs5 O13 3.452492 1_546
Cs5 O15 3.478976 1_556
H0 O12 1.055602 1_555
H0 O4 1.522721 1_545
H1 O13 1.055602 1_555
H1 O5 1.522721 1_565
O0 Se0 1.676044 1_555
O1 Se1 1.676044 1_555
O2 Se1 1.676044 1_555
O3 Se0 1.676044 1_555
O4 Se0 1.711301 1_555
O5 Se1 1.711301 1_555
O6 Se0 1.668746 1_555
O7 Se1 1.668746 1_555
O8 Se2 1.661142 1_555
O9 Se3 1.661142 1_555
O10 Se3 1.661142 1_555
O11 Se2 1.661142 1_555
O12 Se2 1.779186 1_555
O13 Se3 1.779186 1_555
O14 Se2 1.651922 1_555
O15 Se3 1.651922 1_555
