# generated using pymatgen
data_BaCa(BiO2)4
_symmetry_space_group_name_H-M   'P 1'
_cell_length_a   6.40460867
_cell_length_b   6.40460867
_cell_length_c   7.61679600
_cell_angle_alpha   90.00000000
_cell_angle_beta   90.00000000
_cell_angle_gamma   120.00000689
_symmetry_Int_Tables_number   1
_chemical_formula_structural   BaCa(BiO2)4
_chemical_formula_sum   'Ba1 Ca1 Bi4 O8'
_cell_volume   270.57528409
_cell_formula_units_Z   1
loop_
 _symmetry_equiv_pos_site_id
 _symmetry_equiv_pos_as_xyz
  1  'x, y, z'
loop_
 _atom_site_type_symbol
 _atom_site_label
 _atom_site_symmetry_multiplicity
 _atom_site_fract_x
 _atom_site_fract_y
 _atom_site_fract_z
 _atom_site_occupancy
  Ba  Ba0  1  0.00000000  0.00000000  0.00000000  1
  Ca  Ca0  1  0.00000000  0.00000000  0.50000000  1
  Bi  Bi0  1  0.33333300  0.66666700  0.72461600  1
  Bi  Bi1  1  0.66666700  0.33333300  0.72461600  1
  Bi  Bi2  1  0.33333300  0.66666700  0.27538400  1
  Bi  Bi3  1  0.66666700  0.33333300  0.27538400  1
  O  O0  1  0.28958300  0.28958300  0.70950900  1
  O  O1  1  0.71041700  0.00000000  0.70950900  1
  O  O2  1  0.00000000  0.71041700  0.70950900  1
  O  O3  1  0.71041700  0.71041700  0.29049100  1
  O  O4  1  0.00000000  0.28958300  0.29049100  1
  O  O5  1  0.28958300  0.00000000  0.29049100  1
  O  O6  1  0.33333300  0.66666700  0.00000000  1
  O  O7  1  0.66666700  0.33333300  0.00000000  1
loop_
_geom_bond_atom_site_label_1
_geom_bond_atom_site_label_2
_geom_bond_distance
_geom_bond_site_symmetry_2
Ba0 O0 2.887115 1_554
Ba0 O3 2.887115 1_445
Ba0 O1 2.887115 1_454
Ba0 O2 2.887115 1_544
Ba0 O4 2.887115 1_555
Ba0 O5 2.887115 1_555
Ca0 O0 2.446696 1_555
Ca0 O3 2.446696 1_445
Ca0 O2 2.446696 1_545
Ca0 O1 2.446696 1_455
Ca0 O4 2.446696 1_555
Ca0 O5 2.446696 1_555
Bi0 O6 2.097544 1_556
Bi0 O2 2.290765 1_555
Bi0 O1 2.290769 1_565
Bi0 O0 2.290772 1_555
Bi1 O7 2.097544 1_556
Bi1 O1 2.290765 1_555
Bi1 O2 2.290769 1_655
Bi1 O0 2.290772 1_555
Bi2 O6 2.097544 1_555
Bi2 O5 2.290765 1_565
Bi2 O4 2.290769 1_555
Bi2 O3 2.290772 1_555
Bi3 O7 2.097544 1_555
Bi3 O4 2.290765 1_655
Bi3 O5 2.290769 1_555
Bi3 O3 2.290772 1_555
