# generated using pymatgen
data_ZnFeP2O7
_symmetry_space_group_name_H-M   'P 1'
_cell_length_a   8.50491600
_cell_length_b   7.08608300
_cell_length_c   9.20259391
_cell_angle_alpha   67.46772455
_cell_angle_beta   90.00000000
_cell_angle_gamma   90.00000000
_symmetry_Int_Tables_number   1
_chemical_formula_structural   ZnFeP2O7
_chemical_formula_sum   'Zn4 Fe4 P8 O28'
_cell_volume   512.27180327
_cell_formula_units_Z   4
loop_
 _symmetry_equiv_pos_site_id
 _symmetry_equiv_pos_as_xyz
  1  'x, y, z'
loop_
 _atom_site_type_symbol
 _atom_site_label
 _atom_site_symmetry_multiplicity
 _atom_site_fract_x
 _atom_site_fract_y
 _atom_site_fract_z
 _atom_site_occupancy
  Zn  Zn0  1  0.94198600  0.30392300  0.81734000  1
  Zn  Zn1  1  0.44198600  0.69607700  0.68266000  1
  Zn  Zn2  1  0.55801400  0.30392300  0.31734000  1
  Zn  Zn3  1  0.05801400  0.69607700  0.18266000  1
  Fe  Fe0  1  0.06897600  0.76764400  0.60693100  1
  Fe  Fe1  1  0.93102400  0.23235600  0.39306900  1
  Fe  Fe2  1  0.56897600  0.23235600  0.89306900  1
  Fe  Fe3  1  0.43102400  0.76764400  0.10693100  1
  P  P0  1  0.73384000  0.93844500  0.24238400  1
  P  P1  1  0.22556600  0.46627500  0.96957300  1
  P  P2  1  0.76616000  0.93844500  0.74238400  1
  P  P3  1  0.27443400  0.46627500  0.46957300  1
  P  P4  1  0.23384000  0.06155500  0.25761600  1
  P  P5  1  0.72556600  0.53372500  0.53042700  1
  P  P6  1  0.77443400  0.53372500  0.03042700  1
  P  P7  1  0.26616000  0.06155500  0.75761600  1
  O  O0  1  0.17654100  0.25130300  0.10142100  1
  O  O1  1  0.60971500  0.88988600  0.68661700  1
  O  O2  1  0.89028500  0.88988600  0.18661700  1
  O  O3  1  0.38711400  0.44763300  0.89880600  1
  O  O4  1  0.82345900  0.74869700  0.89857900  1
  O  O5  1  0.09989300  0.02877600  0.37757100  1
  O  O6  1  0.61288600  0.55236700  0.10119400  1
  O  O7  1  0.09179200  0.51216100  0.84872400  1
  O  O8  1  0.26662200  0.62312100  0.54823300  1
  O  O9  1  0.90010700  0.97122400  0.62242900  1
  O  O10  1  0.40010700  0.02877600  0.87757100  1
  O  O11  1  0.75954800  0.11863300  0.79726100  1
  O  O12  1  0.25954800  0.88136700  0.70273900  1
  O  O13  1  0.32345900  0.25130300  0.60142100  1
  O  O14  1  0.59989300  0.97122400  0.12242900  1
  O  O15  1  0.10971500  0.11011400  0.81338300  1
  O  O16  1  0.24045200  0.88136700  0.20273900  1
  O  O17  1  0.90820800  0.48783900  0.15127600  1
  O  O18  1  0.23337800  0.62312100  0.04823300  1
  O  O19  1  0.76662200  0.37687900  0.95176700  1
  O  O20  1  0.88711400  0.55236700  0.60119400  1
  O  O21  1  0.40820800  0.51216100  0.34872400  1
  O  O22  1  0.59179200  0.48783900  0.65127600  1
  O  O23  1  0.39028500  0.11011400  0.31338300  1
  O  O24  1  0.74045200  0.11863300  0.29726100  1
  O  O25  1  0.11288600  0.44763300  0.39880600  1
  O  O26  1  0.73337800  0.37687900  0.45176700  1
  O  O27  1  0.67654100  0.74869700  0.39857900  1
loop_
_geom_bond_atom_site_label_1
_geom_bond_atom_site_label_2
_geom_bond_distance
_geom_bond_site_symmetry_2
Fe0 O9 2.078892 1_455
Fe0 O8 2.142470 1_555
Fe0 O12 2.144361 1_555
Fe0 O20 2.187217 1_455
Fe0 O5 2.225958 1_565
Fe0 O7 2.275732 1_555
Fe1 O5 2.078892 1_655
Fe1 O26 2.142470 1_555
Fe1 O24 2.144361 1_555
Fe1 O25 2.187217 1_655
Fe1 O9 2.225958 1_545
Fe1 O17 2.275732 1_555
Fe2 O10 2.078892 1_555
Fe2 O19 2.142470 1_555
Fe2 O11 2.144361 1_555
Fe2 O3 2.187217 1_555
Fe2 O14 2.225958 1_546
Fe2 O22 2.275732 1_555
Fe3 O14 2.078892 1_555
Fe3 O18 2.142470 1_555
Fe3 O16 2.144361 1_555
Fe3 O6 2.187217 1_555
Fe3 O10 2.225958 1_564
Fe3 O21 2.275732 1_555
O0 P1 1.596864 1_554
O0 P4 1.621803 1_555
O1 P2 1.512442 1_555
O1 Zn1 1.990150 1_555
O2 P0 1.512442 1_555
O2 Zn3 1.990150 1_655
O3 P1 1.547657 1_555
O3 Zn1 2.142395 1_555
O4 P6 1.596864 1_556
O4 P2 1.621803 1_555
O5 P4 1.540721 1_555
O6 P6 1.547657 1_555
O6 Zn2 2.142395 1_555
O7 P1 1.536180 1_555
O7 Zn0 2.052000 1_455
O8 P3 1.542814 1_555
O8 Zn1 2.124195 1_555
O9 P2 1.540721 1_555
O10 P7 1.540721 1_555
O11 P2 1.543591 1_545
O11 Zn0 2.086031 1_555
O12 P7 1.543591 1_565
O12 Zn1 2.086031 1_555
O13 P3 1.596864 1_555
O13 P7 1.621803 1_555
O14 P0 1.540721 1_555
O15 P7 1.512442 1_555
O15 Zn0 1.990150 1_455
O16 P4 1.543591 1_565
O16 Zn3 2.086031 1_555
O17 P6 1.536180 1_555
O17 Zn3 2.052000 1_655
O18 P1 1.542814 1_554
O18 Zn3 2.124195 1_555
O19 P6 1.542814 1_556
O19 Zn0 2.124195 1_555
O20 P5 1.547657 1_555
O20 Zn0 2.142395 1_555
O21 P3 1.536180 1_555
O21 Zn2 2.052000 1_555
O22 P5 1.536180 1_555
O22 Zn1 2.052000 1_555
O23 P4 1.512442 1_555
O23 Zn2 1.990150 1_555
O24 P0 1.543591 1_545
O24 Zn2 2.086031 1_555
O25 P3 1.547657 1_555
O25 Zn3 2.142395 1_555
O26 P5 1.542814 1_555
O26 Zn2 2.124195 1_555
O27 P5 1.596864 1_555
O27 P0 1.621803 1_555
