# generated using pymatgen
data_RbC
_symmetry_space_group_name_H-M   'P 1'
_cell_length_a   4.80064900
_cell_length_b   9.47494900
_cell_length_c   9.85475000
_cell_angle_alpha   90.00000000
_cell_angle_beta   90.00000000
_cell_angle_gamma   90.00000000
_symmetry_Int_Tables_number   1
_chemical_formula_structural   RbC
_chemical_formula_sum   'Rb8 C8'
_cell_volume   448.25221680
_cell_formula_units_Z   8
loop_
 _symmetry_equiv_pos_site_id
 _symmetry_equiv_pos_as_xyz
  1  'x, y, z'
loop_
 _atom_site_type_symbol
 _atom_site_label
 _atom_site_symmetry_multiplicity
 _atom_site_fract_x
 _atom_site_fract_y
 _atom_site_fract_z
 _atom_site_occupancy
  Rb  Rb0  1  0.25000000  0.98707800  0.66854400  1
  Rb  Rb1  1  0.75000000  0.01292200  0.33145600  1
  Rb  Rb2  1  0.25000000  0.48707800  0.83145600  1
  Rb  Rb3  1  0.75000000  0.51292200  0.16854400  1
  Rb  Rb4  1  0.25000000  0.33917600  0.42774300  1
  Rb  Rb5  1  0.75000000  0.66082400  0.57225700  1
  Rb  Rb6  1  0.25000000  0.83917600  0.07225700  1
  Rb  Rb7  1  0.75000000  0.16082400  0.92774300  1
  C  C0  1  0.25000000  0.66872100  0.35333800  1
  C  C1  1  0.75000000  0.33127900  0.64666200  1
  C  C2  1  0.25000000  0.16872100  0.14666200  1
  C  C3  1  0.75000000  0.83127900  0.85333800  1
  C  C4  1  0.25000000  0.78942300  0.40932800  1
  C  C5  1  0.75000000  0.21057700  0.59067200  1
  C  C6  1  0.25000000  0.28942300  0.09067200  1
  C  C7  1  0.75000000  0.71057700  0.90932800  1
loop_
_geom_bond_atom_site_label_1
_geom_bond_atom_site_label_2
_geom_bond_distance
_geom_bond_site_symmetry_2
C0 C4 1.269792 1_555
C0 Rb6 3.206431 1_555
C0 Rb4 3.207361 1_555
C0 Rb5 3.228234 1_455
C0 Rb5 3.228234 1_555
C0 Rb3 3.355158 1_555
C0 Rb3 3.355158 1_455
C1 C5 1.269792 1_555
C1 Rb7 3.206431 1_555
C1 Rb5 3.207361 1_555
C1 Rb4 3.228234 1_655
C1 Rb4 3.228234 1_555
C1 Rb2 3.355158 1_555
C1 Rb2 3.355158 1_655
C2 C6 1.269792 1_555
C2 Rb4 3.206431 1_555
C2 Rb6 3.207361 1_545
C2 Rb7 3.228234 1_454
C2 Rb7 3.228234 1_554
C2 Rb1 3.355158 1_555
C2 Rb1 3.355158 1_455
C3 C7 1.269792 1_555
C3 Rb5 3.206431 1_555
C3 Rb7 3.207361 1_565
C3 Rb6 3.228234 1_556
C3 Rb6 3.228234 1_656
C3 Rb0 3.355158 1_655
C3 Rb0 3.355158 1_555
C4 Rb5 3.134367 1_455
C4 Rb5 3.134367 1_555
C4 Rb0 3.167457 1_555
C4 Rb1 3.291638 1_565
C4 Rb1 3.291638 1_465
C4 Rb6 3.355034 1_555
C5 Rb4 3.134367 1_555
C5 Rb4 3.134367 1_655
C5 Rb1 3.167457 1_555
C5 Rb0 3.291638 1_645
C5 Rb0 3.291638 1_545
C5 Rb7 3.355034 1_555
C6 Rb7 3.134367 1_454
C6 Rb7 3.134367 1_554
C6 Rb2 3.167457 1_554
C6 Rb3 3.291638 1_455
C6 Rb3 3.291638 1_555
C6 Rb4 3.355034 1_555
C7 Rb6 3.134367 1_556
C7 Rb6 3.134367 1_656
C7 Rb3 3.167457 1_556
C7 Rb2 3.291638 1_655
C7 Rb2 3.291638 1_555
C7 Rb5 3.355034 1_555
