# generated using pymatgen
data_Mg6AlB
_symmetry_space_group_name_H-M   'P 1'
_cell_length_a   4.95609600
_cell_length_b   5.98635100
_cell_length_c   10.46160100
_cell_angle_alpha   90.00000000
_cell_angle_beta   90.00000000
_cell_angle_gamma   90.00000000
_symmetry_Int_Tables_number   1
_chemical_formula_structural   Mg6AlB
_chemical_formula_sum   'Mg12 Al2 B2'
_cell_volume   310.38451033
_cell_formula_units_Z   2
loop_
 _symmetry_equiv_pos_site_id
 _symmetry_equiv_pos_as_xyz
  1  'x, y, z'
loop_
 _atom_site_type_symbol
 _atom_site_label
 _atom_site_symmetry_multiplicity
 _atom_site_fract_x
 _atom_site_fract_y
 _atom_site_fract_z
 _atom_site_occupancy
  Mg  Mg0  1  0.00000000  0.26009300  0.08897200  1
  Mg  Mg1  1  0.00000000  0.73990700  0.08897200  1
  Mg  Mg2  1  0.00000000  0.00000000  0.33372800  1
  Mg  Mg3  1  0.50000000  0.74618400  0.41261100  1
  Mg  Mg4  1  0.50000000  0.25381600  0.41261100  1
  Mg  Mg5  1  0.50000000  0.00000000  0.16606200  1
  Mg  Mg6  1  0.00000000  0.76009300  0.58897200  1
  Mg  Mg7  1  0.00000000  0.23990700  0.58897200  1
  Mg  Mg8  1  0.00000000  0.50000000  0.83372800  1
  Mg  Mg9  1  0.50000000  0.24618400  0.91261100  1
  Mg  Mg10  1  0.50000000  0.75381600  0.91261100  1
  Mg  Mg11  1  0.50000000  0.50000000  0.66606200  1
  Al  Al0  1  0.00000000  0.50000000  0.33169700  1
  Al  Al1  1  0.00000000  0.00000000  0.83169700  1
  B  B0  1  0.50000000  0.50000000  0.16534700  1
  B  B1  1  0.50000000  0.00000000  0.66534700  1
loop_
_geom_bond_atom_site_label_1
_geom_bond_atom_site_label_2
_geom_bond_distance
_geom_bond_site_symmetry_2
Mg0 Mg1 2.872335 1_555
Mg0 Mg2 2.996771 1_555
Mg0 Mg8 3.031975 1_554
Mg0 Mg5 3.035690 1_555
Mg0 Mg5 3.035690 1_455
Mg0 Mg9 3.090590 1_454
Mg0 Mg9 3.090590 1_554
Mg0 Mg1 3.114016 1_545
Mg1 Mg2 2.996771 1_565
Mg1 Mg8 3.031975 1_554
Mg1 Mg5 3.035690 1_465
Mg1 Mg5 3.035690 1_565
Mg1 Mg10 3.090590 1_454
Mg1 Mg10 3.090590 1_554
Mg2 Mg4 3.021658 1_455
Mg2 Mg4 3.021658 1_555
Mg2 Mg3 3.021658 1_545
Mg2 Mg3 3.021658 1_445
Mg2 Mg7 3.031975 1_555
Mg2 Mg6 3.031975 1_545
Mg2 Mg5 3.036022 1_455
Mg2 Mg5 3.036022 1_555
Mg3 Mg4 2.947488 1_555
Mg3 Mg5 2.993568 1_565
Mg3 Mg4 3.038863 1_565
Mg3 Mg6 3.090590 1_555
Mg3 Mg6 3.090590 1_655
Mg4 Mg5 2.993568 1_555
Mg4 Mg7 3.090590 1_655
Mg4 Mg7 3.090590 1_555
Mg5 Mg9 3.033544 1_554
Mg6 Mg7 2.872335 1_565
Mg6 Mg8 2.996771 1_555
Mg6 Mg7 3.114016 1_555
Mg7 Mg8 2.996771 1_555
Mg8 Mg9 3.021658 1_455
Mg8 Mg9 3.021658 1_555
Mg10 Mg9 2.947488 1_565
Mg10 Mg11 2.993568 1_555
Mg10 Mg8 3.021658 1_655
Mg10 Mg8 3.021658 1_555
Mg10 Mg5 3.033544 1_566
Mg10 Mg9 3.038863 1_555
Mg11 Mg9 2.993568 1_555
Mg11 Mg3 3.033544 1_555
Mg11 Mg4 3.033544 1_555
Mg11 Mg6 3.035690 1_555
Mg11 Mg6 3.035690 1_655
Mg11 Mg7 3.035690 1_555
Mg11 Mg7 3.035690 1_655
Mg11 Mg8 3.036022 1_655
Mg11 Mg8 3.036022 1_555
Al0 Mg1 2.917290 1_555
Al0 Mg0 2.917290 1_555
Al0 Mg2 2.993251 1_555
Al0 Mg2 2.993251 1_565
Al0 Mg3 3.004861 1_455
Al0 Mg3 3.004861 1_555
Al0 Mg4 3.004861 1_555
Al0 Mg4 3.004861 1_455
Al0 Mg6 3.109420 1_555
Al0 Mg7 3.109420 1_555
Al1 Mg7 2.917290 1_555
Al1 Mg6 2.917290 1_545
Al1 Mg8 2.993251 1_555
Al1 Mg8 2.993251 1_545
Al1 Mg9 3.004861 1_555
Al1 Mg9 3.004861 1_455
Al1 Mg10 3.004861 1_445
Al1 Mg10 3.004861 1_545
Al1 Mg0 3.109420 1_556
Al1 Mg1 3.109420 1_546
B0 Mg1 2.973501 1_555
B0 Mg1 2.973501 1_655
B0 Mg0 2.973501 1_655
B0 Mg0 2.973501 1_555
B0 Mg3 2.977136 1_555
B0 Mg4 2.977136 1_555
B0 Mg5 2.993185 1_555
B0 Mg5 2.993185 1_565
B0 Mg10 3.049513 1_554
B0 Mg9 3.049513 1_554
B1 Mg7 2.973501 1_555
B1 Mg7 2.973501 1_655
B1 Mg6 2.973501 1_545
B1 Mg6 2.973501 1_645
B1 Mg9 2.977136 1_555
B1 Mg10 2.977136 1_545
B1 Mg11 2.993185 1_555
B1 Mg11 2.993185 1_545
B1 Mg3 3.049513 1_545
B1 Mg4 3.049513 1_555
