# generated using pymatgen
data_Nd23Mg4Ni7
_symmetry_space_group_name_H-M   'P 1'
_cell_length_a   9.96006588
_cell_length_b   9.96006588
_cell_length_c   22.52265946
_cell_angle_alpha   90.00000000
_cell_angle_beta   90.00000000
_cell_angle_gamma   120.00000054
_symmetry_Int_Tables_number   1
_chemical_formula_structural   Nd23Mg4Ni7
_chemical_formula_sum   'Nd46 Mg8 Ni14'
_cell_volume   1934.97216472
_cell_formula_units_Z   2
loop_
 _symmetry_equiv_pos_site_id
 _symmetry_equiv_pos_as_xyz
  1  'x, y, z'
loop_
 _atom_site_type_symbol
 _atom_site_label
 _atom_site_symmetry_multiplicity
 _atom_site_fract_x
 _atom_site_fract_y
 _atom_site_fract_z
 _atom_site_occupancy
  Nd  Nd0  1  0.20748547  0.41497095  0.71892052  1
  Nd  Nd1  1  0.20748547  0.79251453  0.71892052  1
  Nd  Nd2  1  0.79251453  0.58502905  0.21892052  1
  Nd  Nd3  1  0.58502905  0.79251453  0.71892052  1
  Nd  Nd4  1  0.79251453  0.20748547  0.21892052  1
  Nd  Nd5  1  0.41497095  0.20748547  0.21892052  1
  Nd  Nd6  1  0.79211087  0.58422175  0.94788273  1
  Nd  Nd7  1  0.79211087  0.20788913  0.94788273  1
  Nd  Nd8  1  0.20788913  0.41577825  0.44788273  1
  Nd  Nd9  1  0.41577825  0.20788913  0.94788273  1
  Nd  Nd10  1  0.20788913  0.79211087  0.44788273  1
  Nd  Nd11  1  0.58422175  0.79211087  0.44788273  1
  Nd  Nd12  1  0.21074541  0.42149082  0.99115499  1
  Nd  Nd13  1  0.21074541  0.78925459  0.99115499  1
  Nd  Nd14  1  0.78925459  0.57850918  0.49115499  1
  Nd  Nd15  1  0.57850918  0.78925459  0.99115499  1
  Nd  Nd16  1  0.78925459  0.21074541  0.49115499  1
  Nd  Nd17  1  0.42149082  0.21074541  0.49115499  1
  Nd  Nd18  1  0.87129623  0.74259246  0.63451074  1
  Nd  Nd19  1  0.87129623  0.12870377  0.63451074  1
  Nd  Nd20  1  0.12870377  0.25740754  0.13451074  1
  Nd  Nd21  1  0.25740754  0.12870377  0.63451074  1
  Nd  Nd22  1  0.12870377  0.87129623  0.13451074  1
  Nd  Nd23  1  0.74259246  0.87129623  0.13451074  1
  Nd  Nd24  1  0.45776248  0.91552495  0.85614547  1
  Nd  Nd25  1  0.45776248  0.54223752  0.85614547  1
  Nd  Nd26  1  0.54223752  0.08447505  0.35614547  1
  Nd  Nd27  1  0.08447505  0.54223752  0.85614547  1
  Nd  Nd28  1  0.54223752  0.45776248  0.35614547  1
  Nd  Nd29  1  0.91552495  0.45776248  0.35614547  1
  Nd  Nd30  1  -0.00000000  -0.00000000  0.00037668  1
  Nd  Nd31  1  -0.00000000  -0.00000000  0.50037668  1
  Nd  Nd32  1  0.46008773  0.92017545  0.58527519  1
  Nd  Nd33  1  0.46008773  0.53991227  0.58527519  1
  Nd  Nd34  1  0.53991227  0.07982455  0.08527519  1
  Nd  Nd35  1  0.07982455  0.53991227  0.58527519  1
  Nd  Nd36  1  0.53991227  0.46008773  0.08527519  1
  Nd  Nd37  1  0.92017545  0.46008773  0.08527519  1
  Nd  Nd38  1  0.79466490  0.58932980  0.78180293  1
  Nd  Nd39  1  0.79466490  0.20533510  0.78180293  1
  Nd  Nd40  1  0.20533510  0.41067020  0.28180293  1
  Nd  Nd41  1  0.41067020  0.20533510  0.78180293  1
  Nd  Nd42  1  0.20533510  0.79466490  0.28180293  1
  Nd  Nd43  1  0.58932980  0.79466490  0.28180293  1
  Nd  Nd44  1  0.66666700  0.33333300  0.64498355  1
  Nd  Nd45  1  0.33333300  0.66666700  0.14498355  1
  Mg  Mg0  1  -0.00000000  -0.00000000  0.75018562  1
  Mg  Mg1  1  -0.00000000  -0.00000000  0.25018562  1
  Mg  Mg2  1  0.10563854  0.21127707  0.86268704  1
  Mg  Mg3  1  0.10563854  0.89436146  0.86268704  1
  Mg  Mg4  1  0.89436146  0.78872293  0.36268704  1
  Mg  Mg5  1  0.78872293  0.89436146  0.86268704  1
  Mg  Mg6  1  0.89436146  0.10563854  0.36268704  1
  Mg  Mg7  1  0.21127707  0.10563854  0.36268704  1
  Ni  Ni0  1  0.52096075  0.04192150  0.70975305  1
  Ni  Ni1  1  0.52096075  0.47903925  0.70975305  1
  Ni  Ni2  1  0.47903925  0.95807850  0.20975305  1
  Ni  Ni3  1  0.95807850  0.47903925  0.70975305  1
  Ni  Ni4  1  0.47903925  0.52096075  0.20975305  1
  Ni  Ni5  1  0.04192150  0.52096075  0.20975305  1
  Ni  Ni6  1  0.66666700  0.33333300  0.86389636  1
  Ni  Ni7  1  0.33333300  0.66666700  0.36389636  1
  Ni  Ni8  1  0.14322930  0.28645860  0.56429326  1
  Ni  Ni9  1  0.14322930  0.85677070  0.56429326  1
  Ni  Ni10  1  0.85677070  0.71354140  0.06429326  1
  Ni  Ni11  1  0.71354140  0.85677070  0.56429326  1
  Ni  Ni12  1  0.85677070  0.14322930  0.06429326  1
  Ni  Ni13  1  0.28645860  0.14322930  0.06429326  1
loop_
_geom_bond_atom_site_label_1
_geom_bond_atom_site_label_2
_geom_bond_distance
_geom_bond_site_symmetry_2
Nd0 Ni3 2.864578 1_455
Nd0 Ni1 2.864578 1_555
Nd1 Ni0 2.864578 1_565
Nd1 Ni3 2.864578 1_455
Nd2 Ni5 2.864578 1_655
Nd2 Ni4 2.864578 1_555
Nd3 Ni0 2.864578 1_565
Nd3 Ni1 2.864578 1_555
Nd4 Ni5 2.864578 1_655
Nd4 Ni2 2.864578 1_545
Nd5 Ni2 2.864578 1_545
Nd5 Ni4 2.864578 1_555
Nd6 Ni10 2.849298 1_556
Nd6 Ni6 2.874264 1_555
Nd7 Ni12 2.849298 1_556
Nd7 Ni6 2.874258 1_555
Nd8 Ni8 2.849298 1_555
Nd8 Ni7 2.874264 1_555
Nd9 Ni13 2.849298 1_556
Nd9 Ni6 2.874264 1_555
Nd10 Ni9 2.849298 1_555
Nd10 Ni7 2.874258 1_555
Nd10 Nd17 3.740458 1_565
Nd10 Nd14 3.740458 1_455
Nd11 Ni11 2.849298 1_555
Nd11 Ni7 2.874264 1_555
Nd11 Nd14 3.740458 1_555
Nd11 Nd16 3.740458 1_565
Nd12 Nd20 3.525337 1_556
Nd12 Ni12 3.612951 1_456
Nd12 Ni13 3.612951 1_556
Nd12 Nd30 3.641569 1_556
Nd12 Nd15 3.662951 1_555
Nd12 Nd13 3.662951 1_555
Nd12 Nd27 3.713070 1_555
Nd12 Nd25 3.713070 1_555
Nd12 Nd9 3.740458 1_555
Nd12 Nd7 3.740458 1_455
Nd12 Nd36 3.758970 1_556
Nd12 Nd37 3.758970 1_456
Nd12 Nd45 4.059072 1_556
Nd13 Nd22 3.525337 1_556
Nd13 Ni13 3.612951 1_566
Nd13 Ni10 3.612951 1_456
Nd13 Nd30 3.641569 1_566
Nd13 Nd15 3.662951 1_555
Nd13 Nd27 3.713070 1_555
Nd13 Nd24 3.713070 1_555
Nd13 Nd6 3.740458 1_455
Nd13 Nd9 3.740458 1_565
Nd13 Nd37 3.758970 1_456
Nd13 Nd34 3.758970 1_566
Nd13 Nd45 4.059068 1_556
Nd14 Nd18 3.525337 1_555
Nd14 Ni9 3.612951 1_655
Nd14 Ni11 3.612951 1_555
Nd14 Nd31 3.641569 1_665
Nd14 Nd17 3.662951 1_555
Nd14 Nd16 3.662951 1_555
Nd14 Nd29 3.713070 1_555
Nd14 Nd28 3.713070 1_555
Nd14 Nd33 3.758970 1_555
Nd14 Nd35 3.758970 1_655
Nd14 Nd44 4.059072 1_555
Nd15 Nd23 3.525337 1_556
Nd15 Ni12 3.612951 1_566
Nd15 Ni10 3.612951 1_556
Nd15 Nd30 3.641569 1_666
Nd15 Nd24 3.713070 1_555
Nd15 Nd25 3.713070 1_555
Nd15 Nd6 3.740458 1_555
Nd15 Nd7 3.740458 1_565
Nd15 Nd36 3.758970 1_556
Nd15 Nd34 3.758970 1_566
Nd15 Nd45 4.059072 1_556
Nd16 Nd19 3.525337 1_555
Nd16 Ni8 3.612951 1_655
Nd16 Ni11 3.612951 1_545
Nd16 Nd31 3.641569 1_655
Nd16 Nd17 3.662951 1_555
Nd16 Nd26 3.713070 1_555
Nd16 Nd29 3.713070 1_555
Nd16 Nd8 3.740458 1_655
Nd16 Nd32 3.758970 1_545
Nd16 Nd35 3.758970 1_655
Nd16 Nd44 4.059068 1_555
Nd17 Nd21 3.525337 1_555
Nd17 Ni9 3.612951 1_545
Nd17 Ni8 3.612951 1_555
Nd17 Nd31 3.641569 1_555
Nd17 Nd26 3.713070 1_555
Nd17 Nd28 3.713070 1_555
Nd17 Nd8 3.740458 1_555
Nd17 Nd33 3.758970 1_555
Nd17 Nd32 3.758970 1_545
Nd17 Nd44 4.059072 1_555
Nd18 Ni9 2.837261 1_655
Nd18 Ni11 2.837261 1_555
Nd18 Ni1 3.574714 1_555
Nd18 Ni3 3.574714 1_555
Nd19 Ni11 2.837261 1_545
Nd19 Ni8 2.837261 1_655
Nd19 Ni0 3.574714 1_555
Nd19 Ni3 3.574714 1_555
Nd20 Ni12 2.837261 1_455
Nd20 Ni13 2.837261 1_555
Nd20 Ni4 3.574714 1_555
Nd20 Ni5 3.574714 1_555
Nd21 Ni9 2.837261 1_545
Nd21 Ni8 2.837261 1_555
Nd21 Ni1 3.574714 1_555
Nd21 Ni0 3.574714 1_555
Nd22 Ni13 2.837261 1_565
Nd22 Ni10 2.837261 1_455
Nd22 Ni5 3.574714 1_555
Nd22 Ni2 3.574714 1_555
Nd23 Ni12 2.837261 1_565
Nd23 Ni10 2.837261 1_555
Nd23 Ni4 3.574714 1_555
Nd23 Ni2 3.574714 1_555
Nd24 Ni0 3.472727 1_565
Nd24 Ni6 3.608100 1_565
Nd25 Ni1 3.472727 1_555
Nd25 Ni6 3.608109 1_555
Nd26 Ni2 3.472727 1_545
Nd26 Ni7 3.608100 1_545
Nd27 Ni3 3.472727 1_455
Nd27 Ni6 3.608100 1_455
Nd28 Ni4 3.472727 1_555
Nd28 Ni7 3.608109 1_555
Nd29 Ni5 3.472727 1_655
Nd29 Ni7 3.608100 1_655
Nd30 Ni13 2.859668 1_555
Nd30 Ni10 2.859668 1_445
Nd30 Ni12 2.859668 1_455
Nd31 Ni11 2.859668 1_445
Nd31 Ni8 2.859668 1_555
Nd31 Ni9 2.859668 1_545
Nd32 Ni11 2.930702 1_555
Nd32 Ni9 2.930702 1_555
Nd32 Ni0 2.993796 1_565
Nd33 Ni8 2.930702 1_555
Nd33 Ni11 2.930702 1_555
Nd33 Ni1 2.993796 1_555
Nd34 Ni13 2.930702 1_555
Nd34 Ni12 2.930702 1_555
Nd34 Ni2 2.993796 1_545
Nd35 Ni8 2.930702 1_555
Nd35 Ni9 2.930702 1_555
Nd35 Ni3 2.993796 1_455
Nd36 Ni13 2.930702 1_555
Nd36 Ni10 2.930702 1_555
Nd36 Ni4 2.993796 1_555
Nd37 Ni10 2.930702 1_555
Nd37 Ni12 2.930702 1_555
Nd37 Ni5 2.993796 1_655
Nd38 Ni1 2.876992 1_555
Nd38 Ni3 2.876992 1_555
Nd38 Ni6 2.880028 1_555
Nd39 Ni3 2.876992 1_555
Nd39 Ni0 2.876992 1_555
Nd39 Ni6 2.880021 1_555
Nd40 Ni4 2.876992 1_555
Nd40 Ni5 2.876992 1_555
Nd40 Ni7 2.880028 1_555
Nd41 Ni1 2.876992 1_555
Nd41 Ni0 2.876992 1_555
Nd41 Ni6 2.880028 1_555
Nd42 Ni2 2.876992 1_555
Nd42 Ni5 2.876992 1_555
Nd42 Ni7 2.880021 1_555
Nd43 Ni4 2.876992 1_555
Nd43 Ni2 2.876992 1_555
Nd43 Ni7 2.880028 1_555
Nd44 Ni3 2.906256 1_555
Nd44 Ni0 2.906256 1_555
Nd44 Ni1 2.906264 1_555
Nd45 Ni2 2.906256 1_555
Nd45 Ni5 2.906256 1_555
Nd45 Ni4 2.906264 1_555
Mg0 Mg5 3.121132 1_445
Mg0 Mg2 3.121132 1_555
Mg0 Mg3 3.121132 1_545
Mg0 Nd18 3.423070 1_445
Mg0 Nd21 3.423070 1_555
Mg0 Nd19 3.423070 1_455
Mg0 Nd38 3.613174 1_445
Mg0 Nd41 3.613174 1_555
Mg0 Nd39 3.613174 1_455
Mg0 Nd1 3.648011 1_545
Mg0 Nd3 3.648011 1_445
Mg0 Nd0 3.648011 1_555
Mg1 Mg4 3.121132 1_445
Mg1 Mg7 3.121132 1_555
Mg1 Mg6 3.121132 1_455
Mg1 Nd20 3.423070 1_555
Mg1 Nd23 3.423070 1_445
Mg1 Nd22 3.423070 1_545
Mg1 Nd40 3.613174 1_555
Mg1 Nd43 3.613174 1_445
Mg1 Nd42 3.613174 1_545
Mg1 Nd4 3.648011 1_455
Mg1 Nd2 3.648011 1_445
Mg1 Nd5 3.648011 1_555
Mg2 Mg5 3.156500 1_445
Mg2 Mg3 3.156500 1_545
Mg2 Nd25 3.409862 1_555
Mg2 Nd27 3.409862 1_555
Mg2 Nd12 3.414647 1_555
Mg2 Nd41 3.568229 1_555
Mg2 Nd39 3.568229 1_455
Mg2 Nd30 3.596973 1_556
Mg2 Nd9 3.650930 1_555
Mg2 Nd7 3.650930 1_455
Mg2 Nd0 3.683980 1_555
Mg3 Mg5 3.156500 1_455
Mg3 Nd27 3.409862 1_555
Mg3 Nd24 3.409862 1_555
Mg3 Nd13 3.414647 1_555
Mg3 Nd38 3.568229 1_455
Mg3 Nd41 3.568229 1_565
Mg3 Nd30 3.596973 1_566
Mg3 Nd6 3.650930 1_455
Mg3 Nd9 3.650930 1_565
Mg3 Nd1 3.683980 1_555
Mg4 Mg7 3.156500 1_665
Mg4 Mg6 3.156500 1_565
Mg4 Nd28 3.409862 1_555
Mg4 Nd29 3.409862 1_555
Mg4 Nd14 3.414647 1_555
Mg4 Nd43 3.568229 1_555
Mg4 Nd42 3.568229 1_655
Mg4 Nd31 3.596973 1_665
Mg4 Nd11 3.650930 1_555
Mg4 Nd10 3.650930 1_655
Mg4 Nd2 3.683980 1_555
Mg5 Nd25 3.409862 1_555
Mg5 Nd24 3.409862 1_555
Mg5 Nd15 3.414647 1_555
Mg5 Nd38 3.568229 1_555
Mg5 Nd39 3.568229 1_565
Mg5 Nd30 3.596973 1_666
Mg5 Nd6 3.650930 1_555
Mg5 Nd7 3.650930 1_565
Mg5 Nd3 3.683980 1_555
Mg6 Mg7 3.156500 1_655
Mg6 Nd29 3.409862 1_555
Mg6 Nd26 3.409862 1_555
Mg6 Nd16 3.414647 1_555
Mg6 Nd43 3.568229 1_545
Mg6 Nd40 3.568229 1_655
Mg6 Nd31 3.596973 1_655
Mg6 Nd11 3.650930 1_545
Mg6 Nd8 3.650930 1_655
Mg6 Nd4 3.683980 1_555
Mg7 Nd28 3.409862 1_555
Mg7 Nd26 3.409862 1_555
Mg7 Nd17 3.414647 1_555
Mg7 Nd40 3.568229 1_555
Mg7 Nd42 3.568229 1_545
Mg7 Nd31 3.596973 1_555
Mg7 Nd8 3.650930 1_555
Mg7 Nd10 3.650930 1_545
Mg7 Nd5 3.683980 1_555
