# generated using pymatgen
data_CeMg6Cd
_symmetry_space_group_name_H-M   'P 1'
_cell_length_a   5.12671400
_cell_length_b   6.39883400
_cell_length_c   12.09430000
_cell_angle_alpha   90.00000000
_cell_angle_beta   90.00000000
_cell_angle_gamma   90.00000000
_symmetry_Int_Tables_number   1
_chemical_formula_structural   CeMg6Cd
_chemical_formula_sum   'Ce2 Mg12 Cd2'
_cell_volume   396.75341295
_cell_formula_units_Z   2
loop_
 _symmetry_equiv_pos_site_id
 _symmetry_equiv_pos_as_xyz
  1  'x, y, z'
loop_
 _atom_site_type_symbol
 _atom_site_label
 _atom_site_symmetry_multiplicity
 _atom_site_fract_x
 _atom_site_fract_y
 _atom_site_fract_z
 _atom_site_occupancy
  Ce  Ce0  1  0.50000000  0.00000000  0.18350100  1
  Ce  Ce1  1  0.50000000  0.50000000  0.68350100  1
  Mg  Mg0  1  0.50000000  0.25205300  0.42789700  1
  Mg  Mg1  1  0.50000000  0.74794700  0.42789700  1
  Mg  Mg2  1  0.00000000  0.75255200  0.07660200  1
  Mg  Mg3  1  0.00000000  0.24744800  0.07660200  1
  Mg  Mg4  1  0.00000000  0.00000000  0.34395000  1
  Mg  Mg5  1  0.00000000  0.50000000  0.31427500  1
  Mg  Mg6  1  0.50000000  0.75205300  0.92789700  1
  Mg  Mg7  1  0.50000000  0.24794700  0.92789700  1
  Mg  Mg8  1  0.00000000  0.25255200  0.57660200  1
  Mg  Mg9  1  0.00000000  0.74744800  0.57660200  1
  Mg  Mg10  1  0.00000000  0.50000000  0.84395000  1
  Mg  Mg11  1  0.00000000  0.00000000  0.81427500  1
  Cd  Cd0  1  0.50000000  0.50000000  0.14927100  1
  Cd  Cd1  1  0.50000000  0.00000000  0.64927100  1
loop_
_geom_bond_atom_site_label_1
_geom_bond_atom_site_label_2
_geom_bond_distance
_geom_bond_site_symmetry_2
Ce0 Mg4 3.215029 1_555
Ce0 Mg4 3.215029 1_655
Ce0 Mg2 3.278627 1_645
Ce0 Mg2 3.278627 1_545
Ce0 Mg3 3.278627 1_655
Ce0 Mg3 3.278627 1_555
Ce0 Mg0 3.367197 1_555
Ce0 Mg1 3.367197 1_545
Ce0 Mg6 3.474718 1_544
Ce0 Mg7 3.474718 1_554
Ce1 Mg10 3.215029 1_655
Ce1 Mg10 3.215029 1_555
Ce1 Mg8 3.278627 1_555
Ce1 Mg8 3.278627 1_655
Ce1 Mg9 3.278627 1_555
Ce1 Mg9 3.278627 1_655
Ce1 Mg7 3.367197 1_555
Ce1 Mg6 3.367197 1_555
Ce1 Mg1 3.474718 1_555
Ce1 Mg0 3.474718 1_555
Mg0 Mg8 3.131350 1_555
Mg0 Mg8 3.131350 1_655
Mg0 Mg1 3.173143 1_555
Mg0 Mg4 3.194192 1_655
Mg0 Mg4 3.194192 1_555
Mg0 Mg1 3.225691 1_545
Mg0 Mg5 3.313061 1_555
Mg0 Mg5 3.313061 1_655
Mg1 Mg9 3.131350 1_555
Mg1 Mg9 3.131350 1_655
Mg1 Mg4 3.194192 1_665
Mg1 Mg4 3.194192 1_565
Mg1 Mg5 3.313061 1_555
Mg1 Mg5 3.313061 1_655
Mg2 Mg6 3.131350 1_554
Mg2 Mg6 3.131350 1_454
Mg2 Mg3 3.166757 1_565
Mg2 Mg3 3.232077 1_555
Mg2 Mg5 3.297615 1_555
Mg3 Mg7 3.131350 1_454
Mg3 Mg7 3.131350 1_554
Mg3 Mg5 3.297615 1_555
Mg4 Mg5 3.219484 1_545
Mg4 Mg5 3.219484 1_555
Mg4 Mg8 3.244818 1_555
Mg4 Mg9 3.244818 1_545
Mg6 Mg7 3.173143 1_565
Mg6 Mg7 3.225691 1_555
Mg8 Mg9 3.166757 1_555
Mg8 Mg9 3.232077 1_545
Mg10 Mg6 3.194192 1_455
Mg10 Mg6 3.194192 1_555
Mg10 Mg7 3.194192 1_455
Mg10 Mg7 3.194192 1_555
Mg10 Mg11 3.219484 1_555
Mg10 Mg11 3.219484 1_565
Mg10 Mg2 3.244818 1_556
Mg10 Mg3 3.244818 1_556
Mg11 Mg9 3.297615 1_545
Mg11 Mg8 3.297615 1_555
Mg11 Mg6 3.313061 1_445
Mg11 Mg6 3.313061 1_545
Mg11 Mg7 3.313061 1_455
Mg11 Mg7 3.313061 1_555
Cd0 Mg6 3.125627 1_554
Cd0 Mg7 3.125627 1_554
Cd0 Mg3 3.155124 1_655
Cd0 Mg2 3.155124 1_655
Cd0 Mg3 3.155124 1_555
Cd0 Mg2 3.155124 1_555
Cd0 Ce0 3.226090 1_555
Cd0 Ce0 3.226090 1_565
Cd0 Mg5 3.248577 1_555
Cd0 Mg5 3.248577 1_655
Cd1 Mg1 3.125627 1_545
Cd1 Mg0 3.125627 1_555
Cd1 Mg8 3.155124 1_655
Cd1 Mg9 3.155124 1_645
Cd1 Mg9 3.155124 1_545
Cd1 Mg8 3.155124 1_555
Cd1 Ce1 3.226090 1_555
Cd1 Ce1 3.226090 1_545
Cd1 Mg11 3.248577 1_555
Cd1 Mg11 3.248577 1_655
