# generated using pymatgen
data_GeAs2
_symmetry_space_group_name_H-M   'P 1'
_cell_length_a   3.73576641
_cell_length_b   10.59744722
_cell_length_c   15.27225394
_cell_angle_alpha   90.00000000
_cell_angle_beta   90.00000000
_cell_angle_gamma   90.00000000
_symmetry_Int_Tables_number   1
_chemical_formula_structural   GeAs2
_chemical_formula_sum   'Ge8 As16'
_cell_volume   604.62223148
_cell_formula_units_Z   8
loop_
 _symmetry_equiv_pos_site_id
 _symmetry_equiv_pos_as_xyz
  1  'x, y, z'
loop_
 _atom_site_type_symbol
 _atom_site_label
 _atom_site_symmetry_multiplicity
 _atom_site_fract_x
 _atom_site_fract_y
 _atom_site_fract_z
 _atom_site_occupancy
  Ge  Ge0  1  -0.00000000  0.57718836  0.85139974  1
  Ge  Ge1  1  0.00000000  0.42281164  0.14860026  1
  Ge  Ge2  1  -0.00000000  0.07718836  0.64860026  1
  Ge  Ge3  1  -0.00000000  0.92281164  0.35139974  1
  Ge  Ge4  1  0.50000000  0.79304435  0.72959325  1
  Ge  Ge5  1  0.50000000  0.20695565  0.27040675  1
  Ge  Ge6  1  0.50000000  0.29304435  0.77040675  1
  Ge  Ge7  1  0.50000000  0.70695565  0.22959325  1
  As  As0  1  -0.00000000  0.64946237  0.69981318  1
  As  As1  1  -0.00000000  0.35053763  0.30018682  1
  As  As2  1  -0.00000000  0.14946237  0.80018682  1
  As  As3  1  -0.00000000  0.85053763  0.19981318  1
  As  As4  1  0.00000000  0.76117630  0.95003863  1
  As  As5  1  -0.00000000  0.23882370  0.04996137  1
  As  As6  1  -0.00000000  0.26117630  0.54996137  1
  As  As7  1  -0.00000000  0.73882370  0.45003863  1
  As  As8  1  0.50000000  0.88244865  0.88194717  1
  As  As9  1  0.50000000  0.11755135  0.11805283  1
  As  As10  1  0.50000000  0.38244865  0.61805283  1
  As  As11  1  0.50000000  0.61755135  0.38194717  1
  As  As12  1  0.50000000  0.94178233  0.60615475  1
  As  As13  1  0.50000000  0.05821767  0.39384525  1
  As  As14  1  0.50000000  0.44178333  0.89384525  1
  As  As15  1  0.50000000  0.55821767  0.10615475  1
loop_
_geom_bond_atom_site_label_1
_geom_bond_atom_site_label_2
_geom_bond_distance
_geom_bond_site_symmetry_2
As0 Ge0 2.438478 1_555
As0 Ge4 2.451757 1_455
As0 Ge4 2.451757 1_555
As1 Ge1 2.438478 1_555
As1 Ge5 2.451757 1_455
As1 Ge5 2.451757 1_555
As2 Ge2 2.438478 1_555
As2 Ge6 2.451757 1_555
As2 Ge6 2.451757 1_455
As3 Ge3 2.438478 1_555
As3 Ge7 2.451757 1_555
As3 Ge7 2.451757 1_455
As4 Ge0 2.463957 1_555
As4 As8 2.494410 1_555
As4 As8 2.494410 1_455
As5 Ge1 2.463957 1_555
As5 As9 2.494410 1_555
As5 As9 2.494410 1_455
As6 Ge2 2.463957 1_555
As7 Ge3 2.463957 1_555
As8 Ge4 2.512293 1_555
As9 Ge5 2.512293 1_555
As10 As6 2.494410 1_555
As10 As6 2.494410 1_655
As10 Ge6 2.512293 1_555
As11 As7 2.494410 1_655
As11 As7 2.494410 1_555
As11 Ge7 2.512293 1_555
As12 Ge2 2.443012 1_665
As12 Ge2 2.443012 1_565
As12 Ge4 2.457328 1_555
As13 Ge3 2.443012 1_545
As13 Ge3 2.443012 1_645
As13 Ge5 2.457328 1_555
As14 Ge0 2.443005 1_655
As14 Ge0 2.443005 1_555
As14 Ge6 2.457335 1_555
As15 Ge1 2.443012 1_655
As15 Ge1 2.443012 1_555
As15 Ge7 2.457328 1_555
