# generated using pymatgen
data_CaMgB2O5
_symmetry_space_group_name_H-M   'P 1'
_cell_length_a   5.54663413
_cell_length_b   11.21442789
_cell_length_c   36.50167844
_cell_angle_alpha   90.00000000
_cell_angle_beta   90.00000000
_cell_angle_gamma   90.00000000
_symmetry_Int_Tables_number   1
_chemical_formula_structural   CaMgB2O5
_chemical_formula_sum   'Ca24 Mg24 B48 O120'
_cell_volume   2270.48939251
_cell_formula_units_Z   24
loop_
 _symmetry_equiv_pos_site_id
 _symmetry_equiv_pos_as_xyz
  1  'x, y, z'
loop_
 _atom_site_type_symbol
 _atom_site_label
 _atom_site_symmetry_multiplicity
 _atom_site_fract_x
 _atom_site_fract_y
 _atom_site_fract_z
 _atom_site_occupancy
  Ca  Ca0  1  0.97315388  0.12027649  0.94786118  1
  Ca  Ca1  1  0.47315388  0.87972351  0.05213882  1
  Ca  Ca2  1  0.47315388  0.37972351  0.94786118  1
  Ca  Ca3  1  0.97315388  0.62027649  0.05213882  1
  Ca  Ca4  1  0.28093406  0.61814539  0.88706251  1
  Ca  Ca5  1  0.78093406  0.38185461  0.11293749  1
  Ca  Ca6  1  0.78093406  0.88185461  0.88706251  1
  Ca  Ca7  1  0.28093406  0.11814539  0.11293749  1
  Ca  Ca8  1  0.20944418  0.12714561  0.78088056  1
  Ca  Ca9  1  0.70944418  0.87285439  0.21911944  1
  Ca  Ca10  1  0.70944418  0.37285439  0.78088056  1
  Ca  Ca11  1  0.20944418  0.62714561  0.21911944  1
  Ca  Ca12  1  0.98287236  0.87294094  0.72216909  1
  Ca  Ca13  1  0.48287236  0.12705906  0.27783091  1
  Ca  Ca14  1  0.48287236  0.62705906  0.72216909  1
  Ca  Ca15  1  0.98287236  0.37294094  0.27783091  1
  Ca  Ca16  1  0.90757569  0.38132604  0.61495596  1
  Ca  Ca17  1  0.40757569  0.61867396  0.38504404  1
  Ca  Ca18  1  0.40757569  0.11867396  0.61495596  1
  Ca  Ca19  1  0.90757569  0.88132604  0.38504404  1
  Ca  Ca20  1  0.22587759  0.88042509  0.55335553  1
  Ca  Ca21  1  0.72587759  0.11957491  0.44664447  1
  Ca  Ca22  1  0.72587759  0.61957491  0.55335553  1
  Ca  Ca23  1  0.22587759  0.38042509  0.44664447  1
  Mg  Mg0  1  0.00063798  0.86965087  0.99561333  1
  Mg  Mg1  1  0.50063798  0.13034913  0.00438667  1
  Mg  Mg2  1  0.50063798  0.63034913  0.99561333  1
  Mg  Mg3  1  0.00063798  0.36965087  0.00438667  1
  Mg  Mg4  1  0.23433996  0.87180369  0.83052147  1
  Mg  Mg5  1  0.73433996  0.12819631  0.16947853  1
  Mg  Mg6  1  0.73433996  0.62819631  0.83052147  1
  Mg  Mg7  1  0.23433996  0.37180369  0.16947853  1
  Mg  Mg8  1  0.23107315  0.37120590  0.83907281  1
  Mg  Mg9  1  0.73107315  0.62879410  0.16092719  1
  Mg  Mg10  1  0.73107315  0.12879410  0.83907281  1
  Mg  Mg11  1  0.23107315  0.87120590  0.16092719  1
  Mg  Mg12  1  0.95619275  0.62775031  0.66401140  1
  Mg  Mg13  1  0.45619275  0.37224969  0.33598860  1
  Mg  Mg14  1  0.45619275  0.87224969  0.66401140  1
  Mg  Mg15  1  0.95619275  0.12775031  0.33598860  1
  Mg  Mg16  1  0.95511658  0.12779563  0.67207840  1
  Mg  Mg17  1  0.45511658  0.87220437  0.32792160  1
  Mg  Mg18  1  0.45511658  0.37220437  0.67207840  1
  Mg  Mg19  1  0.95511658  0.62779563  0.32792160  1
  Mg  Mg20  1  0.18556619  0.63146042  0.49586432  1
  Mg  Mg21  1  0.68556619  0.36853958  0.50413568  1
  Mg  Mg22  1  0.68556619  0.86853958  0.49586432  1
  Mg  Mg23  1  0.18556619  0.13146042  0.50413568  1
  B  B0  1  0.18729228  0.38476743  0.52665183  1
  B  B1  1  0.68729228  0.61523257  0.47334817  1
  B  B2  1  0.68729228  0.11523257  0.52665183  1
  B  B3  1  0.18729228  0.88476743  0.47334817  1
  B  B4  1  0.21788338  0.62290394  0.80984365  1
  B  B5  1  0.71788338  0.37709606  0.19015635  1
  B  B6  1  0.71788338  0.87709606  0.80984365  1
  B  B7  1  0.21788338  0.12290394  0.19015635  1
  B  B8  1  0.99971184  0.61820871  0.97437692  1
  B  B9  1  0.49971184  0.38179129  0.02562308  1
  B  B10  1  0.49971184  0.88179129  0.97437692  1
  B  B11  1  0.99971184  0.11820871  0.02562308  1
  B  B12  1  0.47280609  0.12635807  0.69299097  1
  B  B13  1  0.97280609  0.87364193  0.30700903  1
  B  B14  1  0.97280609  0.37364193  0.69299097  1
  B  B15  1  0.47280609  0.62635807  0.30700903  1
  B  B16  1  0.44668588  0.61562732  0.64350733  1
  B  B17  1  0.94668588  0.38437268  0.35649267  1
  B  B18  1  0.94668588  0.88437268  0.64350733  1
  B  B19  1  0.44668588  0.11562732  0.35649267  1
  B  B20  1  0.23729436  0.11639260  0.85925936  1
  B  B21  1  0.73729436  0.88360740  0.14074064  1
  B  B22  1  0.73729436  0.38360740  0.85925936  1
  B  B23  1  0.23729436  0.61639260  0.14074064  1
  B  B24  1  0.18416794  0.62380750  0.58819291  1
  B  B25  1  0.68416794  0.37619250  0.41180709  1
  B  B26  1  0.68416794  0.87619250  0.58819291  1
  B  B27  1  0.18416794  0.12380750  0.41180709  1
  B  B28  1  0.23938076  0.87626827  0.92020656  1
  B  B29  1  0.73938076  0.12373173  0.07979344  1
  B  B30  1  0.73938076  0.62373173  0.92020656  1
  B  B31  1  0.23938076  0.37626827  0.07979344  1
  B  B32  1  0.45342310  0.37831114  0.58090229  1
  B  B33  1  0.95342310  0.62168886  0.41909771  1
  B  B34  1  0.95342310  0.12168886  0.58090229  1
  B  B35  1  0.45342310  0.87831114  0.41909771  1
  B  B36  1  0.44466560  0.88166661  0.75540905  1
  B  B37  1  0.94466560  0.11833339  0.24459095  1
  B  B38  1  0.94466560  0.61833339  0.75540905  1
  B  B39  1  0.44466560  0.38166661  0.24459095  1
  B  B40  1  0.49868212  0.12449728  0.91435142  1
  B  B41  1  0.99868212  0.87550272  0.08564858  1
  B  B42  1  0.99868212  0.37550272  0.91435142  1
  B  B43  1  0.49868212  0.62449728  0.08564858  1
  B  B44  1  0.24916746  0.37904800  0.74748947  1
  B  B45  1  0.74916746  0.62095200  0.25251053  1
  B  B46  1  0.74916746  0.12095200  0.74748947  1
  B  B47  1  0.24916746  0.87904800  0.25251053  1
  O  O0  1  0.46896044  0.33135080  0.61540078  1
  O  O1  1  0.96896044  0.66864920  0.38459922  1
  O  O2  1  0.96896044  0.16864920  0.61540078  1
  O  O3  1  0.46896044  0.83135080  0.38459922  1
  O  O4  1  0.01463997  0.36863099  0.73157180  1
  O  O5  1  0.51463997  0.63136901  0.26842820  1
  O  O6  1  0.51463997  0.13136901  0.73157180  1
  O  O7  1  0.01463997  0.86863099  0.26842820  1
  O  O8  1  0.15303929  0.08951789  0.56115581  1
  O  O9  1  0.65303929  0.91048211  0.43884419  1
  O  O10  1  0.65303929  0.41048211  0.56115581  1
  O  O11  1  0.15303929  0.58951789  0.43884419  1
  O  O12  1  0.18204793  0.66758727  0.55322739  1
  O  O13  1  0.68204793  0.33241273  0.44677261  1
  O  O14  1  0.68204793  0.83241273  0.55322739  1
  O  O15  1  0.18204793  0.16758727  0.44677261  1
  O  O16  1  0.24927737  0.91850616  0.77502001  1
  O  O17  1  0.74927737  0.08149384  0.22497999  1
  O  O18  1  0.74927737  0.58149384  0.77502001  1
  O  O19  1  0.24927737  0.41850616  0.22497999  1
  O  O20  1  0.22504416  0.83017987  0.88575453  1
  O  O21  1  0.72504416  0.16982013  0.11424547  1
  O  O22  1  0.72504416  0.66982013  0.88575453  1
  O  O23  1  0.22504416  0.33017987  0.11424547  1
  O  O24  1  0.44332393  0.41763304  0.72810476  1
  O  O25  1  0.94332393  0.58236696  0.27189524  1
  O  O26  1  0.94332393  0.08236696  0.72810476  1
  O  O27  1  0.44332393  0.91763304  0.27189524  1
  O  O28  1  0.17966352  0.62495702  0.77124907  1
  O  O29  1  0.67966352  0.37504298  0.22875093  1
  O  O30  1  0.67966352  0.87504298  0.77124907  1
  O  O31  1  0.17966352  0.12495702  0.22875093  1
  O  O32  1  0.97505910  0.61130487  0.93576027  1
  O  O33  1  0.47505910  0.38869513  0.06423973  1
  O  O34  1  0.47505910  0.88869513  0.93576027  1
  O  O35  1  0.97505910  0.11130487  0.06423973  1
  O  O36  1  0.21793662  0.39244682  0.56524351  1
  O  O37  1  0.71793662  0.60755318  0.43475649  1
  O  O38  1  0.71793662  0.10755318  0.56524351  1
  O  O39  1  0.21793662  0.89244682  0.43475649  1
  O  O40  1  0.32854319  0.30499412  0.50764909  1
  O  O41  1  0.82854319  0.69500588  0.49235091  1
  O  O42  1  0.82854319  0.19500588  0.50764909  1
  O  O43  1  0.32854319  0.80499412  0.49235091  1
  O  O44  1  0.26732130  0.10925987  0.89755419  1
  O  O45  1  0.76732130  0.89074013  0.10244581  1
  O  O46  1  0.76732130  0.39074013  0.89755419  1
  O  O47  1  0.26732130  0.60925987  0.10244581  1
  O  O48  1  0.47777610  0.90349659  0.60699078  1
  O  O49  1  0.97777610  0.09650341  0.39300922  1
  O  O50  1  0.97777610  0.59650341  0.60699078  1
  O  O51  1  0.47777610  0.40349659  0.39300922  1
  O  O52  1  0.03944762  0.90937756  0.93963825  1
  O  O53  1  0.53944762  0.09062244  0.06036175  1
  O  O54  1  0.53944762  0.59062244  0.93963825  1
  O  O55  1  0.03944762  0.40937756  0.06036175  1
  O  O56  1  0.26816382  0.34108882  0.78302023  1
  O  O57  1  0.76816382  0.65891118  0.21697977  1
  O  O58  1  0.76816382  0.15891118  0.78302023  1
  O  O59  1  0.26816382  0.84108882  0.21697977  1
  O  O60  1  0.20555134  0.40247055  0.89585734  1
  O  O61  1  0.70555134  0.59752945  0.10414266  1
  O  O62  1  0.70555134  0.09752945  0.89585734  1
  O  O63  1  0.20555134  0.90247055  0.10414266  1
  O  O64  1  0.41441824  0.60660499  0.60513256  1
  O  O65  1  0.91441824  0.39339501  0.39486744  1
  O  O66  1  0.91441824  0.89339501  0.60513256  1
  O  O67  1  0.41441824  0.10660499  0.39486744  1
  O  O68  1  0.42531182  0.84215421  0.72021188  1
  O  O69  1  0.92531182  0.15784579  0.27978812  1
  O  O70  1  0.92531182  0.65784579  0.72021188  1
  O  O71  1  0.42531182  0.34215421  0.27978812  1
  O  O72  1  0.10493272  0.44889763  0.67108080  1
  O  O73  1  0.60493272  0.55110237  0.32891920  1
  O  O74  1  0.60493272  0.05110237  0.67108080  1
  O  O75  1  0.10493272  0.94889763  0.32891920  1
  O  O76  1  0.16117025  0.54722570  0.99272816  1
  O  O77  1  0.66117025  0.45277430  0.00727184  1
  O  O78  1  0.66117025  0.95277430  0.99272816  1
  O  O79  1  0.16117025  0.04722570  0.00727184  1
  O  O80  1  0.11318795  0.95517547  0.66100930  1
  O  O81  1  0.61318795  0.04482453  0.33899070  1
  O  O82  1  0.61318795  0.54482453  0.66100930  1
  O  O83  1  0.11318795  0.45517547  0.33899070  1
  O  O84  1  0.38841181  0.69711549  0.82433792  1
  O  O85  1  0.88841181  0.30288451  0.17566208  1
  O  O86  1  0.88841181  0.80288451  0.82433792  1
  O  O87  1  0.38841181  0.19711549  0.17566208  1
  O  O88  1  0.35370004  0.80353323  0.99270273  1
  O  O89  1  0.85370004  0.19646677  0.00729727  1
  O  O90  1  0.85370004  0.69646677  0.99270273  1
  O  O91  1  0.35370004  0.30353323  0.00729727  1
  O  O92  1  0.30924873  0.69540278  0.66307329  1
  O  O93  1  0.80924873  0.30459722  0.33692671  1
  O  O94  1  0.80924873  0.80459722  0.66307329  1
  O  O95  1  0.30924873  0.19540278  0.33692671  1
  O  O96  1  0.49514907  0.16693469  0.94921444  1
  O  O97  1  0.99514907  0.83306531  0.05078556  1
  O  O98  1  0.99514907  0.33306531  0.94921444  1
  O  O99  1  0.49514907  0.66693469  0.05078556  1
  O  O100  1  0.30012342  0.19889854  0.67817445  1
  O  O101  1  0.80012342  0.80110146  0.32182555  1
  O  O102  1  0.80012342  0.30110146  0.67817445  1
  O  O103  1  0.30012342  0.69889854  0.32182555  1
  O  O104  1  0.37771933  0.19508509  0.83995199  1
  O  O105  1  0.87771933  0.80491491  0.16004801  1
  O  O106  1  0.87771933  0.30491491  0.83995199  1
  O  O107  1  0.37771933  0.69508509  0.16004801  1
  O  O108  1  0.07141955  0.04497423  0.84191739  1
  O  O109  1  0.57141955  0.95502577  0.15808261  1
  O  O110  1  0.57141955  0.45502577  0.84191739  1
  O  O111  1  0.07141955  0.54497423  0.15808261  1
  O  O112  1  0.52346406  0.04435640  0.50867570  1
  O  O113  1  0.02346406  0.95564360  0.49132430  1
  O  O114  1  0.02346406  0.45564360  0.50867570  1
  O  O115  1  0.52346406  0.54435640  0.49132430  1
  O  O116  1  0.08300212  0.54948377  0.83195938  1
  O  O117  1  0.58300212  0.45051623  0.16804062  1
  O  O118  1  0.58300212  0.95051623  0.83195938  1
  O  O119  1  0.08300212  0.04948377  0.16804062  1
loop_
_geom_bond_atom_site_label_1
_geom_bond_atom_site_label_2
_geom_bond_distance
_geom_bond_site_symmetry_2
Ca0 O98 2.389932 1_555
Ca0 O52 2.412270 1_645
Ca0 O62 2.423111 1_555
Ca0 O89 2.424015 1_556
Ca0 O44 2.459567 1_655
Ca0 O79 2.541939 1_656
Ca0 O96 2.702908 1_555
Ca0 O96 2.942632 1_655
Ca0 O78 3.034000 1_545
Ca1 O99 2.389932 1_555
Ca1 O53 2.412270 1_565
Ca1 O63 2.423111 1_555
Ca1 O88 2.424015 1_554
Ca1 O45 2.459567 1_555
Ca1 O78 2.541939 1_554
Ca1 O97 2.702908 1_455
Ca1 O97 2.942632 1_555
Ca1 O79 3.034000 1_565
Ca2 O96 2.389932 1_555
Ca2 O54 2.412270 1_555
Ca2 O60 2.423111 1_555
Ca2 O91 2.424015 1_556
Ca2 O46 2.459567 1_555
Ca2 O77 2.541939 1_556
Ca2 O98 2.702908 1_455
Ca2 O98 2.942632 1_555
Ca2 O76 3.034000 1_555
Ca3 O97 2.389932 1_555
Ca3 O55 2.412270 1_655
Ca3 O61 2.423111 1_555
Ca3 O90 2.424015 1_554
Ca3 O47 2.459567 1_655
Ca3 O76 2.541939 1_654
Ca3 O99 2.702908 1_555
Ca3 O99 2.942632 1_655
Ca3 O77 3.034000 1_555
Ca4 O20 2.398443 1_555
Ca4 O54 2.415416 1_555
Ca4 O116 2.417384 1_555
Ca4 O32 2.458443 1_455
Ca4 O60 2.475449 1_555
Ca4 O84 2.526209 1_555
Ca4 O22 2.531014 1_555
Ca5 O21 2.398443 1_555
Ca5 O55 2.415416 1_655
Ca5 O117 2.417384 1_555
Ca5 O33 2.458443 1_555
Ca5 O61 2.475449 1_555
Ca5 O85 2.526209 1_555
Ca5 O23 2.531014 1_655
Ca6 O22 2.398443 1_555
Ca6 O52 2.415416 1_655
Ca6 O118 2.417384 1_555
Ca6 O34 2.458443 1_555
Ca6 O62 2.475449 1_565
Ca6 O86 2.526209 1_555
Ca6 O20 2.531014 1_655
Ca7 O23 2.398443 1_555
Ca7 O53 2.415416 1_555
Ca7 O119 2.417384 1_555
Ca7 O35 2.458443 1_455
Ca7 O63 2.475449 1_545
Ca7 O87 2.526209 1_555
Ca7 O21 2.531014 1_555
Ca8 O16 2.359896 1_545
Ca8 O56 2.422516 1_555
Ca8 O104 2.469997 1_555
Ca8 O6 2.471298 1_555
Ca8 O58 2.474641 1_455
Ca8 O26 2.478305 1_455
Ca8 O108 2.529628 1_555
Ca9 O17 2.359896 1_565
Ca9 O57 2.422516 1_555
Ca9 O105 2.469997 1_555
Ca9 O7 2.471298 1_655
Ca9 O59 2.474641 1_555
Ca9 O27 2.478305 1_555
Ca9 O109 2.529628 1_555
Ca10 O18 2.359896 1_555
Ca10 O58 2.422516 1_555
Ca10 O106 2.469997 1_555
Ca10 O4 2.471298 1_655
Ca10 O56 2.474641 1_555
Ca10 O24 2.478305 1_555
Ca10 O110 2.529628 1_555
Ca11 O19 2.359896 1_555
Ca11 O59 2.422516 1_555
Ca11 O107 2.469997 1_555
Ca11 O5 2.471298 1_555
Ca11 O57 2.474641 1_455
Ca11 O25 2.478305 1_455
Ca11 O111 2.529628 1_555
Ca12 O26 2.368745 1_565
Ca12 O70 2.434255 1_555
Ca12 O30 2.457325 1_555
Ca12 O68 2.479247 1_655
Ca12 O16 2.483178 1_655
Ca12 O94 2.483527 1_555
Ca12 O80 2.521250 1_655
Ca13 O27 2.368745 1_545
Ca13 O71 2.434255 1_555
Ca13 O31 2.457325 1_555
Ca13 O69 2.479247 1_555
Ca13 O17 2.483178 1_555
Ca13 O95 2.483527 1_555
Ca13 O81 2.521250 1_555
Ca14 O24 2.368745 1_555
Ca14 O68 2.434255 1_555
Ca14 O28 2.457325 1_555
Ca14 O70 2.479247 1_555
Ca14 O18 2.483178 1_555
Ca14 O92 2.483527 1_555
Ca14 O82 2.521250 1_555
Ca15 O25 2.368745 1_555
Ca15 O69 2.434255 1_555
Ca15 O29 2.457325 1_555
Ca15 O71 2.479247 1_655
Ca15 O19 2.483178 1_655
Ca15 O93 2.483527 1_555
Ca15 O83 2.521250 1_655
Ca16 O2 2.409284 1_555
Ca16 O10 2.440623 1_555
Ca16 O72 2.443254 1_655
Ca16 O50 2.461535 1_555
Ca16 O0 2.496610 1_555
Ca16 O36 2.504337 1_655
Ca16 O102 2.547461 1_555
Ca17 O3 2.409284 1_555
Ca17 O11 2.440623 1_555
Ca17 O73 2.443254 1_555
Ca17 O51 2.461535 1_555
Ca17 O1 2.496610 1_455
Ca17 O37 2.504337 1_555
Ca17 O103 2.547461 1_555
Ca18 O0 2.409284 1_555
Ca18 O8 2.440623 1_555
Ca18 O74 2.443254 1_555
Ca18 O48 2.461535 1_545
Ca18 O2 2.496610 1_455
Ca18 O38 2.504337 1_555
Ca18 O100 2.547461 1_555
Ca19 O1 2.409284 1_555
Ca19 O9 2.440623 1_555
Ca19 O75 2.443254 1_655
Ca19 O49 2.461535 1_565
Ca19 O3 2.496610 1_555
Ca19 O39 2.504337 1_655
Ca19 O101 2.547461 1_555
Ca20 O8 2.396381 1_565
Ca20 O12 2.399208 1_555
Ca20 O48 2.419084 1_555
Ca20 O43 2.449154 1_555
Ca20 O66 2.564663 1_455
Ca20 O14 2.586869 1_555
Ca20 O113 2.664364 1_555
Ca20 O112 2.960403 1_565
Ca20 O14 3.064106 1_455
Ca21 O9 2.396381 1_545
Ca21 O13 2.399208 1_555
Ca21 O49 2.419084 1_555
Ca21 O42 2.449154 1_555
Ca21 O67 2.564663 1_555
Ca21 O15 2.586869 1_655
Ca21 O112 2.664364 1_555
Ca21 O113 2.960403 1_645
Ca21 O15 3.064106 1_555
Ca22 O10 2.396381 1_555
Ca22 O14 2.399208 1_555
Ca22 O50 2.419084 1_555
Ca22 O41 2.449154 1_555
Ca22 O64 2.564663 1_555
Ca22 O12 2.586869 1_655
Ca22 O115 2.664364 1_555
Ca22 O114 2.960403 1_655
Ca22 O12 3.064106 1_555
Ca23 O11 2.396381 1_555
Ca23 O15 2.399208 1_555
Ca23 O51 2.419084 1_555
Ca23 O40 2.449154 1_555
Ca23 O65 2.564663 1_455
Ca23 O13 2.586869 1_555
Ca23 O114 2.664364 1_555
Ca23 O115 2.960403 1_555
Ca23 O13 3.064106 1_455
Mg0 O97 2.055473 1_456
Mg0 O88 2.096671 1_555
Mg0 O52 2.102242 1_555
Mg0 O78 2.103658 1_455
Mg0 O90 2.108914 1_455
Mg0 O79 2.222523 1_566
Mg1 O96 2.055473 1_554
Mg1 O89 2.096671 1_555
Mg1 O53 2.102242 1_555
Mg1 O79 2.103658 1_555
Mg1 O91 2.108914 1_555
Mg1 O78 2.222523 1_544
Mg2 O99 2.055473 1_556
Mg2 O90 2.096671 1_555
Mg2 O54 2.102242 1_555
Mg2 O76 2.103658 1_555
Mg2 O88 2.108914 1_555
Mg2 O77 2.222523 1_556
Mg3 O98 2.055473 1_454
Mg3 O91 2.096671 1_555
Mg3 O55 2.102242 1_555
Mg3 O77 2.103658 1_455
Mg3 O89 2.108914 1_455
Mg3 O76 2.222523 1_554
Mg4 O20 2.070074 1_555
Mg4 O86 2.080830 1_455
Mg4 O16 2.094141 1_555
Mg4 O118 2.126480 1_555
Mg4 O84 2.149196 1_555
Mg4 O108 2.181978 1_565
Mg5 O21 2.070074 1_555
Mg5 O87 2.080830 1_555
Mg5 O17 2.094141 1_555
Mg5 O119 2.126480 1_655
Mg5 O85 2.149196 1_555
Mg5 O109 2.181978 1_545
Mg6 O22 2.070074 1_555
Mg6 O84 2.080830 1_555
Mg6 O18 2.094141 1_555
Mg6 O116 2.126480 1_655
Mg6 O86 2.149196 1_555
Mg6 O110 2.181978 1_555
Mg7 O23 2.070074 1_555
Mg7 O85 2.080830 1_455
Mg7 O19 2.094141 1_555
Mg7 O117 2.126480 1_555
Mg7 O87 2.149196 1_555
Mg7 O111 2.181978 1_555
Mg8 O56 2.083883 1_555
Mg8 O106 2.096426 1_455
Mg8 O60 2.106937 1_555
Mg8 O110 2.111414 1_555
Mg8 O104 2.136266 1_555
Mg8 O116 2.176944 1_555
Mg9 O57 2.083883 1_555
Mg9 O107 2.096426 1_555
Mg9 O61 2.106937 1_555
Mg9 O111 2.111414 1_655
Mg9 O105 2.136266 1_555
Mg9 O117 2.176944 1_555
Mg10 O58 2.083883 1_555
Mg10 O104 2.096426 1_555
Mg10 O62 2.106937 1_555
Mg10 O108 2.111414 1_655
Mg10 O106 2.136266 1_555
Mg10 O118 2.176944 1_545
Mg11 O59 2.083883 1_555
Mg11 O105 2.096426 1_455
Mg11 O63 2.106937 1_555
Mg11 O109 2.111414 1_555
Mg11 O107 2.136266 1_555
Mg11 O119 2.176944 1_565
Mg12 O70 2.086034 1_555
Mg12 O92 2.100382 1_655
Mg12 O50 2.114033 1_555
Mg12 O82 2.120480 1_555
Mg12 O94 2.144458 1_555
Mg12 O72 2.184074 1_655
Mg13 O71 2.086034 1_555
Mg13 O93 2.100382 1_555
Mg13 O51 2.114033 1_555
Mg13 O83 2.120480 1_555
Mg13 O95 2.144458 1_555
Mg13 O73 2.184074 1_555
Mg14 O68 2.086034 1_555
Mg14 O94 2.100382 1_555
Mg14 O48 2.114033 1_555
Mg14 O80 2.120480 1_555
Mg14 O92 2.144458 1_555
Mg14 O74 2.184074 1_565
Mg15 O69 2.086034 1_555
Mg15 O95 2.100382 1_655
Mg15 O49 2.114033 1_555
Mg15 O81 2.120480 1_555
Mg15 O93 2.144458 1_555
Mg15 O75 2.184074 1_645
Mg16 O100 2.085016 1_655
Mg16 O26 2.108573 1_555
Mg16 O2 2.120341 1_555
Mg16 O74 2.124556 1_555
Mg16 O102 2.136790 1_555
Mg16 O80 2.163198 1_645
Mg17 O101 2.085016 1_555
Mg17 O27 2.108573 1_555
Mg17 O3 2.120341 1_555
Mg17 O75 2.124556 1_555
Mg17 O103 2.136790 1_555
Mg17 O81 2.163198 1_565
Mg18 O102 2.085016 1_555
Mg18 O24 2.108573 1_555
Mg18 O0 2.120341 1_555
Mg18 O72 2.124556 1_555
Mg18 O100 2.136790 1_555
Mg18 O82 2.163198 1_555
Mg19 O103 2.085016 1_655
Mg19 O25 2.108573 1_555
Mg19 O1 2.120341 1_555
Mg19 O73 2.124556 1_555
Mg19 O101 2.136790 1_555
Mg19 O83 2.163198 1_655
Mg20 O43 2.105372 1_555
Mg20 O41 2.108501 1_455
Mg20 O115 2.119965 1_555
Mg20 O12 2.132773 1_555
Mg20 O11 2.141431 1_555
Mg20 O114 2.216900 1_555
Mg21 O42 2.105372 1_555
Mg21 O40 2.108501 1_555
Mg21 O114 2.119965 1_655
Mg21 O13 2.132773 1_555
Mg21 O10 2.141431 1_555
Mg21 O115 2.216900 1_555
Mg22 O41 2.105372 1_555
Mg22 O43 2.108501 1_555
Mg22 O113 2.119965 1_655
Mg22 O14 2.132773 1_555
Mg22 O9 2.141431 1_555
Mg22 O112 2.216900 1_565
Mg23 O40 2.105372 1_555
Mg23 O42 2.108501 1_455
Mg23 O112 2.119965 1_555
Mg23 O15 2.132773 1_555
Mg23 O8 2.141431 1_555
Mg23 O113 2.216900 1_545
B0 O114 1.374058 1_555
B0 O40 1.376690 1_555
B0 O36 1.421490 1_555
B1 O115 1.374058 1_555
B1 O41 1.376690 1_555
B1 O37 1.421490 1_555
B2 O112 1.374058 1_555
B2 O42 1.376690 1_555
B2 O38 1.421490 1_555
B3 O113 1.374058 1_555
B3 O43 1.376690 1_555
B3 O39 1.421490 1_555
B4 O84 1.366449 1_555
B4 O116 1.374522 1_555
B4 O28 1.424814 1_555
B5 O85 1.366449 1_555
B5 O117 1.374522 1_555
B5 O29 1.424814 1_555
B6 O86 1.366449 1_555
B6 O118 1.374522 1_555
B6 O30 1.424814 1_555
B7 O87 1.366449 1_555
B7 O119 1.374522 1_555
B7 O31 1.424814 1_555
B8 O90 1.368784 1_555
B8 O76 1.372728 1_655
B8 O32 1.418304 1_555
B9 O91 1.368784 1_555
B9 O77 1.372728 1_555
B9 O33 1.418304 1_555
B10 O88 1.368784 1_555
B10 O78 1.372728 1_555
B10 O34 1.418304 1_555
B11 O89 1.368784 1_555
B11 O79 1.372728 1_655
B11 O35 1.418304 1_555
B12 O100 1.368091 1_555
B12 O74 1.374389 1_555
B12 O6 1.428359 1_555
B13 O101 1.368091 1_555
B13 O75 1.374389 1_655
B13 O7 1.428359 1_655
B14 O102 1.368091 1_555
B14 O72 1.374389 1_655
B14 O4 1.428359 1_655
B15 O103 1.368091 1_555
B15 O73 1.374389 1_555
B15 O5 1.428359 1_555
B16 O82 1.375314 1_555
B16 O92 1.375341 1_555
B16 O64 1.415752 1_555
B17 O83 1.375314 1_655
B17 O93 1.375341 1_555
B17 O65 1.415752 1_555
B18 O80 1.375314 1_655
B18 O94 1.375341 1_555
B18 O66 1.415752 1_555
B19 O81 1.375314 1_555
B19 O95 1.375341 1_555
B19 O67 1.415752 1_555
B20 O104 1.371907 1_555
B20 O108 1.374284 1_555
B20 O44 1.409983 1_555
B21 O105 1.371907 1_555
B21 O109 1.374284 1_555
B21 O45 1.409983 1_555
B22 O106 1.371907 1_555
B22 O110 1.374284 1_555
B22 O46 1.409983 1_555
B23 O107 1.371907 1_555
B23 O111 1.374284 1_555
B23 O47 1.409983 1_555
B24 O12 1.367526 1_555
B24 O50 1.369338 1_455
B24 O64 1.431979 1_555
B25 O13 1.367526 1_555
B25 O51 1.369338 1_555
B25 O65 1.431979 1_555
B26 O14 1.367526 1_555
B26 O48 1.369338 1_555
B26 O66 1.431979 1_555
B27 O15 1.367526 1_555
B27 O49 1.369338 1_455
B27 O67 1.431979 1_555
B28 O20 1.361952 1_555
B28 O52 1.367750 1_555
B28 O34 1.431983 1_555
B29 O21 1.361952 1_555
B29 O53 1.367750 1_555
B29 O35 1.431983 1_555
B30 O22 1.361952 1_555
B30 O54 1.367750 1_555
B30 O32 1.431983 1_555
B31 O23 1.361952 1_555
B31 O55 1.367750 1_555
B31 O33 1.431983 1_555
B32 O0 1.367658 1_555
B32 O10 1.369515 1_555
B32 O36 1.434528 1_555
B33 O1 1.367658 1_555
B33 O11 1.369515 1_655
B33 O37 1.434528 1_555
B34 O2 1.367658 1_555
B34 O8 1.369515 1_655
B34 O38 1.434528 1_555
B35 O3 1.367658 1_555
B35 O9 1.369515 1_555
B35 O39 1.434528 1_555
B36 O16 1.362940 1_555
B36 O68 1.363256 1_555
B36 O30 1.427863 1_555
B37 O17 1.362940 1_555
B37 O69 1.363256 1_555
B37 O31 1.427863 1_655
B38 O18 1.362940 1_555
B38 O70 1.363256 1_555
B38 O28 1.427863 1_655
B39 O19 1.362940 1_555
B39 O71 1.363256 1_555
B39 O29 1.427863 1_555
B40 O96 1.358779 1_555
B40 O62 1.365198 1_555
B40 O44 1.432451 1_555
B41 O97 1.358779 1_555
B41 O63 1.365198 1_655
B41 O45 1.432451 1_555
B42 O98 1.358779 1_555
B42 O60 1.365198 1_655
B42 O46 1.432451 1_555
B43 O99 1.358779 1_555
B43 O61 1.365198 1_555
B43 O47 1.432451 1_555
B44 O24 1.359281 1_555
B44 O56 1.369068 1_555
B44 O4 1.429480 1_555
B45 O25 1.359281 1_555
B45 O57 1.369068 1_555
B45 O5 1.429480 1_555
B46 O26 1.359281 1_555
B46 O58 1.369068 1_555
B46 O6 1.429480 1_555
B47 O27 1.359281 1_555
B47 O59 1.369068 1_555
B47 O7 1.429480 1_555
