# generated using pymatgen
data_PuTaC2
_symmetry_space_group_name_H-M   'P 1'
_cell_length_a   5.91368002
_cell_length_b   5.91368002
_cell_length_c   5.91367991
_cell_angle_alpha   32.15262489
_cell_angle_beta   32.15262489
_cell_angle_gamma   32.15262477
_symmetry_Int_Tables_number   1
_chemical_formula_structural   PuTaC2
_chemical_formula_sum   'Pu1 Ta1 C2'
_cell_volume   52.05275301
_cell_formula_units_Z   1
loop_
 _symmetry_equiv_pos_site_id
 _symmetry_equiv_pos_as_xyz
  1  'x, y, z'
loop_
 _atom_site_type_symbol
 _atom_site_label
 _atom_site_symmetry_multiplicity
 _atom_site_fract_x
 _atom_site_fract_y
 _atom_site_fract_z
 _atom_site_occupancy
  Pu  Pu0  1  0.00000000  0.00000000  0.00000000  1
  Ta  Ta0  1  0.50000000  0.50000000  0.50000000  1
  C  C0  1  0.24118400  0.24118400  0.24118400  1
  C  C1  1  0.75881600  0.75881600  0.75881600  1
loop_
_geom_bond_atom_site_label_1
_geom_bond_atom_site_label_2
_geom_bond_distance
_geom_bond_site_symmetry_2
C0 Ta0 2.268188 1_554
C0 Ta0 2.268188 1_545
C0 Ta0 2.268188 1_455
C0 Pu0 2.444389 1_556
C0 Pu0 2.444389 1_565
C0 Pu0 2.444389 1_655
C1 Ta0 2.268188 1_556
C1 Ta0 2.268188 1_565
C1 Ta0 2.268188 1_655
C1 Pu0 2.444389 1_665
C1 Pu0 2.444389 1_566
C1 Pu0 2.444389 1_656
