# generated using pymatgen
data_EuSi2
_symmetry_space_group_name_H-M   'P 1'
_cell_length_a   4.27870470
_cell_length_b   4.27870470
_cell_length_c   7.48160471
_cell_angle_alpha   106.61553882
_cell_angle_beta   106.61553882
_cell_angle_gamma   90.00000000
_symmetry_Int_Tables_number   1
_chemical_formula_structural   EuSi2
_chemical_formula_sum   'Eu2 Si4'
_cell_volume   125.26906669
_cell_formula_units_Z   2
loop_
 _symmetry_equiv_pos_site_id
 _symmetry_equiv_pos_as_xyz
  1  'x, y, z'
loop_
 _atom_site_type_symbol
 _atom_site_label
 _atom_site_symmetry_multiplicity
 _atom_site_fract_x
 _atom_site_fract_y
 _atom_site_fract_z
 _atom_site_occupancy
  Eu  Eu0  1  0.25000000  0.75000000  0.49999900  1
  Eu  Eu1  1  -0.00000000  -0.00000000  0.00000100  1
  Si  Si0  1  0.66586334  0.16586334  0.33172669  1
  Si  Si1  1  0.58413666  0.58413666  0.16827331  1
  Si  Si2  1  0.83413666  0.33413666  0.66827331  1
  Si  Si3  1  0.41586334  0.41586334  0.83172669  1
loop_
_geom_bond_atom_site_label_1
_geom_bond_atom_site_label_2
_geom_bond_distance
_geom_bond_site_symmetry_2
Eu0 Si1 3.119145 1_555
Eu0 Si1 3.119148 1_455
Eu0 Si3 3.119155 1_565
Eu0 Si3 3.119158 1_555
Eu0 Si0 3.237189 1_565
Eu0 Si0 3.237192 1_555
Eu0 Si0 3.237192 1_465
Eu0 Si2 3.237194 1_565
Eu0 Si0 3.237195 1_455
Eu0 Si2 3.237197 1_465
Eu0 Si2 3.237197 1_555
Eu0 Si2 3.237200 1_455
Eu1 Si0 3.119145 1_455
Eu1 Si0 3.119148 1_555
Eu1 Si2 3.119155 1_444
Eu1 Si2 3.119158 1_454
Eu1 Si1 3.237189 1_445
Eu1 Si1 3.237192 1_455
Eu1 Si1 3.237192 1_545
Eu1 Si3 3.237194 1_444
Eu1 Si1 3.237195 1_555
Eu1 Si3 3.237197 1_454
Eu1 Si3 3.237197 1_544
Eu1 Si3 3.237200 1_554
Si0 Si2 2.302844 1_555
Si0 Si1 2.414071 1_555
Si0 Si1 2.414071 1_545
Si1 Si3 2.302844 1_554
Si2 Si3 2.414071 1_555
Si2 Si3 2.414071 1_655
