# generated using pymatgen
data_Nd3PbN
_symmetry_space_group_name_H-M   'P 1'
_cell_length_a   5.89839100
_cell_length_b   5.89839100
_cell_length_c   5.89839100
_cell_angle_alpha   90.00000000
_cell_angle_beta   90.00000000
_cell_angle_gamma   90.00000000
_symmetry_Int_Tables_number   1
_chemical_formula_structural   Nd3PbN
_chemical_formula_sum   'Nd3 Pb1 N1'
_cell_volume   205.21101795
_cell_formula_units_Z   1
loop_
 _symmetry_equiv_pos_site_id
 _symmetry_equiv_pos_as_xyz
  1  'x, y, z'
loop_
 _atom_site_type_symbol
 _atom_site_label
 _atom_site_symmetry_multiplicity
 _atom_site_fract_x
 _atom_site_fract_y
 _atom_site_fract_z
 _atom_site_occupancy
  Nd  Nd0  1  0.50000000  0.00000000  0.50000000  1
  Nd  Nd1  1  0.00000000  0.50000000  0.50000000  1
  Nd  Nd2  1  0.50000000  0.50000000  0.00000000  1
  Pb  Pb0  1  0.50000000  0.50000000  0.50000000  1
  N  N0  1  0.00000000  0.00000000  0.00000000  1
loop_
_geom_bond_atom_site_label_1
_geom_bond_atom_site_label_2
_geom_bond_distance
_geom_bond_site_symmetry_2
Nd0 Pb0 2.949196 1_555
Nd0 Pb0 2.949196 1_545
Nd1 Pb0 2.949196 1_455
Nd1 Pb0 2.949196 1_555
Nd2 Pb0 2.949196 1_555
Nd2 Pb0 2.949196 1_554
