# generated using pymatgen
data_SrLaMn2O5
_symmetry_space_group_name_H-M   'P 1'
_cell_length_a   5.53172500
_cell_length_b   5.66080100
_cell_length_c   16.38238200
_cell_angle_alpha   90.00000000
_cell_angle_beta   90.00000000
_cell_angle_gamma   90.00000000
_symmetry_Int_Tables_number   1
_chemical_formula_structural   SrLaMn2O5
_chemical_formula_sum   'Sr4 La4 Mn8 O20'
_cell_volume   512.99781840
_cell_formula_units_Z   4
loop_
 _symmetry_equiv_pos_site_id
 _symmetry_equiv_pos_as_xyz
  1  'x, y, z'
loop_
 _atom_site_type_symbol
 _atom_site_label
 _atom_site_symmetry_multiplicity
 _atom_site_fract_x
 _atom_site_fract_y
 _atom_site_fract_z
 _atom_site_occupancy
  Sr  Sr0  1  0.24791400  0.98871800  0.63698600  1
  Sr  Sr1  1  0.74791400  0.51128200  0.36301400  1
  Sr  Sr2  1  0.25208600  0.01128200  0.13698600  1
  Sr  Sr3  1  0.75208600  0.48871800  0.86301400  1
  La  La0  1  0.25588800  0.01988100  0.85798500  1
  La  La1  1  0.75588800  0.48011900  0.14201500  1
  La  La2  1  0.24411200  0.98011900  0.35798500  1
  La  La3  1  0.74411200  0.51988100  0.64201500  1
  Mn  Mn0  1  0.24988000  0.50100600  0.74971000  1
  Mn  Mn1  1  0.74988000  0.99899400  0.25029000  1
  Mn  Mn2  1  0.25012000  0.49899400  0.24971000  1
  Mn  Mn3  1  0.75012000  0.00100600  0.75029000  1
  Mn  Mn4  1  0.20632000  0.44361500  0.49988700  1
  Mn  Mn5  1  0.70632000  0.05638500  0.50011300  1
  Mn  Mn6  1  0.29368000  0.55638500  0.99988700  1
  Mn  Mn7  1  0.79368000  0.94361500  0.00011300  1
  O  O0  1  0.32300700  0.09002300  0.49164900  1
  O  O1  1  0.82300700  0.40997700  0.50835100  1
  O  O2  1  0.17699300  0.90997700  0.99164900  1
  O  O3  1  0.67699300  0.59002300  0.00835100  1
  O  O4  1  0.98997700  0.75021000  0.75767300  1
  O  O5  1  0.48997700  0.74979000  0.24232700  1
  O  O6  1  0.51002300  0.24979000  0.25767300  1
  O  O7  1  0.01002300  0.25021000  0.74232700  1
  O  O8  1  0.51407400  0.25353400  0.74165200  1
  O  O9  1  0.01407400  0.24646600  0.25834800  1
  O  O10  1  0.98592600  0.74646600  0.24165200  1
  O  O11  1  0.48592600  0.75353400  0.75834800  1
  O  O12  1  0.27043100  0.53119400  0.61861200  1
  O  O13  1  0.77043100  0.96880600  0.38138800  1
  O  O14  1  0.22956900  0.46880600  0.11861200  1
  O  O15  1  0.72956900  0.03119400  0.88138800  1
  O  O16  1  0.24758100  0.44232100  0.88221200  1
  O  O17  1  0.74758100  0.05767900  0.11778800  1
  O  O18  1  0.25241900  0.55767900  0.38221200  1
  O  O19  1  0.75241900  0.94232100  0.61778800  1
loop_
_geom_bond_atom_site_label_1
_geom_bond_atom_site_label_2
_geom_bond_distance
_geom_bond_site_symmetry_2
La0 O2 2.317859 1_545
La0 O16 2.424497 1_555
La0 O11 2.560649 1_545
La0 O15 2.648948 1_555
La0 O7 2.672052 1_555
La0 O4 2.682284 1_445
La0 O8 2.724216 1_555
La0 O15 2.937286 1_455
La1 O3 2.317859 1_555
La1 O17 2.424497 1_555
La1 O10 2.560649 1_555
La1 O14 2.648948 1_655
La1 O6 2.672052 1_555
La1 O5 2.682284 1_555
La1 O9 2.724216 1_655
La1 O14 2.937286 1_555
La2 O0 2.317859 1_565
La2 O18 2.424497 1_555
La2 O9 2.560649 1_565
La2 O13 2.648948 1_455
La2 O5 2.672052 1_555
La2 O6 2.682284 1_565
La2 O10 2.724216 1_455
La2 O13 2.937286 1_555
La3 O1 2.317859 1_555
La3 O19 2.424497 1_555
La3 O8 2.560649 1_555
La3 O12 2.648948 1_555
La3 O4 2.672052 1_555
La3 O7 2.682284 1_655
La3 O11 2.724216 1_555
La3 O12 2.937286 1_655
Mn0 O11 1.941259 1_555
Mn0 O7 1.946960 1_555
Mn0 O4 2.018438 1_455
Mn0 O8 2.028731 1_555
Mn0 O12 2.157483 1_555
Mn0 O16 2.196008 1_555
Mn1 O10 1.941259 1_555
Mn1 O6 1.946960 1_565
Mn1 O5 2.018438 1_555
Mn1 O9 2.028731 1_665
Mn1 O13 2.157483 1_555
Mn1 O17 2.196008 1_565
Mn2 O9 1.941259 1_555
Mn2 O5 1.946960 1_555
Mn2 O6 2.018438 1_555
Mn2 O10 2.028731 1_455
Mn2 O14 2.157483 1_555
Mn2 O18 2.196008 1_555
Mn3 O8 1.941259 1_555
Mn3 O4 1.946960 1_545
Mn3 O7 2.018438 1_655
Mn3 O11 2.028731 1_545
Mn3 O15 2.157483 1_555
Mn3 O19 2.196008 1_545
Mn4 O12 2.038278 1_555
Mn4 O18 2.048987 1_555
Mn4 O0 2.107443 1_555
Mn4 O1 2.133426 1_455
Mn5 O13 2.038278 1_545
Mn5 O19 2.048987 1_545
Mn5 O1 2.107443 1_555
Mn5 O0 2.133426 1_555
Mn6 O14 2.038278 1_556
Mn6 O16 2.048987 1_555
Mn6 O2 2.107443 1_555
Mn6 O3 2.133426 1_556
Mn7 O15 2.038278 1_564
Mn7 O17 2.048987 1_565
Mn7 O3 2.107443 1_555
Mn7 O2 2.133426 1_654
O0 Sr0 2.484032 1_545
O1 Sr1 2.484032 1_555
O2 Sr2 2.484032 1_566
O3 Sr3 2.484032 1_554
O4 Sr3 2.626982 1_555
O4 Sr0 2.787085 1_655
O5 Sr2 2.626982 1_565
O5 Sr1 2.787085 1_555
O6 Sr1 2.626982 1_555
O6 Sr2 2.787085 1_555
O7 Sr0 2.626982 1_545
O7 Sr3 2.787085 1_455
O8 Sr0 2.712024 1_545
O8 Sr3 2.731090 1_555
O9 Sr1 2.712024 1_455
O9 Sr2 2.731090 1_555
O10 Sr2 2.712024 1_665
O10 Sr1 2.731090 1_555
O11 Sr3 2.712024 1_555
O11 Sr0 2.731090 1_555
O12 Sr0 2.610359 1_555
O12 Sr0 3.088079 1_545
O13 Sr1 2.610359 1_555
O13 Sr1 3.088079 1_565
O14 Sr2 2.610359 1_555
O14 Sr2 3.088079 1_565
O15 Sr3 2.610359 1_555
O15 Sr3 3.088079 1_545
O16 Sr3 2.771401 1_455
O16 Sr3 2.820703 1_555
O17 Sr2 2.771401 1_555
O17 Sr2 2.820703 1_655
O18 Sr1 2.771401 1_555
O18 Sr1 2.820703 1_455
O19 Sr0 2.771401 1_655
O19 Sr0 2.820703 1_555
