# generated using pymatgen
data_BaNb2(FeO3)4
_symmetry_space_group_name_H-M   'P 1'
_cell_length_a   8.44825709
_cell_length_b   8.44825709
_cell_length_c   8.44825709
_cell_angle_alpha   106.27767156
_cell_angle_beta   106.27767156
_cell_angle_gamma   116.06654306
_symmetry_Int_Tables_number   1
_chemical_formula_structural   BaNb2(FeO3)4
_chemical_formula_sum   'Ba2 Nb4 Fe8 O24'
_cell_volume   459.50807950
_cell_formula_units_Z   2
loop_
 _symmetry_equiv_pos_site_id
 _symmetry_equiv_pos_as_xyz
  1  'x, y, z'
loop_
 _atom_site_type_symbol
 _atom_site_label
 _atom_site_symmetry_multiplicity
 _atom_site_fract_x
 _atom_site_fract_y
 _atom_site_fract_z
 _atom_site_occupancy
  Ba  Ba0  1  0.78448700  0.78448700  0.00000000  1
  Ba  Ba1  1  0.21551300  0.21551300  0.00000000  1
  Nb  Nb0  1  0.84164900  0.35762500  0.19927400  1
  Nb  Nb1  1  0.15835100  0.64237500  0.80072600  1
  Nb  Nb2  1  0.35762500  0.15835100  0.51597700  1
  Nb  Nb3  1  0.64237500  0.84164900  0.48402300  1
  Fe  Fe0  1  0.49500100  0.01321400  0.17493600  1
  Fe  Fe1  1  0.83827700  0.32006500  0.82506400  1
  Fe  Fe2  1  0.01321400  0.83827700  0.51821300  1
  Fe  Fe3  1  0.32006500  0.49500100  0.48178700  1
  Fe  Fe4  1  0.50499900  0.98678600  0.82506400  1
  Fe  Fe5  1  0.16172300  0.67993500  0.17493600  1
  Fe  Fe6  1  0.98678600  0.16172300  0.48178700  1
  Fe  Fe7  1  0.67993500  0.50499900  0.51821300  1
  O  O0  1  0.79993000  0.15065000  0.95058100  1
  O  O1  1  0.20007000  0.84935000  0.04941900  1
  O  O2  1  0.15065000  0.20007000  0.35072000  1
  O  O3  1  0.84935000  0.79993000  0.64928000  1
  O  O4  1  0.46844600  0.82343800  0.95818500  1
  O  O5  1  0.86525400  0.51026200  0.04181500  1
  O  O6  1  0.82343800  0.86525400  0.35499200  1
  O  O7  1  0.51026200  0.46844600  0.64500800  1
  O  O8  1  0.53155400  0.17656200  0.04181500  1
  O  O9  1  0.13474600  0.48973800  0.95818500  1
  O  O10  1  0.17656200  0.13474600  0.64500800  1
  O  O11  1  0.48973800  0.53155400  0.35499200  1
  O  O12  1  0.83892100  0.54783100  0.38675200  1
  O  O13  1  0.16107900  0.45216900  0.61324800  1
  O  O14  1  0.54783100  0.16107900  0.70890900  1
  O  O15  1  0.45216900  0.83892100  0.29109100  1
  O  O16  1  0.49996000  0.20817900  0.37060900  1
  O  O17  1  0.83757000  0.12935100  0.62939100  1
  O  O18  1  0.20817900  0.83757000  0.70821900  1
  O  O19  1  0.12935100  0.49996000  0.29178100  1
  O  O20  1  0.50004000  0.79182100  0.62939100  1
  O  O21  1  0.16243000  0.87064900  0.37060900  1
  O  O22  1  0.79182100  0.16243000  0.29178100  1
  O  O23  1  0.87064900  0.50004000  0.70821900  1
loop_
_geom_bond_atom_site_label_1
_geom_bond_atom_site_label_2
_geom_bond_distance
_geom_bond_site_symmetry_2
Ba0 O5 2.769567 1_555
Ba0 O7 2.769570 1_554
Ba0 O6 2.769570 1_555
Ba0 O4 2.769571 1_554
Ba0 O0 3.187563 1_564
Ba0 O3 3.187566 1_554
Ba0 O2 3.187566 1_665
Ba0 O1 3.187568 1_655
Ba1 O9 2.769567 1_554
Ba1 O11 2.769570 1_555
Ba1 O10 2.769570 1_554
Ba1 O8 2.769571 1_555
Ba1 O1 3.187563 1_545
Ba1 O3 3.187566 1_444
Ba1 O2 3.187566 1_555
Ba1 O0 3.187568 1_454
Nb0 O12 1.928097 1_555
Nb0 O22 1.950436 1_555
Nb0 O19 1.950436 1_655
Nb0 O8 2.087225 1_555
Nb0 O5 2.087231 1_555
Nb0 O0 2.140054 1_554
Nb1 O13 1.928097 1_555
Nb1 O23 1.950436 1_455
Nb1 O18 1.950436 1_555
Nb1 O4 2.087225 1_555
Nb1 O9 2.087231 1_555
Nb1 O1 2.140054 1_556
Nb2 O14 1.928087 1_555
Nb2 O21 1.950436 1_545
Nb2 O16 1.950443 1_555
Nb2 O10 2.087217 1_555
Nb2 O7 2.087224 1_555
Nb2 O2 2.140064 1_555
Nb3 O15 1.928087 1_555
Nb3 O17 1.950436 1_565
Nb3 O20 1.950443 1_555
Nb3 O6 2.087217 1_555
Nb3 O11 2.087224 1_555
Nb3 O3 2.140064 1_555
Fe0 O4 1.944685 1_544
Fe0 O15 1.950101 1_545
Fe0 O16 1.954895 1_555
Fe0 O1 1.978326 1_545
Fe0 O8 1.988668 1_555
Fe0 O22 1.997090 1_555
Fe1 O5 1.944681 1_556
Fe1 O14 1.950087 1_555
Fe1 O17 1.954900 1_555
Fe1 O0 1.978333 1_555
Fe1 O9 1.988668 1_655
Fe1 O23 1.997090 1_555
Fe2 O6 1.944697 1_455
Fe2 O12 1.950088 1_455
Fe2 O18 1.954890 1_555
Fe2 O3 1.978326 1_455
Fe2 O10 1.988668 1_565
Fe2 O21 1.997090 1_555
Fe3 O7 1.944691 1_555
Fe3 O13 1.950094 1_555
Fe3 O19 1.954895 1_555
Fe3 O2 1.978326 1_555
Fe3 O11 1.988661 1_555
Fe3 O20 1.997090 1_555
Fe4 O8 1.944685 1_566
Fe4 O14 1.950101 1_565
Fe4 O20 1.954895 1_555
Fe4 O0 1.978326 1_565
Fe4 O4 1.988668 1_555
Fe4 O18 1.997090 1_555
Fe5 O9 1.944681 1_554
Fe5 O15 1.950087 1_555
Fe5 O21 1.954900 1_555
Fe5 O1 1.978333 1_555
Fe5 O5 1.988668 1_455
Fe5 O19 1.997090 1_555
Fe6 O10 1.944697 1_655
Fe6 O13 1.950088 1_655
Fe6 O22 1.954890 1_555
Fe6 O2 1.978326 1_655
Fe6 O6 1.988668 1_545
Fe6 O17 1.997090 1_555
Fe7 O11 1.944691 1_555
Fe7 O12 1.950094 1_555
Fe7 O23 1.954895 1_555
Fe7 O3 1.978326 1_555
Fe7 O7 1.988661 1_555
Fe7 O16 1.997090 1_555
