# generated using pymatgen
data_Na2CoO3
_symmetry_space_group_name_H-M   'P 1'
_cell_length_a   5.36756429
_cell_length_b   9.13984668
_cell_length_c   5.68353521
_cell_angle_alpha   73.19586618
_cell_angle_beta   98.57418344
_cell_angle_gamma   90.52777353
_symmetry_Int_Tables_number   1
_chemical_formula_structural   Na2CoO3
_chemical_formula_sum   'Na8 Co4 O12'
_cell_volume   263.76823204
_cell_formula_units_Z   4
loop_
 _symmetry_equiv_pos_site_id
 _symmetry_equiv_pos_as_xyz
  1  'x, y, z'
loop_
 _atom_site_type_symbol
 _atom_site_label
 _atom_site_symmetry_multiplicity
 _atom_site_fract_x
 _atom_site_fract_y
 _atom_site_fract_z
 _atom_site_occupancy
  Na  Na0  1  0.75458200  0.25217800  0.49967900  1
  Na  Na1  1  0.25201800  0.75167000  0.50148300  1
  Na  Na2  1  0.99966000  0.99837400  0.99933300  1
  Na  Na3  1  0.49954000  0.50101700  0.00086200  1
  Na  Na4  1  0.24172000  0.07674600  0.50526300  1
  Na  Na5  1  0.73645300  0.57973300  0.50359900  1
  Na  Na6  1  0.25895300  0.42223100  0.49300600  1
  Na  Na7  1  0.76426000  0.91984500  0.49440300  1
  Co  Co0  1  0.50190300  0.82884900  0.00286300  1
  Co  Co1  1  0.49458900  0.16354400  0.99350600  1
  Co  Co2  1  0.00783600  0.32873100  0.99950100  1
  Co  Co3  1  0.99094100  0.67167900  0.00675300  1
  O  O0  1  0.65020300  0.34002900  0.80504700  1
  O  O1  1  0.15618400  0.84477700  0.80032300  1
  O  O2  1  0.87089000  0.16378000  0.20059100  1
  O  O3  1  0.36501500  0.66002600  0.20764500  1
  O  O4  1  0.34213200  0.27375000  0.19060600  1
  O  O5  1  0.83518100  0.78209800  0.20667200  1
  O  O6  1  0.91427100  0.46392400  0.19605800  1
  O  O7  1  0.41815000  0.97107100  0.19249500  1
  O  O8  1  0.14123400  0.22506600  0.79549900  1
  O  O9  1  0.63622000  0.73243100  0.80061300  1
  O  O10  1  0.58369400  0.03604300  0.80393100  1
  O  O11  1  0.08436900  0.51240900  0.80027100  1
loop_
_geom_bond_atom_site_label_1
_geom_bond_atom_site_label_2
_geom_bond_distance
_geom_bond_site_symmetry_2
Na0 O2 2.247649 1_555
Na0 O0 2.252733 1_555
Na0 O8 2.433827 1_655
Na0 O6 2.436696 1_555
Na0 O10 2.489656 1_555
Na0 O4 2.583398 1_555
Na1 O1 2.231112 1_555
Na1 O3 2.231298 1_555
Na1 O9 2.441824 1_555
Na1 O7 2.509627 1_555
Na1 O5 2.552451 1_455
Na1 O11 2.597670 1_555
Na2 O5 2.237577 1_556
Na2 O8 2.249021 1_665
Na2 O1 2.275784 1_655
Na2 O2 2.307920 1_566
Na2 O10 2.321784 1_565
Na2 O7 2.330207 1_656
Na3 O9 2.266201 1_554
Na3 O4 2.266203 1_555
Na3 O3 2.296674 1_555
Na3 O0 2.301030 1_554
Na3 O6 2.315438 1_555
Na3 O11 2.335530 1_554
Na4 O10 2.259987 1_555
Na4 O4 2.266827 1_555
Na4 O1 2.382019 1_545
Na4 O2 2.407937 1_455
Na4 O8 2.534054 1_555
Na4 O7 2.549742 1_545
Na5 O5 2.234637 1_555
Na5 O11 2.278483 1_655
Na5 O3 2.378248 1_555
Na5 O0 2.448887 1_555
Na5 O6 2.583096 1_555
Na5 O9 2.594949 1_555
Na6 O8 2.261416 1_555
Na6 O6 2.264189 1_455
Na6 O3 2.427470 1_555
Na6 O11 2.437550 1_555
Na6 O0 2.503617 1_555
Na6 O4 2.565845 1_555
Na7 O9 2.246461 1_555
Na7 O7 2.283818 1_555
Na7 O5 2.406065 1_555
Na7 O1 2.483040 1_655
Na7 O2 2.489117 1_565
Na7 O10 2.601872 1_565
Co0 O9 1.860709 1_554
Co0 O3 1.863092 1_555
Co0 O5 1.958192 1_555
Co0 O10 1.987952 1_564
Co0 O7 2.004671 1_555
Co0 O1 2.015182 1_554
Co1 O7 1.875314 1_546
Co1 O10 1.907248 1_555
Co1 O0 1.920894 1_555
Co1 O4 1.969795 1_556
Co1 O8 2.048725 1_555
Co1 O2 2.181165 1_556
Co2 O11 1.815523 1_555
Co2 O2 1.831200 1_456
Co2 O8 1.910491 1_555
Co2 O4 1.942125 1_556
Co2 O6 2.000975 1_456
Co2 O0 2.054775 1_455
Co3 O6 1.966965 1_555
Co3 O1 1.969111 1_654
Co3 O5 1.992582 1_555
Co3 O9 2.069859 1_554
Co3 O3 2.143960 1_655
Co3 O11 2.219113 1_654
