# generated using pymatgen
data_CeMg14Sn
_symmetry_space_group_name_H-M   'P 1'
_cell_length_a   6.55661235
_cell_length_b   6.55661235
_cell_length_c   10.43677100
_cell_angle_alpha   90.00000000
_cell_angle_beta   90.00000000
_cell_angle_gamma   120.73396609
_symmetry_Int_Tables_number   1
_chemical_formula_structural   CeMg14Sn
_chemical_formula_sum   'Ce1 Mg14 Sn1'
_cell_volume   385.65240296
_cell_formula_units_Z   1
loop_
 _symmetry_equiv_pos_site_id
 _symmetry_equiv_pos_as_xyz
  1  'x, y, z'
loop_
 _atom_site_type_symbol
 _atom_site_label
 _atom_site_symmetry_multiplicity
 _atom_site_fract_x
 _atom_site_fract_y
 _atom_site_fract_z
 _atom_site_occupancy
  Ce  Ce0  1  0.33259800  0.66740200  0.50000000  1
  Mg  Mg0  1  0.83305100  0.16694900  0.00000000  1
  Mg  Mg1  1  0.33322500  0.66677500  0.00000000  1
  Mg  Mg2  1  0.32883600  0.16338300  0.50000000  1
  Mg  Mg3  1  0.33370700  0.16705100  0.00000000  1
  Mg  Mg4  1  0.83661700  0.67116400  0.50000000  1
  Mg  Mg5  1  0.83294900  0.66629300  0.00000000  1
  Mg  Mg6  1  0.16666500  0.33119700  0.24501100  1
  Mg  Mg7  1  0.16666500  0.33119700  0.75498900  1
  Mg  Mg8  1  0.66880300  0.83333500  0.24501100  1
  Mg  Mg9  1  0.66880300  0.83333500  0.75498900  1
  Mg  Mg10  1  0.66584600  0.33415400  0.25244500  1
  Mg  Mg11  1  0.66584600  0.33415400  0.74755500  1
  Mg  Mg12  1  0.16532300  0.83467700  0.24523000  1
  Mg  Mg13  1  0.16532300  0.83467700  0.75477000  1
  Sn  Sn0  1  0.83575200  0.16424800  0.50000000  1
loop_
_geom_bond_atom_site_label_1
_geom_bond_atom_site_label_2
_geom_bond_distance
_geom_bond_site_symmetry_2
Ce0 Sn0 3.242069 1_565
Ce0 Sn0 3.242069 1_455
Ce0 Mg2 3.264630 1_565
Ce0 Mg4 3.264630 1_455
Ce0 Mg9 3.267097 1_555
Ce0 Mg7 3.267097 1_555
Ce0 Mg8 3.267097 1_555
Ce0 Mg6 3.267097 1_555
Ce0 Mg12 3.271907 1_555
Ce0 Mg13 3.271907 1_555
Ce0 Mg4 3.292120 1_555
Ce0 Mg2 3.292120 1_555
Mg0 Mg6 3.174202 1_655
Mg0 Mg8 3.174202 1_545
Mg0 Mg7 3.174202 1_654
Mg0 Mg9 3.174202 1_544
Mg0 Mg1 3.241871 1_545
Mg0 Mg1 3.241871 1_655
Mg0 Mg10 3.251750 1_555
Mg0 Mg11 3.251750 1_554
Mg0 Mg3 3.274347 1_555
Mg0 Mg5 3.274347 1_555
Mg0 Mg5 3.282266 1_545
Mg0 Mg3 3.282266 1_655
Mg1 Mg8 3.180672 1_555
Mg1 Mg6 3.180672 1_555
Mg1 Mg9 3.180672 1_554
Mg1 Mg7 3.180672 1_554
Mg1 Mg13 3.195794 1_554
Mg1 Mg12 3.195794 1_555
Mg1 Mg5 3.278113 1_555
Mg1 Mg3 3.278113 1_555
Mg1 Mg3 3.278502 1_565
Mg1 Mg5 3.278502 1_455
Mg2 Mg4 3.191420 1_445
Mg2 Sn0 3.235863 1_455
Mg2 Mg7 3.258733 1_555
Mg2 Mg6 3.258733 1_555
Mg2 Mg4 3.292320 1_555
Mg2 Sn0 3.320757 1_555
Mg3 Mg6 3.178285 1_555
Mg3 Mg7 3.178285 1_554
Mg3 Mg5 3.236955 1_555
Mg3 Mg5 3.246785 1_445
Mg4 Sn0 3.235863 1_565
Mg4 Mg9 3.258733 1_555
Mg4 Mg8 3.258733 1_555
Mg4 Sn0 3.320757 1_555
Mg5 Mg8 3.178285 1_555
Mg5 Mg9 3.178285 1_554
Mg6 Mg8 3.228008 1_445
Mg6 Sn0 3.249693 1_455
Mg6 Mg8 3.255732 1_555
Mg7 Mg9 3.228008 1_445
Mg7 Sn0 3.249693 1_455
Mg7 Mg9 3.255732 1_555
Mg8 Sn0 3.249693 1_565
Mg9 Sn0 3.249693 1_565
Mg10 Mg4 3.206681 1_555
Mg10 Mg2 3.206681 1_555
Mg10 Sn0 3.228908 1_555
Mg10 Mg3 3.231998 1_555
Mg10 Mg5 3.231998 1_555
Mg10 Mg12 3.242750 1_545
Mg10 Mg12 3.242750 1_655
Mg10 Mg8 3.263993 1_555
Mg10 Mg6 3.263993 1_555
Mg10 Mg6 3.294540 1_655
Mg10 Mg8 3.294540 1_545
Mg11 Mg4 3.206681 1_555
Mg11 Mg2 3.206681 1_555
Mg11 Sn0 3.228908 1_555
Mg11 Mg3 3.231998 1_556
Mg11 Mg5 3.231998 1_556
Mg11 Mg13 3.242750 1_545
Mg11 Mg13 3.242750 1_655
Mg11 Mg9 3.263993 1_555
Mg11 Mg7 3.263993 1_555
Mg11 Mg7 3.294540 1_655
Mg11 Mg9 3.294540 1_545
Mg12 Mg3 3.171662 1_565
Mg12 Mg5 3.171662 1_455
Mg12 Mg2 3.240797 1_565
Mg12 Mg4 3.240797 1_455
Mg12 Mg6 3.251002 1_565
Mg12 Mg8 3.251002 1_455
Mg12 Mg8 3.305629 1_555
Mg12 Mg6 3.305629 1_555
Mg13 Mg3 3.171662 1_566
Mg13 Mg5 3.171662 1_456
Mg13 Mg2 3.240797 1_565
Mg13 Mg4 3.240797 1_455
Mg13 Mg7 3.251002 1_565
Mg13 Mg9 3.251002 1_455
Mg13 Mg9 3.305629 1_555
Mg13 Mg7 3.305629 1_555
