# generated using pymatgen
data_MgTiMn5(PO4)6
_symmetry_space_group_name_H-M   'P 1'
_cell_length_a   8.85343323
_cell_length_b   8.69647405
_cell_length_c   8.75766681
_cell_angle_alpha   59.98922476
_cell_angle_beta   60.31669313
_cell_angle_gamma   61.81435561
_symmetry_Int_Tables_number   1
_chemical_formula_structural   MgTiMn5(PO4)6
_chemical_formula_sum   'Mg1 Ti1 Mn5 P6 O24'
_cell_volume   484.12029505
_cell_formula_units_Z   1
loop_
 _symmetry_equiv_pos_site_id
 _symmetry_equiv_pos_as_xyz
  1  'x, y, z'
loop_
 _atom_site_type_symbol
 _atom_site_label
 _atom_site_symmetry_multiplicity
 _atom_site_fract_x
 _atom_site_fract_y
 _atom_site_fract_z
 _atom_site_occupancy
  Mg  Mg0  1  0.13741100  0.62887400  0.62518000  1
  Ti  Ti0  1  0.56006200  0.14874800  0.14236500  1
  Mn  Mn0  1  0.99889100  0.99980400  0.99698100  1
  Mn  Mn1  1  0.76635100  0.72294900  0.74471700  1
  Mn  Mn2  1  0.53059900  0.48556600  0.49325600  1
  Mn  Mn3  1  0.39461000  0.88652700  0.85977600  1
  Mn  Mn4  1  0.96207200  0.33944500  0.34790700  1
  P  P0  1  0.25542100  0.25724600  0.52892900  1
  P  P1  1  0.25997800  0.95087000  0.25148600  1
  P  P2  1  0.26478000  0.53021400  0.95801200  1
  P  P3  1  0.77028500  0.43948000  0.05014200  1
  P  P4  1  0.77452000  0.03810700  0.74542500  1
  P  P5  1  0.75756200  0.75323900  0.44032100  1
  O  O0  1  0.09900300  0.07707600  0.35355600  1
  O  O1  1  0.10142400  0.45356700  0.09590200  1
  O  O2  1  0.09242900  0.35856200  0.46129300  1
  O  O3  1  0.20929700  0.10052400  0.72134900  1
  O  O4  1  0.42738000  0.16980600  0.38109000  1
  O  O5  1  0.30668800  0.39519700  0.54402900  1
  O  O6  1  0.21634000  0.95823300  0.09653900  1
  O  O7  1  0.31538900  0.74994400  0.38677700  1
  O  O8  1  0.60759900  0.61244600  0.99590700  1
  O  O9  1  0.31058400  0.54096700  0.75863300  1
  O  O10  1  0.76975300  0.25737200  0.06180800  1
  O  O11  1  0.60366300  0.99547500  0.78852800  1
  O  O12  1  0.43328400  0.02087700  0.15849500  1
  O  O13  1  0.22205300  0.72175200  0.96273900  1
  O  O14  1  0.76233300  0.41933100  0.23775800  1
  O  O15  1  0.43932300  0.38741500  0.01363700  1
  O  O16  1  0.77452700  0.22949200  0.57997600  1
  O  O17  1  0.77012800  0.06278000  0.91253500  1
  O  O18  1  0.74395300  0.59233500  0.42787300  1
  O  O19  1  0.59649400  0.80096300  0.61613800  1
  O  O20  1  0.76411600  0.92047000  0.25601400  1
  O  O21  1  0.92327300  0.70749100  0.49630300  1
  O  O22  1  0.93505300  0.49896200  0.87172100  1
  O  O23  1  0.93621800  0.86601600  0.70721000  1
loop_
_geom_bond_atom_site_label_1
_geom_bond_atom_site_label_2
_geom_bond_distance
_geom_bond_site_symmetry_2
Mg0 O7 2.015071 1_555
Mg0 O9 2.018592 1_555
Mg0 O5 2.096099 1_555
Mg0 O23 2.164830 1_455
Mg0 O22 2.188316 1_455
Mg0 O21 2.336341 1_455
Mn0 O17 2.231447 1_565
Mn0 O3 2.244322 1_665
Mn0 O20 2.249810 1_556
Mn0 O6 2.299315 1_656
Mn0 O10 2.300846 1_566
Mn0 O13 2.337954 1_655
Mn1 O21 1.950330 1_555
Mn1 O8 1.958879 1_555
Mn1 O19 1.984660 1_555
Mn1 O22 1.997984 1_555
Mn1 O23 2.187948 1_555
Mn1 O11 2.230772 1_555
Mn2 O18 2.193574 1_555
Mn2 O5 2.234796 1_555
Mn2 O14 2.274637 1_555
Mn2 O9 2.275447 1_555
Mn2 O7 2.294082 1_555
Mn2 O16 2.364181 1_555
Mn3 O6 2.074062 1_556
Mn3 O3 2.110340 1_565
Mn3 O13 2.147444 1_555
Mn3 O11 2.152675 1_555
Mn3 O19 2.203575 1_555
Mn3 O8 2.407590 1_555
Mn4 O1 1.909644 1_655
Mn4 O2 1.956291 1_655
Mn4 O0 2.002918 1_655
Mn4 O16 2.003865 1_555
Mn4 O14 2.097359 1_555
Mn4 O18 2.290330 1_555
O0 P1 1.508915 1_545
O1 P2 1.539474 1_554
O2 P0 1.527399 1_555
O3 P0 1.552672 1_555
O4 P0 1.584724 1_555
O4 Ti0 1.879303 1_555
O5 P0 1.547672 1_555
O6 P1 1.550384 1_555
O7 P1 1.546815 1_555
O8 P3 1.574479 1_556
O9 P2 1.547009 1_555
O10 P3 1.537294 1_555
O10 Ti0 2.128250 1_555
O11 P4 1.546731 1_565
O12 P1 1.592801 1_545
O12 Ti0 1.838832 1_555
O13 P2 1.541953 1_555
O14 P3 1.531160 1_555
O15 P2 1.579570 1_554
O15 Ti0 1.865082 1_555
O16 P4 1.567553 1_555
O17 P4 1.561808 1_555
O17 Ti0 2.133869 1_556
O18 P5 1.519640 1_555
O19 P5 1.575466 1_555
O20 P5 1.537044 1_555
O20 Ti0 2.147503 1_565
O21 P5 1.586490 1_555
O22 P3 1.576037 1_556
O23 P4 1.550417 1_565
