# generated using pymatgen
data_RbPO4
_symmetry_space_group_name_H-M   'P 1'
_cell_length_a   8.80703899
_cell_length_b   9.70118883
_cell_length_c   9.59291095
_cell_angle_alpha   60.65840460
_cell_angle_beta   69.39258081
_cell_angle_gamma   66.96762068
_symmetry_Int_Tables_number   1
_chemical_formula_structural   RbPO4
_chemical_formula_sum   'Rb6 P6 O24'
_cell_volume   644.25722787
_cell_formula_units_Z   6
loop_
 _symmetry_equiv_pos_site_id
 _symmetry_equiv_pos_as_xyz
  1  'x, y, z'
loop_
 _atom_site_type_symbol
 _atom_site_label
 _atom_site_symmetry_multiplicity
 _atom_site_fract_x
 _atom_site_fract_y
 _atom_site_fract_z
 _atom_site_occupancy
  Rb  Rb0  1  0.13473700  0.81008400  0.42473000  1
  Rb  Rb1  1  0.86526300  0.18991500  0.57527000  1
  Rb  Rb2  1  0.75368200  0.02332200  0.19714500  1
  Rb  Rb3  1  0.24631800  0.97667800  0.80285500  1
  Rb  Rb4  1  0.58764600  0.50751500  0.14612000  1
  Rb  Rb5  1  0.41235400  0.49248500  0.85388000  1
  P  P0  1  0.07988300  0.60370500  0.20214700  1
  P  P1  1  0.92011700  0.39629500  0.79785300  1
  P  P2  1  0.24956700  0.24753600  0.27652000  1
  P  P3  1  0.75043300  0.75246400  0.72348000  1
  P  P4  1  0.04262700  0.23074900  0.10336200  1
  P  P5  1  0.95737300  0.76925100  0.89663800  1
  O  O0  1  0.20860800  0.09789500  0.42146000  1
  O  O1  1  0.79139200  0.90210500  0.57854000  1
  O  O2  1  0.24430400  0.64701000  0.10896500  1
  O  O3  1  0.75569600  0.35299000  0.89103500  1
  O  O4  1  0.10031000  0.06647400  0.09516300  1
  O  O5  1  0.89969000  0.93352600  0.90483700  1
  O  O6  1  0.47412300  0.94102300  0.05600200  1
  O  O7  1  0.52587700  0.05897700  0.94399800  1
  O  O8  1  0.02062800  0.37780900  0.92397700  1
  O  O9  1  0.97937200  0.62219100  0.07602300  1
  O  O10  1  0.36227000  0.36177600  0.57545200  1
  O  O11  1  0.63773000  0.63822400  0.42454800  1
  O  O12  1  0.89040700  0.26027600  0.23090900  1
  O  O13  1  0.10959300  0.73972400  0.76909100  1
  O  O14  1  0.03968600  0.31354500  0.68862600  1
  O  O15  1  0.96031400  0.68645500  0.31137400  1
  O  O16  1  0.20283900  0.26772600  0.11479600  1
  O  O17  1  0.79716100  0.73227400  0.88520400  1
  O  O18  1  0.11243100  0.40557700  0.30989700  1
  O  O19  1  0.88756900  0.59442300  0.69010300  1
  O  O20  1  0.45772500  0.25064800  0.53140800  1
  O  O21  1  0.54227500  0.74935200  0.46859200  1
  O  O22  1  0.42474800  0.26785300  0.21789000  1
  O  O23  1  0.57525200  0.73214700  0.78211000  1
loop_
_geom_bond_atom_site_label_1
_geom_bond_atom_site_label_2
_geom_bond_distance
_geom_bond_site_symmetry_2
O0 P2 1.499778 1_555
O0 Rb1 2.855796 1_455
O0 Rb0 3.088905 1_545
O0 Rb3 3.348488 1_545
O1 P3 1.499778 1_555
O1 Rb0 2.855797 1_655
O1 Rb1 3.088895 1_565
O1 Rb2 3.348488 1_565
O2 P0 1.506402 1_555
O2 Rb4 2.861088 1_555
O2 Rb3 3.107321 1_554
O2 Rb5 3.120108 1_554
O3 P1 1.506402 1_555
O3 Rb5 2.861088 1_555
O3 Rb2 3.107321 1_556
O3 Rb4 3.120108 1_556
O4 P4 1.505066 1_555
O4 Rb0 2.941385 1_545
O4 Rb2 2.991330 1_455
O4 Rb3 3.042119 1_544
O5 P5 1.505066 1_555
O5 Rb1 2.941383 1_565
O5 Rb3 2.991330 1_655
O5 Rb2 3.042119 1_566
O6 O7 1.236955 1_564
O8 P4 1.626814 1_556
O8 P1 1.642144 1_455
O9 P5 1.626814 1_554
O9 P0 1.642144 1_655
O10 O20 1.238820 1_555
O11 O21 1.238820 1_555
O12 P4 1.504889 1_655
O12 Rb4 2.852115 1_555
O12 Rb1 2.970029 1_555
O12 Rb2 3.163739 1_555
O13 P5 1.504889 1_455
O13 Rb5 2.852115 1_555
O13 Rb0 2.970032 1_555
O13 Rb3 3.163739 1_555
O14 P1 1.495796 1_455
O14 Rb3 2.903942 1_545
O14 Rb1 2.979325 1_455
O15 P0 1.495796 1_655
O15 Rb2 2.903942 1_565
O15 Rb0 2.979318 1_655
O16 P4 1.635599 1_555
O16 P2 1.644120 1_555
O16 Rb5 2.995415 1_554
O17 P5 1.635599 1_555
O17 P3 1.644120 1_555
O17 Rb4 2.995415 1_556
O18 P2 1.634555 1_555
O18 P0 1.635645 1_555
O18 Rb1 3.168526 1_455
O19 P3 1.634555 1_555
O19 P1 1.635645 1_555
O19 Rb0 3.168520 1_655
O20 Rb3 3.314818 1_545
O20 Rb4 3.377492 1_555
O20 Rb1 3.545690 1_555
O21 Rb2 3.314818 1_565
O21 Rb5 3.377492 1_555
O21 Rb0 3.545693 1_555
O22 P2 1.501326 1_555
O22 Rb4 2.878180 1_555
O22 Rb2 2.956124 1_555
O22 Rb5 3.094971 1_554
O23 P3 1.501326 1_555
O23 Rb5 2.878180 1_555
O23 Rb3 2.956124 1_555
O23 Rb4 3.094971 1_556
