# generated using pymatgen
data_CeMg
_symmetry_space_group_name_H-M   'P 1'
_cell_length_a   7.31183199
_cell_length_b   7.31183199
_cell_length_c   7.31183199
_cell_angle_alpha   90.00000000
_cell_angle_beta   90.00000000
_cell_angle_gamma   90.00000000
_symmetry_Int_Tables_number   1
_chemical_formula_structural   CeMg
_chemical_formula_sum   'Ce4 Mg4'
_cell_volume   390.91164781
_cell_formula_units_Z   4
loop_
 _symmetry_equiv_pos_site_id
 _symmetry_equiv_pos_as_xyz
  1  'x, y, z'
loop_
 _atom_site_type_symbol
 _atom_site_label
 _atom_site_symmetry_multiplicity
 _atom_site_fract_x
 _atom_site_fract_y
 _atom_site_fract_z
 _atom_site_occupancy
  Ce  Ce0  1  0.00000000  -0.00000000  -0.00000000  1
  Ce  Ce1  1  0.00000000  0.50000000  0.50000000  1
  Ce  Ce2  1  0.50000000  0.00000000  0.50000000  1
  Ce  Ce3  1  0.50000000  0.50000000  0.00000000  1
  Mg  Mg0  1  0.25000000  0.25000000  0.75000000  1
  Mg  Mg1  1  0.25000000  0.75000000  0.25000000  1
  Mg  Mg2  1  0.75000000  0.25000000  0.25000000  1
  Mg  Mg3  1  0.75000000  0.75000000  0.75000000  1
loop_
_geom_bond_atom_site_label_1
_geom_bond_atom_site_label_2
_geom_bond_distance
_geom_bond_site_symmetry_2
Ce0 Mg2 3.166116 1_455
Ce0 Mg1 3.166116 1_545
Ce0 Mg3 3.166116 1_444
Ce0 Mg0 3.166116 1_554
Ce1 Mg1 3.166116 1_555
Ce1 Mg2 3.166116 1_455
Ce1 Mg3 3.166116 1_455
Ce1 Mg0 3.166116 1_555
Ce2 Mg0 3.166116 1_555
Ce2 Mg3 3.166116 1_545
Ce2 Mg2 3.166116 1_555
Ce2 Mg1 3.166116 1_545
Ce3 Mg1 3.166116 1_555
Ce3 Mg2 3.166116 1_555
Ce3 Mg3 3.166116 1_554
Ce3 Mg0 3.166116 1_554
