# generated using pymatgen
data_KNd2CuS4
_symmetry_space_group_name_H-M   'P 1'
_cell_length_a   7.25824558
_cell_length_b   7.25824558
_cell_length_c   14.03878100
_cell_angle_alpha   90.00000000
_cell_angle_beta   90.00000000
_cell_angle_gamma   147.40902869
_symmetry_Int_Tables_number   1
_chemical_formula_structural   KNd2CuS4
_chemical_formula_sum   'K2 Nd4 Cu2 S8'
_cell_volume   398.37284202
_cell_formula_units_Z   2
loop_
 _symmetry_equiv_pos_site_id
 _symmetry_equiv_pos_as_xyz
  1  'x, y, z'
loop_
 _atom_site_type_symbol
 _atom_site_label
 _atom_site_symmetry_multiplicity
 _atom_site_fract_x
 _atom_site_fract_y
 _atom_site_fract_z
 _atom_site_occupancy
  K  K0  1  0.10763200  0.89236800  0.25000000  1
  K  K1  1  0.89236800  0.10763200  0.75000000  1
  Nd  Nd0  1  0.63461000  0.36539000  0.93747500  1
  Nd  Nd1  1  0.36539000  0.63461000  0.43747500  1
  Nd  Nd2  1  0.63461000  0.36539000  0.56252500  1
  Nd  Nd3  1  0.36539000  0.63461000  0.06252500  1
  Cu  Cu0  1  0.16239800  0.83760200  0.75000000  1
  Cu  Cu1  1  0.83760200  0.16239800  0.25000000  1
  S  S0  1  0.00000000  0.00000000  0.50000000  1
  S  S1  1  0.00000000  0.00000000  0.00000000  1
  S  S2  1  0.73723700  0.26276300  0.11510500  1
  S  S3  1  0.26276300  0.73723700  0.88489500  1
  S  S4  1  0.57008200  0.42991800  0.75000000  1
  S  S5  1  0.73723700  0.26276300  0.38489500  1
  S  S6  1  0.42991800  0.57008200  0.25000000  1
  S  S7  1  0.26276300  0.73723700  0.61510500  1
loop_
_geom_bond_atom_site_label_1
_geom_bond_atom_site_label_2
_geom_bond_distance
_geom_bond_site_symmetry_2
K0 S6 3.206094 1_455
K0 S6 3.206094 1_565
K0 S2 3.315884 1_565
K0 S5 3.315884 1_565
K0 S5 3.315884 1_455
K0 S2 3.315884 1_455
K1 S4 3.206094 1_545
K1 S4 3.206094 1_655
K1 S3 3.315884 1_545
K1 S7 3.315884 1_545
K1 S7 3.315884 1_655
K1 S3 3.315884 1_655
Nd0 S4 2.781253 1_555
Nd0 S3 2.807307 1_655
Nd0 S3 2.807307 1_545
Nd0 S2 2.874595 1_556
Nd0 S1 2.904474 1_666
Nd0 S1 2.904474 1_556
Nd1 S6 2.781253 1_555
Nd1 S5 2.807307 1_565
Nd1 S5 2.807307 1_455
Nd1 S7 2.874595 1_555
Nd1 S0 2.904474 1_555
Nd1 S0 2.904474 1_665
Nd2 S4 2.781253 1_555
Nd2 S7 2.807307 1_655
Nd2 S7 2.807307 1_545
Nd2 S5 2.874595 1_555
Nd2 S0 2.904474 1_665
Nd2 S0 2.904474 1_555
Nd3 S6 2.781253 1_555
Nd3 S2 2.807307 1_565
Nd3 S2 2.807307 1_455
Nd3 S3 2.874595 1_554
Nd3 S1 2.904474 1_665
Nd3 S1 2.904474 1_555
Cu0 S7 2.354125 1_555
Cu0 S3 2.354125 1_555
Cu0 S4 2.408780 1_565
Cu0 S4 2.408780 1_455
Cu1 S5 2.354125 1_555
Cu1 S2 2.354125 1_555
Cu1 S6 2.408780 1_655
Cu1 S6 2.408780 1_545
