# generated using pymatgen
data_CaY2(GeO3)4
_symmetry_space_group_name_H-M   'P 1'
_cell_length_a   10.13563693
_cell_length_b   10.13563693
_cell_length_c   5.11646200
_cell_angle_alpha   90.00000000
_cell_angle_beta   90.00000000
_cell_angle_gamma   90.12987726
_symmetry_Int_Tables_number   1
_chemical_formula_structural   CaY2(GeO3)4
_chemical_formula_sum   'Ca2 Y4 Ge8 O24'
_cell_volume   525.61860281
_cell_formula_units_Z   2
loop_
 _symmetry_equiv_pos_site_id
 _symmetry_equiv_pos_as_xyz
  1  'x, y, z'
loop_
 _atom_site_type_symbol
 _atom_site_label
 _atom_site_symmetry_multiplicity
 _atom_site_fract_x
 _atom_site_fract_y
 _atom_site_fract_z
 _atom_site_occupancy
  Ca  Ca0  1  0.50000000  0.50000000  0.50000000  1
  Ca  Ca1  1  0.00000000  0.00000000  0.50000000  1
  Y  Y0  1  0.00000000  0.50000000  0.50000000  1
  Y  Y1  1  0.50000000  0.00000000  0.50000000  1
  Y  Y2  1  0.75000000  0.75000000  0.50000000  1
  Y  Y3  1  0.25000000  0.25000000  0.50000000  1
  Ge  Ge0  1  0.75087200  0.02113300  0.99798900  1
  Ge  Ge1  1  0.24912800  0.97886700  0.00201100  1
  Ge  Ge2  1  0.25087200  0.52113300  0.00201100  1
  Ge  Ge3  1  0.74912800  0.47886700  0.99798900  1
  Ge  Ge4  1  0.02113300  0.75087200  0.00201100  1
  Ge  Ge5  1  0.97886700  0.24912800  0.99798900  1
  Ge  Ge6  1  0.52113300  0.25087200  0.99798900  1
  Ge  Ge7  1  0.47886700  0.74912800  0.00201100  1
  O  O0  1  0.56671900  0.67762800  0.25468000  1
  O  O1  1  0.05844300  0.32718300  0.25898200  1
  O  O2  1  0.44155700  0.17281700  0.25898200  1
  O  O3  1  0.93328100  0.82237200  0.25468000  1
  O  O4  1  0.43328100  0.32237200  0.74532000  1
  O  O5  1  0.94155700  0.67281700  0.74101800  1
  O  O6  1  0.55844300  0.82718300  0.74101800  1
  O  O7  1  0.06671900  0.17762800  0.74532000  1
  O  O8  1  0.67762800  0.56671900  0.74532000  1
  O  O9  1  0.32718300  0.05844300  0.74101800  1
  O  O10  1  0.17281700  0.44155700  0.74101800  1
  O  O11  1  0.82237200  0.93328100  0.74532000  1
  O  O12  1  0.32237200  0.43328100  0.25468000  1
  O  O13  1  0.67281700  0.94155700  0.25898200  1
  O  O14  1  0.82718300  0.55844300  0.25898200  1
  O  O15  1  0.17762800  0.06671900  0.25468000  1
  O  O16  1  0.87123500  0.12876500  0.15319200  1
  O  O17  1  0.37596200  0.87596200  0.16162600  1
  O  O18  1  0.12403800  0.62403800  0.16162600  1
  O  O19  1  0.62876500  0.37123500  0.15319200  1
  O  O20  1  0.12876500  0.87123500  0.84680800  1
  O  O21  1  0.62403800  0.12403800  0.83837400  1
  O  O22  1  0.87596200  0.37596200  0.83837400  1
  O  O23  1  0.37123500  0.62876500  0.84680800  1
loop_
_geom_bond_atom_site_label_1
_geom_bond_atom_site_label_2
_geom_bond_distance
_geom_bond_site_symmetry_2
Ca0 O4 2.295338 1_555
Ca0 O0 2.295338 1_555
Ca0 O8 2.295338 1_555
Ca0 O12 2.295338 1_555
Ca0 O19 2.561831 1_555
Ca0 O23 2.561831 1_555
Ca1 O15 2.295338 1_555
Ca1 O11 2.295338 1_445
Ca1 O7 2.295338 1_555
Ca1 O3 2.295338 1_445
Ca1 O16 2.561831 1_455
Ca1 O20 2.561831 1_545
Ge0 O11 1.729811 1_545
Ge0 O13 1.748348 1_546
Ge0 O16 1.817400 1_556
Ge0 O21 1.847568 1_555
Ge1 O15 1.729811 1_565
Ge1 O9 1.748348 1_564
Ge1 O20 1.817400 1_554
Ge1 O17 1.847568 1_555
Ge2 O12 1.729811 1_555
Ge2 O10 1.748348 1_554
Ge2 O23 1.817400 1_554
Ge2 O18 1.847568 1_555
Ge3 O8 1.729811 1_555
Ge3 O14 1.748348 1_556
Ge3 O19 1.817400 1_556
Ge3 O22 1.847568 1_555
Ge4 O3 1.729811 1_455
Ge4 O5 1.748348 1_454
Ge4 O20 1.817400 1_554
Ge4 O18 1.847568 1_555
Ge5 O7 1.729811 1_655
Ge5 O1 1.748348 1_656
Ge5 O16 1.817400 1_556
Ge5 O22 1.847568 1_555
Ge6 O4 1.729811 1_555
Ge6 O2 1.748348 1_556
Ge6 O19 1.817400 1_556
Ge6 O21 1.847568 1_555
Ge7 O0 1.729811 1_555
Ge7 O6 1.748348 1_554
Ge7 O23 1.817400 1_554
Ge7 O17 1.847568 1_555
O0 Y2 2.357602 1_555
O1 Y0 2.223603 1_555
O1 Y3 2.430881 1_555
O2 Y1 2.223603 1_555
O2 Y3 2.430881 1_555
O3 Y2 2.357602 1_555
O4 Y3 2.357602 1_555
O5 Y0 2.223603 1_655
O5 Y2 2.430881 1_555
O6 Y1 2.223603 1_565
O6 Y2 2.430881 1_555
O7 Y3 2.357602 1_555
O8 Y2 2.357602 1_555
O9 Y1 2.223603 1_555
O9 Y3 2.430881 1_555
O10 Y0 2.223603 1_555
O10 Y3 2.430881 1_555
O11 Y2 2.357602 1_555
O12 Y3 2.357602 1_555
O13 Y1 2.223603 1_565
O13 Y2 2.430881 1_555
O14 Y0 2.223603 1_655
O14 Y2 2.430881 1_555
O15 Y3 2.357602 1_555
O17 Y1 2.480178 1_565
O18 Y0 2.480178 1_555
O21 Y1 2.480178 1_555
O22 Y0 2.480178 1_655
