# generated using pymatgen
data_Li4Mn3Nb3(SbO8)2
_symmetry_space_group_name_H-M   'P 1'
_cell_length_a   6.32497415
_cell_length_b   6.15658864
_cell_length_c   10.55276160
_cell_angle_alpha   89.66085867
_cell_angle_beta   90.25811154
_cell_angle_gamma   118.49914547
_symmetry_Int_Tables_number   1
_chemical_formula_structural   Li4Mn3Nb3(SbO8)2
_chemical_formula_sum   'Li4 Mn3 Nb3 Sb2 O16'
_cell_volume   361.12590098
_cell_formula_units_Z   1
loop_
 _symmetry_equiv_pos_site_id
 _symmetry_equiv_pos_as_xyz
  1  'x, y, z'
loop_
 _atom_site_type_symbol
 _atom_site_label
 _atom_site_symmetry_multiplicity
 _atom_site_fract_x
 _atom_site_fract_y
 _atom_site_fract_z
 _atom_site_occupancy
  Li  Li0  1  0.33732300  0.67411600  0.88911600  1
  Li  Li1  1  0.98864400  0.98973100  0.00307200  1
  Li  Li2  1  0.99970700  0.99643100  0.48641700  1
  Li  Li3  1  0.69385900  0.35114600  0.39378200  1
  Mn  Mn0  1  0.16721300  0.83126700  0.21692700  1
  Mn  Mn1  1  0.16195300  0.33570700  0.21686300  1
  Mn  Mn2  1  0.32832700  0.16634000  0.70557900  1
  Nb  Nb0  1  0.64821400  0.81950400  0.23310500  1
  Nb  Nb1  1  0.82142400  0.65894400  0.71845200  1
  Nb  Nb2  1  0.82167100  0.16144200  0.71691600  1
  Sb  Sb0  1  0.28859200  0.64722300  0.49788500  1
  Sb  Sb1  1  0.64548200  0.31606300  0.02393500  1
  O  O0  1  0.12954100  0.82414300  0.59600700  1
  O  O1  1  0.05331600  0.54640700  0.34547300  1
  O  O2  1  0.34756400  0.69766900  0.11924100  1
  O  O3  1  0.99293800  0.97453200  0.30547300  1
  O  O4  1  0.98847000  0.99319000  0.81710000  1
  O  O5  1  0.12388800  0.30543700  0.59114600  1
  O  O6  1  0.53869100  0.99573800  0.33611600  1
  O  O7  1  0.51415600  0.52441400  0.33039300  1
  O  O8  1  0.30775200  0.13673500  0.10829800  1
  O  O9  1  0.72441700  0.86454900  0.60716300  1
  O  O10  1  0.52840800  0.52101800  0.80777100  1
  O  O11  1  0.52981100  0.01361800  0.80843600  1
  O  O12  1  0.69674200  0.35219800  0.60668900  1
  O  O13  1  0.81649300  0.66421800  0.10513900  1
  O  O14  1  0.98039400  0.48769300  0.81590700  1
  O  O15  1  0.82500700  0.15082400  0.10543600  1
loop_
_geom_bond_atom_site_label_1
_geom_bond_atom_site_label_2
_geom_bond_distance
_geom_bond_site_symmetry_2
Li0 O11 2.033668 1_565
Li0 O10 2.047455 1_555
Li0 O14 2.129055 1_455
Li0 O2 2.432365 1_556
Li1 O4 1.962509 1_554
Li1 O15 2.055255 1_565
Li1 O13 2.065085 1_555
Li1 O8 2.091504 1_665
Li2 O3 1.913856 1_555
Li2 O0 1.986217 1_655
Li2 O9 1.993298 1_555
Li2 O5 2.012134 1_665
Li3 O7 2.004758 1_555
Li3 O6 2.020489 1_545
Li3 O1 2.066173 1_655
Li3 O12 2.246771 1_555
Mn0 O3 1.952677 1_455
Mn0 O2 1.989073 1_555
Mn0 O8 2.007339 1_565
Mn0 O1 2.051776 1_555
Mn0 O13 2.276802 1_455
Mn0 O6 2.417836 1_555
Mn1 O3 2.162769 1_445
Mn1 O8 2.183505 1_555
Mn1 O1 2.208315 1_555
Mn1 O2 2.211932 1_555
Mn1 O15 2.213257 1_455
Mn1 O7 2.295706 1_555
Mn2 O11 2.192071 1_555
Mn2 O0 2.200966 1_545
Mn2 O5 2.212253 1_555
Mn2 O10 2.216107 1_555
Mn2 O4 2.227844 1_445
Mn2 O12 2.300334 1_555
Nb0 O6 1.891239 1_555
Nb0 O7 1.894541 1_555
Nb0 O2 2.061900 1_555
Nb0 O3 2.062982 1_555
Nb0 O13 2.206742 1_555
Nb0 O15 2.242914 1_565
Nb1 O10 1.883805 1_555
Nb1 O9 2.018684 1_555
Nb1 O14 2.041991 1_555
Nb1 O12 2.043561 1_555
Nb1 O4 2.091709 1_555
Nb1 O0 2.148864 1_655
Nb2 O11 1.889754 1_555
Nb2 O9 2.001626 1_545
Nb2 O12 2.053716 1_555
Nb2 O14 2.055394 1_555
Nb2 O4 2.079327 1_545
Nb2 O5 2.143155 1_655
O0 Sb0 2.083029 1_555
O1 Sb0 2.072536 1_555
O5 Sb0 2.091520 1_555
O6 Sb0 2.600453 1_555
O7 Sb0 2.607507 1_555
O8 Sb1 2.080735 1_555
O9 Sb0 2.681180 1_555
O13 Sb1 2.073538 1_555
O15 Sb1 2.036455 1_555
