# generated using pymatgen
data_UCu4(MoO8)2
_symmetry_space_group_name_H-M   'P 1'
_cell_length_a   5.35974892
_cell_length_b   5.96327200
_cell_length_c   10.95714492
_cell_angle_alpha   105.79033718
_cell_angle_beta   101.97016722
_cell_angle_gamma   90.00000000
_symmetry_Int_Tables_number   1
_chemical_formula_structural   UCu4(MoO8)2
_chemical_formula_sum   'U1 Cu4 Mo2 O16'
_cell_volume   329.07212848
_cell_formula_units_Z   1
loop_
 _symmetry_equiv_pos_site_id
 _symmetry_equiv_pos_as_xyz
  1  'x, y, z'
loop_
 _atom_site_type_symbol
 _atom_site_label
 _atom_site_symmetry_multiplicity
 _atom_site_fract_x
 _atom_site_fract_y
 _atom_site_fract_z
 _atom_site_occupancy
  U  U0  1  0.00000000  0.00000000  0.00000000  1
  Cu  Cu0  1  0.49716700  0.74850500  0.49700900  1
  Cu  Cu1  1  0.50283300  0.25149500  0.50299100  1
  Cu  Cu2  1  0.00000000  0.00000000  0.50000000  1
  Cu  Cu3  1  0.00000000  0.50000000  0.50000000  1
  Mo  Mo0  1  0.69634200  0.58295100  0.16590200  1
  Mo  Mo1  1  0.30365800  0.41704900  0.83409800  1
  O  O0  1  0.70772800  0.02961700  0.57076500  1
  O  O1  1  0.70772800  0.54114800  0.57076500  1
  O  O2  1  0.29227200  0.97038300  0.42923500  1
  O  O3  1  0.29227200  0.45885200  0.42923500  1
  O  O4  1  0.63213100  0.44952400  0.89904800  1
  O  O5  1  0.36786900  0.55047600  0.10095200  1
  O  O6  1  0.86430900  0.20619700  0.41239400  1
  O  O7  1  0.13569100  0.79380300  0.58760600  1
  O  O8  1  0.70168500  0.93960700  0.87921300  1
  O  O9  1  0.29831500  0.06039300  0.12078700  1
  O  O10  1  0.84806600  0.81528500  0.12293700  1
  O  O11  1  0.84806600  0.30765200  0.12293700  1
  O  O12  1  0.15193400  0.18471500  0.87706300  1
  O  O13  1  0.15193400  0.69234800  0.87706300  1
  O  O14  1  0.73790000  0.67019100  0.34038200  1
  O  O15  1  0.26210000  0.32980900  0.65961800  1
loop_
_geom_bond_atom_site_label_1
_geom_bond_atom_site_label_2
_geom_bond_distance
_geom_bond_site_symmetry_2
Cu0 O0 1.902962 1_565
Cu0 O1 1.902967 1_555
Cu0 O2 1.924730 1_555
Cu0 O3 1.924735 1_555
Cu0 O14 2.304454 1_555
Cu0 O7 2.337482 1_555
Cu1 O2 1.902962 1_545
Cu1 O3 1.902967 1_555
Cu1 O0 1.924730 1_555
Cu1 O1 1.924735 1_555
Cu1 O15 2.304454 1_555
Cu1 O6 2.337482 1_555
Cu2 O6 1.820736 1_455
Cu2 O7 1.820736 1_545
Cu2 O2 1.875008 1_545
Cu2 O0 1.875008 1_455
Cu2 O15 2.451363 1_555
Cu2 O14 2.451363 1_445
Cu3 O7 1.820736 1_555
Cu3 O6 1.820736 1_455
Cu3 O3 1.875008 1_555
Cu3 O1 1.875008 1_455
Cu3 O15 2.451363 1_555
Cu3 O14 2.451363 1_455
Mo0 O5 1.746061 1_555
Mo0 O14 1.804804 1_555
Mo0 O10 1.821052 1_555
Mo0 O11 1.821052 1_555
Mo1 O4 1.746061 1_555
Mo1 O15 1.804804 1_555
Mo1 O12 1.821052 1_555
Mo1 O13 1.821052 1_555
O8 U0 1.816752 1_666
O9 U0 1.816752 1_555
O10 U0 2.225644 1_665
O11 U0 2.225644 1_655
O12 U0 2.225644 1_556
O13 U0 2.225644 1_566
