# generated using pymatgen
data_Mg5Si6
_symmetry_space_group_name_H-M   'P 1'
_cell_length_a   5.30234900
_cell_length_b   5.52369925
_cell_length_c   13.60032598
_cell_angle_alpha   90.61970824
_cell_angle_beta   96.86109168
_cell_angle_gamma   96.74315605
_symmetry_Int_Tables_number   1
_chemical_formula_structural   Mg5Si6
_chemical_formula_sum   'Mg10 Si12'
_cell_volume   392.62122136
_cell_formula_units_Z   2
loop_
 _symmetry_equiv_pos_site_id
 _symmetry_equiv_pos_as_xyz
  1  'x, y, z'
loop_
 _atom_site_type_symbol
 _atom_site_label
 _atom_site_symmetry_multiplicity
 _atom_site_fract_x
 _atom_site_fract_y
 _atom_site_fract_z
 _atom_site_occupancy
  Mg  Mg0  1  0.86821100  0.90175400  0.03014200  1
  Mg  Mg1  1  0.41119800  0.17449200  0.31690600  1
  Mg  Mg2  1  0.95067800  0.49048600  0.61514400  1
  Mg  Mg3  1  0.12214600  0.90872900  0.46328700  1
  Mg  Mg4  1  0.64955100  0.53786500  0.18702900  1
  Mg  Mg5  1  0.81495000  0.65410500  0.83000600  1
  Mg  Mg6  1  0.47336600  0.78973600  0.65556300  1
  Mg  Mg7  1  0.94634200  0.39771400  0.38357300  1
  Mg  Mg8  1  0.29433900  0.55306600  0.99725200  1
  Mg  Mg9  1  0.37703400  0.02606300  0.87980300  1
  Si  Si0  1  0.76920400  0.38732100  0.00226900  1
  Si  Si1  1  0.09303600  0.31009500  0.14567700  1
  Si  Si2  1  0.39271500  0.41350200  0.50410700  1
  Si  Si3  1  0.67193700  0.07388300  0.51416200  1
  Si  Si4  1  0.27009900  0.50750700  0.80399500  1
  Si  Si5  1  0.40262200  0.98823200  0.11754800  1
  Si  Si6  1  0.57590000  0.71308900  0.38952100  1
  Si  Si7  1  0.49504600  0.28123100  0.69938300  1
  Si  Si8  1  0.00346200  0.99033600  0.65956400  1
  Si  Si9  1  0.19364200  0.71113300  0.24267400  1
  Si  Si10  1  0.84189200  0.02498700  0.23938500  1
  Si  Si11  1  0.88263200  0.15742000  0.81938300  1
loop_
_geom_bond_atom_site_label_1
_geom_bond_atom_site_label_2
_geom_bond_distance
_geom_bond_site_symmetry_2
Mg0 Si1 2.796783 1_665
Mg0 Si0 2.813930 1_565
Mg0 Si0 2.841244 1_555
Mg0 Si5 2.921612 1_655
Mg0 Si10 2.942201 1_565
Mg0 Si5 2.949861 1_555
Mg0 Mg4 3.173908 1_555
Mg0 Si11 3.214185 1_564
Mg1 Si9 2.805933 1_545
Mg1 Si10 2.829860 1_555
Mg1 Si1 2.868106 1_555
Mg1 Si2 2.872623 1_555
Mg1 Si5 2.882904 1_545
Mg1 Si6 2.933376 1_545
Mg1 Mg3 2.954880 1_545
Mg1 Si3 2.957003 1_555
Mg1 Mg4 2.959795 1_555
Mg1 Mg7 2.988883 1_555
Mg1 Si10 3.088883 1_455
Mg1 Mg7 3.105040 1_455
Mg1 Si6 3.115950 1_555
Mg2 Si8 2.794385 1_655
Mg2 Si3 2.830909 1_555
Mg2 Si8 2.872800 1_645
Mg2 Si4 2.896944 1_655
Mg2 Si7 2.918809 1_555
Mg2 Si2 3.003457 1_655
Mg2 Si2 3.136457 1_555
Mg3 Si3 2.811035 1_465
Mg3 Si8 2.857803 1_555
Mg3 Si3 2.947737 1_565
Mg3 Si2 2.996233 1_565
Mg3 Si6 3.018379 1_455
Mg3 Si6 3.021060 1_555
Mg3 Si2 3.257833 1_555
Mg4 Si0 2.804951 1_555
Mg4 Si10 2.815619 1_565
Mg4 Si9 2.880497 1_555
Mg4 Si1 2.902455 1_655
Mg4 Si9 2.937005 1_655
Mg4 Si6 2.993602 1_555
Mg4 Mg8 3.016044 1_554
Mg4 Si5 3.052210 1_555
Mg4 Si1 3.053354 1_555
Mg4 Mg7 3.089802 1_555
Mg4 Si10 3.181441 1_555
Mg4 Si5 3.245522 1_545
Mg5 Si4 2.694787 1_655
Mg5 Si11 2.768705 1_565
Mg5 Si0 2.801039 1_556
Mg5 Si11 2.812774 1_555
Mg5 Si4 2.885718 1_555
Mg5 Si7 2.942076 1_555
Mg5 Si8 3.167437 1_655
Mg6 Si3 2.726050 1_565
Mg6 Si7 2.759394 1_565
Mg6 Si4 2.803666 1_555
Mg6 Si8 2.849250 1_555
Mg6 Si2 2.869325 1_555
Mg6 Si7 2.890256 1_555
Mg6 Si8 2.891685 1_655
Mg7 Si2 2.705217 1_655
Mg7 Si6 2.781696 1_555
Mg7 Si10 2.788630 1_555
Mg7 Si9 2.920224 1_655
Mg7 Si3 2.923341 1_555
Mg8 Si4 2.624023 1_555
Mg8 Si1 2.693024 1_556
Mg8 Si0 2.772060 1_556
Mg8 Si0 2.836210 1_456
Mg8 Si5 2.854935 1_556
Mg9 Si11 2.831752 1_455
Mg9 Si11 2.910522 1_555
Mg9 Si7 2.938316 1_555
Mg9 Si4 2.954721 1_555
Mg9 Si4 3.000669 1_545
Mg9 Si0 3.034179 1_556
Mg9 Si5 3.230088 1_546
Si0 Si1 2.514794 1_655
Si0 Si11 2.937608 1_554
Si1 Si10 2.415392 1_455
Si1 Si9 2.534392 1_555
Si1 Si5 2.611994 1_545
Si2 Si6 2.480023 1_555
Si2 Si3 2.517795 1_555
Si2 Si7 2.769902 1_555
Si3 Si6 2.566505 1_545
Si3 Si8 2.567744 1_645
Si4 Si7 2.392941 1_555
Si5 Si9 2.564211 1_555
Si6 Si9 2.669120 1_555
Si7 Si8 2.886104 1_545
Si10 Si5 2.677964 1_545
Si10 Si9 2.688338 1_645
Si11 Si8 2.532774 1_645
Si11 Si7 2.628233 1_555
Si11 Si4 2.680054 1_655
