# generated using pymatgen
data_Cs2KCeI6
_symmetry_space_group_name_H-M   'P 1'
_cell_length_a   9.21236534
_cell_length_b   9.21236534
_cell_length_c   9.21236534
_cell_angle_alpha   60.00000000
_cell_angle_beta   60.00000000
_cell_angle_gamma   60.00000000
_symmetry_Int_Tables_number   1
_chemical_formula_structural   Cs2KCeI6
_chemical_formula_sum   'Cs2 K1 Ce1 I6'
_cell_volume   552.83872885
_cell_formula_units_Z   1
loop_
 _symmetry_equiv_pos_site_id
 _symmetry_equiv_pos_as_xyz
  1  'x, y, z'
loop_
 _atom_site_type_symbol
 _atom_site_label
 _atom_site_symmetry_multiplicity
 _atom_site_fract_x
 _atom_site_fract_y
 _atom_site_fract_z
 _atom_site_occupancy
  Cs  Cs0  1  0.75000000  0.75000000  0.75000000  1
  Cs  Cs1  1  0.25000000  0.25000000  0.25000000  1
  K  K0  1  0.50000000  0.50000000  0.50000000  1
  Ce  Ce0  1  0.00000000  0.00000000  0.00000000  1
  I  I0  1  0.76007700  0.23992300  0.23992300  1
  I  I1  1  0.23992300  0.23992300  0.76007700  1
  I  I2  1  0.23992300  0.76007700  0.76007700  1
  I  I3  1  0.23992300  0.76007700  0.23992300  1
  I  I4  1  0.76007700  0.23992300  0.76007700  1
  I  I5  1  0.76007700  0.76007700  0.23992300  1
loop_
_geom_bond_atom_site_label_1
_geom_bond_atom_site_label_2
_geom_bond_distance
_geom_bond_site_symmetry_2
Cs0 I5 4.608053 1_555
Cs0 I4 4.608053 1_555
Cs0 I2 4.608053 1_555
Cs0 I1 4.608053 1_655
Cs0 I5 4.608053 1_556
Cs0 I3 4.608053 1_655
Cs0 I0 4.608053 1_565
Cs0 I0 4.608053 1_556
Cs0 I2 4.608053 1_655
Cs0 I4 4.608053 1_565
Cs0 I1 4.608053 1_565
Cs0 I3 4.608053 1_556
Cs1 I0 4.608053 1_555
Cs1 I0 4.608053 1_455
Cs1 I1 4.608053 1_555
Cs1 I4 4.608053 1_455
Cs1 I3 4.608053 1_545
Cs1 I5 4.608053 1_545
Cs1 I2 4.608053 1_545
Cs1 I4 4.608053 1_554
Cs1 I1 4.608053 1_554
Cs1 I3 4.608053 1_555
Cs1 I5 4.608053 1_455
Cs1 I2 4.608053 1_554
Ce0 I0 3.125777 1_455
Ce0 I3 3.125777 1_545
Ce0 I5 3.125777 1_445
Ce0 I2 3.125777 1_544
Ce0 I4 3.125777 1_454
Ce0 I1 3.125777 1_554
I0 K0 3.388349 1_555
I1 K0 3.388349 1_555
I2 K0 3.388349 1_555
I3 K0 3.388349 1_555
I4 K0 3.388349 1_555
I5 K0 3.388349 1_555
