# generated using pymatgen
data_Ca4ZnCo(Si2O7)2
_symmetry_space_group_name_H-M   'P 1'
_cell_length_a   7.90866100
_cell_length_b   12.84832633
_cell_length_c   12.84827122
_cell_angle_alpha   104.02234684
_cell_angle_beta   90.00140489
_cell_angle_gamma   90.00099421
_symmetry_Int_Tables_number   1
_chemical_formula_structural   Ca4ZnCo(Si2O7)2
_chemical_formula_sum   'Ca16 Zn4 Co4 Si16 O56'
_cell_volume   1266.64835963
_cell_formula_units_Z   4
loop_
 _symmetry_equiv_pos_site_id
 _symmetry_equiv_pos_as_xyz
  1  'x, y, z'
loop_
 _atom_site_type_symbol
 _atom_site_label
 _atom_site_symmetry_multiplicity
 _atom_site_fract_x
 _atom_site_fract_y
 _atom_site_fract_z
 _atom_site_occupancy
  Ca  Ca0  1  0.33049200  0.70871100  0.46038400  1
  Ca  Ca1  1  0.33048800  0.95871100  0.21038800  1
  Ca  Ca2  1  0.33049400  0.45871000  0.71037900  1
  Ca  Ca3  1  0.33049000  0.20870900  0.96038600  1
  Ca  Ca4  1  0.16905000  0.96061600  0.70894300  1
  Ca  Ca5  1  0.16904000  0.21061100  0.45894000  1
  Ca  Ca6  1  0.16904600  0.71061200  0.95893800  1
  Ca  Ca7  1  0.16904700  0.46061600  0.20893800  1
  Ca  Ca8  1  0.66950100  0.03962300  0.79129400  1
  Ca  Ca9  1  0.66949700  0.28960800  0.54128200  1
  Ca  Ca10  1  0.66950600  0.78961300  0.04128100  1
  Ca  Ca11  1  0.66951000  0.53962200  0.29129100  1
  Ca  Ca12  1  0.83095000  0.79105200  0.53937800  1
  Ca  Ca13  1  0.83095300  0.04105700  0.28938200  1
  Ca  Ca14  1  0.83094600  0.54105400  0.78938500  1
  Ca  Ca15  1  0.83095000  0.29105800  0.03939300  1
  Zn  Zn0  1  0.49999800  0.00000800  0.49998900  1
  Zn  Zn1  1  0.50000200  0.25001200  0.24999100  1
  Zn  Zn2  1  0.50000200  0.75001200  0.74998900  1
  Zn  Zn3  1  0.49999700  0.50001200  0.99999300  1
  Co  Co0  1  0.00000300  0.49998900  0.50001200  1
  Co  Co1  1  0.00000400  0.24998900  0.75001400  1
  Co  Co2  1  0.99999900  0.74999200  0.25001300  1
  Co  Co3  1  0.99999900  0.99998500  0.00001000  1
  Si  Si0  1  0.14072600  0.69621700  0.66310500  1
  Si  Si1  1  0.14072800  0.94621500  0.41310800  1
  Si  Si2  1  0.14073300  0.44621700  0.91310300  1
  Si  Si3  1  0.14072800  0.19622000  0.16310700  1
  Si  Si4  1  0.35932000  0.16307900  0.69618900  1
  Si  Si5  1  0.35931000  0.41308100  0.44619300  1
  Si  Si6  1  0.35931500  0.91307500  0.94619500  1
  Si  Si7  1  0.35932100  0.66307500  0.19619500  1
  Si  Si8  1  0.85927400  0.83689300  0.80378200  1
  Si  Si9  1  0.85926300  0.08689100  0.55378700  1
  Si  Si10  1  0.85927400  0.58689100  0.05377900  1
  Si  Si11  1  0.85927300  0.33689900  0.30378500  1
  Si  Si12  1  0.64068900  0.80380600  0.33692300  1
  Si  Si13  1  0.64068600  0.05380500  0.08692200  1
  Si  Si14  1  0.64069200  0.55381100  0.58692200  1
  Si  Si15  1  0.64068800  0.30381200  0.83692100  1
  O  O0  1  0.50000300  0.70386500  0.29613700  1
  O  O1  1  0.49999600  0.95386800  0.04614200  1
  O  O2  1  0.50000500  0.45386300  0.54613300  1
  O  O3  1  0.50001000  0.20386500  0.79613000  1
  O  O4  1  0.99999900  0.79614200  0.70386300  1
  O  O5  1  0.00000300  0.04613500  0.45386700  1
  O  O6  1  0.99998900  0.54613300  0.95385200  1
  O  O7  1  0.99999000  0.29613000  0.20385500  1
  O  O8  1  0.31415700  0.76401100  0.65370000  1
  O  O9  1  0.31416100  0.01400800  0.40369900  1
  O  O10  1  0.31416400  0.51401100  0.90369600  1
  O  O11  1  0.31415500  0.26401700  0.15370800  1
  O  O12  1  0.68583700  0.84630300  0.73599700  1
  O  O13  1  0.68584000  0.09629100  0.48598100  1
  O  O14  1  0.68583400  0.59630000  0.98599400  1
  O  O15  1  0.68583600  0.34630500  0.23599800  1
  O  O16  1  0.58217300  0.85190200  0.46221300  1
  O  O17  1  0.58217300  0.10189700  0.21221400  1
  O  O18  1  0.58216000  0.60190000  0.71221100  1
  O  O19  1  0.58215500  0.35190100  0.96221600  1
  O  O20  1  0.41784400  0.03778500  0.64809800  1
  O  O21  1  0.41783400  0.28778800  0.39810000  1
  O  O22  1  0.41782800  0.78778700  0.89810500  1
  O  O23  1  0.41783800  0.53778700  0.14810200  1
  O  O24  1  0.18595200  0.15334600  0.76390900  1
  O  O25  1  0.18595000  0.40334900  0.51391200  1
  O  O26  1  0.18594600  0.90334500  0.01391100  1
  O  O27  1  0.18594400  0.65335300  0.26390600  1
  O  O28  1  0.81405600  0.73608900  0.34665100  1
  O  O29  1  0.81405000  0.98608800  0.09665300  1
  O  O30  1  0.81406100  0.48609600  0.59665800  1
  O  O31  1  0.81406300  0.23609800  0.84665800  1
  O  O32  1  0.91739500  0.96228500  0.85171800  1
  O  O33  1  0.91738500  0.21228300  0.60171800  1
  O  O34  1  0.91739400  0.71228300  0.10171700  1
  O  O35  1  0.91740600  0.46228500  0.35171700  1
  O  O36  1  0.08259300  0.64828500  0.53771500  1
  O  O37  1  0.08260600  0.89828900  0.28771400  1
  O  O38  1  0.08261100  0.39827800  0.78771500  1
  O  O39  1  0.08261100  0.14827900  0.03771600  1
  O  O40  1  0.14136400  0.86566100  0.49191500  1
  O  O41  1  0.14136100  0.11566100  0.24192300  1
  O  O42  1  0.14136300  0.61566100  0.74191900  1
  O  O43  1  0.14136800  0.36565500  0.99191300  1
  O  O44  1  0.35756200  0.99246900  0.86620900  1
  O  O45  1  0.35756300  0.24246600  0.61620700  1
  O  O46  1  0.35756600  0.74246900  0.11620800  1
  O  O47  1  0.35755500  0.49247300  0.36620900  1
  O  O48  1  0.85863000  0.00808200  0.63434000  1
  O  O49  1  0.85863600  0.25808300  0.38434200  1
  O  O50  1  0.85863600  0.75808400  0.88434500  1
  O  O51  1  0.85864700  0.50807700  0.13433400  1
  O  O52  1  0.64243400  0.63379000  0.50752700  1
  O  O53  1  0.64244400  0.88379200  0.25753100  1
  O  O54  1  0.64244600  0.38378800  0.75752900  1
  O  O55  1  0.64243200  0.13379400  0.00753100  1
loop_
_geom_bond_atom_site_label_1
_geom_bond_atom_site_label_2
_geom_bond_distance
_geom_bond_site_symmetry_2
Ca0 O36 2.409884 1_555
Ca0 O8 2.415674 1_555
Ca0 O40 2.464160 1_555
Ca0 O0 2.488150 1_555
Ca0 O27 2.704642 1_555
Ca0 O16 2.706684 1_555
Ca0 O47 2.756766 1_555
Ca0 O52 2.768097 1_555
Ca1 O37 2.409722 1_555
Ca1 O9 2.415607 1_565
Ca1 O41 2.464153 1_565
Ca1 O1 2.488133 1_555
Ca1 O26 2.704615 1_555
Ca1 O17 2.706669 1_565
Ca1 O46 2.756834 1_555
Ca1 O53 2.768185 1_555
Ca2 O38 2.409846 1_555
Ca2 O10 2.415685 1_555
Ca2 O42 2.464181 1_555
Ca2 O2 2.488137 1_555
Ca2 O25 2.704507 1_555
Ca2 O18 2.706582 1_555
Ca2 O45 2.756832 1_555
Ca2 O54 2.768200 1_555
Ca3 O39 2.409771 1_556
Ca3 O11 2.415752 1_556
Ca3 O43 2.464093 1_555
Ca3 O3 2.488290 1_555
Ca3 O24 2.704600 1_555
Ca3 O19 2.706597 1_555
Ca3 O44 2.756800 1_545
Ca3 O55 2.768074 1_556
Ca4 O24 2.408525 1_565
Ca4 O20 2.416894 1_565
Ca4 O44 2.464165 1_555
Ca4 O4 2.488067 1_455
Ca4 O32 2.703286 1_455
Ca4 O8 2.707945 1_555
Ca4 O48 2.756984 1_465
Ca4 O40 2.768235 1_555
Ca5 O25 2.408630 1_555
Ca5 O21 2.416917 1_555
Ca5 O45 2.464227 1_555
Ca5 O5 2.488046 1_555
Ca5 O33 2.703306 1_455
Ca5 O9 2.707968 1_555
Ca5 O49 2.756869 1_455
Ca5 O41 2.768091 1_555
Ca6 O26 2.408565 1_556
Ca6 O22 2.416789 1_555
Ca6 O46 2.464242 1_556
Ca6 O6 2.488133 1_455
Ca6 O34 2.703299 1_456
Ca6 O10 2.707936 1_555
Ca6 O50 2.756885 1_455
Ca6 O42 2.768119 1_555
Ca7 O27 2.408610 1_555
Ca7 O23 2.416838 1_555
Ca7 O47 2.464194 1_555
Ca7 O7 2.488216 1_455
Ca7 O35 2.703239 1_455
Ca7 O11 2.707875 1_555
Ca7 O51 2.756829 1_455
Ca7 O43 2.768211 1_554
Ca8 O32 2.409876 1_545
Ca8 O12 2.415731 1_545
Ca8 O48 2.464201 1_555
Ca8 O3 2.488034 1_555
Ca8 O31 2.704673 1_555
Ca8 O20 2.706555 1_555
Ca8 O55 2.756739 1_556
Ca8 O44 2.768097 1_545
Ca9 O33 2.409820 1_555
Ca9 O13 2.415700 1_555
Ca9 O49 2.464116 1_555
Ca9 O2 2.488144 1_555
Ca9 O30 2.704831 1_555
Ca9 O21 2.706504 1_555
Ca9 O54 2.756866 1_555
Ca9 O45 2.768066 1_555
Ca10 O34 2.409852 1_555
Ca10 O14 2.415636 1_554
Ca10 O50 2.464031 1_554
Ca10 O1 2.488197 1_555
Ca10 O29 2.704617 1_555
Ca10 O22 2.706527 1_554
Ca10 O53 2.756905 1_555
Ca10 O46 2.768127 1_555
Ca11 O35 2.409893 1_555
Ca11 O15 2.415688 1_555
Ca11 O51 2.464267 1_555
Ca11 O0 2.488090 1_555
Ca11 O28 2.704528 1_555
Ca11 O23 2.706587 1_555
Ca11 O52 2.756724 1_555
Ca11 O47 2.768206 1_555
Ca12 O28 2.408472 1_555
Ca12 O16 2.416775 1_555
Ca12 O52 2.464159 1_555
Ca12 O4 2.488139 1_555
Ca12 O36 2.703155 1_655
Ca12 O12 2.708121 1_555
Ca12 O40 2.756972 1_655
Ca12 O48 2.768283 1_565
Ca13 O29 2.408504 1_545
Ca13 O17 2.416759 1_555
Ca13 O53 2.464155 1_545
Ca13 O5 2.488171 1_655
Ca13 O37 2.703211 1_645
Ca13 O13 2.707890 1_555
Ca13 O41 2.756888 1_655
Ca13 O49 2.768234 1_555
Ca14 O30 2.408465 1_555
Ca14 O18 2.416868 1_555
Ca14 O54 2.464120 1_555
Ca14 O6 2.487944 1_555
Ca14 O38 2.703347 1_655
Ca14 O14 2.708004 1_555
Ca14 O42 2.756994 1_655
Ca14 O50 2.768284 1_555
Ca15 O31 2.408565 1_554
Ca15 O19 2.416929 1_554
Ca15 O55 2.464184 1_555
Ca15 O7 2.487893 1_555
Ca15 O39 2.703336 1_655
Ca15 O15 2.707966 1_555
Ca15 O43 2.757005 1_654
Ca15 O51 2.768113 1_555
Co0 O25 1.960554 1_555
Co0 O30 1.960557 1_455
Co0 O35 1.960695 1_455
Co0 O36 1.960699 1_555
Co1 O31 1.960528 1_455
Co1 O24 1.960569 1_555
Co1 O38 1.960661 1_555
Co1 O33 1.960765 1_455
Co2 O27 1.960511 1_655
Co2 O28 1.960527 1_555
Co2 O34 1.960728 1_555
Co2 O37 1.960755 1_655
Co3 O26 1.960557 1_655
Co3 O29 1.960586 1_555
Co3 O32 1.960678 1_554
Co3 O39 1.960734 1_665
O0 Si7 1.683809 1_555
O0 Si12 1.683822 1_555
O1 Si13 1.683797 1_565
O1 Si6 1.683853 1_554
O2 Si5 1.683846 1_555
O2 Si14 1.683893 1_555
O3 Si4 1.683835 1_555
O3 Si15 1.683841 1_555
O4 Si8 1.683821 1_555
O4 Si0 1.683896 1_655
O5 Si1 1.683843 1_545
O5 Si9 1.683916 1_455
O6 Si10 1.683851 1_556
O6 Si2 1.683890 1_655
O7 Si3 1.683804 1_655
O7 Si11 1.683905 1_555
O8 Si0 1.644868 1_555
O8 Zn2 1.957270 1_555
O9 Si1 1.644884 1_545
O9 Zn0 1.957234 1_555
O10 Si2 1.644873 1_555
O10 Zn3 1.957266 1_555
O11 Si3 1.644847 1_555
O11 Zn1 1.957250 1_555
O12 Si8 1.644849 1_555
O12 Zn2 1.957216 1_555
O13 Si9 1.644879 1_555
O13 Zn0 1.957241 1_555
O14 Si10 1.644866 1_556
O14 Zn3 1.957225 1_555
O15 Si11 1.644853 1_555
O15 Zn1 1.957230 1_555
O16 Si12 1.644794 1_555
O16 Zn0 1.957422 1_565
O17 Si13 1.644803 1_555
O17 Zn1 1.957517 1_555
O18 Si14 1.644806 1_555
O18 Zn2 1.957448 1_555
O19 Si15 1.644877 1_555
O19 Zn3 1.957436 1_555
O20 Si4 1.644853 1_555
O20 Zn0 1.957398 1_555
O21 Si5 1.644845 1_555
O21 Zn1 1.957435 1_555
O22 Si6 1.644758 1_555
O22 Zn2 1.957532 1_555
O23 Si7 1.644772 1_555
O23 Zn3 1.957411 1_554
O24 Si4 1.644812 1_555
O25 Si5 1.644749 1_555
O26 Si6 1.644782 1_554
O27 Si7 1.644779 1_555
O28 Si12 1.644767 1_555
O29 Si13 1.644755 1_565
O30 Si14 1.644787 1_555
O31 Si15 1.644822 1_555
O32 Si8 1.644779 1_555
O33 Si9 1.644772 1_555
O34 Si10 1.644780 1_555
O35 Si11 1.644730 1_555
O36 Si0 1.644767 1_555
O37 Si1 1.644778 1_555
O38 Si2 1.644733 1_555
O39 Si3 1.644759 1_555
O40 Si1 1.613779 1_555
O41 Si3 1.613920 1_555
O42 Si0 1.613870 1_555
O43 Si2 1.613891 1_555
O44 Si6 1.613970 1_555
O45 Si4 1.613859 1_555
O46 Si7 1.613981 1_555
O47 Si5 1.613930 1_555
O48 Si9 1.613789 1_555
O49 Si11 1.613900 1_555
O50 Si8 1.613891 1_555
O51 Si10 1.613859 1_555
O52 Si14 1.613909 1_555
O53 Si12 1.613951 1_555
O54 Si15 1.613849 1_555
O55 Si13 1.613970 1_555
