# generated using pymatgen
data_K(GeAs)3
_symmetry_space_group_name_H-M   'P 1'
_cell_length_a   3.87500400
_cell_length_b   10.14849300
_cell_length_c   18.93880200
_cell_angle_alpha   90.00000000
_cell_angle_beta   90.00000000
_cell_angle_gamma   90.00000000
_symmetry_Int_Tables_number   1
_chemical_formula_structural   K(GeAs)3
_chemical_formula_sum   'K4 Ge12 As12'
_cell_volume   744.77692946
_cell_formula_units_Z   4
loop_
 _symmetry_equiv_pos_site_id
 _symmetry_equiv_pos_as_xyz
  1  'x, y, z'
loop_
 _atom_site_type_symbol
 _atom_site_label
 _atom_site_symmetry_multiplicity
 _atom_site_fract_x
 _atom_site_fract_y
 _atom_site_fract_z
 _atom_site_occupancy
  K  K0  1  0.25000000  0.22130800  0.54258100  1
  K  K1  1  0.25000000  0.72130800  0.95741900  1
  K  K2  1  0.75000000  0.77869200  0.45741900  1
  K  K3  1  0.75000000  0.27869200  0.04258100  1
  Ge  Ge0  1  0.25000000  0.30769900  0.84328900  1
  Ge  Ge1  1  0.25000000  0.80769900  0.65671100  1
  Ge  Ge2  1  0.75000000  0.69230100  0.15671100  1
  Ge  Ge3  1  0.75000000  0.19230100  0.34328900  1
  Ge  Ge4  1  0.25000000  0.41355800  0.24373700  1
  Ge  Ge5  1  0.25000000  0.91355800  0.25626300  1
  Ge  Ge6  1  0.75000000  0.58644200  0.75626300  1
  Ge  Ge7  1  0.75000000  0.08644200  0.74373700  1
  Ge  Ge8  1  0.25000000  0.52057600  0.36873300  1
  Ge  Ge9  1  0.25000000  0.02057600  0.13126700  1
  Ge  Ge10  1  0.75000000  0.47942400  0.63126700  1
  Ge  Ge11  1  0.75000000  0.97942400  0.86873300  1
  As  As0  1  0.25000000  0.04386100  0.36929200  1
  As  As1  1  0.25000000  0.54386100  0.13070800  1
  As  As2  1  0.75000000  0.95613900  0.63070800  1
  As  As3  1  0.75000000  0.45613900  0.86929200  1
  As  As4  1  0.25000000  0.11406000  0.92049300  1
  As  As5  1  0.25000000  0.61406000  0.57950700  1
  As  As6  1  0.75000000  0.88594000  0.07950700  1
  As  As7  1  0.75000000  0.38594000  0.42049300  1
  As  As8  1  0.25000000  0.23877400  0.71878200  1
  As  As9  1  0.25000000  0.73877400  0.78121800  1
  As  As10  1  0.75000000  0.76122600  0.28121800  1
  As  As11  1  0.75000000  0.26122600  0.21878200  1
loop_
_geom_bond_atom_site_label_1
_geom_bond_atom_site_label_2
_geom_bond_distance
_geom_bond_site_symmetry_2
Ge4 Ge8 2.604523 1_555
Ge5 Ge9 2.604523 1_565
Ge8 K2 3.665612 1_555
Ge8 K2 3.665612 1_455
Ge9 K3 3.665612 1_455
Ge9 K3 3.665612 1_555
Ge10 Ge6 2.604523 1_555
Ge10 K0 3.665612 1_655
Ge10 K0 3.665612 1_555
Ge11 Ge7 2.604523 1_565
Ge11 K1 3.665612 1_655
Ge11 K1 3.665612 1_555
As0 Ge3 2.503159 1_555
As0 Ge3 2.503159 1_455
As0 Ge5 2.516148 1_545
As0 K2 3.712328 1_545
As0 K2 3.712328 1_445
As0 K0 3.743491 1_555
As1 Ge2 2.503159 1_455
As1 Ge2 2.503159 1_555
As1 Ge4 2.516148 1_555
As1 K3 3.712328 1_555
As1 K3 3.712328 1_455
As1 K1 3.743491 1_554
As2 Ge1 2.503159 1_555
As2 Ge1 2.503159 1_655
As2 Ge7 2.516148 1_565
As2 K0 3.712328 1_565
As2 K0 3.712328 1_665
As2 K2 3.743491 1_555
As3 Ge0 2.503159 1_655
As3 Ge0 2.503159 1_555
As3 Ge6 2.516148 1_555
As3 K1 3.712328 1_555
As3 K1 3.712328 1_655
As3 K3 3.743491 1_556
As4 Ge0 2.449424 1_555
As4 Ge11 2.565495 1_545
As4 Ge11 2.565495 1_445
As4 K3 3.448427 1_556
As4 K3 3.448427 1_456
As5 Ge1 2.449424 1_555
As5 Ge10 2.565495 1_455
As5 Ge10 2.565495 1_555
As5 K2 3.448427 1_455
As5 K2 3.448427 1_555
As6 Ge2 2.449424 1_555
As6 Ge9 2.565495 1_565
As6 Ge9 2.565495 1_665
As6 K1 3.448427 1_554
As6 K1 3.448427 1_654
As7 Ge3 2.449424 1_555
As7 Ge8 2.565495 1_655
As7 Ge8 2.565495 1_555
As7 K0 3.448427 1_555
As7 K0 3.448427 1_655
As8 Ge0 2.459574 1_555
As8 Ge7 2.523334 1_555
As8 Ge7 2.523334 1_455
As8 K0 3.341740 1_555
As9 Ge1 2.459574 1_555
As9 Ge6 2.523334 1_455
As9 Ge6 2.523334 1_555
As9 K1 3.341740 1_555
As10 Ge2 2.459574 1_555
As10 Ge5 2.523334 1_555
As10 Ge5 2.523334 1_655
As10 K2 3.341740 1_555
As11 Ge3 2.459574 1_555
As11 Ge4 2.523334 1_655
As11 Ge4 2.523334 1_555
As11 K3 3.341740 1_555
