# generated using pymatgen
data_Er6FeBi2
_symmetry_space_group_name_H-M   'P 1'
_cell_length_a   8.23246786
_cell_length_b   8.23246927
_cell_length_c   4.16450091
_cell_angle_alpha   90.00000000
_cell_angle_beta   90.00000000
_cell_angle_gamma   119.99999718
_symmetry_Int_Tables_number   1
_chemical_formula_structural   Er6FeBi2
_chemical_formula_sum   'Er6 Fe1 Bi2'
_cell_volume   244.42958359
_cell_formula_units_Z   1
loop_
 _symmetry_equiv_pos_site_id
 _symmetry_equiv_pos_as_xyz
  1  'x, y, z'
loop_
 _atom_site_type_symbol
 _atom_site_label
 _atom_site_symmetry_multiplicity
 _atom_site_fract_x
 _atom_site_fract_y
 _atom_site_fract_z
 _atom_site_occupancy
  Er  Er0  1  0.23313566  -0.00000000  0.50000000  1
  Er  Er1  1  0.00000000  0.23313566  0.50000000  1
  Er  Er2  1  0.76686434  0.76686434  0.50000000  1
  Er  Er3  1  0.60814927  0.00000000  -0.00000000  1
  Er  Er4  1  -0.00000000  0.60814827  0.00000000  1
  Er  Er5  1  0.39185073  0.39185073  -0.00000000  1
  Fe  Fe0  1  0.00000000  0.00000100  0.00000000  1
  Bi  Bi0  1  0.33333300  0.66666700  0.50000000  1
  Bi  Bi1  1  0.66666700  0.33333300  0.50000000  1
loop_
_geom_bond_atom_site_label_1
_geom_bond_atom_site_label_2
_geom_bond_distance
_geom_bond_site_symmetry_2
Er0 Fe0 2.831859 1_555
Er0 Fe0 2.831859 1_556
Er1 Fe0 2.831851 1_555
Er1 Fe0 2.831851 1_556
Er2 Fe0 2.831859 1_666
Er2 Fe0 2.831859 1_665
Er3 Fe0 3.225894 1_655
Er4 Fe0 3.225916 1_565
Er5 Fe0 3.225895 1_555
Bi0 Er0 3.236412 1_565
Bi0 Er1 3.236418 1_555
Bi0 Er2 3.236420 1_555
Bi0 Er4 3.282716 1_555
Bi0 Er4 3.282716 1_556
Bi0 Er3 3.282721 1_566
Bi0 Er3 3.282721 1_565
Bi0 Er5 3.282725 1_555
Bi0 Er5 3.282725 1_556
Bi1 Er1 3.236412 1_655
Bi1 Er0 3.236418 1_555
Bi1 Er2 3.236421 1_555
Bi1 Er4 3.282718 1_655
Bi1 Er4 3.282718 1_656
Bi1 Er3 3.282719 1_555
Bi1 Er3 3.282719 1_556
Bi1 Er5 3.282725 1_555
Bi1 Er5 3.282725 1_556
