# generated using pymatgen
data_Y2TiCuO6
_symmetry_space_group_name_H-M   'P 1'
_cell_length_a   3.63383601
_cell_length_b   3.63383403
_cell_length_c   11.34097100
_cell_angle_alpha   90.00043932
_cell_angle_beta   90.00043738
_cell_angle_gamma   59.99033241
_symmetry_Int_Tables_number   1
_chemical_formula_structural   Y2TiCuO6
_chemical_formula_sum   'Y2 Ti1 Cu1 O6'
_cell_volume   129.67879545
_cell_formula_units_Z   1
loop_
 _symmetry_equiv_pos_site_id
 _symmetry_equiv_pos_as_xyz
  1  'x, y, z'
loop_
 _atom_site_type_symbol
 _atom_site_label
 _atom_site_symmetry_multiplicity
 _atom_site_fract_x
 _atom_site_fract_y
 _atom_site_fract_z
 _atom_site_occupancy
  Y  Y0  1  0.99999600  0.99999600  0.27190500  1
  Y  Y1  1  0.99998500  0.99998500  0.72400200  1
  Ti  Ti0  1  0.33340000  0.33339900  0.99785600  1
  Cu  Cu0  1  0.66666400  0.66666400  0.49803600  1
  O  O0  1  0.33333100  0.33333100  0.16224800  1
  O  O1  1  0.66668100  0.66668100  0.66626800  1
  O  O2  1  0.00003500  0.00003500  0.99809400  1
  O  O3  1  0.99989300  0.99989300  0.49799400  1
  O  O4  1  0.66669600  0.66669600  0.32975200  1
  O  O5  1  0.33331900  0.33331900  0.83384600  1
loop_
_geom_bond_atom_site_label_1
_geom_bond_atom_site_label_2
_geom_bond_distance
_geom_bond_site_symmetry_2
Cu0 O1 1.907914 1_555
Cu0 O4 1.908504 1_555
Cu0 O3 2.097441 1_555
Cu0 O3 2.098119 1_545
Cu0 O3 2.098120 1_455
O0 Ti0 1.864365 1_554
O0 Y0 2.438701 1_455
O0 Y0 2.438702 1_545
O0 Y0 2.438993 1_445
O1 Y1 2.197689 1_545
O1 Y1 2.197690 1_455
O1 Y1 2.197709 1_555
O2 Ti0 2.097694 1_455
O2 Ti0 2.097696 1_545
O2 Ti0 2.098296 1_555
O3 Y1 2.563150 1_555
O3 Y0 2.564069 1_555
O4 Y0 2.198077 1_545
O4 Y0 2.198078 1_555
O4 Y0 2.198078 1_455
O5 Ti0 1.860033 1_555
O5 Y1 2.439796 1_455
O5 Y1 2.439796 1_545
O5 Y1 2.440051 1_445
