# generated using pymatgen
data_Li3TiMn2O6
_symmetry_space_group_name_H-M   'P 1'
_cell_length_a   2.94865226
_cell_length_b   8.30085299
_cell_length_c   10.14709091
_cell_angle_alpha   82.67590798
_cell_angle_beta   81.64061447
_cell_angle_gamma   100.23337968
_symmetry_Int_Tables_number   1
_chemical_formula_structural   Li3TiMn2O6
_chemical_formula_sum   'Li6 Ti2 Mn4 O12'
_cell_volume   238.79930061
_cell_formula_units_Z   2
loop_
 _symmetry_equiv_pos_site_id
 _symmetry_equiv_pos_as_xyz
  1  'x, y, z'
loop_
 _atom_site_type_symbol
 _atom_site_label
 _atom_site_symmetry_multiplicity
 _atom_site_fract_x
 _atom_site_fract_y
 _atom_site_fract_z
 _atom_site_occupancy
  Li  Li0  1  0.41692200  0.08433000  0.25050800  1
  Li  Li1  1  0.91673000  0.58388200  0.75038200  1
  Li  Li2  1  0.25543000  0.26672500  0.75583800  1
  Li  Li3  1  0.75696300  0.76545900  0.25117200  1
  Li  Li4  1  0.07646900  0.40151300  0.24884300  1
  Li  Li5  1  0.57767000  0.90005400  0.74484300  1
  Ti  Ti0  1  0.66763500  0.32682100  0.99154300  1
  Ti  Ti1  1  0.16558500  0.83987000  0.50888500  1
  Mn  Mn0  1  0.99234400  0.98885600  0.00415600  1
  Mn  Mn1  1  0.84113600  0.17826700  0.49603200  1
  Mn  Mn2  1  0.49900500  0.49514500  0.49703000  1
  Mn  Mn3  1  0.33455100  0.67153100  0.00245200  1
  O  O0  1  0.63336100  0.15456700  0.88781100  1
  O  O1  1  0.11363500  0.62867500  0.40154900  1
  O  O2  1  0.19999700  0.01218400  0.61220700  1
  O  O3  1  0.71986100  0.53768000  0.09777500  1
  O  O4  1  0.46441300  0.29944900  0.37066100  1
  O  O5  1  0.94722300  0.77836400  0.88422200  1
  O  O6  1  0.88640000  0.38812100  0.61503100  1
  O  O7  1  0.36882200  0.86614500  0.12842400  1
  O  O8  1  0.28228600  0.44609900  0.88168100  1
  O  O9  1  0.77384300  0.93632100  0.38870300  1
  O  O10  1  0.05903400  0.22976500  0.11164000  1
  O  O11  1  0.55068200  0.72017600  0.61862000  1
loop_
_geom_bond_atom_site_label_1
_geom_bond_atom_site_label_2
_geom_bond_distance
_geom_bond_site_symmetry_2
Li0 O10 2.237454 1_655
Li0 O10 2.237842 1_555
Li0 O9 2.243054 1_445
Li0 O9 2.243378 1_545
Li0 O4 2.282665 1_555
Li0 O7 2.316625 1_545
Li1 O11 2.167496 1_655
Li1 O11 2.168030 1_555
Li1 O8 2.170114 1_555
Li1 O8 2.170731 1_655
Li1 O5 2.236423 1_555
Li1 O6 2.255648 1_555
Li2 O8 2.079931 1_555
Li2 O0 2.094215 1_455
Li2 O0 2.094424 1_555
Li2 O6 2.170758 1_555
Li2 O6 2.171516 1_455
Li3 O7 2.012137 1_555
Li3 O7 2.012536 1_655
Li3 O9 2.112190 1_555
Li3 O1 2.273168 1_555
Li3 O1 2.274373 1_655
Li3 O3 2.595403 1_555
Li4 O4 2.010654 1_555
Li4 O4 2.010937 1_455
Li4 O10 2.115233 1_555
Li4 O3 2.275357 1_555
Li4 O3 2.276458 1_455
Li4 O1 2.586420 1_555
Li5 O11 2.085965 1_555
Li5 O2 2.097774 1_665
Li5 O2 2.098230 1_565
Li5 O5 2.163432 1_455
Li5 O5 2.164014 1_555
Mn0 O7 2.083471 1_555
Mn0 O7 2.083557 1_655
Mn0 O0 2.207215 1_664
Mn0 O0 2.207480 1_564
Mn0 O5 2.249067 1_554
Mn0 O10 2.388704 1_665
Mn1 O4 2.084441 1_655
Mn1 O4 2.084661 1_555
Mn1 O2 2.208131 1_555
Mn1 O2 2.208314 1_655
Mn1 O6 2.238492 1_555
Mn1 O9 2.395386 1_545
Mn2 O1 1.988044 1_555
Mn2 O1 1.988388 1_655
Mn2 O6 2.003700 1_555
Mn2 O6 2.003888 1_455
Mn2 O4 2.191734 1_555
Mn2 O11 2.361315 1_555
Mn3 O3 1.988706 1_555
Mn3 O3 1.988955 1_455
Mn3 O5 2.004264 1_454
Mn3 O5 2.004660 1_554
Mn3 O7 2.181718 1_555
Mn3 O8 2.358887 1_554
O0 Ti0 1.877747 1_555
O1 Ti1 2.173242 1_555
O2 Ti1 1.875392 1_545
O3 Ti0 2.163980 1_554
O8 Ti0 2.000191 1_555
O8 Ti0 2.000333 1_455
O9 Ti1 1.987423 1_555
O9 Ti1 1.987890 1_655
O10 Ti0 1.988632 1_554
O10 Ti0 1.988737 1_454
O11 Ti1 2.000716 1_555
O11 Ti1 2.001325 1_655
