# generated using pymatgen
data_KMnAs3F18
_symmetry_space_group_name_H-M   'P 1'
_cell_length_a   9.77082100
_cell_length_b   10.84082300
_cell_length_c   14.42847100
_cell_angle_alpha   90.00000000
_cell_angle_beta   90.00000000
_cell_angle_gamma   90.00000000
_symmetry_Int_Tables_number   1
_chemical_formula_structural   KMnAs3F18
_chemical_formula_sum   'K4 Mn4 As12 F72'
_cell_volume   1528.31762560
_cell_formula_units_Z   4
loop_
 _symmetry_equiv_pos_site_id
 _symmetry_equiv_pos_as_xyz
  1  'x, y, z'
loop_
 _atom_site_type_symbol
 _atom_site_label
 _atom_site_symmetry_multiplicity
 _atom_site_fract_x
 _atom_site_fract_y
 _atom_site_fract_z
 _atom_site_occupancy
  K  K0  1  0.52489100  0.91913500  0.75000000  1
  K  K1  1  0.97510900  0.41913500  0.75000000  1
  K  K2  1  0.47510900  0.08086500  0.25000000  1
  K  K3  1  0.02489100  0.58086500  0.25000000  1
  Mn  Mn0  1  0.00000000  0.00000000  0.50000000  1
  Mn  Mn1  1  0.50000000  0.50000000  0.00000000  1
  Mn  Mn2  1  0.00000000  0.00000000  0.00000000  1
  Mn  Mn3  1  0.50000000  0.50000000  0.50000000  1
  As  As0  1  0.11785200  0.02800800  0.75000000  1
  As  As1  1  0.38214800  0.52800800  0.75000000  1
  As  As2  1  0.88214800  0.97199200  0.25000000  1
  As  As3  1  0.61785200  0.47199200  0.25000000  1
  As  As4  1  0.68934000  0.20021900  0.55323100  1
  As  As5  1  0.81066000  0.70021900  0.94676900  1
  As  As6  1  0.31066000  0.79978100  0.05323100  1
  As  As7  1  0.18934000  0.29978100  0.44676900  1
  As  As8  1  0.31066000  0.79978100  0.44676900  1
  As  As9  1  0.18934000  0.29978100  0.05323100  1
  As  As10  1  0.68934000  0.20021900  0.94676900  1
  As  As11  1  0.81066000  0.70021900  0.55323100  1
  F  F0  1  0.11548300  0.02915100  0.62366100  1
  F  F1  1  0.38451700  0.52915100  0.87633900  1
  F  F2  1  0.88451700  0.97084900  0.12366100  1
  F  F3  1  0.61548300  0.47084900  0.37633900  1
  F  F4  1  0.88451700  0.97084900  0.37633900  1
  F  F5  1  0.61548300  0.47084900  0.12366100  1
  F  F6  1  0.11548300  0.02915100  0.87633900  1
  F  F7  1  0.38451700  0.52915100  0.62366100  1
  F  F8  1  0.17457600  0.87517500  0.75000000  1
  F  F9  1  0.32542400  0.37517500  0.75000000  1
  F  F10  1  0.82542400  0.12482500  0.25000000  1
  F  F11  1  0.67457600  0.62482500  0.25000000  1
  F  F12  1  0.28921700  0.07671000  0.75000000  1
  F  F13  1  0.21078300  0.57671000  0.75000000  1
  F  F14  1  0.71078300  0.92329000  0.25000000  1
  F  F15  1  0.78921700  0.42329000  0.25000000  1
  F  F16  1  0.06543500  0.18336800  0.75000000  1
  F  F17  1  0.43456500  0.68336800  0.75000000  1
  F  F18  1  0.93456500  0.81663200  0.25000000  1
  F  F19  1  0.56543500  0.31663200  0.25000000  1
  F  F20  1  0.94634800  0.98056900  0.75000000  1
  F  F21  1  0.55365200  0.48056900  0.75000000  1
  F  F22  1  0.05365200  0.01943100  0.25000000  1
  F  F23  1  0.44634800  0.51943100  0.25000000  1
  F  F24  1  0.81676800  0.07657700  0.55713800  1
  F  F25  1  0.68323200  0.57657700  0.94286200  1
  F  F26  1  0.18323200  0.92342300  0.05713800  1
  F  F27  1  0.31676800  0.42342300  0.44286200  1
  F  F28  1  0.18323200  0.92342300  0.44286200  1
  F  F29  1  0.31676800  0.42342300  0.05713800  1
  F  F30  1  0.81676800  0.07657700  0.94286200  1
  F  F31  1  0.68323200  0.57657700  0.55713800  1
  F  F32  1  0.78736400  0.27850500  0.47110200  1
  F  F33  1  0.71263600  0.77850500  0.02889800  1
  F  F34  1  0.21263600  0.72149500  0.97110200  1
  F  F35  1  0.28736400  0.22149500  0.52889800  1
  F  F36  1  0.21263600  0.72149500  0.52889800  1
  F  F37  1  0.28736400  0.22149500  0.97110200  1
  F  F38  1  0.78736400  0.27850500  0.02889800  1
  F  F39  1  0.71263600  0.77850500  0.47110200  1
  F  F40  1  0.60040100  0.12345700  0.46479800  1
  F  F41  1  0.89959900  0.62345700  0.03520200  1
  F  F42  1  0.39959900  0.87654300  0.96479800  1
  F  F43  1  0.10040100  0.37654300  0.53520200  1
  F  F44  1  0.39959900  0.87654300  0.53520200  1
  F  F45  1  0.10040100  0.37654300  0.96479800  1
  F  F46  1  0.60040100  0.12345700  0.03520200  1
  F  F47  1  0.89959900  0.62345700  0.46479800  1
  F  F48  1  0.56326900  0.32401300  0.55222700  1
  F  F49  1  0.93673100  0.82401300  0.94777300  1
  F  F50  1  0.43673100  0.67598700  0.05222700  1
  F  F51  1  0.06326900  0.17598700  0.44777300  1
  F  F52  1  0.43673100  0.67598700  0.44777300  1
  F  F53  1  0.06326900  0.17598700  0.05222700  1
  F  F54  1  0.56326900  0.32401300  0.94777300  1
  F  F55  1  0.93673100  0.82401300  0.55222700  1
  F  F56  1  0.59245200  0.12000400  0.63659100  1
  F  F57  1  0.90754800  0.62000400  0.86340900  1
  F  F58  1  0.40754800  0.87999600  0.13659100  1
  F  F59  1  0.09245200  0.37999600  0.36340900  1
  F  F60  1  0.40754800  0.87999600  0.36340900  1
  F  F61  1  0.09245200  0.37999600  0.13659100  1
  F  F62  1  0.59245200  0.12000400  0.86340900  1
  F  F63  1  0.90754800  0.62000400  0.63659100  1
  F  F64  1  0.77743800  0.27618800  0.64335700  1
  F  F65  1  0.72256200  0.77618800  0.85664300  1
  F  F66  1  0.22256200  0.72381200  0.14335700  1
  F  F67  1  0.27743800  0.22381200  0.35664300  1
  F  F68  1  0.22256200  0.72381200  0.35664300  1
  F  F69  1  0.27743800  0.22381200  0.14335700  1
  F  F70  1  0.77743800  0.27618800  0.85664300  1
  F  F71  1  0.72256200  0.77618800  0.64335700  1
loop_
_geom_bond_atom_site_label_1
_geom_bond_atom_site_label_2
_geom_bond_distance
_geom_bond_site_symmetry_2
As0 F8 1.747079 1_545
As0 F20 1.752875 1_445
As0 F12 1.755645 1_555
As0 F16 1.760380 1_555
As0 F0 1.823068 1_555
As0 F6 1.823068 1_555
As1 F9 1.747079 1_555
As1 F21 1.752875 1_555
As1 F13 1.755645 1_555
As1 F17 1.760380 1_555
As1 F7 1.823068 1_555
As1 F1 1.823068 1_555
As2 F10 1.747079 1_565
As2 F22 1.752875 1_665
As2 F14 1.755645 1_555
As2 F18 1.760380 1_555
As2 F4 1.823068 1_555
As2 F2 1.823068 1_555
As3 F11 1.747079 1_555
As3 F23 1.752875 1_555
As3 F15 1.755645 1_555
As3 F19 1.760380 1_555
As3 F3 1.823068 1_555
As3 F5 1.823068 1_555
As4 F32 1.744080 1_555
As4 F40 1.753774 1_555
As4 F56 1.760403 1_555
As4 F64 1.763579 1_555
As4 F48 1.821709 1_555
As4 F24 1.830304 1_555
As5 F33 1.744080 1_556
As5 F41 1.753774 1_556
As5 F57 1.760403 1_555
As5 F65 1.763579 1_555
As5 F49 1.821709 1_555
As5 F25 1.830304 1_555
As6 F34 1.744080 1_554
As6 F42 1.753774 1_554
As6 F58 1.760403 1_555
As6 F66 1.763579 1_555
As6 F50 1.821709 1_555
As6 F26 1.830304 1_555
As7 F35 1.744080 1_555
As7 F43 1.753774 1_555
As7 F59 1.760403 1_555
As7 F67 1.763579 1_555
As7 F51 1.821709 1_555
As7 F27 1.830304 1_555
As8 F36 1.744080 1_555
As8 F44 1.753774 1_555
As8 F60 1.760403 1_555
As8 F68 1.763579 1_555
As8 F52 1.821709 1_555
As8 F28 1.830304 1_555
As9 F37 1.744080 1_554
As9 F45 1.753774 1_554
As9 F61 1.760403 1_555
As9 F69 1.763579 1_555
As9 F53 1.821709 1_555
As9 F29 1.830304 1_555
As10 F38 1.744080 1_556
As10 F46 1.753774 1_556
As10 F62 1.760403 1_555
As10 F70 1.763579 1_555
As10 F54 1.821709 1_555
As10 F30 1.830304 1_555
As11 F39 1.744080 1_555
As11 F47 1.753774 1_555
As11 F63 1.760403 1_555
As11 F71 1.763579 1_555
As11 F55 1.821709 1_555
As11 F31 1.830304 1_555
F0 Mn0 2.134615 1_555
F1 Mn1 2.134615 1_556
F2 Mn2 2.134615 1_665
F3 Mn3 2.134615 1_555
F4 Mn0 2.134615 1_665
F5 Mn1 2.134615 1_555
F6 Mn2 2.134615 1_556
F7 Mn3 2.134615 1_555
F12 K0 2.867168 1_545
F13 K1 2.867168 1_455
F14 K2 2.867168 1_565
F15 K3 2.867168 1_655
F16 K1 2.703993 1_455
F17 K0 2.703993 1_555
F18 K3 2.703993 1_655
F19 K2 2.703993 1_555
F24 Mn0 2.138713 1_655
F25 Mn1 2.138713 1_556
F26 Mn2 2.138713 1_565
F27 Mn3 2.138713 1_555
F28 Mn0 2.138713 1_565
F29 Mn1 2.138713 1_555
F30 Mn2 2.138713 1_656
F31 Mn3 2.138713 1_555
F48 Mn3 2.142399 1_555
F49 Mn2 2.142399 1_666
F50 Mn1 2.142399 1_555
F51 Mn0 2.142399 1_555
F52 Mn3 2.142399 1_555
F53 Mn2 2.142399 1_555
F54 Mn1 2.142399 1_556
F55 Mn0 2.142399 1_665
F56 K0 2.802710 1_545
F57 K1 2.802710 1_555
F58 K2 2.802710 1_565
F59 K3 2.802710 1_555
F60 K2 2.802710 1_565
F61 K3 2.802710 1_555
F62 K0 2.802710 1_545
F63 K1 2.802710 1_555
F64 K1 2.915369 1_555
F65 K0 2.915369 1_555
F66 K3 2.915369 1_555
F67 K2 2.915369 1_555
F68 K3 2.915369 1_555
F69 K2 2.915369 1_555
F70 K1 2.915369 1_555
F71 K0 2.915369 1_555
