# generated using pymatgen
data_CeAu6
_symmetry_space_group_name_H-M   'P 1'
_cell_length_a   5.56368518
_cell_length_b   5.56463366
_cell_length_c   9.14230066
_cell_angle_alpha   83.11308538
_cell_angle_beta   83.10937390
_cell_angle_gamma   89.78860313
_symmetry_Int_Tables_number   1
_chemical_formula_structural   CeAu6
_chemical_formula_sum   'Ce2 Au12'
_cell_volume   278.95609011
_cell_formula_units_Z   2
loop_
 _symmetry_equiv_pos_site_id
 _symmetry_equiv_pos_as_xyz
  1  'x, y, z'
loop_
 _atom_site_type_symbol
 _atom_site_label
 _atom_site_symmetry_multiplicity
 _atom_site_fract_x
 _atom_site_fract_y
 _atom_site_fract_z
 _atom_site_occupancy
  Ce  Ce0  1  0.68661988  0.31338130  0.24990008  1
  Ce  Ce1  1  0.31345617  0.68661082  0.75014211  1
  Au  Au0  1  0.95805674  0.84116882  0.13740256  1
  Au  Au1  1  0.15895404  0.04188268  0.36256384  1
  Au  Au2  1  0.04188710  0.15908565  0.86262985  1
  Au  Au3  1  0.84101337  0.95797099  0.63748955  1
  Au  Au4  1  0.21820056  0.38736184  0.08071747  1
  Au  Au5  1  0.61274123  0.78174944  0.41922180  1
  Au  Au6  1  0.78185158  0.61266114  0.91927845  1
  Au  Au7  1  0.38717959  0.21824315  0.58080909  1
  Au  Au8  1  0.16801226  0.54013808  0.37373983  1
  Au  Au9  1  0.45978621  0.83201686  0.12608099  1
  Au  Au10  1  0.83199958  0.45976104  0.62610218  1
  Au  Au11  1  0.54024169  0.16797117  0.87392219  1
loop_
_geom_bond_atom_site_label_1
_geom_bond_atom_site_label_2
_geom_bond_distance
_geom_bond_site_symmetry_2
Au0 Au6 2.764239 1_554
Au0 Au9 2.781451 1_655
Au0 Au9 2.787413 1_555
Au0 Au1 2.801222 1_665
Au0 Au2 2.883889 1_664
Au0 Au8 2.926127 1_655
Au0 Au4 2.974440 1_655
Au0 Au5 3.008539 1_555
Au0 Ce0 3.238728 1_565
Au0 Ce0 3.301474 1_555
Au0 Au4 3.328046 1_665
Au1 Au7 2.764638 1_555
Au1 Au8 2.782115 1_545
Au1 Au8 2.787570 1_555
Au1 Au3 2.884850 1_445
Au1 Au9 2.926131 1_545
Au1 Au5 2.974049 1_545
Au1 Au4 3.009472 1_555
Au1 Ce0 3.239808 1_455
Au1 Ce0 3.300923 1_555
Au1 Au5 3.327744 1_445
Au2 Au4 2.763527 1_556
Au2 Au3 2.802088 1_445
Au2 Au6 2.972971 1_455
Au2 Au7 3.008468 1_555
Au2 Ce1 3.240246 1_545
Au2 Ce1 3.300526 1_555
Au2 Au6 3.328949 1_445
Au3 Au5 2.764606 1_555
Au3 Au7 2.974676 1_565
Au3 Au6 3.008559 1_555
Au3 Ce1 3.239956 1_655
Au3 Ce1 3.300065 1_555
Au3 Au7 3.327835 1_665
Au4 Au8 2.888278 1_555
Au4 Au9 2.916400 1_555
Au4 Au6 3.168193 1_454
Au4 Ce0 3.172938 1_455
Au4 Ce0 3.187534 1_555
Au4 Ce1 3.256205 1_554
Au5 Au9 2.889712 1_555
Au5 Au8 2.916904 1_555
Au5 Au7 3.170195 1_565
Au5 Ce0 3.174118 1_565
Au5 Ce0 3.188258 1_555
Au5 Ce1 3.258746 1_555
Au6 Au9 2.828379 1_556
Au6 Ce1 3.172889 1_655
Au6 Ce1 3.187165 1_555
Au6 Ce0 3.256625 1_556
Au7 Au8 2.829086 1_555
Au7 Ce1 3.174094 1_545
Au7 Ce1 3.188256 1_555
Au7 Ce0 3.259004 1_555
Au8 Au9 2.941991 1_555
Au8 Ce0 3.275861 1_555
Au8 Ce0 3.338045 1_455
Au9 Ce0 3.276531 1_555
Au9 Ce0 3.338267 1_565
Au10 Au3 2.782207 1_545
Au10 Au8 2.782401 1_655
Au10 Au3 2.787617 1_555
Au10 Au5 2.828517 1_555
Au10 Au6 2.889899 1_555
Au10 Au7 2.916576 1_555
Au10 Au2 2.926240 1_655
Au10 Au11 2.942661 1_555
Au10 Ce1 3.276305 1_555
Au10 Ce1 3.339445 1_655
Au11 Au2 2.780977 1_655
Au11 Au9 2.781140 1_546
Au11 Au2 2.787799 1_555
Au11 Au4 2.828360 1_556
Au11 Au7 2.889712 1_555
Au11 Au6 2.916613 1_555
Au11 Au3 2.926003 1_545
Au11 Ce1 3.276335 1_555
Au11 Ce1 3.337964 1_545
