# generated using pymatgen
data_P2H17C6NO2
_symmetry_space_group_name_H-M   'P 1'
_cell_length_a   5.29029465
_cell_length_b   9.07863424
_cell_length_c   10.40068683
_cell_angle_alpha   76.60091279
_cell_angle_beta   89.67599754
_cell_angle_gamma   87.21721247
_symmetry_Int_Tables_number   1
_chemical_formula_structural   P2H17C6NO2
_chemical_formula_sum   'P4 H34 C12 N2 O4'
_cell_volume   485.35242499
_cell_formula_units_Z   2
loop_
 _symmetry_equiv_pos_site_id
 _symmetry_equiv_pos_as_xyz
  1  'x, y, z'
loop_
 _atom_site_type_symbol
 _atom_site_label
 _atom_site_symmetry_multiplicity
 _atom_site_fract_x
 _atom_site_fract_y
 _atom_site_fract_z
 _atom_site_occupancy
  P  P0  1  0.83922711  0.92319025  0.30367987  1
  P  P1  1  0.16077289  0.07680975  0.69632013  1
  P  P2  1  0.86219565  0.54333808  0.78172552  1
  P  P3  1  0.13780435  0.45666192  0.21827448  1
  H  H0  1  0.00934780  0.70925548  0.52757527  1
  H  H1  1  0.99065220  0.29074452  0.47242473  1
  H  H2  1  0.74177170  0.66056084  0.34709535  1
  H  H3  1  0.25822830  0.33943916  0.65290465  1
  H  H4  1  0.50291607  0.77335095  0.40512927  1
  H  H5  1  0.49708393  0.22664905  0.59487073  1
  H  H6  1  0.52139569  0.58798130  0.62764712  1
  H  H7  1  0.47860431  0.41201870  0.37235288  1
  H  H8  1  0.76938027  0.47542656  0.57799875  1
  H  H9  1  0.23061973  0.52457344  0.42200125  1
  H  H10  1  0.77464228  0.05758285  0.47357573  1
  H  H11  1  0.22535772  0.94241715  0.52642427  1
  H  H12  1  0.77615649  0.18238378  0.31375535  1
  H  H13  1  0.22384351  0.81761622  0.68624465  1
  H  H14  1  0.50429622  0.07693529  0.36844488  1
  H  H15  1  0.49570378  0.92306471  0.63155512  1
  H  H16  1  0.75372916  0.85442030  0.09967363  1
  H  H17  1  0.24627084  0.14557970  0.90032637  1
  H  H18  1  0.48893053  0.95289184  0.15419303  1
  H  H19  1  0.51106947  0.04710816  0.84580697  1
  H  H20  1  0.75413934  0.05392812  0.07960946  1
  H  H21  1  0.24586066  0.94607188  0.92039054  1
  H  H22  1  0.78182728  0.79851755  0.80597522  1
  H  H23  1  0.21817272  0.20148245  0.19402478  1
  H  H24  1  0.51534121  0.68378782  0.85000307  1
  H  H25  1  0.48465879  0.31621218  0.14999693  1
  H  H26  1  0.77779632  0.66047542  0.96010176  1
  H  H27  1  0.22220368  0.33952458  0.03989824  1
  H  H28  1  0.78887029  0.27774421  0.81951859  1
  H  H29  1  0.21112971  0.72225579  0.18048141  1
  H  H30  1  0.78331190  0.34405044  0.96921974  1
  H  H31  1  0.21668810  0.65594956  0.03078026  1
  H  H32  1  0.52082219  0.38680535  0.85794930  1
  H  H33  1  0.47917781  0.61319465  0.14205070  1
  C  C0  1  0.70812887  0.75168328  0.40051885  1
  C  C1  1  0.29187113  0.24831672  0.59948115  1
  C  C2  1  0.72741913  0.57776083  0.61665155  1
  C  C3  1  0.27258087  0.42223917  0.38334845  1
  C  C4  1  0.71081854  0.07453644  0.37124297  1
  C  C5  1  0.28918146  0.92546356  0.62875703  1
  C  C6  1  0.69472681  0.94844033  0.14386619  1
  C  C7  1  0.30527319  0.05155967  0.85613381  1
  C  C8  1  0.72093847  0.68653730  0.85614525  1
  C  C9  1  0.27906153  0.31346270  0.14385475  1
  C  C10  1  0.72686398  0.37031070  0.86523293  1
  C  C11  1  0.27313602  0.62968930  0.13476707  1
  N  N0  1  0.81740791  0.71652108  0.53332599  1
  N  N1  1  0.18259209  0.28347892  0.46667401  1
  O  O0  1  0.12289164  0.91149811  0.30196217  1
  O  O1  1  0.87710836  0.08850189  0.69803783  1
  O  O2  1  0.14582052  0.53998568  0.78202459  1
  O  O3  1  0.85417948  0.46001432  0.21797541  1
loop_
_geom_bond_atom_site_label_1
_geom_bond_atom_site_label_2
_geom_bond_distance
_geom_bond_site_symmetry_2
H0 N0 1.016681 1_455
H1 N1 1.016681 1_655
C0 H4 1.096653 1_555
C0 H2 1.105626 1_555
C0 N0 1.459735 1_555
C0 P0 1.813829 1_555
C1 H5 1.096653 1_555
C1 H3 1.105626 1_555
C1 N1 1.459735 1_555
C1 P1 1.813829 1_555
C2 H6 1.096956 1_555
C2 H8 1.107296 1_555
C2 N0 1.453363 1_555
C2 P2 1.815838 1_555
C3 H7 1.096956 1_555
C3 H9 1.107296 1_555
C3 N1 1.453363 1_555
C3 P3 1.815838 1_555
C4 H14 1.092141 1_555
C4 H10 1.092516 1_555
C4 H12 1.093082 1_555
C4 P0 1.787357 1_545
C5 H15 1.092141 1_555
C5 H11 1.092516 1_555
C5 H13 1.093082 1_555
C5 P1 1.787357 1_565
C6 H16 1.091613 1_555
C6 H20 1.092160 1_565
C6 H18 1.093117 1_555
C6 P0 1.794578 1_555
C7 H17 1.091613 1_555
C7 H21 1.092160 1_545
C7 H19 1.093117 1_555
C7 P1 1.794578 1_555
C8 H24 1.091738 1_555
C8 H22 1.092524 1_555
C8 H26 1.092565 1_555
C8 P2 1.792534 1_555
C9 H25 1.091738 1_555
C9 H23 1.092524 1_555
C9 H27 1.092565 1_555
C9 P3 1.792534 1_555
C10 H30 1.092231 1_555
C10 H32 1.093681 1_555
C10 H28 1.093872 1_555
C10 P2 1.790070 1_555
C11 H31 1.092231 1_555
C11 H33 1.093681 1_555
C11 H29 1.093872 1_555
C11 P3 1.790070 1_555
O0 P0 1.499567 1_455
O1 P1 1.499567 1_655
O2 P2 1.499296 1_455
O3 P3 1.499296 1_655
