# generated using pymatgen
data_Ca3Ge3(SbO6)2
_symmetry_space_group_name_H-M   'P 1'
_cell_length_a   11.27487653
_cell_length_b   11.27487653
_cell_length_c   11.27487653
_cell_angle_alpha   109.47122063
_cell_angle_beta   109.47122063
_cell_angle_gamma   109.47122063
_symmetry_Int_Tables_number   1
_chemical_formula_structural   Ca3Ge3(SbO6)2
_chemical_formula_sum   'Ca12 Ge12 Sb8 O48'
_cell_volume   1103.35049275
_cell_formula_units_Z   4
loop_
 _symmetry_equiv_pos_site_id
 _symmetry_equiv_pos_as_xyz
  1  'x, y, z'
loop_
 _atom_site_type_symbol
 _atom_site_label
 _atom_site_symmetry_multiplicity
 _atom_site_fract_x
 _atom_site_fract_y
 _atom_site_fract_z
 _atom_site_occupancy
  Ca  Ca0  1  0.25000000  0.87500000  0.62500000  1
  Ca  Ca1  1  0.75000000  0.62500000  0.87500000  1
  Ca  Ca2  1  0.62500000  0.87500000  0.75000000  1
  Ca  Ca3  1  0.87500000  0.62500000  0.25000000  1
  Ca  Ca4  1  0.62500000  0.25000000  0.87500000  1
  Ca  Ca5  1  0.87500000  0.75000000  0.62500000  1
  Ca  Ca6  1  0.75000000  0.12500000  0.37500000  1
  Ca  Ca7  1  0.25000000  0.37500000  0.12500000  1
  Ca  Ca8  1  0.37500000  0.12500000  0.25000000  1
  Ca  Ca9  1  0.12500000  0.37500000  0.75000000  1
  Ca  Ca10  1  0.37500000  0.75000000  0.12500000  1
  Ca  Ca11  1  0.12500000  0.25000000  0.37500000  1
  Ge  Ge0  1  0.12500000  0.75000000  0.87500000  1
  Ge  Ge1  1  0.87500000  0.25000000  0.12500000  1
  Ge  Ge2  1  0.62500000  0.37500000  0.25000000  1
  Ge  Ge3  1  0.75000000  0.87500000  0.12500000  1
  Ge  Ge4  1  0.87500000  0.12500000  0.75000000  1
  Ge  Ge5  1  0.25000000  0.62500000  0.37500000  1
  Ge  Ge6  1  0.75000000  0.37500000  0.62500000  1
  Ge  Ge7  1  0.25000000  0.12500000  0.87500000  1
  Ge  Ge8  1  0.12500000  0.87500000  0.25000000  1
  Ge  Ge9  1  0.37500000  0.62500000  0.75000000  1
  Ge  Ge10  1  0.62500000  0.75000000  0.37500000  1
  Ge  Ge11  1  0.37500000  0.25000000  0.62500000  1
  Sb  Sb0  1  0.50000000  0.50000000  0.50000000  1
  Sb  Sb1  1  0.50000000  0.00000000  0.50000000  1
  Sb  Sb2  1  0.00000000  0.50000000  0.50000000  1
  Sb  Sb3  1  0.50000000  0.50000000  0.00000000  1
  Sb  Sb4  1  0.00000000  0.00000000  0.50000000  1
  Sb  Sb5  1  0.00000000  0.50000000  0.00000000  1
  Sb  Sb6  1  0.50000000  0.00000000  0.00000000  1
  Sb  Sb7  1  0.00000000  0.00000000  0.00000000  1
  O  O0  1  0.40796600  0.80299000  0.78081200  1
  O  O1  1  0.87284700  0.39502500  0.09203400  1
  O  O2  1  0.10497500  0.97782200  0.69701000  1
  O  O3  1  0.52217800  0.62715300  0.71918800  1
  O  O4  1  0.69701000  0.09203400  0.71918800  1
  O  O5  1  0.62715300  0.71918800  0.52217800  1
  O  O6  1  0.62715300  0.40796600  0.10497500  1
  O  O7  1  0.71918800  0.52217800  0.62715300  1
  O  O8  1  0.80299000  0.52217800  0.39502500  1
  O  O9  1  0.97782200  0.78081200  0.87284700  1
  O  O10  1  0.78081200  0.87284700  0.97782200  1
  O  O11  1  0.71918800  0.69701000  0.09203400  1
  O  O12  1  0.40796600  0.10497500  0.62715300  1
  O  O13  1  0.39502500  0.80299000  0.52217800  1
  O  O14  1  0.09203400  0.71918800  0.69701000  1
  O  O15  1  0.10497500  0.62715300  0.40796600  1
  O  O16  1  0.52217800  0.39502500  0.80299000  1
  O  O17  1  0.09203400  0.87284700  0.39502500  1
  O  O18  1  0.97782200  0.69701000  0.10497500  1
  O  O19  1  0.19701000  0.47782200  0.60497500  1
  O  O20  1  0.69701000  0.10497500  0.97782200  1
  O  O21  1  0.78081200  0.40796600  0.80299000  1
  O  O22  1  0.39502500  0.09203400  0.87284700  1
  O  O23  1  0.87284700  0.97782200  0.78081200  1
  O  O24  1  0.59203400  0.19701000  0.21918800  1
  O  O25  1  0.12715300  0.60497500  0.90796600  1
  O  O26  1  0.89502500  0.02217800  0.30299000  1
  O  O27  1  0.47782200  0.37284700  0.28081200  1
  O  O28  1  0.30299000  0.90796600  0.28081200  1
  O  O29  1  0.37284700  0.28081200  0.47782200  1
  O  O30  1  0.37284700  0.59203400  0.89502500  1
  O  O31  1  0.28081200  0.47782200  0.37284700  1
  O  O32  1  0.12715300  0.02217800  0.21918800  1
  O  O33  1  0.60497500  0.90796600  0.12715300  1
  O  O34  1  0.21918800  0.59203400  0.19701000  1
  O  O35  1  0.19701000  0.21918800  0.59203400  1
  O  O36  1  0.30299000  0.89502500  0.02217800  1
  O  O37  1  0.02217800  0.30299000  0.89502500  1
  O  O38  1  0.90796600  0.12715300  0.60497500  1
  O  O39  1  0.47782200  0.60497500  0.19701000  1
  O  O40  1  0.89502500  0.37284700  0.59203400  1
  O  O41  1  0.90796600  0.28081200  0.30299000  1
  O  O42  1  0.60497500  0.19701000  0.47782200  1
  O  O43  1  0.59203400  0.89502500  0.37284700  1
  O  O44  1  0.28081200  0.30299000  0.90796600  1
  O  O45  1  0.21918800  0.12715300  0.02217800  1
  O  O46  1  0.02217800  0.21918800  0.12715300  1
  O  O47  1  0.80299000  0.78081200  0.40796600  1
loop_
_geom_bond_atom_site_label_1
_geom_bond_atom_site_label_2
_geom_bond_distance
_geom_bond_site_symmetry_2
Ca0 O22 2.489606 1_565
Ca0 O15 2.489606 1_555
Ca0 O2 2.489611 1_555
Ca0 O13 2.489611 1_555
Ca0 O17 2.597403 1_555
Ca0 O12 2.597403 1_565
Ca0 O0 2.597406 1_555
Ca0 O14 2.597406 1_555
Ca1 O11 2.489600 1_556
Ca1 O21 2.489600 1_555
Ca1 O10 2.489611 1_555
Ca1 O7 2.489611 1_555
Ca1 O3 2.597399 1_555
Ca1 O9 2.597399 1_555
Ca1 O16 2.597399 1_555
Ca1 O18 2.597399 1_556
Ca2 O4 2.489600 1_565
Ca2 O0 2.489600 1_555
Ca2 O3 2.489611 1_555
Ca2 O23 2.489611 1_555
Ca2 O13 2.597399 1_555
Ca2 O10 2.597399 1_555
Ca2 O5 2.597399 1_555
Ca2 O20 2.597399 1_565
Ca3 O17 2.489606 1_655
Ca3 O6 2.489606 1_555
Ca3 O8 2.489611 1_555
Ca3 O18 2.489611 1_555
Ca3 O1 2.597403 1_555
Ca3 O15 2.597403 1_655
Ca3 O11 2.597406 1_555
Ca3 O47 2.597406 1_555
Ca4 O12 2.489606 1_555
Ca4 O1 2.489606 1_556
Ca4 O16 2.489611 1_555
Ca4 O20 2.489611 1_555
Ca4 O22 2.597403 1_555
Ca4 O6 2.597403 1_556
Ca4 O4 2.597406 1_555
Ca4 O21 2.597406 1_555
Ca5 O14 2.489600 1_655
Ca5 O47 2.489600 1_555
Ca5 O9 2.489611 1_555
Ca5 O5 2.489611 1_555
Ca5 O23 2.597399 1_555
Ca5 O7 2.597399 1_555
Ca5 O8 2.597399 1_555
Ca5 O2 2.597399 1_655
Ca6 O40 2.489606 1_555
Ca6 O33 2.489606 1_545
Ca6 O26 2.489611 1_555
Ca6 O42 2.489611 1_555
Ca6 O43 2.597403 1_545
Ca6 O38 2.597403 1_555
Ca6 O24 2.597406 1_555
Ca6 O41 2.597406 1_555
Ca7 O44 2.489600 1_554
Ca7 O34 2.489600 1_555
Ca7 O31 2.489611 1_555
Ca7 O45 2.489611 1_555
Ca7 O46 2.597399 1_555
Ca7 O27 2.597399 1_555
Ca7 O37 2.597399 1_554
Ca7 O39 2.597399 1_555
Ca8 O28 2.489600 1_545
Ca8 O24 2.489600 1_555
Ca8 O27 2.489611 1_555
Ca8 O32 2.489611 1_555
Ca8 O45 2.597399 1_555
Ca8 O36 2.597399 1_545
Ca8 O29 2.597399 1_555
Ca8 O42 2.597399 1_555
Ca9 O38 2.489606 1_455
Ca9 O30 2.489606 1_555
Ca9 O37 2.489611 1_555
Ca9 O19 2.489611 1_555
Ca9 O40 2.597403 1_455
Ca9 O25 2.597403 1_555
Ca9 O35 2.597406 1_555
Ca9 O44 2.597406 1_555
Ca10 O43 2.489606 1_555
Ca10 O25 2.489606 1_554
Ca10 O36 2.489611 1_555
Ca10 O39 2.489611 1_555
Ca10 O30 2.597403 1_554
Ca10 O33 2.597403 1_555
Ca10 O34 2.597406 1_555
Ca10 O28 2.597406 1_555
Ca11 O41 2.489600 1_455
Ca11 O35 2.489600 1_555
Ca11 O29 2.489611 1_555
Ca11 O46 2.489611 1_555
Ca11 O32 2.597399 1_555
Ca11 O26 2.597399 1_455
Ca11 O19 2.597399 1_555
Ca11 O31 2.597399 1_555
Ge0 O14 1.799447 1_555
Ge0 O36 1.799450 1_556
Ge0 O9 1.799450 1_455
Ge0 O25 1.799456 1_555
Ge1 O41 1.799447 1_555
Ge1 O20 1.799450 1_554
Ge1 O46 1.799450 1_655
Ge1 O1 1.799456 1_555
Ge2 O24 1.799447 1_555
Ge2 O27 1.799450 1_555
Ge2 O8 1.799450 1_555
Ge2 O6 1.799456 1_555
Ge3 O11 1.799447 1_555
Ge3 O26 1.799450 1_565
Ge3 O10 1.799450 1_554
Ge3 O33 1.799456 1_555
Ge4 O4 1.799447 1_555
Ge4 O37 1.799450 1_655
Ge4 O23 1.799450 1_545
Ge4 O38 1.799456 1_555
Ge5 O34 1.799447 1_555
Ge5 O31 1.799450 1_555
Ge5 O13 1.799450 1_555
Ge5 O15 1.799456 1_555
Ge6 O21 1.799447 1_555
Ge6 O42 1.799450 1_555
Ge6 O7 1.799450 1_555
Ge6 O40 1.799456 1_555
Ge7 O44 1.799447 1_555
Ge7 O2 1.799450 1_545
Ge7 O45 1.799450 1_556
Ge7 O22 1.799456 1_555
Ge8 O28 1.799447 1_555
Ge8 O18 1.799450 1_455
Ge8 O32 1.799450 1_565
Ge8 O17 1.799456 1_555
Ge9 O0 1.799447 1_555
Ge9 O19 1.799450 1_555
Ge9 O3 1.799450 1_555
Ge9 O30 1.799456 1_555
Ge10 O47 1.799447 1_555
Ge10 O39 1.799450 1_555
Ge10 O5 1.799450 1_555
Ge10 O43 1.799456 1_555
Ge11 O35 1.799447 1_555
Ge11 O29 1.799450 1_555
Ge11 O16 1.799450 1_555
Ge11 O12 1.799456 1_555
O0 Sb6 2.283049 1_566
O1 Sb5 2.283037 1_655
O2 Sb4 2.283047 1_565
O3 Sb0 2.283047 1_555
O4 Sb1 2.283049 1_555
O5 Sb0 2.283047 1_555
O6 Sb3 2.283037 1_555
O7 Sb0 2.283047 1_555
O8 Sb2 2.283047 1_655
O9 Sb7 2.283047 1_666
O10 Sb7 2.283047 1_666
O11 Sb3 2.283049 1_555
O12 Sb1 2.283037 1_555
O13 Sb1 2.283047 1_565
O14 Sb2 2.283049 1_555
O15 Sb2 2.283037 1_555
O16 Sb3 2.283047 1_556
O17 Sb4 2.283037 1_565
O18 Sb5 2.283047 1_655
O19 Sb2 2.283047 1_555
O20 Sb6 2.283047 1_556
O21 Sb5 2.283049 1_656
O22 Sb6 2.283037 1_556
O23 Sb7 2.283047 1_666
O24 Sb6 2.283049 1_555
O25 Sb5 2.283037 1_556
O26 Sb4 2.283047 1_655
O27 Sb0 2.283047 1_555
O28 Sb1 2.283049 1_565
O29 Sb0 2.283047 1_555
O30 Sb3 2.283037 1_556
O31 Sb0 2.283047 1_555
O32 Sb7 2.283047 1_555
O33 Sb6 2.283037 1_565
O34 Sb5 2.283049 1_555
O35 Sb4 2.283049 1_555
O36 Sb6 2.283047 1_565
O37 Sb5 2.283047 1_556
O38 Sb4 2.283037 1_655
O39 Sb3 2.283047 1_555
O40 Sb2 2.283037 1_655
O41 Sb2 2.283049 1_655
O42 Sb1 2.283047 1_555
O43 Sb1 2.283037 1_565
O44 Sb3 2.283049 1_556
O45 Sb7 2.283047 1_555
O46 Sb7 2.283047 1_555
O47 Sb4 2.283049 1_665
