# generated using pymatgen
data_CsMn(PO3)6
_symmetry_space_group_name_H-M   'P 1'
_cell_length_a   5.33204000
_cell_length_b   9.08977249
_cell_length_c   9.39813028
_cell_angle_alpha   82.66425246
_cell_angle_beta   75.29598017
_cell_angle_gamma   74.44314918
_symmetry_Int_Tables_number   1
_chemical_formula_structural   CsMn(PO3)6
_chemical_formula_sum   'Cs1 Mn1 P6 O18'
_cell_volume   423.57169011
_cell_formula_units_Z   1
loop_
 _symmetry_equiv_pos_site_id
 _symmetry_equiv_pos_as_xyz
  1  'x, y, z'
loop_
 _atom_site_type_symbol
 _atom_site_label
 _atom_site_symmetry_multiplicity
 _atom_site_fract_x
 _atom_site_fract_y
 _atom_site_fract_z
 _atom_site_occupancy
  Cs  Cs0  1  0.00000000  0.00000000  0.00000000  1
  Mn  Mn0  1  0.50000000  0.00000000  0.50000000  1
  P  P0  1  0.86048000  0.21566300  0.54257100  1
  P  P1  1  0.62483900  0.44599400  0.77063500  1
  P  P2  1  0.13952000  0.78433700  0.45742900  1
  P  P3  1  0.37516100  0.55400600  0.22936500  1
  P  P4  1  0.25033400  0.23903100  0.25558600  1
  P  P5  1  0.74966600  0.76096900  0.74441400  1
  O  O0  1  0.21340400  0.23341200  0.10640300  1
  O  O1  1  0.55762300  0.89948900  0.68777900  1
  O  O2  1  0.78659600  0.76658800  0.89359700  1
  O  O3  1  0.44237700  0.10051100  0.31222100  1
  O  O4  1  0.79664300  0.37643200  0.61669200  1
  O  O5  1  0.20335700  0.62356800  0.38330800  1
  O  O6  1  0.07269600  0.09941100  0.60261500  1
  O  O7  1  0.74057800  0.37001400  0.90036700  1
  O  O8  1  0.92730400  0.90058900  0.39738500  1
  O  O9  1  0.25942200  0.62998600  0.09963300  1
  O  O10  1  0.96668000  0.27268700  0.37454300  1
  O  O11  1  0.63729700  0.61755200  0.72669500  1
  O  O12  1  0.03332000  0.72731300  0.62545700  1
  O  O13  1  0.36270300  0.38244800  0.27330500  1
  O  O14  1  0.59452500  0.18038500  0.55246100  1
  O  O15  1  0.33953500  0.43132300  0.80341300  1
  O  O16  1  0.40547500  0.81961500  0.44753900  1
  O  O17  1  0.66046500  0.56867700  0.19658700  1
loop_
_geom_bond_atom_site_label_1
_geom_bond_atom_site_label_2
_geom_bond_distance
_geom_bond_site_symmetry_2
Cs0 O0 3.034893 1_555
Cs0 O2 3.034893 1_444
Cs0 O7 3.385271 1_454
Cs0 O9 3.385271 1_545
Cs0 O3 3.617134 1_455
Cs0 O1 3.617134 1_544
Cs0 O8 3.675021 1_445
Cs0 O6 3.675021 1_554
Mn0 O1 1.938164 1_545
Mn0 O3 1.938164 1_555
Mn0 O14 1.990341 1_555
Mn0 O16 1.990341 1_545
Mn0 O8 2.222715 1_545
Mn0 O6 2.222715 1_555
O0 P4 1.473410 1_555
O1 P5 1.526821 1_555
O2 P5 1.473410 1_555
O3 P4 1.526821 1_555
O4 P1 1.606938 1_555
O4 P0 1.615377 1_555
O5 P3 1.606938 1_555
O5 P2 1.615377 1_555
O6 P0 1.498654 1_455
O7 P1 1.510857 1_555
O8 P2 1.498654 1_655
O9 P3 1.510857 1_555
O10 P0 1.605459 1_555
O10 P4 1.616090 1_655
O11 P1 1.576050 1_555
O11 P5 1.615925 1_555
O12 P2 1.605459 1_555
O12 P5 1.616090 1_455
O13 P3 1.576050 1_555
O13 P4 1.615925 1_555
O14 P0 1.513875 1_555
O15 P1 1.512388 1_555
O16 P2 1.513875 1_555
O17 P3 1.512388 1_555
