# generated using pymatgen
data_Li7CuSi2
_symmetry_space_group_name_H-M   'P 1'
_cell_length_a   7.90307900
_cell_length_b   4.39138700
_cell_length_c   17.15721900
_cell_angle_alpha   90.00000000
_cell_angle_beta   90.00000000
_cell_angle_gamma   90.00000000
_symmetry_Int_Tables_number   1
_chemical_formula_structural   Li7CuSi2
_chemical_formula_sum   'Li28 Cu4 Si8'
_cell_volume   595.44949308
_cell_formula_units_Z   4
loop_
 _symmetry_equiv_pos_site_id
 _symmetry_equiv_pos_as_xyz
  1  'x, y, z'
loop_
 _atom_site_type_symbol
 _atom_site_label
 _atom_site_symmetry_multiplicity
 _atom_site_fract_x
 _atom_site_fract_y
 _atom_site_fract_z
 _atom_site_occupancy
  Li  Li0  1  0.03034600  0.25000000  0.81797700  1
  Li  Li1  1  0.53034600  0.25000000  0.68202300  1
  Li  Li2  1  0.96965400  0.75000000  0.18202300  1
  Li  Li3  1  0.46965400  0.75000000  0.31797700  1
  Li  Li4  1  0.05349300  0.25000000  0.96686500  1
  Li  Li5  1  0.55349300  0.25000000  0.53313500  1
  Li  Li6  1  0.94650700  0.75000000  0.03313500  1
  Li  Li7  1  0.44650700  0.75000000  0.46686500  1
  Li  Li8  1  0.30920300  0.25000000  0.25684100  1
  Li  Li9  1  0.80920300  0.25000000  0.24315900  1
  Li  Li10  1  0.69079700  0.75000000  0.74315900  1
  Li  Li11  1  0.19079700  0.75000000  0.75684100  1
  Li  Li12  1  0.35517300  0.25000000  0.81064200  1
  Li  Li13  1  0.85517300  0.25000000  0.68935800  1
  Li  Li14  1  0.64482700  0.75000000  0.18935800  1
  Li  Li15  1  0.14482700  0.75000000  0.31064200  1
  Li  Li16  1  0.38939900  0.25000000  0.95680200  1
  Li  Li17  1  0.88939900  0.25000000  0.54319800  1
  Li  Li18  1  0.61060100  0.75000000  0.04319800  1
  Li  Li19  1  0.11060100  0.75000000  0.45680200  1
  Li  Li20  1  0.47621900  0.25000000  0.12131800  1
  Li  Li21  1  0.97621900  0.25000000  0.37868200  1
  Li  Li22  1  0.52378100  0.75000000  0.87868200  1
  Li  Li23  1  0.02378100  0.75000000  0.62131800  1
  Li  Li24  1  0.63797700  0.25000000  0.37959500  1
  Li  Li25  1  0.13797700  0.25000000  0.12040500  1
  Li  Li26  1  0.36202300  0.75000000  0.62040500  1
  Li  Li27  1  0.86202300  0.75000000  0.87959500  1
  Cu  Cu0  1  0.22510100  0.25000000  0.53772300  1
  Cu  Cu1  1  0.72510100  0.25000000  0.96227700  1
  Cu  Cu2  1  0.77489900  0.75000000  0.46227700  1
  Cu  Cu3  1  0.27489900  0.75000000  0.03772300  1
  Si  Si0  1  0.18787400  0.25000000  0.67118200  1
  Si  Si1  1  0.68787400  0.25000000  0.82881800  1
  Si  Si2  1  0.81212600  0.75000000  0.32881800  1
  Si  Si3  1  0.31212600  0.75000000  0.17118200  1
  Si  Si4  1  0.30294500  0.25000000  0.40687900  1
  Si  Si5  1  0.80294500  0.25000000  0.09312100  1
  Si  Si6  1  0.69705500  0.75000000  0.59312100  1
  Si  Si7  1  0.19705500  0.75000000  0.90687900  1
loop_
_geom_bond_atom_site_label_1
_geom_bond_atom_site_label_2
_geom_bond_distance
_geom_bond_site_symmetry_2
Li0 Li4 2.561046 1_555
Li0 Li12 2.570216 1_555
Li0 Li13 2.605053 1_455
Li0 Si1 2.712967 1_455
Li0 Li11 2.743953 1_545
Li0 Li11 2.743953 1_555
Li0 Li27 2.776391 1_445
Li0 Li27 2.776391 1_455
Li0 Si0 2.809490 1_555
Li0 Si7 2.980518 1_555
Li0 Si7 2.980518 1_545
Li1 Li5 2.561046 1_555
Li1 Li13 2.570216 1_555
Li1 Li12 2.605053 1_555
Li1 Si0 2.712967 1_555
Li1 Li10 2.743953 1_555
Li1 Li10 2.743953 1_545
Li1 Li26 2.776391 1_545
Li1 Li26 2.776391 1_555
Li1 Si1 2.809490 1_555
Li1 Si6 2.980518 1_545
Li1 Si6 2.980518 1_555
Li2 Li6 2.561046 1_555
Li2 Si3 2.712967 1_655
Li2 Li9 2.743953 1_555
Li2 Li9 2.743953 1_565
Li2 Li25 2.776391 1_655
Li2 Li25 2.776391 1_665
Li2 Si2 2.809490 1_555
Li2 Si5 2.980518 1_555
Li2 Si5 2.980518 1_565
Li3 Li7 2.561046 1_555
Li3 Si2 2.712967 1_555
Li3 Li8 2.743953 1_565
Li3 Li8 2.743953 1_555
Li3 Si3 2.809490 1_555
Li3 Si4 2.980518 1_555
Li3 Si4 2.980518 1_565
Li4 Si7 2.677234 1_555
Li4 Si7 2.677234 1_545
Li4 Si5 2.934830 1_456
Li5 Si6 2.677234 1_545
Li5 Si6 2.677234 1_555
Li5 Si4 2.934830 1_555
Li6 Si5 2.677234 1_555
Li6 Si5 2.677234 1_565
Li6 Si7 2.934830 1_654
Li7 Si4 2.677234 1_565
Li7 Si4 2.677234 1_555
Li7 Si6 2.934830 1_555
Li8 Si4 2.574710 1_555
Li8 Si3 2.642259 1_555
Li8 Si3 2.642259 1_545
Li9 Si5 2.574710 1_555
Li9 Si2 2.642259 1_545
Li9 Si2 2.642259 1_555
Li10 Si6 2.574710 1_555
Li10 Si1 2.642259 1_565
Li10 Si1 2.642259 1_555
Li10 Li13 2.713068 1_555
Li10 Li13 2.713068 1_565
Li11 Si7 2.574710 1_555
Li11 Si0 2.642259 1_565
Li11 Si0 2.642259 1_555
Li11 Li12 2.713068 1_565
Li11 Li12 2.713068 1_555
Li12 Li16 2.522245 1_555
Li12 Si1 2.647791 1_555
Li12 Si0 2.733749 1_555
Li12 Li22 2.821251 1_545
Li12 Li22 2.821251 1_555
Li12 Si7 3.018103 1_555
Li12 Si7 3.018103 1_545
Li13 Li17 2.522245 1_555
Li13 Si0 2.647791 1_655
Li13 Si1 2.733749 1_555
Li13 Li23 2.821251 1_645
Li13 Li23 2.821251 1_655
Li13 Si6 3.018103 1_545
Li13 Si6 3.018103 1_555
Li14 Li18 2.522245 1_555
Li14 Li2 2.570216 1_555
Li14 Li3 2.605053 1_555
Li14 Si3 2.647791 1_555
Li14 Li9 2.713068 1_555
Li14 Li9 2.713068 1_565
Li14 Si2 2.733749 1_555
Li14 Li20 2.821251 1_555
Li14 Li20 2.821251 1_565
Li14 Si5 3.018103 1_555
Li14 Si5 3.018103 1_565
Li15 Li19 2.522245 1_555
Li15 Li3 2.570216 1_555
Li15 Li2 2.605053 1_455
Li15 Si2 2.647791 1_455
Li15 Li8 2.713068 1_555
Li15 Li8 2.713068 1_565
Li15 Si3 2.733749 1_555
Li15 Li21 2.821251 1_465
Li15 Li21 2.821251 1_455
Li15 Si4 3.018103 1_565
Li15 Si4 3.018103 1_555
Li16 Li4 2.660300 1_555
Li16 Li22 2.783064 1_545
Li16 Li22 2.783064 1_555
Li16 Si7 2.804544 1_545
Li16 Si7 2.804544 1_555
Li16 Li20 2.904837 1_556
Li17 Li5 2.660300 1_555
Li17 Li23 2.783064 1_655
Li17 Li23 2.783064 1_645
Li17 Si6 2.804544 1_545
Li17 Si6 2.804544 1_555
Li17 Li21 2.904837 1_555
Li18 Li6 2.660300 1_555
Li18 Li20 2.783064 1_565
Li18 Li20 2.783064 1_555
Li18 Si5 2.804544 1_555
Li18 Si5 2.804544 1_565
Li18 Li22 2.904837 1_554
Li19 Li7 2.660300 1_555
Li19 Li21 2.783064 1_465
Li19 Li21 2.783064 1_455
Li19 Si4 2.804544 1_565
Li19 Si4 2.804544 1_555
Li19 Li23 2.904837 1_555
Li20 Si5 2.627070 1_555
Li20 Si3 2.689757 1_555
Li20 Si3 2.689757 1_545
Li21 Si4 2.627070 1_655
Li21 Si2 2.689757 1_545
Li21 Si2 2.689757 1_555
Li22 Si7 2.627070 1_555
Li22 Si1 2.689757 1_555
Li22 Si1 2.689757 1_565
Li23 Si6 2.627070 1_455
Li23 Si0 2.689757 1_555
Li23 Si0 2.689757 1_565
Li24 Si4 2.688847 1_555
Li24 Si2 2.733914 1_545
Li24 Si2 2.733914 1_555
Li24 Li3 2.776391 1_555
Li24 Li3 2.776391 1_545
Li25 Si5 2.688847 1_455
Li25 Si3 2.733914 1_545
Li25 Si3 2.733914 1_555
Li26 Si6 2.688847 1_555
Li26 Si0 2.733914 1_565
Li26 Si0 2.733914 1_555
Li27 Si7 2.688847 1_655
Li27 Si1 2.733914 1_565
Li27 Si1 2.733914 1_555
Cu0 Si0 2.308609 1_555
Cu0 Si4 2.327690 1_555
Cu0 Li5 2.596501 1_555
Cu0 Li17 2.654742 1_455
Cu0 Li19 2.750912 1_545
Cu0 Li19 2.750912 1_555
Cu0 Li26 2.829210 1_555
Cu0 Li26 2.829210 1_545
Cu0 Li7 3.059546 1_555
Cu0 Li7 3.059546 1_545
Cu0 Li23 3.067507 1_545
Cu0 Li23 3.067507 1_555
Cu1 Si1 2.308609 1_555
Cu1 Si5 2.327690 1_556
Cu1 Li4 2.596501 1_655
Cu1 Li16 2.654742 1_555
Cu1 Li18 2.750912 1_556
Cu1 Li18 2.750912 1_546
Cu1 Li27 2.829210 1_555
Cu1 Li27 2.829210 1_545
Cu1 Li6 3.059546 1_556
Cu1 Li6 3.059546 1_546
Cu1 Li22 3.067507 1_545
Cu1 Li22 3.067507 1_555
Cu2 Si2 2.308609 1_555
Cu2 Si6 2.327690 1_555
Cu2 Li7 2.596501 1_555
Cu2 Li19 2.654742 1_655
Cu2 Li17 2.750912 1_555
Cu2 Li17 2.750912 1_565
Cu2 Li24 2.829210 1_555
Cu2 Li24 2.829210 1_565
Cu2 Li5 3.059546 1_565
Cu2 Li5 3.059546 1_555
Cu2 Li21 3.067507 1_555
Cu2 Li21 3.067507 1_565
Cu3 Si3 2.308609 1_555
Cu3 Si7 2.327690 1_554
Cu3 Li6 2.596501 1_455
Cu3 Li18 2.654742 1_555
Cu3 Li16 2.750912 1_564
Cu3 Li16 2.750912 1_554
Cu3 Li25 2.829210 1_565
Cu3 Li25 2.829210 1_555
Cu3 Li4 3.059546 1_554
Cu3 Li4 3.059546 1_564
Cu3 Li20 3.067507 1_555
Cu3 Li20 3.067507 1_565
