# generated using pymatgen
data_CeSiPd2
_symmetry_space_group_name_H-M   'P 1'
_cell_length_a   5.62162100
_cell_length_b   6.87625300
_cell_length_c   7.69892400
_cell_angle_alpha   90.00000000
_cell_angle_beta   90.00000000
_cell_angle_gamma   90.00000000
_symmetry_Int_Tables_number   1
_chemical_formula_structural   CeSiPd2
_chemical_formula_sum   'Ce4 Si4 Pd8'
_cell_volume   297.60720613
_cell_formula_units_Z   4
loop_
 _symmetry_equiv_pos_site_id
 _symmetry_equiv_pos_as_xyz
  1  'x, y, z'
loop_
 _atom_site_type_symbol
 _atom_site_label
 _atom_site_symmetry_multiplicity
 _atom_site_fract_x
 _atom_site_fract_y
 _atom_site_fract_z
 _atom_site_occupancy
  Ce  Ce0  1  0.85347100  0.25000000  0.53336400  1
  Ce  Ce1  1  0.64652900  0.25000000  0.03336400  1
  Ce  Ce2  1  0.14652900  0.75000000  0.46663600  1
  Ce  Ce3  1  0.35347100  0.75000000  0.96663600  1
  Si  Si0  1  0.15384500  0.25000000  0.87793400  1
  Si  Si1  1  0.34615500  0.25000000  0.37793400  1
  Si  Si2  1  0.84615500  0.75000000  0.12206600  1
  Si  Si3  1  0.65384500  0.75000000  0.62206600  1
  Pd  Pd0  1  0.40625400  0.05000700  0.67549100  1
  Pd  Pd1  1  0.09374600  0.44999300  0.17549100  1
  Pd  Pd2  1  0.59374600  0.55000700  0.32450900  1
  Pd  Pd3  1  0.90625400  0.94999300  0.82450900  1
  Pd  Pd4  1  0.59374600  0.94999300  0.32450900  1
  Pd  Pd5  1  0.90625400  0.55000700  0.82450900  1
  Pd  Pd6  1  0.40625400  0.44999300  0.67549100  1
  Pd  Pd7  1  0.09374600  0.05000700  0.17549100  1
loop_
_geom_bond_atom_site_label_1
_geom_bond_atom_site_label_2
_geom_bond_distance
_geom_bond_site_symmetry_2
Ce0 Pd4 2.995498 1_545
Ce0 Pd2 2.995498 1_555
Ce0 Si1 3.017134 1_655
Ce0 Pd3 3.060725 1_545
Ce0 Pd5 3.060725 1_555
Ce0 Pd6 3.067431 1_555
Ce0 Pd0 3.067431 1_555
Ce0 Si1 3.092816 1_555
Ce0 Si0 3.144643 1_655
Ce0 Pd1 3.362588 1_655
Ce0 Pd7 3.362588 1_655
Ce1 Pd5 2.995498 1_554
Ce1 Pd3 2.995498 1_544
Ce1 Si0 3.017134 1_554
Ce1 Pd4 3.060725 1_545
Ce1 Pd2 3.060725 1_555
Ce1 Pd1 3.067431 1_655
Ce1 Pd7 3.067431 1_655
Ce1 Si0 3.092816 1_654
Ce1 Si1 3.144643 1_555
Ce1 Pd6 3.362588 1_554
Ce1 Pd0 3.362588 1_554
Ce2 Pd0 2.995498 1_565
Ce2 Pd6 2.995498 1_555
Ce2 Si3 3.017134 1_455
Ce2 Pd7 3.060725 1_565
Ce2 Pd1 3.060725 1_555
Ce2 Pd4 3.067431 1_555
Ce2 Pd2 3.067431 1_555
Ce2 Si3 3.092816 1_555
Ce2 Si2 3.144643 1_455
Ce2 Pd5 3.362588 1_455
Ce2 Pd3 3.362588 1_455
Ce3 Pd7 2.995498 1_566
Ce3 Pd1 2.995498 1_556
Ce3 Si2 3.017134 1_556
Ce3 Pd0 3.060725 1_565
Ce3 Pd6 3.060725 1_555
Ce3 Pd5 3.067431 1_455
Ce3 Pd3 3.067431 1_455
Ce3 Si2 3.092816 1_456
Ce3 Si3 3.144643 1_555
Ce3 Pd2 3.362588 1_556
Ce3 Pd4 3.362588 1_556
Pd0 Si0 2.516706 1_555
Pd0 Si3 2.522324 1_545
Pd0 Si1 2.693215 1_555
Pd1 Si1 2.516706 1_555
Pd1 Si2 2.522324 1_455
Pd1 Si0 2.693215 1_554
Pd2 Si2 2.516706 1_555
Pd2 Si1 2.522324 1_555
Pd2 Si3 2.693215 1_555
Pd3 Si3 2.516706 1_555
Pd3 Si0 2.522324 1_665
Pd3 Si2 2.693215 1_556
Pd4 Si2 2.516706 1_555
Pd4 Si1 2.522324 1_565
Pd4 Si3 2.693215 1_555
Pd5 Si3 2.516706 1_555
Pd5 Si0 2.522324 1_655
Pd5 Si2 2.693215 1_556
Pd6 Si0 2.516706 1_555
Pd6 Si3 2.522324 1_555
Pd6 Si1 2.693215 1_555
Pd7 Si1 2.516706 1_555
Pd7 Si2 2.522324 1_445
Pd7 Si0 2.693215 1_554
