# generated using pymatgen
data_Y(Ni2As)2
_symmetry_space_group_name_H-M   'P 1'
_cell_length_a   7.20676801
_cell_length_b   7.20676801
_cell_length_c   3.73949047
_cell_angle_alpha   90.00000000
_cell_angle_beta   90.00000000
_cell_angle_gamma   90.00000000
_symmetry_Int_Tables_number   1
_chemical_formula_structural   Y(Ni2As)2
_chemical_formula_sum   'Y2 Ni8 As4'
_cell_volume   194.21980554
_cell_formula_units_Z   2
loop_
 _symmetry_equiv_pos_site_id
 _symmetry_equiv_pos_as_xyz
  1  'x, y, z'
loop_
 _atom_site_type_symbol
 _atom_site_label
 _atom_site_symmetry_multiplicity
 _atom_site_fract_x
 _atom_site_fract_y
 _atom_site_fract_z
 _atom_site_occupancy
  Y  Y0  1  0.50000000  0.50000000  -0.00000000  1
  Y  Y1  1  0.00000000  0.00000000  0.50000000  1
  Ni  Ni0  1  0.58833967  0.15307394  0.50000000  1
  Ni  Ni1  1  0.41166033  0.84692606  0.50000000  1
  Ni  Ni2  1  0.08833967  0.34692606  0.00000000  1
  Ni  Ni3  1  0.91166033  0.65307394  0.00000000  1
  Ni  Ni4  1  0.15307394  0.58833967  0.50000000  1
  Ni  Ni5  1  0.84692606  0.41166033  0.50000000  1
  Ni  Ni6  1  0.34692606  0.08833967  0.00000000  1
  Ni  Ni7  1  0.65307394  0.91166033  -0.00000000  1
  As  As0  1  0.71826564  0.71826564  0.50000000  1
  As  As1  1  0.28173436  0.28173436  0.50000000  1
  As  As2  1  0.21826564  0.78173436  -0.00000000  1
  As  As3  1  0.78173436  0.21826564  -0.00000000  1
loop_
_geom_bond_atom_site_label_1
_geom_bond_atom_site_label_2
_geom_bond_distance
_geom_bond_site_symmetry_2
As0 Ni7 2.378912 1_555
As0 Ni3 2.378912 1_555
As0 Ni3 2.378912 1_556
As0 Ni7 2.378912 1_556
As0 Ni1 2.396294 1_555
As0 Ni5 2.396294 1_555
As0 Y1 2.871411 1_665
As0 Y0 2.905949 1_556
As0 Y0 2.905949 1_555
As1 Ni6 2.378912 1_555
As1 Ni2 2.378912 1_555
As1 Ni2 2.378912 1_556
As1 Ni6 2.378912 1_556
As1 Ni0 2.396294 1_555
As1 Ni4 2.396294 1_555
As1 Y1 2.871411 1_555
As1 Y0 2.905949 1_556
As1 Y0 2.905949 1_555
As2 Ni4 2.378912 1_555
As2 Ni4 2.378912 1_554
As2 Ni1 2.378912 1_554
As2 Ni1 2.378912 1_555
As2 Ni3 2.396294 1_455
As2 Ni6 2.396294 1_565
As2 Y0 2.871411 1_555
As2 Y1 2.905949 1_565
As2 Y1 2.905949 1_564
As3 Ni0 2.378912 1_554
As3 Ni0 2.378912 1_555
As3 Ni5 2.378912 1_554
As3 Ni5 2.378912 1_555
As3 Ni7 2.396294 1_545
As3 Ni2 2.396294 1_655
As3 Y0 2.871411 1_555
As3 Y1 2.905949 1_655
As3 Y1 2.905949 1_654
