# generated using pymatgen
data_Ca2GaSi2O7
_symmetry_space_group_name_H-M   'P 1'
_cell_length_a   8.02919800
_cell_length_b   8.02919800
_cell_length_c   5.05445700
_cell_angle_alpha   90.00000000
_cell_angle_beta   90.00000000
_cell_angle_gamma   90.00000000
_symmetry_Int_Tables_number   1
_chemical_formula_structural   Ca2GaSi2O7
_chemical_formula_sum   'Ca4 Ga2 Si4 O14'
_cell_volume   325.85083761
_cell_formula_units_Z   2
loop_
 _symmetry_equiv_pos_site_id
 _symmetry_equiv_pos_as_xyz
  1  'x, y, z'
loop_
 _atom_site_type_symbol
 _atom_site_label
 _atom_site_symmetry_multiplicity
 _atom_site_fract_x
 _atom_site_fract_y
 _atom_site_fract_z
 _atom_site_occupancy
  Ca  Ca0  1  0.16623200  0.33376800  0.50553200  1
  Ca  Ca1  1  0.83376800  0.66623200  0.50553200  1
  Ca  Ca2  1  0.66623200  0.16623200  0.49446800  1
  Ca  Ca3  1  0.33376800  0.83376800  0.49446800  1
  Ga  Ga0  1  0.00000000  0.00000000  0.00000000  1
  Ga  Ga1  1  0.50000000  0.50000000  0.00000000  1
  Si  Si0  1  0.63895600  0.86104400  0.93877600  1
  Si  Si1  1  0.36104400  0.13895600  0.93877600  1
  Si  Si2  1  0.13895600  0.63895600  0.06122400  1
  Si  Si3  1  0.86104400  0.36104400  0.06122400  1
  O  O0  1  0.08262600  0.81141600  0.21916900  1
  O  O1  1  0.91737400  0.18858400  0.21916900  1
  O  O2  1  0.18858400  0.08262600  0.78083100  1
  O  O3  1  0.41737400  0.31141600  0.78083100  1
  O  O4  1  0.81141600  0.91737400  0.78083100  1
  O  O5  1  0.58262600  0.68858400  0.78083100  1
  O  O6  1  0.31141600  0.58262600  0.21916900  1
  O  O7  1  0.68858400  0.41737400  0.21916900  1
  O  O8  1  0.00000000  0.50000000  0.18133500  1
  O  O9  1  0.50000000  0.00000000  0.81866500  1
  O  O10  1  0.63923400  0.86076600  0.25734700  1
  O  O11  1  0.36076600  0.13923400  0.25734700  1
  O  O12  1  0.13923400  0.63923400  0.74265300  1
  O  O13  1  0.86076600  0.36076600  0.74265300  1
loop_
_geom_bond_atom_site_label_1
_geom_bond_atom_site_label_2
_geom_bond_distance
_geom_bond_site_symmetry_2
Ca0 O3 2.456541 1_555
Ca0 O2 2.456541 1_555
Ca0 O8 2.499608 1_555
Ca0 O11 2.540277 1_555
Ca0 O6 2.728809 1_555
Ca0 O1 2.728809 1_455
Ca0 O12 2.738414 1_555
Ca0 O13 2.738414 1_455
Ca1 O5 2.456541 1_555
Ca1 O4 2.456541 1_555
Ca1 O8 2.499608 1_655
Ca1 O10 2.540277 1_555
Ca1 O0 2.728809 1_655
Ca1 O7 2.728809 1_555
Ca1 O13 2.738414 1_555
Ca1 O12 2.738414 1_655
Ca2 O7 2.456541 1_555
Ca2 O1 2.456541 1_555
Ca2 O9 2.499608 1_555
Ca2 O13 2.540277 1_555
Ca2 O3 2.728809 1_555
Ca2 O4 2.728809 1_545
Ca2 O11 2.738414 1_555
Ca2 O10 2.738414 1_545
Ca3 O6 2.456541 1_555
Ca3 O0 2.456541 1_555
Ca3 O9 2.499608 1_565
Ca3 O12 2.540277 1_555
Ca3 O2 2.728809 1_565
Ca3 O5 2.728809 1_555
Ca3 O10 2.738414 1_555
Ca3 O11 2.738414 1_565
Ga0 O2 1.989985 1_554
Ga0 O1 1.989985 1_455
Ga0 O0 1.989985 1_545
Ga0 O4 1.989985 1_444
Ga1 O7 1.989985 1_555
Ga1 O5 1.989985 1_554
Ga1 O6 1.989985 1_555
Ga1 O3 1.989985 1_554
O0 Si2 1.661121 1_555
O1 Si3 1.661121 1_555
O2 Si1 1.661121 1_555
O3 Si1 1.661121 1_555
O4 Si0 1.661121 1_555
O5 Si0 1.661121 1_555
O6 Si2 1.661121 1_555
O7 Si3 1.661121 1_555
O8 Si2 1.690610 1_555
O8 Si3 1.690610 1_455
O9 Si1 1.690610 1_555
O9 Si0 1.690610 1_545
O10 Si0 1.610207 1_554
O11 Si1 1.610207 1_554
O12 Si2 1.610207 1_556
O13 Si3 1.610207 1_556
