# generated using pymatgen
data_Li9Mn2Co5O16
_symmetry_space_group_name_H-M   'P 1'
_cell_length_a   19.39067593
_cell_length_b   19.39067593
_cell_length_c   5.18844320
_cell_angle_alpha   88.47776571
_cell_angle_beta   88.47776571
_cell_angle_gamma   8.51785657
_symmetry_Int_Tables_number   1
_chemical_formula_structural   Li9Mn2Co5O16
_chemical_formula_sum   'Li9 Mn2 Co5 O16'
_cell_volume   288.85214255
_cell_formula_units_Z   1
loop_
 _symmetry_equiv_pos_site_id
 _symmetry_equiv_pos_as_xyz
  1  'x, y, z'
loop_
 _atom_site_type_symbol
 _atom_site_label
 _atom_site_symmetry_multiplicity
 _atom_site_fract_x
 _atom_site_fract_y
 _atom_site_fract_z
 _atom_site_occupancy
  Li  Li0  1  0.55843700  0.55843700  0.81983600  1
  Li  Li1  1  0.44156300  0.44156300  0.18016400  1
  Li  Li2  1  0.31086500  0.31086500  0.56552200  1
  Li  Li3  1  0.18869200  0.18869200  0.93352600  1
  Li  Li4  1  0.05927800  0.05927800  0.32073400  1
  Li  Li5  1  0.94072200  0.94072200  0.67926600  1
  Li  Li6  1  0.81130800  0.81130800  0.06647400  1
  Li  Li7  1  0.68913500  0.68913500  0.43447800  1
  Li  Li8  1  0.50000000  0.50000000  0.50000000  1
  Mn  Mn0  1  0.12400100  0.12400100  0.62586100  1
  Mn  Mn1  1  0.87599900  0.87599900  0.37413900  1
  Co  Co0  1  0.00000000  0.00000000  0.00000000  1
  Co  Co1  1  0.74997400  0.74997400  0.75021400  1
  Co  Co2  1  0.62460900  0.62460900  0.12641700  1
  Co  Co3  1  0.37539100  0.37539100  0.87358300  1
  Co  Co4  1  0.25002600  0.25002600  0.24978600  1
  O  O0  1  0.59500300  0.59500300  0.49126400  1
  O  O1  1  0.47159500  0.47159500  0.85597200  1
  O  O2  1  0.34688000  0.34688000  0.24069100  1
  O  O3  1  0.22052600  0.22052600  0.59145800  1
  O  O4  1  0.09727200  0.09727200  0.98969800  1
  O  O5  1  0.97326700  0.97326700  0.29135900  1
  O  O6  1  0.84787600  0.84787600  0.73633400  1
  O  O7  1  0.72043200  0.72043200  0.09201600  1
  O  O8  1  0.52840500  0.52840500  0.14402800  1
  O  O9  1  0.40499700  0.40499700  0.50873600  1
  O  O10  1  0.27956800  0.27956800  0.90798400  1
  O  O11  1  0.15212400  0.15212400  0.26366600  1
  O  O12  1  0.02673300  0.02673300  0.70864100  1
  O  O13  1  0.90272800  0.90272800  0.01030200  1
  O  O14  1  0.77947400  0.77947400  0.40854200  1
  O  O15  1  0.65312000  0.65312000  0.75930900  1
loop_
_geom_bond_atom_site_label_1
_geom_bond_atom_site_label_2
_geom_bond_distance
_geom_bond_site_symmetry_2
Li0 O12 1.986858 1_655
Li0 O12 1.986858 1_565
Li0 O8 2.018469 1_556
Li0 O0 2.185791 1_555
Li0 O4 2.275230 1_655
Li0 O4 2.275230 1_565
Li1 O5 1.986858 1_455
Li1 O5 1.986858 1_545
Li1 O1 2.018469 1_554
Li1 O9 2.185791 1_555
Li1 O13 2.275230 1_455
Li1 O13 2.275230 1_545
Li2 O14 2.064847 1_455
Li2 O14 2.064847 1_545
Li2 O10 2.123119 1_555
Li2 O2 2.157646 1_555
Li2 O6 2.230589 1_545
Li2 O6 2.230589 1_455
Li3 O7 2.076167 1_456
Li3 O7 2.076167 1_546
Li3 O3 2.132897 1_555
Li3 O11 2.192050 1_556
Li3 O15 2.202181 1_545
Li3 O15 2.202181 1_455
Li4 O8 2.097186 1_545
Li4 O8 2.097186 1_455
Li4 O0 2.197857 1_545
Li4 O0 2.197857 1_455
Li4 O4 2.230396 1_554
Li4 O12 2.345195 1_555
Li5 O1 2.097186 1_655
Li5 O1 2.097186 1_565
Li5 O9 2.197857 1_565
Li5 O9 2.197857 1_655
Li5 O13 2.230396 1_556
Li5 O5 2.345195 1_555
Li6 O10 2.076167 1_654
Li6 O10 2.076167 1_564
Li6 O14 2.132897 1_555
Li6 O6 2.192050 1_554
Li6 O2 2.202181 1_565
Li6 O2 2.202181 1_655
Li7 O3 2.064847 1_655
Li7 O3 2.064847 1_565
Li7 O7 2.123119 1_555
Li7 O15 2.157646 1_555
Li7 O11 2.230589 1_565
Li7 O11 2.230589 1_655
Li8 O12 2.091426 1_655
Li8 O12 2.091426 1_565
Li8 O5 2.091426 1_455
Li8 O5 2.091426 1_545
Li8 O1 2.123650 1_555
Li8 O8 2.123650 1_555
Mn0 O0 1.964893 1_455
Mn0 O0 1.964893 1_545
Mn0 O15 1.965413 1_545
Mn0 O15 1.965413 1_455
Mn0 O4 2.127960 1_555
Mn0 O11 2.146056 1_555
Mn1 O9 1.964893 1_565
Mn1 O9 1.964893 1_655
Mn1 O2 1.965413 1_655
Mn1 O2 1.965413 1_565
Mn1 O13 2.127960 1_555
Mn1 O6 2.146056 1_555
Co0 O12 1.808556 1_554
Co0 O5 1.808556 1_445
Co0 O8 1.970441 1_545
Co0 O8 1.970441 1_455
Co0 O1 1.970441 1_454
Co0 O1 1.970441 1_544
Co1 O3 2.024643 1_565
Co1 O3 2.024643 1_655
Co1 O10 2.025736 1_655
Co1 O10 2.025736 1_565
Co1 O14 2.082428 1_555
Co1 O7 2.083846 1_556
Co2 O4 1.932505 1_564
Co2 O4 1.932505 1_654
Co2 O11 1.937396 1_565
Co2 O11 1.937396 1_655
Co2 O15 2.175289 1_554
Co2 O0 2.186077 1_555
Co3 O13 1.932505 1_456
Co3 O13 1.932505 1_546
Co3 O6 1.937396 1_545
Co3 O6 1.937396 1_455
Co3 O2 2.175289 1_556
Co3 O9 2.186077 1_555
Co4 O14 2.024643 1_545
Co4 O14 2.024643 1_455
Co4 O7 2.025736 1_455
Co4 O7 2.025736 1_545
Co4 O3 2.082428 1_555
Co4 O10 2.083846 1_554
