# generated using pymatgen
data_Ba6MgCo2(Sb2O9)2
_symmetry_space_group_name_H-M   'P 1'
_cell_length_a   5.95292107
_cell_length_b   5.92666814
_cell_length_c   16.03836145
_cell_angle_alpha   95.32492874
_cell_angle_beta   85.11474641
_cell_angle_gamma   119.49231576
_symmetry_Int_Tables_number   1
_chemical_formula_structural   Ba6MgCo2(Sb2O9)2
_chemical_formula_sum   'Ba6 Mg1 Co2 Sb4 O18'
_cell_volume   489.89302031
_cell_formula_units_Z   1
loop_
 _symmetry_equiv_pos_site_id
 _symmetry_equiv_pos_as_xyz
  1  'x, y, z'
loop_
 _atom_site_type_symbol
 _atom_site_label
 _atom_site_symmetry_multiplicity
 _atom_site_fract_x
 _atom_site_fract_y
 _atom_site_fract_z
 _atom_site_occupancy
  Ba  Ba0  1  0.35747200  0.62484600  0.59044400  1
  Ba  Ba1  1  0.64530100  0.37446600  0.06912800  1
  Ba  Ba2  1  0.73996100  0.25963400  0.45953800  1
  Ba  Ba3  1  0.33576300  0.66419300  0.90539100  1
  Ba  Ba4  1  0.02025400  0.97476500  0.75492400  1
  Ba  Ba5  1  0.98005500  0.09224100  0.21170300  1
  Mg  Mg0  1  0.56046400  0.56044400  0.33350900  1
  Co  Co0  1  0.98671400  0.00810300  0.98843600  1
  Co  Co1  1  0.95877500  0.88514600  0.52318400  1
  Sb  Sb0  1  0.32664100  0.73312400  0.13187600  1
  Sb  Sb1  1  0.69008500  0.29671600  0.67105000  1
  Sb  Sb2  1  0.68090800  0.32009200  0.85082100  1
  Sb  Sb3  1  0.25949200  0.86122800  0.34240900  1
  O  O0  1  0.10444000  0.84290700  0.07909200  1
  O  O1  1  0.11849000  0.38096300  0.07832000  1
  O  O2  1  0.62442500  0.85671500  0.05334500  1
  O  O3  1  0.38885500  0.13131800  0.60208600  1
  O  O4  1  0.84777700  0.66197800  0.91101900  1
  O  O5  1  0.88297000  0.14659700  0.59861300  1
  O  O6  1  0.85466100  0.62447500  0.61542900  1
  O  O7  1  0.14803600  0.73321800  0.46008300  1
  O  O8  1  0.67064800  0.74781500  0.44868700  1
  O  O9  1  0.36016500  0.16948100  0.92270000  1
  O  O10  1  0.85845800  0.17217600  0.90550000  1
  O  O11  1  0.26742400  0.20412600  0.36672000  1
  O  O12  1  0.44352000  0.05058400  0.20519600  1
  O  O13  1  0.52538000  0.44500900  0.76673100  1
  O  O14  1  0.97647100  0.45199900  0.75695400  1
  O  O15  1  0.53961400  0.00783500  0.75813300  1
  O  O16  1  0.44200000  0.57713900  0.21312500  1
  O  O17  1  0.92562000  0.64067500  0.28746300  1
loop_
_geom_bond_atom_site_label_1
_geom_bond_atom_site_label_2
_geom_bond_distance
_geom_bond_site_symmetry_2
Ba0 O8 2.724638 1_555
Ba0 O7 2.796418 1_555
Ba0 O5 2.855287 1_455
Ba0 O3 2.903391 1_565
Ba0 O6 2.984826 1_455
Ba0 O6 3.021446 1_555
Ba0 O3 3.044766 1_555
Ba0 O5 3.136115 1_565
Ba0 O15 3.240583 1_565
Ba0 O14 3.242504 1_455
Ba1 O0 2.779283 1_655
Ba1 O1 2.814388 1_655
Ba1 O12 2.819707 1_555
Ba1 O9 2.826897 1_554
Ba1 O16 2.946450 1_555
Ba1 O2 2.955976 1_555
Ba1 O2 2.996859 1_545
Ba1 O4 3.007637 1_554
Ba1 O1 3.145984 1_555
Ba1 O10 3.206450 1_554
Ba1 O0 3.214886 1_545
Ba2 O7 2.657990 1_655
Ba2 O5 2.703919 1_555
Ba2 O8 2.843207 1_545
Ba2 O3 2.849132 1_555
Ba3 O2 2.854299 1_556
Ba3 O4 2.892235 1_455
Ba3 O13 2.896076 1_555
Ba3 O10 2.901487 1_455
Ba3 O9 2.913843 1_565
Ba3 O15 3.028156 1_565
Ba3 O9 3.045005 1_555
Ba3 O4 3.063490 1_555
Ba3 O14 3.080096 1_455
Ba3 O10 3.085788 1_565
Ba3 O1 3.209102 1_556
Ba3 O0 3.318774 1_556
Ba4 O6 2.790275 1_455
Ba4 O10 2.884038 1_465
Ba4 O13 2.931315 1_565
Ba4 O15 2.958513 1_465
Ba4 O14 2.962463 1_465
Ba4 O14 2.981676 1_455
Ba4 O15 3.004717 1_565
Ba4 O3 3.030810 1_565
Ba4 O4 3.050867 1_455
Ba4 O13 3.079025 1_455
Ba4 O5 3.103579 1_465
Ba4 O9 3.273938 1_565
Ba5 O1 2.678484 1_655
Ba5 O0 2.735187 1_645
Ba5 O16 2.835276 1_655
Ba5 O12 2.881079 1_655
Ba5 O17 2.902841 1_545
Ba5 O11 2.974714 1_655
Ba5 O12 3.090104 1_555
Ba5 O16 3.154717 1_545
Ba5 O2 3.198286 1_545
Ba5 O17 3.519001 1_555
Mg0 O8 2.045542 1_555
Mg0 O11 2.051763 1_555
Mg0 O17 2.066566 1_555
Mg0 O16 2.137994 1_555
Co0 O2 2.103743 1_546
Co0 O10 2.107576 1_555
Co0 O4 2.113164 1_545
Co0 O9 2.159396 1_655
Co0 O0 2.162659 1_646
Co0 O1 2.339092 1_656
Co1 O7 1.933872 1_655
Co1 O8 1.955999 1_555
Co1 O6 2.070014 1_555
Co1 O5 2.077444 1_565
Co1 O3 2.610762 1_665
O0 Sb0 2.007495 1_555
O1 Sb0 1.982794 1_555
O2 Sb0 1.943651 1_555
O3 Sb1 1.950815 1_555
O4 Sb2 1.960358 1_555
O5 Sb1 2.011599 1_555
O6 Sb1 1.956516 1_555
O7 Sb3 2.033360 1_555
O9 Sb2 1.977221 1_555
O10 Sb2 1.966614 1_555
O11 Sb3 2.011429 1_545
O12 Sb0 1.961286 1_545
O12 Sb3 2.477861 1_545
O13 Sb2 2.072942 1_555
O13 Sb1 2.104883 1_555
O14 Sb1 2.066767 1_555
O14 Sb2 2.094347 1_555
O15 Sb1 2.098827 1_555
O15 Sb2 2.124126 1_555
O16 Sb0 2.006342 1_555
O17 Sb3 1.990463 1_655
