# generated using pymatgen
data_TmNiSn4
_symmetry_space_group_name_H-M   'P 1'
_cell_length_a   14.16888604
_cell_length_b   14.16888604
_cell_length_c   4.52724800
_cell_angle_alpha   90.00000000
_cell_angle_beta   90.00000000
_cell_angle_gamma   162.19243463
_symmetry_Int_Tables_number   1
_chemical_formula_structural   TmNiSn4
_chemical_formula_sum   'Tm2 Ni2 Sn8'
_cell_volume   277.95406873
_cell_formula_units_Z   2
loop_
 _symmetry_equiv_pos_site_id
 _symmetry_equiv_pos_as_xyz
  1  'x, y, z'
loop_
 _atom_site_type_symbol
 _atom_site_label
 _atom_site_symmetry_multiplicity
 _atom_site_fract_x
 _atom_site_fract_y
 _atom_site_fract_z
 _atom_site_occupancy
  Tm  Tm0  1  0.80539300  0.19460700  0.50000000  1
  Tm  Tm1  1  0.19460700  0.80539300  0.50000000  1
  Ni  Ni0  1  0.55106600  0.44893400  0.00000000  1
  Ni  Ni1  1  0.44893400  0.55106600  0.00000000  1
  Sn  Sn0  1  0.60924600  0.39075400  0.50000000  1
  Sn  Sn1  1  0.39075400  0.60924600  0.50000000  1
  Sn  Sn2  1  0.71403000  0.28597000  0.00000000  1
  Sn  Sn3  1  0.28597000  0.71403000  0.00000000  1
  Sn  Sn4  1  0.88957000  0.11043000  0.00000000  1
  Sn  Sn5  1  0.11043000  0.88957000  0.00000000  1
  Sn  Sn6  1  0.00000000  0.00000000  0.00000000  1
  Sn  Sn7  1  0.50000000  0.50000000  0.50000000  1
loop_
_geom_bond_atom_site_label_1
_geom_bond_atom_site_label_2
_geom_bond_distance
_geom_bond_site_symmetry_2
Ni0 Sn6 2.617855 1_555
Ni0 Sn6 2.617855 1_665
Ni0 Sn7 2.677297 1_554
Ni0 Sn7 2.677297 1_555
Ni0 Sn5 2.751616 1_545
Ni0 Sn5 2.751616 1_655
Ni0 Sn0 2.788738 1_554
Ni0 Sn0 2.788738 1_555
Ni0 Ni1 2.859317 1_555
Ni1 Sn6 2.617855 1_555
Ni1 Sn6 2.617855 1_665
Ni1 Sn7 2.677297 1_554
Ni1 Sn7 2.677297 1_555
Ni1 Sn4 2.751616 1_455
Ni1 Sn4 2.751616 1_565
Ni1 Sn1 2.788738 1_555
Ni1 Sn1 2.788738 1_554
Sn0 Sn7 3.058483 1_555
Sn0 Sn5 3.151878 1_655
Sn0 Sn5 3.151878 1_545
Sn0 Sn5 3.151878 1_656
Sn0 Sn5 3.151878 1_546
Sn0 Tm1 3.243508 1_655
Sn0 Tm1 3.243508 1_545
Sn1 Sn7 3.058483 1_555
Sn1 Sn4 3.151878 1_566
Sn1 Sn4 3.151878 1_456
Sn1 Sn4 3.151878 1_455
Sn1 Sn4 3.151878 1_565
Sn1 Tm0 3.243508 1_455
Sn1 Tm0 3.243508 1_565
Sn2 Sn3 2.977524 1_545
Sn2 Sn3 2.977524 1_655
Sn2 Tm1 3.198269 1_654
Sn2 Tm1 3.198269 1_655
Sn2 Tm1 3.198269 1_545
Sn2 Tm1 3.198269 1_544
Sn2 Tm0 3.415621 1_555
Sn2 Tm0 3.415621 1_554
Sn3 Tm0 3.198269 1_565
Sn3 Tm0 3.198269 1_564
Sn3 Tm0 3.198269 1_454
Sn3 Tm0 3.198269 1_455
Sn3 Tm1 3.415621 1_555
Sn3 Tm1 3.415621 1_554
Sn4 Tm0 3.267685 1_555
Sn4 Tm0 3.267685 1_554
Sn5 Tm1 3.267685 1_554
Sn5 Tm1 3.267685 1_555
