# generated using pymatgen
data_Ta3VS6
_symmetry_space_group_name_H-M   'P 1'
_cell_length_a   5.76916690
_cell_length_b   5.76916690
_cell_length_c   12.26901923
_cell_angle_alpha   90.00000000
_cell_angle_beta   90.00000000
_cell_angle_gamma   120.00000548
_symmetry_Int_Tables_number   1
_chemical_formula_structural   Ta3VS6
_chemical_formula_sum   'Ta6 V2 S12'
_cell_volume   353.64429856
_cell_formula_units_Z   2
loop_
 _symmetry_equiv_pos_site_id
 _symmetry_equiv_pos_as_xyz
  1  'x, y, z'
loop_
 _atom_site_type_symbol
 _atom_site_label
 _atom_site_symmetry_multiplicity
 _atom_site_fract_x
 _atom_site_fract_y
 _atom_site_fract_z
 _atom_site_occupancy
  Ta  Ta0  1  -0.00000000  0.00000000  0.49998441  1
  Ta  Ta1  1  -0.00000000  0.00000000  0.00001559  1
  Ta  Ta2  1  0.33333300  0.66666700  0.99808596  1
  Ta  Ta3  1  0.66666700  0.33333300  0.00193772  1
  Ta  Ta4  1  0.66666700  0.33333300  0.49806228  1
  Ta  Ta5  1  0.33333300  0.66666700  0.50191404  1
  V  V0  1  0.33333300  0.66666700  0.25000000  1
  V  V1  1  0.66666700  0.33333300  0.75000000  1
  S  S0  1  0.33159222  0.33317936  0.37248362  1
  S  S1  1  0.66682064  0.99841287  0.37248362  1
  S  S2  1  0.00158713  0.66840778  0.37248362  1
  S  S3  1  0.33317765  0.33158940  0.62749274  1
  S  S4  1  0.99841175  0.66682235  0.62749274  1
  S  S5  1  0.66841060  0.00158825  0.62749274  1
  S  S6  1  0.66841060  0.66682235  0.87250726  1
  S  S7  1  0.33317765  0.00158825  0.87250726  1
  S  S8  1  0.99841175  0.33158940  0.87250726  1
  S  S9  1  0.66682064  0.66840778  0.12751638  1
  S  S10  1  0.00158713  0.33317936  0.12751638  1
  S  S11  1  0.33159222  0.99841287  0.12751638  1
loop_
_geom_bond_atom_site_label_1
_geom_bond_atom_site_label_2
_geom_bond_distance
_geom_bond_site_symmetry_2
S0 V0 2.437338 1_555
S0 Ta4 2.471641 1_555
S0 Ta0 2.474727 1_555
S0 Ta5 2.490791 1_555
S1 V0 2.437336 1_555
S1 Ta4 2.471637 1_565
S1 Ta0 2.474727 1_665
S1 Ta5 2.490789 1_555
S2 V0 2.437333 1_555
S2 Ta4 2.471639 1_455
S2 Ta0 2.474727 1_565
S2 Ta5 2.490787 1_555
S3 V1 2.437518 1_555
S3 Ta5 2.471651 1_555
S3 Ta0 2.474776 1_555
S3 Ta4 2.490793 1_555
S4 V1 2.437516 1_555
S4 Ta5 2.471646 1_655
S4 Ta0 2.474776 1_665
S4 Ta4 2.490791 1_555
S5 V1 2.437514 1_555
S5 Ta5 2.471648 1_545
S5 Ta0 2.474776 1_655
S5 Ta4 2.490788 1_555
S6 V1 2.437518 1_555
S6 Ta2 2.471651 1_555
S6 Ta1 2.474776 1_666
S6 Ta3 2.490793 1_556
S7 V1 2.437516 1_555
S7 Ta2 2.471646 1_545
S7 Ta1 2.474776 1_556
S7 Ta3 2.490791 1_556
S8 V1 2.437514 1_555
S8 Ta2 2.471648 1_655
S8 Ta1 2.474776 1_656
S8 Ta3 2.490788 1_556
S9 V0 2.437338 1_555
S9 Ta3 2.471641 1_555
S9 Ta1 2.474727 1_665
S9 Ta2 2.490791 1_554
S10 V0 2.437336 1_555
S10 Ta3 2.471637 1_455
S10 Ta1 2.474727 1_555
S10 Ta2 2.490789 1_554
S11 V0 2.437333 1_555
S11 Ta3 2.471639 1_565
S11 Ta1 2.474727 1_565
S11 Ta2 2.490787 1_554
