# generated using pymatgen
data_Ca5BC4Cl3
_symmetry_space_group_name_H-M   'P 1'
_cell_length_a   7.28253028
_cell_length_b   7.28253028
_cell_length_c   18.75016094
_cell_angle_alpha   89.55858930
_cell_angle_beta   89.55858930
_cell_angle_gamma   149.10149792
_symmetry_Int_Tables_number   1
_chemical_formula_structural   Ca5BC4Cl3
_chemical_formula_sum   'Ca10 B2 C8 Cl6'
_cell_volume   510.43948835
_cell_formula_units_Z   2
loop_
 _symmetry_equiv_pos_site_id
 _symmetry_equiv_pos_as_xyz
  1  'x, y, z'
loop_
 _atom_site_type_symbol
 _atom_site_label
 _atom_site_symmetry_multiplicity
 _atom_site_fract_x
 _atom_site_fract_y
 _atom_site_fract_z
 _atom_site_occupancy
  Ca  Ca0  1  0.84415000  0.15585000  0.25000000  1
  Ca  Ca1  1  0.15585000  0.84415000  0.75000000  1
  Ca  Ca2  1  0.05602600  0.94851100  0.14106100  1
  Ca  Ca3  1  0.94397400  0.05148900  0.85893900  1
  Ca  Ca4  1  0.05148900  0.94397400  0.35893900  1
  Ca  Ca5  1  0.94851100  0.05602600  0.64106100  1
  Ca  Ca6  1  0.61365500  0.33981400  0.93670600  1
  Ca  Ca7  1  0.38634500  0.66018700  0.06329400  1
  Ca  Ca8  1  0.66018700  0.38634500  0.56329400  1
  Ca  Ca9  1  0.33981300  0.61365500  0.43670600  1
  B  B0  1  0.46549800  0.53450200  0.25000000  1
  B  B1  1  0.53450200  0.46549800  0.75000000  1
  C  C0  1  0.54971800  0.44949700  0.82651300  1
  C  C1  1  0.45028200  0.55050300  0.17348700  1
  C  C2  1  0.55050300  0.45028200  0.67348700  1
  C  C3  1  0.44949700  0.54971800  0.32651300  1
  C  C4  1  0.98976100  0.91217600  0.98712600  1
  C  C5  1  0.91217600  0.98976100  0.48712600  1
  C  C6  1  0.01023900  0.08782400  0.01287400  1
  C  C7  1  0.08782400  0.01023900  0.51287400  1
  Cl  Cl0  1  0.71712100  0.28554200  0.08504100  1
  Cl  Cl1  1  0.28287900  0.71445800  0.91495900  1
  Cl  Cl2  1  0.71445800  0.28287900  0.41495900  1
  Cl  Cl3  1  0.28554200  0.71712100  0.58504100  1
  Cl  Cl4  1  0.19328200  0.80671800  0.25000000  1
  Cl  Cl5  1  0.80671800  0.19328200  0.75000000  1
loop_
_geom_bond_atom_site_label_1
_geom_bond_atom_site_label_2
_geom_bond_distance
_geom_bond_site_symmetry_2
Ca0 Cl4 2.872170 1_655
Ca0 Cl4 2.872170 1_545
Ca1 Cl5 2.872170 1_565
Ca1 Cl5 2.872170 1_455
Ca2 Cl4 2.829852 1_555
Ca2 Cl0 3.147920 1_565
Ca2 Cl0 3.189567 1_455
Ca3 Cl5 2.829852 1_555
Ca3 Cl1 3.147920 1_545
Ca3 Cl1 3.189567 1_655
Ca4 Cl4 2.829852 1_555
Ca4 Cl2 3.147920 1_455
Ca4 Cl2 3.189567 1_565
Ca5 Cl5 2.829852 1_555
Ca5 Cl3 3.147920 1_655
Ca5 Cl3 3.189567 1_545
Ca6 Cl1 2.815346 1_545
Ca6 Cl1 2.914625 1_655
Ca6 Cl0 2.997677 1_556
Ca7 Cl0 2.815340 1_565
Ca7 Cl0 2.914622 1_455
Ca7 Cl1 2.997674 1_554
Ca8 Cl3 2.815340 1_655
Ca8 Cl3 2.914622 1_545
Ca8 Cl2 2.997674 1_555
Ca9 Cl2 2.815340 1_455
Ca9 Cl2 2.914622 1_565
Ca9 Cl3 2.997674 1_555
B0 C3 1.451226 1_555
B0 C1 1.451226 1_555
B0 Ca0 2.581783 1_455
B0 Ca0 2.581783 1_565
B1 C0 1.451226 1_555
B1 C2 1.451226 1_555
B1 Ca1 2.581783 1_545
B1 Ca1 2.581783 1_655
C0 Ca6 2.398215 1_555
C0 Ca3 2.493829 1_455
C0 Ca3 2.509810 1_565
C0 Ca1 2.805352 1_655
C0 Ca1 2.860094 1_545
C1 Ca7 2.398219 1_555
C1 Ca2 2.493829 1_655
C1 Ca2 2.509810 1_545
C1 Ca0 2.805352 1_455
C1 Ca0 2.860094 1_565
C2 Ca8 2.398219 1_555
C2 Ca5 2.493829 1_565
C2 Ca5 2.509810 1_455
C2 Ca1 2.805352 1_545
C2 Ca1 2.860094 1_655
C3 Ca9 2.398219 1_555
C3 Ca4 2.493829 1_545
C3 Ca4 2.509810 1_655
C3 Ca0 2.805352 1_565
C3 Ca0 2.860094 1_455
C4 C6 1.254917 1_666
C4 Ca6 2.505530 1_555
C4 Ca6 2.615582 1_665
C4 Ca3 2.733640 1_565
C4 Ca2 2.906501 1_656
C5 C7 1.254917 1_665
C5 Ca9 2.505536 1_555
C5 Ca9 2.615584 1_665
C5 Ca4 2.733640 1_655
C5 Ca5 2.906501 1_565
C6 Ca7 2.505536 1_555
C6 Ca7 2.615584 1_445
C6 Ca2 2.733640 1_545
C6 Ca3 2.906501 1_454
C7 Ca8 2.505536 1_555
C7 Ca8 2.615584 1_445
C7 Ca5 2.733640 1_455
C7 Ca4 2.906501 1_545
