# generated using pymatgen
data_Li7Mn5O12
_symmetry_space_group_name_H-M   'P 1'
_cell_length_a   5.09300163
_cell_length_b   7.79478009
_cell_length_c   11.90292187
_cell_angle_alpha   72.57284088
_cell_angle_beta   79.41423728
_cell_angle_gamma   82.71049585
_symmetry_Int_Tables_number   1
_chemical_formula_structural   Li7Mn5O12
_chemical_formula_sum   'Li14 Mn10 O24'
_cell_volume   441.86629590
_cell_formula_units_Z   2
loop_
 _symmetry_equiv_pos_site_id
 _symmetry_equiv_pos_as_xyz
  1  'x, y, z'
loop_
 _atom_site_type_symbol
 _atom_site_label
 _atom_site_symmetry_multiplicity
 _atom_site_fract_x
 _atom_site_fract_y
 _atom_site_fract_z
 _atom_site_occupancy
  Li  Li0  1  0.74474800  0.00077100  0.24724700  1
  Li  Li1  1  0.25527900  0.99918300  0.75278200  1
  Li  Li2  1  0.45370300  0.16511700  0.04484600  1
  Li  Li3  1  0.95371100  0.15957300  0.53586300  1
  Li  Li4  1  0.04628300  0.84033500  0.46419900  1
  Li  Li5  1  0.54629900  0.83502600  0.95511700  1
  Li  Li6  1  0.22743300  0.15951700  0.29019100  1
  Li  Li7  1  0.72277600  0.16022300  0.79282000  1
  Li  Li8  1  0.27737200  0.83991500  0.20714700  1
  Li  Li9  1  0.77242000  0.84034200  0.70987200  1
  Li  Li10  1  0.38301800  0.49926200  0.13337100  1
  Li  Li11  1  0.88442000  0.50189400  0.62341900  1
  Li  Li12  1  0.11557100  0.49816700  0.37648800  1
  Li  Li13  1  0.61709900  0.50069500  0.86663700  1
  Mn  Mn0  1  0.49994800  0.99988500  0.50004500  1
  Mn  Mn1  1  0.99981800  0.00010200  0.00010900  1
  Mn  Mn2  1  0.90967000  0.32753500  0.08368300  1
  Mn  Mn3  1  0.41594100  0.33078000  0.58323100  1
  Mn  Mn4  1  0.58392300  0.66905300  0.41679800  1
  Mn  Mn5  1  0.09052000  0.67253800  0.91623200  1
  Mn  Mn6  1  0.66678600  0.32606700  0.32893900  1
  Mn  Mn7  1  0.16466700  0.33118600  0.82960400  1
  Mn  Mn8  1  0.83537200  0.66897200  0.17035500  1
  Mn  Mn9  1  0.33314300  0.67394100  0.67107300  1
  O  O0  1  0.82782100  0.08834100  0.39789000  1
  O  O1  1  0.32582600  0.09525200  0.89873400  1
  O  O2  1  0.67410300  0.90474000  0.10133900  1
  O  O3  1  0.17209800  0.91160400  0.60210400  1
  O  O4  1  0.08497300  0.08538400  0.12747800  1
  O  O5  1  0.59002500  0.08719200  0.62783700  1
  O  O6  1  0.40992000  0.91270000  0.37221700  1
  O  O7  1  0.91497200  0.91473100  0.87254400  1
  O  O8  1  0.74858900  0.42542800  0.48321100  1
  O  O9  1  0.23559300  0.41463600  0.96632500  1
  O  O10  1  0.76435100  0.58551700  0.03360400  1
  O  O11  1  0.25148600  0.57449700  0.51677200  1
  O  O12  1  0.00372700  0.42465200  0.23102000  1
  O  O13  1  0.49334700  0.42437300  0.73537100  1
  O  O14  1  0.50669200  0.57556300  0.26461600  1
  O  O15  1  0.99639700  0.57532300  0.76892800  1
  O  O16  1  0.16493400  0.76183700  0.07100700  1
  O  O17  1  0.66871000  0.76384700  0.56756800  1
  O  O18  1  0.33130200  0.23604500  0.43244100  1
  O  O19  1  0.83509600  0.23827200  0.92898000  1
  O  O20  1  0.91174100  0.73697700  0.30298500  1
  O  O21  1  0.42458100  0.74495600  0.82356700  1
  O  O22  1  0.57552100  0.25509200  0.17640000  1
  O  O23  1  0.08827400  0.26296300  0.69699500  1
loop_
_geom_bond_atom_site_label_1
_geom_bond_atom_site_label_2
_geom_bond_distance
_geom_bond_site_symmetry_2
Li0 O22 2.053267 1_555
Li0 O4 2.070998 1_655
Li0 O20 2.082769 1_545
Li0 O6 2.084551 1_545
Li0 O2 2.186921 1_545
Li0 O0 2.223794 1_555
Li1 O21 2.052685 1_555
Li1 O7 2.071001 1_455
Li1 O23 2.082756 1_565
Li1 O5 2.084003 1_565
Li1 O1 2.187408 1_565
Li1 O3 2.224431 1_555
Li2 O4 2.032662 1_555
Li2 O22 2.110434 1_555
Li2 O9 2.152824 1_554
Li2 O2 2.170966 1_545
Li2 O1 2.195196 1_554
Li2 O19 2.196817 1_554
Li3 O5 2.024314 1_555
Li3 O0 2.107099 1_555
Li3 O3 2.111524 1_645
Li3 O18 2.133191 1_655
Li3 O8 2.166045 1_555
Li3 O23 2.519243 1_655
Li4 O6 2.024100 1_555
Li4 O3 2.106329 1_555
Li4 O0 2.112078 1_465
Li4 O17 2.132936 1_455
Li4 O11 2.166023 1_555
Li4 O20 2.519935 1_455
Li5 O7 2.032192 1_555
Li5 O21 2.110590 1_555
Li5 O10 2.152522 1_556
Li5 O1 2.170058 1_565
Li5 O2 2.195610 1_556
Li5 O16 2.196863 1_556
Li6 O6 2.067102 1_545
Li6 O22 2.093064 1_555
Li6 O18 2.125262 1_555
Li6 O12 2.211491 1_555
Li6 O0 2.235002 1_455
Li6 O4 2.429902 1_555
Li7 O7 2.073315 1_545
Li7 O19 2.084125 1_555
Li7 O23 2.111513 1_655
Li7 O1 2.207693 1_555
Li7 O13 2.216322 1_555
Li7 O5 2.427488 1_555
Li8 O4 2.073464 1_565
Li8 O16 2.084307 1_555
Li8 O20 2.112625 1_455
Li8 O2 2.206136 1_555
Li8 O14 2.217306 1_555
Li8 O6 2.426998 1_555
Li9 O5 2.067124 1_565
Li9 O21 2.091246 1_555
Li9 O17 2.125367 1_555
Li9 O15 2.211238 1_555
Li9 O3 2.235684 1_655
Li9 O7 2.430701 1_555
Li10 O22 1.993236 1_555
Li10 O14 2.050379 1_555
Li10 O12 2.115660 1_555
Li10 O10 2.154032 1_555
Li10 O16 2.188546 1_555
Li10 O9 2.532229 1_554
Li11 O23 2.044478 1_655
Li11 O11 2.095910 1_655
Li11 O15 2.166134 1_555
Li11 O17 2.168900 1_555
Li11 O8 2.177991 1_555
Li11 O13 2.226161 1_555
Li12 O20 2.043527 1_455
Li12 O8 2.096102 1_455
Li12 O12 2.165742 1_555
Li12 O18 2.170125 1_555
Li12 O11 2.178446 1_555
Li12 O14 2.225826 1_555
Li13 O21 1.993877 1_555
Li13 O13 2.050889 1_555
Li13 O15 2.115936 1_555
Li13 O9 2.154099 1_555
Li13 O19 2.187396 1_555
Li13 O10 2.531764 1_556
Mn0 O17 1.933025 1_555
Mn0 O18 1.933727 1_565
Mn0 O3 1.944966 1_555
Mn0 O0 1.945847 1_565
Mn0 O6 1.985415 1_555
Mn0 O5 1.985700 1_565
Mn1 O19 1.947151 1_554
Mn1 O16 1.947877 1_645
Mn1 O2 1.948914 1_545
Mn1 O1 1.950186 1_654
Mn1 O4 1.961336 1_655
Mn1 O7 1.963248 1_544
Mn2 O22 1.900929 1_555
Mn2 O4 1.945652 1_655
Mn2 O10 2.003316 1_555
Mn2 O9 2.008384 1_654
Mn2 O12 2.252561 1_655
Mn2 O19 2.260675 1_554
Mn3 O5 1.953206 1_555
Mn3 O23 1.965410 1_555
Mn3 O11 1.968690 1_555
Mn3 O8 1.970254 1_555
Mn3 O13 2.256914 1_555
Mn3 O18 2.260862 1_555
Mn4 O6 1.953413 1_555
Mn4 O20 1.966398 1_555
Mn4 O8 1.968424 1_555
Mn4 O11 1.968998 1_555
Mn4 O14 2.256586 1_555
Mn4 O17 2.261197 1_555
Mn5 O21 1.900310 1_555
Mn5 O7 1.946327 1_455
Mn5 O9 2.002414 1_555
Mn5 O10 2.009241 1_456
Mn5 O15 2.252790 1_455
Mn5 O16 2.261349 1_556
Mn6 O0 1.931482 1_555
Mn6 O18 1.985592 1_555
Mn6 O12 1.989234 1_655
Mn6 O14 1.992038 1_555
Mn6 O22 2.189919 1_555
Mn6 O8 2.315215 1_555
Mn7 O1 1.921342 1_555
Mn7 O23 1.925239 1_555
Mn7 O13 1.928359 1_555
Mn7 O19 1.951140 1_455
Mn7 O15 1.966660 1_455
Mn7 O9 2.027719 1_555
Mn8 O2 1.920256 1_555
Mn8 O20 1.924497 1_555
Mn8 O14 1.929003 1_555
Mn8 O16 1.950877 1_655
Mn8 O12 1.967949 1_655
Mn8 O10 2.028252 1_555
Mn9 O3 1.931165 1_555
Mn9 O17 1.985689 1_555
Mn9 O15 1.988281 1_455
Mn9 O13 1.992642 1_555
Mn9 O21 2.189928 1_555
Mn9 O11 2.315646 1_555
