# generated using pymatgen
data_Ce(GaPd)2
_symmetry_space_group_name_H-M   'P 1'
_cell_length_a   4.38211954
_cell_length_b   4.38211954
_cell_length_c   10.01603489
_cell_angle_alpha   90.00000000
_cell_angle_beta   90.00000000
_cell_angle_gamma   90.00000000
_symmetry_Int_Tables_number   1
_chemical_formula_structural   Ce(GaPd)2
_chemical_formula_sum   'Ce2 Ga4 Pd4'
_cell_volume   192.33763417
_cell_formula_units_Z   2
loop_
 _symmetry_equiv_pos_site_id
 _symmetry_equiv_pos_as_xyz
  1  'x, y, z'
loop_
 _atom_site_type_symbol
 _atom_site_label
 _atom_site_symmetry_multiplicity
 _atom_site_fract_x
 _atom_site_fract_y
 _atom_site_fract_z
 _atom_site_occupancy
  Ce  Ce0  1  0.00000000  0.50000000  0.25081793  1
  Ce  Ce1  1  0.50000000  -0.00000000  0.74913845  1
  Ga  Ga0  1  -0.00000000  -0.00000000  0.49992235  1
  Ga  Ga1  1  0.50000000  0.50000000  0.49992235  1
  Ga  Ga2  1  0.00000000  0.50000000  0.87479687  1
  Ga  Ga3  1  0.50000000  -0.00000000  0.12527734  1
  Pd  Pd0  1  0.00000000  -0.00000000  0.00008574  1
  Pd  Pd1  1  0.50000000  0.50000000  0.00008574  1
  Pd  Pd2  1  0.00000000  0.50000000  0.62875818  1
  Pd  Pd3  1  0.50000000  -0.00000000  0.37119505  1
loop_
_geom_bond_atom_site_label_1
_geom_bond_atom_site_label_2
_geom_bond_distance
_geom_bond_site_symmetry_2
Ce0 Ga1 3.320536 1_455
Ce0 Ga1 3.320536 1_555
Ce0 Ga0 3.320536 1_565
Ce0 Ga0 3.320536 1_555
Ce0 Pd3 3.324936 1_555
Ce0 Pd3 3.324936 1_565
Ce0 Pd3 3.324936 1_465
Ce0 Pd3 3.324936 1_455
Ce0 Pd1 3.332804 1_555
Ce0 Pd0 3.332804 1_555
Ce0 Pd1 3.332804 1_455
Ce0 Pd0 3.332804 1_565
Ce0 Ga3 3.344038 1_565
Ce0 Ga3 3.344038 1_555
Ce0 Ga3 3.344038 1_455
Ce0 Ga3 3.344038 1_465
Ce1 Ga0 3.321377 1_555
Ce1 Ga0 3.321377 1_655
Ce1 Ga1 3.321377 1_555
Ce1 Ga1 3.321377 1_545
Ce1 Pd2 3.324948 1_655
Ce1 Pd2 3.324948 1_545
Ce1 Pd2 3.324948 1_645
Ce1 Pd2 3.324948 1_555
Ce1 Pd0 3.334428 1_556
Ce1 Pd1 3.334428 1_546
Ce1 Pd0 3.334428 1_656
Ce1 Pd1 3.334428 1_556
Ce1 Ga2 3.344482 1_545
Ce1 Ga2 3.344482 1_555
Ce1 Ga2 3.344482 1_645
Ce1 Ga2 3.344482 1_655
Ga0 Pd3 2.542269 1_455
Ga0 Pd3 2.542269 1_555
Ga0 Pd2 2.542821 1_545
Ga0 Pd2 2.542821 1_555
Ga1 Pd3 2.542269 1_555
Ga1 Pd3 2.542269 1_565
Ga1 Pd2 2.542821 1_555
Ga1 Pd2 2.542821 1_655
Ga2 Pd2 2.464332 1_555
Ga2 Pd0 2.524977 1_556
Ga2 Pd1 2.524977 1_456
Ga2 Pd1 2.524977 1_556
Ga2 Pd0 2.524977 1_566
Ga3 Pd3 2.463120 1_555
Ga3 Pd1 2.524493 1_555
Ga3 Pd0 2.524493 1_555
Ga3 Pd1 2.524493 1_545
Ga3 Pd0 2.524493 1_655
