# generated using pymatgen
data_Mg14NiW
_symmetry_space_group_name_H-M   'P 1'
_cell_length_a   6.22033460
_cell_length_b   6.17127864
_cell_length_c   9.83083353
_cell_angle_alpha   90.00000000
_cell_angle_beta   90.00000000
_cell_angle_gamma   119.73946662
_symmetry_Int_Tables_number   1
_chemical_formula_structural   Mg14NiW
_chemical_formula_sum   'Mg14 Ni1 W1'
_cell_volume   327.67556464
_cell_formula_units_Z   1
loop_
 _symmetry_equiv_pos_site_id
 _symmetry_equiv_pos_as_xyz
  1  'x, y, z'
loop_
 _atom_site_type_symbol
 _atom_site_label
 _atom_site_symmetry_multiplicity
 _atom_site_fract_x
 _atom_site_fract_y
 _atom_site_fract_z
 _atom_site_occupancy
  Mg  Mg0  1  0.16918627  0.33459263  0.62500000  1
  Mg  Mg1  1  0.17080014  0.83539957  0.62500000  1
  Mg  Mg2  1  0.66621523  0.33757943  0.12500000  1
  Mg  Mg3  1  0.66455374  0.33089198  0.62500000  1
  Mg  Mg4  1  0.66621523  0.82863480  0.12500000  1
  Mg  Mg5  1  0.66455374  0.83366076  0.62500000  1
  Mg  Mg6  1  0.32372305  0.16219506  0.35505457  1
  Mg  Mg7  1  0.32372305  0.16219506  0.89494543  1
  Mg  Mg8  1  0.32372305  0.66152899  0.35505457  1
  Mg  Mg9  1  0.32372305  0.66152899  0.89494543  1
  Mg  Mg10  1  0.84885110  0.17442605  0.36212189  1
  Mg  Mg11  1  0.84885110  0.17442605  0.88787811  1
  Mg  Mg12  1  0.84528934  0.67264517  0.37061677  1
  Mg  Mg13  1  0.84528934  0.67264517  0.87938323  1
  Ni  Ni0  1  0.16399716  0.33199808  0.12500000  1
  W  W0  1  0.15130540  0.82565220  0.12500000  1
loop_
_geom_bond_atom_site_label_1
_geom_bond_atom_site_label_2
_geom_bond_distance
_geom_bond_site_symmetry_2
Mg0 Mg1 3.085652 1_545
Mg0 Mg1 3.085652 1_555
Mg0 Mg5 3.092744 1_555
Mg0 Mg3 3.092744 1_555
Mg0 Mg10 3.109996 1_455
Mg0 Mg11 3.109996 1_455
Mg0 Mg5 3.127717 1_445
Mg0 Mg3 3.127717 1_455
Mg0 Mg7 3.180124 1_555
Mg0 Mg6 3.180124 1_555
Mg0 Mg8 3.180130 1_555
Mg0 Mg9 3.180130 1_555
Mg1 Mg12 3.056946 1_455
Mg1 Mg13 3.056946 1_455
Mg1 Mg3 3.076650 1_565
Mg1 Mg5 3.076650 1_555
Mg1 Mg3 3.143713 1_455
Mg1 Mg5 3.143713 1_455
Mg1 Mg8 3.179843 1_555
Mg1 Mg9 3.179843 1_555
Mg1 Mg6 3.179848 1_565
Mg1 Mg7 3.179848 1_565
Mg2 Mg7 2.921891 1_554
Mg2 Mg6 2.921891 1_555
Mg2 W0 3.026596 1_655
Mg2 Mg4 3.030440 1_555
Mg2 Ni0 3.107022 1_555
Mg2 Ni0 3.113600 1_655
Mg2 Mg4 3.140839 1_545
Mg2 W0 3.193821 1_545
Mg3 Mg5 3.068552 1_545
Mg3 Mg5 3.102726 1_555
Mg3 Mg6 3.229770 1_555
Mg3 Mg7 3.229770 1_555
Mg4 Mg9 2.921891 1_554
Mg4 Mg8 2.921891 1_555
Mg4 W0 3.026596 1_655
Mg4 Ni0 3.107022 1_555
Mg4 Ni0 3.113600 1_665
Mg4 W0 3.193821 1_555
Mg5 Mg8 3.229770 1_555
Mg5 Mg9 3.229770 1_555
Mg6 Ni0 2.869343 1_555
Mg6 W0 2.892892 1_545
Mg6 Mg8 3.081529 1_555
Mg6 Mg8 3.089750 1_545
Mg7 Ni0 2.869343 1_556
Mg7 W0 2.892892 1_546
Mg7 Mg9 3.081529 1_555
Mg7 Mg9 3.089750 1_545
Mg8 Ni0 2.869350 1_555
Mg8 W0 2.892885 1_555
Mg9 Ni0 2.869350 1_556
Mg9 W0 2.892885 1_556
Mg10 Ni0 2.886394 1_655
Mg10 Mg2 2.978807 1_555
Mg10 Mg4 2.978813 1_545
Mg10 Mg8 2.992829 1_655
Mg10 Mg6 2.992830 1_655
Mg10 Mg12 3.086829 1_545
Mg10 Mg12 3.086829 1_555
Mg10 Mg3 3.165986 1_555
Mg10 Mg5 3.165992 1_545
Mg10 Mg8 3.230441 1_545
Mg10 Mg6 3.230442 1_555
Mg11 Ni0 2.886394 1_656
Mg11 Mg2 2.978807 1_556
Mg11 Mg4 2.978813 1_546
Mg11 Mg9 2.992829 1_655
Mg11 Mg7 2.992830 1_655
Mg11 Mg13 3.086829 1_545
Mg11 Mg13 3.086829 1_555
Mg11 Mg3 3.165986 1_555
Mg11 Mg5 3.165992 1_545
Mg11 Mg9 3.230441 1_545
Mg11 Mg7 3.230442 1_555
Mg12 W0 2.926116 1_655
Mg12 Mg4 3.010267 1_555
Mg12 Mg2 3.010273 1_555
Mg12 Mg6 3.014522 1_665
Mg12 Mg8 3.014522 1_655
Mg12 Mg5 3.100580 1_555
Mg12 Mg3 3.100587 1_555
Mg12 Mg6 3.214482 1_555
Mg12 Mg8 3.214482 1_555
Mg13 W0 2.926116 1_656
Mg13 Mg4 3.010267 1_556
Mg13 Mg2 3.010273 1_556
Mg13 Mg7 3.014522 1_665
Mg13 Mg9 3.014522 1_655
Mg13 Mg5 3.100580 1_555
Mg13 Mg3 3.100587 1_555
Mg13 Mg7 3.214482 1_555
Mg13 Mg9 3.214482 1_555
Ni0 W0 3.086401 1_545
Ni0 W0 3.086401 1_555
