# generated using pymatgen
data_CaU2Se5
_symmetry_space_group_name_H-M   'P 1'
_cell_length_a   7.65208000
_cell_length_b   8.12611200
_cell_length_c   12.55676300
_cell_angle_alpha   90.00000000
_cell_angle_beta   90.00000000
_cell_angle_gamma   90.00000000
_symmetry_Int_Tables_number   1
_chemical_formula_structural   CaU2Se5
_chemical_formula_sum   'Ca4 U8 Se20'
_cell_volume   780.80035643
_cell_formula_units_Z   4
loop_
 _symmetry_equiv_pos_site_id
 _symmetry_equiv_pos_as_xyz
  1  'x, y, z'
loop_
 _atom_site_type_symbol
 _atom_site_label
 _atom_site_symmetry_multiplicity
 _atom_site_fract_x
 _atom_site_fract_y
 _atom_site_fract_z
 _atom_site_occupancy
  Ca  Ca0  1  0.42279200  0.75000000  0.00672600  1
  Ca  Ca1  1  0.07720800  0.75000000  0.50672600  1
  Ca  Ca2  1  0.57720800  0.25000000  0.99327400  1
  Ca  Ca3  1  0.92279200  0.25000000  0.49327400  1
  U  U0  1  0.99139100  0.99886800  0.18054700  1
  U  U1  1  0.50860900  0.50113200  0.68054700  1
  U  U2  1  0.00860900  0.49886800  0.81945300  1
  U  U3  1  0.49139100  0.00113200  0.31945300  1
  U  U4  1  0.00860900  0.00113200  0.81945300  1
  U  U5  1  0.49139100  0.49886800  0.31945300  1
  U  U6  1  0.99139100  0.50113200  0.18054700  1
  U  U7  1  0.50860900  0.99886800  0.68054700  1
  Se  Se0  1  0.66279400  0.54404100  0.88699200  1
  Se  Se1  1  0.83720600  0.95595900  0.38699200  1
  Se  Se2  1  0.33720600  0.04404100  0.11300800  1
  Se  Se3  1  0.16279400  0.45595900  0.61300800  1
  Se  Se4  1  0.33720600  0.45595900  0.11300800  1
  Se  Se5  1  0.16279400  0.04404100  0.61300800  1
  Se  Se6  1  0.66279400  0.95595900  0.88699200  1
  Se  Se7  1  0.83720600  0.54404100  0.38699200  1
  Se  Se8  1  0.67999400  0.75000000  0.18380800  1
  Se  Se9  1  0.82000600  0.75000000  0.68380800  1
  Se  Se10  1  0.32000600  0.25000000  0.81619200  1
  Se  Se11  1  0.17999400  0.25000000  0.31619200  1
  Se  Se12  1  0.02402200  0.75000000  0.00260300  1
  Se  Se13  1  0.47597800  0.75000000  0.50260300  1
  Se  Se14  1  0.97597800  0.25000000  0.99739700  1
  Se  Se15  1  0.52402200  0.25000000  0.49739700  1
  Se  Se16  1  0.29097000  0.75000000  0.78785400  1
  Se  Se17  1  0.20903000  0.75000000  0.28785400  1
  Se  Se18  1  0.70903000  0.25000000  0.21214600  1
  Se  Se19  1  0.79097000  0.25000000  0.71214600  1
loop_
_geom_bond_atom_site_label_1
_geom_bond_atom_site_label_2
_geom_bond_distance
_geom_bond_site_symmetry_2
Ca0 Se2 2.814113 1_565
Ca0 Se4 2.814113 1_555
Ca0 Se6 2.904187 1_554
Ca0 Se0 2.904187 1_554
Ca0 Se16 2.927590 1_554
Ca0 Se8 2.969483 1_555
Ca0 Se12 3.051859 1_555
Ca1 Se5 2.814113 1_565
Ca1 Se3 2.814113 1_555
Ca1 Se1 2.904187 1_455
Ca1 Se7 2.904187 1_455
Ca1 Se17 2.927590 1_555
Ca1 Se9 2.969483 1_455
Ca1 Se13 3.051859 1_555
Ca2 Se0 2.814113 1_555
Ca2 Se6 2.814113 1_545
Ca2 Se2 2.904187 1_556
Ca2 Se4 2.904187 1_556
Ca2 Se18 2.927590 1_556
Ca2 Se10 2.969483 1_555
Ca2 Se14 3.051859 1_555
Ca3 Se7 2.814113 1_555
Ca3 Se1 2.814113 1_545
Ca3 Se3 2.904187 1_655
Ca3 Se5 2.904187 1_655
Ca3 Se19 2.927590 1_555
Ca3 Se11 2.969483 1_655
Ca3 Se15 3.051859 1_555
Se0 U2 2.802922 1_655
Se0 U1 2.869410 1_555
Se1 U3 2.802922 1_565
Se1 U0 2.869410 1_555
Se2 U0 2.802922 1_445
Se2 U3 2.869410 1_555
Se3 U1 2.802922 1_555
Se3 U2 2.869410 1_555
Se4 U6 2.802922 1_455
Se4 U5 2.869410 1_555
Se5 U7 2.802922 1_545
Se5 U4 2.869410 1_555
Se6 U4 2.802922 1_665
Se6 U7 2.869410 1_555
Se7 U5 2.802922 1_555
Se7 U6 2.869410 1_555
Se8 U3 3.024650 1_565
Se8 U5 3.024650 1_555
Se8 U6 3.125603 1_555
Se8 U0 3.125603 1_555
Se9 U4 3.024650 1_665
Se9 U2 3.024650 1_655
Se9 U1 3.125603 1_555
Se9 U7 3.125603 1_555
Se10 U1 3.024650 1_555
Se10 U7 3.024650 1_545
Se10 U4 3.125603 1_555
Se10 U2 3.125603 1_555
Se11 U0 3.024650 1_445
Se11 U6 3.024650 1_455
Se11 U5 3.125603 1_555
Se11 U3 3.125603 1_555
Se12 U0 3.024022 1_455
Se12 U6 3.024022 1_455
Se12 U4 3.076918 1_564
Se12 U2 3.076918 1_554
Se13 U1 3.024022 1_555
Se13 U7 3.024022 1_555
Se13 U3 3.076918 1_565
Se13 U5 3.076918 1_555
Se14 U4 3.024022 1_655
Se14 U2 3.024022 1_655
Se14 U6 3.076918 1_556
Se14 U0 3.076918 1_546
Se15 U3 3.024022 1_555
Se15 U5 3.024022 1_555
Se15 U7 3.076918 1_545
Se15 U1 3.076918 1_555
Se16 U1 2.945998 1_555
Se16 U7 2.945998 1_555
Se16 U4 2.998400 1_565
Se16 U2 2.998400 1_555
Se17 U0 2.945998 1_455
Se17 U6 2.945998 1_455
Se17 U3 2.998400 1_565
Se17 U5 2.998400 1_555
Se18 U3 2.945998 1_555
Se18 U5 2.945998 1_555
Se18 U6 2.998400 1_555
Se18 U0 2.998400 1_545
Se19 U4 2.945998 1_655
Se19 U2 2.945998 1_655
Se19 U7 2.998400 1_545
Se19 U1 2.998400 1_555
