# generated using pymatgen
data_Li9Mn2Co5O16
_symmetry_space_group_name_H-M   'P 1'
_cell_length_a   5.62053603
_cell_length_b   6.33827644
_cell_length_c   7.51711265
_cell_angle_alpha   86.22007827
_cell_angle_beta   79.31055494
_cell_angle_gamma   77.11723967
_symmetry_Int_Tables_number   1
_chemical_formula_structural   Li9Mn2Co5O16
_chemical_formula_sum   'Li9 Mn2 Co5 O16'
_cell_volume   256.43821178
_cell_formula_units_Z   1
loop_
 _symmetry_equiv_pos_site_id
 _symmetry_equiv_pos_as_xyz
  1  'x, y, z'
loop_
 _atom_site_type_symbol
 _atom_site_label
 _atom_site_symmetry_multiplicity
 _atom_site_fract_x
 _atom_site_fract_y
 _atom_site_fract_z
 _atom_site_occupancy
  Li  Li0  1  0.81968646  0.60629340  0.13692598  1
  Li  Li1  1  0.93965190  0.88311711  0.37533334  1
  Li  Li2  1  0.68593271  0.36832372  0.87925093  1
  Li  Li3  1  0.56684718  0.13440075  0.61498288  1
  Li  Li4  1  0.42637668  0.89101867  0.36654907  1
  Li  Li5  1  0.30678095  0.60643251  0.13834225  1
  Li  Li6  1  0.19024034  0.37087138  0.88669528  1
  Li  Li7  1  0.06328113  0.13893005  0.60415160  1
  Li  Li8  1  0.12627832  0.25423434  0.25392241  1
  Mn  Mn0  1  0.99815009  0.00537397  0.00703543  1
  Mn  Mn1  1  0.37791526  0.74730989  0.74786441  1
  Co  Co0  1  0.24884836  0.49923486  0.49662110  1
  Co  Co1  1  0.49799234  0.00080496  0.00138625  1
  Co  Co2  1  0.62372983  0.24932969  0.25120184  1
  Co  Co3  1  0.75297025  0.49886509  0.49682858  1
  Co  Co4  1  0.87554368  0.74948288  0.74895671  1
  O  O0  1  0.71886882  0.95088576  0.17357052  1
  O  O1  1  0.83038071  0.20561595  0.43218613  1
  O  O2  1  0.59416729  0.70145294  0.92068393  1
  O  O3  1  0.46532373  0.45816577  0.67840721  1
  O  O4  1  0.35313638  0.20598220  0.43236237  1
  O  O5  1  0.21980536  0.93624933  0.16730713  1
  O  O6  1  0.09422744  0.70179452  0.92309333  1
  O  O7  1  0.96810201  0.45854536  0.67196819  1
  O  O8  1  0.90223051  0.29167517  0.06300027  1
  O  O9  1  0.02490069  0.56240979  0.33193363  1
  O  O10  1  0.78372313  0.04229392  0.82658181  1
  O  O11  1  0.65217612  0.79952688  0.57802320  1
  O  O12  1  0.53305589  0.54315884  0.32527901  1
  O  O13  1  0.42129928  0.29241945  0.06653304  1
  O  O14  1  0.27928886  0.04508207  0.82594343  1
  O  O15  1  0.15908631  0.80071981  0.57707875  1
loop_
_geom_bond_atom_site_label_1
_geom_bond_atom_site_label_2
_geom_bond_distance
_geom_bond_site_symmetry_2
Li0 O9 1.996745 1_655
Li0 O12 2.031448 1_555
Li0 O8 2.034345 1_555
Li0 O0 2.153347 1_555
Li0 O6 2.167785 1_654
Li0 O2 2.215157 1_554
Li1 O9 2.015726 1_655
Li1 O1 2.048448 1_565
Li1 O5 2.071649 1_655
Li1 O15 2.096664 1_655
Li1 O0 2.097451 1_555
Li1 O11 2.138906 1_555
Li2 O13 1.969444 1_556
Li2 O8 1.973059 1_556
Li2 O10 2.061507 1_555
Li2 O2 2.088734 1_555
Li2 O3 2.099374 1_555
Li2 O7 2.154138 1_555
Li3 O1 1.935760 1_555
Li3 O4 1.954419 1_555
Li3 O3 2.066398 1_555
Li3 O11 2.094447 1_545
Li3 O10 2.153195 1_555
Li3 O14 2.187769 1_555
Li4 O4 2.021818 1_565
Li4 O5 2.028161 1_555
Li4 O0 2.066847 1_555
Li4 O15 2.114488 1_555
Li4 O12 2.179156 1_555
Li4 O11 2.184653 1_555
Li5 O9 1.998488 1_555
Li5 O13 2.026941 1_555
Li5 O12 2.028343 1_555
Li5 O5 2.054576 1_555
Li5 O6 2.162593 1_554
Li5 O2 2.229862 1_554
Li6 O13 2.008991 1_556
Li6 O8 2.026715 1_456
Li6 O6 2.069221 1_555
Li6 O14 2.074062 1_555
Li6 O3 2.125394 1_555
Li6 O7 2.189298 1_455
Li7 O1 1.967794 1_455
Li7 O4 1.989538 1_555
Li7 O7 2.049809 1_455
Li7 O15 2.104480 1_545
Li7 O14 2.214860 1_555
Li7 O10 2.226935 1_455
Li8 O4 1.981174 1_555
Li8 O1 2.000971 1_455
Li8 O9 2.003676 1_555
Li8 O13 2.014910 1_555
Li8 O8 2.047953 1_455
Li8 O5 2.082311 1_545
Mn0 O8 1.827808 1_555
Mn0 O5 1.854546 1_645
Mn0 O0 1.898994 1_545
Mn0 O14 1.935850 1_654
Mn0 O10 1.945812 1_554
Mn0 O6 1.990615 1_644
Mn1 O3 1.871413 1_555
Mn1 O11 1.886117 1_555
Mn1 O15 1.902190 1_555
Mn1 O2 1.904711 1_555
Mn1 O6 1.933007 1_555
Mn1 O14 1.942354 1_565
Co0 O4 1.886598 1_555
Co0 O9 1.888178 1_555
Co0 O7 1.912821 1_455
Co0 O12 1.917265 1_555
Co0 O3 1.960648 1_555
Co0 O15 1.970061 1_555
Co1 O13 1.878224 1_555
Co1 O5 1.913716 1_545
Co1 O0 1.919250 1_545
Co1 O14 1.930759 1_554
Co1 O10 1.932570 1_554
Co1 O2 1.957811 1_544
Co2 O4 1.900457 1_555
Co2 O12 1.909570 1_555
Co2 O1 1.915654 1_555
Co2 O13 1.921851 1_555
Co2 O0 1.945109 1_545
Co2 O8 1.959464 1_555
Co3 O9 1.881628 1_655
Co3 O1 1.886853 1_555
Co3 O12 1.912694 1_555
Co3 O7 1.915478 1_555
Co3 O3 1.965793 1_555
Co3 O11 1.966914 1_555
Co4 O7 1.899291 1_555
Co4 O10 1.911867 1_565
Co4 O2 1.914602 1_555
Co4 O6 1.922140 1_655
Co4 O11 1.922216 1_555
Co4 O15 1.930327 1_655
