# generated using pymatgen
data_Li2Fe2SbO6
_symmetry_space_group_name_H-M   'P 1'
_cell_length_a   5.29803405
_cell_length_b   5.29803405
_cell_length_c   10.23014000
_cell_angle_alpha   90.00000000
_cell_angle_beta   90.00000000
_cell_angle_gamma   119.26423894
_symmetry_Int_Tables_number   1
_chemical_formula_structural   Li2Fe2SbO6
_chemical_formula_sum   'Li4 Fe4 Sb2 O12'
_cell_volume   250.50364746
_cell_formula_units_Z   2
loop_
 _symmetry_equiv_pos_site_id
 _symmetry_equiv_pos_as_xyz
  1  'x, y, z'
loop_
 _atom_site_type_symbol
 _atom_site_label
 _atom_site_symmetry_multiplicity
 _atom_site_fract_x
 _atom_site_fract_y
 _atom_site_fract_z
 _atom_site_occupancy
  Li  Li0  1  0.63528900  0.13528900  0.75000000  1
  Li  Li1  1  0.86471100  0.36471100  0.25000000  1
  Li  Li2  1  0.13528900  0.63528900  0.75000000  1
  Li  Li3  1  0.36471100  0.86471100  0.25000000  1
  Fe  Fe0  1  0.84265100  0.15734900  0.50000000  1
  Fe  Fe1  1  0.65734900  0.34265100  0.00000000  1
  Fe  Fe2  1  0.34265100  0.65734900  0.00000000  1
  Fe  Fe3  1  0.15734900  0.84265100  0.50000000  1
  Sb  Sb0  1  0.00000000  0.00000000  0.00000000  1
  Sb  Sb1  1  0.50000000  0.50000000  0.50000000  1
  O  O0  1  0.67971700  0.01200500  0.10828600  1
  O  O1  1  0.32028300  0.98799500  0.89171400  1
  O  O2  1  0.51200500  0.17971700  0.39171400  1
  O  O3  1  0.82028300  0.48799500  0.60828600  1
  O  O4  1  0.18638100  0.18638100  0.60434800  1
  O  O5  1  0.31361900  0.31361900  0.10434800  1
  O  O6  1  0.68638100  0.68638100  0.89565200  1
  O  O7  1  0.98799500  0.32028300  0.89171400  1
  O  O8  1  0.81361900  0.81361900  0.39565200  1
  O  O9  1  0.17971700  0.51200500  0.39171400  1
  O  O10  1  0.48799500  0.82028300  0.60828600  1
  O  O11  1  0.01200500  0.67971700  0.10828600  1
loop_
_geom_bond_atom_site_label_1
_geom_bond_atom_site_label_2
_geom_bond_distance
_geom_bond_site_symmetry_2
Li0 O10 2.054930 1_545
Li0 O1 2.054930 1_545
Li0 O3 2.182580 1_555
Li0 O7 2.182580 1_555
Li1 O9 2.054930 1_655
Li1 O11 2.054930 1_655
Li1 O2 2.182580 1_555
Li1 O0 2.182580 1_555
Li2 O3 2.054930 1_455
Li2 O7 2.054930 1_455
Li2 O10 2.182580 1_555
Li2 O1 2.182580 1_555
Li3 O2 2.054930 1_565
Li3 O0 2.054930 1_565
Li3 O11 2.182580 1_555
Li3 O9 2.182580 1_555
Fe0 O4 2.050788 1_655
Fe0 O8 2.050788 1_545
Fe0 O2 2.124358 1_555
Fe0 O3 2.124358 1_555
Fe0 O10 2.160145 1_545
Fe0 O9 2.160145 1_655
Fe1 O5 2.050788 1_555
Fe1 O6 2.050788 1_554
Fe1 O7 2.124358 1_554
Fe1 O0 2.124358 1_555
Fe1 O1 2.160145 1_544
Fe1 O11 2.160145 1_655
Fe2 O5 2.050788 1_555
Fe2 O6 2.050788 1_554
Fe2 O1 2.124358 1_554
Fe2 O11 2.124358 1_555
Fe2 O0 2.160145 1_565
Fe2 O7 2.160145 1_454
Fe3 O4 2.050788 1_565
Fe3 O8 2.050788 1_455
Fe3 O9 2.124358 1_555
Fe3 O10 2.124358 1_555
Fe3 O3 2.160145 1_455
Fe3 O2 2.160145 1_565
O0 Sb0 2.053317 1_655
O1 Sb0 2.053317 1_566
O2 Sb1 2.053317 1_555
O3 Sb1 2.053317 1_555
O4 Sb1 1.990470 1_555
O5 Sb0 1.990470 1_555
O6 Sb0 1.990470 1_666
O7 Sb0 2.053317 1_656
O8 Sb1 1.990470 1_555
O9 Sb1 2.053317 1_555
O10 Sb1 2.053317 1_555
O11 Sb0 2.053317 1_565
