# generated using pymatgen
data_BaSm2Sc2O7
_symmetry_space_group_name_H-M   'P 1'
_cell_length_a   5.80286925
_cell_length_b   5.80286925
_cell_length_c   20.11685508
_cell_angle_alpha   90.00000000
_cell_angle_beta   90.00000000
_cell_angle_gamma   90.00000000
_symmetry_Int_Tables_number   1
_chemical_formula_structural   BaSm2Sc2O7
_chemical_formula_sum   'Ba4 Sm8 Sc8 O28'
_cell_volume   677.40072583
_cell_formula_units_Z   4
loop_
 _symmetry_equiv_pos_site_id
 _symmetry_equiv_pos_as_xyz
  1  'x, y, z'
loop_
 _atom_site_type_symbol
 _atom_site_label
 _atom_site_symmetry_multiplicity
 _atom_site_fract_x
 _atom_site_fract_y
 _atom_site_fract_z
 _atom_site_occupancy
  Ba  Ba0  1  0.23912257  0.76087743  0.50000000  1
  Ba  Ba1  1  0.76087743  0.23912257  0.50000000  1
  Ba  Ba2  1  0.26087643  0.26087743  -0.00000000  1
  Ba  Ba3  1  0.73912257  0.73912257  -0.00000000  1
  Sm  Sm0  1  0.22171125  0.77828875  0.31506041  1
  Sm  Sm1  1  0.77828875  0.22171125  0.31506041  1
  Sm  Sm2  1  0.27828875  0.27828875  0.81506041  1
  Sm  Sm3  1  0.72171125  0.72171125  0.81506041  1
  Sm  Sm4  1  0.77828875  0.22171125  0.68493959  1
  Sm  Sm5  1  0.22171125  0.77828875  0.68493959  1
  Sm  Sm6  1  0.72171125  0.72171125  0.18493959  1
  Sm  Sm7  1  0.27828875  0.27828875  0.18493959  1
  Sc  Sc0  1  0.24151943  0.75848057  0.10350964  1
  Sc  Sc1  1  0.75848057  0.24151943  0.10350964  1
  Sc  Sc2  1  0.25848057  0.25848057  0.60350964  1
  Sc  Sc3  1  0.74151943  0.74151943  0.60350964  1
  Sc  Sc4  1  0.75848057  0.24151943  0.89649036  1
  Sc  Sc5  1  0.24151943  0.75848057  0.89649036  1
  Sc  Sc6  1  0.74151943  0.74151943  0.39649036  1
  Sc  Sc7  1  0.25848057  0.25848057  0.39649036  1
  O  O0  1  0.28483293  0.28483293  0.50000000  1
  O  O1  1  0.71516707  0.71516707  0.50000000  1
  O  O2  1  0.21516707  0.78483293  -0.00000000  1
  O  O3  1  0.78483293  0.21516707  -0.00000000  1
  O  O4  1  0.31807167  0.68192833  0.21126741  1
  O  O5  1  0.68192833  0.31807167  0.21126741  1
  O  O6  1  0.18192833  0.18192833  0.71126741  1
  O  O7  1  0.81807167  0.81807167  0.71126741  1
  O  O8  1  0.68192833  0.31807167  0.78873259  1
  O  O9  1  0.31807167  0.68192833  0.78873259  1
  O  O10  1  0.81807167  0.81807167  0.28873259  1
  O  O11  1  0.18192833  0.18192833  0.28873259  1
  O  O12  1  -0.00000000  0.50000000  0.38398044  1
  O  O13  1  0.50000000  0.00000000  0.88398044  1
  O  O14  1  -0.00000000  0.50000000  0.61601956  1
  O  O15  1  0.50000000  0.00000000  0.11601956  1
  O  O16  1  0.50000000  0.00000000  0.38398044  1
  O  O17  1  -0.00000000  0.50000000  0.88398044  1
  O  O18  1  0.50000000  0.00000000  0.61601956  1
  O  O19  1  -0.00000000  0.50000000  0.11601956  1
  O  O20  1  0.50000000  0.50000000  0.36773984  1
  O  O21  1  -0.00000000  0.00000000  0.86773984  1
  O  O22  1  0.50000000  0.50000000  0.63226016  1
  O  O23  1  -0.00000000  0.00000000  0.13226016  1
  O  O24  1  0.50000000  0.50000000  0.09513454  1
  O  O25  1  -0.00000000  0.00000000  0.59513454  1
  O  O26  1  0.50000000  0.50000000  0.90486546  1
  O  O27  1  -0.00000000  0.00000000  0.40486546  1
loop_
_geom_bond_atom_site_label_1
_geom_bond_atom_site_label_2
_geom_bond_distance
_geom_bond_site_symmetry_2
Ba0 O25 2.741078 1_565
Ba0 O27 2.741078 1_565
Ba0 O1 2.775130 1_555
Ba0 O0 2.775130 1_555
Ba0 O0 3.051994 1_565
Ba0 O1 3.051994 1_455
Ba0 O16 3.108769 1_565
Ba0 O14 3.108769 1_555
Ba0 O12 3.108769 1_555
Ba0 O18 3.108769 1_565
Ba1 O27 2.741078 1_655
Ba1 O25 2.741078 1_655
Ba1 O1 2.775130 1_555
Ba1 O0 2.775130 1_555
Ba1 O0 3.051994 1_655
Ba1 O1 3.051994 1_545
Ba1 O18 3.108769 1_555
Ba1 O16 3.108769 1_555
Ba1 O14 3.108769 1_655
Ba1 O12 3.108769 1_655
Ba2 O26 2.741081 1_554
Ba2 O24 2.741081 1_555
Ba2 O3 2.775124 1_455
Ba2 O2 2.775129 1_545
Ba2 O2 3.051993 1_555
Ba2 O3 3.051999 1_555
Ba2 O19 3.108766 1_555
Ba2 O17 3.108766 1_554
Ba2 O15 3.108772 1_555
Ba2 O13 3.108772 1_554
Ba3 O26 2.741078 1_554
Ba3 O24 2.741078 1_555
Ba3 O2 2.775130 1_655
Ba3 O3 2.775130 1_565
Ba3 O3 3.051994 1_555
Ba3 O2 3.051994 1_555
Ba3 O15 3.108769 1_565
Ba3 O19 3.108769 1_655
Ba3 O13 3.108769 1_564
Ba3 O17 3.108769 1_654
O0 Sc2 2.093488 1_555
O0 Sc7 2.093488 1_555
O1 Sc3 2.093488 1_555
O1 Sc6 2.093488 1_555
O2 Sc5 2.093488 1_554
O2 Sc0 2.093488 1_555
O3 Sc4 2.093488 1_554
O3 Sc1 2.093488 1_555
O4 Sm0 2.232719 1_555
O4 Sc0 2.256944 1_555
O4 Sm7 2.412472 1_555
O4 Sm6 2.412472 1_555
O5 Sm1 2.232719 1_555
O5 Sc1 2.256944 1_555
O5 Sm7 2.412472 1_555
O5 Sm6 2.412472 1_555
O6 Sm2 2.232719 1_555
O6 Sc2 2.256944 1_555
O6 Sm4 2.412472 1_455
O6 Sm5 2.412472 1_545
O7 Sm3 2.232719 1_555
O7 Sc3 2.256944 1_555
O7 Sm4 2.412472 1_565
O7 Sm5 2.412472 1_655
O8 Sm4 2.232719 1_555
O8 Sc4 2.256944 1_555
O8 Sm2 2.412472 1_555
O8 Sm3 2.412472 1_555
O9 Sm5 2.232719 1_555
O9 Sc5 2.256944 1_555
O9 Sm2 2.412472 1_555
O9 Sm3 2.412472 1_555
O10 Sm6 2.232719 1_555
O10 Sc6 2.256944 1_555
O10 Sm1 2.412472 1_565
O10 Sm0 2.412472 1_655
O11 Sm7 2.232719 1_555
O11 Sc7 2.256944 1_555
O11 Sm0 2.412472 1_545
O11 Sm1 2.412472 1_455
O12 Sc6 2.068173 1_455
O12 Sc7 2.068173 1_555
O12 Sm1 2.487029 1_455
O12 Sm0 2.487029 1_555
O13 Sc5 2.068173 1_545
O13 Sc4 2.068173 1_555
O13 Sm3 2.487029 1_545
O13 Sm2 2.487029 1_555
O14 Sc2 2.068173 1_555
O14 Sc3 2.068173 1_455
O14 Sm4 2.487029 1_455
O14 Sm5 2.487029 1_555
O15 Sc1 2.068173 1_555
O15 Sc0 2.068173 1_545
O15 Sm7 2.487029 1_555
O15 Sm6 2.487029 1_545
O16 Sc6 2.068173 1_545
O16 Sc7 2.068173 1_555
O16 Sm0 2.487029 1_545
O16 Sm1 2.487029 1_555
O17 Sc4 2.068173 1_455
O17 Sc5 2.068173 1_555
O17 Sm3 2.487029 1_455
O17 Sm2 2.487029 1_555
O18 Sc2 2.068173 1_555
O18 Sc3 2.068173 1_545
O18 Sm4 2.487029 1_555
O18 Sm5 2.487029 1_545
O19 Sc0 2.068173 1_555
O19 Sc1 2.068173 1_455
O19 Sm7 2.487029 1_555
O19 Sm6 2.487029 1_455
O20 Sc7 2.064691 1_555
O20 Sc6 2.064691 1_555
O20 Sm0 2.517675 1_555
O20 Sm1 2.517675 1_555
O21 Sc4 2.064691 1_455
O21 Sc5 2.064691 1_545
O21 Sm2 2.517675 1_555
O21 Sm3 2.517675 1_445
O22 Sc2 2.064691 1_555
O22 Sc3 2.064691 1_555
O22 Sm4 2.517675 1_555
O22 Sm5 2.517675 1_555
O23 Sc1 2.064691 1_455
O23 Sc0 2.064691 1_545
O23 Sm6 2.517675 1_445
O23 Sm7 2.517675 1_555
O24 Sc0 2.127900 1_555
O24 Sc1 2.127900 1_555
O24 Sm6 2.564033 1_555
O24 Sm7 2.564033 1_555
O25 Sc2 2.127900 1_555
O25 Sc3 2.127900 1_445
O25 Sm4 2.564033 1_455
O25 Sm5 2.564033 1_545
O26 Sc5 2.127900 1_555
O26 Sc4 2.127900 1_555
O26 Sm3 2.564033 1_555
O26 Sm2 2.564033 1_555
O27 Sc7 2.127900 1_555
O27 Sc6 2.127900 1_445
O27 Sm1 2.564033 1_455
O27 Sm0 2.564033 1_545
