# generated using pymatgen
data_Ca2B2O5
_symmetry_space_group_name_H-M   'P 1'
_cell_length_a   3.54803844
_cell_length_b   6.35296196
_cell_length_c   19.25918878
_cell_angle_alpha   90.00000000
_cell_angle_beta   90.00000000
_cell_angle_gamma   90.00000000
_symmetry_Int_Tables_number   1
_chemical_formula_structural   Ca2B2O5
_chemical_formula_sum   'Ca8 B8 O20'
_cell_volume   434.11277009
_cell_formula_units_Z   4
loop_
 _symmetry_equiv_pos_site_id
 _symmetry_equiv_pos_as_xyz
  1  'x, y, z'
loop_
 _atom_site_type_symbol
 _atom_site_label
 _atom_site_symmetry_multiplicity
 _atom_site_fract_x
 _atom_site_fract_y
 _atom_site_fract_z
 _atom_site_occupancy
  Ca  Ca0  1  0.70350619  0.70093021  0.28941741  1
  Ca  Ca1  1  0.79649381  0.29906979  0.78941741  1
  Ca  Ca2  1  0.20350619  0.79906979  0.71058259  1
  Ca  Ca3  1  0.29649381  0.20093021  0.21058259  1
  Ca  Ca4  1  0.20242713  0.94464137  0.43812101  1
  Ca  Ca5  1  0.29757287  0.05535863  0.93812101  1
  Ca  Ca6  1  0.70242713  0.55535863  0.56187899  1
  Ca  Ca7  1  0.79757287  0.44464137  0.06187899  1
  B  B0  1  0.81472758  0.21806812  0.34352609  1
  B  B1  1  0.68527242  0.78193188  0.84352609  1
  B  B2  1  0.31472758  0.28193188  0.65647391  1
  B  B3  1  0.18527242  0.71806812  0.15647391  1
  B  B4  1  0.85638829  0.00287613  0.08236824  1
  B  B5  1  0.64361171  0.99712387  0.58236824  1
  B  B6  1  0.35638829  0.49712387  0.91763176  1
  B  B7  1  0.14361171  0.50287613  0.41763176  1
  O  O0  1  0.20130907  0.55722992  0.48484470  1
  O  O1  1  0.29869093  0.44277008  0.98484470  1
  O  O2  1  0.70130907  0.94277008  0.51515530  1
  O  O3  1  0.79869093  0.05722992  0.01515530  1
  O  O4  1  0.20602574  0.64253103  0.36537486  1
  O  O5  1  0.29397426  0.35746897  0.86537486  1
  O  O6  1  0.70602574  0.85746897  0.63462514  1
  O  O7  1  0.79397426  0.14253103  0.13462514  1
  O  O8  1  0.68594002  0.01801890  0.35217887  1
  O  O9  1  0.81405998  0.98198110  0.85217887  1
  O  O10  1  0.18594002  0.48198110  0.64782113  1
  O  O11  1  0.31405998  0.51801890  0.14782113  1
  O  O12  1  0.99741999  0.30004895  0.40360644  1
  O  O13  1  0.50258001  0.69995105  0.90360644  1
  O  O14  1  0.49741999  0.19995105  0.59639356  1
  O  O15  1  0.00258001  0.80004895  0.09639356  1
  O  O16  1  0.79125954  0.32778648  0.28303230  1
  O  O17  1  0.70874046  0.67221352  0.78303230  1
  O  O18  1  0.29125954  0.17221352  0.71696770  1
  O  O19  1  0.20874046  0.82778648  0.21696770  1
loop_
_geom_bond_atom_site_label_1
_geom_bond_atom_site_label_2
_geom_bond_distance
_geom_bond_site_symmetry_2
Ca0 O4 2.322320 1_555
Ca0 O4 2.335937 1_655
Ca0 O8 2.350094 1_565
Ca0 O19 2.382859 1_555
Ca0 O16 2.394087 1_555
Ca0 O19 2.410353 1_655
Ca1 O5 2.322320 1_655
Ca1 O5 2.335937 1_555
Ca1 O9 2.350094 1_545
Ca1 O18 2.382859 1_655
Ca1 O17 2.394087 1_555
Ca1 O18 2.410353 1_555
Ca2 O6 2.322320 1_455
Ca2 O6 2.335937 1_555
Ca2 O10 2.350094 1_555
Ca2 O17 2.382859 1_455
Ca2 O18 2.394087 1_565
Ca2 O17 2.410353 1_555
Ca3 O7 2.322320 1_555
Ca3 O7 2.335937 1_455
Ca3 O11 2.350094 1_555
Ca3 O16 2.382859 1_555
Ca3 O19 2.394087 1_545
Ca3 O16 2.410353 1_455
Ca4 O2 2.309621 1_555
Ca4 O2 2.315707 1_455
Ca4 O4 2.376289 1_555
Ca4 O8 2.428978 1_565
Ca4 O12 2.463534 1_465
Ca4 O8 2.512973 1_465
Ca4 O0 2.620557 1_555
Ca5 O3 2.309621 1_456
Ca5 O3 2.315707 1_556
Ca5 O5 2.376289 1_555
Ca5 O9 2.428978 1_445
Ca5 O13 2.463534 1_545
Ca5 O9 2.512973 1_545
Ca5 O1 2.620557 1_555
Ca6 O0 2.309621 1_655
Ca6 O0 2.315707 1_555
Ca6 O6 2.376289 1_555
Ca6 O10 2.428978 1_655
Ca6 O14 2.463534 1_555
Ca6 O10 2.512973 1_555
Ca6 O2 2.620557 1_555
Ca7 O1 2.309621 1_554
Ca7 O1 2.315707 1_654
Ca7 O7 2.376289 1_555
Ca7 O11 2.428978 1_555
Ca7 O15 2.463534 1_655
Ca7 O11 2.512973 1_655
Ca7 O3 2.620557 1_555
B0 O16 1.360206 1_555
B0 O8 1.360797 1_555
B0 O12 1.424884 1_555
B1 O17 1.360206 1_555
B1 O9 1.360797 1_555
B1 O13 1.424884 1_555
B2 O18 1.360206 1_555
B2 O10 1.360797 1_555
B2 O14 1.424884 1_555
B3 O19 1.360206 1_555
B3 O11 1.360797 1_555
B3 O15 1.424884 1_555
B4 O3 1.355282 1_555
B4 O7 1.359814 1_555
B4 O15 1.415053 1_645
B5 O2 1.355282 1_555
B5 O6 1.359814 1_555
B5 O14 1.415053 1_565
B6 O1 1.355282 1_555
B6 O5 1.359814 1_555
B6 O13 1.415053 1_555
B7 O0 1.355282 1_555
B7 O4 1.359814 1_555
B7 O12 1.415053 1_455
