# generated using pymatgen
data_Sr2NO6
_symmetry_space_group_name_H-M   'P 1'
_cell_length_a   3.66019400
_cell_length_b   6.52767579
_cell_length_c   6.52767579
_cell_angle_alpha   119.99999786
_cell_angle_beta   90.00000000
_cell_angle_gamma   90.00000000
_symmetry_Int_Tables_number   1
_chemical_formula_structural   Sr2NO6
_chemical_formula_sum   'Sr2 N1 O6'
_cell_volume   135.06782238
_cell_formula_units_Z   1
loop_
 _symmetry_equiv_pos_site_id
 _symmetry_equiv_pos_as_xyz
  1  'x, y, z'
loop_
 _atom_site_type_symbol
 _atom_site_label
 _atom_site_symmetry_multiplicity
 _atom_site_fract_x
 _atom_site_fract_y
 _atom_site_fract_z
 _atom_site_occupancy
  Sr  Sr0  1  0.00000000  0.66666700  0.33333300  1
  Sr  Sr1  1  0.00000000  0.33333300  0.66666700  1
  N  N0  1  0.00000000  0.00000000  0.00000000  1
  O  O0  1  0.00000000  0.80593000  0.80593000  1
  O  O1  1  0.00000000  0.00000000  0.19407000  1
  O  O2  1  0.00000000  0.19407000  0.00000000  1
  O  O3  1  0.50000000  0.46295100  0.46295100  1
  O  O4  1  0.50000000  0.00000000  0.53704900  1
  O  O5  1  0.50000000  0.53704900  0.00000000  1
loop_
_geom_bond_atom_site_label_1
_geom_bond_atom_site_label_2
_geom_bond_distance
_geom_bond_site_symmetry_2
N0 O1 1.266826 1_555
N0 O2 1.266826 1_555
N0 O0 1.266826 1_544
O0 Sr0 2.745715 1_555
O0 Sr1 2.745715 1_555
O1 Sr0 2.745709 1_545
O1 Sr1 2.745713 1_555
O2 Sr1 2.745709 1_554
O2 Sr0 2.745713 1_555
O3 Sr1 2.637923 1_655
O3 Sr0 2.637923 1_655
O3 Sr0 2.637923 1_555
O3 Sr1 2.637923 1_555
O4 Sr1 2.637919 1_655
O4 Sr1 2.637919 1_555
O4 Sr0 2.637919 1_545
O4 Sr0 2.637919 1_645
O5 Sr0 2.637919 1_655
O5 Sr0 2.637919 1_555
O5 Sr1 2.637919 1_654
O5 Sr1 2.637919 1_554
