# generated using pymatgen
data_Ag5Te2Br
_symmetry_space_group_name_H-M   'P 1'
_cell_length_a   7.78133600
_cell_length_b   14.18392100
_cell_length_c   14.23949900
_cell_angle_alpha   90.00000000
_cell_angle_beta   90.00000000
_cell_angle_gamma   90.00000000
_symmetry_Int_Tables_number   1
_chemical_formula_structural   Ag5Te2Br
_chemical_formula_sum   'Ag40 Te16 Br8'
_cell_volume   1571.61144130
_cell_formula_units_Z   8
loop_
 _symmetry_equiv_pos_site_id
 _symmetry_equiv_pos_as_xyz
  1  'x, y, z'
loop_
 _atom_site_type_symbol
 _atom_site_label
 _atom_site_symmetry_multiplicity
 _atom_site_fract_x
 _atom_site_fract_y
 _atom_site_fract_z
 _atom_site_occupancy
  Ag  Ag0  1  0.20652800  0.35220000  0.70025200  1
  Ag  Ag1  1  0.79347200  0.64780000  0.29974800  1
  Ag  Ag2  1  0.70652800  0.14780000  0.79974800  1
  Ag  Ag3  1  0.29347200  0.85220000  0.20025200  1
  Ag  Ag4  1  0.43498300  0.25000000  0.57166300  1
  Ag  Ag5  1  0.56501700  0.75000000  0.42833700  1
  Ag  Ag6  1  0.93498300  0.25000000  0.92833700  1
  Ag  Ag7  1  0.06501700  0.75000000  0.07166300  1
  Ag  Ag8  1  0.13150100  0.07319200  0.92130200  1
  Ag  Ag9  1  0.86849900  0.92680800  0.07869800  1
  Ag  Ag10  1  0.63150100  0.42680800  0.57869800  1
  Ag  Ag11  1  0.36849900  0.57319200  0.42130200  1
  Ag  Ag12  1  0.00707800  0.85752700  0.89401000  1
  Ag  Ag13  1  0.99292200  0.14247300  0.10599000  1
  Ag  Ag14  1  0.50707800  0.64247300  0.60599000  1
  Ag  Ag15  1  0.49292200  0.35752700  0.39401000  1
  Ag  Ag16  1  0.35404700  0.75000000  0.87965100  1
  Ag  Ag17  1  0.64595300  0.25000000  0.12034900  1
  Ag  Ag18  1  0.85404700  0.75000000  0.62034900  1
  Ag  Ag19  1  0.14595300  0.25000000  0.37965100  1
  Ag  Ag20  1  0.00707800  0.64247300  0.89401000  1
  Ag  Ag21  1  0.99292200  0.35752700  0.10599000  1
  Ag  Ag22  1  0.50707800  0.85752700  0.60599000  1
  Ag  Ag23  1  0.49292200  0.14247300  0.39401000  1
  Ag  Ag24  1  0.62442500  0.60107100  0.92100700  1
  Ag  Ag25  1  0.37557500  0.39892900  0.07899300  1
  Ag  Ag26  1  0.12442500  0.89892900  0.57899300  1
  Ag  Ag27  1  0.87557500  0.10107100  0.42100700  1
  Ag  Ag28  1  0.12442500  0.60107100  0.57899300  1
  Ag  Ag29  1  0.87557500  0.39892900  0.42100700  1
  Ag  Ag30  1  0.62442500  0.89892900  0.92100700  1
  Ag  Ag31  1  0.37557500  0.10107100  0.07899300  1
  Ag  Ag32  1  0.70652800  0.35220000  0.79974800  1
  Ag  Ag33  1  0.29347200  0.64780000  0.20025200  1
  Ag  Ag34  1  0.20652800  0.14780000  0.70025200  1
  Ag  Ag35  1  0.79347200  0.85220000  0.29974800  1
  Ag  Ag36  1  0.13150100  0.42680800  0.92130200  1
  Ag  Ag37  1  0.86849900  0.57319200  0.07869800  1
  Ag  Ag38  1  0.63150100  0.07319200  0.57869800  1
  Ag  Ag39  1  0.36849900  0.92680800  0.42130200  1
  Te  Te0  1  0.21237300  0.41152800  0.50869500  1
  Te  Te1  1  0.78762700  0.58847200  0.49130500  1
  Te  Te2  1  0.71237300  0.08847200  0.99130500  1
  Te  Te3  1  0.28762700  0.91152800  0.00869500  1
  Te  Te4  1  0.21237300  0.08847200  0.50869500  1
  Te  Te5  1  0.78762700  0.91152800  0.49130500  1
  Te  Te6  1  0.71237300  0.41152800  0.99130500  1
  Te  Te7  1  0.28762700  0.58847200  0.00869500  1
  Te  Te8  1  0.24173600  0.75000000  0.68822300  1
  Te  Te9  1  0.75826400  0.25000000  0.31177700  1
  Te  Te10  1  0.74173600  0.75000000  0.81177700  1
  Te  Te11  1  0.25826400  0.25000000  0.18822300  1
  Te  Te12  1  0.78155300  0.25000000  0.63602400  1
  Te  Te13  1  0.21844700  0.75000000  0.36397600  1
  Te  Te14  1  0.28155300  0.25000000  0.86397600  1
  Te  Te15  1  0.71844700  0.75000000  0.13602400  1
  Br  Br0  1  0.47962400  0.49922900  0.74879100  1
  Br  Br1  1  0.52037600  0.50077100  0.25120900  1
  Br  Br2  1  0.97962400  0.00077100  0.75120900  1
  Br  Br3  1  0.02037600  0.99922900  0.24879100  1
  Br  Br4  1  0.47962400  0.00077100  0.74879100  1
  Br  Br5  1  0.52037600  0.99922900  0.25120900  1
  Br  Br6  1  0.97962400  0.49922900  0.75120900  1
  Br  Br7  1  0.02037600  0.50077100  0.24879100  1
loop_
_geom_bond_atom_site_label_1
_geom_bond_atom_site_label_2
_geom_bond_distance
_geom_bond_site_symmetry_2
Ag0 Te14 2.806658 1_555
Ag0 Br6 2.827188 1_455
Ag0 Te0 2.854893 1_555
Ag0 Ag4 2.934998 1_555
Ag0 Br0 3.056576 1_555
Ag1 Te15 2.806658 1_555
Ag1 Br7 2.827188 1_655
Ag1 Te1 2.854893 1_555
Ag1 Ag5 2.934998 1_555
Ag1 Br1 3.056576 1_555
Ag2 Te12 2.806658 1_555
Ag2 Br4 2.827188 1_555
Ag2 Te2 2.854893 1_555
Ag2 Ag6 2.934998 1_555
Ag2 Br2 3.056576 1_555
Ag3 Te13 2.806658 1_555
Ag3 Br5 2.827188 1_555
Ag3 Te3 2.854893 1_555
Ag3 Ag7 2.934998 1_555
Ag3 Br3 3.056576 1_555
Ag4 Te12 2.848249 1_555
Ag4 Te4 3.008923 1_555
Ag4 Te0 3.008923 1_555
Ag5 Te13 2.848249 1_555
Ag5 Te1 3.008923 1_555
Ag5 Te5 3.008923 1_555
Ag6 Te14 2.848249 1_655
Ag6 Ag8 2.938983 1_655
Ag6 Te6 3.008923 1_555
Ag6 Te2 3.008923 1_555
Ag7 Te15 2.848249 1_455
Ag7 Ag9 2.938983 1_455
Ag7 Te7 3.008923 1_555
Ag7 Te3 3.008923 1_555
Ag8 Te3 2.877934 1_546
Ag8 Br2 2.884113 1_455
Ag8 Te14 2.884242 1_555
Ag8 Te2 3.417187 1_455
Ag9 Te2 2.877934 1_564
Ag9 Br3 2.884113 1_655
Ag9 Te15 2.884242 1_555
Ag9 Te3 3.417187 1_655
Ag10 Te1 2.877934 1_555
Ag10 Br0 2.884113 1_555
Ag10 Te12 2.884242 1_555
Ag10 Ag4 2.938983 1_555
Ag10 Ag29 2.967392 1_555
Ag10 Te0 3.417187 1_555
Ag11 Te0 2.877934 1_555
Ag11 Br1 2.884113 1_555
Ag11 Te13 2.884242 1_555
Ag11 Ag5 2.938983 1_555
Ag11 Ag28 2.967392 1_555
Ag11 Te1 3.417187 1_555
Ag12 Te10 2.821398 1_455
Ag12 Te3 2.831826 1_556
Ag12 Br2 2.882441 1_465
Ag12 Ag7 2.988091 1_556
Ag12 Ag30 3.059158 1_455
Ag12 Ag16 3.107614 1_555
Ag13 Te11 2.821398 1_655
Ag13 Te2 2.831826 1_554
Ag13 Br3 2.882441 1_645
Ag13 Ag6 2.988091 1_554
Ag13 Ag31 3.059158 1_655
Ag13 Ag17 3.107614 1_555
Ag14 Te8 2.821398 1_555
Ag14 Te1 2.831826 1_555
Ag14 Br0 2.882441 1_555
Ag14 Ag5 2.988091 1_555
Ag14 Ag28 3.059158 1_555
Ag14 Ag18 3.107614 1_555
Ag15 Te9 2.821398 1_555
Ag15 Te0 2.831826 1_555
Ag15 Br1 2.882441 1_555
Ag15 Ag4 2.988091 1_555
Ag15 Ag29 3.059158 1_555
Ag15 Ag19 3.107614 1_555
Ag16 Te8 2.862508 1_555
Ag16 Te3 2.982071 1_556
Ag16 Te7 2.982071 1_556
Ag16 Ag24 3.038983 1_555
Ag16 Ag30 3.038983 1_555
Ag16 Ag20 3.107614 1_555
Ag16 Te10 3.167778 1_555
Ag17 Te9 2.862508 1_555
Ag17 Te6 2.982071 1_554
Ag17 Te2 2.982071 1_554
Ag17 Ag25 3.038983 1_555
Ag17 Ag31 3.038983 1_555
Ag17 Ag21 3.107614 1_555
Ag17 Te11 3.167778 1_555
Ag18 Te10 2.862508 1_555
Ag18 Te1 2.982071 1_555
Ag18 Te5 2.982071 1_555
Ag18 Ag26 3.038983 1_655
Ag18 Ag28 3.038983 1_655
Ag18 Ag22 3.107614 1_555
Ag18 Te8 3.167778 1_655
Ag19 Te11 2.862508 1_555
Ag19 Te0 2.982071 1_555
Ag19 Te4 2.982071 1_555
Ag19 Ag29 3.038983 1_455
Ag19 Ag27 3.038983 1_455
Ag19 Ag23 3.107614 1_555
Ag19 Te9 3.167778 1_455
Ag20 Te10 2.821398 1_455
Ag20 Te7 2.831826 1_556
Ag20 Br6 2.882441 1_455
Ag20 Ag7 2.988091 1_556
Ag20 Ag24 3.059158 1_455
Ag21 Te11 2.821398 1_655
Ag21 Te6 2.831826 1_554
Ag21 Br7 2.882441 1_655
Ag21 Ag6 2.988091 1_554
Ag21 Ag25 3.059158 1_655
Ag22 Te8 2.821398 1_555
Ag22 Te5 2.831826 1_555
Ag22 Br4 2.882441 1_565
Ag22 Ag5 2.988091 1_555
Ag22 Ag26 3.059158 1_555
Ag23 Te9 2.821398 1_555
Ag23 Te4 2.831826 1_555
Ag23 Br5 2.882441 1_545
Ag23 Ag4 2.988091 1_555
Ag23 Ag27 3.059158 1_555
Ag24 Te10 2.777535 1_555
Ag24 Te7 2.908486 1_556
Ag24 Te6 2.949269 1_555
Ag24 Ag37 2.967392 1_556
Ag24 Br0 3.061015 1_555
Ag25 Te11 2.777535 1_555
Ag25 Te6 2.908486 1_554
Ag25 Te7 2.949269 1_555
Ag25 Ag36 2.967392 1_554
Ag25 Br1 3.061015 1_555
Ag26 Te8 2.777535 1_555
Ag26 Te5 2.908486 1_455
Ag26 Te4 2.949269 1_565
Ag26 Ag39 2.967392 1_555
Ag26 Br2 3.061015 1_465
Ag27 Te9 2.777535 1_555
Ag27 Te4 2.908486 1_655
Ag27 Te5 2.949269 1_545
Ag27 Ag38 2.967392 1_555
Ag27 Br3 3.061015 1_645
Ag28 Te8 2.777535 1_555
Ag28 Te1 2.908486 1_455
Ag28 Te0 2.949269 1_555
Ag28 Br6 3.061015 1_455
Ag29 Te9 2.777535 1_555
Ag29 Te0 2.908486 1_655
Ag29 Te1 2.949269 1_555
Ag29 Br7 3.061015 1_655
Ag30 Te10 2.777535 1_555
Ag30 Te3 2.908486 1_556
Ag30 Te2 2.949269 1_565
Ag30 Ag9 2.967392 1_556
Ag30 Br4 3.061015 1_565
Ag31 Te11 2.777535 1_555
Ag31 Te2 2.908486 1_554
Ag31 Te3 2.949269 1_545
Ag31 Ag8 2.967392 1_554
Ag31 Br5 3.061015 1_545
Ag32 Te12 2.806658 1_555
Ag32 Br0 2.827188 1_555
Ag32 Te6 2.854893 1_555
Ag32 Ag6 2.934998 1_555
Ag32 Br6 3.056576 1_555
Ag33 Te13 2.806658 1_555
Ag33 Br1 2.827188 1_555
Ag33 Te7 2.854893 1_555
Ag33 Ag7 2.934998 1_555
Ag33 Br7 3.056576 1_555
Ag34 Te14 2.806658 1_555
Ag34 Br2 2.827188 1_455
Ag34 Te4 2.854893 1_555
Ag34 Ag4 2.934998 1_555
Ag34 Br4 3.056576 1_555
Ag35 Te15 2.806658 1_555
Ag35 Br3 2.827188 1_655
Ag35 Te5 2.854893 1_555
Ag35 Ag5 2.934998 1_555
Ag35 Br5 3.056576 1_555
Ag36 Te7 2.877934 1_556
Ag36 Br6 2.884113 1_455
Ag36 Te14 2.884242 1_555
Ag36 Ag6 2.938983 1_455
Ag36 Te6 3.417187 1_455
Ag37 Te6 2.877934 1_554
Ag37 Br7 2.884113 1_655
Ag37 Te15 2.884242 1_555
Ag37 Ag7 2.938983 1_655
Ag37 Te7 3.417187 1_655
Ag38 Te5 2.877934 1_545
Ag38 Br4 2.884113 1_555
Ag38 Te12 2.884242 1_555
Ag38 Ag4 2.938983 1_555
Ag38 Te4 3.417187 1_555
Ag39 Te4 2.877934 1_565
Ag39 Br5 2.884113 1_555
Ag39 Te13 2.884242 1_555
Ag39 Ag5 2.938983 1_555
Ag39 Te5 3.417187 1_555
