# generated using pymatgen
data_Li8MnFe7(BO3)8
_symmetry_space_group_name_H-M   'P 1'
_cell_length_a   5.21453300
_cell_length_b   9.05973433
_cell_length_c   10.36441110
_cell_angle_alpha   88.44881483
_cell_angle_beta   89.14962678
_cell_angle_gamma   89.91779140
_symmetry_Int_Tables_number   1
_chemical_formula_structural   Li8MnFe7(BO3)8
_chemical_formula_sum   'Li8 Mn1 Fe7 B8 O24'
_cell_volume   489.40484674
_cell_formula_units_Z   1
loop_
 _symmetry_equiv_pos_site_id
 _symmetry_equiv_pos_as_xyz
  1  'x, y, z'
loop_
 _atom_site_type_symbol
 _atom_site_label
 _atom_site_symmetry_multiplicity
 _atom_site_fract_x
 _atom_site_fract_y
 _atom_site_fract_z
 _atom_site_occupancy
  Li  Li0  1  0.14635000  0.17400400  0.66804000  1
  Li  Li1  1  0.18590700  0.16036600  0.16702500  1
  Li  Li2  1  0.32098000  0.33174700  0.41681300  1
  Li  Li3  1  0.33793100  0.32651300  0.91696500  1
  Li  Li4  1  0.64794300  0.67299700  0.66667200  1
  Li  Li5  1  0.68629100  0.66037400  0.16731400  1
  Li  Li6  1  0.81890900  0.83207000  0.41716100  1
  Li  Li7  1  0.83620000  0.82699200  0.91755100  1
  Mn  Mn0  1  0.16020600  0.83926100  0.63280600  1
  Fe  Fe0  1  0.18317000  0.49711300  0.13249900  1
  Fe  Fe1  1  0.33877600  0.66381800  0.38266400  1
  Fe  Fe2  1  0.32450300  0.99974100  0.88280100  1
  Fe  Fe3  1  0.65408600  0.33946000  0.63200000  1
  Fe  Fe4  1  0.68368400  0.99759600  0.13181600  1
  Fe  Fe5  1  0.83818300  0.16343200  0.38357100  1
  Fe  Fe6  1  0.82543700  0.49986100  0.88348000  1
  B  B0  1  0.17323700  0.83063400  0.12632300  1
  B  B1  1  0.15917900  0.50077500  0.62569200  1
  B  B2  1  0.33600900  0.99639600  0.37489200  1
  B  B3  1  0.32813400  0.66570900  0.87715500  1
  B  B4  1  0.67346500  0.33087100  0.12631400  1
  B  B5  1  0.65796200  0.00331300  0.62635300  1
  B  B6  1  0.83632400  0.49625100  0.37567500  1
  B  B7  1  0.82762800  0.16660000  0.87634000  1
  O  O0  1  0.09698900  0.48369100  0.34515900  1
  O  O1  1  0.09330100  0.17745100  0.86399100  1
  O  O2  1  0.17882600  0.79016700  0.84752600  1
  O  O3  1  0.19317700  0.87336700  0.41478800  1
  O  O4  1  0.21869200  0.13442600  0.36289900  1
  O  O5  1  0.21340700  0.53339400  0.91681000  1
  O  O6  1  0.27177500  0.36229700  0.61284200  1
  O  O7  1  0.29107000  0.96596600  0.09626700  1
  O  O8  1  0.30533300  0.62611300  0.59514100  1
  O  O9  1  0.31736700  0.70849200  0.16563100  1
  O  O10  1  0.40892200  0.31811500  0.11301000  1
  O  O11  1  0.40392400  0.01882700  0.66765400  1
  O  O12  1  0.59672100  0.98437700  0.34476000  1
  O  O13  1  0.59328800  0.67633200  0.86327700  1
  O  O14  1  0.67859500  0.29056500  0.84518600  1
  O  O15  1  0.69389300  0.37307200  0.41662800  1
  O  O16  1  0.71901400  0.63372900  0.36269600  1
  O  O17  1  0.71344800  0.03444400  0.91700000  1
  O  O18  1  0.79104500  0.46608000  0.09623400  1
  O  O19  1  0.76383400  0.86419500  0.61178500  1
  O  O20  1  0.80565200  0.12880000  0.59571200  1
  O  O21  1  0.81751000  0.20873500  0.16593100  1
  O  O22  1  0.90871200  0.81800100  0.11293800  1
  O  O23  1  0.90440900  0.51287700  0.66581100  1
loop_
_geom_bond_atom_site_label_1
_geom_bond_atom_site_label_2
_geom_bond_distance
_geom_bond_site_symmetry_2
Li0 O6 1.898513 1_555
Li0 O11 1.942983 1_555
Li0 O20 1.985990 1_455
Li0 O1 2.046669 1_555
Li1 O10 1.910610 1_555
Li1 O21 1.969881 1_455
Li1 O7 1.998907 1_545
Li1 O4 2.046996 1_555
Li2 O0 1.943325 1_555
Li2 O4 1.964228 1_555
Li2 O15 1.980771 1_555
Li2 O6 2.070051 1_555
Li3 O14 1.946115 1_555
Li3 O1 1.954049 1_555
Li3 O5 1.982666 1_555
Li3 O10 2.070092 1_556
Li4 O19 1.904939 1_555
Li4 O23 1.971734 1_555
Li4 O8 1.995085 1_555
Li4 O13 2.054364 1_555
Li5 O22 1.908909 1_555
Li5 O9 1.972156 1_555
Li5 O18 1.998775 1_555
Li5 O16 2.042490 1_555
Li6 O12 1.942842 1_555
Li6 O16 1.971102 1_555
Li6 O3 1.987367 1_655
Li6 O19 2.061670 1_555
Li7 O2 1.950133 1_655
Li7 O13 1.962556 1_555
Li7 O17 1.984489 1_565
Li7 O22 2.065001 1_556
Mn0 O19 2.092824 1_455
Mn0 O11 2.107958 1_565
Mn0 O8 2.117062 1_555
Mn0 O2 2.261099 1_555
Mn0 O3 2.276351 1_555
Fe0 O10 2.015343 1_555
Fe0 O9 2.078835 1_555
Fe0 O18 2.105113 1_455
Fe0 O0 2.242995 1_555
Fe0 O5 2.253934 1_554
Fe1 O16 2.009432 1_555
Fe1 O3 2.077020 1_555
Fe1 O0 2.111548 1_555
Fe1 O8 2.223696 1_555
Fe1 O9 2.279077 1_555
Fe2 O1 2.016937 1_565
Fe2 O2 2.089422 1_555
Fe2 O17 2.089772 1_565
Fe2 O7 2.229576 1_556
Fe2 O11 2.263992 1_565
Fe3 O6 2.016162 1_555
Fe3 O23 2.084303 1_555
Fe3 O20 2.105771 1_555
Fe3 O14 2.247196 1_555
Fe3 O15 2.251262 1_555
Fe4 O22 2.016812 1_555
Fe4 O21 2.078177 1_565
Fe4 O7 2.106915 1_555
Fe4 O17 2.245490 1_564
Fe4 O12 2.246584 1_555
Fe5 O4 2.010187 1_655
Fe5 O15 2.077078 1_555
Fe5 O12 2.105919 1_545
Fe5 O20 2.216598 1_555
Fe5 O21 2.285886 1_555
Fe6 O13 2.012267 1_555
Fe6 O5 2.081509 1_655
Fe6 O14 2.096001 1_555
Fe6 O18 2.222621 1_556
Fe6 O23 2.287189 1_555
B0 O9 1.391990 1_555
B0 O22 1.393560 1_455
B0 O7 1.397725 1_555
B1 O23 1.391223 1_455
B1 O6 1.393209 1_555
B1 O8 1.395126 1_555
B2 O3 1.391530 1_555
B2 O4 1.394678 1_565
B2 O12 1.395141 1_555
B3 O5 1.389922 1_555
B3 O13 1.391191 1_555
B3 O2 1.399175 1_555
B4 O21 1.392605 1_555
B4 O10 1.393653 1_555
B4 O18 1.396225 1_555
B5 O19 1.386345 1_545
B5 O11 1.394161 1_555
B5 O20 1.400772 1_555
B6 O16 1.390965 1_555
B6 O15 1.394469 1_555
B6 O0 1.396165 1_655
B7 O17 1.390285 1_555
B7 O1 1.392737 1_655
B7 O14 1.398157 1_555
