# generated using pymatgen
data_Ca2AlP3Pt7
_symmetry_space_group_name_H-M   'P 1'
_cell_length_a   13.80140024
_cell_length_b   13.80140024
_cell_length_c   13.80140024
_cell_angle_alpha   163.29772807
_cell_angle_beta   163.29772807
_cell_angle_gamma   23.70575738
_symmetry_Int_Tables_number   1
_chemical_formula_structural   Ca2AlP3Pt7
_chemical_formula_sum   'Ca2 Al1 P3 Pt7'
_cell_volume   217.08888484
_cell_formula_units_Z   1
loop_
 _symmetry_equiv_pos_site_id
 _symmetry_equiv_pos_as_xyz
  1  'x, y, z'
loop_
 _atom_site_type_symbol
 _atom_site_label
 _atom_site_symmetry_multiplicity
 _atom_site_fract_x
 _atom_site_fract_y
 _atom_site_fract_z
 _atom_site_occupancy
  Ca  Ca0  1  0.66609160  0.66609160  0.00000000  1
  Ca  Ca1  1  0.33390840  0.33390840  -0.00000000  1
  Al  Al0  1  0.50000000  0.50000000  -0.00000000  1
  P  P0  1  0.87818778  0.87818778  0.00000000  1
  P  P1  1  0.12181222  0.12181222  -0.00000000  1
  P  P2  1  0.25000000  0.75000000  0.50000000  1
  Pt  Pt0  1  0.42894045  0.92894045  0.50000000  1
  Pt  Pt1  1  0.92699307  0.42699307  0.50000000  1
  Pt  Pt2  1  0.57300693  0.07300693  0.50000000  1
  Pt  Pt3  1  0.07105955  0.57105955  0.50000000  1
  Pt  Pt4  1  0.79369371  0.79369371  0.00000000  1
  Pt  Pt5  1  0.20630629  0.20630629  -0.00000000  1
  Pt  Pt6  1  -0.00000000  -0.00000000  0.00000000  1
loop_
_geom_bond_atom_site_label_1
_geom_bond_atom_site_label_2
_geom_bond_distance
_geom_bond_site_symmetry_2
Ca0 P2 3.025901 1_554
Ca0 P2 3.025901 1_655
Ca0 Pt5 3.035833 1_554
Ca0 Pt5 3.035833 1_565
Ca0 Pt5 3.035833 1_666
Ca0 Pt5 3.035833 1_655
Ca0 P1 3.076836 1_554
Ca0 P1 3.076836 1_666
Ca0 P1 3.076836 1_565
Ca0 P1 3.076836 1_655
Ca0 Pt2 3.215793 1_554
Ca0 Pt2 3.215793 1_565
Ca0 Pt3 3.257094 1_655
Ca0 Pt3 3.257094 1_554
Ca0 Pt4 3.447077 1_555
Ca1 P2 3.025901 1_544
Ca1 P2 3.025901 1_555
Ca1 Pt4 3.035833 1_556
Ca1 Pt4 3.035833 1_444
Ca1 Pt4 3.035833 1_545
Ca1 Pt4 3.035833 1_455
Ca1 P0 3.076836 1_444
Ca1 P0 3.076836 1_545
Ca1 P0 3.076836 1_455
Ca1 P0 3.076836 1_556
Ca1 Pt1 3.215793 1_454
Ca1 Pt1 3.215793 1_555
Ca1 Pt0 3.257094 1_555
Ca1 Pt0 3.257094 1_544
Ca1 Pt5 3.447077 1_555
Al0 Pt3 2.775426 1_655
Al0 Pt3 2.775426 1_554
Al0 Pt0 2.775426 1_544
Al0 Pt0 2.775426 1_555
Al0 Pt1 2.812068 1_454
Al0 Pt2 2.812068 1_565
Al0 Pt1 2.812068 1_555
Al0 Pt2 2.812068 1_554
Al0 Pt6 2.834799 1_554
Al0 Pt6 2.834799 1_565
Al0 Pt6 2.834799 1_655
Al0 Pt6 2.834799 1_666
P0 Pt4 2.282545 1_555
P0 Pt1 2.399234 1_554
P0 Pt1 2.399234 1_565
P0 Pt0 2.428541 1_554
P0 Pt0 2.428541 1_655
P1 Pt5 2.282545 1_555
P1 Pt2 2.399234 1_555
P1 Pt2 2.399234 1_454
P1 Pt3 2.428541 1_555
P1 Pt3 2.428541 1_544
P2 Pt5 2.326215 1_566
P2 Pt5 2.326215 1_555
P2 Pt4 2.326215 1_455
P2 Pt4 2.326215 1_556
Pt0 Pt6 2.775426 1_666
Pt0 Pt6 2.775426 1_565
Pt0 Pt1 2.835287 1_566
Pt0 Pt1 2.835287 1_454
Pt0 Pt1 2.835287 1_555
Pt0 Pt1 2.835287 1_465
Pt1 Pt6 2.812068 1_666
Pt1 Pt6 2.812068 1_655
Pt2 Pt6 2.812068 1_656
Pt2 Pt6 2.812068 1_555
Pt2 Pt3 2.835287 1_645
Pt2 Pt3 2.835287 1_555
Pt2 Pt3 2.835287 1_544
Pt2 Pt3 2.835287 1_656
Pt3 Pt6 2.775426 1_566
Pt3 Pt6 2.775426 1_555
