# generated using pymatgen
data_LiFeSiO4
_symmetry_space_group_name_H-M   'P 1'
_cell_length_a   5.10620500
_cell_length_b   8.52557300
_cell_length_c   10.51099976
_cell_angle_alpha   52.05395444
_cell_angle_beta   90.00000000
_cell_angle_gamma   90.00000000
_symmetry_Int_Tables_number   1
_chemical_formula_structural   LiFeSiO4
_chemical_formula_sum   'Li4 Fe4 Si4 O16'
_cell_volume   360.84210253
_cell_formula_units_Z   4
loop_
 _symmetry_equiv_pos_site_id
 _symmetry_equiv_pos_as_xyz
  1  'x, y, z'
loop_
 _atom_site_type_symbol
 _atom_site_label
 _atom_site_symmetry_multiplicity
 _atom_site_fract_x
 _atom_site_fract_y
 _atom_site_fract_z
 _atom_site_occupancy
  Li  Li0  1  0.92937200  0.99522900  0.15688700  1
  Li  Li1  1  0.07062800  0.99522900  0.65688700  1
  Li  Li2  1  0.55533300  0.50068100  0.09979400  1
  Li  Li3  1  0.44466700  0.50068100  0.59979400  1
  Fe  Fe0  1  0.56793100  0.00344400  0.83951600  1
  Fe  Fe1  1  0.43206900  0.00344400  0.33951600  1
  Fe  Fe2  1  0.93398500  0.50149100  0.90445400  1
  Fe  Fe3  1  0.06601500  0.50149100  0.40445400  1
  Si  Si0  1  0.93140400  0.75068300  0.53035300  1
  Si  Si1  1  0.06859600  0.75068300  0.03035300  1
  Si  Si2  1  0.56788300  0.24928200  0.46917400  1
  Si  Si3  1  0.43211700  0.24928200  0.96917400  1
  O  O0  1  0.56677800  0.45033700  0.93026300  1
  O  O1  1  0.43322200  0.45033700  0.43026300  1
  O  O2  1  0.95931000  0.55082300  0.05712500  1
  O  O3  1  0.04069000  0.55082300  0.55712500  1
  O  O4  1  0.88710700  0.26154700  0.48392300  1
  O  O5  1  0.11289300  0.26154700  0.98392300  1
  O  O6  1  0.61155100  0.76631700  0.50386000  1
  O  O7  1  0.38844900  0.76631700  0.00386000  1
  O  O8  1  0.06742100  0.94635300  0.36564600  1
  O  O9  1  0.93257900  0.94635300  0.86564600  1
  O  O10  1  0.45388900  0.05464100  0.64407600  1
  O  O11  1  0.54611100  0.05464100  0.14407600  1
  O  O12  1  0.99303900  0.73461600  0.19068800  1
  O  O13  1  0.00696100  0.73461600  0.69068800  1
  O  O14  1  0.50424800  0.23455500  0.82424100  1
  O  O15  1  0.49575200  0.23455500  0.32424100  1
loop_
_geom_bond_atom_site_label_1
_geom_bond_atom_site_label_2
_geom_bond_distance
_geom_bond_site_symmetry_2
Li0 O11 2.005168 1_565
Li0 O12 2.048857 1_555
Li0 O5 2.064463 1_664
Li0 O8 2.088262 1_655
Li1 O10 2.005168 1_565
Li1 O13 2.048857 1_555
Li1 O4 2.064463 1_465
Li1 O9 2.088262 1_455
Li2 O7 2.015763 1_555
Li2 O15 2.055022 1_555
Li2 O0 2.074504 1_554
Li2 O2 2.098381 1_555
Li3 O6 2.015763 1_555
Li3 O14 2.055022 1_555
Li3 O1 2.074504 1_555
Li3 O3 2.098381 1_555
Fe0 O9 1.901278 1_545
Fe0 O7 1.901596 1_546
Fe0 O14 1.903878 1_555
Fe0 O10 1.909686 1_555
Fe1 O8 1.901278 1_545
Fe1 O6 1.901596 1_545
Fe1 O15 1.903878 1_555
Fe1 O11 1.909686 1_555
Fe2 O2 1.897050 1_556
Fe2 O5 1.901456 1_655
Fe2 O0 1.906316 1_555
Fe2 O13 1.909314 1_655
Fe3 O3 1.897050 1_555
Fe3 O4 1.901456 1_455
Fe3 O1 1.906316 1_555
Fe3 O12 1.909314 1_455
O0 Si3 1.648047 1_555
O1 Si2 1.648047 1_555
O2 Si1 1.644460 1_655
O3 Si0 1.644460 1_455
O4 Si2 1.646778 1_555
O5 Si3 1.646778 1_555
O6 Si0 1.648369 1_555
O7 Si1 1.648369 1_555
O8 Si0 1.646392 1_455
O9 Si1 1.646392 1_656
O10 Si2 1.649351 1_555
O11 Si3 1.649351 1_554
O12 Si1 1.650417 1_655
O13 Si0 1.650417 1_455
O14 Si3 1.645410 1_555
O15 Si2 1.645410 1_555
