# generated using pymatgen
data_SrBeSi
_symmetry_space_group_name_H-M   'P 1'
_cell_length_a   4.02837741
_cell_length_b   4.02837741
_cell_length_c   4.60231700
_cell_angle_alpha   90.00000000
_cell_angle_beta   90.00000000
_cell_angle_gamma   119.99999027
_symmetry_Int_Tables_number   1
_chemical_formula_structural   SrBeSi
_chemical_formula_sum   'Sr1 Be1 Si1'
_cell_volume   64.67962695
_cell_formula_units_Z   1
loop_
 _symmetry_equiv_pos_site_id
 _symmetry_equiv_pos_as_xyz
  1  'x, y, z'
loop_
 _atom_site_type_symbol
 _atom_site_label
 _atom_site_symmetry_multiplicity
 _atom_site_fract_x
 _atom_site_fract_y
 _atom_site_fract_z
 _atom_site_occupancy
  Sr  Sr0  1  0.33333300  0.66666700  0.00000000  1
  Be  Be0  1  0.66666700  0.33333300  0.50000000  1
  Si  Si0  1  0.00000000  0.00000000  0.50000000  1
loop_
_geom_bond_atom_site_label_1
_geom_bond_atom_site_label_2
_geom_bond_distance
_geom_bond_site_symmetry_2
Be0 Si0 2.325782 1_655
Be0 Si0 2.325786 1_555
Be0 Si0 2.325786 1_665
Be0 Sr0 3.271788 1_546
Be0 Sr0 3.271788 1_656
Be0 Sr0 3.271788 1_655
Be0 Sr0 3.271788 1_545
Be0 Sr0 3.271793 1_555
Be0 Sr0 3.271793 1_556
Si0 Sr0 3.271788 1_545
Si0 Sr0 3.271788 1_546
Si0 Sr0 3.271790 1_555
Si0 Sr0 3.271790 1_556
Si0 Sr0 3.271790 1_445
Si0 Sr0 3.271790 1_446
