# generated using pymatgen
data_YbGe2Pd
_symmetry_space_group_name_H-M   'P 1'
_cell_length_a   9.49064408
_cell_length_b   9.49064408
_cell_length_c   9.49064408
_cell_angle_alpha   153.03421899
_cell_angle_beta   123.27673001
_cell_angle_gamma   63.89861845
_symmetry_Int_Tables_number   1
_chemical_formula_structural   YbGe2Pd
_chemical_formula_sum   'Yb4 Ge8 Pd4'
_cell_volume   321.34962427
_cell_formula_units_Z   4
loop_
 _symmetry_equiv_pos_site_id
 _symmetry_equiv_pos_as_xyz
  1  'x, y, z'
loop_
 _atom_site_type_symbol
 _atom_site_label
 _atom_site_symmetry_multiplicity
 _atom_site_fract_x
 _atom_site_fract_y
 _atom_site_fract_z
 _atom_site_occupancy
  Yb  Yb0  1  0.25879900  0.00000000  0.25879900  1
  Yb  Yb1  1  0.74120100  0.00000000  0.74120100  1
  Yb  Yb2  1  0.29686500  0.79686500  0.50000000  1
  Yb  Yb3  1  0.70313500  0.20313500  0.50000000  1
  Ge  Ge0  1  0.92015300  0.42015300  0.50000000  1
  Ge  Ge1  1  0.07984700  0.57984700  0.50000000  1
  Ge  Ge2  1  0.42472300  0.42472300  0.00000000  1
  Ge  Ge3  1  0.57527700  0.57527700  0.00000000  1
  Ge  Ge4  1  0.04691100  0.19390700  0.85300400  1
  Ge  Ge5  1  0.95308900  0.80609300  0.14699600  1
  Ge  Ge6  1  0.34090300  0.19390700  0.14699600  1
  Ge  Ge7  1  0.65909700  0.80609300  0.85300400  1
  Pd  Pd0  1  0.10501700  0.35205500  0.75296200  1
  Pd  Pd1  1  0.89498300  0.64794500  0.24703800  1
  Pd  Pd2  1  0.59909300  0.35205500  0.24703800  1
  Pd  Pd3  1  0.40090700  0.64794500  0.75296200  1
loop_
_geom_bond_atom_site_label_1
_geom_bond_atom_site_label_2
_geom_bond_distance
_geom_bond_site_symmetry_2
Ge0 Pd0 2.530898 1_655
Ge0 Pd2 2.530898 1_555
Ge0 Yb1 3.463473 1_554
Ge0 Yb0 3.463473 1_655
Ge0 Yb1 3.463473 1_565
Ge0 Yb0 3.463473 1_666
Ge0 Yb3 3.495278 1_555
Ge1 Pd3 2.530898 1_555
Ge1 Pd1 2.530898 1_455
Ge1 Yb0 3.463473 1_555
Ge1 Yb1 3.463473 1_454
Ge1 Yb1 3.463473 1_465
Ge1 Yb0 3.463473 1_566
Ge1 Yb2 3.495278 1_555
Ge2 Ge3 2.424813 1_555
Ge2 Pd0 2.516248 1_554
Ge2 Pd2 2.516248 1_555
Ge2 Yb2 3.022755 1_544
Ge2 Yb2 3.022755 1_555
Ge2 Yb1 3.331122 1_554
Ge2 Yb0 3.331122 1_554
Ge2 Yb1 3.331122 1_565
Ge2 Yb0 3.331122 1_565
Ge3 Pd3 2.516248 1_554
Ge3 Pd1 2.516248 1_555
Ge3 Yb3 3.022755 1_554
Ge3 Yb3 3.022755 1_565
Ge3 Yb1 3.331122 1_554
Ge3 Yb1 3.331122 1_565
Ge3 Yb0 3.331122 1_565
Ge3 Yb0 3.331122 1_554
Ge4 Pd1 2.521380 1_445
Ge4 Pd1 2.521380 1_456
Ge4 Ge6 2.650861 1_556
Ge4 Pd0 2.702135 1_555
Ge4 Yb2 3.066424 1_545
Ge4 Yb2 3.066424 1_556
Ge4 Yb3 3.186427 1_455
Ge4 Yb1 3.281728 1_455
Ge5 Pd0 2.521380 1_665
Ge5 Pd0 2.521380 1_654
Ge5 Ge7 2.650861 1_554
Ge5 Pd1 2.702135 1_555
Ge5 Yb3 3.066424 1_554
Ge5 Yb3 3.066424 1_565
Ge5 Yb2 3.186427 1_655
Ge5 Yb0 3.281728 1_665
Ge6 Pd3 2.521380 1_544
Ge6 Pd3 2.521380 1_555
Ge6 Pd2 2.702135 1_555
Ge6 Yb2 3.066424 1_544
Ge6 Yb2 3.066424 1_555
Ge6 Yb3 3.186427 1_555
Ge6 Yb0 3.281728 1_555
Ge7 Pd2 2.521380 1_555
Ge7 Pd2 2.521380 1_566
Ge7 Pd3 2.702135 1_555
Ge7 Yb3 3.066424 1_555
Ge7 Yb3 3.066424 1_566
Ge7 Yb2 3.186427 1_555
Ge7 Yb1 3.281728 1_565
Pd0 Yb0 3.252217 1_555
Pd0 Yb0 3.252217 1_566
Pd0 Yb2 3.263167 1_556
Pd0 Yb2 3.263167 1_545
Pd0 Yb3 3.309879 1_455
Pd1 Yb1 3.252217 1_554
Pd1 Yb1 3.252217 1_565
Pd1 Yb3 3.263167 1_554
Pd1 Yb3 3.263167 1_565
Pd1 Yb2 3.309879 1_655
Pd2 Yb1 3.252217 1_554
Pd2 Yb1 3.252217 1_565
Pd2 Yb2 3.263167 1_555
Pd2 Yb2 3.263167 1_544
Pd2 Yb3 3.309879 1_555
Pd3 Yb0 3.252217 1_555
Pd3 Yb0 3.252217 1_566
Pd3 Yb3 3.263167 1_555
Pd3 Yb3 3.263167 1_566
Pd3 Yb2 3.309879 1_555
