# generated using pymatgen
data_CaMg5P3HCO16
_symmetry_space_group_name_H-M   'P 1'
_cell_length_a   6.38573500
_cell_length_b   8.77356020
_cell_length_c   10.93310806
_cell_angle_alpha   94.93399089
_cell_angle_beta   100.99475019
_cell_angle_gamma   93.15584247
_symmetry_Int_Tables_number   1
_chemical_formula_structural   CaMg5P3HCO16
_chemical_formula_sum   'Ca2 Mg10 P6 H2 C2 O32'
_cell_volume   597.46181872
_cell_formula_units_Z   2
loop_
 _symmetry_equiv_pos_site_id
 _symmetry_equiv_pos_as_xyz
  1  'x, y, z'
loop_
 _atom_site_type_symbol
 _atom_site_label
 _atom_site_symmetry_multiplicity
 _atom_site_fract_x
 _atom_site_fract_y
 _atom_site_fract_z
 _atom_site_occupancy
  Ca  Ca0  1  0.12248600  0.31770000  0.56167700  1
  Ca  Ca1  1  0.87751400  0.68230000  0.43832300  1
  Mg  Mg0  1  0.09050500  0.81871100  0.16974300  1
  Mg  Mg1  1  0.90949500  0.18128900  0.83025700  1
  Mg  Mg2  1  0.32621900  0.52702800  0.11350000  1
  Mg  Mg3  1  0.67378100  0.47297200  0.88650000  1
  Mg  Mg4  1  0.31075200  0.03600600  0.40042300  1
  Mg  Mg5  1  0.68924800  0.96399400  0.59957700  1
  Mg  Mg6  1  0.58650300  0.35230500  0.31725100  1
  Mg  Mg7  1  0.41349700  0.64769500  0.68274900  1
  Mg  Mg8  1  0.67472800  0.13620200  0.04768400  1
  Mg  Mg9  1  0.32527200  0.86379800  0.95231600  1
  P  P0  1  0.79951200  0.03269400  0.32980500  1
  P  P1  1  0.20048800  0.96730600  0.67019500  1
  P  P2  1  0.21474800  0.15677800  0.10876400  1
  P  P3  1  0.78525200  0.84322200  0.89123600  1
  P  P4  1  0.36944600  0.66945900  0.42544000  1
  P  P5  1  0.63055400  0.33054100  0.57456000  1
  H  H0  1  0.50923300  0.78843900  0.16381500  1
  H  H1  1  0.49076700  0.21156100  0.83618500  1
  C  C0  1  0.15252900  0.48235100  0.83641200  1
  C  C1  1  0.84747100  0.51764900  0.16358800  1
  O  O0  1  0.00946700  0.11060700  0.41220400  1
  O  O1  1  0.99053300  0.88939300  0.58779600  1
  O  O2  1  0.43875400  0.26681100  0.46507000  1
  O  O3  1  0.56124600  0.73318900  0.53493000  1
  O  O4  1  0.36705300  0.00329900  0.58809700  1
  O  O5  1  0.63294700  0.99670100  0.41190300  1
  O  O6  1  0.32497700  0.31457000  0.17133500  1
  O  O7  1  0.67502300  0.68543000  0.82866500  1
  O  O8  1  0.23946200  0.79560700  0.36283400  1
  O  O9  1  0.76053800  0.20439300  0.63716600  1
  O  O10  1  0.21923200  0.57916700  0.49579900  1
  O  O11  1  0.78076800  0.42083300  0.50420100  1
  O  O12  1  0.46328200  0.57192500  0.32752100  1
  O  O13  1  0.53671800  0.42807500  0.67247900  1
  O  O14  1  0.70353500  0.15022300  0.23802100  1
  O  O15  1  0.29646500  0.84977700  0.76197900  1
  O  O16  1  0.67650000  0.49265900  0.07766700  1
  O  O17  1  0.32350000  0.50734100  0.92233300  1
  O  O18  1  0.16198700  0.12319700  0.73851700  1
  O  O19  1  0.83801300  0.87680300  0.26148300  1
  O  O20  1  0.20651100  0.04675400  0.21108400  1
  O  O21  1  0.79348900  0.95324600  0.78891600  1
  O  O22  1  0.02012500  0.58242200  0.13830900  1
  O  O23  1  0.97987500  0.41757800  0.86169100  1
  O  O24  1  0.36920600  0.75493200  0.11237200  1
  O  O25  1  0.63079400  0.24506800  0.88762800  1
  O  O26  1  0.15685700  0.51850700  0.72529700  1
  O  O27  1  0.84314300  0.48149300  0.27470300  1
  O  O28  1  0.34868400  0.08984200  0.01607000  1
  O  O29  1  0.65131600  0.91015800  0.98393100  1
  O  O30  1  0.98843000  0.17609800  0.03280300  1
  O  O31  1  0.01157000  0.82390200  0.96719700  1
loop_
_geom_bond_atom_site_label_1
_geom_bond_atom_site_label_2
_geom_bond_distance
_geom_bond_site_symmetry_2
Ca0 O0 2.321154 1_555
Ca0 O26 2.370167 1_555
Ca0 O11 2.401549 1_455
Ca0 O2 2.495106 1_555
Ca0 O10 2.541801 1_555
Ca0 O18 2.672583 1_555
Ca0 O9 2.761760 1_455
Ca0 O13 2.774189 1_555
Ca1 O1 2.321154 1_555
Ca1 O27 2.370167 1_555
Ca1 O10 2.401549 1_655
Ca1 O3 2.495106 1_555
Ca1 O11 2.541801 1_555
Ca1 O19 2.672583 1_555
Ca1 O8 2.761760 1_655
Ca1 O12 2.774189 1_555
Mg0 O20 2.075955 1_565
Mg0 O22 2.081770 1_555
Mg0 O24 2.085426 1_555
Mg0 O19 2.117746 1_455
Mg0 O8 2.175187 1_555
Mg0 O31 2.180385 1_554
Mg1 O21 2.075955 1_545
Mg1 O23 2.081770 1_555
Mg1 O25 2.085426 1_555
Mg1 O18 2.117746 1_655
Mg1 O9 2.175187 1_555
Mg1 O30 2.180385 1_556
Mg2 O24 2.004675 1_555
Mg2 O6 2.019273 1_555
Mg2 O17 2.078983 1_554
Mg2 O22 2.101075 1_555
Mg2 O12 2.327816 1_555
Mg2 O16 2.374002 1_555
Mg3 O25 2.004675 1_555
Mg3 O7 2.019273 1_555
Mg3 O16 2.078983 1_556
Mg3 O23 2.101075 1_555
Mg3 O13 2.327816 1_555
Mg3 O17 2.374002 1_555
Mg4 O20 2.062048 1_555
Mg4 O4 2.062278 1_555
Mg4 O5 2.086826 1_545
Mg4 O0 2.089292 1_555
Mg4 O8 2.120964 1_545
Mg4 O2 2.149284 1_555
Mg5 O21 2.062048 1_555
Mg5 O5 2.062278 1_555
Mg5 O4 2.086826 1_565
Mg5 O1 2.089292 1_555
Mg5 O9 2.120964 1_565
Mg5 O3 2.149284 1_555
Mg6 O6 2.067774 1_555
Mg6 O27 2.088977 1_555
Mg6 O12 2.123186 1_555
Mg6 O14 2.140316 1_555
Mg6 O2 2.185603 1_555
Mg6 O11 2.194863 1_555
Mg7 O7 2.067774 1_555
Mg7 O26 2.088977 1_555
Mg7 O13 2.123186 1_555
Mg7 O15 2.140316 1_555
Mg7 O3 2.185603 1_555
Mg7 O10 2.194863 1_555
Mg8 O29 2.032519 1_544
Mg8 O25 2.045224 1_554
Mg8 O14 2.046188 1_555
Mg8 O30 2.053967 1_555
Mg8 O28 2.056171 1_555
Mg9 O28 2.032522 1_566
Mg9 O24 2.045224 1_556
Mg9 O15 2.046188 1_555
Mg9 O31 2.053967 1_555
Mg9 O29 2.056170 1_555
H0 O24 0.976262 1_555
H1 O25 0.976262 1_555
C0 O26 1.286600 1_555
C0 O17 1.292092 1_555
C0 O23 1.299675 1_455
C1 O27 1.286600 1_555
C1 O16 1.292092 1_555
C1 O22 1.299675 1_655
O0 P0 1.552040 1_455
O1 P1 1.552040 1_655
O2 P5 1.579847 1_555
O3 P4 1.579847 1_555
O4 P1 1.553271 1_545
O5 P0 1.553271 1_565
O6 P2 1.557605 1_555
O7 P3 1.557605 1_555
O8 P4 1.548278 1_555
O9 P5 1.548278 1_555
O10 P4 1.562695 1_555
O11 P5 1.562695 1_555
O12 P4 1.543040 1_555
O13 P5 1.543040 1_555
O14 P0 1.568074 1_555
O15 P1 1.568074 1_555
O18 P1 1.555764 1_545
O19 P0 1.555764 1_565
O20 P2 1.545515 1_555
O21 P3 1.545515 1_555
O28 P2 1.544985 1_555
O29 P3 1.544993 1_555
O30 P2 1.549336 1_655
O31 P3 1.549336 1_455
