# generated using pymatgen
data_Pr3Au
_symmetry_space_group_name_H-M   'P 1'
_cell_length_a   7.11036053
_cell_length_b   7.11036053
_cell_length_c   5.38590400
_cell_angle_alpha   90.00000000
_cell_angle_beta   90.00000000
_cell_angle_gamma   120.00000491
_symmetry_Int_Tables_number   1
_chemical_formula_structural   Pr3Au
_chemical_formula_sum   'Pr6 Au2'
_cell_volume   235.81556234
_cell_formula_units_Z   2
loop_
 _symmetry_equiv_pos_site_id
 _symmetry_equiv_pos_as_xyz
  1  'x, y, z'
loop_
 _atom_site_type_symbol
 _atom_site_label
 _atom_site_symmetry_multiplicity
 _atom_site_fract_x
 _atom_site_fract_y
 _atom_site_fract_z
 _atom_site_occupancy
  Pr  Pr0  1  0.17704500  0.35409000  0.25000000  1
  Pr  Pr1  1  0.64591000  0.82295500  0.25000000  1
  Pr  Pr2  1  0.17704500  0.82295500  0.25000000  1
  Pr  Pr3  1  0.82295500  0.64591000  0.75000000  1
  Pr  Pr4  1  0.35409000  0.17704500  0.75000000  1
  Pr  Pr5  1  0.82295500  0.17704500  0.75000000  1
  Au  Au0  1  0.33333300  0.66666700  0.75000000  1
  Au  Au1  1  0.66666700  0.33333300  0.25000000  1
loop_
_geom_bond_atom_site_label_1
_geom_bond_atom_site_label_2
_geom_bond_distance
_geom_bond_site_symmetry_2
Pr0 Pr1 3.333799 1_555
Pr0 Pr2 3.333799 1_555
Pr0 Pr5 3.464986 1_455
Pr0 Pr5 3.464986 1_454
Pr0 Pr4 3.464986 1_555
Pr0 Pr4 3.464986 1_554
Pr0 Pr1 3.776561 1_445
Pr0 Pr2 3.776561 1_545
Pr1 Pr2 3.333799 1_555
Pr1 Pr5 3.464986 1_565
Pr1 Pr5 3.464986 1_564
Pr1 Pr3 3.464986 1_554
Pr1 Pr3 3.464986 1_555
Pr1 Pr2 3.776561 1_655
Pr2 Pr3 3.464986 1_454
Pr2 Pr4 3.464986 1_565
Pr2 Pr3 3.464986 1_455
Pr2 Pr4 3.464986 1_564
Pr3 Pr4 3.333799 1_555
Pr3 Pr5 3.333799 1_555
Pr3 Pr4 3.776561 1_665
Pr3 Pr5 3.776561 1_565
Pr4 Pr5 3.333799 1_555
Pr4 Pr5 3.776561 1_455
Au0 Pr2 3.310093 1_555
Au0 Pr2 3.310093 1_556
Au0 Pr0 3.310096 1_555
Au0 Pr0 3.310096 1_556
Au0 Pr1 3.310096 1_555
Au0 Pr1 3.310096 1_556
Au0 Pr4 3.557474 1_565
Au0 Pr3 3.557474 1_455
Au0 Pr5 3.557477 1_565
Au0 Pr5 3.557477 1_455
Au0 Pr3 3.557481 1_555
Au0 Pr4 3.557481 1_555
Au1 Pr5 3.310093 1_555
Au1 Pr5 3.310093 1_554
Au1 Pr4 3.310096 1_555
Au1 Pr4 3.310096 1_554
Au1 Pr3 3.310096 1_555
Au1 Pr3 3.310096 1_554
Au1 Pr0 3.557474 1_655
Au1 Pr1 3.557474 1_545
Au1 Pr2 3.557477 1_655
Au1 Pr2 3.557477 1_545
Au1 Pr1 3.557481 1_555
Au1 Pr0 3.557481 1_555
