# generated using pymatgen
data_MgTi2O4
_symmetry_space_group_name_H-M   'P 1'
_cell_length_a   7.63517810
_cell_length_b   7.63517810
_cell_length_c   9.63444063
_cell_angle_alpha   51.23972896
_cell_angle_beta   51.23972896
_cell_angle_gamma   21.98626026
_symmetry_Int_Tables_number   1
_chemical_formula_structural   MgTi2O4
_chemical_formula_sum   'Mg2 Ti4 O8'
_cell_volume   161.95815693
_cell_formula_units_Z   2
loop_
 _symmetry_equiv_pos_site_id
 _symmetry_equiv_pos_as_xyz
  1  'x, y, z'
loop_
 _atom_site_type_symbol
 _atom_site_label
 _atom_site_symmetry_multiplicity
 _atom_site_fract_x
 _atom_site_fract_y
 _atom_site_fract_z
 _atom_site_occupancy
  Mg  Mg0  1  0.66420200  0.66420200  0.32005100  1
  Mg  Mg1  1  0.33579800  0.33579800  0.67994900  1
  Ti  Ti0  1  0.37013900  0.37013900  0.94902700  1
  Ti  Ti1  1  0.85052700  0.85052700  0.31931000  1
  Ti  Ti2  1  0.14947300  0.14947300  0.68069000  1
  Ti  Ti3  1  0.62986100  0.62986100  0.05097300  1
  O  O0  1  0.15200000  0.15200000  0.88706000  1
  O  O1  1  0.53331100  0.53331100  0.76796600  1
  O  O2  1  0.46668900  0.46668900  0.23203400  1
  O  O3  1  0.84800000  0.84800000  0.11294000  1
  O  O4  1  0.83286700  0.83286700  0.83754500  1
  O  O5  1  0.21106300  0.21106300  0.42310700  1
  O  O6  1  0.16713300  0.16713300  0.16245500  1
  O  O7  1  0.78893700  0.78893700  0.57689300  1
loop_
_geom_bond_atom_site_label_1
_geom_bond_atom_site_label_2
_geom_bond_distance
_geom_bond_site_symmetry_2
Mg0 O6 2.083758 1_655
Mg0 O6 2.083758 1_565
Mg0 O5 2.118660 1_655
Mg0 O5 2.118660 1_565
Mg0 O3 2.135438 1_555
Mg1 O4 2.083758 1_455
Mg1 O4 2.083758 1_545
Mg1 O7 2.118660 1_455
Mg1 O7 2.118660 1_545
Mg1 O0 2.135438 1_555
O0 Ti2 2.012630 1_555
O0 Ti3 2.013796 1_546
O0 Ti3 2.013796 1_456
O1 Ti0 1.892970 1_555
O1 Ti2 1.997834 1_565
O1 Ti2 1.997834 1_655
O2 Ti3 1.892970 1_555
O2 Ti1 1.997834 1_545
O2 Ti1 1.997834 1_455
O3 Ti1 2.012630 1_555
O3 Ti0 2.013796 1_654
O3 Ti0 2.013796 1_564
O4 Ti0 2.085916 1_565
O4 Ti0 2.085916 1_655
O4 Ti3 2.346722 1_556
O5 Ti2 2.022023 1_555
O5 Ti1 2.196303 1_455
O5 Ti1 2.196303 1_545
O6 Ti3 2.085916 1_545
O6 Ti3 2.085916 1_455
O6 Ti0 2.346722 1_554
O7 Ti1 2.022023 1_555
O7 Ti2 2.196303 1_565
O7 Ti2 2.196303 1_655
