# generated using pymatgen
data_CSN2
_symmetry_space_group_name_H-M   'P 1'
_cell_length_a   3.81229300
_cell_length_b   6.65210500
_cell_length_c   12.20252503
_cell_angle_alpha   90.00000000
_cell_angle_beta   93.01654209
_cell_angle_gamma   90.00000000
_symmetry_Int_Tables_number   1
_chemical_formula_structural   CSN2
_chemical_formula_sum   'C4 S4 N8'
_cell_volume   309.02448497
_cell_formula_units_Z   4
loop_
 _symmetry_equiv_pos_site_id
 _symmetry_equiv_pos_as_xyz
  1  'x, y, z'
loop_
 _atom_site_type_symbol
 _atom_site_label
 _atom_site_symmetry_multiplicity
 _atom_site_fract_x
 _atom_site_fract_y
 _atom_site_fract_z
 _atom_site_occupancy
  C  C0  1  0.87725200  0.36109600  0.60321400  1
  C  C1  1  0.12274800  0.86109600  0.89678600  1
  C  C2  1  0.12274800  0.63890400  0.39678600  1
  C  C3  1  0.87725200  0.13890400  0.10321400  1
  S  S0  1  0.97064300  0.59336800  0.68630400  1
  S  S1  1  0.02935700  0.09336800  0.81369600  1
  S  S2  1  0.02935700  0.40663200  0.31369600  1
  S  S3  1  0.97064300  0.90663200  0.18630400  1
  N  N0  1  0.67767900  0.73911300  0.67388300  1
  N  N1  1  0.32232100  0.23911300  0.82611700  1
  N  N2  1  0.32232100  0.26088700  0.32611700  1
  N  N3  1  0.67767900  0.76088700  0.17388300  1
  N  N4  1  0.82459400  0.21472500  0.55093800  1
  N  N5  1  0.17540600  0.71472500  0.94906200  1
  N  N6  1  0.17540600  0.78527500  0.44906200  1
  N  N7  1  0.82459400  0.28527500  0.05093800  1
loop_
_geom_bond_atom_site_label_1
_geom_bond_atom_site_label_2
_geom_bond_distance
_geom_bond_site_symmetry_2
C0 N4 1.175492 1_555
C0 S0 1.871925 1_555
C1 N5 1.175492 1_555
C1 S1 1.871925 1_565
C2 N6 1.175492 1_555
C2 S2 1.871925 1_555
C3 N7 1.175492 1_555
C3 S3 1.871925 1_545
N0 S0 1.480707 1_555
N1 S1 1.480707 1_555
N2 S2 1.480707 1_555
N3 S3 1.480707 1_555
