# generated using pymatgen
data_Mn2InCu4Sn
_symmetry_space_group_name_H-M   'P 1'
_cell_length_a   7.60355081
_cell_length_b   7.60355081
_cell_length_c   7.60355088
_cell_angle_alpha   33.53217547
_cell_angle_beta   33.53217547
_cell_angle_gamma   33.53217148
_symmetry_Int_Tables_number   1
_chemical_formula_structural   Mn2InCu4Sn
_chemical_formula_sum   'Mn2 In1 Cu4 Sn1'
_cell_volume   119.47851168
_cell_formula_units_Z   1
loop_
 _symmetry_equiv_pos_site_id
 _symmetry_equiv_pos_as_xyz
  1  'x, y, z'
loop_
 _atom_site_type_symbol
 _atom_site_label
 _atom_site_symmetry_multiplicity
 _atom_site_fract_x
 _atom_site_fract_y
 _atom_site_fract_z
 _atom_site_occupancy
  Mn  Mn0  1  0.25017700  0.25017700  0.25017700  1
  Mn  Mn1  1  0.74982300  0.74982300  0.74982300  1
  In  In0  1  0.00000000  0.00000000  0.00000000  1
  Cu  Cu0  1  0.62506500  0.62506500  0.62506500  1
  Cu  Cu1  1  0.12495500  0.12495500  0.12495500  1
  Cu  Cu2  1  0.87504500  0.87504500  0.87504500  1
  Cu  Cu3  1  0.37493500  0.37493500  0.37493500  1
  Sn  Sn0  1  0.50000000  0.50000000  0.50000000  1
loop_
_geom_bond_atom_site_label_1
_geom_bond_atom_site_label_2
_geom_bond_distance
_geom_bond_site_symmetry_2
Mn0 Sn0 3.104926 1_545
Mn0 Sn0 3.104926 1_455
Mn0 Sn0 3.104926 1_554
Mn1 Sn0 3.104926 1_565
Mn1 Sn0 3.104926 1_655
Mn1 Sn0 3.104926 1_556
Cu0 Mn1 2.683301 1_555
Cu0 Mn0 2.685747 1_655
Cu0 Mn0 2.685747 1_565
Cu0 Mn0 2.685748 1_556
Cu0 In0 2.686084 1_566
Cu0 In0 2.686084 1_656
Cu0 In0 2.686084 1_665
Cu0 Sn0 2.689904 1_555
Cu1 Sn0 2.686873 1_455
Cu1 Sn0 2.686873 1_545
Cu1 Sn0 2.686873 1_554
Cu1 Mn1 2.687498 1_544
Cu1 Mn1 2.687498 1_454
Cu1 Mn1 2.687499 1_445
Cu1 In0 2.687538 1_555
Cu1 Mn0 2.693280 1_555
Cu2 Sn0 2.686873 1_655
Cu2 Sn0 2.686873 1_565
Cu2 Sn0 2.686873 1_556
Cu2 Mn0 2.687498 1_566
Cu2 Mn0 2.687498 1_656
Cu2 Mn0 2.687499 1_665
Cu2 In0 2.687538 1_666
Cu2 Mn1 2.693280 1_555
Cu3 Mn0 2.683301 1_555
Cu3 Mn1 2.685747 1_545
Cu3 Mn1 2.685747 1_455
Cu3 Mn1 2.685748 1_554
Cu3 In0 2.686084 1_655
Cu3 In0 2.686084 1_565
Cu3 In0 2.686084 1_556
Cu3 Sn0 2.689904 1_555
