# generated using pymatgen
data_ScMnO3
_symmetry_space_group_name_H-M   'P 1'
_cell_length_a   5.11673391
_cell_length_b   5.42253500
_cell_length_c   7.90438429
_cell_angle_alpha   89.99940596
_cell_angle_beta   94.15850618
_cell_angle_gamma   90.00043305
_symmetry_Int_Tables_number   1
_chemical_formula_structural   ScMnO3
_chemical_formula_sum   'Sc4 Mn4 O12'
_cell_volume   218.73503434
_cell_formula_units_Z   4
loop_
 _symmetry_equiv_pos_site_id
 _symmetry_equiv_pos_as_xyz
  1  'x, y, z'
loop_
 _atom_site_type_symbol
 _atom_site_label
 _atom_site_symmetry_multiplicity
 _atom_site_fract_x
 _atom_site_fract_y
 _atom_site_fract_z
 _atom_site_occupancy
  Sc  Sc0  1  0.02472600  0.92939500  0.23036400  1
  Sc  Sc1  1  0.52472100  0.57060800  0.73036600  1
  Sc  Sc2  1  0.97528200  0.07060600  0.76963300  1
  Sc  Sc3  1  0.47527900  0.42939700  0.26963700  1
  Mn  Mn0  1  0.00000100  0.50000700  0.50000300  1
  Mn  Mn1  1  0.49999900  0.00000200  0.00000000  1
  Mn  Mn2  1  0.50000500  0.00000200  0.49999500  1
  Mn  Mn3  1  0.99999900  0.49999700  0.99999800  1
  O  O0  1  0.20485500  0.18126200  0.40019900  1
  O  O1  1  0.70483900  0.31873500  0.90019900  1
  O  O2  1  0.79514600  0.81873500  0.59980400  1
  O  O3  1  0.29514500  0.68126700  0.09980100  1
  O  O4  1  0.84795000  0.57756600  0.27311300  1
  O  O5  1  0.34794300  0.92242600  0.77310200  1
  O  O6  1  0.15205500  0.42242200  0.72689800  1
  O  O7  1  0.65206400  0.07756800  0.22689500  1
  O  O8  1  0.31880000  0.68738000  0.44707000  1
  O  O9  1  0.81879600  0.81261500  0.94707500  1
  O  O10  1  0.68119600  0.31262900  0.55292400  1
  O  O11  1  0.18119900  0.18738000  0.05292600  1
loop_
_geom_bond_atom_site_label_1
_geom_bond_atom_site_label_2
_geom_bond_distance
_geom_bond_site_symmetry_2
Mn0 O4 1.948376 1_455
Mn0 O6 1.948447 1_555
Mn0 O8 1.991780 1_555
Mn0 O10 1.991794 1_455
Mn0 O2 2.197284 1_455
Mn0 O0 2.197363 1_555
Mn1 O7 1.948449 1_555
Mn1 O5 1.948467 1_544
Mn1 O11 1.991800 1_555
Mn1 O9 1.991810 1_544
Mn1 O1 2.197241 1_554
Mn1 O3 2.197286 1_545
Mn2 O0 1.922567 1_555
Mn2 O2 1.922588 1_545
Mn2 O10 1.962678 1_555
Mn2 O8 1.962682 1_545
Mn2 O7 2.384483 1_555
Mn2 O5 2.384550 1_545
Mn3 O3 1.922596 1_656
Mn3 O1 1.922616 1_555
Mn3 O11 1.962655 1_656
Mn3 O9 1.962660 1_555
Mn3 O6 2.384496 1_655
Mn3 O4 2.384586 1_556
O0 Sc0 2.082665 1_545
O0 Sc3 2.235422 1_555
O1 Sc1 2.082645 1_555
O1 Sc2 2.235508 1_555
O2 Sc2 2.082664 1_565
O2 Sc1 2.235400 1_555
O3 Sc3 2.082682 1_555
O3 Sc0 2.235412 1_555
O4 Sc3 2.067553 1_555
O4 Sc0 2.148566 1_655
O5 Sc2 2.067543 1_465
O5 Sc1 2.148517 1_555
O6 Sc1 2.067569 1_555
O6 Sc2 2.148476 1_455
O7 Sc0 2.067533 1_645
O7 Sc3 2.148594 1_555
O8 Sc3 2.174388 1_555
O8 Sc1 2.486619 1_555
O8 Sc0 2.558639 1_555
O9 Sc2 2.174452 1_565
O9 Sc0 2.486606 1_656
O9 Sc1 2.558641 1_555
O10 Sc1 2.174413 1_555
O10 Sc3 2.486545 1_555
O10 Sc2 2.558709 1_555
O11 Sc0 2.174382 1_545
O11 Sc2 2.486602 1_454
O11 Sc3 2.558692 1_555
