# generated using pymatgen
data_Mg6VNiO8
_symmetry_space_group_name_H-M   'P 1'
_cell_length_a   8.51873728
_cell_length_b   4.27535582
_cell_length_c   4.27535582
_cell_angle_alpha   90.00000000
_cell_angle_beta   90.00000000
_cell_angle_gamma   90.00000000
_symmetry_Int_Tables_number   1
_chemical_formula_structural   Mg6VNiO8
_chemical_formula_sum   'Mg6 V1 Ni1 O8'
_cell_volume   155.71116530
_cell_formula_units_Z   1
loop_
 _symmetry_equiv_pos_site_id
 _symmetry_equiv_pos_as_xyz
  1  'x, y, z'
loop_
 _atom_site_type_symbol
 _atom_site_label
 _atom_site_symmetry_multiplicity
 _atom_site_fract_x
 _atom_site_fract_y
 _atom_site_fract_z
 _atom_site_occupancy
  Mg  Mg0  1  0.50000000  0.00000000  0.00000000  1
  Mg  Mg1  1  0.50000000  0.50000000  0.50000000  1
  Mg  Mg2  1  0.24996593  0.00000000  0.50000000  1
  Mg  Mg3  1  0.75003407  0.00000000  0.50000000  1
  Mg  Mg4  1  0.24996593  0.50000000  0.00000000  1
  Mg  Mg5  1  0.75003407  0.50000000  0.00000000  1
  V  V0  1  0.00000000  0.50000000  0.50000000  1
  Ni  Ni0  1  0.00000000  0.00000000  0.00000000  1
  O  O0  1  0.24983394  0.00000000  0.00000000  1
  O  O1  1  0.75016606  0.00000000  0.00000000  1
  O  O2  1  0.25548709  0.50000000  0.50000000  1
  O  O3  1  0.74451291  0.50000000  0.50000000  1
  O  O4  1  0.00000000  0.00000000  0.50000000  1
  O  O5  1  0.50000000  0.00000000  0.50000000  1
  O  O6  1  0.00000000  0.50000000  0.00000000  1
  O  O7  1  0.50000000  0.50000000  0.00000000  1
loop_
_geom_bond_atom_site_label_1
_geom_bond_atom_site_label_2
_geom_bond_distance
_geom_bond_site_symmetry_2
Mg0 O1 2.131099 1_555
Mg0 O0 2.131099 1_555
Mg0 O7 2.137678 1_555
Mg0 O5 2.137678 1_554
Mg0 O5 2.137678 1_555
Mg0 O7 2.137678 1_545
Mg1 O2 2.082941 1_555
Mg1 O3 2.082941 1_555
Mg1 O5 2.137678 1_555
Mg1 O5 2.137678 1_565
Mg1 O7 2.137678 1_555
Mg1 O7 2.137678 1_556
Mg2 O4 2.129394 1_555
Mg2 O5 2.129975 1_555
Mg2 O0 2.137678 1_556
Mg2 O0 2.137678 1_555
Mg2 O2 2.138195 1_545
Mg2 O2 2.138195 1_555
Mg3 O4 2.129394 1_655
Mg3 O5 2.129975 1_555
Mg3 O1 2.137678 1_555
Mg3 O1 2.137678 1_556
Mg3 O3 2.138195 1_545
Mg3 O3 2.138195 1_555
Mg4 O6 2.129394 1_555
Mg4 O7 2.129975 1_555
Mg4 O0 2.137678 1_565
Mg4 O0 2.137678 1_555
Mg4 O2 2.138195 1_554
Mg4 O2 2.138195 1_555
Mg5 O6 2.129394 1_655
Mg5 O7 2.129975 1_555
Mg5 O1 2.137678 1_555
Mg5 O1 2.137678 1_565
Mg5 O3 2.138195 1_554
Mg5 O3 2.138195 1_555
Ni0 O0 2.128270 1_555
Ni0 O1 2.128270 1_455
Ni0 O6 2.137678 1_545
Ni0 O6 2.137678 1_555
Ni0 O4 2.137678 1_555
Ni0 O4 2.137678 1_554
O2 V0 2.176427 1_555
O3 V0 2.176427 1_655
O4 V0 2.137678 1_555
O4 V0 2.137678 1_545
O6 V0 2.137678 1_555
O6 V0 2.137678 1_554
