# generated using pymatgen
data_PuF4
_symmetry_space_group_name_H-M   'P 1'
_cell_length_a   8.27437288
_cell_length_b   8.27586510
_cell_length_c   8.25470223
_cell_angle_alpha   63.01161587
_cell_angle_beta   63.01544773
_cell_angle_gamma   80.74492236
_symmetry_Int_Tables_number   1
_chemical_formula_structural   PuF4
_chemical_formula_sum   'Pu6 F24'
_cell_volume   448.14134376
_cell_formula_units_Z   6
loop_
 _symmetry_equiv_pos_site_id
 _symmetry_equiv_pos_as_xyz
  1  'x, y, z'
loop_
 _atom_site_type_symbol
 _atom_site_label
 _atom_site_symmetry_multiplicity
 _atom_site_fract_x
 _atom_site_fract_y
 _atom_site_fract_z
 _atom_site_occupancy
  Pu  Pu0  1  0.63330996  0.77839452  0.66988994  1
  Pu  Pu1  1  0.36712490  0.22366265  0.33130194  1
  Pu  Pu2  1  0.22358663  0.36706124  0.83135935  1
  Pu  Pu3  1  0.77846284  0.63335391  0.16984186  1
  Pu  Pu4  1  0.78751403  0.21345487  0.75073243  1
  Pu  Pu5  1  0.21341805  0.78749453  0.25087010  1
  F  F0  1  0.31124230  0.25083949  0.61017687  1
  F  F1  1  0.68818209  0.74942175  0.39039975  1
  F  F2  1  0.74986444  0.68861263  0.88998675  1
  F  F3  1  0.25052763  0.31091420  0.11045992  1
  F  F4  1  0.82236492  0.93726208  0.96098827  1
  F  F5  1  0.17919586  0.06224243  0.03751429  1
  F  F6  1  0.06236245  0.17849346  0.53799386  1
  F  F7  1  0.93706648  0.82282759  0.46072147  1
  F  F8  1  0.40213781  0.59794087  0.75050420  1
  F  F9  1  0.59810209  0.40231794  0.24999876  1
  F  F10  1  0.49867591  -0.00165086  0.49985189  1
  F  F11  1  -0.00140370  0.49879494  -0.00011052  1
  F  F12  1  0.50241481  0.25925428  0.77970355  1
  F  F13  1  0.49833226  0.73879698  0.21930374  1
  F  F14  1  0.73922478  0.49847636  0.71913465  1
  F  F15  1  0.25881521  0.50228807  0.28006013  1
  F  F16  1  0.40580485  0.81158778  0.93122267  1
  F  F17  1  0.59263770  0.18830125  0.06871813  1
  F  F18  1  0.18792723  0.59278364  0.56897160  1
  F  F19  1  0.81226124  0.40587147  0.43080153  1
  F  F20  1  0.72663707  0.03355518  0.64346508  1
  F  F21  1  0.27262110  0.96808219  0.35631648  1
  F  F22  1  0.96812502  0.27231153  0.85658526  1
  F  F23  1  0.03346403  0.72725303  0.14323604  1
loop_
_geom_bond_atom_site_label_1
_geom_bond_atom_site_label_2
_geom_bond_distance
_geom_bond_site_symmetry_2
F0 Pu2 2.225410 1_555
F0 Pu1 2.243707 1_555
F1 Pu3 2.217581 1_555
F1 Pu0 2.258947 1_555
F2 Pu0 2.217529 1_555
F2 Pu3 2.259250 1_556
F3 Pu1 2.225468 1_555
F3 Pu2 2.243801 1_554
F4 Pu4 2.227462 1_565
F4 Pu3 2.284726 1_556
F5 Pu5 2.227756 1_545
F5 Pu2 2.286712 1_554
F6 Pu4 2.228178 1_455
F6 Pu1 2.286846 1_555
F7 Pu5 2.228216 1_655
F7 Pu0 2.283935 1_555
F8 Pu2 2.265998 1_555
F8 Pu0 2.278960 1_555
F9 Pu1 2.265702 1_555
F9 Pu3 2.279096 1_555
F10 Pu1 2.228098 1_555
F10 Pu0 2.229897 1_545
F11 Pu2 2.227793 1_554
F11 Pu3 2.229908 1_455
F12 Pu4 2.246889 1_555
F12 Pu2 2.256344 1_555
F13 Pu5 2.240601 1_555
F13 Pu3 2.261590 1_555
F14 Pu4 2.241568 1_555
F14 Pu0 2.261709 1_555
F15 Pu5 2.247459 1_555
F15 Pu1 2.256802 1_555
F16 Pu0 2.226880 1_555
F16 Pu5 2.312749 1_556
F17 Pu1 2.235037 1_555
F17 Pu4 2.303125 1_554
F18 Pu2 2.235690 1_555
F18 Pu5 2.302700 1_555
F19 Pu3 2.226961 1_555
F19 Pu4 2.312880 1_555
F20 Pu0 2.248706 1_545
F20 Pu4 2.257627 1_555
F21 Pu5 2.243735 1_555
F21 Pu1 2.262086 1_565
F22 Pu4 2.244902 1_555
F22 Pu2 2.260934 1_655
F23 Pu3 2.248573 1_455
F23 Pu5 2.257545 1_555
