# generated using pymatgen
data_Mg2Cd
_symmetry_space_group_name_H-M   'P 1'
_cell_length_a   11.78526824
_cell_length_b   11.78526824
_cell_length_c   14.80664835
_cell_angle_alpha   76.59321817
_cell_angle_beta   76.59321817
_cell_angle_gamma   31.14460307
_symmetry_Int_Tables_number   1
_chemical_formula_structural   Mg2Cd
_chemical_formula_sum   'Mg32 Cd16'
_cell_volume   1032.36737283
_cell_formula_units_Z   16
loop_
 _symmetry_equiv_pos_site_id
 _symmetry_equiv_pos_as_xyz
  1  'x, y, z'
loop_
 _atom_site_type_symbol
 _atom_site_label
 _atom_site_symmetry_multiplicity
 _atom_site_fract_x
 _atom_site_fract_y
 _atom_site_fract_z
 _atom_site_occupancy
  Mg  Mg0_0  1  0.00137452  0.00137452  0.00142000  1
  Mg  Mg0_1  1  0.00137453  0.00137453  0.50142000  1
  Mg  Mg0_2  1  0.00137452  0.50137453  0.00142000  1
  Mg  Mg0_3  1  0.00137453  0.50137452  0.50142000  1
  Mg  Mg0_4  1  0.50137453  0.00137453  0.00142000  1
  Mg  Mg0_5  1  0.50137453  0.00137453  0.50142000  1
  Mg  Mg0_6  1  0.50137453  0.50137453  0.00142000  1
  Mg  Mg0_7  1  0.50137452  0.50137452  0.50142000  1
  Mg  Mg1_0  1  0.16727869  0.16727870  0.16782910  1
  Mg  Mg1_1  1  0.16727870  0.16727870  0.66782910  1
  Mg  Mg1_2  1  0.16727869  0.66727869  0.16782910  1
  Mg  Mg1_3  1  0.16727869  0.66727869  0.66782910  1
  Mg  Mg1_4  1  0.66727869  0.16727869  0.16782910  1
  Mg  Mg1_5  1  0.66727870  0.16727870  0.66782910  1
  Mg  Mg1_6  1  0.66727869  0.66727869  0.16782910  1
  Mg  Mg1_7  1  0.66727869  0.66727869  0.66782910  1
  Mg  Mg2_0  1  0.33111757  0.33111757  0.33140065  1
  Mg  Mg2_1  1  0.33111757  0.33111757  0.83140065  1
  Mg  Mg2_2  1  0.33111757  0.83111757  0.33140065  1
  Mg  Mg2_3  1  0.33111757  0.83111757  0.83140065  1
  Mg  Mg2_4  1  0.83111757  0.33111757  0.33140065  1
  Mg  Mg2_5  1  0.83111757  0.33111757  0.83140065  1
  Mg  Mg2_6  1  0.83111757  0.83111757  0.33140065  1
  Mg  Mg2_7  1  0.83111757  0.83111757  0.83140066  1
  Mg  Mg3_0  1  0.13966268  0.13966268  0.47081609  1
  Mg  Mg3_1  1  0.13966268  0.13966268  0.97081609  1
  Mg  Mg3_2  1  0.13966268  0.63966268  0.47081609  1
  Mg  Mg3_3  1  0.13966268  0.63966268  0.97081609  1
  Mg  Mg3_4  1  0.63966268  0.13966268  0.47081609  1
  Mg  Mg3_5  1  0.63966268  0.13966268  0.97081609  1
  Mg  Mg3_6  1  0.63966268  0.63966268  0.47081609  1
  Mg  Mg3_7  1  0.63966268  0.63966268  0.97081609  1
  Cd  Cd0_0  1  0.30683854  0.30683854  0.13767589  1
  Cd  Cd0_1  1  0.30683854  0.30683854  0.63767589  1
  Cd  Cd0_2  1  0.30683854  0.80683854  0.13767589  1
  Cd  Cd0_3  1  0.30683854  0.80683854  0.63767589  1
  Cd  Cd0_4  1  0.80683854  0.30683854  0.13767589  1
  Cd  Cd0_5  1  0.80683854  0.30683854  0.63767589  1
  Cd  Cd0_6  1  0.80683854  0.80683854  0.13767589  1
  Cd  Cd0_7  1  0.80683854  0.80683854  0.63767589  1
  Cd  Cd1_0  1  0.47039548  0.47039548  0.30752475  1
  Cd  Cd1_1  1  0.47039548  0.47039548  0.80752475  1
  Cd  Cd1_2  1  0.47039548  0.97039548  0.30752475  1
  Cd  Cd1_3  1  0.47039549  0.97039548  0.80752475  1
  Cd  Cd1_4  1  0.97039548  0.47039548  0.30752475  1
  Cd  Cd1_5  1  0.97039548  0.47039549  0.80752475  1
  Cd  Cd1_6  1  0.97039548  0.97039548  0.30752475  1
  Cd  Cd1_7  1  0.97039548  0.97039548  0.80752475  1
loop_
_geom_bond_atom_site_label_1
_geom_bond_atom_site_label_2
_geom_bond_distance
_geom_bond_site_symmetry_2
Mg0_0 Mg3_1 3.062553 1_554
Mg0_0 Mg3_5 3.113623 1_454
Mg0_0 Mg3_3 3.113623 1_544
Mg0_0 Mg2_5 3.150211 1_454
Mg0_0 Mg2_3 3.150211 1_544
Mg0_0 Mg1_4 3.155085 1_455
Mg0_0 Mg1_2 3.155085 1_545
Mg0_0 Mg0_6 3.163804 1_545
Mg0_0 Mg0_6 3.163804 1_455
Mg0_1 Mg3_0 3.062553 1_555
Mg0_1 Mg3_4 3.113623 1_455
Mg0_1 Mg3_2 3.113623 1_545
Mg0_1 Mg2_4 3.150211 1_455
Mg0_1 Mg2_2 3.150211 1_545
Mg0_1 Mg1_5 3.155085 1_455
Mg0_1 Mg1_3 3.155085 1_545
Mg0_1 Mg0_7 3.163804 1_455
Mg0_1 Mg0_7 3.163804 1_545
Mg0_2 Mg3_3 3.062553 1_554
Mg0_2 Mg3_1 3.113623 1_554
Mg0_2 Mg3_7 3.113623 1_454
Mg0_2 Mg2_7 3.150211 1_454
Mg0_2 Mg2_1 3.150211 1_554
Mg0_2 Mg1_0 3.155085 1_555
Mg0_2 Mg1_6 3.155085 1_455
Mg0_2 Mg0_4 3.163804 1_555
Mg0_2 Mg0_4 3.163804 1_465
Mg0_3 Mg3_2 3.062553 1_555
Mg0_3 Mg3_0 3.113623 1_555
Mg0_3 Mg3_6 3.113623 1_455
Mg0_3 Mg2_6 3.150211 1_455
Mg0_3 Mg2_0 3.150211 1_555
Mg0_3 Mg1_1 3.155085 1_555
Mg0_3 Mg1_7 3.155085 1_455
Mg0_3 Mg0_5 3.163804 1_555
Mg0_3 Mg0_5 3.163804 1_465
Mg0_4 Mg3_5 3.062553 1_554
Mg0_4 Mg3_1 3.113623 1_554
Mg0_4 Mg3_7 3.113623 1_544
Mg0_4 Mg2_7 3.150211 1_544
Mg0_4 Mg2_1 3.150211 1_554
Mg0_4 Mg1_0 3.155085 1_555
Mg0_4 Mg1_6 3.155085 1_545
Mg0_5 Mg3_4 3.062553 1_555
Mg0_5 Mg3_0 3.113623 1_555
Mg0_5 Mg3_6 3.113623 1_545
Mg0_5 Mg2_0 3.150211 1_555
Mg0_5 Mg2_6 3.150211 1_545
Mg0_5 Mg1_1 3.155085 1_555
Mg0_5 Mg1_7 3.155085 1_545
Mg0_6 Mg3_7 3.062553 1_554
Mg0_6 Mg3_3 3.113623 1_554
Mg0_6 Mg3_5 3.113623 1_554
Mg0_6 Mg2_5 3.150211 1_554
Mg0_6 Mg2_3 3.150211 1_554
Mg0_6 Mg1_4 3.155085 1_555
Mg0_6 Mg1_2 3.155085 1_555
Mg0_7 Mg3_6 3.062553 1_555
Mg0_7 Mg3_4 3.113623 1_555
Mg0_7 Mg3_2 3.113623 1_555
Mg0_7 Mg2_4 3.150211 1_555
Mg0_7 Mg2_2 3.150211 1_555
Mg0_7 Mg1_5 3.155085 1_555
Mg0_7 Mg1_3 3.155085 1_555
Mg1_0 Mg3_1 3.127808 1_554
Mg1_0 Mg2_4 3.148731 1_455
Mg1_0 Mg2_2 3.148731 1_545
Mg1_0 Mg1_6 3.163804 1_455
Mg1_0 Mg1_6 3.163804 1_545
Mg1_1 Mg3_0 3.127808 1_555
Mg1_1 Mg2_5 3.148731 1_455
Mg1_1 Mg2_3 3.148731 1_545
Mg1_1 Mg1_7 3.163804 1_545
Mg1_1 Mg1_7 3.163804 1_455
Mg1_2 Mg3_3 3.127808 1_554
Mg1_2 Mg2_6 3.148731 1_455
Mg1_2 Mg2_0 3.148731 1_555
Mg1_2 Mg1_4 3.163804 1_555
Mg1_2 Mg1_4 3.163804 1_465
Mg1_3 Mg3_2 3.127808 1_555
Mg1_3 Mg2_1 3.148731 1_555
Mg1_3 Mg2_7 3.148731 1_455
Mg1_3 Mg1_5 3.163804 1_555
Mg1_3 Mg1_5 3.163804 1_465
Mg1_4 Mg3_5 3.127808 1_554
Mg1_4 Mg2_0 3.148731 1_555
Mg1_4 Mg2_6 3.148731 1_545
Mg1_5 Mg3_4 3.127808 1_555
Mg1_5 Mg2_1 3.148731 1_555
Mg1_5 Mg2_7 3.148731 1_545
Mg1_6 Mg3_7 3.127808 1_554
Mg1_6 Mg2_4 3.148731 1_555
Mg1_6 Mg2_2 3.148731 1_555
Mg1_7 Mg3_6 3.127808 1_555
Mg1_7 Mg2_5 3.148731 1_555
Mg1_7 Mg2_3 3.148731 1_555
Mg2_0 Mg3_4 3.138727 1_555
Mg2_0 Mg3_2 3.138727 1_555
Mg2_0 Mg2_6 3.163804 1_455
Mg2_0 Mg2_6 3.163804 1_545
Mg2_1 Mg3_3 3.138727 1_555
Mg2_1 Mg3_5 3.138727 1_555
Mg2_1 Mg2_7 3.163804 1_545
Mg2_1 Mg2_7 3.163804 1_455
Mg2_2 Mg3_6 3.138727 1_555
Mg2_2 Mg3_0 3.138727 1_565
Mg2_2 Mg2_4 3.163804 1_555
Mg2_2 Mg2_4 3.163804 1_465
Mg2_3 Mg3_7 3.138727 1_555
Mg2_3 Mg3_1 3.138727 1_565
Mg2_3 Mg2_5 3.163804 1_555
Mg2_3 Mg2_5 3.163804 1_465
Mg2_4 Mg3_6 3.138727 1_555
Mg2_4 Mg3_0 3.138727 1_655
Mg2_5 Mg3_7 3.138727 1_555
Mg2_5 Mg3_1 3.138727 1_655
Mg2_6 Mg3_4 3.138727 1_565
Mg2_6 Mg3_2 3.138727 1_655
Mg2_7 Mg3_3 3.138727 1_655
Mg2_7 Mg3_5 3.138727 1_565
Mg3_0 Mg3_6 3.163804 1_545
Mg3_0 Mg3_6 3.163804 1_455
Mg3_1 Mg3_7 3.163804 1_455
Mg3_1 Mg3_7 3.163804 1_545
Mg3_2 Mg3_4 3.163804 1_555
Mg3_2 Mg3_4 3.163804 1_465
Mg3_3 Mg3_5 3.163804 1_555
Mg3_3 Mg3_5 3.163804 1_465
Cd0_0 Mg2_0 3.048426 1_555
Cd0_0 Mg0_4 3.062953 1_555
Cd0_0 Mg0_2 3.062953 1_555
Cd0_0 Mg1_4 3.086851 1_555
Cd0_0 Mg1_2 3.086851 1_555
Cd0_0 Mg1_0 3.091806 1_555
Cd0_0 Mg3_3 3.147423 1_554
Cd0_0 Mg3_5 3.147423 1_554
Cd0_0 Cd0_6 3.163804 1_455
Cd0_0 Cd0_6 3.163804 1_545
Cd0_0 Cd1_2 3.209855 1_545
Cd0_0 Cd1_4 3.209855 1_455
Cd0_1 Mg2_1 3.048426 1_555
Cd0_1 Mg0_5 3.062953 1_555
Cd0_1 Mg0_3 3.062953 1_555
Cd0_1 Mg1_3 3.086851 1_555
Cd0_1 Mg1_5 3.086851 1_555
Cd0_1 Mg1_1 3.091806 1_555
Cd0_1 Mg3_4 3.147423 1_555
Cd0_1 Mg3_2 3.147423 1_555
Cd0_1 Cd0_7 3.163804 1_545
Cd0_1 Cd0_7 3.163804 1_455
Cd0_1 Cd1_5 3.209855 1_455
Cd0_1 Cd1_3 3.209855 1_545
Cd0_2 Mg2_2 3.048426 1_555
Cd0_2 Mg0_6 3.062953 1_555
Cd0_2 Mg0_0 3.062953 1_565
Cd0_2 Mg1_6 3.086851 1_555
Cd0_2 Mg1_0 3.086851 1_565
Cd0_2 Mg1_2 3.091806 1_555
Cd0_2 Mg3_7 3.147423 1_554
Cd0_2 Mg3_1 3.147423 1_564
Cd0_2 Cd0_4 3.163804 1_555
Cd0_2 Cd0_4 3.163804 1_465
Cd0_2 Cd1_0 3.209855 1_555
Cd0_2 Cd1_6 3.209855 1_455
Cd0_3 Mg2_3 3.048426 1_555
Cd0_3 Mg0_1 3.062953 1_565
Cd0_3 Mg0_7 3.062953 1_555
Cd0_3 Mg1_7 3.086851 1_555
Cd0_3 Mg1_1 3.086851 1_565
Cd0_3 Mg1_3 3.091806 1_555
Cd0_3 Mg3_6 3.147423 1_555
Cd0_3 Mg3_0 3.147423 1_565
Cd0_3 Cd0_5 3.163804 1_465
Cd0_3 Cd0_5 3.163804 1_555
Cd0_3 Cd1_1 3.209855 1_555
Cd0_3 Cd1_7 3.209855 1_455
Cd0_4 Mg2_4 3.048426 1_555
Cd0_4 Mg0_6 3.062953 1_555
Cd0_4 Mg0_0 3.062953 1_655
Cd0_4 Mg1_6 3.086851 1_555
Cd0_4 Mg1_0 3.086851 1_655
Cd0_4 Mg1_4 3.091806 1_555
Cd0_4 Mg3_7 3.147423 1_554
Cd0_4 Mg3_1 3.147423 1_654
Cd0_4 Cd1_0 3.209855 1_555
Cd0_4 Cd1_6 3.209855 1_545
Cd0_5 Mg2_5 3.048426 1_555
Cd0_5 Mg0_1 3.062953 1_655
Cd0_5 Mg0_7 3.062953 1_555
Cd0_5 Mg1_7 3.086851 1_555
Cd0_5 Mg1_1 3.086851 1_655
Cd0_5 Mg1_5 3.091806 1_555
Cd0_5 Mg3_6 3.147423 1_555
Cd0_5 Mg3_0 3.147423 1_655
Cd0_5 Cd1_7 3.209855 1_545
Cd0_5 Cd1_1 3.209855 1_555
Cd0_6 Mg2_6 3.048426 1_555
Cd0_6 Mg0_4 3.062953 1_565
Cd0_6 Mg0_2 3.062953 1_655
Cd0_6 Mg1_4 3.086851 1_565
Cd0_6 Mg1_2 3.086851 1_655
Cd0_6 Mg1_6 3.091806 1_555
Cd0_6 Mg3_3 3.147423 1_654
Cd0_6 Mg3_5 3.147423 1_564
Cd0_6 Cd1_2 3.209855 1_555
Cd0_6 Cd1_4 3.209855 1_555
Cd0_7 Mg2_7 3.048426 1_555
Cd0_7 Mg0_5 3.062953 1_565
Cd0_7 Mg0_3 3.062953 1_655
Cd0_7 Mg1_3 3.086851 1_655
Cd0_7 Mg1_5 3.086851 1_565
Cd0_7 Mg1_7 3.091806 1_555
Cd0_7 Mg3_2 3.147423 1_655
Cd0_7 Mg3_4 3.147423 1_565
Cd0_7 Cd1_3 3.209855 1_555
Cd0_7 Cd1_5 3.209855 1_555
Cd1_0 Mg2_2 3.061916 1_555
Cd1_0 Mg2_4 3.061916 1_555
Cd1_0 Mg1_4 3.071840 1_555
Cd1_0 Mg1_2 3.071840 1_555
Cd1_0 Mg3_4 3.094308 1_555
Cd1_0 Mg3_2 3.094308 1_555
Cd1_0 Mg2_0 3.096329 1_555
Cd1_0 Mg0_7 3.115954 1_555
Cd1_0 Cd1_6 3.163804 1_455
Cd1_0 Cd1_6 3.163804 1_545
Cd1_1 Mg2_3 3.061916 1_555
Cd1_1 Mg2_5 3.061916 1_555
Cd1_1 Mg1_3 3.071840 1_555
Cd1_1 Mg1_5 3.071840 1_555
Cd1_1 Mg3_5 3.094308 1_555
Cd1_1 Mg3_3 3.094308 1_555
Cd1_1 Mg2_1 3.096329 1_555
Cd1_1 Mg0_6 3.115954 1_556
Cd1_1 Cd1_7 3.163804 1_455
Cd1_1 Cd1_7 3.163804 1_545
Cd1_2 Mg2_6 3.061916 1_555
Cd1_2 Mg2_0 3.061916 1_565
Cd1_2 Mg1_0 3.071840 1_565
Cd1_2 Mg1_6 3.071840 1_555
Cd1_2 Mg3_0 3.094308 1_565
Cd1_2 Mg3_6 3.094308 1_555
Cd1_2 Mg2_2 3.096329 1_555
Cd1_2 Mg0_5 3.115954 1_565
Cd1_2 Cd1_4 3.163804 1_555
Cd1_2 Cd1_4 3.163804 1_465
Cd1_3 Mg2_1 3.061916 1_565
Cd1_3 Mg2_7 3.061916 1_555
Cd1_3 Mg1_1 3.071840 1_565
Cd1_3 Mg1_7 3.071840 1_555
Cd1_3 Mg3_1 3.094308 1_565
Cd1_3 Mg3_7 3.094308 1_555
Cd1_3 Mg2_3 3.096329 1_555
Cd1_3 Mg0_4 3.115954 1_566
Cd1_3 Cd1_5 3.163804 1_555
Cd1_3 Cd1_5 3.163804 1_465
Cd1_4 Mg2_6 3.061916 1_555
Cd1_4 Mg2_0 3.061916 1_655
Cd1_4 Mg1_0 3.071840 1_655
Cd1_4 Mg1_6 3.071840 1_555
Cd1_4 Mg3_0 3.094308 1_655
Cd1_4 Mg3_6 3.094308 1_555
Cd1_4 Mg2_4 3.096329 1_555
Cd1_4 Mg0_3 3.115954 1_655
Cd1_5 Mg2_1 3.061916 1_655
Cd1_5 Mg2_7 3.061916 1_555
Cd1_5 Mg1_1 3.071840 1_655
Cd1_5 Mg1_7 3.071840 1_555
Cd1_5 Mg3_1 3.094308 1_655
Cd1_5 Mg3_7 3.094308 1_555
Cd1_5 Mg2_5 3.096329 1_555
Cd1_5 Mg0_2 3.115954 1_656
Cd1_6 Mg2_2 3.061916 1_655
Cd1_6 Mg2_4 3.061916 1_565
Cd1_6 Mg1_4 3.071840 1_565
Cd1_6 Mg1_2 3.071840 1_655
Cd1_6 Mg3_4 3.094308 1_565
Cd1_6 Mg3_2 3.094308 1_655
Cd1_6 Mg2_6 3.096329 1_555
Cd1_6 Mg0_1 3.115954 1_665
Cd1_7 Mg2_3 3.061916 1_655
Cd1_7 Mg2_5 3.061916 1_565
Cd1_7 Mg1_5 3.071840 1_565
Cd1_7 Mg1_3 3.071840 1_655
Cd1_7 Mg3_3 3.094308 1_655
Cd1_7 Mg3_5 3.094308 1_565
Cd1_7 Mg2_7 3.096329 1_555
Cd1_7 Mg0_0 3.115954 1_666
