# generated using pymatgen
data_RbHo(MoO4)2
_symmetry_space_group_name_H-M   'P 1'
_cell_length_a   7.51397524
_cell_length_b   7.51397524
_cell_length_c   7.74824628
_cell_angle_alpha   61.93552455
_cell_angle_beta   61.93552455
_cell_angle_gamma   88.31580552
_symmetry_Int_Tables_number   1
_chemical_formula_structural   RbHo(MoO4)2
_chemical_formula_sum   'Rb2 Ho2 Mo4 O16'
_cell_volume   330.12561544
_cell_formula_units_Z   2
loop_
 _symmetry_equiv_pos_site_id
 _symmetry_equiv_pos_as_xyz
  1  'x, y, z'
loop_
 _atom_site_type_symbol
 _atom_site_label
 _atom_site_symmetry_multiplicity
 _atom_site_fract_x
 _atom_site_fract_y
 _atom_site_fract_z
 _atom_site_occupancy
  Rb  Rb0  1  0.19889200  0.80110800  0.75000000  1
  Rb  Rb1  1  0.80110800  0.19889200  0.25000000  1
  Ho  Ho0  1  0.77098700  0.22901300  0.75000000  1
  Ho  Ho1  1  0.22901300  0.77098700  0.25000000  1
  Mo  Mo0  1  0.69598600  0.69665600  0.76261300  1
  Mo  Mo1  1  0.30401400  0.30334400  0.23738700  1
  Mo  Mo2  1  0.30334400  0.30401400  0.73738700  1
  Mo  Mo3  1  0.69665600  0.69598600  0.26261300  1
  O  O0  1  0.61482500  0.76552600  0.56124600  1
  O  O1  1  0.38517500  0.23447400  0.43875400  1
  O  O2  1  0.23447400  0.38517500  0.93875400  1
  O  O3  1  0.76552600  0.61482500  0.06124600  1
  O  O4  1  0.38274200  0.06696100  0.87642100  1
  O  O5  1  0.61725800  0.93303900  0.12357900  1
  O  O6  1  0.93303900  0.61725800  0.62357900  1
  O  O7  1  0.06696100  0.38274200  0.37642100  1
  O  O8  1  0.58565300  0.36709200  0.96915300  1
  O  O9  1  0.41434700  0.63290800  0.03084700  1
  O  O10  1  0.63290800  0.41434700  0.53084700  1
  O  O11  1  0.36709200  0.58565300  0.46915300  1
  O  O12  1  0.79246800  0.95331000  0.69233600  1
  O  O13  1  0.20753200  0.04669000  0.30766400  1
  O  O14  1  0.04669000  0.20753200  0.80766400  1
  O  O15  1  0.95331000  0.79246800  0.19233600  1
loop_
_geom_bond_atom_site_label_1
_geom_bond_atom_site_label_2
_geom_bond_distance
_geom_bond_site_symmetry_2
Ho0 O8 2.290613 1_555
Ho0 O10 2.290613 1_555
Ho0 O14 2.302328 1_655
Ho0 O12 2.302328 1_545
Ho0 O5 2.367831 1_546
Ho0 O7 2.367831 1_655
Ho0 O6 2.711152 1_555
Ho0 O4 2.711152 1_555
Ho1 O9 2.290613 1_555
Ho1 O11 2.290613 1_555
Ho1 O13 2.302328 1_565
Ho1 O15 2.302328 1_455
Ho1 O4 2.367831 1_564
Ho1 O6 2.367831 1_455
Ho1 O7 2.711152 1_555
Ho1 O5 2.711152 1_555
Mo0 O0 1.786361 1_555
Mo0 O12 1.806604 1_555
Mo0 O6 1.850922 1_555
Mo0 O9 2.002946 1_556
Mo0 O8 2.126981 1_555
Mo0 O3 2.405243 1_556
Mo1 O1 1.786361 1_555
Mo1 O13 1.806604 1_555
Mo1 O7 1.850922 1_555
Mo1 O8 2.002946 1_554
Mo1 O9 2.126981 1_555
Mo1 O2 2.405243 1_554
Mo2 O2 1.786361 1_555
Mo2 O14 1.806604 1_555
Mo2 O4 1.850922 1_555
Mo2 O11 2.002946 1_555
Mo2 O10 2.126981 1_555
Mo2 O1 2.405243 1_555
Mo3 O3 1.786361 1_555
Mo3 O15 1.806604 1_555
Mo3 O5 1.850922 1_555
Mo3 O10 2.002946 1_555
Mo3 O11 2.126981 1_555
Mo3 O0 2.405243 1_555
O0 Rb0 2.827718 1_555
O0 Rb1 2.842756 1_565
O1 Rb1 2.827718 1_555
O1 Rb0 2.842756 1_545
O2 Rb0 2.827718 1_555
O2 Rb1 2.842756 1_456
O3 Rb1 2.827718 1_555
O3 Rb0 2.842756 1_654
O4 Rb0 3.183546 1_545
O5 Rb1 3.183546 1_565
O6 Rb0 3.183546 1_655
O7 Rb1 3.183546 1_455
O8 Rb1 3.091969 1_556
O9 Rb0 3.091969 1_554
O10 Rb1 3.091969 1_555
O11 Rb0 3.091969 1_555
O12 Rb1 3.000457 1_565
O12 Rb0 3.381031 1_655
O13 Rb0 3.000457 1_545
O13 Rb1 3.381031 1_455
O14 Rb1 3.000457 1_456
O14 Rb0 3.381031 1_545
O15 Rb0 3.000457 1_654
O15 Rb1 3.381031 1_565
