# generated using pymatgen
data_Li9Mn2Co5O16
_symmetry_space_group_name_H-M   'P 1'
_cell_length_a   10.65851891
_cell_length_b   10.65851891
_cell_length_c   10.32999392
_cell_angle_alpha   67.32154025
_cell_angle_beta   67.32154025
_cell_angle_gamma   15.57356604
_symmetry_Int_Tables_number   1
_chemical_formula_structural   Li9Mn2Co5O16
_chemical_formula_sum   'Li9 Mn2 Co5 O16'
_cell_volume   290.22892518
_cell_formula_units_Z   1
loop_
 _symmetry_equiv_pos_site_id
 _symmetry_equiv_pos_as_xyz
  1  'x, y, z'
loop_
 _atom_site_type_symbol
 _atom_site_label
 _atom_site_symmetry_multiplicity
 _atom_site_fract_x
 _atom_site_fract_y
 _atom_site_fract_z
 _atom_site_occupancy
  Li  Li0  1  0.63626600  0.63626600  0.79758100  1
  Li  Li1  1  0.86708900  0.86708900  0.45658100  1
  Li  Li2  1  0.13065100  0.13065100  0.05486900  1
  Li  Li3  1  0.12781600  0.12781600  0.55436900  1
  Li  Li4  1  0.36911100  0.36911100  0.19647900  1
  Li  Li5  1  0.62886800  0.62886800  0.31379400  1
  Li  Li6  1  0.86738400  0.86738400  0.94218100  1
  Li  Li7  1  0.37446100  0.37446100  0.67648300  1
  Li  Li8  1  0.25046700  0.25046700  0.62482800  1
  Mn  Mn0  1  0.99994900  0.99994900  0.00396800  1
  Mn  Mn1  1  0.49998500  0.49998500  0.74607500  1
  Co  Co0  1  0.49965100  0.49965100  0.25365000  1
  Co  Co1  1  0.75363900  0.75363900  0.85461300  1
  Co  Co2  1  0.00057500  0.00057500  0.49420400  1
  Co  Co3  1  0.24945800  0.24945800  0.12612100  1
  Co  Co4  1  0.74654400  0.74654400  0.39631500  1
  O  O0  1  0.55680100  0.55680100  0.02371500  1
  O  O1  1  0.81102700  0.81102700  0.67237500  1
  O  O2  1  0.05535300  0.05535300  0.27933100  1
  O  O3  1  0.05110200  0.05110200  0.79576300  1
  O  O4  1  0.30966400  0.30966400  0.39796500  1
  O  O5  1  0.56038800  0.56038800  0.52450500  1
  O  O6  1  0.80349600  0.80349600  0.15216300  1
  O  O7  1  0.30201700  0.30201700  0.92861600  1
  O  O8  1  0.68877800  0.68877800  0.57930200  1
  O  O9  1  0.94872000  0.94872000  0.20662500  1
  O  O10  1  0.19035300  0.19035300  0.85142500  1
  O  O11  1  0.19820100  0.19820100  0.32426800  1
  O  O12  1  0.44238100  0.44238100  0.98388700  1
  O  O13  1  0.69541800  0.69541800  0.10000900  1
  O  O14  1  0.94388800  0.94388800  0.72016000  1
  O  O15  1  0.44049600  0.44049600  0.46777600  1
loop_
_geom_bond_atom_site_label_1
_geom_bond_atom_site_label_2
_geom_bond_distance
_geom_bond_site_symmetry_2
Li0 O10 2.047981 1_655
Li0 O10 2.047981 1_565
Li0 O8 2.089960 1_555
Li0 O0 2.285215 1_556
Li0 O3 2.312440 1_655
Li0 O3 2.312440 1_565
Li1 O1 2.077700 1_555
Li1 O4 2.120044 1_655
Li1 O4 2.120044 1_565
Li1 O15 2.154536 1_655
Li1 O15 2.154536 1_565
Li1 O9 2.484897 1_555
Li2 O10 1.985984 1_554
Li2 O13 2.161121 1_545
Li2 O13 2.161121 1_455
Li2 O0 2.238850 1_545
Li2 O0 2.238850 1_455
Li2 O2 2.243998 1_555
Li3 O8 2.016831 1_455
Li3 O8 2.016831 1_545
Li3 O5 2.133211 1_455
Li3 O5 2.133211 1_545
Li3 O11 2.260451 1_555
Li3 O3 2.387199 1_555
Li4 O4 1.968387 1_555
Li4 O12 2.138344 1_554
Li4 O6 2.170073 1_545
Li4 O6 2.170073 1_455
Li4 O9 2.249572 1_455
Li4 O9 2.249572 1_545
Li5 O11 2.089192 1_655
Li5 O11 2.089192 1_565
Li5 O5 2.092716 1_555
Li5 O13 2.106365 1_555
Li5 O2 2.247917 1_565
Li5 O2 2.247917 1_655
Li6 O7 2.040002 1_565
Li6 O7 2.040002 1_655
Li6 O6 2.061020 1_556
Li6 O14 2.233078 1_555
Li6 O12 2.304581 1_655
Li6 O12 2.304581 1_565
Li7 O1 1.981513 1_455
Li7 O1 1.981513 1_545
Li7 O15 2.062284 1_555
Li7 O14 2.225758 1_455
Li7 O14 2.225758 1_545
Li7 O7 2.454198 1_555
Li8 O1 2.109873 1_545
Li8 O1 2.109873 1_455
Li8 O8 2.116838 1_455
Li8 O8 2.116838 1_545
Li8 O4 2.185116 1_555
Li8 O10 2.185876 1_555
Mn0 O0 1.938923 1_655
Mn0 O0 1.938923 1_565
Mn0 O9 1.946871 1_555
Mn0 O12 1.950141 1_654
Mn0 O12 1.950141 1_564
Mn0 O3 1.996121 1_664
Mn1 O14 1.951322 1_545
Mn1 O14 1.951322 1_455
Mn1 O3 1.986380 1_565
Mn1 O3 1.986380 1_655
Mn1 O5 2.143274 1_555
Mn1 O12 2.277917 1_555
Co0 O2 1.944921 1_565
Co0 O2 1.944921 1_655
Co0 O9 1.971080 1_455
Co0 O9 1.971080 1_545
Co0 O15 2.074296 1_555
Co0 O0 2.206191 1_555
Co1 O1 1.799197 1_555
Co1 O10 1.976695 1_655
Co1 O10 1.976695 1_565
Co1 O7 2.078872 1_655
Co1 O7 2.078872 1_565
Co1 O13 2.347753 1_556
Co2 O15 2.009885 1_545
Co2 O15 2.009885 1_455
Co2 O5 2.021633 1_455
Co2 O5 2.021633 1_545
Co2 O2 2.065586 1_555
Co2 O14 2.169465 1_445
Co3 O7 1.905807 1_554
Co3 O11 1.907088 1_555
Co3 O6 1.923359 1_455
Co3 O6 1.923359 1_545
Co3 O13 1.923655 1_545
Co3 O13 1.923655 1_455
Co4 O8 1.807394 1_555
Co4 O4 1.969923 1_655
Co4 O4 1.969923 1_565
Co4 O11 2.067176 1_565
Co4 O11 2.067176 1_655
Co4 O6 2.333811 1_555
