# generated using pymatgen
data_MgV12Zn6O24
_symmetry_space_group_name_H-M   'P 1'
_cell_length_a   6.06397622
_cell_length_b   6.16163984
_cell_length_c   18.68128399
_cell_angle_alpha   59.73847799
_cell_angle_beta   59.75544922
_cell_angle_gamma   59.80444986
_symmetry_Int_Tables_number   1
_chemical_formula_structural   MgV12Zn6O24
_chemical_formula_sum   'Mg1 V12 Zn6 O24'
_cell_volume   490.94500760
_cell_formula_units_Z   1
loop_
 _symmetry_equiv_pos_site_id
 _symmetry_equiv_pos_as_xyz
  1  'x, y, z'
loop_
 _atom_site_type_symbol
 _atom_site_label
 _atom_site_symmetry_multiplicity
 _atom_site_fract_x
 _atom_site_fract_y
 _atom_site_fract_z
 _atom_site_occupancy
  Mg  Mg0  1  0.89355541  0.32073054  0.97728344  1
  V  V0  1  0.00984070  0.48880656  0.17402817  1
  V  V1  1  0.52322100  0.48045418  0.17156370  1
  V  V2  1  0.00442626  0.50068213  0.49798794  1
  V  V3  1  0.52284057  0.99255920  0.17178984  1
  V  V4  1  0.50361305  0.49589786  0.33519821  1
  V  V5  1  0.50122754  0.50099548  0.49848488  1
  V  V6  1  0.00148113  0.52396548  0.81205413  1
  V  V7  1  0.50197801  0.00142648  0.49834937  1
  V  V8  1  0.48924675  0.01330420  0.82375743  1
  V  V9  1  0.50842593  0.50583530  0.65993509  1
  V  V10  1  0.49137503  0.51075450  0.82547712  1
  V  V11  1  0.81864307  0.89332220  0.95809460  1
  Zn  Zn0  1  0.13003674  0.02497095  0.11350831  1
  Zn  Zn1  1  0.13213100  0.12117561  0.37581885  1
  Zn  Zn2  1  0.36181711  0.58690894  0.99846290  1
  Zn  Zn3  1  0.12843424  0.13017279  0.70123185  1
  Zn  Zn4  1  0.87351205  0.86529141  0.29941598  1
  Zn  Zn5  1  0.87222711  0.88474264  0.61895311  1
  O  O0  1  0.29857411  0.25223029  0.09124252  1
  O  O1  1  0.29041720  0.24232714  0.24341339  1
  O  O2  1  0.29277290  0.69788783  0.09219735  1
  O  O3  1  0.77502564  0.21920708  0.10114865  1
  O  O4  1  0.28310189  0.74678432  0.24276628  1
  O  O5  1  0.26916916  0.25625240  0.41951163  1
  O  O6  1  0.73616068  0.27114336  0.25468663  1
  O  O7  1  0.75490740  0.74863386  0.08760682  1
  O  O8  1  0.26295101  0.71607190  0.41804836  1
  O  O9  1  0.25913070  0.26542521  0.56892914  1
  O  O10  1  0.73692002  0.73400393  0.25405870  1
  O  O11  1  0.72246198  0.26007587  0.42270208  1
  O  O12  1  0.28200700  0.74347494  0.57346546  1
  O  O13  1  0.27834836  0.26398373  0.74043881  1
  O  O14  1  0.74452175  0.28692373  0.57687367  1
  O  O15  1  0.74509723  0.73489726  0.42841477  1
  O  O16  1  0.26044131  0.26954287  0.89387570  1
  O  O17  1  0.27778730  0.72847547  0.74094582  1
  O  O18  1  0.73989090  0.74746432  0.57525154  1
  O  O19  1  0.72227819  0.26126676  0.75009168  1
  O  O20  1  0.22357374  0.77530324  0.90280288  1
  O  O21  1  0.70838189  0.76409901  0.75273121  1
  O  O22  1  0.73642145  0.27991834  0.91112644  1
  O  O23  1  0.72745050  0.72594570  0.91412956  1
loop_
_geom_bond_atom_site_label_1
_geom_bond_atom_site_label_2
_geom_bond_distance
_geom_bond_site_symmetry_2
Mg0 O3 1.892150 1_556
Mg0 O16 1.942765 1_655
Mg0 O22 2.058937 1_555
Mg0 O23 2.082992 1_555
O0 Zn0 1.898048 1_555
O0 Zn2 1.981715 1_554
O0 V3 2.029724 1_545
O0 V0 2.135255 1_555
O1 Zn1 2.016131 1_555
O1 V1 2.033999 1_555
O1 V3 2.034461 1_545
O1 V0 2.125975 1_555
O2 Zn0 1.899047 1_565
O2 Zn2 1.972178 1_554
O2 V1 2.036643 1_555
O2 V0 2.129897 1_555
O3 Zn0 1.936661 1_655
O3 V3 2.070780 1_545
O3 V1 2.071576 1_555
O4 Zn4 2.031931 1_455
O4 V3 2.100902 1_555
O4 V1 2.104240 1_555
O4 V4 2.171568 1_555
O4 Zn0 2.473091 1_565
O5 Zn1 2.028113 1_555
O5 V7 2.039992 1_555
O5 V4 2.047952 1_555
O5 V2 2.101710 1_555
O6 V1 2.016989 1_555
O6 Zn4 2.036023 1_545
O6 V4 2.041298 1_555
O6 V0 2.122821 1_655
O7 V11 2.007117 1_554
O7 V1 2.160467 1_555
O7 V3 2.176656 1_555
O7 V0 2.231364 1_655
O8 Zn1 2.033740 1_565
O8 V2 2.045968 1_555
O8 V4 2.053072 1_555
O8 V5 2.087094 1_555
O9 Zn3 2.011575 1_555
O9 V2 2.028994 1_555
O9 V5 2.065411 1_555
O9 V7 2.085485 1_555
O10 V3 2.011728 1_555
O10 Zn4 2.032316 1_555
O10 V4 2.034159 1_555
O10 V0 2.127361 1_655
O11 Zn1 2.023838 1_655
O11 V5 2.051655 1_555
O11 V7 2.072339 1_555
O11 V4 2.096753 1_555
O12 Zn5 2.024126 1_455
O12 V5 2.048684 1_555
O12 V7 2.067286 1_565
O12 V9 2.113425 1_555
O13 V8 2.009756 1_555
O13 Zn3 2.018921 1_555
O13 V9 2.036621 1_555
O13 V6 2.089672 1_555
O14 Zn5 2.019424 1_545
O14 V2 2.045107 1_655
O14 V9 2.050839 1_555
O14 V5 2.081587 1_555
O15 Zn4 1.961321 1_555
O15 V2 2.032373 1_655
O15 V5 2.066367 1_555
O15 V7 2.089043 1_565
O16 V10 2.044424 1_555
O16 V8 2.045417 1_555
O16 V6 2.187808 1_555
O17 Zn3 2.016943 1_565
O17 V10 2.036750 1_555
O17 V9 2.039266 1_555
O17 V6 2.086710 1_555
O18 Zn5 2.016127 1_555
O18 V7 2.035968 1_565
O18 V9 2.044670 1_555
O18 V2 2.096375 1_655
O19 Zn3 2.007198 1_655
O19 V8 2.078119 1_555
O19 V10 2.082638 1_555
O19 V9 2.113204 1_555
O20 Zn2 1.919186 1_555
O20 V11 2.007739 1_455
O20 V8 2.173455 1_565
O20 V10 2.174471 1_555
O21 V8 2.027059 1_565
O21 V10 2.035169 1_555
O21 Zn5 2.038282 1_555
O21 V6 2.064612 1_655
O22 V11 1.957584 1_545
O22 V10 2.183255 1_555
O22 V6 2.213483 1_655
O22 Zn2 2.540641 1_555
O23 V11 1.982150 1_555
O23 V8 2.223256 1_565
O23 V6 2.250769 1_655
O23 Zn2 2.272307 1_555
