# generated using pymatgen
data_Ba4Mo2O6F13
_symmetry_space_group_name_H-M   'P 1'
_cell_length_a   8.73449400
_cell_length_b   11.80266800
_cell_length_c   16.29800400
_cell_angle_alpha   90.00000000
_cell_angle_beta   90.00000000
_cell_angle_gamma   90.00000000
_symmetry_Int_Tables_number   1
_chemical_formula_structural   Ba4Mo2O6F13
_chemical_formula_sum   'Ba16 Mo8 O24 F52'
_cell_volume   1680.16665682
_cell_formula_units_Z   4
loop_
 _symmetry_equiv_pos_site_id
 _symmetry_equiv_pos_as_xyz
  1  'x, y, z'
loop_
 _atom_site_type_symbol
 _atom_site_label
 _atom_site_symmetry_multiplicity
 _atom_site_fract_x
 _atom_site_fract_y
 _atom_site_fract_z
 _atom_site_occupancy
  Ba  Ba0  1  0.48725400  0.50000000  0.81605800  1
  Ba  Ba1  1  0.51274600  0.50000000  0.18394200  1
  Ba  Ba2  1  0.01274600  0.00000000  0.31605800  1
  Ba  Ba3  1  0.98725400  0.00000000  0.68394200  1
  Ba  Ba4  1  0.24772900  0.32049600  0.60400100  1
  Ba  Ba5  1  0.75227100  0.32049600  0.39599900  1
  Ba  Ba6  1  0.25227100  0.17950400  0.10400100  1
  Ba  Ba7  1  0.74772900  0.17950400  0.89599900  1
  Ba  Ba8  1  0.75227100  0.67950400  0.39599900  1
  Ba  Ba9  1  0.24772900  0.67950400  0.60400100  1
  Ba  Ba10  1  0.74772900  0.82049600  0.89599900  1
  Ba  Ba11  1  0.25227100  0.82049600  0.10400100  1
  Ba  Ba12  1  0.01241700  0.50000000  0.81436700  1
  Ba  Ba13  1  0.98758300  0.50000000  0.18563300  1
  Ba  Ba14  1  0.48758300  0.00000000  0.31436700  1
  Ba  Ba15  1  0.51241700  0.00000000  0.68563300  1
  Mo  Mo0  1  0.24509300  0.15916000  0.83925800  1
  Mo  Mo1  1  0.75490700  0.15916000  0.16074200  1
  Mo  Mo2  1  0.25490700  0.34084000  0.33925800  1
  Mo  Mo3  1  0.74509300  0.34084000  0.66074200  1
  Mo  Mo4  1  0.75490700  0.84084000  0.16074200  1
  Mo  Mo5  1  0.24509300  0.84084000  0.83925800  1
  Mo  Mo6  1  0.74509300  0.65916000  0.66074200  1
  Mo  Mo7  1  0.25490700  0.65916000  0.33925800  1
  O  O0  1  0.75212300  0.00000000  0.54899300  1
  O  O1  1  0.24787700  0.00000000  0.45100700  1
  O  O2  1  0.74787700  0.50000000  0.04899300  1
  O  O3  1  0.25212300  0.50000000  0.95100700  1
  O  O4  1  0.04513600  0.14961200  0.82504900  1
  O  O5  1  0.95486400  0.14961200  0.17495100  1
  O  O6  1  0.45486400  0.35038800  0.32504900  1
  O  O7  1  0.54513600  0.35038800  0.67495100  1
  O  O8  1  0.95486400  0.85038800  0.17495100  1
  O  O9  1  0.04513600  0.85038800  0.82504900  1
  O  O10  1  0.54513600  0.64961200  0.67495100  1
  O  O11  1  0.45486400  0.64961200  0.32504900  1
  O  O12  1  0.26584100  0.19119500  0.94166600  1
  O  O13  1  0.73415900  0.19119500  0.05833400  1
  O  O14  1  0.23415900  0.30880500  0.44166600  1
  O  O15  1  0.76584100  0.30880500  0.55833400  1
  O  O16  1  0.73415900  0.80880500  0.05833400  1
  O  O17  1  0.26584100  0.80880500  0.94166600  1
  O  O18  1  0.76584100  0.69119500  0.55833400  1
  O  O19  1  0.23415900  0.69119500  0.44166600  1
  O  O20  1  0.28559000  0.00000000  0.83997500  1
  O  O21  1  0.71441000  0.00000000  0.16002500  1
  O  O22  1  0.21441000  0.50000000  0.33997500  1
  O  O23  1  0.78559000  0.50000000  0.66002500  1
  F  F0  1  0.74798500  0.00000000  0.79544900  1
  F  F1  1  0.25201500  0.00000000  0.20455100  1
  F  F2  1  0.75201500  0.50000000  0.29544900  1
  F  F3  1  0.24798500  0.50000000  0.70455100  1
  F  F4  1  0.25363700  0.32396800  0.80582700  1
  F  F5  1  0.74636300  0.32396800  0.19417300  1
  F  F6  1  0.24636300  0.17603200  0.30582700  1
  F  F7  1  0.75363700  0.17603200  0.69417300  1
  F  F8  1  0.74636300  0.67603200  0.19417300  1
  F  F9  1  0.25363700  0.67603200  0.80582700  1
  F  F10  1  0.75363700  0.82396800  0.69417300  1
  F  F11  1  0.24636300  0.82396800  0.30582700  1
  F  F12  1  0.25027300  0.13041400  0.70266000  1
  F  F13  1  0.74972700  0.13041400  0.29734000  1
  F  F14  1  0.24972700  0.36958600  0.20266000  1
  F  F15  1  0.75027300  0.36958600  0.79734000  1
  F  F16  1  0.74972700  0.86958600  0.29734000  1
  F  F17  1  0.25027300  0.86958600  0.70266000  1
  F  F18  1  0.75027300  0.63041400  0.79734000  1
  F  F19  1  0.24972700  0.63041400  0.20266000  1
  F  F20  1  0.97431500  0.32863800  0.69272200  1
  F  F21  1  0.02568500  0.32863800  0.30727800  1
  F  F22  1  0.52568500  0.17136200  0.19272200  1
  F  F23  1  0.47431500  0.17136200  0.80727800  1
  F  F24  1  0.02568500  0.67136200  0.30727800  1
  F  F25  1  0.97431500  0.67136200  0.69272200  1
  F  F26  1  0.47431500  0.82863800  0.80727800  1
  F  F27  1  0.52568500  0.82863800  0.19272200  1
  F  F28  1  0.45357500  0.14508900  0.55695600  1
  F  F29  1  0.54642500  0.14508900  0.44304400  1
  F  F30  1  0.04642500  0.35491100  0.05695600  1
  F  F31  1  0.95357500  0.35491100  0.94304400  1
  F  F32  1  0.54642500  0.85491100  0.44304400  1
  F  F33  1  0.45357500  0.85491100  0.55695600  1
  F  F34  1  0.95357500  0.64508900  0.94304400  1
  F  F35  1  0.04642500  0.64508900  0.05695600  1
  F  F36  1  0.05222700  0.14034500  0.55513300  1
  F  F37  1  0.94777300  0.14034500  0.44486700  1
  F  F38  1  0.44777300  0.35965500  0.05513300  1
  F  F39  1  0.55222700  0.35965500  0.94486700  1
  F  F40  1  0.94777300  0.85965500  0.44486700  1
  F  F41  1  0.05222700  0.85965500  0.55513300  1
  F  F42  1  0.55222700  0.64034500  0.94486700  1
  F  F43  1  0.44777300  0.64034500  0.05513300  1
  F  F44  1  0.40824400  0.50000000  0.53636800  1
  F  F45  1  0.59175600  0.50000000  0.46363200  1
  F  F46  1  0.09175600  0.00000000  0.03636800  1
  F  F47  1  0.90824400  0.00000000  0.96363200  1
  F  F48  1  0.57056200  0.00000000  0.95142200  1
  F  F49  1  0.42943800  0.00000000  0.04857800  1
  F  F50  1  0.92943800  0.50000000  0.45142200  1
  F  F51  1  0.07056200  0.50000000  0.54857800  1
loop_
_geom_bond_atom_site_label_1
_geom_bond_atom_site_label_2
_geom_bond_distance
_geom_bond_site_symmetry_2
Ba0 F42 2.733690 1_555
Ba0 F39 2.733690 1_555
Ba0 F3 2.769546 1_555
Ba0 F18 2.782097 1_555
Ba0 F15 2.782097 1_555
Ba0 F9 2.916877 1_555
Ba0 F4 2.916877 1_555
Ba0 O10 2.943235 1_555
Ba0 O7 2.943235 1_555
Ba0 O3 3.009194 1_555
Ba1 F43 2.733690 1_555
Ba1 F38 2.733690 1_555
Ba1 F2 2.769546 1_555
Ba1 F19 2.782097 1_555
Ba1 F14 2.782097 1_555
Ba1 F8 2.916877 1_555
Ba1 F5 2.916877 1_555
Ba1 O11 2.943235 1_555
Ba1 O6 2.943235 1_555
Ba1 O2 3.009194 1_555
Ba2 F37 2.733690 1_455
Ba2 F40 2.733690 1_445
Ba2 F1 2.769546 1_555
Ba2 F16 2.782097 1_445
Ba2 F13 2.782097 1_455
Ba2 F6 2.916877 1_555
Ba2 F11 2.916877 1_545
Ba2 O5 2.943235 1_455
Ba2 O8 2.943235 1_445
Ba2 O1 3.009194 1_555
Ba3 F36 2.733690 1_655
Ba3 F41 2.733690 1_645
Ba3 F0 2.769546 1_555
Ba3 F12 2.782097 1_655
Ba3 F17 2.782097 1_645
Ba3 F7 2.916877 1_555
Ba3 F10 2.916877 1_545
Ba3 O4 2.943235 1_655
Ba3 O9 2.943235 1_645
Ba3 O0 3.009194 1_555
Ba4 O14 2.651982 1_555
Ba4 F3 2.678457 1_555
Ba4 F12 2.760282 1_555
Ba4 F44 2.769342 1_555
Ba4 F51 2.774733 1_555
Ba4 F20 2.793431 1_455
Ba4 F36 2.840997 1_555
Ba4 F28 2.847204 1_555
Ba4 O7 2.865248 1_555
Ba5 O15 2.651982 1_555
Ba5 F2 2.678457 1_555
Ba5 F13 2.760282 1_555
Ba5 F45 2.769342 1_555
Ba5 F50 2.774733 1_555
Ba5 F21 2.793431 1_655
Ba5 F37 2.840997 1_555
Ba5 F29 2.847204 1_555
Ba5 O6 2.865248 1_555
Ba6 O12 2.651982 1_554
Ba6 F1 2.678457 1_555
Ba6 F14 2.760282 1_555
Ba6 F46 2.769342 1_555
Ba6 F49 2.774733 1_555
Ba6 F22 2.793431 1_555
Ba6 F38 2.840997 1_555
Ba6 F30 2.847204 1_555
Ba6 O5 2.865248 1_455
Ba7 O13 2.651982 1_556
Ba7 F0 2.678457 1_555
Ba7 F15 2.760282 1_555
Ba7 F47 2.769342 1_555
Ba7 F48 2.774733 1_555
Ba7 F23 2.793431 1_555
Ba7 F39 2.840997 1_555
Ba7 F31 2.847204 1_555
Ba7 O4 2.865248 1_655
Ba8 O18 2.651982 1_555
Ba8 F2 2.678457 1_555
Ba8 F16 2.760282 1_555
Ba8 F45 2.769342 1_555
Ba8 F50 2.774733 1_555
Ba8 F24 2.793431 1_655
Ba8 F40 2.840997 1_555
Ba8 F32 2.847204 1_555
Ba8 O11 2.865248 1_555
Ba9 O19 2.651982 1_555
Ba9 F3 2.678457 1_555
Ba9 F17 2.760282 1_555
Ba9 F44 2.769342 1_555
Ba9 F51 2.774733 1_555
Ba9 F25 2.793431 1_455
Ba9 F41 2.840997 1_555
Ba9 F33 2.847204 1_555
Ba9 O10 2.865248 1_555
Ba10 O16 2.651982 1_556
Ba10 F0 2.678457 1_565
Ba10 F18 2.760282 1_555
Ba10 F47 2.769342 1_565
Ba10 F48 2.774733 1_565
Ba10 F26 2.793431 1_555
Ba10 F42 2.840997 1_555
Ba10 F34 2.847204 1_555
Ba10 O9 2.865248 1_655
Ba11 O17 2.651982 1_554
Ba11 F1 2.678457 1_565
Ba11 F19 2.760282 1_555
Ba11 F46 2.769342 1_565
Ba11 F49 2.774733 1_565
Ba11 F27 2.793431 1_555
Ba11 F43 2.840997 1_555
Ba11 F35 2.847204 1_555
Ba11 O8 2.865248 1_455
Ba12 F3 2.727068 1_555
Ba12 F31 2.755857 1_455
Ba12 F34 2.755857 1_455
Ba12 F18 2.772896 1_455
Ba12 F15 2.772896 1_455
Ba12 F25 2.851660 1_455
Ba12 F20 2.851660 1_455
Ba12 F9 2.962290 1_555
Ba12 F4 2.962290 1_555
Ba12 O3 3.056628 1_555
Ba12 O23 3.202000 1_455
Ba13 F2 2.727068 1_555
Ba13 F35 2.755857 1_655
Ba13 F30 2.755857 1_655
Ba13 F19 2.772896 1_655
Ba13 F14 2.772896 1_655
Ba13 F24 2.851660 1_655
Ba13 F21 2.851660 1_655
Ba13 F8 2.962290 1_555
Ba13 F5 2.962290 1_555
Ba13 O2 3.056628 1_555
Ba13 O22 3.202000 1_655
Ba14 F1 2.727068 1_555
Ba14 F29 2.755857 1_555
Ba14 F32 2.755857 1_545
Ba14 F16 2.772896 1_545
Ba14 F13 2.772896 1_555
Ba14 F22 2.851660 1_555
Ba14 F27 2.851660 1_545
Ba14 F6 2.962290 1_555
Ba14 F11 2.962290 1_545
Ba14 O1 3.056628 1_555
Ba14 O21 3.202000 1_555
Ba15 F0 2.727068 1_555
Ba15 F28 2.755857 1_555
Ba15 F33 2.755857 1_545
Ba15 F17 2.772896 1_545
Ba15 F12 2.772896 1_555
Ba15 F23 2.851660 1_555
Ba15 F26 2.851660 1_545
Ba15 F7 2.962290 1_555
Ba15 F10 2.962290 1_545
Ba15 O0 3.056628 1_555
Ba15 O20 3.202000 1_555
Mo0 O12 1.720905 1_555
Mo0 O4 1.765410 1_555
Mo0 O20 1.911561 1_555
Mo1 O13 1.720905 1_555
Mo1 O5 1.765410 1_555
Mo1 O21 1.911561 1_555
Mo2 O14 1.720905 1_555
Mo2 O6 1.765410 1_555
Mo2 O22 1.911561 1_555
Mo3 O15 1.720905 1_555
Mo3 O7 1.765410 1_555
Mo3 O23 1.911561 1_555
Mo4 O16 1.720905 1_555
Mo4 O8 1.765410 1_555
Mo4 O21 1.911561 1_565
Mo5 O17 1.720905 1_555
Mo5 O9 1.765410 1_555
Mo5 O20 1.911561 1_565
Mo6 O18 1.720905 1_555
Mo6 O10 1.765410 1_555
Mo6 O23 1.911561 1_555
Mo7 O19 1.720905 1_555
Mo7 O11 1.765410 1_555
Mo7 O22 1.911561 1_555
F4 Mo0 2.021421 1_555
F5 Mo1 2.021421 1_555
F6 Mo2 2.021421 1_555
F7 Mo3 2.021421 1_555
F8 Mo4 2.021421 1_555
F9 Mo5 2.021421 1_555
F10 Mo6 2.021421 1_555
F11 Mo7 2.021421 1_555
F12 Mo0 2.252434 1_555
F13 Mo1 2.252434 1_555
F14 Mo2 2.252434 1_555
F15 Mo3 2.252434 1_555
F16 Mo4 2.252434 1_555
F17 Mo5 2.252434 1_555
F18 Mo6 2.252434 1_555
F19 Mo7 2.252434 1_555
F20 Mo3 2.073875 1_555
F21 Mo2 2.073875 1_555
F22 Mo1 2.073875 1_555
F23 Mo0 2.073875 1_555
F24 Mo7 2.073875 1_555
F25 Mo6 2.073875 1_555
F26 Mo5 2.073875 1_555
F27 Mo4 2.073875 1_555
