# generated using pymatgen
data_Tm4(Al8Pt3)3
_symmetry_space_group_name_H-M   'P 1'
_cell_length_a   7.46543210
_cell_length_b   7.47826782
_cell_length_c   13.04079766
_cell_angle_alpha   84.58782481
_cell_angle_beta   79.06971367
_cell_angle_gamma   59.92867847
_symmetry_Int_Tables_number   1
_chemical_formula_structural   Tm4(Al8Pt3)3
_chemical_formula_sum   'Tm4 Al24 Pt9'
_cell_volume   618.62433096
_cell_formula_units_Z   1
loop_
 _symmetry_equiv_pos_site_id
 _symmetry_equiv_pos_as_xyz
  1  'x, y, z'
loop_
 _atom_site_type_symbol
 _atom_site_label
 _atom_site_symmetry_multiplicity
 _atom_site_fract_x
 _atom_site_fract_y
 _atom_site_fract_z
 _atom_site_occupancy
  Tm  Tm0  1  0.39424740  0.16829668  0.80752364  1
  Tm  Tm1  1  0.60575260  0.83170332  0.19247636  1
  Tm  Tm2  1  0.73392224  0.49884093  0.80745770  1
  Tm  Tm3  1  0.26607776  0.50115907  0.19254230  1
  Al  Al0  1  0.68404497  0.83365696  0.94454863  1
  Al  Al1  1  0.31595503  0.16634304  0.05545137  1
  Al  Al2  1  0.14664629  0.83250617  0.56144279  1
  Al  Al3  1  0.85335371  0.16749383  0.43855721  1
  Al  Al4  1  0.48005192  0.16660153  0.55906136  1
  Al  Al5  1  0.51994808  0.83339847  0.44093864  1
  Al  Al6  1  0.21754758  0.16548426  0.32844441  1
  Al  Al7  1  0.78245242  0.83451574  0.67155559  1
  Al  Al8  1  0.43695294  0.50652048  0.67172989  1
  Al  Al9  1  0.56304706  0.49347952  0.32827011  1
  Al  Al10  1  0.10949753  0.15987013  0.67036329  1
  Al  Al11  1  0.89050247  0.84012987  0.32963671  1
  Al  Al12  1  0.35286261  0.49937448  0.94448850  1
  Al  Al13  1  0.64713739  0.50062552  0.05551150  1
  Al  Al14  1  0.01547835  0.16774671  0.95304690  1
  Al  Al15  1  0.98452165  0.83225329  0.04695310  1
  Al  Al16  1  0.18658978  0.49955396  0.44105647  1
  Al  Al17  1  0.81341022  0.50044604  0.55894353  1
  Al  Al18  1  0.73371533  0.16399187  0.18306994  1
  Al  Al19  1  0.26628467  0.83600813  0.81693006  1
  Al  Al20  1  0.06138983  0.63066165  0.81565306  1
  Al  Al21  1  0.93861017  0.36933835  0.18434694  1
  Al  Al22  1  0.85490838  0.04196077  0.81640245  1
  Al  Al23  1  0.14509162  0.95803923  0.18359755  1
  Pt  Pt0  1  0.12006432  0.49136634  0.63931642  1
  Pt  Pt1  1  0.87993568  0.50863366  0.36068358  1
  Pt  Pt2  1  0.65673081  0.17163865  0.99980897  1
  Pt  Pt3  1  0.34326919  0.82836135  0.00019103  1
  Pt  Pt4  1  0.53771508  0.16677327  0.36076711  1
  Pt  Pt5  1  0.46228492  0.83322673  0.63923289  1
  Pt  Pt6  1  0.77892595  0.17502584  0.63774920  1
  Pt  Pt7  1  0.22107405  0.82497416  0.36225080  1
  Pt  Pt8  1  0.00000000  0.50000000  -0.00000000  1
loop_
_geom_bond_atom_site_label_1
_geom_bond_atom_site_label_2
_geom_bond_distance
_geom_bond_site_symmetry_2
Al0 Pt3 2.528974 1_556
Al0 Pt2 2.592414 1_565
Al0 Pt8 2.592449 1_656
Al0 Al20 2.732333 1_655
Al0 Al22 2.745577 1_565
Al0 Al15 2.815170 1_556
Al0 Al1 2.855316 1_566
Al0 Al13 2.868640 1_556
Al0 Tm2 3.043297 1_555
Al0 Tm0 3.054995 1_565
Al0 Tm1 3.174628 1_556
Al1 Pt2 2.528974 1_554
Al1 Pt3 2.592414 1_545
Al1 Pt8 2.592449 1_555
Al1 Al21 2.732333 1_455
Al1 Al23 2.745577 1_545
Al1 Al14 2.815170 1_554
Al1 Al12 2.868640 1_554
Al1 Tm3 3.043297 1_555
Al1 Tm1 3.054995 1_545
Al1 Tm0 3.174628 1_554
Al2 Pt7 2.551162 1_555
Al2 Pt6 2.735941 1_465
Al2 Pt5 2.738963 1_555
Al2 Pt0 2.742478 1_555
Al2 Al8 2.816800 1_555
Al2 Al7 2.817264 1_455
Al2 Al5 2.931209 1_555
Al2 Al3 2.952002 1_465
Al3 Pt6 2.551162 1_555
Al3 Pt7 2.735941 1_645
Al3 Pt4 2.738963 1_555
Al3 Pt1 2.742478 1_555
Al3 Al9 2.816800 1_555
Al3 Al6 2.817264 1_655
Al3 Al4 2.931209 1_555
Al4 Pt4 2.539694 1_555
Al4 Pt6 2.656436 1_555
Al4 Pt0 2.662345 1_555
Al4 Pt5 2.667049 1_545
Al4 Al7 2.892443 1_545
Al4 Al8 2.903401 1_555
Al4 Al5 2.911509 1_545
Al4 Tm0 3.181437 1_555
Al5 Pt5 2.539694 1_555
Al5 Pt7 2.656436 1_555
Al5 Pt1 2.662345 1_555
Al5 Pt4 2.667049 1_565
Al5 Al6 2.892443 1_565
Al5 Al9 2.903401 1_555
Al5 Tm1 3.181437 1_555
Al6 Pt4 2.509322 1_555
Al6 Pt7 2.530767 1_545
Al6 Pt1 2.536609 1_455
Al6 Tm3 3.066323 1_555
Al6 Tm1 3.067600 1_545
Al7 Pt5 2.509322 1_555
Al7 Pt6 2.530767 1_565
Al7 Pt0 2.536609 1_655
Al7 Tm2 3.066323 1_555
Al7 Tm0 3.067600 1_565
Al8 Pt6 2.509032 1_555
Al8 Pt5 2.534147 1_555
Al8 Pt0 2.538708 1_555
Al8 Tm0 3.063360 1_555
Al8 Tm2 3.064745 1_555
Al9 Pt7 2.509032 1_555
Al9 Pt4 2.534147 1_555
Al9 Pt1 2.538708 1_555
Al9 Tm1 3.063360 1_555
Al9 Tm3 3.064745 1_555
Al10 Pt0 2.512012 1_555
Al10 Pt6 2.528382 1_455
Al10 Pt5 2.530306 1_545
Al10 Al2 2.813169 1_545
Al10 Al22 2.829643 1_455
Al10 Al19 2.832534 1_545
Al10 Al17 2.891706 1_455
Al10 Al4 2.892238 1_555
Al10 Tm2 3.052000 1_455
Al10 Tm0 3.052828 1_555
Al11 Pt1 2.512012 1_555
Al11 Pt7 2.528382 1_655
Al11 Pt4 2.530306 1_565
Al11 Al3 2.813169 1_565
Al11 Al23 2.829643 1_655
Al11 Al18 2.832534 1_565
Al11 Al16 2.891706 1_655
Al11 Al5 2.892238 1_555
Al11 Tm3 3.052000 1_655
Al11 Tm1 3.052828 1_555
Al12 Pt2 2.527588 1_555
Al12 Pt3 2.593540 1_556
Al12 Pt8 2.593948 1_556
Al12 Al20 2.730540 1_555
Al12 Al19 2.740347 1_555
Al12 Al15 2.813880 1_456
Al12 Al13 2.855168 1_556
Al12 Tm0 3.045340 1_555
Al12 Tm2 3.057486 1_555
Al12 Tm3 3.176269 1_556
Al13 Pt3 2.527588 1_555
Al13 Pt2 2.593540 1_554
Al13 Pt8 2.593948 1_655
Al13 Al21 2.730540 1_555
Al13 Al18 2.740347 1_555
Al13 Al14 2.813880 1_654
Al13 Tm1 3.045340 1_555
Al13 Tm3 3.057486 1_555
Al13 Tm2 3.176269 1_554
Al14 Pt8 2.556234 1_556
Al14 Pt2 2.617513 1_455
Al14 Pt3 2.619126 1_546
Al14 Al19 2.779646 1_545
Al14 Al15 2.782422 1_446
Al14 Al22 2.784497 1_455
Al14 Tm2 3.092642 1_455
Al14 Tm0 3.093920 1_555
Al15 Pt8 2.556234 1_655
Al15 Pt3 2.617513 1_655
Al15 Pt2 2.619126 1_564
Al15 Al18 2.779646 1_565
Al15 Al23 2.784497 1_655
Al15 Tm3 3.092642 1_655
Al15 Tm1 3.093920 1_555
Al16 Pt0 2.539431 1_555
Al16 Pt4 2.659693 1_555
Al16 Pt1 2.661738 1_455
Al16 Pt7 2.664670 1_555
Al16 Al9 2.894978 1_555
Al16 Al6 2.904500 1_555
Al16 Al4 2.908009 1_555
Al16 Al17 2.912740 1_455
Al16 Al2 2.927289 1_555
Al16 Tm3 3.182091 1_555
Al17 Pt1 2.539431 1_555
Al17 Pt5 2.659693 1_555
Al17 Pt0 2.661738 1_655
Al17 Pt6 2.664670 1_555
Al17 Al8 2.894978 1_555
Al17 Al7 2.904500 1_555
Al17 Al5 2.908009 1_555
Al17 Al3 2.927289 1_555
Al17 Tm2 3.182091 1_555
Al18 Pt4 2.490808 1_555
Al18 Pt2 2.550923 1_554
Al18 Al21 2.658330 1_555
Al18 Al23 2.658879 1_645
Al18 Al9 2.845895 1_555
Al18 Tm1 3.062616 1_545
Al18 Tm3 3.103932 1_555
Al19 Pt5 2.490808 1_555
Al19 Pt3 2.550923 1_556
Al19 Al20 2.658330 1_555
Al19 Al22 2.658879 1_465
Al19 Al8 2.845895 1_555
Al19 Tm0 3.062616 1_565
Al19 Tm2 3.103932 1_555
Al20 Pt0 2.485481 1_555
Al20 Pt8 2.555780 1_556
Al20 Al22 2.661819 1_465
Al20 Al7 2.820236 1_455
Al20 Al8 2.823130 1_555
Al20 Tm2 3.081201 1_455
Al20 Tm0 3.082261 1_555
Al21 Pt1 2.485481 1_555
Al21 Pt8 2.555780 1_655
Al21 Al23 2.661819 1_645
Al21 Al6 2.820236 1_655
Al21 Al9 2.823130 1_555
Al21 Tm3 3.081201 1_655
Al21 Tm1 3.082261 1_555
Al22 Pt6 2.497602 1_555
Al22 Pt2 2.551006 1_555
Al22 Al7 2.836975 1_545
Al22 Tm2 3.061893 1_555
Al22 Tm0 3.099551 1_555
Al23 Pt7 2.497602 1_555
Al23 Pt3 2.551006 1_555
Al23 Al6 2.836975 1_565
Al23 Tm3 3.061893 1_555
Al23 Tm1 3.099551 1_555
Pt0 Tm0 3.253549 1_555
Pt0 Tm2 3.253562 1_455
Pt1 Tm1 3.253549 1_555
Pt1 Tm3 3.253562 1_655
Pt2 Tm0 3.471687 1_555
Pt2 Tm3 3.475832 1_556
Pt2 Tm2 3.509795 1_555
Pt2 Tm1 3.510291 1_546
Pt3 Tm1 3.471687 1_555
Pt3 Tm2 3.475832 1_554
Pt3 Tm3 3.509795 1_555
Pt3 Tm0 3.510291 1_564
Pt4 Tm1 3.269917 1_545
Pt4 Tm3 3.278489 1_555
Pt5 Tm0 3.269917 1_565
Pt5 Tm2 3.278489 1_555
Pt6 Tm2 3.284590 1_555
Pt6 Tm0 3.296075 1_555
Pt7 Tm3 3.284590 1_555
Pt7 Tm1 3.296075 1_555
Pt8 Tm2 3.487586 1_454
Pt8 Tm3 3.487586 1_555
Pt8 Tm0 3.488903 1_554
Pt8 Tm1 3.488903 1_455
