# generated using pymatgen
data_Ce2Mg
_symmetry_space_group_name_H-M   'P 1'
_cell_length_a   13.38804843
_cell_length_b   13.38804843
_cell_length_c   15.46742002
_cell_angle_alpha   77.18511824
_cell_angle_beta   77.18511824
_cell_angle_gamma   27.92170857
_symmetry_Int_Tables_number   1
_chemical_formula_structural   Ce2Mg
_chemical_formula_sum   'Ce32 Mg16'
_cell_volume   1263.84487343
_cell_formula_units_Z   16
loop_
 _symmetry_equiv_pos_site_id
 _symmetry_equiv_pos_as_xyz
  1  'x, y, z'
loop_
 _atom_site_type_symbol
 _atom_site_label
 _atom_site_symmetry_multiplicity
 _atom_site_fract_x
 _atom_site_fract_y
 _atom_site_fract_z
 _atom_site_occupancy
  Ce  Ce0_0  1  0.39920950  0.39920950  0.07134800  1
  Ce  Ce0_1  1  0.39920950  0.39920950  0.57134800  1
  Ce  Ce0_2  1  0.39920950  0.89920950  0.07134800  1
  Ce  Ce0_3  1  0.39920950  0.89920950  0.57134800  1
  Ce  Ce0_4  1  0.89920950  0.39920950  0.07134800  1
  Ce  Ce0_5  1  0.89920950  0.39920950  0.57134800  1
  Ce  Ce0_6  1  0.89920950  0.89920950  0.07134800  1
  Ce  Ce0_7  1  0.89920950  0.89920950  0.57134800  1
  Ce  Ce1_0  1  0.06909600  0.06909600  0.23325750  1
  Ce  Ce1_1  1  0.06909600  0.06909600  0.73325750  1
  Ce  Ce1_2  1  0.06909600  0.56909600  0.23325750  1
  Ce  Ce1_3  1  0.06909600  0.56909600  0.73325750  1
  Ce  Ce1_4  1  0.56909600  0.06909600  0.23325750  1
  Ce  Ce1_5  1  0.56909600  0.06909600  0.73325750  1
  Ce  Ce1_6  1  0.56909600  0.56909600  0.23325750  1
  Ce  Ce1_7  1  0.56909600  0.56909600  0.73325750  1
  Ce  Ce2_0  1  0.43090400  0.43090400  0.26674250  1
  Ce  Ce2_1  1  0.43090400  0.43090400  0.76674250  1
  Ce  Ce2_2  1  0.43090400  0.93090400  0.26674250  1
  Ce  Ce2_3  1  0.43090400  0.93090400  0.76674250  1
  Ce  Ce2_4  1  0.93090400  0.43090400  0.26674250  1
  Ce  Ce2_5  1  0.93090400  0.43090400  0.76674250  1
  Ce  Ce2_6  1  0.93090400  0.93090400  0.26674250  1
  Ce  Ce2_7  1  0.93090400  0.93090400  0.76674250  1
  Ce  Ce3_0  1  0.10079050  0.10079050  0.42865200  1
  Ce  Ce3_1  1  0.10079050  0.10079050  0.92865200  1
  Ce  Ce3_2  1  0.10079050  0.60079050  0.42865200  1
  Ce  Ce3_3  1  0.10079050  0.60079050  0.92865200  1
  Ce  Ce3_4  1  0.60079050  0.10079050  0.42865200  1
  Ce  Ce3_5  1  0.60079050  0.10079050  0.92865200  1
  Ce  Ce3_6  1  0.60079050  0.60079050  0.42865200  1
  Ce  Ce3_7  1  0.60079050  0.60079050  0.92865200  1
  Mg  Mg0_0  1  0.26388000  0.26388000  0.09283750  1
  Mg  Mg0_1  1  0.26388000  0.26388000  0.59283750  1
  Mg  Mg0_2  1  0.26388000  0.76388000  0.09283750  1
  Mg  Mg0_3  1  0.26388000  0.76388000  0.59283750  1
  Mg  Mg0_4  1  0.76388000  0.26388000  0.09283750  1
  Mg  Mg0_5  1  0.76388000  0.26388000  0.59283750  1
  Mg  Mg0_6  1  0.76388000  0.76388000  0.09283750  1
  Mg  Mg0_7  1  0.76388000  0.76388000  0.59283750  1
  Mg  Mg1_0  1  0.23612000  0.23612000  0.40716250  1
  Mg  Mg1_1  1  0.23612000  0.23612000  0.90716250  1
  Mg  Mg1_2  1  0.23612000  0.73612000  0.40716250  1
  Mg  Mg1_3  1  0.23612000  0.73612000  0.90716250  1
  Mg  Mg1_4  1  0.73612000  0.23612000  0.40716250  1
  Mg  Mg1_5  1  0.73612000  0.23612000  0.90716250  1
  Mg  Mg1_6  1  0.73612000  0.73612000  0.40716250  1
  Mg  Mg1_7  1  0.73612000  0.73612000  0.90716250  1
loop_
_geom_bond_atom_site_label_1
_geom_bond_atom_site_label_2
_geom_bond_distance
_geom_bond_site_symmetry_2
Ce0_0 Ce3_5 3.214349 1_554
Ce0_0 Ce3_3 3.214349 1_554
Ce0_0 Ce0_6 3.229986 1_455
Ce0_0 Ce0_6 3.229986 1_545
Ce0_0 Ce1_4 3.290970 1_555
Ce0_0 Ce1_2 3.290970 1_555
Ce0_0 Ce2_0 3.309087 1_555
Ce0_0 Mg1_3 3.396481 1_554
Ce0_0 Mg1_5 3.396481 1_554
Ce0_0 Mg0_0 3.455773 1_555
Ce0_0 Mg0_2 3.471341 1_555
Ce0_0 Mg0_4 3.471341 1_555
Ce0_1 Ce3_4 3.214349 1_555
Ce0_1 Ce3_2 3.214349 1_555
Ce0_1 Ce0_7 3.229986 1_455
Ce0_1 Ce0_7 3.229986 1_545
Ce0_1 Ce1_5 3.290970 1_555
Ce0_1 Ce1_3 3.290970 1_555
Ce0_1 Ce2_1 3.309087 1_555
Ce0_1 Mg1_2 3.396481 1_555
Ce0_1 Mg1_4 3.396481 1_555
Ce0_1 Mg0_1 3.455773 1_555
Ce0_1 Mg0_3 3.471341 1_555
Ce0_1 Mg0_5 3.471341 1_555
Ce0_2 Ce3_1 3.214349 1_564
Ce0_2 Ce3_7 3.214349 1_554
Ce0_2 Ce0_4 3.229986 1_465
Ce0_2 Ce0_4 3.229986 1_555
Ce0_2 Ce1_0 3.290970 1_565
Ce0_2 Ce1_6 3.290970 1_555
Ce0_2 Ce2_2 3.309087 1_555
Ce0_2 Mg1_7 3.396481 1_554
Ce0_2 Mg1_1 3.396481 1_564
Ce0_2 Mg0_2 3.455773 1_555
Ce0_2 Mg0_0 3.471341 1_565
Ce0_2 Mg0_6 3.471341 1_555
Ce0_3 Ce3_0 3.214349 1_565
Ce0_3 Ce3_6 3.214349 1_555
Ce0_3 Ce0_5 3.229986 1_555
Ce0_3 Ce0_5 3.229986 1_465
Ce0_3 Ce1_7 3.290970 1_555
Ce0_3 Ce1_1 3.290970 1_565
Ce0_3 Ce2_3 3.309087 1_555
Ce0_3 Mg1_0 3.396481 1_565
Ce0_3 Mg1_6 3.396481 1_555
Ce0_3 Mg0_3 3.455773 1_555
Ce0_3 Mg0_7 3.471341 1_555
Ce0_3 Mg0_1 3.471341 1_565
Ce0_4 Ce3_1 3.214349 1_654
Ce0_4 Ce3_7 3.214349 1_554
Ce0_4 Ce1_0 3.290970 1_655
Ce0_4 Ce1_6 3.290970 1_555
Ce0_4 Ce2_4 3.309087 1_555
Ce0_4 Mg1_7 3.396481 1_554
Ce0_4 Mg1_1 3.396481 1_654
Ce0_4 Mg0_4 3.455773 1_555
Ce0_4 Mg0_0 3.471341 1_655
Ce0_4 Mg0_6 3.471341 1_555
Ce0_5 Ce3_0 3.214349 1_655
Ce0_5 Ce3_6 3.214349 1_555
Ce0_5 Ce1_1 3.290970 1_655
Ce0_5 Ce1_7 3.290970 1_555
Ce0_5 Ce2_5 3.309087 1_555
Ce0_5 Mg1_6 3.396481 1_555
Ce0_5 Mg1_0 3.396481 1_655
Ce0_5 Mg0_5 3.455773 1_555
Ce0_5 Mg0_7 3.471341 1_555
Ce0_5 Mg0_1 3.471341 1_655
Ce0_6 Ce3_5 3.214349 1_564
Ce0_6 Ce3_3 3.214349 1_654
Ce0_6 Ce1_4 3.290970 1_565
Ce0_6 Ce1_2 3.290970 1_655
Ce0_6 Ce2_6 3.309087 1_555
Ce0_6 Mg1_3 3.396481 1_654
Ce0_6 Mg1_5 3.396481 1_564
Ce0_6 Mg0_6 3.455773 1_555
Ce0_6 Mg0_2 3.471341 1_655
Ce0_6 Mg0_4 3.471341 1_565
Ce0_7 Ce3_4 3.214349 1_565
Ce0_7 Ce3_2 3.214349 1_655
Ce0_7 Ce1_5 3.290970 1_565
Ce0_7 Ce1_3 3.290970 1_655
Ce0_7 Ce2_7 3.309087 1_555
Ce0_7 Mg1_2 3.396481 1_655
Ce0_7 Mg1_4 3.396481 1_565
Ce0_7 Mg0_7 3.455773 1_555
Ce0_7 Mg0_3 3.471341 1_655
Ce0_7 Mg0_5 3.471341 1_565
Ce1_0 Ce1_6 3.229986 1_455
Ce1_0 Ce1_6 3.229986 1_545
Ce1_0 Mg0_4 3.287646 1_455
Ce1_0 Mg0_2 3.287646 1_545
Ce1_0 Ce3_0 3.309087 1_555
Ce1_0 Mg1_4 3.441137 1_455
Ce1_0 Mg1_2 3.441137 1_545
Ce1_0 Ce2_2 3.464871 1_545
Ce1_0 Ce2_4 3.464871 1_455
Ce1_0 Ce2_6 3.508982 1_445
Ce1_1 Ce1_7 3.229986 1_455
Ce1_1 Ce1_7 3.229986 1_545
Ce1_1 Mg0_5 3.287646 1_455
Ce1_1 Mg0_3 3.287646 1_545
Ce1_1 Ce3_1 3.309087 1_555
Ce1_1 Mg1_5 3.441137 1_455
Ce1_1 Mg1_3 3.441137 1_545
Ce1_1 Ce2_3 3.464871 1_545
Ce1_1 Ce2_5 3.464871 1_455
Ce1_1 Ce2_7 3.508982 1_445
Ce1_2 Ce1_4 3.229986 1_555
Ce1_2 Ce1_4 3.229986 1_465
Ce1_2 Mg0_6 3.287646 1_455
Ce1_2 Mg0_0 3.287646 1_555
Ce1_2 Ce3_2 3.309087 1_555
Ce1_2 Mg1_6 3.441137 1_455
Ce1_2 Mg1_0 3.441137 1_555
Ce1_2 Ce2_6 3.464871 1_455
Ce1_2 Ce2_0 3.464871 1_555
Ce1_2 Ce2_4 3.508982 1_455
Ce1_3 Ce1_5 3.229986 1_555
Ce1_3 Ce1_5 3.229986 1_465
Ce1_3 Mg0_1 3.287646 1_555
Ce1_3 Mg0_7 3.287646 1_455
Ce1_3 Ce3_3 3.309087 1_555
Ce1_3 Mg1_1 3.441137 1_555
Ce1_3 Mg1_7 3.441137 1_455
Ce1_3 Ce2_1 3.464871 1_555
Ce1_3 Ce2_7 3.464871 1_455
Ce1_3 Ce2_5 3.508982 1_455
Ce1_4 Mg0_6 3.287646 1_545
Ce1_4 Mg0_0 3.287646 1_555
Ce1_4 Ce3_4 3.309087 1_555
Ce1_4 Mg1_6 3.441137 1_545
Ce1_4 Mg1_0 3.441137 1_555
Ce1_4 Ce2_6 3.464871 1_545
Ce1_4 Ce2_0 3.464871 1_555
Ce1_4 Ce2_2 3.508982 1_545
Ce1_5 Mg0_1 3.287646 1_555
Ce1_5 Mg0_7 3.287646 1_545
Ce1_5 Ce3_5 3.309087 1_555
Ce1_5 Mg1_1 3.441137 1_555
Ce1_5 Mg1_7 3.441137 1_545
Ce1_5 Ce2_1 3.464871 1_555
Ce1_5 Ce2_7 3.464871 1_545
Ce1_5 Ce2_3 3.508982 1_545
Ce1_6 Mg0_4 3.287646 1_555
Ce1_6 Mg0_2 3.287646 1_555
Ce1_6 Ce3_6 3.309087 1_555
Ce1_6 Mg1_4 3.441137 1_555
Ce1_6 Mg1_2 3.441137 1_555
Ce1_6 Ce2_2 3.464871 1_555
Ce1_6 Ce2_4 3.464871 1_555
Ce1_6 Ce2_0 3.508982 1_555
Ce1_7 Mg0_5 3.287646 1_555
Ce1_7 Mg0_3 3.287646 1_555
Ce1_7 Ce3_7 3.309087 1_555
Ce1_7 Mg1_5 3.441137 1_555
Ce1_7 Mg1_3 3.441137 1_555
Ce1_7 Ce2_3 3.464871 1_555
Ce1_7 Ce2_5 3.464871 1_555
Ce1_7 Ce2_1 3.508982 1_555
Ce2_0 Ce2_6 3.229986 1_455
Ce2_0 Ce2_6 3.229986 1_545
Ce2_0 Mg1_2 3.287646 1_555
Ce2_0 Mg1_4 3.287646 1_555
Ce2_0 Ce3_4 3.290970 1_555
Ce2_0 Ce3_2 3.290970 1_555
Ce2_0 Mg0_2 3.441137 1_555
Ce2_0 Mg0_4 3.441137 1_555
Ce2_1 Ce2_7 3.229986 1_545
Ce2_1 Ce2_7 3.229986 1_455
Ce2_1 Mg1_3 3.287646 1_555
Ce2_1 Mg1_5 3.287646 1_555
Ce2_1 Ce3_5 3.290970 1_555
Ce2_1 Ce3_3 3.290970 1_555
Ce2_1 Mg0_3 3.441137 1_555
Ce2_1 Mg0_5 3.441137 1_555
Ce2_2 Ce2_4 3.229986 1_555
Ce2_2 Ce2_4 3.229986 1_465
Ce2_2 Mg1_6 3.287646 1_555
Ce2_2 Mg1_0 3.287646 1_565
Ce2_2 Ce3_0 3.290970 1_565
Ce2_2 Ce3_6 3.290970 1_555
Ce2_2 Mg0_0 3.441137 1_565
Ce2_2 Mg0_6 3.441137 1_555
Ce2_3 Ce2_5 3.229986 1_555
Ce2_3 Ce2_5 3.229986 1_465
Ce2_3 Mg1_7 3.287646 1_555
Ce2_3 Mg1_1 3.287646 1_565
Ce2_3 Ce3_1 3.290970 1_565
Ce2_3 Ce3_7 3.290970 1_555
Ce2_3 Mg0_7 3.441137 1_555
Ce2_3 Mg0_1 3.441137 1_565
Ce2_4 Mg1_6 3.287646 1_555
Ce2_4 Mg1_0 3.287646 1_655
Ce2_4 Ce3_0 3.290970 1_655
Ce2_4 Ce3_6 3.290970 1_555
Ce2_4 Mg0_0 3.441137 1_655
Ce2_4 Mg0_6 3.441137 1_555
Ce2_5 Mg1_7 3.287646 1_555
Ce2_5 Mg1_1 3.287646 1_655
Ce2_5 Ce3_1 3.290970 1_655
Ce2_5 Ce3_7 3.290970 1_555
Ce2_5 Mg0_7 3.441137 1_555
Ce2_5 Mg0_1 3.441137 1_655
Ce2_6 Mg1_2 3.287646 1_655
Ce2_6 Mg1_4 3.287646 1_565
Ce2_6 Ce3_4 3.290970 1_565
Ce2_6 Ce3_2 3.290970 1_655
Ce2_6 Mg0_2 3.441137 1_655
Ce2_6 Mg0_4 3.441137 1_565
Ce2_7 Mg1_3 3.287646 1_655
Ce2_7 Mg1_5 3.287646 1_565
Ce2_7 Ce3_5 3.290970 1_565
Ce2_7 Ce3_3 3.290970 1_655
Ce2_7 Mg0_5 3.441137 1_565
Ce2_7 Mg0_3 3.441137 1_655
Ce3_0 Ce3_6 3.229986 1_545
Ce3_0 Ce3_6 3.229986 1_455
Ce3_0 Mg0_5 3.396481 1_455
Ce3_0 Mg0_3 3.396481 1_545
Ce3_0 Mg1_0 3.455773 1_555
Ce3_0 Mg1_4 3.471341 1_455
Ce3_0 Mg1_2 3.471341 1_545
Ce3_1 Ce3_7 3.229986 1_455
Ce3_1 Ce3_7 3.229986 1_545
Ce3_1 Mg0_4 3.396481 1_456
Ce3_1 Mg0_2 3.396481 1_546
Ce3_1 Mg1_1 3.455773 1_555
Ce3_1 Mg1_5 3.471341 1_455
Ce3_1 Mg1_3 3.471341 1_545
Ce3_2 Ce3_4 3.229986 1_465
Ce3_2 Ce3_4 3.229986 1_555
Ce3_2 Mg0_1 3.396481 1_555
Ce3_2 Mg0_7 3.396481 1_455
Ce3_2 Mg1_2 3.455773 1_555
Ce3_2 Mg1_6 3.471341 1_455
Ce3_2 Mg1_0 3.471341 1_555
Ce3_3 Ce3_5 3.229986 1_555
Ce3_3 Ce3_5 3.229986 1_465
Ce3_3 Mg0_6 3.396481 1_456
Ce3_3 Mg0_0 3.396481 1_556
Ce3_3 Mg1_3 3.455773 1_555
Ce3_3 Mg1_1 3.471341 1_555
Ce3_3 Mg1_7 3.471341 1_455
Ce3_4 Mg0_1 3.396481 1_555
Ce3_4 Mg0_7 3.396481 1_545
Ce3_4 Mg1_4 3.455773 1_555
Ce3_4 Mg1_6 3.471341 1_545
Ce3_4 Mg1_0 3.471341 1_555
Ce3_5 Mg0_6 3.396481 1_546
Ce3_5 Mg0_0 3.396481 1_556
Ce3_5 Mg1_5 3.455773 1_555
Ce3_5 Mg1_1 3.471341 1_555
Ce3_5 Mg1_7 3.471341 1_545
Ce3_6 Mg0_5 3.396481 1_555
Ce3_6 Mg0_3 3.396481 1_555
Ce3_6 Mg1_6 3.455773 1_555
Ce3_6 Mg1_4 3.471341 1_555
Ce3_6 Mg1_2 3.471341 1_555
Ce3_7 Mg0_4 3.396481 1_556
Ce3_7 Mg0_2 3.396481 1_556
Ce3_7 Mg1_7 3.455773 1_555
Ce3_7 Mg1_5 3.471341 1_555
Ce3_7 Mg1_3 3.471341 1_555
Mg0_0 Mg1_1 3.116920 1_554
Mg0_0 Mg0_6 3.229986 1_455
Mg0_0 Mg0_6 3.229986 1_545
Mg0_1 Mg1_0 3.116920 1_555
Mg0_1 Mg0_7 3.229986 1_545
Mg0_1 Mg0_7 3.229986 1_455
Mg0_2 Mg1_3 3.116920 1_554
Mg0_2 Mg0_4 3.229986 1_465
Mg0_2 Mg0_4 3.229986 1_555
Mg0_3 Mg1_2 3.116920 1_555
Mg0_3 Mg0_5 3.229986 1_555
Mg0_3 Mg0_5 3.229986 1_465
Mg0_4 Mg1_5 3.116920 1_554
Mg0_5 Mg1_4 3.116920 1_555
Mg0_6 Mg1_7 3.116920 1_554
Mg0_7 Mg1_6 3.116920 1_555
Mg1_0 Mg1_6 3.229986 1_455
Mg1_0 Mg1_6 3.229986 1_545
Mg1_1 Mg1_7 3.229986 1_455
Mg1_1 Mg1_7 3.229986 1_545
Mg1_2 Mg1_4 3.229986 1_465
Mg1_2 Mg1_4 3.229986 1_555
Mg1_3 Mg1_5 3.229986 1_555
Mg1_3 Mg1_5 3.229986 1_465
