# generated using pymatgen
data_NaLiMnS2
_symmetry_space_group_name_H-M   'P 1'
_cell_length_a   3.77281420
_cell_length_b   3.77281420
_cell_length_c   6.70072000
_cell_angle_alpha   90.00000000
_cell_angle_beta   90.00000000
_cell_angle_gamma   120.00000353
_symmetry_Int_Tables_number   1
_chemical_formula_structural   NaLiMnS2
_chemical_formula_sum   'Na1 Li1 Mn1 S2'
_cell_volume   82.60054697
_cell_formula_units_Z   1
loop_
 _symmetry_equiv_pos_site_id
 _symmetry_equiv_pos_as_xyz
  1  'x, y, z'
loop_
 _atom_site_type_symbol
 _atom_site_label
 _atom_site_symmetry_multiplicity
 _atom_site_fract_x
 _atom_site_fract_y
 _atom_site_fract_z
 _atom_site_occupancy
  Na  Na0  1  0.66666700  0.33333300  0.98388100  1
  Li  Li0  1  0.00000000  0.00000000  0.63907900  1
  Mn  Mn0  1  0.33333300  0.66666700  0.37269100  1
  S  S0  1  0.00000000  0.00000000  0.28663100  1
  S  S1  1  0.33333300  0.66666700  0.71771700  1
loop_
_geom_bond_atom_site_label_1
_geom_bond_atom_site_label_2
_geom_bond_distance
_geom_bond_site_symmetry_2
Na0 S1 2.815233 1_545
Na0 S1 2.815233 1_655
Na0 S1 2.815238 1_555
Na0 S0 2.976591 1_656
Na0 S0 2.976593 1_666
Na0 S0 2.976593 1_556
Li0 S1 2.241061 1_545
Li0 S1 2.241064 1_555
Li0 S1 2.241064 1_445
Li0 S0 2.361655 1_555
Mn0 S0 2.253273 1_565
Mn0 S0 2.253276 1_665
Mn0 S0 2.253276 1_555
Mn0 S1 2.311923 1_555
