# generated using pymatgen
data_Dy(CoGe)2
_symmetry_space_group_name_H-M   'P 1'
_cell_length_a   3.91879989
_cell_length_b   3.91879949
_cell_length_c   5.73781660
_cell_angle_alpha   109.96760327
_cell_angle_beta   109.96759837
_cell_angle_gamma   89.99999923
_symmetry_Int_Tables_number   1
_chemical_formula_structural   Dy(CoGe)2
_chemical_formula_sum   'Dy1 Co2 Ge2'
_cell_volume   77.15882543
_cell_formula_units_Z   1
loop_
 _symmetry_equiv_pos_site_id
 _symmetry_equiv_pos_as_xyz
  1  'x, y, z'
loop_
 _atom_site_type_symbol
 _atom_site_label
 _atom_site_symmetry_multiplicity
 _atom_site_fract_x
 _atom_site_fract_y
 _atom_site_fract_z
 _atom_site_occupancy
  Dy  Dy0  1  0.00000000  0.00000000  -0.00000000  1
  Co  Co0  1  0.75000000  0.25000000  0.50000000  1
  Co  Co1  1  0.25000000  0.75000000  0.50000000  1
  Ge  Ge0  1  0.62816397  0.62816397  0.25632695  1
  Ge  Ge1  1  0.37183603  0.37183603  0.74367305  1
loop_
_geom_bond_atom_site_label_1
_geom_bond_atom_site_label_2
_geom_bond_distance
_geom_bond_site_symmetry_2
Dy0 Ge0 3.055667 1_445
Dy0 Ge1 3.055667 1_554
Dy0 Ge1 3.055670 1_544
Dy0 Ge0 3.055670 1_455
Dy0 Ge0 3.055670 1_545
Dy0 Ge1 3.055670 1_454
Dy0 Ge1 3.055672 1_444
Dy0 Ge0 3.055672 1_555
Co0 Ge0 2.310442 1_545
Co0 Ge1 2.310443 1_655
Co0 Ge0 2.310446 1_555
Co0 Ge1 2.310446 1_555
Co0 Dy0 3.185947 1_655
Co0 Dy0 3.185947 1_666
Co0 Dy0 3.185947 1_656
Co0 Dy0 3.185947 1_555
Co1 Ge1 2.310442 1_565
Co1 Ge0 2.310443 1_455
Co1 Ge1 2.310446 1_555
Co1 Ge0 2.310446 1_555
Co1 Dy0 3.185947 1_566
Co1 Dy0 3.185947 1_555
Co1 Dy0 3.185947 1_565
Co1 Dy0 3.185947 1_666
Ge0 Ge1 2.575750 1_554
