# generated using pymatgen
data_K(CoS)2
_symmetry_space_group_name_H-M   'P 1'
_cell_length_a   3.67339867
_cell_length_b   3.67339855
_cell_length_c   7.30509672
_cell_angle_alpha   104.56199465
_cell_angle_beta   104.56199048
_cell_angle_gamma   89.99998690
_symmetry_Int_Tables_number   1
_chemical_formula_structural   K(CoS)2
_chemical_formula_sum   'K1 Co2 S2'
_cell_volume   92.13201902
_cell_formula_units_Z   1
loop_
 _symmetry_equiv_pos_site_id
 _symmetry_equiv_pos_as_xyz
  1  'x, y, z'
loop_
 _atom_site_type_symbol
 _atom_site_label
 _atom_site_symmetry_multiplicity
 _atom_site_fract_x
 _atom_site_fract_y
 _atom_site_fract_z
 _atom_site_occupancy
  K  K0  1  0.00000000  -0.00000000  -0.00000000  1
  Co  Co0  1  0.75000000  0.25000000  0.50000000  1
  Co  Co1  1  0.25000000  0.75000000  0.50000000  1
  S  S0  1  0.64526993  0.64526993  0.29054086  1
  S  S1  1  0.35473007  0.35473007  0.70945914  1
loop_
_geom_bond_atom_site_label_1
_geom_bond_atom_site_label_2
_geom_bond_distance
_geom_bond_site_symmetry_2
K0 S0 3.268346 1_555
K0 S1 3.268346 1_444
K0 S0 3.268348 1_455
K0 S1 3.268348 1_544
K0 S0 3.268348 1_545
K0 S1 3.268348 1_454
K0 S1 3.268351 1_554
K0 S0 3.268351 1_445
Co0 S1 2.327813 1_555
Co0 S0 2.327813 1_555
Co0 S0 2.327816 1_545
Co0 S1 2.327816 1_655
Co1 S0 2.327813 1_555
Co1 S1 2.327813 1_555
Co1 S1 2.327816 1_565
Co1 S0 2.327816 1_455
