# generated using pymatgen
data_FeO
_symmetry_space_group_name_H-M   'P 1'
_cell_length_a   10.70630114
_cell_length_b   10.33301314
_cell_length_c   9.98227324
_cell_angle_alpha   89.59054699
_cell_angle_beta   97.81741045
_cell_angle_gamma   88.93808094
_symmetry_Int_Tables_number   1
_chemical_formula_structural   FeO
_chemical_formula_sum   'Fe40 O40'
_cell_volume   1093.81946312
_cell_formula_units_Z   40
loop_
 _symmetry_equiv_pos_site_id
 _symmetry_equiv_pos_as_xyz
  1  'x, y, z'
loop_
 _atom_site_type_symbol
 _atom_site_label
 _atom_site_symmetry_multiplicity
 _atom_site_fract_x
 _atom_site_fract_y
 _atom_site_fract_z
 _atom_site_occupancy
  Fe  Fe0  1  0.07873525  0.91552389  0.29894524  1
  Fe  Fe1  1  0.10689445  0.50600440  0.63619737  1
  Fe  Fe2  1  0.92913550  0.28564674  0.66509983  1
  Fe  Fe3  1  0.80788688  0.14722122  0.17373311  1
  Fe  Fe4  1  0.16873918  0.77522645  0.56070152  1
  Fe  Fe5  1  0.43794338  0.73991387  0.67213790  1
  Fe  Fe6  1  0.95885290  0.43499999  0.05917078  1
  Fe  Fe7  1  0.83936498  0.58960373  0.46599698  1
  Fe  Fe8  1  0.21464329  0.34480658  0.93297171  1
  Fe  Fe9  1  0.32358966  0.23752307  0.69220753  1
  Fe  Fe10  1  0.31694516  0.43113721  0.38896494  1
  Fe  Fe11  1  0.59618742  0.53237610  0.57304493  1
  Fe  Fe12  1  0.68339898  0.78767281  0.87342294  1
  Fe  Fe13  1  0.75705753  0.88671900  0.26694178  1
  Fe  Fe14  1  0.44864688  0.98262800  0.78187271  1
  Fe  Fe15  1  0.63211692  0.42853805  0.00456794  1
  Fe  Fe16  1  0.85348975  0.68262757  0.12059999  1
  Fe  Fe17  1  0.27698912  0.01050223  0.99831032  1
  Fe  Fe18  1  0.85472019  0.06484605  0.49560235  1
  Fe  Fe19  1  0.32592508  0.73314017  0.37206637  1
  Fe  Fe20  1  0.50750059  0.94483706  0.27532663  1
  Fe  Fe21  1  0.38960583  0.50591932  0.79352684  1
  Fe  Fe22  1  0.84906286  0.02106091  0.82240529  1
  Fe  Fe23  1  0.09682370  0.05141150  0.71862707  1
  Fe  Fe24  1  0.08172973  0.61136650  0.33808764  1
  Fe  Fe25  1  0.61938570  0.00169530  0.02201735  1
  Fe  Fe26  1  0.78098010  0.51940552  0.78783266  1
  Fe  Fe27  1  0.35345830  0.05730059  0.48364536  1
  Fe  Fe28  1  0.18948413  0.64613279  0.07160242  1
  Fe  Fe29  1  0.63106273  0.21656937  0.72355383  1
  Fe  Fe30  1  0.03806738  0.85485883  0.99167067  1
  Fe  Fe31  1  0.62148636  0.30838477  0.32747614  1
  Fe  Fe32  1  0.66025524  0.83202256  0.58044297  1
  Fe  Fe33  1  0.92013100  0.76154862  0.69334504  1
  Fe  Fe34  1  0.43854315  0.73992372  0.04326937  1
  Fe  Fe35  1  0.88813512  0.36590045  0.33539692  1
  Fe  Fe36  1  0.13831338  0.22698847  0.43419184  1
  Fe  Fe37  1  0.05942522  0.15410939  0.07976205  1
  Fe  Fe38  1  0.43063264  0.25437097  0.10556713  1
  Fe  Fe39  1  0.52186480  0.56255199  0.27187116  1
  O  O0  1  0.43526942  0.56612249  0.45617657  1
  O  O1  1  0.48006108  0.11871879  0.65689985  1
  O  O2  1  0.02843019  0.76143279  0.16927240  1
  O  O3  1  0.24463871  0.58436279  0.26381741  1
  O  O4  1  0.23497666  0.19972920  0.05779688  1
  O  O5  1  0.19335673  0.05600976  0.35368157  1
  O  O6  1  0.54358031  0.59020501  0.74752722  1
  O  O7  1  0.70775022  0.82077214  0.08619269  1
  O  O8  1  0.68239512  0.48244251  0.41378826  1
  O  O9  1  0.66665266  0.36802770  0.83058500  1
  O  O10  1  0.78488167  0.21649164  0.36850765  1
  O  O11  1  0.77276876  0.08020567  0.98390197  1
  O  O12  1  0.32796145  0.26163356  0.48905018  1
  O  O13  1  0.13490183  0.43142347  0.43727367  1
  O  O14  1  0.75236401  0.66524322  0.62603251  1
  O  O15  1  0.39414055  0.35739407  0.91924647  1
  O  O16  1  0.11775309  0.48188938  0.99887193  1
  O  O17  1  0.46190760  0.04492547  0.10426879  1
  O  O18  1  0.02444358  0.16841061  0.56106364  1
  O  O19  1  0.94110844  0.94568901  0.65837192  1
  O  O20  1  0.90402509  0.99128595  0.29822088  1
  O  O21  1  0.96401803  0.27816494  0.17742420  1
  O  O22  1  0.79227413  0.16100309  0.67578196  1
  O  O23  1  0.65959817  0.93832148  0.41385410  1
  O  O24  1  0.17359438  0.33654889  0.74313562  1
  O  O25  1  0.53458823  0.56627022  0.07187714  1
  O  O26  1  0.24271708  0.81870584  0.01728127  1
  O  O27  1  0.43992402  0.36286182  0.27276935  1
  O  O28  1  0.46301996  0.76518971  0.24644484  1
  O  O29  1  0.00656981  0.68434161  0.53560879  1
  O  O30  1  0.04674763  0.03553963  0.92363794  1
  O  O31  1  0.92690371  0.47115859  0.68959532  1
  O  O32  1  0.79697231  0.52707861  0.00092214  1
  O  O33  1  0.87427956  0.79252670  0.88143233  1
  O  O34  1  0.27901241  0.05904391  0.79486950  1
  O  O35  1  0.26482696  0.62445304  0.68883801  1
  O  O36  1  0.49392905  0.82389344  0.88040506  1
  O  O37  1  0.89813371  0.55297698  0.28554086  1
  O  O38  1  0.63469586  0.28023226  0.12080345  1
  O  O39  1  0.33445135  0.85735926  0.53347505  1
loop_
_geom_bond_atom_site_label_1
_geom_bond_atom_site_label_2
_geom_bond_distance
_geom_bond_site_symmetry_2
Fe0 O5 1.951083 1_565
Fe0 O20 2.013365 1_455
Fe0 O2 2.091027 1_555
Fe1 O31 2.104669 1_455
Fe1 O24 2.105944 1_555
Fe1 O35 2.115982 1_555
Fe1 O13 2.191378 1_555
Fe1 O29 2.272552 1_555
Fe2 O31 1.934281 1_555
Fe2 O18 1.961546 1_655
Fe2 O22 1.981844 1_555
Fe3 O11 2.011540 1_554
Fe3 O10 2.120588 1_555
Fe3 O21 2.166582 1_555
Fe3 O20 2.182166 1_545
Fe3 O38 2.288010 1_555
Fe4 O29 1.976026 1_555
Fe4 O39 2.031124 1_555
Fe4 O35 2.162346 1_555
Fe5 O6 1.981280 1_555
Fe5 O39 2.031085 1_555
Fe5 O35 2.247126 1_555
Fe5 O36 2.267271 1_555
Fe6 O16 1.948383 1_654
Fe6 O32 1.975844 1_555
Fe6 O21 1.993576 1_555
Fe7 O37 2.023183 1_555
Fe7 O8 2.039850 1_555
Fe7 O29 2.093339 1_655
Fe7 O14 2.103855 1_555
Fe7 O31 2.589900 1_555
Fe8 O24 1.889069 1_555
Fe8 O16 1.913037 1_555
Fe8 O4 1.932532 1_556
Fe8 O15 1.951782 1_555
Fe9 O24 2.013200 1_555
Fe9 O12 2.048405 1_555
Fe9 O1 2.127959 1_555
Fe9 O34 2.194955 1_555
Fe9 O15 2.617300 1_555
Fe10 O0 1.961657 1_555
Fe10 O27 1.992322 1_555
Fe10 O12 2.003757 1_555
Fe10 O13 2.070430 1_555
Fe10 O3 2.080848 1_555
Fe11 O0 1.968732 1_555
Fe11 O6 1.994285 1_555
Fe11 O8 2.009624 1_555
Fe11 O14 2.194398 1_555
Fe12 O33 2.035858 1_555
Fe12 O36 2.066526 1_555
Fe12 O7 2.135196 1_556
Fe13 O20 1.917024 1_555
Fe13 O7 1.941719 1_555
Fe13 O23 1.982563 1_555
Fe14 O36 1.926262 1_555
Fe14 O1 1.937390 1_565
Fe14 O34 1.987749 1_565
Fe15 O38 1.913044 1_555
Fe15 O25 1.927860 1_555
Fe15 O9 1.930177 1_554
Fe15 O32 2.058361 1_555
Fe15 O15 2.691728 1_554
Fe16 O2 2.054695 1_655
Fe16 O32 2.059992 1_555
Fe16 O7 2.086831 1_555
Fe16 O37 2.113001 1_555
Fe16 O33 2.674722 1_554
Fe17 O26 2.034369 1_546
Fe17 O34 2.091416 1_555
Fe17 O4 2.105878 1_556
Fe17 O17 2.150970 1_556
Fe17 O30 2.484494 1_555
Fe18 O10 2.072224 1_555
Fe18 O19 2.128806 1_545
Fe18 O18 2.152472 1_655
Fe18 O22 2.235444 1_555
Fe18 O20 2.242323 1_545
Fe18 O23 2.528233 1_545
Fe19 O3 2.026296 1_555
Fe19 O39 2.060532 1_555
Fe19 O28 2.085501 1_555
Fe19 O0 2.165829 1_555
Fe20 O28 1.938767 1_555
Fe20 O23 1.987577 1_555
Fe20 O17 1.988188 1_565
Fe21 O15 1.971239 1_555
Fe21 O35 1.979448 1_555
Fe21 O6 1.985024 1_555
Fe22 O11 1.998344 1_555
Fe22 O22 2.073151 1_555
Fe22 O19 2.165089 1_545
Fe22 O30 2.226005 1_655
Fe22 O33 2.430990 1_545
Fe23 O34 1.998220 1_555
Fe23 O19 2.034365 1_445
Fe23 O18 2.035298 1_555
Fe23 O30 2.190735 1_555
Fe24 O3 2.001564 1_555
Fe24 O37 2.066610 1_455
Fe24 O13 2.131361 1_555
Fe24 O2 2.288696 1_555
Fe24 O29 2.352472 1_555
Fe25 O11 1.927312 1_554
Fe25 O17 2.017474 1_555
Fe25 O7 2.133737 1_545
Fe25 O36 2.605744 1_544
Fe26 O31 2.011430 1_555
Fe26 O9 2.081004 1_555
Fe26 O32 2.112834 1_556
Fe26 O14 2.187895 1_555
Fe27 O5 2.004379 1_555
Fe27 O12 2.125936 1_555
Fe27 O39 2.141402 1_545
Fe27 O1 2.154286 1_555
Fe28 O26 1.976505 1_555
Fe28 O16 1.977720 1_554
Fe28 O3 2.024342 1_555
Fe28 O2 2.396028 1_555
Fe29 O9 1.916049 1_555
Fe29 O22 1.930585 1_555
Fe29 O1 1.963724 1_555
Fe30 O30 1.990207 1_565
Fe30 O2 2.028459 1_556
Fe30 O33 2.056166 1_455
Fe30 O26 2.195790 1_556
Fe31 O10 1.966619 1_555
Fe31 O27 2.014935 1_555
Fe31 O8 2.077285 1_555
Fe31 O38 2.108857 1_555
Fe32 O23 1.985519 1_555
Fe32 O14 1.988260 1_555
Fe33 O19 1.954573 1_555
Fe33 O33 2.030293 1_555
Fe33 O29 2.087855 1_655
Fe33 O14 2.101300 1_555
Fe34 O36 2.002174 1_554
Fe34 O28 2.028733 1_555
Fe34 O25 2.050139 1_555
Fe34 O26 2.216161 1_555
Fe35 O10 1.967258 1_555
Fe35 O37 2.001073 1_555
Fe35 O21 2.076114 1_555
Fe36 O18 1.973066 1_555
Fe36 O5 2.055490 1_555
Fe36 O12 2.068321 1_555
Fe36 O13 2.112585 1_555
Fe37 O21 1.969059 1_455
Fe37 O30 1.980971 1_554
Fe37 O4 1.986529 1_555
Fe38 O27 2.009499 1_555
Fe38 O15 2.122202 1_554
Fe38 O4 2.170281 1_555
Fe38 O17 2.184212 1_555
Fe38 O38 2.190789 1_555
Fe39 O25 2.019580 1_555
Fe39 O0 2.170122 1_555
Fe39 O28 2.178437 1_555
Fe39 O8 2.216792 1_555
Fe39 O27 2.257499 1_555
