# generated using pymatgen
data_Lu7(NiTe)2
_symmetry_space_group_name_H-M   'P 1'
_cell_length_a   9.14560189
_cell_length_b   9.14560189
_cell_length_c   9.14560189
_cell_angle_alpha   156.06615186
_cell_angle_beta   118.05422624
_cell_angle_gamma   67.39837843
_symmetry_Int_Tables_number   1
_chemical_formula_structural   Lu7(NiTe)2
_chemical_formula_sum   'Lu7 Ni2 Te2'
_cell_volume   271.64092179
_cell_formula_units_Z   1
loop_
 _symmetry_equiv_pos_site_id
 _symmetry_equiv_pos_as_xyz
  1  'x, y, z'
loop_
 _atom_site_type_symbol
 _atom_site_label
 _atom_site_symmetry_multiplicity
 _atom_site_fract_x
 _atom_site_fract_y
 _atom_site_fract_z
 _atom_site_occupancy
  Lu  Lu0  1  0.30836600  0.68545300  0.62291300  1
  Lu  Lu1  1  0.93746100  0.31454700  0.62291300  1
  Lu  Lu2  1  0.99936000  0.00000000  0.99936000  1
  Lu  Lu3  1  0.55302600  0.13510800  0.41791800  1
  Lu  Lu4  1  0.28281000  0.86489200  0.41791800  1
  Lu  Lu5  1  0.62617000  0.35353300  0.27263700  1
  Lu  Lu6  1  0.91910300  0.64646700  0.27263700  1
  Ni  Ni0  1  0.16570300  0.23637500  0.92932800  1
  Ni  Ni1  1  0.69295300  0.76362500  0.92932800  1
  Te  Te0  1  0.66066700  0.00000000  0.66066700  1
  Te  Te1  1  0.26618000  0.50000000  0.76618000  1
loop_
_geom_bond_atom_site_label_1
_geom_bond_atom_site_label_2
_geom_bond_distance
_geom_bond_site_symmetry_2
Lu0 Ni0 2.741739 1_554
Lu0 Ni0 2.741739 1_565
Lu0 Ni1 3.120041 1_555
Lu0 Te1 3.127820 1_555
Lu1 Ni1 2.741743 1_544
Lu1 Ni1 2.741745 1_555
Lu1 Ni0 3.120039 1_655
Lu1 Te1 3.127811 1_655
Lu2 Te1 3.147118 1_645
Lu2 Te1 3.147118 1_656
Lu2 Te0 3.188201 1_555
Lu3 Ni1 2.726238 1_544
Lu3 Ni1 2.726238 1_555
Lu3 Te0 3.073872 1_555
Lu3 Te1 3.140603 1_544
Lu3 Te1 3.140603 1_555
Lu4 Ni0 2.726238 1_554
Lu4 Ni0 2.726238 1_565
Lu4 Te0 3.073872 1_565
Lu4 Te1 3.140603 1_554
Lu4 Te1 3.140603 1_565
Lu5 Ni1 2.764682 1_544
Lu5 Ni1 2.764682 1_555
Lu5 Te0 3.110434 1_554
Lu5 Te0 3.110434 1_565
Lu6 Ni0 2.764687 1_665
Lu6 Ni0 2.764690 1_654
Lu6 Te0 3.110426 1_565
Lu6 Te0 3.110428 1_554
