# generated using pymatgen
data_Li2TiV3O8
_symmetry_space_group_name_H-M   'P 1'
_cell_length_a   5.93449171
_cell_length_b   10.44739689
_cell_length_c   5.98954757
_cell_angle_alpha   89.44128638
_cell_angle_beta   60.77474953
_cell_angle_gamma   72.68565777
_symmetry_Int_Tables_number   1
_chemical_formula_structural   Li2TiV3O8
_chemical_formula_sum   'Li4 Ti2 V6 O16'
_cell_volume   305.27345019
_cell_formula_units_Z   2
loop_
 _symmetry_equiv_pos_site_id
 _symmetry_equiv_pos_as_xyz
  1  'x, y, z'
loop_
 _atom_site_type_symbol
 _atom_site_label
 _atom_site_symmetry_multiplicity
 _atom_site_fract_x
 _atom_site_fract_y
 _atom_site_fract_z
 _atom_site_occupancy
  Li  Li0  1  0.11618500  0.06332900  0.20017800  1
  Li  Li1  1  0.12079100  0.56216600  0.69948100  1
  Li  Li2  1  0.88007700  0.43794900  0.30004000  1
  Li  Li3  1  0.88364500  0.93658900  0.80005000  1
  Ti  Ti0  1  0.48312100  0.24195700  0.76402700  1
  Ti  Ti1  1  0.51599100  0.75803300  0.23627000  1
  V  V0  1  0.98907800  0.25695600  0.74016500  1
  V  V1  1  0.01025100  0.74311900  0.25977300  1
  V  V2  1  0.50011700  0.50004000  0.99991800  1
  V  V3  1  0.50458100  0.24912800  0.25034900  1
  V  V4  1  0.49566000  0.75058200  0.74960300  1
  V  V5  1  0.50016200  0.99998200  0.49973400  1
  O  O0  1  0.25493300  0.13524900  0.39991600  1
  O  O1  1  0.25309700  0.63398000  0.90278600  1
  O  O2  1  0.74712300  0.36594800  0.09731700  1
  O  O3  1  0.74464600  0.86468800  0.60050200  1
  O  O4  1  0.25765500  0.35599300  0.62937600  1
  O  O5  1  0.25662200  0.85684000  0.12964300  1
  O  O6  1  0.70874900  0.13300400  0.40906800  1
  O  O7  1  0.70890400  0.63302200  0.90527600  1
  O  O8  1  0.24772400  0.13748800  0.85347400  1
  O  O9  1  0.25059300  0.63732300  0.35301900  1
  O  O10  1  0.74965300  0.36289500  0.64657400  1
  O  O11  1  0.75220700  0.86259700  0.14667300  1
  O  O12  1  0.29156400  0.36714600  0.09438400  1
  O  O13  1  0.29124600  0.86688900  0.59120300  1
  O  O14  1  0.74308900  0.14316100  0.87089200  1
  O  O15  1  0.74253300  0.64394500  0.37031100  1
loop_
_geom_bond_atom_site_label_1
_geom_bond_atom_site_label_2
_geom_bond_distance
_geom_bond_site_symmetry_2
Li0 O6 1.989391 1_455
Li0 O0 2.005362 1_555
Li0 O5 2.032408 1_545
Li0 O8 2.065816 1_554
Li1 O1 1.991051 1_555
Li1 O7 2.010172 1_455
Li1 O4 2.029499 1_555
Li1 O9 2.069656 1_555
Li2 O2 1.992313 1_555
Li2 O12 2.008231 1_655
Li2 O15 2.027712 1_555
Li2 O10 2.069478 1_555
Li3 O13 1.990166 1_655
Li3 O3 2.005563 1_555
Li3 O14 2.033253 1_565
Li3 O11 2.064587 1_556
O0 V0 1.993967 1_455
O0 V5 2.020260 1_545
O0 V3 2.036007 1_555
O1 V1 2.002329 1_556
O1 V2 2.010339 1_555
O1 V4 2.032291 1_555
O2 V0 2.002336 1_554
O2 V2 2.012062 1_554
O2 V3 2.033954 1_555
O3 V1 1.995069 1_655
O3 V5 2.021146 1_555
O3 V4 2.034980 1_555
O4 Ti0 1.986528 1_555
O4 V0 1.996684 1_455
O4 V3 2.091592 1_555
O5 Ti1 1.960603 1_555
O5 V1 2.014910 1_555
O5 V4 2.094016 1_554
O6 Ti0 1.992183 1_555
O6 V3 2.017661 1_555
O6 V5 2.027656 1_545
O7 Ti1 1.972547 1_556
O7 V2 2.027360 1_555
O7 V4 2.045500 1_555
O8 Ti0 1.896063 1_555
O8 V0 2.057864 1_455
O8 V5 2.115661 1_545
O9 V1 1.842663 1_555
O9 V2 2.111768 1_554
O9 Ti1 2.156295 1_555
O10 V0 1.840567 1_555
O10 V2 2.112046 1_555
O10 Ti0 2.163060 1_555
O11 Ti1 1.900519 1_555
O11 V1 2.054449 1_655
O11 V5 2.112323 1_555
O12 Ti0 1.971577 1_554
O12 V2 2.025650 1_554
O12 V3 2.047899 1_555
O13 Ti1 1.991786 1_555
O13 V4 2.017964 1_555
O13 V5 2.029458 1_555
O14 Ti0 1.964374 1_555
O14 V0 2.014018 1_555
O14 V3 2.090361 1_556
O15 Ti1 1.988513 1_555
O15 V1 1.993829 1_655
O15 V4 2.091978 1_555
