# generated using pymatgen
data_Rb(CrS2)2
_symmetry_space_group_name_H-M   'P 1'
_cell_length_a   7.72320835
_cell_length_b   7.72320835
_cell_length_c   7.72320835
_cell_angle_alpha   60.00000000
_cell_angle_beta   60.00000000
_cell_angle_gamma   60.00000000
_symmetry_Int_Tables_number   1
_chemical_formula_structural   Rb(CrS2)2
_chemical_formula_sum   'Rb2 Cr4 S8'
_cell_volume   325.74537331
_cell_formula_units_Z   2
loop_
 _symmetry_equiv_pos_site_id
 _symmetry_equiv_pos_as_xyz
  1  'x, y, z'
loop_
 _atom_site_type_symbol
 _atom_site_label
 _atom_site_symmetry_multiplicity
 _atom_site_fract_x
 _atom_site_fract_y
 _atom_site_fract_z
 _atom_site_occupancy
  Rb  Rb0  1  0.50000000  0.50000000  0.50000000  1
  Rb  Rb1  1  0.75000000  0.75000000  0.75000000  1
  Cr  Cr0  1  0.12500000  0.12500000  0.12500000  1
  Cr  Cr1  1  0.62500000  0.12500000  0.12500000  1
  Cr  Cr2  1  0.12500000  0.62500000  0.12500000  1
  Cr  Cr3  1  0.12500000  0.12500000  0.62500000  1
  S  S0  1  0.34657800  0.34657800  0.34657800  1
  S  S1  1  0.28973400  0.90342200  0.90342200  1
  S  S2  1  0.90342200  0.90342200  0.28973400  1
  S  S3  1  0.90342200  0.28973400  0.90342200  1
  S  S4  1  0.34657800  0.34657800  0.96026600  1
  S  S5  1  0.34657800  0.96026600  0.34657800  1
  S  S6  1  0.90342200  0.90342200  0.90342200  1
  S  S7  1  0.96026600  0.34657800  0.34657800  1
loop_
_geom_bond_atom_site_label_1
_geom_bond_atom_site_label_2
_geom_bond_distance
_geom_bond_site_symmetry_2
Rb0 S7 2.902425 1_555
Rb0 S5 2.902425 1_555
Rb0 S4 2.902425 1_555
Rb0 S0 2.902425 1_555
Rb1 S6 2.902425 1_555
Rb1 S1 2.902425 1_555
Rb1 S3 2.902425 1_555
Rb1 S2 2.902425 1_555
Cr0 S5 2.459631 1_545
Cr0 S7 2.459631 1_455
Cr0 S4 2.459631 1_554
Cr0 S2 2.459631 1_445
Cr0 S3 2.459631 1_454
Cr0 S1 2.459631 1_544
Cr1 S3 2.459631 1_554
Cr1 S0 2.459631 1_555
Cr1 S2 2.459631 1_545
Cr1 S6 2.459631 1_544
Cr1 S4 2.459631 1_554
Cr1 S5 2.459631 1_545
Cr2 S2 2.459631 1_455
Cr2 S0 2.459631 1_555
Cr2 S1 2.459631 1_554
Cr2 S7 2.459631 1_455
Cr2 S4 2.459631 1_554
Cr2 S6 2.459631 1_454
Cr3 S1 2.459631 1_545
Cr3 S3 2.459631 1_455
Cr3 S0 2.459631 1_555
Cr3 S7 2.459631 1_455
Cr3 S5 2.459631 1_545
Cr3 S6 2.459631 1_445
