# generated using pymatgen
data_BiPb
_symmetry_space_group_name_H-M   'P 1'
_cell_length_a   6.97704819
_cell_length_b   6.97704819
_cell_length_c   11.83161662
_cell_angle_alpha   90.00000000
_cell_angle_beta   90.00000000
_cell_angle_gamma   119.99996610
_symmetry_Int_Tables_number   1
_chemical_formula_structural   BiPb
_chemical_formula_sum   'Bi8 Pb8'
_cell_volume   498.79066103
_cell_formula_units_Z   8
loop_
 _symmetry_equiv_pos_site_id
 _symmetry_equiv_pos_as_xyz
  1  'x, y, z'
loop_
 _atom_site_type_symbol
 _atom_site_label
 _atom_site_symmetry_multiplicity
 _atom_site_fract_x
 _atom_site_fract_y
 _atom_site_fract_z
 _atom_site_occupancy
  Bi  Bi0_0  1  0.16666649  0.33333350  0.25000000  1
  Bi  Bi0_1  1  0.16666649  0.33333350  0.75000000  1
  Bi  Bi0_2  1  0.16666650  0.83333350  0.25000000  1
  Bi  Bi0_3  1  0.16666650  0.83333350  0.75000000  1
  Bi  Bi0_4  1  0.66666649  0.33333350  0.25000000  1
  Bi  Bi0_5  1  0.66666649  0.33333350  0.75000000  1
  Bi  Bi0_6  1  0.66666649  0.83333350  0.25000000  1
  Bi  Bi0_7  1  0.66666649  0.83333350  0.75000000  1
  Pb  Pb0_0  1  0.00000000  1.00000000  0.00000000  1
  Pb  Pb0_1  1  0.00000000  1.00000000  0.50000000  1
  Pb  Pb0_2  1  0.00000001  0.49999999  0.00000000  1
  Pb  Pb0_3  1  0.00000001  0.49999999  0.50000000  1
  Pb  Pb0_4  1  0.50000000  1.00000000  0.00000000  1
  Pb  Pb0_5  1  0.50000000  1.00000000  0.50000000  1
  Pb  Pb0_6  1  0.50000000  0.49999999  0.00000000  1
  Pb  Pb0_7  1  0.50000000  0.49999999  0.50000000  1
loop_
_geom_bond_atom_site_label_1
_geom_bond_atom_site_label_2
_geom_bond_distance
_geom_bond_site_symmetry_2
Bi0_0 Bi0_2 3.488524 1_555
Bi0_0 Bi0_4 3.488524 1_455
Bi0_0 Bi0_2 3.488524 1_545
Bi0_0 Bi0_4 3.488524 1_555
Bi0_0 Bi0_6 3.488526 1_555
Bi0_0 Bi0_6 3.488526 1_445
Bi0_0 Pb0_2 3.578517 1_555
Bi0_0 Pb0_3 3.578517 1_555
Bi0_0 Pb0_1 3.578520 1_545
Bi0_0 Pb0_0 3.578520 1_545
Bi0_0 Pb0_6 3.578520 1_555
Bi0_0 Pb0_7 3.578520 1_555
Bi0_1 Bi0_5 3.488524 1_455
Bi0_1 Bi0_3 3.488524 1_555
Bi0_1 Bi0_5 3.488524 1_555
Bi0_1 Bi0_3 3.488524 1_545
Bi0_1 Bi0_7 3.488526 1_555
Bi0_1 Bi0_7 3.488526 1_445
Bi0_1 Pb0_2 3.578517 1_556
Bi0_1 Pb0_3 3.578517 1_555
Bi0_1 Pb0_6 3.578520 1_556
Bi0_1 Pb0_0 3.578520 1_546
Bi0_1 Pb0_7 3.578520 1_555
Bi0_1 Pb0_1 3.578520 1_545
Bi0_2 Bi0_6 3.488524 1_555
Bi0_2 Bi0_6 3.488524 1_455
Bi0_2 Bi0_4 3.488526 1_455
Bi0_2 Bi0_4 3.488526 1_565
Bi0_2 Pb0_1 3.578517 1_555
Bi0_2 Pb0_0 3.578517 1_555
Bi0_2 Pb0_5 3.578520 1_555
Bi0_2 Pb0_2 3.578520 1_555
Bi0_2 Pb0_3 3.578520 1_555
Bi0_2 Pb0_4 3.578520 1_555
Bi0_3 Bi0_7 3.488524 1_555
Bi0_3 Bi0_7 3.488524 1_455
Bi0_3 Bi0_5 3.488526 1_455
Bi0_3 Bi0_5 3.488526 1_565
Bi0_3 Pb0_0 3.578517 1_556
Bi0_3 Pb0_1 3.578517 1_555
Bi0_3 Pb0_4 3.578520 1_556
Bi0_3 Pb0_2 3.578520 1_556
Bi0_3 Pb0_5 3.578520 1_555
Bi0_3 Pb0_3 3.578520 1_555
Bi0_4 Bi0_6 3.488524 1_555
Bi0_4 Bi0_6 3.488524 1_545
Bi0_4 Pb0_6 3.578517 1_555
Bi0_4 Pb0_7 3.578517 1_555
Bi0_4 Pb0_4 3.578520 1_545
Bi0_4 Pb0_5 3.578520 1_545
Bi0_4 Pb0_3 3.578520 1_655
Bi0_4 Pb0_2 3.578520 1_655
Bi0_5 Bi0_7 3.488524 1_555
Bi0_5 Bi0_7 3.488524 1_545
Bi0_5 Pb0_6 3.578517 1_556
Bi0_5 Pb0_7 3.578517 1_555
Bi0_5 Pb0_4 3.578520 1_546
Bi0_5 Pb0_2 3.578520 1_656
Bi0_5 Pb0_5 3.578520 1_545
Bi0_5 Pb0_3 3.578520 1_655
Bi0_6 Pb0_5 3.578517 1_555
Bi0_6 Pb0_4 3.578517 1_555
Bi0_6 Pb0_7 3.578520 1_555
Bi0_6 Pb0_6 3.578520 1_555
Bi0_6 Pb0_1 3.578520 1_655
Bi0_6 Pb0_0 3.578520 1_655
Bi0_7 Pb0_4 3.578517 1_556
Bi0_7 Pb0_5 3.578517 1_555
Bi0_7 Pb0_6 3.578520 1_556
Bi0_7 Pb0_0 3.578520 1_656
Bi0_7 Pb0_7 3.578520 1_555
Bi0_7 Pb0_1 3.578520 1_655
Pb0_0 Pb0_4 3.488524 1_555
Pb0_0 Pb0_2 3.488524 1_565
Pb0_0 Pb0_2 3.488524 1_555
Pb0_0 Pb0_4 3.488524 1_455
Pb0_0 Pb0_6 3.488526 1_565
Pb0_0 Pb0_6 3.488526 1_455
Pb0_1 Pb0_5 3.488524 1_555
Pb0_1 Pb0_3 3.488524 1_565
Pb0_1 Pb0_5 3.488524 1_455
Pb0_1 Pb0_3 3.488524 1_555
Pb0_1 Pb0_7 3.488526 1_565
Pb0_1 Pb0_7 3.488526 1_455
Pb0_2 Pb0_6 3.488524 1_555
Pb0_2 Pb0_6 3.488524 1_455
Pb0_2 Pb0_4 3.488526 1_555
Pb0_2 Pb0_4 3.488526 1_445
Pb0_3 Pb0_7 3.488524 1_555
Pb0_3 Pb0_7 3.488524 1_455
Pb0_3 Pb0_5 3.488526 1_445
Pb0_3 Pb0_5 3.488526 1_555
Pb0_4 Pb0_6 3.488524 1_565
Pb0_4 Pb0_6 3.488524 1_555
Pb0_5 Pb0_7 3.488524 1_565
Pb0_5 Pb0_7 3.488524 1_555
