# generated using pymatgen
data_HoSnGe
_symmetry_space_group_name_H-M   'P 1'
_cell_length_a   8.53196464
_cell_length_b   8.53196464
_cell_length_c   4.02770175
_cell_angle_alpha   90.00000000
_cell_angle_beta   90.00000000
_cell_angle_gamma   151.42411107
_symmetry_Int_Tables_number   1
_chemical_formula_structural   HoSnGe
_chemical_formula_sum   'Ho2 Sn2 Ge2'
_cell_volume   140.24134474
_cell_formula_units_Z   2
loop_
 _symmetry_equiv_pos_site_id
 _symmetry_equiv_pos_as_xyz
  1  'x, y, z'
loop_
 _atom_site_type_symbol
 _atom_site_label
 _atom_site_symmetry_multiplicity
 _atom_site_fract_x
 _atom_site_fract_y
 _atom_site_fract_z
 _atom_site_occupancy
  Ho  Ho0  1  0.90492157  0.09507843  0.75000000  1
  Ho  Ho1  1  0.09507843  0.90492157  0.25000000  1
  Sn  Sn0  1  0.25790614  0.74209386  0.75000000  1
  Sn  Sn1  1  0.74209386  0.25790614  0.25000000  1
  Ge  Ge0  1  0.55092716  0.44907284  0.75000000  1
  Ge  Ge1  1  0.44907284  0.55092716  0.25000000  1
loop_
_geom_bond_atom_site_label_1
_geom_bond_atom_site_label_2
_geom_bond_distance
_geom_bond_site_symmetry_2
Ho0 Sn0 3.216180 1_655
Ho0 Sn0 3.216180 1_545
Ho0 Sn1 3.362342 1_555
Ho0 Sn1 3.362342 1_556
Ho1 Sn1 3.216180 1_565
Ho1 Sn1 3.216180 1_455
Ho1 Sn0 3.362342 1_555
Ho1 Sn0 3.362342 1_554
Sn0 Sn1 2.925357 1_565
Sn0 Sn1 2.925357 1_456
Sn0 Sn1 2.925357 1_566
Sn0 Sn1 2.925357 1_455
Ge0 Ge1 2.625333 1_555
Ge0 Ge1 2.625333 1_556
Ge0 Ho1 3.003727 1_545
Ge0 Ho1 3.003727 1_546
Ge0 Ho1 3.003727 1_655
Ge0 Ho1 3.003727 1_656
Ge0 Ho0 3.203576 1_455
Ge0 Ho0 3.203576 1_565
Ge1 Ho0 3.003727 1_455
Ge1 Ho0 3.003727 1_454
Ge1 Ho0 3.003727 1_565
Ge1 Ho0 3.003727 1_564
Ge1 Ho1 3.203576 1_545
Ge1 Ho1 3.203576 1_655
