# generated using pymatgen
data_Se(OF)2
_symmetry_space_group_name_H-M   'P 1'
_cell_length_a   5.46408023
_cell_length_b   5.46408023
_cell_length_c   10.93567945
_cell_angle_alpha   90.00000000
_cell_angle_beta   90.00000000
_cell_angle_gamma   90.00000000
_symmetry_Int_Tables_number   1
_chemical_formula_structural   Se(OF)2
_chemical_formula_sum   'Se4 O8 F8'
_cell_volume   326.49753491
_cell_formula_units_Z   4
loop_
 _symmetry_equiv_pos_site_id
 _symmetry_equiv_pos_as_xyz
  1  'x, y, z'
loop_
 _atom_site_type_symbol
 _atom_site_label
 _atom_site_symmetry_multiplicity
 _atom_site_fract_x
 _atom_site_fract_y
 _atom_site_fract_z
 _atom_site_occupancy
  Se  Se0  1  0.09502190  0.09502190  -0.00000000  1
  Se  Se1  1  0.90497810  0.90497810  0.50000000  1
  Se  Se2  1  0.40497810  0.59502190  0.25000000  1
  Se  Se3  1  0.59502190  0.40497810  0.75000000  1
  O  O0  1  0.34425226  0.02877791  0.06712753  1
  O  O1  1  0.65574774  0.97122209  0.56712753  1
  O  O2  1  0.47122209  0.84425226  0.31712753  1
  O  O3  1  0.15574774  0.52877791  0.18287247  1
  O  O4  1  0.52877791  0.15574774  0.81712753  1
  O  O5  1  0.84425226  0.47122209  0.68287247  1
  O  O6  1  0.02877791  0.34425226  0.93287247  1
  O  O7  1  0.97122209  0.65574774  0.43287247  1
  F  F0  1  0.97242303  0.13856253  0.40094941  1
  F  F1  1  0.02757697  0.86143747  0.90094941  1
  F  F2  1  0.36143747  0.47242303  0.65094941  1
  F  F3  1  0.52757697  0.63856253  0.84905059  1
  F  F4  1  0.63856253  0.52757697  0.15094941  1
  F  F5  1  0.47242303  0.36143747  0.34905059  1
  F  F6  1  0.13856253  0.97242303  0.59905059  1
  F  F7  1  0.86143747  0.02757697  0.09905059  1
loop_
_geom_bond_atom_site_label_1
_geom_bond_atom_site_label_2
_geom_bond_distance
_geom_bond_site_symmetry_2
O0 Se0 1.588848 1_555
O1 Se1 1.588848 1_555
O2 Se2 1.588848 1_555
O3 Se2 1.588848 1_555
O4 Se3 1.588848 1_555
O5 Se3 1.588848 1_555
O6 Se0 1.588848 1_556
O7 Se1 1.588848 1_555
F0 Se1 1.714090 1_545
F1 Se0 1.714090 1_566
F2 Se3 1.714090 1_555
F3 Se3 1.714090 1_555
F4 Se2 1.714090 1_555
F5 Se2 1.714090 1_555
F6 Se1 1.714090 1_455
F7 Se0 1.714090 1_655
