# generated using pymatgen
data_SrP2PdO7
_symmetry_space_group_name_H-M   'P 1'
_cell_length_a   6.07359100
_cell_length_b   7.43671200
_cell_length_c   13.60641700
_cell_angle_alpha   90.00000000
_cell_angle_beta   90.00000000
_cell_angle_gamma   90.00000000
_symmetry_Int_Tables_number   1
_chemical_formula_structural   SrP2PdO7
_chemical_formula_sum   'Sr4 P8 Pd4 O28'
_cell_volume   614.56848034
_cell_formula_units_Z   4
loop_
 _symmetry_equiv_pos_site_id
 _symmetry_equiv_pos_as_xyz
  1  'x, y, z'
loop_
 _atom_site_type_symbol
 _atom_site_label
 _atom_site_symmetry_multiplicity
 _atom_site_fract_x
 _atom_site_fract_y
 _atom_site_fract_z
 _atom_site_occupancy
  Sr  Sr0  1  0.25000000  0.74337200  0.24199100  1
  Sr  Sr1  1  0.75000000  0.25662800  0.75800900  1
  Sr  Sr2  1  0.75000000  0.24337200  0.25800900  1
  Sr  Sr3  1  0.25000000  0.75662800  0.74199100  1
  P  P0  1  0.25000000  0.28416700  0.12221600  1
  P  P1  1  0.75000000  0.71583300  0.87778400  1
  P  P2  1  0.75000000  0.78416700  0.37778400  1
  P  P3  1  0.25000000  0.21583300  0.62221600  1
  P  P4  1  0.25000000  0.17707400  0.41074300  1
  P  P5  1  0.75000000  0.82292600  0.58925700  1
  P  P6  1  0.75000000  0.67707400  0.08925700  1
  P  P7  1  0.25000000  0.32292600  0.91074300  1
  Pd  Pd0  1  0.00000000  0.00000000  0.00000000  1
  Pd  Pd1  1  0.00000000  0.50000000  0.50000000  1
  Pd  Pd2  1  0.50000000  0.00000000  0.00000000  1
  Pd  Pd3  1  0.50000000  0.50000000  0.50000000  1
  O  O0  1  0.25000000  0.02620600  0.33839600  1
  O  O1  1  0.75000000  0.97379400  0.66160400  1
  O  O2  1  0.75000000  0.52620600  0.16160400  1
  O  O3  1  0.25000000  0.47379400  0.83839600  1
  O  O4  1  0.25000000  0.40332600  0.02237200  1
  O  O5  1  0.75000000  0.59667400  0.97762800  1
  O  O6  1  0.75000000  0.90332600  0.47762800  1
  O  O7  1  0.25000000  0.09667400  0.52237200  1
  O  O8  1  0.25000000  0.41035700  0.20813200  1
  O  O9  1  0.75000000  0.58964300  0.79186800  1
  O  O10  1  0.75000000  0.91035700  0.29186800  1
  O  O11  1  0.25000000  0.08964300  0.70813200  1
  O  O12  1  0.03445700  0.29055700  0.40304600  1
  O  O13  1  0.96554300  0.70944300  0.59695400  1
  O  O14  1  0.96554300  0.79055700  0.09695400  1
  O  O15  1  0.53445700  0.70944300  0.59695400  1
  O  O16  1  0.03445700  0.20944300  0.90304600  1
  O  O17  1  0.46554300  0.29055700  0.40304600  1
  O  O18  1  0.46554300  0.20944300  0.90304600  1
  O  O19  1  0.53445700  0.79055700  0.09695400  1
  O  O20  1  0.03767700  0.16593700  0.12028400  1
  O  O21  1  0.96232300  0.83406300  0.87971600  1
  O  O22  1  0.96232300  0.66593700  0.37971600  1
  O  O23  1  0.53767700  0.83406300  0.87971600  1
  O  O24  1  0.03767700  0.33406300  0.62028400  1
  O  O25  1  0.46232300  0.16593700  0.12028400  1
  O  O26  1  0.46232300  0.33406300  0.62028400  1
  O  O27  1  0.53767700  0.66593700  0.37971600  1
loop_
_geom_bond_atom_site_label_1
_geom_bond_atom_site_label_2
_geom_bond_distance
_geom_bond_site_symmetry_2
O0 P4 1.492585 1_555
O0 Sr0 2.478856 1_545
O1 P5 1.492585 1_555
O1 Sr1 2.478856 1_565
O2 P6 1.492585 1_555
O2 Sr2 2.478856 1_555
O3 P7 1.492585 1_555
O3 Sr3 2.478856 1_555
O4 P0 1.621986 1_555
O4 P7 1.632319 1_554
O5 P1 1.621986 1_555
O5 P6 1.632319 1_556
O6 P2 1.621986 1_555
O6 P5 1.632319 1_555
O7 P3 1.621986 1_555
O7 P4 1.632319 1_555
O8 P0 1.499083 1_555
O8 Sr0 2.519023 1_555
O9 P1 1.499083 1_555
O9 Sr1 2.519023 1_555
O10 P2 1.499083 1_555
O10 Sr2 2.519023 1_565
O11 P3 1.499083 1_555
O11 Sr3 2.519023 1_545
O12 P4 1.561089 1_555
O12 Pd1 2.051851 1_555
O12 Sr2 2.646212 1_455
O13 P5 1.561089 1_555
O13 Pd1 2.051851 1_655
O13 Sr3 2.646212 1_655
O14 P6 1.561089 1_555
O14 Pd0 2.051851 1_665
O14 Sr0 2.646212 1_655
O15 P5 1.561089 1_555
O15 Pd3 2.051851 1_555
O15 Sr3 2.646212 1_555
O16 P7 1.561089 1_555
O16 Pd0 2.051851 1_556
O16 Sr1 2.646212 1_455
O17 P4 1.561089 1_555
O17 Pd3 2.051851 1_555
O17 Sr2 2.646212 1_555
O18 P7 1.561089 1_555
O18 Pd2 2.051851 1_556
O18 Sr1 2.646212 1_555
O19 P6 1.561089 1_555
O19 Pd2 2.051851 1_565
O19 Sr0 2.646212 1_555
O20 P0 1.561003 1_555
O20 Pd0 2.062464 1_555
O20 Sr2 2.626043 1_455
O21 P1 1.561003 1_555
O21 Pd0 2.062464 1_666
O21 Sr3 2.626043 1_655
O22 P2 1.561003 1_555
O22 Pd1 2.062464 1_655
O22 Sr0 2.626043 1_655
O23 P1 1.561003 1_555
O23 Pd2 2.062464 1_566
O23 Sr3 2.626043 1_555
O24 P3 1.561003 1_555
O24 Pd1 2.062464 1_555
O24 Sr1 2.626043 1_455
O25 P0 1.561003 1_555
O25 Pd2 2.062464 1_555
O25 Sr2 2.626043 1_555
O26 P3 1.561003 1_555
O26 Pd3 2.062464 1_555
O26 Sr1 2.626043 1_555
O27 P2 1.561003 1_555
O27 Pd3 2.062464 1_555
O27 Sr0 2.626043 1_555
