# generated using pymatgen
data_CeIr5
_symmetry_space_group_name_H-M   'P 1'
_cell_length_a   5.26567005
_cell_length_b   5.26567005
_cell_length_c   5.26567005
_cell_angle_alpha   60.00000000
_cell_angle_beta   60.00000000
_cell_angle_gamma   60.00000000
_symmetry_Int_Tables_number   1
_chemical_formula_structural   CeIr5
_chemical_formula_sum   'Ce1 Ir5'
_cell_volume   103.23950882
_cell_formula_units_Z   1
loop_
 _symmetry_equiv_pos_site_id
 _symmetry_equiv_pos_as_xyz
  1  'x, y, z'
loop_
 _atom_site_type_symbol
 _atom_site_label
 _atom_site_symmetry_multiplicity
 _atom_site_fract_x
 _atom_site_fract_y
 _atom_site_fract_z
 _atom_site_occupancy
  Ce  Ce0  1  0.00000000  0.00000000  0.00000000  1
  Ir  Ir0  1  0.25000000  0.25000000  0.25000000  1
  Ir  Ir1  1  0.62403400  0.62403400  0.12789800  1
  Ir  Ir2  1  0.62403400  0.12789800  0.62403400  1
  Ir  Ir3  1  0.12789800  0.62403400  0.62403400  1
  Ir  Ir4  1  0.62403400  0.62403400  0.62403400  1
loop_
_geom_bond_atom_site_label_1
_geom_bond_atom_site_label_2
_geom_bond_distance
_geom_bond_site_symmetry_2
Ce0 Ir2 3.089466 1_554
Ce0 Ir3 3.089466 1_545
Ce0 Ir1 3.089466 1_545
Ce0 Ir3 3.089466 1_554
Ce0 Ir1 3.089466 1_455
Ce0 Ir2 3.089466 1_455
Ce0 Ir4 3.089466 1_445
Ce0 Ir4 3.089466 1_454
Ce0 Ir4 3.089466 1_544
Ce0 Ir1 3.089466 1_445
Ce0 Ir3 3.089466 1_544
Ce0 Ir2 3.089466 1_454
Ce0 Ir0 3.224551 1_555
Ce0 Ir0 3.224551 1_554
Ce0 Ir0 3.224551 1_455
Ce0 Ir0 3.224551 1_545
Ir0 Ir3 3.085128 1_555
Ir0 Ir1 3.085128 1_555
Ir0 Ir2 3.085128 1_555
Ir0 Ir4 3.085128 1_455
Ir0 Ir4 3.085128 1_554
Ir0 Ir4 3.085128 1_545
Ir0 Ir3 3.085128 1_554
Ir0 Ir1 3.085128 1_455
Ir0 Ir2 3.085128 1_554
Ir0 Ir3 3.085128 1_545
Ir0 Ir2 3.085128 1_455
Ir0 Ir1 3.085128 1_545
Ir1 Ir2 2.612488 1_555
Ir1 Ir3 2.612488 1_555
Ir1 Ir4 2.612488 1_555
Ir1 Ir2 2.653182 1_564
Ir1 Ir3 2.653182 1_654
Ir1 Ir4 2.653182 1_554
Ir2 Ir3 2.612488 1_555
Ir2 Ir4 2.612488 1_555
Ir2 Ir4 2.653182 1_545
Ir2 Ir3 2.653182 1_645
Ir3 Ir4 2.612488 1_555
Ir3 Ir4 2.653182 1_455
