# generated using pymatgen
data_ZnSnO2
_symmetry_space_group_name_H-M   'P 1'
_cell_length_a   3.15521500
_cell_length_b   8.60131788
_cell_length_c   10.88897944
_cell_angle_alpha   108.81686226
_cell_angle_beta   95.74677543
_cell_angle_gamma   98.81489837
_symmetry_Int_Tables_number   1
_chemical_formula_structural   ZnSnO2
_chemical_formula_sum   'Zn4 Sn4 O8'
_cell_volume   272.86183954
_cell_formula_units_Z   4
loop_
 _symmetry_equiv_pos_site_id
 _symmetry_equiv_pos_as_xyz
  1  'x, y, z'
loop_
 _atom_site_type_symbol
 _atom_site_label
 _atom_site_symmetry_multiplicity
 _atom_site_fract_x
 _atom_site_fract_y
 _atom_site_fract_z
 _atom_site_occupancy
  Zn  Zn0  1  0.45776300  0.20315300  0.81172800  1
  Zn  Zn1  1  0.58953400  0.82663500  0.20296200  1
  Zn  Zn2  1  0.15118700  0.11513800  0.12591300  1
  Zn  Zn3  1  0.87312300  0.91502000  0.89068800  1
  Sn  Sn0  1  0.21708500  0.55959700  0.88438100  1
  Sn  Sn1  1  0.34660000  0.16206200  0.45316100  1
  Sn  Sn2  1  0.71581100  0.86728700  0.56220500  1
  Sn  Sn3  1  0.80360400  0.47075600  0.13351100  1
  O  O0  1  0.40525900  0.61389500  0.24200900  1
  O  O1  1  0.28980100  0.76236200  0.83138700  1
  O  O2  1  0.73380900  0.26771700  0.18616700  1
  O  O3  1  0.61749000  0.41727400  0.77545600  1
  O  O4  1  0.80934800  0.65658800  0.03202700  1
  O  O5  1  0.87800500  0.05418500  0.76464100  1
  O  O6  1  0.20684700  0.37465000  0.98553300  1
  O  O7  1  0.17108300  0.97570400  0.25134600  1
loop_
_geom_bond_atom_site_label_1
_geom_bond_atom_site_label_2
_geom_bond_distance
_geom_bond_site_symmetry_2
O0 Zn1 2.022990 1_555
O0 Sn3 2.079572 1_555
O0 Sn3 2.100367 1_455
O1 Sn0 1.995099 1_555
O1 Zn3 2.000727 1_555
O1 Zn3 2.005415 1_455
O2 Sn3 1.995129 1_555
O2 Zn2 1.998935 1_555
O2 Zn2 2.008572 1_655
O3 Zn0 2.006631 1_555
O3 Sn0 2.083003 1_555
O3 Sn0 2.094912 1_655
O4 Sn0 2.194021 1_654
O4 Sn0 2.197302 1_554
O4 Zn1 2.213146 1_555
O4 Sn3 2.216062 1_555
O5 Zn0 1.973800 1_555
O5 Zn0 1.980120 1_655
O5 Zn3 2.091717 1_545
O5 Sn2 2.222885 1_545
O6 Sn3 2.184530 1_456
O6 Sn0 2.206014 1_555
O6 Sn3 2.209328 1_556
O6 Zn0 2.289445 1_555
O7 Zn1 1.971588 1_555
O7 Zn1 1.984450 1_455
O7 Zn2 2.090554 1_565
O7 Sn1 2.217476 1_565
