# generated using pymatgen
data_LiH4CN3
_symmetry_space_group_name_H-M   'P 1'
_cell_length_a   4.57686500
_cell_length_b   7.33573600
_cell_length_c   9.13822013
_cell_angle_alpha   76.76398786
_cell_angle_beta   90.00000000
_cell_angle_gamma   90.00000000
_symmetry_Int_Tables_number   1
_chemical_formula_structural   LiH4CN3
_chemical_formula_sum   'Li4 H16 C4 N12'
_cell_volume   298.66233165
_cell_formula_units_Z   4
loop_
 _symmetry_equiv_pos_site_id
 _symmetry_equiv_pos_as_xyz
  1  'x, y, z'
loop_
 _atom_site_type_symbol
 _atom_site_label
 _atom_site_symmetry_multiplicity
 _atom_site_fract_x
 _atom_site_fract_y
 _atom_site_fract_z
 _atom_site_occupancy
  Li  Li0  1  0.88113400  0.14938000  0.51940000  1
  Li  Li1  1  0.38113400  0.85062000  0.98060000  1
  Li  Li2  1  0.11886600  0.85062000  0.48060000  1
  Li  Li3  1  0.61886600  0.14938000  0.01940000  1
  H  H0  1  0.37127500  0.31326500  0.50731300  1
  H  H1  1  0.87127500  0.68673500  0.99268700  1
  H  H2  1  0.62872500  0.68673500  0.49268700  1
  H  H3  1  0.12872500  0.31326500  0.00731300  1
  H  H4  1  0.62408100  0.43416400  0.38423300  1
  H  H5  1  0.12408100  0.56583600  0.11576700  1
  H  H6  1  0.37591900  0.56583600  0.61576700  1
  H  H7  1  0.87591900  0.43416400  0.88423300  1
  H  H8  1  0.60512200  0.41827600  0.15039700  1
  H  H9  1  0.10512200  0.58172400  0.34960300  1
  H  H10  1  0.39487800  0.58172400  0.84960300  1
  H  H11  1  0.89487800  0.41827600  0.65039700  1
  H  H12  1  0.06824200  0.08984100  0.25274700  1
  H  H13  1  0.56824200  0.91015900  0.24725300  1
  H  H14  1  0.93175800  0.91015900  0.74725300  1
  H  H15  1  0.43175800  0.08984100  0.75274700  1
  C  C0  1  0.37076900  0.24869200  0.30142800  1
  C  C1  1  0.87076900  0.75130800  0.19857200  1
  C  C2  1  0.62923100  0.75130800  0.69857200  1
  C  C3  1  0.12923100  0.24869200  0.80142800  1
  N  N0  1  0.51157700  0.31075500  0.41879300  1
  N  N1  1  0.01157700  0.68924500  0.08120700  1
  N  N2  1  0.48842300  0.68924500  0.58120700  1
  N  N3  1  0.98842300  0.31075500  0.91879300  1
  N  N4  1  0.45093400  0.31509900  0.15797200  1
  N  N5  1  0.95093400  0.68490100  0.34202800  1
  N  N6  1  0.54906600  0.68490100  0.84202800  1
  N  N7  1  0.04906600  0.31509900  0.65797200  1
  N  N8  1  0.16301900  0.11986700  0.34631800  1
  N  N9  1  0.66301900  0.88013300  0.15368200  1
  N  N10  1  0.83698100  0.88013300  0.65368200  1
  N  N11  1  0.33698100  0.11986700  0.84631800  1
loop_
_geom_bond_atom_site_label_1
_geom_bond_atom_site_label_2
_geom_bond_distance
_geom_bond_site_symmetry_2
Li0 N10 2.082754 1_545
Li0 N8 2.090411 1_655
Li0 N7 2.092142 1_655
Li0 N0 2.146887 1_555
Li1 N11 2.082754 1_565
Li1 N9 2.090411 1_556
Li1 N6 2.092142 1_555
Li1 N1 2.146887 1_556
Li2 N8 2.082754 1_565
Li2 N10 2.090411 1_455
Li2 N5 2.092142 1_455
Li2 N2 2.146887 1_555
Li3 N9 2.082754 1_545
Li3 N11 2.090411 1_554
Li3 N4 2.092142 1_555
Li3 N3 2.146887 1_554
H0 N0 1.036268 1_555
H1 N1 1.036268 1_656
H2 N2 1.036268 1_555
H3 N3 1.036268 1_454
H4 N0 1.026409 1_555
H5 N1 1.026409 1_555
H6 N2 1.026409 1_555
H7 N3 1.026409 1_555
H8 N4 1.025512 1_555
H9 N5 1.025512 1_455
H10 N6 1.025512 1_555
H11 N7 1.025512 1_655
H12 N8 1.026682 1_555
H13 N9 1.026682 1_555
H14 N10 1.026682 1_555
H15 N11 1.026682 1_555
C0 N8 1.337136 1_555
C0 N4 1.340908 1_555
C0 N0 1.412967 1_555
C1 N9 1.337136 1_555
C1 N5 1.340908 1_555
C1 N1 1.412967 1_655
C2 N10 1.337136 1_555
C2 N6 1.340908 1_555
C2 N2 1.412967 1_555
C3 N11 1.337136 1_555
C3 N7 1.340908 1_555
C3 N3 1.412967 1_455
