# generated using pymatgen
data_ThAl2Co3
_symmetry_space_group_name_H-M   'P 1'
_cell_length_a   4.96099935
_cell_length_b   4.96099935
_cell_length_c   4.12573200
_cell_angle_alpha   90.00000000
_cell_angle_beta   90.00000000
_cell_angle_gamma   115.69027207
_symmetry_Int_Tables_number   1
_chemical_formula_structural   ThAl2Co3
_chemical_formula_sum   'Th1 Al2 Co3'
_cell_volume   91.50329815
_cell_formula_units_Z   1
loop_
 _symmetry_equiv_pos_site_id
 _symmetry_equiv_pos_as_xyz
  1  'x, y, z'
loop_
 _atom_site_type_symbol
 _atom_site_label
 _atom_site_symmetry_multiplicity
 _atom_site_fract_x
 _atom_site_fract_y
 _atom_site_fract_z
 _atom_site_occupancy
  Th  Th0  1  0.50000000  0.50000000  0.00000000  1
  Al  Al0  1  0.00000000  0.50000000  0.50000000  1
  Al  Al1  1  0.50000000  0.00000000  0.50000000  1
  Co  Co0  1  0.16447800  0.83552200  0.00000000  1
  Co  Co1  1  0.83552200  0.16447800  0.00000000  1
  Co  Co2  1  0.00000000  0.00000000  0.50000000  1
loop_
_geom_bond_atom_site_label_1
_geom_bond_atom_site_label_2
_geom_bond_distance
_geom_bond_site_symmetry_2
Al0 Co2 2.480500 1_565
Al0 Co2 2.480500 1_555
Al0 Co0 2.552310 1_556
Al0 Co0 2.552310 1_555
Al0 Co1 2.552310 1_455
Al0 Co1 2.552310 1_456
Al0 Al1 2.640291 1_455
Al0 Al1 2.640291 1_565
Al1 Co2 2.480500 1_655
Al1 Co2 2.480500 1_555
Al1 Co1 2.552310 1_556
Al1 Co1 2.552310 1_555
Al1 Co0 2.552310 1_545
Al1 Co0 2.552310 1_546
Co0 Co2 2.482804 1_565
Co0 Co2 2.482804 1_564
Co0 Co1 2.763260 1_465
Co0 Th0 2.818415 1_555
Co0 Th0 2.979939 1_455
Co0 Th0 2.979939 1_565
Co0 Co1 3.005909 1_565
Co0 Co1 3.005909 1_455
Co1 Co2 2.482804 1_655
Co1 Co2 2.482804 1_654
Co1 Th0 2.818415 1_555
Co1 Th0 2.979939 1_545
Co1 Th0 2.979939 1_655
