# generated using pymatgen
data_Mg6AlSnO8
_symmetry_space_group_name_H-M   'P 1'
_cell_length_a   9.25736084
_cell_length_b   4.37100289
_cell_length_c   4.37100289
_cell_angle_alpha   90.00000000
_cell_angle_beta   90.00000000
_cell_angle_gamma   90.00000000
_symmetry_Int_Tables_number   1
_chemical_formula_structural   Mg6AlSnO8
_chemical_formula_sum   'Mg6 Al1 Sn1 O8'
_cell_volume   176.86804670
_cell_formula_units_Z   1
loop_
 _symmetry_equiv_pos_site_id
 _symmetry_equiv_pos_as_xyz
  1  'x, y, z'
loop_
 _atom_site_type_symbol
 _atom_site_label
 _atom_site_symmetry_multiplicity
 _atom_site_fract_x
 _atom_site_fract_y
 _atom_site_fract_z
 _atom_site_occupancy
  Mg  Mg0  1  0.00000000  0.50000000  0.50000000  1
  Mg  Mg1  1  0.50000000  0.50000000  0.50000000  1
  Mg  Mg2  1  0.24057813  0.00000000  0.50000000  1
  Mg  Mg3  1  0.75942187  -0.00000000  0.50000000  1
  Mg  Mg4  1  0.24057813  0.50000000  0.00000000  1
  Mg  Mg5  1  0.75942187  0.50000000  -0.00000000  1
  Al  Al0  1  0.00000000  -0.00000000  -0.00000000  1
  Sn  Sn0  1  0.50000000  -0.00000000  -0.00000000  1
  O  O0  1  0.19204791  0.00000000  0.00000000  1
  O  O1  1  0.80795209  -0.00000000  -0.00000000  1
  O  O2  1  0.24725328  0.50000000  0.50000000  1
  O  O3  1  0.75274672  0.50000000  0.50000000  1
  O  O4  1  0.00000000  -0.00000000  0.50000000  1
  O  O5  1  0.50000000  -0.00000000  0.50000000  1
  O  O6  1  0.00000000  0.50000000  -0.00000000  1
  O  O7  1  0.50000000  0.50000000  -0.00000000  1
loop_
_geom_bond_atom_site_label_1
_geom_bond_atom_site_label_2
_geom_bond_distance
_geom_bond_site_symmetry_2
Mg0 O4 2.185501 1_555
Mg0 O4 2.185501 1_565
Mg0 O6 2.185501 1_556
Mg0 O6 2.185501 1_555
Mg0 O2 2.288913 1_555
Mg0 O3 2.288913 1_455
Mg1 O7 2.185501 1_555
Mg1 O7 2.185501 1_556
Mg1 O5 2.185501 1_555
Mg1 O5 2.185501 1_565
Mg1 O2 2.339768 1_555
Mg1 O3 2.339768 1_555
Mg2 O2 2.186375 1_555
Mg2 O2 2.186375 1_545
Mg2 O4 2.227119 1_555
Mg2 O0 2.231200 1_555
Mg2 O0 2.231200 1_556
Mg2 O5 2.401562 1_555
Mg3 O3 2.186375 1_545
Mg3 O3 2.186375 1_555
Mg3 O4 2.227119 1_655
Mg3 O1 2.231200 1_555
Mg3 O1 2.231200 1_556
Mg3 O5 2.401562 1_555
Mg4 O2 2.186375 1_554
Mg4 O2 2.186375 1_555
Mg4 O6 2.227119 1_555
Mg4 O0 2.231200 1_555
Mg4 O0 2.231200 1_565
Mg4 O7 2.401562 1_555
Mg5 O3 2.186375 1_555
Mg5 O3 2.186375 1_554
Mg5 O6 2.227119 1_655
Mg5 O1 2.231200 1_555
Mg5 O1 2.231200 1_565
Mg5 O7 2.401562 1_555
Al0 O1 1.777857 1_455
Al0 O0 1.777857 1_555
Al0 O4 2.185501 1_555
Al0 O4 2.185501 1_554
Al0 O6 2.185501 1_545
Al0 O6 2.185501 1_555
O5 Sn0 2.185501 1_555
O5 Sn0 2.185501 1_556
O7 Sn0 2.185501 1_565
O7 Sn0 2.185501 1_555
