# generated using pymatgen
data_LiFe8(O7F)2
_symmetry_space_group_name_H-M   'P 1'
_cell_length_a   7.31598576
_cell_length_b   7.32413519
_cell_length_c   5.57439541
_cell_angle_alpha   109.12664168
_cell_angle_beta   109.23555663
_cell_angle_gamma   80.98594824
_symmetry_Int_Tables_number   1
_chemical_formula_structural   LiFe8(O7F)2
_chemical_formula_sum   'Li1 Fe8 O14 F2'
_cell_volume   266.05262696
_cell_formula_units_Z   1
loop_
 _symmetry_equiv_pos_site_id
 _symmetry_equiv_pos_as_xyz
  1  'x, y, z'
loop_
 _atom_site_type_symbol
 _atom_site_label
 _atom_site_symmetry_multiplicity
 _atom_site_fract_x
 _atom_site_fract_y
 _atom_site_fract_z
 _atom_site_occupancy
  Li  Li0  1  0.09138000  0.07993800  0.69073100  1
  Fe  Fe0  1  0.74149400  0.24300500  0.50716800  1
  Fe  Fe1  1  0.51797100  0.98805600  0.98689100  1
  Fe  Fe2  1  0.25754800  0.26167400  0.51255200  1
  Fe  Fe3  1  0.75775900  0.75682200  0.48868400  1
  Fe  Fe4  1  0.50606900  0.48906900  0.01185500  1
  Fe  Fe5  1  0.98730800  0.98307900  0.02978700  1
  Fe  Fe6  1  0.26613200  0.73723100  0.50580500  1
  Fe  Fe7  1  0.00918200  0.49078700  0.02279900  1
  O  O0  1  0.99362100  0.16764400  0.37928200  1
  O  O1  1  0.91676300  0.22933400  0.86037200  1
  O  O2  1  0.58044800  0.25486100  0.15399200  1
  O  O3  1  0.33748000  0.00814600  0.64996000  1
  O  O4  1  0.52545900  0.32789000  0.66638000  1
  O  O5  1  0.77351500  0.57091500  0.15861400  1
  O  O6  1  0.72965200  0.90514700  0.82659100  1
  O  O7  1  0.23885400  0.41136800  0.86810700  1
  O  O8  1  0.49681000  0.66185800  0.35087300  1
  O  O9  1  0.67255800  0.97172700  0.32812400  1
  O  O10  1  0.18530900  0.47883700  0.36810400  1
  O  O11  1  0.42516200  0.72994800  0.85066600  1
  O  O12  1  0.08749000  0.76276700  0.17478700  1
  O  O13  1  0.02194000  0.83100900  0.66299900  1
  F  F0  1  0.83664300  0.51790700  0.65933000  1
  F  F1  1  0.26567300  0.07616700  0.14269000  1
loop_
_geom_bond_atom_site_label_1
_geom_bond_atom_site_label_2
_geom_bond_distance
_geom_bond_site_symmetry_2
Li0 O1 1.844836 1_455
Li0 O3 1.861306 1_555
Li0 O13 1.913059 1_545
Li0 O0 1.925371 1_455
Fe0 O2 1.955312 1_555
Fe0 O9 1.970022 1_545
Fe0 O4 1.981659 1_555
Fe0 O1 1.989031 1_555
Fe0 O0 2.122453 1_555
Fe1 O9 1.897583 1_556
Fe1 O2 1.923975 1_566
Fe1 O11 1.932125 1_555
Fe1 O3 1.943953 1_565
Fe1 O6 1.956299 1_555
Fe2 O4 1.931356 1_555
Fe2 O10 1.937248 1_555
Fe2 O7 1.963848 1_555
Fe2 O0 1.972500 1_455
Fe2 O3 2.161784 1_555
Fe3 O6 1.901250 1_555
Fe3 O5 1.923920 1_555
Fe3 O13 1.928876 1_655
Fe3 O8 1.954012 1_555
Fe3 O9 1.978689 1_555
Fe4 O8 1.915149 1_555
Fe4 O4 1.939120 1_554
Fe4 O7 1.950733 1_554
Fe4 O5 1.961752 1_555
Fe4 O2 2.044619 1_555
Fe4 O11 2.152063 1_554
Fe5 O6 1.915375 1_554
Fe5 O0 1.964554 1_565
Fe5 O12 1.971791 1_655
Fe5 O13 2.060527 1_654
Fe5 O1 2.216885 1_564
Fe6 O10 1.902648 1_555
Fe6 O11 1.904233 1_555
Fe6 O12 1.925741 1_555
Fe6 O3 1.964334 1_565
Fe6 O8 2.062709 1_555
Fe6 O13 2.164201 1_555
Fe7 O1 1.951924 1_454
Fe7 O10 1.952924 1_555
Fe7 O12 1.986446 1_555
Fe7 O5 2.035214 1_455
Fe7 O7 2.055482 1_554
F0 Fe0 2.046674 1_555
F0 Fe7 2.058634 1_656
F0 Fe3 2.170834 1_555
F1 Fe5 2.077906 1_445
F1 Fe2 2.078489 1_555
F1 Fe1 2.212117 1_544
F1 Li0 2.427318 1_554
