# generated using pymatgen
data_CaV2Ni2(P2O9)2
_symmetry_space_group_name_H-M   'P 1'
_cell_length_a   6.40323000
_cell_length_b   7.55212600
_cell_length_c   13.98964000
_cell_angle_alpha   90.00000000
_cell_angle_beta   90.00000000
_cell_angle_gamma   90.00000000
_symmetry_Int_Tables_number   1
_chemical_formula_structural   CaV2Ni2(P2O9)2
_chemical_formula_sum   'Ca2 V4 Ni4 P8 O36'
_cell_volume   676.51100786
_cell_formula_units_Z   2
loop_
 _symmetry_equiv_pos_site_id
 _symmetry_equiv_pos_as_xyz
  1  'x, y, z'
loop_
 _atom_site_type_symbol
 _atom_site_label
 _atom_site_symmetry_multiplicity
 _atom_site_fract_x
 _atom_site_fract_y
 _atom_site_fract_z
 _atom_site_occupancy
  Ca  Ca0  1  0.00000000  0.87367900  0.21808800  1
  Ca  Ca1  1  0.00000000  0.12632100  0.71808900  1
  V  V0  1  0.50000000  0.09822200  0.87949300  1
  V  V1  1  0.00000000  0.40411500  0.12233700  1
  V  V2  1  0.00000000  0.59588500  0.62233700  1
  V  V3  1  0.50000000  0.90177800  0.37949300  1
  Ni  Ni0  1  0.25232900  0.74531300  0.99647400  1
  Ni  Ni1  1  0.25232900  0.25468700  0.49647400  1
  Ni  Ni2  1  0.74767100  0.25468700  0.49647400  1
  Ni  Ni3  1  0.74767100  0.74531300  0.99647400  1
  P  P0  1  0.00000000  0.09979100  0.94056100  1
  P  P1  1  0.50000000  0.39936900  0.06253400  1
  P  P2  1  0.50000000  0.60063100  0.56253400  1
  P  P3  1  0.00000000  0.90020900  0.44056100  1
  P  P4  1  0.50000000  0.13978000  0.69211400  1
  P  P5  1  0.00000000  0.35841700  0.31213800  1
  P  P6  1  0.00000000  0.64158300  0.81213800  1
  P  P7  1  0.50000000  0.86022000  0.19211400  1
  O  O0  1  0.80011800  0.35761000  0.36927300  1
  O  O1  1  0.30158000  0.14229000  0.63093100  1
  O  O2  1  0.69842000  0.85771000  0.13093100  1
  O  O3  1  0.19988200  0.64239000  0.86927300  1
  O  O4  1  0.69842000  0.14229000  0.63093100  1
  O  O5  1  0.19988200  0.35761000  0.36927300  1
  O  O6  1  0.80011800  0.64239000  0.86927300  1
  O  O7  1  0.30158000  0.85771000  0.13093100  1
  O  O8  1  0.00000000  0.08343400  0.48737600  1
  O  O9  1  0.50000000  0.41565300  0.51772900  1
  O  O10  1  0.50000000  0.58434700  0.01772900  1
  O  O11  1  0.00000000  0.91656600  0.98737600  1
  O  O12  1  0.50000000  0.90642900  0.94164000  1
  O  O13  1  0.00000000  0.60025100  0.06133600  1
  O  O14  1  0.00000000  0.39974900  0.56133600  1
  O  O15  1  0.50000000  0.09357100  0.44164000  1
  O  O16  1  0.50000000  0.97031300  0.75942800  1
  O  O17  1  0.00000000  0.52909800  0.24143900  1
  O  O18  1  0.00000000  0.47090200  0.74143900  1
  O  O19  1  0.50000000  0.02968700  0.25942800  1
  O  O20  1  0.18885300  0.88125300  0.37093500  1
  O  O21  1  0.69825500  0.62269300  0.62373400  1
  O  O22  1  0.30174500  0.37730700  0.12373400  1
  O  O23  1  0.81114700  0.11874700  0.87093500  1
  O  O24  1  0.30174500  0.62269300  0.62373400  1
  O  O25  1  0.81114700  0.88125300  0.37093500  1
  O  O26  1  0.18885300  0.11874700  0.87093500  1
  O  O27  1  0.69825500  0.37730700  0.12373400  1
  O  O28  1  0.50000000  0.71829000  0.27295400  1
  O  O29  1  0.00000000  0.78457600  0.72858500  1
  O  O30  1  0.00000000  0.21542400  0.22858500  1
  O  O31  1  0.50000000  0.28171000  0.77295400  1
  O  O32  1  0.50000000  0.74601700  0.48334800  1
  O  O33  1  0.00000000  0.75579600  0.51636400  1
  O  O34  1  0.00000000  0.24420400  0.01636400  1
  O  O35  1  0.50000000  0.25398300  0.98334800  1
loop_
_geom_bond_atom_site_label_1
_geom_bond_atom_site_label_2
_geom_bond_distance
_geom_bond_site_symmetry_2
Ca0 O7 2.286989 1_555
Ca0 O2 2.286989 1_455
Ca0 O20 2.457198 1_555
Ca0 O25 2.457198 1_455
Ca0 O30 2.585076 1_565
Ca0 O17 2.622743 1_555
Ca1 O4 2.286996 1_455
Ca1 O1 2.286996 1_555
Ca1 O26 2.457186 1_555
Ca1 O23 2.457186 1_455
Ca1 O29 2.585075 1_545
Ca1 O18 2.622741 1_555
Ni0 O3 1.970676 1_555
Ni0 O10 2.020210 1_556
Ni0 O11 2.073509 1_555
Ni0 O7 2.087620 1_556
Ni0 O12 2.141037 1_555
Ni0 O13 2.152696 1_556
Ni1 O5 1.970676 1_555
Ni1 O9 2.020210 1_555
Ni1 O8 2.073509 1_555
Ni1 O1 2.087620 1_555
Ni1 O15 2.141037 1_555
Ni1 O14 2.152696 1_555
Ni2 O0 1.970676 1_555
Ni2 O9 2.020210 1_555
Ni2 O8 2.073509 1_655
Ni2 O4 2.087620 1_555
Ni2 O15 2.141037 1_555
Ni2 O14 2.152696 1_655
Ni3 O6 1.970676 1_555
Ni3 O10 2.020210 1_556
Ni3 O11 2.073509 1_655
Ni3 O2 2.087620 1_556
Ni3 O12 2.141037 1_555
Ni3 O13 2.152696 1_656
O0 P5 1.508984 1_655
O1 P4 1.532063 1_555
O2 P7 1.532063 1_555
O3 P6 1.508984 1_555
O4 P4 1.532063 1_555
O5 P5 1.508984 1_555
O6 P6 1.508984 1_655
O7 P7 1.532063 1_555
O8 P3 1.530901 1_545
O9 P2 1.531153 1_555
O10 P1 1.531153 1_555
O11 P0 1.530901 1_565
O12 V0 1.689341 1_565
O13 V1 1.709486 1_555
O14 V2 1.709486 1_555
O15 V3 1.689341 1_545
O16 P4 1.588955 1_565
O16 V0 1.937629 1_565
O17 P5 1.624734 1_555
O17 V1 1.914974 1_555
O18 P6 1.624734 1_555
O18 V2 1.914974 1_555
O19 P7 1.588955 1_545
O19 V3 1.937629 1_545
O20 P3 1.559354 1_555
O20 V3 2.001950 1_555
O21 P2 1.540241 1_555
O21 V2 1.942819 1_655
O22 P1 1.540241 1_555
O22 V1 1.942819 1_555
O23 P0 1.559354 1_655
O23 V0 2.001950 1_555
O24 P2 1.540241 1_555
O24 V2 1.942819 1_555
O25 P3 1.559354 1_655
O25 V3 2.001950 1_555
O26 P0 1.559354 1_555
O26 V0 2.001950 1_555
O27 P1 1.540241 1_555
O27 V1 1.942819 1_655
O28 P7 1.558171 1_555
O28 V3 2.035105 1_555
O29 P6 1.591370 1_555
O29 V2 2.059120 1_555
O30 P5 1.591370 1_555
O30 V1 2.059120 1_555
O31 P4 1.558171 1_555
O31 V0 2.035105 1_555
O32 P2 1.559721 1_555
O32 V3 1.869397 1_555
O33 P3 1.521194 1_555
O33 V2 1.912156 1_555
O34 P0 1.521194 1_554
O34 V1 1.912156 1_555
O35 P1 1.559721 1_556
O35 V0 1.869397 1_555
