# generated using pymatgen
data_NaCeMg6
_symmetry_space_group_name_H-M   'P 1'
_cell_length_a   5.19614100
_cell_length_b   6.65659900
_cell_length_c   11.66580400
_cell_angle_alpha   90.00000000
_cell_angle_beta   90.00000000
_cell_angle_gamma   90.00000000
_symmetry_Int_Tables_number   1
_chemical_formula_structural   NaCeMg6
_chemical_formula_sum   'Na2 Ce2 Mg12'
_cell_volume   403.50414303
_cell_formula_units_Z   2
loop_
 _symmetry_equiv_pos_site_id
 _symmetry_equiv_pos_as_xyz
  1  'x, y, z'
loop_
 _atom_site_type_symbol
 _atom_site_label
 _atom_site_symmetry_multiplicity
 _atom_site_fract_x
 _atom_site_fract_y
 _atom_site_fract_z
 _atom_site_occupancy
  Na  Na0  1  0.50000000  0.50000000  0.16520800  1
  Na  Na1  1  0.50000000  0.00000000  0.66520800  1
  Ce  Ce0  1  0.50000000  0.00000000  0.17022500  1
  Ce  Ce1  1  0.50000000  0.50000000  0.67022500  1
  Mg  Mg0  1  0.50000000  0.24374600  0.42241300  1
  Mg  Mg1  1  0.50000000  0.75625400  0.42241300  1
  Mg  Mg2  1  0.00000000  0.75180100  0.07444100  1
  Mg  Mg3  1  0.00000000  0.24819900  0.07444100  1
  Mg  Mg4  1  0.00000000  0.00000000  0.33935500  1
  Mg  Mg5  1  0.00000000  0.50000000  0.33149900  1
  Mg  Mg6  1  0.50000000  0.74374600  0.92241300  1
  Mg  Mg7  1  0.50000000  0.25625400  0.92241300  1
  Mg  Mg8  1  0.00000000  0.25180100  0.57444100  1
  Mg  Mg9  1  0.00000000  0.74819900  0.57444100  1
  Mg  Mg10  1  0.00000000  0.50000000  0.83935500  1
  Mg  Mg11  1  0.00000000  0.00000000  0.83149900  1
loop_
_geom_bond_atom_site_label_1
_geom_bond_atom_site_label_2
_geom_bond_distance
_geom_bond_site_symmetry_2
Ce0 Mg4 3.262338 1_555
Ce0 Mg4 3.262338 1_655
Ce0 Mg2 3.275391 1_645
Ce0 Mg2 3.275391 1_545
Ce0 Mg3 3.275391 1_555
Ce0 Mg3 3.275391 1_655
Ce0 Na0 3.328814 1_545
Ce0 Na0 3.328814 1_555
Ce0 Mg7 3.356656 1_554
Ce0 Mg6 3.356656 1_544
Ce0 Mg0 3.359731 1_555
Ce0 Mg1 3.359731 1_545
Ce1 Mg10 3.262338 1_655
Ce1 Mg10 3.262338 1_555
Ce1 Mg8 3.275391 1_555
Ce1 Mg9 3.275391 1_655
Ce1 Mg8 3.275391 1_655
Ce1 Mg9 3.275391 1_555
Ce1 Na1 3.328814 1_565
Ce1 Na1 3.328814 1_555
Ce1 Mg1 3.356656 1_555
Ce1 Mg0 3.356656 1_555
Ce1 Mg6 3.359731 1_555
Ce1 Mg7 3.359731 1_555
Mg0 Mg8 3.146148 1_655
Mg0 Mg8 3.146148 1_555
Mg0 Mg4 3.212691 1_655
Mg0 Mg4 3.212691 1_555
Mg0 Mg1 3.245039 1_545
Mg0 Na1 3.264208 1_555
Mg0 Mg5 3.283976 1_655
Mg0 Mg5 3.283976 1_555
Mg0 Mg1 3.411560 1_555
Mg0 Na0 3.451479 1_555
Mg1 Mg9 3.146148 1_555
Mg1 Mg9 3.146148 1_655
Mg1 Mg4 3.212691 1_665
Mg1 Mg4 3.212691 1_565
Mg1 Na1 3.264208 1_565
Mg1 Mg5 3.283976 1_655
Mg1 Mg5 3.283976 1_555
Mg1 Na0 3.451479 1_555
Mg2 Mg6 3.146148 1_454
Mg2 Mg6 3.146148 1_554
Mg2 Na0 3.268121 1_455
Mg2 Na0 3.268121 1_555
Mg2 Mg3 3.304322 1_565
Mg2 Mg3 3.352277 1_555
Mg2 Mg5 3.435429 1_555
Mg2 Mg4 3.504344 1_565
Mg3 Mg7 3.146148 1_554
Mg3 Mg7 3.146148 1_454
Mg3 Na0 3.268121 1_455
Mg3 Na0 3.268121 1_555
Mg3 Mg5 3.435429 1_555
Mg3 Mg4 3.504344 1_555
Mg4 Mg8 3.214120 1_555
Mg4 Mg9 3.214120 1_545
Mg4 Mg5 3.329561 1_555
Mg4 Mg5 3.329561 1_545
Mg5 Na0 3.242415 1_455
Mg5 Na0 3.242415 1_555
Mg5 Mg8 3.280524 1_555
Mg5 Mg9 3.280524 1_555
Mg6 Mg7 3.245039 1_555
Mg6 Na0 3.264208 1_556
Mg6 Mg7 3.411560 1_565
Mg6 Na1 3.451479 1_565
Mg7 Na0 3.264208 1_556
Mg7 Na1 3.451479 1_555
Mg8 Na1 3.268121 1_555
Mg8 Na1 3.268121 1_455
Mg8 Mg9 3.304322 1_555
Mg8 Mg9 3.352277 1_545
Mg9 Na1 3.268121 1_465
Mg9 Na1 3.268121 1_565
Mg10 Mg7 3.212691 1_555
Mg10 Mg6 3.212691 1_455
Mg10 Mg6 3.212691 1_555
Mg10 Mg7 3.212691 1_455
Mg10 Mg3 3.214120 1_556
Mg10 Mg2 3.214120 1_556
Mg10 Mg11 3.329561 1_555
Mg10 Mg11 3.329561 1_565
Mg10 Mg8 3.504344 1_555
Mg10 Mg9 3.504344 1_555
Mg11 Na1 3.242415 1_455
Mg11 Na1 3.242415 1_555
Mg11 Mg2 3.280524 1_546
Mg11 Mg3 3.280524 1_556
Mg11 Mg6 3.283976 1_545
Mg11 Mg7 3.283976 1_455
Mg11 Mg7 3.283976 1_555
Mg11 Mg6 3.283976 1_445
Mg11 Mg8 3.435429 1_555
Mg11 Mg9 3.435429 1_545
