# generated using pymatgen
data_PrPtF7
_symmetry_space_group_name_H-M   'P 1'
_cell_length_a   5.55250346
_cell_length_b   9.16738669
_cell_length_c   12.29216205
_cell_angle_alpha   61.48286727
_cell_angle_beta   90.00000000
_cell_angle_gamma   90.00000000
_symmetry_Int_Tables_number   1
_chemical_formula_structural   PrPtF7
_chemical_formula_sum   'Pr4 Pt4 F28'
_cell_volume   549.78214977
_cell_formula_units_Z   4
loop_
 _symmetry_equiv_pos_site_id
 _symmetry_equiv_pos_as_xyz
  1  'x, y, z'
loop_
 _atom_site_type_symbol
 _atom_site_label
 _atom_site_symmetry_multiplicity
 _atom_site_fract_x
 _atom_site_fract_y
 _atom_site_fract_z
 _atom_site_occupancy
  Pr  Pr0  1  0.76171223  0.81103812  0.76382378  1
  Pr  Pr1  1  0.26171223  0.18896188  0.73617622  1
  Pr  Pr2  1  0.23828777  0.18896188  0.23617622  1
  Pr  Pr3  1  0.73828777  0.81103812  0.26382378  1
  Pt  Pt0  1  0.75562135  0.27303761  0.95779738  1
  Pt  Pt1  1  0.25562135  0.72696239  0.54220262  1
  Pt  Pt2  1  0.24437865  0.72696239  0.04220262  1
  Pt  Pt3  1  0.74437865  0.27303761  0.45779738  1
  F  F0  1  0.42928565  0.71005637  0.91413454  1
  F  F1  1  0.92928565  0.28994363  0.58586546  1
  F  F2  1  0.57071435  0.28994363  0.08586546  1
  F  F3  1  0.07071435  0.71005637  0.41413454  1
  F  F4  1  0.44515370  0.28077503  0.53775208  1
  F  F5  1  0.94515370  0.71922497  0.96224792  1
  F  F6  1  0.55484630  0.71922497  0.46224792  1
  F  F7  1  0.05484630  0.28077503  0.03775208  1
  F  F8  1  0.76337928  0.51386521  0.86255881  1
  F  F9  1  0.26337928  0.48613479  0.63744119  1
  F  F10  1  0.23662072  0.48613479  0.13744119  1
  F  F11  1  0.73662072  0.51386521  0.36255881  1
  F  F12  1  0.75885950  0.03164813  0.04922470  1
  F  F13  1  0.25885950  0.96835187  0.45077530  1
  F  F14  1  0.24114050  0.96835187  0.95077530  1
  F  F15  1  0.74114050  0.03164813  0.54922470  1
  F  F16  1  0.96100798  0.72766620  0.62741113  1
  F  F17  1  0.46100798  0.27233380  0.87258887  1
  F  F18  1  0.03899202  0.27233380  0.37258887  1
  F  F19  1  0.53899202  0.72766620  0.12741113  1
  F  F20  1  0.06416154  0.73909582  0.17320957  1
  F  F21  1  0.56416154  0.26090418  0.32679043  1
  F  F22  1  0.93583846  0.26090418  0.82679043  1
  F  F23  1  0.43583846  0.73909582  0.67320957  1
  F  F24  1  0.38862410  0.96126489  0.22943097  1
  F  F25  1  0.88862410  0.03873511  0.27056903  1
  F  F26  1  0.61137590  0.03873511  0.77056903  1
  F  F27  1  0.11137590  0.96126489  0.72943097  1
loop_
_geom_bond_atom_site_label_1
_geom_bond_atom_site_label_2
_geom_bond_distance
_geom_bond_site_symmetry_2
F0 Pt2 1.946613 1_556
F0 Pr0 2.458569 1_555
F1 Pt3 1.946613 1_555
F1 Pr1 2.458569 1_655
F2 Pt0 1.946613 1_554
F2 Pr2 2.458569 1_555
F3 Pt1 1.946613 1_555
F3 Pr3 2.458569 1_455
F4 Pt3 1.948828 1_555
F4 Pr1 2.394723 1_555
F5 Pt2 1.948828 1_656
F5 Pr0 2.394723 1_555
F6 Pt1 1.948828 1_555
F6 Pr3 2.394723 1_555
F7 Pt0 1.948828 1_454
F7 Pr2 2.394723 1_555
F8 Pt0 1.943884 1_555
F8 Pr0 2.395369 1_555
F9 Pt1 1.943884 1_555
F9 Pr1 2.395369 1_555
F10 Pt2 1.943884 1_555
F10 Pr2 2.395369 1_555
F11 Pt3 1.943884 1_555
F11 Pr3 2.395369 1_555
F12 Pt0 1.945677 1_554
F12 Pr3 2.442881 1_545
F13 Pt1 1.945677 1_555
F13 Pr2 2.442881 1_565
F14 Pt2 1.945677 1_556
F14 Pr1 2.442881 1_565
F15 Pt3 1.945677 1_555
F15 Pr0 2.442881 1_545
F16 Pt1 1.944097 1_655
F16 Pr0 2.417456 1_555
F17 Pt0 1.944097 1_555
F17 Pr1 2.417456 1_555
F18 Pt3 1.944097 1_455
F18 Pr2 2.417456 1_555
F19 Pt2 1.944097 1_555
F19 Pr3 2.417456 1_555
F20 Pt2 1.943701 1_555
F20 Pr3 2.377191 1_455
F21 Pt3 1.943701 1_555
F21 Pr2 2.377191 1_555
F22 Pt0 1.943701 1_555
F22 Pr1 2.377191 1_655
F23 Pt1 1.943701 1_555
F23 Pr0 2.377191 1_555
F24 Pr2 2.286069 1_565
F24 Pr3 2.299760 1_555
F25 Pr3 2.286069 1_545
F25 Pr2 2.299760 1_655
F26 Pr0 2.286069 1_545
F26 Pr1 2.299760 1_555
F27 Pr1 2.286069 1_565
F27 Pr0 2.299760 1_455
