# generated using pymatgen
data_BaCoO2
_symmetry_space_group_name_H-M   'P 1'
_cell_length_a   5.87493798
_cell_length_b   5.87490532
_cell_length_c   6.77497897
_cell_angle_alpha   89.99860008
_cell_angle_beta   90.00101727
_cell_angle_gamma   119.99925163
_symmetry_Int_Tables_number   1
_chemical_formula_structural   BaCoO2
_chemical_formula_sum   'Ba3 Co3 O6'
_cell_volume   202.50978673
_cell_formula_units_Z   3
loop_
 _symmetry_equiv_pos_site_id
 _symmetry_equiv_pos_as_xyz
  1  'x, y, z'
loop_
 _atom_site_type_symbol
 _atom_site_label
 _atom_site_symmetry_multiplicity
 _atom_site_fract_x
 _atom_site_fract_y
 _atom_site_fract_z
 _atom_site_occupancy
  Ba  Ba0  1  0.65375574  0.00001238  0.83332609  1
  Ba  Ba1  1  0.00000774  0.65374451  0.16664624  1
  Ba  Ba2  1  0.34626103  0.34626023  0.50000036  1
  Co  Co0  1  0.58779595  0.00002285  0.33334404  1
  Co  Co1  1  -0.00000191  0.58777110  0.66665033  1
  Co  Co2  1  0.41223696  0.41222898  -0.00000017  1
  O  O0  1  0.13215598  0.43233594  0.87008298  1
  O  O1  1  0.56764609  0.69976539  0.20345007  1
  O  O2  1  0.30018853  0.86785317  0.53676876  1
  O  O3  1  0.69974988  0.56759967  0.79657827  1
  O  O4  1  0.86783284  0.30024259  0.46323581  1
  O  O5  1  0.43237219  0.13216521  0.12991422  1
loop_
_geom_bond_atom_site_label_1
_geom_bond_atom_site_label_2
_geom_bond_distance
_geom_bond_site_symmetry_2
Ba0 O0 2.697022 1_655
Ba0 O3 2.697223 1_545
Ba0 O2 2.709517 1_545
Ba0 O5 2.709594 1_556
Ba0 O4 2.959947 1_555
Ba0 O1 2.960205 1_546
Ba0 O3 3.217605 1_555
Ba0 O0 3.217965 1_545
Ba1 O1 2.697062 1_455
Ba1 O5 2.697170 1_565
Ba1 O4 2.709410 1_455
Ba1 O0 2.709547 1_554
Ba1 O3 2.959908 1_454
Ba1 O2 2.960064 1_555
Ba1 O5 3.217772 1_455
Ba1 O1 3.217886 1_555
Ba2 O2 2.697036 1_545
Ba2 O4 2.697310 1_455
Ba2 O1 2.709268 1_555
Ba2 O3 2.709352 1_555
Ba2 O0 2.959851 1_555
Ba2 O5 2.959923 1_555
Ba2 O4 3.217589 1_555
Ba2 O2 3.217880 1_555
Co0 O4 1.921019 1_555
Co0 O1 1.921292 1_545
Co0 O5 2.011148 1_555
Co0 O2 2.011322 1_545
Co1 O2 1.920999 1_555
Co1 O3 1.921302 1_455
Co1 O4 2.010981 1_455
Co1 O0 2.011259 1_555
Co2 O5 1.921045 1_555
Co2 O0 1.921073 1_554
Co2 O3 2.010952 1_554
Co2 O1 2.011184 1_555
