# generated using pymatgen
data_YMgSe3
_symmetry_space_group_name_H-M   'P 1'
_cell_length_a   7.28271200
_cell_length_b   7.28271200
_cell_length_c   6.73251043
_cell_angle_alpha   73.02566902
_cell_angle_beta   73.02566902
_cell_angle_gamma   110.40413022
_symmetry_Int_Tables_number   1
_chemical_formula_structural   YMgSe3
_chemical_formula_sum   'Y2 Mg2 Se6'
_cell_volume   287.56634161
_cell_formula_units_Z   2
loop_
 _symmetry_equiv_pos_site_id
 _symmetry_equiv_pos_as_xyz
  1  'x, y, z'
loop_
 _atom_site_type_symbol
 _atom_site_label
 _atom_site_symmetry_multiplicity
 _atom_site_fract_x
 _atom_site_fract_y
 _atom_site_fract_z
 _atom_site_occupancy
  Y  Y0  1  0.77660400  0.77660400  0.22749700  1
  Y  Y1  1  0.22339600  0.22339600  0.77250300  1
  Mg  Mg0  1  0.33292400  0.66707600  0.00000000  1
  Mg  Mg1  1  0.66707600  0.33292400  0.00000000  1
  Se  Se0  1  0.20326300  0.89547300  0.19592800  1
  Se  Se1  1  0.79673700  0.10452700  0.80407200  1
  Se  Se2  1  0.10452700  0.79673700  0.80407200  1
  Se  Se3  1  0.89547300  0.20326300  0.19592800  1
  Se  Se4  1  0.58408300  0.58408300  0.70830900  1
  Se  Se5  1  0.41591700  0.41591700  0.29169100  1
loop_
_geom_bond_atom_site_label_1
_geom_bond_atom_site_label_2
_geom_bond_distance
_geom_bond_site_symmetry_2
Mg0 Se5 2.633273 1_555
Mg0 Se4 2.633273 1_554
Mg0 Se2 2.654697 1_554
Mg0 Se0 2.654697 1_555
Mg0 Se1 3.277243 1_564
Mg0 Se3 3.277243 1_455
Mg1 Se5 2.633273 1_555
Mg1 Se4 2.633273 1_554
Mg1 Se1 2.654697 1_554
Mg1 Se3 2.654697 1_555
Mg1 Se2 3.277243 1_654
Mg1 Se0 3.277243 1_545
Se0 Y0 2.842684 1_455
Se0 Y1 3.064003 1_564
Se1 Y1 2.842684 1_655
Se1 Y0 3.064003 1_546
Se2 Y1 2.842684 1_565
Se2 Y0 3.064003 1_456
Se3 Y0 2.842684 1_545
Se3 Y1 3.064003 1_654
Se4 Y0 2.781990 1_555
Se4 Y1 2.801749 1_555
Se5 Y1 2.781990 1_555
Se5 Y0 2.801749 1_555
