# generated using pymatgen
data_LuAl3Fe7Si2
_symmetry_space_group_name_H-M   'P 1'
_cell_length_a   4.82398500
_cell_length_b   6.39655483
_cell_length_c   6.42746383
_cell_angle_alpha   98.28528884
_cell_angle_beta   112.04060377
_cell_angle_gamma   67.84726442
_symmetry_Int_Tables_number   1
_chemical_formula_structural   LuAl3Fe7Si2
_chemical_formula_sum   'Lu1 Al3 Fe7 Si2'
_cell_volume   170.26580264
_cell_formula_units_Z   1
loop_
 _symmetry_equiv_pos_site_id
 _symmetry_equiv_pos_as_xyz
  1  'x, y, z'
loop_
 _atom_site_type_symbol
 _atom_site_label
 _atom_site_symmetry_multiplicity
 _atom_site_fract_x
 _atom_site_fract_y
 _atom_site_fract_z
 _atom_site_occupancy
  Lu  Lu0  1  0.99934000  0.99614500  0.99482400  1
  Al  Al0  1  0.64873100  0.34150300  0.63896500  1
  Al  Al1  1  0.35100200  0.65961300  0.36161700  1
  Al  Al2  1  0.00915800  0.34847600  0.36679200  1
  Fe  Fe0  1  0.00262600  0.64758700  0.65284000  1
  Fe  Fe1  1  0.72605300  0.76814700  0.22025200  1
  Fe  Fe2  1  0.28013600  0.22156900  0.78184200  1
  Fe  Fe3  1  0.50293700  0.77777800  0.78365300  1
  Fe  Fe4  1  0.49186300  0.23456900  0.21829400  1
  Fe  Fe5  1  0.50175700  0.99914900  0.49710500  1
  Fe  Fe6  1  0.99619900  0.99914900  0.49710500  1
  Si  Si0  1  0.49237400  0.50315800  0.99335600  1
  Si  Si1  1  0.99782500  0.50315800  0.99335600  1
loop_
_geom_bond_atom_site_label_1
_geom_bond_atom_site_label_2
_geom_bond_distance
_geom_bond_site_symmetry_2
Lu0 Si0 3.154828 1_655
Lu0 Si1 3.154829 1_555
Lu0 Si0 3.241754 1_565
Lu0 Si1 3.241754 1_565
Al0 Fe6 2.497984 1_545
Al0 Fe5 2.497984 1_545
Al0 Al1 2.510158 1_555
Al0 Fe4 2.583214 1_555
Al0 Si0 2.617085 1_555
Al0 Si1 2.617087 1_555
Al0 Fe2 2.655334 1_655
Al0 Fe2 2.655338 1_555
Al0 Fe3 2.722136 1_555
Al0 Al2 2.906749 1_555
Al0 Al2 2.906750 1_655
Al0 Lu0 2.950827 1_545
Al0 Fe0 3.018589 1_655
Al0 Fe0 3.018593 1_555
Al1 Fe6 2.484949 1_455
Al1 Fe5 2.484949 1_555
Al1 Fe3 2.607971 1_555
Al1 Fe1 2.635099 1_455
Al1 Fe1 2.635103 1_555
Al1 Fe4 2.656505 1_555
Al1 Si1 2.661456 1_454
Al1 Si0 2.661458 1_554
Al1 Lu0 2.962553 1_454
Al1 Fe0 2.972179 1_655
Al1 Fe0 2.972183 1_555
Al2 Fe0 2.454822 1_555
Al2 Fe5 2.526347 1_545
Al2 Fe6 2.526347 1_445
Al2 Fe2 2.586707 1_555
Al2 Fe1 2.637609 1_455
Al2 Fe4 2.655596 1_455
Al2 Fe4 2.655600 1_555
Al2 Si0 2.699686 1_454
Al2 Si1 2.699688 1_454
Al2 Lu0 3.039740 1_444
Fe0 Si1 2.506225 1_455
Fe0 Si0 2.506229 1_555
Fe0 Fe5 2.575426 1_455
Fe0 Fe6 2.575429 1_455
Fe0 Fe2 2.640539 1_555
Fe0 Fe3 2.648841 1_555
Fe0 Fe3 2.648841 1_455
Fe0 Fe1 2.676466 1_455
Fe0 Lu0 2.896533 1_455
Fe1 Si1 2.401115 1_554
Fe1 Si0 2.401115 1_554
Fe1 Fe6 2.449914 1_555
Fe1 Fe5 2.449917 1_555
Fe1 Fe3 2.601939 1_554
Fe1 Fe4 2.763318 1_565
Fe1 Lu0 3.075217 1_454
Fe1 Lu0 3.075217 1_554
Fe2 Si1 2.404398 1_455
Fe2 Si0 2.404403 1_555
Fe2 Fe6 2.467278 1_445
Fe2 Fe5 2.467281 1_545
Fe2 Fe4 2.601172 1_556
Fe2 Fe3 2.629239 1_545
Fe2 Lu0 3.036705 1_445
Fe2 Lu0 3.036712 1_545
Fe3 Si0 2.388821 1_555
Fe3 Si1 2.388826 1_555
Fe3 Fe6 2.476880 1_455
Fe3 Fe5 2.476882 1_555
Fe3 Lu0 3.010693 1_455
Fe3 Lu0 3.010701 1_555
Fe4 Si1 2.400772 1_454
Fe4 Si0 2.400772 1_554
Fe4 Fe6 2.478047 1_545
Fe4 Fe5 2.478050 1_545
Fe4 Lu0 3.094200 1_544
Fe4 Lu0 3.094200 1_444
Fe5 Fe6 2.385181 1_555
Fe5 Fe6 2.438804 1_455
Fe5 Lu0 3.196213 1_555
Fe5 Lu0 3.231365 1_454
Fe6 Lu0 3.196212 1_555
Fe6 Lu0 3.231367 1_554
Si0 Si1 2.385697 1_455
Si0 Si1 2.438288 1_555
