# generated using pymatgen
data_Na2SrSn4
_symmetry_space_group_name_H-M   'P 1'
_cell_length_a   10.05201965
_cell_length_b   10.05201965
_cell_length_c   6.62221100
_cell_angle_alpha   86.31310740
_cell_angle_beta   86.31310740
_cell_angle_gamma   39.52233572
_symmetry_Int_Tables_number   1
_chemical_formula_structural   Na2SrSn4
_chemical_formula_sum   'Na4 Sr2 Sn8'
_cell_volume   424.82427779
_cell_formula_units_Z   2
loop_
 _symmetry_equiv_pos_site_id
 _symmetry_equiv_pos_as_xyz
  1  'x, y, z'
loop_
 _atom_site_type_symbol
 _atom_site_label
 _atom_site_symmetry_multiplicity
 _atom_site_fract_x
 _atom_site_fract_y
 _atom_site_fract_z
 _atom_site_occupancy
  Na  Na0  1  0.60106651  0.80203678  0.79949091  1
  Na  Na1  1  0.19796322  0.39893349  0.70050909  1
  Na  Na2  1  0.39893349  0.19796322  0.20050909  1
  Na  Na3  1  0.80203678  0.60106651  0.29949091  1
  Sr  Sr0  1  0.77455342  0.22544658  0.25000000  1
  Sr  Sr1  1  0.22544658  0.77455342  0.75000000  1
  Sn  Sn0  1  0.36935477  0.78747974  0.22821633  1
  Sn  Sn1  1  0.21252026  0.63064523  0.27178367  1
  Sn  Sn2  1  0.63064523  0.21252026  0.77178367  1
  Sn  Sn3  1  0.78747974  0.36935477  0.72821633  1
  Sn  Sn4  1  0.13608681  0.17092542  0.98476448  1
  Sn  Sn5  1  0.82907458  0.86391319  0.51523552  1
  Sn  Sn6  1  0.86391319  0.82907458  0.01523552  1
  Sn  Sn7  1  0.17092542  0.13608681  0.48476448  1
loop_
_geom_bond_atom_site_label_1
_geom_bond_atom_site_label_2
_geom_bond_distance
_geom_bond_site_symmetry_2
Na0 Sn4 3.195414 1_565
Na0 Sn3 3.198071 1_555
Na0 Sn5 3.267586 1_555
Na0 Sn6 3.277076 1_556
Na0 Sn7 3.489178 1_565
Na0 Sn0 3.623385 1_556
Na1 Sn5 3.195414 1_455
Na1 Sn2 3.198071 1_555
Na1 Sn4 3.267586 1_555
Na1 Sn7 3.277076 1_555
Na1 Sn6 3.489178 1_456
Na1 Sn1 3.623385 1_555
Na2 Sn6 3.195414 1_545
Na2 Sn1 3.198071 1_555
Na2 Sn7 3.267586 1_555
Na2 Sn4 3.277076 1_554
Na2 Sn5 3.489178 1_545
Na2 Sn2 3.623385 1_554
Na3 Sn7 3.195414 1_655
Na3 Sn0 3.198071 1_555
Na3 Sn6 3.267586 1_555
Na3 Sn5 3.277076 1_555
Na3 Sn4 3.489178 1_654
Na3 Sn3 3.623385 1_555
Sn0 Sn7 2.948043 1_565
Sn0 Sn4 2.949161 1_564
Sn0 Sn1 2.961634 1_555
Sn0 Sr0 3.605365 1_555
Sn0 Sr1 3.615306 1_554
Sn0 Sr1 3.693016 1_555
Sn0 Sr0 3.809541 1_465
Sn1 Sn6 2.948043 1_455
Sn1 Sn5 2.949161 1_455
Sn1 Sr0 3.605365 1_555
Sn1 Sr1 3.615306 1_555
Sn1 Sr1 3.693016 1_554
Sn1 Sr0 3.809541 1_465
Sn2 Sn5 2.948043 1_545
Sn2 Sn6 2.949161 1_546
Sn2 Sn3 2.961634 1_555
Sn2 Sr1 3.605365 1_555
Sn2 Sr0 3.615306 1_556
Sn2 Sr0 3.693016 1_555
Sn2 Sr1 3.809541 1_645
Sn3 Sn4 2.948043 1_655
Sn3 Sn7 2.949161 1_655
Sn3 Sr1 3.605365 1_555
Sn3 Sr0 3.615306 1_555
Sn3 Sr0 3.693016 1_556
Sn3 Sr1 3.809541 1_645
Sn4 Sn7 3.319563 1_556
Sn4 Sn7 3.319563 1_555
Sn4 Sr0 3.580871 1_456
Sn4 Sr1 3.767549 1_545
Sn5 Sn6 3.319563 1_555
Sn5 Sn6 3.319563 1_556
Sn5 Sr0 3.580871 1_565
Sn5 Sr1 3.767549 1_655
Sn6 Sr1 3.580871 1_654
Sn6 Sr0 3.767549 1_565
Sn7 Sr1 3.580871 1_545
Sn7 Sr0 3.767549 1_455
