# generated using pymatgen
data_ZnCo(GeO3)2
_symmetry_space_group_name_H-M   'P 1'
_cell_length_a   9.21989200
_cell_length_b   5.48633400
_cell_length_c   9.77907122
_cell_angle_alpha   77.98794342
_cell_angle_beta   90.00000000
_cell_angle_gamma   90.00000000
_symmetry_Int_Tables_number   1
_chemical_formula_structural   ZnCo(GeO3)2
_chemical_formula_sum   'Zn4 Co4 Ge8 O24'
_cell_volume   483.82760661
_cell_formula_units_Z   4
loop_
 _symmetry_equiv_pos_site_id
 _symmetry_equiv_pos_as_xyz
  1  'x, y, z'
loop_
 _atom_site_type_symbol
 _atom_site_label
 _atom_site_symmetry_multiplicity
 _atom_site_fract_x
 _atom_site_fract_y
 _atom_site_fract_z
 _atom_site_occupancy
  Zn  Zn0  1  0.50068100  0.54496800  0.24685100  1
  Zn  Zn1  1  0.00068100  0.95503200  0.75314900  1
  Zn  Zn2  1  0.49931900  0.45503200  0.75314900  1
  Zn  Zn3  1  0.99931900  0.04496800  0.24685100  1
  Co  Co0  1  0.65299300  0.03986100  0.24570900  1
  Co  Co1  1  0.15299300  0.46013900  0.75429100  1
  Co  Co2  1  0.34700700  0.96013900  0.75429100  1
  Co  Co3  1  0.84700700  0.53986100  0.24570900  1
  Ge  Ge0  1  0.33699600  0.18984900  0.05544600  1
  Ge  Ge1  1  0.83699600  0.31015100  0.94455400  1
  Ge  Ge2  1  0.66300400  0.81015100  0.94455400  1
  Ge  Ge3  1  0.16300400  0.68984900  0.05544600  1
  Ge  Ge4  1  0.34137600  0.75788000  0.45376500  1
  Ge  Ge5  1  0.84137600  0.74212000  0.54623500  1
  Ge  Ge6  1  0.65862400  0.24212000  0.54623500  1
  Ge  Ge7  1  0.15862400  0.25788000  0.45376500  1
  O  O0  1  0.28343400  0.49832700  0.38264300  1
  O  O1  1  0.78343400  0.00167300  0.61735700  1
  O  O2  1  0.71656600  0.50167300  0.61735700  1
  O  O3  1  0.21656600  0.99832700  0.38264300  1
  O  O4  1  0.31441400  0.85668000  0.10860600  1
  O  O5  1  0.81441400  0.64332000  0.89139400  1
  O  O6  1  0.68558600  0.14332000  0.89139400  1
  O  O7  1  0.18558600  0.35668000  0.10860600  1
  O  O8  1  0.98990700  0.29705300  0.37242600  1
  O  O9  1  0.48990700  0.20294700  0.62757400  1
  O  O10  1  0.01009300  0.70294700  0.62757400  1
  O  O11  1  0.51009300  0.79705300  0.37242600  1
  O  O12  1  0.01011100  0.77402200  0.13918900  1
  O  O13  1  0.51011100  0.72597800  0.86081100  1
  O  O14  1  0.98988900  0.22597800  0.86081100  1
  O  O15  1  0.48988900  0.27402200  0.13918900  1
  O  O16  1  0.33462600  0.24742100  0.86940200  1
  O  O17  1  0.83462600  0.25257900  0.13059800  1
  O  O18  1  0.66537400  0.75257900  0.13059800  1
  O  O19  1  0.16537400  0.74742100  0.86940200  1
  O  O20  1  0.33557100  0.68516000  0.63818700  1
  O  O21  1  0.83557100  0.81484000  0.36181300  1
  O  O22  1  0.66442900  0.31484000  0.36181300  1
  O  O23  1  0.16442900  0.18516000  0.63818700  1
loop_
_geom_bond_atom_site_label_1
_geom_bond_atom_site_label_2
_geom_bond_distance
_geom_bond_site_symmetry_2
Co0 O22 2.071024 1_555
Co0 O11 2.087794 1_545
Co0 O15 2.107105 1_555
Co0 O18 2.121990 1_545
Co0 O17 2.210596 1_555
Co0 O21 2.250208 1_545
Co1 O23 2.071024 1_555
Co1 O10 2.087794 1_555
Co1 O14 2.107105 1_455
Co1 O19 2.121990 1_555
Co1 O16 2.210596 1_555
Co1 O20 2.250208 1_555
Co2 O20 2.071024 1_555
Co2 O9 2.087794 1_565
Co2 O13 2.107105 1_555
Co2 O16 2.121990 1_565
Co2 O19 2.210596 1_555
Co2 O23 2.250208 1_565
Co3 O21 2.071024 1_555
Co3 O8 2.087794 1_555
Co3 O12 2.107105 1_655
Co3 O17 2.121990 1_555
Co3 O18 2.210596 1_555
Co3 O22 2.250208 1_555
Ge0 O15 1.740244 1_555
Ge0 O16 1.780742 1_554
Ge0 O7 1.804115 1_555
Ge0 O4 1.805328 1_545
Ge1 O14 1.740244 1_555
Ge1 O17 1.780742 1_556
Ge1 O6 1.804115 1_555
Ge1 O5 1.805328 1_555
Ge2 O13 1.740244 1_555
Ge2 O18 1.780742 1_556
Ge2 O5 1.804115 1_555
Ge2 O6 1.805328 1_565
Ge3 O12 1.740244 1_555
Ge3 O19 1.780742 1_554
Ge3 O4 1.804115 1_555
Ge3 O7 1.805328 1_555
Ge4 O11 1.739963 1_555
Ge4 O20 1.764957 1_555
Ge4 O3 1.779394 1_555
Ge4 O0 1.791401 1_555
Ge5 O10 1.739963 1_655
Ge5 O21 1.764957 1_555
Ge5 O2 1.779394 1_555
Ge5 O1 1.791401 1_565
Ge6 O9 1.739963 1_555
Ge6 O22 1.764957 1_555
Ge6 O1 1.779394 1_555
Ge6 O2 1.791401 1_555
Ge7 O8 1.739963 1_455
Ge7 O23 1.764957 1_555
Ge7 O0 1.779394 1_555
Ge7 O3 1.791401 1_545
O0 Zn0 2.387341 1_555
O1 Zn1 2.387341 1_645
O2 Zn2 2.387341 1_555
O3 Zn3 2.387341 1_465
O4 Zn0 2.596015 1_555
O5 Zn1 2.596015 1_655
O6 Zn2 2.596015 1_555
O7 Zn3 2.596015 1_455
O8 Zn3 2.033519 1_555
O9 Zn2 2.033519 1_555
O10 Zn1 2.033519 1_555
O11 Zn0 2.033519 1_555
O12 Zn3 1.994860 1_465
O13 Zn2 1.994860 1_555
O14 Zn1 1.994860 1_645
O15 Zn0 1.994860 1_555
O16 Zn2 2.087225 1_555
O17 Zn3 2.087225 1_555
O18 Zn0 2.087225 1_555
O19 Zn1 2.087225 1_555
O20 Zn2 2.132238 1_555
O21 Zn3 2.132238 1_565
O22 Zn0 2.132238 1_555
O23 Zn1 2.132238 1_545
