# generated using pymatgen
data_Lu3Cu11Si4
_symmetry_space_group_name_H-M   'P 1'
_cell_length_a   8.32074564
_cell_length_b   8.32074564
_cell_length_c   8.52001700
_cell_angle_alpha   90.00000000
_cell_angle_beta   90.00000000
_cell_angle_gamma   119.99999715
_symmetry_Int_Tables_number   1
_chemical_formula_structural   Lu3Cu11Si4
_chemical_formula_sum   'Lu6 Cu22 Si8'
_cell_volume   510.85258793
_cell_formula_units_Z   2
loop_
 _symmetry_equiv_pos_site_id
 _symmetry_equiv_pos_as_xyz
  1  'x, y, z'
loop_
 _atom_site_type_symbol
 _atom_site_label
 _atom_site_symmetry_multiplicity
 _atom_site_fract_x
 _atom_site_fract_y
 _atom_site_fract_z
 _atom_site_occupancy
  Lu  Lu0  1  0.80100000  0.19900000  0.75000000  1
  Lu  Lu1  1  0.19900000  0.80100000  0.25000000  1
  Lu  Lu2  1  0.39800100  0.19900000  0.75000000  1
  Lu  Lu3  1  0.60199900  0.80100000  0.25000000  1
  Lu  Lu4  1  0.80100000  0.60199900  0.75000000  1
  Lu  Lu5  1  0.19900000  0.39800100  0.25000000  1
  Cu  Cu0  1  0.43556000  0.56444000  0.75000000  1
  Cu  Cu1  1  0.56444000  0.43556000  0.25000000  1
  Cu  Cu2  1  0.12888000  0.56444000  0.75000000  1
  Cu  Cu3  1  0.87112000  0.43556000  0.25000000  1
  Cu  Cu4  1  0.43556000  0.87112000  0.75000000  1
  Cu  Cu5  1  0.56444000  0.12888000  0.25000000  1
  Cu  Cu6  1  0.84879800  0.15120200  0.40974900  1
  Cu  Cu7  1  0.15120200  0.84879800  0.59025100  1
  Cu  Cu8  1  0.30240300  0.15120200  0.40974900  1
  Cu  Cu9  1  0.15120200  0.84879800  0.90974900  1
  Cu  Cu10  1  0.69759700  0.84879800  0.59025100  1
  Cu  Cu11  1  0.84879800  0.15120200  0.09025100  1
  Cu  Cu12  1  0.84879800  0.69759700  0.40974900  1
  Cu  Cu13  1  0.69759700  0.84879800  0.90974900  1
  Cu  Cu14  1  0.15120200  0.30240300  0.59025100  1
  Cu  Cu15  1  0.30240300  0.15120200  0.09025100  1
  Cu  Cu16  1  0.15120200  0.30240300  0.90974900  1
  Cu  Cu17  1  0.84879800  0.69759700  0.09025100  1
  Cu  Cu18  1  0.66666700  0.33333300  0.00468500  1
  Cu  Cu19  1  0.33333300  0.66666700  0.99531500  1
  Cu  Cu20  1  0.33333300  0.66666700  0.50468500  1
  Cu  Cu21  1  0.66666700  0.33333300  0.49531500  1
  Si  Si0  1  0.50000000  0.50000000  0.00000000  1
  Si  Si1  1  0.00000000  0.50000000  0.00000000  1
  Si  Si2  1  0.50000000  0.50000000  0.50000000  1
  Si  Si3  1  0.50000000  0.00000000  0.00000000  1
  Si  Si4  1  0.00000000  0.50000000  0.50000000  1
  Si  Si5  1  0.50000000  0.00000000  0.50000000  1
  Si  Si6  1  0.00000000  0.00000000  0.75000000  1
  Si  Si7  1  0.00000000  0.00000000  0.25000000  1
loop_
_geom_bond_atom_site_label_1
_geom_bond_atom_site_label_2
_geom_bond_distance
_geom_bond_site_symmetry_2
Lu0 Si6 2.867979 1_655
Lu0 Si1 3.066649 1_656
Lu0 Si4 3.066649 1_655
Lu0 Si5 3.066649 1_555
Lu0 Si3 3.066649 1_556
Lu1 Si7 2.867979 1_565
Lu1 Si3 3.066649 1_565
Lu1 Si1 3.066649 1_555
Lu1 Si4 3.066649 1_555
Lu1 Si5 3.066649 1_565
Lu2 Si6 2.867986 1_555
Lu2 Si3 3.066644 1_556
Lu2 Si5 3.066644 1_555
Lu2 Si0 3.066650 1_556
Lu2 Si2 3.066650 1_555
Lu3 Si7 2.867986 1_665
Lu3 Si3 3.066644 1_565
Lu3 Si5 3.066644 1_565
Lu3 Si0 3.066650 1_555
Lu3 Si2 3.066650 1_555
Lu4 Si6 2.867986 1_665
Lu4 Si1 3.066644 1_656
Lu4 Si4 3.066644 1_655
Lu4 Si0 3.066650 1_556
Lu4 Si2 3.066650 1_555
Lu5 Si7 2.867986 1_555
Lu5 Si4 3.066644 1_555
Lu5 Si1 3.066644 1_555
Lu5 Si2 3.066650 1_555
Lu5 Si0 3.066650 1_555
Cu0 Si2 2.323664 1_555
Cu0 Si0 2.323664 1_556
Cu0 Cu2 2.551806 1_555
Cu0 Cu4 2.551806 1_555
Cu0 Cu19 2.557157 1_555
Cu0 Cu20 2.557157 1_555
Cu0 Cu13 2.654400 1_555
Cu0 Cu16 2.654400 1_555
Cu0 Cu10 2.654400 1_555
Cu0 Cu14 2.654400 1_555
Cu0 Lu2 2.897144 1_555
Cu0 Lu4 2.897144 1_555
Cu1 Si2 2.323664 1_555
Cu1 Si0 2.323664 1_555
Cu1 Cu3 2.551806 1_555
Cu1 Cu5 2.551806 1_555
Cu1 Cu21 2.557157 1_555
Cu1 Cu18 2.557157 1_555
Cu1 Cu12 2.654400 1_555
Cu1 Cu17 2.654400 1_555
Cu1 Cu8 2.654400 1_555
Cu1 Cu15 2.654400 1_555
Cu1 Lu5 2.897144 1_555
Cu1 Lu3 2.897144 1_555
Cu2 Si4 2.323664 1_555
Cu2 Si1 2.323664 1_556
Cu2 Cu4 2.551806 1_555
Cu2 Cu20 2.557153 1_555
Cu2 Cu9 2.654396 1_555
Cu2 Cu7 2.654396 1_555
Cu2 Lu4 2.897135 1_455
Cu2 Lu0 2.897140 1_455
Cu3 Si4 2.323664 1_655
Cu3 Si1 2.323664 1_655
Cu3 Cu5 2.551806 1_555
Cu3 Cu6 2.654396 1_555
Cu3 Lu5 2.897135 1_655
Cu3 Lu1 2.897140 1_655
Cu4 Si3 2.323664 1_566
Cu4 Si5 2.323664 1_565
Cu4 Cu9 2.654396 1_555
Cu4 Cu7 2.654396 1_555
Cu4 Lu2 2.897135 1_565
Cu4 Lu0 2.897140 1_565
Cu5 Si3 2.323664 1_555
Cu5 Si5 2.323664 1_555
Cu5 Cu6 2.654396 1_555
Cu5 Cu8 2.654403 1_555
Cu5 Lu3 2.897135 1_545
Cu5 Lu1 2.897140 1_545
Cu6 Si7 2.569250 1_655
Cu6 Si5 2.635499 1_555
Cu6 Si4 2.635499 1_655
Cu6 Lu3 2.928600 1_545
Cu6 Lu5 2.928600 1_655
Cu6 Lu0 2.979666 1_555
Cu7 Si6 2.569250 1_565
Cu7 Si4 2.635499 1_555
Cu7 Si5 2.635499 1_565
Cu7 Cu8 2.667138 1_565
Cu7 Cu9 2.722128 1_555
Cu7 Lu4 2.928600 1_455
Cu7 Lu2 2.928600 1_565
Cu7 Lu1 2.979666 1_555
Cu8 Si7 2.569244 1_555
Cu8 Si2 2.635500 1_555
Cu8 Si5 2.635506 1_555
Cu8 Lu5 2.928600 1_555
Cu8 Lu1 2.928600 1_545
Cu8 Lu2 2.979669 1_555
Cu9 Si6 2.569250 1_565
Cu9 Si1 2.635499 1_556
Cu9 Si3 2.635499 1_566
Cu9 Lu4 2.928600 1_455
Cu9 Lu2 2.928600 1_565
Cu9 Lu1 2.979666 1_556
Cu10 Si6 2.569244 1_665
Cu10 Si2 2.635500 1_555
Cu10 Si5 2.635506 1_565
Cu10 Cu4 2.654403 1_555
Cu10 Cu12 2.667126 1_555
Cu10 Cu6 2.667138 1_565
Cu10 Cu13 2.722128 1_555
Cu10 Cu20 2.724236 1_555
Cu10 Lu4 2.928600 1_555
Cu10 Lu0 2.928600 1_565
Cu10 Lu3 2.979669 1_555
Cu11 Si7 2.569250 1_655
Cu11 Si3 2.635499 1_555
Cu11 Si1 2.635499 1_655
Cu11 Cu5 2.654396 1_555
Cu11 Cu3 2.654396 1_555
Cu11 Cu13 2.667138 1_544
Cu11 Cu16 2.667138 1_654
Cu11 Cu6 2.722128 1_555
Cu11 Cu18 2.724222 1_555
Cu11 Lu3 2.928600 1_545
Cu11 Lu5 2.928600 1_655
Cu11 Lu0 2.979666 1_554
Cu12 Si7 2.569244 1_665
Cu12 Si2 2.635500 1_555
Cu12 Si4 2.635506 1_655
Cu12 Cu3 2.654403 1_555
Cu12 Cu7 2.667138 1_655
Cu12 Cu17 2.722128 1_555
Cu12 Cu21 2.724236 1_555
Cu12 Lu3 2.928600 1_555
Cu12 Lu1 2.928600 1_655
Cu12 Lu4 2.979669 1_555
Cu13 Si6 2.569244 1_665
Cu13 Si0 2.635500 1_556
Cu13 Si3 2.635506 1_566
Cu13 Cu4 2.654403 1_555
Cu13 Cu17 2.667126 1_556
Cu13 Cu19 2.724236 1_555
Cu13 Lu4 2.928600 1_555
Cu13 Lu0 2.928600 1_565
Cu13 Lu3 2.979669 1_556
Cu14 Si6 2.569244 1_555
Cu14 Si2 2.635500 1_555
Cu14 Si4 2.635506 1_555
Cu14 Cu2 2.654403 1_555
Cu14 Cu8 2.667126 1_555
Cu14 Cu6 2.667138 1_455
Cu14 Cu16 2.722128 1_555
Cu14 Cu20 2.724236 1_555
Cu14 Lu2 2.928600 1_555
Cu14 Lu0 2.928600 1_455
Cu14 Lu5 2.979669 1_555
Cu15 Si7 2.569244 1_555
Cu15 Si0 2.635500 1_555
Cu15 Si3 2.635506 1_555
Cu15 Cu5 2.654403 1_555
Cu15 Cu16 2.667126 1_554
Cu15 Cu9 2.667138 1_544
Cu15 Cu8 2.722128 1_555
Cu15 Cu18 2.724236 1_555
Cu15 Lu5 2.928600 1_555
Cu15 Lu1 2.928600 1_545
Cu15 Lu2 2.979669 1_554
Cu16 Si6 2.569244 1_555
Cu16 Si0 2.635500 1_556
Cu16 Si1 2.635506 1_556
Cu16 Cu2 2.654403 1_555
Cu16 Cu19 2.724236 1_555
Cu16 Lu2 2.928600 1_555
Cu16 Lu0 2.928600 1_455
Cu16 Lu5 2.979669 1_556
Cu17 Si7 2.569244 1_665
Cu17 Si0 2.635500 1_555
Cu17 Si1 2.635506 1_655
Cu17 Cu3 2.654403 1_555
Cu17 Cu9 2.667138 1_654
Cu17 Cu18 2.724236 1_555
Cu17 Lu3 2.928600 1_555
Cu17 Lu1 2.928600 1_655
Cu17 Lu4 2.979669 1_554
Cu18 Si3 2.402322 1_555
Cu18 Si1 2.402322 1_655
Cu18 Si0 2.402329 1_555
Cu18 Cu5 2.557153 1_555
Cu18 Cu3 2.557153 1_555
Cu18 Lu0 2.908033 1_554
Cu18 Lu4 2.908033 1_554
Cu18 Lu2 2.908033 1_554
Cu19 Si3 2.402322 1_566
Cu19 Si1 2.402322 1_556
Cu19 Si0 2.402329 1_556
Cu19 Cu2 2.557153 1_555
Cu19 Cu4 2.557153 1_555
Cu19 Cu9 2.724222 1_555
Cu19 Lu1 2.908033 1_556
Cu19 Lu3 2.908033 1_556
Cu19 Lu5 2.908033 1_556
Cu20 Si4 2.402322 1_555
Cu20 Si5 2.402322 1_565
Cu20 Si2 2.402329 1_555
Cu20 Cu4 2.557153 1_555
Cu20 Cu7 2.724222 1_555
Cu20 Lu1 2.908033 1_555
Cu20 Lu5 2.908033 1_555
Cu20 Lu3 2.908033 1_555
Cu21 Si4 2.402322 1_655
Cu21 Si5 2.402322 1_555
Cu21 Si2 2.402329 1_555
Cu21 Cu5 2.557153 1_555
Cu21 Cu3 2.557153 1_555
Cu21 Cu6 2.724222 1_555
Cu21 Cu8 2.724236 1_555
Cu21 Lu0 2.908033 1_555
Cu21 Lu4 2.908033 1_555
Cu21 Lu2 2.908033 1_555
