# generated using pymatgen
data_CaLaCrWO6
_symmetry_space_group_name_H-M   'P 1'
_cell_length_a   5.72425500
_cell_length_b   5.57158200
_cell_length_c   9.58406257
_cell_angle_alpha   55.43531115
_cell_angle_beta   90.00000000
_cell_angle_gamma   90.00000000
_symmetry_Int_Tables_number   1
_chemical_formula_structural   CaLaCrWO6
_chemical_formula_sum   'Ca2 La2 Cr2 W2 O12'
_cell_volume   251.71172746
_cell_formula_units_Z   2
loop_
 _symmetry_equiv_pos_site_id
 _symmetry_equiv_pos_as_xyz
  1  'x, y, z'
loop_
 _atom_site_type_symbol
 _atom_site_label
 _atom_site_symmetry_multiplicity
 _atom_site_fract_x
 _atom_site_fract_y
 _atom_site_fract_z
 _atom_site_occupancy
  Ca  Ca0  1  0.79563600  0.23362800  0.25198800  1
  Ca  Ca1  1  0.20436400  0.23362800  0.75198800  1
  La  La0  1  0.28922400  0.76594300  0.24694900  1
  La  La1  1  0.71077600  0.76594300  0.74694900  1
  Cr  Cr0  1  0.24988900  0.99965200  0.50091700  1
  Cr  Cr1  1  0.75011100  0.99965200  0.00091700  1
  W  W0  1  0.24933300  0.50038400  0.99968900  1
  W  W1  1  0.75066700  0.50038400  0.49968900  1
  O  O0  1  0.77861400  0.33599500  0.75265700  1
  O  O1  1  0.03489000  0.14964000  0.05220600  1
  O  O2  1  0.04343100  0.75248200  0.45500900  1
  O  O3  1  0.54617800  0.25124100  0.04658100  1
  O  O4  1  0.53788000  0.85549000  0.44547400  1
  O  O5  1  0.27351300  0.65554300  0.74853200  1
  O  O6  1  0.22138600  0.33599500  0.25265700  1
  O  O7  1  0.96511000  0.14964000  0.55220600  1
  O  O8  1  0.95656900  0.75248200  0.95500900  1
  O  O9  1  0.45382200  0.25124100  0.54658100  1
  O  O10  1  0.46212000  0.85549000  0.94547400  1
  O  O11  1  0.72648700  0.65554300  0.24853200  1
loop_
_geom_bond_atom_site_label_1
_geom_bond_atom_site_label_2
_geom_bond_distance
_geom_bond_site_symmetry_2
Ca0 O11 2.365455 1_555
Ca0 O4 2.370955 1_545
Ca0 O3 2.388518 1_555
Ca0 O6 2.503787 1_655
Ca0 O1 2.603356 1_655
Ca0 O2 2.658158 1_645
Ca0 O7 2.812693 1_555
Ca0 O8 2.823230 1_554
Ca1 O5 2.365455 1_555
Ca1 O10 2.370955 1_545
Ca1 O9 2.388518 1_555
Ca1 O0 2.503787 1_455
Ca1 O7 2.603356 1_455
Ca1 O8 2.658158 1_445
Ca1 O1 2.812693 1_556
Ca1 O2 2.823230 1_555
La0 O1 2.376112 1_565
La0 O6 2.396553 1_555
La0 O2 2.406617 1_555
La0 O11 2.575466 1_555
La0 O4 2.640493 1_555
La0 O3 2.696384 1_565
La0 O10 2.817998 1_554
La0 O9 2.830878 1_555
La1 O7 2.376112 1_565
La1 O0 2.396553 1_555
La1 O8 2.406617 1_555
La1 O5 2.575466 1_555
La1 O10 2.640493 1_555
La1 O9 2.696384 1_565
La1 O4 2.817998 1_555
La1 O3 2.830878 1_556
Cr0 O7 2.015801 1_465
Cr0 O4 2.032103 1_555
Cr0 O6 2.034783 1_565
Cr0 O5 2.040417 1_555
Cr0 O2 2.043105 1_555
Cr0 O9 2.053110 1_565
Cr1 O1 2.015801 1_665
Cr1 O10 2.032103 1_554
Cr1 O0 2.034783 1_564
Cr1 O11 2.040417 1_555
Cr1 O8 2.043105 1_554
Cr1 O3 2.053110 1_565
O0 W1 2.054959 1_555
O1 W0 2.112579 1_554
O2 W1 2.069361 1_455
O3 W0 2.075652 1_554
O4 W1 2.121701 1_555
O5 W0 2.049268 1_555
O6 W0 2.054959 1_554
O7 W1 2.112579 1_555
O8 W0 2.069361 1_655
O9 W1 2.075652 1_555
O10 W0 2.121701 1_555
O11 W1 2.049268 1_555
