# generated using pymatgen
data_DyFe5Bi4O15
_symmetry_space_group_name_H-M   'P 1'
_cell_length_a   5.60474800
_cell_length_b   5.69507802
_cell_length_c   20.29924461
_cell_angle_alpha   96.74271722
_cell_angle_beta   97.93469689
_cell_angle_gamma   89.99500995
_symmetry_Int_Tables_number   1
_chemical_formula_structural   DyFe5Bi4O15
_chemical_formula_sum   'Dy2 Fe10 Bi8 O30'
_cell_volume   637.21365899
_cell_formula_units_Z   2
loop_
 _symmetry_equiv_pos_site_id
 _symmetry_equiv_pos_as_xyz
  1  'x, y, z'
loop_
 _atom_site_type_symbol
 _atom_site_label
 _atom_site_symmetry_multiplicity
 _atom_site_fract_x
 _atom_site_fract_y
 _atom_site_fract_z
 _atom_site_occupancy
  Dy  Dy0  1  0.54866900  0.99472000  0.08989800  1
  Dy  Dy1  1  0.94656400  0.40102700  0.89176500  1
  Fe  Fe0  1  0.90377100  0.91112600  0.80454800  1
  Fe  Fe1  1  0.30141100  0.30756400  0.60183800  1
  Fe  Fe2  1  0.69943900  0.70690400  0.39983300  1
  Fe  Fe3  1  0.09892300  0.11008400  0.19884000  1
  Fe  Fe4  1  0.50072000  0.50564800  0.00207800  1
  Fe  Fe5  1  0.00325800  0.00395600  0.00138700  1
  Fe  Fe6  1  0.39958000  0.40528900  0.80402900  1
  Fe  Fe7  1  0.80126900  0.80695600  0.60182000  1
  Fe  Fe8  1  0.19922600  0.20596000  0.39999300  1
  Fe  Fe9  1  0.59870900  0.61024600  0.19920200  1
  Bi  Bi0  1  0.44872200  0.90008600  0.89234400  1
  Bi  Bi1  1  0.84783400  0.29538700  0.69182000  1
  Bi  Bi2  1  0.24664100  0.69176200  0.49012300  1
  Bi  Bi3  1  0.64391800  0.09896700  0.28902500  1
  Bi  Bi4  1  0.04149400  0.49964700  0.08874700  1
  Bi  Bi5  1  0.34655800  0.79675500  0.69142200  1
  Bi  Bi6  1  0.74284500  0.19190900  0.49017000  1
  Bi  Bi7  1  0.14158800  0.59715300  0.28917400  1
  O  O0  1  0.40412300  0.93570200  0.18761000  1
  O  O1  1  0.81104300  0.33187500  0.98982100  1
  O  O2  1  0.20903200  0.72856400  0.79605800  1
  O  O3  1  0.59461500  0.11628700  0.59430500  1
  O  O4  1  0.99830500  0.52291900  0.39250400  1
  O  O5  1  0.94725200  0.10509600  0.10355500  1
  O  O6  1  0.34980100  0.49526000  0.90715500  1
  O  O7  1  0.77640000  0.90007600  0.70669700  1
  O  O8  1  0.17341800  0.30094300  0.50383500  1
  O  O9  1  0.57157400  0.70726000  0.30217600  1
  O  O10  1  0.88700100  0.86379400  0.22291400  1
  O  O11  1  0.30727200  0.24647300  0.03214700  1
  O  O12  1  0.70557700  0.65235200  0.83370800  1
  O  O13  1  0.08518700  0.06369000  0.62566700  1
  O  O14  1  0.48782400  0.45843000  0.42352300  1
  O  O15  1  0.22852600  0.20160800  0.30258000  1
  O  O16  1  0.63348500  0.59610400  0.10378500  1
  O  O17  1  0.03701400  0.00291300  0.90630000  1
  O  O18  1  0.43169900  0.40578100  0.70696300  1
  O  O19  1  0.83023200  0.80079900  0.50379400  1
  O  O20  1  0.29367000  0.42547900  0.19279700  1
  O  O21  1  0.69845000  0.81796700  0.99456100  1
  O  O22  1  0.08682600  0.22888200  0.79484900  1
  O  O23  1  0.49873000  0.61726700  0.59415300  1
  O  O24  1  0.89204300  0.02371900  0.39258400  1
  O  O25  1  0.83587100  0.36381500  0.22443800  1
  O  O26  1  0.23609400  0.75471200  0.02660500  1
  O  O27  1  0.63225500  0.15670200  0.82844500  1
  O  O28  1  0.04095000  0.56325700  0.62582600  1
  O  O29  1  0.43526400  0.95849800  0.42392900  1
loop_
_geom_bond_atom_site_label_1
_geom_bond_atom_site_label_2
_geom_bond_distance
_geom_bond_site_symmetry_2
Dy0 O11 2.284056 1_565
Dy0 O5 2.291483 1_565
Dy0 O0 2.302985 1_555
Dy0 O21 2.335429 1_554
Dy0 O26 2.356862 1_555
Dy0 O16 2.360532 1_555
Dy1 O12 2.284330 1_555
Dy1 O6 2.293317 1_655
Dy1 O1 2.301199 1_555
Dy1 O22 2.328831 1_655
Dy1 O17 2.366484 1_655
Dy1 O27 2.376314 1_555
Fe0 O7 2.009514 1_555
Fe0 O2 2.019140 1_655
Fe0 O12 2.035408 1_555
Fe0 O17 2.101871 1_665
Fe0 O22 2.122726 1_665
Fe0 O27 2.133368 1_565
Fe1 O3 1.985079 1_555
Fe1 O13 1.987842 1_555
Fe1 O8 2.015459 1_555
Fe1 O23 2.114454 1_555
Fe1 O28 2.125571 1_555
Fe1 O18 2.165513 1_555
Fe2 O4 1.989418 1_555
Fe2 O14 1.989465 1_555
Fe2 O9 2.012976 1_555
Fe2 O29 2.125931 1_555
Fe2 O24 2.132828 1_565
Fe2 O19 2.141211 1_555
Fe3 O10 1.984568 1_445
Fe3 O5 1.999442 1_455
Fe3 O0 2.004619 1_545
Fe3 O20 2.126456 1_555
Fe3 O15 2.133987 1_555
Fe3 O25 2.136956 1_455
Fe4 O6 1.988730 1_554
Fe4 O11 2.030099 1_555
Fe4 O1 2.031692 1_554
Fe4 O16 2.099459 1_555
Fe4 O26 2.120683 1_555
Fe4 O21 2.127421 1_554
Fe5 O17 1.964589 1_554
Fe5 O21 1.990020 1_444
Fe5 O26 1.991429 1_545
Fe5 O5 2.151905 1_455
Fe5 O11 2.169095 1_555
Fe5 O1 2.176272 1_454
Fe6 O27 1.984074 1_555
Fe6 O22 1.995719 1_555
Fe6 O18 2.003493 1_555
Fe6 O2 2.139676 1_555
Fe6 O6 2.152202 1_555
Fe6 O12 2.190930 1_555
Fe7 O28 1.986464 1_655
Fe7 O23 1.988587 1_555
Fe7 O19 2.014918 1_555
Fe7 O3 2.117128 1_565
Fe7 O13 2.127406 1_665
Fe7 O7 2.156336 1_555
Fe8 O29 1.988821 1_545
Fe8 O24 1.989012 1_455
Fe8 O15 2.003966 1_555
Fe8 O14 2.130191 1_555
Fe8 O4 2.136929 1_455
Fe8 O8 2.138515 1_555
Fe9 O16 1.965611 1_555
Fe9 O20 1.988451 1_555
Fe9 O25 1.994853 1_555
Fe9 O9 2.124683 1_555
Fe9 O10 2.133083 1_555
Fe9 O0 2.170589 1_555
Bi0 O2 2.325100 1_555
Bi0 O12 2.357569 1_555
Bi0 O27 2.385417 1_565
Bi0 O17 2.426753 1_565
Bi0 O21 2.430851 1_555
Bi0 O6 2.433556 1_555
Bi1 O13 2.321841 1_655
Bi1 O7 2.348012 1_545
Bi1 O3 2.392371 1_555
Bi1 O22 2.392522 1_655
Bi1 O18 2.466137 1_555
Bi1 O28 2.484733 1_655
Bi2 O8 2.318839 1_555
Bi2 O14 2.345890 1_555
Bi2 O4 2.362185 1_455
Bi2 O23 2.454016 1_555
Bi2 O19 2.459198 1_455
Bi2 O29 2.470330 1_555
Bi3 O9 2.319921 1_545
Bi3 O10 2.352311 1_545
Bi3 O0 2.386574 1_545
Bi3 O24 2.437430 1_555
Bi3 O15 2.444715 1_555
Bi3 O25 2.450608 1_555
Bi4 O1 2.333952 1_454
Bi4 O5 2.370866 1_455
Bi4 O11 2.387694 1_555
Bi4 O26 2.387742 1_555
Bi4 O16 2.403638 1_455
Bi4 O20 2.454055 1_555
Bi5 O18 2.325576 1_555
Bi5 O28 2.330268 1_555
Bi5 O23 2.379441 1_555
Bi5 O2 2.429449 1_555
Bi5 O7 2.448995 1_555
Bi5 O13 2.484940 1_565
Bi6 O19 2.320507 1_545
Bi6 O29 2.342573 1_545
Bi6 O24 2.356360 1_555
Bi6 O3 2.458212 1_555
Bi6 O8 2.461975 1_655
Bi6 O14 2.474897 1_555
Bi7 O25 2.323231 1_455
Bi7 O15 2.343738 1_555
Bi7 O20 2.349674 1_555
Bi7 O4 2.428289 1_455
Bi7 O9 2.461013 1_555
Bi7 O10 2.469913 1_455
