# generated using pymatgen
data_Ac
_symmetry_space_group_name_H-M   'P 1'
_cell_length_a   8.09372624
_cell_length_b   8.09372512
_cell_length_c   20.12847055
_cell_angle_alpha   78.40153561
_cell_angle_beta   101.59846670
_cell_angle_gamma   119.99999542
_symmetry_Int_Tables_number   1
_chemical_formula_structural   Ac
_chemical_formula_sum   Ac24
_cell_volume   1110.72844941
_cell_formula_units_Z   24
loop_
 _symmetry_equiv_pos_site_id
 _symmetry_equiv_pos_as_xyz
  1  'x, y, z'
loop_
 _atom_site_type_symbol
 _atom_site_label
 _atom_site_symmetry_multiplicity
 _atom_site_fract_x
 _atom_site_fract_y
 _atom_site_fract_z
 _atom_site_occupancy
  Ac  Ac0_0  1  0.00000000  0.00000000  0.00000000  1
  Ac  Ac0_1  1  0.00000000  0.00000000  0.50000000  1
  Ac  Ac0_2  1  0.00000000  0.50000000  0.00000000  1
  Ac  Ac0_3  1  0.00000000  0.50000000  0.50000000  1
  Ac  Ac0_4  1  0.50000000  0.00000000  0.00000000  1
  Ac  Ac0_5  1  0.50000000  0.00000000  0.50000000  1
  Ac  Ac0_6  1  0.50000000  0.50000000  0.00000000  1
  Ac  Ac0_7  1  0.50000000  0.50000000  0.50000000  1
  Ac  Ac1_0  1  0.38867927  0.11131973  0.16603981  1
  Ac  Ac1_1  1  0.38867927  0.11131973  0.66603981  1
  Ac  Ac1_2  1  0.38867927  0.61131973  0.16603981  1
  Ac  Ac1_3  1  0.38867927  0.61131973  0.66603981  1
  Ac  Ac1_4  1  0.88867927  0.11131973  0.16603981  1
  Ac  Ac1_5  1  0.88867927  0.11131973  0.66603981  1
  Ac  Ac1_6  1  0.88867927  0.61131973  0.16603981  1
  Ac  Ac1_7  1  0.88867927  0.61131973  0.66603981  1
  Ac  Ac2_0  1  0.11132023  0.38867977  0.33396019  1
  Ac  Ac2_1  1  0.11132023  0.38867977  0.83396019  1
  Ac  Ac2_2  1  0.11132023  0.88867977  0.33396019  1
  Ac  Ac2_3  1  0.11132023  0.88867977  0.83396019  1
  Ac  Ac2_4  1  0.61132023  0.38867977  0.33396019  1
  Ac  Ac2_5  1  0.61132023  0.38867977  0.83396019  1
  Ac  Ac2_6  1  0.61132023  0.88867977  0.33396019  1
  Ac  Ac2_7  1  0.61132023  0.88867977  0.83396019  1
loop_
_geom_bond_atom_site_label_1
_geom_bond_atom_site_label_2
_geom_bond_distance
_geom_bond_site_symmetry_2
Ac0_0 Ac1_0 4.003351 1_555
Ac0_0 Ac2_1 4.003353 1_554
Ac0_0 Ac2_7 4.003353 1_444
Ac0_0 Ac2_3 4.003355 1_544
Ac0_0 Ac1_6 4.003355 1_445
Ac0_0 Ac1_4 4.003355 1_455
Ac0_0 Ac0_2 4.046863 1_555
Ac0_0 Ac0_2 4.046863 1_545
Ac0_0 Ac0_4 4.046863 1_555
Ac0_0 Ac0_4 4.046863 1_455
Ac0_0 Ac0_6 4.046863 1_445
Ac0_0 Ac0_6 4.046863 1_555
Ac0_1 Ac1_1 4.003351 1_555
Ac0_1 Ac2_0 4.003353 1_555
Ac0_1 Ac2_6 4.003353 1_445
Ac0_1 Ac2_2 4.003355 1_545
Ac0_1 Ac1_7 4.003355 1_445
Ac0_1 Ac1_5 4.003355 1_455
Ac0_1 Ac0_3 4.046863 1_555
Ac0_1 Ac0_3 4.046863 1_545
Ac0_1 Ac0_5 4.046863 1_455
Ac0_1 Ac0_7 4.046863 1_445
Ac0_1 Ac0_7 4.046863 1_555
Ac0_1 Ac0_5 4.046863 1_555
Ac0_2 Ac1_2 4.003351 1_555
Ac0_2 Ac2_3 4.003353 1_554
Ac0_2 Ac2_5 4.003353 1_454
Ac0_2 Ac2_1 4.003355 1_554
Ac0_2 Ac1_6 4.003355 1_455
Ac0_2 Ac1_4 4.003355 1_455
Ac0_2 Ac0_4 4.046863 1_455
Ac0_2 Ac0_6 4.046863 1_455
Ac0_2 Ac0_4 4.046863 1_565
Ac0_2 Ac0_6 4.046863 1_555
Ac0_3 Ac1_3 4.003351 1_555
Ac0_3 Ac2_2 4.003353 1_555
Ac0_3 Ac2_4 4.003353 1_455
Ac0_3 Ac2_0 4.003355 1_555
Ac0_3 Ac1_7 4.003355 1_455
Ac0_3 Ac1_5 4.003355 1_455
Ac0_3 Ac0_5 4.046863 1_455
Ac0_3 Ac0_7 4.046863 1_555
Ac0_3 Ac0_7 4.046863 1_455
Ac0_3 Ac0_5 4.046863 1_565
Ac0_4 Ac1_4 4.003351 1_555
Ac0_4 Ac2_5 4.003353 1_554
Ac0_4 Ac2_3 4.003353 1_544
Ac0_4 Ac2_7 4.003355 1_544
Ac0_4 Ac1_0 4.003355 1_555
Ac0_4 Ac1_2 4.003355 1_545
Ac0_4 Ac0_6 4.046863 1_555
Ac0_4 Ac0_6 4.046863 1_545
Ac0_5 Ac1_5 4.003351 1_555
Ac0_5 Ac2_4 4.003353 1_555
Ac0_5 Ac2_2 4.003353 1_545
Ac0_5 Ac2_6 4.003355 1_545
Ac0_5 Ac1_1 4.003355 1_555
Ac0_5 Ac1_3 4.003355 1_545
Ac0_5 Ac0_7 4.046863 1_545
Ac0_5 Ac0_7 4.046863 1_555
Ac0_6 Ac1_6 4.003351 1_555
Ac0_6 Ac2_7 4.003353 1_554
Ac0_6 Ac2_1 4.003353 1_554
Ac0_6 Ac2_5 4.003355 1_554
Ac0_6 Ac1_2 4.003355 1_555
Ac0_6 Ac1_0 4.003355 1_555
Ac0_7 Ac1_7 4.003351 1_555
Ac0_7 Ac2_6 4.003353 1_555
Ac0_7 Ac2_0 4.003353 1_555
Ac0_7 Ac2_4 4.003355 1_555
Ac0_7 Ac1_1 4.003355 1_555
Ac0_7 Ac1_3 4.003355 1_555
Ac1_0 Ac2_2 4.033306 1_545
Ac1_0 Ac2_4 4.033310 1_555
Ac1_0 Ac2_6 4.033312 1_545
Ac1_0 Ac1_2 4.046863 1_555
Ac1_0 Ac1_2 4.046863 1_545
Ac1_0 Ac1_4 4.046863 1_555
Ac1_0 Ac1_6 4.046863 1_445
Ac1_0 Ac1_4 4.046863 1_455
Ac1_0 Ac1_6 4.046863 1_555
Ac1_1 Ac2_3 4.033306 1_545
Ac1_1 Ac2_5 4.033310 1_555
Ac1_1 Ac2_7 4.033312 1_545
Ac1_1 Ac1_3 4.046863 1_545
Ac1_1 Ac1_3 4.046863 1_555
Ac1_1 Ac1_7 4.046863 1_445
Ac1_1 Ac1_5 4.046863 1_455
Ac1_1 Ac1_7 4.046863 1_555
Ac1_1 Ac1_5 4.046863 1_555
Ac1_2 Ac2_0 4.033306 1_555
Ac1_2 Ac2_6 4.033310 1_555
Ac1_2 Ac2_4 4.033312 1_555
Ac1_2 Ac1_4 4.046863 1_455
Ac1_2 Ac1_6 4.046863 1_555
Ac1_2 Ac1_6 4.046863 1_455
Ac1_2 Ac1_4 4.046863 1_565
Ac1_3 Ac2_1 4.033306 1_555
Ac1_3 Ac2_7 4.033310 1_555
Ac1_3 Ac2_5 4.033312 1_555
Ac1_3 Ac1_7 4.046863 1_455
Ac1_3 Ac1_5 4.046863 1_455
Ac1_3 Ac1_5 4.046863 1_565
Ac1_3 Ac1_7 4.046863 1_555
Ac1_4 Ac2_6 4.033306 1_545
Ac1_4 Ac2_0 4.033310 1_655
Ac1_4 Ac2_2 4.033312 1_645
Ac1_4 Ac1_6 4.046863 1_545
Ac1_4 Ac1_6 4.046863 1_555
Ac1_5 Ac2_7 4.033306 1_545
Ac1_5 Ac2_1 4.033310 1_655
Ac1_5 Ac2_3 4.033312 1_645
Ac1_5 Ac1_7 4.046863 1_545
Ac1_5 Ac1_7 4.046863 1_555
Ac1_6 Ac2_4 4.033306 1_555
Ac1_6 Ac2_2 4.033310 1_655
Ac1_6 Ac2_0 4.033312 1_655
Ac1_7 Ac2_5 4.033306 1_555
Ac1_7 Ac2_3 4.033310 1_655
Ac1_7 Ac2_1 4.033312 1_655
Ac2_0 Ac2_2 4.046863 1_555
Ac2_0 Ac2_2 4.046863 1_545
Ac2_0 Ac2_6 4.046863 1_445
Ac2_0 Ac2_4 4.046863 1_555
Ac2_0 Ac2_6 4.046863 1_555
Ac2_0 Ac2_4 4.046863 1_455
Ac2_1 Ac2_3 4.046863 1_555
Ac2_1 Ac2_3 4.046863 1_545
Ac2_1 Ac2_7 4.046863 1_555
Ac2_1 Ac2_5 4.046863 1_455
Ac2_1 Ac2_5 4.046863 1_555
Ac2_1 Ac2_7 4.046863 1_445
Ac2_2 Ac2_6 4.046863 1_555
Ac2_2 Ac2_4 4.046863 1_455
Ac2_2 Ac2_4 4.046863 1_565
Ac2_2 Ac2_6 4.046863 1_455
Ac2_3 Ac2_5 4.046863 1_455
Ac2_3 Ac2_7 4.046863 1_455
Ac2_3 Ac2_7 4.046863 1_555
Ac2_3 Ac2_5 4.046863 1_565
Ac2_4 Ac2_6 4.046863 1_545
Ac2_4 Ac2_6 4.046863 1_555
Ac2_5 Ac2_7 4.046863 1_555
Ac2_5 Ac2_7 4.046863 1_545
