# generated using pymatgen
data_Ba6Na2Ta2Mn2O17
_symmetry_space_group_name_H-M   'P 1'
_cell_length_a   5.98100365
_cell_length_b   5.98100365
_cell_length_c   30.38119500
_cell_angle_alpha   90.00000000
_cell_angle_beta   90.00000000
_cell_angle_gamma   119.99999613
_symmetry_Int_Tables_number   1
_chemical_formula_structural   Ba6Na2Ta2Mn2O17
_chemical_formula_sum   'Ba12 Na4 Ta4 Mn4 O34'
_cell_volume   941.20372158
_cell_formula_units_Z   2
loop_
 _symmetry_equiv_pos_site_id
 _symmetry_equiv_pos_as_xyz
  1  'x, y, z'
loop_
 _atom_site_type_symbol
 _atom_site_label
 _atom_site_symmetry_multiplicity
 _atom_site_fract_x
 _atom_site_fract_y
 _atom_site_fract_z
 _atom_site_occupancy
  Ba  Ba0  1  0.33333300  0.66666700  0.18026100  1
  Ba  Ba1  1  0.66666700  0.33333300  0.81973900  1
  Ba  Ba2  1  0.66666700  0.33333300  0.68026100  1
  Ba  Ba3  1  0.33333300  0.66666700  0.31973900  1
  Ba  Ba4  1  0.00000000  0.00000000  0.00000000  1
  Ba  Ba5  1  0.00000000  0.00000000  0.50000000  1
  Ba  Ba6  1  0.33333300  0.66666700  0.59014900  1
  Ba  Ba7  1  0.66666700  0.33333300  0.40985100  1
  Ba  Ba8  1  0.66666700  0.33333300  0.09014900  1
  Ba  Ba9  1  0.33333300  0.66666700  0.90985100  1
  Ba  Ba10  1  0.00000000  0.00000000  0.25000000  1
  Ba  Ba11  1  0.00000000  0.00000000  0.75000000  1
  Na  Na0  1  0.00000000  0.00000000  0.12490700  1
  Na  Na1  1  0.00000000  0.00000000  0.87509300  1
  Na  Na2  1  0.00000000  0.00000000  0.62490700  1
  Na  Na3  1  0.00000000  0.00000000  0.37509300  1
  Ta  Ta0  1  0.33333300  0.66666700  0.70167700  1
  Ta  Ta1  1  0.66666700  0.33333300  0.29832300  1
  Ta  Ta2  1  0.66666700  0.33333300  0.20167700  1
  Ta  Ta3  1  0.33333300  0.66666700  0.79832300  1
  Mn  Mn0  1  0.33333300  0.66666700  0.05202900  1
  Mn  Mn1  1  0.66666700  0.33333300  0.94797100  1
  Mn  Mn2  1  0.66666700  0.33333300  0.55202900  1
  Mn  Mn3  1  0.33333300  0.66666700  0.44797100  1
  O  O0  1  0.33333300  0.66666700  0.50384300  1
  O  O1  1  0.66666700  0.33333300  0.49615700  1
  O  O2  1  0.66666700  0.33333300  0.00384300  1
  O  O3  1  0.33333300  0.66666700  0.99615700  1
  O  O4  1  0.17490700  0.34981400  0.66980000  1
  O  O5  1  0.82509300  0.65018600  0.33020000  1
  O  O6  1  0.65018600  0.82509300  0.66980000  1
  O  O7  1  0.82509300  0.65018600  0.16980000  1
  O  O8  1  0.34981400  0.17490700  0.33020000  1
  O  O9  1  0.17490700  0.34981400  0.83020000  1
  O  O10  1  0.17490700  0.82509300  0.66980000  1
  O  O11  1  0.34981400  0.17490700  0.16980000  1
  O  O12  1  0.82509300  0.17490700  0.33020000  1
  O  O13  1  0.65018600  0.82509300  0.83020000  1
  O  O14  1  0.82509300  0.17490700  0.16980000  1
  O  O15  1  0.17490700  0.82509300  0.83020000  1
  O  O16  1  0.51551000  0.03102000  0.25000000  1
  O  O17  1  0.48449000  0.96898000  0.75000000  1
  O  O18  1  0.96898000  0.48449000  0.25000000  1
  O  O19  1  0.03102000  0.51551000  0.75000000  1
  O  O20  1  0.51551000  0.48449000  0.25000000  1
  O  O21  1  0.48449000  0.51551000  0.75000000  1
  O  O22  1  0.17760500  0.35521000  0.07250600  1
  O  O23  1  0.82239500  0.64479000  0.92749400  1
  O  O24  1  0.64479000  0.82239500  0.07250600  1
  O  O25  1  0.82239500  0.64479000  0.57250600  1
  O  O26  1  0.35521000  0.17760500  0.92749400  1
  O  O27  1  0.17760500  0.35521000  0.42749400  1
  O  O28  1  0.17760500  0.82239500  0.07250600  1
  O  O29  1  0.35521000  0.17760500  0.57250600  1
  O  O30  1  0.82239500  0.17760500  0.92749400  1
  O  O31  1  0.64479000  0.82239500  0.42749400  1
  O  O32  1  0.82239500  0.17760500  0.57250600  1
  O  O33  1  0.17760500  0.82239500  0.42749400  1
loop_
_geom_bond_atom_site_label_1
_geom_bond_atom_site_label_2
_geom_bond_distance
_geom_bond_site_symmetry_2
Ba0 O18 2.837392 1_455
Ba0 O16 2.837392 1_565
Ba0 O20 2.837395 1_555
Ba0 O11 3.008551 1_565
Ba0 O7 3.008551 1_455
Ba0 O14 3.008554 1_565
Ba0 O14 3.008554 1_455
Ba0 O11 3.008557 1_555
Ba0 O7 3.008557 1_555
Ba1 O17 2.837392 1_545
Ba1 O19 2.837392 1_655
Ba1 O21 2.837395 1_555
Ba1 O13 3.008551 1_545
Ba1 O9 3.008551 1_655
Ba1 O15 3.008554 1_655
Ba1 O15 3.008554 1_545
Ba1 O9 3.008557 1_555
Ba1 O13 3.008557 1_555
Ba2 O17 2.837392 1_545
Ba2 O19 2.837392 1_655
Ba2 O21 2.837395 1_555
Ba2 O4 3.008551 1_655
Ba2 O6 3.008551 1_545
Ba2 O10 3.008554 1_655
Ba2 O10 3.008554 1_545
Ba2 O4 3.008557 1_555
Ba2 O6 3.008557 1_555
Ba3 O18 2.837392 1_455
Ba3 O16 2.837392 1_565
Ba3 O20 2.837395 1_555
Ba3 O8 3.008551 1_565
Ba3 O5 3.008551 1_455
Ba3 O12 3.008554 1_565
Ba3 O12 3.008554 1_455
Ba3 O8 3.008557 1_555
Ba3 O5 3.008557 1_555
Ba4 O28 2.870118 1_545
Ba4 O30 2.870118 1_454
Ba4 O24 2.870118 1_445
Ba4 O22 2.870118 1_555
Ba4 O23 2.870118 1_444
Ba4 O26 2.870118 1_554
Ba5 O32 2.870118 1_455
Ba5 O33 2.870118 1_545
Ba5 O25 2.870118 1_445
Ba5 O29 2.870118 1_555
Ba5 O31 2.870118 1_445
Ba5 O27 2.870118 1_555
Ba6 O0 2.622079 1_555
Ba6 O10 2.923938 1_555
Ba6 O6 2.923941 1_555
Ba6 O4 2.923941 1_555
Ba6 O29 3.040269 1_565
Ba6 O25 3.040269 1_455
Ba6 O32 3.040272 1_565
Ba6 O32 3.040272 1_455
Ba6 O25 3.040275 1_555
Ba6 O29 3.040275 1_555
Ba7 O1 2.622079 1_555
Ba7 O12 2.923938 1_555
Ba7 O5 2.923941 1_555
Ba7 O8 2.923941 1_555
Ba7 O27 3.040269 1_655
Ba7 O31 3.040269 1_545
Ba7 O33 3.040272 1_655
Ba7 O33 3.040272 1_545
Ba7 O31 3.040275 1_555
Ba7 O27 3.040275 1_555
Ba8 O2 2.622079 1_555
Ba8 O14 2.923938 1_555
Ba8 O7 2.923941 1_555
Ba8 O11 2.923941 1_555
Ba8 O22 3.040269 1_655
Ba8 O24 3.040269 1_545
Ba8 O28 3.040272 1_655
Ba8 O28 3.040272 1_545
Ba8 O24 3.040275 1_555
Ba8 O22 3.040275 1_555
Ba9 O3 2.622079 1_555
Ba9 O15 2.923938 1_555
Ba9 O13 2.923941 1_555
Ba9 O9 2.923941 1_555
Ba9 O26 3.040269 1_565
Ba9 O23 3.040269 1_455
Ba9 O30 3.040272 1_565
Ba9 O30 3.040272 1_455
Ba9 O23 3.040275 1_555
Ba9 O26 3.040275 1_555
Ba10 O18 2.994815 1_455
Ba10 O16 2.994815 1_455
Ba10 O18 2.994815 1_445
Ba10 O16 2.994815 1_555
Ba10 O20 2.994815 1_445
Ba10 O20 2.994815 1_555
Ba10 O14 3.036442 1_455
Ba10 O12 3.036442 1_455
Ba10 O11 3.036442 1_555
Ba10 O8 3.036442 1_555
Ba10 O5 3.036442 1_445
Ba10 O7 3.036442 1_445
Ba11 O19 2.994815 1_545
Ba11 O17 2.994815 1_545
Ba11 O17 2.994815 1_445
Ba11 O19 2.994815 1_555
Ba11 O21 2.994815 1_445
Ba11 O21 2.994815 1_555
Ba11 O10 3.036442 1_545
Ba11 O15 3.036442 1_545
Ba11 O4 3.036442 1_555
Ba11 O9 3.036442 1_555
Ba11 O6 3.036442 1_445
Ba11 O13 3.036442 1_445
Na0 O14 2.267891 1_455
Na0 O11 2.267891 1_555
Na0 O7 2.267891 1_445
Na0 O28 2.433032 1_545
Na0 O24 2.433032 1_445
Na0 O22 2.433032 1_555
Na1 O15 2.267891 1_545
Na1 O9 2.267891 1_555
Na1 O13 2.267891 1_445
Na1 O30 2.433032 1_455
Na1 O23 2.433032 1_445
Na1 O26 2.433032 1_555
Na2 O10 2.267891 1_545
Na2 O4 2.267891 1_555
Na2 O6 2.267891 1_445
Na2 O32 2.433032 1_455
Na2 O25 2.433032 1_445
Na2 O29 2.433032 1_555
Na3 O12 2.267891 1_455
Na3 O8 2.267891 1_555
Na3 O5 2.267891 1_445
Na3 O33 2.433032 1_545
Na3 O31 2.433032 1_445
Na3 O27 2.433032 1_555
Mn0 O3 1.697458 1_554
Mn0 O28 1.729046 1_555
Mn0 O22 1.729051 1_555
Mn0 O24 1.729051 1_555
Mn1 O2 1.697458 1_556
Mn1 O30 1.729046 1_555
Mn1 O26 1.729051 1_555
Mn1 O23 1.729051 1_555
Mn2 O1 1.697458 1_555
Mn2 O32 1.729046 1_555
Mn2 O29 1.729051 1_555
Mn2 O25 1.729051 1_555
Mn3 O0 1.697458 1_555
Mn3 O33 1.729046 1_555
Mn3 O27 1.729051 1_555
Mn3 O31 1.729051 1_555
O4 Ta0 1.905641 1_555
O5 Ta1 1.905641 1_555
O6 Ta0 1.905641 1_555
O7 Ta2 1.905641 1_555
O8 Ta1 1.905641 1_555
O9 Ta3 1.905641 1_555
O10 Ta0 1.905636 1_555
O11 Ta2 1.905641 1_555
O12 Ta1 1.905636 1_555
O13 Ta3 1.905641 1_555
O14 Ta2 1.905636 1_555
O15 Ta3 1.905636 1_555
O16 Ta2 2.146477 1_555
O16 Ta1 2.146477 1_555
O17 Ta0 2.146477 1_555
O17 Ta3 2.146477 1_555
O18 Ta2 2.146477 1_555
O18 Ta1 2.146477 1_555
O19 Ta0 2.146477 1_555
O19 Ta3 2.146477 1_555
O20 Ta2 2.146481 1_555
O20 Ta1 2.146481 1_555
O21 Ta3 2.146481 1_555
O21 Ta0 2.146481 1_555
