# generated using pymatgen
data_Hf2Ga3Cu
_symmetry_space_group_name_H-M   'P 1'
_cell_length_a   5.31663379
_cell_length_b   5.31663379
_cell_length_c   6.45631704
_cell_angle_alpha   52.78614552
_cell_angle_beta   52.78614552
_cell_angle_gamma   45.10894154
_symmetry_Int_Tables_number   1
_chemical_formula_structural   Hf2Ga3Cu
_chemical_formula_sum   'Hf2 Ga3 Cu1'
_cell_volume   97.70928945
_cell_formula_units_Z   1
loop_
 _symmetry_equiv_pos_site_id
 _symmetry_equiv_pos_as_xyz
  1  'x, y, z'
loop_
 _atom_site_type_symbol
 _atom_site_label
 _atom_site_symmetry_multiplicity
 _atom_site_fract_x
 _atom_site_fract_y
 _atom_site_fract_z
 _atom_site_occupancy
  Hf  Hf0  1  0.45550418  0.45550418  0.80157739  1
  Hf  Hf1  1  0.54780134  0.54780134  0.20455586  1
  Ga  Ga0  1  0.14825825  0.14825825  0.38778967  1
  Ga  Ga1  1  0.17321607  0.17321607  0.79060187  1
  Ga  Ga2  1  0.84081121  0.84081121  0.20545080  1
  Cu  Cu0  1  0.83440895  0.83440895  0.61002542  1
loop_
_geom_bond_atom_site_label_1
_geom_bond_atom_site_label_2
_geom_bond_distance
_geom_bond_site_symmetry_2
Hf0 Hf1 3.267903 1_556
Hf0 Hf1 3.332166 1_555
Ga0 Ga2 2.490845 1_455
Ga0 Ga2 2.490845 1_545
Ga0 Ga1 2.767390 1_555
Ga0 Hf1 2.838974 1_545
Ga0 Hf1 2.838974 1_455
Ga0 Hf0 2.873214 1_545
Ga0 Hf0 2.873214 1_455
Ga0 Hf0 2.910541 1_554
Ga1 Ga2 2.525439 1_446
Ga1 Hf0 2.818980 1_555
Ga1 Hf1 2.916697 1_456
Ga1 Hf1 2.916697 1_546
Ga1 Hf0 2.921626 1_455
Ga1 Hf0 2.921626 1_545
Ga1 Hf1 3.101269 1_555
Ga2 Hf1 2.876603 1_565
Ga2 Hf1 2.876603 1_655
Ga2 Hf1 2.881140 1_555
Ga2 Hf0 2.894786 1_654
Ga2 Hf0 2.894786 1_564
Ga2 Hf0 3.171116 1_555
Cu0 Ga1 2.367764 1_655
Cu0 Ga1 2.367764 1_565
Cu0 Ga0 2.401145 1_665
Cu0 Ga2 2.571329 1_555
Cu0 Hf1 2.866680 1_565
Cu0 Hf1 2.866680 1_655
Cu0 Hf1 2.916411 1_556
Cu0 Hf0 3.004718 1_655
Cu0 Hf0 3.004718 1_565
Cu0 Hf0 3.057300 1_555
