# generated using pymatgen
data_K3Bi2I9
_symmetry_space_group_name_H-M   'P 1'
_cell_length_a   8.53750336
_cell_length_b   8.53750336
_cell_length_c   21.34262326
_cell_angle_alpha   86.99150076
_cell_angle_beta   86.99150076
_cell_angle_gamma   122.27439986
_symmetry_Int_Tables_number   1
_chemical_formula_structural   K3Bi2I9
_chemical_formula_sum   'K6 Bi4 I18'
_cell_volume   1307.49827133
_cell_formula_units_Z   2
loop_
 _symmetry_equiv_pos_site_id
 _symmetry_equiv_pos_as_xyz
  1  'x, y, z'
loop_
 _atom_site_type_symbol
 _atom_site_label
 _atom_site_symmetry_multiplicity
 _atom_site_fract_x
 _atom_site_fract_y
 _atom_site_fract_z
 _atom_site_occupancy
  K  K0  1  0.95042956  0.04957044  0.25000000  1
  K  K1  1  0.70430660  0.25148013  0.56565986  1
  K  K2  1  0.04957044  0.95042956  0.75000000  1
  K  K3  1  0.25148013  0.70430660  0.06565986  1
  K  K4  1  0.29569340  0.74851987  0.43434014  1
  K  K5  1  0.74851987  0.29569340  0.93434014  1
  Bi  Bi0  1  0.61370704  0.28768123  0.15596723  1
  Bi  Bi1  1  0.38629296  0.71231877  0.84403277  1
  Bi  Bi2  1  0.28768123  0.61370704  0.65596723  1
  Bi  Bi3  1  0.71231877  0.38629296  0.34403277  1
  I  I0  1  0.58709061  0.76879015  0.55110885  1
  I  I1  1  0.41290939  0.23120985  0.44889115  1
  I  I2  1  0.50107539  -0.00548739  0.28211150  1
  I  I3  1  0.27707919  0.94276528  0.91457159  1
  I  I4  1  0.94276528  0.27707919  0.41457159  1
  I  I5  1  0.76879015  0.58709061  0.05110885  1
  I  I6  1  0.72292081  0.05723472  0.08542841  1
  I  I7  1  0.23050036  0.08803889  0.11402106  1
  I  I8  1  0.49892461  0.00548739  0.71788850  1
  I  I9  1  0.00548739  0.49892461  0.21788850  1
  I  I10  1  0.05723472  0.72292081  0.58542841  1
  I  I11  1  -0.00548739  0.50107539  0.78211150  1
  I  I12  1  0.50156537  0.49843463  0.25000000  1
  I  I13  1  0.91196111  0.76949964  0.38597894  1
  I  I14  1  0.08803889  0.23050036  0.61402106  1
  I  I15  1  0.76949964  0.91196111  0.88597894  1
  I  I16  1  0.49843463  0.50156537  0.75000000  1
  I  I17  1  0.23120985  0.41290939  0.94889115  1
loop_
_geom_bond_atom_site_label_1
_geom_bond_atom_site_label_2
_geom_bond_distance
_geom_bond_site_symmetry_2
Bi0 I5 2.961368 1_555
Bi0 I7 2.987061 1_555
Bi0 I6 3.021484 1_555
Bi0 I12 3.193572 1_555
Bi0 I9 3.234021 1_655
Bi0 I2 3.299713 1_555
Bi1 I17 2.961368 1_555
Bi1 I15 2.987061 1_555
Bi1 I3 3.021484 1_555
Bi1 I16 3.193572 1_555
Bi1 I11 3.234021 1_555
Bi1 I8 3.299713 1_565
Bi2 I0 2.961368 1_555
Bi2 I14 2.987061 1_555
Bi2 I10 3.021484 1_555
Bi2 I16 3.193572 1_555
Bi2 I8 3.234021 1_565
Bi2 I11 3.299713 1_555
Bi3 I1 2.961368 1_555
Bi3 I13 2.987061 1_555
Bi3 I4 3.021484 1_555
Bi3 I12 3.193572 1_555
Bi3 I2 3.234021 1_555
Bi3 I9 3.299713 1_655
I0 K4 3.558963 1_555
I0 K1 3.720623 1_565
I1 K1 3.558963 1_555
I1 K4 3.720623 1_545
I2 K4 3.576873 1_545
I2 K0 3.629420 1_555
I3 K5 3.580083 1_565
I3 K3 3.654086 1_556
I4 K4 3.580083 1_655
I4 K1 3.654086 1_555
I5 K5 3.558963 1_554
I5 K3 3.720623 1_655
I6 K3 3.580083 1_545
I6 K5 3.654086 1_554
I7 K0 3.546913 1_455
I7 K3 3.576671 1_545
I8 K1 3.576873 1_555
I8 K2 3.629420 1_545
I9 K3 3.576873 1_555
I9 K0 3.629420 1_455
I10 K1 3.580083 1_455
I10 K4 3.654086 1_555
I11 K5 3.576873 1_455
I11 K2 3.629420 1_555
I13 K0 3.546913 1_565
I13 K4 3.576671 1_655
I14 K2 3.546913 1_545
I14 K1 3.576671 1_455
I15 K2 3.546913 1_655
I15 K5 3.576671 1_565
I17 K3 3.558963 1_556
I17 K5 3.720623 1_455
