# generated using pymatgen
data_Pm3Sc
_symmetry_space_group_name_H-M   'P 1'
_cell_length_a   6.10657219
_cell_length_b   6.10657219
_cell_length_c   6.10657219
_cell_angle_alpha   130.92065585
_cell_angle_beta   130.92065585
_cell_angle_gamma   71.93917059
_symmetry_Int_Tables_number   1
_chemical_formula_structural   Pm3Sc
_chemical_formula_sum   'Pm3 Sc1'
_cell_volume   127.15982592
_cell_formula_units_Z   1
loop_
 _symmetry_equiv_pos_site_id
 _symmetry_equiv_pos_as_xyz
  1  'x, y, z'
loop_
 _atom_site_type_symbol
 _atom_site_label
 _atom_site_symmetry_multiplicity
 _atom_site_fract_x
 _atom_site_fract_y
 _atom_site_fract_z
 _atom_site_occupancy
  Pm  Pm0  1  0.75000000  0.25000000  0.50000000  1
  Pm  Pm1  1  0.25000000  0.75000000  0.50000000  1
  Pm  Pm2  1  0.50000000  0.50000000  0.00000000  1
  Sc  Sc0  1  0.00000000  0.00000000  0.00000000  1
loop_
_geom_bond_atom_site_label_1
_geom_bond_atom_site_label_2
_geom_bond_distance
_geom_bond_site_symmetry_2
Pm0 Pm2 3.541005 1_556
Pm0 Sc0 3.541005 1_656
Pm0 Sc0 3.541005 1_666
Pm0 Pm2 3.541005 1_555
Pm0 Pm2 3.541005 1_656
Pm0 Sc0 3.541005 1_555
Pm0 Sc0 3.541005 1_655
Pm0 Pm2 3.541005 1_545
Pm0 Pm1 3.586730 1_555
Pm0 Pm1 3.586730 1_544
Pm0 Pm1 3.586730 1_656
Pm0 Pm1 3.586730 1_645
Pm1 Sc0 3.541005 1_566
Pm1 Pm2 3.541005 1_455
Pm1 Pm2 3.541005 1_566
Pm1 Pm2 3.541005 1_556
Pm1 Sc0 3.541005 1_666
Pm1 Pm2 3.541005 1_555
Pm1 Sc0 3.541005 1_565
Pm1 Sc0 3.541005 1_555
Pm2 Sc0 3.586730 1_554
Pm2 Sc0 3.586730 1_666
Pm2 Sc0 3.586730 1_565
Pm2 Sc0 3.586730 1_655
