# generated using pymatgen
data_K2MgZn4P4(HO8)2
_symmetry_space_group_name_H-M   'P 1'
_cell_length_a   5.42188011
_cell_length_b   9.15435799
_cell_length_c   9.61216005
_cell_angle_alpha   97.08706384
_cell_angle_beta   101.63358438
_cell_angle_gamma   108.44764856
_symmetry_Int_Tables_number   1
_chemical_formula_structural   K2MgZn4P4(HO8)2
_chemical_formula_sum   'K2 Mg1 Zn4 P4 H2 O16'
_cell_volume   434.18600495
_cell_formula_units_Z   1
loop_
 _symmetry_equiv_pos_site_id
 _symmetry_equiv_pos_as_xyz
  1  'x, y, z'
loop_
 _atom_site_type_symbol
 _atom_site_label
 _atom_site_symmetry_multiplicity
 _atom_site_fract_x
 _atom_site_fract_y
 _atom_site_fract_z
 _atom_site_occupancy
  K  K0  1  0.40513588  0.68168717  0.68917890  1
  K  K1  1  0.59486412  0.31831283  0.31082110  1
  Mg  Mg0  1  0.50000000  0.00000000  0.50000000  1
  Zn  Zn0  1  0.21678421  0.61623291  0.22994286  1
  Zn  Zn1  1  0.78321579  0.38376709  0.77005714  1
  Zn  Zn2  1  0.68985072  0.88808942  0.11141364  1
  Zn  Zn3  1  0.31014928  0.11191058  0.88858636  1
  P  P0  1  0.08631337  0.75797398  0.94826224  1
  P  P1  1  0.91368663  0.24202602  0.05173776  1
  P  P2  1  0.84246835  0.74399757  0.39012609  1
  P  P3  1  0.15753165  0.25600243  0.60987391  1
  H  H0  1  0.96958228  0.91377934  0.60052090  1
  H  H1  1  0.03041772  0.08622066  0.39947910  1
  O  O0  1  0.97687163  0.40032255  0.15297130  1
  O  O1  1  0.02312837  0.59967745  0.84702870  1
  O  O2  1  0.29124802  0.76611091  0.09670241  1
  O  O3  1  0.70875198  0.23388909  0.90329759  1
  O  O4  1  0.75248522  0.11098272  0.12030129  1
  O  O5  1  0.24751478  0.88901728  0.87969871  1
  O  O6  1  0.82664151  0.77728824  0.97508451  1
  O  O7  1  0.17335749  0.22271176  0.02491549  1
  O  O8  1  0.57081437  0.61047695  0.32629779  1
  O  O9  1  0.42918563  0.38952305  0.67370221  1
  O  O10  1  0.87234913  0.88765282  0.31579453  1
  O  O11  1  0.12765087  0.11234718  0.68420547  1
  O  O12  1  0.07446054  0.68051489  0.39276310  1
  O  O13  1  0.92553946  0.31948511  0.60723690  1
  O  O14  1  0.85125750  0.80160893  0.55676362  1
  O  O15  1  0.14874250  0.19839107  0.44323638  1
loop_
_geom_bond_atom_site_label_1
_geom_bond_atom_site_label_2
_geom_bond_distance
_geom_bond_site_symmetry_2
K0 O9 2.706076 1_555
K0 O1 2.778493 1_555
K0 O5 2.913141 1_555
K0 O14 2.929464 1_555
K0 O6 3.024725 1_555
K0 O12 3.041801 1_555
K1 O8 2.706076 1_555
K1 O0 2.778493 1_555
K1 O4 2.913141 1_555
K1 O15 2.929464 1_555
K1 O7 3.024728 1_555
K1 O13 3.041801 1_555
H0 O14 1.005279 1_555
H1 O15 1.005279 1_555
O0 P1 1.538688 1_555
O0 Zn0 1.941633 1_655
O1 P0 1.538688 1_555
O1 Zn1 1.941633 1_455
O2 P0 1.599376 1_554
O2 Zn0 1.994321 1_555
O2 Zn2 2.061080 1_555
O3 P1 1.599376 1_556
O3 Zn1 1.994321 1_555
O3 Zn3 2.061080 1_555
O4 P1 1.549566 1_555
O4 Zn2 1.947508 1_545
O5 P0 1.549566 1_555
O5 Zn3 1.947508 1_565
O6 P0 1.540335 1_655
O6 Zn2 1.958616 1_556
O7 P1 1.540330 1_455
O7 Zn3 1.958620 1_554
O8 P2 1.533276 1_555
O8 Zn0 1.975893 1_555
O9 P3 1.533276 1_555
O9 Zn1 1.975893 1_555
O10 P2 1.552369 1_555
O10 Zn2 2.014692 1_555
O11 P3 1.552369 1_555
O11 Zn3 2.014692 1_555
O12 P2 1.540751 1_455
O12 Zn0 1.984525 1_555
O13 P3 1.540751 1_655
O13 Zn1 1.984525 1_555
O14 P2 1.609619 1_555
O15 P3 1.609619 1_555
