# generated using pymatgen
data_CeMg14Ga
_symmetry_space_group_name_H-M   'P 1'
_cell_length_a   6.37228323
_cell_length_b   6.37228270
_cell_length_c   10.13738374
_cell_angle_alpha   90.00000000
_cell_angle_beta   90.00000000
_cell_angle_gamma   120.00000269
_symmetry_Int_Tables_number   1
_chemical_formula_structural   CeMg14Ga
_chemical_formula_sum   'Ce1 Mg14 Ga1'
_cell_volume   356.48939263
_cell_formula_units_Z   1
loop_
 _symmetry_equiv_pos_site_id
 _symmetry_equiv_pos_as_xyz
  1  'x, y, z'
loop_
 _atom_site_type_symbol
 _atom_site_label
 _atom_site_symmetry_multiplicity
 _atom_site_fract_x
 _atom_site_fract_y
 _atom_site_fract_z
 _atom_site_occupancy
  Ce  Ce0  1  0.16666700  0.33333300  0.12500000  1
  Mg  Mg0  1  0.18142288  0.84071094  0.12500000  1
  Mg  Mg1  1  0.16013744  0.83006822  0.62500000  1
  Mg  Mg2  1  0.65928906  0.31857712  0.12500000  1
  Mg  Mg3  1  0.66993178  0.33986256  0.62500000  1
  Mg  Mg4  1  0.65928906  0.84071094  0.12500000  1
  Mg  Mg5  1  0.66993178  0.83006822  0.62500000  1
  Mg  Mg6  1  0.33269673  0.16730327  0.38498902  1
  Mg  Mg7  1  0.33269673  0.16730327  0.86501098  1
  Mg  Mg8  1  0.33269673  0.66539445  0.38498902  1
  Mg  Mg9  1  0.33269673  0.66539445  0.86501098  1
  Mg  Mg10  1  0.83460555  0.16730327  0.38498902  1
  Mg  Mg11  1  0.83460555  0.16730327  0.86501098  1
  Mg  Mg12  1  0.83333300  0.66666700  0.36189807  1
  Mg  Mg13  1  0.83333300  0.66666700  0.88810193  1
  Ga  Ga0  1  0.16666700  0.33333300  0.62500000  1
loop_
_geom_bond_atom_site_label_1
_geom_bond_atom_site_label_2
_geom_bond_distance
_geom_bond_site_symmetry_2
Ce0 Mg0 3.187182 1_555
Ce0 Mg4 3.187182 1_555
Ce0 Mg0 3.187182 1_545
Ce0 Mg4 3.187182 1_445
Ce0 Mg2 3.187182 1_555
Ce0 Mg2 3.187182 1_455
Ce0 Mg6 3.210055 1_555
Ce0 Mg7 3.210055 1_554
Ce0 Mg9 3.210061 1_554
Ce0 Mg8 3.210061 1_555
Ce0 Mg10 3.210061 1_455
Ce0 Mg11 3.210061 1_454
Mg0 Mg2 3.045098 1_565
Mg0 Mg4 3.045099 1_555
Mg0 Mg13 3.075288 1_454
Mg0 Mg12 3.075288 1_455
Mg0 Mg8 3.193840 1_555
Mg0 Mg9 3.193840 1_554
Mg0 Mg6 3.193846 1_565
Mg0 Mg7 3.193846 1_564
Mg0 Mg2 3.327184 1_455
Mg0 Mg4 3.327185 1_455
Mg1 Mg8 3.063331 1_555
Mg1 Mg9 3.063331 1_555
Mg1 Mg7 3.063338 1_565
Mg1 Mg6 3.063338 1_565
Mg1 Mg3 3.123729 1_455
Mg1 Mg5 3.123729 1_455
Mg1 Mg12 3.219681 1_455
Mg1 Mg13 3.219681 1_455
Mg1 Mg3 3.248554 1_565
Mg1 Mg5 3.248554 1_555
Mg2 Mg4 3.045098 1_545
Mg2 Mg7 3.193846 1_554
Mg2 Mg6 3.193846 1_555
Mg2 Mg4 3.327184 1_555
Mg3 Mg6 3.063338 1_555
Mg3 Mg7 3.063338 1_555
Mg3 Mg5 3.123729 1_555
Mg3 Mg5 3.248554 1_545
Mg4 Mg9 3.193846 1_554
Mg4 Mg8 3.193846 1_555
Mg5 Mg8 3.063338 1_555
Mg5 Mg9 3.063338 1_555
Mg6 Mg8 3.173978 1_555
Mg6 Mg8 3.198305 1_545
Mg7 Mg9 3.173978 1_555
Mg7 Mg9 3.198305 1_545
Mg10 Mg3 3.063331 1_555
Mg10 Mg5 3.063338 1_545
Mg10 Mg8 3.173978 1_655
Mg10 Mg6 3.173978 1_655
Mg10 Mg2 3.193840 1_555
Mg10 Mg4 3.193846 1_545
Mg10 Mg12 3.194736 1_545
Mg10 Mg12 3.194736 1_555
Mg10 Mg8 3.198305 1_545
Mg10 Mg6 3.198305 1_555
Mg11 Mg3 3.063331 1_555
Mg11 Mg5 3.063338 1_545
Mg11 Mg9 3.173978 1_655
Mg11 Mg7 3.173978 1_655
Mg11 Mg2 3.193840 1_556
Mg11 Mg4 3.193846 1_546
Mg11 Mg13 3.194736 1_545
Mg11 Mg13 3.194736 1_555
Mg11 Mg9 3.198305 1_545
Mg11 Mg7 3.198305 1_555
Mg12 Mg4 3.075281 1_555
Mg12 Mg2 3.075288 1_555
Mg12 Mg6 3.194736 1_665
Mg12 Mg6 3.194736 1_555
Mg12 Mg8 3.194737 1_555
Mg12 Mg8 3.194737 1_655
Mg12 Mg5 3.219675 1_555
Mg12 Mg3 3.219681 1_555
Mg13 Mg4 3.075281 1_556
Mg13 Mg2 3.075288 1_556
Mg13 Mg7 3.194736 1_665
Mg13 Mg7 3.194736 1_555
Mg13 Mg9 3.194737 1_555
Mg13 Mg9 3.194737 1_655
Mg13 Mg5 3.219675 1_555
Mg13 Mg3 3.219681 1_555
Ga0 Mg6 3.045967 1_555
Ga0 Mg7 3.045967 1_555
Ga0 Mg8 3.045973 1_555
Ga0 Mg9 3.045973 1_555
Ga0 Mg10 3.045973 1_455
Ga0 Mg11 3.045973 1_455
Ga0 Mg1 3.186345 1_545
Ga0 Mg5 3.186345 1_445
Ga0 Mg1 3.186345 1_555
Ga0 Mg5 3.186345 1_555
Ga0 Mg3 3.186345 1_455
Ga0 Mg3 3.186345 1_555
