# generated using pymatgen
data_Si
_symmetry_space_group_name_H-M   'P 1'
_cell_length_a   4.86259289
_cell_length_b   4.86259289
_cell_length_c   3.99896561
_cell_angle_alpha   90.00000000
_cell_angle_beta   90.00000000
_cell_angle_gamma   140.41316655
_symmetry_Int_Tables_number   1
_chemical_formula_structural   Si
_chemical_formula_sum   Si4
_cell_volume   60.25474153
_cell_formula_units_Z   4
loop_
 _symmetry_equiv_pos_site_id
 _symmetry_equiv_pos_as_xyz
  1  'x, y, z'
loop_
 _atom_site_type_symbol
 _atom_site_label
 _atom_site_symmetry_multiplicity
 _atom_site_fract_x
 _atom_site_fract_y
 _atom_site_fract_z
 _atom_site_occupancy
  Si  Si0  1  0.88731734  0.11268266  0.75000000  1
  Si  Si1  1  0.61151741  0.38848259  0.75000000  1
  Si  Si2  1  0.11268266  0.88731734  0.25000000  1
  Si  Si3  1  0.38848259  0.61151741  0.25000000  1
loop_
_geom_bond_atom_site_label_1
_geom_bond_atom_site_label_2
_geom_bond_distance
_geom_bond_site_symmetry_2
Si0 Si1 2.523740 1_555
Si0 Si3 2.590251 1_545
Si0 Si3 2.590251 1_655
Si0 Si3 2.590251 1_546
Si0 Si3 2.590251 1_656
Si0 Si1 2.630645 1_655
Si0 Si1 2.630645 1_545
Si1 Si2 2.590251 1_655
Si1 Si2 2.590251 1_546
Si1 Si2 2.590251 1_656
Si1 Si2 2.590251 1_545
Si2 Si3 2.523740 1_555
Si2 Si3 2.630645 1_565
Si2 Si3 2.630645 1_455
