# generated using pymatgen
data_Mg2Si3
_symmetry_space_group_name_H-M   'P 1'
_cell_length_a   6.17574281
_cell_length_b   6.17574281
_cell_length_c   17.11264558
_cell_angle_alpha   83.19248728
_cell_angle_beta   83.19248728
_cell_angle_gamma   36.69588099
_symmetry_Int_Tables_number   1
_chemical_formula_structural   Mg2Si3
_chemical_formula_sum   'Mg8 Si12'
_cell_volume   386.96285065
_cell_formula_units_Z   4
loop_
 _symmetry_equiv_pos_site_id
 _symmetry_equiv_pos_as_xyz
  1  'x, y, z'
loop_
 _atom_site_type_symbol
 _atom_site_label
 _atom_site_symmetry_multiplicity
 _atom_site_fract_x
 _atom_site_fract_y
 _atom_site_fract_z
 _atom_site_occupancy
  Mg  Mg0  1  0.96129600  0.96129600  0.25099600  1
  Mg  Mg1  1  0.47146800  0.47146800  0.74946700  1
  Mg  Mg2  1  0.93031900  0.93031900  0.07437900  1
  Mg  Mg3  1  0.50879400  0.50879400  0.92387100  1
  Mg  Mg4  1  0.75455800  0.75455800  0.75030000  1
  Mg  Mg5  1  0.68309100  0.68309100  0.25024000  1
  Mg  Mg6  1  0.57409000  0.57409000  0.57582300  1
  Mg  Mg7  1  0.72307500  0.72307500  0.42168200  1
  Si  Si0  1  0.63326200  0.63326200  0.05033500  1
  Si  Si1  1  0.80060900  0.80060900  0.95322300  1
  Si  Si2  1  0.14760400  0.14760400  0.13331900  1
  Si  Si3  1  0.28827200  0.28827200  0.87075700  1
  Si  Si4  1  0.12515400  0.12515400  0.67931300  1
  Si  Si5  1  0.31121400  0.31121400  0.32081200  1
  Si  Si6  1  0.84138000  0.84138000  0.54565300  1
  Si  Si7  1  0.01622300  0.01622300  0.45285700  1
  Si  Si8  1  0.33027600  0.33027600  0.62852400  1
  Si  Si9  1  0.49683600  0.49683600  0.36902300  1
  Si  Si10  1  0.33670800  0.33670800  0.17652700  1
  Si  Si11  1  0.10200400  0.10200400  0.82279900  1
loop_
_geom_bond_atom_site_label_1
_geom_bond_atom_site_label_2
_geom_bond_distance
_geom_bond_site_symmetry_2
Mg0 Si2 2.779815 1_665
Mg0 Si5 2.788813 1_565
Mg0 Si5 2.788813 1_655
Mg0 Si10 2.828709 1_655
Mg0 Si10 2.828709 1_565
Mg0 Si9 2.870975 1_565
Mg0 Si9 2.870975 1_655
Mg1 Si3 2.794163 1_555
Mg1 Si8 2.806966 1_555
Mg1 Si4 2.815420 1_565
Mg1 Si4 2.815420 1_655
Mg1 Si11 2.859320 1_565
Mg1 Si11 2.859320 1_655
Mg2 Si1 2.720009 1_554
Mg2 Si10 2.749572 1_655
Mg2 Si10 2.749572 1_565
Mg2 Si2 2.854480 1_665
Mg2 Si0 3.060189 1_565
Mg2 Si0 3.060189 1_655
Mg3 Si11 2.737315 1_565
Mg3 Si11 2.737315 1_655
Mg3 Si0 2.757083 1_556
Mg3 Si3 2.845495 1_555
Mg3 Si1 3.111635 1_545
Mg3 Si1 3.111635 1_455
Mg4 Si11 2.821872 1_655
Mg4 Si11 2.821872 1_565
Mg4 Si4 2.831394 1_565
Mg4 Si4 2.831394 1_655
Mg4 Si3 2.896227 1_655
Mg4 Si3 2.896227 1_565
Mg4 Si8 2.906533 1_655
Mg4 Si8 2.906533 1_565
Mg5 Si9 2.791278 1_555
Mg5 Si5 2.819047 1_655
Mg5 Si5 2.819047 1_565
Mg5 Si10 2.836630 1_565
Mg5 Si10 2.836630 1_655
Mg5 Si2 2.857202 1_655
Mg5 Si2 2.857202 1_565
Mg5 Mg7 3.028293 1_555
Mg6 Si4 2.745703 1_655
Mg6 Si4 2.745703 1_565
Mg6 Si8 2.887865 1_555
Mg6 Mg7 2.976204 1_555
Mg6 Si7 3.004007 1_565
Mg6 Si7 3.004007 1_655
Mg6 Si6 3.111571 1_555
Mg7 Si6 2.675668 1_555
Mg7 Si5 2.716823 1_565
Mg7 Si5 2.716823 1_655
Mg7 Si9 2.905831 1_555
Mg7 Si7 3.101872 1_565
Mg7 Si7 3.101872 1_655
Si0 Si1 2.407583 1_554
Si0 Si2 2.425659 1_565
Si0 Si2 2.425659 1_655
Si1 Si3 2.417171 1_565
Si1 Si3 2.417171 1_655
Si4 Si8 2.452804 1_555
Si5 Si9 2.421717 1_555
Si6 Si8 2.400263 1_655
Si6 Si8 2.400263 1_565
Si6 Si7 2.431114 1_665
Si7 Si9 2.443468 1_545
Si7 Si9 2.443468 1_455
Si10 Si2 2.423038 1_555
Si10 Si5 2.449787 1_555
Si11 Si3 2.426892 1_555
Si11 Si4 2.436458 1_555
