# generated using pymatgen
data_CsCoO2
_symmetry_space_group_name_H-M   'P 1'
_cell_length_a   5.98211398
_cell_length_b   5.98208680
_cell_length_c   5.98195542
_cell_angle_alpha   119.99876814
_cell_angle_beta   60.00088956
_cell_angle_gamma   89.99883621
_symmetry_Int_Tables_number   1
_chemical_formula_structural   CsCoO2
_chemical_formula_sum   'Cs2 Co2 O4'
_cell_volume   151.37183743
_cell_formula_units_Z   2
loop_
 _symmetry_equiv_pos_site_id
 _symmetry_equiv_pos_as_xyz
  1  'x, y, z'
loop_
 _atom_site_type_symbol
 _atom_site_label
 _atom_site_symmetry_multiplicity
 _atom_site_fract_x
 _atom_site_fract_y
 _atom_site_fract_z
 _atom_site_occupancy
  Cs  Cs0  1  0.49999999  0.49999999  0.99999900  1
  Cs  Cs1  1  0.24999895  0.24999895  0.50000100  1
  Co  Co0  1  0.75000796  0.75000796  0.50000100  1
  Co  Co1  1  -0.00000865  0.99999035  0.99999900  1
  O  O0  1  0.87500076  0.37501329  0.25000561  1
  O  O1  1  0.87499796  0.87499075  0.25000476  1
  O  O2  1  0.87498975  0.87499896  0.74999524  1
  O  O3  1  0.37501329  0.87499976  0.74999439  1
loop_
_geom_bond_atom_site_label_1
_geom_bond_atom_site_label_2
_geom_bond_distance
_geom_bond_site_symmetry_2
Cs0 O3 3.507239 1_555
Cs0 O0 3.507265 1_556
Cs0 O0 3.507272 1_555
Cs0 O3 3.507291 1_556
Cs0 O2 3.507291 1_545
Cs0 O1 3.507301 1_456
Cs0 O2 3.507302 1_555
Cs0 O0 3.507318 1_456
Cs0 O1 3.507319 1_556
Cs0 O3 3.507320 1_545
Cs0 O1 3.507355 1_545
Cs0 O2 3.507360 1_456
Cs1 O3 3.507250 1_545
Cs1 O0 3.507259 1_456
Cs1 O0 3.507265 1_455
Cs1 O3 3.507278 1_544
Cs1 O2 3.507333 1_445
Cs1 O2 3.507335 1_544
Cs1 O1 3.507335 1_456
Cs1 O1 3.507354 1_545
Cs1 O1 3.507354 1_445
Cs1 O2 3.507360 1_455
Cs1 O3 3.507393 1_555
Cs1 O0 3.507401 1_555
Co0 O2 1.831501 1_555
Co0 O1 1.831506 1_555
Co0 O0 1.831630 1_555
Co0 O3 1.831632 1_555
Co1 O1 1.831635 1_456
Co1 O2 1.831644 1_455
Co1 O3 1.831765 1_555
Co1 O0 1.831768 1_466
