# generated using pymatgen
data_Cr2Se3
_symmetry_space_group_name_H-M   'P 1'
_cell_length_a   6.33637964
_cell_length_b   6.33646448
_cell_length_c   11.77323264
_cell_angle_alpha   90.00289661
_cell_angle_beta   89.99949918
_cell_angle_gamma   119.99956573
_symmetry_Int_Tables_number   1
_chemical_formula_structural   Cr2Se3
_chemical_formula_sum   'Cr8 Se12'
_cell_volume   409.37041377
_cell_formula_units_Z   4
loop_
 _symmetry_equiv_pos_site_id
 _symmetry_equiv_pos_as_xyz
  1  'x, y, z'
loop_
 _atom_site_type_symbol
 _atom_site_label
 _atom_site_symmetry_multiplicity
 _atom_site_fract_x
 _atom_site_fract_y
 _atom_site_fract_z
 _atom_site_occupancy
  Cr  Cr0  1  0.66668532  0.33333732  0.75001318  1
  Cr  Cr1  1  0.33334190  0.66666808  0.25002617  1
  Cr  Cr2  1  0.00003717  0.99999361  0.49997407  1
  Cr  Cr3  1  0.00000818  -0.00000795  -0.00002328  1
  Cr  Cr4  1  0.66666504  0.33336345  0.48662721  1
  Cr  Cr5  1  0.33333576  0.66665241  0.98660350  1
  Cr  Cr6  1  0.33341711  0.66672604  0.51341610  1
  Cr  Cr7  1  0.66655264  0.33328558  0.01328572  1
  Se  Se0  1  0.34153985  0.32570630  0.88081898  1
  Se  Se1  1  0.67429518  0.01580707  0.88084286  1
  Se  Se2  1  0.98419403  0.65844492  0.88083115  1
  Se  Se3  1  0.65845448  0.98420218  0.38084600  1
  Se  Se4  1  0.01583069  0.67425975  0.38086054  1
  Se  Se5  1  0.32571036  0.34157612  0.38086478  1
  Se  Se6  1  0.65842961  0.67428062  0.11917940  1
  Se  Se7  1  0.32573727  0.98419617  0.11916147  1
  Se  Se8  1  0.01580949  0.34153123  0.11914841  1
  Se  Se9  1  0.34152814  0.01577255  0.61916961  1
  Se  Se10  1  0.98413987  0.32573405  0.61917677  1
  Se  Se11  1  0.67428989  0.65847350  0.61917637  1
loop_
_geom_bond_atom_site_label_1
_geom_bond_atom_site_label_2
_geom_bond_distance
_geom_bond_site_symmetry_2
Cr0 Se10 2.553054 1_555
Cr0 Se2 2.553167 1_555
Cr0 Se0 2.553214 1_555
Cr0 Se1 2.553501 1_555
Cr0 Se11 2.553546 1_555
Cr0 Se9 2.553616 1_555
Cr1 Se3 2.553256 1_555
Cr1 Se6 2.553258 1_555
Cr1 Se5 2.553270 1_555
Cr1 Se4 2.553295 1_555
Cr1 Se7 2.553725 1_555
Cr1 Se8 2.553726 1_555
Cr2 Se4 2.538298 1_555
Cr2 Se5 2.538389 1_565
Cr2 Se9 2.538719 1_565
Cr2 Se3 2.538733 1_455
Cr2 Se11 2.538999 1_455
Cr2 Se10 2.539206 1_465
Cr3 Se1 2.538430 1_454
Cr3 Se2 2.538561 1_444
Cr3 Se0 2.538655 1_554
Cr3 Se8 2.538720 1_555
Cr3 Se7 2.538792 1_545
Cr3 Se6 2.539073 1_445
Cr4 Se4 2.516475 1_655
Cr4 Se5 2.516552 1_555
Cr4 Se3 2.516593 1_545
Cr4 Se11 2.565452 1_555
Cr4 Se10 2.565467 1_555
Cr4 Se9 2.565842 1_555
Cr5 Se2 2.516480 1_455
Cr5 Se0 2.516568 1_555
Cr5 Se1 2.516579 1_565
Cr5 Se6 2.565604 1_556
Cr5 Se8 2.565665 1_556
Cr5 Se7 2.565741 1_556
Cr6 Se9 2.516064 1_565
Cr6 Se11 2.516202 1_555
Cr6 Se10 2.517012 1_455
Cr6 Se5 2.565469 1_555
Cr6 Se3 2.565503 1_555
Cr6 Se4 2.565822 1_555
Cr7 Se7 2.516681 1_545
Cr7 Se6 2.517243 1_555
Cr7 Se8 2.517539 1_655
Cr7 Se0 2.564533 1_554
Cr7 Se1 2.564964 1_554
Cr7 Se2 2.565397 1_554
