# generated using pymatgen
data_Sr2Ca2Co3CuO10
_symmetry_space_group_name_H-M   'P 1'
_cell_length_a   10.75979201
_cell_length_b   11.03086747
_cell_length_c   17.43588118
_cell_angle_alpha   108.49503000
_cell_angle_beta   108.19627623
_cell_angle_gamma   89.67866677
_symmetry_Int_Tables_number   1
_chemical_formula_structural   Sr2Ca2Co3CuO10
_chemical_formula_sum   'Sr16 Ca16 Co24 Cu8 O80'
_cell_volume   1854.37540900
_cell_formula_units_Z   8
loop_
 _symmetry_equiv_pos_site_id
 _symmetry_equiv_pos_as_xyz
  1  'x, y, z'
loop_
 _atom_site_type_symbol
 _atom_site_label
 _atom_site_symmetry_multiplicity
 _atom_site_fract_x
 _atom_site_fract_y
 _atom_site_fract_z
 _atom_site_occupancy
  Sr  Sr0  1  0.30447300  0.55770200  0.61937700  1
  Sr  Sr1  1  0.80869300  0.06171800  0.61260500  1
  Sr  Sr2  1  0.81011300  0.55787800  0.61749700  1
  Sr  Sr3  1  0.18981300  0.43562500  0.38301200  1
  Sr  Sr4  1  0.19616000  0.44663100  0.88577000  1
  Sr  Sr5  1  0.68804500  0.43385500  0.38288200  1
  Sr  Sr6  1  0.69600700  0.93658000  0.38133800  1
  Sr  Sr7  1  0.70053600  0.93660600  0.89278400  1
  Sr  Sr8  1  0.06364400  0.30411300  0.61609600  1
  Sr  Sr9  1  0.05737700  0.80823300  0.61845800  1
  Sr  Sr10  1  0.56173700  0.30622400  0.61464500  1
  Sr  Sr11  1  0.55684200  0.79829300  0.61157400  1
  Sr  Sr12  1  0.44115000  0.19374300  0.38063000  1
  Sr  Sr13  1  0.44199300  0.19796000  0.88543900  1
  Sr  Sr14  1  0.94436900  0.19457700  0.38446500  1
  Sr  Sr15  1  0.94857700  0.19201600  0.88646800  1
  Ca  Ca0  1  0.30641300  0.06523700  0.10976000  1
  Ca  Ca1  1  0.30823800  0.06536400  0.60866900  1
  Ca  Ca2  1  0.30061700  0.56661000  0.10809400  1
  Ca  Ca3  1  0.79964400  0.06600900  0.10892000  1
  Ca  Ca4  1  0.80495500  0.56847100  0.11113200  1
  Ca  Ca5  1  0.19411000  0.92898600  0.38543800  1
  Ca  Ca6  1  0.19880900  0.93655500  0.89693800  1
  Ca  Ca7  1  0.69958300  0.43995600  0.89404000  1
  Ca  Ca8  1  0.05735700  0.28841600  0.10912100  1
  Ca  Ca9  1  0.05812000  0.79264300  0.10904600  1
  Ca  Ca10  1  0.54563200  0.29427100  0.10663300  1
  Ca  Ca11  1  0.54656800  0.79567400  0.10791200  1
  Ca  Ca12  1  0.43336300  0.70461200  0.38482600  1
  Ca  Ca13  1  0.44498300  0.70551200  0.89496700  1
  Ca  Ca14  1  0.94056900  0.70675900  0.38710300  1
  Ca  Ca15  1  0.94855500  0.70692800  0.89563300  1
  Co  Co0  1  0.00966400  0.00029300  0.00270300  1
  Co  Co1  1  0.01016500  0.00363200  0.50606000  1
  Co  Co2  1  0.00604600  0.49970400  0.00166300  1
  Co  Co3  1  0.00066200  0.49906600  0.50061000  1
  Co  Co4  1  0.50236500  0.99968600  0.00161700  1
  Co  Co5  1  0.49493900  0.99682600  0.48881400  1
  Co  Co6  1  0.50392600  0.50184100  0.00269800  1
  Co  Co7  1  0.49979600  0.49934300  0.50214700  1
  Co  Co8  1  0.25458500  0.25213800  0.00087900  1
  Co  Co9  1  0.25328900  0.24907400  0.50066300  1
  Co  Co10  1  0.25441700  0.75263300  0.00437400  1
  Co  Co11  1  0.25261500  0.75152400  0.50533100  1
  Co  Co12  1  0.76093300  0.25864700  0.01350600  1
  Co  Co13  1  0.75422300  0.25075200  0.50213200  1
  Co  Co14  1  0.75720100  0.74989800  0.00270700  1
  Co  Co15  1  0.74964600  0.74822300  0.49927500  1
  Co  Co16  1  0.10472400  0.08539600  0.24460800  1
  Co  Co17  1  0.10458500  0.59672500  0.24465700  1
  Co  Co18  1  0.61033000  0.08825900  0.24179700  1
  Co  Co19  1  0.60852600  0.09099900  0.75037500  1
  Co  Co20  1  0.60457700  0.59432500  0.24439300  1
  Co  Co21  1  0.35441000  0.40901200  0.24349300  1
  Co  Co22  1  0.85366300  0.40939900  0.24627300  1
  Co  Co23  1  0.86257900  0.89716300  0.24151100  1
  Cu  Cu0  1  0.12460800  0.09421900  0.75487000  1
  Cu  Cu1  1  0.11716000  0.61264000  0.75654900  1
  Cu  Cu2  1  0.61970900  0.60196000  0.75703300  1
  Cu  Cu3  1  0.37800100  0.40538900  0.75518600  1
  Cu  Cu4  1  0.34616300  0.89922300  0.24360600  1
  Cu  Cu5  1  0.36279900  0.88967700  0.75451800  1
  Cu  Cu6  1  0.86646500  0.40814200  0.75868100  1
  Cu  Cu7  1  0.86521900  0.89613200  0.75247100  1
  O  O0  1  0.12548800  0.10836300  0.49097700  1
  O  O1  1  0.13350900  0.12496400  0.99423400  1
  O  O2  1  0.10921000  0.61603400  0.48968900  1
  O  O3  1  0.12474600  0.62941800  0.99065100  1
  O  O4  1  0.62096100  0.11347900  0.49116700  1
  O  O5  1  0.63269300  0.13497900  0.99493600  1
  O  O6  1  0.60794200  0.61430800  0.48826600  1
  O  O7  1  0.63037100  0.63187000  0.99271000  1
  O  O8  1  0.12975200  0.38595100  0.01598700  1
  O  O9  1  0.13009300  0.37019100  0.50585800  1
  O  O10  1  0.12907200  0.88302800  0.01085600  1
  O  O11  1  0.13272200  0.86658100  0.49987900  1
  O  O12  1  0.63297800  0.39248900  0.01557800  1
  O  O13  1  0.62865000  0.37133000  0.50223700  1
  O  O14  1  0.63021400  0.88738100  0.01466900  1
  O  O15  1  0.62789000  0.86399300  0.49569100  1
  O  O16  1  0.36926000  0.12343600  0.49125700  1
  O  O17  1  0.37907100  0.11475900  0.99253000  1
  O  O18  1  0.36448600  0.62888500  0.49164100  1
  O  O19  1  0.38326800  0.62051600  0.99613200  1
  O  O20  1  0.87542300  0.12495600  0.49475400  1
  O  O21  1  0.88437300  0.11448200  0.99940600  1
  O  O22  1  0.86347600  0.62813900  0.49144000  1
  O  O23  1  0.87752900  0.60892500  0.99139200  1
  O  O24  1  0.38026200  0.38300300  0.01520000  1
  O  O25  1  0.37870900  0.38449600  0.50263200  1
  O  O26  1  0.37929600  0.87988500  0.01458000  1
  O  O27  1  0.38669900  0.89038000  0.51081000  1
  O  O28  1  0.87845800  0.37616200  0.01456800  1
  O  O29  1  0.87966600  0.38449300  0.50325300  1
  O  O30  1  0.88177800  0.87358900  0.01471800  1
  O  O31  1  0.88732000  0.88410900  0.50336300  1
  O  O32  1  0.09997000  0.09747700  0.14159900  1
  O  O33  1  0.09764100  0.08303500  0.63816300  1
  O  O34  1  0.08180800  0.60226900  0.13809400  1
  O  O35  1  0.06820700  0.58921800  0.63858100  1
  O  O36  1  0.58887100  0.10461900  0.13780900  1
  O  O37  1  0.59811200  0.10201100  0.64838900  1
  O  O38  1  0.58578900  0.60666700  0.13997200  1
  O  O39  1  0.57281000  0.57994900  0.63841000  1
  O  O40  1  0.42891700  0.40450200  0.35080300  1
  O  O41  1  0.45067000  0.41280100  0.86886300  1
  O  O42  1  0.42571400  0.91087300  0.36131800  1
  O  O43  1  0.44751100  0.90470100  0.86792800  1
  O  O44  1  0.92964500  0.40680000  0.35447500  1
  O  O45  1  0.94365300  0.40716400  0.86887900  1
  O  O46  1  0.94127400  0.89757900  0.34994000  1
  O  O47  1  0.94476200  0.90973200  0.86798200  1
  O  O48  1  0.34239300  0.28943300  0.14112200  1
  O  O49  1  0.33366600  0.29515500  0.64042300  1
  O  O50  1  0.31861900  0.78743600  0.12971300  1
  O  O51  1  0.31614900  0.79602100  0.63803000  1
  O  O52  1  0.84584100  0.28892600  0.14317100  1
  O  O53  1  0.83181500  0.31263700  0.64306200  1
  O  O54  1  0.84549600  0.78244500  0.13709700  1
  O  O55  1  0.81381200  0.80055500  0.63460000  1
  O  O56  1  0.18160100  0.19516900  0.35206900  1
  O  O57  1  0.19107000  0.21375000  0.86585700  1
  O  O58  1  0.19609400  0.70238200  0.35152800  1
  O  O59  1  0.20571500  0.71198600  0.87157800  1
  O  O60  1  0.68595600  0.18941100  0.35182400  1
  O  O61  1  0.69002200  0.21277400  0.85250400  1
  O  O62  1  0.69712900  0.69586500  0.35172200  1
  O  O63  1  0.70742800  0.70490300  0.86843000  1
  O  O64  1  0.43667100  0.04859700  0.23779900  1
  O  O65  1  0.43964900  0.06024100  0.74307500  1
  O  O66  1  0.42342200  0.57409300  0.24561100  1
  O  O67  1  0.45312600  0.57243900  0.76434500  1
  O  O68  1  0.92358700  0.05917100  0.23772300  1
  O  O69  1  0.95163400  0.04311100  0.74810100  1
  O  O70  1  0.92508800  0.57128500  0.24808500  1
  O  O71  1  0.95053100  0.57262500  0.76544800  1
  O  O72  1  0.17248500  0.43219400  0.23807400  1
  O  O73  1  0.21117700  0.46392800  0.74974200  1
  O  O74  1  0.16338900  0.92173600  0.24644700  1
  O  O75  1  0.20016300  0.94008600  0.76627400  1
  O  O76  1  0.67082800  0.42835500  0.23684400  1
  O  O77  1  0.69866400  0.44512900  0.76154400  1
  O  O78  1  0.68177000  0.92621600  0.23592200  1
  O  O79  1  0.68125700  0.94228300  0.75349800  1
loop_
_geom_bond_atom_site_label_1
_geom_bond_atom_site_label_2
_geom_bond_distance
_geom_bond_site_symmetry_2
Ca0 O64 2.298893 1_555
Ca0 O48 2.363375 1_555
Ca0 O32 2.450466 1_555
Ca0 O26 2.488277 1_545
Ca0 O1 2.537791 1_554
Ca0 O10 2.538413 1_545
Ca0 O17 2.607447 1_554
Ca0 O36 2.935353 1_555
Ca1 O65 2.346920 1_555
Ca1 O49 2.414407 1_555
Ca1 O33 2.469077 1_555
Ca1 O27 2.478233 1_545
Ca1 O0 2.527736 1_555
Ca1 O16 2.590098 1_555
Ca1 O11 2.672639 1_545
Ca1 O37 2.976335 1_555
Ca2 O66 2.323540 1_555
Ca2 O50 2.343154 1_555
Ca2 O8 2.469227 1_555
Ca2 O24 2.495187 1_555
Ca2 O34 2.568939 1_555
Ca2 O3 2.592180 1_554
Ca2 O19 2.604232 1_554
Ca2 O38 2.951855 1_555
Ca3 O68 2.250245 1_555
Ca3 O52 2.355183 1_555
Ca3 O14 2.453862 1_545
Ca3 O36 2.478884 1_555
Ca3 O5 2.543578 1_554
Ca3 O21 2.550210 1_554
Ca3 O30 2.580254 1_545
Ca4 O54 2.275216 1_555
Ca4 O70 2.323690 1_555
Ca4 O12 2.455849 1_555
Ca4 O28 2.550907 1_555
Ca4 O38 2.566404 1_555
Ca4 O7 2.600029 1_554
Ca4 O23 2.604015 1_554
Ca4 O34 2.874087 1_655
Ca5 O74 2.316399 1_555
Ca5 O58 2.380726 1_555
Ca5 O0 2.523624 1_565
Ca5 O11 2.567374 1_555
Ca5 O46 2.593635 1_455
Ca5 O16 2.630498 1_565
Ca5 O27 2.646800 1_555
Ca5 O42 2.650009 1_555
Ca6 O75 2.295463 1_555
Ca6 O59 2.379292 1_555
Ca6 O1 2.486389 1_565
Ca6 O17 2.519763 1_565
Ca6 O10 2.556708 1_556
Ca6 O26 2.584879 1_556
Ca6 O47 2.620459 1_455
Ca6 O43 2.874411 1_555
Ca7 O77 2.325870 1_555
Ca7 O61 2.370673 1_555
Ca7 O23 2.454427 1_555
Ca7 O7 2.543179 1_555
Ca7 O41 2.578130 1_555
Ca7 O12 2.633457 1_556
Ca7 O28 2.648171 1_556
Ca7 O45 2.797880 1_555
Ca8 O72 2.263926 1_555
Ca8 O32 2.356014 1_555
Ca8 O21 2.508526 1_454
Ca8 O8 2.511800 1_555
Ca8 O28 2.523811 1_455
Ca8 O52 2.524615 1_455
Ca8 O1 2.579142 1_554
Ca8 O48 2.940266 1_555
Ca9 O74 2.282345 1_555
Ca9 O34 2.306428 1_555
Ca9 O30 2.462957 1_455
Ca9 O54 2.494489 1_455
Ca9 O10 2.532925 1_555
Ca9 O3 2.562974 1_554
Ca9 O23 2.647267 1_454
Ca9 O50 2.714775 1_555
Ca10 O76 2.266834 1_555
Ca10 O36 2.332621 1_555
Ca10 O24 2.421664 1_555
Ca10 O48 2.447359 1_555
Ca10 O17 2.530725 1_554
Ca10 O12 2.571427 1_555
Ca10 O5 2.589930 1_554
Ca11 O78 2.264520 1_555
Ca11 O38 2.328011 1_555
Ca11 O26 2.421052 1_555
Ca11 O19 2.475723 1_554
Ca11 O14 2.538506 1_555
Ca11 O50 2.602901 1_555
Ca11 O7 2.631133 1_554
Ca12 O66 2.366138 1_555
Ca12 O42 2.433102 1_555
Ca12 O58 2.433362 1_555
Ca12 O15 2.562564 1_555
Ca12 O18 2.563513 1_555
Ca12 O6 2.603192 1_555
Ca12 O27 2.664194 1_555
Ca13 O67 2.313355 1_555
Ca13 O43 2.390962 1_555
Ca13 O59 2.481941 1_555
Ca13 O19 2.493814 1_555
Ca13 O7 2.506051 1_555
Ca13 O26 2.628523 1_556
Ca13 O14 2.672719 1_556
Ca14 O70 2.364056 1_555
Ca14 O46 2.391474 1_555
Ca14 O62 2.490658 1_555
Ca14 O31 2.541926 1_555
Ca14 O11 2.559628 1_655
Ca14 O2 2.565495 1_655
Ca14 O22 2.588670 1_555
Ca15 O71 2.289959 1_555
Ca15 O47 2.430989 1_555
Ca15 O3 2.447179 1_655
Ca15 O63 2.486393 1_555
Ca15 O23 2.547895 1_555
Ca15 O30 2.588897 1_556
Ca15 O10 2.590652 1_656
Ca15 O59 2.928589 1_655
Co0 O10 1.824313 1_545
Co0 O21 1.840051 1_454
Co0 O1 1.990233 1_554
Co0 O30 2.068368 1_445
Co0 O47 2.120822 1_444
Co0 O32 2.203009 1_555
Co1 O0 1.831986 1_555
Co1 O31 1.851760 1_445
Co1 O20 1.974579 1_455
Co1 O11 1.999774 1_545
Co1 O33 2.081757 1_555
Co1 O46 2.461092 1_445
Co2 O23 1.832850 1_454
Co2 O8 1.838764 1_555
Co2 O3 2.015783 1_554
Co2 O28 2.049603 1_455
Co2 O45 2.095339 1_454
Co2 O34 2.166788 1_555
Co3 O2 1.837612 1_555
Co3 O29 1.840438 1_455
Co3 O9 1.987345 1_555
Co3 O22 2.050620 1_455
Co3 O35 2.168562 1_555
Co3 O44 2.293352 1_455
Co4 O17 1.836768 1_564
Co4 O14 1.855547 1_555
Co4 O26 1.986712 1_555
Co4 O5 2.107859 1_564
Co4 O43 2.116090 1_554
Co4 O36 2.175509 1_565
Co5 O4 1.856740 1_565
Co5 O27 1.860701 1_555
Co5 O16 1.938573 1_565
Co5 O42 2.008005 1_555
Co5 O15 2.046608 1_555
Co5 O37 2.521351 1_565
Co6 O12 1.841717 1_555
Co6 O19 1.842683 1_554
Co6 O24 1.979505 1_555
Co6 O7 2.065672 1_554
Co6 O41 2.110801 1_554
Co6 O38 2.186447 1_555
Co7 O25 1.826109 1_555
Co7 O6 1.846083 1_555
Co7 O13 1.973404 1_555
Co7 O18 2.042382 1_555
Co7 O39 2.134095 1_555
Co7 O40 2.374876 1_555
Co8 O1 1.871272 1_554
Co8 O24 1.886034 1_555
Co8 O8 2.001089 1_555
Co8 O17 2.017627 1_554
Co8 O57 2.134170 1_554
Co8 O48 2.228102 1_555
Co9 O16 1.862493 1_555
Co9 O9 1.878466 1_555
Co9 O25 2.003735 1_555
Co9 O0 2.010288 1_555
Co9 O49 2.201671 1_555
Co9 O56 2.332540 1_555
Co10 O3 1.859491 1_554
Co10 O26 1.876390 1_555
Co10 O10 1.967470 1_555
Co10 O50 1.982011 1_555
Co10 O19 2.008878 1_554
Co10 O59 2.103088 1_554
Co11 O11 1.807098 1_555
Co11 O18 1.814472 1_555
Co11 O2 2.047787 1_555
Co11 O27 2.069430 1_555
Co11 O51 2.087337 1_555
Co11 O58 2.432698 1_555
Co12 O28 1.807850 1_555
Co12 O5 1.825263 1_554
Co12 O12 2.012700 1_555
Co12 O21 2.070185 1_554
Co12 O52 2.071687 1_555
Co12 O61 2.546379 1_554
Co13 O13 1.890644 1_555
Co13 O20 1.901041 1_555
Co13 O29 1.996546 1_555
Co13 O4 2.013687 1_555
Co13 O53 2.204984 1_555
Co13 O60 2.354562 1_555
Co14 O7 1.820757 1_554
Co14 O30 1.834704 1_555
Co14 O23 2.018831 1_554
Co14 O14 2.040693 1_555
Co14 O63 2.120661 1_554
Co14 O54 2.145194 1_555
Co15 O22 1.801362 1_555
Co15 O15 1.825311 1_555
Co15 O6 2.050919 1_555
Co15 O31 2.082657 1_555
Co15 O55 2.121344 1_555
Co15 O62 2.329109 1_555
Co16 O56 1.806926 1_555
Co16 O32 1.827725 1_555
Co16 O74 1.915705 1_545
Co16 O68 1.932576 1_455
Co17 O58 1.813614 1_555
Co17 O34 1.817573 1_555
Co17 O72 1.935511 1_555
Co17 O70 1.975159 1_455
Co18 O60 1.806829 1_555
Co18 O36 1.821801 1_555
Co18 O64 1.896356 1_555
Co18 O78 1.927181 1_545
Co19 O37 1.789360 1_555
Co19 O61 1.806839 1_555
Co19 O65 1.807809 1_555
Co19 O79 1.822683 1_545
Co20 O62 1.807506 1_555
Co20 O38 1.816957 1_555
Co20 O76 1.941225 1_555
Co20 O66 1.970619 1_555
Co21 O40 1.807699 1_555
Co21 O48 1.818413 1_555
Co21 O72 1.949418 1_555
Co21 O66 1.955536 1_555
Co22 O44 1.816375 1_555
Co22 O52 1.842781 1_555
Co22 O70 1.935182 1_555
Co22 O76 1.938064 1_555
Co23 O54 1.811493 1_555
Co23 O46 1.812719 1_555
Co23 O68 1.934961 1_565
Co23 O78 1.947168 1_555
Cu0 O57 1.876755 1_555
Cu0 O69 1.904747 1_455
Cu0 O75 1.920732 1_545
Cu0 O33 1.926800 1_555
Cu1 O59 1.885501 1_555
Cu1 O35 1.887501 1_555
Cu1 O71 1.912968 1_455
Cu1 O73 1.913442 1_555
Cu2 O63 1.849492 1_555
Cu2 O67 1.873658 1_555
Cu2 O39 1.903252 1_555
Cu2 O77 1.936195 1_555
Cu3 O41 1.864566 1_555
Cu3 O73 1.888771 1_555
Cu3 O49 1.891238 1_555
Cu3 O67 1.955468 1_555
Cu4 O50 1.906524 1_555
Cu4 O42 1.923091 1_555
Cu4 O64 1.964447 1_565
Cu4 O74 1.994803 1_555
Cu5 O43 1.853782 1_555
Cu5 O51 1.866104 1_555
Cu5 O75 1.885274 1_555
Cu5 O65 2.149914 1_565
Cu6 O45 1.843389 1_555
Cu6 O77 1.861157 1_555
Cu6 O53 1.870931 1_555
Cu6 O71 1.984955 1_555
Cu7 O47 1.882695 1_555
Cu7 O55 1.887630 1_555
Cu7 O69 1.907488 1_565
Cu7 O79 2.045125 1_555
O0 Sr14 2.643973 1_455
O0 Sr8 2.786832 1_555
O1 Sr15 2.562663 1_455
O2 Sr3 2.609952 1_555
O2 Sr9 2.756020 1_555
O2 Sr0 2.807520 1_555
O3 Sr4 2.553608 1_555
O4 Sr6 2.589241 1_545
O4 Sr1 2.640532 1_555
O4 Sr12 2.641247 1_555
O4 Sr10 2.738473 1_555
O5 Sr13 2.591675 1_555
O5 Sr7 2.610540 1_545
O6 Sr5 2.594369 1_555
O6 Sr11 2.645956 1_555
O6 Sr2 2.830208 1_555
O8 Sr15 2.776468 1_454
O8 Sr4 2.845399 1_554
O9 Sr8 2.547535 1_555
O9 Sr0 2.615938 1_555
O9 Sr14 2.650744 1_455
O9 Sr3 2.714298 1_555
O11 Sr9 2.691303 1_555
O12 Sr13 2.832719 1_554
O13 Sr10 2.579843 1_555
O13 Sr5 2.638393 1_555
O13 Sr2 2.656351 1_555
O13 Sr12 2.672241 1_555
O14 Sr7 2.669219 1_554
O15 Sr6 2.661924 1_555
O15 Sr11 2.663095 1_555
O15 Sr1 2.728952 1_565
O16 Sr12 2.609223 1_555
O16 Sr10 2.737710 1_555
O17 Sr13 2.582821 1_555
O18 Sr3 2.631418 1_555
O18 Sr11 2.647589 1_555
O18 Sr0 2.829717 1_555
O19 Sr4 2.591750 1_555
O20 Sr14 2.583080 1_555
O20 Sr6 2.647431 1_545
O20 Sr1 2.657244 1_555
O20 Sr8 2.683178 1_655
O21 Sr7 2.579015 1_545
O21 Sr15 2.647848 1_555
O22 Sr5 2.641788 1_555
O22 Sr9 2.752003 1_655
O22 Sr2 2.763171 1_555
O24 Sr4 2.776109 1_554
O24 Sr13 2.778467 1_554
O25 Sr3 2.623941 1_555
O25 Sr0 2.638718 1_555
O25 Sr10 2.662106 1_555
O25 Sr12 2.727800 1_555
O27 Sr11 2.563726 1_555
O28 Sr15 2.800150 1_554
O29 Sr2 2.585301 1_555
O29 Sr5 2.638606 1_555
O29 Sr8 2.688974 1_655
O29 Sr14 2.700844 1_555
O30 Sr7 2.671934 1_554
O31 Sr1 2.608136 1_565
O31 Sr9 2.613607 1_655
O31 Sr6 2.670533 1_555
O33 Sr8 2.593533 1_555
O33 Sr9 2.958978 1_545
O33 Sr1 2.999386 1_455
O35 Sr9 2.546071 1_555
O35 Sr0 2.672729 1_555
O35 Sr2 2.694279 1_455
O35 Sr8 3.042091 1_555
O37 Sr10 2.502184 1_555
O37 Sr1 2.533061 1_555
O39 Sr11 2.590289 1_555
O39 Sr2 2.688850 1_555
O39 Sr0 2.804360 1_555
O39 Sr10 2.912428 1_555
O40 Sr12 2.532516 1_555
O40 Sr5 2.666982 1_555
O40 Sr3 2.796821 1_555
O41 Sr13 2.482434 1_555
O41 Sr4 2.854527 1_555
O42 Sr6 2.823626 1_555
O42 Sr12 3.030105 1_565
O43 Sr7 2.626928 1_555
O43 Sr13 3.153390 1_565
O44 Sr14 2.549423 1_555
O44 Sr3 2.687890 1_655
O44 Sr5 2.791737 1_555
O45 Sr15 2.485855 1_555
O45 Sr4 2.662729 1_655
O46 Sr6 2.861708 1_555
O46 Sr14 3.135936 1_565
O47 Sr7 2.792846 1_555
O47 Sr15 3.026213 1_565
O49 Sr10 2.639330 1_555
O49 Sr8 2.807957 1_555
O49 Sr0 3.035276 1_555
O51 Sr0 2.543272 1_555
O51 Sr9 2.705300 1_555
O51 Sr11 2.770321 1_555
O53 Sr1 2.645296 1_555
O53 Sr8 2.674677 1_655
O53 Sr10 2.788558 1_555
O53 Sr2 2.874785 1_555
O55 Sr2 2.596888 1_555
O55 Sr11 2.666056 1_555
O55 Sr9 2.726312 1_655
O55 Sr1 3.022483 1_565
O56 Sr3 2.529675 1_555
O56 Sr12 2.680164 1_555
O56 Sr14 2.781675 1_455
O57 Sr4 2.479218 1_555
O57 Sr13 2.625452 1_555
O57 Sr15 2.764364 1_455
O59 Sr4 3.019684 1_555
O60 Sr5 2.575104 1_555
O60 Sr14 2.655384 1_555
O60 Sr12 2.828860 1_555
O60 Sr6 2.987832 1_545
O61 Sr15 2.681901 1_555
O61 Sr13 2.915511 1_555
O62 Sr6 2.539883 1_555
O62 Sr5 3.112964 1_555
O63 Sr7 2.459132 1_555
O64 Sr12 2.482738 1_555
O65 Sr13 2.457416 1_555
O67 Sr0 2.488168 1_555
O68 Sr14 2.459496 1_555
O69 Sr1 2.454338 1_555
O69 Sr15 2.460543 1_555
O71 Sr2 2.503228 1_555
O72 Sr3 2.463264 1_555
O73 Sr8 2.484470 1_555
O73 Sr4 2.492909 1_555
O73 Sr0 3.189485 1_555
O75 Sr9 2.508409 1_555
O76 Sr5 2.475714 1_555
O77 Sr10 2.501469 1_555
O78 Sr6 2.457396 1_555
O79 Sr7 2.393039 1_555
O79 Sr11 2.428921 1_555
