# generated using pymatgen
data_TmSbIr
_symmetry_space_group_name_H-M   'P 1'
_cell_length_a   4.47533352
_cell_length_b   7.07348133
_cell_length_c   7.82627835
_cell_angle_alpha   90.00000000
_cell_angle_beta   90.00000000
_cell_angle_gamma   90.00000000
_symmetry_Int_Tables_number   1
_chemical_formula_structural   TmSbIr
_chemical_formula_sum   'Tm4 Sb4 Ir4'
_cell_volume   247.75013956
_cell_formula_units_Z   4
loop_
 _symmetry_equiv_pos_site_id
 _symmetry_equiv_pos_as_xyz
  1  'x, y, z'
loop_
 _atom_site_type_symbol
 _atom_site_label
 _atom_site_symmetry_multiplicity
 _atom_site_fract_x
 _atom_site_fract_y
 _atom_site_fract_z
 _atom_site_occupancy
  Tm  Tm0  1  0.25000000  0.51111454  0.19261972  1
  Tm  Tm1  1  0.75000000  0.48888449  0.80738141  1
  Tm  Tm2  1  0.75000000  0.98888449  0.69261859  1
  Tm  Tm3  1  0.25000000  0.01111454  0.30738028  1
  Sb  Sb0  1  0.25000000  0.67805594  0.58930363  1
  Sb  Sb1  1  0.75000000  0.32194344  0.41069465  1
  Sb  Sb2  1  0.75000000  0.82194344  0.08930535  1
  Sb  Sb3  1  0.25000000  0.17805594  0.91069637  1
  Ir  Ir0  1  0.25000000  0.78932847  0.91302779  1
  Ir  Ir1  1  0.75000000  0.21067412  0.08697260  1
  Ir  Ir2  1  0.75000000  0.71067412  0.41302740  1
  Ir  Ir3  1  0.25000000  0.28932847  0.58697221  1
loop_
_geom_bond_atom_site_label_1
_geom_bond_atom_site_label_2
_geom_bond_distance
_geom_bond_site_symmetry_2
Sb0 Tm1 3.116187 1_555
Sb0 Tm1 3.116187 1_455
Sb0 Tm3 3.227760 1_565
Sb0 Tm2 3.239592 1_455
Sb0 Tm2 3.239592 1_555
Sb0 Tm0 3.321552 1_555
Sb1 Tm0 3.116173 1_555
Sb1 Tm0 3.116173 1_655
Sb1 Tm2 3.227765 1_545
Sb1 Tm3 3.239593 1_655
Sb1 Tm3 3.239593 1_555
Sb1 Tm1 3.321572 1_555
Sb2 Tm3 3.116173 1_565
Sb2 Tm3 3.116173 1_665
Sb2 Tm1 3.227765 1_554
Sb2 Tm0 3.239593 1_555
Sb2 Tm0 3.239593 1_655
Sb2 Tm2 3.321572 1_554
Sb3 Tm2 3.116187 1_445
Sb3 Tm2 3.116187 1_545
Sb3 Tm0 3.227760 1_556
Sb3 Tm1 3.239592 1_555
Sb3 Tm1 3.239592 1_455
Sb3 Tm3 3.321552 1_556
Ir0 Sb2 2.638876 1_556
Ir0 Sb2 2.638876 1_456
Ir0 Sb0 2.652999 1_555
Ir0 Sb3 2.749717 1_565
Ir0 Tm0 2.942933 1_556
Ir0 Tm2 3.158356 1_455
Ir0 Tm2 3.158356 1_555
Ir0 Tm1 3.194870 1_555
Ir0 Tm1 3.194870 1_455
Ir0 Tm3 3.462146 1_566
Ir1 Sb3 2.638872 1_554
Ir1 Sb3 2.638872 1_654
Ir1 Sb1 2.652977 1_555
Ir1 Sb2 2.749740 1_545
Ir1 Tm1 2.942912 1_554
Ir1 Tm3 3.158361 1_555
Ir1 Tm3 3.158361 1_655
Ir1 Tm0 3.194854 1_555
Ir1 Tm0 3.194854 1_655
Ir1 Tm2 3.462168 1_544
Ir2 Sb0 2.638872 1_555
Ir2 Sb0 2.638872 1_655
Ir2 Sb2 2.652977 1_555
Ir2 Sb1 2.749740 1_555
Ir2 Tm2 2.942912 1_555
Ir2 Tm0 3.158361 1_555
Ir2 Tm0 3.158361 1_655
Ir2 Tm3 3.194854 1_565
Ir2 Tm3 3.194854 1_665
Ir2 Tm1 3.462168 1_555
Ir3 Sb1 2.638876 1_555
Ir3 Sb1 2.638876 1_455
Ir3 Sb3 2.652999 1_555
Ir3 Sb0 2.749717 1_555
Ir3 Tm3 2.942933 1_555
Ir3 Tm1 3.158356 1_555
Ir3 Tm1 3.158356 1_455
Ir3 Tm2 3.194870 1_545
Ir3 Tm2 3.194870 1_445
Ir3 Tm0 3.462146 1_555
