# generated using pymatgen
data_Dy3Mg2VS8
_symmetry_space_group_name_H-M   'P 1'
_cell_length_a   7.82571058
_cell_length_b   7.70815932
_cell_length_c   7.82605482
_cell_angle_alpha   59.63047022
_cell_angle_beta   59.98669144
_cell_angle_gamma   59.66491356
_symmetry_Int_Tables_number   1
_chemical_formula_structural   Dy3Mg2VS8
_chemical_formula_sum   'Dy3 Mg2 V1 S8'
_cell_volume   331.99055267
_cell_formula_units_Z   1
loop_
 _symmetry_equiv_pos_site_id
 _symmetry_equiv_pos_as_xyz
  1  'x, y, z'
loop_
 _atom_site_type_symbol
 _atom_site_label
 _atom_site_symmetry_multiplicity
 _atom_site_fract_x
 _atom_site_fract_y
 _atom_site_fract_z
 _atom_site_occupancy
  Dy  Dy0  1  0.50000200  0.50001700  0.49998200  1
  Dy  Dy1  1  0.49999700  0.49999100  0.99999900  1
  Dy  Dy2  1  0.00000000  0.49999300  0.50000700  1
  Mg  Mg0  1  0.87506700  0.87427400  0.87516200  1
  Mg  Mg1  1  0.12493500  0.12572600  0.12484100  1
  V  V0  1  0.50000400  0.00000100  0.50000700  1
  S  S0  1  0.73177100  0.76678200  0.73170500  1
  S  S1  1  0.26904500  0.23215700  0.72994400  1
  S  S2  1  0.25430800  0.73728500  0.25418100  1
  S  S3  1  0.72983800  0.23214800  0.26914500  1
  S  S4  1  0.74567900  0.26271500  0.74580300  1
  S  S5  1  0.27016300  0.76785400  0.73085200  1
  S  S6  1  0.26822500  0.23320400  0.26831600  1
  S  S7  1  0.73097000  0.76784800  0.27005900  1
loop_
_geom_bond_atom_site_label_1
_geom_bond_atom_site_label_2
_geom_bond_distance
_geom_bond_site_symmetry_2
Dy0 S2 2.707936 1_555
Dy0 S4 2.707942 1_555
Dy0 S7 2.743404 1_555
Dy0 S1 2.743494 1_555
Dy0 S5 2.744397 1_555
Dy0 S3 2.744401 1_555
Dy1 S4 2.701822 1_555
Dy1 S2 2.701838 1_556
Dy1 S6 2.742115 1_556
Dy1 S0 2.742137 1_555
Dy1 S5 2.752483 1_555
Dy1 S3 2.752508 1_556
Dy2 S4 2.701103 1_455
Dy2 S2 2.701104 1_555
Dy2 S6 2.743238 1_555
Dy2 S0 2.743276 1_455
Dy2 S7 2.752520 1_455
Dy2 S1 2.752542 1_555
Mg0 S4 2.431720 1_565
Mg0 S0 2.518561 1_555
Mg0 S7 2.525897 1_556
Mg0 S5 2.527797 1_655
Mg1 S2 2.431719 1_545
Mg1 S6 2.518555 1_555
Mg1 S1 2.525894 1_554
Mg1 S3 2.527802 1_455
S0 V0 2.551451 1_565
S1 V0 2.538213 1_555
S3 V0 2.536216 1_555
S5 V0 2.536255 1_565
S6 V0 2.551481 1_555
S7 V0 2.538258 1_565
