# generated using pymatgen
data_Li2SnH14Se3O7
_symmetry_space_group_name_H-M   'P 1'
_cell_length_a   7.26758036
_cell_length_b   9.43537470
_cell_length_c   10.46773947
_cell_angle_alpha   77.81432470
_cell_angle_beta   71.90710840
_cell_angle_gamma   74.66333766
_symmetry_Int_Tables_number   1
_chemical_formula_structural   Li2SnH14Se3O7
_chemical_formula_sum   'Li4 Sn2 H28 Se6 O14'
_cell_volume   651.46575227
_cell_formula_units_Z   2
loop_
 _symmetry_equiv_pos_site_id
 _symmetry_equiv_pos_as_xyz
  1  'x, y, z'
loop_
 _atom_site_type_symbol
 _atom_site_label
 _atom_site_symmetry_multiplicity
 _atom_site_fract_x
 _atom_site_fract_y
 _atom_site_fract_z
 _atom_site_occupancy
  Li  Li0  1  0.69185021  0.08149477  0.21910264  1
  Li  Li1  1  0.30814979  0.91850523  0.78089736  1
  Li  Li2  1  0.06075884  0.26035709  0.12992383  1
  Li  Li3  1  0.93924116  0.73964291  0.87007617  1
  Sn  Sn0  1  0.59678261  0.37662612  0.62318182  1
  Sn  Sn1  1  0.40321739  0.62337388  0.37681818  1
  H  H0  1  0.79852160  0.22399183  0.34334288  1
  H  H1  1  0.20147840  0.77600817  0.65665712  1
  H  H2  1  0.23131732  0.44746917  0.19164094  1
  H  H3  1  0.76868268  0.55253083  0.80835906  1
  H  H4  1  0.36800500  0.02702154  0.40147618  1
  H  H5  1  0.63199500  0.97297846  0.59852382  1
  H  H6  1  0.89775336  0.81827050  0.16251978  1
  H  H7  1  0.10224664  0.18172950  0.83748022  1
  H  H8  1  0.69299879  0.05430008  0.97795222  1
  H  H9  1  0.30700121  0.94569992  0.02204778  1
  H  H10  1  0.22756852  0.01069177  0.22621733  1
  H  H11  1  0.77243148  0.98930823  0.77378267  1
  H  H12  1  0.00107589  0.41191560  0.89925089  1
  H  H13  1  0.99892411  0.58808440  0.10074911  1
  H  H14  1  0.60530443  0.22265484  0.99209996  1
  H  H15  1  0.39469557  0.77734516  0.00790004  1
  H  H16  1  0.39377904  0.18138554  0.41675921  1
  H  H17  1  0.60622096  0.81861446  0.58324079  1
  H  H18  1  0.70327895  0.33595078  0.23180373  1
  H  H19  1  0.29672105  0.66404922  0.76819627  1
  H  H20  1  0.21786457  0.35250112  0.90491740  1
  H  H21  1  0.78213543  0.64749888  0.09508260  1
  H  H22  1  0.01753859  0.44700288  0.28916331  1
  H  H23  1  0.98246141  0.55299712  0.71083669  1
  H  H24  1  0.38764258  0.09075349  0.11743273  1
  H  H25  1  0.61235742  0.90924651  0.88256727  1
  H  H26  1  0.95319471  0.86083608  0.28173475  1
  H  H27  1  0.04680529  0.13916392  0.71826525  1
  Se  Se0  1  0.72105799  0.59821348  0.45347284  1
  Se  Se1  1  0.27894201  0.40178652  0.54652716  1
  Se  Se2  1  0.49622679  0.44704030  0.85548113  1
  Se  Se3  1  0.50377321  0.55295970  0.14451887  1
  Se  Se4  1  0.84333983  0.14715453  0.56442009  1
  Se  Se5  1  0.15666017  0.85284547  0.43557991  1
  O  O0  1  0.79876785  0.24205586  0.24682818  1
  O  O1  1  0.20123215  0.75794414  0.75317182  1
  O  O2  1  0.62861481  0.12386399  0.04542634  1
  O  O3  1  0.37138519  0.87613601  0.95457366  1
  O  O4  1  0.44882340  0.10148980  0.36119575  1
  O  O5  1  0.55117660  0.89851020  0.63880425  1
  O  O6  1  0.87937306  0.89895417  0.21369281  1
  O  O7  1  0.12062694  0.10104583  0.78630719  1
  O  O8  1  0.10289776  0.42442425  0.20005353  1
  O  O9  1  0.89710224  0.57557575  0.79994647  1
  O  O10  1  0.08754751  0.32443833  0.93631686  1
  O  O11  1  0.91245249  0.67556167  0.06368314  1
  O  O12  1  0.25302084  0.07287013  0.13683740  1
  O  O13  1  0.74697916  0.92712987  0.86316260  1
loop_
_geom_bond_atom_site_label_1
_geom_bond_atom_site_label_2
_geom_bond_distance
_geom_bond_site_symmetry_2
Li0 O6 1.891710 1_545
Li0 O4 1.917796 1_555
Li0 O2 1.947068 1_555
Li0 O0 1.982796 1_555
Li1 O7 1.891710 1_565
Li1 O5 1.917796 1_555
Li1 O3 1.947068 1_555
Li1 O1 1.982796 1_555
Li2 O12 1.946343 1_555
Li2 O0 1.946841 1_455
Li2 O10 1.952076 1_554
Li2 O8 1.974657 1_555
Li3 O13 1.946343 1_555
Li3 O1 1.946841 1_655
Li3 O11 1.952076 1_556
Li3 O9 1.974657 1_555
H0 O0 0.987970 1_555
H1 O1 0.987970 1_555
H2 O8 0.987066 1_555
H3 O9 0.987066 1_555
H4 O4 0.977692 1_555
H5 O5 0.977692 1_555
H6 O6 0.978901 1_555
H7 O7 0.978901 1_555
H8 O2 0.988227 1_556
H9 O3 0.988227 1_554
H10 O12 0.985876 1_555
H11 O13 0.985876 1_555
H12 O10 0.984176 1_555
H13 O11 0.984176 1_555
H14 O2 0.982193 1_556
H15 O3 0.982193 1_554
H16 O4 0.973478 1_555
H17 O5 0.973478 1_555
H18 O0 0.987399 1_555
H19 O1 0.987399 1_555
H20 O10 0.988780 1_555
H21 O11 0.988780 1_555
H22 O8 0.977174 1_555
H23 O9 0.977174 1_555
H24 O12 0.988115 1_555
H25 O13 0.988115 1_555
H26 O6 0.975507 1_555
H27 O7 0.975507 1_555
Se0 Sn0 2.603307 1_555
Se0 Sn1 2.610887 1_555
Se1 Sn1 2.603307 1_555
Se1 Sn0 2.610887 1_555
Se2 Sn0 2.491951 1_555
Se3 Sn1 2.491951 1_555
Se4 Sn0 2.470306 1_555
Se5 Sn1 2.470306 1_555
