# generated using pymatgen
data_Y4ZrNi25
_symmetry_space_group_name_H-M   'P 1'
_cell_length_a   3.92627900
_cell_length_b   4.87616855
_cell_length_c   21.18086928
_cell_angle_alpha   83.39015787
_cell_angle_beta   90.00000000
_cell_angle_gamma   90.00000000
_symmetry_Int_Tables_number   1
_chemical_formula_structural   Y4ZrNi25
_chemical_formula_sum   'Y4 Zr1 Ni25'
_cell_volume   402.81650525
_cell_formula_units_Z   1
loop_
 _symmetry_equiv_pos_site_id
 _symmetry_equiv_pos_as_xyz
  1  'x, y, z'
loop_
 _atom_site_type_symbol
 _atom_site_label
 _atom_site_symmetry_multiplicity
 _atom_site_fract_x
 _atom_site_fract_y
 _atom_site_fract_z
 _atom_site_occupancy
  Y  Y0  1  0.00000000  0.39991800  0.20011800  1
  Y  Y1  1  0.00000000  0.80000200  0.39995000  1
  Y  Y2  1  0.00000000  0.19995200  0.60005000  1
  Y  Y3  1  0.00000000  0.60003600  0.79988200  1
  Zr  Zr0  1  0.00000000  0.99997400  0.00000000  1
  Ni  Ni0  1  0.00000000  0.93427400  0.13142000  1
  Ni  Ni1  1  0.00000000  0.33325700  0.33343200  1
  Ni  Ni2  1  0.00000000  0.73327100  0.53340900  1
  Ni  Ni3  1  0.00000000  0.13326300  0.73342600  1
  Ni  Ni4  1  0.00000000  0.53229200  0.93534900  1
  Ni  Ni5  1  0.00000000  0.46764000  0.06465100  1
  Ni  Ni6  1  0.00000000  0.86668900  0.26657400  1
  Ni  Ni7  1  0.00000000  0.26668000  0.46659100  1
  Ni  Ni8  1  0.00000000  0.66669000  0.66656800  1
  Ni  Ni9  1  0.00000000  0.06569400  0.86858000  1
  Ni  Ni10  1  0.50000000  0.50000300  0.00000000  1
  Ni  Ni11  1  0.50000000  0.90004900  0.19989300  1
  Ni  Ni12  1  0.50000000  0.30000000  0.39999400  1
  Ni  Ni13  1  0.50000000  0.69999400  0.60000600  1
  Ni  Ni14  1  0.50000000  0.09994200  0.80010700  1
  Ni  Ni15  1  0.50000000  0.19753900  0.09875700  1
  Ni  Ni16  1  0.50000000  0.60011900  0.29997200  1
  Ni  Ni17  1  0.50000000  0.99998800  0.50000100  1
  Ni  Ni18  1  0.50000000  0.39985500  0.70003200  1
  Ni  Ni19  1  0.50000000  0.80243500  0.90124500  1
  Ni  Ni20  1  0.50000000  0.70368000  0.09875500  1
  Ni  Ni21  1  0.50000000  0.09988800  0.29996800  1
  Ni  Ni22  1  0.50000000  0.49998900  0.49999900  1
  Ni  Ni23  1  0.50000000  0.90009000  0.70002800  1
  Ni  Ni24  1  0.50000000  0.29629600  0.90124300  1
loop_
_geom_bond_atom_site_label_1
_geom_bond_atom_site_label_2
_geom_bond_distance
_geom_bond_site_symmetry_2
Ni0 Ni20 2.403333 1_455
Ni0 Ni20 2.403333 1_555
Ni0 Ni15 2.403339 1_565
Ni0 Ni15 2.403339 1_465
Ni0 Ni11 2.435050 1_455
Ni0 Ni11 2.435050 1_555
Ni0 Zr0 2.765087 1_555
Ni0 Ni5 2.813778 1_565
Ni0 Ni5 2.813935 1_555
Ni0 Y0 2.834308 1_565
Ni0 Y0 2.834367 1_555
Ni1 Ni12 2.411479 1_455
Ni1 Ni12 2.411479 1_555
Ni1 Ni21 2.415971 1_455
Ni1 Ni21 2.415971 1_555
Ni1 Ni16 2.416023 1_555
Ni1 Ni16 2.416023 1_455
Ni1 Y0 2.804937 1_555
Ni1 Y1 2.811207 1_545
Ni1 Y1 2.811241 1_555
Ni2 Ni22 2.415360 1_555
Ni2 Ni22 2.415360 1_455
Ni2 Y1 2.807988 1_555
Ni2 Y2 2.812507 1_555
Ni2 Y2 2.812519 1_565
Ni3 Y2 2.806242 1_555
Ni3 Y3 2.810570 1_545
Ni3 Y3 2.810579 1_555
Ni4 Ni5 2.720524 1_556
Ni4 Zr0 2.791844 1_546
Ni4 Zr0 2.791907 1_556
Ni4 Ni9 2.813783 1_555
Ni4 Ni9 2.813931 1_565
Ni4 Y3 2.850237 1_555
Ni5 Zr0 2.791839 1_545
Ni5 Zr0 2.791912 1_555
Ni5 Y0 2.850237 1_555
Ni6 Y1 2.806242 1_555
Ni6 Y0 2.810570 1_555
Ni6 Y0 2.810579 1_565
Ni7 Y2 2.807988 1_555
Ni7 Y1 2.812507 1_545
Ni7 Y1 2.812519 1_555
Ni8 Y3 2.804937 1_555
Ni8 Y2 2.811211 1_555
Ni8 Y2 2.811236 1_565
Ni9 Zr0 2.765087 1_546
Ni9 Y3 2.834308 1_555
Ni9 Y3 2.834367 1_545
Ni10 Ni4 2.388353 1_654
Ni10 Ni4 2.388353 1_554
Ni10 Ni5 2.388353 1_555
Ni10 Ni5 2.388353 1_655
Ni10 Ni20 2.416590 1_555
Ni10 Ni19 2.416590 1_554
Ni10 Ni24 2.416703 1_554
Ni10 Ni15 2.416703 1_555
Ni10 Zr0 3.130093 1_655
Ni10 Zr0 3.130093 1_555
Ni10 Zr0 3.130313 1_645
Ni10 Zr0 3.130313 1_545
Ni11 Ni6 2.412934 1_555
Ni11 Ni6 2.412934 1_655
Ni11 Ni21 2.432712 1_565
Ni11 Ni16 2.432819 1_555
Ni11 Ni15 2.444933 1_565
Ni11 Ni20 2.445008 1_555
Ni11 Y0 3.130136 1_565
Ni11 Y0 3.130136 1_665
Ni11 Y0 3.130277 1_555
Ni11 Y0 3.130277 1_655
Ni12 Ni7 2.411907 1_555
Ni12 Ni7 2.411907 1_655
Ni12 Ni22 2.431718 1_555
Ni12 Ni17 2.431797 1_545
Ni12 Ni16 2.432313 1_555
Ni12 Ni21 2.432427 1_555
Ni12 Y1 3.130127 1_555
Ni12 Y1 3.130127 1_655
Ni12 Y1 3.130279 1_545
Ni12 Y1 3.130279 1_645
Ni13 Ni8 2.411479 1_555
Ni13 Ni8 2.411479 1_655
Ni13 Ni2 2.411907 1_655
Ni13 Ni2 2.411907 1_555
Ni13 Ni17 2.431719 1_555
Ni13 Ni22 2.431796 1_555
Ni13 Ni23 2.432310 1_555
Ni13 Ni18 2.432430 1_555
Ni13 Y2 3.130127 1_565
Ni13 Y2 3.130127 1_665
Ni13 Y2 3.130279 1_655
Ni13 Y2 3.130279 1_555
Ni14 Ni3 2.412934 1_555
Ni14 Ni3 2.412934 1_655
Ni14 Ni18 2.432710 1_555
Ni14 Ni23 2.432822 1_545
Ni14 Ni9 2.435050 1_555
Ni14 Ni9 2.435050 1_655
Ni14 Ni24 2.444932 1_555
Ni14 Ni19 2.445008 1_545
Ni14 Y3 3.130136 1_555
Ni14 Y3 3.130136 1_655
Ni14 Y3 3.130277 1_645
Ni14 Y3 3.130277 1_545
Ni15 Ni20 2.408145 1_545
Ni15 Ni5 2.427216 1_555
Ni15 Ni5 2.427216 1_655
Ni15 Ni20 2.468024 1_555
Ni15 Zr0 3.101830 1_645
Ni15 Zr0 3.101830 1_545
Ni15 Y0 3.150356 1_655
Ni15 Y0 3.150356 1_555
Ni16 Ni6 2.415001 1_555
Ni16 Ni6 2.415001 1_655
Ni16 Ni21 2.436948 1_565
Ni16 Ni21 2.439220 1_555
Ni16 Y0 3.123369 1_655
Ni16 Y0 3.123369 1_555
Ni16 Y1 3.124638 1_555
Ni16 Y1 3.124638 1_655
Ni17 Ni7 2.415360 1_665
Ni17 Ni7 2.415360 1_565
Ni17 Ni2 2.415412 1_655
Ni17 Ni2 2.415412 1_555
Ni17 Ni22 2.438084 1_555
Ni17 Ni22 2.438084 1_565
Ni17 Y2 3.125865 1_565
Ni17 Y2 3.125865 1_665
Ni17 Y1 3.125937 1_555
Ni17 Y1 3.125937 1_655
Ni18 Ni3 2.415036 1_655
Ni18 Ni3 2.415036 1_555
Ni18 Ni8 2.415976 1_655
Ni18 Ni8 2.415976 1_555
Ni18 Ni23 2.436948 1_545
Ni18 Ni23 2.439220 1_555
Ni18 Y3 3.123271 1_655
Ni18 Y3 3.123271 1_555
Ni18 Y2 3.124736 1_655
Ni18 Y2 3.124736 1_555
Ni19 Ni9 2.403333 1_665
Ni19 Ni9 2.403333 1_565
Ni19 Ni24 2.408145 1_565
Ni19 Ni4 2.427310 1_555
Ni19 Ni4 2.427310 1_655
Ni19 Ni24 2.468024 1_555
Ni19 Zr0 3.101750 1_556
Ni19 Zr0 3.101750 1_656
Ni19 Y3 3.150425 1_655
Ni19 Y3 3.150425 1_555
Ni20 Ni5 2.427313 1_555
Ni20 Ni5 2.427313 1_655
Ni20 Zr0 3.101750 1_555
Ni20 Zr0 3.101750 1_655
Ni20 Y0 3.150425 1_655
Ni20 Y0 3.150425 1_555
Ni21 Ni6 2.415038 1_645
Ni21 Ni6 2.415038 1_545
Ni21 Y0 3.123269 1_555
Ni21 Y0 3.123269 1_655
Ni21 Y1 3.124738 1_645
Ni21 Y1 3.124738 1_545
Ni22 Ni7 2.415412 1_555
Ni22 Ni7 2.415412 1_655
Ni22 Y1 3.125865 1_555
Ni22 Y1 3.125865 1_655
Ni22 Y2 3.125937 1_555
Ni22 Y2 3.125937 1_655
Ni23 Ni3 2.415003 1_665
Ni23 Ni3 2.415003 1_565
Ni23 Ni8 2.416018 1_555
Ni23 Ni8 2.416018 1_655
Ni23 Y3 3.123367 1_655
Ni23 Y3 3.123367 1_555
Ni23 Y2 3.124640 1_565
Ni23 Y2 3.124640 1_665
Ni24 Ni9 2.403338 1_655
Ni24 Ni9 2.403338 1_555
Ni24 Ni4 2.427218 1_655
Ni24 Ni4 2.427218 1_555
Ni24 Zr0 3.101830 1_646
Ni24 Zr0 3.101830 1_546
Ni24 Y3 3.150356 1_655
Ni24 Y3 3.150356 1_555
