# generated using pymatgen
data_HfCrGe2
_symmetry_space_group_name_H-M   'P 1'
_cell_length_a   8.16733700
_cell_length_b   9.26422400
_cell_length_c   10.00192300
_cell_angle_alpha   90.00000000
_cell_angle_beta   90.00000000
_cell_angle_gamma   90.00000000
_symmetry_Int_Tables_number   1
_chemical_formula_structural   HfCrGe2
_chemical_formula_sum   'Hf12 Cr12 Ge24'
_cell_volume   756.78589646
_cell_formula_units_Z   12
loop_
 _symmetry_equiv_pos_site_id
 _symmetry_equiv_pos_as_xyz
  1  'x, y, z'
loop_
 _atom_site_type_symbol
 _atom_site_label
 _atom_site_symmetry_multiplicity
 _atom_site_fract_x
 _atom_site_fract_y
 _atom_site_fract_z
 _atom_site_occupancy
  Hf  Hf0  1  0.74528300  0.82874400  0.04729700  1
  Hf  Hf1  1  0.74528300  0.17125600  0.95270300  1
  Hf  Hf2  1  0.25471700  0.67125600  0.54729700  1
  Hf  Hf3  1  0.25471700  0.32874400  0.45270300  1
  Hf  Hf4  1  0.25471700  0.17125600  0.95270300  1
  Hf  Hf5  1  0.25471700  0.82874400  0.04729700  1
  Hf  Hf6  1  0.74528300  0.32874400  0.45270300  1
  Hf  Hf7  1  0.74528300  0.67125600  0.54729700  1
  Hf  Hf8  1  0.50000000  0.83429200  0.32134200  1
  Hf  Hf9  1  0.50000000  0.16570800  0.67865800  1
  Hf  Hf10  1  0.50000000  0.66570800  0.82134200  1
  Hf  Hf11  1  0.50000000  0.33429200  0.17865800  1
  Cr  Cr0  1  0.74878400  0.58517200  0.24757200  1
  Cr  Cr1  1  0.74878400  0.41482800  0.75242800  1
  Cr  Cr2  1  0.25121600  0.91482800  0.74757200  1
  Cr  Cr3  1  0.25121600  0.08517200  0.25242800  1
  Cr  Cr4  1  0.25121600  0.41482800  0.75242800  1
  Cr  Cr5  1  0.25121600  0.58517200  0.24757200  1
  Cr  Cr6  1  0.74878400  0.08517200  0.25242800  1
  Cr  Cr7  1  0.74878400  0.91482800  0.74757200  1
  Cr  Cr8  1  0.74345100  0.00000000  0.50000000  1
  Cr  Cr9  1  0.25654900  0.50000000  0.00000000  1
  Cr  Cr10  1  0.25654900  0.00000000  0.50000000  1
  Cr  Cr11  1  0.74345100  0.50000000  0.00000000  1
  Ge  Ge0  1  0.84251800  0.83490500  0.31787700  1
  Ge  Ge1  1  0.84251800  0.16509500  0.68212300  1
  Ge  Ge2  1  0.15748200  0.66509500  0.81787700  1
  Ge  Ge3  1  0.15748200  0.33490500  0.18212300  1
  Ge  Ge4  1  0.15748200  0.16509500  0.68212300  1
  Ge  Ge5  1  0.15748200  0.83490500  0.31787700  1
  Ge  Ge6  1  0.84251800  0.33490500  0.18212300  1
  Ge  Ge7  1  0.84251800  0.66509500  0.81787700  1
  Ge  Ge8  1  0.50000000  0.54082900  0.37863700  1
  Ge  Ge9  1  0.50000000  0.45917100  0.62136300  1
  Ge  Ge10  1  0.50000000  0.95917100  0.87863700  1
  Ge  Ge11  1  0.50000000  0.04082900  0.12136300  1
  Ge  Ge12  1  0.00000000  0.54778700  0.37770800  1
  Ge  Ge13  1  0.00000000  0.45221300  0.62229200  1
  Ge  Ge14  1  0.00000000  0.95221300  0.87770800  1
  Ge  Ge15  1  0.00000000  0.04778700  0.12229200  1
  Ge  Ge16  1  0.50000000  0.63401200  0.10132600  1
  Ge  Ge17  1  0.50000000  0.36598800  0.89867400  1
  Ge  Ge18  1  0.50000000  0.86598800  0.60132600  1
  Ge  Ge19  1  0.50000000  0.13401200  0.39867400  1
  Ge  Ge20  1  0.00000000  0.62704100  0.09689700  1
  Ge  Ge21  1  0.00000000  0.37295900  0.90310300  1
  Ge  Ge22  1  0.00000000  0.87295900  0.59689700  1
  Ge  Ge23  1  0.00000000  0.12704100  0.40310300  1
loop_
_geom_bond_atom_site_label_1
_geom_bond_atom_site_label_2
_geom_bond_distance
_geom_bond_site_symmetry_2
Cr0 Ge8 2.452723 1_555
Cr0 Ge12 2.454360 1_655
Cr0 Ge6 2.527880 1_555
Cr0 Ge0 2.536378 1_555
Cr0 Ge16 2.544202 1_555
Cr0 Ge20 2.575144 1_655
Cr1 Ge9 2.452723 1_555
Cr1 Ge13 2.454360 1_655
Cr1 Ge7 2.527880 1_555
Cr1 Ge1 2.536378 1_555
Cr1 Ge17 2.544202 1_555
Cr1 Ge21 2.575144 1_655
Cr2 Ge10 2.452723 1_555
Cr2 Ge14 2.454360 1_555
Cr2 Ge4 2.527880 1_565
Cr2 Ge2 2.536378 1_555
Cr2 Ge18 2.544202 1_555
Cr2 Ge22 2.575144 1_555
Cr3 Ge11 2.452723 1_555
Cr3 Ge15 2.454360 1_555
Cr3 Ge5 2.527880 1_545
Cr3 Ge3 2.536378 1_555
Cr3 Ge19 2.544202 1_555
Cr3 Ge23 2.575144 1_555
Cr4 Ge9 2.452723 1_555
Cr4 Ge13 2.454360 1_555
Cr4 Ge2 2.527880 1_555
Cr4 Ge4 2.536378 1_555
Cr4 Ge17 2.544202 1_555
Cr4 Ge21 2.575144 1_555
Cr5 Ge8 2.452723 1_555
Cr5 Ge12 2.454360 1_555
Cr5 Ge3 2.527880 1_555
Cr5 Ge5 2.536378 1_555
Cr5 Ge16 2.544202 1_555
Cr5 Ge20 2.575144 1_555
Cr6 Ge11 2.452723 1_555
Cr6 Ge15 2.454360 1_655
Cr6 Ge0 2.527880 1_545
Cr6 Ge6 2.536378 1_555
Cr6 Ge19 2.544202 1_555
Cr6 Ge23 2.575144 1_655
Cr7 Ge10 2.452723 1_555
Cr7 Ge14 2.454360 1_655
Cr7 Ge1 2.527880 1_565
Cr7 Ge7 2.536378 1_555
Cr7 Ge18 2.544202 1_555
Cr7 Ge22 2.575144 1_655
Cr8 Ge0 2.512393 1_545
Cr8 Ge1 2.512393 1_555
Cr8 Ge19 2.553816 1_555
Cr8 Ge18 2.553816 1_545
Cr8 Ge23 2.591297 1_655
Cr8 Ge22 2.591297 1_645
Cr9 Ge3 2.512393 1_555
Cr9 Ge2 2.512393 1_554
Cr9 Ge16 2.553816 1_555
Cr9 Ge17 2.553816 1_554
Cr9 Ge20 2.591297 1_555
Cr9 Ge21 2.591297 1_554
Cr10 Ge5 2.512393 1_545
Cr10 Ge4 2.512393 1_555
Cr10 Ge19 2.553816 1_555
Cr10 Ge18 2.553816 1_545
Cr10 Ge23 2.591297 1_555
Cr10 Ge22 2.591297 1_545
Cr11 Ge6 2.512393 1_555
Cr11 Ge7 2.512393 1_554
Cr11 Ge16 2.553816 1_555
Cr11 Ge17 2.553816 1_554
Cr11 Ge20 2.591297 1_655
Cr11 Ge21 2.591297 1_654
Ge0 Ge5 2.572417 1_655
Ge0 Hf8 2.797680 1_555
Ge0 Hf0 2.821011 1_555
Ge0 Hf7 2.862613 1_555
Ge1 Ge4 2.572417 1_655
Ge1 Hf9 2.797680 1_555
Ge1 Hf1 2.821011 1_555
Ge1 Hf6 2.862613 1_555
Ge2 Ge7 2.572417 1_455
Ge2 Hf10 2.797680 1_555
Ge2 Hf2 2.821011 1_555
Ge2 Hf5 2.862613 1_556
Ge3 Ge6 2.572417 1_455
Ge3 Hf11 2.797680 1_555
Ge3 Hf3 2.821011 1_555
Ge3 Hf4 2.862613 1_554
Ge4 Hf9 2.797680 1_555
Ge4 Hf4 2.821011 1_555
Ge4 Hf3 2.862613 1_555
Ge5 Hf8 2.797680 1_555
Ge5 Hf5 2.821011 1_555
Ge5 Hf2 2.862613 1_555
Ge6 Hf11 2.797680 1_555
Ge6 Hf6 2.821011 1_555
Ge6 Hf1 2.862613 1_554
Ge7 Hf10 2.797680 1_555
Ge7 Hf7 2.821011 1_555
Ge7 Hf0 2.862613 1_556
Ge8 Ge9 2.542862 1_555
Ge8 Hf11 2.767999 1_555
Ge8 Hf8 2.778447 1_555
Ge8 Hf2 2.884261 1_555
Ge8 Hf7 2.884261 1_555
Ge8 Hf3 2.902152 1_555
Ge8 Hf6 2.902152 1_555
Ge9 Hf10 2.767999 1_555
Ge9 Hf9 2.778447 1_555
Ge9 Hf6 2.884261 1_555
Ge9 Hf3 2.884261 1_555
Ge9 Hf2 2.902152 1_555
Ge9 Hf7 2.902152 1_555
Ge10 Ge11 2.542862 1_566
Ge10 Hf9 2.767999 1_565
Ge10 Hf10 2.778447 1_555
Ge10 Hf5 2.884261 1_556
Ge10 Hf0 2.884261 1_556
Ge10 Hf4 2.902152 1_565
Ge10 Hf1 2.902152 1_565
Ge11 Hf8 2.767999 1_545
Ge11 Hf11 2.778447 1_555
Ge11 Hf4 2.884261 1_554
Ge11 Hf1 2.884261 1_554
Ge11 Hf5 2.902152 1_545
Ge11 Hf0 2.902152 1_545
Ge12 Ge13 2.601615 1_555
Ge12 Hf7 2.917777 1_455
Ge12 Hf2 2.917777 1_555
Ge12 Hf3 3.001408 1_555
Ge12 Hf6 3.001408 1_455
Ge13 Hf3 2.917777 1_555
Ge13 Hf6 2.917777 1_455
Ge13 Hf7 3.001408 1_455
Ge13 Hf2 3.001408 1_555
Ge14 Ge15 2.601615 1_566
Ge14 Hf0 2.917777 1_456
Ge14 Hf5 2.917777 1_556
Ge14 Hf4 3.001408 1_565
Ge14 Hf1 3.001408 1_465
Ge15 Hf1 2.917777 1_454
Ge15 Hf4 2.917777 1_554
Ge15 Hf0 3.001408 1_445
Ge15 Hf5 3.001408 1_545
Ge16 Hf5 2.749516 1_555
Ge16 Hf0 2.749516 1_555
Ge16 Hf10 2.815731 1_554
Ge16 Hf8 2.878406 1_555
Ge16 Hf11 2.882389 1_555
Ge17 Hf4 2.749516 1_555
Ge17 Hf1 2.749516 1_555
Ge17 Hf11 2.815731 1_556
Ge17 Hf9 2.878406 1_555
Ge17 Hf10 2.882389 1_555
Ge18 Hf2 2.749516 1_555
Ge18 Hf7 2.749516 1_555
Ge18 Hf8 2.815731 1_555
Ge18 Hf10 2.878406 1_555
Ge18 Hf9 2.882389 1_565
Ge19 Hf3 2.749516 1_555
Ge19 Hf6 2.749516 1_555
Ge19 Hf9 2.815731 1_555
Ge19 Hf11 2.878406 1_555
Ge19 Hf8 2.882389 1_545
Ge20 Hf5 2.840027 1_555
Ge20 Hf0 2.840027 1_455
Ge21 Hf1 2.840027 1_455
Ge21 Hf4 2.840027 1_555
Ge22 Hf2 2.840027 1_555
Ge22 Hf7 2.840027 1_455
Ge23 Hf6 2.840027 1_455
Ge23 Hf3 2.840027 1_555
