# generated using pymatgen
data_CsLa3
_symmetry_space_group_name_H-M   'P 1'
_cell_length_a   6.73202295
_cell_length_b   6.73202295
_cell_length_c   6.73202295
_cell_angle_alpha   131.93694677
_cell_angle_beta   131.93694677
_cell_angle_gamma   70.32863085
_symmetry_Int_Tables_number   1
_chemical_formula_structural   CsLa3
_chemical_formula_sum   'Cs1 La3'
_cell_volume   165.45723902
_cell_formula_units_Z   1
loop_
 _symmetry_equiv_pos_site_id
 _symmetry_equiv_pos_as_xyz
  1  'x, y, z'
loop_
 _atom_site_type_symbol
 _atom_site_label
 _atom_site_symmetry_multiplicity
 _atom_site_fract_x
 _atom_site_fract_y
 _atom_site_fract_z
 _atom_site_occupancy
  Cs  Cs0  1  0.00000000  0.00000000  0.00000000  1
  La  La0  1  0.75000000  0.25000000  0.50000000  1
  La  La1  1  0.25000000  0.75000000  0.50000000  1
  La  La2  1  0.50000000  0.50000000  0.00000000  1
loop_
_geom_bond_atom_site_label_1
_geom_bond_atom_site_label_2
_geom_bond_distance
_geom_bond_site_symmetry_2
Cs0 La2 3.877129 1_444
Cs0 La2 3.877129 1_556
Cs0 La2 3.877129 1_455
Cs0 La2 3.877129 1_545
Cs0 La1 3.884336 1_555
Cs0 La1 3.884336 1_545
Cs0 La0 3.884336 1_455
Cs0 La0 3.884336 1_454
Cs0 La1 3.884336 1_544
Cs0 La1 3.884336 1_444
Cs0 La0 3.884336 1_555
Cs0 La0 3.884336 1_444
La0 La1 3.877129 1_555
La0 La1 3.877129 1_645
La0 La1 3.877129 1_544
La0 La1 3.877129 1_656
La0 La2 3.884336 1_556
La0 La2 3.884336 1_555
La0 La2 3.884336 1_545
La0 La2 3.884336 1_656
La1 La2 3.884336 1_455
La1 La2 3.884336 1_556
La1 La2 3.884336 1_555
La1 La2 3.884336 1_566
