# generated using pymatgen
data_Ba(Cr5S8)2
_symmetry_space_group_name_H-M   'P 1'
_cell_length_a   6.85226963
_cell_length_b   9.13229003
_cell_length_c   9.28916427
_cell_angle_alpha   72.02365558
_cell_angle_beta   68.78018678
_cell_angle_gamma   79.27118934
_symmetry_Int_Tables_number   1
_chemical_formula_structural   Ba(Cr5S8)2
_chemical_formula_sum   'Ba1 Cr10 S16'
_cell_volume   513.60272334
_cell_formula_units_Z   1
loop_
 _symmetry_equiv_pos_site_id
 _symmetry_equiv_pos_as_xyz
  1  'x, y, z'
loop_
 _atom_site_type_symbol
 _atom_site_label
 _atom_site_symmetry_multiplicity
 _atom_site_fract_x
 _atom_site_fract_y
 _atom_site_fract_z
 _atom_site_occupancy
  Ba  Ba0  1  0.00000000  0.00000000  -0.00000000  1
  Cr  Cr0  1  0.83815868  0.68206766  0.47938377  1
  Cr  Cr1  1  0.33824411  0.68583912  0.48030384  1
  Cr  Cr2  1  0.66175589  0.31416088  0.51969616  1
  Cr  Cr3  1  0.16184132  0.31793234  0.52061623  1
  Cr  Cr4  1  0.81133931  0.41296197  0.16526066  1
  Cr  Cr5  1  0.31129154  0.40894692  0.16572395  1
  Cr  Cr6  1  0.68870846  0.59105308  0.83427605  1
  Cr  Cr7  1  0.18866069  0.58703803  0.83473934  1
  Cr  Cr8  1  0.50000000  0.00000000  0.50000000  1
  Cr  Cr9  1  0.00000000  0.00000000  0.50000000  1
  S  S0  1  0.78908403  0.15073227  0.34328287  1
  S  S1  1  0.28605772  0.15328919  0.34908212  1
  S  S2  1  0.71394228  0.84671081  0.65091788  1
  S  S3  1  0.21091597  0.84926773  0.65671713  1
  S  S4  1  0.95800089  0.47808862  0.34244488  1
  S  S5  1  0.45816931  0.48033406  0.34354746  1
  S  S6  1  0.54183069  0.51966594  0.65645254  1
  S  S7  1  0.04199911  0.52191138  0.65755512  1
  S  S8  1  0.62893163  0.83112147  0.32434286  1
  S  S9  1  0.12704913  0.83047141  0.32515694  1
  S  S10  1  0.87295087  0.16952859  0.67484306  1
  S  S11  1  0.37106837  0.16887853  0.67565714  1
  S  S12  1  0.34294356  0.65937114  0.98980599  1
  S  S13  1  0.84606750  0.66188623  0.98879981  1
  S  S14  1  0.15393250  0.33811377  0.01120019  1
  S  S15  1  0.65705644  0.34062886  0.01019401  1
loop_
_geom_bond_atom_site_label_1
_geom_bond_atom_site_label_2
_geom_bond_distance
_geom_bond_site_symmetry_2
Ba0 S10 3.285287 1_454
Ba0 S9 3.285287 1_545
Ba0 S8 3.311712 1_445
Ba0 S11 3.311712 1_554
Ba0 S13 3.485394 1_444
Ba0 S14 3.485394 1_555
Ba0 S12 3.536502 1_544
Ba0 S15 3.536502 1_455
Ba0 S3 3.575562 1_544
Ba0 S0 3.575562 1_455
Cr0 S8 2.353831 1_555
Cr0 S2 2.354715 1_555
Cr0 S9 2.356969 1_655
Cr0 S4 2.428860 1_555
Cr0 S6 2.495162 1_555
Cr0 S7 2.499610 1_655
Cr1 S8 2.352714 1_555
Cr1 S9 2.353511 1_555
Cr1 S3 2.379913 1_555
Cr1 S5 2.439857 1_555
Cr1 S6 2.501584 1_555
Cr1 S7 2.502664 1_555
Cr2 S11 2.352714 1_555
Cr2 S10 2.353511 1_555
Cr2 S0 2.379913 1_555
Cr2 S6 2.439857 1_555
Cr2 S5 2.501584 1_555
Cr2 S4 2.502664 1_555
Cr3 S11 2.353831 1_555
Cr3 S1 2.354715 1_555
Cr3 S10 2.356969 1_455
Cr3 S7 2.428860 1_555
Cr3 S5 2.495162 1_555
Cr3 S4 2.499610 1_455
Cr4 S13 2.351637 1_554
Cr4 S15 2.361894 1_555
Cr4 S14 2.366558 1_655
Cr4 S0 2.449854 1_555
Cr4 S4 2.469167 1_555
Cr4 S5 2.480145 1_555
Cr5 S12 2.359851 1_554
Cr5 S14 2.365307 1_555
Cr5 S15 2.370258 1_555
Cr5 S1 2.421672 1_555
Cr5 S4 2.479495 1_455
Cr5 S5 2.505782 1_555
Cr6 S15 2.359851 1_556
Cr6 S13 2.365307 1_555
Cr6 S12 2.370258 1_555
Cr6 S2 2.421672 1_555
Cr6 S7 2.479495 1_655
Cr6 S6 2.505782 1_555
Cr7 S14 2.351637 1_556
Cr7 S12 2.361894 1_555
Cr7 S13 2.366558 1_455
Cr7 S3 2.449854 1_555
Cr7 S7 2.469167 1_555
Cr7 S6 2.480145 1_555
Cr8 S2 2.363561 1_545
Cr8 S1 2.363561 1_555
Cr8 S3 2.372512 1_545
Cr8 S0 2.372512 1_555
Cr8 S11 2.413293 1_555
Cr8 S8 2.413293 1_545
Cr9 S2 2.363947 1_445
Cr9 S1 2.363947 1_555
Cr9 S0 2.376612 1_455
Cr9 S3 2.376612 1_545
Cr9 S9 2.412327 1_545
Cr9 S10 2.412327 1_455
