# generated using pymatgen
data_Sr4Zn(IrO4)3
_symmetry_space_group_name_H-M   'P 1'
_cell_length_a   5.64313300
_cell_length_b   5.67401333
_cell_length_c   7.96440588
_cell_angle_alpha   89.56944717
_cell_angle_beta   89.90874432
_cell_angle_gamma   89.94804615
_symmetry_Int_Tables_number   1
_chemical_formula_structural   Sr4Zn(IrO4)3
_chemical_formula_sum   'Sr4 Zn1 Ir3 O12'
_cell_volume   255.00637386
_cell_formula_units_Z   1
loop_
 _symmetry_equiv_pos_site_id
 _symmetry_equiv_pos_as_xyz
  1  'x, y, z'
loop_
 _atom_site_type_symbol
 _atom_site_label
 _atom_site_symmetry_multiplicity
 _atom_site_fract_x
 _atom_site_fract_y
 _atom_site_fract_z
 _atom_site_occupancy
  Sr  Sr0  1  0.49723300  0.53422700  0.75782100  1
  Sr  Sr1  1  0.00964000  0.03844100  0.75846800  1
  Sr  Sr2  1  0.50276700  0.46577300  0.24217900  1
  Sr  Sr3  1  0.99036000  0.96155900  0.24153200  1
  Zn  Zn0  1  0.00000000  0.50000000  0.00000000  1
  Ir  Ir0  1  0.50000000  0.00000000  0.50000000  1
  Ir  Ir1  1  0.00000000  0.50000000  0.50000000  1
  Ir  Ir2  1  0.50000000  0.00000000  0.00000000  1
  O  O0  1  0.22510900  0.79020200  0.97037400  1
  O  O1  1  0.29801000  0.29904600  0.53803900  1
  O  O2  1  0.79837500  0.20292100  0.46345800  1
  O  O3  1  0.70744100  0.72392400  0.03246000  1
  O  O4  1  0.77489100  0.20979800  0.02962600  1
  O  O5  1  0.70199000  0.70095400  0.46196100  1
  O  O6  1  0.20162500  0.79707900  0.53654200  1
  O  O7  1  0.29255900  0.27607600  0.96754000  1
  O  O8  1  0.57379200  0.98736400  0.75105400  1
  O  O9  1  0.94010000  0.49302400  0.74058000  1
  O  O10  1  0.42620800  0.01263600  0.24894600  1
  O  O11  1  0.05990000  0.50697600  0.25942000  1
loop_
_geom_bond_atom_site_label_1
_geom_bond_atom_site_label_2
_geom_bond_distance
_geom_bond_site_symmetry_2
Ir0 O10 2.043764 1_555
Ir0 O8 2.043764 1_545
Ir0 O6 2.059701 1_545
Ir0 O2 2.059701 1_555
Ir0 O1 2.067190 1_555
Ir0 O5 2.067190 1_545
Ir1 O11 1.945250 1_555
Ir1 O9 1.945250 1_455
Ir1 O1 2.052554 1_555
Ir1 O5 2.052554 1_455
Ir1 O6 2.057313 1_555
Ir1 O2 2.057313 1_455
Ir2 O7 1.970412 1_554
Ir2 O3 1.970412 1_545
Ir2 O4 1.971756 1_555
Ir2 O0 1.971756 1_544
Ir2 O8 2.027097 1_544
Ir2 O10 2.027097 1_555
O0 Zn0 2.092298 1_556
O0 Sr1 2.505678 1_565
O0 Sr0 2.712571 1_555
O0 Sr3 2.717397 1_456
O1 Sr0 2.480465 1_555
O1 Sr2 2.782488 1_555
O1 Sr1 2.805878 1_555
O2 Sr3 2.490167 1_545
O2 Sr1 2.790481 1_655
O2 Sr2 2.842242 1_555
O3 Zn0 2.099174 1_655
O3 Sr2 2.495905 1_555
O3 Sr3 2.680632 1_555
O3 Sr0 2.719571 1_554
O4 Zn0 2.092298 1_655
O4 Sr3 2.505678 1_545
O4 Sr2 2.712571 1_555
O4 Sr1 2.717397 1_654
O5 Sr2 2.480465 1_555
O5 Sr0 2.782488 1_555
O5 Sr3 2.805878 1_555
O6 Sr1 2.490167 1_565
O6 Sr3 2.790481 1_455
O6 Sr0 2.842242 1_555
O7 Zn0 2.099174 1_556
O7 Sr0 2.495905 1_555
O7 Sr1 2.680632 1_555
O7 Sr2 2.719571 1_556
O8 Sr1 2.477674 1_665
O8 Sr0 2.607680 1_555
O9 Zn0 2.094799 1_656
O9 Sr0 2.513489 1_555
O9 Sr1 2.611504 1_655
O10 Sr3 2.477674 1_445
O10 Sr2 2.607680 1_555
O11 Zn0 2.094799 1_555
O11 Sr2 2.513489 1_555
O11 Sr3 2.611504 1_455
