# generated using pymatgen
data_Mg4Si3
_symmetry_space_group_name_H-M   'P 1'
_cell_length_a   6.10939500
_cell_length_b   6.99636686
_cell_length_c   7.49603089
_cell_angle_alpha   111.89438408
_cell_angle_beta   105.52933353
_cell_angle_gamma   102.76093049
_symmetry_Int_Tables_number   1
_chemical_formula_structural   Mg4Si3
_chemical_formula_sum   'Mg8 Si6'
_cell_volume   267.37657432
_cell_formula_units_Z   2
loop_
 _symmetry_equiv_pos_site_id
 _symmetry_equiv_pos_as_xyz
  1  'x, y, z'
loop_
 _atom_site_type_symbol
 _atom_site_label
 _atom_site_symmetry_multiplicity
 _atom_site_fract_x
 _atom_site_fract_y
 _atom_site_fract_z
 _atom_site_occupancy
  Mg  Mg0  1  0.56790500  0.25674000  0.16863700  1
  Mg  Mg1  1  0.87187000  0.14385800  0.91412800  1
  Mg  Mg2  1  0.82432100  0.66525100  0.61145200  1
  Mg  Mg3  1  0.75233100  0.90826100  0.29395900  1
  Mg  Mg4  1  0.43209500  0.74326000  0.83136300  1
  Mg  Mg5  1  0.12813000  0.85614200  0.08587200  1
  Mg  Mg6  1  0.24766900  0.09173900  0.70604100  1
  Mg  Mg7  1  0.17567900  0.33474900  0.38854800  1
  Si  Si0  1  0.68304800  0.47797300  0.90847600  1
  Si  Si1  1  0.45597200  0.81672200  0.49563700  1
  Si  Si2  1  0.00777200  0.62958300  0.29566200  1
  Si  Si3  1  0.99222800  0.37041700  0.70433800  1
  Si  Si4  1  0.31695200  0.52202700  0.09152400  1
  Si  Si5  1  0.54402800  0.18327800  0.50436300  1
loop_
_geom_bond_atom_site_label_1
_geom_bond_atom_site_label_2
_geom_bond_distance
_geom_bond_site_symmetry_2
Mg0 Si4 2.777112 1_555
Mg0 Si5 2.783322 1_555
Mg0 Si2 2.934878 1_655
Mg0 Si0 3.032915 1_554
Mg1 Si3 2.736708 1_555
Mg1 Si0 2.834759 1_555
Mg1 Si4 2.902442 1_656
Mg1 Si1 3.056722 1_545
Mg1 Si2 3.263584 1_656
Mg2 Si3 2.723155 1_555
Mg2 Si1 2.763073 1_555
Mg2 Si2 2.832937 1_655
Mg2 Si5 3.105122 1_555
Mg2 Si0 3.181846 1_555
Mg3 Si2 2.754839 1_655
Mg3 Si1 2.765742 1_555
Mg3 Si5 2.775341 1_565
Mg3 Si4 2.878388 1_555
Mg3 Si0 3.144239 1_554
Mg3 Si3 3.184375 1_565
Mg4 Si0 2.777112 1_555
Mg4 Si1 2.783322 1_555
Mg4 Si3 2.934878 1_455
Mg4 Si4 3.032915 1_556
Mg5 Si2 2.736708 1_555
Mg5 Si4 2.834759 1_555
Mg5 Si0 2.902442 1_454
Mg5 Si5 3.056722 1_565
Mg5 Si3 3.263584 1_454
Mg6 Si3 2.754839 1_455
Mg6 Si5 2.765742 1_555
Mg6 Si1 2.775341 1_545
Mg6 Si0 2.878388 1_555
Mg6 Si4 3.144239 1_556
Mg6 Si2 3.184375 1_545
Mg7 Si2 2.723155 1_555
Mg7 Si5 2.763073 1_555
Mg7 Si3 2.832937 1_455
Mg7 Si1 3.105122 1_555
Mg7 Si4 3.181846 1_555
Si0 Si2 2.678765 1_656
Si0 Si5 2.709139 1_555
Si0 Si3 2.791537 1_555
Si0 Si4 2.934737 1_556
Si1 Si5 2.473302 1_565
Si1 Si2 2.492746 1_555
Si1 Si4 2.709139 1_555
Si2 Si4 2.791537 1_555
Si3 Si5 2.492746 1_555
Si3 Si4 2.678765 1_656
