# generated using pymatgen
data_BaLaCo2O5
_symmetry_space_group_name_H-M   'P 1'
_cell_length_a   3.92420700
_cell_length_b   4.03351800
_cell_length_c   7.85234800
_cell_angle_alpha   90.00000000
_cell_angle_beta   90.00000000
_cell_angle_gamma   90.00000000
_symmetry_Int_Tables_number   1
_chemical_formula_structural   BaLaCo2O5
_chemical_formula_sum   'Ba1 La1 Co2 O5'
_cell_volume   124.28978761
_cell_formula_units_Z   1
loop_
 _symmetry_equiv_pos_site_id
 _symmetry_equiv_pos_as_xyz
  1  'x, y, z'
loop_
 _atom_site_type_symbol
 _atom_site_label
 _atom_site_symmetry_multiplicity
 _atom_site_fract_x
 _atom_site_fract_y
 _atom_site_fract_z
 _atom_site_occupancy
  Ba  Ba0  1  0.50000000  0.50000000  0.00000000  1
  La  La0  1  0.50000000  0.50000000  0.50000000  1
  Co  Co0  1  0.00000000  0.00000000  0.25265900  1
  Co  Co1  1  0.00000000  0.00000000  0.74734100  1
  O  O0  1  0.50000000  0.00000000  0.30543900  1
  O  O1  1  0.50000000  0.00000000  0.69456100  1
  O  O2  1  0.00000000  0.50000000  0.29973100  1
  O  O3  1  0.00000000  0.50000000  0.70026900  1
  O  O4  1  0.00000000  0.00000000  0.00000000  1
loop_
_geom_bond_atom_site_label_1
_geom_bond_atom_site_label_2
_geom_bond_distance
_geom_bond_site_symmetry_2
Ba0 O4 2.813746 1_665
Ba0 O4 2.813746 1_555
Ba0 O4 2.813746 1_655
Ba0 O4 2.813746 1_565
Ba0 O2 3.064188 1_655
Ba0 O2 3.064188 1_555
Ba0 O3 3.064188 1_654
Ba0 O3 3.064188 1_554
Ba0 O0 3.133641 1_555
Ba0 O0 3.133641 1_565
Ba0 O1 3.133641 1_564
Ba0 O1 3.133641 1_554
La0 O3 2.514531 1_655
La0 O3 2.514531 1_555
La0 O2 2.514531 1_555
La0 O2 2.514531 1_655
La0 O1 2.530093 1_565
La0 O1 2.530093 1_555
La0 O0 2.530093 1_565
La0 O0 2.530093 1_555
Co0 O4 1.983966 1_555
Co0 O0 2.005397 1_455
Co0 O0 2.005397 1_555
Co0 O2 2.050351 1_545
Co0 O2 2.050351 1_555
Co1 O4 1.983966 1_556
Co1 O1 2.005397 1_455
Co1 O1 2.005397 1_555
Co1 O3 2.050351 1_555
Co1 O3 2.050351 1_545
