# generated using pymatgen
data_TmZnSn2
_symmetry_space_group_name_H-M   'P 1'
_cell_length_a   4.34070500
_cell_length_b   4.34070500
_cell_length_c   9.79209300
_cell_angle_alpha   90.00000000
_cell_angle_beta   90.00000000
_cell_angle_gamma   90.00000000
_symmetry_Int_Tables_number   1
_chemical_formula_structural   TmZnSn2
_chemical_formula_sum   'Tm2 Zn2 Sn4'
_cell_volume   184.49987351
_cell_formula_units_Z   2
loop_
 _symmetry_equiv_pos_site_id
 _symmetry_equiv_pos_as_xyz
  1  'x, y, z'
loop_
 _atom_site_type_symbol
 _atom_site_label
 _atom_site_symmetry_multiplicity
 _atom_site_fract_x
 _atom_site_fract_y
 _atom_site_fract_z
 _atom_site_occupancy
  Tm  Tm0  1  0.00000000  0.50000000  0.75047300  1
  Tm  Tm1  1  0.50000000  0.00000000  0.24952700  1
  Zn  Zn0  1  0.00000000  0.00000000  0.50000000  1
  Zn  Zn1  1  0.50000000  0.50000000  0.50000000  1
  Sn  Sn0  1  0.00000000  0.00000000  0.00000000  1
  Sn  Sn1  1  0.50000000  0.50000000  0.00000000  1
  Sn  Sn2  1  0.00000000  0.50000000  0.31095100  1
  Sn  Sn3  1  0.50000000  0.00000000  0.68904900  1
loop_
_geom_bond_atom_site_label_1
_geom_bond_atom_site_label_2
_geom_bond_distance
_geom_bond_site_symmetry_2
Tm0 Zn0 3.275049 1_555
Tm0 Zn1 3.275049 1_455
Tm0 Zn1 3.275049 1_555
Tm0 Zn0 3.275049 1_565
Tm1 Zn1 3.275049 1_555
Tm1 Zn1 3.275049 1_545
Tm1 Zn0 3.275049 1_655
Tm1 Zn0 3.275049 1_555
Zn0 Zn1 3.069342 1_455
Zn0 Zn1 3.069342 1_445
Zn0 Zn1 3.069342 1_555
Zn0 Zn1 3.069342 1_545
Sn0 Sn1 3.069342 1_455
Sn0 Sn1 3.069342 1_445
Sn0 Sn1 3.069342 1_555
Sn0 Sn1 3.069342 1_545
Sn0 Tm1 3.268118 1_455
Sn0 Tm1 3.268118 1_555
Sn0 Tm0 3.268118 1_544
Sn0 Tm0 3.268118 1_554
Sn1 Tm1 3.268118 1_565
Sn1 Tm1 3.268118 1_555
Sn1 Tm0 3.268118 1_654
Sn1 Tm0 3.268118 1_554
Sn2 Zn0 2.852598 1_555
Sn2 Zn1 2.852598 1_455
Sn2 Zn1 2.852598 1_555
Sn2 Zn0 2.852598 1_565
Sn2 Tm1 3.127719 1_555
Sn2 Tm1 3.127719 1_455
Sn2 Tm1 3.127719 1_565
Sn2 Tm1 3.127719 1_465
Sn3 Zn0 2.852598 1_555
Sn3 Zn1 2.852598 1_555
Sn3 Zn1 2.852598 1_545
Sn3 Zn0 2.852598 1_655
Sn3 Tm0 3.127719 1_555
Sn3 Tm0 3.127719 1_655
Sn3 Tm0 3.127719 1_645
Sn3 Tm0 3.127719 1_545
