# generated using pymatgen
data_V4O5F7
_symmetry_space_group_name_H-M   'P 1'
_cell_length_a   5.18751500
_cell_length_b   5.31730018
_cell_length_c   9.06078964
_cell_angle_alpha   106.90572367
_cell_angle_beta   89.78802361
_cell_angle_gamma   118.19395693
_symmetry_Int_Tables_number   1
_chemical_formula_structural   V4O5F7
_chemical_formula_sum   'V4 O5 F7'
_cell_volume   208.09091989
_cell_formula_units_Z   1
loop_
 _symmetry_equiv_pos_site_id
 _symmetry_equiv_pos_as_xyz
  1  'x, y, z'
loop_
 _atom_site_type_symbol
 _atom_site_label
 _atom_site_symmetry_multiplicity
 _atom_site_fract_x
 _atom_site_fract_y
 _atom_site_fract_z
 _atom_site_occupancy
  V  V0  1  0.74954200  0.21869700  0.26380700  1
  V  V1  1  0.52762100  0.50060200  0.49733700  1
  V  V2  1  0.20976300  0.74354800  0.75902000  1
  V  V3  1  0.97512400  0.00511800  0.00443800  1
  O  O0  1  0.71397300  0.89180500  0.37481200  1
  O  O1  1  0.84018400  0.16396800  0.07999900  1
  O  O2  1  0.85444500  0.59749300  0.67079400  1
  O  O3  1  0.17218300  0.83549000  0.91120700  1
  O  O4  1  0.66505200  0.34917500  0.41680000  1
  F  F0  1  0.33847300  0.66037600  0.58487600  1
  F  F1  1  0.32632100  0.07203100  0.16882700  1
  F  F2  1  0.77820200  0.61215500  0.12037400  1
  F  F3  1  0.17336700  0.43077200  0.32955600  1
  F  F4  1  0.28574400  0.11894600  0.62451100  1
  F  F5  1  0.22432300  0.37920800  0.87151700  1
  F  F6  1  0.66568200  0.92061700  0.82212500  1
loop_
_geom_bond_atom_site_label_1
_geom_bond_atom_site_label_2
_geom_bond_distance
_geom_bond_site_symmetry_2
O0 V0 2.186160 1_565
O0 V1 2.434961 1_555
O1 V3 1.375135 1_555
O1 V0 1.709127 1_555
O2 V2 1.713718 1_655
O2 V1 2.081674 1_555
O3 V2 1.369110 1_555
O3 V3 1.730271 1_466
O4 V1 1.373290 1_555
O4 V0 1.522690 1_555
F0 V1 1.644284 1_555
F0 V2 1.731033 1_555
F1 V0 2.043200 1_555
F1 V3 2.182577 1_455
F2 V3 2.400992 1_565
F2 V0 2.715535 1_555
F3 V0 1.933038 1_455
F3 V1 2.207648 1_555
F4 V1 2.442088 1_555
F4 V2 2.508597 1_545
F5 V3 2.455681 1_456
F5 V2 2.466815 1_555
F6 V2 2.097574 1_555
F6 V3 2.100917 1_566
