# generated using pymatgen
data_Cd3Ga
_symmetry_space_group_name_H-M   'P 1'
_cell_length_a   6.29029495
_cell_length_b   6.29029495
_cell_length_c   4.97713136
_cell_angle_alpha   90.00000000
_cell_angle_beta   90.00000000
_cell_angle_gamma   119.99999523
_symmetry_Int_Tables_number   1
_chemical_formula_structural   Cd3Ga
_chemical_formula_sum   'Cd6 Ga2'
_cell_volume   170.55002009
_cell_formula_units_Z   2
loop_
 _symmetry_equiv_pos_site_id
 _symmetry_equiv_pos_as_xyz
  1  'x, y, z'
loop_
 _atom_site_type_symbol
 _atom_site_label
 _atom_site_symmetry_multiplicity
 _atom_site_fract_x
 _atom_site_fract_y
 _atom_site_fract_z
 _atom_site_occupancy
  Cd  Cd0  1  0.16811840  0.33623580  0.25000000  1
  Cd  Cd1  1  0.66376420  0.83188160  0.25000000  1
  Cd  Cd2  1  0.16811840  0.83188160  0.25000000  1
  Cd  Cd3  1  0.83188160  0.66376420  0.75000000  1
  Cd  Cd4  1  0.33623580  0.16811840  0.75000000  1
  Cd  Cd5  1  0.83188160  0.16811840  0.75000000  1
  Ga  Ga0  1  0.33333300  0.66666700  0.75000000  1
  Ga  Ga1  1  0.66666700  0.33333300  0.25000000  1
loop_
_geom_bond_atom_site_label_1
_geom_bond_atom_site_label_2
_geom_bond_distance
_geom_bond_site_symmetry_2
Cd0 Ga0 3.071337 1_554
Cd0 Ga0 3.071337 1_555
Cd0 Cd4 3.089972 1_554
Cd0 Cd4 3.089972 1_555
Cd0 Cd5 3.089979 1_455
Cd0 Cd5 3.089979 1_454
Cd0 Cd2 3.117758 1_555
Cd0 Cd1 3.117758 1_555
Cd0 Ga1 3.145187 1_555
Cd0 Ga1 3.145187 1_455
Cd0 Cd2 3.172537 1_545
Cd0 Cd1 3.172537 1_445
Cd1 Ga0 3.071337 1_554
Cd1 Ga0 3.071337 1_555
Cd1 Cd3 3.089972 1_555
Cd1 Cd3 3.089972 1_554
Cd1 Cd5 3.089979 1_565
Cd1 Cd5 3.089979 1_564
Cd1 Cd2 3.117758 1_555
Cd1 Ga1 3.145187 1_555
Cd1 Ga1 3.145187 1_565
Cd1 Cd2 3.172537 1_655
Cd2 Ga0 3.071331 1_554
Cd2 Ga0 3.071331 1_555
Cd2 Cd3 3.089979 1_454
Cd2 Cd3 3.089979 1_455
Cd2 Cd4 3.089979 1_565
Cd2 Cd4 3.089979 1_564
Cd2 Ga1 3.145187 1_455
Cd2 Ga1 3.145187 1_565
Cd3 Ga1 3.071337 1_555
Cd3 Ga1 3.071337 1_556
Cd3 Cd5 3.117758 1_555
Cd3 Cd4 3.117758 1_555
Cd3 Ga0 3.145187 1_555
Cd3 Ga0 3.145187 1_655
Cd3 Cd5 3.172537 1_565
Cd3 Cd4 3.172537 1_665
Cd4 Ga1 3.071337 1_556
Cd4 Ga1 3.071337 1_555
Cd4 Cd5 3.117758 1_555
Cd4 Ga0 3.145187 1_555
Cd4 Ga0 3.145187 1_545
Cd4 Cd5 3.172537 1_455
Cd5 Ga1 3.071331 1_555
Cd5 Ga1 3.071331 1_556
Cd5 Ga0 3.145187 1_545
Cd5 Ga0 3.145187 1_655
