# generated using pymatgen
data_K15Mo7N19
_symmetry_space_group_name_H-M   'P 1'
_cell_length_a   6.82486600
_cell_length_b   12.60964007
_cell_length_c   19.69144353
_cell_angle_alpha   90.66400010
_cell_angle_beta   94.22411998
_cell_angle_gamma   99.86232239
_symmetry_Int_Tables_number   1
_chemical_formula_structural   K15Mo7N19
_chemical_formula_sum   'K30 Mo14 N38'
_cell_volume   1664.54441243
_cell_formula_units_Z   2
loop_
 _symmetry_equiv_pos_site_id
 _symmetry_equiv_pos_as_xyz
  1  'x, y, z'
loop_
 _atom_site_type_symbol
 _atom_site_label
 _atom_site_symmetry_multiplicity
 _atom_site_fract_x
 _atom_site_fract_y
 _atom_site_fract_z
 _atom_site_occupancy
  K  K0  1  0.52299500  0.62373300  0.44025400  1
  K  K1  1  0.47700500  0.37626700  0.55974600  1
  K  K2  1  0.61516600  0.13372500  0.65091900  1
  K  K3  1  0.38483400  0.86627500  0.34908100  1
  K  K4  1  0.72327600  0.02209000  0.19460600  1
  K  K5  1  0.27672400  0.97791000  0.80539400  1
  K  K6  1  0.93573000  0.03614600  0.38637800  1
  K  K7  1  0.06427000  0.96385400  0.61362200  1
  K  K8  1  0.78340100  0.75918400  0.28197700  1
  K  K9  1  0.21659900  0.24081600  0.71802300  1
  K  K10  1  0.85378500  0.16852800  0.83630700  1
  K  K11  1  0.14621500  0.83147200  0.16369300  1
  K  K12  1  0.86866800  0.90245700  0.89833000  1
  K  K13  1  0.13133200  0.09754300  0.10167000  1
  K  K14  1  0.71985900  0.08223700  0.00600100  1
  K  K15  1  0.28014100  0.91776300  0.99399900  1
  K  K16  1  0.61095900  0.89646100  0.52822000  1
  K  K17  1  0.38904100  0.10353900  0.47178000  1
  K  K18  1  0.61028400  0.46193900  0.28643600  1
  K  K19  1  0.38971600  0.53806100  0.71356400  1
  K  K20  1  0.97299900  0.34348500  0.01384000  1
  K  K21  1  0.02700100  0.65651500  0.98616000  1
  K  K22  1  0.90947200  0.66839800  0.78987600  1
  K  K23  1  0.09052800  0.33160200  0.21012400  1
  K  K24  1  0.74535300  0.25720400  0.38569500  1
  K  K25  1  0.25464700  0.74279600  0.61430500  1
  K  K26  1  0.60243800  0.37960600  0.84138000  1
  K  K27  1  0.39756200  0.62039400  0.15862000  1
  K  K28  1  0.00000000  0.50000000  0.50000000  1
  K  K29  1  0.50000000  0.50000000  0.00000000  1
  Mo  Mo0  1  0.58129400  0.27090600  0.12485000  1
  Mo  Mo1  1  0.41870600  0.72909400  0.87515000  1
  Mo  Mo2  1  0.85647500  0.40940300  0.68652400  1
  Mo  Mo3  1  0.14352500  0.59059700  0.31347600  1
  Mo  Mo4  1  0.74866300  0.66089300  0.60728400  1
  Mo  Mo5  1  0.25133700  0.33910700  0.39271600  1
  Mo  Mo6  1  0.99169500  0.77692400  0.45012900  1
  Mo  Mo7  1  0.00830500  0.22307600  0.54987100  1
  Mo  Mo8  1  0.86661100  0.55027500  0.14068100  1
  Mo  Mo9  1  0.13338900  0.44972500  0.85931900  1
  Mo  Mo10  1  0.65827100  0.88047300  0.72603700  1
  Mo  Mo11  1  0.34172900  0.11952700  0.27396300  1
  Mo  Mo12  1  0.68339400  0.79300800  0.05473200  1
  Mo  Mo13  1  0.31660600  0.20699200  0.94526800  1
  N  N0  1  0.79772900  0.20982400  0.12110200  1
  N  N1  1  0.20227100  0.79017600  0.87889800  1
  N  N2  1  0.93507800  0.32221800  0.61865100  1
  N  N3  1  0.06492200  0.67778200  0.38134900  1
  N  N4  1  0.55132200  0.07181400  0.31682600  1
  N  N5  1  0.44867800  0.92818600  0.68317400  1
  N  N6  1  0.57514200  0.79641100  0.80652500  1
  N  N7  1  0.42485800  0.20358900  0.19347500  1
  N  N8  1  0.65863700  0.42522200  0.14285400  1
  N  N9  1  0.34136300  0.57477800  0.85714600  1
  N  N10  1  0.50511400  0.39476300  0.41963100  1
  N  N11  1  0.49488600  0.60523700  0.58036900  1
  N  N12  1  0.80003500  0.11602100  0.52518500  1
  N  N13  1  0.19996500  0.88397900  0.47481500  1
  N  N14  1  0.89320600  0.69873200  0.52984200  1
  N  N15  1  0.10679400  0.30126800  0.47015800  1
  N  N16  1  0.90595000  0.89350500  0.05256200  1
  N  N17  1  0.09405000  0.10649500  0.94743800  1
  N  N18  1  0.78554500  0.83192500  0.41106800  1
  N  N19  1  0.21445500  0.16807500  0.58893200  1
  N  N20  1  0.76425000  0.78444000  0.66275100  1
  N  N21  1  0.23575000  0.21556000  0.33724900  1
  N  N22  1  0.93525700  0.48021600  0.90557600  1
  N  N23  1  0.06474300  0.51978400  0.09442400  1
  N  N24  1  0.56990900  0.75731600  0.96090700  1
  N  N25  1  0.43009100  0.24268400  0.03909300  1
  N  N26  1  0.75774700  0.66200000  0.09666200  1
  N  N27  1  0.24225300  0.33800000  0.90333800  1
  N  N28  1  0.85282700  0.99448600  0.75009600  1
  N  N29  1  0.14717300  0.00551400  0.24990400  1
  N  N30  1  0.96751600  0.59499400  0.23190300  1
  N  N31  1  0.03248400  0.40500600  0.76809700  1
  N  N32  1  0.87261200  0.55443600  0.65762600  1
  N  N33  1  0.12738800  0.44556400  0.34237400  1
  N  N34  1  0.60680500  0.35624200  0.70525900  1
  N  N35  1  0.39319500  0.64375800  0.29474100  1
  N  N36  1  0.50451200  0.84465900  0.10422500  1
  N  N37  1  0.49548800  0.15534100  0.89577500  1
loop_
_geom_bond_atom_site_label_1
_geom_bond_atom_site_label_2
_geom_bond_distance
_geom_bond_site_symmetry_2
K0 N11 2.789482 1_555
K0 N10 2.891492 1_555
K0 N35 2.962815 1_555
K0 N14 2.979354 1_555
K0 N18 3.001357 1_555
K1 N10 2.789482 1_555
K1 N11 2.891492 1_555
K1 N34 2.962815 1_555
K1 N15 2.979354 1_555
K1 N19 3.001357 1_555
K2 N5 2.747259 1_545
K2 N12 2.883680 1_555
K2 N34 3.002554 1_555
K2 N19 3.013787 1_555
K2 N2 3.046598 1_555
K2 N28 3.180554 1_545
K3 N4 2.747259 1_565
K3 N13 2.883680 1_555
K3 N35 3.002554 1_555
K3 N18 3.013787 1_555
K3 N3 3.046598 1_555
K3 N29 3.180554 1_565
K4 N0 2.780787 1_555
K4 N4 2.862813 1_555
K4 N36 2.962136 1_545
K4 N29 3.057353 1_655
K4 N7 3.313246 1_555
K5 N1 2.780787 1_555
K5 N5 2.862813 1_555
K5 N37 2.962136 1_565
K5 N28 3.057353 1_455
K5 N6 3.313246 1_555
K6 N18 2.667701 1_545
K6 N4 2.974915 1_555
K6 N21 3.000405 1_655
K6 N12 3.157802 1_555
K6 N29 3.192458 1_655
K6 N13 3.281255 1_645
K7 N19 2.667701 1_565
K7 N5 2.974915 1_555
K7 N20 3.000405 1_455
K7 N13 3.157802 1_555
K7 N28 3.192458 1_455
K7 N12 3.281255 1_465
K8 N18 2.690562 1_555
K8 N30 2.804293 1_555
K8 N35 2.837780 1_555
K8 N3 2.956759 1_655
K9 N19 2.690562 1_555
K9 N31 2.804293 1_555
K9 N34 2.837780 1_555
K9 N2 2.956759 1_455
K10 N28 2.757780 1_545
K10 N37 2.768684 1_555
K10 N17 2.835481 1_655
K10 N27 3.288808 1_655
K11 N29 2.757780 1_565
K11 N36 2.768684 1_555
K11 N16 2.835481 1_455
K11 N26 3.288808 1_455
K12 N6 2.749925 1_555
K12 N24 2.858230 1_555
K12 N17 2.878924 1_665
K12 N1 2.924862 1_655
K12 N16 3.033992 1_556
K12 N28 3.154926 1_555
K13 N7 2.749925 1_555
K13 N25 2.858230 1_555
K13 N16 2.878924 1_445
K13 N0 2.924862 1_455
K13 N17 3.033992 1_554
K13 N29 3.154926 1_555
K14 N0 2.730009 1_555
K14 N37 2.818870 1_554
K14 N17 2.849517 1_654
K14 N16 3.005282 1_545
K14 N25 3.155756 1_555
K15 N1 2.730009 1_555
K15 N36 2.818870 1_556
K15 N16 2.849517 1_456
K15 N17 3.005282 1_565
K15 N24 3.155756 1_555
K16 N18 2.845575 1_555
K16 N12 2.850456 1_565
K16 N13 2.899822 1_555
K16 N5 3.364262 1_555
K17 N19 2.845575 1_555
K17 N13 2.850456 1_545
K17 N12 2.899822 1_555
K17 N4 3.364262 1_555
K18 N10 2.869208 1_555
K18 N8 2.911450 1_555
K18 N35 2.944294 1_555
K18 N30 2.989711 1_555
K19 N11 2.869208 1_555
K19 N9 2.911450 1_555
K19 N34 2.944294 1_555
K19 N31 2.989711 1_555
K20 N23 2.673406 1_655
K20 N22 2.782137 1_554
K20 N0 2.914916 1_555
K20 N27 2.957275 1_654
K21 N22 2.673406 1_455
K21 N23 2.782137 1_556
K21 N1 2.914916 1_555
K21 N26 2.957275 1_456
K22 N1 2.791873 1_655
K22 N32 2.933096 1_555
K22 N6 3.046177 1_555
K22 N20 3.099355 1_555
K22 N22 3.325898 1_555
K23 N0 2.791873 1_455
K23 N33 2.933096 1_555
K23 N7 3.046177 1_555
K23 N21 3.099355 1_555
K23 N23 3.325898 1_555
K24 N10 2.693021 1_555
K24 N4 2.767498 1_555
K24 N15 2.839832 1_655
K24 N12 3.323136 1_555
K25 N11 2.693021 1_555
K25 N5 2.767498 1_555
K25 N14 2.839832 1_455
K25 N13 3.323136 1_555
K26 N22 2.630514 1_555
K26 N34 2.696072 1_555
K26 N27 2.796682 1_555
K26 N37 3.025786 1_555
K26 N9 3.300593 1_555
K26 N31 3.333445 1_655
K27 N23 2.630514 1_555
K27 N35 2.696072 1_555
K27 N26 2.796682 1_555
K27 N36 3.025786 1_555
K27 N8 3.300593 1_555
K27 N30 3.333445 1_455
K28 N14 2.794801 1_455
K28 N15 2.794801 1_555
K28 N2 3.257958 1_455
K28 N3 3.257958 1_555
K28 N33 3.378420 1_555
K28 N32 3.378420 1_455
K29 N26 3.012626 1_555
K29 N27 3.012626 1_554
K29 N8 3.152269 1_555
K29 N9 3.152269 1_554
K29 N24 3.306016 1_554
K29 N25 3.306016 1_555
Mo0 N0 1.784689 1_555
Mo0 N7 1.901361 1_555
Mo0 N25 1.909643 1_555
Mo0 N8 1.948155 1_555
Mo1 N1 1.784689 1_555
Mo1 N6 1.901361 1_555
Mo1 N24 1.909643 1_555
Mo1 N9 1.948155 1_555
Mo2 N34 1.787737 1_555
Mo2 N2 1.885810 1_555
Mo2 N32 1.909151 1_555
Mo2 N31 1.940835 1_655
Mo3 N35 1.787737 1_555
Mo3 N3 1.885810 1_555
Mo3 N33 1.909151 1_555
Mo3 N30 1.940835 1_455
Mo4 N11 1.792480 1_555
Mo4 N20 1.875619 1_555
Mo4 N14 1.898291 1_555
Mo4 N32 1.948487 1_555
Mo5 N10 1.792480 1_555
Mo5 N21 1.875619 1_555
Mo5 N15 1.898291 1_555
Mo5 N33 1.948487 1_555
Mo6 N18 1.799812 1_555
Mo6 N13 1.817885 1_655
Mo6 N14 1.962671 1_555
Mo6 N3 1.980268 1_655
Mo7 N19 1.799812 1_555
Mo7 N12 1.817885 1_455
Mo7 N15 1.962671 1_555
Mo7 N2 1.980268 1_455
Mo8 N23 1.776920 1_655
Mo8 N26 1.892118 1_555
Mo8 N30 1.918374 1_555
Mo8 N8 1.935672 1_555
Mo9 N22 1.776920 1_455
Mo9 N27 1.892118 1_555
Mo9 N31 1.918374 1_555
Mo9 N9 1.935672 1_555
Mo10 N5 1.802571 1_555
Mo10 N28 1.814395 1_555
Mo10 N6 1.980617 1_555
Mo10 N20 1.985038 1_555
Mo11 N4 1.802571 1_555
Mo11 N29 1.814395 1_555
Mo11 N7 1.980617 1_555
Mo11 N21 1.985038 1_555
Mo12 N16 1.807277 1_555
Mo12 N36 1.815883 1_555
Mo12 N24 1.966314 1_554
Mo12 N26 1.981228 1_555
Mo13 N17 1.807277 1_555
Mo13 N37 1.815883 1_555
Mo13 N25 1.966314 1_556
Mo13 N27 1.981228 1_555
