# generated using pymatgen
data_NbPt3
_symmetry_space_group_name_H-M   'P 1'
_cell_length_a   4.60291296
_cell_length_b   4.90287927
_cell_length_c   5.58485111
_cell_angle_alpha   90.00000000
_cell_angle_beta   90.00000000
_cell_angle_gamma   90.00000000
_symmetry_Int_Tables_number   1
_chemical_formula_structural   NbPt3
_chemical_formula_sum   'Nb2 Pt6'
_cell_volume   126.03627561
_cell_formula_units_Z   2
loop_
 _symmetry_equiv_pos_site_id
 _symmetry_equiv_pos_as_xyz
  1  'x, y, z'
loop_
 _atom_site_type_symbol
 _atom_site_label
 _atom_site_symmetry_multiplicity
 _atom_site_fract_x
 _atom_site_fract_y
 _atom_site_fract_z
 _atom_site_occupancy
  Nb  Nb0  1  0.75000000  0.34116023  0.75000000  1
  Nb  Nb1  1  0.25000000  0.65883877  0.25000000  1
  Pt  Pt0  1  0.75000000  0.83484469  0.00012859  1
  Pt  Pt1  1  0.75000000  0.83484469  0.49987141  1
  Pt  Pt2  1  0.25000000  0.16515531  -0.00012859  1
  Pt  Pt3  1  0.25000000  0.16515531  0.50012859  1
  Pt  Pt4  1  0.25000000  0.66044245  0.75000000  1
  Pt  Pt5  1  0.75000000  0.33955755  0.25000000  1
loop_
_geom_bond_atom_site_label_1
_geom_bond_atom_site_label_2
_geom_bond_distance
_geom_bond_site_symmetry_2
Nb0 Pt4 2.783377 1_555
Nb0 Pt4 2.783377 1_655
Nb0 Pt5 2.792437 1_555
Nb0 Pt5 2.792437 1_556
Nb0 Pt0 2.794659 1_556
Nb0 Pt1 2.794659 1_555
Nb0 Pt3 2.826439 1_555
Nb0 Pt2 2.826439 1_656
Nb0 Pt3 2.826439 1_655
Nb0 Pt2 2.826439 1_556
Nb0 Pt1 2.848464 1_545
Nb0 Pt0 2.848464 1_546
Nb1 Pt5 2.783374 1_455
Nb1 Pt5 2.783374 1_555
Nb1 Pt4 2.792437 1_554
Nb1 Pt4 2.792437 1_555
Nb1 Pt3 2.794654 1_555
Nb1 Pt2 2.794654 1_555
Nb1 Pt0 2.826440 1_455
Nb1 Pt0 2.826440 1_555
Nb1 Pt1 2.826440 1_555
Nb1 Pt1 2.826440 1_455
Nb1 Pt2 2.848468 1_565
Nb1 Pt3 2.848468 1_565
Pt0 Pt1 2.790989 1_555
Pt0 Pt1 2.793862 1_554
Pt0 Pt5 2.800751 1_555
Pt0 Pt2 2.814142 1_565
Pt0 Pt2 2.814142 1_665
Pt0 Pt4 2.824760 1_554
Pt0 Pt4 2.824760 1_654
Pt0 Pt5 2.840913 1_565
Pt1 Pt5 2.800751 1_555
Pt1 Pt3 2.814142 1_665
Pt1 Pt3 2.814142 1_565
Pt1 Pt4 2.824760 1_555
Pt1 Pt4 2.824760 1_655
Pt1 Pt5 2.840913 1_565
Pt2 Pt3 2.790989 1_554
Pt2 Pt3 2.793862 1_555
Pt2 Pt4 2.800751 1_554
Pt2 Pt5 2.824760 1_555
Pt2 Pt5 2.824760 1_455
Pt2 Pt4 2.840913 1_544
Pt3 Pt4 2.800751 1_555
Pt3 Pt5 2.824760 1_555
Pt3 Pt5 2.824760 1_455
Pt3 Pt4 2.840913 1_545
