# generated using pymatgen
data_Na3Ti
_symmetry_space_group_name_H-M   'P 1'
_cell_length_a   7.01967399
_cell_length_b   7.01967399
_cell_length_c   5.77105800
_cell_angle_alpha   90.00000000
_cell_angle_beta   90.00000000
_cell_angle_gamma   119.99999992
_symmetry_Int_Tables_number   1
_chemical_formula_structural   Na3Ti
_chemical_formula_sum   'Na6 Ti2'
_cell_volume   246.27478985
_cell_formula_units_Z   2
loop_
 _symmetry_equiv_pos_site_id
 _symmetry_equiv_pos_as_xyz
  1  'x, y, z'
loop_
 _atom_site_type_symbol
 _atom_site_label
 _atom_site_symmetry_multiplicity
 _atom_site_fract_x
 _atom_site_fract_y
 _atom_site_fract_z
 _atom_site_occupancy
  Na  Na0  1  0.16873300  0.33746600  0.25000000  1
  Na  Na1  1  0.66253400  0.83126700  0.25000000  1
  Na  Na2  1  0.16873300  0.83126700  0.25000000  1
  Na  Na3  1  0.83126700  0.66253400  0.75000000  1
  Na  Na4  1  0.33746600  0.16873300  0.75000000  1
  Na  Na5  1  0.83126700  0.16873300  0.75000000  1
  Ti  Ti0  1  0.33333300  0.66666700  0.75000000  1
  Ti  Ti1  1  0.66666700  0.33333300  0.25000000  1
loop_
_geom_bond_atom_site_label_1
_geom_bond_atom_site_label_2
_geom_bond_distance
_geom_bond_site_symmetry_2
Na0 Na2 3.466322 1_555
Na0 Na1 3.466322 1_555
Na0 Ti1 3.509923 1_455
Na0 Ti1 3.509930 1_555
Na0 Ti0 3.511611 1_555
Na0 Ti0 3.511611 1_554
Na0 Na4 3.540487 1_555
Na0 Na4 3.540487 1_554
Na0 Na5 3.540487 1_455
Na0 Na5 3.540487 1_454
Na0 Na2 3.553352 1_545
Na0 Na1 3.553352 1_445
Na1 Na2 3.466322 1_555
Na1 Ti1 3.509923 1_565
Na1 Ti1 3.509930 1_555
Na1 Ti0 3.511611 1_555
Na1 Ti0 3.511611 1_554
Na1 Na3 3.540487 1_555
Na1 Na3 3.540487 1_554
Na1 Na5 3.540487 1_564
Na1 Na5 3.540487 1_565
Na1 Na2 3.553352 1_655
Na2 Ti1 3.509927 1_455
Na2 Ti1 3.509927 1_565
Na2 Ti0 3.511608 1_554
Na2 Ti0 3.511608 1_555
Na2 Na3 3.540487 1_455
Na2 Na3 3.540487 1_454
Na2 Na4 3.540487 1_565
Na2 Na4 3.540487 1_564
Na3 Na5 3.466322 1_555
Na3 Na4 3.466322 1_555
Na3 Ti0 3.509923 1_655
Na3 Ti0 3.509930 1_555
Na3 Ti1 3.511611 1_555
Na3 Ti1 3.511611 1_556
Na3 Na5 3.553352 1_565
Na3 Na4 3.553352 1_665
Na4 Na5 3.466322 1_555
Na4 Ti0 3.509923 1_545
Na4 Ti0 3.509930 1_555
Na4 Ti1 3.511611 1_555
Na4 Ti1 3.511611 1_556
Na4 Na5 3.553352 1_455
Na5 Ti0 3.509927 1_545
Na5 Ti0 3.509927 1_655
Na5 Ti1 3.511608 1_555
Na5 Ti1 3.511608 1_556
