# generated using pymatgen
data_Ca3Ga3(SnO6)2
_symmetry_space_group_name_H-M   'P 1'
_cell_length_a   11.06095960
_cell_length_b   11.06095960
_cell_length_c   11.06095960
_cell_angle_alpha   109.47122063
_cell_angle_beta   109.47122063
_cell_angle_gamma   109.47122063
_symmetry_Int_Tables_number   1
_chemical_formula_structural   Ca3Ga3(SnO6)2
_chemical_formula_sum   'Ca12 Ga12 Sn8 O48'
_cell_volume   1041.73325185
_cell_formula_units_Z   4
loop_
 _symmetry_equiv_pos_site_id
 _symmetry_equiv_pos_as_xyz
  1  'x, y, z'
loop_
 _atom_site_type_symbol
 _atom_site_label
 _atom_site_symmetry_multiplicity
 _atom_site_fract_x
 _atom_site_fract_y
 _atom_site_fract_z
 _atom_site_occupancy
  Ca  Ca0  1  0.25000000  0.37500000  0.12500000  1
  Ca  Ca1  1  0.75000000  0.62500000  0.87500000  1
  Ca  Ca2  1  0.75000000  0.12500000  0.37500000  1
  Ca  Ca3  1  0.12500000  0.25000000  0.37500000  1
  Ca  Ca4  1  0.37500000  0.75000000  0.12500000  1
  Ca  Ca5  1  0.25000000  0.87500000  0.62500000  1
  Ca  Ca6  1  0.87500000  0.75000000  0.62500000  1
  Ca  Ca7  1  0.62500000  0.25000000  0.87500000  1
  Ca  Ca8  1  0.37500000  0.12500000  0.25000000  1
  Ca  Ca9  1  0.62500000  0.87500000  0.75000000  1
  Ca  Ca10  1  0.12500000  0.37500000  0.75000000  1
  Ca  Ca11  1  0.87500000  0.62500000  0.25000000  1
  Ga  Ga0  1  0.25000000  0.62500000  0.37500000  1
  Ga  Ga1  1  0.75000000  0.37500000  0.62500000  1
  Ga  Ga2  1  0.75000000  0.87500000  0.12500000  1
  Ga  Ga3  1  0.37500000  0.25000000  0.62500000  1
  Ga  Ga4  1  0.62500000  0.75000000  0.37500000  1
  Ga  Ga5  1  0.25000000  0.12500000  0.87500000  1
  Ga  Ga6  1  0.12500000  0.75000000  0.87500000  1
  Ga  Ga7  1  0.87500000  0.25000000  0.12500000  1
  Ga  Ga8  1  0.62500000  0.37500000  0.25000000  1
  Ga  Ga9  1  0.37500000  0.62500000  0.75000000  1
  Ga  Ga10  1  0.87500000  0.12500000  0.75000000  1
  Ga  Ga11  1  0.12500000  0.87500000  0.25000000  1
  Sn  Sn0  1  0.00000000  0.00000000  0.00000000  1
  Sn  Sn1  1  0.50000000  0.00000000  0.50000000  1
  Sn  Sn2  1  0.00000000  0.50000000  0.50000000  1
  Sn  Sn3  1  0.50000000  0.00000000  0.00000000  1
  Sn  Sn4  1  0.50000000  0.50000000  0.00000000  1
  Sn  Sn5  1  0.50000000  0.50000000  0.50000000  1
  Sn  Sn6  1  0.00000000  0.00000000  0.50000000  1
  Sn  Sn7  1  0.00000000  0.50000000  0.00000000  1
  O  O0  1  0.47708900  0.37743700  0.29562500  1
  O  O1  1  0.52291100  0.62256300  0.70437500  1
  O  O2  1  0.58181200  0.18146400  0.20437500  1
  O  O3  1  0.91818800  0.12256300  0.59965200  1
  O  O4  1  0.29562500  0.47708900  0.37743700  1
  O  O5  1  0.31853600  0.91818800  0.29562500  1
  O  O6  1  0.41818800  0.81853600  0.79562500  1
  O  O7  1  0.08181200  0.87743700  0.40034800  1
  O  O8  1  0.70437500  0.52291100  0.62256300  1
  O  O9  1  0.68146400  0.08181200  0.70437500  1
  O  O10  1  0.02291100  0.31853600  0.90034800  1
  O  O11  1  0.20437500  0.58181200  0.18146400  1
  O  O12  1  0.12256300  0.02291100  0.20437500  1
  O  O13  1  0.97708900  0.68146400  0.09965200  1
  O  O14  1  0.79562500  0.41818800  0.81853600  1
  O  O15  1  0.87743700  0.97708900  0.79562500  1
  O  O16  1  0.59965200  0.91818800  0.12256300  1
  O  O17  1  0.18146400  0.47708900  0.59965200  1
  O  O18  1  0.40034800  0.08181200  0.87743700  1
  O  O19  1  0.81853600  0.52291100  0.40034800  1
  O  O20  1  0.90034800  0.02291100  0.31853600  1
  O  O21  1  0.37743700  0.58181200  0.90034800  1
  O  O22  1  0.09965200  0.97708900  0.68146400  1
  O  O23  1  0.62256300  0.41818800  0.09965200  1
  O  O24  1  0.37743700  0.29562500  0.47708900  1
  O  O25  1  0.58181200  0.90034800  0.37743700  1
  O  O26  1  0.62256300  0.70437500  0.52291100  1
  O  O27  1  0.41818800  0.09965200  0.62256300  1
  O  O28  1  0.12256300  0.59965200  0.91818800  1
  O  O29  1  0.02291100  0.20437500  0.12256300  1
  O  O30  1  0.87743700  0.40034800  0.08181200  1
  O  O31  1  0.97708900  0.79562500  0.87743700  1
  O  O32  1  0.31853600  0.90034800  0.02291100  1
  O  O33  1  0.91818800  0.29562500  0.31853600  1
  O  O34  1  0.68146400  0.09965200  0.97708900  1
  O  O35  1  0.08181200  0.70437500  0.68146400  1
  O  O36  1  0.18146400  0.20437500  0.58181200  1
  O  O37  1  0.47708900  0.59965200  0.18146400  1
  O  O38  1  0.81853600  0.79562500  0.41818800  1
  O  O39  1  0.52291100  0.40034800  0.81853600  1
  O  O40  1  0.29562500  0.31853600  0.91818800  1
  O  O41  1  0.70437500  0.68146400  0.08181200  1
  O  O42  1  0.20437500  0.12256300  0.02291100  1
  O  O43  1  0.79562500  0.87743700  0.97708900  1
  O  O44  1  0.90034800  0.37743700  0.58181200  1
  O  O45  1  0.09965200  0.62256300  0.41818800  1
  O  O46  1  0.59965200  0.18146400  0.47708900  1
  O  O47  1  0.40034800  0.81853600  0.52291100  1
loop_
_geom_bond_atom_site_label_1
_geom_bond_atom_site_label_2
_geom_bond_distance
_geom_bond_site_symmetry_2
Ca0 O11 2.429991 1_555
Ca0 O40 2.429991 1_554
Ca0 O4 2.429991 1_555
Ca0 O42 2.429991 1_555
Ca0 O29 2.575345 1_555
Ca0 O37 2.575345 1_555
Ca0 O0 2.575345 1_555
Ca0 O10 2.575345 1_554
Ca1 O14 2.429991 1_555
Ca1 O41 2.429991 1_556
Ca1 O8 2.429991 1_555
Ca1 O43 2.429991 1_555
Ca1 O1 2.575345 1_555
Ca1 O39 2.575345 1_555
Ca1 O31 2.575345 1_555
Ca1 O13 2.575345 1_556
Ca2 O16 2.429991 1_545
Ca2 O44 2.429991 1_555
Ca2 O46 2.429991 1_555
Ca2 O20 2.429991 1_555
Ca2 O3 2.575345 1_555
Ca2 O25 2.575345 1_545
Ca2 O2 2.575345 1_555
Ca2 O33 2.575345 1_555
Ca3 O36 2.429991 1_555
Ca3 O24 2.429991 1_555
Ca3 O33 2.429991 1_455
Ca3 O29 2.429991 1_555
Ca3 O20 2.575345 1_455
Ca3 O17 2.575345 1_555
Ca3 O4 2.575345 1_555
Ca3 O12 2.575345 1_555
Ca4 O28 2.429991 1_554
Ca4 O37 2.429991 1_555
Ca4 O32 2.429991 1_555
Ca4 O25 2.429991 1_555
Ca4 O11 2.575345 1_555
Ca4 O16 2.575345 1_555
Ca4 O21 2.575345 1_554
Ca4 O5 2.575345 1_555
Ca5 O22 2.429991 1_555
Ca5 O47 2.429991 1_555
Ca5 O18 2.429991 1_565
Ca5 O45 2.429991 1_555
Ca5 O6 2.575345 1_555
Ca5 O35 2.575345 1_555
Ca5 O7 2.575345 1_555
Ca5 O27 2.575345 1_565
Ca6 O26 2.429991 1_555
Ca6 O38 2.429991 1_555
Ca6 O35 2.429991 1_655
Ca6 O31 2.429991 1_555
Ca6 O15 2.575345 1_555
Ca6 O19 2.575345 1_555
Ca6 O8 2.575345 1_555
Ca6 O22 2.575345 1_655
Ca7 O39 2.429991 1_555
Ca7 O27 2.429991 1_555
Ca7 O30 2.429991 1_556
Ca7 O34 2.429991 1_555
Ca7 O9 2.575345 1_555
Ca7 O14 2.575345 1_555
Ca7 O18 2.575345 1_555
Ca7 O23 2.575345 1_556
Ca8 O0 2.429991 1_555
Ca8 O5 2.429991 1_545
Ca8 O12 2.429991 1_555
Ca8 O2 2.429991 1_555
Ca8 O46 2.575345 1_555
Ca8 O32 2.575345 1_545
Ca8 O24 2.575345 1_555
Ca8 O42 2.575345 1_555
Ca9 O15 2.429991 1_555
Ca9 O6 2.429991 1_555
Ca9 O1 2.429991 1_555
Ca9 O9 2.429991 1_565
Ca9 O26 2.575345 1_555
Ca9 O43 2.575345 1_555
Ca9 O47 2.575345 1_555
Ca9 O34 2.575345 1_565
Ca10 O10 2.429991 1_555
Ca10 O17 2.429991 1_555
Ca10 O21 2.429991 1_555
Ca10 O3 2.429991 1_455
Ca10 O44 2.575345 1_455
Ca10 O28 2.575345 1_555
Ca10 O36 2.575345 1_555
Ca10 O40 2.575345 1_555
Ca11 O19 2.429991 1_555
Ca11 O13 2.429991 1_555
Ca11 O23 2.429991 1_555
Ca11 O7 2.429991 1_655
Ca11 O41 2.575345 1_555
Ca11 O38 2.575345 1_555
Ca11 O30 2.575345 1_555
Ca11 O45 2.575345 1_655
Ga0 O45 1.871571 1_555
Ga0 O47 1.871571 1_555
Ga0 O11 1.871571 1_555
Ga0 O4 1.871571 1_555
Ga1 O46 1.871571 1_555
Ga1 O44 1.871571 1_555
Ga1 O14 1.871571 1_555
Ga1 O8 1.871571 1_555
Ga2 O20 1.871571 1_565
Ga2 O43 1.871571 1_554
Ga2 O41 1.871571 1_555
Ga2 O16 1.871571 1_555
Ga3 O27 1.871571 1_555
Ga3 O39 1.871571 1_555
Ga3 O36 1.871571 1_555
Ga3 O24 1.871571 1_555
Ga4 O37 1.871571 1_555
Ga4 O38 1.871571 1_555
Ga4 O25 1.871571 1_555
Ga4 O26 1.871571 1_555
Ga5 O42 1.871571 1_556
Ga5 O40 1.871571 1_555
Ga5 O18 1.871571 1_555
Ga5 O22 1.871571 1_545
Ga6 O32 1.871571 1_556
Ga6 O28 1.871571 1_555
Ga6 O31 1.871571 1_455
Ga6 O35 1.871571 1_555
Ga7 O29 1.871571 1_655
Ga7 O30 1.871571 1_555
Ga7 O33 1.871571 1_555
Ga7 O34 1.871571 1_554
Ga8 O23 1.871571 1_555
Ga8 O2 1.871571 1_555
Ga8 O0 1.871571 1_555
Ga8 O19 1.871571 1_555
Ga9 O6 1.871571 1_555
Ga9 O17 1.871571 1_555
Ga9 O1 1.871571 1_555
Ga9 O21 1.871571 1_555
Ga10 O10 1.871571 1_655
Ga10 O3 1.871571 1_555
Ga10 O9 1.871571 1_555
Ga10 O15 1.871571 1_545
Ga11 O12 1.871571 1_565
Ga11 O5 1.871571 1_555
Ga11 O7 1.871571 1_555
Ga11 O13 1.871571 1_455
O0 Sn5 2.087648 1_555
O1 Sn5 2.087648 1_555
O2 Sn3 2.087648 1_555
O3 Sn6 2.087648 1_655
O4 Sn5 2.087648 1_555
O5 Sn1 2.087648 1_565
O6 Sn3 2.087648 1_566
O7 Sn6 2.087648 1_565
O8 Sn5 2.087648 1_555
O9 Sn1 2.087648 1_555
O10 Sn7 2.087648 1_556
O11 Sn7 2.087648 1_555
O12 Sn0 2.087648 1_555
O13 Sn7 2.087648 1_655
O14 Sn7 2.087648 1_656
O15 Sn0 2.087648 1_666
O16 Sn3 2.087648 1_565
O17 Sn2 2.087648 1_555
O18 Sn3 2.087648 1_556
O19 Sn2 2.087648 1_655
O20 Sn6 2.087648 1_655
O21 Sn4 2.087648 1_556
O22 Sn6 2.087648 1_565
O23 Sn4 2.087648 1_555
O24 Sn5 2.087648 1_555
O25 Sn1 2.087648 1_565
O26 Sn5 2.087648 1_555
O27 Sn1 2.087648 1_555
O28 Sn7 2.087648 1_556
O29 Sn0 2.087648 1_555
O30 Sn7 2.087648 1_655
O31 Sn0 2.087648 1_666
O32 Sn3 2.087648 1_565
O33 Sn2 2.087648 1_655
O34 Sn3 2.087648 1_556
O35 Sn2 2.087648 1_555
O36 Sn6 2.087648 1_555
O37 Sn4 2.087648 1_555
O38 Sn6 2.087648 1_665
O39 Sn4 2.087648 1_556
O40 Sn4 2.087648 1_556
O41 Sn4 2.087648 1_555
O42 Sn0 2.087648 1_555
O43 Sn0 2.087648 1_666
O44 Sn2 2.087648 1_655
O45 Sn2 2.087648 1_555
O46 Sn1 2.087648 1_555
O47 Sn1 2.087648 1_565
