# generated using pymatgen
data_CaTeO3
_symmetry_space_group_name_H-M   'P 1'
_cell_length_a   6.55125400
_cell_length_b   8.23491000
_cell_length_c   13.77760800
_cell_angle_alpha   90.00000000
_cell_angle_beta   90.00000000
_cell_angle_gamma   90.00000000
_symmetry_Int_Tables_number   1
_chemical_formula_structural   CaTeO3
_chemical_formula_sum   'Ca8 Te8 O24'
_cell_volume   743.28799595
_cell_formula_units_Z   8
loop_
 _symmetry_equiv_pos_site_id
 _symmetry_equiv_pos_as_xyz
  1  'x, y, z'
loop_
 _atom_site_type_symbol
 _atom_site_label
 _atom_site_symmetry_multiplicity
 _atom_site_fract_x
 _atom_site_fract_y
 _atom_site_fract_z
 _atom_site_occupancy
  Ca  Ca0  1  0.39035500  0.41303700  0.07329000  1
  Ca  Ca1  1  0.60964500  0.58696300  0.57329000  1
  Ca  Ca2  1  0.39035500  0.08696300  0.57329000  1
  Ca  Ca3  1  0.60964500  0.91303700  0.07329000  1
  Ca  Ca4  1  0.88885900  0.31226300  0.13582600  1
  Ca  Ca5  1  0.11114100  0.68773700  0.63582600  1
  Ca  Ca6  1  0.88885900  0.18773700  0.63582600  1
  Ca  Ca7  1  0.11114100  0.81226300  0.13582600  1
  Te  Te0  1  0.40941900  0.16886000  0.26510100  1
  Te  Te1  1  0.59058100  0.83114000  0.76510100  1
  Te  Te2  1  0.40941900  0.33114000  0.76510100  1
  Te  Te3  1  0.59058100  0.66886000  0.26510100  1
  Te  Te4  1  0.91200200  0.94420700  0.44278900  1
  Te  Te5  1  0.08799800  0.05579300  0.94278900  1
  Te  Te6  1  0.91200200  0.55579300  0.94278900  1
  Te  Te7  1  0.08799800  0.44420700  0.44278900  1
  O  O0  1  0.20651100  0.31156100  0.21617300  1
  O  O1  1  0.79348900  0.68843900  0.71617300  1
  O  O2  1  0.20651100  0.18843900  0.71617300  1
  O  O3  1  0.79348900  0.81156100  0.21617300  1
  O  O4  1  0.56481400  0.17390200  0.14665100  1
  O  O5  1  0.43518600  0.82609800  0.64665100  1
  O  O6  1  0.56481400  0.32609800  0.64665100  1
  O  O7  1  0.43518600  0.67390200  0.14665100  1
  O  O8  1  0.29075100  0.96461300  0.24570600  1
  O  O9  1  0.70924900  0.03538700  0.74570600  1
  O  O10  1  0.29075100  0.53538700  0.74570600  1
  O  O11  1  0.70924900  0.46461300  0.24570600  1
  O  O12  1  0.70443500  0.07681700  0.49577200  1
  O  O13  1  0.29556500  0.92318300  0.99577200  1
  O  O14  1  0.70443500  0.42318300  0.99577200  1
  O  O15  1  0.29556500  0.57681700  0.49577200  1
  O  O16  1  0.06834600  0.94734300  0.55984000  1
  O  O17  1  0.93165400  0.05265700  0.05984000  1
  O  O18  1  0.06834600  0.55265700  0.05984000  1
  O  O19  1  0.93165400  0.44734300  0.55984000  1
  O  O20  1  0.80261500  0.73430600  0.45925900  1
  O  O21  1  0.19738500  0.26569400  0.95925900  1
  O  O22  1  0.80261500  0.76569400  0.95925900  1
  O  O23  1  0.19738500  0.23430600  0.45925900  1
loop_
_geom_bond_atom_site_label_1
_geom_bond_atom_site_label_2
_geom_bond_distance
_geom_bond_site_symmetry_2
Ca0 O14 2.319789 1_554
Ca0 O21 2.353444 1_554
Ca0 O7 2.392199 1_555
Ca0 O18 2.409676 1_555
Ca0 O0 2.454432 1_555
Ca0 O4 2.491152 1_555
Ca1 O15 2.319789 1_555
Ca1 O20 2.353444 1_555
Ca1 O6 2.392199 1_555
Ca1 O19 2.409676 1_555
Ca1 O1 2.454432 1_555
Ca1 O5 2.491152 1_555
Ca2 O12 2.319789 1_555
Ca2 O23 2.353444 1_555
Ca2 O5 2.392199 1_545
Ca2 O16 2.409676 1_545
Ca2 O2 2.454432 1_555
Ca2 O6 2.491152 1_555
Ca3 O13 2.319789 1_554
Ca3 O22 2.353444 1_554
Ca3 O4 2.392199 1_565
Ca3 O17 2.409676 1_565
Ca3 O3 2.454432 1_555
Ca3 O7 2.491152 1_555
Ca4 O11 2.291373 1_555
Ca4 O0 2.357138 1_655
Ca4 O17 2.396860 1_555
Ca4 O4 2.413952 1_555
Ca4 O14 2.453057 1_554
Ca4 O18 2.529343 1_655
Ca5 O10 2.291373 1_555
Ca5 O1 2.357138 1_455
Ca5 O16 2.396860 1_555
Ca5 O5 2.413952 1_555
Ca5 O15 2.453057 1_555
Ca5 O19 2.529343 1_455
Ca6 O9 2.291373 1_555
Ca6 O2 2.357138 1_655
Ca6 O19 2.396860 1_555
Ca6 O6 2.413952 1_555
Ca6 O12 2.453057 1_555
Ca6 O16 2.529343 1_645
Ca7 O8 2.291373 1_555
Ca7 O3 2.357138 1_455
Ca7 O18 2.396860 1_555
Ca7 O7 2.413952 1_555
Ca7 O13 2.453057 1_554
Ca7 O17 2.529343 1_465
O0 Te0 1.897999 1_555
O1 Te1 1.897999 1_555
O2 Te2 1.897999 1_555
O3 Te3 1.897999 1_555
O4 Te0 1.923902 1_555
O5 Te1 1.923902 1_555
O6 Te2 1.923902 1_555
O7 Te3 1.923902 1_555
O8 Te0 1.872103 1_565
O9 Te1 1.872103 1_545
O10 Te2 1.872103 1_555
O11 Te3 1.872103 1_555
O12 Te4 1.890641 1_545
O13 Te5 1.890641 1_565
O14 Te6 1.890641 1_555
O15 Te7 1.890641 1_555
O16 Te4 1.910628 1_455
O17 Te5 1.910628 1_654
O18 Te6 1.910628 1_454
O19 Te7 1.910628 1_655
O20 Te4 1.884889 1_555
O21 Te5 1.884889 1_555
O22 Te6 1.884889 1_555
O23 Te7 1.884889 1_555
