# generated using pymatgen
data_Mg4Si3
_symmetry_space_group_name_H-M   'P 1'
_cell_length_a   6.05753300
_cell_length_b   7.08805178
_cell_length_c   13.30444482
_cell_angle_alpha   97.56274318
_cell_angle_beta   97.10062481
_cell_angle_gamma   105.32696299
_symmetry_Int_Tables_number   1
_chemical_formula_structural   Mg4Si3
_chemical_formula_sum   'Mg16 Si12'
_cell_volume   538.58340546
_cell_formula_units_Z   4
loop_
 _symmetry_equiv_pos_site_id
 _symmetry_equiv_pos_as_xyz
  1  'x, y, z'
loop_
 _atom_site_type_symbol
 _atom_site_label
 _atom_site_symmetry_multiplicity
 _atom_site_fract_x
 _atom_site_fract_y
 _atom_site_fract_z
 _atom_site_occupancy
  Mg  Mg0  1  0.76298000  0.91284700  0.92133600  1
  Mg  Mg1  1  0.60935600  0.35472600  0.91631800  1
  Mg  Mg2  1  0.20782100  0.01779200  0.42613500  1
  Mg  Mg3  1  0.96004000  0.41059600  0.13317400  1
  Mg  Mg4  1  0.21907000  0.92054400  0.83175100  1
  Mg  Mg5  1  0.07773700  0.29989700  0.89734800  1
  Mg  Mg6  1  0.64052200  0.85480700  0.39564400  1
  Mg  Mg7  1  0.62473300  0.48788300  0.49097800  1
  Mg  Mg8  1  0.29273400  0.71358100  0.57126700  1
  Mg  Mg9  1  0.36289500  0.28732300  0.67236300  1
  Mg  Mg10  1  0.82084600  0.87528900  0.16839300  1
  Mg  Mg11  1  0.72565200  0.22361900  0.30813400  1
  Mg  Mg12  1  0.92935600  0.46077400  0.70707300  1
  Mg  Mg13  1  0.93818600  0.94238300  0.61041000  1
  Mg  Mg14  1  0.49470300  0.47333000  0.17618900  1
  Mg  Mg15  1  0.30304700  0.84608000  0.20492200  1
  Si  Si0  1  0.62340200  0.13129500  0.55254300  1
  Si  Si1  1  0.24825200  0.55350400  0.34298500  1
  Si  Si2  1  0.16570700  0.11690000  0.07291900  1
  Si  Si3  1  0.00456700  0.67250000  0.99796600  1
  Si  Si4  1  0.36835100  0.59346100  0.81918500  1
  Si  Si5  1  0.67489400  0.08685500  0.74613600  1
  Si  Si6  1  0.89008100  0.63233500  0.32430800  1
  Si  Si7  1  0.20514200  0.20812900  0.26596100  1
  Si  Si8  1  0.66174000  0.70393600  0.71560000  1
  Si  Si9  1  0.00840200  0.29764000  0.51684300  1
  Si  Si10  1  0.41002300  0.68829200  0.01104200  1
  Si  Si11  1  0.55071000  0.09051800  0.06720800  1
loop_
_geom_bond_atom_site_label_1
_geom_bond_atom_site_label_2
_geom_bond_distance
_geom_bond_site_symmetry_2
Mg0 Si3 2.736703 1_655
Mg0 Si11 2.799189 1_566
Mg0 Si10 2.803727 1_556
Mg0 Si5 2.834852 1_565
Mg0 Si8 2.845891 1_555
Mg0 Si4 2.865732 1_555
Mg0 Si2 2.874196 1_666
Mg1 Si3 2.801243 1_655
Mg1 Si4 2.842523 1_555
Mg1 Si5 2.894517 1_555
Mg1 Si11 2.911626 1_556
Mg1 Si10 3.120480 1_556
Mg2 Si7 2.668605 1_555
Mg2 Si0 2.709139 1_555
Mg2 Si9 2.801294 1_555
Mg2 Si6 2.933526 1_445
Mg3 Si3 2.736624 1_654
Mg3 Si2 2.776160 1_655
Mg3 Si11 2.833632 1_555
Mg3 Si7 2.920660 1_655
Mg3 Si6 2.946663 1_555
Mg3 Si1 2.997011 1_655
Mg4 Si4 2.695219 1_555
Mg4 Si5 3.117916 1_565
Mg4 Si3 3.193085 1_555
Mg5 Si4 2.756056 1_555
Mg5 Si2 2.877137 1_556
Mg5 Si5 2.884605 1_455
Mg5 Si3 2.966213 1_555
Mg5 Si10 3.023264 1_556
Mg6 Si6 2.625567 1_555
Mg6 Si1 2.685133 1_555
Mg6 Si0 2.700559 1_565
Mg7 Si0 2.755921 1_555
Mg7 Si9 2.986521 1_655
Mg7 Si1 2.997627 1_555
Mg7 Si6 3.026182 1_555
Mg7 Si8 3.126440 1_555
Mg8 Si8 2.782571 1_555
Mg8 Si9 2.937358 1_555
Mg8 Si1 3.051776 1_555
Mg8 Si0 3.165866 1_565
Mg9 Si0 2.708321 1_555
Mg9 Si4 2.712152 1_555
Mg9 Si5 2.807575 1_555
Mg9 Si9 2.814618 1_555
Mg9 Si8 2.966047 1_555
Mg10 Si11 2.851833 1_565
Mg10 Si7 2.865895 1_665
Mg10 Si2 2.871863 1_665
Mg10 Si6 2.924280 1_555
Mg10 Si10 2.927507 1_555
Mg10 Si3 3.009566 1_654
Mg11 Si6 2.772811 1_555
Mg11 Si9 2.980754 1_655
Mg11 Si7 3.052609 1_655
Mg11 Si7 3.103503 1_555
Mg11 Si11 3.181706 1_555
Mg12 Si8 2.661295 1_555
Mg12 Si4 2.740224 1_655
Mg12 Si9 2.791731 1_655
Mg12 Si5 2.841013 1_555
Mg12 Si0 2.936267 1_555
Mg13 Si0 2.698120 1_565
Mg13 Si8 2.706492 1_555
Mg13 Si5 2.818116 1_565
Mg13 Si9 2.908800 1_665
Mg14 Si7 2.720745 1_555
Mg14 Si6 2.776925 1_555
Mg14 Si2 2.826615 1_555
Mg14 Si1 2.900303 1_555
Mg14 Si10 2.903112 1_555
Mg14 Si11 3.025323 1_555
Mg15 Si7 2.823436 1_565
Mg15 Si10 2.891610 1_555
Mg15 Si1 2.928197 1_555
Mg15 Si11 2.958135 1_565
Mg15 Si2 2.971817 1_565
Mg15 Si3 3.010932 1_554
Si0 Si9 2.454038 1_655
Si0 Si5 2.626281 1_555
Si1 Si6 2.371795 1_455
Si1 Si7 2.459015 1_555
Si2 Si7 2.530012 1_555
Si4 Si8 2.413463 1_555
Si5 Si8 2.669350 1_545
Si10 Si3 2.412249 1_554
Si10 Si4 2.516034 1_554
Si10 Si11 2.722166 1_565
Si11 Si2 2.397993 1_555
