# generated using pymatgen
data_Ho2MgS4
_symmetry_space_group_name_H-M   'P 1'
_cell_length_a   13.36230698
_cell_length_b   7.82653515
_cell_length_c   6.48833551
_cell_angle_alpha   90.00000000
_cell_angle_beta   90.00000000
_cell_angle_gamma   90.00000000
_symmetry_Int_Tables_number   1
_chemical_formula_structural   Ho2MgS4
_chemical_formula_sum   'Ho8 Mg4 S16'
_cell_volume   678.55379526
_cell_formula_units_Z   4
loop_
 _symmetry_equiv_pos_site_id
 _symmetry_equiv_pos_as_xyz
  1  'x, y, z'
loop_
 _atom_site_type_symbol
 _atom_site_label
 _atom_site_symmetry_multiplicity
 _atom_site_fract_x
 _atom_site_fract_y
 _atom_site_fract_z
 _atom_site_occupancy
  Ho  Ho0  1  0.00000000  -0.00000000  0.50000000  1
  Ho  Ho1  1  0.50000000  -0.00000000  -0.00000000  1
  Ho  Ho2  1  0.50000000  0.50000000  -0.00000000  1
  Ho  Ho3  1  0.00000000  0.50000000  0.50000000  1
  Ho  Ho4  1  0.23109063  0.75000000  0.99137841  1
  Ho  Ho5  1  0.76890937  0.25000000  0.00862159  1
  Ho  Ho6  1  0.26890937  0.25000000  0.49137841  1
  Ho  Ho7  1  0.73109063  0.75000000  0.50862159  1
  Mg  Mg0  1  0.09658182  0.25000000  0.92038754  1
  Mg  Mg1  1  0.90341818  0.75000000  0.07961246  1
  Mg  Mg2  1  0.40341818  0.75000000  0.42038754  1
  Mg  Mg3  1  0.59658182  0.25000000  0.57961246  1
  S  S0  1  0.17059523  0.00846495  0.73465198  1
  S  S1  1  0.82940477  0.99153505  0.26534802  1
  S  S2  1  0.32940477  0.99153505  0.23465198  1
  S  S3  1  0.67059523  0.00846495  0.76534802  1
  S  S4  1  0.67059523  0.49153505  0.76534802  1
  S  S5  1  0.32940477  0.50846495  0.23465198  1
  S  S6  1  0.82940477  0.50846495  0.26534802  1
  S  S7  1  0.17059523  0.49153505  0.73465198  1
  S  S8  1  0.06989466  0.75000000  0.24427365  1
  S  S9  1  0.93010534  0.25000000  0.75572635  1
  S  S10  1  0.43010534  0.25000000  0.74427365  1
  S  S11  1  0.56989466  0.75000000  0.25572635  1
  S  S12  1  0.09006313  0.25000000  0.28717948  1
  S  S13  1  0.90993687  0.75000000  0.71282052  1
  S  S14  1  0.40993687  0.75000000  0.78717948  1
  S  S15  1  0.59006313  0.25000000  0.21282052  1
loop_
_geom_bond_atom_site_label_1
_geom_bond_atom_site_label_2
_geom_bond_distance
_geom_bond_site_symmetry_2
Ho0 S12 2.680198 1_555
Ho0 S13 2.680198 1_445
Ho0 S8 2.730157 1_545
Ho0 S9 2.730157 1_455
Ho0 S0 2.742030 1_555
Ho0 S1 2.742030 1_445
Ho1 S15 2.680198 1_555
Ho1 S14 2.680198 1_544
Ho1 S11 2.730157 1_545
Ho1 S10 2.730157 1_554
Ho1 S2 2.742030 1_545
Ho1 S3 2.742030 1_554
Ho2 S15 2.680198 1_555
Ho2 S14 2.680198 1_554
Ho2 S11 2.730157 1_555
Ho2 S10 2.730157 1_554
Ho2 S4 2.742030 1_554
Ho2 S5 2.742030 1_555
Ho3 S13 2.680198 1_455
Ho3 S12 2.680198 1_555
Ho3 S9 2.730157 1_455
Ho3 S8 2.730157 1_555
Ho3 S7 2.742030 1_555
Ho3 S6 2.742030 1_455
Ho4 S8 2.707758 1_556
Ho4 S14 2.732494 1_555
Ho4 S7 2.742290 1_555
Ho4 S0 2.742290 1_565
Ho4 S2 2.791207 1_556
Ho4 S5 2.791207 1_556
Ho5 S9 2.707758 1_554
Ho5 S15 2.732494 1_555
Ho5 S1 2.742290 1_545
Ho5 S6 2.742290 1_555
Ho5 S3 2.791207 1_554
Ho5 S4 2.791207 1_554
Ho6 S10 2.707758 1_555
Ho6 S12 2.732494 1_555
Ho6 S2 2.742290 1_545
Ho6 S5 2.742290 1_555
Ho6 S7 2.791207 1_555
Ho6 S0 2.791207 1_555
Ho7 S11 2.707758 1_555
Ho7 S13 2.732494 1_555
Ho7 S4 2.742290 1_555
Ho7 S3 2.742290 1_565
Ho7 S6 2.791207 1_555
Ho7 S1 2.791207 1_555
Mg0 S12 2.381463 1_556
Mg0 S0 2.450296 1_555
Mg0 S7 2.450296 1_555
Mg0 S9 2.467767 1_455
Mg1 S13 2.381463 1_554
Mg1 S1 2.450296 1_555
Mg1 S6 2.450296 1_555
Mg1 S8 2.467767 1_655
Mg2 S14 2.381463 1_555
Mg2 S5 2.450296 1_555
Mg2 S2 2.450296 1_555
Mg2 S11 2.467767 1_555
Mg3 S15 2.381463 1_555
Mg3 S3 2.450296 1_555
Mg3 S4 2.450296 1_555
Mg3 S10 2.467767 1_555
