# generated using pymatgen
data_Zn(C4N3)2
_symmetry_space_group_name_H-M   'P 1'
_cell_length_a   5.39262200
_cell_length_b   7.49185500
_cell_length_c   10.65165600
_cell_angle_alpha   90.00000000
_cell_angle_beta   90.00000000
_cell_angle_gamma   90.00000000
_symmetry_Int_Tables_number   1
_chemical_formula_structural   Zn(C4N3)2
_chemical_formula_sum   'Zn2 C16 N12'
_cell_volume   430.33480693
_cell_formula_units_Z   2
loop_
 _symmetry_equiv_pos_site_id
 _symmetry_equiv_pos_as_xyz
  1  'x, y, z'
loop_
 _atom_site_type_symbol
 _atom_site_label
 _atom_site_symmetry_multiplicity
 _atom_site_fract_x
 _atom_site_fract_y
 _atom_site_fract_z
 _atom_site_occupancy
  Zn  Zn0  1  0.00000000  0.50000000  0.50000000  1
  Zn  Zn1  1  0.00000000  0.00000000  0.00000000  1
  C  C0  1  0.39303200  0.00000000  0.74821700  1
  C  C1  1  0.39303200  0.50000000  0.75178300  1
  C  C2  1  0.60696800  0.00000000  0.25178300  1
  C  C3  1  0.60696800  0.50000000  0.24821700  1
  C  C4  1  0.58559500  0.00000000  0.65893200  1
  C  C5  1  0.58559500  0.50000000  0.84106800  1
  C  C6  1  0.41440500  0.00000000  0.34106800  1
  C  C7  1  0.41440500  0.50000000  0.15893200  1
  C  C8  1  0.69143000  0.15946000  0.61570900  1
  C  C9  1  0.69143000  0.34054000  0.88429100  1
  C  C10  1  0.30857000  0.15946000  0.38429100  1
  C  C11  1  0.69143000  0.65946000  0.88429100  1
  C  C12  1  0.30857000  0.84054000  0.38429100  1
  C  C13  1  0.30857000  0.65946000  0.11570900  1
  C  C14  1  0.69143000  0.84054000  0.61570900  1
  C  C15  1  0.30857000  0.34054000  0.11570900  1
  N  N0  1  0.78317100  0.28998100  0.57735100  1
  N  N1  1  0.78317100  0.21001900  0.92264900  1
  N  N2  1  0.21682900  0.28998100  0.42264900  1
  N  N3  1  0.78317100  0.78998100  0.92264900  1
  N  N4  1  0.21682900  0.71001900  0.42264900  1
  N  N5  1  0.21682900  0.78998100  0.07735100  1
  N  N6  1  0.78317100  0.71001900  0.57735100  1
  N  N7  1  0.21682900  0.21001900  0.07735100  1
  N  N8  1  0.23456500  0.00000000  0.82343400  1
  N  N9  1  0.23456500  0.50000000  0.67656600  1
  N  N10  1  0.76543500  0.00000000  0.17656600  1
  N  N11  1  0.76543500  0.50000000  0.32343400  1
loop_
_geom_bond_atom_site_label_1
_geom_bond_atom_site_label_2
_geom_bond_distance
_geom_bond_site_symmetry_2
C0 N8 1.171392 1_555
C0 C4 1.408112 1_555
C1 N9 1.171392 1_555
C1 C5 1.408112 1_555
C2 N10 1.171392 1_555
C2 C6 1.408112 1_555
C3 N11 1.171392 1_555
C3 C7 1.408112 1_555
C4 C8 1.401744 1_555
C5 C9 1.401744 1_555
C8 N0 1.169558 1_555
C9 N1 1.169558 1_555
C10 N2 1.169558 1_555
C10 C6 1.401744 1_555
C11 N3 1.169558 1_555
C11 C5 1.401744 1_555
C12 N4 1.169558 1_555
C12 C6 1.401744 1_565
C13 N5 1.169558 1_555
C13 C7 1.401744 1_555
C14 N6 1.169558 1_555
C14 C4 1.401744 1_565
C15 N7 1.169558 1_555
C15 C7 1.401744 1_555
N0 Zn0 2.126437 1_655
N1 Zn1 2.126437 1_656
N2 Zn0 2.126437 1_555
N3 Zn1 2.126437 1_666
N4 Zn0 2.126437 1_555
N5 Zn1 2.126437 1_565
N6 Zn0 2.126437 1_655
N7 Zn1 2.126437 1_555
N8 Zn1 2.266524 1_556
N9 Zn0 2.266524 1_555
N10 Zn1 2.266524 1_655
N11 Zn0 2.266524 1_655
