# generated using pymatgen
data_Tl4P4N4O9
_symmetry_space_group_name_H-M   'P 1'
_cell_length_a   9.39079000
_cell_length_b   9.94246097
_cell_length_c   10.56878089
_cell_angle_alpha   79.21744047
_cell_angle_beta   82.25487446
_cell_angle_gamma   65.54571163
_symmetry_Int_Tables_number   1
_chemical_formula_structural   Tl4P4N4O9
_chemical_formula_sum   'Tl8 P8 N8 O18'
_cell_volume   880.58478009
_cell_formula_units_Z   2
loop_
 _symmetry_equiv_pos_site_id
 _symmetry_equiv_pos_as_xyz
  1  'x, y, z'
loop_
 _atom_site_type_symbol
 _atom_site_label
 _atom_site_symmetry_multiplicity
 _atom_site_fract_x
 _atom_site_fract_y
 _atom_site_fract_z
 _atom_site_occupancy
  Tl  Tl0  1  0.55425300  0.12397800  0.56879200  1
  Tl  Tl1  1  0.42318800  0.86761200  0.43445000  1
  Tl  Tl2  1  0.49745900  0.00259800  0.00016700  1
  Tl  Tl3  1  0.07010600  0.34164600  0.87928300  1
  Tl  Tl4  1  0.93101800  0.65970000  0.11710100  1
  Tl  Tl5  1  0.39915100  0.37249900  0.09701500  1
  Tl  Tl6  1  0.59755400  0.63452600  0.91509600  1
  Tl  Tl7  1  0.65598900  0.47267400  0.51667900  1
  P  P0  1  0.75341500  0.02775200  0.23252300  1
  P  P1  1  0.24564100  0.97360000  0.76468500  1
  P  P2  1  0.79372700  0.32925200  0.19588800  1
  P  P3  1  0.21137300  0.66949900  0.80371800  1
  P  P4  1  0.14477000  0.15816400  0.23996600  1
  P  P5  1  0.85824900  0.84104900  0.75665600  1
  P  P6  1  0.89490200  0.14242000  0.71363900  1
  P  P7  1  0.10563700  0.85538000  0.28639400  1
  N  N0  1  0.75477400  0.19085700  0.16905800  1
  N  N1  1  0.24600500  0.81028800  0.83100900  1
  N  N2  1  0.96184700  0.26856300  0.25866200  1
  N  N3  1  0.04225900  0.72883400  0.74074200  1
  N  N4  1  0.15955300  0.99196800  0.22134900  1
  N  N5  1  0.83956700  0.00690700  0.77861900  1
  N  N6  1  0.91478700  0.92284000  0.30447000  1
  N  N7  1  0.08518000  0.07301000  0.69019300  1
  O  O0  1  0.24988800  0.05580800  0.87136300  1
  O  O1  1  0.74818300  0.94789600  0.12457600  1
  O  O2  1  0.81726900  0.20055900  0.58441400  1
  O  O3  1  0.17732900  0.80415300  0.41672100  1
  O  O4  1  0.85278600  0.25921000  0.80177000  1
  O  O5  1  0.15030300  0.73957200  0.19727400  1
  O  O6  1  0.21424500  0.21934800  0.11422200  1
  O  O7  1  0.78991400  0.77453400  0.88011300  1
  O  O8  1  0.80784300  0.42244800  0.06518500  1
  O  O9  1  0.19079100  0.57882200  0.93409100  1
  O  O10  1  0.23022600  0.13612600  0.35924200  1
  O  O11  1  0.77543100  0.86439400  0.63560200  1
  O  O12  1  0.61294200  0.05960200  0.32993600  1
  O  O13  1  0.38775900  0.94145200  0.66816100  1
  O  O14  1  0.48324400  0.20686600  0.93400100  1
  O  O15  1  0.51571800  0.79734100  0.06866900  1
  O  O16  1  0.66154700  0.40970300  0.28961000  1
  O  O17  1  0.34663700  0.58986900  0.71341800  1
loop_
_geom_bond_atom_site_label_1
_geom_bond_atom_site_label_2
_geom_bond_distance
_geom_bond_site_symmetry_2
N0 P0 1.639421 1_555
N0 P2 1.642629 1_555
N1 P1 1.642567 1_555
N1 P3 1.643665 1_555
N2 P4 1.619643 1_655
N2 P2 1.624995 1_555
N3 P5 1.629334 1_455
N3 P3 1.635675 1_555
N4 P7 1.642958 1_555
N4 P4 1.647048 1_565
N5 P6 1.641411 1_555
N5 P5 1.642164 1_545
N6 P7 1.630604 1_655
N6 P0 1.633337 1_565
N7 P6 1.629177 1_455
N7 P1 1.631826 1_545
O0 P1 1.524704 1_545
O0 Tl3 2.648094 1_555
O0 Tl2 2.665216 1_556
O1 P0 1.523385 1_565
O1 Tl2 2.659875 1_565
O1 Tl4 2.671985 1_555
O2 P6 1.534594 1_555
O2 Tl7 2.510187 1_555
O3 P7 1.521002 1_555
O3 Tl1 2.670337 1_555
O4 P6 1.515751 1_555
O4 Tl3 2.755813 1_655
O5 P7 1.512710 1_555
O5 Tl4 2.768601 1_455
O6 P4 1.534358 1_555
O6 Tl5 2.714254 1_555
O6 Tl3 2.808845 1_554
O7 P5 1.534420 1_555
O7 Tl6 2.654593 1_555
O7 Tl4 2.811543 1_556
O8 P2 1.535500 1_555
O8 Tl6 2.647149 1_554
O8 Tl3 2.866975 1_654
O9 P3 1.535059 1_555
O9 Tl5 2.695341 1_556
O9 Tl4 2.832812 1_456
O10 P4 1.518180 1_555
O10 Tl1 2.575189 1_545
O11 P5 1.517631 1_555
O11 Tl0 2.597864 1_565
O12 P0 1.520020 1_555
O12 Tl0 2.650208 1_555
O13 P1 1.525080 1_555
O13 Tl1 2.646799 1_555
O14 Tl2 1.975045 1_556
O14 Tl5 2.433512 1_556
O15 Tl2 1.977165 1_565
O15 Tl6 2.337165 1_554
O16 P2 1.518137 1_555
O16 Tl7 2.579791 1_555
O17 P3 1.508132 1_555
