# generated using pymatgen
data_Sr4Mn3BO10
_symmetry_space_group_name_H-M   'P 1'
_cell_length_a   7.63412500
_cell_length_b   9.71384107
_cell_length_c   7.72810300
_cell_angle_alpha   66.55871312
_cell_angle_beta   90.00051466
_cell_angle_gamma   66.86180737
_symmetry_Int_Tables_number   1
_chemical_formula_structural   Sr4Mn3BO10
_chemical_formula_sum   'Sr8 Mn6 B2 O20'
_cell_volume   475.12455415
_cell_formula_units_Z   2
loop_
 _symmetry_equiv_pos_site_id
 _symmetry_equiv_pos_as_xyz
  1  'x, y, z'
loop_
 _atom_site_type_symbol
 _atom_site_label
 _atom_site_symmetry_multiplicity
 _atom_site_fract_x
 _atom_site_fract_y
 _atom_site_fract_z
 _atom_site_occupancy
  Sr  Sr0  1  0.87805200  0.74392800  0.85631100  1
  Sr  Sr1  1  0.37800700  0.74393000  0.85629900  1
  Sr  Sr2  1  0.12194900  0.25603300  0.60025300  1
  Sr  Sr3  1  0.62198600  0.25604200  0.60025000  1
  Sr  Sr4  1  0.11842400  0.26316800  0.11595800  1
  Sr  Sr5  1  0.61840400  0.26318200  0.11595900  1
  Sr  Sr6  1  0.88158300  0.73685500  0.37911900  1
  Sr  Sr7  1  0.38159400  0.73685900  0.37911100  1
  Mn  Mn0  1  0.49998900  0.00000500  0.48863000  1
  Mn  Mn1  1  0.25042000  0.49917300  0.24043700  1
  Mn  Mn2  1  0.74957900  0.50083600  0.73960500  1
  Mn  Mn3  1  0.99997900  0.00001300  0.48853800  1
  Mn  Mn4  1  0.75040600  0.49919900  0.24042300  1
  Mn  Mn5  1  0.24958400  0.50082800  0.73959700  1
  B  B0  1  0.50000600  0.99999300  0.95866200  1
  B  B1  1  0.00000700  0.99999200  0.95865300  1
  O  O0  1  0.50000800  0.99999100  0.77523200  1
  O  O1  1  0.00001300  0.99998900  0.77522100  1
  O  O2  1  0.24998400  0.00000800  0.44797200  1
  O  O3  1  0.74998000  0.00000900  0.44796500  1
  O  O4  1  0.07625800  0.84744800  0.11910400  1
  O  O5  1  0.57626600  0.84744400  0.11910700  1
  O  O6  1  0.42374600  0.15253800  0.96656400  1
  O  O7  1  0.92375500  0.15253700  0.96656200  1
  O  O8  1  0.38033400  0.23929600  0.36225800  1
  O  O9  1  0.88032000  0.23931100  0.36222500  1
  O  O10  1  0.11965500  0.76071200  0.60152100  1
  O  O11  1  0.61966100  0.76071400  0.60155200  1
  O  O12  1  0.98526700  0.52948900  0.22453700  1
  O  O13  1  0.48526900  0.52948100  0.22453600  1
  O  O14  1  0.01475200  0.47049300  0.75401400  1
  O  O15  1  0.51475000  0.47049500  0.75400900  1
  O  O16  1  0.24236300  0.51526600  0.98316700  1
  O  O17  1  0.74235200  0.51528900  0.98316000  1
  O  O18  1  0.25765300  0.48472100  0.49844500  1
  O  O19  1  0.75764500  0.48473300  0.49844500  1
loop_
_geom_bond_atom_site_label_1
_geom_bond_atom_site_label_2
_geom_bond_distance
_geom_bond_site_symmetry_2
Mn0 O8 1.927788 1_555
Mn0 O11 1.927790 1_545
Mn0 O3 1.934179 1_555
Mn0 O2 1.934245 1_555
Mn0 O0 2.214836 1_545
Mn1 O12 1.924053 1_455
Mn1 O13 1.924108 1_555
Mn1 O16 1.930377 1_554
Mn1 O18 1.941557 1_555
Mn1 O8 2.093816 1_555
Mn2 O15 1.924115 1_555
Mn2 O14 1.924131 1_655
Mn2 O19 1.930297 1_555
Mn2 O17 1.941561 1_555
Mn2 O11 2.093820 1_555
Mn3 O9 1.927831 1_555
Mn3 O10 1.927859 1_645
Mn3 O3 1.934124 1_555
Mn3 O2 1.934132 1_655
Mn3 O1 2.215423 1_645
Mn4 O13 1.924026 1_555
Mn4 O12 1.924112 1_555
Mn4 O17 1.930333 1_554
Mn4 O19 1.941618 1_555
Mn4 O9 2.093910 1_555
Mn5 O15 1.924105 1_555
Mn5 O14 1.924109 1_555
Mn5 O18 1.930253 1_555
Mn5 O16 1.941611 1_555
Mn5 O10 2.093873 1_555
B0 O5 1.390091 1_556
B0 O6 1.390111 1_565
B0 O0 1.417574 1_555
B1 O4 1.390086 1_556
B1 O7 1.390136 1_465
B1 O1 1.417593 1_555
O0 Sr3 2.833086 1_565
O0 Sr2 2.833198 1_565
O0 Sr0 2.833204 1_555
O0 Sr1 2.833307 1_555
O1 Sr2 2.832800 1_565
O1 Sr1 2.832933 1_555
O1 Sr3 2.833056 1_465
O1 Sr0 2.833078 1_455
O2 Sr4 2.624999 1_555
O2 Sr7 2.625008 1_545
O2 Sr2 2.990594 1_555
O2 Sr1 2.990769 1_545
O3 Sr6 2.624983 1_545
O3 Sr5 2.625017 1_555
O3 Sr3 2.990683 1_555
O3 Sr0 2.990884 1_545
O4 Sr6 2.633986 1_455
O4 Sr7 2.634309 1_555
O4 Sr0 3.200912 1_454
O4 Sr1 3.201104 1_554
O5 Sr7 2.633893 1_555
O5 Sr6 2.634227 1_555
O5 Sr1 3.201197 1_554
O5 Sr0 3.201214 1_554
O6 Sr5 2.634176 1_556
O6 Sr4 2.634266 1_556
O6 Sr3 3.201038 1_555
O6 Sr2 3.201260 1_555
O7 Sr4 2.634140 1_656
O7 Sr5 2.634474 1_556
O7 Sr2 3.200788 1_655
O7 Sr3 3.201108 1_555
O8 Sr4 2.637994 1_555
O8 Sr5 2.638200 1_555
O8 Sr2 2.699285 1_555
O8 Sr3 2.699319 1_555
O9 Sr5 2.637852 1_555
O9 Sr4 2.638198 1_655
O9 Sr3 2.699171 1_555
O9 Sr2 2.699251 1_655
O10 Sr6 2.637963 1_455
O10 Sr7 2.638081 1_555
O10 Sr1 2.699102 1_555
O10 Sr0 2.699371 1_455
O11 Sr6 2.638112 1_555
O11 Sr7 2.638130 1_555
O11 Sr0 2.699189 1_555
O11 Sr1 2.699412 1_555
O12 Sr6 2.602434 1_555
O12 Sr0 2.655329 1_554
O12 Sr4 2.844363 1_655
O12 Sr2 2.874145 1_655
O13 Sr7 2.602490 1_555
O13 Sr1 2.655417 1_554
O13 Sr5 2.844163 1_555
O13 Sr3 2.874072 1_555
O14 Sr4 2.602244 1_556
O14 Sr2 2.655426 1_555
O14 Sr6 2.844399 1_455
O14 Sr0 2.874230 1_455
O15 Sr5 2.602253 1_556
O15 Sr3 2.655357 1_555
O15 Sr7 2.844422 1_555
O15 Sr1 2.874195 1_555
O16 Sr0 2.653738 1_455
O16 Sr1 2.653740 1_555
O16 Sr5 2.786847 1_556
O16 Sr4 2.786880 1_556
O17 Sr0 2.653838 1_555
O17 Sr1 2.653869 1_555
O17 Sr5 2.787004 1_556
O17 Sr4 2.787127 1_656
O18 Sr3 2.653915 1_555
O18 Sr2 2.654273 1_555
O18 Sr6 2.787163 1_455
O18 Sr7 2.787231 1_555
O19 Sr2 2.653817 1_655
O19 Sr3 2.654052 1_555
O19 Sr7 2.787035 1_555
O19 Sr6 2.787079 1_555
