# generated using pymatgen
data_Sr2ZnWO6
_symmetry_space_group_name_H-M   'P 1'
_cell_length_a   5.71701508
_cell_length_b   5.71701508
_cell_length_c   5.71701508
_cell_angle_alpha   120.63171866
_cell_angle_beta   120.63171866
_cell_angle_gamma   88.90926997
_symmetry_Int_Tables_number   1
_chemical_formula_structural   Sr2ZnWO6
_chemical_formula_sum   'Sr2 Zn1 W1 O6'
_cell_volume   130.84011649
_cell_formula_units_Z   1
loop_
 _symmetry_equiv_pos_site_id
 _symmetry_equiv_pos_as_xyz
  1  'x, y, z'
loop_
 _atom_site_type_symbol
 _atom_site_label
 _atom_site_symmetry_multiplicity
 _atom_site_fract_x
 _atom_site_fract_y
 _atom_site_fract_z
 _atom_site_occupancy
  Sr  Sr0  1  0.25000000  0.75000000  0.50000000  1
  Sr  Sr1  1  0.75000000  0.25000000  0.50000000  1
  Zn  Zn0  1  0.50000000  0.50000000  0.00000000  1
  W  W0  1  0.00000000  0.00000000  0.00000000  1
  O  O0  1  0.80530000  0.71519000  0.52048900  1
  O  O1  1  0.19470000  0.28481000  0.47951100  1
  O  O2  1  0.71519000  0.19470000  0.90989000  1
  O  O3  1  0.28481000  0.80530000  0.09011000  1
  O  O4  1  0.23937600  0.23937600  0.00000000  1
  O  O5  1  0.76062400  0.76062400  0.00000000  1
loop_
_geom_bond_atom_site_label_1
_geom_bond_atom_site_label_2
_geom_bond_distance
_geom_bond_site_symmetry_2
O0 W0 1.953510 1_666
O0 Zn0 2.114975 1_555
O0 Sr0 2.619807 1_655
O0 Sr1 2.619814 1_555
O0 Sr1 3.122900 1_565
O0 Sr0 3.122905 1_555
O1 W0 1.953510 1_555
O1 Zn0 2.114975 1_556
O1 Sr1 2.619807 1_455
O1 Sr0 2.619814 1_555
O1 Sr0 3.122900 1_545
O1 Sr1 3.122905 1_555
O2 W0 1.953506 1_656
O2 Zn0 2.114979 1_556
O2 Sr1 2.619811 1_555
O2 Sr0 2.619811 1_545
O2 Sr0 3.122903 1_656
O2 Sr1 3.122903 1_556
O3 W0 1.953506 1_565
O3 Zn0 2.114979 1_555
O3 Sr0 2.619811 1_555
O3 Sr1 2.619811 1_565
O3 Sr1 3.122903 1_454
O3 Sr0 3.122903 1_554
O4 W0 1.953708 1_555
O4 Zn0 2.127127 1_555
O4 Sr0 2.832498 1_544
O4 Sr1 2.832498 1_555
O4 Sr1 2.832498 1_454
O4 Sr0 2.832498 1_555
O5 W0 1.953708 1_665
O5 Zn0 2.127127 1_555
O5 Sr0 2.832498 1_554
O5 Sr1 2.832498 1_554
O5 Sr1 2.832498 1_565
O5 Sr0 2.832498 1_655
