# generated using pymatgen
data_La2AsI2
_symmetry_space_group_name_H-M   'P 1'
_cell_length_a   4.41761839
_cell_length_b   4.41761839
_cell_length_c   11.19198685
_cell_angle_alpha   90.00000000
_cell_angle_beta   90.00000000
_cell_angle_gamma   119.99999442
_symmetry_Int_Tables_number   1
_chemical_formula_structural   La2AsI2
_chemical_formula_sum   'La2 As1 I2'
_cell_volume   189.15343883
_cell_formula_units_Z   1
loop_
 _symmetry_equiv_pos_site_id
 _symmetry_equiv_pos_as_xyz
  1  'x, y, z'
loop_
 _atom_site_type_symbol
 _atom_site_label
 _atom_site_symmetry_multiplicity
 _atom_site_fract_x
 _atom_site_fract_y
 _atom_site_fract_z
 _atom_site_occupancy
  La  La0  1  0.33333300  0.66666700  0.14806150  1
  La  La1  1  0.66666700  0.33333300  0.85193850  1
  As  As0  1  -0.00000000  0.00000000  -0.00000000  1
  I  I0  1  0.33333300  0.66666700  0.66483244  1
  I  I1  1  0.66666700  0.33333300  0.33516756  1
loop_
_geom_bond_atom_site_label_1
_geom_bond_atom_site_label_2
_geom_bond_distance
_geom_bond_site_symmetry_2
As0 La0 3.041561 1_545
As0 La1 3.041561 1_454
As0 La0 3.041564 1_555
As0 La0 3.041564 1_445
As0 La1 3.041564 1_554
As0 La1 3.041564 1_444
I0 La1 3.300047 1_565
I0 La1 3.300047 1_455
I0 La1 3.300053 1_555
I1 La0 3.300047 1_655
I1 La0 3.300047 1_545
I1 La0 3.300053 1_555
