# generated using pymatgen
data_U3Ni2O9F16
_symmetry_space_group_name_H-M   'P 1'
_cell_length_a   8.07900720
_cell_length_b   8.07900769
_cell_length_c   16.14786700
_cell_angle_alpha   90.00000000
_cell_angle_beta   90.00000000
_cell_angle_gamma   120.44252313
_symmetry_Int_Tables_number   1
_chemical_formula_structural   U3Ni2O9F16
_chemical_formula_sum   'U6 Ni4 O18 F32'
_cell_volume   908.67358273
_cell_formula_units_Z   2
loop_
 _symmetry_equiv_pos_site_id
 _symmetry_equiv_pos_as_xyz
  1  'x, y, z'
loop_
 _atom_site_type_symbol
 _atom_site_label
 _atom_site_symmetry_multiplicity
 _atom_site_fract_x
 _atom_site_fract_y
 _atom_site_fract_z
 _atom_site_occupancy
  U  U0  1  0.50559200  0.49440800  0.75000000  1
  U  U1  1  0.50782900  0.00598300  0.75000000  1
  U  U2  1  0.99401700  0.49217100  0.75000000  1
  U  U3  1  0.49440800  0.50559200  0.25000000  1
  U  U4  1  0.49217100  0.99401700  0.25000000  1
  U  U5  1  0.00598300  0.50782900  0.25000000  1
  Ni  Ni0  1  0.33396900  0.66603100  0.96104300  1
  Ni  Ni1  1  0.66603100  0.33396900  0.03895700  1
  Ni  Ni2  1  0.66603100  0.33396900  0.46104300  1
  Ni  Ni3  1  0.33396900  0.66603100  0.53895700  1
  O  O0  1  0.21370100  0.41966400  0.01076700  1
  O  O1  1  0.58033600  0.78629900  0.01076700  1
  O  O2  1  0.21147300  0.78852700  0.01109800  1
  O  O3  1  0.78629900  0.58033600  0.98923300  1
  O  O4  1  0.41966400  0.21370100  0.98923300  1
  O  O5  1  0.78852700  0.21147300  0.98890200  1
  O  O6  1  0.78629900  0.58033600  0.51076700  1
  O  O7  1  0.41966400  0.21370100  0.51076700  1
  O  O8  1  0.78852700  0.21147300  0.51109800  1
  O  O9  1  0.21370100  0.41966400  0.48923300  1
  O  O10  1  0.58033600  0.78629900  0.48923300  1
  O  O11  1  0.21147300  0.78852700  0.48890200  1
  O  O12  1  0.97936400  0.02063600  0.81909200  1
  O  O13  1  0.02063600  0.97936400  0.18090800  1
  O  O14  1  0.02063600  0.97936400  0.31909200  1
  O  O15  1  0.97936400  0.02063600  0.68090800  1
  O  O16  1  0.02416900  0.97583100  0.75000000  1
  O  O17  1  0.97583100  0.02416900  0.25000000  1
  F  F0  1  0.17084500  0.34045700  0.75000000  1
  F  F1  1  0.65954300  0.82915500  0.75000000  1
  F  F2  1  0.18110000  0.81890000  0.75000000  1
  F  F3  1  0.82915500  0.65954300  0.25000000  1
  F  F4  1  0.34045700  0.17084500  0.25000000  1
  F  F5  1  0.81890000  0.18110000  0.25000000  1
  F  F6  1  0.33788900  0.66211100  0.75000000  1
  F  F7  1  0.66211100  0.33788900  0.25000000  1
  F  F8  1  0.77966900  0.55789800  0.82224800  1
  F  F9  1  0.44210200  0.22033100  0.82224800  1
  F  F10  1  0.77783600  0.22216400  0.82289700  1
  F  F11  1  0.22033100  0.44210200  0.17775200  1
  F  F12  1  0.55789800  0.77966900  0.17775200  1
  F  F13  1  0.22216400  0.77783600  0.17710300  1
  F  F14  1  0.22033100  0.44210200  0.32224800  1
  F  F15  1  0.55789800  0.77966900  0.32224800  1
  F  F16  1  0.22216400  0.77783600  0.32289700  1
  F  F17  1  0.77966900  0.55789800  0.67775200  1
  F  F18  1  0.44210200  0.22033100  0.67775200  1
  F  F19  1  0.77783600  0.22216400  0.67710300  1
  F  F20  1  0.45407100  0.54592900  0.87345100  1
  F  F21  1  0.45458100  0.90885700  0.87406000  1
  F  F22  1  0.09114300  0.54541900  0.87406000  1
  F  F23  1  0.54592900  0.45407100  0.12654900  1
  F  F24  1  0.54541900  0.09114300  0.12594000  1
  F  F25  1  0.90885700  0.45458100  0.12594000  1
  F  F26  1  0.54592900  0.45407100  0.37345100  1
  F  F27  1  0.54541900  0.09114300  0.37406000  1
  F  F28  1  0.90885700  0.45458100  0.37406000  1
  F  F29  1  0.45407100  0.54592900  0.62654900  1
  F  F30  1  0.45458100  0.90885700  0.62594000  1
  F  F31  1  0.09114300  0.54541900  0.62594000  1
loop_
_geom_bond_atom_site_label_1
_geom_bond_atom_site_label_2
_geom_bond_distance
_geom_bond_site_symmetry_2
Ni0 O1 1.894919 1_556
Ni0 O0 1.894920 1_556
Ni0 O2 1.898576 1_556
Ni1 O4 1.894919 1_554
Ni1 O3 1.894920 1_554
Ni1 O5 1.898576 1_554
Ni2 O7 1.894919 1_555
Ni2 O6 1.894920 1_555
Ni2 O8 1.898576 1_555
Ni3 O10 1.894919 1_555
Ni3 O9 1.894920 1_555
Ni3 O11 1.898576 1_555
O12 O16 1.280468 1_645
O13 O17 1.280468 1_465
O14 O17 1.280468 1_465
O15 O16 1.280468 1_645
F0 U2 2.305996 1_455
F0 U0 2.335014 1_555
F1 U1 2.305996 1_565
F1 U0 2.335015 1_555
F2 U1 2.282381 1_565
F2 U2 2.282381 1_455
F3 U5 2.305996 1_655
F3 U3 2.335014 1_555
F4 U4 2.305996 1_545
F4 U3 2.335015 1_555
F5 U4 2.282381 1_545
F5 U5 2.282381 1_655
F6 U0 2.351925 1_555
F6 U2 2.395394 1_455
F6 U1 2.395394 1_565
F7 U3 2.351925 1_555
F7 U5 2.395394 1_655
F7 U4 2.395394 1_545
F8 U0 2.318670 1_555
F8 U2 2.360874 1_555
F9 U0 2.318670 1_555
F9 U1 2.360875 1_555
F10 U1 2.309490 1_555
F10 U2 2.309490 1_555
F11 U3 2.318670 1_555
F11 U5 2.360874 1_555
F12 U3 2.318670 1_555
F12 U4 2.360875 1_555
F13 U4 2.309490 1_555
F13 U5 2.309490 1_555
F14 U3 2.318670 1_555
F14 U5 2.360874 1_555
F15 U3 2.318670 1_555
F15 U4 2.360875 1_555
F16 U4 2.309490 1_555
F16 U5 2.309490 1_555
F17 U0 2.318670 1_555
F17 U2 2.360874 1_555
F18 U0 2.318670 1_555
F18 U1 2.360875 1_555
F19 U1 2.309490 1_555
F19 U2 2.309490 1_555
F20 U0 2.120377 1_555
F20 Ni0 2.199463 1_555
F21 U1 2.114698 1_565
F21 Ni0 2.198607 1_555
F22 U2 2.114698 1_455
F22 Ni0 2.198607 1_555
F23 U3 2.120377 1_555
F23 Ni1 2.199463 1_555
F24 U4 2.114698 1_545
F24 Ni1 2.198607 1_555
F25 U5 2.114698 1_655
F25 Ni1 2.198607 1_555
F26 U3 2.120377 1_555
F26 Ni2 2.199463 1_555
F27 U4 2.114698 1_545
F27 Ni2 2.198607 1_555
F28 U5 2.114698 1_655
F28 Ni2 2.198607 1_555
F29 U0 2.120377 1_555
F29 Ni3 2.199463 1_555
F30 U1 2.114698 1_565
F30 Ni3 2.198607 1_555
F31 U2 2.114698 1_455
F31 Ni3 2.198607 1_555
