# generated using pymatgen
data_K(CrS2)2
_symmetry_space_group_name_H-M   'P 1'
_cell_length_a   11.47610400
_cell_length_b   8.09552600
_cell_length_c   12.14085000
_cell_angle_alpha   90.00000000
_cell_angle_beta   90.00000000
_cell_angle_gamma   90.00000000
_symmetry_Int_Tables_number   1
_chemical_formula_structural   K(CrS2)2
_chemical_formula_sum   'K8 Cr16 S32'
_cell_volume   1127.94686283
_cell_formula_units_Z   8
loop_
 _symmetry_equiv_pos_site_id
 _symmetry_equiv_pos_as_xyz
  1  'x, y, z'
loop_
 _atom_site_type_symbol
 _atom_site_label
 _atom_site_symmetry_multiplicity
 _atom_site_fract_x
 _atom_site_fract_y
 _atom_site_fract_z
 _atom_site_occupancy
  K  K0  1  0.06325200  0.37558900  0.66282500  1
  K  K1  1  0.93674800  0.62441100  0.16282500  1
  K  K2  1  0.43674800  0.37558900  0.16282500  1
  K  K3  1  0.56325200  0.62441100  0.66282500  1
  K  K4  1  0.09756300  0.87472200  0.33653800  1
  K  K5  1  0.90243700  0.12527800  0.83653800  1
  K  K6  1  0.40243700  0.87472200  0.83653800  1
  K  K7  1  0.59756300  0.12527800  0.33653800  1
  Cr  Cr0  1  0.11500000  0.85143700  0.69482400  1
  Cr  Cr1  1  0.88500000  0.14856300  0.19482400  1
  Cr  Cr2  1  0.38500000  0.85143700  0.19482400  1
  Cr  Cr3  1  0.61500000  0.14856300  0.69482400  1
  Cr  Cr4  1  0.13937800  0.34548100  0.32723600  1
  Cr  Cr5  1  0.86062200  0.65451900  0.82723600  1
  Cr  Cr6  1  0.36062200  0.34548100  0.82723600  1
  Cr  Cr7  1  0.63937800  0.65451900  0.32723600  1
  Cr  Cr8  1  0.15607800  0.61904300  0.93105600  1
  Cr  Cr9  1  0.84392200  0.38095700  0.43105600  1
  Cr  Cr10  1  0.34392200  0.61904300  0.43105600  1
  Cr  Cr11  1  0.65607800  0.38095700  0.93105600  1
  Cr  Cr12  1  0.15084200  0.11185500  0.01233800  1
  Cr  Cr13  1  0.84915800  0.88814500  0.51233800  1
  Cr  Cr14  1  0.34915800  0.11185500  0.51233800  1
  Cr  Cr15  1  0.65084200  0.88814500  0.01233800  1
  S  S0  1  0.02602600  0.81572400  0.86574900  1
  S  S1  1  0.97397400  0.18427600  0.36574900  1
  S  S2  1  0.47397400  0.81572400  0.36574900  1
  S  S3  1  0.52602600  0.18427600  0.86574900  1
  S  S4  1  0.05792800  0.29438800  0.14940900  1
  S  S5  1  0.94207200  0.70561200  0.64940900  1
  S  S6  1  0.44207200  0.29438800  0.64940900  1
  S  S7  1  0.55792800  0.70561200  0.14940900  1
  S  S8  1  0.99186500  0.47188100  0.91157600  1
  S  S9  1  0.00813500  0.52811900  0.41157600  1
  S  S10  1  0.50813500  0.47188100  0.41157600  1
  S  S11  1  0.49186500  0.52811900  0.91157600  1
  S  S12  1  0.98824800  0.97614300  0.08691300  1
  S  S13  1  0.01175200  0.02385700  0.58691300  1
  S  S14  1  0.51175200  0.97614300  0.58691300  1
  S  S15  1  0.48824800  0.02385700  0.08691300  1
  S  S16  1  0.26404800  0.83509300  0.54376000  1
  S  S17  1  0.73595200  0.16490700  0.04376000  1
  S  S18  1  0.23595200  0.83509300  0.04376000  1
  S  S19  1  0.76404800  0.16490700  0.54376000  1
  S  S20  1  0.24924400  0.37104800  0.49034500  1
  S  S21  1  0.75075600  0.62895200  0.99034500  1
  S  S22  1  0.25075600  0.37104800  0.99034500  1
  S  S23  1  0.74924400  0.62895200  0.49034500  1
  S  S24  1  0.19872600  0.11273100  0.81511800  1
  S  S25  1  0.80127400  0.88726900  0.31511800  1
  S  S26  1  0.30127400  0.11273100  0.31511800  1
  S  S27  1  0.69872600  0.88726900  0.81511800  1
  S  S28  1  0.24437200  0.59746000  0.76931500  1
  S  S29  1  0.75562800  0.40254000  0.26931500  1
  S  S30  1  0.25562800  0.59746000  0.26931500  1
  S  S31  1  0.74437200  0.40254000  0.76931500  1
loop_
_geom_bond_atom_site_label_1
_geom_bond_atom_site_label_2
_geom_bond_distance
_geom_bond_site_symmetry_2
K0 S20 2.990376 1_555
K0 S5 3.016378 1_455
K0 S28 3.036135 1_555
K0 S13 3.050692 1_555
K0 S24 3.219330 1_555
K0 S8 3.224830 1_455
K0 S9 3.351066 1_555
K1 S21 2.990376 1_554
K1 S4 3.016378 1_655
K1 S29 3.036135 1_555
K1 S12 3.050692 1_555
K1 S25 3.219330 1_555
K1 S9 3.224830 1_655
K1 S8 3.351066 1_554
K2 S22 2.990376 1_554
K2 S7 3.016378 1_555
K2 S30 3.036135 1_555
K2 S15 3.050692 1_555
K2 S26 3.219330 1_555
K2 S10 3.224830 1_555
K2 S11 3.351066 1_554
K3 S23 2.990376 1_555
K3 S6 3.016378 1_555
K3 S31 3.036135 1_555
K3 S14 3.050692 1_555
K3 S27 3.219330 1_555
K3 S11 3.224830 1_555
K3 S10 3.351066 1_555
K4 S1 2.901285 1_465
K4 S30 2.999121 1_555
K4 S26 3.040653 1_565
K4 S9 3.123538 1_555
K4 S16 3.175346 1_555
K4 S12 3.381246 1_455
K4 S25 3.411686 1_455
K4 S13 3.415786 1_565
K5 S0 2.901285 1_645
K5 S31 2.999121 1_555
K5 S27 3.040653 1_545
K5 S8 3.123538 1_555
K5 S17 3.175346 1_556
K5 S13 3.381246 1_655
K5 S24 3.411686 1_655
K5 S12 3.415786 1_546
K6 S3 2.901285 1_565
K6 S28 2.999121 1_555
K6 S24 3.040653 1_565
K6 S11 3.123538 1_555
K6 S18 3.175346 1_556
K6 S14 3.381246 1_555
K6 S27 3.411686 1_555
K6 S15 3.415786 1_566
K7 S2 2.901285 1_545
K7 S29 2.999121 1_555
K7 S25 3.040653 1_545
K7 S10 3.123538 1_555
K7 S19 3.175346 1_555
K7 S15 3.381246 1_555
K7 S26 3.411686 1_555
K7 S14 3.415786 1_545
Cr0 S13 2.251386 1_565
Cr0 S0 2.330779 1_555
Cr0 S5 2.374040 1_455
Cr0 S16 2.511375 1_555
Cr0 S28 2.692519 1_555
Cr0 S24 2.744222 1_565
Cr1 S12 2.251386 1_545
Cr1 S1 2.330779 1_555
Cr1 S4 2.374040 1_655
Cr1 S17 2.511375 1_555
Cr1 S29 2.692519 1_555
Cr1 S25 2.744222 1_545
Cr2 S15 2.251386 1_565
Cr2 S2 2.330779 1_555
Cr2 S7 2.374040 1_555
Cr2 S18 2.511375 1_555
Cr2 S30 2.692519 1_555
Cr2 S26 2.744222 1_565
Cr3 S14 2.251386 1_545
Cr3 S3 2.330779 1_555
Cr3 S6 2.374040 1_555
Cr3 S19 2.511375 1_555
Cr3 S31 2.692519 1_555
Cr3 S27 2.744222 1_545
Cr4 S9 2.345872 1_555
Cr4 S1 2.350510 1_455
Cr4 S20 2.356705 1_555
Cr4 S4 2.388715 1_555
Cr4 S30 2.536833 1_555
Cr4 S26 2.650265 1_555
Cr5 S8 2.345872 1_555
Cr5 S0 2.350510 1_655
Cr5 S21 2.356705 1_555
Cr5 S5 2.388715 1_555
Cr5 S31 2.536833 1_555
Cr5 S27 2.650265 1_555
Cr6 S11 2.345872 1_555
Cr6 S3 2.350510 1_555
Cr6 S22 2.356705 1_555
Cr6 S6 2.388715 1_555
Cr6 S28 2.536833 1_555
Cr6 S24 2.650265 1_555
Cr7 S10 2.345872 1_555
Cr7 S2 2.350510 1_555
Cr7 S23 2.356705 1_555
Cr7 S7 2.388715 1_555
Cr7 S29 2.536833 1_555
Cr7 S25 2.650265 1_555
Cr8 S28 2.216587 1_555
Cr8 S8 2.242029 1_455
Cr8 S0 2.321940 1_555
Cr8 S22 2.393607 1_555
Cr8 S18 2.402431 1_556
Cr9 S29 2.216587 1_555
Cr9 S9 2.242029 1_655
Cr9 S1 2.321940 1_555
Cr9 S23 2.393607 1_555
Cr9 S19 2.402431 1_555
Cr10 S30 2.216587 1_555
Cr10 S10 2.242029 1_555
Cr10 S2 2.321940 1_555
Cr10 S20 2.393607 1_555
Cr10 S16 2.402431 1_555
Cr11 S31 2.216587 1_555
Cr11 S11 2.242029 1_555
Cr11 S3 2.321940 1_555
Cr11 S21 2.393607 1_555
Cr11 S17 2.402431 1_556
Cr12 S12 2.347033 1_445
Cr12 S22 2.406017 1_554
Cr12 S24 2.456677 1_554
Cr12 S4 2.467792 1_555
Cr12 S18 2.473769 1_545
Cr13 S13 2.347033 1_665
Cr13 S23 2.406017 1_555
Cr13 S25 2.456677 1_555
Cr13 S5 2.467792 1_555
Cr13 S19 2.473769 1_565
Cr14 S14 2.347033 1_545
Cr14 S20 2.406017 1_555
Cr14 S26 2.456677 1_555
Cr14 S6 2.467792 1_555
Cr14 S16 2.473769 1_545
Cr15 S15 2.347033 1_565
Cr15 S21 2.406017 1_554
Cr15 S27 2.456677 1_554
Cr15 S7 2.467792 1_555
Cr15 S17 2.473769 1_565
