# generated using pymatgen
data_Nd4Ni3O8
_symmetry_space_group_name_H-M   'P 1'
_cell_length_a   3.96274954
_cell_length_b   3.96274927
_cell_length_c   13.01573898
_cell_angle_alpha   98.75613106
_cell_angle_beta   98.75612902
_cell_angle_gamma   90.00000442
_symmetry_Int_Tables_number   1
_chemical_formula_structural   Nd4Ni3O8
_chemical_formula_sum   'Nd4 Ni3 O8'
_cell_volume   199.59844039
_cell_formula_units_Z   1
loop_
 _symmetry_equiv_pos_site_id
 _symmetry_equiv_pos_as_xyz
  1  'x, y, z'
loop_
 _atom_site_type_symbol
 _atom_site_label
 _atom_site_symmetry_multiplicity
 _atom_site_fract_x
 _atom_site_fract_y
 _atom_site_fract_z
 _atom_site_occupancy
  Nd  Nd0  1  0.70162000  0.70161900  0.40324100  1
  Nd  Nd1  1  0.29837900  0.29837900  0.59675900  1
  Nd  Nd2  1  0.56631000  0.56630900  0.13261900  1
  Nd  Nd3  1  0.43369200  0.43369200  0.86738200  1
  Ni  Ni0  1  0.87507000  0.87507200  0.75014300  1
  Ni  Ni1  1  0.12492900  0.12492900  0.24985700  1
  Ni  Ni2  1  0.00000000  0.00000000  0.00000000  1
  O  O0  1  0.25000000  0.75000000  0.50000000  1
  O  O1  1  0.74999900  0.25000100  0.50000000  1
  O  O2  1  0.87461300  0.37461300  0.74922800  1
  O  O3  1  0.37461400  0.87461300  0.74922800  1
  O  O4  1  0.12538600  0.62538500  0.25077200  1
  O  O5  1  0.62538500  0.12538500  0.25077200  1
  O  O6  1  0.00000100  0.50000000  0.00000000  1
  O  O7  1  0.50000000  0.00000000  0.00000000  1
loop_
_geom_bond_atom_site_label_1
_geom_bond_atom_site_label_2
_geom_bond_distance
_geom_bond_site_symmetry_2
Nd0 O1 2.332029 1_555
Nd0 O0 2.332036 1_555
Nd0 O0 2.332039 1_655
Nd0 O1 2.332046 1_565
Nd0 O5 2.771559 1_555
Nd0 O4 2.771559 1_555
Nd0 O5 2.771562 1_565
Nd0 O4 2.771562 1_655
Nd1 O0 2.332036 1_545
Nd1 O1 2.332036 1_555
Nd1 O0 2.332039 1_555
Nd1 O1 2.332039 1_455
Nd1 O3 2.771559 1_555
Nd1 O2 2.771559 1_555
Nd1 O3 2.771562 1_545
Nd1 O2 2.771562 1_455
Nd2 O5 2.486203 1_565
Nd2 O4 2.486203 1_655
Nd2 O5 2.486206 1_555
Nd2 O4 2.486206 1_555
Nd2 O7 2.601400 1_555
Nd2 O6 2.601400 1_555
Nd2 O7 2.601403 1_565
Nd2 O6 2.601403 1_655
Nd3 O3 2.486206 1_555
Nd3 O2 2.486206 1_555
Nd3 O3 2.486219 1_545
Nd3 O2 2.486219 1_455
Nd3 O7 2.601390 1_566
Nd3 O6 2.601394 1_556
Nd3 O6 2.601394 1_656
Nd3 O7 2.601397 1_556
Ni0 O2 1.981403 1_565
Ni0 O3 1.981403 1_555
Ni0 O2 1.981415 1_555
Ni0 O3 1.981415 1_655
Ni1 O4 1.981403 1_555
Ni1 O5 1.981403 1_555
Ni1 O4 1.981415 1_545
Ni1 O5 1.981415 1_455
Ni2 O6 1.981375 1_555
Ni2 O6 1.981375 1_545
Ni2 O7 1.981375 1_455
Ni2 O7 1.981375 1_555
