# generated using pymatgen
data_Nd3Si4Ni29
_symmetry_space_group_name_H-M   'P 1'
_cell_length_a   10.86275200
_cell_length_b   10.86275200
_cell_length_c   7.64417500
_cell_angle_alpha   90.00000000
_cell_angle_beta   90.00000000
_cell_angle_gamma   90.00000000
_symmetry_Int_Tables_number   1
_chemical_formula_structural   Nd3Si4Ni29
_chemical_formula_sum   'Nd6 Si8 Ni58'
_cell_volume   902.00791836
_cell_formula_units_Z   2
loop_
 _symmetry_equiv_pos_site_id
 _symmetry_equiv_pos_as_xyz
  1  'x, y, z'
loop_
 _atom_site_type_symbol
 _atom_site_label
 _atom_site_symmetry_multiplicity
 _atom_site_fract_x
 _atom_site_fract_y
 _atom_site_fract_z
 _atom_site_occupancy
  Nd  Nd0  1  0.00000000  0.00000000  0.50000000  1
  Nd  Nd1  1  0.50000000  0.50000000  0.50000000  1
  Nd  Nd2  1  0.25000000  0.75000000  0.00000000  1
  Nd  Nd3  1  0.25000000  0.25000000  0.00000000  1
  Nd  Nd4  1  0.75000000  0.75000000  0.00000000  1
  Nd  Nd5  1  0.75000000  0.25000000  0.00000000  1
  Si  Si0  1  0.50000000  0.68711300  0.81938800  1
  Si  Si1  1  0.50000000  0.31288700  0.81938800  1
  Si  Si2  1  0.18711300  0.00000000  0.81938800  1
  Si  Si3  1  0.81288700  0.00000000  0.81938800  1
  Si  Si4  1  0.00000000  0.81288700  0.18061200  1
  Si  Si5  1  0.00000000  0.18711300  0.18061200  1
  Si  Si6  1  0.31288700  0.50000000  0.18061200  1
  Si  Si7  1  0.68711300  0.50000000  0.18061200  1
  Ni  Ni0  1  0.50000000  0.00000000  0.52489300  1
  Ni  Ni1  1  0.00000000  0.50000000  0.47510700  1
  Ni  Ni2  1  0.50000000  0.77090100  0.51894900  1
  Ni  Ni3  1  0.50000000  0.22909900  0.51894900  1
  Ni  Ni4  1  0.27090100  0.00000000  0.51894900  1
  Ni  Ni5  1  0.72909900  0.00000000  0.51894900  1
  Ni  Ni6  1  0.00000000  0.72909900  0.48105100  1
  Ni  Ni7  1  0.00000000  0.27090100  0.48105100  1
  Ni  Ni8  1  0.22909900  0.50000000  0.48105100  1
  Ni  Ni9  1  0.77090100  0.50000000  0.48105100  1
  Ni  Ni10  1  0.50000000  0.38206800  0.12006800  1
  Ni  Ni11  1  0.50000000  0.61793200  0.12006800  1
  Ni  Ni12  1  0.88206800  0.00000000  0.12006800  1
  Ni  Ni13  1  0.11793200  0.00000000  0.12006800  1
  Ni  Ni14  1  0.00000000  0.11793200  0.87993200  1
  Ni  Ni15  1  0.00000000  0.88206800  0.87993200  1
  Ni  Ni16  1  0.61793200  0.50000000  0.87993200  1
  Ni  Ni17  1  0.38206800  0.50000000  0.87993200  1
  Ni  Ni18  1  0.50000000  0.84117000  0.02864800  1
  Ni  Ni19  1  0.50000000  0.15883000  0.02864800  1
  Ni  Ni20  1  0.34117000  0.00000000  0.02864800  1
  Ni  Ni21  1  0.65883000  0.00000000  0.02864800  1
  Ni  Ni22  1  0.00000000  0.65883000  0.97135200  1
  Ni  Ni23  1  0.00000000  0.34117000  0.97135200  1
  Ni  Ni24  1  0.15883000  0.50000000  0.97135200  1
  Ni  Ni25  1  0.84117000  0.50000000  0.97135200  1
  Ni  Ni26  1  0.61597100  0.11597100  0.75097000  1
  Ni  Ni27  1  0.61597100  0.88402900  0.75097000  1
  Ni  Ni28  1  0.38402900  0.11597100  0.75097000  1
  Ni  Ni29  1  0.38402900  0.88402900  0.75097000  1
  Ni  Ni30  1  0.88402900  0.38402900  0.24903000  1
  Ni  Ni31  1  0.88402900  0.61597100  0.24903000  1
  Ni  Ni32  1  0.11597100  0.38402900  0.24903000  1
  Ni  Ni33  1  0.11597100  0.61597100  0.24903000  1
  Ni  Ni34  1  0.61167600  0.11167600  0.29802100  1
  Ni  Ni35  1  0.61167600  0.88832400  0.29802100  1
  Ni  Ni36  1  0.38832400  0.11167600  0.29802100  1
  Ni  Ni37  1  0.38832400  0.88832400  0.29802100  1
  Ni  Ni38  1  0.88832400  0.38832400  0.70197900  1
  Ni  Ni39  1  0.88832400  0.61167600  0.70197900  1
  Ni  Ni40  1  0.11167600  0.38832400  0.70197900  1
  Ni  Ni41  1  0.11167600  0.61167600  0.70197900  1
  Ni  Ni42  1  0.66501600  0.32334500  0.34185400  1
  Ni  Ni43  1  0.66501600  0.67665500  0.34185400  1
  Ni  Ni44  1  0.33498400  0.32334500  0.34185400  1
  Ni  Ni45  1  0.33498400  0.67665500  0.34185400  1
  Ni  Ni46  1  0.82334500  0.16501600  0.34185400  1
  Ni  Ni47  1  0.82334500  0.83498400  0.34185400  1
  Ni  Ni48  1  0.17665500  0.16501600  0.34185400  1
  Ni  Ni49  1  0.17665500  0.83498400  0.34185400  1
  Ni  Ni50  1  0.83498400  0.17665500  0.65814600  1
  Ni  Ni51  1  0.83498400  0.82334500  0.65814600  1
  Ni  Ni52  1  0.16501600  0.17665500  0.65814600  1
  Ni  Ni53  1  0.16501600  0.82334500  0.65814600  1
  Ni  Ni54  1  0.67665500  0.33498400  0.65814600  1
  Ni  Ni55  1  0.67665500  0.66501600  0.65814600  1
  Ni  Ni56  1  0.32334500  0.33498400  0.65814600  1
  Ni  Ni57  1  0.32334500  0.66501600  0.65814600  1
loop_
_geom_bond_atom_site_label_1
_geom_bond_atom_site_label_2
_geom_bond_distance
_geom_bond_site_symmetry_2
Nd0 Ni48 2.890846 1_555
Nd0 Ni52 2.890846 1_555
Nd0 Ni49 2.890846 1_545
Nd0 Ni50 2.890846 1_455
Nd0 Ni46 2.890846 1_455
Nd0 Ni53 2.890846 1_545
Nd0 Ni51 2.890846 1_445
Nd0 Ni47 2.890846 1_445
Nd0 Ni4 2.946293 1_555
Nd0 Ni7 2.946293 1_555
Nd0 Ni5 2.946293 1_455
Nd0 Ni6 2.946293 1_545
Nd0 Ni15 3.174255 1_545
Nd0 Ni14 3.174255 1_555
Nd0 Ni12 3.174255 1_455
Nd0 Ni13 3.174255 1_555
Nd0 Si2 3.176795 1_555
Nd0 Si5 3.176795 1_555
Nd0 Si3 3.176795 1_455
Nd0 Si4 3.176795 1_545
Nd1 Ni42 2.890846 1_555
Nd1 Ni55 2.890846 1_555
Nd1 Ni43 2.890846 1_555
Nd1 Ni57 2.890846 1_555
Nd1 Ni54 2.890846 1_555
Nd1 Ni44 2.890846 1_555
Nd1 Ni56 2.890846 1_555
Nd1 Ni45 2.890846 1_555
Nd1 Ni2 2.946293 1_555
Nd1 Ni9 2.946293 1_555
Nd1 Ni3 2.946293 1_555
Nd1 Ni8 2.946293 1_555
Nd1 Ni16 3.174255 1_555
Nd1 Ni11 3.174255 1_555
Nd1 Ni17 3.174255 1_555
Nd1 Ni10 3.174255 1_555
Nd1 Si7 3.176795 1_555
Nd1 Si0 3.176795 1_555
Nd1 Si1 3.176795 1_555
Nd1 Si6 3.176795 1_555
Nd2 Ni29 2.804145 1_554
Nd2 Ni33 2.804145 1_555
Nd2 Ni45 2.883708 1_555
Nd2 Ni53 2.883708 1_554
Nd2 Ni49 2.883708 1_555
Nd2 Ni57 2.883708 1_554
Nd2 Ni24 2.898918 1_554
Nd2 Ni20 2.898918 1_565
Nd2 Ni22 2.898918 1_554
Nd2 Ni18 2.898918 1_555
Nd2 Ni37 3.115340 1_555
Nd2 Ni41 3.115340 1_554
Nd2 Si6 3.122140 1_555
Nd2 Si4 3.122140 1_555
Nd2 Si0 3.122140 1_554
Nd2 Si2 3.122140 1_564
Nd2 Ni17 3.205542 1_554
Nd2 Ni13 3.205542 1_565
Nd2 Ni15 3.205542 1_554
Nd2 Ni11 3.205542 1_555
Nd3 Ni28 2.804145 1_554
Nd3 Ni32 2.804145 1_555
Nd3 Ni56 2.883708 1_554
Nd3 Ni44 2.883708 1_555
Nd3 Ni48 2.883708 1_555
Nd3 Ni52 2.883708 1_554
Nd3 Ni19 2.898918 1_555
Nd3 Ni24 2.898918 1_554
Nd3 Ni23 2.898918 1_554
Nd3 Ni20 2.898918 1_555
Nd3 Ni36 3.115340 1_555
Nd3 Ni40 3.115340 1_554
Nd3 Si6 3.122140 1_555
Nd3 Si1 3.122140 1_554
Nd3 Si2 3.122140 1_554
Nd3 Si5 3.122140 1_555
Nd3 Ni10 3.205542 1_555
Nd3 Ni17 3.205542 1_554
Nd3 Ni13 3.205542 1_555
Nd3 Ni14 3.205542 1_554
Nd4 Ni31 2.804145 1_555
Nd4 Ni27 2.804145 1_554
Nd4 Ni47 2.883708 1_555
Nd4 Ni51 2.883708 1_554
Nd4 Ni43 2.883708 1_555
Nd4 Ni55 2.883708 1_554
Nd4 Ni21 2.898918 1_565
Nd4 Ni22 2.898918 1_654
Nd4 Ni25 2.898918 1_554
Nd4 Ni18 2.898918 1_555
Nd4 Ni35 3.115340 1_555
Nd4 Ni39 3.115340 1_554
Nd4 Si4 3.122140 1_655
Nd4 Si3 3.122140 1_564
Nd4 Si7 3.122140 1_555
Nd4 Si0 3.122140 1_554
Nd4 Ni12 3.205542 1_565
Nd4 Ni15 3.205542 1_654
Nd4 Ni11 3.205542 1_555
Nd4 Ni16 3.205542 1_554
Nd5 Ni30 2.804145 1_555
Nd5 Ni26 2.804145 1_554
Nd5 Ni46 2.883708 1_555
Nd5 Ni54 2.883708 1_554
Nd5 Ni50 2.883708 1_554
Nd5 Ni42 2.883708 1_555
Nd5 Ni19 2.898918 1_555
Nd5 Ni23 2.898918 1_654
Nd5 Ni21 2.898918 1_555
Nd5 Ni25 2.898918 1_554
Nd5 Ni34 3.115340 1_555
Nd5 Ni38 3.115340 1_554
Nd5 Si1 3.122140 1_554
Nd5 Si3 3.122140 1_554
Nd5 Si7 3.122140 1_555
Nd5 Si5 3.122140 1_655
Nd5 Ni10 3.205542 1_555
Nd5 Ni12 3.205542 1_555
Nd5 Ni14 3.205542 1_654
Nd5 Ni16 3.205542 1_554
Ni0 Ni34 2.439444 1_555
Ni0 Ni36 2.439444 1_555
Ni0 Ni37 2.439444 1_545
Ni0 Ni35 2.439444 1_545
Ni0 Ni26 2.482054 1_555
Ni0 Ni28 2.482054 1_555
Ni0 Ni27 2.482054 1_545
Ni0 Ni29 2.482054 1_545
Ni0 Ni5 2.489060 1_555
Ni0 Ni3 2.489060 1_555
Ni0 Ni4 2.489060 1_555
Ni0 Ni2 2.489060 1_545
Ni1 Ni39 2.439444 1_455
Ni1 Ni38 2.439444 1_455
Ni1 Ni41 2.439444 1_555
Ni1 Ni40 2.439444 1_555
Ni1 Ni33 2.482054 1_555
Ni1 Ni32 2.482054 1_555
Ni1 Ni31 2.482054 1_455
Ni1 Ni30 2.482054 1_455
Ni1 Ni6 2.489060 1_555
Ni1 Ni7 2.489060 1_555
Ni1 Ni8 2.489060 1_555
Ni1 Ni9 2.489060 1_455
Ni2 Ni37 2.439409 1_555
Ni2 Ni35 2.439409 1_555
Ni2 Ni43 2.468580 1_555
Ni2 Ni45 2.468580 1_555
Ni2 Si0 2.470388 1_555
Ni2 Ni55 2.477411 1_555
Ni2 Ni57 2.477411 1_555
Ni2 Ni27 2.498569 1_555
Ni2 Ni29 2.498569 1_555
Ni3 Ni34 2.439409 1_555
Ni3 Ni36 2.439409 1_555
Ni3 Ni42 2.468580 1_555
Ni3 Ni44 2.468580 1_555
Ni3 Si1 2.470388 1_555
Ni3 Ni56 2.477411 1_555
Ni3 Ni54 2.477411 1_555
Ni4 Ni49 2.468580 1_545
Ni4 Ni48 2.468580 1_555
Ni4 Si2 2.470388 1_555
Ni4 Ni52 2.477411 1_555
Ni4 Ni53 2.477411 1_545
Ni5 Si3 2.470388 1_555
Ni5 Ni50 2.477411 1_555
Ni5 Ni51 2.477411 1_545
Ni6 Si4 2.470388 1_555
Ni7 Si5 2.470388 1_555
Ni8 Si6 2.470388 1_555
Ni9 Si7 2.470388 1_555
Ni10 Si1 2.418186 1_554
Ni10 Si7 2.446759 1_555
Ni10 Si6 2.446759 1_555
Ni10 Ni19 2.523665 1_555
Ni10 Ni42 2.548401 1_555
Ni10 Ni44 2.548401 1_555
Ni10 Ni11 2.562132 1_555
Ni10 Ni16 2.579116 1_554
Ni10 Ni17 2.579116 1_554
Ni11 Si0 2.418186 1_554
Ni11 Si7 2.446759 1_555
Ni11 Si6 2.446759 1_555
Ni11 Ni18 2.523665 1_555
Ni11 Ni43 2.548401 1_555
Ni11 Ni45 2.548401 1_555
Ni11 Ni16 2.579116 1_554
Ni11 Ni17 2.579116 1_554
Ni12 Si3 2.418186 1_554
Ni12 Si5 2.446759 1_655
Ni12 Si4 2.446759 1_645
Ni12 Ni21 2.523665 1_555
Ni12 Ni46 2.548401 1_555
Ni12 Ni47 2.548401 1_545
Ni12 Ni13 2.562132 1_655
Ni12 Ni14 2.579116 1_654
Ni12 Ni15 2.579116 1_644
Ni13 Si2 2.418186 1_554
Ni13 Si5 2.446759 1_555
Ni13 Si4 2.446759 1_545
Ni13 Ni20 2.523665 1_555
Ni13 Ni48 2.548401 1_555
Ni13 Ni49 2.548401 1_545
Ni13 Ni14 2.579116 1_554
Ni13 Ni15 2.579116 1_544
Ni14 Si5 2.418186 1_556
Ni14 Si2 2.446759 1_555
Ni14 Si3 2.446759 1_455
Ni14 Ni23 2.523665 1_555
Ni14 Ni52 2.548401 1_555
Ni14 Ni50 2.548401 1_455
Ni14 Ni15 2.562132 1_545
Ni15 Si4 2.418186 1_556
Ni15 Si2 2.446759 1_565
Ni15 Si3 2.446759 1_465
Ni15 Ni22 2.523665 1_555
Ni15 Ni53 2.548401 1_555
Ni15 Ni51 2.548401 1_455
Ni16 Si7 2.418186 1_556
Ni16 Si0 2.446759 1_555
Ni16 Si1 2.446759 1_555
Ni16 Ni25 2.523665 1_555
Ni16 Ni55 2.548401 1_555
Ni16 Ni54 2.548401 1_555
Ni16 Ni17 2.562132 1_555
Ni17 Si6 2.418186 1_556
Ni17 Si0 2.446759 1_555
Ni17 Si1 2.446759 1_555
Ni17 Ni24 2.523665 1_555
Ni17 Ni57 2.548401 1_555
Ni17 Ni56 2.548401 1_555
Ni18 Si0 2.315023 1_554
Ni18 Ni20 2.439986 1_565
Ni18 Ni21 2.439986 1_565
Ni18 Ni35 2.444185 1_555
Ni18 Ni37 2.444185 1_555
Ni18 Ni27 2.511826 1_554
Ni18 Ni29 2.511826 1_554
Ni19 Si1 2.315023 1_554
Ni19 Ni20 2.439986 1_555
Ni19 Ni21 2.439986 1_555
Ni19 Ni34 2.444185 1_555
Ni19 Ni36 2.444185 1_555
Ni19 Ni26 2.511826 1_554
Ni19 Ni28 2.511826 1_554
Ni20 Si2 2.315023 1_554
Ni20 Ni37 2.444185 1_545
Ni20 Ni36 2.444185 1_555
Ni20 Ni28 2.511826 1_554
Ni20 Ni29 2.511826 1_544
Ni21 Si3 2.315023 1_554
Ni21 Ni35 2.444185 1_545
Ni21 Ni34 2.444185 1_555
Ni21 Ni26 2.511826 1_554
Ni21 Ni27 2.511826 1_544
Ni22 Si4 2.315023 1_556
Ni22 Ni25 2.439986 1_455
Ni22 Ni24 2.439986 1_555
Ni22 Ni41 2.444185 1_555
Ni22 Ni39 2.444185 1_455
Ni22 Ni33 2.511826 1_556
Ni22 Ni31 2.511826 1_456
Ni23 Si5 2.315023 1_556
Ni23 Ni25 2.439986 1_455
Ni23 Ni24 2.439986 1_555
Ni23 Ni38 2.444185 1_455
Ni23 Ni40 2.444185 1_555
Ni23 Ni32 2.511826 1_556
Ni23 Ni30 2.511826 1_456
Ni24 Si6 2.315023 1_556
Ni24 Ni41 2.444185 1_555
Ni24 Ni40 2.444185 1_555
Ni24 Ni33 2.511826 1_556
Ni24 Ni32 2.511826 1_556
Ni25 Si7 2.315023 1_556
Ni25 Ni38 2.444185 1_555
Ni25 Ni39 2.444185 1_555
Ni25 Ni31 2.511826 1_556
Ni25 Ni30 2.511826 1_556
Ni26 Ni5 2.498569 1_555
Ni26 Ni3 2.498569 1_555
Ni26 Ni27 2.519528 1_545
Ni26 Ni28 2.519528 1_555
Ni26 Si3 2.536941 1_555
Ni26 Si1 2.536941 1_555
Ni26 Ni50 2.568669 1_555
Ni26 Ni54 2.568669 1_555
Ni27 Ni5 2.498569 1_565
Ni27 Ni29 2.519528 1_555
Ni27 Si0 2.536941 1_555
Ni27 Si3 2.536941 1_565
Ni27 Ni51 2.568669 1_555
Ni27 Ni55 2.568669 1_555
Ni28 Ni4 2.498569 1_555
Ni28 Ni3 2.498569 1_555
Ni28 Ni29 2.519528 1_545
Ni28 Si2 2.536941 1_555
Ni28 Si1 2.536941 1_555
Ni28 Ni52 2.568669 1_555
Ni28 Ni56 2.568669 1_555
Ni29 Ni4 2.498569 1_565
Ni29 Si0 2.536941 1_555
Ni29 Si2 2.536941 1_565
Ni29 Ni53 2.568669 1_555
Ni29 Ni57 2.568669 1_555
Ni30 Ni9 2.498569 1_555
Ni30 Ni7 2.498569 1_655
Ni30 Ni32 2.519528 1_655
Ni30 Ni31 2.519528 1_555
Ni30 Si7 2.536941 1_555
Ni30 Si5 2.536941 1_655
Ni30 Ni46 2.568669 1_555
Ni30 Ni42 2.568669 1_555
Ni31 Ni9 2.498569 1_555
Ni31 Ni6 2.498569 1_655
Ni31 Ni33 2.519528 1_655
Ni31 Si7 2.536941 1_555
Ni31 Si4 2.536941 1_655
Ni31 Ni47 2.568669 1_555
Ni31 Ni43 2.568669 1_555
Ni32 Ni7 2.498569 1_555
Ni32 Ni8 2.498569 1_555
Ni32 Ni33 2.519528 1_555
Ni32 Si5 2.536941 1_555
Ni32 Si6 2.536941 1_555
Ni32 Ni48 2.568669 1_555
Ni32 Ni44 2.568669 1_555
Ni33 Ni6 2.498569 1_555
Ni33 Ni8 2.498569 1_555
Ni33 Si4 2.536941 1_555
Ni33 Si6 2.536941 1_555
Ni33 Ni49 2.568669 1_555
Ni33 Ni45 2.568669 1_555
Ni34 Ni42 2.394747 1_555
Ni34 Ni46 2.394747 1_555
Ni34 Ni36 2.426217 1_555
Ni34 Ni35 2.426217 1_545
Ni34 Ni5 2.439409 1_555
Ni35 Ni43 2.394747 1_555
Ni35 Ni47 2.394747 1_555
Ni35 Ni37 2.426217 1_555
Ni35 Ni5 2.439409 1_565
Ni36 Ni44 2.394747 1_555
Ni36 Ni48 2.394747 1_555
Ni36 Ni37 2.426217 1_545
Ni36 Ni4 2.439409 1_555
Ni37 Ni45 2.394747 1_555
Ni37 Ni49 2.394747 1_555
Ni37 Ni4 2.439409 1_565
Ni38 Ni54 2.394747 1_555
Ni38 Ni50 2.394747 1_555
Ni38 Ni39 2.426217 1_555
Ni38 Ni40 2.426217 1_655
Ni38 Ni7 2.439409 1_655
Ni38 Ni9 2.439409 1_555
Ni39 Ni55 2.394747 1_555
Ni39 Ni51 2.394747 1_555
Ni39 Ni41 2.426217 1_655
Ni39 Ni6 2.439409 1_655
Ni39 Ni9 2.439409 1_555
Ni40 Ni56 2.394747 1_555
Ni40 Ni52 2.394747 1_555
Ni40 Ni41 2.426217 1_555
Ni40 Ni7 2.439409 1_555
Ni40 Ni8 2.439409 1_555
Ni41 Ni57 2.394747 1_555
Ni41 Ni53 2.394747 1_555
Ni41 Ni6 2.439409 1_555
Ni41 Ni8 2.439409 1_555
Ni42 Si7 2.293301 1_555
Ni42 Ni54 2.424394 1_555
Ni42 Ni46 2.432290 1_555
Ni42 Ni9 2.477411 1_555
Ni43 Si7 2.293301 1_555
Ni43 Ni55 2.424394 1_555
Ni43 Ni47 2.432290 1_555
Ni43 Ni9 2.477411 1_555
Ni44 Si6 2.293301 1_555
Ni44 Ni56 2.424394 1_555
Ni44 Ni48 2.432290 1_555
Ni44 Ni8 2.477411 1_555
Ni45 Si6 2.293301 1_555
Ni45 Ni57 2.424394 1_555
Ni45 Ni49 2.432290 1_555
Ni45 Ni8 2.477411 1_555
Ni46 Si5 2.293301 1_655
Ni46 Ni50 2.424394 1_555
Ni46 Ni5 2.468580 1_555
Ni46 Ni7 2.477411 1_655
Ni47 Si4 2.293301 1_655
Ni47 Ni51 2.424394 1_555
Ni47 Ni5 2.468580 1_565
Ni47 Ni6 2.477411 1_655
Ni48 Si5 2.293301 1_555
Ni48 Ni52 2.424394 1_555
Ni48 Ni7 2.477411 1_555
Ni49 Si4 2.293301 1_555
Ni49 Ni53 2.424394 1_555
Ni49 Ni6 2.477411 1_555
Ni50 Si3 2.293301 1_555
Ni50 Ni54 2.432290 1_555
Ni50 Ni7 2.468580 1_655
Ni51 Si3 2.293301 1_565
Ni51 Ni55 2.432290 1_555
Ni51 Ni6 2.468580 1_655
Ni52 Si2 2.293301 1_555
Ni52 Ni56 2.432290 1_555
Ni52 Ni7 2.468580 1_555
Ni53 Si2 2.293301 1_565
Ni53 Ni57 2.432290 1_555
Ni53 Ni6 2.468580 1_555
Ni54 Si1 2.293301 1_555
Ni54 Ni9 2.468580 1_555
Ni55 Si0 2.293301 1_555
Ni55 Ni9 2.468580 1_555
Ni56 Si1 2.293301 1_555
Ni56 Ni8 2.468580 1_555
Ni57 Si0 2.293301 1_555
Ni57 Ni8 2.468580 1_555
