# generated using pymatgen
data_Na(Mo2O3)2
_symmetry_space_group_name_H-M   'P 1'
_cell_length_a   3.80666400
_cell_length_b   8.84780300
_cell_length_c   8.84780300
_cell_angle_alpha   90.00000000
_cell_angle_beta   90.00000000
_cell_angle_gamma   90.00000000
_symmetry_Int_Tables_number   1
_chemical_formula_structural   Na(Mo2O3)2
_chemical_formula_sum   'Na2 Mo8 O12'
_cell_volume   297.99943015
_cell_formula_units_Z   2
loop_
 _symmetry_equiv_pos_site_id
 _symmetry_equiv_pos_as_xyz
  1  'x, y, z'
loop_
 _atom_site_type_symbol
 _atom_site_label
 _atom_site_symmetry_multiplicity
 _atom_site_fract_x
 _atom_site_fract_y
 _atom_site_fract_z
 _atom_site_occupancy
  Na  Na0  1  0.00000000  0.50000000  0.50000000  1
  Na  Na1  1  0.00000000  0.00000000  0.00000000  1
  Mo  Mo0  1  0.00000000  0.61098200  0.88901800  1
  Mo  Mo1  1  0.00000000  0.11098200  0.61098200  1
  Mo  Mo2  1  0.00000000  0.88901800  0.38901800  1
  Mo  Mo3  1  0.00000000  0.38901800  0.11098200  1
  Mo  Mo4  1  0.50000000  0.78406500  0.71593500  1
  Mo  Mo5  1  0.50000000  0.28406500  0.78406500  1
  Mo  Mo6  1  0.50000000  0.71593500  0.21593500  1
  Mo  Mo7  1  0.50000000  0.21593500  0.28406500  1
  O  O0  1  0.50000000  0.45993100  0.24533900  1
  O  O1  1  0.50000000  0.54006900  0.75466100  1
  O  O2  1  0.50000000  0.24533900  0.54006900  1
  O  O3  1  0.50000000  0.75466100  0.45993100  1
  O  O4  1  0.50000000  0.74533900  0.95993100  1
  O  O5  1  0.50000000  0.04006900  0.74533900  1
  O  O6  1  0.50000000  0.95993100  0.25466100  1
  O  O7  1  0.50000000  0.25466100  0.04006900  1
  O  O8  1  0.00000000  0.83485900  0.66514100  1
  O  O9  1  0.00000000  0.33485900  0.83485900  1
  O  O10  1  0.00000000  0.16514100  0.33485900  1
  O  O11  1  0.00000000  0.66514100  0.16514100  1
loop_
_geom_bond_atom_site_label_1
_geom_bond_atom_site_label_2
_geom_bond_distance
_geom_bond_site_symmetry_2
Na0 O2 2.970728 1_455
Na0 O3 2.970728 1_455
Na0 O2 2.970728 1_555
Na0 O0 2.970728 1_455
Na0 O3 2.970728 1_555
Na0 O0 2.970728 1_555
Na0 O1 2.970728 1_555
Na0 O1 2.970728 1_455
Na1 O6 2.970728 1_545
Na1 O4 2.970728 1_544
Na1 O4 2.970728 1_444
Na1 O5 2.970728 1_554
Na1 O7 2.970728 1_455
Na1 O5 2.970728 1_454
Na1 O6 2.970728 1_445
Na1 O7 2.970728 1_555
Mo0 O1 2.330128 1_455
Mo0 O4 2.330128 1_455
Mo0 O1 2.330128 1_555
Mo0 O4 2.330128 1_555
Mo0 O9 2.489633 1_555
Mo0 O11 2.489633 1_556
Mo0 O8 2.801302 1_555
Mo1 O2 2.330128 1_455
Mo1 O5 2.330128 1_455
Mo1 O2 2.330128 1_555
Mo1 O5 2.330128 1_555
Mo1 O8 2.489633 1_545
Mo1 O10 2.489633 1_555
Mo1 O9 2.801302 1_555
Mo2 O6 2.330128 1_555
Mo2 O3 2.330128 1_555
Mo2 O3 2.330128 1_455
Mo2 O6 2.330128 1_455
Mo2 O8 2.489633 1_555
Mo2 O10 2.489633 1_565
Mo2 O11 2.801302 1_555
Mo3 O0 2.330128 1_455
Mo3 O7 2.330128 1_455
Mo3 O0 2.330128 1_555
Mo3 O7 2.330128 1_555
Mo3 O9 2.489633 1_554
Mo3 O11 2.489633 1_555
Mo3 O10 2.801302 1_555
Mo4 O8 2.006644 1_655
Mo4 O8 2.006644 1_555
Mo4 O1 2.185851 1_555
Mo4 O4 2.185851 1_555
Mo4 O5 2.279965 1_565
Mo4 O3 2.279965 1_555
Mo5 O9 2.006644 1_655
Mo5 O9 2.006644 1_555
Mo5 O2 2.185851 1_555
Mo5 O5 2.185851 1_555
Mo5 O7 2.279965 1_556
Mo5 O1 2.279965 1_555
Mo6 O11 2.006644 1_555
Mo6 O11 2.006644 1_655
Mo6 O3 2.185851 1_555
Mo6 O6 2.185851 1_555
Mo6 O0 2.279965 1_555
Mo6 O4 2.279965 1_554
Mo7 O10 2.006644 1_555
Mo7 O10 2.006644 1_655
Mo7 O0 2.185851 1_555
Mo7 O7 2.185851 1_555
Mo7 O6 2.279965 1_545
Mo7 O2 2.279965 1_555
