# generated using pymatgen
data_InP3Pb2O11
_symmetry_space_group_name_H-M   'P 1'
_cell_length_a   7.16664900
_cell_length_b   6.70345200
_cell_length_c   20.30589698
_cell_angle_alpha   80.43321991
_cell_angle_beta   90.00000000
_cell_angle_gamma   90.00000000
_symmetry_Int_Tables_number   1
_chemical_formula_structural   InP3Pb2O11
_chemical_formula_sum   'In4 P12 Pb8 O44'
_cell_volume   961.95443346
_cell_formula_units_Z   4
loop_
 _symmetry_equiv_pos_site_id
 _symmetry_equiv_pos_as_xyz
  1  'x, y, z'
loop_
 _atom_site_type_symbol
 _atom_site_label
 _atom_site_symmetry_multiplicity
 _atom_site_fract_x
 _atom_site_fract_y
 _atom_site_fract_z
 _atom_site_occupancy
  In  In0  1  0.13052700  0.94908400  0.87866900  1
  In  In1  1  0.63052700  0.05091600  0.62133100  1
  In  In2  1  0.86947300  0.05091600  0.12133100  1
  In  In3  1  0.36947300  0.94908400  0.37866900  1
  P  P0  1  0.46911500  0.81886600  0.77413400  1
  P  P1  1  0.96911500  0.18113400  0.72586600  1
  P  P2  1  0.53088500  0.18113400  0.22586600  1
  P  P3  1  0.03088500  0.81886600  0.27413400  1
  P  P4  1  0.86147500  0.56694000  0.09020300  1
  P  P5  1  0.36147500  0.43306000  0.40979700  1
  P  P6  1  0.13852500  0.43306000  0.90979700  1
  P  P7  1  0.63852500  0.56694000  0.59020300  1
  P  P8  1  0.19577800  0.81649300  0.04575500  1
  P  P9  1  0.69577800  0.18350700  0.45424500  1
  P  P10  1  0.80422200  0.18350700  0.95424500  1
  P  P11  1  0.30422200  0.81649300  0.54575500  1
  Pb  Pb0  1  0.62511700  0.67210600  0.92456600  1
  Pb  Pb1  1  0.12511700  0.32789400  0.57543400  1
  Pb  Pb2  1  0.37488300  0.32789400  0.07543400  1
  Pb  Pb3  1  0.87488300  0.67210600  0.42456600  1
  Pb  Pb4  1  0.47954700  0.33235000  0.77054800  1
  Pb  Pb5  1  0.97954700  0.66765000  0.72945200  1
  Pb  Pb6  1  0.52045300  0.66765000  0.22945200  1
  Pb  Pb7  1  0.02045300  0.33235000  0.27054800  1
  O  O0  1  0.64271700  0.68724400  0.79815600  1
  O  O1  1  0.14271700  0.31275600  0.70184400  1
  O  O2  1  0.35728300  0.31275600  0.20184400  1
  O  O3  1  0.85728300  0.68724400  0.29815600  1
  O  O4  1  0.40166600  0.91082300  0.83700300  1
  O  O5  1  0.90166600  0.08917700  0.66299700  1
  O  O6  1  0.59833400  0.08917700  0.16299700  1
  O  O7  1  0.09833400  0.91082300  0.33700300  1
  O  O8  1  0.32200700  0.68262400  0.74884200  1
  O  O9  1  0.82200700  0.31737600  0.75115800  1
  O  O10  1  0.67799300  0.31737600  0.25115800  1
  O  O11  1  0.17799300  0.68262400  0.24884200  1
  O  O12  1  0.51859000  0.00649200  0.72112800  1
  O  O13  1  0.01859000  0.99350800  0.77887200  1
  O  O14  1  0.48141000  0.99350800  0.27887200  1
  O  O15  1  0.98141000  0.00649200  0.22112800  1
  O  O16  1  0.96001500  0.37121200  0.12520700  1
  O  O17  1  0.46001500  0.62878800  0.37479300  1
  O  O18  1  0.03998500  0.62878800  0.87479300  1
  O  O19  1  0.53998500  0.37121200  0.62520700  1
  O  O20  1  0.69173700  0.52038700  0.05034700  1
  O  O21  1  0.19173700  0.47961300  0.44965300  1
  O  O22  1  0.30826300  0.47961300  0.94965300  1
  O  O23  1  0.80826300  0.52038700  0.55034700  1
  O  O24  1  0.00770700  0.68484700  0.03524700  1
  O  O25  1  0.50770700  0.31515300  0.46475300  1
  O  O26  1  0.99229300  0.31515300  0.96475300  1
  O  O27  1  0.49229300  0.68484700  0.53524700  1
  O  O28  1  0.82292000  0.71475300  0.13924000  1
  O  O29  1  0.32292000  0.28524700  0.36076000  1
  O  O30  1  0.17708000  0.28524700  0.86076000  1
  O  O31  1  0.67708000  0.71475300  0.63924000  1
  O  O32  1  0.86400100  0.00536900  0.91953200  1
  O  O33  1  0.36400100  0.99463100  0.58046800  1
  O  O34  1  0.13599900  0.99463100  0.08046800  1
  O  O35  1  0.63599900  0.00536900  0.41953200  1
  O  O36  1  0.66803900  0.32324900  0.91180300  1
  O  O37  1  0.16803900  0.67675100  0.58819700  1
  O  O38  1  0.33196100  0.67675100  0.08819700  1
  O  O39  1  0.83196100  0.32324900  0.41180300  1
  O  O40  1  0.26608900  0.89575400  0.97480100  1
  O  O41  1  0.76608900  0.10424600  0.52519900  1
  O  O42  1  0.73391100  0.10424600  0.02519900  1
  O  O43  1  0.23391100  0.89575400  0.47480100  1
loop_
_geom_bond_atom_site_label_1
_geom_bond_atom_site_label_2
_geom_bond_distance
_geom_bond_site_symmetry_2
In0 O32 2.140887 1_465
In0 O4 2.151651 1_555
In0 O13 2.153650 1_555
In0 O40 2.156430 1_555
In0 O30 2.247045 1_565
In0 O18 2.256857 1_555
In1 O33 2.140887 1_545
In1 O5 2.151651 1_555
In1 O12 2.153650 1_555
In1 O41 2.156430 1_555
In1 O31 2.247045 1_545
In1 O19 2.256857 1_555
In2 O34 2.140887 1_645
In2 O6 2.151651 1_555
In2 O15 2.153650 1_555
In2 O42 2.156430 1_555
In2 O28 2.247045 1_545
In2 O16 2.256857 1_555
In3 O35 2.140887 1_565
In3 O7 2.151651 1_555
In3 O14 2.153650 1_555
In3 O43 2.156430 1_555
In3 O29 2.247045 1_565
In3 O17 2.256857 1_555
O0 P0 1.556042 1_555
O0 Pb0 2.555081 1_555
O0 Pb4 2.790117 1_555
O0 Pb5 2.802066 1_555
O1 P1 1.556042 1_455
O1 Pb1 2.555081 1_555
O1 Pb5 2.790117 1_455
O1 Pb4 2.802066 1_555
O2 P2 1.556042 1_555
O2 Pb2 2.555081 1_555
O2 Pb6 2.790117 1_555
O2 Pb7 2.802066 1_555
O3 P3 1.556042 1_655
O3 Pb3 2.555081 1_555
O3 Pb7 2.790117 1_655
O3 Pb6 2.802066 1_555
O4 P0 1.582705 1_555
O4 Pb0 2.709407 1_555
O5 P1 1.582705 1_555
O5 Pb1 2.709407 1_655
O6 P2 1.582705 1_555
O6 Pb2 2.709407 1_555
O7 P3 1.582705 1_555
O7 Pb3 2.709407 1_455
O8 P0 1.537940 1_555
O8 Pb5 2.490337 1_455
O8 Pb4 2.576490 1_555
O9 P1 1.537940 1_555
O9 Pb4 2.490337 1_555
O9 Pb5 2.576490 1_555
O10 P2 1.537940 1_555
O10 Pb7 2.490337 1_655
O10 Pb6 2.576490 1_555
O11 P3 1.537940 1_555
O11 Pb6 2.490337 1_555
O11 Pb7 2.576490 1_555
O12 P0 1.554397 1_545
O12 Pb4 2.566214 1_555
O13 P1 1.554397 1_465
O13 Pb5 2.566214 1_455
O14 P2 1.554397 1_565
O14 Pb6 2.566214 1_555
O15 P3 1.554397 1_645
O15 Pb7 2.566214 1_655
O16 P4 1.554167 1_555
O17 P5 1.554167 1_555
O18 P6 1.554167 1_555
O19 P7 1.554167 1_555
O20 P4 1.521866 1_555
O20 Pb2 2.619639 1_555
O20 Pb0 2.631026 1_554
O21 P5 1.521866 1_555
O21 Pb3 2.619639 1_455
O21 Pb1 2.631026 1_555
O22 P6 1.521866 1_555
O22 Pb0 2.619639 1_555
O22 Pb2 2.631026 1_556
O23 P7 1.521866 1_555
O23 Pb1 2.619639 1_655
O23 Pb3 2.631026 1_555
O24 P4 1.635580 1_455
O24 P8 1.644252 1_555
O25 P5 1.635580 1_555
O25 P9 1.644252 1_555
O26 P6 1.635580 1_655
O26 P10 1.644252 1_555
O27 P7 1.635580 1_555
O27 P11 1.644252 1_555
O28 P4 1.541946 1_555
O28 Pb6 2.821680 1_555
O29 P5 1.541946 1_555
O29 Pb7 2.821680 1_555
O30 P6 1.541946 1_555
O30 Pb4 2.821680 1_555
O31 P7 1.541946 1_555
O31 Pb5 2.821680 1_555
O32 P10 1.544716 1_555
O32 Pb0 2.802908 1_545
O33 P11 1.544716 1_555
O33 Pb1 2.802908 1_565
O34 P8 1.544716 1_555
O34 Pb2 2.802908 1_565
O35 P9 1.544716 1_555
O35 Pb3 2.802908 1_545
O36 P10 1.518034 1_555
O36 Pb0 2.414962 1_555
O37 P11 1.518034 1_555
O37 Pb1 2.414962 1_555
O38 P8 1.518034 1_555
O38 Pb2 2.414962 1_555
O39 P9 1.518034 1_555
O39 Pb3 2.414962 1_555
O40 P8 1.535454 1_556
O41 P9 1.535454 1_555
O42 P10 1.535454 1_554
O43 P11 1.535454 1_555
