# generated using pymatgen
data_CsLaH4(SO4)2
_symmetry_space_group_name_H-M   'P 1'
_cell_length_a   20.63020800
_cell_length_b   6.32129400
_cell_length_c   9.25139744
_cell_angle_alpha   87.31301699
_cell_angle_beta   90.00000000
_cell_angle_gamma   90.00000000
_symmetry_Int_Tables_number   1
_chemical_formula_structural   CsLaH4(SO4)2
_chemical_formula_sum   'Cs4 La4 H16 S8 O32'
_cell_volume   1205.14467904
_cell_formula_units_Z   4
loop_
 _symmetry_equiv_pos_site_id
 _symmetry_equiv_pos_as_xyz
  1  'x, y, z'
loop_
 _atom_site_type_symbol
 _atom_site_label
 _atom_site_symmetry_multiplicity
 _atom_site_fract_x
 _atom_site_fract_y
 _atom_site_fract_z
 _atom_site_occupancy
  Cs  Cs0  1  0.20591100  0.86219400  0.62754000  1
  Cs  Cs1  1  0.79408900  0.13780600  0.37246000  1
  Cs  Cs2  1  0.70591100  0.13780600  0.87246000  1
  Cs  Cs3  1  0.29408900  0.86219400  0.12754000  1
  La  La0  1  0.36034600  0.37391300  0.77245700  1
  La  La1  1  0.63965400  0.62608700  0.22754300  1
  La  La2  1  0.86034600  0.62608700  0.72754300  1
  La  La3  1  0.13965400  0.37391300  0.27245700  1
  H  H0  1  0.00435000  0.66597800  0.67294900  1
  H  H1  1  0.99565000  0.33402200  0.32705100  1
  H  H2  1  0.50435000  0.33402200  0.82705100  1
  H  H3  1  0.49565000  0.66597800  0.17294900  1
  H  H4  1  0.10531000  0.25833700  0.57212700  1
  H  H5  1  0.89469000  0.74166300  0.42787300  1
  H  H6  1  0.60531000  0.74166300  0.92787300  1
  H  H7  1  0.39469000  0.25833700  0.07212700  1
  H  H8  1  0.44454000  0.30567800  0.52202000  1
  H  H9  1  0.55546000  0.69432200  0.47798000  1
  H  H10  1  0.94454000  0.69432200  0.97798000  1
  H  H11  1  0.05546000  0.30567800  0.02202000  1
  H  H12  1  0.10078300  0.87479700  0.86394400  1
  H  H13  1  0.89921700  0.12520300  0.13605600  1
  H  H14  1  0.60078300  0.12520300  0.63605600  1
  H  H15  1  0.39921700  0.87479700  0.36394400  1
  S  S0  1  0.21779200  0.37835200  0.89869200  1
  S  S1  1  0.78220800  0.62164800  0.10130800  1
  S  S2  1  0.71779200  0.62164800  0.60130800  1
  S  S3  1  0.28220800  0.37835200  0.39869200  1
  S  S4  1  0.42726000  0.81077100  0.77591400  1
  S  S5  1  0.57274000  0.18922900  0.22408600  1
  S  S6  1  0.92726000  0.18922900  0.72408600  1
  S  S7  1  0.07274000  0.81077100  0.27591400  1
  O  O0  1  0.41189900  0.65705500  0.90317500  1
  O  O1  1  0.58810100  0.34294500  0.09682500  1
  O  O2  1  0.91189900  0.34294500  0.59682500  1
  O  O3  1  0.08810100  0.65705500  0.40317500  1
  O  O4  1  0.16056800  0.40653900  0.80908700  1
  O  O5  1  0.83943200  0.59346100  0.19091300  1
  O  O6  1  0.66056800  0.59346100  0.69091300  1
  O  O7  1  0.33943200  0.40653900  0.30908700  1
  O  O8  1  0.29858000  0.36164200  0.55710300  1
  O  O9  1  0.70142000  0.63835800  0.44289700  1
  O  O10  1  0.79858000  0.63835800  0.94289700  1
  O  O11  1  0.20142000  0.36164200  0.05710300  1
  O  O12  1  0.75699800  0.81481200  0.63531200  1
  O  O13  1  0.24300200  0.18518800  0.36468800  1
  O  O14  1  0.25699800  0.18518800  0.86468800  1
  O  O15  1  0.74300200  0.81481200  0.13531200  1
  O  O16  1  0.26541200  0.56074000  0.87475300  1
  O  O17  1  0.73458800  0.43926000  0.12524700  1
  O  O18  1  0.76541200  0.43926000  0.62524700  1
  O  O19  1  0.23458800  0.56074000  0.37475300  1
  O  O20  1  0.38700700  0.00810300  0.79541800  1
  O  O21  1  0.61299300  0.99189700  0.20458200  1
  O  O22  1  0.88700700  0.99189700  0.70458200  1
  O  O23  1  0.11299300  0.00810300  0.29541800  1
  O  O24  1  0.49523100  0.86074000  0.76348300  1
  O  O25  1  0.50476900  0.13926000  0.23651700  1
  O  O26  1  0.99523100  0.13926000  0.73651700  1
  O  O27  1  0.00476900  0.86074000  0.26348300  1
  O  O28  1  0.40023600  0.70087500  0.64681500  1
  O  O29  1  0.59976400  0.29912500  0.35318500  1
  O  O30  1  0.90023600  0.29912500  0.85318500  1
  O  O31  1  0.09976400  0.70087500  0.14681500  1
loop_
_geom_bond_atom_site_label_1
_geom_bond_atom_site_label_2
_geom_bond_distance
_geom_bond_site_symmetry_2
Cs0 H12 3.083779 1_555
Cs0 O19 3.141381 1_555
Cs0 O16 3.155960 1_555
Cs0 O13 3.194075 1_565
Cs0 O14 3.242359 1_565
Cs0 H4 3.274219 1_565
Cs0 O4 3.396865 1_555
Cs0 O3 3.485608 1_555
Cs1 H13 3.083779 1_555
Cs1 O18 3.141381 1_555
Cs1 O17 3.155960 1_555
Cs1 O12 3.194075 1_545
Cs1 O15 3.242359 1_545
Cs1 H5 3.274219 1_545
Cs1 O5 3.396865 1_555
Cs1 O2 3.485608 1_555
Cs2 H14 3.083779 1_555
Cs2 O17 3.141381 1_556
Cs2 O18 3.155960 1_555
Cs2 O15 3.194075 1_546
Cs2 O12 3.242359 1_545
Cs2 H6 3.274219 1_545
Cs2 O6 3.396865 1_555
Cs2 O1 3.485608 1_556
Cs3 H15 3.083779 1_555
Cs3 O16 3.141381 1_554
Cs3 O19 3.155960 1_555
Cs3 O14 3.194075 1_564
Cs3 O13 3.242359 1_565
Cs3 H7 3.274219 1_565
Cs3 O7 3.396865 1_555
Cs3 O0 3.485608 1_554
La0 O8 2.369297 1_555
La0 O20 2.376710 1_555
La0 O0 2.449492 1_555
La0 O28 2.464717 1_555
La0 O16 2.496180 1_555
La0 O14 2.569367 1_555
La1 O9 2.369297 1_555
La1 O21 2.376710 1_555
La1 O1 2.449492 1_555
La1 O29 2.464717 1_555
La1 O17 2.496180 1_555
La1 O15 2.569367 1_555
La2 O10 2.369297 1_555
La2 O22 2.376710 1_555
La2 O2 2.449492 1_555
La2 O30 2.464717 1_555
La2 O18 2.496180 1_555
La2 O12 2.569367 1_555
La3 O11 2.369297 1_555
La3 O23 2.376710 1_555
La3 O3 2.449492 1_555
La3 O31 2.464717 1_555
La3 O19 2.496180 1_555
La3 O13 2.569367 1_555
H0 La2 3.022017 1_455
H1 La3 3.022017 1_655
H2 La0 3.022017 1_555
H3 La1 3.022017 1_555
H4 La3 2.920938 1_555
H5 La2 2.920938 1_555
H6 La1 2.920938 1_556
H7 La0 2.920938 1_554
H8 La0 2.943586 1_555
H9 La1 2.943586 1_555
H10 La2 2.943586 1_555
H11 La3 2.943586 1_555
O0 S4 1.524293 1_555
O1 S5 1.524293 1_555
O2 S6 1.524293 1_555
O3 S7 1.524293 1_555
O4 S0 1.448715 1_555
O5 S1 1.448715 1_555
O6 S2 1.448715 1_555
O7 S3 1.448715 1_555
O8 S3 1.502825 1_555
O9 S2 1.502825 1_555
O10 S1 1.502825 1_556
O11 S0 1.502825 1_554
O12 S2 1.510012 1_555
O13 S3 1.510012 1_555
O14 S0 1.510012 1_555
O15 S1 1.510012 1_555
O16 S0 1.522985 1_555
O17 S1 1.522985 1_555
O18 S2 1.522985 1_555
O19 S3 1.522985 1_555
O20 S4 1.516332 1_545
O21 S5 1.516332 1_565
O22 S6 1.516332 1_565
O23 S7 1.516332 1_545
O24 S4 1.440803 1_555
O25 S5 1.440803 1_555
O26 S6 1.440803 1_555
O27 S7 1.440803 1_555
O28 S4 1.515803 1_555
O29 S5 1.515803 1_555
O30 S6 1.515803 1_555
O31 S7 1.515803 1_555
