# generated using pymatgen
data_RbSm2Br5
_symmetry_space_group_name_H-M   'P 1'
_cell_length_a   7.30849200
_cell_length_b   10.27254100
_cell_length_c   14.17125921
_cell_angle_alpha   85.45248378
_cell_angle_beta   90.00000000
_cell_angle_gamma   90.00000000
_symmetry_Int_Tables_number   1
_chemical_formula_structural   RbSm2Br5
_chemical_formula_sum   'Rb4 Sm8 Br20'
_cell_volume   1060.58322148
_cell_formula_units_Z   4
loop_
 _symmetry_equiv_pos_site_id
 _symmetry_equiv_pos_as_xyz
  1  'x, y, z'
loop_
 _atom_site_type_symbol
 _atom_site_label
 _atom_site_symmetry_multiplicity
 _atom_site_fract_x
 _atom_site_fract_y
 _atom_site_fract_z
 _atom_site_occupancy
  Rb  Rb0  1  0.08510800  0.49886800  0.33882800  1
  Rb  Rb1  1  0.91489200  0.50113200  0.66117200  1
  Rb  Rb2  1  0.58510800  0.50113200  0.16117200  1
  Rb  Rb3  1  0.41489200  0.49886800  0.83882800  1
  Sm  Sm0  1  0.11762400  0.99014100  0.34741000  1
  Sm  Sm1  1  0.88237600  0.00985900  0.65259000  1
  Sm  Sm2  1  0.61762400  0.00985900  0.15259000  1
  Sm  Sm3  1  0.38237600  0.99014100  0.84741000  1
  Sm  Sm4  1  0.02471900  0.17091400  0.98941100  1
  Sm  Sm5  1  0.97528100  0.82908600  0.01058900  1
  Sm  Sm6  1  0.52471900  0.82908600  0.51058900  1
  Sm  Sm7  1  0.47528100  0.17091400  0.48941100  1
  Br  Br0  1  0.15860000  0.58244500  0.08488300  1
  Br  Br1  1  0.84140000  0.41755500  0.91511700  1
  Br  Br2  1  0.65860000  0.41755500  0.41511700  1
  Br  Br3  1  0.34140000  0.58244500  0.58488300  1
  Br  Br4  1  0.85849400  0.23155300  0.16994200  1
  Br  Br5  1  0.14150600  0.76844700  0.83005800  1
  Br  Br6  1  0.35849400  0.76844700  0.33005800  1
  Br  Br7  1  0.64150600  0.23155300  0.66994200  1
  Br  Br8  1  0.33417900  0.22003500  0.28441300  1
  Br  Br9  1  0.66582100  0.77996500  0.71558700  1
  Br  Br10  1  0.83417900  0.77996500  0.21558700  1
  Br  Br11  1  0.16582100  0.22003500  0.78441300  1
  Br  Br12  1  0.44237400  0.19243500  0.99314500  1
  Br  Br13  1  0.55762600  0.80756500  0.00685500  1
  Br  Br14  1  0.94237400  0.80756500  0.50685500  1
  Br  Br15  1  0.05762600  0.19243500  0.49314500  1
  Br  Br16  1  0.70069600  0.02459200  0.36111100  1
  Br  Br17  1  0.29930400  0.97540800  0.63888900  1
  Br  Br18  1  0.20069600  0.97540800  0.13888900  1
  Br  Br19  1  0.79930400  0.02459200  0.86111100  1
loop_
_geom_bond_atom_site_label_1
_geom_bond_atom_site_label_2
_geom_bond_distance
_geom_bond_site_symmetry_2
Br0 Sm5 2.983251 1_455
Br0 Rb2 3.382280 1_555
Br0 Rb0 3.672391 1_555
Br1 Sm4 2.983251 1_655
Br1 Rb3 3.382280 1_555
Br1 Rb1 3.672391 1_555
Br2 Sm7 2.983251 1_555
Br2 Rb0 3.382280 1_655
Br2 Rb2 3.672391 1_555
Br3 Sm6 2.983251 1_555
Br3 Rb1 3.382280 1_455
Br3 Rb3 3.672391 1_555
Br4 Sm2 2.904244 1_555
Br4 Sm4 2.943088 1_654
Br4 Rb2 3.409082 1_555
Br5 Sm3 2.904244 1_555
Br5 Sm5 2.943088 1_456
Br5 Rb3 3.409082 1_555
Br6 Sm0 2.904244 1_555
Br6 Sm6 2.943088 1_555
Br6 Rb0 3.409082 1_555
Br7 Sm1 2.904244 1_555
Br7 Sm7 2.943088 1_555
Br7 Rb1 3.409082 1_555
Br8 Sm0 2.923136 1_545
Br8 Sm7 3.086279 1_555
Br8 Rb0 3.530276 1_555
Br8 Sm2 3.616927 1_555
Br8 Rb2 3.735218 1_555
Br9 Sm1 2.923136 1_565
Br9 Sm6 3.086279 1_555
Br9 Rb1 3.530276 1_555
Br9 Sm3 3.616927 1_555
Br9 Rb3 3.735218 1_555
Br10 Sm2 2.923136 1_565
Br10 Sm5 3.086279 1_555
Br10 Rb2 3.530276 1_555
Br10 Sm0 3.616927 1_655
Br10 Rb0 3.735218 1_655
Br11 Sm3 2.923136 1_545
Br11 Sm4 3.086279 1_555
Br11 Rb3 3.530276 1_555
Br11 Sm1 3.616927 1_455
Br11 Rb1 3.735218 1_455
Br12 Sm4 3.061184 1_555
Br12 Sm3 3.075137 1_545
Br12 Sm2 3.097025 1_556
Br12 Rb3 3.693246 1_555
Br13 Sm5 3.061184 1_555
Br13 Sm2 3.075137 1_565
Br13 Sm3 3.097025 1_554
Br13 Rb2 3.693246 1_555
Br14 Sm6 3.061184 1_555
Br14 Sm1 3.075137 1_565
Br14 Sm0 3.097025 1_655
Br14 Rb1 3.693246 1_555
Br15 Sm7 3.061184 1_555
Br15 Sm0 3.075137 1_545
Br15 Sm1 3.097025 1_455
Br15 Rb0 3.693246 1_555
Br16 Sm7 2.951692 1_555
Br16 Sm2 3.032241 1_555
Br16 Sm0 3.075508 1_645
Br16 Sm6 3.082226 1_545
Br17 Sm6 2.951692 1_555
Br17 Sm3 3.032241 1_555
Br17 Sm1 3.075508 1_465
Br17 Sm7 3.082226 1_565
Br18 Sm5 2.951692 1_455
Br18 Sm0 3.032241 1_555
Br18 Sm2 3.075508 1_565
Br18 Sm4 3.082226 1_564
Br19 Sm4 2.951692 1_655
Br19 Sm1 3.032241 1_555
Br19 Sm3 3.075508 1_545
Br19 Sm5 3.082226 1_546
