# generated using pymatgen
data_ScInO6
_symmetry_space_group_name_H-M   'P 1'
_cell_length_a   6.24713486
_cell_length_b   6.24713486
_cell_length_c   7.28472040
_cell_angle_alpha   55.55591199
_cell_angle_beta   55.55591199
_cell_angle_gamma   71.07960746
_symmetry_Int_Tables_number   1
_chemical_formula_structural   ScInO6
_chemical_formula_sum   'Sc2 In2 O12'
_cell_volume   193.34597669
_cell_formula_units_Z   2
loop_
 _symmetry_equiv_pos_site_id
 _symmetry_equiv_pos_as_xyz
  1  'x, y, z'
loop_
 _atom_site_type_symbol
 _atom_site_label
 _atom_site_symmetry_multiplicity
 _atom_site_fract_x
 _atom_site_fract_y
 _atom_site_fract_z
 _atom_site_occupancy
  Sc  Sc0  1  0.00000000  0.50000000  0.00000000  1
  Sc  Sc1  1  0.50000000  0.00000000  0.00000000  1
  In  In0  1  0.50000000  0.00000000  0.50000000  1
  In  In1  1  0.00000000  0.50000000  0.50000000  1
  O  O0  1  0.69248200  0.69248200  0.20078400  1
  O  O1  1  0.30751800  0.30751800  0.79921600  1
  O  O2  1  0.66564200  0.66564200  0.42582700  1
  O  O3  1  0.33435800  0.33435800  0.57417300  1
  O  O4  1  0.90908000  0.11128800  0.30792000  1
  O  O5  1  0.09092000  0.88871200  0.69208000  1
  O  O6  1  0.11128800  0.90908000  0.30792000  1
  O  O7  1  0.88871200  0.09092000  0.69208000  1
  O  O8  1  0.41773800  0.78155300  0.90520900  1
  O  O9  1  0.58226200  0.21844700  0.09479100  1
  O  O10  1  0.21844700  0.58226200  0.09479100  1
  O  O11  1  0.78155300  0.41773800  0.90520900  1
loop_
_geom_bond_atom_site_label_1
_geom_bond_atom_site_label_2
_geom_bond_distance
_geom_bond_site_symmetry_2
In0 O2 2.228957 1_545
In0 O3 2.228957 1_555
In0 O5 2.231355 1_545
In0 O4 2.231355 1_555
In0 O9 2.240929 1_555
In0 O8 2.240929 1_545
In1 O2 2.228957 1_455
In1 O3 2.228957 1_555
In1 O6 2.231355 1_555
In1 O7 2.231355 1_455
In1 O10 2.240929 1_555
In1 O11 2.240929 1_455
O0 O2 1.462916 1_555
O0 Sc1 2.142146 1_565
O0 Sc0 2.142146 1_655
O1 O3 1.462916 1_555
O1 Sc0 2.142146 1_556
O1 Sc1 2.142146 1_556
O4 O6 1.468540 1_645
O4 Sc0 2.131319 1_655
O5 O7 1.468540 1_465
O5 Sc0 2.131319 1_556
O6 Sc1 2.131319 1_565
O7 Sc1 2.131319 1_556
O8 Sc1 2.127308 1_566
O9 Sc1 2.127308 1_555
O10 O8 1.456896 1_554
O10 Sc0 2.127308 1_555
O11 O9 1.456896 1_556
O11 Sc0 2.127308 1_656
