# generated using pymatgen
data_NaFe12O19
_symmetry_space_group_name_H-M   'P 1'
_cell_length_a   5.97991458
_cell_length_b   5.99276286
_cell_length_c   23.17424309
_cell_angle_alpha   90.13898700
_cell_angle_beta   89.83566086
_cell_angle_gamma   120.03941896
_symmetry_Int_Tables_number   1
_chemical_formula_structural   NaFe12O19
_chemical_formula_sum   'Na2 Fe24 O38'
_cell_volume   718.92493699
_cell_formula_units_Z   2
loop_
 _symmetry_equiv_pos_site_id
 _symmetry_equiv_pos_as_xyz
  1  'x, y, z'
loop_
 _atom_site_type_symbol
 _atom_site_label
 _atom_site_symmetry_multiplicity
 _atom_site_fract_x
 _atom_site_fract_y
 _atom_site_fract_z
 _atom_site_occupancy
  Na  Na0  1  0.33248100  0.67076400  0.74977600  1
  Na  Na1  1  0.67116300  0.33119300  0.24997500  1
  Fe  Fe0  1  0.16906000  0.83224200  0.89054100  1
  Fe  Fe1  1  0.16800600  0.83127200  0.61008200  1
  Fe  Fe2  1  0.33300200  0.66655300  0.19060200  1
  Fe  Fe3  1  0.33369100  0.66702000  0.02896000  1
  Fe  Fe4  1  0.33274700  0.66570600  0.30837300  1
  Fe  Fe5  1  0.00026300  0.00050300  0.00009100  1
  Fe  Fe6  1  0.99949300  0.99915800  0.25013300  1
  Fe  Fe7  1  0.99934700  0.99992200  0.49983300  1
  Fe  Fe8  1  0.16792100  0.33644000  0.61008300  1
  Fe  Fe9  1  0.33235100  0.66609400  0.47138400  1
  Fe  Fe10  1  0.00015600  0.00012800  0.75227400  1
  Fe  Fe11  1  0.16982700  0.33855300  0.89073000  1
  Fe  Fe12  1  0.66315700  0.83157200  0.89083300  1
  Fe  Fe13  1  0.66250000  0.83069400  0.61002100  1
  Fe  Fe14  1  0.33759600  0.16892900  0.10986900  1
  Fe  Fe15  1  0.33667700  0.16776500  0.38966400  1
  Fe  Fe16  1  0.83178200  0.66326700  0.10984000  1
  Fe  Fe17  1  0.66609300  0.33189900  0.69159200  1
  Fe  Fe18  1  0.66797200  0.33544700  0.80895100  1
  Fe  Fe19  1  0.83064200  0.66182700  0.38976300  1
  Fe  Fe20  1  0.66750600  0.33327600  0.97133700  1
  Fe  Fe21  1  0.66604900  0.33310800  0.52842500  1
  Fe  Fe22  1  0.83192500  0.16914400  0.10963700  1
  Fe  Fe23  1  0.83102200  0.16761200  0.38975300  1
  O  O0  1  0.15526000  0.84552100  0.05324500  1
  O  O1  1  0.15400800  0.84439600  0.44620600  1
  O  O2  1  0.99497100  0.49709200  0.34906600  1
  O  O3  1  0.00775600  0.50520500  0.85028000  1
  O  O4  1  0.99541200  0.49771700  0.14980800  1
  O  O5  1  0.00406400  0.50164200  0.65054300  1
  O  O6  1  0.18309000  0.81511500  0.24971500  1
  O  O7  1  0.33432900  0.66669000  0.94547900  1
  O  O8  1  0.33257200  0.66671800  0.55497700  1
  O  O9  1  0.99989600  0.00010100  0.15292700  1
  O  O10  1  0.15464300  0.30985600  0.05338800  1
  O  O11  1  0.99938400  0.99930200  0.34599900  1
  O  O12  1  0.99937400  0.99917300  0.65270800  1
  O  O13  1  0.18136400  0.36816800  0.24964300  1
  O  O14  1  0.00105600  0.00105000  0.84730900  1
  O  O15  1  0.15481500  0.30955900  0.44599200  1
  O  O16  1  0.62994300  0.81569000  0.24973300  1
  O  O17  1  0.30923200  0.15497700  0.55297000  1
  O  O18  1  0.30984400  0.15723800  0.94734400  1
  O  O19  1  0.50269000  0.49634900  0.34872600  1
  O  O20  1  0.50325600  0.49708100  0.15013400  1
  O  O21  1  0.49783100  0.50510300  0.84988100  1
  O  O22  1  0.49681500  0.50120500  0.65041100  1
  O  O23  1  0.68938900  0.84384000  0.44608900  1
  O  O24  1  0.69071200  0.84645900  0.05338400  1
  O  O25  1  0.36821900  0.17976200  0.75047600  1
  O  O26  1  0.50303000  0.00549300  0.14997800  1
  O  O27  1  0.50204100  0.00389800  0.34907700  1
  O  O28  1  0.49728300  0.99440800  0.65045500  1
  O  O29  1  0.84475200  0.69108500  0.94726700  1
  O  O30  1  0.49914400  0.99789200  0.85113000  1
  O  O31  1  0.66605200  0.33204000  0.44434300  1
  O  O32  1  0.66725900  0.33357700  0.05513300  1
  O  O33  1  0.84418300  0.68960000  0.55296300  1
  O  O34  1  0.81546000  0.63209600  0.75046600  1
  O  O35  1  0.81783800  0.18401300  0.75041900  1
  O  O36  1  0.84454200  0.15496100  0.55284900  1
  O  O37  1  0.84606100  0.15604100  0.94697000  1
loop_
_geom_bond_atom_site_label_1
_geom_bond_atom_site_label_2
_geom_bond_distance
_geom_bond_site_symmetry_2
Na0 O28 2.850561 1_555
Na0 O5 2.862570 1_555
Na0 O3 2.869873 1_555
Na0 O22 2.876820 1_555
Na0 O21 2.890007 1_555
Na0 O30 2.896253 1_555
Na0 O25 2.949138 1_565
Na0 O34 2.982492 1_455
Na0 O35 2.991120 1_565
Na0 O35 2.998721 1_455
Na0 O34 3.010955 1_555
Na0 O25 3.055132 1_555
Na1 O2 2.845725 1_555
Na1 O27 2.857772 1_555
Na1 O4 2.862179 1_555
Na1 O19 2.864574 1_555
Na1 O26 2.866593 1_555
Na1 O20 2.893732 1_555
Na1 O13 2.946275 1_655
Na1 O16 2.973553 1_545
Na1 O6 2.982154 1_655
Na1 O6 3.007684 1_545
Na1 O16 3.034400 1_555
Na1 O13 3.045958 1_555
Fe0 O3 1.935348 1_555
Fe0 O30 1.935986 1_555
Fe0 O14 2.016106 1_565
Fe0 O29 2.133780 1_455
Fe0 O7 2.139377 1_555
Fe0 O18 2.141757 1_565
Fe1 O28 1.946053 1_555
Fe1 O5 1.951228 1_555
Fe1 O12 2.002603 1_455
Fe1 O8 2.128367 1_555
Fe1 O33 2.141493 1_455
Fe1 O17 2.143343 1_565
Fe2 O4 1.988504 1_455
Fe2 O20 1.993142 1_555
Fe2 O26 1.995472 1_565
Fe2 O16 2.061240 1_555
Fe2 O6 2.063734 1_555
Fe2 O13 2.067160 1_555
Fe3 O0 1.932846 1_555
Fe3 O24 1.933958 1_555
Fe3 O7 1.934600 1_554
Fe3 O10 1.938072 1_555
Fe4 O2 1.985064 1_455
Fe4 O27 1.991028 1_565
Fe4 O19 1.994994 1_555
Fe4 O16 2.050813 1_555
Fe4 O13 2.056808 1_555
Fe4 O6 2.065330 1_555
Fe5 O18 2.013775 1_554
Fe5 O29 2.017613 1_444
Fe5 O24 2.021279 1_445
Fe5 O10 2.023999 1_555
Fe5 O37 2.026617 1_454
Fe5 O0 2.028057 1_545
Fe6 O6 1.906341 1_655
Fe6 O16 1.913102 1_555
Fe6 O13 1.914504 1_665
Fe6 O11 2.221618 1_555
Fe6 O9 2.252688 1_565
Fe7 O36 2.019589 1_565
Fe7 O17 2.024181 1_665
Fe7 O33 2.027880 1_555
Fe7 O1 2.029611 1_655
Fe7 O23 2.033094 1_555
Fe7 O15 2.035124 1_665
Fe8 O22 1.943784 1_555
Fe8 O5 1.944438 1_555
Fe8 O12 2.010256 1_445
Fe8 O17 2.134261 1_555
Fe8 O8 2.138163 1_555
Fe8 O36 2.140937 1_455
Fe9 O8 1.937202 1_555
Fe9 O23 1.937942 1_555
Fe9 O15 1.940355 1_555
Fe9 O1 1.940893 1_555
Fe10 O35 1.899527 1_455
Fe10 O25 1.905894 1_555
Fe10 O34 1.909696 1_445
Fe10 O14 2.202373 1_555
Fe10 O12 2.307372 1_445
Fe11 O21 1.942540 1_555
Fe11 O3 1.947882 1_555
Fe11 O14 2.018457 1_555
Fe11 O7 2.121958 1_555
Fe11 O37 2.125018 1_455
Fe11 O18 2.127697 1_555
Fe12 O21 1.940519 1_555
Fe12 O30 1.946868 1_555
Fe12 O14 2.017510 1_665
Fe12 O7 2.119706 1_555
Fe12 O29 2.127730 1_555
Fe12 O37 2.129849 1_565
Fe13 O28 1.943549 1_555
Fe13 O22 1.949762 1_555
Fe13 O12 2.006577 1_555
Fe13 O33 2.133025 1_555
Fe13 O8 2.133681 1_555
Fe13 O36 2.145453 1_565
Fe14 O20 1.940433 1_555
Fe14 O26 1.944662 1_555
Fe14 O9 2.011249 1_455
Fe14 O32 2.124406 1_555
Fe14 O0 2.132411 1_545
Fe14 O10 2.135897 1_555
Fe15 O27 1.946613 1_555
Fe15 O19 1.951803 1_555
Fe15 O11 2.019763 1_445
Fe15 O15 2.126122 1_555
Fe15 O31 2.126312 1_555
Fe15 O1 2.133135 1_545
Fe16 O20 1.938661 1_555
Fe16 O4 1.944529 1_555
Fe16 O9 2.011605 1_565
Fe16 O32 2.127841 1_555
Fe16 O0 2.128851 1_655
Fe16 O24 2.137543 1_555
Fe17 O5 1.989884 1_655
Fe17 O28 1.992597 1_545
Fe17 O22 2.000851 1_555
Fe17 O25 2.057275 1_555
Fe17 O34 2.069303 1_555
Fe17 O35 2.070138 1_555
Fe18 O21 1.998498 1_555
Fe18 O3 2.004419 1_655
Fe18 O30 2.006489 1_545
Fe18 O34 2.051892 1_555
Fe18 O25 2.062347 1_555
Fe18 O35 2.065903 1_555
Fe19 O2 1.947090 1_555
Fe19 O19 1.947522 1_555
Fe19 O11 2.024315 1_555
Fe19 O23 2.125158 1_555
Fe19 O31 2.128839 1_555
Fe19 O1 2.129921 1_655
Fe20 O37 1.927725 1_555
Fe20 O18 1.934287 1_555
Fe20 O29 1.938917 1_555
Fe20 O32 1.941902 1_556
Fe21 O17 1.931693 1_555
Fe21 O33 1.934245 1_555
Fe21 O36 1.935634 1_555
Fe21 O31 1.948532 1_555
Fe22 O26 1.940803 1_555
Fe22 O4 1.941292 1_555
Fe22 O9 2.017689 1_555
Fe22 O10 2.120406 1_655
Fe22 O24 2.123952 1_545
Fe22 O32 2.126190 1_555
Fe23 O27 1.948091 1_555
Fe23 O2 1.953071 1_555
Fe23 O11 2.016183 1_545
Fe23 O31 2.122411 1_555
Fe23 O15 2.128691 1_655
Fe23 O23 2.132405 1_545
