# generated using pymatgen
data_SmTiFe5Co6
_symmetry_space_group_name_H-M   'P 1'
_cell_length_a   4.70618700
_cell_length_b   6.44814206
_cell_length_c   6.44814206
_cell_angle_alpha   98.20897586
_cell_angle_beta   111.40301258
_cell_angle_gamma   68.59698742
_symmetry_Int_Tables_number   1
_chemical_formula_structural   SmTiFe5Co6
_chemical_formula_sum   'Sm1 Ti1 Fe5 Co6'
_cell_volume   169.60755759
_cell_formula_units_Z   1
loop_
 _symmetry_equiv_pos_site_id
 _symmetry_equiv_pos_as_xyz
  1  'x, y, z'
loop_
 _atom_site_type_symbol
 _atom_site_label
 _atom_site_symmetry_multiplicity
 _atom_site_fract_x
 _atom_site_fract_y
 _atom_site_fract_z
 _atom_site_occupancy
  Sm  Sm0  1  0.00000000  0.00283100  0.00283100  1
  Ti  Ti0  1  0.00000000  0.62467400  0.62467400  1
  Fe  Fe0  1  0.49956000  0.00215600  0.50289800  1
  Fe  Fe1  1  0.00118200  0.00215600  0.50289800  1
  Fe  Fe2  1  0.50044000  0.50289800  0.00215600  1
  Fe  Fe3  1  0.99881800  0.50289800  0.00215600  1
  Fe  Fe4  1  0.50000000  0.23238500  0.23238500  1
  Co  Co0  1  0.72530000  0.77715200  0.22775100  1
  Co  Co1  1  0.27470000  0.22775100  0.77715200  1
  Co  Co2  1  0.50000000  0.77426700  0.77426700  1
  Co  Co3  1  0.64140100  0.35838800  0.64118900  1
  Co  Co4  1  0.35859900  0.64118900  0.35838800  1
  Co  Co5  1  0.00000000  0.35125500  0.35125500  1
loop_
_geom_bond_atom_site_label_1
_geom_bond_atom_site_label_2
_geom_bond_distance
_geom_bond_site_symmetry_2
Sm0 Ti0 3.192764 1_544
Fe0 Fe1 2.345460 1_555
Fe0 Fe1 2.360727 1_655
Fe0 Fe4 2.447622 1_555
Fe0 Ti0 2.664606 1_645
Fe0 Sm0 3.223099 1_555
Fe0 Sm0 3.225052 1_656
Fe1 Fe4 2.447623 1_455
Fe1 Ti0 2.664606 1_545
Fe1 Sm0 3.223099 1_555
Fe1 Sm0 3.225052 1_556
Fe2 Fe3 2.345460 1_555
Fe2 Fe3 2.360727 1_455
Fe2 Fe4 2.447622 1_555
Fe2 Ti0 2.664606 1_554
Fe2 Sm0 3.223099 1_655
Fe2 Sm0 3.225052 1_565
Fe3 Fe4 2.447623 1_655
Fe3 Ti0 2.664606 1_654
Fe3 Sm0 3.223099 1_655
Fe3 Sm0 3.225052 1_665
Fe4 Sm0 3.048498 1_655
Fe4 Sm0 3.048498 1_555
Co0 Fe3 2.423007 1_555
Co0 Fe2 2.423009 1_555
Co0 Fe1 2.428370 1_665
Co0 Fe0 2.428372 1_565
Co0 Ti0 2.562145 1_655
Co0 Co4 2.613919 1_655
Co0 Co4 2.613927 1_555
Co0 Co5 2.670075 1_655
Co0 Co2 2.722334 1_554
Co0 Fe4 2.732805 1_565
Co0 Sm0 3.039169 1_665
Co0 Sm0 3.039173 1_565
Co1 Fe1 2.423007 1_555
Co1 Fe0 2.423009 1_555
Co1 Fe3 2.428370 1_456
Co1 Fe2 2.428372 1_556
Co1 Ti0 2.562145 1_555
Co1 Co3 2.613919 1_455
Co1 Co3 2.613927 1_555
Co1 Co5 2.670075 1_555
Co1 Co2 2.722334 1_545
Co1 Fe4 2.732805 1_556
Co1 Sm0 3.039169 1_556
Co1 Sm0 3.039173 1_656
Co2 Fe2 2.439390 1_556
Co2 Fe0 2.439390 1_565
Co2 Fe3 2.439391 1_556
Co2 Fe1 2.439391 1_565
Co2 Co3 2.612970 1_555
Co2 Co4 2.612970 1_555
Co2 Ti0 2.670625 1_555
Co2 Ti0 2.670625 1_655
Co2 Sm0 3.043191 1_566
Co2 Sm0 3.043191 1_666
Co3 Co4 2.414306 1_555
Co3 Fe4 2.560141 1_555
Co3 Fe1 2.572324 1_655
Co3 Fe0 2.572326 1_555
Co3 Fe3 2.604295 1_556
Co3 Fe2 2.604297 1_556
Co3 Ti0 2.847108 1_655
Co3 Ti0 2.847112 1_555
Co3 Co5 2.926931 1_655
Co3 Co5 2.926935 1_555
Co3 Sm0 3.061514 1_656
Co4 Fe4 2.560141 1_555
Co4 Fe3 2.572324 1_455
Co4 Fe2 2.572326 1_555
Co4 Fe1 2.604295 1_565
Co4 Fe0 2.604297 1_565
Co4 Ti0 2.847108 1_555
Co4 Ti0 2.847112 1_655
Co4 Co5 2.926931 1_555
Co4 Co5 2.926935 1_655
Co4 Sm0 3.061514 1_565
Co5 Ti0 2.308466 1_555
Co5 Fe4 2.558181 1_455
Co5 Fe4 2.558181 1_555
Co5 Fe1 2.576585 1_555
Co5 Fe3 2.576585 1_455
Co5 Fe2 2.576585 1_455
Co5 Fe0 2.576585 1_555
Co5 Sm0 2.941730 1_555
