# generated using pymatgen
data_K5Na3Ta2Nb6O20
_symmetry_space_group_name_H-M   'P 1'
_cell_length_a   11.52811161
_cell_length_b   11.56040154
_cell_length_c   17.77621216
_cell_angle_alpha   109.13952824
_cell_angle_beta   108.73437588
_cell_angle_gamma   90.14288663
_symmetry_Int_Tables_number   1
_chemical_formula_structural   K5Na3Ta2Nb6O20
_chemical_formula_sum   'K20 Na12 Ta8 Nb24 O80'
_cell_volume   2104.05571597
_cell_formula_units_Z   4
loop_
 _symmetry_equiv_pos_site_id
 _symmetry_equiv_pos_as_xyz
  1  'x, y, z'
loop_
 _atom_site_type_symbol
 _atom_site_label
 _atom_site_symmetry_multiplicity
 _atom_site_fract_x
 _atom_site_fract_y
 _atom_site_fract_z
 _atom_site_occupancy
  K  K0  1  0.30496100  0.06234500  0.12328600  1
  K  K1  1  0.31072200  0.56348900  0.11618500  1
  K  K2  1  0.79592500  0.06203600  0.10950100  1
  K  K3  1  0.81136300  0.56169900  0.12260400  1
  K  K4  1  0.81203400  0.57022500  0.62225200  1
  K  K5  1  0.20094900  0.93577600  0.38828400  1
  K  K6  1  0.19102800  0.92882700  0.87831500  1
  K  K7  1  0.69078600  0.44331300  0.38272600  1
  K  K8  1  0.68425700  0.42428000  0.87885500  1
  K  K9  1  0.69451500  0.93830900  0.37978500  1
  K  K10  1  0.68946100  0.92130500  0.87565700  1
  K  K11  1  0.04431500  0.29703000  0.11349900  1
  K  K12  1  0.06321500  0.79780800  0.11734500  1
  K  K13  1  0.55532100  0.31300100  0.12137800  1
  K  K14  1  0.56119800  0.80867400  0.12275900  1
  K  K15  1  0.43756200  0.19323300  0.38081800  1
  K  K16  1  0.45259900  0.69972300  0.38956000  1
  K  K17  1  0.44517500  0.70467000  0.88992700  1
  K  K18  1  0.94661500  0.69172800  0.37990300  1
  K  K19  1  0.93654000  0.69287000  0.87590100  1
  Na  Na0  1  0.29764200  0.07533200  0.60370700  1
  Na  Na1  1  0.30434300  0.56868100  0.60271800  1
  Na  Na2  1  0.80167200  0.06632000  0.59888300  1
  Na  Na3  1  0.20348400  0.44126900  0.40245900  1
  Na  Na4  1  0.19836200  0.43350600  0.89671600  1
  Na  Na5  1  0.04990200  0.28103700  0.60531000  1
  Na  Na6  1  0.05853600  0.79354300  0.60838200  1
  Na  Na7  1  0.55456700  0.29255300  0.60378200  1
  Na  Na8  1  0.55643800  0.78976800  0.60845400  1
  Na  Na9  1  0.44398500  0.20991000  0.89667500  1
  Na  Na10  1  0.95481800  0.21310700  0.40464800  1
  Na  Na11  1  0.94500000  0.21198000  0.89865400  1
  Ta  Ta0  1  0.99835800  0.99835200  0.00029300  1
  Ta  Ta1  1  0.99833900  0.49608100  0.99995100  1
  Ta  Ta2  1  0.49835300  0.00103100  0.99939300  1
  Ta  Ta3  1  0.50711500  0.00423500  0.50717700  1
  Ta  Ta4  1  0.49878200  0.49854100  0.99785800  1
  Ta  Ta5  1  0.24715000  0.24834900  0.99918800  1
  Ta  Ta6  1  0.24972800  0.74777400  0.99967000  1
  Ta  Ta7  1  0.75065800  0.74778400  0.00110900  1
  Nb  Nb0  1  0.00395000  0.00081800  0.50177300  1
  Nb  Nb1  1  0.00737700  0.50275900  0.50446300  1
  Nb  Nb2  1  0.50654700  0.50169200  0.50324000  1
  Nb  Nb3  1  0.25390100  0.25519400  0.50357400  1
  Nb  Nb4  1  0.25703100  0.75169400  0.50447300  1
  Nb  Nb5  1  0.74469500  0.24672900  0.99769400  1
  Nb  Nb6  1  0.75667600  0.25134700  0.50121500  1
  Nb  Nb7  1  0.75886100  0.75130400  0.50343800  1
  Nb  Nb8  1  0.09832500  0.09088600  0.25410100  1
  Nb  Nb9  1  0.08594400  0.08788200  0.74757500  1
  Nb  Nb10  1  0.14640400  0.58316900  0.25429500  1
  Nb  Nb11  1  0.14148400  0.56581300  0.74945800  1
  Nb  Nb12  1  0.62781400  0.11191100  0.25131800  1
  Nb  Nb13  1  0.58250200  0.08148300  0.74575800  1
  Nb  Nb14  1  0.61643400  0.61251700  0.25153700  1
  Nb  Nb15  1  0.59063900  0.57541300  0.74666400  1
  Nb  Nb16  1  0.35074400  0.40606400  0.25310100  1
  Nb  Nb17  1  0.34497500  0.42399400  0.74717800  1
  Nb  Nb18  1  0.37445500  0.89034700  0.25426800  1
  Nb  Nb19  1  0.37264300  0.92787000  0.74633500  1
  Nb  Nb20  1  0.87176700  0.39018500  0.25216200  1
  Nb  Nb21  1  0.86738200  0.39032200  0.74786300  1
  Nb  Nb22  1  0.89916300  0.92763900  0.25346400  1
  Nb  Nb23  1  0.87545900  0.93743900  0.74802600  1
  O  O0  1  0.12711900  0.12851000  0.50350300  1
  O  O1  1  0.11888500  0.11915200  0.99534600  1
  O  O2  1  0.13247600  0.62592800  0.50190400  1
  O  O3  1  0.12087900  0.61572900  0.98742200  1
  O  O4  1  0.62639200  0.12472500  0.50193100  1
  O  O5  1  0.61129100  0.11813900  0.98869300  1
  O  O6  1  0.63118800  0.63078700  0.50551700  1
  O  O7  1  0.62552400  0.62391500  0.99913800  1
  O  O8  1  0.12130900  0.36772100  0.99404300  1
  O  O9  1  0.13393200  0.37935300  0.50856400  1
  O  O10  1  0.12167000  0.86941300  0.99514500  1
  O  O11  1  0.13963400  0.88124700  0.51488100  1
  O  O12  1  0.61504500  0.37233600  0.99490300  1
  O  O13  1  0.63197400  0.37920100  0.51038800  1
  O  O14  1  0.62449900  0.87391700  0.99962600  1
  O  O15  1  0.63721800  0.88961600  0.51909100  1
  O  O16  1  0.38057000  0.12541100  0.50368700  1
  O  O17  1  0.36801500  0.12205400  0.99167200  1
  O  O18  1  0.37837300  0.62343900  0.50182800  1
  O  O19  1  0.36835800  0.62107700  0.99278800  1
  O  O20  1  0.87646600  0.12207200  0.49316000  1
  O  O21  1  0.87132800  0.11329300  0.98849900  1
  O  O22  1  0.88216200  0.62834300  0.50275000  1
  O  O23  1  0.87492000  0.61972600  0.99641900  1
  O  O24  1  0.36808900  0.37019500  0.99385800  1
  O  O25  1  0.37909100  0.37804900  0.50761300  1
  O  O26  1  0.37170100  0.87489100  0.99838700  1
  O  O27  1  0.38945900  0.88442000  0.51529200  1
  O  O28  1  0.87509600  0.37307800  0.99834100  1
  O  O29  1  0.88820300  0.37872100  0.51299900  1
  O  O30  1  0.87110100  0.86755100  0.99148800  1
  O  O31  1  0.88476900  0.88085000  0.50739100  1
  O  O32  1  0.05255500  0.05654700  0.12351500  1
  O  O33  1  0.06093900  0.09037000  0.63648600  1
  O  O34  1  0.07308400  0.55743500  0.12545300  1
  O  O35  1  0.09295700  0.59113000  0.64380400  1
  O  O36  1  0.55756500  0.06904600  0.12111300  1
  O  O37  1  0.56583000  0.09803600  0.63884300  1
  O  O38  1  0.55694600  0.56361600  0.12172500  1
  O  O39  1  0.56902200  0.58149600  0.63699700  1
  O  O40  1  0.43852000  0.43427100  0.37312600  1
  O  O41  1  0.42867100  0.43616200  0.86465800  1
  O  O42  1  0.44186200  0.93183200  0.37897700  1
  O  O43  1  0.43506800  0.92038700  0.85821600  1
  O  O44  1  0.94029900  0.42660900  0.37568600  1
  O  O45  1  0.93385600  0.41135600  0.86785900  1
  O  O46  1  0.94998000  0.92856900  0.36943600  1
  O  O47  1  0.93855500  0.92154400  0.85687900  1
  O  O48  1  0.30265700  0.31153600  0.12440700  1
  O  O49  1  0.31819000  0.30550300  0.63699100  1
  O  O50  1  0.30903400  0.80587400  0.12154300  1
  O  O51  1  0.34238900  0.79711500  0.64277100  1
  O  O52  1  0.80473100  0.30355100  0.12244800  1
  O  O53  1  0.83037400  0.28307400  0.63388700  1
  O  O54  1  0.82412400  0.81651800  0.12674200  1
  O  O55  1  0.85180700  0.80936000  0.64557900  1
  O  O56  1  0.18574300  0.18886500  0.37361200  1
  O  O57  1  0.17597800  0.18379800  0.86486100  1
  O  O58  1  0.19595900  0.68999900  0.37335100  1
  O  O59  1  0.19559000  0.68830500  0.86036700  1
  O  O60  1  0.68887600  0.19884300  0.37387400  1
  O  O61  1  0.67305000  0.18142400  0.85928500  1
  O  O62  1  0.68751900  0.69526800  0.37721100  1
  O  O63  1  0.67656600  0.67479800  0.86669900  1
  O  O64  1  0.49071400  0.00444500  0.24863700  1
  O  O65  1  0.40942200  0.09825700  0.74655700  1
  O  O66  1  0.48370900  0.51180900  0.24957700  1
  O  O67  1  0.41683600  0.57551000  0.73748700  1
  O  O68  1  0.93500100  0.10658000  0.26475300  1
  O  O69  1  0.91193100  0.10854800  0.74880600  1
  O  O70  1  0.98551800  0.50840400  0.24664100  1
  O  O71  1  0.97244300  0.51880600  0.74742300  1
  O  O72  1  0.18962300  0.41841000  0.26517200  1
  O  O73  1  0.17062100  0.39348300  0.74994000  1
  O  O74  1  0.23359500  0.98086300  0.24903000  1
  O  O75  1  0.19738000  0.95415900  0.73597300  1
  O  O76  1  0.74690700  0.50505600  0.24998000  1
  O  O77  1  0.70791400  0.44766100  0.73840500  1
  O  O78  1  0.73610000  0.98628600  0.24738700  1
  O  O79  1  0.69830400  0.95266000  0.73502400  1
loop_
_geom_bond_atom_site_label_1
_geom_bond_atom_site_label_2
_geom_bond_distance
_geom_bond_site_symmetry_2
K0 O64 2.814037 1_555
K0 O1 2.838612 1_554
K0 O26 2.857986 1_544
K0 O10 2.860285 1_544
K0 O48 2.874524 1_555
K0 O32 2.911710 1_555
K0 O36 2.925851 1_555
K0 O17 2.937252 1_554
K0 O50 2.955543 1_545
K0 O74 3.019704 1_545
K1 O19 2.754608 1_554
K1 O50 2.772633 1_555
K1 O34 2.798843 1_555
K1 O66 2.802464 1_555
K1 O38 2.808397 1_555
K1 O24 2.811397 1_554
K1 O3 2.844069 1_554
K1 O8 2.883018 1_554
K1 O48 2.966518 1_555
K2 O68 2.583378 1_555
K2 O14 2.676479 1_544
K2 O52 2.724117 1_555
K2 O5 2.747160 1_554
K2 O21 2.787039 1_554
K2 O36 2.820336 1_555
K2 O30 2.879514 1_544
K2 O32 2.890752 1_655
K2 O54 2.960827 1_545
K2 O78 3.121009 1_545
K3 O70 2.706544 1_555
K3 O7 2.818947 1_554
K3 O23 2.838706 1_554
K3 O28 2.840061 1_554
K3 O76 2.856288 1_555
K3 O12 2.912696 1_554
K3 O54 2.924662 1_555
K3 O38 2.928144 1_555
K3 O52 2.984152 1_555
K3 O34 3.002067 1_655
K4 O71 2.636960 1_555
K4 O55 2.672913 1_555
K4 O6 2.706223 1_555
K4 O13 2.754223 1_555
K4 O22 2.766581 1_555
K4 O29 2.780242 1_555
K4 O39 2.895690 1_555
K4 O35 3.135527 1_655
K5 O16 2.757129 1_565
K5 O58 2.764318 1_555
K5 O46 2.801359 1_455
K5 O27 2.811783 1_555
K5 O11 2.812685 1_555
K5 O74 2.825681 1_555
K5 O0 2.832050 1_565
K5 O42 2.834348 1_555
K5 O56 3.022035 1_565
K6 O75 2.664275 1_555
K6 O59 2.695496 1_555
K6 O26 2.702991 1_555
K6 O10 2.724601 1_555
K6 O17 2.756416 1_565
K6 O47 2.808707 1_455
K6 O1 2.824829 1_565
K6 O43 2.945527 1_555
K6 O57 3.035392 1_565
K7 O60 2.778190 1_555
K7 O6 2.793251 1_555
K7 O22 2.820469 1_555
K7 O40 2.857513 1_555
K7 O13 2.871877 1_555
K7 O44 2.923159 1_555
K7 O76 2.929021 1_555
K7 O62 2.946231 1_555
K7 O29 2.976025 1_555
K7 O66 3.088174 1_555
K8 O12 2.668323 1_555
K8 O77 2.694498 1_555
K8 O61 2.710851 1_555
K8 O28 2.744282 1_555
K8 O7 2.838730 1_555
K8 O23 2.869126 1_555
K8 O41 2.882893 1_555
K8 O45 2.946909 1_555
K8 O63 2.973420 1_555
K9 O20 2.725660 1_565
K9 O78 2.766943 1_555
K9 O62 2.795521 1_555
K9 O4 2.830353 1_565
K9 O31 2.862963 1_555
K9 O42 2.908686 1_555
K9 O15 2.974610 1_555
K9 O46 3.009287 1_555
K9 O64 3.032955 1_565
K9 O60 3.048079 1_565
K10 O30 2.662035 1_555
K10 O79 2.673784 1_555
K10 O14 2.750806 1_555
K10 O21 2.775112 1_565
K10 O63 2.802405 1_555
K10 O43 2.847881 1_555
K10 O5 2.864011 1_565
K10 O47 2.995616 1_555
K10 O61 3.115183 1_565
K11 O72 2.578879 1_555
K11 O28 2.718898 1_454
K11 O21 2.731939 1_454
K11 O1 2.777655 1_554
K11 O52 2.816873 1_455
K11 O32 2.843344 1_555
K11 O8 2.882680 1_554
K11 O48 2.922431 1_555
K11 O34 2.957676 1_555
K11 O70 3.046049 1_455
K12 O74 2.755589 1_555
K12 O23 2.765754 1_454
K12 O50 2.811250 1_555
K12 O54 2.818995 1_455
K12 O10 2.823945 1_554
K12 O34 2.830047 1_555
K12 O3 2.830530 1_554
K12 O30 2.927325 1_454
K12 O32 2.961307 1_565
K13 O36 2.818874 1_555
K13 O12 2.828849 1_554
K13 O24 2.842793 1_554
K13 O52 2.871763 1_555
K13 O17 2.879597 1_554
K13 O38 2.895195 1_555
K13 O76 2.904735 1_555
K13 O5 2.924857 1_554
K13 O48 2.930585 1_555
K13 O66 2.990075 1_555
K14 O78 2.704904 1_555
K14 O7 2.813870 1_554
K14 O38 2.827196 1_555
K14 O14 2.828119 1_554
K14 O26 2.874336 1_554
K14 O19 2.893838 1_554
K14 O50 2.900125 1_555
K14 O64 2.940338 1_565
K14 O54 3.009486 1_555
K14 O36 3.019989 1_565
K15 O16 2.803400 1_555
K15 O25 2.815089 1_555
K15 O40 2.834438 1_555
K15 O4 2.849072 1_555
K15 O56 2.864003 1_555
K15 O64 2.868520 1_555
K15 O13 2.891876 1_555
K15 O60 2.940596 1_555
K15 O42 3.012034 1_545
K15 O74 3.115408 1_545
K16 O6 2.735311 1_555
K16 O42 2.751069 1_555
K16 O18 2.782082 1_555
K16 O62 2.785725 1_555
K16 O27 2.829777 1_555
K16 O66 2.841163 1_555
K16 O15 2.857410 1_555
K16 O58 2.877209 1_555
K16 O40 2.984627 1_555
K17 O67 2.540658 1_555
K17 O14 2.606298 1_555
K17 O26 2.622297 1_555
K17 O19 2.693687 1_555
K17 O43 2.726043 1_555
K17 O59 2.747972 1_555
K17 O7 2.751070 1_555
K17 O63 2.832652 1_555
K17 O41 2.983457 1_555
K18 O70 2.774767 1_555
K18 O46 2.805496 1_555
K18 O22 2.818980 1_555
K18 O2 2.824500 1_655
K18 O31 2.867210 1_555
K18 O58 2.913817 1_655
K18 O76 2.929644 1_555
K18 O11 2.933846 1_655
K18 O62 2.972464 1_555
K18 O44 3.041241 1_555
K19 O71 2.652212 1_555
K19 O30 2.674186 1_555
K19 O10 2.729242 1_655
K19 O47 2.773843 1_555
K19 O3 2.775574 1_655
K19 O23 2.823430 1_555
K19 O63 2.951614 1_555
K19 O59 3.085176 1_655
K19 O45 3.210014 1_555
Na0 O65 2.373608 1_555
Na0 O0 2.426926 1_555
Na0 O16 2.484829 1_555
Na0 O49 2.522077 1_555
Na0 O11 2.579595 1_545
Na0 O27 2.695773 1_545
Na0 O37 2.943747 1_555
Na0 O33 2.961935 1_555
Na1 O67 2.303710 1_555
Na1 O18 2.463825 1_555
Na1 O2 2.465472 1_555
Na1 O51 2.496750 1_555
Na1 O9 2.629709 1_555
Na1 O25 2.638086 1_555
Na1 O35 2.749780 1_555
Na1 O39 2.906474 1_555
Na2 O53 2.369959 1_555
Na2 O69 2.433986 1_555
Na2 O4 2.458044 1_555
Na2 O15 2.476356 1_545
Na2 O20 2.554063 1_555
Na2 O31 2.623809 1_545
Na2 O33 2.836903 1_655
Na2 O37 3.017569 1_555
Na3 O72 2.318950 1_555
Na3 O9 2.562546 1_555
Na3 O25 2.568830 1_555
Na3 O2 2.610714 1_555
Na3 O18 2.621430 1_555
Na3 O56 2.787000 1_555
Na3 O44 2.911621 1_455
Na3 O40 2.915633 1_555
Na4 O73 2.407391 1_555
Na4 O24 2.451838 1_555
Na4 O8 2.491439 1_555
Na4 O3 2.557851 1_555
Na4 O19 2.619098 1_555
Na4 O57 2.747898 1_555
Na4 O41 2.890993 1_555
Na4 O45 2.920936 1_455
Na5 O73 2.395319 1_555
Na5 O33 2.436981 1_555
Na5 O0 2.475246 1_555
Na5 O20 2.523485 1_455
Na5 O29 2.589106 1_455
Na5 O53 2.735241 1_455
Na5 O9 2.744855 1_555
Na5 O49 2.955541 1_555
Na6 O75 2.458752 1_555
Na6 O22 2.546352 1_455
Na6 O2 2.589100 1_555
Na6 O11 2.600590 1_555
Na6 O35 2.615288 1_555
Na6 O55 2.661843 1_455
Na6 O31 2.672558 1_455
Na7 O37 2.516033 1_555
Na7 O16 2.521212 1_555
Na7 O4 2.528910 1_555
Na7 O77 2.553445 1_555
Na7 O13 2.567799 1_555
Na7 O25 2.624500 1_555
Na8 O79 2.475006 1_555
Na8 O6 2.506829 1_555
Na8 O18 2.568029 1_555
Na8 O27 2.606975 1_555
Na8 O39 2.613634 1_555
Na8 O15 2.621124 1_555
Na8 O51 2.720719 1_555
Na9 O65 2.449826 1_555
Na9 O24 2.462383 1_555
Na9 O12 2.466412 1_555
Na9 O5 2.577343 1_555
Na9 O17 2.592386 1_555
Na9 O41 2.847837 1_555
Na9 O61 2.917479 1_555
Na9 O57 2.952573 1_555
Na10 O68 2.319144 1_555
Na10 O20 2.528439 1_555
Na10 O29 2.550374 1_555
Na10 O9 2.563504 1_655
Na10 O0 2.623796 1_655
Na10 O44 2.676730 1_555
Na10 O56 2.883682 1_655
Na10 O60 2.930296 1_555
Na11 O69 2.434620 1_555
Na11 O8 2.452318 1_655
Na11 O28 2.453304 1_555
Na11 O45 2.532242 1_555
Na11 O21 2.575830 1_555
Na11 O1 2.670435 1_655
Na11 O57 2.908721 1_655
Na11 O61 2.977620 1_555
Nb0 O31 1.997636 1_445
Nb0 O0 2.031720 1_555
Nb0 O20 2.038300 1_455
Nb0 O46 2.094645 1_445
Nb0 O11 2.097509 1_545
Nb0 O33 2.144354 1_555
Nb1 O44 2.037470 1_455
Nb1 O9 2.044342 1_555
Nb1 O2 2.045409 1_555
Nb1 O22 2.050252 1_455
Nb1 O29 2.057524 1_455
Nb1 O35 2.217705 1_555
Nb2 O13 2.030330 1_555
Nb2 O18 2.043173 1_555
Nb2 O6 2.050807 1_555
Nb2 O40 2.054709 1_555
Nb2 O25 2.084178 1_555
Nb2 O39 2.116959 1_555
Nb3 O25 1.990342 1_555
Nb3 O9 1.996493 1_555
Nb3 O56 2.052282 1_555
Nb3 O0 2.065887 1_555
Nb3 O16 2.096282 1_555
Nb3 O49 2.115781 1_555
Nb4 O2 2.020301 1_555
Nb4 O11 2.024386 1_555
Nb4 O18 2.040636 1_555
Nb4 O58 2.071350 1_555
Nb4 O27 2.080414 1_555
Nb4 O51 2.210158 1_555
Nb5 O52 1.971054 1_556
Nb5 O5 2.067637 1_555
Nb5 O12 2.086931 1_555
Nb5 O28 2.088154 1_555
Nb5 O21 2.129919 1_555
Nb5 O61 2.186125 1_555
Nb6 O60 2.015824 1_555
Nb6 O29 2.023298 1_555
Nb6 O20 2.039109 1_555
Nb6 O13 2.069050 1_555
Nb6 O4 2.100523 1_555
Nb6 O53 2.136012 1_555
Nb7 O62 1.997403 1_555
Nb7 O22 2.012723 1_555
Nb7 O6 2.041371 1_555
Nb7 O31 2.051630 1_555
Nb7 O15 2.137899 1_555
Nb7 O55 2.264549 1_555
Nb8 O68 1.954983 1_455
Nb8 O56 1.962898 1_555
Nb8 O74 2.020554 1_545
Nb8 O32 2.105338 1_555
Nb9 O33 1.911846 1_555
Nb9 O57 1.934391 1_555
Nb9 O75 2.013371 1_545
Nb9 O69 2.027046 1_455
Nb10 O58 1.958702 1_555
Nb10 O70 1.989547 1_455
Nb10 O72 2.024295 1_555
Nb10 O34 2.087326 1_555
Nb11 O35 1.900613 1_555
Nb11 O59 1.912121 1_555
Nb11 O71 2.007656 1_455
Nb11 O73 2.023477 1_555
Nb12 O78 1.915947 1_545
Nb12 O60 1.956369 1_555
Nb12 O64 1.986629 1_555
Nb12 O36 2.073739 1_555
Nb13 O61 1.899736 1_555
Nb13 O37 1.920846 1_555
Nb13 O79 2.005900 1_545
Nb13 O65 2.009303 1_555
Nb14 O66 1.904735 1_555
Nb14 O76 1.954459 1_555
Nb14 O62 1.999047 1_555
Nb14 O38 2.059335 1_555
Nb15 O39 1.909286 1_555
Nb15 O67 1.957365 1_555
Nb15 O63 1.970598 1_555
Nb15 O77 2.006429 1_555
Nb16 O72 1.937443 1_555
Nb16 O40 1.959021 1_555
Nb16 O66 1.987575 1_555
Nb16 O48 2.068342 1_555
Nb17 O49 1.912654 1_555
Nb17 O41 1.955581 1_555
Nb17 O67 2.016510 1_555
Nb17 O73 2.058646 1_555
Nb18 O64 1.926143 1_565
Nb18 O74 1.927629 1_555
Nb18 O42 1.985622 1_555
Nb18 O50 2.105099 1_555
Nb19 O51 1.885696 1_555
Nb19 O43 1.916906 1_555
Nb19 O75 2.002304 1_555
Nb19 O65 2.012295 1_565
Nb20 O70 1.938729 1_555
Nb20 O76 1.960685 1_555
Nb20 O44 1.975009 1_555
Nb20 O52 2.062585 1_555
Nb21 O53 1.902376 1_555
Nb21 O71 1.917781 1_555
Nb21 O77 1.930765 1_555
Nb21 O45 1.950721 1_555
Nb22 O46 1.950107 1_555
Nb22 O78 1.982158 1_555
Nb22 O68 2.039720 1_565
Nb22 O54 2.077997 1_555
Nb23 O55 1.869223 1_555
Nb23 O47 1.907029 1_555
Nb23 O79 1.995112 1_555
Nb23 O69 2.015919 1_565
O1 Ta0 2.009438 1_446
O1 Ta5 2.068588 1_555
O3 Ta6 2.036410 1_555
O3 Ta1 2.086323 1_455
O4 Ta3 1.999406 1_555
O5 Ta2 1.970593 1_555
O7 Ta7 2.014221 1_556
O7 Ta4 2.045106 1_555
O8 Ta5 2.006192 1_555
O8 Ta1 2.055852 1_455
O10 Ta6 2.042417 1_555
O10 Ta0 2.062941 1_456
O12 Ta4 1.983051 1_555
O14 Ta7 2.062342 1_556
O14 Ta2 2.070016 1_565
O15 Ta3 2.009975 1_565
O16 Ta3 2.025691 1_555
O17 Ta5 2.023051 1_555
O17 Ta2 2.058601 1_555
O19 Ta6 2.007600 1_555
O19 Ta4 2.069472 1_555
O21 Ta0 1.987271 1_546
O23 Ta1 2.020649 1_555
O23 Ta7 2.063244 1_556
O24 Ta5 2.024713 1_555
O24 Ta4 2.080227 1_555
O26 Ta6 2.041925 1_555
O26 Ta2 2.052811 1_565
O27 Ta3 2.006580 1_565
O28 Ta1 1.994612 1_555
O30 Ta0 2.037009 1_556
O30 Ta7 2.042631 1_556
O32 Ta0 1.947663 1_445
O34 Ta1 1.986751 1_454
O36 Ta2 1.923238 1_554
O37 Ta3 2.103922 1_555
O38 Ta4 1.956203 1_554
O41 Ta4 2.104240 1_555
O42 Ta3 2.026017 1_565
O43 Ta2 2.232883 1_565
O45 Ta1 2.095829 1_555
O47 Ta0 2.268595 1_556
O48 Ta5 1.978453 1_554
O50 Ta6 1.924606 1_554
O54 Ta7 1.988522 1_555
O57 Ta5 2.121737 1_555
O59 Ta6 2.209725 1_555
O63 Ta7 2.124558 1_556
