# generated using pymatgen
data_Zn3(AsO4)2
_symmetry_space_group_name_H-M   'P 1'
_cell_length_a   6.61949261
_cell_length_b   8.82725907
_cell_length_c   10.94454626
_cell_angle_alpha   90.00000000
_cell_angle_beta   93.73458501
_cell_angle_gamma   90.00000000
_symmetry_Int_Tables_number   1
_chemical_formula_structural   Zn3(AsO4)2
_chemical_formula_sum   'Zn12 As8 O32'
_cell_volume   638.15345283
_cell_formula_units_Z   4
loop_
 _symmetry_equiv_pos_site_id
 _symmetry_equiv_pos_as_xyz
  1  'x, y, z'
loop_
 _atom_site_type_symbol
 _atom_site_label
 _atom_site_symmetry_multiplicity
 _atom_site_fract_x
 _atom_site_fract_y
 _atom_site_fract_z
 _atom_site_occupancy
  Zn  Zn0  1  0.24401110  0.14574175  0.63443588  1
  Zn  Zn1  1  0.75598890  0.64574175  0.86556412  1
  Zn  Zn2  1  0.75598890  0.85425825  0.36556412  1
  Zn  Zn3  1  0.24401110  0.35425825  0.13443588  1
  Zn  Zn4  1  0.61908409  0.02170976  0.88470691  1
  Zn  Zn5  1  0.38091591  0.52170976  0.61529309  1
  Zn  Zn6  1  0.38091591  0.97829024  0.11529309  1
  Zn  Zn7  1  0.61908409  0.47829024  0.38470691  1
  Zn  Zn8  1  0.91784393  0.28525541  0.92199531  1
  Zn  Zn9  1  0.08215607  0.78525541  0.57800469  1
  Zn  Zn10  1  0.08215607  0.71474459  0.07800469  1
  Zn  Zn11  1  0.91784393  0.21474459  0.42199531  1
  As  As0  1  0.41689009  0.12965618  0.36470338  1
  As  As1  1  0.58310991  0.62965618  0.13529662  1
  As  As2  1  0.58310991  0.87034382  0.63529662  1
  As  As3  1  0.41689009  0.37034382  0.86470338  1
  As  As4  1  0.89341875  0.06116145  0.14742269  1
  As  As5  1  0.10658125  0.56116145  0.35257731  1
  As  As6  1  0.10658125  0.93883855  0.85257731  1
  As  As7  1  0.89341875  0.43883855  0.64742269  1
  O  O0  1  0.87402668  0.45341300  0.80227380  1
  O  O1  1  0.12597332  0.95341300  0.69772620  1
  O  O2  1  0.12597332  0.54658700  0.19772620  1
  O  O3  1  0.87402668  0.04658700  0.30227380  1
  O  O4  1  0.47837070  0.55414336  0.85795427  1
  O  O5  1  0.52162930  0.05414336  0.64204573  1
  O  O6  1  0.52162930  0.44585664  0.14204573  1
  O  O7  1  0.47837070  0.94585664  0.35795427  1
  O  O8  1  0.67306743  0.50300332  0.57690831  1
  O  O9  1  0.32693257  0.00300332  0.92309169  1
  O  O10  1  0.32693257  0.49699668  0.42309169  1
  O  O11  1  0.67306743  0.99699668  0.07690831  1
  O  O12  1  0.33610933  0.33296391  0.71516193  1
  O  O13  1  0.66389067  0.83296391  0.78483807  1
  O  O14  1  0.66389067  0.66703609  0.28483807  1
  O  O15  1  0.33610933  0.16703609  0.21516193  1
  O  O16  1  0.07787437  0.56612235  0.61851930  1
  O  O17  1  0.92212563  0.06612235  0.88148070  1
  O  O18  1  0.92212563  0.43387765  0.38148070  1
  O  O19  1  0.07787437  0.93387765  0.11851930  1
  O  O20  1  0.60863770  0.25055979  0.40733246  1
  O  O21  1  0.39136230  0.75055979  0.09266754  1
  O  O22  1  0.39136230  0.74944021  0.59266754  1
  O  O23  1  0.60863770  0.24944021  0.90733246  1
  O  O24  1  0.94900885  0.24137202  0.10732265  1
  O  O25  1  0.05099115  0.74137202  0.39267735  1
  O  O26  1  0.05099115  0.75862798  0.89267735  1
  O  O27  1  0.94900885  0.25862798  0.60732265  1
  O  O28  1  0.21641703  0.15833841  0.45303930  1
  O  O29  1  0.78358297  0.65833841  0.04696070  1
  O  O30  1  0.78358297  0.84166159  0.54696070  1
  O  O31  1  0.21641703  0.34166159  0.95303930  1
loop_
_geom_bond_atom_site_label_1
_geom_bond_atom_site_label_2
_geom_bond_distance
_geom_bond_site_symmetry_2
As0 O7 1.675508 1_545
As0 O20 1.700176 1_555
As0 O28 1.710830 1_555
As0 O15 1.720310 1_555
As1 O6 1.675508 1_555
As1 O21 1.700176 1_555
As1 O29 1.710830 1_555
As1 O14 1.720310 1_555
As2 O5 1.675508 1_565
As2 O22 1.700176 1_555
As2 O30 1.710830 1_555
As2 O13 1.720310 1_555
As3 O4 1.675508 1_555
As3 O23 1.700176 1_555
As3 O31 1.710830 1_555
As3 O12 1.720310 1_555
As4 O24 1.696936 1_555
As4 O11 1.702150 1_545
As4 O19 1.704005 1_645
As4 O3 1.712785 1_555
As5 O25 1.696936 1_555
As5 O10 1.702150 1_555
As5 O18 1.704005 1_455
As5 O2 1.712785 1_555
As6 O26 1.696936 1_555
As6 O9 1.702150 1_565
As6 O17 1.704005 1_465
As6 O1 1.712785 1_555
As7 O27 1.696936 1_555
As7 O8 1.702150 1_555
As7 O16 1.704005 1_655
As7 O0 1.712785 1_555
O0 Zn8 1.988682 1_555
O0 Zn1 2.010754 1_555
O1 Zn9 1.988682 1_555
O1 Zn0 2.010754 1_565
O2 Zn10 1.988682 1_555
O2 Zn3 2.010754 1_555
O3 Zn11 1.988682 1_555
O3 Zn2 2.010754 1_545
O4 Zn1 2.004466 1_555
O5 Zn0 2.004466 1_555
O6 Zn3 2.004466 1_555
O7 Zn2 2.004466 1_555
O8 Zn5 2.012347 1_555
O8 Zn7 2.121865 1_555
O9 Zn4 2.012347 1_555
O9 Zn6 2.121865 1_546
O10 Zn7 2.012347 1_555
O10 Zn5 2.121865 1_555
O11 Zn6 2.012347 1_555
O11 Zn4 2.121865 1_564
O12 Zn0 1.952785 1_555
O12 Zn5 2.025046 1_555
O13 Zn1 1.952785 1_555
O13 Zn4 2.025046 1_565
O14 Zn2 1.952785 1_555
O14 Zn7 2.025046 1_555
O15 Zn3 1.952785 1_555
O15 Zn6 2.025046 1_545
O16 Zn9 1.985131 1_555
O16 Zn5 2.046492 1_555
O17 Zn8 1.985131 1_555
O17 Zn4 2.046492 1_555
O18 Zn11 1.985131 1_555
O18 Zn7 2.046492 1_555
O19 Zn10 1.985131 1_555
O19 Zn6 2.046492 1_555
O20 Zn7 2.027160 1_555
O20 Zn11 2.066944 1_555
O21 Zn6 2.027160 1_555
O21 Zn10 2.066944 1_555
O22 Zn5 2.027160 1_555
O22 Zn9 2.066944 1_555
O23 Zn4 2.027160 1_555
O23 Zn8 2.066944 1_555
O24 Zn8 2.062087 1_554
O24 Zn3 2.195182 1_655
O25 Zn9 2.062087 1_555
O25 Zn2 2.195182 1_455
O26 Zn10 2.062087 1_556
O26 Zn1 2.195182 1_455
O27 Zn11 2.062087 1_555
O27 Zn0 2.195182 1_655
O28 Zn0 1.984923 1_555
O28 Zn11 2.045005 1_455
O29 Zn1 1.984923 1_554
O29 Zn10 2.045005 1_655
O30 Zn2 1.984923 1_555
O30 Zn9 2.045005 1_655
O31 Zn3 1.984923 1_556
O31 Zn8 2.045005 1_455
