# generated using pymatgen
data_MgCrP2O7
_symmetry_space_group_name_H-M   'P 1'
_cell_length_a   5.48536811
_cell_length_b   6.51338030
_cell_length_c   7.51668577
_cell_angle_alpha   80.84880825
_cell_angle_beta   87.05509807
_cell_angle_gamma   71.79998792
_symmetry_Int_Tables_number   1
_chemical_formula_structural   MgCrP2O7
_chemical_formula_sum   'Mg2 Cr2 P4 O14'
_cell_volume   251.87528681
_cell_formula_units_Z   2
loop_
 _symmetry_equiv_pos_site_id
 _symmetry_equiv_pos_as_xyz
  1  'x, y, z'
loop_
 _atom_site_type_symbol
 _atom_site_label
 _atom_site_symmetry_multiplicity
 _atom_site_fract_x
 _atom_site_fract_y
 _atom_site_fract_z
 _atom_site_occupancy
  Mg  Mg0  1  0.33018700  0.65642300  0.64536800  1
  Mg  Mg1  1  0.66982700  0.34360000  0.35455000  1
  Cr  Cr0  1  0.27940200  0.15893400  0.17724900  1
  Cr  Cr1  1  0.72015500  0.84109700  0.82324800  1
  P  P0  1  0.18477700  0.68554600  0.09147300  1
  P  P1  1  0.81524600  0.31440800  0.90844900  1
  P  P2  1  0.22137800  0.20003500  0.61775400  1
  P  P3  1  0.77871700  0.79994100  0.38224200  1
  O  O0  1  0.10194600  0.68972100  0.89719400  1
  O  O1  1  0.89795100  0.31029700  0.10277800  1
  O  O2  1  0.30157800  0.86298100  0.10889300  1
  O  O3  1  0.69849400  0.13698200  0.89106000  1
  O  O4  1  0.35516000  0.45639100  0.17414200  1
  O  O5  1  0.64493000  0.54355900  0.82568900  1
  O  O6  1  0.60893000  0.65124200  0.43001200  1
  O  O7  1  0.39109100  0.34874400  0.56993800  1
  O  O8  1  0.02422200  0.22504800  0.47471900  1
  O  O9  1  0.97595100  0.77504100  0.52518600  1
  O  O10  1  0.08476700  0.27554000  0.80226600  1
  O  O11  1  0.61989800  0.04214900  0.32501800  1
  O  O12  1  0.38012600  0.95784000  0.67506900  1
  O  O13  1  0.91527100  0.72447500  0.19770400  1
loop_
_geom_bond_atom_site_label_1
_geom_bond_atom_site_label_2
_geom_bond_distance
_geom_bond_site_symmetry_2
Mg0 O9 2.051648 1_455
Mg0 O7 2.091161 1_555
Mg0 O12 2.112073 1_555
Mg0 O5 2.118724 1_555
Mg0 O6 2.165692 1_555
Mg0 O0 2.216985 1_555
Mg1 O8 2.052345 1_655
Mg1 O6 2.091037 1_555
Mg1 O11 2.111938 1_555
Mg1 O4 2.118831 1_555
Mg1 O7 2.165859 1_555
Mg1 O1 2.216331 1_555
Cr0 O2 2.038822 1_545
Cr0 O1 2.078377 1_455
Cr0 O11 2.087522 1_555
Cr0 O4 2.101071 1_555
Cr0 O8 2.598566 1_555
Cr1 O3 2.037468 1_565
Cr1 O0 2.079049 1_655
Cr1 O12 2.087058 1_555
Cr1 O5 2.100908 1_555
Cr1 O9 2.603834 1_555
O0 P0 1.545181 1_556
O1 P1 1.545402 1_554
O2 P0 1.510820 1_555
O3 P1 1.510534 1_555
O4 P0 1.542942 1_555
O5 P1 1.542996 1_555
O6 P3 1.533912 1_555
O7 P2 1.533677 1_555
O8 P2 1.518476 1_555
O9 P3 1.518452 1_555
O10 P1 1.611236 1_455
O10 P2 1.614590 1_555
O11 P3 1.548194 1_545
O12 P2 1.548125 1_565
O13 P0 1.611317 1_655
O13 P3 1.614586 1_555
