# generated using pymatgen
data_Ba2Ti2O5
_symmetry_space_group_name_H-M   'P 1'
_cell_length_a   9.02154066
_cell_length_b   9.02154066
_cell_length_c   9.02154066
_cell_angle_alpha   142.28763457
_cell_angle_beta   142.28359442
_cell_angle_gamma   54.39880437
_symmetry_Int_Tables_number   1
_chemical_formula_structural   Ba2Ti2O5
_chemical_formula_sum   'Ba4 Ti4 O10'
_cell_volume   272.88548997
_cell_formula_units_Z   2
loop_
 _symmetry_equiv_pos_site_id
 _symmetry_equiv_pos_as_xyz
  1  'x, y, z'
loop_
 _atom_site_type_symbol
 _atom_site_label
 _atom_site_symmetry_multiplicity
 _atom_site_fract_x
 _atom_site_fract_y
 _atom_site_fract_z
 _atom_site_occupancy
  Ba  Ba0  1  0.11594300  0.11829000  0.99765400  1
  Ba  Ba1  1  0.88405700  0.88171000  0.00234600  1
  Ba  Ba2  1  0.62063600  0.61829000  0.00234600  1
  Ba  Ba3  1  0.37936400  0.38171000  0.99765400  1
  Ti  Ti0  1  0.00000000  0.50000000  0.50000000  1
  Ti  Ti1  1  0.50000000  0.00000000  0.50000000  1
  Ti  Ti2  1  0.28793000  0.75000000  0.53793000  1
  Ti  Ti3  1  0.71207000  0.25000000  0.46207000  1
  O  O0  1  0.74688800  0.74688800  0.50000000  1
  O  O1  1  0.25311200  0.75311200  0.00000000  1
  O  O2  1  0.74688800  0.24688800  0.00000000  1
  O  O3  1  0.25311200  0.25311200  0.50000000  1
  O  O4  1  0.11080200  0.63049800  0.48030400  1
  O  O5  1  0.88919800  0.36950200  0.51969600  1
  O  O6  1  0.65019400  0.13049800  0.51969600  1
  O  O7  1  0.34980600  0.86950200  0.48030400  1
  O  O8  1  0.50000000  0.50000000  0.50000000  1
  O  O9  1  0.50000000  0.00000000  0.00000000  1
loop_
_geom_bond_atom_site_label_1
_geom_bond_atom_site_label_2
_geom_bond_distance
_geom_bond_site_symmetry_2
Ba0 O3 2.776259 1_556
Ba0 O1 2.776262 1_546
Ba0 O6 2.794332 1_455
Ba0 O2 2.829667 1_456
Ba0 O0 2.829670 1_445
Ba0 O4 2.924029 1_556
Ba0 O4 2.924035 1_545
Ba0 O8 2.959531 1_556
Ba0 O9 2.959534 1_556
Ba0 O6 3.050857 1_556
Ba1 O0 2.776259 1_554
Ba1 O2 2.776262 1_565
Ba1 O7 2.794332 1_655
Ba1 O1 2.829667 1_655
Ba1 O3 2.829670 1_665
Ba1 O5 2.924029 1_554
Ba1 O5 2.924035 1_565
Ba1 O8 2.959531 1_554
Ba1 O9 2.959534 1_565
Ba1 O7 3.050857 1_554
Ba2 O1 2.776265 1_555
Ba2 O3 2.776265 1_554
Ba2 O4 2.794334 1_655
Ba2 O0 2.829676 1_555
Ba2 O2 2.829676 1_555
Ba2 O6 2.924032 1_554
Ba2 O6 2.924032 1_565
Ba2 O8 2.959525 1_554
Ba2 O9 2.959525 1_565
Ba2 O4 3.050853 1_554
Ba3 O0 2.776265 1_556
Ba3 O2 2.776265 1_556
Ba3 O5 2.794334 1_455
Ba3 O3 2.829676 1_555
Ba3 O1 2.829676 1_556
Ba3 O7 2.924032 1_556
Ba3 O7 2.924032 1_545
Ba3 O9 2.959525 1_556
Ba3 O8 2.959525 1_556
Ba3 O5 3.050853 1_556
O0 Ti0 2.062427 1_655
O0 Ti1 2.062427 1_565
O1 Ti0 2.062427 1_554
O1 Ti1 2.062427 1_565
O2 Ti1 2.062427 1_554
O2 Ti0 2.062427 1_655
O3 Ti1 2.062427 1_555
O3 Ti0 2.062427 1_555
O4 Ti2 1.946981 1_555
O4 Ti0 2.097366 1_555
O5 Ti3 1.946981 1_555
O5 Ti0 2.097366 1_655
O6 Ti3 1.946981 1_555
O6 Ti1 2.097366 1_555
O7 Ti2 1.946981 1_555
O7 Ti1 2.097366 1_565
O8 Ti2 1.911805 1_555
O8 Ti3 1.911805 1_555
O9 Ti3 1.911805 1_555
O9 Ti2 1.911805 1_544
