# generated using pymatgen
data_MgSi2
_symmetry_space_group_name_H-M   'P 1'
_cell_length_a   3.73127500
_cell_length_b   5.26198003
_cell_length_c   12.62475805
_cell_angle_alpha   79.96365382
_cell_angle_beta   83.96145444
_cell_angle_gamma   70.03202632
_symmetry_Int_Tables_number   1
_chemical_formula_structural   MgSi2
_chemical_formula_sum   'Mg4 Si8'
_cell_volume   229.12720836
_cell_formula_units_Z   4
loop_
 _symmetry_equiv_pos_site_id
 _symmetry_equiv_pos_as_xyz
  1  'x, y, z'
loop_
 _atom_site_type_symbol
 _atom_site_label
 _atom_site_symmetry_multiplicity
 _atom_site_fract_x
 _atom_site_fract_y
 _atom_site_fract_z
 _atom_site_occupancy
  Mg  Mg0  1  0.15000700  0.98183700  0.81637300  1
  Mg  Mg1  1  0.84999300  0.01816300  0.18362700  1
  Mg  Mg2  1  0.42586500  0.76790400  0.39738300  1
  Mg  Mg3  1  0.57413500  0.23209600  0.60261700  1
  Si  Si0  1  0.51178200  0.77010300  0.03970300  1
  Si  Si1  1  0.48821800  0.22989700  0.96029700  1
  Si  Si2  1  0.86455000  0.57183600  0.70467200  1
  Si  Si3  1  0.71066700  0.20609800  0.38870200  1
  Si  Si4  1  0.87747700  0.51914200  0.89528300  1
  Si  Si5  1  0.12252300  0.48085800  0.10471700  1
  Si  Si6  1  0.13545000  0.42816400  0.29532800  1
  Si  Si7  1  0.28933300  0.79390200  0.61129800  1
loop_
_geom_bond_atom_site_label_1
_geom_bond_atom_site_label_2
_geom_bond_distance
_geom_bond_site_symmetry_2
Mg0 Si7 2.865191 1_555
Mg0 Si4 2.930298 1_455
Mg0 Si1 2.963794 1_465
Mg0 Si4 2.970695 1_465
Mg0 Si1 3.005318 1_565
Mg0 Si2 3.048451 1_465
Mg0 Si4 3.081876 1_555
Mg0 Si0 3.113146 1_556
Mg1 Si3 2.865191 1_555
Mg1 Si5 2.930298 1_655
Mg1 Si0 2.963794 1_645
Mg1 Si5 2.970695 1_645
Mg1 Si0 3.005318 1_545
Mg1 Si6 3.048451 1_645
Mg1 Si5 3.081876 1_555
Mg1 Si1 3.113146 1_554
Mg2 Si7 2.713545 1_555
Mg2 Si3 2.797015 1_555
Mg2 Si3 2.831747 1_565
Mg2 Si3 2.867212 1_465
Mg2 Si6 2.906850 1_555
Mg2 Si6 2.952684 1_655
Mg3 Si3 2.713545 1_555
Mg3 Si7 2.797015 1_555
Mg3 Si7 2.831747 1_545
Mg3 Si7 2.867212 1_645
Mg3 Si2 2.906850 1_555
Mg3 Si2 2.952684 1_455
Si0 Si5 2.402610 1_655
Si0 Si1 2.427799 1_564
Si0 Si5 2.433788 1_555
Si0 Si4 2.452576 1_554
Si1 Si4 2.402610 1_455
Si1 Si4 2.433788 1_555
Si1 Si5 2.452576 1_556
Si2 Si4 2.377557 1_555
Si2 Si7 2.378850 1_655
Si2 Si7 2.387658 1_555
Si3 Si6 2.378850 1_655
Si3 Si6 2.387658 1_555
Si5 Si6 2.377557 1_555
