# generated using pymatgen
data_ErAl
_symmetry_space_group_name_H-M   'P 1'
_cell_length_a   5.55010366
_cell_length_b   5.77059670
_cell_length_c   11.28407740
_cell_angle_alpha   89.99849947
_cell_angle_beta   89.99989904
_cell_angle_gamma   89.99968307
_symmetry_Int_Tables_number   1
_chemical_formula_structural   ErAl
_chemical_formula_sum   'Er8 Al8'
_cell_volume   361.39977177
_cell_formula_units_Z   8
loop_
 _symmetry_equiv_pos_site_id
 _symmetry_equiv_pos_as_xyz
  1  'x, y, z'
loop_
 _atom_site_type_symbol
 _atom_site_label
 _atom_site_symmetry_multiplicity
 _atom_site_fract_x
 _atom_site_fract_y
 _atom_site_fract_z
 _atom_site_occupancy
  Er  Er0  1  0.75000008  0.16183861  0.48379048  1
  Er  Er1  1  0.24999992  0.83816139  0.51620352  1
  Er  Er2  1  0.25000050  0.16181790  0.01620003  1
  Er  Er3  1  0.75000050  0.83818410  0.98380397  1
  Er  Er4  1  0.74999927  0.40033554  0.16798688  1
  Er  Er5  1  0.25000073  0.59966646  0.83201512  1
  Er  Er6  1  0.24999978  0.40033030  0.33196132  1
  Er  Er7  1  0.75000022  0.59966670  0.66803568  1
  Al  Al0  1  0.50000411  0.93126858  0.24998381  1
  Al  Al1  1  0.00000404  0.06873227  0.75001607  1
  Al  Al2  1  0.49999589  0.06873242  0.75001619  1
  Al  Al3  1  0.99999496  0.93126873  0.24998393  1
  Al  Al4  1  0.74999857  0.66088883  0.40228336  1
  Al  Al5  1  0.25000043  0.33911017  0.59771364  1
  Al  Al6  1  0.25000784  0.66090338  0.09769971  1
  Al  Al7  1  0.74999216  0.33909862  0.90230329  1
loop_
_geom_bond_atom_site_label_1
_geom_bond_atom_site_label_2
_geom_bond_distance
_geom_bond_site_symmetry_2
Al0 Al6 2.704130 1_555
Al0 Al4 2.704223 1_555
Al0 Al3 2.775001 1_555
Al0 Al3 2.775103 1_455
Al0 Er6 3.179255 1_565
Al0 Er4 3.179294 1_565
Al0 Er2 3.264093 1_565
Al0 Er0 3.264395 1_565
Al0 Er3 3.351916 1_554
Al0 Er1 3.352336 1_555
Al0 Er6 3.488259 1_555
Al0 Er4 3.488299 1_555
Al1 Al7 2.704189 1_455
Al1 Al5 2.704249 1_555
Al1 Al2 2.775007 1_555
Al1 Al2 2.775097 1_455
Al1 Er5 3.179287 1_545
Al1 Er7 3.179297 1_445
Al1 Er3 3.264130 1_445
Al1 Er1 3.264440 1_545
Al1 Er2 3.351966 1_556
Al1 Er0 3.352396 1_455
Al1 Er7 3.488234 1_455
Al1 Er5 3.488329 1_555
Al2 Al7 2.704155 1_555
Al2 Al5 2.704241 1_555
Al2 Er7 3.179284 1_545
Al2 Er5 3.179296 1_545
Al2 Er3 3.264129 1_545
Al2 Er1 3.264452 1_545
Al2 Er2 3.351956 1_556
Al2 Er0 3.352396 1_555
Al2 Er7 3.488247 1_555
Al2 Er5 3.488310 1_555
Al3 Al6 2.704167 1_655
Al3 Al4 2.704234 1_555
Al3 Er6 3.179270 1_665
Al3 Er4 3.179283 1_565
Al3 Er2 3.264100 1_665
Al3 Er0 3.264380 1_565
Al3 Er3 3.351920 1_554
Al3 Er1 3.352338 1_655
Al3 Er6 3.488248 1_655
Al3 Er4 3.488316 1_555
Al4 Er7 3.019499 1_555
Al4 Er0 3.023098 1_555
Al4 Er0 3.033587 1_565
Al4 Er4 3.041488 1_555
Al4 Er1 3.224877 1_555
Al4 Er1 3.224903 1_655
Al4 Er6 3.254440 1_655
Al4 Er6 3.254445 1_555
Al5 Er6 3.019498 1_555
Al5 Er1 3.023113 1_555
Al5 Er1 3.033592 1_545
Al5 Er5 3.041545 1_555
Al5 Er0 3.224893 1_555
Al5 Er0 3.224910 1_455
Al5 Er7 3.254430 1_455
Al5 Er7 3.254444 1_555
Al6 Er5 3.018769 1_554
Al6 Er2 3.023312 1_555
Al6 Er2 3.033322 1_565
Al6 Er6 3.041134 1_555
Al6 Er3 3.224742 1_554
Al6 Er3 3.224806 1_454
Al6 Er4 3.254306 1_555
Al6 Er4 3.254399 1_455
Al7 Er4 3.018758 1_556
Al7 Er3 3.023315 1_555
Al7 Er3 3.033325 1_545
Al7 Er7 3.041178 1_555
Al7 Er2 3.224741 1_556
Al7 Er2 3.224815 1_656
Al7 Er5 3.254308 1_555
Al7 Er5 3.254401 1_655
