# generated using pymatgen
data_Li5Co2Ni3O10
_symmetry_space_group_name_H-M   'P 1'
_cell_length_a   5.02898811
_cell_length_b   10.05167809
_cell_length_c   7.62830384
_cell_angle_alpha   71.82895210
_cell_angle_beta   78.10983637
_cell_angle_gamma   100.39639465
_symmetry_Int_Tables_number   1
_chemical_formula_structural   Li5Co2Ni3O10
_chemical_formula_sum   'Li10 Co4 Ni6 O20'
_cell_volume   345.87662331
_cell_formula_units_Z   2
loop_
 _symmetry_equiv_pos_site_id
 _symmetry_equiv_pos_as_xyz
  1  'x, y, z'
loop_
 _atom_site_type_symbol
 _atom_site_label
 _atom_site_symmetry_multiplicity
 _atom_site_fract_x
 _atom_site_fract_y
 _atom_site_fract_z
 _atom_site_occupancy
  Li  Li0  1  0.00037700  0.00145900  0.50044500  1
  Li  Li1  1  0.50072100  0.50108500  0.00116300  1
  Li  Li2  1  0.59603300  0.09992200  0.30683500  1
  Li  Li3  1  0.09752000  0.60008700  0.80680900  1
  Li  Li4  1  0.40990900  0.90372500  0.69194400  1
  Li  Li5  1  0.91005900  0.40271200  0.19185100  1
  Li  Li6  1  0.70023000  0.19831100  0.59116000  1
  Li  Li7  1  0.20087800  0.69851800  0.08976300  1
  Li  Li8  1  0.29330300  0.79671700  0.41131200  1
  Li  Li9  1  0.79345400  0.29677300  0.91180600  1
  Co  Co0  1  0.29888200  0.29653600  0.39780900  1
  Co  Co1  1  0.79767500  0.79569100  0.89741400  1
  Co  Co2  1  0.69942300  0.70408600  0.60001200  1
  Co  Co3  1  0.20089100  0.20407700  0.10098000  1
  Ni  Ni0  1  0.00275900  0.50180500  0.49816400  1
  Ni  Ni1  1  0.60211800  0.60054100  0.29511500  1
  Ni  Ni2  1  0.39961700  0.39908800  0.70219000  1
  Ni  Ni3  1  0.50431400  0.00195500  0.99840300  1
  Ni  Ni4  1  0.10310100  0.10083200  0.79541400  1
  Ni  Ni5  1  0.89912700  0.89888100  0.20170400  1
  O  O0  1  0.61988800  0.39583700  0.45759200  1
  O  O1  1  0.12046900  0.89542500  0.95816500  1
  O  O2  1  0.37175900  0.60504400  0.55563500  1
  O  O3  1  0.86973200  0.10490500  0.05533400  1
  O  O4  1  0.08116600  0.30604700  0.63649700  1
  O  O5  1  0.58093400  0.80576700  0.13570500  1
  O  O6  1  0.93578500  0.69892700  0.36943400  1
  O  O7  1  0.43647600  0.19901400  0.87012800  1
  O  O8  1  0.98862100  0.20955300  0.33777600  1
  O  O9  1  0.48730800  0.70969700  0.83756800  1
  O  O10  1  0.00670300  0.78938000  0.66244200  1
  O  O11  1  0.50862600  0.29047700  0.16323000  1
  O  O12  1  0.23044200  0.00883200  0.23207800  1
  O  O13  1  0.73063500  0.50909700  0.73320400  1
  O  O14  1  0.74910800  0.98476700  0.76589200  1
  O  O15  1  0.24904400  0.48470800  0.26585100  1
  O  O16  1  0.34866200  0.11739200  0.53739600  1
  O  O17  1  0.84920500  0.61752700  0.03693700  1
  O  O18  1  0.66286800  0.88316700  0.44846000  1
  O  O19  1  0.16217600  0.38163700  0.95038100  1
loop_
_geom_bond_atom_site_label_1
_geom_bond_atom_site_label_2
_geom_bond_distance
_geom_bond_site_symmetry_2
Li0 O16 2.043749 1_555
Li0 O18 2.072449 1_445
Li0 O8 2.091523 1_455
Li0 O14 2.093410 1_445
Li0 O12 2.105586 1_555
Li0 O10 2.114260 1_545
Li1 O17 2.042476 1_555
Li1 O19 2.077106 1_554
Li1 O15 2.090529 1_555
Li1 O13 2.100337 1_554
Li1 O9 2.100600 1_554
Li1 O11 2.104709 1_555
Li2 O16 2.010384 1_555
Li2 O11 2.062912 1_555
Li2 O3 2.098768 1_555
Li2 O12 2.166557 1_555
Li2 O8 2.176470 1_555
Li2 O18 2.230006 1_545
Li3 O17 2.009850 1_456
Li3 O10 2.062930 1_555
Li3 O2 2.098204 1_555
Li3 O9 2.163972 1_555
Li3 O13 2.166599 1_455
Li3 O19 2.243033 1_555
Li4 O14 2.018228 1_555
Li4 O9 2.071255 1_555
Li4 O18 2.114579 1_555
Li4 O1 2.209595 1_555
Li4 O16 2.215079 1_565
Li4 O10 2.234178 1_555
Li5 O15 2.020832 1_655
Li5 O8 2.067605 1_555
Li5 O19 2.103176 1_654
Li5 O0 2.213784 1_555
Li5 O11 2.215675 1_555
Li5 O17 2.224531 1_555
Li6 O16 1.985839 1_555
Li6 O0 2.083481 1_555
Li6 O8 2.121722 1_555
Li6 O4 2.172601 1_655
Li6 O14 2.232799 1_545
Li6 O7 2.266638 1_555
Li7 O17 1.982825 1_455
Li7 O1 2.074988 1_554
Li7 O9 2.110318 1_554
Li7 O5 2.169343 1_555
Li7 O15 2.236794 1_555
Li7 O6 2.272491 1_455
Li8 O18 2.019232 1_555
Li8 O6 2.023753 1_455
Li8 O2 2.051843 1_555
Li8 O10 2.118594 1_555
Li8 O5 2.258500 1_555
Li8 O12 2.262385 1_565
Li9 O19 2.015736 1_655
Li9 O7 2.020623 1_555
Li9 O3 2.046571 1_556
Li9 O11 2.119851 1_556
Li9 O4 2.256070 1_655
Li9 O13 2.262303 1_555
Co0 O8 1.860243 1_455
Co0 O16 1.875006 1_555
Co0 O11 1.905723 1_555
Co0 O15 1.934217 1_555
Co0 O0 1.953475 1_555
Co0 O4 1.961642 1_555
Co1 O9 1.855960 1_555
Co1 O17 1.870671 1_556
Co1 O10 1.907992 1_655
Co1 O14 1.938426 1_555
Co1 O5 1.959793 1_556
Co1 O1 1.966563 1_655
Co2 O10 1.851911 1_655
Co2 O18 1.876063 1_555
Co2 O2 1.915461 1_555
Co2 O9 1.927139 1_555
Co2 O6 1.930542 1_555
Co2 O13 1.957838 1_555
Co3 O11 1.857349 1_555
Co3 O19 1.865972 1_554
Co3 O8 1.922011 1_455
Co3 O7 1.930107 1_554
Co3 O3 1.935139 1_455
Co3 O12 1.953495 1_555
Ni0 O15 2.016534 1_555
Ni0 O6 2.041398 1_455
Ni0 O13 2.049380 1_455
Ni0 O4 2.072984 1_555
Ni0 O2 2.153291 1_555
Ni0 O0 2.156082 1_455
Ni1 O15 2.034095 1_555
Ni1 O17 2.038929 1_555
Ni1 O6 2.063469 1_555
Ni1 O0 2.073484 1_555
Ni1 O5 2.076923 1_555
Ni1 O2 2.102356 1_555
Ni2 O13 1.926392 1_555
Ni2 O4 1.942416 1_555
Ni2 O19 1.956218 1_555
Ni2 O0 1.977120 1_555
Ni2 O2 2.069036 1_555
Ni2 O7 2.084578 1_555
Ni3 O14 2.014792 1_545
Ni3 O7 2.042037 1_555
Ni3 O12 2.044194 1_556
Ni3 O5 2.070420 1_546
Ni3 O3 2.135267 1_556
Ni3 O1 2.161074 1_545
Ni4 O16 2.036316 1_555
Ni4 O14 2.039726 1_445
Ni4 O7 2.063246 1_555
Ni4 O4 2.077088 1_555
Ni4 O1 2.079159 1_545
Ni4 O3 2.102241 1_456
Ni5 O12 1.924963 1_665
Ni5 O5 1.943044 1_555
Ni5 O18 1.950650 1_555
Ni5 O1 1.973246 1_654
Ni5 O3 2.072063 1_565
Ni5 O6 2.082706 1_555
