# generated using pymatgen
data_TmGaAu
_symmetry_space_group_name_H-M   'P 1'
_cell_length_a   5.61049908
_cell_length_b   5.61049908
_cell_length_c   6.98053345
_cell_angle_alpha   52.52619712
_cell_angle_beta   52.52619712
_cell_angle_gamma   46.41449384
_symmetry_Int_Tables_number   1
_chemical_formula_structural   TmGaAu
_chemical_formula_sum   'Tm2 Ga2 Au2'
_cell_volume   119.29760818
_cell_formula_units_Z   2
loop_
 _symmetry_equiv_pos_site_id
 _symmetry_equiv_pos_as_xyz
  1  'x, y, z'
loop_
 _atom_site_type_symbol
 _atom_site_label
 _atom_site_symmetry_multiplicity
 _atom_site_fract_x
 _atom_site_fract_y
 _atom_site_fract_z
 _atom_site_occupancy
  Tm  Tm0  1  0.46364395  0.46364395  0.29632708  1
  Tm  Tm1  1  0.53635605  0.53635605  0.70367292  1
  Ga  Ga0  1  0.15792856  0.15792856  0.89260894  1
  Ga  Ga1  1  0.84207144  0.84207144  0.10739106  1
  Au  Au0  1  0.82304354  0.82304354  0.71400714  1
  Au  Au1  1  0.17695646  0.17695646  0.28599286  1
loop_
_geom_bond_atom_site_label_1
_geom_bond_atom_site_label_2
_geom_bond_distance
_geom_bond_site_symmetry_2
Tm0 Tm1 3.386850 1_555
Ga0 Ga1 2.528439 1_446
Ga0 Tm0 3.060869 1_456
Ga0 Tm0 3.060869 1_546
Ga0 Tm0 3.145078 1_555
Ga0 Tm1 3.186897 1_555
Ga0 Tm1 3.223125 1_545
Ga0 Tm1 3.223125 1_455
Ga1 Tm1 3.060869 1_564
Ga1 Tm1 3.060869 1_654
Ga1 Tm1 3.145078 1_555
Ga1 Tm0 3.186897 1_555
Ga1 Tm0 3.223125 1_565
Ga1 Tm0 3.223125 1_655
Au0 Ga0 2.555632 1_565
Au0 Ga0 2.555632 1_655
Au0 Au1 2.794847 1_665
Au0 Ga1 2.879689 1_556
Au0 Tm1 3.004864 1_555
Au0 Tm1 3.085870 1_565
Au0 Tm1 3.085870 1_655
Au0 Tm0 3.145504 1_565
Au0 Tm0 3.145504 1_655
Au0 Tm0 3.211643 1_556
Au1 Ga1 2.555632 1_455
Au1 Ga1 2.555632 1_545
Au1 Ga0 2.879689 1_554
Au1 Tm0 3.004864 1_555
Au1 Tm0 3.085870 1_545
Au1 Tm0 3.085870 1_455
Au1 Tm1 3.145504 1_545
Au1 Tm1 3.145504 1_455
Au1 Tm1 3.211643 1_554
