# generated using pymatgen
data_RbNbCl6
_symmetry_space_group_name_H-M   'P 1'
_cell_length_a   6.81057384
_cell_length_b   6.81057384
_cell_length_c   12.20765762
_cell_angle_alpha   79.61989655
_cell_angle_beta   79.61989655
_cell_angle_gamma   54.88800538
_symmetry_Int_Tables_number   1
_chemical_formula_structural   RbNbCl6
_chemical_formula_sum   'Rb2 Nb2 Cl12'
_cell_volume   453.55319600
_cell_formula_units_Z   2
loop_
 _symmetry_equiv_pos_site_id
 _symmetry_equiv_pos_as_xyz
  1  'x, y, z'
loop_
 _atom_site_type_symbol
 _atom_site_label
 _atom_site_symmetry_multiplicity
 _atom_site_fract_x
 _atom_site_fract_y
 _atom_site_fract_z
 _atom_site_occupancy
  Rb  Rb0  1  0.89338897  0.10661103  0.75000000  1
  Rb  Rb1  1  0.10661103  0.89338897  0.25000000  1
  Nb  Nb0  1  0.50000000  0.00000000  0.50000000  1
  Nb  Nb1  1  0.00000000  0.50000000  0.00000000  1
  Cl  Cl0  1  0.47485662  0.68407748  0.60549533  1
  Cl  Cl1  1  0.52514338  0.31592252  0.39450467  1
  Cl  Cl2  1  0.31592252  0.52514338  0.89450467  1
  Cl  Cl3  1  0.68407748  0.47485662  0.10549533  1
  Cl  Cl4  1  0.37130757  0.20046480  0.66473365  1
  Cl  Cl5  1  0.62869243  0.79953520  0.33526635  1
  Cl  Cl6  1  0.79953520  0.62869243  0.83526635  1
  Cl  Cl7  1  0.20046480  0.37130757  0.16473365  1
  Cl  Cl8  1  0.79423048  0.90849480  0.03657560  1
  Cl  Cl9  1  0.20576952  0.09150520  0.96342440  1
  Cl  Cl10  1  0.09150520  0.20576952  0.46342440  1
  Cl  Cl11  1  0.90849480  0.79423048  0.53657560  1
loop_
_geom_bond_atom_site_label_1
_geom_bond_atom_site_label_2
_geom_bond_distance
_geom_bond_site_symmetry_2
Cl0 Nb0 2.379741 1_565
Cl0 Rb0 3.622212 1_555
Cl0 Rb0 3.643913 1_465
Cl1 Nb0 2.379741 1_555
Cl1 Rb1 3.622212 1_555
Cl1 Rb1 3.643913 1_645
Cl2 Nb1 2.379741 1_556
Cl2 Rb0 3.622212 1_555
Cl2 Rb0 3.643913 1_465
Cl3 Nb1 2.379741 1_655
Cl3 Rb1 3.622212 1_555
Cl3 Rb1 3.643913 1_645
Cl4 Nb0 2.377824 1_555
Cl4 Rb0 3.551665 1_555
Cl4 Rb0 3.608200 1_455
Cl5 Nb0 2.377824 1_565
Cl5 Rb1 3.551665 1_555
Cl5 Rb1 3.608200 1_655
Cl6 Nb1 2.377824 1_656
Cl6 Rb0 3.551665 1_555
Cl6 Rb0 3.608200 1_565
Cl7 Nb1 2.377824 1_555
Cl7 Rb1 3.551665 1_555
Cl7 Rb1 3.608200 1_545
Cl8 Nb1 2.374955 1_655
Cl8 Rb1 3.601950 1_655
Cl8 Rb0 3.607131 1_564
Cl9 Nb1 2.374955 1_556
Cl9 Rb0 3.601950 1_455
Cl9 Rb1 3.607131 1_546
Cl10 Nb0 2.374955 1_555
Cl10 Rb1 3.601950 1_545
Cl10 Rb0 3.607131 1_455
Cl11 Nb0 2.374955 1_565
Cl11 Rb0 3.601950 1_565
Cl11 Rb1 3.607131 1_655
