# generated using pymatgen
data_U2FeSe5
_symmetry_space_group_name_H-M   'P 1'
_cell_length_a   8.30553715
_cell_length_b   8.30553715
_cell_length_c   7.34543505
_cell_angle_alpha   82.86379713
_cell_angle_beta   82.86379713
_cell_angle_gamma   46.28290845
_symmetry_Int_Tables_number   1
_chemical_formula_structural   U2FeSe5
_chemical_formula_sum   'U4 Fe2 Se10'
_cell_volume   362.86725015
_cell_formula_units_Z   2
loop_
 _symmetry_equiv_pos_site_id
 _symmetry_equiv_pos_as_xyz
  1  'x, y, z'
loop_
 _atom_site_type_symbol
 _atom_site_label
 _atom_site_symmetry_multiplicity
 _atom_site_fract_x
 _atom_site_fract_y
 _atom_site_fract_z
 _atom_site_occupancy
  U  U0  1  0.10404100  0.68003700  0.08985500  1
  U  U1  1  0.31996300  0.89595900  0.41014500  1
  U  U2  1  0.89595900  0.31996300  0.91014500  1
  U  U3  1  0.68003700  0.10404100  0.58985500  1
  Fe  Fe0  1  0.00000000  0.50000000  0.50000000  1
  Fe  Fe1  1  0.50000000  0.00000000  0.00000000  1
  Se  Se0  1  0.91041200  0.08958800  0.25000000  1
  Se  Se1  1  0.08958800  0.91041200  0.75000000  1
  Se  Se2  1  0.29927600  0.52394100  0.42805000  1
  Se  Se3  1  0.47605900  0.70072400  0.07195000  1
  Se  Se4  1  0.70072400  0.47605900  0.57195000  1
  Se  Se5  1  0.52394100  0.29927600  0.92805000  1
  Se  Se6  1  0.12999000  0.30787100  0.18990300  1
  Se  Se7  1  0.69212900  0.87001000  0.31009700  1
  Se  Se8  1  0.87001000  0.69212900  0.81009700  1
  Se  Se9  1  0.30787100  0.12999000  0.68990300  1
loop_
_geom_bond_atom_site_label_1
_geom_bond_atom_site_label_2
_geom_bond_distance
_geom_bond_site_symmetry_2
Fe0 Se8 2.609819 1_455
Fe0 Se6 2.609819 1_555
Fe0 Se2 2.613035 1_555
Fe0 Se4 2.613035 1_455
Fe0 Se9 2.624511 1_555
Fe0 Se7 2.624511 1_455
Fe1 Se7 2.609819 1_545
Fe1 Se9 2.609819 1_554
Fe1 Se5 2.613035 1_554
Fe1 Se3 2.613035 1_545
Fe1 Se6 2.624511 1_555
Fe1 Se8 2.624511 1_544
Se0 U3 2.911634 1_555
Se0 U2 2.911634 1_554
Se0 U1 2.916092 1_645
Se0 U0 2.916092 1_645
Se1 U0 2.911634 1_556
Se1 U1 2.911634 1_555
Se1 U3 2.916092 1_465
Se1 U2 2.916092 1_465
Se2 U0 2.788599 1_555
Se2 U3 2.869843 1_555
Se2 U1 3.197021 1_555
Se3 U1 2.788599 1_555
Se3 U2 2.869843 1_554
Se3 U0 3.197021 1_555
Se4 U2 2.788599 1_555
Se4 U1 2.869843 1_555
Se4 U3 3.197021 1_555
Se5 U3 2.788599 1_555
Se5 U0 2.869843 1_556
Se5 U2 3.197021 1_555
Se6 U1 2.934111 1_545
Se6 U2 2.946587 1_454
Se6 U0 2.948763 1_555
Se7 U0 2.934111 1_655
Se7 U3 2.946587 1_565
Se7 U1 2.948763 1_555
Se8 U3 2.934111 1_565
Se8 U0 2.946587 1_656
Se8 U2 2.948763 1_555
Se9 U2 2.934111 1_455
Se9 U1 2.946587 1_545
Se9 U3 2.948763 1_555
