# generated using pymatgen
data_Dy3Pd4
_symmetry_space_group_name_H-M   'P 1'
_cell_length_a   5.70986274
_cell_length_b   7.83031684
_cell_length_c   7.83031716
_cell_angle_alpha   114.29142796
_cell_angle_beta   104.06760224
_cell_angle_gamma   104.06760289
_symmetry_Int_Tables_number   1
_chemical_formula_structural   Dy3Pd4
_chemical_formula_sum   'Dy6 Pd8'
_cell_volume   285.27719331
_cell_formula_units_Z   2
loop_
 _symmetry_equiv_pos_site_id
 _symmetry_equiv_pos_as_xyz
  1  'x, y, z'
loop_
 _atom_site_type_symbol
 _atom_site_label
 _atom_site_symmetry_multiplicity
 _atom_site_fract_x
 _atom_site_fract_y
 _atom_site_fract_z
 _atom_site_occupancy
  Dy  Dy0  1  0.40536802  0.12809748  0.37933552  1
  Dy  Dy1  1  0.02603351  0.62066448  0.74876397  1
  Dy  Dy2  1  0.27726954  0.25123603  0.87190252  1
  Dy  Dy3  1  0.59463198  0.87190252  0.62066448  1
  Dy  Dy4  1  0.97396649  0.37933552  0.25123603  1
  Dy  Dy5  1  0.72273046  0.74876397  0.12809748  1
  Pd  Pd0  1  -0.00000000  -0.00000000  -0.00000000  1
  Pd  Pd1  1  0.50000000  -0.00000000  -0.00000000  1
  Pd  Pd2  1  0.22687692  0.67653090  0.16507735  1
  Pd  Pd3  1  0.06179856  0.83492265  0.51145455  1
  Pd  Pd4  1  0.55034502  0.48854545  0.32346910  1
  Pd  Pd5  1  0.77312308  0.32346910  0.83492265  1
  Pd  Pd6  1  0.93820144  0.16507735  0.48854545  1
  Pd  Pd7  1  0.44965498  0.51145455  0.67653090  1
loop_
_geom_bond_atom_site_label_1
_geom_bond_atom_site_label_2
_geom_bond_distance
_geom_bond_site_symmetry_2
Dy0 Pd7 2.843907 1_555
Dy0 Pd6 2.859122 1_555
Dy0 Pd0 2.874738 1_555
Dy0 Pd1 2.951824 1_555
Dy0 Pd2 2.981979 1_545
Dy0 Pd4 2.983078 1_555
Dy0 Pd6 3.034982 1_455
Dy0 Pd5 3.127705 1_555
Dy0 Pd3 3.307565 1_545
Dy1 Pd5 2.843895 1_455
Dy1 Pd7 2.859118 1_555
Dy1 Pd0 2.874737 1_566
Dy1 Pd1 2.951820 1_566
Dy1 Pd3 2.981985 1_555
Dy1 Pd2 2.983071 1_556
Dy1 Pd7 3.034988 1_455
Dy1 Pd6 3.127708 1_455
Dy1 Pd4 3.307570 1_455
Dy2 Pd6 2.843911 1_455
Dy2 Pd5 2.859122 1_555
Dy2 Pd0 2.874724 1_556
Dy2 Pd1 2.951812 1_556
Dy2 Pd4 2.981979 1_556
Dy2 Pd3 2.983073 1_545
Dy2 Pd5 3.034993 1_455
Dy2 Pd7 3.127726 1_555
Dy2 Pd2 3.307565 1_556
Dy3 Pd4 2.843907 1_555
Dy3 Pd3 2.859122 1_555
Dy3 Pd0 2.874738 1_666
Dy3 Pd1 2.951824 1_566
Dy3 Pd5 2.981979 1_565
Dy3 Pd7 2.983078 1_555
Dy3 Pd3 3.034982 1_655
Dy3 Pd2 3.127705 1_555
Dy3 Pd6 3.307565 1_565
Dy4 Pd2 2.843895 1_655
Dy4 Pd4 2.859118 1_555
Dy4 Pd0 2.874737 1_655
Dy4 Pd1 2.951820 1_555
Dy4 Pd6 2.981985 1_555
Dy4 Pd5 2.983071 1_554
Dy4 Pd4 3.034988 1_655
Dy4 Pd3 3.127708 1_655
Dy4 Pd7 3.307570 1_655
Dy5 Pd3 2.843911 1_655
Dy5 Pd2 2.859122 1_555
Dy5 Pd0 2.874724 1_665
Dy5 Pd1 2.951812 1_565
Dy5 Pd7 2.981979 1_554
Dy5 Pd6 2.983073 1_565
Dy5 Pd2 3.034993 1_655
Dy5 Pd4 3.127726 1_555
Dy5 Pd5 3.307565 1_554
Pd2 Pd5 2.901809 1_454
Pd2 Pd4 2.970918 1_555
Pd2 Pd3 2.970926 1_555
Pd3 Pd6 2.901810 1_465
Pd3 Pd4 2.970918 1_455
Pd4 Pd7 2.901800 1_555
Pd5 Pd7 2.970918 1_555
Pd5 Pd6 2.970926 1_555
Pd6 Pd7 2.970918 1_655
