# generated using pymatgen
data_Mg2Cr3CoS8
_symmetry_space_group_name_H-M   'P 1'
_cell_length_a   7.15161787
_cell_length_b   7.15162216
_cell_length_c   7.15104903
_cell_angle_alpha   60.07625436
_cell_angle_beta   60.07538905
_cell_angle_gamma   60.07976264
_symmetry_Int_Tables_number   1
_chemical_formula_structural   Mg2Cr3CoS8
_chemical_formula_sum   'Mg2 Cr3 Co1 S8'
_cell_volume   259.07296923
_cell_formula_units_Z   1
loop_
 _symmetry_equiv_pos_site_id
 _symmetry_equiv_pos_as_xyz
  1  'x, y, z'
loop_
 _atom_site_type_symbol
 _atom_site_label
 _atom_site_symmetry_multiplicity
 _atom_site_fract_x
 _atom_site_fract_y
 _atom_site_fract_z
 _atom_site_occupancy
  Mg  Mg0  1  0.87496001  0.87496248  0.87495325  1
  Mg  Mg1  1  0.12507814  0.12506066  0.12506274  1
  Cr  Cr0  1  0.49994965  0.50003818  0.99998143  1
  Cr  Cr1  1  -0.00001279  0.49994069  0.50004028  1
  Cr  Cr2  1  0.49998123  -0.00000079  0.50001700  1
  Co  Co0  1  0.49999932  0.49999718  0.49999642  1
  S  S0  1  0.73698425  0.73698451  0.73699454  1
  S  S1  1  0.27135202  0.27134869  0.70483516  1
  S  S2  1  0.27136658  0.70483459  0.27133537  1
  S  S3  1  0.70484983  0.27136052  0.27132487  1
  S  S4  1  0.72863914  0.29516909  0.72864359  1
  S  S5  1  0.29516613  0.72864372  0.72865176  1
  S  S6  1  0.26303225  0.26300944  0.26301079  1
  S  S7  1  0.72865824  0.72864602  0.29515379  1
loop_
_geom_bond_atom_site_label_1
_geom_bond_atom_site_label_2
_geom_bond_distance
_geom_bond_site_symmetry_2
Mg0 S0 2.415474 1_555
Mg0 S7 2.457090 1_556
Mg0 S5 2.457403 1_655
Mg0 S4 2.457431 1_565
Mg1 S6 2.415115 1_555
Mg1 S1 2.457233 1_554
Mg1 S3 2.457517 1_455
Mg1 S2 2.457528 1_545
Cr0 S6 2.405547 1_556
Cr0 S0 2.405689 1_555
Cr0 S5 2.421606 1_555
Cr0 S2 2.421773 1_556
Cr0 S4 2.422011 1_555
Cr0 S3 2.422225 1_556
Cr1 S6 2.405681 1_555
Cr1 S0 2.405835 1_455
Cr1 S4 2.421625 1_455
Cr1 S1 2.421913 1_555
Cr1 S7 2.422132 1_455
Cr1 S2 2.422361 1_555
Cr2 S6 2.405667 1_555
Cr2 S0 2.405791 1_545
Cr2 S5 2.421872 1_545
Cr2 S1 2.421905 1_555
Cr2 S7 2.422132 1_545
Cr2 S3 2.422149 1_555
Co0 S4 2.319770 1_555
Co0 S1 2.319773 1_555
Co0 S2 2.319802 1_555
Co0 S5 2.319819 1_555
Co0 S7 2.319834 1_555
Co0 S3 2.319843 1_555
