# generated using pymatgen
data_K3TbF6
_symmetry_space_group_name_H-M   'P 1'
_cell_length_a   6.85687337
_cell_length_b   6.85687337
_cell_length_c   6.85687337
_cell_angle_alpha   95.46933798
_cell_angle_beta   116.89413860
_cell_angle_gamma   116.89413860
_symmetry_Int_Tables_number   1
_chemical_formula_structural   K3TbF6
_chemical_formula_sum   'K3 Tb1 F6'
_cell_volume   237.49300071
_cell_formula_units_Z   1
loop_
 _symmetry_equiv_pos_site_id
 _symmetry_equiv_pos_as_xyz
  1  'x, y, z'
loop_
 _atom_site_type_symbol
 _atom_site_label
 _atom_site_symmetry_multiplicity
 _atom_site_fract_x
 _atom_site_fract_y
 _atom_site_fract_z
 _atom_site_occupancy
  K  K0  1  0.50000000  0.75000000  0.25000000  1
  K  K1  1  0.50000000  0.25000000  0.75000000  1
  K  K2  1  0.00000000  0.50000000  0.50000000  1
  Tb  Tb0  1  0.00000000  0.00000000  0.00000000  1
  F  F0  1  0.69390800  0.69390800  0.00000000  1
  F  F1  1  0.30609200  0.30609200  0.00000000  1
  F  F2  1  0.69390800  0.00000000  0.69390800  1
  F  F3  1  0.30609200  0.00000000  0.30609200  1
  F  F4  1  0.00000000  0.76052200  0.76052200  1
  F  F5  1  0.00000000  0.23947800  0.23947800  1
loop_
_geom_bond_atom_site_label_1
_geom_bond_atom_site_label_2
_geom_bond_distance
_geom_bond_site_symmetry_2
F0 Tb0 2.196581 1_665
F0 K1 2.693189 1_554
F0 K0 2.693189 1_555
F1 Tb0 2.196581 1_555
F1 K1 2.693189 1_554
F1 K0 2.693189 1_555
F2 Tb0 2.196581 1_656
F2 K1 2.693189 1_555
F2 K0 2.693189 1_545
F3 Tb0 2.196581 1_555
F3 K1 2.693189 1_555
F3 K0 2.693189 1_545
F4 Tb0 2.208798 1_566
F4 K2 2.402894 1_555
F5 Tb0 2.208798 1_555
F5 K2 2.402894 1_555
