# generated using pymatgen
data_Nd(Al5Os)2
_symmetry_space_group_name_H-M   'P 1'
_cell_length_a   6.84782874
_cell_length_b   6.84782874
_cell_length_c   9.14402931
_cell_angle_alpha   90.00000000
_cell_angle_beta   90.00000000
_cell_angle_gamma   96.77922059
_symmetry_Int_Tables_number   1
_chemical_formula_structural   Nd(Al5Os)2
_chemical_formula_sum   'Nd2 Al20 Os4'
_cell_volume   425.79083106
_cell_formula_units_Z   2
loop_
 _symmetry_equiv_pos_site_id
 _symmetry_equiv_pos_as_xyz
  1  'x, y, z'
loop_
 _atom_site_type_symbol
 _atom_site_label
 _atom_site_symmetry_multiplicity
 _atom_site_fract_x
 _atom_site_fract_y
 _atom_site_fract_z
 _atom_site_occupancy
  Nd  Nd0  1  0.87442178  0.12557822  0.75000000  1
  Nd  Nd1  1  0.12557822  0.87442178  0.25000000  1
  Al  Al0  1  0.62265449  0.37734551  0.54928277  1
  Al  Al1  1  0.37734551  0.62265449  0.45071723  1
  Al  Al2  1  0.37734551  0.62265449  0.04928277  1
  Al  Al3  1  0.62265449  0.37734551  0.95071723  1
  Al  Al4  1  0.22715630  0.22715630  0.50000000  1
  Al  Al5  1  0.77284370  0.77284370  0.50000000  1
  Al  Al6  1  0.77284370  0.77284370  -0.00000000  1
  Al  Al7  1  0.22715630  0.22715630  -0.00000000  1
  Al  Al8  1  0.83909548  0.16090452  0.10199415  1
  Al  Al9  1  0.16090452  0.83909548  0.89800585  1
  Al  Al10  1  0.16090452  0.83909548  0.60199415  1
  Al  Al11  1  0.83909548  0.16090452  0.39800585  1
  Al  Al12  1  0.85811256  0.58980290  0.75000000  1
  Al  Al13  1  0.14188744  0.41019710  0.25000000  1
  Al  Al14  1  0.41019710  0.14188744  0.75000000  1
  Al  Al15  1  0.58980290  0.85811256  0.25000000  1
  Al  Al16  1  0.21871329  0.48293257  0.75000000  1
  Al  Al17  1  0.78128671  0.51706743  0.25000000  1
  Al  Al18  1  0.51706743  0.78128671  0.75000000  1
  Al  Al19  1  0.48293257  0.21871329  0.25000000  1
  Os  Os0  1  -0.00000000  0.50000000  0.50000000  1
  Os  Os1  1  -0.00000000  0.50000000  -0.00000000  1
  Os  Os2  1  0.50000000  0.00000000  -0.00000000  1
  Os  Os3  1  0.50000000  0.00000000  0.50000000  1
loop_
_geom_bond_atom_site_label_1
_geom_bond_atom_site_label_2
_geom_bond_distance
_geom_bond_site_symmetry_2
Nd0 Os2 3.466808 1_556
Nd0 Os1 3.466808 1_656
Nd0 Os0 3.466808 1_655
Nd0 Os3 3.466808 1_555
Nd1 Os3 3.466808 1_565
Nd1 Os2 3.466808 1_565
Nd1 Os1 3.466808 1_555
Nd1 Os0 3.466808 1_555
Al0 Os0 2.659547 1_655
Al0 Os3 2.659547 1_555
Al0 Nd0 3.164659 1_555
Al1 Os3 2.659547 1_565
Al1 Os0 2.659547 1_555
Al1 Nd1 3.164659 1_555
Al2 Os2 2.659547 1_565
Al2 Os1 2.659547 1_555
Al2 Nd1 3.164659 1_555
Al3 Os1 2.659547 1_656
Al3 Os2 2.659547 1_556
Al3 Nd0 3.164659 1_555
Al4 Os0 2.568401 1_555
Al4 Os3 2.568401 1_555
Al4 Nd1 3.338784 1_545
Al4 Nd0 3.338784 1_455
Al5 Os3 2.568401 1_565
Al5 Os0 2.568401 1_655
Al5 Nd1 3.338784 1_655
Al5 Nd0 3.338784 1_565
Al6 Os1 2.568401 1_655
Al6 Os2 2.568401 1_565
Al6 Nd1 3.338784 1_655
Al6 Nd0 3.338784 1_564
Al7 Os1 2.568401 1_555
Al7 Os2 2.568401 1_555
Al7 Nd1 3.338784 1_545
Al7 Nd0 3.338784 1_454
Al8 Os2 2.621418 1_555
Al8 Os1 2.621418 1_655
Al8 Nd1 3.230699 1_645
Al8 Nd0 3.238909 1_554
Al9 Os1 2.621418 1_556
Al9 Os2 2.621418 1_566
Al9 Nd0 3.230699 1_465
Al9 Nd1 3.238909 1_556
Al10 Os0 2.621418 1_555
Al10 Os3 2.621418 1_565
Al10 Nd0 3.230699 1_465
Al10 Nd1 3.238909 1_555
Al11 Os0 2.621418 1_655
Al11 Os3 2.621418 1_555
Al11 Nd1 3.230699 1_645
Al11 Nd0 3.238909 1_555
Al12 Os1 2.586331 1_656
Al12 Os0 2.586331 1_655
Al12 Nd0 3.194040 1_555
Al12 Nd0 3.657396 1_565
Al13 Os1 2.586331 1_555
Al13 Os0 2.586331 1_555
Al13 Nd1 3.194040 1_555
Al13 Nd1 3.657396 1_545
Al14 Os2 2.586331 1_556
Al14 Os3 2.586331 1_555
Al14 Nd0 3.194040 1_555
Al14 Nd0 3.657396 1_455
Al15 Os2 2.586331 1_565
Al15 Os3 2.586331 1_565
Al15 Nd1 3.194040 1_555
Al15 Nd1 3.657396 1_655
Al16 Os0 2.742983 1_555
Al16 Os1 2.742983 1_556
Al16 Nd0 3.191352 1_455
Al17 Os0 2.742983 1_655
Al17 Os1 2.742983 1_655
Al17 Nd1 3.191352 1_655
Al18 Os3 2.742983 1_565
Al18 Os2 2.742983 1_566
Al18 Nd0 3.191352 1_565
Al19 Os3 2.742983 1_555
Al19 Os2 2.742983 1_555
Al19 Nd1 3.191352 1_545
