# generated using pymatgen
data_Ce2HfCo16
_symmetry_space_group_name_H-M   'P 1'
_cell_length_a   8.32743949
_cell_length_b   8.32743949
_cell_length_c   8.24003100
_cell_angle_alpha   90.00000000
_cell_angle_beta   90.00000000
_cell_angle_gamma   119.99999595
_symmetry_Int_Tables_number   1
_chemical_formula_structural   Ce2HfCo16
_chemical_formula_sum   'Ce4 Hf2 Co32'
_cell_volume   494.86013162
_cell_formula_units_Z   2
loop_
 _symmetry_equiv_pos_site_id
 _symmetry_equiv_pos_as_xyz
  1  'x, y, z'
loop_
 _atom_site_type_symbol
 _atom_site_label
 _atom_site_symmetry_multiplicity
 _atom_site_fract_x
 _atom_site_fract_y
 _atom_site_fract_z
 _atom_site_occupancy
  Ce  Ce0  1  0.66666700  0.33333300  0.73428200  1
  Ce  Ce1  1  0.33333300  0.66666700  0.26571800  1
  Ce  Ce2  1  0.00000000  0.00000000  0.24884500  1
  Ce  Ce3  1  0.00000000  0.00000000  0.75115500  1
  Hf  Hf0  1  0.33333300  0.66666700  0.88060000  1
  Hf  Hf1  1  0.66666700  0.33333300  0.11940000  1
  Co  Co0  1  0.96721800  0.32717000  0.25109900  1
  Co  Co1  1  0.67283000  0.64004900  0.25109900  1
  Co  Co2  1  0.35995100  0.03278200  0.25109900  1
  Co  Co3  1  0.96721800  0.64004900  0.25109900  1
  Co  Co4  1  0.67283000  0.03278200  0.25109900  1
  Co  Co5  1  0.35995100  0.32717000  0.25109900  1
  Co  Co6  1  0.03278200  0.67283000  0.74890100  1
  Co  Co7  1  0.32717000  0.35995100  0.74890100  1
  Co  Co8  1  0.64004900  0.96721800  0.74890100  1
  Co  Co9  1  0.03278200  0.35995100  0.74890100  1
  Co  Co10  1  0.32717000  0.96721800  0.74890100  1
  Co  Co11  1  0.64004900  0.67283000  0.74890100  1
  Co  Co12  1  0.33328900  0.16664400  0.51177800  1
  Co  Co13  1  0.83335600  0.16664400  0.51177800  1
  Co  Co14  1  0.83335600  0.66671100  0.51177800  1
  Co  Co15  1  0.66671100  0.83335600  0.48822200  1
  Co  Co16  1  0.16664400  0.83335600  0.48822200  1
  Co  Co17  1  0.16664400  0.33328900  0.48822200  1
  Co  Co18  1  0.67188900  0.83594400  0.02177400  1
  Co  Co19  1  0.16405600  0.83594400  0.02177400  1
  Co  Co20  1  0.16405600  0.32811100  0.02177400  1
  Co  Co21  1  0.32811100  0.16405600  0.97822600  1
  Co  Co22  1  0.83594400  0.16405600  0.97822600  1
  Co  Co23  1  0.83594400  0.67188900  0.97822600  1
  Co  Co24  1  0.00000000  0.50000000  0.50000000  1
  Co  Co25  1  0.50000000  0.50000000  0.50000000  1
  Co  Co26  1  0.50000000  0.00000000  0.50000000  1
  Co  Co27  1  0.00000000  0.50000000  0.00000000  1
  Co  Co28  1  0.50000000  0.50000000  0.00000000  1
  Co  Co29  1  0.50000000  0.00000000  0.00000000  1
  Co  Co30  1  0.66666700  0.33333300  0.41149900  1
  Co  Co31  1  0.33333300  0.66666700  0.58850100  1
loop_
_geom_bond_atom_site_label_1
_geom_bond_atom_site_label_2
_geom_bond_distance
_geom_bond_site_symmetry_2
Ce0 Co30 2.659742 1_555
Ce0 Co7 2.946698 1_555
Ce0 Co11 2.946698 1_555
Ce0 Co9 2.946699 1_655
Ce0 Co8 2.946699 1_545
Ce0 Co6 2.946699 1_655
Ce0 Co10 2.946699 1_545
Ce0 Co13 3.023558 1_555
Ce0 Co14 3.023558 1_555
Ce0 Co12 3.023558 1_555
Ce0 Co26 3.083122 1_555
Ce0 Co24 3.083122 1_655
Ce0 Co25 3.083127 1_555
Ce0 Co22 3.162565 1_555
Ce0 Co23 3.162576 1_555
Ce0 Co21 3.162576 1_555
Ce0 Hf1 3.173384 1_556
Ce0 Co29 3.251594 1_556
Ce0 Co27 3.251594 1_656
Ce0 Co28 3.251599 1_556
Ce1 Co31 2.659742 1_555
Ce1 Co5 2.946698 1_555
Ce1 Co1 2.946698 1_555
Ce1 Co2 2.946699 1_565
Ce1 Co3 2.946699 1_455
Ce1 Co4 2.946699 1_565
Ce1 Co0 2.946699 1_455
Ce1 Co16 3.023558 1_555
Ce1 Co15 3.023558 1_555
Ce1 Co17 3.023558 1_555
Ce1 Co26 3.083122 1_565
Ce1 Co24 3.083122 1_555
Ce1 Co25 3.083127 1_555
Ce1 Co19 3.162565 1_555
Ce1 Co18 3.162576 1_555
Ce1 Co20 3.162576 1_555
Ce1 Hf0 3.173384 1_554
Ce1 Co27 3.251594 1_555
Ce1 Co29 3.251594 1_565
Ce1 Co28 3.251599 1_555
Ce2 Co2 2.870787 1_555
Ce2 Co3 2.870787 1_445
Ce2 Co5 2.870790 1_555
Ce2 Co1 2.870790 1_445
Ce2 Co4 2.870795 1_455
Ce2 Co0 2.870795 1_455
Ce2 Co20 3.016639 1_555
Ce2 Co18 3.016639 1_445
Ce2 Co19 3.016644 1_545
Ce2 Co16 3.109330 1_545
Ce2 Co17 3.109336 1_555
Ce2 Co15 3.109336 1_445
Ce2 Co13 3.235944 1_455
Ce2 Co12 3.235950 1_555
Ce2 Co14 3.235950 1_445
Ce2 Co21 3.251414 1_554
Ce2 Co23 3.251414 1_444
Ce2 Co22 3.251419 1_454
Ce3 Co9 2.870787 1_555
Ce3 Co8 2.870787 1_445
Ce3 Co7 2.870790 1_555
Ce3 Co11 2.870790 1_445
Ce3 Co6 2.870795 1_545
Ce3 Co10 2.870795 1_545
Ce3 Co23 3.016639 1_445
Ce3 Co21 3.016639 1_555
Ce3 Co22 3.016644 1_455
Ce3 Co13 3.109330 1_455
Ce3 Co12 3.109336 1_555
Ce3 Co14 3.109336 1_445
Ce3 Co16 3.235944 1_545
Ce3 Co17 3.235950 1_555
Ce3 Co15 3.235950 1_445
Ce3 Co18 3.251414 1_446
Ce3 Co20 3.251414 1_556
Ce3 Co19 3.251419 1_546
Co0 Co24 2.441192 1_655
Co0 Co4 2.451498 1_555
Co0 Co27 2.456428 1_655
Co0 Co13 2.480596 1_555
Co0 Co20 2.498962 1_655
Co0 Co17 2.548265 1_655
Co0 Co22 2.571159 1_554
Co0 Co3 2.605481 1_555
Co0 Hf1 2.751883 1_555
Co1 Co25 2.441194 1_555
Co1 Co3 2.451498 1_555
Co1 Co28 2.456430 1_555
Co1 Co14 2.480599 1_555
Co1 Co18 2.498951 1_555
Co1 Co15 2.548265 1_555
Co1 Co23 2.571159 1_554
Co1 Co5 2.605481 1_555
Co1 Hf1 2.751898 1_555
Co2 Co26 2.441196 1_555
Co2 Co5 2.451498 1_555
Co2 Co29 2.456432 1_555
Co2 Co21 2.571159 1_554
Co2 Co4 2.605481 1_555
Co2 Hf1 2.751891 1_555
Co3 Hf1 2.751891 1_555
Co4 Hf1 2.751883 1_555
Co5 Hf1 2.751898 1_555
Co6 Co9 2.605481 1_555
Co6 Hf0 2.751883 1_555
Co7 Co9 2.451498 1_555
Co7 Hf0 2.751898 1_555
Co8 Hf0 2.751891 1_555
Co9 Hf0 2.751891 1_555
Co10 Co26 2.441192 1_565
Co10 Co6 2.451498 1_555
Co10 Co29 2.456428 1_566
Co10 Co16 2.480596 1_555
Co10 Co21 2.498962 1_565
Co10 Co12 2.548265 1_565
Co10 Co19 2.571159 1_556
Co10 Co8 2.605481 1_555
Co10 Hf0 2.751883 1_555
Co11 Co25 2.441194 1_555
Co11 Co8 2.451498 1_555
Co11 Co28 2.456430 1_556
Co11 Co15 2.480599 1_555
Co11 Co23 2.498951 1_555
Co11 Co14 2.548265 1_555
Co11 Co18 2.571159 1_556
Co11 Co7 2.605481 1_555
Co11 Hf0 2.751898 1_555
Co12 Co26 2.406039 1_555
Co12 Co25 2.406046 1_555
Co12 Co16 2.411422 1_545
Co12 Co17 2.411437 1_555
Co12 Co2 2.480591 1_555
Co12 Co5 2.480599 1_555
Co12 Co30 2.542278 1_555
Co12 Co7 2.548265 1_555
Co13 Co26 2.406046 1_555
Co13 Co24 2.406046 1_655
Co13 Co17 2.411422 1_655
Co13 Co15 2.411422 1_545
Co13 Co4 2.480596 1_555
Co13 Co30 2.542278 1_555
Co13 Co9 2.548265 1_655
Co13 Co8 2.548265 1_545
Co14 Co24 2.406039 1_655
Co14 Co25 2.406046 1_555
Co14 Co16 2.411422 1_655
Co14 Co15 2.411437 1_555
Co14 Co3 2.480591 1_555
Co14 Co30 2.542278 1_555
Co14 Co6 2.548265 1_655
Co15 Co26 2.406039 1_565
Co15 Co25 2.406046 1_555
Co15 Co8 2.480591 1_555
Co15 Co31 2.542278 1_555
Co15 Co4 2.548265 1_565
Co16 Co26 2.406046 1_565
Co16 Co24 2.406046 1_555
Co16 Co6 2.480596 1_555
Co16 Co31 2.542278 1_555
Co16 Co2 2.548265 1_565
Co16 Co3 2.548265 1_455
Co17 Co24 2.406039 1_555
Co17 Co25 2.406046 1_555
Co17 Co9 2.480591 1_555
Co17 Co7 2.480599 1_555
Co17 Co31 2.542278 1_555
Co17 Co5 2.548265 1_555
Co18 Co23 2.393309 1_554
Co18 Co22 2.393323 1_564
Co18 Co28 2.429606 1_555
Co18 Co29 2.429613 1_565
Co18 Co4 2.498962 1_565
Co18 Co8 2.571159 1_554
Co18 Hf0 2.704547 1_554
Co19 Co23 2.393323 1_454
Co19 Co21 2.393323 1_564
Co19 Co27 2.429606 1_555
Co19 Co29 2.429606 1_565
Co19 Co3 2.498956 1_455
Co19 Co2 2.498956 1_565
Co19 Co6 2.571159 1_554
Co19 Hf0 2.704534 1_554
Co20 Co21 2.393309 1_554
Co20 Co22 2.393323 1_454
Co20 Co28 2.429606 1_555
Co20 Co27 2.429613 1_555
Co20 Co5 2.498951 1_555
Co20 Co9 2.571159 1_554
Co20 Co7 2.571159 1_554
Co20 Hf0 2.704547 1_554
Co21 Co28 2.429606 1_556
Co21 Co29 2.429613 1_556
Co21 Co7 2.498951 1_555
Co21 Co5 2.571159 1_556
Co21 Hf1 2.704547 1_556
Co22 Co29 2.429606 1_556
Co22 Co27 2.429606 1_656
Co22 Co8 2.498956 1_545
Co22 Co9 2.498956 1_655
Co22 Co4 2.571159 1_556
Co22 Hf1 2.704534 1_556
Co23 Co28 2.429606 1_556
Co23 Co27 2.429613 1_656
Co23 Co6 2.498962 1_655
Co23 Co3 2.571159 1_556
Co23 Hf1 2.704547 1_556
Co24 Co6 2.441192 1_555
Co24 Co9 2.441196 1_555
Co24 Co3 2.441196 1_455
Co24 Co31 2.512101 1_555
Co24 Co30 2.512101 1_455
Co25 Co7 2.441194 1_555
Co25 Co5 2.441194 1_555
Co25 Co31 2.512107 1_555
Co25 Co30 2.512107 1_555
Co26 Co4 2.441192 1_555
Co26 Co8 2.441196 1_545
Co26 Co31 2.512101 1_545
Co26 Co30 2.512101 1_555
Co27 Co6 2.456428 1_554
Co27 Co3 2.456432 1_455
Co27 Co9 2.456432 1_554
Co27 Hf0 2.597465 1_554
Co27 Hf1 2.597465 1_455
Co28 Co5 2.456430 1_555
Co28 Co7 2.456430 1_554
Co28 Hf1 2.597471 1_555
Co28 Hf0 2.597471 1_554
Co29 Co4 2.456428 1_555
Co29 Co8 2.456432 1_544
Co29 Hf1 2.597465 1_555
Co29 Hf0 2.597465 1_544
Co30 Hf1 2.406905 1_555
Co31 Hf0 2.406905 1_555
