# generated using pymatgen
data_Sr2YCu2(BiO4)2
_symmetry_space_group_name_H-M   'P 1'
_cell_length_a   15.59802851
_cell_length_b   15.59802851
_cell_length_c   5.35020500
_cell_angle_alpha   90.00000000
_cell_angle_beta   90.00000000
_cell_angle_gamma   159.66889246
_symmetry_Int_Tables_number   1
_chemical_formula_structural   Sr2YCu2(BiO4)2
_chemical_formula_sum   'Sr4 Y2 Cu4 Bi4 O16'
_cell_volume   452.26779988
_cell_formula_units_Z   2
loop_
 _symmetry_equiv_pos_site_id
 _symmetry_equiv_pos_as_xyz
  1  'x, y, z'
loop_
 _atom_site_type_symbol
 _atom_site_label
 _atom_site_symmetry_multiplicity
 _atom_site_fract_x
 _atom_site_fract_y
 _atom_site_fract_z
 _atom_site_occupancy
  Sr  Sr0  1  0.61360700  0.89012200  0.00000000  1
  Sr  Sr1  1  0.38639300  0.10987800  0.00000000  1
  Sr  Sr2  1  0.10987800  0.38639300  0.50000000  1
  Sr  Sr3  1  0.89012200  0.61360700  0.50000000  1
  Y  Y0  1  0.50000000  0.00000000  0.00000000  1
  Y  Y1  1  0.00000000  0.50000000  0.50000000  1
  Cu  Cu0  1  0.05098700  0.44911100  0.00000000  1
  Cu  Cu1  1  0.94901300  0.55088900  0.00000000  1
  Cu  Cu2  1  0.55088900  0.94901300  0.50000000  1
  Cu  Cu3  1  0.44911100  0.05098700  0.50000000  1
  Bi  Bi0  1  0.22380500  0.31992700  0.00000000  1
  Bi  Bi1  1  0.77619500  0.68007300  0.00000000  1
  Bi  Bi2  1  0.68007300  0.77619500  0.50000000  1
  Bi  Bi3  1  0.31992700  0.22380500  0.50000000  1
  O  O0  1  0.12189400  0.35430400  0.00000000  1
  O  O1  1  0.87810600  0.64569600  0.00000000  1
  O  O2  1  0.64569600  0.87810600  0.50000000  1
  O  O3  1  0.35430400  0.12189400  0.50000000  1
  O  O4  1  0.70149200  0.29850800  0.25000000  1
  O  O5  1  0.29850800  0.70149200  0.75000000  1
  O  O6  1  0.29850800  0.70149200  0.25000000  1
  O  O7  1  0.70149200  0.29850800  0.75000000  1
  O  O8  1  0.61396600  0.71532200  0.00000000  1
  O  O9  1  0.38603400  0.28467800  0.00000000  1
  O  O10  1  0.28467800  0.38603400  0.50000000  1
  O  O11  1  0.71532200  0.61396600  0.50000000  1
  O  O12  1  0.79818300  0.20181700  0.25000000  1
  O  O13  1  0.20181700  0.79818300  0.75000000  1
  O  O14  1  0.20181700  0.79818300  0.25000000  1
  O  O15  1  0.79818300  0.20181700  0.75000000  1
loop_
_geom_bond_atom_site_label_1
_geom_bond_atom_site_label_2
_geom_bond_distance
_geom_bond_site_symmetry_2
Cu0 O6 1.920558 1_555
Cu0 O5 1.920558 1_554
Cu0 O12 1.921358 1_455
Cu0 O15 1.921358 1_454
Cu0 O0 2.545086 1_555
Cu1 O4 1.920558 1_555
Cu1 O7 1.920558 1_554
Cu1 O13 1.921358 1_654
Cu1 O14 1.921358 1_655
Cu1 O1 2.545086 1_555
Cu2 O5 1.920558 1_555
Cu2 O6 1.920558 1_555
Cu2 O15 1.921358 1_565
Cu2 O12 1.921358 1_565
Cu2 O2 2.545086 1_555
Cu3 O4 1.920558 1_555
Cu3 O7 1.920558 1_555
Cu3 O13 1.921358 1_545
Cu3 O14 1.921358 1_545
Cu3 O3 2.545086 1_555
Bi0 O0 2.100696 1_555
Bi0 O8 2.164083 1_555
Bi0 O10 2.699042 1_555
Bi0 O10 2.699042 1_554
Bi1 O1 2.100696 1_555
Bi1 O9 2.164083 1_555
Bi1 O11 2.699042 1_554
Bi1 O11 2.699042 1_555
Bi2 O2 2.100696 1_555
Bi2 O10 2.164083 1_555
Bi2 O8 2.699042 1_556
Bi2 O8 2.699042 1_555
Bi3 O3 2.100696 1_555
Bi3 O11 2.164083 1_555
Bi3 O9 2.699042 1_556
Bi3 O9 2.699042 1_555
O0 Sr2 2.760029 1_555
O0 Sr2 2.760029 1_554
O0 Sr0 2.761463 1_445
O0 Sr0 2.908655 1_555
O1 Sr3 2.760029 1_554
O1 Sr3 2.760029 1_555
O1 Sr1 2.761463 1_665
O1 Sr1 2.908655 1_555
O2 Sr0 2.760029 1_556
O2 Sr0 2.760029 1_555
O2 Sr2 2.761463 1_665
O2 Sr2 2.908655 1_555
O3 Sr1 2.760029 1_555
O3 Sr1 2.760029 1_556
O3 Sr3 2.761463 1_445
O3 Sr3 2.908655 1_555
O4 Y0 2.429472 1_555
O4 Y1 2.429472 1_655
O4 Sr1 2.735376 1_555
O4 Sr3 2.735376 1_555
O5 Y0 2.429472 1_566
O5 Y1 2.429472 1_555
O5 Sr2 2.735376 1_555
O5 Sr0 2.735376 1_556
O6 Y0 2.429472 1_565
O6 Y1 2.429472 1_555
O6 Sr2 2.735376 1_555
O6 Sr0 2.735376 1_555
O7 Y1 2.429472 1_655
O7 Y0 2.429472 1_556
O7 Sr1 2.735376 1_556
O7 Sr3 2.735376 1_555
O8 Sr0 2.731787 1_555
O9 Sr1 2.731787 1_555
O10 Sr2 2.731787 1_555
O11 Sr3 2.731787 1_555
O12 Y1 2.423367 1_655
O12 Y0 2.423367 1_555
O12 Sr2 2.732145 1_655
O12 Sr0 2.732145 1_545
O13 Y1 2.423367 1_555
O13 Y0 2.423367 1_566
O13 Sr1 2.732145 1_566
O13 Sr3 2.732145 1_455
O14 Y1 2.423367 1_555
O14 Y0 2.423367 1_565
O14 Sr1 2.732145 1_565
O14 Sr3 2.732145 1_455
O15 Y1 2.423367 1_655
O15 Y0 2.423367 1_556
O15 Sr2 2.732145 1_655
O15 Sr0 2.732145 1_546
