# generated using pymatgen
data_ZnCr4CdSe8
_symmetry_space_group_name_H-M   'P 1'
_cell_length_a   7.60712688
_cell_length_b   7.60712688
_cell_length_c   7.60712688
_cell_angle_alpha   60.00000000
_cell_angle_beta   60.00000000
_cell_angle_gamma   60.00000000
_symmetry_Int_Tables_number   1
_chemical_formula_structural   ZnCr4CdSe8
_chemical_formula_sum   'Zn1 Cr4 Cd1 Se8'
_cell_volume   311.27696366
_cell_formula_units_Z   1
loop_
 _symmetry_equiv_pos_site_id
 _symmetry_equiv_pos_as_xyz
  1  'x, y, z'
loop_
 _atom_site_type_symbol
 _atom_site_label
 _atom_site_symmetry_multiplicity
 _atom_site_fract_x
 _atom_site_fract_y
 _atom_site_fract_z
 _atom_site_occupancy
  Zn  Zn0  1  0.50000000  0.50000000  0.50000000  1
  Cr  Cr0  1  0.62460500  0.12513200  0.12513200  1
  Cr  Cr1  1  0.12513200  0.62460500  0.12513200  1
  Cr  Cr2  1  0.12513200  0.12513200  0.62460500  1
  Cr  Cr3  1  0.12513200  0.12513200  0.12513200  1
  Cd  Cd0  1  0.75000000  0.75000000  0.75000000  1
  Se  Se0  1  0.32830100  0.89056600  0.89056600  1
  Se  Se1  1  0.89056600  0.32830100  0.89056600  1
  Se  Se2  1  0.89056600  0.89056600  0.32830100  1
  Se  Se3  1  0.89056600  0.89056600  0.89056600  1
  Se  Se4  1  0.90746800  0.36417700  0.36417700  1
  Se  Se5  1  0.36417700  0.90746800  0.36417700  1
  Se  Se6  1  0.36417700  0.36417700  0.90746800  1
  Se  Se7  1  0.36417700  0.36417700  0.36417700  1
loop_
_geom_bond_atom_site_label_1
_geom_bond_atom_site_label_2
_geom_bond_distance
_geom_bond_site_symmetry_2
Cr0 Se2 2.534751 1_545
Cr0 Se1 2.534751 1_554
Cr0 Se3 2.534761 1_544
Cr0 Se7 2.576810 1_555
Cr0 Se6 2.576820 1_554
Cr0 Se5 2.576820 1_545
Cr1 Se0 2.534751 1_554
Cr1 Se2 2.534751 1_455
Cr1 Se3 2.534761 1_454
Cr1 Se7 2.576810 1_555
Cr1 Se6 2.576820 1_554
Cr1 Se4 2.576820 1_455
Cr2 Se0 2.534751 1_545
Cr2 Se1 2.534751 1_455
Cr2 Se3 2.534761 1_445
Cr2 Se7 2.576810 1_555
Cr2 Se5 2.576820 1_545
Cr2 Se4 2.576820 1_455
Cr3 Se2 2.534763 1_445
Cr3 Se1 2.534763 1_454
Cr3 Se0 2.534763 1_544
Cr3 Se6 2.576809 1_554
Cr3 Se5 2.576809 1_545
Cr3 Se4 2.576809 1_455
Cd0 Se3 2.619248 1_555
Cd0 Se0 2.619254 1_555
Cd0 Se2 2.619254 1_555
Cd0 Se1 2.619254 1_555
Se4 Zn0 2.530862 1_555
Se5 Zn0 2.530862 1_555
Se6 Zn0 2.530862 1_555
Se7 Zn0 2.530869 1_555
