# generated using pymatgen
data_Ac3Dy
_symmetry_space_group_name_H-M   'P 1'
_cell_length_a   7.79861637
_cell_length_b   7.79861637
_cell_length_c   6.34972800
_cell_angle_alpha   90.00000000
_cell_angle_beta   90.00000000
_cell_angle_gamma   120.00000316
_symmetry_Int_Tables_number   1
_chemical_formula_structural   Ac3Dy
_chemical_formula_sum   'Ac6 Dy2'
_cell_volume   334.44203258
_cell_formula_units_Z   2
loop_
 _symmetry_equiv_pos_site_id
 _symmetry_equiv_pos_as_xyz
  1  'x, y, z'
loop_
 _atom_site_type_symbol
 _atom_site_label
 _atom_site_symmetry_multiplicity
 _atom_site_fract_x
 _atom_site_fract_y
 _atom_site_fract_z
 _atom_site_occupancy
  Ac  Ac0  1  0.16947900  0.33895800  0.25000000  1
  Ac  Ac1  1  0.66104200  0.83052100  0.25000000  1
  Ac  Ac2  1  0.16947900  0.83052100  0.25000000  1
  Ac  Ac3  1  0.83052100  0.66104200  0.75000000  1
  Ac  Ac4  1  0.33895800  0.16947900  0.75000000  1
  Ac  Ac5  1  0.83052100  0.16947900  0.75000000  1
  Dy  Dy0  1  0.33333300  0.66666700  0.75000000  1
  Dy  Dy1  1  0.66666700  0.33333300  0.25000000  1
loop_
_geom_bond_atom_site_label_1
_geom_bond_atom_site_label_2
_geom_bond_distance
_geom_bond_site_symmetry_2
Ac0 Ac1 3.833511 1_555
Ac0 Ac2 3.833511 1_555
Ac0 Dy0 3.870190 1_555
Ac0 Dy0 3.870190 1_554
Ac0 Dy1 3.899489 1_455
Ac0 Dy1 3.899497 1_555
Ac0 Ac5 3.914134 1_454
Ac0 Ac5 3.914134 1_455
Ac0 Ac4 3.914134 1_554
Ac0 Ac4 3.914134 1_555
Ac0 Ac1 3.965105 1_445
Ac0 Ac2 3.965105 1_545
Ac1 Ac2 3.833511 1_555
Ac1 Dy0 3.870190 1_555
Ac1 Dy0 3.870190 1_554
Ac1 Dy1 3.899489 1_565
Ac1 Dy1 3.899497 1_555
Ac1 Ac5 3.914134 1_565
Ac1 Ac5 3.914134 1_564
Ac1 Ac3 3.914134 1_554
Ac1 Ac3 3.914134 1_555
Ac1 Ac2 3.965105 1_655
Ac2 Dy0 3.870187 1_554
Ac2 Dy0 3.870187 1_555
Ac2 Dy1 3.899493 1_455
Ac2 Dy1 3.899493 1_565
Ac2 Ac4 3.914134 1_565
Ac2 Ac4 3.914134 1_564
Ac2 Ac3 3.914134 1_455
Ac2 Ac3 3.914134 1_454
Ac3 Ac4 3.833511 1_555
Ac3 Ac5 3.833511 1_555
Ac3 Dy1 3.870190 1_555
Ac3 Dy1 3.870190 1_556
Ac3 Dy0 3.899489 1_655
Ac3 Dy0 3.899497 1_555
Ac3 Ac4 3.965105 1_665
Ac3 Ac5 3.965105 1_565
Ac4 Ac5 3.833511 1_555
Ac4 Dy1 3.870190 1_555
Ac4 Dy1 3.870190 1_556
Ac4 Dy0 3.899489 1_545
Ac4 Dy0 3.899497 1_555
Ac4 Ac5 3.965105 1_455
Ac5 Dy1 3.870187 1_556
Ac5 Dy1 3.870187 1_555
Ac5 Dy0 3.899493 1_545
Ac5 Dy0 3.899493 1_655
