# generated using pymatgen
data_Te4Mo3WS4
_symmetry_space_group_name_H-M   'P 1'
_cell_length_a   3.35673904
_cell_length_b   3.35673904
_cell_length_c   38.31488300
_cell_angle_alpha   90.00000000
_cell_angle_beta   90.00000000
_cell_angle_gamma   119.99998099
_symmetry_Int_Tables_number   1
_chemical_formula_structural   Te4Mo3WS4
_chemical_formula_sum   'Te4 Mo3 W1 S4'
_cell_volume   373.88098363
_cell_formula_units_Z   1
loop_
 _symmetry_equiv_pos_site_id
 _symmetry_equiv_pos_as_xyz
  1  'x, y, z'
loop_
 _atom_site_type_symbol
 _atom_site_label
 _atom_site_symmetry_multiplicity
 _atom_site_fract_x
 _atom_site_fract_y
 _atom_site_fract_z
 _atom_site_occupancy
  Te  Te0  1  0.00000000  0.00000000  0.33122200  1
  Te  Te1  1  0.00000000  0.00000000  0.70693900  1
  Te  Te2  1  0.00000000  0.00000000  0.23233600  1
  Te  Te3  1  0.00000000  0.00000000  0.60814800  1
  Mo  Mo0  1  0.00000000  0.00000000  0.09391500  1
  Mo  Mo1  1  0.33333300  0.66666700  0.28178800  1
  Mo  Mo2  1  0.33333300  0.66666700  0.65756000  1
  W  W0  1  0.00000000  0.00000000  0.46967200  1
  S  S0  1  0.33333300  0.66666700  0.05441100  1
  S  S1  1  0.33333300  0.66666700  0.43003400  1
  S  S2  1  0.33333300  0.66666700  0.13342200  1
  S  S3  1  0.33333300  0.66666700  0.50930000  1
loop_
_geom_bond_atom_site_label_1
_geom_bond_atom_site_label_2
_geom_bond_distance
_geom_bond_site_symmetry_2
Mo0 S0 2.459034 1_545
Mo0 S0 2.459037 1_445
Mo0 S0 2.459037 1_555
Mo0 S2 2.459105 1_545
Mo0 S2 2.459108 1_555
Mo0 S2 2.459108 1_445
Mo1 Te0 2.709861 1_565
Mo1 Te0 2.709863 1_555
Mo1 Te0 2.709863 1_665
Mo1 Te2 2.710343 1_565
Mo1 Te2 2.710345 1_665
Mo1 Te2 2.710345 1_555
Mo2 Te1 2.708388 1_565
Mo2 Te1 2.708391 1_665
Mo2 Te1 2.708391 1_555
Mo2 Te3 2.709272 1_565
Mo2 Te3 2.709274 1_665
Mo2 Te3 2.709274 1_555
S1 W0 2.462198 1_565
S1 W0 2.462200 1_555
S1 W0 2.462200 1_665
S3 W0 2.461961 1_565
S3 W0 2.461964 1_665
S3 W0 2.461964 1_555
