# generated using pymatgen
data_Dy3Ge13Rh4
_symmetry_space_group_name_H-M   'P 1'
_cell_length_a   9.02785200
_cell_length_b   9.02785200
_cell_length_c   9.02785200
_cell_angle_alpha   90.00000000
_cell_angle_beta   90.00000000
_cell_angle_gamma   90.00000000
_symmetry_Int_Tables_number   1
_chemical_formula_structural   Dy3Ge13Rh4
_chemical_formula_sum   'Dy6 Ge26 Rh8'
_cell_volume   735.78900242
_cell_formula_units_Z   2
loop_
 _symmetry_equiv_pos_site_id
 _symmetry_equiv_pos_as_xyz
  1  'x, y, z'
loop_
 _atom_site_type_symbol
 _atom_site_label
 _atom_site_symmetry_multiplicity
 _atom_site_fract_x
 _atom_site_fract_y
 _atom_site_fract_z
 _atom_site_occupancy
  Dy  Dy0  1  0.00000000  0.50000000  0.75000000  1
  Dy  Dy1  1  0.50000000  0.25000000  0.00000000  1
  Dy  Dy2  1  0.75000000  0.00000000  0.50000000  1
  Dy  Dy3  1  0.00000000  0.50000000  0.25000000  1
  Dy  Dy4  1  0.50000000  0.75000000  0.00000000  1
  Dy  Dy5  1  0.25000000  0.00000000  0.50000000  1
  Ge  Ge0  1  0.50000000  0.50000000  0.50000000  1
  Ge  Ge1  1  0.00000000  0.00000000  0.00000000  1
  Ge  Ge2  1  0.81006200  0.35192400  0.50000000  1
  Ge  Ge3  1  0.64807600  0.50000000  0.81006200  1
  Ge  Ge4  1  0.50000000  0.18993800  0.64807600  1
  Ge  Ge5  1  0.18993800  0.64807600  0.50000000  1
  Ge  Ge6  1  0.35192400  0.50000000  0.18993800  1
  Ge  Ge7  1  0.50000000  0.81006200  0.35192400  1
  Ge  Ge8  1  0.81006200  0.64807600  0.50000000  1
  Ge  Ge9  1  0.64807600  0.50000000  0.18993800  1
  Ge  Ge10  1  0.18993800  0.35192400  0.50000000  1
  Ge  Ge11  1  0.35192400  0.50000000  0.81006200  1
  Ge  Ge12  1  0.50000000  0.81006200  0.64807600  1
  Ge  Ge13  1  0.50000000  0.18993800  0.35192400  1
  Ge  Ge14  1  0.31006200  0.00000000  0.85192400  1
  Ge  Ge15  1  0.14807600  0.31006200  0.00000000  1
  Ge  Ge16  1  0.00000000  0.14807600  0.68993800  1
  Ge  Ge17  1  0.68993800  0.00000000  0.14807600  1
  Ge  Ge18  1  0.85192400  0.68993800  0.00000000  1
  Ge  Ge19  1  0.00000000  0.85192400  0.31006200  1
  Ge  Ge20  1  0.31006200  0.00000000  0.14807600  1
  Ge  Ge21  1  0.14807600  0.68993800  0.00000000  1
  Ge  Ge22  1  0.68993800  0.00000000  0.85192400  1
  Ge  Ge23  1  0.85192400  0.31006200  0.00000000  1
  Ge  Ge24  1  0.00000000  0.14807600  0.31006200  1
  Ge  Ge25  1  0.00000000  0.85192400  0.68993800  1
  Rh  Rh0  1  0.75000000  0.25000000  0.75000000  1
  Rh  Rh1  1  0.25000000  0.75000000  0.25000000  1
  Rh  Rh2  1  0.75000000  0.75000000  0.25000000  1
  Rh  Rh3  1  0.25000000  0.25000000  0.75000000  1
  Rh  Rh4  1  0.25000000  0.75000000  0.75000000  1
  Rh  Rh5  1  0.75000000  0.25000000  0.25000000  1
  Rh  Rh6  1  0.25000000  0.25000000  0.25000000  1
  Rh  Rh7  1  0.75000000  0.75000000  0.75000000  1
loop_
_geom_bond_atom_site_label_1
_geom_bond_atom_site_label_2
_geom_bond_distance
_geom_bond_site_symmetry_2
Dy0 Ge21 3.133886 1_556
Dy0 Ge18 3.133886 1_456
Dy0 Ge15 3.133886 1_556
Dy0 Ge5 3.133886 1_555
Dy0 Ge23 3.133886 1_456
Dy0 Ge8 3.133886 1_455
Dy0 Ge10 3.133886 1_555
Dy0 Ge2 3.133886 1_455
Dy0 Rh3 3.191828 1_555
Dy0 Rh4 3.191828 1_555
Dy0 Rh7 3.191828 1_455
Dy0 Rh0 3.191828 1_455
Dy0 Ge11 3.223056 1_555
Dy0 Ge3 3.223056 1_455
Dy0 Ge25 3.223056 1_555
Dy0 Ge16 3.223056 1_555
Dy1 Ge17 3.133886 1_555
Dy1 Ge22 3.133886 1_554
Dy1 Ge20 3.133886 1_555
Dy1 Ge14 3.133886 1_554
Dy1 Ge9 3.133886 1_555
Dy1 Ge3 3.133886 1_554
Dy1 Ge6 3.133886 1_555
Dy1 Ge11 3.133886 1_554
Dy1 Rh3 3.191828 1_554
Dy1 Rh5 3.191828 1_555
Dy1 Rh0 3.191828 1_554
Dy1 Rh6 3.191828 1_555
Dy1 Ge13 3.223056 1_555
Dy1 Ge4 3.223056 1_554
Dy1 Ge23 3.223056 1_555
Dy1 Ge15 3.223056 1_555
Dy2 Ge16 3.133886 1_655
Dy2 Ge25 3.133886 1_645
Dy2 Ge24 3.133886 1_655
Dy2 Ge4 3.133886 1_555
Dy2 Ge19 3.133886 1_645
Dy2 Ge12 3.133886 1_545
Dy2 Ge13 3.133886 1_555
Dy2 Ge7 3.133886 1_545
Dy2 Rh5 3.191828 1_555
Dy2 Rh7 3.191828 1_545
Dy2 Rh0 3.191828 1_555
Dy2 Rh2 3.191828 1_545
Dy2 Ge2 3.223056 1_555
Dy2 Ge8 3.223056 1_545
Dy2 Ge22 3.223056 1_555
Dy2 Ge17 3.223056 1_555
Dy3 Ge21 3.133886 1_555
Dy3 Ge18 3.133886 1_455
Dy3 Ge15 3.133886 1_555
Dy3 Ge5 3.133886 1_555
Dy3 Ge23 3.133886 1_455
Dy3 Ge8 3.133886 1_455
Dy3 Ge10 3.133886 1_555
Dy3 Ge2 3.133886 1_455
Dy3 Rh2 3.191828 1_455
Dy3 Rh1 3.191828 1_555
Dy3 Rh5 3.191828 1_455
Dy3 Rh6 3.191828 1_555
Dy3 Ge6 3.223056 1_555
Dy3 Ge19 3.223056 1_555
Dy3 Ge9 3.223056 1_455
Dy3 Ge24 3.223056 1_555
Dy4 Ge17 3.133886 1_565
Dy4 Ge22 3.133886 1_564
Dy4 Ge20 3.133886 1_565
Dy4 Ge9 3.133886 1_555
Dy4 Ge14 3.133886 1_564
Dy4 Ge3 3.133886 1_554
Dy4 Ge6 3.133886 1_555
Dy4 Ge11 3.133886 1_554
Dy4 Rh4 3.191828 1_554
Dy4 Rh7 3.191828 1_554
Dy4 Rh1 3.191828 1_555
Dy4 Rh2 3.191828 1_555
Dy4 Ge7 3.223056 1_555
Dy4 Ge12 3.223056 1_554
Dy4 Ge18 3.223056 1_555
Dy4 Ge21 3.223056 1_555
Dy5 Ge16 3.133886 1_555
Dy5 Ge25 3.133886 1_545
Dy5 Ge24 3.133886 1_555
Dy5 Ge4 3.133886 1_555
Dy5 Ge19 3.133886 1_545
Dy5 Ge12 3.133886 1_545
Dy5 Ge13 3.133886 1_555
Dy5 Ge7 3.133886 1_545
Dy5 Rh3 3.191828 1_555
Dy5 Rh4 3.191828 1_545
Dy5 Rh1 3.191828 1_545
Dy5 Rh6 3.191828 1_555
Dy5 Ge10 3.223056 1_555
Dy5 Ge14 3.223056 1_555
Dy5 Ge5 3.223056 1_545
Dy5 Ge20 3.223056 1_555
Ge0 Ge3 3.102022 1_555
Ge0 Ge8 3.102022 1_555
Ge0 Ge12 3.102022 1_555
Ge0 Ge4 3.102022 1_555
Ge0 Ge9 3.102022 1_555
Ge0 Ge5 3.102022 1_555
Ge0 Ge11 3.102022 1_555
Ge0 Ge7 3.102022 1_555
Ge0 Ge2 3.102022 1_555
Ge0 Ge6 3.102022 1_555
Ge0 Ge13 3.102022 1_555
Ge0 Ge10 3.102022 1_555
Ge1 Ge20 3.102022 1_555
Ge1 Ge24 3.102022 1_555
Ge1 Ge15 3.102022 1_555
Ge1 Ge23 3.102022 1_455
Ge1 Ge14 3.102022 1_554
Ge1 Ge19 3.102022 1_545
Ge1 Ge16 3.102022 1_554
Ge1 Ge21 3.102022 1_545
Ge1 Ge17 3.102022 1_455
Ge1 Ge25 3.102022 1_544
Ge1 Ge22 3.102022 1_454
Ge1 Ge18 3.102022 1_445
Ge2 Rh0 2.496914 1_555
Ge2 Rh5 2.496914 1_555
Ge3 Rh0 2.496914 1_555
Ge3 Rh7 2.496914 1_555
Ge4 Rh3 2.496914 1_555
Ge4 Rh0 2.496914 1_555
Ge5 Rh4 2.496914 1_555
Ge5 Rh1 2.496914 1_555
Ge6 Rh6 2.496914 1_555
Ge6 Rh1 2.496914 1_555
Ge7 Rh1 2.496914 1_555
Ge7 Rh2 2.496914 1_555
Ge8 Rh2 2.496914 1_555
Ge8 Rh7 2.496914 1_555
Ge9 Rh2 2.496914 1_555
Ge9 Rh5 2.496914 1_555
Ge10 Rh6 2.496914 1_555
Ge10 Rh3 2.496914 1_555
Ge11 Rh4 2.496914 1_555
Ge11 Rh3 2.496914 1_555
Ge12 Rh4 2.496914 1_555
Ge12 Rh7 2.496914 1_555
Ge13 Rh6 2.496914 1_555
Ge13 Rh5 2.496914 1_555
Ge14 Rh3 2.496914 1_555
Ge14 Rh4 2.496914 1_545
Ge15 Rh3 2.496914 1_554
Ge15 Rh6 2.496914 1_555
Ge16 Rh0 2.496914 1_455
Ge16 Rh3 2.496914 1_555
Ge17 Rh2 2.496914 1_545
Ge17 Rh5 2.496914 1_555
Ge18 Rh2 2.496914 1_555
Ge18 Rh7 2.496914 1_554
Ge19 Rh2 2.496914 1_455
Ge19 Rh1 2.496914 1_555
Ge20 Rh1 2.496914 1_545
Ge20 Rh6 2.496914 1_555
Ge21 Rh4 2.496914 1_554
Ge21 Rh1 2.496914 1_555
Ge22 Rh7 2.496914 1_545
Ge22 Rh0 2.496914 1_555
Ge23 Rh5 2.496914 1_555
Ge23 Rh0 2.496914 1_554
Ge24 Rh5 2.496914 1_455
Ge24 Rh6 2.496914 1_555
Ge25 Rh7 2.496914 1_455
Ge25 Rh4 2.496914 1_555
