# generated using pymatgen
data_NaLaNb4O12
_symmetry_space_group_name_H-M   'P 1'
_cell_length_a   8.96755649
_cell_length_b   8.96755649
_cell_length_c   8.96755649
_cell_angle_alpha   143.39226205
_cell_angle_beta   143.39226205
_cell_angle_gamma   52.73704948
_symmetry_Int_Tables_number   1
_chemical_formula_structural   NaLaNb4O12
_chemical_formula_sum   'Na1 La1 Nb4 O12'
_cell_volume   254.90874624
_cell_formula_units_Z   1
loop_
 _symmetry_equiv_pos_site_id
 _symmetry_equiv_pos_as_xyz
  1  'x, y, z'
loop_
 _atom_site_type_symbol
 _atom_site_label
 _atom_site_symmetry_multiplicity
 _atom_site_fract_x
 _atom_site_fract_y
 _atom_site_fract_z
 _atom_site_occupancy
  Na  Na0  1  0.50000000  0.50000000  0.00000000  1
  La  La0  1  0.00000000  0.00000000  0.00000000  1
  Nb  Nb0  1  0.62915000  0.12915000  0.50000000  1
  Nb  Nb1  1  0.12915000  0.62915000  0.50000000  1
  Nb  Nb2  1  0.87085000  0.37085000  0.50000000  1
  Nb  Nb3  1  0.37085000  0.87085000  0.50000000  1
  O  O0  1  0.35727500  0.87070800  0.00000000  1
  O  O1  1  0.87070800  0.35727500  0.00000000  1
  O  O2  1  0.64272500  0.12929200  0.00000000  1
  O  O3  1  0.12929200  0.64272500  0.00000000  1
  O  O4  1  0.87070800  0.87070800  0.51343200  1
  O  O5  1  0.35727500  0.35727500  0.48656800  1
  O  O6  1  0.12929200  0.12929200  0.48656800  1
  O  O7  1  0.64272500  0.64272500  0.51343200  1
  O  O8  1  0.75000000  0.25000000  0.50000000  1
  O  O9  1  0.25000000  0.75000000  0.50000000  1
  O  O10  1  0.50000000  0.00000000  0.50000000  1
  O  O11  1  0.00000000  0.50000000  0.50000000  1
loop_
_geom_bond_atom_site_label_1
_geom_bond_atom_site_label_2
_geom_bond_distance
_geom_bond_site_symmetry_2
Na0 O7 2.745360 1_555
Na0 O5 2.745360 1_554
Na0 O0 2.745368 1_555
Na0 O1 2.745368 1_555
Na0 O2 2.745368 1_555
Na0 O3 2.745368 1_555
Na0 O4 2.745370 1_555
Na0 O6 2.745370 1_554
Na0 O11 2.816320 1_554
Na0 O10 2.816320 1_554
Na0 O10 2.816320 1_565
Na0 O11 2.816320 1_655
La0 O7 2.666617 1_444
La0 O5 2.666617 1_555
La0 O0 2.666620 1_545
La0 O1 2.666620 1_455
La0 O3 2.666620 1_545
La0 O2 2.666620 1_455
La0 O4 2.666628 1_444
La0 O6 2.666628 1_555
La0 O10 2.816320 1_555
La0 O10 2.816320 1_454
La0 O11 2.816320 1_555
La0 O11 2.816320 1_544
Nb0 O8 1.941947 1_555
Nb0 O4 2.006993 1_545
Nb0 O1 2.006994 1_556
Nb0 O0 2.006994 1_545
Nb0 O5 2.006995 1_555
Nb0 O10 2.075320 1_555
Nb1 O9 1.941947 1_555
Nb1 O4 2.006993 1_455
Nb1 O1 2.006994 1_455
Nb1 O0 2.006994 1_556
Nb1 O5 2.006995 1_555
Nb1 O11 2.075320 1_555
Nb2 O8 1.941947 1_555
Nb2 O6 2.006993 1_655
Nb2 O3 2.006994 1_656
Nb2 O2 2.006994 1_555
Nb2 O7 2.006995 1_555
Nb2 O11 2.075320 1_655
Nb3 O9 1.941947 1_555
Nb3 O6 2.006993 1_565
Nb3 O3 2.006994 1_555
Nb3 O2 2.006994 1_566
Nb3 O7 2.006995 1_555
Nb3 O10 2.075320 1_565
