# generated using pymatgen
data_DyZnPd
_symmetry_space_group_name_H-M   'P 1'
_cell_length_a   7.21810282
_cell_length_b   7.21810282
_cell_length_c   3.85527840
_cell_angle_alpha   90.00000000
_cell_angle_beta   90.00000000
_cell_angle_gamma   119.99999943
_symmetry_Int_Tables_number   1
_chemical_formula_structural   DyZnPd
_chemical_formula_sum   'Dy3 Zn3 Pd3'
_cell_volume   173.95323408
_cell_formula_units_Z   3
loop_
 _symmetry_equiv_pos_site_id
 _symmetry_equiv_pos_as_xyz
  1  'x, y, z'
loop_
 _atom_site_type_symbol
 _atom_site_label
 _atom_site_symmetry_multiplicity
 _atom_site_fract_x
 _atom_site_fract_y
 _atom_site_fract_z
 _atom_site_occupancy
  Dy  Dy0  1  0.40482049  0.40482049  0.50000000  1
  Dy  Dy1  1  0.59517951  0.00000000  0.50000000  1
  Dy  Dy2  1  0.00000000  0.59517951  0.50000000  1
  Zn  Zn0  1  0.75029531  0.75029531  0.00000000  1
  Zn  Zn1  1  0.24970469  -0.00000000  -0.00000000  1
  Zn  Zn2  1  -0.00000000  0.24970469  0.00000000  1
  Pd  Pd0  1  0.66666700  0.33333300  -0.00000000  1
  Pd  Pd1  1  0.33333300  0.66666700  0.00000000  1
  Pd  Pd2  1  0.00000000  -0.00000000  0.50000000  1
loop_
_geom_bond_atom_site_label_1
_geom_bond_atom_site_label_2
_geom_bond_distance
_geom_bond_site_symmetry_2
Dy0 Pd1 2.920540 1_556
Dy0 Pd1 2.920540 1_555
Dy0 Pd0 2.920540 1_555
Dy0 Pd0 2.920540 1_556
Dy0 Pd2 2.922036 1_555
Dy0 Zn0 3.151856 1_556
Dy0 Zn0 3.151856 1_555
Dy0 Zn2 3.199383 1_555
Dy0 Zn2 3.199383 1_556
Dy0 Zn1 3.199383 1_556
Dy0 Zn1 3.199383 1_555
Dy1 Pd0 2.920534 1_555
Dy1 Pd0 2.920534 1_556
Dy1 Pd1 2.920536 1_545
Dy1 Pd1 2.920536 1_546
Dy1 Pd2 2.922036 1_655
Dy1 Zn1 3.151856 1_556
Dy1 Zn1 3.151856 1_555
Dy1 Zn0 3.199383 1_545
Dy1 Zn0 3.199383 1_546
Dy1 Zn2 3.199383 1_655
Dy1 Zn2 3.199383 1_656
Dy2 Pd1 2.920534 1_556
Dy2 Pd1 2.920534 1_555
Dy2 Pd0 2.920536 1_456
Dy2 Pd0 2.920536 1_455
Dy2 Pd2 2.922036 1_565
Dy2 Zn2 3.151856 1_556
Dy2 Zn2 3.151856 1_555
Dy2 Zn0 3.199383 1_455
Dy2 Zn0 3.199383 1_456
Dy2 Zn1 3.199383 1_565
Dy2 Zn1 3.199383 1_566
Pd0 Zn2 2.757851 1_655
Pd0 Zn1 2.757855 1_555
Pd0 Zn0 2.757858 1_555
Pd1 Zn1 2.757851 1_565
Pd1 Zn2 2.757855 1_555
Pd1 Zn0 2.757858 1_555
Pd2 Zn1 2.639018 1_555
Pd2 Zn2 2.639018 1_555
Pd2 Zn1 2.639018 1_556
Pd2 Zn2 2.639018 1_556
Pd2 Zn0 2.639018 1_446
Pd2 Zn0 2.639018 1_445
