# generated using pymatgen
data_Mn5CuN4
_symmetry_space_group_name_H-M   'P 1'
_cell_length_a   7.83466900
_cell_length_b   5.64421600
_cell_length_c   4.65313300
_cell_angle_alpha   90.00000000
_cell_angle_beta   90.00000000
_cell_angle_gamma   90.00000000
_symmetry_Int_Tables_number   1
_chemical_formula_structural   Mn5CuN4
_chemical_formula_sum   'Mn10 Cu2 N8'
_cell_volume   205.76416621
_cell_formula_units_Z   2
loop_
 _symmetry_equiv_pos_site_id
 _symmetry_equiv_pos_as_xyz
  1  'x, y, z'
loop_
 _atom_site_type_symbol
 _atom_site_label
 _atom_site_symmetry_multiplicity
 _atom_site_fract_x
 _atom_site_fract_y
 _atom_site_fract_z
 _atom_site_occupancy
  Mn  Mn0  1  0.56366300  0.48597500  0.25102700  1
  Mn  Mn1  1  0.93633700  0.48597500  0.25102700  1
  Mn  Mn2  1  0.56366300  0.01402500  0.25102700  1
  Mn  Mn3  1  0.93633700  0.01402500  0.25102700  1
  Mn  Mn4  1  0.43633700  0.51402500  0.74897300  1
  Mn  Mn5  1  0.06366300  0.51402500  0.74897300  1
  Mn  Mn6  1  0.43633700  0.98597500  0.74897300  1
  Mn  Mn7  1  0.06366300  0.98597500  0.74897300  1
  Mn  Mn8  1  0.75000000  0.75000000  0.75347600  1
  Mn  Mn9  1  0.25000000  0.25000000  0.24652400  1
  Cu  Cu0  1  0.75000000  0.25000000  0.70659100  1
  Cu  Cu1  1  0.25000000  0.75000000  0.29340900  1
  N  N0  1  0.75000000  0.99856800  0.01635200  1
  N  N1  1  0.75000000  0.50143200  0.01635200  1
  N  N2  1  0.25000000  0.00143200  0.98364800  1
  N  N3  1  0.25000000  0.49856800  0.98364800  1
  N  N4  1  0.54994500  0.75000000  0.51199000  1
  N  N5  1  0.95005500  0.75000000  0.51199000  1
  N  N6  1  0.45005500  0.25000000  0.48801000  1
  N  N7  1  0.04994500  0.25000000  0.48801000  1
loop_
_geom_bond_atom_site_label_1
_geom_bond_atom_site_label_2
_geom_bond_distance
_geom_bond_site_symmetry_2
Mn0 N1 1.825183 1_555
Mn0 N4 1.925306 1_555
Mn0 N6 1.944778 1_555
Mn1 N1 1.825183 1_555
Mn1 N5 1.925306 1_555
Mn1 N7 1.944778 1_655
Mn2 N0 1.825183 1_545
Mn2 N4 1.925306 1_545
Mn2 N6 1.944778 1_555
Mn3 N0 1.825183 1_545
Mn3 N5 1.925306 1_545
Mn3 N7 1.944778 1_655
Mn4 N3 1.825183 1_555
Mn4 N6 1.925306 1_555
Mn4 N4 1.944778 1_555
Mn5 N3 1.825183 1_555
Mn5 N7 1.925306 1_555
Mn5 N5 1.944778 1_455
Mn6 N2 1.825183 1_565
Mn6 N6 1.925306 1_565
Mn6 N4 1.944778 1_555
Mn7 N2 1.825183 1_565
Mn7 N7 1.925306 1_565
Mn7 N5 1.944778 1_455
Mn8 N0 1.861327 1_556
Mn8 N1 1.861327 1_556
Mn8 N4 1.928538 1_555
Mn8 N5 1.928538 1_555
Mn9 N3 1.861327 1_554
Mn9 N2 1.861327 1_554
Mn9 N6 1.928538 1_555
Mn9 N7 1.928538 1_555
Cu0 N1 2.022737 1_556
Cu0 N0 2.022737 1_546
Cu1 N2 2.022737 1_564
Cu1 N3 2.022737 1_554
