# generated using pymatgen
data_Lu2O3
_symmetry_space_group_name_H-M   'P 1'
_cell_length_a   8.88673007
_cell_length_b   8.88673119
_cell_length_c   8.88672962
_cell_angle_alpha   109.47122629
_cell_angle_beta   109.47122879
_cell_angle_gamma   109.47121314
_symmetry_Int_Tables_number   1
_chemical_formula_structural   Lu2O3
_chemical_formula_sum   'Lu16 O24'
_cell_volume   540.26156847
_cell_formula_units_Z   8
loop_
 _symmetry_equiv_pos_site_id
 _symmetry_equiv_pos_as_xyz
  1  'x, y, z'
loop_
 _atom_site_type_symbol
 _atom_site_label
 _atom_site_symmetry_multiplicity
 _atom_site_fract_x
 _atom_site_fract_y
 _atom_site_fract_z
 _atom_site_occupancy
  Lu  Lu0  1  0.25000000  0.71671147  0.46671147  1
  Lu  Lu1  1  0.03328853  0.75000000  0.78328853  1
  Lu  Lu2  1  0.78328853  0.03328853  0.75000000  1
  Lu  Lu3  1  0.46671147  0.25000000  0.71671147  1
  Lu  Lu4  1  0.71671147  0.46671147  0.25000000  1
  Lu  Lu5  1  0.75000000  0.78328853  0.03328853  1
  Lu  Lu6  1  0.75000000  0.28328853  0.53328853  1
  Lu  Lu7  1  0.96671147  0.25000000  0.21671147  1
  Lu  Lu8  1  0.21671147  0.96671147  0.25000000  1
  Lu  Lu9  1  0.53328853  0.75000000  0.28328853  1
  Lu  Lu10  1  0.28328853  0.53328853  0.75000000  1
  Lu  Lu11  1  0.25000000  0.21671147  0.96671147  1
  Lu  Lu12  1  -0.00000000  0.50000000  0.00000000  1
  Lu  Lu13  1  0.50000000  0.00000000  0.00000000  1
  Lu  Lu14  1  -0.00000000  0.00000000  0.50000000  1
  Lu  Lu15  1  0.50000000  0.50000000  0.50000000  1
  O  O0  1  0.03224875  0.48820397  0.76081483  1
  O  O1  1  0.22738713  0.27143392  0.73918517  1
  O  O2  1  0.27261287  0.01179603  0.04404478  1
  O  O3  1  0.22856608  0.45595522  0.46775125  1
  O  O4  1  0.45595522  0.46775125  0.22856608  1
  O  O5  1  0.76081483  0.03224875  0.48820397  1
  O  O6  1  0.27143392  0.73918517  0.22738713  1
  O  O7  1  0.04404478  0.27261287  0.01179603  1
  O  O8  1  0.48820397  0.76081483  0.03224875  1
  O  O9  1  0.73918517  0.22738713  0.27143392  1
  O  O10  1  0.01179603  0.04404478  0.27261287  1
  O  O11  1  0.46775125  0.22856608  0.45595522  1
  O  O12  1  0.96775125  0.51179603  0.23918517  1
  O  O13  1  0.77261287  0.72856608  0.26081483  1
  O  O14  1  0.72738713  0.98820397  0.95595522  1
  O  O15  1  0.77143392  0.54404478  0.53224875  1
  O  O16  1  0.53224875  0.77143392  0.54404478  1
  O  O17  1  0.98820397  0.95595522  0.72738713  1
  O  O18  1  0.26081483  0.77261287  0.72856608  1
  O  O19  1  0.51179603  0.23918517  0.96775125  1
  O  O20  1  0.95595522  0.72738713  0.98820397  1
  O  O21  1  0.72856608  0.26081483  0.77261287  1
  O  O22  1  0.23918517  0.96775125  0.51179603  1
  O  O23  1  0.54404478  0.53224875  0.77143392  1
loop_
_geom_bond_atom_site_label_1
_geom_bond_atom_site_label_2
_geom_bond_distance
_geom_bond_site_symmetry_2
Lu0 O18 2.172439 1_555
Lu0 O22 2.172442 1_555
Lu0 O12 2.194315 1_455
Lu0 O16 2.194315 1_555
Lu0 O3 2.264354 1_555
Lu0 O6 2.264372 1_555
Lu1 O15 2.172441 1_455
Lu1 O17 2.172450 1_455
Lu1 O18 2.194313 1_555
Lu1 O20 2.194320 1_455
Lu1 O0 2.264354 1_555
Lu1 O2 2.264358 1_566
Lu2 O16 2.172442 1_545
Lu2 O14 2.172450 1_545
Lu2 O21 2.194313 1_555
Lu2 O17 2.194320 1_545
Lu2 O5 2.264354 1_555
Lu2 O7 2.264358 1_656
Lu3 O21 2.172439 1_555
Lu3 O19 2.172441 1_555
Lu3 O22 2.194316 1_545
Lu3 O23 2.194316 1_555
Lu3 O11 2.264354 1_555
Lu3 O1 2.264372 1_555
Lu4 O13 2.172439 1_555
Lu4 O12 2.172442 1_555
Lu4 O19 2.194315 1_554
Lu4 O15 2.194315 1_555
Lu4 O4 2.264354 1_555
Lu4 O9 2.264372 1_555
Lu5 O23 2.172441 1_554
Lu5 O20 2.172450 1_554
Lu5 O13 2.194313 1_555
Lu5 O14 2.194320 1_554
Lu5 O8 2.264354 1_555
Lu5 O10 2.264358 1_665
Lu6 O9 2.172439 1_555
Lu6 O5 2.172442 1_555
Lu6 O0 2.194315 1_655
Lu6 O11 2.194315 1_555
Lu6 O15 2.264354 1_555
Lu6 O21 2.264372 1_555
Lu7 O3 2.172441 1_655
Lu7 O10 2.172450 1_655
Lu7 O9 2.194313 1_555
Lu7 O7 2.194320 1_655
Lu7 O12 2.264354 1_555
Lu7 O14 2.264358 1_544
Lu8 O11 2.172442 1_565
Lu8 O2 2.172450 1_565
Lu8 O6 2.194313 1_555
Lu8 O10 2.194320 1_565
Lu8 O22 2.264354 1_555
Lu8 O20 2.264358 1_454
Lu9 O6 2.172439 1_555
Lu9 O8 2.172441 1_555
Lu9 O5 2.194316 1_565
Lu9 O4 2.194316 1_555
Lu9 O16 2.264354 1_555
Lu9 O13 2.264372 1_555
Lu10 O1 2.172439 1_555
Lu10 O0 2.172442 1_555
Lu10 O8 2.194315 1_556
Lu10 O3 2.194315 1_555
Lu10 O23 2.264354 1_555
Lu10 O18 2.264372 1_555
Lu11 O4 2.172441 1_556
Lu11 O7 2.172450 1_556
Lu11 O1 2.194313 1_555
Lu11 O2 2.194320 1_556
Lu11 O19 2.264354 1_555
Lu11 O17 2.264358 1_445
Lu12 O7 2.211040 1_555
Lu12 O20 2.211040 1_454
Lu12 O6 2.211053 1_555
Lu12 O21 2.211053 1_454
Lu12 O0 2.211057 1_554
Lu12 O12 2.211057 1_455
Lu13 O2 2.211039 1_555
Lu13 O14 2.211039 1_544
Lu13 O18 2.211053 1_544
Lu13 O9 2.211053 1_555
Lu13 O8 2.211057 1_545
Lu13 O19 2.211057 1_554
Lu14 O17 2.211039 1_445
Lu14 O10 2.211039 1_555
Lu14 O1 2.211053 1_555
Lu14 O13 2.211053 1_445
Lu14 O5 2.211057 1_455
Lu14 O22 2.211057 1_545
Lu15 O23 2.211057 1_555
Lu15 O4 2.211057 1_555
Lu15 O15 2.211057 1_555
Lu15 O3 2.211057 1_555
Lu15 O11 2.211057 1_555
Lu15 O16 2.211057 1_555
