# generated using pymatgen
data_TaB4
_symmetry_space_group_name_H-M   'P 1'
_cell_length_a   5.31587543
_cell_length_b   5.31587543
_cell_length_c   6.78303000
_cell_angle_alpha   90.00000000
_cell_angle_beta   90.00000000
_cell_angle_gamma   119.99999289
_symmetry_Int_Tables_number   1
_chemical_formula_structural   TaB4
_chemical_formula_sum   'Ta4 B16'
_cell_volume   165.99843405
_cell_formula_units_Z   4
loop_
 _symmetry_equiv_pos_site_id
 _symmetry_equiv_pos_as_xyz
  1  'x, y, z'
loop_
 _atom_site_type_symbol
 _atom_site_label
 _atom_site_symmetry_multiplicity
 _atom_site_fract_x
 _atom_site_fract_y
 _atom_site_fract_z
 _atom_site_occupancy
  Ta  Ta0  1  0.33333300  0.66666700  0.25000000  1
  Ta  Ta1  1  0.66666700  0.33333300  0.75000000  1
  Ta  Ta2  1  0.00000000  0.00000000  0.25000000  1
  Ta  Ta3  1  0.00000000  0.00000000  0.75000000  1
  B  B0  1  0.33668800  0.33668800  0.50000000  1
  B  B1  1  0.66331200  0.00000000  0.50000000  1
  B  B2  1  0.00000000  0.66331200  0.50000000  1
  B  B3  1  0.66331200  0.66331200  0.50000000  1
  B  B4  1  0.00000000  0.33668800  0.50000000  1
  B  B5  1  0.33668800  0.00000000  0.50000000  1
  B  B6  1  0.66331200  0.66331200  0.00000000  1
  B  B7  1  0.33668800  0.00000000  0.00000000  1
  B  B8  1  0.00000000  0.33668800  0.00000000  1
  B  B9  1  0.33668800  0.33668800  0.00000000  1
  B  B10  1  0.00000000  0.66331200  0.00000000  1
  B  B11  1  0.66331200  0.00000000  0.00000000  1
  B  B12  1  0.33333300  0.66666700  0.87514200  1
  B  B13  1  0.66666700  0.33333300  0.12485800  1
  B  B14  1  0.66666700  0.33333300  0.37514200  1
  B  B15  1  0.33333300  0.66666700  0.62485800  1
loop_
_geom_bond_atom_site_label_1
_geom_bond_atom_site_label_2
_geom_bond_distance
_geom_bond_site_symmetry_2
B0 B3 1.736293 1_555
B0 B4 1.789791 1_555
B0 B5 1.789791 1_555
B0 B14 1.955973 1_555
B0 B15 1.955973 1_555
B0 Ta0 2.446254 1_555
B0 Ta1 2.446254 1_555
B0 Ta2 2.465552 1_555
B0 Ta3 2.465552 1_555
B1 B5 1.736292 1_555
B1 B3 1.789791 1_545
B1 B4 1.789792 1_655
B1 B14 1.955968 1_555
B1 B15 1.955971 1_545
B1 Ta1 2.446250 1_555
B1 Ta0 2.446252 1_545
B1 Ta3 2.465552 1_655
B1 Ta2 2.465552 1_655
B2 B4 1.736292 1_555
B2 B3 1.789791 1_455
B2 B5 1.789792 1_565
B2 Ta0 2.446250 1_555
B2 Ta1 2.446252 1_455
B2 Ta3 2.465552 1_565
B2 Ta2 2.465552 1_565
B3 Ta0 2.446254 1_555
B3 Ta1 2.446254 1_555
B3 Ta3 2.465552 1_665
B3 Ta2 2.465552 1_665
B4 Ta1 2.446250 1_455
B4 Ta0 2.446252 1_555
B4 Ta2 2.465552 1_555
B4 Ta3 2.465552 1_555
B5 Ta0 2.446250 1_545
B5 Ta1 2.446252 1_555
B5 Ta2 2.465552 1_555
B5 Ta3 2.465552 1_555
B6 B9 1.736293 1_555
B6 Ta0 2.446254 1_555
B6 Ta1 2.446254 1_554
B6 Ta3 2.465552 1_664
B6 Ta2 2.465552 1_665
B7 B9 1.789791 1_555
B7 Ta0 2.446250 1_545
B7 Ta1 2.446252 1_554
B7 Ta3 2.465552 1_554
B7 Ta2 2.465552 1_555
B8 B9 1.789791 1_555
B8 Ta1 2.446250 1_454
B8 Ta0 2.446252 1_555
B8 Ta3 2.465552 1_554
B8 Ta2 2.465552 1_555
B9 Ta0 2.446254 1_555
B9 Ta1 2.446254 1_554
B9 Ta2 2.465552 1_555
B9 Ta3 2.465552 1_554
B10 B8 1.736292 1_555
B10 B6 1.789791 1_455
B10 B7 1.789792 1_565
B10 B12 1.955968 1_554
B10 B13 1.955971 1_455
B10 Ta0 2.446250 1_555
B10 Ta1 2.446252 1_454
B10 Ta3 2.465552 1_564
B10 Ta2 2.465552 1_565
B11 B7 1.736292 1_555
B11 B6 1.789791 1_545
B11 B8 1.789792 1_655
B11 B13 1.955968 1_555
B11 B12 1.955971 1_544
B11 Ta1 2.446250 1_554
B11 Ta0 2.446252 1_545
B11 Ta3 2.465552 1_654
B11 Ta2 2.465552 1_655
B12 B15 1.697684 1_555
B12 B7 1.955968 1_566
B12 B8 1.955971 1_556
B12 B6 1.955973 1_556
B12 B9 1.955973 1_556
B12 Ta0 2.542673 1_556
B13 B14 1.697684 1_555
B13 B8 1.955968 1_655
B13 B7 1.955971 1_555
B13 B9 1.955973 1_555
B13 B6 1.955973 1_555
B13 Ta1 2.542673 1_554
B14 B4 1.955968 1_655
B14 B2 1.955971 1_655
B14 B5 1.955971 1_555
B14 B3 1.955973 1_555
B14 Ta1 2.542673 1_555
B15 B5 1.955968 1_565
B15 B2 1.955968 1_555
B15 B4 1.955971 1_555
B15 B3 1.955973 1_555
B15 Ta0 2.542673 1_555
