# generated using pymatgen
data_K2FeP4O15
_symmetry_space_group_name_H-M   'P 1'
_cell_length_a   5.22259100
_cell_length_b   13.90379200
_cell_length_c   19.95847000
_cell_angle_alpha   90.00000000
_cell_angle_beta   90.00000000
_cell_angle_gamma   90.00000000
_symmetry_Int_Tables_number   1
_chemical_formula_structural   K2FeP4O15
_chemical_formula_sum   'K8 Fe4 P16 O60'
_cell_volume   1449.26072740
_cell_formula_units_Z   4
loop_
 _symmetry_equiv_pos_site_id
 _symmetry_equiv_pos_as_xyz
  1  'x, y, z'
loop_
 _atom_site_type_symbol
 _atom_site_label
 _atom_site_symmetry_multiplicity
 _atom_site_fract_x
 _atom_site_fract_y
 _atom_site_fract_z
 _atom_site_occupancy
  K  K0  1  0.01656000  0.73945700  0.77842500  1
  K  K1  1  0.98344000  0.23945700  0.22157500  1
  K  K2  1  0.01656000  0.23945700  0.72157500  1
  K  K3  1  0.98344000  0.73945700  0.27842500  1
  K  K4  1  0.22921400  0.91396600  0.06750800  1
  K  K5  1  0.77078600  0.41396600  0.93249200  1
  K  K6  1  0.22921400  0.41396600  0.43249200  1
  K  K7  1  0.77078600  0.91396600  0.56750800  1
  Fe  Fe0  1  0.06851300  0.00782400  0.85938200  1
  Fe  Fe1  1  0.93148700  0.50782400  0.14061800  1
  Fe  Fe2  1  0.06851300  0.50782400  0.64061800  1
  Fe  Fe3  1  0.93148700  0.00782400  0.35938200  1
  P  P0  1  0.43425600  0.15223800  0.35058800  1
  P  P1  1  0.56574400  0.65223800  0.64941200  1
  P  P2  1  0.43425600  0.65223800  0.14941200  1
  P  P3  1  0.56574400  0.15223800  0.85058800  1
  P  P4  1  0.18953500  0.13336300  0.48348900  1
  P  P5  1  0.81046500  0.63336300  0.51651100  1
  P  P6  1  0.18953500  0.63336300  0.01651100  1
  P  P7  1  0.81046500  0.13336300  0.98348900  1
  P  P8  1  0.24260200  0.96806700  0.69917300  1
  P  P9  1  0.75739800  0.46806700  0.30082700  1
  P  P10  1  0.24260200  0.46806700  0.80082700  1
  P  P11  1  0.75739800  0.96806700  0.19917300  1
  P  P12  1  0.42976200  0.85904700  0.40113400  1
  P  P13  1  0.57023800  0.35904700  0.59886600  1
  P  P14  1  0.42976200  0.35904700  0.09886600  1
  P  P15  1  0.57023800  0.85904700  0.90113400  1
  O  O0  1  0.42502000  0.14638300  0.43128000  1
  O  O1  1  0.57498000  0.64638300  0.56872000  1
  O  O2  1  0.42502000  0.64638300  0.06872000  1
  O  O3  1  0.57498000  0.14638300  0.93128000  1
  O  O4  1  0.22577400  0.08484400  0.32214900  1
  O  O5  1  0.77422600  0.58484400  0.67785100  1
  O  O6  1  0.22577400  0.58484400  0.17785100  1
  O  O7  1  0.77422600  0.08484400  0.82214900  1
  O  O8  1  0.37358300  0.25401100  0.32755800  1
  O  O9  1  0.62641700  0.75401100  0.67244200  1
  O  O10  1  0.37358300  0.75401100  0.17244200  1
  O  O11  1  0.62641700  0.25401100  0.82755800  1
  O  O12  1  0.70502200  0.11976900  0.33200400  1
  O  O13  1  0.29497800  0.61976900  0.66799600  1
  O  O14  1  0.70502200  0.61976900  0.16799600  1
  O  O15  1  0.29497800  0.11976900  0.83200400  1
  O  O16  1  0.07272500  0.23218100  0.49670100  1
  O  O17  1  0.92727500  0.73218100  0.50329900  1
  O  O18  1  0.07272500  0.73218100  0.00329900  1
  O  O19  1  0.92727500  0.23218100  0.99670100  1
  O  O20  1  0.30729400  0.09526200  0.54809200  1
  O  O21  1  0.69270600  0.59526200  0.45190800  1
  O  O22  1  0.30729400  0.59526200  0.95190800  1
  O  O23  1  0.69270600  0.09526200  0.04809200  1
  O  O24  1  0.00129200  0.06121200  0.45242800  1
  O  O25  1  0.99870800  0.56121200  0.54757200  1
  O  O26  1  0.00129200  0.56121200  0.04757200  1
  O  O27  1  0.99870800  0.06121200  0.95242800  1
  O  O28  1  0.08847500  0.05721700  0.67739800  1
  O  O29  1  0.91152500  0.55721700  0.32260200  1
  O  O30  1  0.08847500  0.55721700  0.82260200  1
  O  O31  1  0.91152500  0.05721700  0.17739800  1
  O  O32  1  0.53048900  0.99105900  0.69297600  1
  O  O33  1  0.46951100  0.49105900  0.30702400  1
  O  O34  1  0.53048900  0.49105900  0.80702400  1
  O  O35  1  0.46951100  0.99105900  0.19297600  1
  O  O36  1  0.19673300  0.88204600  0.65185900  1
  O  O37  1  0.80326700  0.38204600  0.34814100  1
  O  O38  1  0.19673300  0.38204600  0.84814100  1
  O  O39  1  0.80326700  0.88204600  0.15185900  1
  O  O40  1  0.16146400  0.94118800  0.77142600  1
  O  O41  1  0.83853600  0.44118800  0.22857400  1
  O  O42  1  0.16146400  0.44118800  0.72857400  1
  O  O43  1  0.83853600  0.94118800  0.27142600  1
  O  O44  1  0.41052900  0.82890200  0.47548000  1
  O  O45  1  0.58947100  0.32890200  0.52452000  1
  O  O46  1  0.41052900  0.32890200  0.02452000  1
  O  O47  1  0.58947100  0.82890200  0.97548000  1
  O  O48  1  0.63217900  0.93956900  0.39809100  1
  O  O49  1  0.36782100  0.43956900  0.60190900  1
  O  O50  1  0.63217900  0.43956900  0.10190900  1
  O  O51  1  0.36782100  0.93956900  0.89809100  1
  O  O52  1  0.16899800  0.89632200  0.37524500  1
  O  O53  1  0.83100200  0.39632200  0.62475500  1
  O  O54  1  0.16899800  0.39632200  0.12475500  1
  O  O55  1  0.83100200  0.89632200  0.87524500  1
  O  O56  1  0.50360300  0.76867400  0.36113600  1
  O  O57  1  0.49639700  0.26867400  0.63886400  1
  O  O58  1  0.50360300  0.26867400  0.13886400  1
  O  O59  1  0.49639700  0.76867400  0.86113600  1
loop_
_geom_bond_atom_site_label_1
_geom_bond_atom_site_label_2
_geom_bond_distance
_geom_bond_site_symmetry_2
K0 O30 2.709012 1_555
K0 O40 2.908482 1_555
K0 O9 2.943961 1_455
K0 O59 3.028219 1_555
K0 O55 3.070842 1_455
K0 O13 3.121086 1_555
K0 O5 3.201918 1_455
K0 O59 3.204687 1_455
K0 O36 3.346168 1_555
K1 O31 2.709012 1_555
K1 O41 2.908482 1_555
K1 O8 2.943961 1_655
K1 O58 3.028219 1_555
K1 O54 3.070842 1_655
K1 O12 3.121086 1_555
K1 O4 3.201918 1_655
K1 O58 3.204687 1_655
K1 O37 3.346168 1_555
K2 O28 2.709012 1_555
K2 O42 2.908482 1_555
K2 O11 2.943961 1_455
K2 O57 3.028219 1_555
K2 O53 3.070842 1_455
K2 O15 3.121086 1_555
K2 O7 3.201918 1_455
K2 O57 3.204687 1_455
K2 O38 3.346168 1_555
K3 O29 2.709012 1_555
K3 O43 2.908482 1_555
K3 O10 2.943961 1_655
K3 O56 3.028219 1_555
K3 O52 3.070842 1_655
K3 O14 3.121086 1_555
K3 O6 3.201918 1_655
K3 O56 3.204687 1_655
K3 O39 3.346168 1_555
K4 O39 2.824855 1_455
K4 O47 2.883117 1_554
K4 O18 2.949319 1_555
K4 O35 2.999110 1_555
K4 O10 3.146548 1_555
K4 O27 3.303931 1_464
K5 O38 2.824855 1_655
K5 O46 2.883117 1_556
K5 O19 2.949319 1_555
K5 O34 2.999110 1_555
K5 O11 3.146548 1_555
K5 O26 3.303931 1_656
K6 O37 2.824855 1_455
K6 O45 2.883117 1_555
K6 O16 2.949319 1_555
K6 O33 2.999110 1_555
K6 O8 3.146548 1_555
K6 O25 3.303931 1_455
K7 O36 2.824855 1_655
K7 O44 2.883117 1_555
K7 O17 2.949319 1_555
K7 O32 2.999110 1_555
K7 O9 3.146548 1_555
K7 O24 3.303931 1_665
Fe0 O51 1.985184 1_545
Fe0 O55 2.010551 1_445
Fe0 O7 2.015234 1_455
Fe0 O15 2.029780 1_555
Fe0 O27 2.032871 1_455
Fe0 O40 2.043456 1_545
Fe1 O50 1.985184 1_555
Fe1 O54 2.010551 1_655
Fe1 O6 2.015234 1_655
Fe1 O14 2.029780 1_555
Fe1 O26 2.032871 1_655
Fe1 O41 2.043456 1_555
Fe2 O49 1.985184 1_555
Fe2 O53 2.010551 1_455
Fe2 O5 2.015234 1_455
Fe2 O13 2.029780 1_555
Fe2 O25 2.032871 1_455
Fe2 O42 2.043456 1_555
Fe3 O48 1.985184 1_545
Fe3 O52 2.010551 1_645
Fe3 O4 2.015234 1_655
Fe3 O12 2.029780 1_555
Fe3 O24 2.032871 1_655
Fe3 O43 2.043456 1_545
O0 P0 1.613266 1_555
O0 P4 1.622057 1_555
O1 P1 1.613266 1_555
O1 P5 1.622057 1_555
O2 P2 1.613266 1_555
O2 P6 1.622057 1_555
O3 P3 1.613266 1_555
O3 P7 1.622057 1_555
O4 P0 1.544577 1_555
O5 P1 1.544577 1_555
O6 P2 1.544577 1_555
O7 P3 1.544577 1_555
O8 P0 1.521181 1_555
O9 P1 1.521181 1_555
O10 P2 1.521181 1_555
O11 P3 1.521181 1_555
O12 P0 1.530050 1_555
O13 P1 1.530050 1_555
O14 P2 1.530050 1_555
O15 P3 1.530050 1_555
O16 P4 1.526244 1_555
O17 P5 1.526244 1_555
O18 P6 1.526244 1_555
O19 P7 1.526244 1_555
O20 P4 1.523601 1_555
O21 P5 1.523601 1_555
O22 P6 1.523601 1_556
O23 P7 1.523601 1_554
O24 P4 1.535313 1_555
O25 P5 1.535313 1_555
O26 P6 1.535313 1_555
O27 P7 1.535313 1_555
O28 P8 1.540527 1_545
O29 P9 1.540527 1_555
O30 P10 1.540527 1_555
O31 P11 1.540527 1_545
O32 P8 1.542093 1_555
O33 P9 1.542093 1_555
O34 P10 1.542093 1_555
O35 P11 1.542093 1_555
O36 P8 1.542588 1_555
O37 P9 1.542588 1_555
O38 P10 1.542588 1_555
O39 P11 1.542588 1_555
O40 P8 1.548795 1_555
O41 P9 1.548795 1_555
O42 P10 1.548795 1_555
O43 P11 1.548795 1_555
O44 P12 1.545159 1_555
O45 P13 1.545159 1_555
O46 P14 1.545159 1_555
O47 P15 1.545159 1_555
O48 P12 1.540991 1_555
O49 P13 1.540991 1_555
O50 P14 1.540991 1_555
O51 P15 1.540991 1_555
O52 P12 1.546045 1_555
O53 P13 1.546045 1_555
O54 P14 1.546045 1_555
O55 P15 1.546045 1_555
O56 P12 1.537811 1_555
O57 P13 1.537811 1_555
O58 P14 1.537811 1_555
O59 P15 1.537811 1_555
