# generated using pymatgen
data_YbH2ClO2
_symmetry_space_group_name_H-M   'P 1'
_cell_length_a   3.69887400
_cell_length_b   6.13855500
_cell_length_c   13.44591100
_cell_angle_alpha   90.00000000
_cell_angle_beta   90.00000000
_cell_angle_gamma   90.00000000
_symmetry_Int_Tables_number   1
_chemical_formula_structural   YbH2ClO2
_chemical_formula_sum   'Yb4 H8 Cl4 O8'
_cell_volume   305.29937922
_cell_formula_units_Z   4
loop_
 _symmetry_equiv_pos_site_id
 _symmetry_equiv_pos_as_xyz
  1  'x, y, z'
loop_
 _atom_site_type_symbol
 _atom_site_label
 _atom_site_symmetry_multiplicity
 _atom_site_fract_x
 _atom_site_fract_y
 _atom_site_fract_z
 _atom_site_occupancy
  Yb  Yb0  1  0.75000000  0.23890700  0.53900200  1
  Yb  Yb1  1  0.75000000  0.26109300  0.03900200  1
  Yb  Yb2  1  0.25000000  0.76109300  0.46099800  1
  Yb  Yb3  1  0.25000000  0.73890700  0.96099800  1
  H  H0  1  0.25000000  0.55656700  0.65870700  1
  H  H1  1  0.25000000  0.94343300  0.15870700  1
  H  H2  1  0.75000000  0.44343300  0.34129300  1
  H  H3  1  0.75000000  0.05656700  0.84129300  1
  H  H4  1  0.25000000  0.17804100  0.37631900  1
  H  H5  1  0.25000000  0.32195900  0.87631900  1
  H  H6  1  0.75000000  0.82195900  0.62368100  1
  H  H7  1  0.75000000  0.67804100  0.12368100  1
  Cl  Cl0  1  0.25000000  0.15979800  0.70584100  1
  Cl  Cl1  1  0.25000000  0.34020200  0.20584100  1
  Cl  Cl2  1  0.75000000  0.84020200  0.29415900  1
  Cl  Cl3  1  0.75000000  0.65979800  0.79415900  1
  O  O0  1  0.25000000  0.47507900  0.59621300  1
  O  O1  1  0.25000000  0.02492100  0.09621300  1
  O  O2  1  0.75000000  0.52492100  0.40378700  1
  O  O3  1  0.75000000  0.97507900  0.90378700  1
  O  O4  1  0.25000000  0.13983600  0.44683000  1
  O  O5  1  0.25000000  0.36016400  0.94683000  1
  O  O6  1  0.75000000  0.86016400  0.55317000  1
  O  O7  1  0.75000000  0.63983600  0.05317000  1
loop_
_geom_bond_atom_site_label_1
_geom_bond_atom_site_label_2
_geom_bond_distance
_geom_bond_site_symmetry_2
H0 O0 0.977908 1_555
H1 O1 0.977908 1_565
H2 O2 0.977908 1_555
H3 O3 0.977908 1_545
H4 O4 0.976661 1_555
H5 O5 0.976661 1_555
H6 O6 0.976661 1_555
H7 O7 0.976661 1_555
Cl0 Yb0 2.947651 1_555
Cl0 Yb0 2.947651 1_455
Cl1 Yb1 2.947651 1_455
Cl1 Yb1 2.947651 1_555
Cl2 Yb2 2.947651 1_655
Cl2 Yb2 2.947651 1_555
Cl3 Yb3 2.947651 1_555
Cl3 Yb3 2.947651 1_655
O0 Yb0 2.472642 1_455
O0 Yb0 2.472642 1_555
O0 Yb2 2.527444 1_555
O1 Yb1 2.472642 1_555
O1 Yb1 2.472642 1_455
O1 Yb3 2.527444 1_544
O2 Yb2 2.472642 1_555
O2 Yb2 2.472642 1_655
O2 Yb0 2.527444 1_555
O3 Yb3 2.472642 1_655
O3 Yb3 2.472642 1_555
O3 Yb1 2.527444 1_566
O4 Yb0 2.307861 1_555
O4 Yb0 2.307861 1_455
O4 Yb2 2.332726 1_545
O5 Yb1 2.307861 1_456
O5 Yb1 2.307861 1_556
O5 Yb3 2.332726 1_555
O6 Yb2 2.307861 1_655
O6 Yb2 2.307861 1_555
O6 Yb0 2.332726 1_565
O7 Yb3 2.307861 1_654
O7 Yb3 2.307861 1_554
O7 Yb1 2.332726 1_555
