# generated using pymatgen
data_SrGe3Pt
_symmetry_space_group_name_H-M   'P 1'
_cell_length_a   5.98299835
_cell_length_b   5.98299835
_cell_length_c   5.98299835
_cell_angle_alpha   135.68324049
_cell_angle_beta   135.68324049
_cell_angle_gamma   64.47043235
_symmetry_Int_Tables_number   1
_chemical_formula_structural   SrGe3Pt
_chemical_formula_sum   'Sr1 Ge3 Pt1'
_cell_volume   103.08320380
_cell_formula_units_Z   1
loop_
 _symmetry_equiv_pos_site_id
 _symmetry_equiv_pos_as_xyz
  1  'x, y, z'
loop_
 _atom_site_type_symbol
 _atom_site_label
 _atom_site_symmetry_multiplicity
 _atom_site_fract_x
 _atom_site_fract_y
 _atom_site_fract_z
 _atom_site_occupancy
  Sr  Sr0  1  0.00049099  0.00049099  0.00000000  1
  Ge  Ge0  1  0.25566106  0.75566106  0.50000000  1
  Ge  Ge1  1  0.75566106  0.25566106  0.50000000  1
  Ge  Ge2  1  0.40158048  0.40158048  -0.00000000  1
  Pt  Pt0  1  0.64660441  0.64660441  0.00000000  1
loop_
_geom_bond_atom_site_label_1
_geom_bond_atom_site_label_2
_geom_bond_distance
_geom_bond_site_symmetry_2
Ge0 Pt0 2.512104 1_455
Ge0 Pt0 2.512104 1_556
Ge0 Ge2 2.696958 1_566
Ge0 Ge2 2.696958 1_555
Ge0 Sr0 3.351580 1_565
Ge0 Sr0 3.351580 1_666
Ge0 Sr0 3.429686 1_555
Ge0 Sr0 3.429686 1_566
Ge1 Pt0 2.512104 1_545
Ge1 Pt0 2.512104 1_556
Ge1 Ge2 2.696958 1_555
Ge1 Ge2 2.696958 1_656
Ge1 Sr0 3.351580 1_655
Ge1 Sr0 3.351580 1_666
Ge1 Sr0 3.429686 1_555
Ge1 Sr0 3.429686 1_656
Ge2 Pt0 2.480040 1_555
Ge2 Sr0 3.344656 1_554
Ge2 Sr0 3.344656 1_565
Ge2 Sr0 3.344656 1_666
Ge2 Sr0 3.344656 1_655
Pt0 Sr0 3.517330 1_565
Pt0 Sr0 3.517330 1_666
Pt0 Sr0 3.517330 1_554
Pt0 Sr0 3.517330 1_655
Pt0 Sr0 3.581907 1_665
