# generated using pymatgen
data_K2GaP2
_symmetry_space_group_name_H-M   'P 1'
_cell_length_a   13.98102857
_cell_length_b   8.67573813
_cell_length_c   10.94037050
_cell_angle_alpha   61.49291653
_cell_angle_beta   90.00000000
_cell_angle_gamma   90.00000000
_symmetry_Int_Tables_number   1
_chemical_formula_structural   K2GaP2
_chemical_formula_sum   'K16 Ga8 P16'
_cell_volume   1166.12991353
_cell_formula_units_Z   8
loop_
 _symmetry_equiv_pos_site_id
 _symmetry_equiv_pos_as_xyz
  1  'x, y, z'
loop_
 _atom_site_type_symbol
 _atom_site_label
 _atom_site_symmetry_multiplicity
 _atom_site_fract_x
 _atom_site_fract_y
 _atom_site_fract_z
 _atom_site_occupancy
  K  K0  1  0.11691625  0.51174052  0.93280915  1
  K  K1  1  0.38308375  0.51174052  0.43280915  1
  K  K2  1  0.88308375  0.48825948  0.06719085  1
  K  K3  1  0.61321710  0.21365264  0.97320195  1
  K  K4  1  0.62817055  0.01259452  0.46193817  1
  K  K5  1  0.38678290  0.78634736  0.02679805  1
  K  K6  1  0.88678290  0.21365264  0.47320195  1
  K  K7  1  0.86706665  0.57603342  0.60032974  1
  K  K8  1  0.36706665  0.42396658  0.89967026  1
  K  K9  1  0.13293335  0.42396658  0.39967026  1
  K  K10  1  0.63293335  0.57603342  0.10032974  1
  K  K11  1  0.87182945  0.01259452  0.96193817  1
  K  K12  1  0.37182945  0.98740548  0.53806183  1
  K  K13  1  0.12817055  0.98740548  0.03806183  1
  K  K14  1  0.61691625  0.48825948  0.56719085  1
  K  K15  1  0.11321710  0.78634736  0.52679805  1
  Ga  Ga0  1  0.55842628  0.00647499  0.75774838  1
  Ga  Ga1  1  0.05842628  0.99352501  0.74225162  1
  Ga  Ga2  1  0.44157372  0.99352501  0.24225162  1
  Ga  Ga3  1  0.78344387  0.85547177  0.75340870  1
  Ga  Ga4  1  0.28344387  0.14452823  0.74659130  1
  Ga  Ga5  1  0.21655613  0.14452823  0.24659130  1
  Ga  Ga6  1  0.71655613  0.85547177  0.25340870  1
  Ga  Ga7  1  0.94157372  0.00647499  0.25774838  1
  P  P0  1  0.53660269  0.73415098  0.77849763  1
  P  P1  1  0.31757597  0.36499758  0.21877493  1
  P  P2  1  0.81757597  0.63500242  0.28122507  1
  P  P3  1  0.71349999  0.10827198  0.72543589  1
  P  P4  1  0.21349999  0.89172802  0.77456411  1
  P  P5  1  0.28650001  0.89172802  0.27456411  1
  P  P6  1  0.78650001  0.10827198  0.22543589  1
  P  P7  1  0.55551101  0.79420732  0.25605917  1
  P  P8  1  0.05551101  0.20579268  0.24394083  1
  P  P9  1  0.44448899  0.20579268  0.74394083  1
  P  P10  1  0.68242403  0.63500242  0.78122507  1
  P  P11  1  0.94448899  0.79420732  0.75605917  1
  P  P12  1  0.96339731  0.73415098  0.27849763  1
  P  P13  1  0.46339731  0.26584902  0.22150237  1
  P  P14  1  0.03660269  0.26584902  0.72150237  1
  P  P15  1  0.18242403  0.36499758  0.71877493  1
loop_
_geom_bond_atom_site_label_1
_geom_bond_atom_site_label_2
_geom_bond_distance
_geom_bond_site_symmetry_2
K0 P4 3.200128 1_555
K0 P8 3.277913 1_556
K0 P15 3.284560 1_555
K0 P11 3.321584 1_455
K1 P5 3.200128 1_555
K1 P9 3.277913 1_555
K1 P1 3.284560 1_555
K1 P7 3.321584 1_555
K2 P6 3.200128 1_555
K2 P11 3.277913 1_554
K2 P2 3.284560 1_555
K2 P8 3.321584 1_655
K3 P10 3.373675 1_555
K3 P6 3.451379 1_556
K3 P9 3.467540 1_555
K3 P3 3.537629 1_555
K3 P7 3.566569 1_546
K3 P13 3.625761 1_556
K4 P6 3.199022 1_555
K4 P0 3.388655 1_545
K4 P13 3.396630 1_555
K4 P10 3.547657 1_545
K4 P3 3.564643 1_555
K5 P1 3.373675 1_555
K5 P4 3.451379 1_554
K5 P7 3.467540 1_555
K5 P5 3.537629 1_555
K5 P9 3.566569 1_564
K5 P0 3.625761 1_554
K6 P2 3.373675 1_555
K6 P3 3.451379 1_555
K6 P8 3.467540 1_655
K6 P6 3.537629 1_555
K6 P11 3.566569 1_545
K6 P14 3.625761 1_655
K7 P11 3.276495 1_555
K7 P14 3.348475 1_655
K7 P2 3.350163 1_555
K7 P12 3.388575 1_555
K7 P10 3.436420 1_555
K8 P9 3.276495 1_555
K8 P0 3.348475 1_555
K8 P1 3.350163 1_556
K8 P13 3.388575 1_556
K8 P15 3.436420 1_555
K9 P8 3.276495 1_555
K9 P12 3.348475 1_455
K9 P15 3.350163 1_555
K9 P14 3.388575 1_555
K9 P1 3.436420 1_555
K10 P7 3.276495 1_555
K10 P13 3.348475 1_555
K10 P10 3.350163 1_554
K10 P0 3.388575 1_554
K10 P2 3.436420 1_555
K11 P3 3.199022 1_555
K11 P12 3.388655 1_546
K11 P14 3.396630 1_655
K11 P2 3.547657 1_546
K11 P6 3.564643 1_556
K12 P4 3.199022 1_555
K12 P13 3.388655 1_565
K12 P0 3.396630 1_555
K12 P1 3.547657 1_565
K12 P5 3.564643 1_555
K13 P5 3.199022 1_555
K13 P14 3.388655 1_564
K13 P12 3.396630 1_455
K13 P15 3.547657 1_564
K13 P4 3.564643 1_554
K14 P3 3.200128 1_555
K14 P7 3.277913 1_555
K14 P10 3.284560 1_555
K14 P9 3.321584 1_555
K15 P15 3.373675 1_555
K15 P5 3.451379 1_555
K15 P11 3.467540 1_455
K15 P4 3.537629 1_555
K15 P8 3.566569 1_565
K15 P12 3.625761 1_455
Ga0 P0 2.283555 1_545
Ga0 P9 2.302440 1_555
Ga0 P3 2.303812 1_555
Ga0 K5 3.564323 1_546
Ga0 K3 3.663029 1_555
Ga1 P14 2.283555 1_565
Ga1 P11 2.302440 1_455
Ga1 P4 2.303812 1_555
Ga1 K6 3.564323 1_465
Ga1 K15 3.663029 1_555
Ga2 P13 2.283555 1_565
Ga2 P7 2.302440 1_555
Ga2 P5 2.303812 1_555
Ga2 K3 3.564323 1_564
Ga2 K5 3.663029 1_555
Ga3 P10 2.278225 1_555
Ga3 P3 2.284620 1_565
Ga3 P11 2.310462 1_555
Ga3 K6 3.471090 1_565
Ga4 P15 2.278225 1_555
Ga4 P4 2.284620 1_545
Ga4 P9 2.310462 1_555
Ga4 K5 3.471090 1_546
Ga5 P1 2.278225 1_555
Ga5 P5 2.284620 1_545
Ga5 P8 2.310462 1_555
Ga5 K15 3.471090 1_545
Ga6 P2 2.278225 1_555
Ga6 P6 2.284620 1_565
Ga6 P7 2.310462 1_555
Ga6 K3 3.471090 1_564
Ga7 P12 2.283555 1_545
Ga7 P8 2.302440 1_655
Ga7 P6 2.303812 1_555
Ga7 K15 3.564323 1_645
Ga7 K6 3.663029 1_555
P0 P10 2.207429 1_555
P1 P13 2.207429 1_555
P12 P2 2.207429 1_555
P14 P15 2.207429 1_555
