# generated using pymatgen
data_Mg6VCoO8
_symmetry_space_group_name_H-M   'P 1'
_cell_length_a   8.62915593
_cell_length_b   4.26631076
_cell_length_c   4.26631076
_cell_angle_alpha   90.00000000
_cell_angle_beta   90.00000000
_cell_angle_gamma   90.00000000
_symmetry_Int_Tables_number   1
_chemical_formula_structural   Mg6VCoO8
_chemical_formula_sum   'Mg6 V1 Co1 O8'
_cell_volume   157.06278347
_cell_formula_units_Z   1
loop_
 _symmetry_equiv_pos_site_id
 _symmetry_equiv_pos_as_xyz
  1  'x, y, z'
loop_
 _atom_site_type_symbol
 _atom_site_label
 _atom_site_symmetry_multiplicity
 _atom_site_fract_x
 _atom_site_fract_y
 _atom_site_fract_z
 _atom_site_occupancy
  Mg  Mg0  1  0.00000000  0.50000000  0.50000000  1
  Mg  Mg1  1  0.50000000  0.50000000  0.50000000  1
  Mg  Mg2  1  0.24731842  0.00000000  0.50000000  1
  Mg  Mg3  1  0.75268158  0.00000000  0.50000000  1
  Mg  Mg4  1  0.24731842  0.50000000  0.00000000  1
  Mg  Mg5  1  0.75268158  0.50000000  0.00000000  1
  V  V0  1  0.50000000  0.00000000  0.00000000  1
  Co  Co0  1  0.00000000  0.00000000  0.00000000  1
  O  O0  1  0.25109917  0.00000000  0.00000000  1
  O  O1  1  0.74890083  0.00000000  0.00000000  1
  O  O2  1  0.24881479  0.50000000  0.50000000  1
  O  O3  1  0.75118521  0.50000000  0.50000000  1
  O  O4  1  0.00000000  0.00000000  0.50000000  1
  O  O5  1  0.50000000  0.00000000  0.50000000  1
  O  O6  1  0.00000000  0.50000000  0.00000000  1
  O  O7  1  0.50000000  0.50000000  0.00000000  1
loop_
_geom_bond_atom_site_label_1
_geom_bond_atom_site_label_2
_geom_bond_distance
_geom_bond_site_symmetry_2
Mg0 O4 2.133155 1_565
Mg0 O6 2.133155 1_556
Mg0 O6 2.133155 1_555
Mg0 O4 2.133155 1_555
Mg0 O3 2.147062 1_455
Mg0 O2 2.147062 1_555
Mg1 O7 2.133155 1_556
Mg1 O5 2.133155 1_555
Mg1 O5 2.133155 1_565
Mg1 O7 2.133155 1_555
Mg1 O2 2.167516 1_555
Mg1 O3 2.167516 1_555
Mg2 O2 2.133194 1_555
Mg2 O2 2.133194 1_545
Mg2 O0 2.133405 1_555
Mg2 O0 2.133405 1_556
Mg2 O4 2.134149 1_555
Mg2 O5 2.180429 1_555
Mg3 O3 2.133194 1_545
Mg3 O3 2.133194 1_555
Mg3 O1 2.133405 1_555
Mg3 O1 2.133405 1_556
Mg3 O4 2.134149 1_655
Mg3 O5 2.180429 1_555
Mg4 O2 2.133194 1_554
Mg4 O2 2.133194 1_555
Mg4 O0 2.133405 1_555
Mg4 O0 2.133405 1_565
Mg4 O6 2.134149 1_555
Mg4 O7 2.180429 1_555
Mg5 O3 2.133194 1_555
Mg5 O3 2.133194 1_554
Mg5 O1 2.133405 1_565
Mg5 O1 2.133405 1_555
Mg5 O6 2.134149 1_655
Mg5 O7 2.180429 1_555
Co0 O4 2.133155 1_554
Co0 O6 2.133155 1_545
Co0 O6 2.133155 1_555
Co0 O4 2.133155 1_555
Co0 O0 2.166774 1_555
Co0 O1 2.166774 1_455
O0 V0 2.147804 1_555
O1 V0 2.147804 1_555
O5 V0 2.133155 1_555
O5 V0 2.133155 1_556
O7 V0 2.133155 1_555
O7 V0 2.133155 1_565
