# generated using pymatgen
data_Nd10(SiGe)3
_symmetry_space_group_name_H-M   'P 1'
_cell_length_a   8.83934224
_cell_length_b   8.83934224
_cell_length_c   6.68266300
_cell_angle_alpha   90.00000000
_cell_angle_beta   90.00000000
_cell_angle_gamma   120.00000178
_symmetry_Int_Tables_number   1
_chemical_formula_structural   Nd10(SiGe)3
_chemical_formula_sum   'Nd10 Si3 Ge3'
_cell_volume   452.18909292
_cell_formula_units_Z   1
loop_
 _symmetry_equiv_pos_site_id
 _symmetry_equiv_pos_as_xyz
  1  'x, y, z'
loop_
 _atom_site_type_symbol
 _atom_site_label
 _atom_site_symmetry_multiplicity
 _atom_site_fract_x
 _atom_site_fract_y
 _atom_site_fract_z
 _atom_site_occupancy
  Nd  Nd0  1  0.66666700  0.33333300  0.75291400  1
  Nd  Nd1  1  0.33333300  0.66666700  0.75291400  1
  Nd  Nd2  1  0.33333300  0.66666700  0.24708600  1
  Nd  Nd3  1  0.66666700  0.33333300  0.24708600  1
  Nd  Nd4  1  0.75510900  0.75510900  0.50000000  1
  Nd  Nd5  1  0.24489100  0.00000000  0.50000000  1
  Nd  Nd6  1  0.00000000  0.24489100  0.50000000  1
  Nd  Nd7  1  0.24502500  0.24502500  0.00000000  1
  Nd  Nd8  1  0.75497500  0.00000000  0.00000000  1
  Nd  Nd9  1  0.00000000  0.75497500  0.00000000  1
  Si  Si0  1  0.60638700  0.60638700  0.00000000  1
  Si  Si1  1  0.39361300  0.00000000  0.00000000  1
  Si  Si2  1  0.00000000  0.39361300  0.00000000  1
  Ge  Ge0  1  0.39390000  0.39390000  0.50000000  1
  Ge  Ge1  1  0.60610000  0.00000000  0.50000000  1
  Ge  Ge2  1  0.00000000  0.60610000  0.50000000  1
loop_
_geom_bond_atom_site_label_1
_geom_bond_atom_site_label_2
_geom_bond_distance
_geom_bond_site_symmetry_2
Nd0 Si2 3.181496 1_656
Nd0 Si1 3.181498 1_556
Nd0 Si0 3.181503 1_556
Nd1 Si1 3.181496 1_566
Nd1 Si2 3.181498 1_556
Nd1 Si0 3.181503 1_556
Nd2 Si1 3.181496 1_565
Nd2 Si2 3.181498 1_555
Nd2 Si0 3.181503 1_555
Nd3 Si2 3.181496 1_655
Nd3 Si1 3.181498 1_555
Nd3 Si0 3.181503 1_555
Nd4 Si0 3.590638 1_556
Nd4 Si0 3.590638 1_555
Nd5 Si1 3.590638 1_555
Nd5 Si1 3.590638 1_556
Nd6 Si2 3.590638 1_555
Nd6 Si2 3.590638 1_556
Nd7 Si2 3.043141 1_555
Nd7 Si1 3.043141 1_555
Nd7 Si0 3.194202 1_555
Nd8 Si2 3.043141 1_655
Nd8 Si0 3.043141 1_545
Nd8 Si1 3.194202 1_555
Nd9 Si1 3.043141 1_565
Nd9 Si0 3.043141 1_455
Nd9 Si2 3.194202 1_555
Ge0 Nd6 3.044974 1_555
Ge0 Nd5 3.044974 1_555
Ge0 Nd4 3.192850 1_555
Ge0 Nd0 3.201145 1_555
Ge0 Nd3 3.201145 1_555
Ge0 Nd1 3.201145 1_555
Ge0 Nd2 3.201145 1_555
Ge0 Nd7 3.591133 1_556
Ge0 Nd7 3.591133 1_555
Ge1 Nd6 3.044974 1_655
Ge1 Nd4 3.044974 1_545
Ge1 Nd5 3.192850 1_555
Ge1 Nd0 3.201138 1_555
Ge1 Nd3 3.201138 1_555
Ge1 Nd2 3.201140 1_545
Ge1 Nd1 3.201140 1_545
Ge1 Nd8 3.591133 1_555
Ge1 Nd8 3.591133 1_556
Ge2 Nd5 3.044974 1_565
Ge2 Nd4 3.044974 1_455
Ge2 Nd6 3.192850 1_555
Ge2 Nd1 3.201138 1_555
Ge2 Nd2 3.201138 1_555
Ge2 Nd0 3.201140 1_455
Ge2 Nd3 3.201140 1_455
Ge2 Nd9 3.591133 1_555
Ge2 Nd9 3.591133 1_556
