# generated using pymatgen
data_HoAlAu
_symmetry_space_group_name_H-M   'P 1'
_cell_length_a   4.43642568
_cell_length_b   7.12423645
_cell_length_c   7.73640337
_cell_angle_alpha   89.99925763
_cell_angle_beta   90.00000000
_cell_angle_gamma   90.00000000
_symmetry_Int_Tables_number   1
_chemical_formula_structural   HoAlAu
_chemical_formula_sum   'Ho4 Al4 Au4'
_cell_volume   244.51789084
_cell_formula_units_Z   4
loop_
 _symmetry_equiv_pos_site_id
 _symmetry_equiv_pos_as_xyz
  1  'x, y, z'
loop_
 _atom_site_type_symbol
 _atom_site_label
 _atom_site_symmetry_multiplicity
 _atom_site_fract_x
 _atom_site_fract_y
 _atom_site_fract_z
 _atom_site_occupancy
  Ho  Ho0  1  0.25000000  0.00794566  0.30078510  1
  Ho  Ho1  1  0.25000000  0.50793420  0.19929856  1
  Ho  Ho2  1  0.75000000  0.99204725  0.69927728  1
  Ho  Ho3  1  0.75000000  0.49205749  0.80063803  1
  Al  Al0  1  0.25000000  0.17527444  0.92211184  1
  Al  Al1  1  0.25000000  0.67524207  0.57787595  1
  Al  Al2  1  0.75000000  0.82474156  0.07782856  1
  Al  Al3  1  0.75000000  0.32475156  0.42219231  1
  Au  Au0  1  0.25000000  0.28585963  0.59390738  1
  Au  Au1  1  0.25000000  0.78584383  0.90604182  1
  Au  Au2  1  0.75000000  0.71413557  0.40621958  1
  Au  Au3  1  0.75000000  0.21416573  0.09382459  1
loop_
_geom_bond_atom_site_label_1
_geom_bond_atom_site_label_2
_geom_bond_distance
_geom_bond_site_symmetry_2
Al0 Au3 2.600384 1_456
Al0 Au3 2.600384 1_556
Al0 Au0 2.658528 1_555
Al0 Au1 2.777182 1_545
Al0 Ho2 3.097812 1_545
Al0 Ho2 3.097812 1_445
Al0 Ho0 3.162809 1_556
Al0 Ho1 3.196146 1_556
Al0 Ho3 3.301045 1_555
Al0 Ho3 3.301045 1_455
Al1 Au2 2.600159 1_555
Al1 Au2 2.600159 1_455
Al1 Au1 2.658298 1_555
Al1 Au0 2.776822 1_555
Al1 Ho3 3.097353 1_555
Al1 Ho3 3.097353 1_455
Al1 Ho1 3.162095 1_555
Al1 Ho0 3.195839 1_565
Al1 Ho2 3.301010 1_555
Al1 Ho2 3.301010 1_455
Al2 Au1 2.600681 1_554
Al2 Au1 2.600681 1_654
Al2 Au2 2.659951 1_555
Al2 Au3 2.777110 1_565
Al2 Ho0 3.098268 1_565
Al2 Ho0 3.098268 1_665
Al2 Ho2 3.161873 1_554
Al2 Ho3 3.196295 1_554
Al2 Ho1 3.301155 1_655
Al2 Ho1 3.301155 1_555
Al3 Au0 2.600390 1_555
Al3 Au0 2.600390 1_655
Al3 Au3 2.659756 1_555
Al3 Au2 2.776813 1_555
Al3 Ho1 3.097914 1_555
Al3 Ho1 3.097914 1_655
Al3 Ho3 3.161146 1_555
Al3 Ho2 3.195813 1_545
Al3 Ho0 3.301026 1_655
Al3 Ho0 3.301026 1_555
Au0 Ho0 3.010438 1_555
Au0 Ho3 3.104259 1_455
Au0 Ho3 3.104259 1_555
Au0 Ho2 3.156959 1_445
Au0 Ho2 3.156959 1_545
Au0 Ho1 3.438439 1_555
Au1 Ho1 3.011163 1_556
Au1 Ho2 3.104393 1_555
Au1 Ho2 3.104393 1_455
Au1 Ho3 3.156917 1_555
Au1 Ho3 3.156917 1_455
Au1 Ho0 3.439489 1_566
Au2 Ho2 3.010051 1_555
Au2 Ho1 3.105030 1_555
Au2 Ho1 3.105030 1_655
Au2 Ho0 3.157077 1_665
Au2 Ho0 3.157077 1_565
Au2 Ho3 3.437143 1_555
Au3 Ho3 3.010670 1_554
Au3 Ho0 3.105231 1_655
Au3 Ho0 3.105231 1_555
Au3 Ho1 3.156973 1_555
Au3 Ho1 3.156973 1_655
Au3 Ho2 3.438197 1_544
