# generated using pymatgen
data_CdCuAsHO5
_symmetry_space_group_name_H-M   'P 1'
_cell_length_a   6.04523300
_cell_length_b   7.43469200
_cell_length_c   9.27221600
_cell_angle_alpha   90.00000000
_cell_angle_beta   90.00000000
_cell_angle_gamma   90.00000000
_symmetry_Int_Tables_number   1
_chemical_formula_structural   CdCuAsHO5
_chemical_formula_sum   'Cd4 Cu4 As4 H4 O20'
_cell_volume   416.73460596
_cell_formula_units_Z   4
loop_
 _symmetry_equiv_pos_site_id
 _symmetry_equiv_pos_as_xyz
  1  'x, y, z'
loop_
 _atom_site_type_symbol
 _atom_site_label
 _atom_site_symmetry_multiplicity
 _atom_site_fract_x
 _atom_site_fract_y
 _atom_site_fract_z
 _atom_site_occupancy
  Cd  Cd0  1  0.25000000  0.62090400  0.31613300  1
  Cd  Cd1  1  0.25000000  0.12090400  0.18386700  1
  Cd  Cd2  1  0.75000000  0.37909600  0.68386700  1
  Cd  Cd3  1  0.75000000  0.87909600  0.81613300  1
  Cu  Cu0  1  0.50000000  0.50000000  0.00000000  1
  Cu  Cu1  1  0.00000000  0.00000000  0.50000000  1
  Cu  Cu2  1  0.00000000  0.50000000  0.00000000  1
  Cu  Cu3  1  0.50000000  0.00000000  0.50000000  1
  As  As0  1  0.25000000  0.63026100  0.65907200  1
  As  As1  1  0.25000000  0.13026100  0.84092800  1
  As  As2  1  0.75000000  0.36973900  0.34092800  1
  As  As3  1  0.75000000  0.86973900  0.15907200  1
  H  H0  1  0.25000000  0.75918300  0.03021400  1
  H  H1  1  0.25000000  0.25918300  0.46978600  1
  H  H2  1  0.75000000  0.24081700  0.96978600  1
  H  H3  1  0.75000000  0.74081700  0.53021400  1
  O  O0  1  0.51179700  0.37441000  0.23869800  1
  O  O1  1  0.98820300  0.87441000  0.26130200  1
  O  O2  1  0.01179700  0.62559000  0.76130200  1
  O  O3  1  0.48820300  0.12559000  0.73869800  1
  O  O4  1  0.48820300  0.62559000  0.76130200  1
  O  O5  1  0.01179700  0.12559000  0.73869800  1
  O  O6  1  0.98820300  0.37441000  0.23869800  1
  O  O7  1  0.51179700  0.87441000  0.26130200  1
  O  O8  1  0.25000000  0.46423300  0.53034800  1
  O  O9  1  0.25000000  0.96423300  0.96965200  1
  O  O10  1  0.75000000  0.53576700  0.46965200  1
  O  O11  1  0.75000000  0.03576700  0.03034800  1
  O  O12  1  0.25000000  0.82580600  0.54720700  1
  O  O13  1  0.25000000  0.32580600  0.95279300  1
  O  O14  1  0.75000000  0.17419400  0.45279300  1
  O  O15  1  0.75000000  0.67419400  0.04720700  1
  O  O16  1  0.25000000  0.63325300  0.06865400  1
  O  O17  1  0.25000000  0.13325300  0.43134600  1
  O  O18  1  0.75000000  0.36674700  0.93134600  1
  O  O19  1  0.75000000  0.86674700  0.56865400  1
loop_
_geom_bond_atom_site_label_1
_geom_bond_atom_site_label_2
_geom_bond_distance
_geom_bond_site_symmetry_2
Cd0 O16 2.296515 1_555
Cd0 O8 2.302594 1_555
Cd0 O7 2.513049 1_555
Cd0 O1 2.513049 1_455
Cd0 O0 2.525601 1_555
Cd0 O6 2.525601 1_455
Cd0 O12 2.628934 1_555
Cd1 O17 2.296515 1_555
Cd1 O9 2.302594 1_544
Cd1 O0 2.513049 1_555
Cd1 O6 2.513049 1_455
Cd1 O7 2.525601 1_545
Cd1 O1 2.525601 1_445
Cd1 O13 2.628934 1_554
Cd2 O18 2.296515 1_555
Cd2 O10 2.302594 1_555
Cd2 O3 2.513049 1_555
Cd2 O5 2.513049 1_655
Cd2 O4 2.525601 1_555
Cd2 O2 2.525601 1_655
Cd2 O14 2.628934 1_555
Cd3 O19 2.296515 1_555
Cd3 O11 2.302594 1_566
Cd3 O2 2.513049 1_655
Cd3 O4 2.513049 1_555
Cd3 O3 2.525601 1_565
Cd3 O5 2.525601 1_665
Cd3 O15 2.628934 1_556
Cu0 O16 1.915922 1_555
Cu0 O18 1.915922 1_554
Cu0 O15 2.037860 1_555
Cu0 O13 2.037860 1_554
Cu0 O0 2.403215 1_555
Cu0 O4 2.403215 1_554
Cu1 O17 1.915922 1_555
Cu1 O19 1.915922 1_445
Cu1 O14 2.037860 1_455
Cu1 O12 2.037860 1_545
Cu1 O5 2.403215 1_555
Cu1 O1 2.403215 1_445
Cu2 O16 1.915922 1_555
Cu2 O18 1.915922 1_454
Cu2 O15 2.037860 1_455
Cu2 O13 2.037860 1_554
Cu2 O6 2.403215 1_455
Cu2 O2 2.403215 1_554
Cu3 O17 1.915922 1_555
Cu3 O19 1.915922 1_545
Cu3 O14 2.037860 1_555
Cu3 O12 2.037860 1_545
Cu3 O3 2.403215 1_555
Cu3 O7 2.403215 1_545
As0 O8 1.717044 1_555
As0 O4 1.724325 1_555
As0 O2 1.724325 1_555
As0 O12 1.785901 1_555
As1 O9 1.717044 1_545
As1 O3 1.724325 1_555
As1 O5 1.724325 1_555
As1 O13 1.785901 1_555
As2 O10 1.717044 1_555
As2 O6 1.724325 1_555
As2 O0 1.724325 1_555
As2 O14 1.785901 1_555
As3 O11 1.717044 1_565
As3 O1 1.724325 1_555
As3 O7 1.724325 1_555
As3 O15 1.785901 1_555
H0 O16 1.001800 1_555
H0 O9 1.624617 1_554
H1 O17 1.001800 1_555
H1 O8 1.624617 1_555
H2 O18 1.001800 1_555
H2 O11 1.624617 1_556
H3 O19 1.001800 1_555
H3 O10 1.624617 1_555
