# generated using pymatgen
data_Ba18In8(S7F6)3
_symmetry_space_group_name_H-M   'P 1'
_cell_length_a   12.88886668
_cell_length_b   22.46104942
_cell_length_c   22.46104942
_cell_angle_alpha   90.00000000
_cell_angle_beta   90.00000000
_cell_angle_gamma   90.00000000
_symmetry_Int_Tables_number   1
_chemical_formula_structural   Ba18In8(S7F6)3
_chemical_formula_sum   'Ba72 In32 S84 F72'
_cell_volume   6502.41701359
_cell_formula_units_Z   4
loop_
 _symmetry_equiv_pos_site_id
 _symmetry_equiv_pos_as_xyz
  1  'x, y, z'
loop_
 _atom_site_type_symbol
 _atom_site_label
 _atom_site_symmetry_multiplicity
 _atom_site_fract_x
 _atom_site_fract_y
 _atom_site_fract_z
 _atom_site_occupancy
  Ba  Ba0  1  0.86770252  0.05570573  0.65617210  1
  Ba  Ba1  1  0.36770252  0.05570573  0.84382790  1
  Ba  Ba2  1  0.36770252  0.44429427  0.65617210  1
  Ba  Ba3  1  0.86770252  0.44429427  0.84382790  1
  Ba  Ba4  1  0.86770252  0.65617210  0.05570573  1
  Ba  Ba5  1  0.36770252  0.84382790  0.05570573  1
  Ba  Ba6  1  0.36770252  0.65617210  0.44429427  1
  Ba  Ba7  1  0.86770252  0.84382790  0.44429427  1
  Ba  Ba8  1  0.13229748  0.94429427  0.34382790  1
  Ba  Ba9  1  0.63229748  0.94429427  0.15617210  1
  Ba  Ba10  1  0.63229748  0.55570573  0.34382790  1
  Ba  Ba11  1  0.13229748  0.55570573  0.15617210  1
  Ba  Ba12  1  0.13229748  0.34382790  0.94429427  1
  Ba  Ba13  1  0.63229748  0.15617210  0.94429427  1
  Ba  Ba14  1  0.63229748  0.34382790  0.55570573  1
  Ba  Ba15  1  0.13229748  0.15617210  0.55570573  1
  Ba  Ba16  1  0.87604356  0.05389685  0.85265387  1
  Ba  Ba17  1  0.37604356  0.05389685  0.64734613  1
  Ba  Ba18  1  0.37604356  0.44610315  0.85265387  1
  Ba  Ba19  1  0.87604356  0.44610315  0.64734613  1
  Ba  Ba20  1  0.87604356  0.85265387  0.05389685  1
  Ba  Ba21  1  0.37604356  0.64734613  0.05389685  1
  Ba  Ba22  1  0.37604356  0.85265387  0.44610315  1
  Ba  Ba23  1  0.87604356  0.64734613  0.44610315  1
  Ba  Ba24  1  0.12395644  0.94610315  0.14734613  1
  Ba  Ba25  1  0.62395644  0.94610315  0.35265387  1
  Ba  Ba26  1  0.62395644  0.55389685  0.14734613  1
  Ba  Ba27  1  0.12395644  0.55389685  0.35265387  1
  Ba  Ba28  1  0.12395644  0.14734613  0.94610315  1
  Ba  Ba29  1  0.62395644  0.35265387  0.94610315  1
  Ba  Ba30  1  0.62395644  0.14734613  0.55389685  1
  Ba  Ba31  1  0.12395644  0.35265387  0.55389685  1
  Ba  Ba32  1  0.62407236  0.75018868  0.15051920  1
  Ba  Ba33  1  0.12407236  0.75018868  0.34948080  1
  Ba  Ba34  1  0.12407236  0.74981132  0.15051920  1
  Ba  Ba35  1  0.62407236  0.74981132  0.34948080  1
  Ba  Ba36  1  0.62407236  0.15051920  0.75018868  1
  Ba  Ba37  1  0.12407236  0.34948080  0.75018868  1
  Ba  Ba38  1  0.12407236  0.15051920  0.74981132  1
  Ba  Ba39  1  0.62407236  0.34948080  0.74981132  1
  Ba  Ba40  1  0.37592764  0.24981132  0.84948080  1
  Ba  Ba41  1  0.87592764  0.24981132  0.65051920  1
  Ba  Ba42  1  0.87592764  0.25018868  0.84948080  1
  Ba  Ba43  1  0.37592764  0.25018868  0.65051920  1
  Ba  Ba44  1  0.37592764  0.84948080  0.24981132  1
  Ba  Ba45  1  0.87592764  0.65051920  0.24981132  1
  Ba  Ba46  1  0.87592764  0.84948080  0.25018868  1
  Ba  Ba47  1  0.37592764  0.65051920  0.25018868  1
  Ba  Ba48  1  0.62023285  0.54043559  0.75034492  1
  Ba  Ba49  1  0.12023285  0.54043559  0.74965508  1
  Ba  Ba50  1  0.12023285  0.95956441  0.75034492  1
  Ba  Ba51  1  0.62023285  0.95956441  0.74965508  1
  Ba  Ba52  1  0.62023285  0.75034492  0.54043559  1
  Ba  Ba53  1  0.12023285  0.74965508  0.54043559  1
  Ba  Ba54  1  0.12023285  0.75034492  0.95956441  1
  Ba  Ba55  1  0.62023285  0.74965508  0.95956441  1
  Ba  Ba56  1  0.37976715  0.45956441  0.24965508  1
  Ba  Ba57  1  0.87976715  0.45956441  0.25034492  1
  Ba  Ba58  1  0.87976715  0.04043559  0.24965508  1
  Ba  Ba59  1  0.37976715  0.04043559  0.25034492  1
  Ba  Ba60  1  0.37976715  0.24965508  0.45956441  1
  Ba  Ba61  1  0.87976715  0.25034492  0.45956441  1
  Ba  Ba62  1  0.87976715  0.24965508  0.04043559  1
  Ba  Ba63  1  0.37976715  0.25034492  0.04043559  1
  Ba  Ba64  1  0.50000000  0.50000000  0.50000000  1
  Ba  Ba65  1  0.00000000  0.50000000  0.00000000  1
  Ba  Ba66  1  0.00000000  -0.00000000  0.50000000  1
  Ba  Ba67  1  0.50000000  -0.00000000  0.00000000  1
  Ba  Ba68  1  0.70134050  0.75000000  0.75000000  1
  Ba  Ba69  1  0.20134050  0.75000000  0.75000000  1
  Ba  Ba70  1  0.29865950  0.25000000  0.25000000  1
  Ba  Ba71  1  0.79865950  0.25000000  0.25000000  1
  In  In0  1  0.92659137  0.66235368  0.66235368  1
  In  In1  1  0.42659137  0.66235368  0.83764632  1
  In  In2  1  0.42659137  0.83764632  0.66235368  1
  In  In3  1  0.92659137  0.83764632  0.83764632  1
  In  In4  1  0.07340863  0.33764632  0.33764632  1
  In  In5  1  0.57340863  0.33764632  0.16235368  1
  In  In6  1  0.57340863  0.16235368  0.33764632  1
  In  In7  1  0.07340863  0.16235368  0.16235368  1
  In  In8  1  0.16578410  0.57500473  0.57500473  1
  In  In9  1  0.66578410  0.57500473  0.92499527  1
  In  In10  1  0.66578410  0.92499527  0.57500473  1
  In  In11  1  0.16578410  0.92499527  0.92499527  1
  In  In12  1  0.83421590  0.42499527  0.42499527  1
  In  In13  1  0.33421590  0.42499527  0.07500473  1
  In  In14  1  0.33421590  0.07500473  0.42499527  1
  In  In15  1  0.83421590  0.07500473  0.07500473  1
  In  In16  1  0.68845519  0.58150708  0.58150708  1
  In  In17  1  0.18845519  0.58150708  0.91849292  1
  In  In18  1  0.18845519  0.91849292  0.58150708  1
  In  In19  1  0.68845519  0.91849292  0.91849292  1
  In  In20  1  0.31154481  0.41849292  0.41849292  1
  In  In21  1  0.81154481  0.41849292  0.08150708  1
  In  In22  1  0.81154481  0.08150708  0.41849292  1
  In  In23  1  0.31154481  0.08150708  0.08150708  1
  In  In24  1  0.92044124  0.65939312  0.84060688  1
  In  In25  1  0.42044124  0.65939312  0.65939312  1
  In  In26  1  0.42044124  0.84060688  0.84060688  1
  In  In27  1  0.92044124  0.84060688  0.65939312  1
  In  In28  1  0.07955876  0.34060688  0.15939312  1
  In  In29  1  0.57955876  0.34060688  0.34060688  1
  In  In30  1  0.57955876  0.15939312  0.15939312  1
  In  In31  1  0.07955876  0.15939312  0.34060688  1
  S  S0  1  0.87887270  0.58305746  0.58305746  1
  S  S1  1  0.37887270  0.58305746  0.91694254  1
  S  S2  1  0.37887270  0.91694254  0.58305746  1
  S  S3  1  0.87887270  0.91694254  0.91694254  1
  S  S4  1  0.12112730  0.41694254  0.41694254  1
  S  S5  1  0.62112730  0.41694254  0.08305746  1
  S  S6  1  0.62112730  0.08305746  0.41694254  1
  S  S7  1  0.12112730  0.08305746  0.08305746  1
  S  S8  1  0.36407189  0.58090545  0.58090545  1
  S  S9  1  0.86407189  0.58090545  0.91909455  1
  S  S10  1  0.86407189  0.91909455  0.58090545  1
  S  S11  1  0.36407189  0.91909455  0.91909455  1
  S  S12  1  0.63592811  0.41909455  0.41909455  1
  S  S13  1  0.13592811  0.41909455  0.08090545  1
  S  S14  1  0.13592811  0.08090545  0.41909455  1
  S  S15  1  0.63592811  0.08090545  0.08090545  1
  S  S16  1  0.12082314  0.65420449  0.65420449  1
  S  S17  1  0.62082314  0.65420449  0.84579551  1
  S  S18  1  0.62082314  0.84579551  0.65420449  1
  S  S19  1  0.12082314  0.84579551  0.84579551  1
  S  S20  1  0.87917686  0.34579551  0.34579551  1
  S  S21  1  0.37917686  0.34579551  0.15420449  1
  S  S22  1  0.37917686  0.15420449  0.34579551  1
  S  S23  1  0.87917686  0.15420449  0.15420449  1
  S  S24  1  0.61702969  0.65545202  0.65545202  1
  S  S25  1  0.11702969  0.65545202  0.84454798  1
  S  S26  1  0.11702969  0.84454798  0.65545202  1
  S  S27  1  0.61702969  0.84454798  0.84454798  1
  S  S28  1  0.38297031  0.34454798  0.34454798  1
  S  S29  1  0.88297031  0.34454798  0.15545202  1
  S  S30  1  0.88297031  0.15545202  0.34454798  1
  S  S31  1  0.38297031  0.15545202  0.15545202  1
  S  S32  1  0.86410519  0.59916001  0.75068526  1
  S  S33  1  0.36410519  0.59916001  0.74931474  1
  S  S34  1  0.36410519  0.90083999  0.75068526  1
  S  S35  1  0.86410519  0.90083999  0.74931474  1
  S  S36  1  0.86410519  0.75068526  0.59916001  1
  S  S37  1  0.36410519  0.74931474  0.59916001  1
  S  S38  1  0.36410519  0.75068526  0.90083999  1
  S  S39  1  0.86410519  0.74931474  0.90083999  1
  S  S40  1  0.13589481  0.40083999  0.24931474  1
  S  S41  1  0.63589481  0.40083999  0.25068526  1
  S  S42  1  0.63589481  0.09916001  0.24931474  1
  S  S43  1  0.13589481  0.09916001  0.25068526  1
  S  S44  1  0.13589481  0.24931474  0.40083999  1
  S  S45  1  0.63589481  0.25068526  0.40083999  1
  S  S46  1  0.63589481  0.24931474  0.09916001  1
  S  S47  1  0.13589481  0.25068526  0.09916001  1
  S  S48  1  0.95068552  0.75000000  0.75000000  1
  S  S49  1  0.45068552  0.75000000  0.75000000  1
  S  S50  1  0.04931448  0.25000000  0.25000000  1
  S  S51  1  0.54931448  0.25000000  0.25000000  1
  S  S52  1  0.62663811  0.61595140  0.48243365  1
  S  S53  1  0.12663811  0.61595140  0.01756635  1
  S  S54  1  0.12663811  0.88404860  0.48243365  1
  S  S55  1  0.62663811  0.88404860  0.01756635  1
  S  S56  1  0.62663811  0.48243365  0.61595140  1
  S  S57  1  0.12663811  0.01756635  0.61595140  1
  S  S58  1  0.12663811  0.48243365  0.88404860  1
  S  S59  1  0.62663811  0.01756635  0.88404860  1
  S  S60  1  0.37336189  0.38404860  0.51756635  1
  S  S61  1  0.87336189  0.38404860  0.98243365  1
  S  S62  1  0.87336189  0.11595140  0.51756635  1
  S  S63  1  0.37336189  0.11595140  0.98243365  1
  S  S64  1  0.37336189  0.51756635  0.38404860  1
  S  S65  1  0.87336189  0.98243365  0.38404860  1
  S  S66  1  0.87336189  0.51756635  0.11595140  1
  S  S67  1  0.37336189  0.98243365  0.11595140  1
  S  S68  1  0.12481546  0.62033102  0.47998205  1
  S  S69  1  0.62481546  0.62033102  0.02001795  1
  S  S70  1  0.62481546  0.87966898  0.47998205  1
  S  S71  1  0.12481546  0.87966898  0.02001795  1
  S  S72  1  0.12481546  0.47998205  0.62033102  1
  S  S73  1  0.62481546  0.02001795  0.62033102  1
  S  S74  1  0.62481546  0.47998205  0.87966898  1
  S  S75  1  0.12481546  0.02001795  0.87966898  1
  S  S76  1  0.87518454  0.37966898  0.52001795  1
  S  S77  1  0.37518454  0.37966898  0.97998205  1
  S  S78  1  0.37518454  0.12033102  0.52001795  1
  S  S79  1  0.87518454  0.12033102  0.97998205  1
  S  S80  1  0.87518454  0.52001795  0.37966898  1
  S  S81  1  0.37518454  0.97998205  0.37966898  1
  S  S82  1  0.37518454  0.52001795  0.12033102  1
  S  S83  1  0.87518454  0.97998205  0.12033102  1
  F  F0  1  0.75000000  0.25000000  0.75000000  1
  F  F1  1  0.25000000  0.25000000  0.75000000  1
  F  F2  1  0.75000000  0.75000000  0.25000000  1
  F  F3  1  0.25000000  0.75000000  0.25000000  1
  F  F4  1  0.50000000  0.65221565  0.15221565  1
  F  F5  1  0.00000000  0.65221565  0.34778435  1
  F  F6  1  0.00000000  0.84778435  0.15221565  1
  F  F7  1  0.50000000  0.84778435  0.34778435  1
  F  F8  1  0.50000000  0.15221565  0.65221565  1
  F  F9  1  0.00000000  0.34778435  0.65221565  1
  F  F10  1  0.00000000  0.15221565  0.84778435  1
  F  F11  1  0.50000000  0.34778435  0.84778435  1
  F  F12  1  0.75362167  0.05146840  0.75355765  1
  F  F13  1  0.25362167  0.05146840  0.74644235  1
  F  F14  1  0.25362167  0.44853160  0.75355765  1
  F  F15  1  0.75362167  0.44853160  0.74644235  1
  F  F16  1  0.75362167  0.75355765  0.05146840  1
  F  F17  1  0.25362167  0.74644235  0.05146840  1
  F  F18  1  0.25362167  0.75355765  0.44853160  1
  F  F19  1  0.75362167  0.74644235  0.44853160  1
  F  F20  1  0.24637833  0.94853160  0.24644235  1
  F  F21  1  0.74637833  0.94853160  0.25355765  1
  F  F22  1  0.74637833  0.55146840  0.24644235  1
  F  F23  1  0.24637833  0.55146840  0.25355765  1
  F  F24  1  0.24637833  0.24644235  0.94853160  1
  F  F25  1  0.74637833  0.25355765  0.94853160  1
  F  F26  1  0.74637833  0.24644235  0.55146840  1
  F  F27  1  0.24637833  0.25355765  0.55146840  1
  F  F28  1  0.99116494  0.05213423  0.75052511  1
  F  F29  1  0.49116494  0.05213423  0.74947489  1
  F  F30  1  0.49116494  0.44786577  0.75052511  1
  F  F31  1  0.99116494  0.44786577  0.74947489  1
  F  F32  1  0.99116494  0.75052511  0.05213423  1
  F  F33  1  0.49116494  0.74947489  0.05213423  1
  F  F34  1  0.49116494  0.75052511  0.44786577  1
  F  F35  1  0.99116494  0.74947489  0.44786577  1
  F  F36  1  0.00883506  0.94786577  0.24947489  1
  F  F37  1  0.50883506  0.94786577  0.25052511  1
  F  F38  1  0.50883506  0.55213423  0.24947489  1
  F  F39  1  0.00883506  0.55213423  0.25052511  1
  F  F40  1  0.00883506  0.24947489  0.94786577  1
  F  F41  1  0.50883506  0.25052511  0.94786577  1
  F  F42  1  0.50883506  0.24947489  0.55213423  1
  F  F43  1  0.00883506  0.25052511  0.55213423  1
  F  F44  1  0.00000000  0.15157173  0.65157173  1
  F  F45  1  0.50000000  0.15157173  0.84842827  1
  F  F46  1  0.50000000  0.34842827  0.65157173  1
  F  F47  1  0.00000000  0.34842827  0.84842827  1
  F  F48  1  0.00000000  0.65157173  0.15157173  1
  F  F49  1  0.50000000  0.84842827  0.15157173  1
  F  F50  1  0.50000000  0.65157173  0.34842827  1
  F  F51  1  0.00000000  0.84842827  0.34842827  1
  F  F52  1  0.74999327  0.65383082  0.15258556  1
  F  F53  1  0.24999327  0.65383082  0.34741444  1
  F  F54  1  0.24999327  0.84616918  0.15258556  1
  F  F55  1  0.74999327  0.84616918  0.34741444  1
  F  F56  1  0.74999327  0.15258556  0.65383082  1
  F  F57  1  0.24999327  0.34741444  0.65383082  1
  F  F58  1  0.24999327  0.15258556  0.84616918  1
  F  F59  1  0.74999327  0.34741444  0.84616918  1
  F  F60  1  0.25000673  0.34616918  0.84741444  1
  F  F61  1  0.75000673  0.34616918  0.65258556  1
  F  F62  1  0.75000673  0.15383082  0.84741444  1
  F  F63  1  0.25000673  0.15383082  0.65258556  1
  F  F64  1  0.25000673  0.84741444  0.34616918  1
  F  F65  1  0.75000673  0.65258556  0.34616918  1
  F  F66  1  0.75000673  0.84741444  0.15383082  1
  F  F67  1  0.25000673  0.65258556  0.15383082  1
  F  F68  1  0.00000000  0.25000000  0.75000000  1
  F  F69  1  0.50000000  0.25000000  0.75000000  1
  F  F70  1  0.00000000  0.75000000  0.25000000  1
  F  F71  1  0.50000000  0.75000000  0.25000000  1
loop_
_geom_bond_atom_site_label_1
_geom_bond_atom_site_label_2
_geom_bond_distance
_geom_bond_site_symmetry_2
Ba0 F12 2.637365 1_555
Ba0 F28 2.651403 1_555
Ba0 F56 2.653215 1_555
Ba0 F44 2.748591 1_655
Ba0 S73 3.330298 1_555
Ba0 S62 3.395383 1_555
Ba0 S10 3.503637 1_545
Ba0 S57 3.562040 1_655
Ba1 F13 2.637365 1_555
Ba1 F29 2.651403 1_555
Ba1 F58 2.653215 1_555
Ba1 F45 2.748591 1_555
Ba1 S75 3.330298 1_555
Ba1 S63 3.395383 1_555
Ba1 S11 3.503637 1_545
Ba1 S59 3.562040 1_555
Ba2 F14 2.637365 1_555
Ba2 F30 2.651403 1_555
Ba2 F57 2.653215 1_555
Ba2 F46 2.748591 1_555
Ba2 S72 3.330298 1_555
Ba2 S60 3.395383 1_555
Ba2 S8 3.503637 1_555
Ba2 S56 3.562040 1_555
Ba3 F15 2.637365 1_555
Ba3 F31 2.651403 1_555
Ba3 F59 2.653215 1_555
Ba3 F47 2.748591 1_655
Ba3 S74 3.330298 1_555
Ba3 S61 3.395383 1_555
Ba3 S9 3.503637 1_555
Ba3 S58 3.562040 1_655
Ba4 F16 2.637365 1_555
Ba4 F32 2.651403 1_555
Ba4 F52 2.653215 1_555
Ba4 F48 2.748591 1_655
Ba4 S69 3.330298 1_555
Ba4 S66 3.395383 1_555
Ba4 S9 3.503637 1_554
Ba4 S53 3.562040 1_655
Ba5 F17 2.637365 1_555
Ba5 F33 2.651403 1_555
Ba5 F54 2.653215 1_555
Ba5 F49 2.748591 1_555
Ba5 S71 3.330298 1_555
Ba5 S67 3.395383 1_555
Ba5 S11 3.503637 1_554
Ba5 S55 3.562040 1_555
Ba6 F18 2.637365 1_555
Ba6 F34 2.651403 1_555
Ba6 F53 2.653215 1_555
Ba6 F50 2.748591 1_555
Ba6 S68 3.330298 1_555
Ba6 S64 3.395383 1_555
Ba6 S8 3.503637 1_555
Ba6 S52 3.562040 1_555
Ba7 F19 2.637365 1_555
Ba7 F35 2.651403 1_555
Ba7 F55 2.653215 1_555
Ba7 F51 2.748591 1_655
Ba7 S70 3.330298 1_555
Ba7 S65 3.395383 1_555
Ba7 S10 3.503637 1_555
Ba7 S54 3.562040 1_655
Ba8 F20 2.637365 1_555
Ba8 F36 2.651403 1_555
Ba8 F64 2.653215 1_555
Ba8 F51 2.748591 1_555
Ba8 S81 3.330298 1_555
Ba8 S54 3.395383 1_555
Ba8 S14 3.503637 1_565
Ba8 S65 3.562040 1_455
Ba9 F21 2.637365 1_555
Ba9 F37 2.651403 1_555
Ba9 F66 2.653215 1_555
Ba9 F49 2.748591 1_555
Ba9 S83 3.330298 1_555
Ba9 S55 3.395383 1_555
Ba9 S15 3.503637 1_565
Ba9 S67 3.562040 1_555
Ba10 F22 2.637365 1_555
Ba10 F38 2.651403 1_555
Ba10 F65 2.653215 1_555
Ba10 F50 2.748591 1_555
Ba10 S80 3.330298 1_555
Ba10 S52 3.395383 1_555
Ba10 S12 3.503637 1_555
Ba10 S64 3.562040 1_555
Ba11 F23 2.637365 1_555
Ba11 F39 2.651403 1_555
Ba11 F67 2.653215 1_555
Ba11 F48 2.748591 1_555
Ba11 S82 3.330298 1_555
Ba11 S53 3.395383 1_555
Ba11 S13 3.503637 1_555
Ba11 S66 3.562040 1_455
Ba12 F24 2.637365 1_555
Ba12 F40 2.651403 1_555
Ba12 F60 2.653215 1_555
Ba12 F47 2.748591 1_555
Ba12 S77 3.330298 1_555
Ba12 S58 3.395383 1_555
Ba12 S13 3.503637 1_556
Ba12 S61 3.562040 1_455
Ba13 F25 2.637365 1_555
Ba13 F41 2.651403 1_555
Ba13 F62 2.653215 1_555
Ba13 F45 2.748591 1_555
Ba13 S79 3.330298 1_555
Ba13 S59 3.395383 1_555
Ba13 S15 3.503637 1_556
Ba13 S63 3.562040 1_555
Ba14 F26 2.637365 1_555
Ba14 F42 2.651403 1_555
Ba14 F61 2.653215 1_555
Ba14 F46 2.748591 1_555
Ba14 S76 3.330298 1_555
Ba14 S56 3.395383 1_555
Ba14 S12 3.503637 1_555
Ba14 S60 3.562040 1_555
Ba15 F27 2.637365 1_555
Ba15 F43 2.651403 1_555
Ba15 F63 2.653215 1_555
Ba15 F44 2.748591 1_555
Ba15 S78 3.330298 1_555
Ba15 S57 3.395383 1_555
Ba15 S14 3.503637 1_555
Ba15 S62 3.562040 1_455
Ba16 F10 2.727866 1_655
Ba16 F12 2.728898 1_555
Ba16 F28 2.732261 1_555
Ba16 F62 2.773281 1_555
Ba16 S79 3.225817 1_555
Ba16 S75 3.350846 1_655
Ba16 S59 3.390648 1_555
Ba16 S3 3.398391 1_545
Ba17 F8 2.727866 1_555
Ba17 F13 2.728898 1_555
Ba17 F29 2.732261 1_555
Ba17 F63 2.773281 1_555
Ba17 S78 3.225817 1_555
Ba17 S73 3.350846 1_555
Ba17 S57 3.390648 1_555
Ba17 S2 3.398391 1_545
Ba18 F11 2.727866 1_555
Ba18 F14 2.728898 1_555
Ba18 F30 2.732261 1_555
Ba18 F60 2.773281 1_555
Ba18 S77 3.225817 1_555
Ba18 S74 3.350846 1_555
Ba18 S58 3.390648 1_555
Ba18 S1 3.398391 1_555
Ba19 F9 2.727866 1_655
Ba19 F15 2.728898 1_555
Ba19 F31 2.732261 1_555
Ba19 F61 2.773281 1_555
Ba19 S76 3.225817 1_555
Ba19 S72 3.350846 1_655
Ba19 S56 3.390648 1_555
Ba19 S0 3.398391 1_555
Ba20 F6 2.727866 1_655
Ba20 F16 2.728898 1_555
Ba20 F32 2.732261 1_555
Ba20 F66 2.773281 1_555
Ba20 S83 3.225817 1_555
Ba20 S71 3.350846 1_655
Ba20 S55 3.390648 1_555
Ba20 S3 3.398391 1_554
Ba21 F4 2.727866 1_555
Ba21 F17 2.728898 1_555
Ba21 F33 2.732261 1_555
Ba21 F67 2.773281 1_555
Ba21 S82 3.225817 1_555
Ba21 S69 3.350846 1_555
Ba21 S53 3.390648 1_555
Ba21 S1 3.398391 1_554
Ba22 F7 2.727866 1_555
Ba22 F18 2.728898 1_555
Ba22 F34 2.732261 1_555
Ba22 F64 2.773281 1_555
Ba22 S81 3.225817 1_555
Ba22 S70 3.350846 1_555
Ba22 S54 3.390648 1_555
Ba22 S2 3.398391 1_555
Ba23 F5 2.727866 1_655
Ba23 F19 2.728898 1_555
Ba23 F35 2.732261 1_555
Ba23 F65 2.773281 1_555
Ba23 S80 3.225817 1_555
Ba23 S68 3.350846 1_655
Ba23 S52 3.390648 1_555
Ba23 S0 3.398391 1_555
Ba24 F6 2.727866 1_555
Ba24 F20 2.728898 1_555
Ba24 F36 2.732261 1_555
Ba24 F54 2.773281 1_555
Ba24 S71 3.225817 1_555
Ba24 S83 3.350846 1_455
Ba24 S67 3.390648 1_555
Ba24 S7 3.398391 1_565
Ba25 F7 2.727866 1_555
Ba25 F21 2.728898 1_555
Ba25 F37 2.732261 1_555
Ba25 F55 2.773281 1_555
Ba25 S70 3.225817 1_555
Ba25 S81 3.350846 1_555
Ba25 S65 3.390648 1_555
Ba25 S6 3.398391 1_565
Ba26 F4 2.727866 1_555
Ba26 F22 2.728898 1_555
Ba26 F38 2.732261 1_555
Ba26 F52 2.773281 1_555
Ba26 S69 3.225817 1_555
Ba26 S82 3.350846 1_555
Ba26 S66 3.390648 1_555
Ba26 S5 3.398391 1_555
Ba27 F5 2.727866 1_555
Ba27 F23 2.728898 1_555
Ba27 F39 2.732261 1_555
Ba27 F53 2.773281 1_555
Ba27 S68 3.225817 1_555
Ba27 S80 3.350846 1_455
Ba27 S64 3.390648 1_555
Ba27 S4 3.398391 1_555
Ba28 F10 2.727866 1_555
Ba28 F24 2.728898 1_555
Ba28 F40 2.732261 1_555
Ba28 F58 2.773281 1_555
Ba28 S75 3.225817 1_555
Ba28 S79 3.350846 1_455
Ba28 S63 3.390648 1_555
Ba28 S7 3.398391 1_556
Ba29 F11 2.727866 1_555
Ba29 F25 2.728898 1_555
Ba29 F41 2.732261 1_555
Ba29 F59 2.773281 1_555
Ba29 S74 3.225817 1_555
Ba29 S77 3.350846 1_555
Ba29 S61 3.390648 1_555
Ba29 S5 3.398391 1_556
Ba30 F8 2.727866 1_555
Ba30 F26 2.728898 1_555
Ba30 F42 2.732261 1_555
Ba30 F56 2.773281 1_555
Ba30 S73 3.225817 1_555
Ba30 S78 3.350846 1_555
Ba30 S62 3.390648 1_555
Ba30 S6 3.398391 1_555
Ba31 F9 2.727866 1_555
Ba31 F27 2.728898 1_555
Ba31 F43 2.732261 1_555
Ba31 F57 2.773281 1_555
Ba31 S72 3.225817 1_555
Ba31 S76 3.350846 1_455
Ba31 S60 3.390648 1_555
Ba31 S4 3.398391 1_555
Ba32 F52 2.705624 1_555
Ba32 F4 2.720529 1_555
Ba32 F66 2.721967 1_555
Ba32 F49 2.725211 1_555
Ba32 F71 2.747734 1_555
Ba32 F2 2.761719 1_555
Ba32 F16 2.782703 1_555
Ba32 F33 2.796080 1_555
Ba33 F53 2.705624 1_555
Ba33 F5 2.720529 1_555
Ba33 F64 2.721967 1_555
Ba33 F51 2.725211 1_555
Ba33 F70 2.747734 1_555
Ba33 F3 2.761719 1_555
Ba33 F18 2.782703 1_555
Ba33 F35 2.796080 1_455
Ba34 F54 2.705624 1_555
Ba34 F6 2.720529 1_555
Ba34 F67 2.721967 1_555
Ba34 F48 2.725211 1_555
Ba34 F70 2.747734 1_555
Ba34 F3 2.761719 1_555
Ba34 F17 2.782703 1_555
Ba34 F32 2.796080 1_455
Ba35 F55 2.705624 1_555
Ba35 F7 2.720529 1_555
Ba35 F65 2.721967 1_555
Ba35 F50 2.725211 1_555
Ba35 F71 2.747734 1_555
Ba35 F2 2.761719 1_555
Ba35 F19 2.782703 1_555
Ba35 F34 2.796080 1_555
Ba36 F56 2.705624 1_555
Ba36 F8 2.720529 1_555
Ba36 F62 2.721967 1_555
Ba36 F45 2.725211 1_555
Ba36 F69 2.747734 1_555
Ba36 F0 2.761719 1_555
Ba36 F12 2.782703 1_555
Ba36 F29 2.796080 1_555
Ba37 F57 2.705624 1_555
Ba37 F9 2.720529 1_555
Ba37 F60 2.721967 1_555
Ba37 F47 2.725211 1_555
Ba37 F68 2.747734 1_555
Ba37 F1 2.761719 1_555
Ba37 F14 2.782703 1_555
Ba37 F31 2.796080 1_455
Ba38 F58 2.705624 1_555
Ba38 F10 2.720529 1_555
Ba38 F63 2.721967 1_555
Ba38 F44 2.725211 1_555
Ba38 F68 2.747734 1_555
Ba38 F1 2.761719 1_555
Ba38 F13 2.782703 1_555
Ba38 F28 2.796080 1_455
Ba39 F59 2.705624 1_555
Ba39 F11 2.720529 1_555
Ba39 F61 2.721967 1_555
Ba39 F46 2.725211 1_555
Ba39 F69 2.747734 1_555
Ba39 F0 2.761719 1_555
Ba39 F15 2.782703 1_555
Ba39 F30 2.796080 1_555
Ba40 F60 2.705624 1_555
Ba40 F11 2.720529 1_555
Ba40 F58 2.721967 1_555
Ba40 F45 2.725211 1_555
Ba40 F69 2.747734 1_555
Ba40 F1 2.761719 1_555
Ba40 F24 2.782703 1_555
Ba40 F41 2.796080 1_555
Ba41 F61 2.705624 1_555
Ba41 F9 2.720529 1_655
Ba41 F56 2.721967 1_555
Ba41 F44 2.725211 1_655
Ba41 F68 2.747734 1_655
Ba41 F0 2.761719 1_555
Ba41 F26 2.782703 1_555
Ba41 F43 2.796080 1_655
Ba42 F62 2.705624 1_555
Ba42 F10 2.720529 1_655
Ba42 F59 2.721967 1_555
Ba42 F47 2.725211 1_655
Ba42 F68 2.747734 1_655
Ba42 F0 2.761719 1_555
Ba42 F25 2.782703 1_555
Ba42 F40 2.796080 1_655
Ba43 F63 2.705624 1_555
Ba43 F8 2.720529 1_555
Ba43 F57 2.721967 1_555
Ba43 F46 2.725211 1_555
Ba43 F69 2.747734 1_555
Ba43 F1 2.761719 1_555
Ba43 F27 2.782703 1_555
Ba43 F42 2.796080 1_555
Ba44 F64 2.705624 1_555
Ba44 F7 2.720529 1_555
Ba44 F54 2.721967 1_555
Ba44 F49 2.725211 1_555
Ba44 F71 2.747734 1_555
Ba44 F3 2.761719 1_555
Ba44 F20 2.782703 1_555
Ba44 F37 2.796080 1_555
Ba45 F65 2.705624 1_555
Ba45 F5 2.720529 1_655
Ba45 F52 2.721967 1_555
Ba45 F48 2.725211 1_655
Ba45 F70 2.747734 1_655
Ba45 F2 2.761719 1_555
Ba45 F22 2.782703 1_555
Ba45 F39 2.796080 1_655
Ba46 F66 2.705624 1_555
Ba46 F6 2.720529 1_655
Ba46 F55 2.721967 1_555
Ba46 F51 2.725211 1_655
Ba46 F70 2.747734 1_655
Ba46 F2 2.761719 1_555
Ba46 F21 2.782703 1_555
Ba46 F36 2.796080 1_655
Ba47 F67 2.705624 1_555
Ba47 F4 2.720529 1_555
Ba47 F53 2.721967 1_555
Ba47 F50 2.725211 1_555
Ba47 F71 2.747734 1_555
Ba47 F3 2.761719 1_555
Ba47 F23 2.782703 1_555
Ba47 F38 2.796080 1_555
Ba48 F30 2.662802 1_555
Ba48 F15 2.687863 1_555
Ba48 S74 3.206999 1_555
Ba48 S56 3.288788 1_555
Ba48 S17 3.335620 1_555
Ba48 S24 3.349395 1_555
Ba48 S32 3.408782 1_555
Ba48 S33 3.555027 1_555
Ba49 F31 2.662802 1_455
Ba49 F14 2.687863 1_555
Ba49 S72 3.206999 1_555
Ba49 S58 3.288788 1_555
Ba49 S16 3.335620 1_555
Ba49 S25 3.349395 1_555
Ba49 S33 3.408782 1_555
Ba49 S32 3.555027 1_455
Ba50 F28 2.662802 1_465
Ba50 F13 2.687863 1_565
Ba50 S75 3.206999 1_565
Ba50 S57 3.288788 1_565
Ba50 S19 3.335620 1_555
Ba50 S26 3.349395 1_555
Ba50 S34 3.408782 1_555
Ba50 S35 3.555027 1_455
Ba51 F29 2.662802 1_565
Ba51 F12 2.687863 1_565
Ba51 S73 3.206999 1_565
Ba51 S59 3.288788 1_565
Ba51 S18 3.335620 1_555
Ba51 S27 3.349395 1_555
Ba51 S35 3.408782 1_555
Ba51 S34 3.555027 1_555
Ba52 F34 2.662802 1_555
Ba52 F19 2.687863 1_555
Ba52 S70 3.206999 1_555
Ba52 S52 3.288788 1_555
Ba52 S18 3.335620 1_555
Ba52 S24 3.349395 1_555
Ba52 S36 3.408782 1_555
Ba52 S37 3.555027 1_555
Ba53 F35 2.662802 1_455
Ba53 F18 2.687863 1_555
Ba53 S68 3.206999 1_555
Ba53 S54 3.288788 1_555
Ba53 S16 3.335620 1_555
Ba53 S26 3.349395 1_555
Ba53 S37 3.408782 1_555
Ba53 S36 3.555027 1_455
Ba54 F32 2.662802 1_456
Ba54 F17 2.687863 1_556
Ba54 S71 3.206999 1_556
Ba54 S53 3.288788 1_556
Ba54 S19 3.335620 1_555
Ba54 S25 3.349395 1_555
Ba54 S38 3.408782 1_555
Ba54 S39 3.555027 1_455
Ba55 F33 2.662802 1_556
Ba55 F16 2.687863 1_556
Ba55 S69 3.206999 1_556
Ba55 S55 3.288788 1_556
Ba55 S17 3.335620 1_555
Ba55 S27 3.349395 1_555
Ba55 S39 3.408782 1_555
Ba55 S38 3.555027 1_555
Ba56 F38 2.662802 1_555
Ba56 F23 2.687863 1_555
Ba56 S82 3.206999 1_555
Ba56 S64 3.288788 1_555
Ba56 S21 3.335620 1_555
Ba56 S28 3.349395 1_555
Ba56 S40 3.408782 1_555
Ba56 S41 3.555027 1_555
Ba57 F39 2.662802 1_655
Ba57 F22 2.687863 1_555
Ba57 S80 3.206999 1_555
Ba57 S66 3.288788 1_555
Ba57 S20 3.335620 1_555
Ba57 S29 3.349395 1_555
Ba57 S41 3.408782 1_555
Ba57 S40 3.555027 1_655
Ba58 F36 2.662802 1_645
Ba58 F21 2.687863 1_545
Ba58 S83 3.206999 1_545
Ba58 S65 3.288788 1_545
Ba58 S23 3.335620 1_555
Ba58 S30 3.349395 1_555
Ba58 S42 3.408782 1_555
Ba58 S43 3.555027 1_655
Ba59 F37 2.662802 1_545
Ba59 F20 2.687863 1_545
Ba59 S81 3.206999 1_545
Ba59 S67 3.288788 1_545
Ba59 S22 3.335620 1_555
Ba59 S31 3.349395 1_555
Ba59 S43 3.408782 1_555
Ba59 S42 3.555027 1_555
Ba60 F42 2.662802 1_555
Ba60 F27 2.687863 1_555
Ba60 S78 3.206999 1_555
Ba60 S60 3.288788 1_555
Ba60 S22 3.335620 1_555
Ba60 S28 3.349395 1_555
Ba60 S44 3.408782 1_555
Ba60 S45 3.555027 1_555
Ba61 F43 2.662802 1_655
Ba61 F26 2.687863 1_555
Ba61 S76 3.206999 1_555
Ba61 S62 3.288788 1_555
Ba61 S20 3.335620 1_555
Ba61 S30 3.349395 1_555
Ba61 S45 3.408782 1_555
Ba61 S44 3.555027 1_655
Ba62 F40 2.662802 1_654
Ba62 F25 2.687863 1_554
Ba62 S79 3.206999 1_554
Ba62 S61 3.288788 1_554
Ba62 S23 3.335620 1_555
Ba62 S29 3.349395 1_555
Ba62 S46 3.408782 1_555
Ba62 S47 3.555027 1_655
Ba63 F41 2.662802 1_554
Ba63 F24 2.687863 1_554
Ba63 S77 3.206999 1_554
Ba63 S63 3.288788 1_554
Ba63 S21 3.335620 1_555
Ba63 S31 3.349395 1_555
Ba63 S47 3.408782 1_555
Ba63 S46 3.555027 1_555
Ba64 S60 3.098818 1_555
Ba64 S64 3.098818 1_555
Ba64 S56 3.098818 1_555
Ba64 S52 3.098818 1_555
Ba64 S12 3.110297 1_555
Ba64 S8 3.110297 1_555
Ba65 S61 3.098818 1_454
Ba65 S66 3.098818 1_455
Ba65 S53 3.098818 1_555
Ba65 S58 3.098818 1_554
Ba65 S13 3.110297 1_555
Ba65 S9 3.110297 1_454
Ba66 S65 3.098818 1_445
Ba66 S62 3.098818 1_455
Ba66 S54 3.098818 1_545
Ba66 S57 3.098818 1_555
Ba66 S14 3.110297 1_555
Ba66 S10 3.110297 1_445
Ba67 S63 3.098818 1_554
Ba67 S67 3.098818 1_545
Ba67 S55 3.098818 1_545
Ba67 S59 3.098818 1_554
Ba67 S15 3.110297 1_555
Ba67 S11 3.110297 1_544
Ba68 S27 3.193839 1_555
Ba68 S24 3.193839 1_555
Ba68 S48 3.213775 1_555
Ba68 S18 3.215016 1_555
Ba68 S17 3.215016 1_555
Ba68 S49 3.230659 1_555
Ba69 S25 3.193839 1_555
Ba69 S26 3.193839 1_555
Ba69 S49 3.213775 1_555
Ba69 S16 3.215016 1_555
Ba69 S19 3.215016 1_555
Ba69 S48 3.230659 1_455
Ba70 S28 3.193839 1_555
Ba70 S31 3.193839 1_555
Ba70 S50 3.213775 1_555
Ba70 S22 3.215016 1_555
Ba70 S21 3.215016 1_555
Ba70 S51 3.230659 1_555
Ba71 S29 3.193839 1_555
Ba71 S30 3.193839 1_555
Ba71 S51 3.213775 1_555
Ba71 S20 3.215016 1_555
Ba71 S23 3.215016 1_555
Ba71 S50 3.230659 1_655
In0 S16 2.516775 1_655
In0 S32 2.568979 1_555
In0 S36 2.568979 1_555
In0 S0 2.592825 1_555
In0 S48 2.801327 1_555
In1 S17 2.516775 1_555
In1 S33 2.568979 1_555
In1 S38 2.568979 1_555
In1 S1 2.592825 1_555
In1 S49 2.801327 1_555
In2 S18 2.516775 1_555
In2 S37 2.568979 1_555
In2 S34 2.568979 1_555
In2 S2 2.592825 1_555
In2 S49 2.801327 1_555
In3 S19 2.516775 1_655
In3 S35 2.568979 1_555
In3 S39 2.568979 1_555
In3 S3 2.592825 1_555
In3 S48 2.801327 1_555
In4 S20 2.516775 1_455
In4 S40 2.568979 1_555
In4 S44 2.568979 1_555
In4 S4 2.592825 1_555
In4 S50 2.801327 1_555
In5 S21 2.516775 1_555
In5 S46 2.568979 1_555
In5 S41 2.568979 1_555
In5 S5 2.592825 1_555
In5 S51 2.801327 1_555
In6 S22 2.516775 1_555
In6 S42 2.568979 1_555
In6 S45 2.568979 1_555
In6 S6 2.592825 1_555
In6 S51 2.801327 1_555
In7 S23 2.516775 1_455
In7 S43 2.568979 1_555
In7 S47 2.568979 1_555
In7 S7 2.592825 1_555
In7 S50 2.801327 1_555
In8 S68 2.422928 1_555
In8 S72 2.422928 1_555
In8 S8 2.562569 1_555
In8 S16 2.581638 1_555
In9 S69 2.422928 1_556
In9 S74 2.422928 1_555
In9 S9 2.562569 1_555
In9 S17 2.581638 1_555
In10 S73 2.422928 1_565
In10 S70 2.422928 1_555
In10 S10 2.562569 1_555
In10 S18 2.581638 1_555
In11 S71 2.422928 1_556
In11 S75 2.422928 1_565
In11 S11 2.562569 1_555
In11 S19 2.581638 1_555
In12 S76 2.422928 1_555
In12 S80 2.422928 1_555
In12 S12 2.562569 1_555
In12 S20 2.581638 1_555
In13 S77 2.422928 1_554
In13 S82 2.422928 1_555
In13 S13 2.562569 1_555
In13 S21 2.581638 1_555
In14 S81 2.422928 1_545
In14 S78 2.422928 1_555
In14 S14 2.562569 1_555
In14 S22 2.581638 1_555
In15 S83 2.422928 1_545
In15 S79 2.422928 1_554
In15 S15 2.562569 1_555
In15 S23 2.581638 1_555
In16 S0 2.454760 1_555
In16 S56 2.487024 1_555
In16 S52 2.487024 1_555
In16 S24 2.522805 1_555
In17 S1 2.454760 1_555
In17 S58 2.487024 1_555
In17 S53 2.487024 1_556
In17 S25 2.522805 1_555
In18 S2 2.454760 1_555
In18 S54 2.487024 1_555
In18 S57 2.487024 1_565
In18 S26 2.522805 1_555
In19 S3 2.454760 1_555
In19 S59 2.487024 1_565
In19 S55 2.487024 1_556
In19 S27 2.522805 1_555
In20 S4 2.454760 1_555
In20 S64 2.487024 1_555
In20 S60 2.487024 1_555
In20 S28 2.522805 1_555
In21 S5 2.454760 1_555
In21 S61 2.487024 1_554
In21 S66 2.487024 1_555
In21 S29 2.522805 1_555
In22 S6 2.454760 1_555
In22 S65 2.487024 1_545
In22 S62 2.487024 1_555
In22 S30 2.522805 1_555
In23 S7 2.454760 1_555
In23 S63 2.487024 1_554
In23 S67 2.487024 1_545
In23 S31 2.522805 1_555
In24 S25 2.536893 1_655
In24 S39 2.537103 1_555
In24 S32 2.537103 1_555
In24 S9 2.596844 1_555
In24 S48 2.904381 1_555
In25 S24 2.536893 1_555
In25 S33 2.537103 1_555
In25 S37 2.537103 1_555
In25 S8 2.596844 1_555
In25 S49 2.904381 1_555
In26 S27 2.536893 1_555
In26 S38 2.537103 1_555
In26 S34 2.537103 1_555
In26 S11 2.596844 1_555
In26 S49 2.904381 1_555
In27 S26 2.536893 1_655
In27 S35 2.537103 1_555
In27 S36 2.537103 1_555
In27 S10 2.596844 1_555
In27 S48 2.904381 1_555
In28 S29 2.536893 1_455
In28 S47 2.537103 1_555
In28 S40 2.537103 1_555
In28 S13 2.596844 1_555
In28 S50 2.904381 1_555
In29 S28 2.536893 1_555
In29 S41 2.537103 1_555
In29 S45 2.537103 1_555
In29 S12 2.596844 1_555
In29 S51 2.904381 1_555
In30 S31 2.536893 1_555
In30 S46 2.537103 1_555
In30 S42 2.537103 1_555
In30 S15 2.596844 1_555
In30 S51 2.904381 1_555
In31 S30 2.536893 1_455
In31 S43 2.537103 1_555
In31 S44 2.537103 1_555
In31 S14 2.596844 1_555
In31 S50 2.904381 1_555
