# generated using pymatgen
data_KZnN
_symmetry_space_group_name_H-M   'P 1'
_cell_length_a   3.54920600
_cell_length_b   6.71126700
_cell_length_c   10.38175800
_cell_angle_alpha   90.00000000
_cell_angle_beta   90.00000000
_cell_angle_gamma   90.00000000
_symmetry_Int_Tables_number   1
_chemical_formula_structural   KZnN
_chemical_formula_sum   'K4 Zn4 N4'
_cell_volume   247.29004028
_cell_formula_units_Z   4
loop_
 _symmetry_equiv_pos_site_id
 _symmetry_equiv_pos_as_xyz
  1  'x, y, z'
loop_
 _atom_site_type_symbol
 _atom_site_label
 _atom_site_symmetry_multiplicity
 _atom_site_fract_x
 _atom_site_fract_y
 _atom_site_fract_z
 _atom_site_occupancy
  K  K0  1  0.25000000  0.04605400  0.66044500  1
  K  K1  1  0.25000000  0.45394600  0.16044500  1
  K  K2  1  0.75000000  0.95394600  0.33955500  1
  K  K3  1  0.75000000  0.54605400  0.83955500  1
  Zn  Zn0  1  0.25000000  0.61921500  0.54822500  1
  Zn  Zn1  1  0.25000000  0.88078500  0.04822500  1
  Zn  Zn2  1  0.75000000  0.38078500  0.45177500  1
  Zn  Zn3  1  0.75000000  0.11921500  0.95177500  1
  N  N0  1  0.25000000  0.21023700  0.92398400  1
  N  N1  1  0.25000000  0.28976300  0.42398400  1
  N  N2  1  0.75000000  0.78976300  0.07601600  1
  N  N3  1  0.75000000  0.71023700  0.57601600  1
loop_
_geom_bond_atom_site_label_1
_geom_bond_atom_site_label_2
_geom_bond_distance
_geom_bond_site_symmetry_2
K0 N0 2.949545 1_555
K0 N1 2.949850 1_555
K0 N3 2.999488 1_445
K0 N3 2.999488 1_545
K1 N1 2.949545 1_555
K1 N0 2.949850 1_554
K1 N2 2.999488 1_555
K1 N2 2.999488 1_455
K2 N2 2.949545 1_555
K2 N3 2.949850 1_555
K2 N1 2.999488 1_665
K2 N1 2.999488 1_565
K3 N3 2.949545 1_555
K3 N2 2.949850 1_556
K3 N0 2.999488 1_555
K3 N0 2.999488 1_655
N0 Zn3 1.898848 1_455
N0 Zn3 1.898848 1_555
N1 Zn2 1.898848 1_455
N1 Zn2 1.898848 1_555
N2 Zn1 1.898848 1_555
N2 Zn1 1.898848 1_655
N3 Zn0 1.898848 1_655
N3 Zn0 1.898848 1_555
