# generated using pymatgen
data_LaSnPd
_symmetry_space_group_name_H-M   'P 1'
_cell_length_a   4.73384642
_cell_length_b   7.67586498
_cell_length_c   7.96279816
_cell_angle_alpha   90.00000000
_cell_angle_beta   90.00000000
_cell_angle_gamma   90.00000000
_symmetry_Int_Tables_number   1
_chemical_formula_structural   LaSnPd
_chemical_formula_sum   'La4 Sn4 Pd4'
_cell_volume   289.33914798
_cell_formula_units_Z   4
loop_
 _symmetry_equiv_pos_site_id
 _symmetry_equiv_pos_as_xyz
  1  'x, y, z'
loop_
 _atom_site_type_symbol
 _atom_site_label
 _atom_site_symmetry_multiplicity
 _atom_site_fract_x
 _atom_site_fract_y
 _atom_site_fract_z
 _atom_site_occupancy
  La  La0  1  0.75000000  0.48432636  0.20001229  1
  La  La1  1  0.75000000  0.98432636  0.29998771  1
  La  La2  1  0.25000000  0.51567364  0.79998771  1
  La  La3  1  0.25000000  0.01567364  0.70001229  1
  Sn  Sn0  1  0.75000000  0.31623651  0.58603262  1
  Sn  Sn1  1  0.75000000  0.81623651  0.91396738  1
  Sn  Sn2  1  0.25000000  0.68376349  0.41396738  1
  Sn  Sn3  1  0.25000000  0.18376349  0.08603262  1
  Pd  Pd0  1  0.75000000  0.20242990  0.91378791  1
  Pd  Pd1  1  0.75000000  0.70242990  0.58621209  1
  Pd  Pd2  1  0.25000000  0.79757010  0.08621209  1
  Pd  Pd3  1  0.25000000  0.29757010  0.41378791  1
loop_
_geom_bond_atom_site_label_1
_geom_bond_atom_site_label_2
_geom_bond_distance
_geom_bond_site_symmetry_2
La0 Pd0 3.142696 1_554
La0 Pd3 3.248839 1_555
La0 Pd3 3.248839 1_655
La0 Sn2 3.293686 1_655
La0 Sn2 3.293686 1_555
La0 Sn0 3.333611 1_555
La0 Sn1 3.417420 1_554
La0 Sn3 3.427634 1_555
La0 Sn3 3.427634 1_655
La0 Pd2 3.493520 1_655
La0 Pd2 3.493520 1_555
La0 Pd1 3.501395 1_555
La1 Pd1 3.142696 1_555
La1 Pd2 3.248839 1_655
La1 Pd2 3.248839 1_555
La1 Sn3 3.293686 1_665
La1 Sn3 3.293686 1_565
La1 Sn1 3.333611 1_554
La1 Sn0 3.417420 1_565
La1 Sn2 3.427634 1_655
La1 Sn2 3.427634 1_555
La1 Pd3 3.493520 1_665
La1 Pd3 3.493520 1_565
La1 Pd0 3.501395 1_564
La2 Pd2 3.142696 1_556
La2 Pd1 3.248839 1_555
La2 Pd1 3.248839 1_455
La2 Sn0 3.293686 1_455
La2 Sn0 3.293686 1_555
La2 Sn2 3.333611 1_555
La2 Sn3 3.417420 1_556
La2 Sn1 3.427634 1_555
La2 Sn1 3.427634 1_455
La2 Pd0 3.493520 1_455
La2 Pd0 3.493520 1_555
La2 Pd3 3.501395 1_555
La3 Pd3 3.142696 1_555
La3 Pd0 3.248839 1_555
La3 Pd0 3.248839 1_455
La3 Sn1 3.293686 1_445
La3 Sn1 3.293686 1_545
La3 Sn3 3.333611 1_556
La3 Sn2 3.417420 1_545
La3 Sn0 3.427634 1_555
La3 Sn0 3.427634 1_455
La3 Pd1 3.493520 1_545
La3 Pd1 3.493520 1_445
La3 Pd2 3.501395 1_546
Pd0 Sn3 2.739344 1_656
Pd0 Sn3 2.739344 1_556
Pd0 Sn0 2.752168 1_555
Pd0 Sn1 2.964369 1_545
Pd1 Sn2 2.739344 1_555
Pd1 Sn2 2.739344 1_655
Pd1 Sn1 2.752168 1_555
Pd1 Sn0 2.964369 1_555
Pd2 Sn1 2.739344 1_554
Pd2 Sn1 2.739344 1_454
Pd2 Sn2 2.752168 1_555
Pd2 Sn3 2.964369 1_565
Pd3 Sn0 2.739344 1_555
Pd3 Sn0 2.739344 1_455
Pd3 Sn3 2.752168 1_555
Pd3 Sn2 2.964369 1_555
