# generated using pymatgen
data_Ba(AlS2)2
_symmetry_space_group_name_H-M   'P 1'
_cell_length_a   12.73206073
_cell_length_b   12.73206073
_cell_length_c   12.73206073
_cell_angle_alpha   90.00000000
_cell_angle_beta   90.00000000
_cell_angle_gamma   90.00000000
_symmetry_Int_Tables_number   1
_chemical_formula_structural   Ba(AlS2)2
_chemical_formula_sum   'Ba12 Al24 S48'
_cell_volume   2063.93542100
_cell_formula_units_Z   12
loop_
 _symmetry_equiv_pos_site_id
 _symmetry_equiv_pos_as_xyz
  1  'x, y, z'
loop_
 _atom_site_type_symbol
 _atom_site_label
 _atom_site_symmetry_multiplicity
 _atom_site_fract_x
 _atom_site_fract_y
 _atom_site_fract_z
 _atom_site_occupancy
  Ba  Ba0  1  0.37299784  0.12700216  0.87299784  1
  Ba  Ba1  1  0.12700216  0.87299784  0.37299784  1
  Ba  Ba2  1  0.87299784  0.37299784  0.12700216  1
  Ba  Ba3  1  0.62700216  0.62700216  0.62700216  1
  Ba  Ba4  1  0.62700216  0.87299784  0.12700216  1
  Ba  Ba5  1  0.87299784  0.12700216  0.62700216  1
  Ba  Ba6  1  0.12700216  0.62700216  0.87299784  1
  Ba  Ba7  1  0.37299784  0.37299784  0.37299784  1
  Ba  Ba8  1  0.00000000  0.50000000  0.50000000  1
  Ba  Ba9  1  0.50000000  0.50000000  -0.00000000  1
  Ba  Ba10  1  0.50000000  -0.00000000  0.50000000  1
  Ba  Ba11  1  0.00000000  -0.00000000  -0.00000000  1
  Al  Al0  1  0.64334105  0.62650294  0.30369447  1
  Al  Al1  1  0.69630553  0.35665895  0.37349706  1
  Al  Al2  1  0.19630553  0.14334105  0.62650294  1
  Al  Al3  1  0.30369447  0.85665895  0.12650294  1
  Al  Al4  1  0.14334105  0.62650294  0.19630553  1
  Al  Al5  1  0.12650294  0.30369447  0.85665895  1
  Al  Al6  1  0.62650294  0.19630553  0.14334105  1
  Al  Al7  1  0.35665895  0.37349706  0.69630553  1
  Al  Al8  1  0.37349706  0.69630553  0.35665895  1
  Al  Al9  1  0.85665895  0.12650294  0.30369447  1
  Al  Al10  1  0.64334105  0.87349706  0.80369447  1
  Al  Al11  1  0.87349706  0.80369447  0.64334105  1
  Al  Al12  1  0.19630553  0.35665895  0.12650294  1
  Al  Al13  1  0.12650294  0.19630553  0.35665895  1
  Al  Al14  1  0.35665895  0.12650294  0.19630553  1
  Al  Al15  1  0.14334105  0.87349706  0.69630553  1
  Al  Al16  1  0.62650294  0.30369447  0.64334105  1
  Al  Al17  1  0.80369447  0.64334105  0.87349706  1
  Al  Al18  1  0.37349706  0.80369447  0.85665895  1
  Al  Al19  1  0.87349706  0.69630553  0.14334105  1
  Al  Al20  1  0.85665895  0.37349706  0.80369447  1
  Al  Al21  1  0.69630553  0.14334105  0.87349706  1
  Al  Al22  1  0.80369447  0.85665895  0.37349706  1
  Al  Al23  1  0.30369447  0.64334105  0.62650294  1
  S  S0  1  0.72795140  0.52509379  0.41962419  1
  S  S1  1  0.77204860  0.47490621  0.91962419  1
  S  S2  1  0.91962419  0.77204860  0.47490621  1
  S  S3  1  0.47490621  0.91962419  0.77204860  1
  S  S4  1  0.02509379  0.08037581  0.27204860  1
  S  S5  1  0.41962419  0.72795140  0.52509379  1
  S  S6  1  0.52509379  0.41962419  0.72795140  1
  S  S7  1  0.58037581  0.22795140  0.97490621  1
  S  S8  1  0.08037581  0.27204860  0.02509379  1
  S  S9  1  0.97490621  0.58037581  0.22795140  1
  S  S10  1  0.27204860  0.02509379  0.08037581  1
  S  S11  1  0.22795140  0.97490621  0.58037581  1
  S  S12  1  0.35942155  0.29025051  0.12819472  1
  S  S13  1  0.12819472  0.35942155  0.29025051  1
  S  S14  1  0.29025051  0.12819472  0.35942155  1
  S  S15  1  0.20974949  0.87180528  0.85942155  1
  S  S16  1  0.62819472  0.14057845  0.70974949  1
  S  S17  1  0.70974949  0.62819472  0.14057845  1
  S  S18  1  0.37180528  0.64057845  0.79025051  1
  S  S19  1  0.87180528  0.85942155  0.20974949  1
  S  S20  1  0.79025051  0.37180528  0.64057845  1
  S  S21  1  0.85942155  0.20974949  0.87180528  1
  S  S22  1  0.64057845  0.79025051  0.37180528  1
  S  S23  1  0.14057845  0.70974949  0.62819472  1
  S  S24  1  0.64057845  0.70974949  0.87180528  1
  S  S25  1  0.87180528  0.64057845  0.70974949  1
  S  S26  1  0.70974949  0.87180528  0.64057845  1
  S  S27  1  0.79025051  0.12819472  0.14057845  1
  S  S28  1  0.37180528  0.85942155  0.29025051  1
  S  S29  1  0.29025051  0.37180528  0.85942155  1
  S  S30  1  0.62819472  0.35942155  0.20974949  1
  S  S31  1  0.12819472  0.14057845  0.79025051  1
  S  S32  1  0.20974949  0.62819472  0.35942155  1
  S  S33  1  0.14057845  0.79025051  0.12819472  1
  S  S34  1  0.35942155  0.20974949  0.62819472  1
  S  S35  1  0.85942155  0.29025051  0.37180528  1
  S  S36  1  0.22795140  0.52509379  0.08037581  1
  S  S37  1  0.08037581  0.22795140  0.52509379  1
  S  S38  1  0.52509379  0.08037581  0.22795140  1
  S  S39  1  0.27204860  0.47490621  0.58037581  1
  S  S40  1  0.58037581  0.27204860  0.47490621  1
  S  S41  1  0.47490621  0.58037581  0.27204860  1
  S  S42  1  0.41962419  0.77204860  0.02509379  1
  S  S43  1  0.91962419  0.72795140  0.97490621  1
  S  S44  1  0.02509379  0.41962419  0.77204860  1
  S  S45  1  0.72795140  0.97490621  0.91962419  1
  S  S46  1  0.77204860  0.02509379  0.41962419  1
  S  S47  1  0.97490621  0.91962419  0.72795140  1
loop_
_geom_bond_atom_site_label_1
_geom_bond_atom_site_label_2
_geom_bond_distance
_geom_bond_site_symmetry_2
Ba0 S7 3.210441 1_555
Ba0 S10 3.210441 1_556
Ba0 S3 3.210441 1_545
Ba0 S29 3.294628 1_555
Ba0 S31 3.294628 1_555
Ba0 S34 3.294628 1_555
Ba1 S11 3.210441 1_555
Ba1 S4 3.210441 1_565
Ba1 S2 3.210441 1_455
Ba1 S33 3.294628 1_555
Ba1 S28 3.294628 1_555
Ba1 S32 3.294628 1_555
Ba2 S9 3.210441 1_555
Ba2 S8 3.210441 1_655
Ba2 S1 3.210441 1_554
Ba2 S35 3.294628 1_555
Ba2 S27 3.294628 1_555
Ba2 S30 3.294628 1_555
Ba3 S5 3.210441 1_555
Ba3 S6 3.210441 1_555
Ba3 S0 3.210441 1_555
Ba3 S25 3.294628 1_555
Ba3 S26 3.294628 1_555
Ba3 S24 3.294628 1_555
Ba4 S42 3.210441 1_555
Ba4 S38 3.210441 1_565
Ba4 S45 3.210441 1_554
Ba4 S22 3.294628 1_555
Ba4 S19 3.294628 1_555
Ba4 S17 3.294628 1_555
Ba5 S46 3.210441 1_555
Ba5 S37 3.210441 1_655
Ba5 S47 3.210441 1_545
Ba5 S20 3.294628 1_555
Ba5 S16 3.294628 1_555
Ba5 S21 3.294628 1_555
Ba6 S44 3.210441 1_555
Ba6 S36 3.210441 1_556
Ba6 S43 3.210441 1_455
Ba6 S18 3.294628 1_555
Ba6 S15 3.294628 1_555
Ba6 S23 3.294628 1_555
Ba7 S41 3.210441 1_555
Ba7 S39 3.210441 1_555
Ba7 S40 3.210441 1_555
Ba7 S13 3.294628 1_555
Ba7 S14 3.294628 1_555
Ba7 S12 3.294628 1_555
Ba8 S13 3.605468 1_555
Ba8 S23 3.605468 1_555
Ba8 S35 3.605468 1_455
Ba8 S25 3.605468 1_455
Ba8 S32 3.605468 1_555
Ba8 S20 3.605468 1_455
Ba8 S44 3.625853 1_555
Ba8 S39 3.625853 1_555
Ba8 S2 3.625853 1_455
Ba8 S9 3.625853 1_455
Ba8 S37 3.625853 1_555
Ba8 S0 3.625853 1_455
Ba9 S17 3.605468 1_555
Ba9 S30 3.605468 1_555
Ba9 S18 3.605468 1_554
Ba9 S29 3.605468 1_554
Ba9 S12 3.605468 1_555
Ba9 S24 3.605468 1_554
Ba9 S42 3.625853 1_555
Ba9 S6 3.625853 1_554
Ba9 S41 3.625853 1_555
Ba9 S7 3.625853 1_554
Ba9 S1 3.625853 1_554
Ba9 S36 3.625853 1_555
Ba10 S22 3.605468 1_545
Ba10 S14 3.605468 1_555
Ba10 S26 3.605468 1_545
Ba10 S34 3.605468 1_555
Ba10 S28 3.605468 1_545
Ba10 S16 3.605468 1_555
Ba10 S5 3.625853 1_545
Ba10 S38 3.625853 1_555
Ba10 S3 3.625853 1_545
Ba10 S40 3.625853 1_555
Ba10 S46 3.625853 1_555
Ba10 S11 3.625853 1_545
Ba11 S27 3.605468 1_455
Ba11 S21 3.605468 1_454
Ba11 S19 3.605468 1_445
Ba11 S31 3.605468 1_554
Ba11 S33 3.605468 1_545
Ba11 S15 3.605468 1_544
Ba11 S47 3.625853 1_444
Ba11 S10 3.625853 1_555
Ba11 S45 3.625853 1_444
Ba11 S4 3.625853 1_555
Ba11 S43 3.625853 1_444
Ba11 S8 3.625853 1_555
Al0 S0 2.237456 1_555
Al0 S17 2.242426 1_555
Al0 S22 2.258281 1_555
Al0 S41 2.259698 1_555
Al1 S40 2.237456 1_555
Al1 S35 2.242426 1_555
Al1 S30 2.258281 1_555
Al1 S0 2.259698 1_555
Al2 S37 2.237456 1_555
Al2 S34 2.242426 1_555
Al2 S31 2.258281 1_555
Al2 S11 2.259698 1_545
Al3 S42 2.237456 1_555
Al3 S33 2.242426 1_555
Al3 S28 2.258281 1_555
Al3 S10 2.259698 1_565
Al4 S36 2.237456 1_555
Al4 S32 2.242426 1_555
Al4 S33 2.258281 1_555
Al4 S9 2.259698 1_455
Al5 S44 2.237456 1_555
Al5 S31 2.242426 1_555
Al5 S29 2.258281 1_555
Al5 S8 2.259698 1_556
Al6 S38 2.237456 1_555
Al6 S30 2.242426 1_555
Al6 S27 2.258281 1_555
Al6 S7 2.259698 1_554
Al7 S39 2.237456 1_555
Al7 S29 2.242426 1_555
Al7 S34 2.258281 1_555
Al7 S6 2.259698 1_555
Al8 S41 2.237456 1_555
Al8 S28 2.242426 1_555
Al8 S32 2.258281 1_555
Al8 S5 2.259698 1_555
Al9 S46 2.237456 1_555
Al9 S27 2.242426 1_555
Al9 S35 2.258281 1_555
Al9 S4 2.259698 1_655
Al10 S45 2.237456 1_555
Al10 S26 2.242426 1_555
Al10 S24 2.258281 1_555
Al10 S3 2.259698 1_555
Al11 S47 2.237456 1_555
Al11 S25 2.242426 1_555
Al11 S26 2.258281 1_555
Al11 S2 2.259698 1_555
Al12 S8 2.237456 1_555
Al12 S12 2.242426 1_555
Al12 S13 2.258281 1_555
Al12 S36 2.259698 1_555
Al13 S4 2.237456 1_555
Al13 S13 2.242426 1_555
Al13 S14 2.258281 1_555
Al13 S37 2.259698 1_555
Al14 S10 2.237456 1_555
Al14 S14 2.242426 1_555
Al14 S12 2.258281 1_555
Al14 S38 2.259698 1_555
Al15 S11 2.237456 1_555
Al15 S15 2.242426 1_555
Al15 S23 2.258281 1_555
Al15 S47 2.259698 1_455
Al16 S6 2.237456 1_555
Al16 S16 2.242426 1_555
Al16 S20 2.258281 1_555
Al16 S40 2.259698 1_555
Al17 S43 2.237456 1_555
Al17 S24 2.242426 1_555
Al17 S25 2.258281 1_555
Al17 S1 2.259698 1_555
Al18 S3 2.237456 1_555
Al18 S18 2.242426 1_555
Al18 S15 2.258281 1_555
Al18 S42 2.259698 1_556
Al19 S9 2.237456 1_555
Al19 S19 2.242426 1_555
Al19 S17 2.258281 1_555
Al19 S43 2.259698 1_554
Al20 S1 2.237456 1_555
Al20 S20 2.242426 1_555
Al20 S21 2.258281 1_555
Al20 S44 2.259698 1_655
Al21 S7 2.237456 1_555
Al21 S21 2.242426 1_555
Al21 S16 2.258281 1_555
Al21 S45 2.259698 1_545
Al22 S2 2.237456 1_555
Al22 S22 2.242426 1_555
Al22 S19 2.258281 1_555
Al22 S46 2.259698 1_565
Al23 S5 2.237456 1_555
Al23 S23 2.242426 1_555
Al23 S18 2.258281 1_555
Al23 S39 2.259698 1_555
