# generated using pymatgen
data_FeNi3
_symmetry_space_group_name_H-M   'P 1'
_cell_length_a   4.33279830
_cell_length_b   4.33279830
_cell_length_c   4.33279830
_cell_angle_alpha   131.86473251
_cell_angle_beta   131.86473251
_cell_angle_gamma   70.44275125
_symmetry_Int_Tables_number   1
_chemical_formula_structural   FeNi3
_chemical_formula_sum   'Fe1 Ni3'
_cell_volume   44.20546592
_cell_formula_units_Z   1
loop_
 _symmetry_equiv_pos_site_id
 _symmetry_equiv_pos_as_xyz
  1  'x, y, z'
loop_
 _atom_site_type_symbol
 _atom_site_label
 _atom_site_symmetry_multiplicity
 _atom_site_fract_x
 _atom_site_fract_y
 _atom_site_fract_z
 _atom_site_occupancy
  Fe  Fe0  1  0.00000000  0.00000000  0.00000000  1
  Ni  Ni0  1  0.50000000  0.50000000  0.00000000  1
  Ni  Ni1  1  0.75000000  0.25000000  0.50000000  1
  Ni  Ni2  1  0.25000000  0.75000000  0.50000000  1
loop_
_geom_bond_atom_site_label_1
_geom_bond_atom_site_label_2
_geom_bond_distance
_geom_bond_site_symmetry_2
Fe0 Ni0 2.498886 1_444
Fe0 Ni0 2.498886 1_545
Fe0 Ni0 2.498886 1_455
Fe0 Ni0 2.498886 1_556
Fe0 Ni2 2.500878 1_555
Fe0 Ni2 2.500878 1_545
Fe0 Ni1 2.500878 1_455
Fe0 Ni1 2.500878 1_454
Fe0 Ni1 2.500878 1_444
Fe0 Ni1 2.500878 1_555
Fe0 Ni2 2.500878 1_544
Fe0 Ni2 2.500878 1_444
Ni0 Ni1 2.500878 1_554
Ni0 Ni2 2.500878 1_554
Ni0 Ni1 2.500878 1_454
Ni0 Ni2 2.500878 1_655
Ni0 Ni1 2.500878 1_555
Ni0 Ni1 2.500878 1_565
Ni0 Ni2 2.500878 1_544
Ni0 Ni2 2.500878 1_555
Ni1 Ni2 2.498886 1_645
Ni1 Ni2 2.498886 1_544
Ni1 Ni2 2.498886 1_555
Ni1 Ni2 2.498886 1_656
