# generated using pymatgen
data_La10MgTi7O30
_symmetry_space_group_name_H-M   'P 1'
_cell_length_a   5.60378820
_cell_length_b   5.60378820
_cell_length_c   22.20587300
_cell_angle_alpha   90.00000000
_cell_angle_beta   90.00000000
_cell_angle_gamma   120.00000240
_symmetry_Int_Tables_number   1
_chemical_formula_structural   La10MgTi7O30
_chemical_formula_sum   'La10 Mg1 Ti7 O30'
_cell_volume   603.89564560
_cell_formula_units_Z   1
loop_
 _symmetry_equiv_pos_site_id
 _symmetry_equiv_pos_as_xyz
  1  'x, y, z'
loop_
 _atom_site_type_symbol
 _atom_site_label
 _atom_site_symmetry_multiplicity
 _atom_site_fract_x
 _atom_site_fract_y
 _atom_site_fract_z
 _atom_site_occupancy
  La  La0  1  0.33333300  0.66666700  0.24508400  1
  La  La1  1  0.33333300  0.66666700  0.75030900  1
  La  La2  1  0.66666700  0.33333300  0.14175400  1
  La  La3  1  0.66666700  0.33333300  0.64071200  1
  La  La4  1  0.00000000  0.00000000  0.86063800  1
  La  La5  1  0.00000000  0.00000000  0.35461900  1
  La  La6  1  0.00000000  0.00000000  0.04637800  1
  La  La7  1  0.00000000  0.00000000  0.53231500  1
  La  La8  1  0.66666700  0.33333300  0.96962100  1
  La  La9  1  0.66666700  0.33333300  0.45559800  1
  Mg  Mg0  1  0.00000000  0.00000000  0.19866000  1
  Ti  Ti0  1  0.33333300  0.66666700  0.09395600  1
  Ti  Ti1  1  0.33333300  0.66666700  0.58920500  1
  Ti  Ti2  1  0.33333300  0.66666700  0.91116400  1
  Ti  Ti3  1  0.33333300  0.66666700  0.40788400  1
  Ti  Ti4  1  0.00000000  0.00000000  0.69727200  1
  Ti  Ti5  1  0.66666700  0.33333300  0.80336800  1
  Ti  Ti6  1  0.66666700  0.33333300  0.29800600  1
  O  O0  1  0.65343200  0.89466000  0.14857600  1
  O  O1  1  0.24122800  0.34656800  0.14857600  1
  O  O2  1  0.10534000  0.75877200  0.14857600  1
  O  O3  1  0.22797600  0.89293200  0.65215700  1
  O  O4  1  0.66495700  0.77202400  0.65215700  1
  O  O5  1  0.10706800  0.33504300  0.65215700  1
  O  O6  1  0.00231400  0.44141700  0.84691700  1
  O  O7  1  0.43910300  0.99768600  0.84691700  1
  O  O8  1  0.55858300  0.56089700  0.84691700  1
  O  O9  1  0.43561400  0.43602200  0.35219000  1
  O  O10  1  0.00040800  0.56438600  0.35219000  1
  O  O11  1  0.56397800  0.99959200  0.35219000  1
  O  O12  1  0.23161400  0.32769300  0.94537200  1
  O  O13  1  0.09607900  0.76838600  0.94537200  1
  O  O14  1  0.67230700  0.90392100  0.94537200  1
  O  O15  1  0.09132100  0.32700700  0.44772600  1
  O  O16  1  0.23568700  0.90867900  0.44772600  1
  O  O17  1  0.67299300  0.76431300  0.44772600  1
  O  O18  1  0.42885500  0.00831200  0.05177500  1
  O  O19  1  0.57945700  0.57114500  0.05177500  1
  O  O20  1  0.99168800  0.42054300  0.05177500  1
  O  O21  1  0.57181000  0.00552600  0.55413200  1
  O  O22  1  0.43371700  0.42819000  0.55413200  1
  O  O23  1  0.99447400  0.56628300  0.55413200  1
  O  O24  1  0.89547700  0.23670600  0.25282000  1
  O  O25  1  0.34122900  0.10452300  0.25282000  1
  O  O26  1  0.76329400  0.65877100  0.25282000  1
  O  O27  1  0.33353800  0.22809500  0.74949300  1
  O  O28  1  0.89455700  0.66646200  0.74949300  1
  O  O29  1  0.77190500  0.10544300  0.74949300  1
loop_
_geom_bond_atom_site_label_1
_geom_bond_atom_site_label_2
_geom_bond_distance
_geom_bond_site_symmetry_2
La0 O25 2.437890 1_565
La0 O24 2.437893 1_455
La0 O26 2.437896 1_555
La0 O2 2.674096 1_555
La0 O0 2.674099 1_555
La0 O1 2.674099 1_555
La0 O10 2.897675 1_555
La0 O11 2.897676 1_555
La0 O9 2.897678 1_555
La1 O28 2.458300 1_455
La1 O29 2.458303 1_565
La1 O27 2.458306 1_555
La1 O7 2.700905 1_555
La1 O6 2.700906 1_555
La1 O8 2.700909 1_555
La1 O3 2.730435 1_555
La1 O5 2.730440 1_555
La1 O4 2.730442 1_555
La2 O0 2.426732 1_545
La2 O2 2.426735 1_655
La2 O1 2.426738 1_555
La2 O20 2.580367 1_555
La2 O18 2.580368 1_555
La2 O19 2.580370 1_555
La3 O3 2.476213 1_545
La3 O5 2.476213 1_655
La3 O4 2.476213 1_555
La3 O23 2.525244 1_555
La3 O21 2.525244 1_555
La3 O22 2.525244 1_555
La4 O8 2.485892 1_445
La4 O6 2.485892 1_555
La4 O7 2.485892 1_545
La4 O12 2.492722 1_555
La4 O14 2.492722 1_445
La4 O13 2.492722 1_545
La5 O9 2.442828 1_555
La5 O11 2.442828 1_445
La5 O10 2.442828 1_545
La5 O15 2.637564 1_555
La5 O17 2.637565 1_445
La5 O16 2.637568 1_545
La5 O26 2.826570 1_445
La5 O25 2.826570 1_555
La5 O24 2.826570 1_455
La6 O19 2.383280 1_445
La6 O18 2.383280 1_555
La6 O20 2.383280 1_455
La6 O12 2.775607 1_554
La6 O14 2.775607 1_444
La6 O13 2.775607 1_544
La6 O1 2.850249 1_555
La6 O0 2.850249 1_445
La6 O2 2.850249 1_545
La7 O21 2.463230 1_455
La7 O22 2.463233 1_555
La7 O23 2.463236 1_445
La7 O15 2.492064 1_555
La7 O17 2.492065 1_445
La7 O16 2.492067 1_545
La8 O20 2.448288 1_556
La8 O18 2.448289 1_556
La8 O19 2.448292 1_556
La8 O14 2.481420 1_545
La8 O13 2.481423 1_655
La8 O12 2.481425 1_555
La9 O16 2.403956 1_545
La9 O17 2.403956 1_555
La9 O15 2.403956 1_655
La9 O23 2.732768 1_555
La9 O21 2.732768 1_555
La9 O22 2.732768 1_555
La9 O11 2.832925 1_545
La9 O10 2.832925 1_655
La9 O9 2.832928 1_555
Mg0 O1 2.051989 1_555
Mg0 O0 2.051989 1_445
Mg0 O2 2.051989 1_545
Mg0 O26 2.079878 1_445
Mg0 O25 2.079878 1_555
Mg0 O24 2.079878 1_455
O0 Ti0 2.007300 1_555
O1 Ti0 2.007301 1_555
O2 Ti0 2.007297 1_555
O3 Ti4 1.939640 1_565
O3 Ti1 2.158465 1_555
O4 Ti4 1.939637 1_665
O4 Ti1 2.158473 1_555
O5 Ti4 1.939636 1_555
O5 Ti1 2.158471 1_555
O6 Ti5 1.923686 1_455
O6 Ti2 2.174418 1_555
O7 Ti5 1.923687 1_565
O7 Ti2 2.174417 1_555
O8 Ti5 1.923690 1_555
O8 Ti2 2.174421 1_555
O9 Ti6 2.049474 1_555
O9 Ti3 2.066240 1_555
O10 Ti6 2.049471 1_455
O10 Ti3 2.066235 1_555
O11 Ti6 2.049470 1_565
O11 Ti3 2.066236 1_555
O12 Ti2 1.851329 1_555
O13 Ti2 1.851325 1_555
O14 Ti2 1.851328 1_555
O15 Ti3 1.914028 1_555
O16 Ti3 1.914021 1_555
O17 Ti3 1.914031 1_555
O18 Ti0 1.950487 1_545
O19 Ti0 1.950492 1_555
O20 Ti0 1.950488 1_655
O21 Ti1 1.860278 1_545
O22 Ti1 1.860285 1_555
O23 Ti1 1.860275 1_655
O24 Ti6 1.907440 1_555
O25 Ti6 1.907443 1_555
O26 Ti6 1.907444 1_555
O27 Ti4 2.020616 1_555
O27 Ti5 2.040343 1_555
O28 Ti4 2.020616 1_665
O28 Ti5 2.040342 1_555
O29 Ti4 2.020616 1_655
O29 Ti5 2.040338 1_555
