# generated using pymatgen
data_Ce2AgHg
_symmetry_space_group_name_H-M   'P 1'
_cell_length_a   5.37253651
_cell_length_b   5.37253651
_cell_length_c   5.37253651
_cell_angle_alpha   60.00000000
_cell_angle_beta   60.00000000
_cell_angle_gamma   60.00000000
_symmetry_Int_Tables_number   1
_chemical_formula_structural   Ce2AgHg
_chemical_formula_sum   'Ce2 Ag1 Hg1'
_cell_volume   109.65365928
_cell_formula_units_Z   1
loop_
 _symmetry_equiv_pos_site_id
 _symmetry_equiv_pos_as_xyz
  1  'x, y, z'
loop_
 _atom_site_type_symbol
 _atom_site_label
 _atom_site_symmetry_multiplicity
 _atom_site_fract_x
 _atom_site_fract_y
 _atom_site_fract_z
 _atom_site_occupancy
  Ce  Ce0  1  0.75000000  0.75000000  0.75000000  1
  Ce  Ce1  1  0.25000000  0.25000000  0.25000000  1
  Ag  Ag0  1  0.50000000  0.50000000  0.50000000  1
  Hg  Hg0  1  0.00000000  0.00000000  0.00000000  1
loop_
_geom_bond_atom_site_label_1
_geom_bond_atom_site_label_2
_geom_bond_distance
_geom_bond_site_symmetry_2
Ce0 Hg0 3.289993 1_566
Ce0 Hg0 3.289993 1_666
Ce0 Hg0 3.289993 1_665
Ce0 Hg0 3.289993 1_656
Ce1 Hg0 3.289993 1_655
Ce1 Hg0 3.289993 1_565
Ce1 Hg0 3.289993 1_556
Ce1 Hg0 3.289993 1_555
Ag0 Ce0 3.289993 1_455
Ag0 Ce0 3.289993 1_555
Ag0 Ce0 3.289993 1_545
Ag0 Ce1 3.289993 1_565
Ag0 Ce1 3.289993 1_555
Ag0 Ce1 3.289993 1_655
Ag0 Ce1 3.289993 1_556
Ag0 Ce0 3.289993 1_554
