# generated using pymatgen
data_YMg14BO16
_symmetry_space_group_name_H-M   'P 1'
_cell_length_a   4.31724000
_cell_length_b   8.65567500
_cell_length_c   8.74490200
_cell_angle_alpha   90.00000000
_cell_angle_beta   90.00000000
_cell_angle_gamma   90.00000000
_symmetry_Int_Tables_number   1
_chemical_formula_structural   YMg14BO16
_chemical_formula_sum   'Y1 Mg14 B1 O16'
_cell_volume   326.78497519
_cell_formula_units_Z   1
loop_
 _symmetry_equiv_pos_site_id
 _symmetry_equiv_pos_as_xyz
  1  'x, y, z'
loop_
 _atom_site_type_symbol
 _atom_site_label
 _atom_site_symmetry_multiplicity
 _atom_site_fract_x
 _atom_site_fract_y
 _atom_site_fract_z
 _atom_site_occupancy
  Y  Y0  1  0.00000000  0.00000000  0.00000000  1
  Mg  Mg0  1  0.00000000  0.50000000  0.00000000  1
  Mg  Mg1  1  0.00000000  0.50000000  0.50000000  1
  Mg  Mg2  1  0.50000000  0.00000000  0.26953500  1
  Mg  Mg3  1  0.50000000  0.00000000  0.73046500  1
  Mg  Mg4  1  0.50000000  0.50000000  0.25420300  1
  Mg  Mg5  1  0.50000000  0.50000000  0.74579700  1
  Mg  Mg6  1  0.50000000  0.26201400  0.00000000  1
  Mg  Mg7  1  0.50000000  0.24771000  0.50000000  1
  Mg  Mg8  1  0.50000000  0.73798600  0.00000000  1
  Mg  Mg9  1  0.50000000  0.75229000  0.50000000  1
  Mg  Mg10  1  0.00000000  0.25310000  0.26259800  1
  Mg  Mg11  1  0.00000000  0.25310000  0.73740200  1
  Mg  Mg12  1  0.00000000  0.74690000  0.26259800  1
  Mg  Mg13  1  0.00000000  0.74690000  0.73740200  1
  B  B0  1  0.00000000  0.00000000  0.50000000  1
  O  O0  1  0.00000000  0.26036900  0.00000000  1
  O  O1  1  0.00000000  0.26869200  0.50000000  1
  O  O2  1  0.00000000  0.73963100  0.00000000  1
  O  O3  1  0.00000000  0.73130800  0.50000000  1
  O  O4  1  0.50000000  0.24837400  0.24936400  1
  O  O5  1  0.50000000  0.24837400  0.75063600  1
  O  O6  1  0.50000000  0.75162600  0.24936400  1
  O  O7  1  0.50000000  0.75162600  0.75063600  1
  O  O8  1  0.50000000  0.00000000  0.00000000  1
  O  O9  1  0.50000000  0.00000000  0.50000000  1
  O  O10  1  0.50000000  0.50000000  0.00000000  1
  O  O11  1  0.50000000  0.50000000  0.50000000  1
  O  O12  1  0.00000000  0.00000000  0.24874000  1
  O  O13  1  0.00000000  0.00000000  0.75126000  1
  O  O14  1  0.00000000  0.50000000  0.24747200  1
  O  O15  1  0.00000000  0.50000000  0.75252800  1
loop_
_geom_bond_atom_site_label_1
_geom_bond_atom_site_label_2
_geom_bond_distance
_geom_bond_site_symmetry_2
Mg0 O0 2.074168 1_555
Mg0 O2 2.074168 1_555
Mg0 O10 2.158620 1_455
Mg0 O10 2.158620 1_555
Mg0 O14 2.164118 1_555
Mg0 O15 2.164118 1_554
Mg1 O3 2.002127 1_555
Mg1 O1 2.002127 1_555
Mg1 O11 2.158620 1_555
Mg1 O11 2.158620 1_455
Mg1 O14 2.208333 1_555
Mg1 O15 2.208333 1_555
Mg2 O9 2.015394 1_555
Mg2 O6 2.157069 1_545
Mg2 O4 2.157069 1_555
Mg2 O12 2.166266 1_655
Mg2 O12 2.166266 1_555
Mg2 O8 2.357057 1_555
Mg3 O9 2.015394 1_555
Mg3 O7 2.157069 1_545
Mg3 O5 2.157069 1_555
Mg3 O13 2.166266 1_655
Mg3 O13 2.166266 1_555
Mg3 O8 2.357057 1_556
Mg4 O11 2.149471 1_555
Mg4 O14 2.159422 1_555
Mg4 O14 2.159422 1_655
Mg4 O4 2.178404 1_555
Mg4 O6 2.178404 1_555
Mg4 O10 2.222980 1_555
Mg5 O11 2.149471 1_555
Mg5 O15 2.159422 1_655
Mg5 O15 2.159422 1_555
Mg5 O5 2.178404 1_555
Mg5 O7 2.178404 1_555
Mg5 O10 2.222980 1_556
Mg6 O10 2.059929 1_555
Mg6 O0 2.158667 1_555
Mg6 O0 2.158667 1_655
Mg6 O4 2.183857 1_555
Mg6 O5 2.183857 1_554
Mg6 O8 2.267908 1_555
Mg7 O9 2.144097 1_555
Mg7 O1 2.166246 1_655
Mg7 O1 2.166246 1_555
Mg7 O11 2.183740 1_555
Mg7 O4 2.191795 1_555
Mg7 O5 2.191795 1_555
Mg8 O10 2.059929 1_555
Mg8 O2 2.158667 1_655
Mg8 O2 2.158667 1_555
Mg8 O6 2.183857 1_555
Mg8 O7 2.183857 1_554
Mg8 O8 2.267908 1_565
Mg9 O9 2.144097 1_565
Mg9 O3 2.166246 1_655
Mg9 O3 2.166246 1_555
Mg9 O11 2.183740 1_555
Mg9 O6 2.191795 1_555
Mg9 O7 2.191795 1_555
Mg10 O1 2.080439 1_555
Mg10 O14 2.141176 1_555
Mg10 O4 2.162107 1_455
Mg10 O4 2.162107 1_555
Mg10 O12 2.194101 1_555
Mg10 O0 2.297256 1_555
Mg11 O1 2.080439 1_555
Mg11 O15 2.141176 1_555
Mg11 O5 2.162107 1_555
Mg11 O5 2.162107 1_455
Mg11 O13 2.194101 1_555
Mg11 O0 2.297256 1_556
Mg12 O3 2.080439 1_555
Mg12 O14 2.141176 1_555
Mg12 O6 2.162107 1_455
Mg12 O6 2.162107 1_555
Mg12 O12 2.194101 1_565
Mg12 O2 2.297256 1_555
Mg13 O3 2.080439 1_555
Mg13 O15 2.141176 1_555
Mg13 O7 2.162107 1_555
Mg13 O7 2.162107 1_455
Mg13 O13 2.194101 1_565
Mg13 O2 2.297256 1_556
B0 O9 2.158620 1_455
B0 O9 2.158620 1_555
B0 O13 2.197244 1_555
B0 O12 2.197244 1_555
O0 Y0 2.253669 1_555
O2 Y0 2.253669 1_565
O8 Y0 2.158620 1_555
O8 Y0 2.158620 1_655
O12 Y0 2.175207 1_555
O13 Y0 2.175207 1_556
