# generated using pymatgen
data_Li2Ca3N6
_symmetry_space_group_name_H-M   'P 1'
_cell_length_a   8.17683466
_cell_length_b   8.17683466
_cell_length_c   4.85958600
_cell_angle_alpha   90.00000000
_cell_angle_beta   90.00000000
_cell_angle_gamma   120.83793682
_symmetry_Int_Tables_number   1
_chemical_formula_structural   Li2Ca3N6
_chemical_formula_sum   'Li4 Ca6 N12'
_cell_volume   278.97869937
_cell_formula_units_Z   2
loop_
 _symmetry_equiv_pos_site_id
 _symmetry_equiv_pos_as_xyz
  1  'x, y, z'
loop_
 _atom_site_type_symbol
 _atom_site_label
 _atom_site_symmetry_multiplicity
 _atom_site_fract_x
 _atom_site_fract_y
 _atom_site_fract_z
 _atom_site_occupancy
  Li  Li0  1  0.33932800  0.66067200  0.50000000  1
  Li  Li1  1  0.33932800  0.66067200  0.00000000  1
  Li  Li2  1  0.66067200  0.33932800  0.50000000  1
  Li  Li3  1  0.66067200  0.33932800  0.00000000  1
  Ca  Ca0  1  0.31837800  0.31837800  0.75000000  1
  Ca  Ca1  1  0.68162200  0.68162200  0.25000000  1
  Ca  Ca2  1  0.00334100  0.67864600  0.75000000  1
  Ca  Ca3  1  0.32135400  0.99665900  0.25000000  1
  Ca  Ca4  1  0.99665900  0.32135400  0.25000000  1
  Ca  Ca5  1  0.67864600  0.00334100  0.75000000  1
  N  N0  1  0.46110000  0.11370600  0.75000000  1
  N  N1  1  0.88629400  0.53890000  0.25000000  1
  N  N2  1  0.53890000  0.88629400  0.25000000  1
  N  N3  1  0.11370600  0.46110000  0.75000000  1
  N  N4  1  0.93155700  0.33482800  0.75000000  1
  N  N5  1  0.66517200  0.06844300  0.25000000  1
  N  N6  1  0.06844300  0.66517200  0.25000000  1
  N  N7  1  0.33482800  0.93155700  0.75000000  1
  N  N8  1  0.65799100  0.56535000  0.75000000  1
  N  N9  1  0.43465000  0.34200900  0.25000000  1
  N  N10  1  0.34200900  0.43465000  0.25000000  1
  N  N11  1  0.56535000  0.65799100  0.75000000  1
loop_
_geom_bond_atom_site_label_1
_geom_bond_atom_site_label_2
_geom_bond_distance
_geom_bond_site_symmetry_2
Li0 N3 2.110924 1_555
Li0 N2 2.110924 1_555
Li0 N10 2.221177 1_555
Li0 N11 2.221177 1_555
Li0 N6 2.543036 1_555
Li0 N7 2.543036 1_555
Li1 N3 2.110924 1_554
Li1 N2 2.110924 1_555
Li1 N10 2.221177 1_555
Li1 N11 2.221177 1_554
Li1 N6 2.543036 1_555
Li1 N7 2.543036 1_554
Li2 N0 2.110924 1_555
Li2 N1 2.110924 1_555
Li2 N9 2.221177 1_555
Li2 N8 2.221177 1_555
Li2 N5 2.543036 1_555
Li2 N4 2.543036 1_555
Li3 N0 2.110924 1_554
Li3 N1 2.110924 1_555
Li3 N9 2.221177 1_555
Li3 N8 2.221177 1_554
Li3 N5 2.543036 1_555
Li3 N4 2.543036 1_554
Ca0 N11 2.457702 1_555
Ca0 N8 2.457702 1_555
Ca0 N0 2.482961 1_555
Ca0 N3 2.482961 1_555
Ca0 N9 2.580076 1_555
Ca0 N10 2.580076 1_555
Ca0 N10 2.580076 1_556
Ca0 N9 2.580076 1_556
Ca1 N9 2.457702 1_555
Ca1 N10 2.457702 1_555
Ca1 N1 2.482961 1_555
Ca1 N2 2.482961 1_555
Ca1 N8 2.580076 1_555
Ca1 N8 2.580076 1_554
Ca1 N11 2.580076 1_555
Ca1 N11 2.580076 1_554
Ca2 N3 2.371589 1_555
Ca2 N7 2.424211 1_555
Ca2 N8 2.480008 1_455
Ca2 N6 2.501906 1_555
Ca2 N6 2.501906 1_556
Ca2 N4 2.560546 1_455
Ca2 N1 2.646580 1_455
Ca2 N1 2.646580 1_456
Ca3 N2 2.371589 1_555
Ca3 N6 2.424211 1_555
Ca3 N9 2.480008 1_565
Ca3 N7 2.501906 1_555
Ca3 N7 2.501906 1_554
Ca3 N5 2.560546 1_565
Ca3 N0 2.646580 1_565
Ca3 N0 2.646580 1_564
Ca4 N1 2.371589 1_555
Ca4 N5 2.424211 1_555
Ca4 N10 2.480008 1_655
Ca4 N4 2.501906 1_555
Ca4 N4 2.501906 1_554
Ca4 N6 2.560546 1_655
Ca4 N3 2.646580 1_654
Ca4 N3 2.646580 1_655
Ca5 N0 2.371589 1_555
Ca5 N4 2.424211 1_555
Ca5 N11 2.480008 1_545
Ca5 N5 2.501906 1_556
Ca5 N5 2.501906 1_555
Ca5 N7 2.560546 1_545
Ca5 N2 2.646580 1_546
Ca5 N2 2.646580 1_545
N0 N7 1.306821 1_545
N1 N6 1.306821 1_655
N2 N5 1.306821 1_565
N3 N4 1.306821 1_455
N10 N9 1.317550 1_555
N11 N8 1.317550 1_555
