# generated using pymatgen
data_Rb2Hg3Se4
_symmetry_space_group_name_H-M   'P 1'
_cell_length_a   6.53727611
_cell_length_b   9.97881664
_cell_length_c   9.97881664
_cell_angle_alpha   72.78082195
_cell_angle_beta   70.87939633
_cell_angle_gamma   70.87939633
_symmetry_Int_Tables_number   1
_chemical_formula_structural   Rb2Hg3Se4
_chemical_formula_sum   'Rb4 Hg6 Se8'
_cell_volume   567.98102836
_cell_formula_units_Z   2
loop_
 _symmetry_equiv_pos_site_id
 _symmetry_equiv_pos_as_xyz
  1  'x, y, z'
loop_
 _atom_site_type_symbol
 _atom_site_label
 _atom_site_symmetry_multiplicity
 _atom_site_fract_x
 _atom_site_fract_y
 _atom_site_fract_z
 _atom_site_occupancy
  Rb  Rb0  1  0.22727705  0.88021129  0.11978871  1
  Rb  Rb1  1  0.77272295  0.11978871  0.88021129  1
  Rb  Rb2  1  0.27272295  0.38021129  0.61978871  1
  Rb  Rb3  1  0.72727705  0.61978871  0.38021129  1
  Hg  Hg0  1  0.25000000  0.25000000  0.25000000  1
  Hg  Hg1  1  0.75000000  0.75000000  0.75000000  1
  Hg  Hg2  1  0.25000000  0.58918616  0.91081384  1
  Hg  Hg3  1  0.25000000  0.91081384  0.58918616  1
  Hg  Hg4  1  0.75000000  0.41081384  0.08918616  1
  Hg  Hg5  1  0.75000000  0.08918616  0.41081384  1
  Se  Se0  1  0.35927625  0.49627238  0.23321031  1
  Se  Se1  1  0.91124007  0.23321031  0.49627238  1
  Se  Se2  1  0.14072375  0.26678969  0.00372762  1
  Se  Se3  1  0.58875993  0.00372762  0.26678969  1
  Se  Se4  1  0.64072375  0.50372762  0.76678969  1
  Se  Se5  1  0.08875993  0.76678969  0.50372762  1
  Se  Se6  1  0.85927625  0.73321031  0.99627238  1
  Se  Se7  1  0.41124007  0.99627238  0.73321031  1
loop_
_geom_bond_atom_site_label_1
_geom_bond_atom_site_label_2
_geom_bond_distance
_geom_bond_site_symmetry_2
Rb0 Se5 3.551171 1_555
Rb0 Se0 3.551171 1_555
Rb0 Se7 3.591206 1_554
Rb0 Se2 3.591207 1_565
Rb0 Se6 3.808504 1_554
Rb0 Se3 3.808510 1_565
Rb0 Se3 3.844900 1_465
Rb0 Se6 3.844905 1_454
Rb1 Se1 3.551171 1_555
Rb1 Se4 3.551171 1_555
Rb1 Se3 3.591206 1_556
Rb1 Se6 3.591207 1_545
Rb1 Se2 3.808504 1_556
Rb1 Se7 3.808510 1_545
Rb1 Se7 3.844900 1_645
Rb1 Se2 3.844905 1_656
Rb2 Se7 3.551171 1_545
Rb2 Se2 3.551171 1_556
Rb2 Se5 3.591206 1_555
Rb2 Se0 3.591207 1_555
Rb2 Se4 3.808504 1_455
Rb2 Se1 3.808510 1_455
Rb2 Se1 3.844900 1_555
Rb2 Se4 3.844905 1_555
Rb3 Se3 3.551171 1_565
Rb3 Se6 3.551171 1_554
Rb3 Se1 3.591206 1_555
Rb3 Se4 3.591207 1_555
Rb3 Se0 3.808504 1_655
Rb3 Se5 3.808510 1_655
Rb3 Se5 3.844900 1_555
Rb3 Se0 3.844905 1_555
Hg0 Se0 2.721333 1_555
Hg0 Se2 2.721333 1_555
Hg0 Se3 2.721337 1_555
Hg0 Se1 2.721337 1_455
Hg1 Se6 2.721333 1_555
Hg1 Se4 2.721333 1_555
Hg1 Se5 2.721337 1_655
Hg1 Se7 2.721337 1_555
Hg2 Se4 2.492140 1_555
Hg2 Se6 2.492140 1_455
Hg2 Rb0 3.988016 1_556
Hg2 Rb2 3.988016 1_555
Hg3 Se7 2.492136 1_555
Hg3 Se5 2.492136 1_555
Hg3 Rb1 3.988016 1_465
Hg3 Rb3 3.988016 1_555
Hg4 Se0 2.492140 1_555
Hg4 Se2 2.492140 1_655
Hg4 Rb3 3.988016 1_555
Hg4 Rb1 3.988016 1_554
Hg5 Se3 2.492136 1_555
Hg5 Se1 2.492136 1_555
Hg5 Rb2 3.988016 1_555
Hg5 Rb0 3.988016 1_645
