# generated using pymatgen
data_MgTi
_symmetry_space_group_name_H-M   'P 1'
_cell_length_a   4.83650500
_cell_length_b   5.24216300
_cell_length_c   6.21064500
_cell_angle_alpha   90.00000000
_cell_angle_beta   90.00000000
_cell_angle_gamma   90.00000000
_symmetry_Int_Tables_number   1
_chemical_formula_structural   MgTi
_chemical_formula_sum   'Mg4 Ti4'
_cell_volume   157.46312552
_cell_formula_units_Z   4
loop_
 _symmetry_equiv_pos_site_id
 _symmetry_equiv_pos_as_xyz
  1  'x, y, z'
loop_
 _atom_site_type_symbol
 _atom_site_label
 _atom_site_symmetry_multiplicity
 _atom_site_fract_x
 _atom_site_fract_y
 _atom_site_fract_z
 _atom_site_occupancy
  Mg  Mg0  1  0.00000000  0.50191300  0.23411400  1
  Mg  Mg1  1  0.00000000  0.01981500  0.50000000  1
  Mg  Mg2  1  0.00000000  0.50191300  0.76588600  1
  Mg  Mg3  1  0.50000000  0.65944300  0.50000000  1
  Ti  Ti0  1  0.00000000  0.00590400  0.00000000  1
  Ti  Ti1  1  0.50000000  0.68558300  0.00000000  1
  Ti  Ti2  1  0.50000000  0.14604800  0.21417800  1
  Ti  Ti3  1  0.50000000  0.14604800  0.78582200  1
loop_
_geom_bond_atom_site_label_1
_geom_bond_atom_site_label_2
_geom_bond_distance
_geom_bond_site_symmetry_2
Mg0 Mg2 2.907998 1_554
Mg0 Ti0 2.979085 1_555
Mg0 Ti1 2.981459 1_455
Mg0 Ti1 2.981459 1_555
Mg0 Ti0 3.015674 1_565
Mg0 Mg1 3.018906 1_555
Mg0 Mg3 3.042492 1_555
Mg0 Mg3 3.042492 1_455
Mg0 Ti2 3.056693 1_455
Mg0 Ti2 3.056693 1_555
Mg0 Mg1 3.177687 1_565
Mg0 Mg2 3.302647 1_555
Mg1 Mg2 3.018906 1_555
Mg1 Mg3 3.068673 1_445
Mg1 Mg3 3.068673 1_545
Mg1 Ti3 3.071963 1_555
Mg1 Ti2 3.071963 1_555
Mg1 Ti2 3.071963 1_455
Mg1 Ti3 3.071963 1_455
Mg1 Ti0 3.106179 1_556
Mg1 Ti0 3.106179 1_555
Mg1 Mg2 3.177687 1_545
Mg2 Ti0 2.979085 1_556
Mg2 Ti1 2.981459 1_556
Mg2 Ti1 2.981459 1_456
Mg2 Ti0 3.015674 1_566
Mg2 Mg3 3.042492 1_555
Mg2 Mg3 3.042492 1_455
Mg2 Ti3 3.056693 1_455
Mg2 Ti3 3.056693 1_555
Mg3 Ti3 3.107735 1_565
Mg3 Ti2 3.107735 1_565
Mg3 Ti1 3.108344 1_555
Mg3 Ti1 3.108344 1_556
Mg3 Ti2 3.224006 1_555
Mg3 Ti3 3.224006 1_555
Ti0 Ti2 2.856056 1_555
Ti0 Ti3 2.856056 1_454
Ti0 Ti2 2.856056 1_455
Ti0 Ti3 2.856056 1_554
Ti0 Ti1 2.944074 1_545
Ti0 Ti1 2.944074 1_445
Ti1 Ti2 2.756080 1_565
Ti1 Ti3 2.756080 1_564
Ti1 Ti2 3.125515 1_555
Ti1 Ti3 3.125515 1_554
Ti2 Ti3 2.660367 1_554
Ti2 Ti3 3.550278 1_555
