# generated using pymatgen
data_Mg5Ag
_symmetry_space_group_name_H-M   'P 1'
_cell_length_a   5.84095167
_cell_length_b   5.84095167
_cell_length_c   5.84095161
_cell_angle_alpha   54.73317279
_cell_angle_beta   54.73317279
_cell_angle_gamma   54.73317526
_symmetry_Int_Tables_number   1
_chemical_formula_structural   Mg5Ag
_chemical_formula_sum   'Mg5 Ag1'
_cell_volume   123.62212557
_cell_formula_units_Z   1
loop_
 _symmetry_equiv_pos_site_id
 _symmetry_equiv_pos_as_xyz
  1  'x, y, z'
loop_
 _atom_site_type_symbol
 _atom_site_label
 _atom_site_symmetry_multiplicity
 _atom_site_fract_x
 _atom_site_fract_y
 _atom_site_fract_z
 _atom_site_occupancy
  Mg  Mg0  1  0.65895454  0.34104546  0.00000000  1
  Mg  Mg1  1  -0.00000000  0.65895454  0.34104546  1
  Mg  Mg2  1  0.34104546  0.00000000  0.65895454  1
  Mg  Mg3  1  0.16560029  0.16560029  0.16560029  1
  Mg  Mg4  1  0.83439971  0.83439971  0.83439971  1
  Ag  Ag0  1  0.50000000  0.50000000  0.50000000  1
loop_
_geom_bond_atom_site_label_1
_geom_bond_atom_site_label_2
_geom_bond_distance
_geom_bond_site_symmetry_2
Mg0 Mg3 3.055556 1_555
Mg0 Mg4 3.055556 1_554
Mg0 Mg2 3.065112 1_555
Mg0 Mg1 3.065112 1_654
Mg0 Mg1 3.065112 1_555
Mg0 Mg2 3.065112 1_564
Mg0 Mg4 3.066272 1_544
Mg0 Mg3 3.066272 1_655
Mg0 Mg2 3.172079 1_654
Mg0 Mg1 3.172079 1_645
Mg1 Mg4 3.055556 1_455
Mg1 Mg3 3.055556 1_555
Mg1 Mg2 3.065112 1_465
Mg1 Mg2 3.065112 1_555
Mg1 Mg3 3.066272 1_565
Mg1 Mg4 3.066272 1_454
Mg1 Mg2 3.172079 1_564
Mg2 Mg3 3.055556 1_555
Mg2 Mg4 3.055556 1_545
Mg2 Mg4 3.066272 1_445
Mg2 Mg3 3.066272 1_556
Mg3 Mg4 3.100510 1_445
Mg3 Mg4 3.100510 1_454
Mg3 Mg4 3.100510 1_544
Ag0 Mg2 3.042660 1_555
Ag0 Mg1 3.042660 1_655
Ag0 Mg0 3.042660 1_555
Ag0 Mg0 3.042660 1_556
Ag0 Mg2 3.042660 1_565
Ag0 Mg1 3.042660 1_555
Ag0 Mg3 3.100388 1_556
Ag0 Mg4 3.100388 1_554
Ag0 Mg4 3.100388 1_455
Ag0 Mg3 3.100388 1_565
Ag0 Mg3 3.100388 1_655
Ag0 Mg4 3.100388 1_545
