# generated using pymatgen
data_Na3V6N11
_symmetry_space_group_name_H-M   'P 1'
_cell_length_a   10.56932900
_cell_length_b   10.56932900
_cell_length_c   5.17919600
_cell_angle_alpha   90.00000000
_cell_angle_beta   90.00000000
_cell_angle_gamma   90.00000000
_symmetry_Int_Tables_number   1
_chemical_formula_structural   Na3V6N11
_chemical_formula_sum   'Na6 V12 N22'
_cell_volume   578.57169093
_cell_formula_units_Z   2
loop_
 _symmetry_equiv_pos_site_id
 _symmetry_equiv_pos_as_xyz
  1  'x, y, z'
loop_
 _atom_site_type_symbol
 _atom_site_label
 _atom_site_symmetry_multiplicity
 _atom_site_fract_x
 _atom_site_fract_y
 _atom_site_fract_z
 _atom_site_occupancy
  Na  Na0  1  0.32357600  0.82357600  0.98734300  1
  Na  Na1  1  0.67642400  0.17642400  0.98734300  1
  Na  Na2  1  0.17642400  0.32357600  0.98734300  1
  Na  Na3  1  0.82357600  0.67642400  0.98734300  1
  Na  Na4  1  0.50000000  0.50000000  0.99113200  1
  Na  Na5  1  0.00000000  0.00000000  0.99113200  1
  V  V0  1  0.42452600  0.28802200  0.53556100  1
  V  V1  1  0.57547400  0.71197800  0.53556100  1
  V  V2  1  0.07547400  0.78802200  0.53556100  1
  V  V3  1  0.92452600  0.21197800  0.53556100  1
  V  V4  1  0.28802200  0.57547400  0.53556100  1
  V  V5  1  0.71197800  0.42452600  0.53556100  1
  V  V6  1  0.78802200  0.92452600  0.53556100  1
  V  V7  1  0.21197800  0.07547400  0.53556100  1
  V  V8  1  0.88067900  0.38067900  0.05454400  1
  V  V9  1  0.11932100  0.61932100  0.05454400  1
  V  V10  1  0.61932100  0.88067900  0.05454400  1
  V  V11  1  0.38067900  0.11932100  0.05454400  1
  N  N0  1  0.32368900  0.41703600  0.62583800  1
  N  N1  1  0.67631100  0.58296400  0.62583800  1
  N  N2  1  0.17631100  0.91703600  0.62583800  1
  N  N3  1  0.82368900  0.08296400  0.62583800  1
  N  N4  1  0.41703600  0.67631100  0.62583800  1
  N  N5  1  0.58296400  0.32368900  0.62583800  1
  N  N6  1  0.91703600  0.82368900  0.62583800  1
  N  N7  1  0.08296400  0.17631100  0.62583800  1
  N  N8  1  0.42758100  0.26743700  0.19043600  1
  N  N9  1  0.57241900  0.73256300  0.19043600  1
  N  N10  1  0.07241900  0.76743700  0.19043600  1
  N  N11  1  0.92758100  0.23256300  0.19043600  1
  N  N12  1  0.26743700  0.57241900  0.19043600  1
  N  N13  1  0.73256300  0.42758100  0.19043600  1
  N  N14  1  0.76743700  0.92758100  0.19043600  1
  N  N15  1  0.23256300  0.07241900  0.19043600  1
  N  N16  1  0.85524500  0.35524500  0.69930000  1
  N  N17  1  0.14475500  0.64475500  0.69930000  1
  N  N18  1  0.64475500  0.85524500  0.69930000  1
  N  N19  1  0.35524500  0.14475500  0.69930000  1
  N  N20  1  0.50000000  0.00000000  0.08769200  1
  N  N21  1  0.00000000  0.50000000  0.08769200  1
loop_
_geom_bond_atom_site_label_1
_geom_bond_atom_site_label_2
_geom_bond_distance
_geom_bond_site_symmetry_2
N0 V4 1.779032 1_555
N0 V0 1.792730 1_555
N0 Na2 2.627539 1_555
N0 Na4 2.796586 1_555
N1 V5 1.779032 1_555
N1 V1 1.792730 1_555
N1 Na3 2.627539 1_555
N1 Na4 2.796586 1_555
N2 V7 1.779032 1_565
N2 V2 1.792730 1_555
N2 Na0 2.627539 1_555
N2 Na5 2.796586 1_565
N3 V6 1.779032 1_545
N3 V3 1.792730 1_555
N3 Na1 2.627539 1_555
N3 Na5 2.796586 1_655
N4 V1 1.779032 1_555
N4 V4 1.792730 1_555
N4 Na0 2.627539 1_555
N4 Na4 2.796586 1_555
N5 V0 1.779032 1_555
N5 V5 1.792730 1_555
N5 Na1 2.627539 1_555
N5 Na4 2.796586 1_555
N6 V2 1.779032 1_655
N6 V6 1.792730 1_555
N6 Na3 2.627539 1_555
N6 Na5 2.796586 1_665
N7 V3 1.779032 1_455
N7 V7 1.792730 1_555
N7 Na2 2.627539 1_555
N7 Na5 2.796586 1_555
N8 V11 1.786572 1_555
N8 V0 1.800952 1_555
N8 Na4 2.773682 1_554
N8 Na2 2.916362 1_554
N8 Na1 2.991520 1_554
N9 V10 1.786572 1_555
N9 V1 1.800952 1_555
N9 Na4 2.773682 1_554
N9 Na3 2.916362 1_554
N9 Na0 2.991520 1_554
N10 V9 1.786572 1_555
N10 V2 1.800952 1_555
N10 Na5 2.773682 1_564
N10 Na0 2.916362 1_554
N10 Na3 2.991520 1_454
N11 V8 1.786572 1_555
N11 V3 1.800952 1_555
N11 Na5 2.773682 1_654
N11 Na1 2.916362 1_554
N11 Na2 2.991520 1_654
N12 V9 1.786572 1_555
N12 V4 1.800952 1_555
N12 Na4 2.773682 1_554
N12 Na0 2.916362 1_554
N12 Na2 2.991520 1_554
N13 V8 1.786572 1_555
N13 V5 1.800952 1_555
N13 Na4 2.773682 1_554
N13 Na1 2.916362 1_554
N13 Na3 2.991520 1_554
N14 V10 1.786572 1_555
N14 V6 1.800952 1_555
N14 Na5 2.773682 1_664
N14 Na3 2.916362 1_554
N14 Na1 2.991520 1_564
N15 V11 1.786572 1_555
N15 V7 1.800952 1_555
N15 Na5 2.773682 1_554
N15 Na2 2.916362 1_554
N15 Na0 2.991520 1_544
N16 V8 1.878744 1_556
N16 V5 1.883686 1_555
N16 V3 1.883686 1_555
N17 V9 1.878744 1_556
N17 V2 1.883686 1_555
N17 V4 1.883686 1_555
N18 V10 1.878744 1_556
N18 V1 1.883686 1_555
N18 V6 1.883686 1_555
N19 V11 1.878744 1_556
N19 V0 1.883686 1_555
N19 V7 1.883686 1_555
N20 V11 1.791769 1_555
N20 V10 1.791769 1_545
N20 Na1 2.687788 1_554
N20 Na0 2.687788 1_544
N21 V9 1.791769 1_555
N21 V8 1.791769 1_455
N21 Na3 2.687788 1_454
N21 Na2 2.687788 1_554
