# generated using pymatgen
data_RbVPHO6
_symmetry_space_group_name_H-M   'P 1'
_cell_length_a   6.86672800
_cell_length_b   9.49969600
_cell_length_c   17.92443700
_cell_angle_alpha   90.00000000
_cell_angle_beta   90.00000000
_cell_angle_gamma   90.00000000
_symmetry_Int_Tables_number   1
_chemical_formula_structural   RbVPHO6
_chemical_formula_sum   'Rb8 V8 P8 H8 O48'
_cell_volume   1169.24380061
_cell_formula_units_Z   8
loop_
 _symmetry_equiv_pos_site_id
 _symmetry_equiv_pos_as_xyz
  1  'x, y, z'
loop_
 _atom_site_type_symbol
 _atom_site_label
 _atom_site_symmetry_multiplicity
 _atom_site_fract_x
 _atom_site_fract_y
 _atom_site_fract_z
 _atom_site_occupancy
  Rb  Rb0  1  0.72720300  0.19067200  0.39754900  1
  Rb  Rb1  1  0.22720300  0.30932800  0.60245100  1
  Rb  Rb2  1  0.27279700  0.69067200  0.10245100  1
  Rb  Rb3  1  0.77279700  0.80932800  0.89754900  1
  Rb  Rb4  1  0.27279700  0.80932800  0.60245100  1
  Rb  Rb5  1  0.77279700  0.69067200  0.39754900  1
  Rb  Rb6  1  0.72720300  0.30932800  0.89754900  1
  Rb  Rb7  1  0.22720300  0.19067200  0.10245100  1
  V  V0  1  0.47546500  0.45202600  0.25640300  1
  V  V1  1  0.97546500  0.04797400  0.74359700  1
  V  V2  1  0.52453500  0.95202600  0.24359700  1
  V  V3  1  0.02453500  0.54797400  0.75640300  1
  V  V4  1  0.52453500  0.54797400  0.74359700  1
  V  V5  1  0.02453500  0.95202600  0.25640300  1
  V  V6  1  0.47546500  0.04797400  0.75640300  1
  V  V7  1  0.97546500  0.45202600  0.24359700  1
  P  P0  1  0.20481100  0.38797200  0.40012900  1
  P  P1  1  0.70481100  0.11202800  0.59987100  1
  P  P2  1  0.79518900  0.88797200  0.09987100  1
  P  P3  1  0.29518900  0.61202800  0.90012900  1
  P  P4  1  0.79518900  0.61202800  0.59987100  1
  P  P5  1  0.29518900  0.88797200  0.40012900  1
  P  P6  1  0.20481100  0.11202800  0.90012900  1
  P  P7  1  0.70481100  0.38797200  0.09987100  1
  H  H0  1  0.28135200  0.60028800  0.44859100  1
  H  H1  1  0.78135200  0.89971200  0.55140900  1
  H  H2  1  0.71864800  0.10028800  0.05140900  1
  H  H3  1  0.21864800  0.39971200  0.94859100  1
  H  H4  1  0.71864800  0.39971200  0.55140900  1
  H  H5  1  0.21864800  0.10028800  0.44859100  1
  H  H6  1  0.28135200  0.89971200  0.94859100  1
  H  H7  1  0.78135200  0.60028800  0.05140900  1
  O  O0  1  0.15082000  0.25225800  0.43892800  1
  O  O1  1  0.65082000  0.24774200  0.56107200  1
  O  O2  1  0.84918000  0.75225800  0.06107200  1
  O  O3  1  0.34918000  0.74774200  0.93892800  1
  O  O4  1  0.84918000  0.74774200  0.56107200  1
  O  O5  1  0.34918000  0.75225800  0.43892800  1
  O  O6  1  0.15082000  0.24774200  0.93892800  1
  O  O7  1  0.65082000  0.25225800  0.06107200  1
  O  O8  1  0.39518100  0.37522000  0.35272300  1
  O  O9  1  0.89518100  0.12478000  0.64727700  1
  O  O10  1  0.60481900  0.87522000  0.14727700  1
  O  O11  1  0.10481900  0.62478000  0.85272300  1
  O  O12  1  0.60481900  0.62478000  0.64727700  1
  O  O13  1  0.10481900  0.87522000  0.35272300  1
  O  O14  1  0.39518100  0.12478000  0.85272300  1
  O  O15  1  0.89518100  0.37522000  0.14727700  1
  O  O16  1  0.24226000  0.49993200  0.46411000  1
  O  O17  1  0.74226000  0.00006800  0.53589000  1
  O  O18  1  0.75774000  0.99993200  0.03589000  1
  O  O19  1  0.25774000  0.50006800  0.96411000  1
  O  O20  1  0.75774000  0.50006800  0.53589000  1
  O  O21  1  0.25774000  0.99993200  0.46411000  1
  O  O22  1  0.24226000  0.00006800  0.96411000  1
  O  O23  1  0.74226000  0.49993200  0.03589000  1
  O  O24  1  0.03581700  0.44583700  0.35075100  1
  O  O25  1  0.53581700  0.05416300  0.64924900  1
  O  O26  1  0.96418300  0.94583700  0.14924900  1
  O  O27  1  0.46418300  0.55416300  0.85075100  1
  O  O28  1  0.96418300  0.55416300  0.64924900  1
  O  O29  1  0.46418300  0.94583700  0.35075100  1
  O  O30  1  0.03581700  0.05416300  0.85075100  1
  O  O31  1  0.53581700  0.44583700  0.14924900  1
  O  O32  1  0.72139600  0.40077600  0.27607700  1
  O  O33  1  0.22139600  0.09922400  0.72392300  1
  O  O34  1  0.27860400  0.90077600  0.22392300  1
  O  O35  1  0.77860400  0.59922400  0.77607700  1
  O  O36  1  0.27860400  0.59922400  0.72392300  1
  O  O37  1  0.77860400  0.90077600  0.27607700  1
  O  O38  1  0.72139600  0.09922400  0.77607700  1
  O  O39  1  0.22139600  0.40077600  0.22392300  1
  O  O40  1  0.46661400  0.62129900  0.27043600  1
  O  O41  1  0.96661400  0.87870100  0.72956400  1
  O  O42  1  0.53338600  0.12129900  0.22956400  1
  O  O43  1  0.03338600  0.37870100  0.77043600  1
  O  O44  1  0.53338600  0.37870100  0.72956400  1
  O  O45  1  0.03338600  0.12129900  0.27043600  1
  O  O46  1  0.46661400  0.87870100  0.77043600  1
  O  O47  1  0.96661400  0.62129900  0.22956400  1
loop_
_geom_bond_atom_site_label_1
_geom_bond_atom_site_label_2
_geom_bond_distance
_geom_bond_site_symmetry_2
H0 O16 1.028744 1_555
H0 O5 1.526797 1_555
H1 O17 1.028744 1_565
H1 O4 1.526797 1_555
H2 O18 1.028744 1_545
H2 O7 1.526797 1_555
H3 O19 1.028744 1_555
H3 O6 1.526797 1_555
H4 O20 1.028744 1_555
H4 O1 1.526797 1_555
H5 O21 1.028744 1_545
H5 O0 1.526797 1_555
H6 O22 1.028744 1_565
H6 O3 1.526797 1_555
H7 O23 1.028744 1_555
H7 O2 1.526797 1_555
O0 P0 1.511041 1_555
O0 Rb1 3.026570 1_555
O0 Rb0 3.058411 1_455
O1 P1 1.511041 1_555
O1 Rb0 3.026570 1_555
O1 Rb1 3.058411 1_555
O2 P2 1.511041 1_555
O2 Rb3 3.026570 1_554
O2 Rb2 3.058411 1_655
O3 P3 1.511041 1_555
O3 Rb2 3.026570 1_556
O3 Rb3 3.058411 1_555
O4 P4 1.511041 1_555
O4 Rb5 3.026570 1_555
O4 Rb4 3.058411 1_655
O5 P5 1.511041 1_555
O5 Rb4 3.026570 1_555
O5 Rb5 3.058411 1_555
O6 P6 1.511041 1_555
O6 Rb7 3.026570 1_556
O6 Rb6 3.058411 1_455
O7 P7 1.511041 1_555
O7 Rb6 3.026570 1_554
O7 Rb7 3.058411 1_555
O8 P0 1.563819 1_555
O8 V0 1.953720 1_555
O8 Rb0 2.986148 1_555
O9 P1 1.563819 1_555
O9 V1 1.953720 1_555
O9 Rb1 2.986148 1_655
O10 P2 1.563819 1_555
O10 V2 1.953720 1_555
O10 Rb2 2.986148 1_555
O11 P3 1.563819 1_555
O11 V3 1.953720 1_555
O11 Rb3 2.986148 1_455
O12 P4 1.563819 1_555
O12 V4 1.953720 1_555
O12 Rb4 2.986148 1_555
O13 P5 1.563819 1_555
O13 V5 1.953720 1_555
O13 Rb5 2.986148 1_455
O14 P6 1.563819 1_555
O14 V6 1.953720 1_555
O14 Rb6 2.986148 1_555
O15 P7 1.563819 1_555
O15 V7 1.953720 1_555
O15 Rb7 2.986148 1_655
O16 P0 1.585101 1_555
O16 Rb1 3.072147 1_555
O17 P1 1.585101 1_555
O17 Rb0 3.072147 1_555
O18 P2 1.585101 1_555
O18 Rb3 3.072147 1_554
O19 P3 1.585101 1_555
O19 Rb2 3.072147 1_556
O20 P4 1.585101 1_555
O20 Rb5 3.072147 1_555
O21 P5 1.585101 1_555
O21 Rb4 3.072147 1_555
O22 P6 1.585101 1_555
O22 Rb7 3.072147 1_556
O23 P7 1.585101 1_555
O23 Rb6 3.072147 1_554
O24 P0 1.559530 1_555
O24 V7 1.965755 1_455
O24 Rb5 3.061894 1_455
O25 P1 1.559530 1_555
O25 V6 1.965755 1_555
O25 Rb4 3.061894 1_545
O26 P2 1.559530 1_555
O26 V5 1.965755 1_655
O26 Rb7 3.061894 1_665
O27 P3 1.559530 1_555
O27 V4 1.965755 1_555
O27 Rb6 3.061894 1_555
O28 P4 1.559530 1_555
O28 V3 1.965755 1_655
O28 Rb1 3.061894 1_655
O29 P5 1.559530 1_555
O29 V2 1.965755 1_555
O29 Rb0 3.061894 1_565
O30 P6 1.559530 1_555
O30 V1 1.965755 1_455
O30 Rb3 3.061894 1_445
O31 P7 1.559530 1_555
O31 V0 1.965755 1_555
O31 Rb2 3.061894 1_555
O32 V0 1.792551 1_555
O32 V7 1.902546 1_555
O32 Rb0 2.953983 1_555
O33 V1 1.792551 1_455
O33 V6 1.902546 1_555
O33 Rb1 2.953983 1_555
O34 V2 1.792551 1_555
O34 V5 1.902546 1_555
O34 Rb2 2.953983 1_555
O35 V3 1.792551 1_655
O35 V4 1.902546 1_555
O35 Rb3 2.953983 1_555
O36 V4 1.792551 1_555
O36 V3 1.902546 1_555
O36 Rb4 2.953983 1_555
O37 V5 1.792551 1_655
O37 V2 1.902546 1_555
O37 Rb5 2.953983 1_555
O38 V6 1.792551 1_555
O38 V1 1.902546 1_555
O38 Rb6 2.953983 1_555
O39 V7 1.792551 1_455
O39 V0 1.902546 1_555
O39 Rb7 2.953983 1_555
O40 V0 1.628730 1_555
O40 Rb5 3.169535 1_555
O41 V1 1.628730 1_565
O41 Rb4 3.169535 1_655
O42 V2 1.628730 1_545
O42 Rb7 3.169535 1_555
O43 V3 1.628730 1_555
O43 Rb6 3.169535 1_455
O44 V4 1.628730 1_555
O44 Rb1 3.169535 1_555
O45 V5 1.628730 1_545
O45 Rb0 3.169535 1_455
O46 V6 1.628730 1_565
O46 Rb3 3.169535 1_555
O47 V7 1.628730 1_555
O47 Rb2 3.169535 1_655
