# generated using pymatgen
data_SrCd4S5
_symmetry_space_group_name_H-M   'P 1'
_cell_length_a   16.23424601
_cell_length_b   16.23424601
_cell_length_c   16.23424610
_cell_angle_alpha   14.11814923
_cell_angle_beta   14.11814923
_cell_angle_gamma   14.11814677
_symmetry_Int_Tables_number   1
_chemical_formula_structural   SrCd4S5
_chemical_formula_sum   'Sr1 Cd4 S5'
_cell_volume   221.57533454
_cell_formula_units_Z   1
loop_
 _symmetry_equiv_pos_site_id
 _symmetry_equiv_pos_as_xyz
  1  'x, y, z'
loop_
 _atom_site_type_symbol
 _atom_site_label
 _atom_site_symmetry_multiplicity
 _atom_site_fract_x
 _atom_site_fract_y
 _atom_site_fract_z
 _atom_site_occupancy
  Sr  Sr0  1  0.00000000  0.00000000  0.00000000  1
  Cd  Cd0  1  0.59699400  0.59699400  0.59699400  1
  Cd  Cd1  1  0.19894300  0.19894300  0.19894300  1
  Cd  Cd2  1  0.80105700  0.80105700  0.80105700  1
  Cd  Cd3  1  0.40300600  0.40300600  0.40300600  1
  S  S0  1  0.70476700  0.70476700  0.70476700  1
  S  S1  1  0.50000000  0.50000000  0.50000000  1
  S  S2  1  0.10201400  0.10201400  0.10201400  1
  S  S3  1  0.29523300  0.29523300  0.29523300  1
  S  S4  1  0.89798600  0.89798600  0.89798600  1
loop_
_geom_bond_atom_site_label_1
_geom_bond_atom_site_label_2
_geom_bond_distance
_geom_bond_site_symmetry_2
Cd0 S3 2.761132 1_655
Cd0 S3 2.761132 1_565
Cd0 S3 2.761133 1_556
Cd0 S4 2.781741 1_455
Cd0 S4 2.781741 1_545
Cd0 S4 2.781742 1_554
Cd1 S1 2.779986 1_545
Cd1 S1 2.779986 1_455
Cd1 S1 2.779987 1_554
Cd1 S4 2.782687 1_454
Cd1 S4 2.782687 1_544
Cd1 S4 2.782688 1_445
Cd2 S1 2.779986 1_565
Cd2 S1 2.779986 1_655
Cd2 S1 2.779987 1_556
Cd2 S2 2.782687 1_566
Cd2 S2 2.782687 1_656
Cd2 S2 2.782688 1_665
Cd3 S0 2.761132 1_545
Cd3 S0 2.761132 1_455
Cd3 S0 2.761133 1_554
Cd3 S2 2.781741 1_565
Cd3 S2 2.781741 1_655
Cd3 S2 2.781742 1_556
S0 Sr0 2.946345 1_566
S0 Sr0 2.946345 1_656
S0 Sr0 2.946345 1_665
S3 Sr0 2.946345 1_565
S3 Sr0 2.946345 1_655
S3 Sr0 2.946345 1_556
