# generated using pymatgen
data_Mg2Ti
_symmetry_space_group_name_H-M   'P 1'
_cell_length_a   16.43165926
_cell_length_b   16.43165926
_cell_length_c   10.16769400
_cell_angle_alpha   90.00000000
_cell_angle_beta   90.00000000
_cell_angle_gamma   158.95765619
_symmetry_Int_Tables_number   1
_chemical_formula_structural   Mg2Ti
_chemical_formula_sum   'Mg32 Ti16'
_cell_volume   985.71117150
_cell_formula_units_Z   16
loop_
 _symmetry_equiv_pos_site_id
 _symmetry_equiv_pos_as_xyz
  1  'x, y, z'
loop_
 _atom_site_type_symbol
 _atom_site_label
 _atom_site_symmetry_multiplicity
 _atom_site_fract_x
 _atom_site_fract_y
 _atom_site_fract_z
 _atom_site_occupancy
  Mg  Mg0_0  1  0.27760300  0.22239700  0.12500000  1
  Mg  Mg0_1  1  0.27760300  0.22239700  0.62500000  1
  Mg  Mg0_2  1  0.27760300  0.72239700  0.12500000  1
  Mg  Mg0_3  1  0.27760300  0.72239700  0.62500000  1
  Mg  Mg0_4  1  0.77760300  0.22239700  0.12500000  1
  Mg  Mg0_5  1  0.77760300  0.22239700  0.62500000  1
  Mg  Mg0_6  1  0.77760300  0.72239700  0.12500000  1
  Mg  Mg0_7  1  0.77760300  0.72239700  0.62500000  1
  Mg  Mg1_0  1  0.11117450  0.38882550  0.12500000  1
  Mg  Mg1_1  1  0.11117450  0.38882550  0.62500000  1
  Mg  Mg1_2  1  0.11117450  0.88882550  0.12500000  1
  Mg  Mg1_3  1  0.11117450  0.88882550  0.62500000  1
  Mg  Mg1_4  1  0.61117450  0.38882550  0.12500000  1
  Mg  Mg1_5  1  0.61117450  0.38882550  0.62500000  1
  Mg  Mg1_6  1  0.61117450  0.88882550  0.12500000  1
  Mg  Mg1_7  1  0.61117450  0.88882550  0.62500000  1
  Mg  Mg2_0  1  0.38882550  0.11117450  0.37500000  1
  Mg  Mg2_1  1  0.38882550  0.11117450  0.87500000  1
  Mg  Mg2_2  1  0.38882550  0.61117450  0.37500000  1
  Mg  Mg2_3  1  0.38882550  0.61117450  0.87500000  1
  Mg  Mg2_4  1  0.88882550  0.11117450  0.37500000  1
  Mg  Mg2_5  1  0.88882550  0.11117450  0.87500000  1
  Mg  Mg2_6  1  0.88882550  0.61117450  0.37500000  1
  Mg  Mg2_7  1  0.88882550  0.61117450  0.87500000  1
  Mg  Mg3_0  1  0.22239700  0.27760300  0.37500000  1
  Mg  Mg3_1  1  0.22239700  0.27760300  0.87500000  1
  Mg  Mg3_2  1  0.22239700  0.77760300  0.37500000  1
  Mg  Mg3_3  1  0.22239700  0.77760300  0.87500000  1
  Mg  Mg3_4  1  0.72239700  0.27760300  0.37500000  1
  Mg  Mg3_5  1  0.72239700  0.27760300  0.87500000  1
  Mg  Mg3_6  1  0.72239700  0.77760300  0.37500000  1
  Mg  Mg3_7  1  0.72239700  0.77760300  0.87500000  1
  Ti  Ti0_0  1  0.44596800  0.05403200  0.12500000  1
  Ti  Ti0_1  1  0.44596800  0.05403200  0.62500000  1
  Ti  Ti0_2  1  0.44596800  0.55403200  0.12500000  1
  Ti  Ti0_3  1  0.44596800  0.55403200  0.62500000  1
  Ti  Ti0_4  1  0.94596800  0.05403200  0.12500000  1
  Ti  Ti0_5  1  0.94596800  0.05403200  0.62500000  1
  Ti  Ti0_6  1  0.94596800  0.55403200  0.12500000  1
  Ti  Ti0_7  1  0.94596800  0.55403200  0.62500000  1
  Ti  Ti1_0  1  0.05403200  0.44596800  0.37500000  1
  Ti  Ti1_1  1  0.05403200  0.44596800  0.87500000  1
  Ti  Ti1_2  1  0.05403200  0.94596800  0.37500000  1
  Ti  Ti1_3  1  0.05403200  0.94596800  0.87500000  1
  Ti  Ti1_4  1  0.55403200  0.44596800  0.37500000  1
  Ti  Ti1_5  1  0.55403200  0.44596800  0.87500000  1
  Ti  Ti1_6  1  0.55403200  0.94596800  0.37500000  1
  Ti  Ti1_7  1  0.55403200  0.94596800  0.87500000  1
loop_
_geom_bond_atom_site_label_1
_geom_bond_atom_site_label_2
_geom_bond_distance
_geom_bond_site_symmetry_2
Mg0_0 Mg0_6 3.000402 1_555
Mg0_0 Mg0_6 3.000402 1_445
Mg0_0 Ti0_2 3.034473 1_555
Mg0_0 Ti0_4 3.034473 1_455
Mg0_0 Ti1_4 3.072653 1_555
Mg0_0 Ti1_5 3.072653 1_554
Mg0_0 Ti1_2 3.072653 1_545
Mg0_0 Ti1_3 3.072653 1_544
Mg0_0 Mg1_4 3.089016 1_555
Mg0_0 Mg1_2 3.089016 1_545
Mg0_0 Mg3_0 3.105341 1_555
Mg0_0 Mg3_1 3.105341 1_554
Mg0_1 Mg0_7 3.000402 1_555
Mg0_1 Mg0_7 3.000402 1_445
Mg0_1 Ti0_3 3.034473 1_555
Mg0_1 Ti0_5 3.034473 1_455
Mg0_1 Ti1_4 3.072653 1_555
Mg0_1 Ti1_5 3.072653 1_555
Mg0_1 Ti1_3 3.072653 1_545
Mg0_1 Ti1_2 3.072653 1_545
Mg0_1 Mg1_5 3.089016 1_555
Mg0_1 Mg1_3 3.089016 1_545
Mg0_1 Mg3_1 3.105341 1_555
Mg0_1 Mg3_0 3.105341 1_555
Mg0_2 Mg0_4 3.000402 1_455
Mg0_2 Mg0_4 3.000402 1_565
Mg0_2 Ti0_6 3.034473 1_455
Mg0_2 Ti0_0 3.034473 1_565
Mg0_2 Ti1_6 3.072653 1_555
Mg0_2 Ti1_7 3.072653 1_554
Mg0_2 Ti1_0 3.072653 1_555
Mg0_2 Ti1_1 3.072653 1_554
Mg0_2 Mg1_6 3.089016 1_555
Mg0_2 Mg1_0 3.089016 1_555
Mg0_2 Mg3_3 3.105341 1_554
Mg0_2 Mg3_2 3.105341 1_555
Mg0_3 Mg0_5 3.000402 1_565
Mg0_3 Mg0_5 3.000402 1_455
Mg0_3 Ti0_7 3.034473 1_455
Mg0_3 Ti0_1 3.034473 1_565
Mg0_3 Ti1_7 3.072653 1_555
Mg0_3 Ti1_6 3.072653 1_555
Mg0_3 Ti1_0 3.072653 1_555
Mg0_3 Ti1_1 3.072653 1_555
Mg0_3 Mg1_7 3.089016 1_555
Mg0_3 Mg1_1 3.089016 1_555
Mg0_3 Mg3_3 3.105341 1_555
Mg0_3 Mg3_2 3.105341 1_555
Mg0_4 Ti0_6 3.034473 1_555
Mg0_4 Ti0_0 3.034473 1_555
Mg0_4 Ti1_6 3.072653 1_545
Mg0_4 Ti1_7 3.072653 1_544
Mg0_4 Ti1_1 3.072653 1_654
Mg0_4 Ti1_0 3.072653 1_655
Mg0_4 Mg1_6 3.089016 1_545
Mg0_4 Mg1_0 3.089016 1_655
Mg0_4 Mg3_5 3.105341 1_554
Mg0_4 Mg3_4 3.105341 1_555
Mg0_5 Ti0_7 3.034473 1_555
Mg0_5 Ti0_1 3.034473 1_555
Mg0_5 Ti1_6 3.072653 1_545
Mg0_5 Ti1_7 3.072653 1_545
Mg0_5 Ti1_1 3.072653 1_655
Mg0_5 Ti1_0 3.072653 1_655
Mg0_5 Mg1_7 3.089016 1_545
Mg0_5 Mg1_1 3.089016 1_655
Mg0_5 Mg3_4 3.105341 1_555
Mg0_5 Mg3_5 3.105341 1_555
Mg0_6 Ti0_2 3.034473 1_555
Mg0_6 Ti0_4 3.034473 1_565
Mg0_6 Ti1_4 3.072653 1_555
Mg0_6 Ti1_5 3.072653 1_554
Mg0_6 Ti1_2 3.072653 1_655
Mg0_6 Ti1_3 3.072653 1_654
Mg0_6 Mg1_2 3.089016 1_655
Mg0_6 Mg1_4 3.089016 1_555
Mg0_6 Mg3_7 3.105341 1_554
Mg0_6 Mg3_6 3.105341 1_555
Mg0_7 Ti0_3 3.034473 1_555
Mg0_7 Ti0_5 3.034473 1_565
Mg0_7 Ti1_4 3.072653 1_555
Mg0_7 Ti1_5 3.072653 1_555
Mg0_7 Ti1_2 3.072653 1_655
Mg0_7 Ti1_3 3.072653 1_655
Mg0_7 Mg1_3 3.089016 1_655
Mg0_7 Mg1_5 3.089016 1_555
Mg0_7 Mg3_7 3.105341 1_555
Mg0_7 Mg3_6 3.105341 1_555
Mg1_0 Mg1_6 3.000402 1_555
Mg1_0 Mg1_6 3.000402 1_445
Mg1_0 Mg2_4 3.083859 1_455
Mg1_0 Mg2_5 3.083859 1_454
Mg1_0 Mg2_2 3.083859 1_555
Mg1_0 Mg2_3 3.083859 1_554
Mg1_0 Ti0_2 3.123590 1_555
Mg1_0 Ti0_4 3.123590 1_455
Mg1_0 Ti1_0 3.141699 1_555
Mg1_0 Ti1_1 3.141699 1_554
Mg1_1 Mg1_7 3.000402 1_555
Mg1_1 Mg1_7 3.000402 1_445
Mg1_1 Mg2_4 3.083859 1_455
Mg1_1 Mg2_5 3.083859 1_455
Mg1_1 Mg2_3 3.083859 1_555
Mg1_1 Mg2_2 3.083859 1_555
Mg1_1 Ti0_3 3.123590 1_555
Mg1_1 Ti0_5 3.123590 1_455
Mg1_1 Ti1_1 3.141699 1_555
Mg1_1 Ti1_0 3.141699 1_555
Mg1_2 Mg1_4 3.000402 1_565
Mg1_2 Mg1_4 3.000402 1_455
Mg1_2 Mg2_1 3.083859 1_564
Mg1_2 Mg2_0 3.083859 1_565
Mg1_2 Mg2_7 3.083859 1_454
Mg1_2 Mg2_6 3.083859 1_455
Mg1_2 Ti0_0 3.123590 1_565
Mg1_2 Ti0_6 3.123590 1_455
Mg1_2 Ti1_3 3.141699 1_554
Mg1_2 Ti1_2 3.141699 1_555
Mg1_3 Mg1_5 3.000402 1_565
Mg1_3 Mg1_5 3.000402 1_455
Mg1_3 Mg2_1 3.083859 1_565
Mg1_3 Mg2_0 3.083859 1_565
Mg1_3 Mg2_7 3.083859 1_455
Mg1_3 Mg2_6 3.083859 1_455
Mg1_3 Ti0_1 3.123590 1_565
Mg1_3 Ti0_7 3.123590 1_455
Mg1_3 Ti1_2 3.141699 1_555
Mg1_3 Ti1_3 3.141699 1_555
Mg1_4 Mg2_1 3.083859 1_554
Mg1_4 Mg2_0 3.083859 1_555
Mg1_4 Mg2_7 3.083859 1_554
Mg1_4 Mg2_6 3.083859 1_555
Mg1_4 Ti0_0 3.123590 1_555
Mg1_4 Ti0_6 3.123590 1_555
Mg1_4 Ti1_5 3.141699 1_554
Mg1_4 Ti1_4 3.141699 1_555
Mg1_5 Mg2_0 3.083859 1_555
Mg1_5 Mg2_1 3.083859 1_555
Mg1_5 Mg2_7 3.083859 1_555
Mg1_5 Mg2_6 3.083859 1_555
Mg1_5 Ti0_1 3.123590 1_555
Mg1_5 Ti0_7 3.123590 1_555
Mg1_5 Ti1_4 3.141699 1_555
Mg1_5 Ti1_5 3.141699 1_555
Mg1_6 Mg2_3 3.083859 1_554
Mg1_6 Mg2_2 3.083859 1_555
Mg1_6 Mg2_5 3.083859 1_564
Mg1_6 Mg2_4 3.083859 1_565
Mg1_6 Ti0_4 3.123590 1_565
Mg1_6 Ti0_2 3.123590 1_555
Mg1_6 Ti1_7 3.141699 1_554
Mg1_6 Ti1_6 3.141699 1_555
Mg1_7 Mg2_2 3.083859 1_555
Mg1_7 Mg2_3 3.083859 1_555
Mg1_7 Mg2_5 3.083859 1_565
Mg1_7 Mg2_4 3.083859 1_565
Mg1_7 Ti0_5 3.123590 1_565
Mg1_7 Ti0_3 3.123590 1_555
Mg1_7 Ti1_7 3.141699 1_555
Mg1_7 Ti1_6 3.141699 1_555
Mg2_0 Mg2_6 3.000402 1_445
Mg2_0 Mg2_6 3.000402 1_555
Mg2_0 Mg3_2 3.089016 1_545
Mg2_0 Mg3_4 3.089016 1_555
Mg2_0 Ti1_2 3.123590 1_545
Mg2_0 Ti1_4 3.123590 1_555
Mg2_0 Ti0_0 3.141699 1_555
Mg2_0 Ti0_1 3.141699 1_555
Mg2_1 Mg2_7 3.000402 1_445
Mg2_1 Mg2_7 3.000402 1_555
Mg2_1 Mg3_3 3.089016 1_545
Mg2_1 Mg3_5 3.089016 1_555
Mg2_1 Ti1_3 3.123590 1_545
Mg2_1 Ti1_5 3.123590 1_555
Mg2_1 Ti0_0 3.141699 1_556
Mg2_1 Ti0_1 3.141699 1_555
Mg2_2 Mg2_4 3.000402 1_455
Mg2_2 Mg2_4 3.000402 1_565
Mg2_2 Mg3_0 3.089016 1_555
Mg2_2 Mg3_6 3.089016 1_555
Mg2_2 Ti1_0 3.123590 1_555
Mg2_2 Ti1_6 3.123590 1_555
Mg2_2 Ti0_2 3.141699 1_555
Mg2_2 Ti0_3 3.141699 1_555
Mg2_3 Mg2_5 3.000402 1_455
Mg2_3 Mg2_5 3.000402 1_565
Mg2_3 Mg3_1 3.089016 1_555
Mg2_3 Mg3_7 3.089016 1_555
Mg2_3 Ti1_1 3.123590 1_555
Mg2_3 Ti1_7 3.123590 1_555
Mg2_3 Ti0_2 3.141699 1_556
Mg2_3 Ti0_3 3.141699 1_555
Mg2_4 Mg3_0 3.089016 1_655
Mg2_4 Mg3_6 3.089016 1_545
Mg2_4 Ti1_0 3.123590 1_655
Mg2_4 Ti1_6 3.123590 1_545
Mg2_4 Ti0_5 3.141699 1_555
Mg2_4 Ti0_4 3.141699 1_555
Mg2_5 Mg3_1 3.089016 1_655
Mg2_5 Mg3_7 3.089016 1_545
Mg2_5 Ti1_1 3.123590 1_655
Mg2_5 Ti1_7 3.123590 1_545
Mg2_5 Ti0_4 3.141699 1_556
Mg2_5 Ti0_5 3.141699 1_555
Mg2_6 Mg3_2 3.089016 1_655
Mg2_6 Mg3_4 3.089016 1_555
Mg2_6 Ti1_2 3.123590 1_655
Mg2_6 Ti1_4 3.123590 1_555
Mg2_6 Ti0_6 3.141699 1_555
Mg2_6 Ti0_7 3.141699 1_555
Mg2_7 Mg3_3 3.089016 1_655
Mg2_7 Mg3_5 3.089016 1_555
Mg2_7 Ti1_3 3.123590 1_655
Mg2_7 Ti1_5 3.123590 1_555
Mg2_7 Ti0_6 3.141699 1_556
Mg2_7 Ti0_7 3.141699 1_555
Mg3_0 Mg3_6 3.000402 1_445
Mg3_0 Mg3_6 3.000402 1_555
Mg3_0 Ti1_4 3.034473 1_555
Mg3_0 Ti1_2 3.034473 1_545
Mg3_0 Ti0_3 3.072653 1_555
Mg3_0 Ti0_2 3.072653 1_555
Mg3_0 Ti0_4 3.072653 1_455
Mg3_0 Ti0_5 3.072653 1_455
Mg3_1 Mg3_7 3.000402 1_445
Mg3_1 Mg3_7 3.000402 1_555
Mg3_1 Ti1_5 3.034473 1_555
Mg3_1 Ti1_3 3.034473 1_545
Mg3_1 Ti0_3 3.072653 1_555
Mg3_1 Ti0_2 3.072653 1_556
Mg3_1 Ti0_4 3.072653 1_456
Mg3_1 Ti0_5 3.072653 1_455
Mg3_2 Mg3_4 3.000402 1_455
Mg3_2 Mg3_4 3.000402 1_565
Mg3_2 Ti1_6 3.034473 1_555
Mg3_2 Ti1_0 3.034473 1_555
Mg3_2 Ti0_7 3.072653 1_455
Mg3_2 Ti0_6 3.072653 1_455
Mg3_2 Ti0_0 3.072653 1_565
Mg3_2 Ti0_1 3.072653 1_565
Mg3_3 Mg3_5 3.000402 1_455
Mg3_3 Mg3_5 3.000402 1_565
Mg3_3 Ti1_7 3.034473 1_555
Mg3_3 Ti1_1 3.034473 1_555
Mg3_3 Ti0_6 3.072653 1_456
Mg3_3 Ti0_7 3.072653 1_455
Mg3_3 Ti0_1 3.072653 1_565
Mg3_3 Ti0_0 3.072653 1_566
Mg3_4 Ti1_6 3.034473 1_545
Mg3_4 Ti1_0 3.034473 1_655
Mg3_4 Ti0_6 3.072653 1_555
Mg3_4 Ti0_7 3.072653 1_555
Mg3_4 Ti0_0 3.072653 1_555
Mg3_4 Ti0_1 3.072653 1_555
Mg3_5 Ti1_7 3.034473 1_545
Mg3_5 Ti1_1 3.034473 1_655
Mg3_5 Ti0_7 3.072653 1_555
Mg3_5 Ti0_6 3.072653 1_556
Mg3_5 Ti0_0 3.072653 1_556
Mg3_5 Ti0_1 3.072653 1_555
Mg3_6 Ti1_4 3.034473 1_555
Mg3_6 Ti1_2 3.034473 1_655
Mg3_6 Ti0_3 3.072653 1_555
Mg3_6 Ti0_2 3.072653 1_555
Mg3_6 Ti0_4 3.072653 1_565
Mg3_6 Ti0_5 3.072653 1_565
Mg3_7 Ti1_5 3.034473 1_555
Mg3_7 Ti1_3 3.034473 1_655
Mg3_7 Ti0_3 3.072653 1_555
Mg3_7 Ti0_2 3.072653 1_556
Mg3_7 Ti0_4 3.072653 1_566
Mg3_7 Ti0_5 3.072653 1_565
Ti0_0 Ti0_6 3.000402 1_445
Ti0_0 Ti0_6 3.000402 1_555
Ti0_1 Ti0_7 3.000402 1_445
Ti0_1 Ti0_7 3.000402 1_555
Ti0_2 Ti0_4 3.000402 1_455
Ti0_2 Ti0_4 3.000402 1_565
Ti0_3 Ti0_5 3.000402 1_455
Ti0_3 Ti0_5 3.000402 1_565
Ti1_0 Ti1_6 3.000402 1_555
Ti1_0 Ti1_6 3.000402 1_445
Ti1_1 Ti1_7 3.000402 1_555
Ti1_1 Ti1_7 3.000402 1_445
Ti1_2 Ti1_4 3.000402 1_565
Ti1_2 Ti1_4 3.000402 1_455
Ti1_3 Ti1_5 3.000402 1_565
Ti1_3 Ti1_5 3.000402 1_455
