# generated using pymatgen
data_Tb4Rh
_symmetry_space_group_name_H-M   'P 1'
_cell_length_a   7.63114588
_cell_length_b   7.63114588
_cell_length_c   7.63114588
_cell_angle_alpha   60.00000000
_cell_angle_beta   60.00000000
_cell_angle_gamma   60.00000000
_symmetry_Int_Tables_number   1
_chemical_formula_structural   Tb4Rh
_chemical_formula_sum   'Tb8 Rh2'
_cell_volume   314.23479284
_cell_formula_units_Z   2
loop_
 _symmetry_equiv_pos_site_id
 _symmetry_equiv_pos_as_xyz
  1  'x, y, z'
loop_
 _atom_site_type_symbol
 _atom_site_label
 _atom_site_symmetry_multiplicity
 _atom_site_fract_x
 _atom_site_fract_y
 _atom_site_fract_z
 _atom_site_occupancy
  Tb  Tb0  1  0.61122400  0.61122400  0.61122400  1
  Tb  Tb1  1  0.16632900  0.61122400  0.61122400  1
  Tb  Tb2  1  0.61122400  0.16632900  0.61122400  1
  Tb  Tb3  1  0.58367100  0.13877600  0.13877600  1
  Tb  Tb4  1  0.13877600  0.13877600  0.13877600  1
  Tb  Tb5  1  0.61122400  0.61122400  0.16632900  1
  Tb  Tb6  1  0.13877600  0.58367100  0.13877600  1
  Tb  Tb7  1  0.13877600  0.13877600  0.58367100  1
  Rh  Rh0  1  0.00000000  0.00000000  0.00000000  1
  Rh  Rh1  1  0.75000000  0.75000000  0.75000000  1
loop_
_geom_bond_atom_site_label_1
_geom_bond_atom_site_label_2
_geom_bond_distance
_geom_bond_site_symmetry_2
Rh0 Tb4 2.594058 1_555
Rh0 Tb7 2.594065 1_554
Rh0 Tb3 2.594065 1_455
Rh0 Tb6 2.594065 1_545
Rh1 Tb0 2.594058 1_555
Rh1 Tb5 2.594065 1_556
Rh1 Tb1 2.594065 1_655
Rh1 Tb2 2.594065 1_565
