# generated using pymatgen
data_Na2Co3H10(SO6)3
_symmetry_space_group_name_H-M   'P 1'
_cell_length_a   7.39961200
_cell_length_b   10.09000300
_cell_length_c   10.68117041
_cell_angle_alpha   90.00000000
_cell_angle_beta   110.26641451
_cell_angle_gamma   90.00000000
_symmetry_Int_Tables_number   1
_chemical_formula_structural   Na2Co3H10(SO6)3
_chemical_formula_sum   'Na4 Co6 H20 S6 O36'
_cell_volume   748.10849129
_cell_formula_units_Z   2
loop_
 _symmetry_equiv_pos_site_id
 _symmetry_equiv_pos_as_xyz
  1  'x, y, z'
loop_
 _atom_site_type_symbol
 _atom_site_label
 _atom_site_symmetry_multiplicity
 _atom_site_fract_x
 _atom_site_fract_y
 _atom_site_fract_z
 _atom_site_occupancy
  Na  Na0  1  0.42190200  0.01619300  0.33462400  1
  Na  Na1  1  0.57809800  0.51619300  0.66537600  1
  Na  Na2  1  0.91272200  0.51619300  0.33462400  1
  Na  Na3  1  0.08727800  0.01619300  0.66537600  1
  Co  Co0  1  0.47086600  0.22259000  0.84201200  1
  Co  Co1  1  0.52913400  0.72259000  0.15798800  1
  Co  Co2  1  0.37114500  0.72259000  0.84201200  1
  Co  Co3  1  0.62885500  0.22259000  0.15798800  1
  Co  Co4  1  0.21440200  0.43365800  0.00000000  1
  Co  Co5  1  0.78559800  0.93365800  0.00000000  1
  H  H0  1  0.54679600  0.43336500  0.00000000  1
  H  H1  1  0.45320400  0.93336500  0.00000000  1
  H  H2  1  0.73414500  0.25305100  0.70949700  1
  H  H3  1  0.26585500  0.75305100  0.29050300  1
  H  H4  1  0.97535100  0.75305100  0.70949700  1
  H  H5  1  0.02464900  0.25305100  0.29050300  1
  H  H6  1  0.89827500  0.28382300  0.57635000  1
  H  H7  1  0.10172500  0.78382300  0.42365000  1
  H  H8  1  0.67807600  0.78382300  0.57635000  1
  H  H9  1  0.32192400  0.28382300  0.42365000  1
  H  H10  1  0.19489700  0.67246700  0.00000000  1
  H  H11  1  0.80510300  0.17246700  0.00000000  1
  H  H12  1  0.26490400  0.16371800  0.49175500  1
  H  H13  1  0.73509600  0.66371800  0.50824500  1
  H  H14  1  0.22685100  0.66371800  0.49175500  1
  H  H15  1  0.77314900  0.16371800  0.50824500  1
  H  H16  1  0.81621100  0.32907200  0.84557100  1
  H  H17  1  0.18378900  0.82907200  0.15442900  1
  H  H18  1  0.02936000  0.82907200  0.84557100  1
  H  H19  1  0.97064000  0.32907200  0.15442900  1
  S  S0  1  0.18779400  0.11552700  0.00000000  1
  S  S1  1  0.81220600  0.61552700  0.00000000  1
  S  S2  1  0.47460300  0.45162100  0.31796600  1
  S  S3  1  0.52539700  0.95162100  0.68203400  1
  S  S4  1  0.84336300  0.95162100  0.31796600  1
  S  S5  1  0.15663700  0.45162100  0.68203400  1
  O  O0  1  0.07501200  0.23899200  0.00000000  1
  O  O1  1  0.92498800  0.73899200  0.00000000  1
  O  O2  1  0.60569200  0.34234900  0.30865600  1
  O  O3  1  0.39430800  0.84234900  0.69134400  1
  O  O4  1  0.70296400  0.84234900  0.30865600  1
  O  O5  1  0.29703600  0.34234900  0.69134400  1
  O  O6  1  0.42485400  0.08097800  0.68314400  1
  O  O7  1  0.57514600  0.58097800  0.31685600  1
  O  O8  1  0.25829000  0.58097800  0.68314400  1
  O  O9  1  0.74171000  0.08097800  0.31685600  1
  O  O10  1  0.69489200  0.30645900  0.77465300  1
  O  O11  1  0.30510800  0.80645800  0.22534700  1
  O  O12  1  0.07976100  0.80645800  0.77465300  1
  O  O13  1  0.92023900  0.30645900  0.22534700  1
  O  O14  1  0.68517000  0.13134700  0.00000000  1
  O  O15  1  0.31483000  0.63134700  0.00000000  1
  O  O16  1  0.07175000  0.99618400  0.00000000  1
  O  O17  1  0.92825000  0.49618400  0.00000000  1
  O  O18  1  0.28720000  0.44459300  0.20570600  1
  O  O19  1  0.71280000  0.94459300  0.79429400  1
  O  O20  1  0.91850600  0.94459300  0.20570600  1
  O  O21  1  0.08149400  0.44459300  0.79429400  1
  O  O22  1  0.43799300  0.43891900  0.44538300  1
  O  O23  1  0.56200700  0.93891900  0.55461700  1
  O  O24  1  0.00738900  0.93891900  0.44538300  1
  O  O25  1  0.99261100  0.43891900  0.55461700  1
  O  O26  1  0.36676200  0.11266200  0.12126100  1
  O  O27  1  0.63323800  0.61266200  0.87873900  1
  O  O28  1  0.75449900  0.61266200  0.12126100  1
  O  O29  1  0.24550100  0.11266200  0.87873900  1
  O  O30  1  0.47237200  0.35362600  0.00000000  1
  O  O31  1  0.52762800  0.85362600  0.00000000  1
  O  O32  1  0.25561600  0.19640200  0.40334700  1
  O  O33  1  0.74438400  0.69640200  0.59665300  1
  O  O34  1  0.14773200  0.69640200  0.40334700  1
  O  O35  1  0.85226800  0.19640200  0.59665300  1
loop_
_geom_bond_atom_site_label_1
_geom_bond_atom_site_label_2
_geom_bond_distance
_geom_bond_site_symmetry_2
Na0 O23 2.348735 1_545
Na0 O26 2.379799 1_555
Na0 O11 2.426697 1_545
Na0 O32 2.446384 1_555
Na0 O9 2.524789 1_555
Na0 O4 2.806910 1_545
Na1 O22 2.348735 1_555
Na1 O27 2.379799 1_555
Na1 O10 2.426688 1_555
Na1 O33 2.446384 1_555
Na1 O8 2.524789 1_555
Na1 O5 2.806910 1_555
Na2 O25 2.348734 1_555
Na2 O28 2.379799 1_555
Na2 O13 2.426688 1_555
Na2 O34 2.446388 1_655
Na2 O7 2.524789 1_555
Na2 O2 2.806910 1_555
Na3 O24 2.348734 1_545
Na3 O29 2.379799 1_555
Na3 O12 2.426697 1_545
Na3 O35 2.446388 1_455
Na3 O6 2.524789 1_555
Na3 O3 2.806910 1_545
Co0 O5 2.066516 1_555
Co0 O14 2.087113 1_556
Co0 O30 2.140755 1_556
Co0 O29 2.149021 1_555
Co0 O6 2.153321 1_555
Co0 O10 2.192715 1_555
Co1 O4 2.066516 1_555
Co1 O15 2.087113 1_555
Co1 O31 2.140755 1_555
Co1 O28 2.149021 1_555
Co1 O7 2.153321 1_555
Co1 O11 2.192711 1_555
Co2 O3 2.066519 1_555
Co2 O15 2.087110 1_556
Co2 O31 2.140757 1_556
Co2 O27 2.149027 1_555
Co2 O8 2.153320 1_555
Co2 O12 2.192705 1_555
Co3 O2 2.066519 1_555
Co3 O14 2.087110 1_555
Co3 O30 2.140757 1_555
Co3 O26 2.149027 1_555
Co3 O9 2.153320 1_555
Co3 O13 2.192709 1_555
Co4 O30 2.072657 1_555
Co4 O18 2.076055 1_555
Co4 O21 2.076055 1_554
Co4 O15 2.128614 1_555
Co4 O17 2.209403 1_455
Co4 O0 2.218526 1_555
Co5 O31 2.072657 1_555
Co5 O20 2.076055 1_555
Co5 O19 2.076055 1_554
Co5 O14 2.128614 1_565
Co5 O16 2.209403 1_655
Co5 O1 2.218526 1_555
H0 O30 0.974991 1_555
H1 O31 0.974991 1_555
H2 O10 0.999569 1_555
H3 O11 0.999563 1_555
H4 O12 0.999567 1_655
H5 O13 0.999573 1_455
H6 O35 0.996057 1_555
H6 O25 1.761360 1_555
H7 O34 0.996057 1_555
H7 O24 1.761360 1_555
H8 O33 0.996051 1_555
H8 O23 1.761360 1_555
H9 O32 0.996051 1_555
H9 O22 1.761360 1_555
H10 O15 0.979655 1_555
H11 O14 0.979655 1_555
H12 O32 0.979910 1_555
H13 O33 0.979910 1_555
H14 O34 0.979908 1_555
H15 O35 0.979908 1_555
H16 O10 0.980126 1_555
H17 O11 0.980128 1_555
H18 O12 0.980128 1_555
H19 O13 0.980126 1_555
O0 S0 1.499462 1_555
O1 S1 1.499462 1_555
O2 S2 1.494408 1_555
O3 S3 1.494408 1_555
O4 S4 1.494408 1_555
O5 S5 1.494408 1_555
O6 S3 1.504439 1_545
O7 S2 1.504439 1_555
O8 S5 1.504439 1_555
O9 S4 1.504439 1_545
O16 S0 1.478973 1_565
O17 S1 1.478973 1_555
O18 S2 1.487899 1_555
O19 S3 1.487899 1_555
O20 S4 1.487899 1_555
O21 S5 1.487899 1_555
O22 S2 1.482379 1_555
O23 S3 1.482379 1_555
O24 S4 1.482375 1_455
O25 S5 1.482375 1_655
O26 S0 1.497962 1_555
O27 S1 1.497962 1_556
O28 S1 1.497962 1_555
O29 S0 1.497962 1_556
