# generated using pymatgen
data_MnVS2
_symmetry_space_group_name_H-M   'P 1'
_cell_length_a   3.68197572
_cell_length_b   3.68197572
_cell_length_c   5.96236577
_cell_angle_alpha   72.01499880
_cell_angle_beta   90.00000000
_cell_angle_gamma   120.00000000
_symmetry_Int_Tables_number   1
_chemical_formula_structural   MnVS2
_chemical_formula_sum   'Mn1 V1 S2'
_cell_volume   65.40171331
_cell_formula_units_Z   1
loop_
 _symmetry_equiv_pos_site_id
 _symmetry_equiv_pos_as_xyz
  1  'x, y, z'
loop_
 _atom_site_type_symbol
 _atom_site_label
 _atom_site_symmetry_multiplicity
 _atom_site_fract_x
 _atom_site_fract_y
 _atom_site_fract_z
 _atom_site_occupancy
  Mn  Mn0  1  0.00000000  0.00000000  0.00000000  1
  V  V0  1  0.50000000  0.00000000  0.50000000  1
  S  S0  1  0.24605200  0.49210400  0.26184400  1
  S  S1  1  0.75394800  0.50789600  0.73815600  1
loop_
_geom_bond_atom_site_label_1
_geom_bond_atom_site_label_2
_geom_bond_distance
_geom_bond_site_symmetry_2
Mn0 S0 2.578086 1_555
Mn0 S0 2.578086 1_545
Mn0 S0 2.578086 1_445
Mn0 S1 2.578086 1_554
Mn0 S1 2.578086 1_454
Mn0 S1 2.578086 1_444
S0 V0 2.505793 1_555
S0 V0 2.505793 1_455
S0 V0 2.505793 1_565
S1 V0 2.505793 1_555
S1 V0 2.505793 1_665
S1 V0 2.505793 1_565
