# generated using pymatgen
data_Li6Zn3(PS4)4
_symmetry_space_group_name_H-M   'P 1'
_cell_length_a   9.25880084
_cell_length_b   11.63772633
_cell_length_c   23.21425756
_cell_angle_alpha   89.92894619
_cell_angle_beta   90.00000000
_cell_angle_gamma   90.00000000
_symmetry_Int_Tables_number   1
_chemical_formula_structural   Li6Zn3(PS4)4
_chemical_formula_sum   'Li24 Zn12 P16 S64'
_cell_volume   2501.36660340
_cell_formula_units_Z   4
loop_
 _symmetry_equiv_pos_site_id
 _symmetry_equiv_pos_as_xyz
  1  'x, y, z'
loop_
 _atom_site_type_symbol
 _atom_site_label
 _atom_site_symmetry_multiplicity
 _atom_site_fract_x
 _atom_site_fract_y
 _atom_site_fract_z
 _atom_site_occupancy
  Li  Li0  1  0.74677657  0.49661918  0.87759525  1
  Li  Li1  1  0.74677657  0.00338082  0.87240475  1
  Li  Li2  1  0.24880343  0.75818898  0.75210549  1
  Li  Li3  1  0.24880343  0.74181102  0.99789451  1
  Li  Li4  1  0.50563051  0.49790831  0.25125648  1
  Li  Li5  1  0.50050140  0.00009841  0.25030613  1
  Li  Li6  1  0.50050140  0.49990159  0.49969387  1
  Li  Li7  1  0.50563051  0.00209169  0.49874352  1
  Li  Li8  1  0.00281757  0.75000000  0.37500000  1
  Li  Li9  1  0.00054383  0.25000000  0.37500000  1
  Li  Li10  1  0.49621914  0.49832761  0.74785835  1
  Li  Li11  1  0.50007903  0.00327468  0.75016975  1
  Li  Li12  1  0.99685333  0.75075189  0.62245133  1
  Li  Li13  1  0.00330815  0.25037507  0.62447030  1
  Li  Li14  1  0.50007903  0.49672532  0.99983025  1
  Li  Li15  1  0.49621914  0.00167239  0.00214165  1
  Li  Li16  1  0.99060017  0.75000000  0.87500000  1
  Li  Li17  1  0.01485057  0.25000000  0.87500000  1
  Li  Li18  1  0.99685333  0.74924811  0.12754867  1
  Li  Li19  1  0.00330815  0.24962493  0.12552970  1
  Li  Li20  1  0.48169629  0.25000000  0.87500000  1
  Li  Li21  1  0.50367543  0.75000000  0.87500000  1
  Li  Li22  1  0.99897828  0.00032303  0.74712180  1
  Li  Li23  1  0.99897828  0.49967697  0.00287820  1
  Zn  Zn0  1  0.50074073  0.25103888  0.12368003  1
  Zn  Zn1  1  0.50702723  0.74822729  0.12724822  1
  Zn  Zn2  1  0.50006894  0.25000000  0.37500000  1
  Zn  Zn3  1  0.49813746  0.75000000  0.37500000  1
  Zn  Zn4  1  0.00041705  0.49954279  0.25026784  1
  Zn  Zn5  1  0.99916138  0.00066061  0.25046010  1
  Zn  Zn6  1  0.50074073  0.24896112  0.62631997  1
  Zn  Zn7  1  0.50702723  0.75177271  0.62275178  1
  Zn  Zn8  1  0.99916138  0.49933939  0.49953990  1
  Zn  Zn9  1  0.00041705  0.00045721  0.49973216  1
  Zn  Zn10  1  0.99955705  0.49977967  0.74996348  1
  Zn  Zn11  1  0.99955705  0.00022033  0.00003652  1
  P  P0  1  0.75014425  0.24923900  0.24994315  1
  P  P1  1  0.75100897  0.75009630  0.25086700  1
  P  P2  1  0.75014425  0.25076100  0.50005685  1
  P  P3  1  0.75100897  0.74990370  0.49913300  1
  P  P4  1  0.25008075  0.49973466  0.37515336  1
  P  P5  1  0.25008075  0.00026534  0.37484664  1
  P  P6  1  0.75022852  0.24735836  0.74802158  1
  P  P7  1  0.74879442  0.74367772  0.75171836  1
  P  P8  1  0.24781601  0.50078754  0.62494566  1
  P  P9  1  0.25445405  0.99449430  0.62359023  1
  P  P10  1  0.75022852  0.25264164  0.00197842  1
  P  P11  1  0.74879442  0.75632228  0.99828164  1
  P  P12  1  0.24885086  0.50163594  0.87449575  1
  P  P13  1  0.24885086  0.99836406  0.87550425  1
  P  P14  1  0.25445405  0.50550570  0.12640977  1
  P  P15  1  0.24781601  0.99921246  0.12505434  1
  S  S0  1  0.86996161  0.35376077  0.05309092  1
  S  S1  1  0.87008883  0.85934558  0.05237695  1
  S  S2  1  0.86460699  0.36057290  0.30198648  1
  S  S3  1  0.86673008  0.86061602  0.30270401  1
  S  S4  1  0.37370699  0.61115353  0.17968750  1
  S  S5  1  0.36656776  0.10877980  0.17581547  1
  S  S6  1  0.86484871  0.36180780  0.55208101  1
  S  S7  1  0.86251070  0.86241114  0.55129999  1
  S  S8  1  0.36397979  0.61120286  0.42727041  1
  S  S9  1  0.36469860  0.11122046  0.42691843  1
  S  S10  1  0.86934053  0.35934223  0.80217846  1
  S  S11  1  0.86772941  0.85532759  0.80121285  1
  S  S12  1  0.36875037  0.61376519  0.67577963  1
  S  S13  1  0.36462980  0.10735179  0.67637681  1
  S  S14  1  0.36995033  0.60902370  0.92684246  1
  S  S15  1  0.36805883  0.09946351  0.92759827  1
  S  S16  1  0.63533476  0.64677175  0.30638887  1
  S  S17  1  0.63562811  0.14548817  0.30589597  1
  S  S18  1  0.63938186  0.64413255  0.55505671  1
  S  S19  1  0.63477795  0.14735866  0.55555861  1
  S  S20  1  0.13513298  0.89634900  0.43037854  1
  S  S21  1  0.13589682  0.39542418  0.43087464  1
  S  S22  1  0.62669565  0.63910545  0.80344326  1
  S  S23  1  0.62922372  0.14940038  0.80384067  1
  S  S24  1  0.13299005  0.89201829  0.67678931  1
  S  S25  1  0.13721062  0.39676414  0.68120756  1
  S  S26  1  0.63017309  0.65093486  0.05276089  1
  S  S27  1  0.63080904  0.14489314  0.05464512  1
  S  S28  1  0.12649262  0.88895655  0.93074710  1
  S  S29  1  0.12053611  0.40532409  0.92566252  1
  S  S30  1  0.13427746  0.89568026  0.18095988  1
  S  S31  1  0.13765257  0.39975535  0.18076736  1
  S  S32  1  0.86484871  0.13819220  0.19791899  1
  S  S33  1  0.86251070  0.63758886  0.19870001  1
  S  S34  1  0.86460699  0.13942710  0.44801352  1
  S  S35  1  0.86673008  0.63938398  0.44729599  1
  S  S36  1  0.36469860  0.38877954  0.32308157  1
  S  S37  1  0.36397979  0.88879714  0.32272959  1
  S  S38  1  0.86996161  0.14623923  0.69690908  1
  S  S39  1  0.87008883  0.64065442  0.69762305  1
  S  S40  1  0.36656776  0.39122020  0.57418453  1
  S  S41  1  0.37370699  0.88884647  0.57031250  1
  S  S42  1  0.86934053  0.14065777  0.94782154  1
  S  S43  1  0.86772941  0.64467241  0.94878715  1
  S  S44  1  0.36805883  0.40053649  0.82240173  1
  S  S45  1  0.36995033  0.89097630  0.82315754  1
  S  S46  1  0.36462980  0.39264821  0.07362319  1
  S  S47  1  0.36875037  0.88623481  0.07422037  1
  S  S48  1  0.63477795  0.35264134  0.19444139  1
  S  S49  1  0.63938186  0.85586745  0.19494329  1
  S  S50  1  0.63562811  0.35451183  0.44410403  1
  S  S51  1  0.63533476  0.85322825  0.44361113  1
  S  S52  1  0.13513298  0.60365100  0.31962146  1
  S  S53  1  0.13589682  0.10457682  0.31912536  1
  S  S54  1  0.63080904  0.35510686  0.69535488  1
  S  S55  1  0.63017309  0.84906514  0.69723911  1
  S  S56  1  0.13427746  0.60431974  0.56904012  1
  S  S57  1  0.13765257  0.10024565  0.56923264  1
  S  S58  1  0.62922372  0.35059962  0.94615933  1
  S  S59  1  0.62669565  0.86089455  0.94655674  1
  S  S60  1  0.12649262  0.61104345  0.81925290  1
  S  S61  1  0.12053611  0.09467691  0.82433748  1
  S  S62  1  0.13299005  0.60798171  0.07321069  1
  S  S63  1  0.13721062  0.10323686  0.06879244  1
loop_
_geom_bond_atom_site_label_1
_geom_bond_atom_site_label_2
_geom_bond_distance
_geom_bond_site_symmetry_2
Li0 S58 2.568860 1_555
Li0 S10 2.629088 1_555
Li0 S22 2.634743 1_555
Li0 S43 2.638416 1_555
Li1 S23 2.568860 1_555
Li1 S42 2.629088 1_555
Li1 S59 2.634743 1_545
Li1 S11 2.638416 1_545
Li2 S45 2.524510 1_555
Li2 S24 2.574044 1_555
Li2 S60 2.576443 1_555
Li2 S12 2.684242 1_555
Li3 S14 2.524510 1_555
Li3 S62 2.574044 1_556
Li3 S28 2.576443 1_555
Li3 S47 2.684242 1_556
Li4 S4 2.446169 1_555
Li4 S48 2.456207 1_555
Li4 S16 2.467191 1_555
Li4 S36 2.467883 1_555
Li5 S37 2.469164 1_545
Li5 S17 2.469597 1_555
Li5 S5 2.474339 1_555
Li5 S49 2.475478 1_545
Li6 S8 2.469164 1_555
Li6 S50 2.469597 1_555
Li6 S40 2.474339 1_555
Li6 S18 2.475478 1_555
Li7 S41 2.446169 1_545
Li7 S19 2.456207 1_555
Li7 S51 2.467191 1_545
Li7 S9 2.467883 1_555
Li8 S35 2.460921 1_455
Li8 S3 2.460921 1_455
Li8 S52 2.461653 1_555
Li8 S20 2.461653 1_555
Li9 S34 2.471328 1_455
Li9 S2 2.471328 1_455
Li9 S53 2.474391 1_555
Li9 S21 2.474399 1_555
Li10 S44 2.385976 1_555
Li10 S22 2.411186 1_555
Li10 S54 2.412789 1_555
Li10 S12 2.447836 1_555
Li11 S23 2.424726 1_555
Li11 S13 2.443196 1_555
Li11 S45 2.454581 1_545
Li11 S55 2.487349 1_545
Li12 S24 2.426496 1_655
Li12 S7 2.441032 1_555
Li12 S39 2.461484 1_555
Li12 S56 2.462852 1_655
Li13 S38 2.411594 1_455
Li13 S6 2.478658 1_455
Li13 S25 2.485915 1_555
Li13 S57 2.499929 1_555
Li14 S58 2.424726 1_555
Li14 S46 2.443196 1_556
Li14 S14 2.454581 1_555
Li14 S26 2.487349 1_556
Li15 S15 2.385976 1_554
Li15 S59 2.411186 1_544
Li15 S27 2.412789 1_555
Li15 S47 2.447836 1_545
Li16 S43 2.392823 1_555
Li16 S11 2.392823 1_555
Li16 S28 2.424492 1_655
Li16 S60 2.424492 1_655
Li17 S61 2.369265 1_555
Li17 S29 2.369274 1_555
Li17 S42 2.507343 1_455
Li17 S10 2.507343 1_455
Li18 S62 2.426496 1_655
Li18 S33 2.441032 1_555
Li18 S1 2.461484 1_555
Li18 S30 2.462852 1_655
Li19 S0 2.411594 1_455
Li19 S32 2.478658 1_455
Li19 S63 2.485907 1_555
Li19 S31 2.499938 1_555
Li20 S15 2.379450 1_555
Li20 S44 2.379450 1_555
Li20 S58 2.443363 1_555
Li20 S23 2.443363 1_555
Li21 S14 2.380791 1_555
Li21 S45 2.380791 1_555
Li21 S22 2.393241 1_555
Li21 S59 2.393241 1_555
Li22 S38 2.380003 1_555
Li22 S61 2.385457 1_655
Li22 S24 2.408129 1_645
Li22 S11 2.428084 1_545
Li23 S0 2.380003 1_555
Li23 S29 2.385452 1_654
Li23 S62 2.408129 1_655
Li23 S43 2.428084 1_554
P0 S48 2.060403 1_555
P0 S32 2.064083 1_555
P0 S17 2.065268 1_555
P0 S2 2.065290 1_555
P1 S16 2.061646 1_555
P1 S33 2.061707 1_555
P1 S3 2.062570 1_555
P1 S49 2.065145 1_555
P2 S19 2.060403 1_555
P2 S6 2.064083 1_555
P2 S50 2.065268 1_555
P2 S34 2.065290 1_555
P3 S51 2.061646 1_555
P3 S7 2.061707 1_555
P3 S35 2.062570 1_555
P3 S18 2.065145 1_555
P4 S52 2.062331 1_555
P4 S36 2.063650 1_555
P4 S21 2.064134 1_555
P4 S8 2.064604 1_555
P5 S20 2.062331 1_545
P5 S9 2.063650 1_555
P5 S53 2.064141 1_555
P5 S37 2.064604 1_545
P6 S38 2.006277 1_555
P6 S23 2.056758 1_555
P6 S54 2.070244 1_555
P6 S10 2.121159 1_555
P7 S22 2.048717 1_555
P7 S11 2.055431 1_555
P7 S39 2.068681 1_555
P7 S55 2.075109 1_555
P8 S25 2.053336 1_555
P8 S40 2.055998 1_555
P8 S56 2.058456 1_555
P8 S12 2.092575 1_555
P9 S24 2.051470 1_555
P9 S41 2.065006 1_555
P9 S13 2.066694 1_565
P9 S57 2.067031 1_565
P10 S0 2.006277 1_555
P10 S58 2.056758 1_554
P10 S27 2.070244 1_555
P10 S42 2.121159 1_554
P11 S59 2.048717 1_555
P11 S43 2.055431 1_555
P11 S1 2.068681 1_556
P11 S26 2.075109 1_556
P12 S44 2.017055 1_555
P12 S29 2.018740 1_555
P12 S14 2.073523 1_555
P12 S60 2.131941 1_555
P13 S15 2.017055 1_565
P13 S61 2.018746 1_565
P13 S45 2.073523 1_555
P13 S28 2.131941 1_555
P14 S62 2.051470 1_555
P14 S4 2.065006 1_555
P14 S46 2.066694 1_555
P14 S31 2.067024 1_555
P15 S63 2.053342 1_565
P15 S5 2.055998 1_565
P15 S30 2.058456 1_555
P15 S47 2.092575 1_555
S1 Zn11 2.365620 1_565
S2 Zn4 2.373486 1_655
S3 Zn5 2.371855 1_565
S4 Zn1 2.354900 1_555
S5 Zn0 2.396665 1_555
S6 Zn8 2.364548 1_555
S7 Zn9 2.374788 1_665
S8 Zn3 2.370564 1_555
S9 Zn2 2.372172 1_555
S10 Zn10 2.364130 1_555
S12 Zn7 2.393556 1_555
S13 Zn6 2.376904 1_555
S16 Zn3 2.366106 1_555
S17 Zn2 2.373383 1_555
S18 Zn7 2.354869 1_555
S19 Zn6 2.375174 1_555
S20 Zn9 2.370786 1_565
S21 Zn8 2.368739 1_455
S25 Zn10 2.369385 1_455
S26 Zn1 2.361549 1_555
S27 Zn0 2.355728 1_555
S28 Zn11 2.377049 1_466
S30 Zn5 2.380252 1_465
S31 Zn4 2.360264 1_555
S32 Zn5 2.364548 1_555
S33 Zn4 2.374788 1_655
S34 Zn9 2.373486 1_655
S35 Zn8 2.371855 1_555
S36 Zn2 2.372172 1_555
S37 Zn3 2.370564 1_555
S39 Zn10 2.365620 1_555
S40 Zn6 2.396665 1_555
S41 Zn7 2.354900 1_555
S42 Zn11 2.364130 1_556
S46 Zn0 2.376904 1_555
S47 Zn1 2.393556 1_555
S48 Zn0 2.375174 1_555
S49 Zn1 2.354869 1_555
S50 Zn2 2.373383 1_555
S51 Zn3 2.366106 1_555
S52 Zn4 2.370786 1_555
S53 Zn5 2.368745 1_455
S54 Zn6 2.355728 1_555
S55 Zn7 2.361549 1_555
S56 Zn8 2.380252 1_455
S57 Zn9 2.360270 1_555
S60 Zn10 2.377049 1_455
S63 Zn11 2.369391 1_455
