# generated using pymatgen
data_Rb2MnOF5
_symmetry_space_group_name_H-M   'P 1'
_cell_length_a   6.37166772
_cell_length_b   6.37166772
_cell_length_c   8.28163200
_cell_angle_alpha   90.00000000
_cell_angle_beta   90.00000000
_cell_angle_gamma   85.68323783
_symmetry_Int_Tables_number   1
_chemical_formula_structural   Rb2MnOF5
_chemical_formula_sum   'Rb4 Mn2 O2 F10'
_cell_volume   335.26513295
_cell_formula_units_Z   2
loop_
 _symmetry_equiv_pos_site_id
 _symmetry_equiv_pos_as_xyz
  1  'x, y, z'
loop_
 _atom_site_type_symbol
 _atom_site_label
 _atom_site_symmetry_multiplicity
 _atom_site_fract_x
 _atom_site_fract_y
 _atom_site_fract_z
 _atom_site_occupancy
  Rb  Rb0  1  0.02041300  0.50965000  0.25000000  1
  Rb  Rb1  1  0.49035000  0.97958700  0.75000000  1
  Rb  Rb2  1  0.97958700  0.49035000  0.75000000  1
  Rb  Rb3  1  0.50965000  0.02041300  0.25000000  1
  Mn  Mn0  1  0.00000000  0.00000000  0.50000000  1
  Mn  Mn1  1  0.00000000  0.00000000  0.00000000  1
  O  O0  1  0.52467900  0.52467900  0.25000000  1
  O  O1  1  0.47532000  0.47532000  0.75000000  1
  F  F0  1  0.99334200  0.99334200  0.25000000  1
  F  F1  1  0.00665800  0.00665800  0.75000000  1
  F  F2  1  0.78397600  0.21602400  0.50000000  1
  F  F3  1  0.78397600  0.21602400  0.00000000  1
  F  F4  1  0.21602400  0.78397600  0.50000000  1
  F  F5  1  0.21602400  0.78397600  0.00000000  1
  F  F6  1  0.20051400  0.20051400  0.49356900  1
  F  F7  1  0.79948600  0.79948600  0.50643100  1
  F  F8  1  0.20051400  0.20051400  0.00643100  1
  F  F9  1  0.79948600  0.79948600  0.99356900  1
loop_
_geom_bond_atom_site_label_1
_geom_bond_atom_site_label_2
_geom_bond_distance
_geom_bond_site_symmetry_2
O0 Rb3 3.152891 1_565
O0 Rb0 3.152891 1_655
O0 Rb0 3.221639 1_555
O0 Rb3 3.221639 1_555
O1 Rb2 3.152884 1_455
O1 Rb1 3.152884 1_545
O1 Rb1 3.221646 1_555
O1 Rb2 3.221646 1_555
F0 Mn1 2.071342 1_665
F0 Mn0 2.071342 1_665
F0 Rb0 3.073758 1_655
F0 Rb3 3.073758 1_565
F0 Rb0 3.307202 1_665
F0 Rb3 3.307202 1_665
F1 Mn0 2.071342 1_555
F1 Mn1 2.071342 1_556
F1 Rb2 3.073758 1_455
F1 Rb1 3.073758 1_545
F1 Rb1 3.307202 1_445
F1 Rb2 3.307202 1_445
F2 Mn0 1.871878 1_655
F2 Rb3 3.036970 1_555
F2 Rb2 3.036970 1_555
F2 Rb1 3.237382 1_545
F2 Rb0 3.237382 1_655
F3 Mn1 1.871878 1_655
F3 Rb3 3.036970 1_555
F3 Rb2 3.036970 1_554
F3 Rb1 3.237382 1_544
F3 Rb0 3.237382 1_655
F4 Mn0 1.871878 1_565
F4 Rb0 3.036970 1_555
F4 Rb1 3.036970 1_555
F4 Rb2 3.237382 1_455
F4 Rb3 3.237382 1_565
F5 Mn1 1.871878 1_565
F5 Rb0 3.036970 1_555
F5 Rb1 3.036970 1_554
F5 Rb2 3.237382 1_454
F5 Rb3 3.237382 1_565
F6 Mn0 1.874334 1_555
F6 Rb3 2.987514 1_555
F6 Rb0 2.987514 1_555
F6 Rb2 3.083927 1_455
F6 Rb1 3.083927 1_545
F7 Mn0 1.874334 1_665
F7 Rb1 2.987514 1_555
F7 Rb2 2.987514 1_555
F7 Rb0 3.083927 1_655
F7 Rb3 3.083927 1_565
F8 Mn1 1.874334 1_555
F8 Rb0 2.987514 1_555
F8 Rb3 2.987514 1_555
F8 Rb2 3.083927 1_454
F8 Rb1 3.083927 1_544
F9 Mn1 1.874334 1_666
F9 Rb1 2.987514 1_555
F9 Rb2 2.987514 1_555
F9 Rb3 3.083927 1_566
F9 Rb0 3.083927 1_656
