# generated using pymatgen
data_MgMn2O4
_symmetry_space_group_name_H-M   'P 1'
_cell_length_a   6.02880125
_cell_length_b   6.02880125
_cell_length_c   6.02880125
_cell_angle_alpha   118.64196875
_cell_angle_beta   118.64196875
_cell_angle_gamma   92.36872695
_symmetry_Int_Tables_number   1
_chemical_formula_structural   MgMn2O4
_chemical_formula_sum   'Mg2 Mn4 O8'
_cell_volume   157.97956401
_cell_formula_units_Z   2
loop_
 _symmetry_equiv_pos_site_id
 _symmetry_equiv_pos_as_xyz
  1  'x, y, z'
loop_
 _atom_site_type_symbol
 _atom_site_label
 _atom_site_symmetry_multiplicity
 _atom_site_fract_x
 _atom_site_fract_y
 _atom_site_fract_z
 _atom_site_occupancy
  Mg  Mg0  1  0.75000000  0.25000000  0.50000000  1
  Mg  Mg1  1  0.00000000  0.00000000  0.00000000  1
  Mn  Mn0  1  0.37500000  0.12500000  0.75000000  1
  Mn  Mn1  1  0.37500000  0.62500000  0.25000000  1
  Mn  Mn2  1  0.87500000  0.62500000  0.25000000  1
  Mn  Mn3  1  0.37500000  0.62500000  0.75000000  1
  O  O0  1  0.10806000  0.87510700  0.70296600  1
  O  O1  1  0.59490700  0.89194000  0.76704700  1
  O  O2  1  0.12489300  0.82786000  0.23295300  1
  O  O3  1  0.57786000  0.84490700  0.20296600  1
  O  O4  1  0.62510700  0.42214000  0.26704700  1
  O  O5  1  0.15509300  0.35806000  0.73295300  1
  O  O6  1  0.17214000  0.40509300  0.29703400  1
  O  O7  1  0.64194000  0.37489300  0.79703400  1
loop_
_geom_bond_atom_site_label_1
_geom_bond_atom_site_label_2
_geom_bond_distance
_geom_bond_site_symmetry_2
Mg0 O5 2.016056 1_655
Mg0 O4 2.016056 1_555
Mg0 O3 2.016056 1_545
Mg0 O7 2.016061 1_555
Mg1 O2 2.016056 1_545
Mg1 O1 2.016056 1_444
Mg1 O6 2.016056 1_555
Mg1 O0 2.016061 1_544
Mn0 O0 1.972972 1_545
Mn0 O7 1.972972 1_555
Mn0 O1 1.975921 1_545
Mn0 O5 1.975921 1_555
Mn0 O2 2.262065 1_545
Mn0 O4 2.262065 1_556
Mn1 O6 1.972980 1_555
Mn1 O3 1.972980 1_555
Mn1 O4 1.975921 1_555
Mn1 O2 1.975921 1_555
Mn1 O1 2.262065 1_555
Mn1 O5 2.262065 1_554
Mn2 O2 1.972976 1_655
Mn2 O4 1.972976 1_555
Mn2 O0 1.975917 1_655
Mn2 O7 1.975917 1_554
Mn2 O6 2.262065 1_655
Mn2 O3 2.262065 1_555
Mn3 O5 1.972976 1_555
Mn3 O1 1.972976 1_555
Mn3 O3 1.975917 1_556
Mn3 O6 1.975917 1_555
Mn3 O0 2.262065 1_555
Mn3 O7 2.262065 1_555
