# generated using pymatgen
data_LiEr4Zr4O14
_symmetry_space_group_name_H-M   'P 1'
_cell_length_a   3.62992547
_cell_length_b   14.93410891
_cell_length_c   12.89168885
_cell_angle_alpha   30.31789824
_cell_angle_beta   56.19062083
_cell_angle_gamma   61.29285481
_symmetry_Int_Tables_number   1
_chemical_formula_structural   LiEr4Zr4O14
_chemical_formula_sum   'Li1 Er4 Zr4 O14'
_cell_volume   293.12251336
_cell_formula_units_Z   1
loop_
 _symmetry_equiv_pos_site_id
 _symmetry_equiv_pos_as_xyz
  1  'x, y, z'
loop_
 _atom_site_type_symbol
 _atom_site_label
 _atom_site_symmetry_multiplicity
 _atom_site_fract_x
 _atom_site_fract_y
 _atom_site_fract_z
 _atom_site_occupancy
  Li  Li0  1  0.56650300  0.50000000  0.73730700  1
  Er  Er0  1  0.03539000  0.22753700  0.02270900  1
  Er  Er1  1  0.99843900  0.00000000  0.50974100  1
  Er  Er2  1  0.03539000  0.77246300  0.47778300  1
  Er  Er3  1  0.07432000  0.50000000  0.46947600  1
  Zr  Zr0  1  0.04767700  0.00000000  0.98531200  1
  Zr  Zr1  1  0.01977300  0.50000000  0.99259200  1
  Zr  Zr2  1  0.02631800  0.23929400  0.50572700  1
  Zr  Zr3  1  0.02631800  0.76070600  0.98431400  1
  O  O0  1  0.32007200  0.00000000  0.10234500  1
  O  O1  1  0.25257000  0.24521700  0.14687200  1
  O  O2  1  0.28052400  0.00000000  0.61900500  1
  O  O3  1  0.34730000  0.50000000  0.08263400  1
  O  O4  1  0.23852300  0.23208400  0.65145000  1
  O  O5  1  0.23852300  0.76791600  0.11562000  1
  O  O6  1  0.72161100  0.26575700  0.37975300  1
  O  O7  1  0.79877200  0.00000000  0.85412100  1
  O  O8  1  0.81127600  0.50000000  0.34866200  1
  O  O9  1  0.77084300  0.30159500  0.82980000  1
  O  O10  1  0.77084300  0.69840500  0.43299100  1
  O  O11  1  0.25257000  0.75478300  0.63730500  1
  O  O12  1  0.91269200  0.50000000  0.81779700  1
  O  O13  1  0.72161100  0.73424300  0.91126500  1
loop_
_geom_bond_atom_site_label_1
_geom_bond_atom_site_label_2
_geom_bond_distance
_geom_bond_site_symmetry_2
Li0 O10 1.877373 1_555
Li0 O9 1.877380 1_555
Li0 O12 1.992139 1_455
Li0 O12 2.026571 1_555
Li0 O11 2.537495 1_555
Li0 O1 2.537502 1_556
Er0 O12 2.178092 1_454
Er0 O9 2.284482 1_454
Er0 O9 2.287844 1_554
Er0 O0 2.335167 1_555
Er0 O1 2.363744 1_555
Er0 O1 2.377719 1_455
Er1 O2 2.153539 1_655
Er1 O2 2.165687 1_555
Er1 O1 2.238697 1_655
Er1 O11 2.238703 1_645
Er1 O13 2.475835 1_545
Er1 O6 2.475848 1_555
Er2 O12 2.178092 1_455
Er2 O10 2.284470 1_455
Er2 O10 2.287844 1_555
Er2 O0 2.335167 1_565
Er2 O11 2.363732 1_555
Er2 O11 2.377718 1_455
Er3 O5 2.219726 1_555
Er3 O4 2.219735 1_555
Er3 O8 2.223789 1_555
Er3 O8 2.234387 1_455
Er3 O9 2.291058 1_455
Er3 O10 2.291066 1_455
O0 Zr0 2.194865 1_654
O0 Zr0 2.216798 1_554
O1 Zr1 2.205350 1_554
O2 Zr3 2.253147 1_545
O2 Zr2 2.253153 1_555
O3 Zr1 2.037823 1_654
O3 Zr1 2.072859 1_554
O3 Zr3 2.624558 1_554
O3 Zr2 2.624565 1_555
O4 Zr0 2.061816 1_555
O4 Zr2 2.305563 1_555
O4 Zr2 2.384618 1_655
O5 Zr0 2.061804 1_564
O5 Zr3 2.305600 1_554
O5 Zr3 2.384622 1_654
O6 Zr2 2.110028 1_555
O6 Zr2 2.118488 1_655
O6 Zr1 2.408654 1_654
O7 Zr2 2.149857 1_655
O7 Zr3 2.149863 1_645
O7 Zr0 2.272052 1_555
O7 Zr0 2.318894 1_655
O8 Zr2 2.257559 1_655
O8 Zr3 2.257564 1_654
O9 Zr0 2.760401 1_655
O10 Zr0 2.760407 1_664
O11 Zr1 2.205355 1_555
O12 Zr1 2.490713 1_655
O12 Zr1 2.730433 1_555
O13 Zr3 2.110028 1_555
O13 Zr3 2.118500 1_655
O13 Zr1 2.408639 1_655
