# generated using pymatgen
data_MgCu2O3
_symmetry_space_group_name_H-M   'P 1'
_cell_length_a   4.22654900
_cell_length_b   4.22654900
_cell_length_c   3.85437000
_cell_angle_alpha   90.00000000
_cell_angle_beta   90.00000000
_cell_angle_gamma   90.00000000
_symmetry_Int_Tables_number   1
_chemical_formula_structural   MgCu2O3
_chemical_formula_sum   'Mg1 Cu2 O3'
_cell_volume   68.85337277
_cell_formula_units_Z   1
loop_
 _symmetry_equiv_pos_site_id
 _symmetry_equiv_pos_as_xyz
  1  'x, y, z'
loop_
 _atom_site_type_symbol
 _atom_site_label
 _atom_site_symmetry_multiplicity
 _atom_site_fract_x
 _atom_site_fract_y
 _atom_site_fract_z
 _atom_site_occupancy
  Mg  Mg0  1  0.00000000  0.00000000  0.00000000  1
  Cu  Cu0  1  0.00000000  0.50000000  0.50000000  1
  Cu  Cu1  1  0.50000000  0.00000000  0.50000000  1
  O  O0  1  0.00000000  0.50000000  0.00000000  1
  O  O1  1  0.50000000  0.00000000  0.00000000  1
  O  O2  1  0.00000000  0.00000000  0.50000000  1
loop_
_geom_bond_atom_site_label_1
_geom_bond_atom_site_label_2
_geom_bond_distance
_geom_bond_site_symmetry_2
Mg0 O2 1.927185 1_555
Mg0 O2 1.927185 1_554
Mg0 O0 2.113275 1_555
Mg0 O1 2.113275 1_555
Mg0 O1 2.113275 1_455
Mg0 O0 2.113275 1_545
Cu0 O0 1.927185 1_555
Cu0 O0 1.927185 1_556
Cu0 O2 2.113275 1_555
Cu0 O2 2.113275 1_565
Cu1 O1 1.927185 1_555
Cu1 O1 1.927185 1_556
Cu1 O2 2.113275 1_555
Cu1 O2 2.113275 1_655
