# generated using pymatgen
data_Na4Al3Si3CNO13
_symmetry_space_group_name_H-M   'P 1'
_cell_length_a   8.99688378
_cell_length_b   8.99688378
_cell_length_c   9.18848900
_cell_angle_alpha   90.00000000
_cell_angle_beta   90.00000000
_cell_angle_gamma   90.01097866
_symmetry_Int_Tables_number   1
_chemical_formula_structural   Na4Al3Si3CNO13
_chemical_formula_sum   'Na8 Al6 Si6 C2 N2 O26'
_cell_volume   743.75228394
_cell_formula_units_Z   2
loop_
 _symmetry_equiv_pos_site_id
 _symmetry_equiv_pos_as_xyz
  1  'x, y, z'
loop_
 _atom_site_type_symbol
 _atom_site_label
 _atom_site_symmetry_multiplicity
 _atom_site_fract_x
 _atom_site_fract_y
 _atom_site_fract_z
 _atom_site_occupancy
  Na  Na0  1  0.80852400  0.69138600  0.19725100  1
  Na  Na1  1  0.19147600  0.30861400  0.19725100  1
  Na  Na2  1  0.31108100  0.81096900  0.30361900  1
  Na  Na3  1  0.68891900  0.18903100  0.30361900  1
  Na  Na4  1  0.69138600  0.80852400  0.69725100  1
  Na  Na5  1  0.30861400  0.19147600  0.69725100  1
  Na  Na6  1  0.18903100  0.68891900  0.80361900  1
  Na  Na7  1  0.81096900  0.31108100  0.80361900  1
  Al  Al0  1  0.75085600  0.00017800  0.00021600  1
  Al  Al1  1  0.50000000  0.50000000  0.24986500  1
  Al  Al2  1  0.99982200  0.24914400  0.50021600  1
  Al  Al3  1  0.00017800  0.75085600  0.50021600  1
  Al  Al4  1  0.50000000  0.50000000  0.74986500  1
  Al  Al5  1  0.24914400  0.99982200  0.00021600  1
  Si  Si0  1  0.49985700  0.74858000  0.99986000  1
  Si  Si1  1  0.00000000  0.00000000  0.25005700  1
  Si  Si2  1  0.25142000  0.50014300  0.49986000  1
  Si  Si3  1  0.74858000  0.49985700  0.49986000  1
  Si  Si4  1  0.00000000  0.00000000  0.75005700  1
  Si  Si5  1  0.50014300  0.25142000  0.99986000  1
  C  C0  1  0.00000000  0.50000000  0.99999400  1
  C  C1  1  0.50000000  0.00000000  0.49999400  1
  N  N0  1  0.50000000  0.00000000  0.36935600  1
  N  N1  1  0.00000000  0.50000000  0.86935600  1
  O  O0  1  0.35552800  0.84536300  0.05220400  1
  O  O1  1  0.64447200  0.15463700  0.05220400  1
  O  O2  1  0.55550500  0.64994800  0.13998600  1
  O  O3  1  0.44449500  0.35005200  0.13998600  1
  O  O4  1  0.00000000  0.50000000  0.13407700  1
  O  O5  1  0.85955000  0.94429500  0.15024200  1
  O  O6  1  0.14045000  0.05570500  0.15024200  1
  O  O7  1  0.05502200  0.85895600  0.34923600  1
  O  O8  1  0.94497800  0.14104400  0.34923600  1
  O  O9  1  0.34951200  0.55477700  0.35895300  1
  O  O10  1  0.65048800  0.44522300  0.35895300  1
  O  O11  1  0.84679900  0.64322900  0.44675700  1
  O  O12  1  0.15320100  0.35677100  0.44675700  1
  O  O13  1  0.15463700  0.64447200  0.55220400  1
  O  O14  1  0.84536300  0.35552800  0.55220400  1
  O  O15  1  0.64994800  0.55550500  0.63998600  1
  O  O16  1  0.35005200  0.44449500  0.63998600  1
  O  O17  1  0.50000000  0.00000000  0.63407700  1
  O  O18  1  0.94429500  0.85955000  0.65024200  1
  O  O19  1  0.05570500  0.14045000  0.65024200  1
  O  O20  1  0.85895600  0.05502200  0.84923600  1
  O  O21  1  0.14104400  0.94497800  0.84923600  1
  O  O22  1  0.44522300  0.65048800  0.85895300  1
  O  O23  1  0.55477700  0.34951200  0.85895300  1
  O  O24  1  0.64322900  0.84679900  0.94675700  1
  O  O25  1  0.35677100  0.15320100  0.94675700  1
loop_
_geom_bond_atom_site_label_1
_geom_bond_atom_site_label_2
_geom_bond_distance
_geom_bond_site_symmetry_2
Na0 O11 2.358451 1_555
Na0 O5 2.361003 1_555
Na0 O2 2.365892 1_555
Na0 O4 2.504117 1_655
Na1 O12 2.358451 1_555
Na1 O6 2.361003 1_555
Na1 O3 2.365892 1_555
Na1 O4 2.504117 1_555
Na2 O0 2.364801 1_555
Na2 O7 2.381102 1_555
Na2 O9 2.385595 1_555
Na3 O1 2.364801 1_555
Na3 O8 2.381102 1_555
Na3 O10 2.385595 1_555
Na4 O24 2.358451 1_555
Na4 O18 2.361003 1_555
Na4 O15 2.365892 1_555
Na4 O17 2.504117 1_565
Na5 O25 2.358451 1_555
Na5 O19 2.361003 1_555
Na5 O16 2.365892 1_555
Na5 O17 2.504117 1_555
Na6 O13 2.364801 1_555
Na6 O21 2.381102 1_555
Na6 O22 2.385595 1_555
Na7 O14 2.364801 1_555
Na7 O20 2.381102 1_555
Na7 O23 2.385595 1_555
Al0 O1 1.753828 1_555
Al0 O24 1.755736 1_544
Al0 O5 1.763397 1_545
Al0 O20 1.764569 1_554
Al1 O10 1.755264 1_555
Al1 O9 1.755264 1_555
Al1 O2 1.757392 1_555
Al1 O3 1.757392 1_555
Al2 O14 1.753828 1_555
Al2 O12 1.755736 1_655
Al2 O19 1.763397 1_655
Al2 O8 1.764569 1_555
Al3 O13 1.753828 1_555
Al3 O11 1.755736 1_455
Al3 O18 1.763397 1_455
Al3 O7 1.764569 1_555
Al4 O22 1.755264 1_555
Al4 O23 1.755264 1_555
Al4 O15 1.757392 1_555
Al4 O16 1.757392 1_555
Al5 O0 1.753828 1_555
Al5 O25 1.755736 1_564
Al5 O6 1.763397 1_565
Al5 O21 1.764569 1_554
C0 N1 1.200366 1_555
C0 O4 1.232020 1_556
C1 N0 1.200366 1_555
C1 O17 1.232020 1_555
N0 Na2 2.478912 1_545
N0 Na3 2.478912 1_555
N1 Na7 2.478912 1_455
N1 Na6 2.478912 1_555
O0 Si0 1.635875 1_554
O1 Si5 1.635875 1_554
O2 Si0 1.641965 1_554
O3 Si5 1.641965 1_554
O5 Si1 1.639759 1_665
O6 Si1 1.639759 1_555
O7 Si1 1.638908 1_565
O8 Si1 1.638908 1_655
O9 Si2 1.642131 1_555
O10 Si3 1.642131 1_555
O11 Si3 1.637789 1_555
O12 Si2 1.637789 1_555
O13 Si2 1.635875 1_555
O14 Si3 1.635875 1_555
O15 Si3 1.641965 1_555
O16 Si2 1.641965 1_555
O18 Si4 1.639759 1_665
O19 Si4 1.639759 1_555
O20 Si4 1.638908 1_655
O21 Si4 1.638908 1_565
O22 Si0 1.642131 1_555
O23 Si5 1.642131 1_555
O24 Si0 1.637789 1_555
O25 Si5 1.637789 1_555
