# generated using pymatgen
data_Al9Co2
_symmetry_space_group_name_H-M   'P 1'
_cell_length_a   6.14125296
_cell_length_b   6.22880097
_cell_length_c   8.45573685
_cell_angle_alpha   89.99865891
_cell_angle_beta   95.18179272
_cell_angle_gamma   90.00044771
_symmetry_Int_Tables_number   1
_chemical_formula_structural   Al9Co2
_chemical_formula_sum   'Al18 Co4'
_cell_volume   322.13236842
_cell_formula_units_Z   2
loop_
 _symmetry_equiv_pos_site_id
 _symmetry_equiv_pos_as_xyz
  1  'x, y, z'
loop_
 _atom_site_type_symbol
 _atom_site_label
 _atom_site_symmetry_multiplicity
 _atom_site_fract_x
 _atom_site_fract_y
 _atom_site_fract_z
 _atom_site_occupancy
  Al  Al0  1  -0.00000000  -0.00000000  0.00000000  1
  Al  Al1  1  -0.00000000  0.50000000  0.50000000  1
  Al  Al2  1  0.59325762  0.03711818  0.73326879  1
  Al  Al3  1  0.40671225  0.53714907  0.76666995  1
  Al  Al4  1  0.40674238  0.96288182  0.26673121  1
  Al  Al5  1  0.59328775  0.46285093  0.23333005  1
  Al  Al6  1  0.91236513  0.71129564  0.76944800  1
  Al  Al7  1  0.08760837  0.21125870  0.73048543  1
  Al  Al8  1  0.08763487  0.28870436  0.23055200  1
  Al  Al9  1  0.91239163  0.78874130  0.26951457  1
  Al  Al10  1  0.60930628  0.80816181  0.00283061  1
  Al  Al11  1  0.39068768  0.30814065  0.49717136  1
  Al  Al12  1  0.39069372  0.19183819  0.99716939  1
  Al  Al13  1  0.60931232  0.69185935  0.50282864  1
  Al  Al14  1  0.78494356  0.38641187  0.95689138  1
  Al  Al15  1  0.21504828  0.88641813  0.54309052  1
  Al  Al16  1  0.21505644  0.61358813  0.04310862  1
  Al  Al17  1  0.78495172  0.11358187  0.45690948  1
  Co  Co0  1  0.73604183  0.38257533  0.66672149  1
  Co  Co1  1  0.26393837  0.88257317  0.83315583  1
  Co  Co2  1  0.26395817  0.61742467  0.33327851  1
  Co  Co3  1  0.73606163  0.11742683  0.16684417  1
loop_
_geom_bond_atom_site_label_1
_geom_bond_atom_site_label_2
_geom_bond_distance
_geom_bond_site_symmetry_2
Al0 Co1 2.359196 1_544
Al0 Co3 2.359196 1_455
Al0 Al8 2.671066 1_555
Al0 Al6 2.671066 1_444
Al0 Al12 2.682464 1_554
Al0 Al10 2.682464 1_445
Al0 Al7 2.726893 1_554
Al0 Al9 2.726893 1_445
Al0 Al16 2.753778 1_545
Al0 Al14 2.753778 1_454
Al1 Co2 2.358569 1_555
Al1 Co0 2.358569 1_455
Al1 Al9 2.670743 1_455
Al1 Al7 2.670743 1_555
Al1 Al13 2.682505 1_455
Al1 Al11 2.682505 1_555
Al1 Al6 2.726624 1_455
Al1 Al8 2.726624 1_555
Al1 Al15 2.753772 1_555
Al1 Al17 2.753772 1_455
Al2 Co0 2.409307 1_555
Al2 Co1 2.457388 1_545
Al2 Al6 2.818623 1_545
Al3 Co1 2.408997 1_555
Al3 Co0 2.457757 1_555
Al3 Al7 2.818902 1_555
Al4 Co2 2.409307 1_555
Al4 Co3 2.457388 1_565
Al4 Al8 2.818623 1_565
Al5 Co3 2.408997 1_555
Al5 Co2 2.457757 1_555
Al5 Al9 2.818902 1_555
Al6 Co1 2.424867 1_655
Al6 Co0 2.439182 1_555
Al7 Co0 2.425010 1_455
Al7 Co1 2.438848 1_545
Al8 Co3 2.424867 1_455
Al8 Co2 2.439182 1_555
Al9 Co2 2.425010 1_655
Al9 Co3 2.438848 1_565
Al10 Co3 2.458709 1_565
Al10 Co1 2.494430 1_554
Al10 Al2 2.682950 1_564
Al10 Al12 2.739441 1_564
Al10 Al16 2.756063 1_555
Al10 Al9 2.793931 1_555
Al10 Al3 2.817200 1_554
Al10 Al4 2.820869 1_555
Al10 Al14 2.879449 1_554
Al10 Al6 2.895836 1_554
Al10 Al5 2.910177 1_555
Al11 Co2 2.458172 1_555
Al11 Co0 2.493871 1_555
Al11 Al3 2.682732 1_555
Al11 Al13 2.739691 1_555
Al11 Al17 2.756095 1_555
Al11 Al8 2.793412 1_555
Al11 Al2 2.816778 1_555
Al11 Al5 2.820504 1_555
Al11 Al15 2.879238 1_545
Al11 Al7 2.895491 1_555
Al11 Al4 2.909690 1_545
Al12 Co1 2.458709 1_545
Al12 Co3 2.494430 1_556
Al12 Al4 2.682950 1_546
Al12 Al14 2.756063 1_555
Al12 Al7 2.793931 1_555
Al12 Al5 2.817200 1_556
Al12 Al2 2.820869 1_555
Al12 Al16 2.879449 1_556
Al12 Al8 2.895836 1_556
Al12 Al3 2.910177 1_555
Al13 Co0 2.458172 1_555
Al13 Co2 2.493871 1_555
Al13 Al5 2.682732 1_555
Al13 Al15 2.756095 1_555
Al13 Al6 2.793412 1_555
Al13 Al4 2.816778 1_555
Al13 Al3 2.820504 1_555
Al13 Al17 2.879238 1_565
Al13 Al9 2.895491 1_555
Al13 Al2 2.909690 1_565
Al14 Co0 2.444958 1_555
Al14 Co3 2.478930 1_556
Al14 Al6 2.728269 1_555
Al14 Al5 2.751897 1_556
Al14 Al3 2.861689 1_555
Al14 Al8 2.898877 1_656
Al14 Al7 2.992177 1_655
Al14 Al16 3.027065 1_656
Al14 Al2 3.048430 1_555
Al15 Co1 2.444077 1_555
Al15 Co2 2.478191 1_555
Al15 Al7 2.727923 1_565
Al15 Al4 2.751424 1_555
Al15 Al2 2.861345 1_565
Al15 Al9 2.898202 1_455
Al15 Al6 2.991855 1_455
Al15 Al17 3.026897 1_465
Al15 Al3 3.048012 1_555
Al16 Co2 2.444958 1_555
Al16 Co1 2.478930 1_554
Al16 Al8 2.728269 1_555
Al16 Al3 2.751897 1_554
Al16 Al5 2.861689 1_555
Al16 Al6 2.898877 1_454
Al16 Al9 2.992177 1_455
Al16 Al4 3.048430 1_555
Al17 Co3 2.444077 1_555
Al17 Co0 2.478191 1_555
Al17 Al9 2.727923 1_545
Al17 Al2 2.751424 1_555
Al17 Al4 2.861345 1_545
Al17 Al7 2.898202 1_655
Al17 Al8 2.991855 1_655
Al17 Al5 3.048012 1_555
