# generated using pymatgen
data_SrTcO3
_symmetry_space_group_name_H-M   'P 1'
_cell_length_a   5.61511437
_cell_length_b   5.61511437
_cell_length_c   5.61511437
_cell_angle_alpha   120.32607591
_cell_angle_beta   119.26897682
_cell_angle_gamma   90.35347685
_symmetry_Int_Tables_number   1
_chemical_formula_structural   SrTcO3
_chemical_formula_sum   'Sr2 Tc2 O6'
_cell_volume   125.55473589
_cell_formula_units_Z   2
loop_
 _symmetry_equiv_pos_site_id
 _symmetry_equiv_pos_as_xyz
  1  'x, y, z'
loop_
 _atom_site_type_symbol
 _atom_site_label
 _atom_site_symmetry_multiplicity
 _atom_site_fract_x
 _atom_site_fract_y
 _atom_site_fract_z
 _atom_site_occupancy
  Sr  Sr0  1  0.24503395  0.75000000  0.49503395  1
  Sr  Sr1  1  0.75496605  0.25000000  0.50496605  1
  Tc  Tc0  1  0.50000000  0.50000000  -0.00000000  1
  Tc  Tc1  1  -0.00000000  0.00000000  -0.00000000  1
  O  O0  1  0.68224082  0.75000000  0.93224082  1
  O  O1  1  0.31775918  0.25000000  0.06775918  1
  O  O2  1  0.21274638  0.21274638  0.50000000  1
  O  O3  1  0.78725362  0.28725362  -0.00000000  1
  O  O4  1  0.21274638  0.71274638  -0.00000000  1
  O  O5  1  0.78725362  0.78725362  0.50000000  1
loop_
_geom_bond_atom_site_label_1
_geom_bond_atom_site_label_2
_geom_bond_distance
_geom_bond_site_symmetry_2
O0 Tc1 2.016147 1_666
O0 Tc0 2.016147 1_556
O0 Sr0 2.482042 1_555
O0 Sr1 2.824051 1_555
O0 Sr1 2.824051 1_566
O0 Sr0 3.195001 1_656
O1 Tc0 2.016147 1_555
O1 Tc1 2.016147 1_555
O1 Sr1 2.482042 1_555
O1 Sr0 2.824051 1_555
O1 Sr0 2.824051 1_544
O1 Sr1 3.195001 1_454
O2 Tc0 2.013077 1_556
O2 Tc1 2.013077 1_555
O2 Sr1 2.592833 1_455
O2 Sr0 2.592833 1_545
O2 Sr0 3.036036 1_555
O2 Sr1 3.036036 1_555
O3 Tc1 2.013077 1_655
O3 Tc0 2.013077 1_555
O3 Sr1 2.592833 1_554
O3 Sr0 2.592833 1_655
O3 Sr0 3.036036 1_544
O3 Sr1 3.036036 1_555
O4 Tc1 2.013077 1_565
O4 Tc0 2.013077 1_555
O4 Sr0 2.592833 1_555
O4 Sr1 2.592833 1_454
O4 Sr0 3.036036 1_554
O4 Sr1 3.036036 1_565
O5 Tc1 2.013077 1_666
O5 Tc0 2.013077 1_555
O5 Sr1 2.592833 1_565
O5 Sr0 2.592833 1_655
O5 Sr0 3.036036 1_555
O5 Sr1 3.036036 1_555
