# generated using pymatgen
data_HfSb2
_symmetry_space_group_name_H-M   'P 1'
_cell_length_a   4.12328303
_cell_length_b   4.12328303
_cell_length_c   8.53366880
_cell_angle_alpha   90.00000000
_cell_angle_beta   90.00000000
_cell_angle_gamma   90.00000000
_symmetry_Int_Tables_number   1
_chemical_formula_structural   HfSb2
_chemical_formula_sum   'Hf2 Sb4'
_cell_volume   145.08485389
_cell_formula_units_Z   2
loop_
 _symmetry_equiv_pos_site_id
 _symmetry_equiv_pos_as_xyz
  1  'x, y, z'
loop_
 _atom_site_type_symbol
 _atom_site_label
 _atom_site_symmetry_multiplicity
 _atom_site_fract_x
 _atom_site_fract_y
 _atom_site_fract_z
 _atom_site_occupancy
  Hf  Hf0  1  0.75000000  0.75000000  0.73468401  1
  Hf  Hf1  1  0.25000000  0.25000000  0.26531599  1
  Sb  Sb0  1  0.75000000  0.75000000  0.38187584  1
  Sb  Sb1  1  0.25000000  0.25000000  0.61812416  1
  Sb  Sb2  1  0.75000000  0.25000000  -0.00000000  1
  Sb  Sb3  1  0.25000000  0.75000000  -0.00000000  1
loop_
_geom_bond_atom_site_label_1
_geom_bond_atom_site_label_2
_geom_bond_distance
_geom_bond_site_symmetry_2
Hf0 Sb0 3.010748 1_555
Hf0 Sb3 3.062123 1_656
Hf0 Sb2 3.062123 1_566
Hf0 Sb2 3.062123 1_556
Hf0 Sb3 3.062123 1_556
Hf0 Sb1 3.080605 1_555
Hf0 Sb1 3.080605 1_565
Hf0 Sb1 3.080605 1_655
Hf0 Sb1 3.080605 1_665
Hf1 Sb1 3.010748 1_555
Hf1 Sb3 3.062123 1_555
Hf1 Sb2 3.062123 1_455
Hf1 Sb3 3.062123 1_545
Hf1 Sb2 3.062123 1_555
Hf1 Sb0 3.080605 1_555
Hf1 Sb0 3.080605 1_445
Hf1 Sb0 3.080605 1_455
Hf1 Sb0 3.080605 1_545
Sb2 Sb3 2.915601 1_645
Sb2 Sb3 2.915601 1_655
Sb2 Sb3 2.915601 1_555
Sb2 Sb3 2.915601 1_545
