# generated using pymatgen
data_Mg2Nb2SbO8
_symmetry_space_group_name_H-M   'P 1'
_cell_length_a   5.37290689
_cell_length_b   5.98527970
_cell_length_c   10.65598822
_cell_angle_alpha   106.34858355
_cell_angle_beta   94.10800854
_cell_angle_gamma   89.79722493
_symmetry_Int_Tables_number   1
_chemical_formula_structural   Mg2Nb2SbO8
_chemical_formula_sum   'Mg4 Nb4 Sb2 O16'
_cell_volume   327.92914526
_cell_formula_units_Z   2
loop_
 _symmetry_equiv_pos_site_id
 _symmetry_equiv_pos_as_xyz
  1  'x, y, z'
loop_
 _atom_site_type_symbol
 _atom_site_label
 _atom_site_symmetry_multiplicity
 _atom_site_fract_x
 _atom_site_fract_y
 _atom_site_fract_z
 _atom_site_occupancy
  Mg  Mg0  1  0.76103000  0.42043300  0.54238500  1
  Mg  Mg1  1  0.73930600  0.87802300  0.45547800  1
  Mg  Mg2  1  0.23957900  0.57641900  0.45551700  1
  Mg  Mg3  1  0.25964800  0.11922200  0.54301000  1
  Nb  Nb0  1  0.73222500  0.28787400  0.24695400  1
  Nb  Nb1  1  0.77050000  0.04365200  0.75166000  1
  Nb  Nb2  1  0.26777700  0.71099400  0.74998600  1
  Nb  Nb3  1  0.23388000  0.95970700  0.24730300  1
  Sb  Sb0  1  0.74973500  0.67622600  0.99982300  1
  Sb  Sb1  1  0.25447000  0.33155600  0.99923700  1
  O  O0  1  0.02818000  0.16506000  0.15575200  1
  O  O1  1  0.47445700  0.00933100  0.84114400  1
  O  O2  1  0.97129700  0.83381500  0.84285700  1
  O  O3  1  0.53281000  0.98348600  0.15505600  1
  O  O4  1  0.61117000  0.45636700  0.11537900  1
  O  O5  1  0.88939400  0.33944200  0.87753600  1
  O  O6  1  0.38997600  0.54241500  0.88297400  1
  O  O7  1  0.11105400  0.65812200  0.11654800  1
  O  O8  1  0.43917400  0.29030300  0.37128600  1
  O  O9  1  0.05777600  0.91629900  0.62395700  1
  O  O10  1  0.36778800  0.83518000  0.39237300  1
  O  O11  1  0.13108300  0.44093100  0.60569800  1
  O  O12  1  0.62947600  0.16234000  0.60531200  1
  O  O13  1  0.86834400  0.55576900  0.39180800  1
  O  O14  1  0.93932000  0.08158600  0.37323700  1
  O  O15  1  0.55713400  0.70437100  0.62366400  1
loop_
_geom_bond_atom_site_label_1
_geom_bond_atom_site_label_2
_geom_bond_distance
_geom_bond_site_symmetry_2
Mg0 O12 1.998572 1_555
Mg0 O15 2.032870 1_555
Mg0 O11 2.046055 1_655
Mg0 O13 2.104926 1_555
Mg0 O8 2.383202 1_555
Mg0 O14 2.540730 1_555
Mg1 O13 1.995600 1_555
Mg1 O14 2.037803 1_565
Mg1 O10 2.053464 1_555
Mg1 O12 2.095615 1_565
Mg1 O9 2.352577 1_655
Mg1 O15 2.560743 1_555
Mg2 O10 1.996630 1_555
Mg2 O8 2.036634 1_555
Mg2 O13 2.053078 1_455
Mg2 O11 2.103823 1_555
Mg2 O15 2.346656 1_555
Mg2 O9 2.548661 1_555
Mg3 O11 1.990878 1_555
Mg3 O9 2.031933 1_545
Mg3 O12 2.043012 1_555
Mg3 O10 2.096379 1_545
Mg3 O14 2.369170 1_455
Mg3 O8 2.577234 1_555
Nb0 O0 1.955590 1_655
Nb0 O13 1.985366 1_555
Nb0 O4 2.016568 1_555
Nb0 O3 2.070071 1_545
Nb0 O8 2.126630 1_555
Nb0 O14 2.298803 1_555
Nb1 O1 1.952273 1_555
Nb1 O5 1.972284 1_555
Nb1 O12 1.990303 1_555
Nb1 O2 2.052558 1_545
Nb1 O9 2.126941 1_645
Nb1 O15 2.351901 1_545
Nb2 O2 1.966040 1_455
Nb2 O11 1.990897 1_555
Nb2 O6 2.030844 1_555
Nb2 O1 2.061121 1_565
Nb2 O15 2.121305 1_555
Nb2 O9 2.299723 1_555
Nb3 O3 1.967923 1_555
Nb3 O10 1.987043 1_555
Nb3 O7 2.023848 1_555
Nb3 O0 2.048126 1_565
Nb3 O14 2.140737 1_465
Nb3 O8 2.283067 1_565
O0 Sb1 2.547098 1_554
O1 Sb1 2.528768 1_555
O2 Sb0 2.507159 1_555
O3 Sb0 2.454634 1_554
O4 Sb0 2.202875 1_554
O4 Sb1 2.216436 1_554
O5 Sb0 2.230470 1_555
O5 Sb1 2.280556 1_655
O6 Sb1 2.161866 1_555
O6 Sb0 2.243399 1_555
O7 Sb1 2.174551 1_554
O7 Sb0 2.248562 1_454
