# generated using pymatgen
data_Hf(Al2Fe)4
_symmetry_space_group_name_H-M   'P 1'
_cell_length_a   4.99007900
_cell_length_b   6.55281815
_cell_length_c   6.55281815
_cell_angle_alpha   81.66406552
_cell_angle_beta   67.61934710
_cell_angle_gamma   67.61934710
_symmetry_Int_Tables_number   1
_chemical_formula_structural   Hf(Al2Fe)4
_chemical_formula_sum   'Hf1 Al8 Fe4'
_cell_volume   183.20678897
_cell_formula_units_Z   1
loop_
 _symmetry_equiv_pos_site_id
 _symmetry_equiv_pos_as_xyz
  1  'x, y, z'
loop_
 _atom_site_type_symbol
 _atom_site_label
 _atom_site_symmetry_multiplicity
 _atom_site_fract_x
 _atom_site_fract_y
 _atom_site_fract_z
 _atom_site_occupancy
  Hf  Hf0  1  0.00000000  0.00000000  0.00000000  1
  Al  Al0  1  0.00000000  0.33733200  0.66266800  1
  Al  Al1  1  0.00000000  0.66266800  0.33733200  1
  Al  Al2  1  0.66266800  0.33733200  0.33733200  1
  Al  Al3  1  0.33733200  0.66266800  0.66266800  1
  Al  Al4  1  0.50000000  0.78296500  0.21703500  1
  Al  Al5  1  0.50000000  0.21703500  0.78296500  1
  Al  Al6  1  0.71703500  0.78296500  0.78296500  1
  Al  Al7  1  0.28296500  0.21703500  0.21703500  1
  Fe  Fe0  1  0.00000000  0.00000000  0.50000000  1
  Fe  Fe1  1  0.50000000  0.00000000  0.50000000  1
  Fe  Fe2  1  0.50000000  0.50000000  0.00000000  1
  Fe  Fe3  1  0.00000000  0.50000000  0.00000000  1
loop_
_geom_bond_atom_site_label_1
_geom_bond_atom_site_label_2
_geom_bond_distance
_geom_bond_site_symmetry_2
Al0 Fe0 2.589519 1_555
Al0 Fe3 2.589519 1_556
Al0 Fe1 2.589520 1_555
Al0 Fe2 2.589520 1_456
Al0 Al5 2.699598 1_555
Al0 Al5 2.699598 1_455
Al0 Al1 2.787817 1_555
Al0 Al6 2.796844 1_455
Al0 Al7 2.796844 1_555
Al0 Hf0 2.890611 1_556
Al1 Fe3 2.589519 1_555
Al1 Fe0 2.589519 1_565
Al1 Fe2 2.589520 1_555
Al1 Fe1 2.589520 1_465
Al1 Al4 2.699598 1_555
Al1 Al4 2.699598 1_455
Al1 Al6 2.796844 1_455
Al1 Al7 2.796844 1_555
Al1 Hf0 2.890611 1_565
Al2 Fe2 2.589519 1_555
Al2 Fe1 2.589519 1_555
Al2 Fe3 2.589519 1_655
Al2 Fe0 2.589519 1_655
Al2 Al7 2.699598 1_555
Al2 Al7 2.699599 1_655
Al2 Al3 2.787817 1_555
Al2 Al4 2.796844 1_555
Al2 Al5 2.796844 1_555
Al2 Hf0 2.890611 1_655
Al3 Fe1 2.589519 1_565
Al3 Fe2 2.589519 1_556
Al3 Fe3 2.589519 1_556
Al3 Fe0 2.589519 1_565
Al3 Al6 2.699598 1_555
Al3 Al6 2.699599 1_455
Al3 Al5 2.796844 1_555
Al3 Al4 2.796844 1_555
Al3 Hf0 2.890611 1_566
Al4 Fe2 2.495070 1_555
Al4 Fe1 2.495070 1_565
Al4 Fe3 2.495070 1_655
Al4 Fe0 2.495070 1_565
Al4 Al7 2.630128 1_565
Al4 Al6 2.630128 1_554
Al4 Hf0 3.111914 1_565
Al4 Hf0 3.111914 1_665
Al5 Fe1 2.495070 1_555
Al5 Fe2 2.495070 1_556
Al5 Fe0 2.495070 1_655
Al5 Fe3 2.495070 1_556
Al5 Al7 2.630128 1_556
Al5 Al6 2.630128 1_545
Al5 Hf0 3.111914 1_556
Al5 Hf0 3.111914 1_656
Al6 Fe1 2.495070 1_565
Al6 Fe2 2.495070 1_556
Al6 Fe3 2.495070 1_656
Al6 Fe0 2.495070 1_665
Al6 Hf0 3.111914 1_666
Al6 Hf0 3.111914 1_566
Al7 Fe1 2.495070 1_555
Al7 Fe2 2.495070 1_555
Al7 Fe3 2.495070 1_555
Al7 Fe0 2.495070 1_555
Al7 Hf0 3.111914 1_555
Al7 Hf0 3.111914 1_655
Fe0 Fe1 2.495039 1_555
Fe0 Fe1 2.495039 1_455
Fe0 Hf0 3.276409 1_555
Fe0 Hf0 3.276409 1_556
Fe1 Hf0 3.276409 1_655
Fe1 Hf0 3.276409 1_556
Fe2 Fe3 2.495039 1_555
Fe2 Fe3 2.495039 1_655
Fe2 Hf0 3.276409 1_565
Fe2 Hf0 3.276409 1_655
Fe3 Hf0 3.276409 1_565
Fe3 Hf0 3.276409 1_555
