# generated using pymatgen
data_Eu(ZnGe)2
_symmetry_space_group_name_H-M   'P 1'
_cell_length_a   4.31729603
_cell_length_b   4.31729603
_cell_length_c   10.51005343
_cell_angle_alpha   90.00000000
_cell_angle_beta   90.00000000
_cell_angle_gamma   90.00000000
_symmetry_Int_Tables_number   1
_chemical_formula_structural   Eu(ZnGe)2
_chemical_formula_sum   'Eu2 Zn4 Ge4'
_cell_volume   195.89735895
_cell_formula_units_Z   2
loop_
 _symmetry_equiv_pos_site_id
 _symmetry_equiv_pos_as_xyz
  1  'x, y, z'
loop_
 _atom_site_type_symbol
 _atom_site_label
 _atom_site_symmetry_multiplicity
 _atom_site_fract_x
 _atom_site_fract_y
 _atom_site_fract_z
 _atom_site_occupancy
  Eu  Eu0  1  0.75000000  0.75000000  0.24967014  1
  Eu  Eu1  1  0.25000000  0.25000000  0.75032986  1
  Zn  Zn0  1  0.25000000  0.75000000  0.50000000  1
  Zn  Zn1  1  0.75000000  0.25000000  0.50000000  1
  Zn  Zn2  1  0.25000000  0.25000000  0.13296277  1
  Zn  Zn3  1  0.75000000  0.75000000  0.86703723  1
  Ge  Ge0  1  0.75000000  0.25000000  0.00000000  1
  Ge  Ge1  1  0.25000000  0.75000000  0.00000000  1
  Ge  Ge2  1  0.25000000  0.25000000  0.36520899  1
  Ge  Ge3  1  0.75000000  0.75000000  0.63479101  1
loop_
_geom_bond_atom_site_label_1
_geom_bond_atom_site_label_2
_geom_bond_distance
_geom_bond_site_symmetry_2
Eu0 Ge2 3.285437 1_565
Eu0 Ge2 3.285437 1_655
Eu0 Ge2 3.285437 1_555
Eu0 Ge2 3.285437 1_665
Eu0 Zn2 3.289996 1_565
Eu0 Zn2 3.289996 1_655
Eu0 Zn2 3.289996 1_665
Eu0 Zn2 3.289996 1_555
Eu0 Ge0 3.397850 1_565
Eu0 Ge1 3.397850 1_555
Eu0 Ge1 3.397850 1_655
Eu0 Ge0 3.397850 1_555
Eu0 Zn0 3.403207 1_655
Eu0 Zn0 3.403207 1_555
Eu0 Zn1 3.403207 1_565
Eu0 Zn1 3.403207 1_555
Eu1 Ge3 3.285437 1_545
Eu1 Ge3 3.285437 1_555
Eu1 Ge3 3.285437 1_455
Eu1 Ge3 3.285437 1_445
Eu1 Zn3 3.289996 1_545
Eu1 Zn3 3.289996 1_445
Eu1 Zn3 3.289996 1_555
Eu1 Zn3 3.289996 1_455
Eu1 Ge0 3.397850 1_456
Eu1 Ge0 3.397850 1_556
Eu1 Ge1 3.397850 1_556
Eu1 Ge1 3.397850 1_546
Eu1 Zn0 3.403207 1_555
Eu1 Zn0 3.403207 1_545
Eu1 Zn1 3.403207 1_455
Eu1 Zn1 3.403207 1_555
Ge0 Zn3 2.571501 1_544
Ge0 Zn2 2.571501 1_555
Ge0 Zn3 2.571501 1_554
Ge0 Zn2 2.571501 1_655
Ge1 Zn3 2.571501 1_454
Ge1 Zn2 2.571501 1_555
Ge1 Zn3 2.571501 1_554
Ge1 Zn2 2.571501 1_565
Ge2 Zn2 2.440920 1_555
Ge2 Zn0 2.581993 1_555
Ge2 Zn0 2.581993 1_545
Ge2 Zn1 2.581993 1_455
Ge2 Zn1 2.581993 1_555
Ge3 Zn3 2.440920 1_555
Ge3 Zn0 2.581993 1_655
Ge3 Zn0 2.581993 1_555
Ge3 Zn1 2.581993 1_565
Ge3 Zn1 2.581993 1_555
