# generated using pymatgen
data_Mn4Hg3Au
_symmetry_space_group_name_H-M   'P 1'
_cell_length_a   3.23101300
_cell_length_b   4.68270000
_cell_length_c   9.54078200
_cell_angle_alpha   90.00000000
_cell_angle_beta   90.00000000
_cell_angle_gamma   90.00000000
_symmetry_Int_Tables_number   1
_chemical_formula_structural   Mn4Hg3Au
_chemical_formula_sum   'Mn4 Hg3 Au1'
_cell_volume   144.35073960
_cell_formula_units_Z   1
loop_
 _symmetry_equiv_pos_site_id
 _symmetry_equiv_pos_as_xyz
  1  'x, y, z'
loop_
 _atom_site_type_symbol
 _atom_site_label
 _atom_site_symmetry_multiplicity
 _atom_site_fract_x
 _atom_site_fract_y
 _atom_site_fract_z
 _atom_site_occupancy
  Mn  Mn0  1  0.50000000  0.50000000  0.11280700  1
  Mn  Mn1  1  0.50000000  0.50000000  0.59322100  1
  Mn  Mn2  1  0.50000000  0.00000000  0.39356900  1
  Mn  Mn3  1  0.50000000  0.00000000  0.89792100  1
  Hg  Hg0  1  0.00000000  0.50000000  0.85619900  1
  Hg  Hg1  1  0.00000000  0.00000000  0.14631400  1
  Hg  Hg2  1  0.00000000  0.00000000  0.64565600  1
  Au  Au0  1  0.00000000  0.50000000  0.35431200  1
loop_
_geom_bond_atom_site_label_1
_geom_bond_atom_site_label_2
_geom_bond_distance
_geom_bond_site_symmetry_2
Hg0 Mn3 2.872322 1_455
Hg0 Mn3 2.872322 1_555
Hg0 Mn3 2.872322 1_465
Hg0 Mn3 2.872322 1_565
Hg0 Mn0 2.933214 1_556
Hg0 Mn0 2.933214 1_456
Hg0 Mn1 2.984128 1_455
Hg0 Mn1 2.984128 1_555
Hg1 Mn2 2.859156 1_555
Hg1 Mn2 2.859156 1_455
Hg1 Mn0 2.862513 1_455
Hg1 Mn0 2.862513 1_555
Hg1 Mn0 2.862513 1_445
Hg1 Mn0 2.862513 1_545
Hg1 Mn3 2.868120 1_554
Hg1 Mn3 2.868120 1_454
Hg2 Mn1 2.888261 1_455
Hg2 Mn1 2.888261 1_545
Hg2 Mn1 2.888261 1_555
Hg2 Mn1 2.888261 1_445
Hg2 Mn2 2.897309 1_555
Hg2 Mn2 2.897309 1_455
Hg2 Mn3 2.898719 1_455
Hg2 Mn3 2.898719 1_555
Au0 Mn1 2.793820 1_555
Au0 Mn1 2.793820 1_455
Au0 Mn0 2.814063 1_555
Au0 Mn0 2.814063 1_455
Au0 Mn2 2.869157 1_455
Au0 Mn2 2.869157 1_555
Au0 Mn2 2.869157 1_465
Au0 Mn2 2.869157 1_565
Au0 Hg1 3.069204 1_565
Au0 Hg1 3.069204 1_555
