# generated using pymatgen
data_Tb3Mg
_symmetry_space_group_name_H-M   'P 1'
_cell_length_a   7.04817954
_cell_length_b   7.04817954
_cell_length_c   5.53479559
_cell_angle_alpha   90.00000000
_cell_angle_beta   90.00000000
_cell_angle_gamma   120.00000428
_symmetry_Int_Tables_number   1
_chemical_formula_structural   Tb3Mg
_chemical_formula_sum   'Tb6 Mg2'
_cell_volume   238.11464965
_cell_formula_units_Z   2
loop_
 _symmetry_equiv_pos_site_id
 _symmetry_equiv_pos_as_xyz
  1  'x, y, z'
loop_
 _atom_site_type_symbol
 _atom_site_label
 _atom_site_symmetry_multiplicity
 _atom_site_fract_x
 _atom_site_fract_y
 _atom_site_fract_z
 _atom_site_occupancy
  Tb  Tb0  1  0.17092520  0.34185039  0.25000000  1
  Tb  Tb1  1  0.65814961  0.82907480  0.25000000  1
  Tb  Tb2  1  0.17092520  0.82907480  0.25000000  1
  Tb  Tb3  1  0.82907480  0.17092520  0.75000000  1
  Tb  Tb4  1  0.34185039  0.17092520  0.75000000  1
  Tb  Tb5  1  0.82907480  0.65814961  0.75000000  1
  Mg  Mg0  1  0.66666700  0.33333300  0.25000000  1
  Mg  Mg1  1  0.33333300  0.66666700  0.75000000  1
loop_
_geom_bond_atom_site_label_1
_geom_bond_atom_site_label_2
_geom_bond_distance
_geom_bond_site_symmetry_2
Tb0 Tb1 3.434045 1_555
Tb0 Tb2 3.434045 1_555
Tb0 Tb3 3.465902 1_454
Tb0 Tb3 3.465902 1_455
Tb0 Tb4 3.465902 1_555
Tb0 Tb4 3.465902 1_554
Tb0 Tb1 3.614134 1_445
Tb0 Tb2 3.614134 1_545
Tb1 Tb2 3.434045 1_555
Tb1 Tb3 3.465902 1_564
Tb1 Tb3 3.465902 1_565
Tb1 Tb5 3.465902 1_554
Tb1 Tb5 3.465902 1_555
Tb1 Tb2 3.614134 1_655
Tb2 Tb4 3.465902 1_565
Tb2 Tb5 3.465902 1_455
Tb2 Tb5 3.465902 1_454
Tb2 Tb4 3.465902 1_564
Tb3 Tb4 3.434045 1_555
Tb3 Tb5 3.434045 1_555
Tb3 Tb5 3.614134 1_545
Tb3 Tb4 3.614134 1_655
Tb4 Tb5 3.434045 1_555
Tb4 Tb5 3.614134 1_445
Mg0 Tb3 3.404315 1_555
Mg0 Tb3 3.404315 1_554
Mg0 Tb5 3.404319 1_555
Mg0 Tb4 3.404319 1_555
Mg0 Tb4 3.404319 1_554
Mg0 Tb5 3.404319 1_554
Mg0 Tb1 3.524470 1_545
Mg0 Tb0 3.524470 1_655
Mg0 Tb2 3.524473 1_545
Mg0 Tb2 3.524473 1_655
Mg0 Tb1 3.524477 1_555
Mg0 Tb0 3.524477 1_555
Mg1 Tb2 3.404315 1_555
Mg1 Tb2 3.404315 1_556
Mg1 Tb0 3.404319 1_555
Mg1 Tb0 3.404319 1_556
Mg1 Tb1 3.404319 1_555
Mg1 Tb1 3.404319 1_556
Mg1 Tb5 3.524470 1_455
Mg1 Tb4 3.524470 1_565
Mg1 Tb3 3.524473 1_455
Mg1 Tb3 3.524473 1_565
Mg1 Tb5 3.524477 1_555
Mg1 Tb4 3.524477 1_555
