# generated using pymatgen
data_SrMg14Mo
_symmetry_space_group_name_H-M   'P 1'
_cell_length_a   6.50129548
_cell_length_b   6.47468377
_cell_length_c   10.32670778
_cell_angle_alpha   90.00000000
_cell_angle_beta   90.00000000
_cell_angle_gamma   119.86469260
_symmetry_Int_Tables_number   1
_chemical_formula_structural   SrMg14Mo
_chemical_formula_sum   'Sr1 Mg14 Mo1'
_cell_volume   376.96541790
_cell_formula_units_Z   1
loop_
 _symmetry_equiv_pos_site_id
 _symmetry_equiv_pos_as_xyz
  1  'x, y, z'
loop_
 _atom_site_type_symbol
 _atom_site_label
 _atom_site_symmetry_multiplicity
 _atom_site_fract_x
 _atom_site_fract_y
 _atom_site_fract_z
 _atom_site_occupancy
  Sr  Sr0  1  0.15970040  0.32984970  0.12500000  1
  Mg  Mg0  1  0.16967856  0.33483878  0.62500000  1
  Mg  Mg1  1  0.16397948  0.83198924  0.62500000  1
  Mg  Mg2  1  0.65707284  0.32184709  0.12500000  1
  Mg  Mg3  1  0.66496724  0.33741651  0.62500000  1
  Mg  Mg4  1  0.65707284  0.83522475  0.12500000  1
  Mg  Mg5  1  0.66496724  0.82754973  0.62500000  1
  Mg  Mg6  1  0.33401303  0.15321983  0.37802751  1
  Mg  Mg7  1  0.33401303  0.15321983  0.87197249  1
  Mg  Mg8  1  0.33401303  0.68079419  0.37802751  1
  Mg  Mg9  1  0.33401303  0.68079419  0.87197249  1
  Mg  Mg10  1  0.82419136  0.16209618  0.39091026  1
  Mg  Mg11  1  0.82419136  0.16209618  0.85908974  1
  Mg  Mg12  1  0.84634346  0.67317223  0.35924349  1
  Mg  Mg13  1  0.84634346  0.67317223  0.89075651  1
  Mo  Mo0  1  0.18543966  0.84271933  0.12500000  1
loop_
_geom_bond_atom_site_label_1
_geom_bond_atom_site_label_2
_geom_bond_distance
_geom_bond_site_symmetry_2
Mg0 Mg10 3.104478 1_455
Mg0 Mg11 3.104478 1_455
Mg0 Mg6 3.206253 1_555
Mg0 Mg7 3.206253 1_555
Mg0 Mg9 3.206260 1_555
Mg0 Mg8 3.206260 1_555
Mg0 Mg5 3.211740 1_555
Mg0 Mg3 3.211740 1_555
Mg0 Mg1 3.237501 1_545
Mg0 Mg1 3.237501 1_555
Mg0 Mg5 3.289620 1_445
Mg0 Mg3 3.289620 1_455
Mg1 Mg8 3.124524 1_555
Mg1 Mg9 3.124524 1_555
Mg1 Mg6 3.124530 1_565
Mg1 Mg7 3.124530 1_565
Mg1 Mg3 3.230009 1_455
Mg1 Mg5 3.230009 1_455
Mg1 Mg3 3.271478 1_565
Mg1 Mg5 3.271478 1_555
Mg1 Mg12 3.276995 1_455
Mg1 Mg13 3.276995 1_455
Mg2 Mo0 3.090676 1_545
Mg2 Mg4 3.150726 1_545
Mg2 Mg7 3.185444 1_554
Mg2 Mg6 3.185444 1_555
Mg2 Sr0 3.242241 1_655
Mg2 Sr0 3.259676 1_555
Mg2 Mg4 3.323958 1_555
Mg2 Mo0 3.411165 1_655
Mg3 Mg7 3.162418 1_555
Mg3 Mg6 3.162418 1_555
Mg3 Mg5 3.173458 1_555
Mg3 Mg5 3.301226 1_545
Mg4 Mo0 3.090676 1_555
Mg4 Mg9 3.185444 1_554
Mg4 Mg8 3.185444 1_555
Mg4 Sr0 3.242240 1_665
Mg4 Sr0 3.259676 1_555
Mg4 Mo0 3.411165 1_655
Mg5 Mg9 3.162419 1_555
Mg5 Mg8 3.162419 1_555
Mg6 Mg8 3.058807 1_545
Mg6 Mo0 3.141371 1_545
Mg6 Sr0 3.272663 1_555
Mg6 Mg8 3.415877 1_555
Mg7 Mg9 3.058807 1_545
Mg7 Mo0 3.141371 1_546
Mg7 Sr0 3.272663 1_556
Mg7 Mg9 3.415877 1_555
Mg8 Mo0 3.141365 1_555
Mg8 Sr0 3.272669 1_555
Mg9 Mo0 3.141365 1_556
Mg9 Sr0 3.272669 1_556
Mg10 Mg3 3.061711 1_555
Mg10 Mg5 3.061717 1_545
Mg10 Mg8 3.161369 1_545
Mg10 Mg6 3.161370 1_555
Mg10 Mg12 3.256212 1_555
Mg10 Mg12 3.256212 1_545
Mg10 Mg2 3.303013 1_555
Mg10 Mg4 3.303019 1_545
Mg10 Sr0 3.334438 1_655
Mg10 Mg8 3.346136 1_655
Mg10 Mg6 3.346137 1_655
Mg11 Mg3 3.061711 1_555
Mg11 Mg5 3.061717 1_545
Mg11 Mg9 3.161369 1_545
Mg11 Mg7 3.161370 1_555
Mg11 Mg13 3.256212 1_555
Mg11 Mg13 3.256212 1_545
Mg11 Mg2 3.303013 1_556
Mg11 Mg4 3.303019 1_546
Mg11 Sr0 3.334438 1_656
Mg11 Mg9 3.346136 1_655
Mg11 Mg7 3.346137 1_655
Mg12 Mo0 3.083244 1_655
Mg12 Mg4 3.122857 1_555
Mg12 Mg2 3.122864 1_555
Mg12 Mg6 3.152175 1_665
Mg12 Mg8 3.152175 1_655
Mg12 Mg5 3.330924 1_555
Mg12 Mg3 3.330930 1_555
Mg12 Mg6 3.361260 1_555
Mg12 Mg8 3.361260 1_555
Mg13 Mo0 3.083244 1_656
Mg13 Mg4 3.122857 1_556
Mg13 Mg2 3.122864 1_556
Mg13 Mg7 3.152175 1_665
Mg13 Mg9 3.152175 1_655
Mg13 Mg5 3.330924 1_555
Mg13 Mg3 3.330930 1_555
Mg13 Mg7 3.361260 1_555
Mg13 Mg9 3.361260 1_555
Mo0 Sr0 3.240593 1_555
Mo0 Sr0 3.240593 1_565
