# generated using pymatgen
data_K2Pt(C2O5)2
_symmetry_space_group_name_H-M   'P 1'
_cell_length_a   14.12207000
_cell_length_b   6.07761100
_cell_length_c   6.63815119
_cell_angle_alpha   68.74811533
_cell_angle_beta   90.00000000
_cell_angle_gamma   90.00000000
_symmetry_Int_Tables_number   1
_chemical_formula_structural   K2Pt(C2O5)2
_chemical_formula_sum   'K4 Pt2 C8 O20'
_cell_volume   530.99743394
_cell_formula_units_Z   2
loop_
 _symmetry_equiv_pos_site_id
 _symmetry_equiv_pos_as_xyz
  1  'x, y, z'
loop_
 _atom_site_type_symbol
 _atom_site_label
 _atom_site_symmetry_multiplicity
 _atom_site_fract_x
 _atom_site_fract_y
 _atom_site_fract_z
 _atom_site_occupancy
  K  K0  1  0.34949900  0.49059800  0.44792100  1
  K  K1  1  0.15050100  0.99059800  0.44792100  1
  K  K2  1  0.65050100  0.50940200  0.55207900  1
  K  K3  1  0.84949900  0.00940200  0.55207900  1
  Pt  Pt0  1  0.50000000  0.50000000  0.00000000  1
  Pt  Pt1  1  0.00000000  0.00000000  0.00000000  1
  C  C0  1  0.38723900  0.87318100  0.73051000  1
  C  C1  1  0.11276100  0.37318100  0.73051000  1
  C  C2  1  0.61276100  0.12681900  0.26949000  1
  C  C3  1  0.88723900  0.62681900  0.26949000  1
  C  C4  1  0.48545800  0.98231300  0.74515600  1
  C  C5  1  0.01454200  0.48231300  0.74515600  1
  C  C6  1  0.51454200  0.01768700  0.25484400  1
  C  C7  1  0.98545800  0.51768700  0.25484400  1
  O  O0  1  0.38263300  0.64380500  0.83228900  1
  O  O1  1  0.11736700  0.14380500  0.83228900  1
  O  O2  1  0.61736700  0.35619500  0.16771100  1
  O  O3  1  0.88263300  0.85619500  0.16771100  1
  O  O4  1  0.32295400  0.99667500  0.62239300  1
  O  O5  1  0.17704600  0.49667500  0.62239300  1
  O  O6  1  0.67704600  0.00332500  0.37760700  1
  O  O7  1  0.82295400  0.50332500  0.37760700  1
  O  O8  1  0.54716700  0.83195600  0.86565500  1
  O  O9  1  0.95283300  0.33195600  0.86565500  1
  O  O10  1  0.45283300  0.16804400  0.13434500  1
  O  O11  1  0.04716700  0.66804400  0.13434500  1
  O  O12  1  0.50173300  0.19279400  0.64125300  1
  O  O13  1  0.99826700  0.69279400  0.64125300  1
  O  O14  1  0.49826700  0.80720600  0.35874700  1
  O  O15  1  0.00173300  0.30720600  0.35874700  1
  O  O16  1  0.22282100  0.42827600  0.13989300  1
  O  O17  1  0.27717900  0.92827600  0.13989300  1
  O  O18  1  0.77717900  0.57172400  0.86010700  1
  O  O19  1  0.72282100  0.07172400  0.86010700  1
loop_
_geom_bond_atom_site_label_1
_geom_bond_atom_site_label_2
_geom_bond_distance
_geom_bond_site_symmetry_2
K0 O5 2.702753 1_555
K0 O14 2.764259 1_555
K0 O12 2.803730 1_555
K0 O4 2.823605 1_545
K0 O16 2.843629 1_555
K0 O17 2.890817 1_555
K0 O0 3.052600 1_555
K1 O4 2.702753 1_555
K1 O15 2.764259 1_565
K1 O13 2.803730 1_455
K1 O5 2.823605 1_555
K1 O17 2.843629 1_555
K1 O16 2.890817 1_565
K1 O1 3.052600 1_565
K2 O7 2.702753 1_555
K2 O12 2.764259 1_555
K2 O14 2.803730 1_555
K2 O6 2.823605 1_565
K2 O18 2.843629 1_555
K2 O19 2.890817 1_555
K2 O2 3.052600 1_555
K3 O6 2.702753 1_555
K3 O13 2.764259 1_545
K3 O15 2.803730 1_655
K3 O7 2.823605 1_555
K3 O19 2.843629 1_555
K3 O18 2.890817 1_545
K3 O3 3.052600 1_545
C0 O4 1.229667 1_555
C0 O0 1.311986 1_555
C1 O5 1.229667 1_555
C1 O1 1.311986 1_555
C2 O6 1.229667 1_555
C2 O2 1.311986 1_555
C3 O7 1.229667 1_555
C3 O3 1.311986 1_555
C4 O12 1.235044 1_565
C4 O8 1.305536 1_555
C5 O13 1.235044 1_455
C5 O9 1.305536 1_455
C6 O14 1.235044 1_545
C6 O10 1.305536 1_555
C7 O15 1.235044 1_655
C7 O11 1.305536 1_655
O0 Pt0 2.011243 1_556
O1 Pt1 2.011243 1_556
O2 Pt0 2.011243 1_555
O3 Pt1 2.011243 1_665
O8 Pt0 2.001246 1_556
O9 Pt1 2.001246 1_656
O10 Pt0 2.001246 1_555
O11 Pt1 2.001246 1_565
