# generated using pymatgen
data_GdSnF7
_symmetry_space_group_name_H-M   'P 1'
_cell_length_a   5.61365311
_cell_length_b   8.98910672
_cell_length_c   12.10278659
_cell_angle_alpha   62.20704726
_cell_angle_beta   90.00000000
_cell_angle_gamma   90.00000000
_symmetry_Int_Tables_number   1
_chemical_formula_structural   GdSnF7
_chemical_formula_sum   'Gd4 Sn4 F28'
_cell_volume   540.27296771
_cell_formula_units_Z   4
loop_
 _symmetry_equiv_pos_site_id
 _symmetry_equiv_pos_as_xyz
  1  'x, y, z'
loop_
 _atom_site_type_symbol
 _atom_site_label
 _atom_site_symmetry_multiplicity
 _atom_site_fract_x
 _atom_site_fract_y
 _atom_site_fract_z
 _atom_site_occupancy
  Gd  Gd0  1  0.75850995  0.81279760  0.26527688  1
  Gd  Gd1  1  0.25850995  0.18720240  0.23472312  1
  Gd  Gd2  1  0.24149005  0.18720240  0.73472312  1
  Gd  Gd3  1  0.74149005  0.81279760  0.76527688  1
  Sn  Sn0  1  0.24437231  0.72741354  0.54309448  1
  Sn  Sn1  1  0.74437231  0.27258646  0.95690552  1
  Sn  Sn2  1  0.75562769  0.27258646  0.45690552  1
  Sn  Sn3  1  0.25562769  0.72741354  0.04309448  1
  F  F0  1  0.94939072  0.71775993  0.45640253  1
  F  F1  1  0.44939072  0.28224007  0.04359747  1
  F  F2  1  0.05060928  0.28224007  0.54359747  1
  F  F3  1  0.55060928  0.71775993  0.95640253  1
  F  F4  1  0.05058952  0.71026436  0.91708571  1
  F  F5  1  0.55058952  0.28973564  0.58291429  1
  F  F6  1  0.94941048  0.28973564  0.08291429  1
  F  F7  1  0.44941048  0.71026436  0.41708571  1
  F  F8  1  0.73132860  0.51944422  0.85960292  1
  F  F9  1  0.23132860  0.48055578  0.64039708  1
  F  F10  1  0.26867140  0.48055578  0.14039708  1
  F  F11  1  0.76867140  0.51944422  0.35960292  1
  F  F12  1  0.73917825  0.02515798  0.05355095  1
  F  F13  1  0.23917825  0.97484202  0.44644905  1
  F  F14  1  0.26082175  0.97484202  0.94644905  1
  F  F15  1  0.76082175  0.02515798  0.55355095  1
  F  F16  1  0.04795983  0.74364885  0.67293831  1
  F  F17  1  0.54795983  0.25635115  0.82706169  1
  F  F18  1  0.95204017  0.25635115  0.32706169  1
  F  F19  1  0.45204017  0.74364885  0.17293831  1
  F  F20  1  0.02734251  0.27098198  0.86057101  1
  F  F21  1  0.52734251  0.72901802  0.63942899  1
  F  F22  1  0.97265749  0.72901802  0.13942899  1
  F  F23  1  0.47265749  0.27098198  0.36057101  1
  F  F24  1  0.09224971  0.96489339  0.23224714  1
  F  F25  1  0.59224971  0.03510661  0.26775286  1
  F  F26  1  0.90775029  0.03510661  0.76775286  1
  F  F27  1  0.40775029  0.96489339  0.73224714  1
loop_
_geom_bond_atom_site_label_1
_geom_bond_atom_site_label_2
_geom_bond_distance
_geom_bond_site_symmetry_2
F0 Sn0 1.983778 1_655
F0 Gd0 2.320743 1_555
F1 Sn1 1.983778 1_554
F1 Gd1 2.320743 1_555
F2 Sn2 1.983778 1_455
F2 Gd2 2.320743 1_555
F3 Sn3 1.983778 1_556
F3 Gd3 2.320743 1_555
F4 Sn3 1.973230 1_556
F4 Gd3 2.378411 1_455
F5 Sn2 1.973230 1_555
F5 Gd2 2.378411 1_555
F6 Sn1 1.973230 1_554
F6 Gd1 2.378411 1_655
F7 Sn0 1.973230 1_555
F7 Gd0 2.378411 1_555
F8 Sn1 1.969599 1_555
F8 Gd3 2.335132 1_555
F9 Sn0 1.969599 1_555
F9 Gd2 2.335132 1_555
F10 Sn3 1.969599 1_555
F10 Gd1 2.335132 1_555
F11 Sn2 1.969599 1_555
F11 Gd0 2.335132 1_555
F12 Sn1 1.972257 1_554
F12 Gd0 2.379157 1_545
F13 Sn0 1.972257 1_555
F13 Gd1 2.379157 1_565
F14 Sn3 1.972257 1_556
F14 Gd2 2.379157 1_565
F15 Sn2 1.972257 1_555
F15 Gd3 2.379157 1_545
F16 Sn0 1.980001 1_555
F16 Gd3 2.289744 1_455
F17 Sn1 1.980001 1_555
F17 Gd2 2.289744 1_555
F18 Sn2 1.980001 1_555
F18 Gd1 2.289744 1_655
F19 Sn3 1.980001 1_555
F19 Gd0 2.289744 1_555
F20 Sn1 1.974480 1_455
F20 Gd2 2.324197 1_555
F21 Sn0 1.974480 1_555
F21 Gd3 2.324197 1_555
F22 Sn3 1.974480 1_655
F22 Gd0 2.324197 1_555
F23 Sn2 1.974480 1_555
F23 Gd1 2.324197 1_555
F24 Gd1 2.218396 1_565
F24 Gd0 2.242626 1_455
F25 Gd0 2.218396 1_545
F25 Gd1 2.242626 1_555
F26 Gd3 2.218396 1_545
F26 Gd2 2.242626 1_655
F27 Gd2 2.218396 1_565
F27 Gd3 2.242626 1_555
