# generated using pymatgen
data_Li9Mn2Co5O16
_symmetry_space_group_name_H-M   'P 1'
_cell_length_a   5.84784800
_cell_length_b   5.09874500
_cell_length_c   9.77937967
_cell_angle_alpha   80.34389582
_cell_angle_beta   90.00000000
_cell_angle_gamma   90.00000000
_symmetry_Int_Tables_number   1
_chemical_formula_structural   Li9Mn2Co5O16
_chemical_formula_sum   'Li9 Mn2 Co5 O16'
_cell_volume   287.45753885
_cell_formula_units_Z   1
loop_
 _symmetry_equiv_pos_site_id
 _symmetry_equiv_pos_as_xyz
  1  'x, y, z'
loop_
 _atom_site_type_symbol
 _atom_site_label
 _atom_site_symmetry_multiplicity
 _atom_site_fract_x
 _atom_site_fract_y
 _atom_site_fract_z
 _atom_site_occupancy
  Li  Li0  1  0.50000000  0.25877700  0.73976600  1
  Li  Li1  1  0.50000000  0.74122300  0.26023400  1
  Li  Li2  1  0.75498500  0.75730600  0.73137100  1
  Li  Li3  1  0.75498500  0.24269400  0.26862900  1
  Li  Li4  1  0.00000000  0.24471000  0.73504800  1
  Li  Li5  1  0.00000000  0.75529000  0.26495200  1
  Li  Li6  1  0.24501500  0.75730600  0.73137100  1
  Li  Li7  1  0.24501500  0.24269400  0.26862900  1
  Li  Li8  1  0.00000000  0.00000000  0.50000000  1
  Mn  Mn0  1  0.25248700  0.00000000  0.00000000  1
  Mn  Mn1  1  0.74751300  0.00000000  0.00000000  1
  Co  Co0  1  0.24254300  0.50000000  0.50000000  1
  Co  Co1  1  0.50000000  0.50000000  0.00000000  1
  Co  Co2  1  0.50000000  0.00000000  0.50000000  1
  Co  Co3  1  0.75745700  0.50000000  0.50000000  1
  Co  Co4  1  0.00000000  0.50000000  0.00000000  1
  O  O0  1  0.50000000  0.89593700  0.88654200  1
  O  O1  1  0.50000000  0.35083500  0.38436500  1
  O  O2  1  0.73651200  0.35925100  0.89383000  1
  O  O3  1  0.72834500  0.86505300  0.39180300  1
  O  O4  1  0.00000000  0.90329500  0.88543500  1
  O  O5  1  0.00000000  0.39565700  0.37637700  1
  O  O6  1  0.26348800  0.35925100  0.89383000  1
  O  O7  1  0.27165500  0.86505300  0.39180300  1
  O  O8  1  0.50000000  0.64916500  0.61563500  1
  O  O9  1  0.50000000  0.10406300  0.11345800  1
  O  O10  1  0.72834500  0.13494700  0.60819700  1
  O  O11  1  0.73651200  0.64074900  0.10617000  1
  O  O12  1  0.00000000  0.60434300  0.62362300  1
  O  O13  1  0.00000000  0.09670500  0.11456500  1
  O  O14  1  0.27165500  0.13494700  0.60819700  1
  O  O15  1  0.26348800  0.64074900  0.10617000  1
loop_
_geom_bond_atom_site_label_1
_geom_bond_atom_site_label_2
_geom_bond_distance
_geom_bond_site_symmetry_2
Li0 O14 2.027255 1_555
Li0 O10 2.027255 1_555
Li0 O0 2.142915 1_545
Li0 O8 2.150596 1_555
Li0 O6 2.168939 1_555
Li0 O2 2.168939 1_555
Li1 O3 2.027255 1_555
Li1 O7 2.027255 1_555
Li1 O9 2.142915 1_565
Li1 O1 2.150596 1_555
Li1 O11 2.168939 1_555
Li1 O15 2.168939 1_555
Li2 O8 2.004452 1_555
Li2 O12 2.011768 1_655
Li2 O10 2.098737 1_565
Li2 O4 2.291994 1_655
Li2 O0 2.320692 1_555
Li2 O2 2.360778 1_555
Li3 O1 2.004452 1_555
Li3 O5 2.011768 1_655
Li3 O3 2.098737 1_545
Li3 O13 2.291994 1_655
Li3 O9 2.320692 1_555
Li3 O11 2.360778 1_555
Li4 O12 1.969631 1_555
Li4 O4 2.081928 1_545
Li4 O14 2.146778 1_555
Li4 O10 2.146778 1_455
Li4 O6 2.330371 1_555
Li4 O2 2.330371 1_455
Li5 O5 1.969631 1_555
Li5 O13 2.081928 1_565
Li5 O7 2.146778 1_555
Li5 O3 2.146778 1_455
Li5 O15 2.330371 1_555
Li5 O11 2.330371 1_455
Li6 O8 2.004452 1_555
Li6 O12 2.011768 1_555
Li6 O14 2.098737 1_565
Li6 O4 2.291994 1_555
Li6 O0 2.320692 1_555
Li6 O6 2.360778 1_555
Li7 O1 2.004452 1_555
Li7 O5 2.011768 1_555
Li7 O7 2.098737 1_545
Li7 O13 2.291994 1_555
Li7 O9 2.320692 1_555
Li7 O15 2.360778 1_555
Li8 O7 2.088271 1_545
Li8 O10 2.088271 1_455
Li8 O3 2.088271 1_445
Li8 O14 2.088271 1_555
Li8 O12 2.170973 1_545
Li8 O5 2.170973 1_555
Mn0 O15 1.949200 1_545
Mn0 O6 1.949200 1_554
Mn0 O0 1.950677 1_544
Mn0 O9 1.950677 1_555
Mn0 O13 1.965643 1_555
Mn0 O4 1.965643 1_544
Mn1 O11 1.949200 1_545
Mn1 O2 1.949200 1_554
Mn1 O0 1.950677 1_544
Mn1 O9 1.950677 1_555
Mn1 O13 1.965643 1_655
Mn1 O4 1.965643 1_644
Co0 O14 1.988052 1_555
Co0 O7 1.988052 1_555
Co0 O5 1.993017 1_555
Co0 O12 1.993017 1_555
Co0 O1 2.100596 1_555
Co0 O8 2.100596 1_555
Co1 O11 1.938019 1_555
Co1 O2 1.938019 1_554
Co1 O15 1.938019 1_555
Co1 O6 1.938019 1_554
Co1 O0 2.134280 1_554
Co1 O9 2.134280 1_555
Co2 O3 1.902717 1_545
Co2 O14 1.902717 1_555
Co2 O7 1.902717 1_545
Co2 O10 1.902717 1_555
Co2 O1 1.949374 1_555
Co2 O8 1.949374 1_545
Co3 O10 1.988052 1_555
Co3 O3 1.988052 1_555
Co3 O5 1.993017 1_655
Co3 O12 1.993017 1_655
Co3 O1 2.100596 1_555
Co3 O8 2.100596 1_555
Co4 O15 2.053576 1_555
Co4 O6 2.053576 1_554
Co4 O2 2.053576 1_454
Co4 O11 2.053576 1_455
Co4 O4 2.170424 1_554
Co4 O13 2.170424 1_555
