# generated using pymatgen
data_Mg(BiO2)2
_symmetry_space_group_name_H-M   'P 1'
_cell_length_a   6.77568081
_cell_length_b   6.77568081
_cell_length_c   16.40486580
_cell_angle_alpha   88.85773801
_cell_angle_beta   88.85773801
_cell_angle_gamma   61.53916988
_symmetry_Int_Tables_number   1
_chemical_formula_structural   Mg(BiO2)2
_chemical_formula_sum   'Mg6 Bi12 O24'
_cell_volume   661.94395655
_cell_formula_units_Z   6
loop_
 _symmetry_equiv_pos_site_id
 _symmetry_equiv_pos_as_xyz
  1  'x, y, z'
loop_
 _atom_site_type_symbol
 _atom_site_label
 _atom_site_symmetry_multiplicity
 _atom_site_fract_x
 _atom_site_fract_y
 _atom_site_fract_z
 _atom_site_occupancy
  Mg  Mg0  1  0.33707300  0.33707300  0.03982800  1
  Mg  Mg1  1  0.66435700  0.66435700  0.33870900  1
  Mg  Mg2  1  0.83172600  0.83172600  0.18059500  1
  Mg  Mg3  1  0.33641200  0.33641200  0.66308900  1
  Mg  Mg4  1  0.49936300  0.49936300  0.50053200  1
  Mg  Mg5  1  0.16301900  0.16301900  0.82021800  1
  Bi  Bi0  1  0.83900200  0.34473000  0.16892600  1
  Bi  Bi1  1  0.00607200  0.00607200  0.37807700  1
  Bi  Bi2  1  0.99482800  0.99482800  0.00291500  1
  Bi  Bi3  1  0.34473000  0.83900200  0.16892600  1
  Bi  Bi4  1  0.50062400  0.00020500  0.50155400  1
  Bi  Bi5  1  0.66648000  0.66648000  0.71616400  1
  Bi  Bi6  1  0.00020500  0.50062400  0.50155400  1
  Bi  Bi7  1  0.15885800  0.65380300  0.83209600  1
  Bi  Bi8  1  0.33425000  0.33425000  0.28785200  1
  Bi  Bi9  1  0.65380300  0.15885800  0.83209600  1
  Bi  Bi10  1  0.99492000  0.99492000  0.61831300  1
  Bi  Bi11  1  0.64062700  0.64062700  0.96277900  1
  O  O0  1  0.66857400  0.16919300  0.08487800  1
  O  O1  1  0.98440300  0.98440300  0.24346900  1
  O  O2  1  0.16919300  0.66857400  0.08487800  1
  O  O3  1  0.16819600  0.16819600  0.07614400  1
  O  O4  1  0.37698800  0.79021500  0.42194600  1
  O  O5  1  0.52372700  0.52372700  0.25691700  1
  O  O6  1  0.65780900  0.65780900  0.58211300  1
  O  O7  1  0.53570800  0.95603100  0.25593800  1
  O  O8  1  0.79021500  0.37698800  0.42194600  1
  O  O9  1  0.69160900  0.69160900  0.10320200  1
  O  O10  1  0.82137800  0.82137800  0.41198500  1
  O  O11  1  0.95603100  0.53570800  0.25593800  1
  O  O12  1  0.04966200  0.46231800  0.74507900  1
  O  O13  1  0.18255500  0.18255500  0.58815900  1
  O  O14  1  0.21102000  0.61778500  0.58042100  1
  O  O15  1  0.46231800  0.04966200  0.74507900  1
  O  O16  1  0.33957300  0.33957300  0.91358100  1
  O  O17  1  0.34117800  0.34117800  0.42244500  1
  O  O18  1  0.47579700  0.47579700  0.74819200  1
  O  O19  1  0.61778500  0.21102000  0.58042100  1
  O  O20  1  0.81516000  0.81516000  0.91933200  1
  O  O21  1  0.86927900  0.31576200  0.89704500  1
  O  O22  1  0.01260300  0.01260300  0.74966400  1
  O  O23  1  0.31576200  0.86927900  0.89704500  1
loop_
_geom_bond_atom_site_label_1
_geom_bond_atom_site_label_2
_geom_bond_distance
_geom_bond_site_symmetry_2
Mg0 O3 2.041361 1_555
Mg0 O16 2.070594 1_554
Mg0 O0 2.117243 1_555
Mg0 O2 2.117243 1_555
Mg1 O5 2.140940 1_555
Mg1 O4 2.177358 1_555
Mg1 O8 2.177358 1_555
Mg1 O7 2.192617 1_555
Mg1 O11 2.192617 1_555
Mg1 O10 2.211271 1_555
Mg2 O1 2.075883 1_555
Mg2 O9 2.090409 1_555
Mg2 O7 2.143020 1_555
Mg2 O11 2.143020 1_555
Mg2 O2 2.536316 1_655
Mg2 O0 2.536316 1_565
Mg3 O19 2.143534 1_555
Mg3 O14 2.143534 1_555
Mg3 O12 2.161856 1_555
Mg3 O15 2.161856 1_555
Mg3 O18 2.165239 1_555
Mg3 O13 2.196027 1_555
Mg4 O8 2.148756 1_555
Mg4 O4 2.148756 1_555
Mg4 O19 2.150380 1_555
Mg4 O14 2.150380 1_555
Mg4 O17 2.267805 1_555
Mg4 O6 2.304206 1_555
Mg5 O22 2.121587 1_555
Mg5 O23 2.146983 1_545
Mg5 O21 2.146983 1_455
Mg5 O12 2.162277 1_555
Mg5 O15 2.162277 1_555
Mg5 O16 2.591918 1_555
Bi0 O9 2.321351 1_555
Bi0 O11 2.331844 1_555
Bi0 O5 2.365466 1_555
Bi0 O1 2.462357 1_545
Bi0 O0 2.467209 1_555
Bi0 O3 2.473250 1_655
Bi1 O10 2.208778 1_445
Bi1 O1 2.228402 1_445
Bi1 O4 2.345205 1_545
Bi1 O8 2.345205 1_455
Bi2 O2 2.355004 1_655
Bi2 O0 2.355004 1_565
Bi2 O3 2.372898 1_665
Bi2 O20 2.527788 1_554
Bi2 O23 2.571758 1_654
Bi2 O21 2.571758 1_564
Bi3 O9 2.321351 1_555
Bi3 O7 2.331844 1_555
Bi3 O5 2.365466 1_555
Bi3 O1 2.462357 1_455
Bi3 O2 2.467209 1_555
Bi3 O3 2.473250 1_565
Bi4 O19 2.353698 1_555
Bi4 O13 2.366363 1_555
Bi4 O4 2.384424 1_545
Bi4 O17 2.397163 1_555
Bi4 O10 2.405059 1_545
Bi4 O6 2.417010 1_545
Bi5 O6 2.203744 1_555
Bi5 O18 2.269695 1_555
Bi5 O15 2.340778 1_565
Bi5 O12 2.340778 1_655
Bi6 O14 2.353698 1_555
Bi6 O13 2.366363 1_555
Bi6 O8 2.384424 1_455
Bi6 O17 2.397163 1_555
Bi6 O10 2.405059 1_455
Bi6 O6 2.417010 1_455
Bi7 O16 2.299208 1_555
Bi7 O12 2.302049 1_555
Bi7 O18 2.332512 1_555
Bi7 O23 2.446153 1_555
Bi7 O20 2.483828 1_455
Bi7 O22 2.519357 1_565
Bi8 O17 2.211323 1_555
Bi8 O5 2.252335 1_555
Bi8 O11 2.322853 1_455
Bi8 O7 2.322853 1_545
Bi9 O16 2.299208 1_555
Bi9 O15 2.302049 1_555
Bi9 O18 2.332512 1_555
Bi9 O21 2.446153 1_555
Bi9 O20 2.483828 1_545
Bi9 O22 2.519357 1_655
Bi10 O22 2.169360 1_665
Bi10 O13 2.228856 1_665
Bi10 O19 2.349684 1_565
Bi10 O14 2.349684 1_655
Bi11 O20 2.137922 1_555
Bi11 O21 2.277276 1_555
Bi11 O23 2.277276 1_555
Bi11 O9 2.392176 1_556
