# generated using pymatgen
data_Ca8Al9Fe3Si12(HO13)4
_symmetry_space_group_name_H-M   'P 1'
_cell_length_a   5.69442100
_cell_length_b   8.99338600
_cell_length_c   18.59195259
_cell_angle_alpha   89.59233938
_cell_angle_beta   90.00000000
_cell_angle_gamma   90.00000000
_symmetry_Int_Tables_number   1
_chemical_formula_structural   Ca8Al9Fe3Si12(HO13)4
_chemical_formula_sum   'Ca8 Al9 Fe3 Si12 H4 O52'
_cell_volume   952.10932056
_cell_formula_units_Z   1
loop_
 _symmetry_equiv_pos_site_id
 _symmetry_equiv_pos_as_xyz
  1  'x, y, z'
loop_
 _atom_site_type_symbol
 _atom_site_label
 _atom_site_symmetry_multiplicity
 _atom_site_fract_x
 _atom_site_fract_y
 _atom_site_fract_z
 _atom_site_occupancy
  Ca  Ca0  1  0.00000000  0.89585500  0.70975100  1
  Ca  Ca1  1  0.00000000  0.39454900  0.21054200  1
  Ca  Ca2  1  0.50000000  0.60502800  0.79015800  1
  Ca  Ca3  1  0.50000000  0.10528600  0.28989100  1
  Ca  Ca4  1  0.00000000  0.18125500  0.57684400  1
  Ca  Ca5  1  0.00000000  0.68168700  0.07690800  1
  Ca  Ca6  1  0.50000000  0.31818500  0.92327000  1
  Ca  Ca7  1  0.50000000  0.81833300  0.42422800  1
  Al  Al0  1  0.74945700  0.24925600  0.74957800  1
  Al  Al1  1  0.74990700  0.75002500  0.25015300  1
  Al  Al2  1  0.25054300  0.24925600  0.74957800  1
  Al  Al3  1  0.25009300  0.75002500  0.25015300  1
  Al  Al4  1  0.74947100  0.50282300  0.50103100  1
  Al  Al5  1  0.75007900  0.00006700  0.00007300  1
  Al  Al6  1  0.24992100  0.00006700  0.00007300  1
  Al  Al7  1  0.25052900  0.50282300  0.50103100  1
  Al  Al8  1  0.50000000  0.67638000  0.61457900  1
  Fe  Fe0  1  0.50000000  0.18103900  0.11182900  1
  Fe  Fe1  1  0.00000000  0.81887300  0.88833500  1
  Fe  Fe2  1  0.00000000  0.31991600  0.38877900  1
  Si  Si0  1  0.00000000  0.52657800  0.65816400  1
  Si  Si1  1  0.00000000  0.02432300  0.15947700  1
  Si  Si2  1  0.50000000  0.97570600  0.84061200  1
  Si  Si3  1  0.50000000  0.47565300  0.34096900  1
  Si  Si4  1  0.00000000  0.81472100  0.52359600  1
  Si  Si5  1  0.00000000  0.31447900  0.02298800  1
  Si  Si6  1  0.50000000  0.68561100  0.97702200  1
  Si  Si7  1  0.50000000  0.18585600  0.47726600  1
  Si  Si8  1  0.50000000  0.04118000  0.63655500  1
  Si  Si9  1  0.50000000  0.54856500  0.13753400  1
  Si  Si10  1  0.00000000  0.45125200  0.86233500  1
  Si  Si11  1  0.00000000  0.95156100  0.36268900  1
  H  H0  1  0.50000000  0.39320400  0.66341300  1
  H  H1  1  0.50000000  0.89272100  0.16360300  1
  H  H2  1  0.00000000  0.10760700  0.83613100  1
  H  H3  1  0.00000000  0.60725800  0.33638800  1
  O  O0  1  0.50000000  0.49684500  0.56640700  1
  O  O1  1  0.50000000  0.98581100  0.06411200  1
  O  O2  1  0.00000000  0.01414100  0.93577000  1
  O  O3  1  0.00000000  0.51496400  0.43643600  1
  O  O4  1  0.76379600  0.62677100  0.67511100  1
  O  O5  1  0.76878500  0.12582200  0.17873200  1
  O  O6  1  0.26901200  0.87404500  0.82098800  1
  O  O7  1  0.26873200  0.37434600  0.32133200  1
  O  O8  1  0.73098800  0.87404500  0.82098800  1
  O  O9  1  0.73126800  0.37434600  0.32133200  1
  O  O10  1  0.23620400  0.62677100  0.67511100  1
  O  O11  1  0.23121500  0.12582200  0.17873200  1
  O  O12  1  0.00000000  0.46885400  0.57256200  1
  O  O13  1  0.00000000  0.96944900  0.07296000  1
  O  O14  1  0.50000000  0.03048500  0.92701000  1
  O  O15  1  0.50000000  0.53062900  0.42755300  1
  O  O16  1  0.50000000  0.36802800  0.71507600  1
  O  O17  1  0.50000000  0.86844800  0.21531100  1
  O  O18  1  0.00000000  0.13195800  0.78439600  1
  O  O19  1  0.00000000  0.63140200  0.28465200  1
  O  O20  1  0.50000000  0.86358400  0.64800900  1
  O  O21  1  0.50000000  0.37290900  0.15380900  1
  O  O22  1  0.00000000  0.62703700  0.84564500  1
  O  O23  1  0.00000000  0.12748000  0.34648600  1
  O  O24  1  0.00000000  0.92640000  0.58922000  1
  O  O25  1  0.00000000  0.42478400  0.08915000  1
  O  O26  1  0.50000000  0.57537200  0.91074800  1
  O  O27  1  0.50000000  0.07581500  0.41093300  1
  O  O28  1  0.00000000  0.36464500  0.70279200  1
  O  O29  1  0.00000000  0.86230400  0.20293400  1
  O  O30  1  0.50000000  0.13779100  0.79721700  1
  O  O31  1  0.50000000  0.63738600  0.29711500  1
  O  O32  1  0.75433600  0.71387700  0.52109400  1
  O  O33  1  0.75549300  0.21238100  0.01931300  1
  O  O34  1  0.25534700  0.78759300  0.98047700  1
  O  O35  1  0.25729400  0.28930200  0.48173800  1
  O  O36  1  0.74465300  0.78759300  0.98047700  1
  O  O37  1  0.74270600  0.28930200  0.48173800  1
  O  O38  1  0.24566400  0.71387700  0.52109400  1
  O  O39  1  0.24450700  0.21238100  0.01931300  1
  O  O40  1  0.73482300  0.12007000  0.67077100  1
  O  O41  1  0.73714200  0.62553100  0.17015000  1
  O  O42  1  0.23731000  0.37446300  0.82964100  1
  O  O43  1  0.23716500  0.87467700  0.32985700  1
  O  O44  1  0.76269000  0.37446300  0.82964100  1
  O  O45  1  0.76283500  0.87467700  0.32985700  1
  O  O46  1  0.26517700  0.12007000  0.67077100  1
  O  O47  1  0.26285800  0.62553100  0.17015000  1
  O  O48  1  0.50000000  0.07994900  0.55005500  1
  O  O49  1  0.50000000  0.58059100  0.05020200  1
  O  O50  1  0.00000000  0.41953900  0.94965700  1
  O  O51  1  0.00000000  0.91864000  0.44984900  1
loop_
_geom_bond_atom_site_label_1
_geom_bond_atom_site_label_2
_geom_bond_distance
_geom_bond_site_symmetry_2
Ca0 O24 2.255740 1_555
Ca0 O18 2.544915 1_565
Ca0 O6 2.580002 1_555
Ca0 O8 2.580002 1_455
Ca0 O46 2.617381 1_565
Ca0 O40 2.617381 1_465
Ca0 O4 2.846468 1_455
Ca0 O10 2.846468 1_555
Ca1 O25 2.271314 1_555
Ca1 O19 2.545114 1_555
Ca1 O9 2.571422 1_455
Ca1 O7 2.571422 1_555
Ca1 O47 2.664104 1_555
Ca1 O41 2.664104 1_455
Ca1 O5 2.818579 1_455
Ca1 O11 2.818579 1_555
Ca1 O21 3.043018 1_555
Ca1 O21 3.043018 1_455
Ca2 O26 2.255926 1_555
Ca2 O16 2.556157 1_555
Ca2 O10 2.619902 1_555
Ca2 O4 2.619902 1_555
Ca2 O42 2.656024 1_555
Ca2 O44 2.656024 1_555
Ca2 O8 2.816341 1_555
Ca2 O6 2.816341 1_555
Ca2 O22 3.035278 1_655
Ca2 O22 3.035278 1_555
Ca3 O27 2.264088 1_555
Ca3 O17 2.549794 1_545
Ca3 O11 2.577292 1_555
Ca3 O5 2.577292 1_555
Ca3 O45 2.659243 1_545
Ca3 O43 2.659243 1_545
Ca3 O9 2.819821 1_555
Ca3 O7 2.819821 1_555
Ca3 O23 3.042464 1_655
Ca3 O23 3.042464 1_555
Ca4 O24 2.301900 1_545
Ca4 O40 2.370405 1_455
Ca4 O46 2.370405 1_555
Ca4 O35 2.488565 1_555
Ca4 O37 2.488565 1_455
Ca4 O12 2.587147 1_555
Ca5 O25 2.319999 1_555
Ca5 O41 2.342708 1_455
Ca5 O47 2.342708 1_555
Ca5 O36 2.492271 1_454
Ca5 O34 2.492271 1_554
Ca5 O13 2.588473 1_555
Ca6 O26 2.323020 1_555
Ca6 O42 2.347647 1_555
Ca6 O44 2.347647 1_555
Ca6 O39 2.487247 1_556
Ca6 O33 2.487247 1_556
Ca6 O14 2.587837 1_555
Ca7 O27 2.327041 1_565
Ca7 O45 2.358521 1_555
Ca7 O43 2.358521 1_555
Ca7 O32 2.489845 1_555
Ca7 O38 2.489845 1_555
Ca7 O15 2.587732 1_555
Al0 O44 1.874353 1_555
Al0 O40 1.878226 1_555
Al0 O18 1.886165 1_655
Al0 O16 1.886942 1_555
Al0 O30 1.947972 1_555
Al0 O28 1.963707 1_655
Al1 O45 1.865928 1_555
Al1 O41 1.869473 1_555
Al1 O19 1.888897 1_655
Al1 O17 1.889239 1_555
Al1 O31 1.949633 1_555
Al1 O29 1.950865 1_655
Al2 O42 1.874353 1_555
Al2 O46 1.878226 1_555
Al2 O18 1.886165 1_555
Al2 O16 1.886942 1_555
Al2 O30 1.947972 1_555
Al2 O28 1.963707 1_555
Al3 O43 1.865928 1_555
Al3 O47 1.869473 1_555
Al3 O19 1.888897 1_555
Al3 O17 1.889239 1_555
Al3 O31 1.949633 1_555
Al3 O29 1.950865 1_555
Al4 O3 1.867503 1_655
Al4 O0 1.870135 1_555
Al4 O32 1.937195 1_555
Al4 O37 1.956377 1_555
Al4 O12 1.972669 1_655
Al4 O15 1.985443 1_555
Al5 O1 1.860041 1_545
Al5 O2 1.862392 1_654
Al5 O33 1.945384 1_555
Al5 O36 1.948072 1_544
Al5 O13 1.982981 1_645
Al5 O14 1.985620 1_554
Al6 O1 1.860041 1_545
Al6 O2 1.862392 1_554
Al6 O39 1.945384 1_555
Al6 O34 1.948072 1_544
Al6 O13 1.982981 1_545
Al6 O14 1.985620 1_554
Al7 O3 1.867503 1_555
Al7 O0 1.870135 1_555
Al7 O38 1.937195 1_555
Al7 O35 1.956377 1_555
Al7 O12 1.972669 1_555
Al7 O15 1.985443 1_555
Al8 O20 1.798802 1_555
Al8 O0 1.851950 1_555
Al8 O10 1.927421 1_555
Al8 O4 1.927421 1_555
Al8 O32 2.285569 1_555
Al8 O38 2.285569 1_555
Fe0 O21 1.898918 1_555
Fe0 O1 1.972790 1_545
Fe0 O11 2.031662 1_555
Fe0 O5 2.031662 1_555
Fe0 O39 2.268882 1_555
Fe0 O33 2.268882 1_555
Fe1 O22 1.904189 1_555
Fe1 O2 1.970726 1_565
Fe1 O6 2.037587 1_555
Fe1 O8 2.037587 1_455
Fe1 O36 2.263020 1_455
Fe1 O34 2.263020 1_555
Fe2 O23 1.905991 1_555
Fe2 O3 1.970835 1_555
Fe2 O9 2.035943 1_455
Fe2 O7 2.035943 1_555
Fe2 O37 2.280932 1_455
Fe2 O35 2.280932 1_555
H0 O16 0.985272 1_555
H1 O17 0.984310 1_555
H2 O18 0.984950 1_555
H3 O19 0.984569 1_555
O4 Si0 1.650574 1_655
O5 Si1 1.643038 1_655
O6 Si2 1.644351 1_555
O7 Si3 1.643910 1_555
O8 Si2 1.644351 1_555
O9 Si3 1.643910 1_555
O10 Si0 1.650574 1_555
O11 Si1 1.643038 1_555
O12 Si0 1.677545 1_555
O13 Si1 1.685876 1_565
O14 Si2 1.683504 1_545
O15 Si3 1.687342 1_555
O20 Si8 1.609821 1_565
O21 Si9 1.606344 1_555
O22 Si10 1.608900 1_555
O23 Si11 1.608425 1_545
O24 Si4 1.585810 1_555
O25 Si5 1.585736 1_555
O26 Si6 1.586987 1_555
O27 Si7 1.586722 1_555
O28 Si0 1.670966 1_555
O29 Si1 1.661075 1_565
O30 Si2 1.661041 1_545
O31 Si3 1.662390 1_555
O32 Si4 1.668006 1_655
O33 Si5 1.669502 1_655
O34 Si6 1.669443 1_555
O35 Si7 1.668426 1_555
O36 Si6 1.669443 1_555
O37 Si7 1.668426 1_555
O38 Si4 1.668006 1_555
O39 Si5 1.669502 1_555
O40 Si8 1.643936 1_555
O41 Si9 1.635956 1_555
O42 Si10 1.636611 1_555
O43 Si11 1.637255 1_555
O44 Si10 1.636611 1_655
O45 Si11 1.637255 1_655
O46 Si8 1.643936 1_555
O47 Si9 1.635956 1_555
O48 Si8 1.643140 1_555
O48 Si7 1.649314 1_555
O49 Si9 1.647002 1_555
O49 Si6 1.650723 1_554
O50 Si10 1.646348 1_555
O50 Si5 1.653230 1_556
O51 Si11 1.645226 1_555
O51 Si4 1.653823 1_555
