# generated using pymatgen
data_Hf4NiRh
_symmetry_space_group_name_H-M   'P 1'
_cell_length_a   8.60370055
_cell_length_b   8.60370055
_cell_length_c   8.60370055
_cell_angle_alpha   60.00000000
_cell_angle_beta   60.00000000
_cell_angle_gamma   60.00000000
_symmetry_Int_Tables_number   1
_chemical_formula_structural   Hf4NiRh
_chemical_formula_sum   'Hf16 Ni4 Rh4'
_cell_volume   450.34035003
_cell_formula_units_Z   4
loop_
 _symmetry_equiv_pos_site_id
 _symmetry_equiv_pos_as_xyz
  1  'x, y, z'
loop_
 _atom_site_type_symbol
 _atom_site_label
 _atom_site_symmetry_multiplicity
 _atom_site_fract_x
 _atom_site_fract_y
 _atom_site_fract_z
 _atom_site_occupancy
  Hf  Hf0  1  0.67262100  0.10912600  0.10912600  1
  Hf  Hf1  1  0.10912600  0.67262100  0.10912600  1
  Hf  Hf2  1  0.10912600  0.10912600  0.67262100  1
  Hf  Hf3  1  0.10912600  0.10912600  0.10912600  1
  Hf  Hf4  1  0.31411300  0.31411300  0.68588700  1
  Hf  Hf5  1  0.68588700  0.68588700  0.31411300  1
  Hf  Hf6  1  0.31411300  0.68588700  0.31411300  1
  Hf  Hf7  1  0.68588700  0.31411300  0.68588700  1
  Hf  Hf8  1  0.68588700  0.31411300  0.31411300  1
  Hf  Hf9  1  0.31411300  0.68588700  0.68588700  1
  Hf  Hf10  1  0.94567700  0.94567700  0.55432300  1
  Hf  Hf11  1  0.55432300  0.55432300  0.94567700  1
  Hf  Hf12  1  0.94567700  0.55432300  0.94567700  1
  Hf  Hf13  1  0.55432300  0.94567700  0.55432300  1
  Hf  Hf14  1  0.55432300  0.94567700  0.94567700  1
  Hf  Hf15  1  0.94567700  0.55432300  0.55432300  1
  Ni  Ni0  1  0.31466100  0.89511300  0.89511300  1
  Ni  Ni1  1  0.89511300  0.31466100  0.89511300  1
  Ni  Ni2  1  0.89511300  0.89511300  0.31466100  1
  Ni  Ni3  1  0.89511300  0.89511300  0.89511300  1
  Rh  Rh0  1  0.99685000  0.33438300  0.33438300  1
  Rh  Rh1  1  0.33438300  0.99685000  0.33438300  1
  Rh  Rh2  1  0.33438300  0.33438300  0.99685000  1
  Rh  Rh3  1  0.33438300  0.33438300  0.33438300  1
loop_
_geom_bond_atom_site_label_1
_geom_bond_atom_site_label_2
_geom_bond_distance
_geom_bond_site_symmetry_2
Hf0 Ni3 2.605018 1_544
Hf0 Ni2 2.605024 1_545
Hf0 Ni1 2.605024 1_554
Hf0 Rh3 2.908078 1_555
Hf0 Rh1 2.908078 1_545
Hf0 Rh2 2.908078 1_554
Hf1 Ni3 2.605018 1_454
Hf1 Ni0 2.605024 1_554
Hf1 Ni2 2.605024 1_455
Hf1 Rh2 2.908078 1_554
Hf1 Rh0 2.908078 1_455
Hf1 Rh3 2.908078 1_555
Hf2 Ni3 2.605018 1_445
Hf2 Ni1 2.605024 1_455
Hf2 Ni0 2.605024 1_545
Hf2 Rh0 2.908078 1_455
Hf2 Rh3 2.908078 1_555
Hf2 Rh1 2.908078 1_545
Hf3 Ni2 2.605018 1_445
Hf3 Ni1 2.605018 1_454
Hf3 Ni0 2.605018 1_544
Hf3 Rh0 2.908078 1_455
Hf3 Rh1 2.908078 1_545
Hf3 Rh2 2.908078 1_554
Hf4 Rh2 2.860482 1_555
Hf4 Rh3 2.860491 1_555
Hf5 Rh0 2.860487 1_555
Hf5 Rh1 2.860487 1_555
Hf6 Rh1 2.860482 1_555
Hf6 Rh3 2.860491 1_555
Hf7 Rh0 2.860487 1_555
Hf7 Rh2 2.860487 1_555
Hf8 Rh0 2.860482 1_555
Hf8 Rh3 2.860491 1_555
Hf9 Rh1 2.860487 1_555
Hf9 Rh2 2.860487 1_555
Hf10 Ni3 2.571694 1_555
Hf10 Ni2 2.571694 1_555
Hf10 Rh0 3.044651 1_565
Hf10 Rh1 3.044651 1_655
Hf11 Ni0 2.571694 1_555
Hf11 Ni1 2.571694 1_555
Hf11 Rh3 3.044655 1_556
Hf11 Rh2 3.044659 1_555
Hf12 Ni3 2.571694 1_555
Hf12 Ni1 2.571694 1_555
Hf12 Rh0 3.044651 1_556
Hf12 Rh2 3.044651 1_655
Hf13 Ni0 2.571694 1_555
Hf13 Ni2 2.571694 1_555
Hf13 Rh3 3.044655 1_565
Hf13 Rh1 3.044659 1_555
Hf14 Ni3 2.571694 1_555
Hf14 Ni0 2.571694 1_555
Hf14 Rh1 3.044651 1_556
Hf14 Rh2 3.044651 1_565
Hf15 Ni2 2.571694 1_555
Hf15 Ni1 2.571694 1_555
Hf15 Rh3 3.044655 1_655
Hf15 Rh0 3.044659 1_555
