# generated using pymatgen
data_Tm(AsO)2
_symmetry_space_group_name_H-M   'P 1'
_cell_length_a   10.22498657
_cell_length_b   10.22498657
_cell_length_c   10.22498657
_cell_angle_alpha   124.61409607
_cell_angle_beta   124.61409607
_cell_angle_gamma   82.17820275
_symmetry_Int_Tables_number   1
_chemical_formula_structural   Tm(AsO)2
_chemical_formula_sum   'Tm4 As8 O8'
_cell_volume   696.06106114
_cell_formula_units_Z   4
loop_
 _symmetry_equiv_pos_site_id
 _symmetry_equiv_pos_as_xyz
  1  'x, y, z'
loop_
 _atom_site_type_symbol
 _atom_site_label
 _atom_site_symmetry_multiplicity
 _atom_site_fract_x
 _atom_site_fract_y
 _atom_site_fract_z
 _atom_site_occupancy
  Tm  Tm0  1  0.87500000  0.12500000  0.75000000  1
  Tm  Tm1  1  0.37500000  0.12500000  0.25000000  1
  Tm  Tm2  1  0.87500000  0.62500000  0.75000000  1
  Tm  Tm3  1  0.87500000  0.12500000  0.25000000  1
  As  As0  1  0.69481500  0.36624900  0.32856600  1
  As  As1  1  0.03768300  0.36624900  0.67143400  1
  As  As2  1  0.11624900  0.28768300  0.17143400  1
  As  As3  1  0.71231700  0.88375100  0.82856600  1
  As  As4  1  0.05518500  0.88375100  0.17143400  1
  As  As5  1  0.11624900  0.94481500  0.82856600  1
  As  As6  1  0.63375100  0.96231700  0.32856600  1
  As  As7  1  0.63375100  0.30518500  0.67143400  1
  O  O0  1  0.51712400  0.26144000  0.25568500  1
  O  O1  1  0.00575500  0.26144000  0.74431500  1
  O  O2  1  0.01144000  0.25575500  0.24431500  1
  O  O3  1  0.74424500  0.98856000  0.75568500  1
  O  O4  1  0.23287600  0.98856000  0.24431500  1
  O  O5  1  0.01144000  0.76712400  0.75568500  1
  O  O6  1  0.73856000  0.99424500  0.25568500  1
  O  O7  1  0.73856000  0.48287600  0.74431500  1
loop_
_geom_bond_atom_site_label_1
_geom_bond_atom_site_label_2
_geom_bond_distance
_geom_bond_site_symmetry_2
As0 O0 1.757653 1_555
As0 Tm3 2.884065 1_555
As0 Tm2 2.884065 1_555
As1 O1 1.757644 1_555
As1 Tm3 2.884065 1_455
As1 Tm2 2.884065 1_455
As2 O2 1.757644 1_555
As2 Tm0 2.884065 1_454
As2 Tm1 2.884065 1_555
As3 O3 1.757644 1_555
As3 Tm2 2.884065 1_555
As3 Tm3 2.884065 1_566
As4 O4 1.757653 1_555
As4 Tm2 2.884065 1_454
As4 Tm3 2.884065 1_465
As5 O5 1.757653 1_555
As5 Tm0 2.884065 1_465
As5 Tm1 2.884065 1_566
As6 O6 1.757644 1_555
As6 Tm1 2.884065 1_565
As6 Tm0 2.884065 1_565
As7 O7 1.757653 1_555
As7 Tm1 2.884065 1_555
As7 Tm0 2.884065 1_555
O0 Tm1 2.103623 1_555
O1 Tm0 2.103631 1_455
O2 Tm3 2.103631 1_455
O3 Tm0 2.103631 1_565
O4 Tm1 2.103623 1_565
O5 Tm2 2.103623 1_455
O6 Tm3 2.103631 1_565
O7 Tm2 2.103623 1_555
