# generated using pymatgen
data_Rb2ErCl5
_symmetry_space_group_name_H-M   'P 1'
_cell_length_a   7.30615709
_cell_length_b   9.35916127
_cell_length_c   14.71353561
_cell_angle_alpha   90.00000000
_cell_angle_beta   90.00000000
_cell_angle_gamma   90.00000000
_symmetry_Int_Tables_number   1
_chemical_formula_structural   Rb2ErCl5
_chemical_formula_sum   'Rb8 Er4 Cl20'
_cell_volume   1006.10424458
_cell_formula_units_Z   4
loop_
 _symmetry_equiv_pos_site_id
 _symmetry_equiv_pos_as_xyz
  1  'x, y, z'
loop_
 _atom_site_type_symbol
 _atom_site_label
 _atom_site_symmetry_multiplicity
 _atom_site_fract_x
 _atom_site_fract_y
 _atom_site_fract_z
 _atom_site_occupancy
  Rb  Rb0  1  0.25000000  0.67000744  0.91542414  1
  Rb  Rb1  1  0.75000000  0.32999256  0.08457586  1
  Rb  Rb2  1  0.75000000  0.82999256  0.41542414  1
  Rb  Rb3  1  0.25000000  0.17000744  0.58457586  1
  Rb  Rb4  1  0.25000000  0.96850700  0.20883818  1
  Rb  Rb5  1  0.75000000  0.03149300  0.79116182  1
  Rb  Rb6  1  0.75000000  0.53149300  0.70883818  1
  Rb  Rb7  1  0.25000000  0.46850700  0.29116182  1
  Er  Er0  1  0.25000000  0.68825323  0.56293945  1
  Er  Er1  1  0.75000000  0.31174677  0.43706055  1
  Er  Er2  1  0.75000000  0.81174677  0.06293945  1
  Er  Er3  1  0.25000000  0.18825323  0.93706055  1
  Cl  Cl0  1  0.25000000  0.53369423  0.70657726  1
  Cl  Cl1  1  0.75000000  0.46630577  0.29342274  1
  Cl  Cl2  1  0.75000000  0.96630577  0.20657726  1
  Cl  Cl3  1  0.25000000  0.03369423  0.79342274  1
  Cl  Cl4  1  0.50873231  0.84993596  0.61251189  1
  Cl  Cl5  1  0.49126769  0.15006404  0.38748811  1
  Cl  Cl6  1  0.49126769  0.65006404  0.11251189  1
  Cl  Cl7  1  0.00873231  0.15006404  0.38748811  1
  Cl  Cl8  1  0.50873231  0.34993596  0.88748811  1
  Cl  Cl9  1  0.99126769  0.84993596  0.61251189  1
  Cl  Cl10  1  0.99126769  0.34993596  0.88748811  1
  Cl  Cl11  1  0.00873231  0.65006404  0.11251189  1
  Cl  Cl12  1  0.25000000  0.78165348  0.39542052  1
  Cl  Cl13  1  0.75000000  0.21834652  0.60457948  1
  Cl  Cl14  1  0.75000000  0.71834652  0.89542052  1
  Cl  Cl15  1  0.25000000  0.28165348  0.10457948  1
  Cl  Cl16  1  -0.00000000  0.50000000  0.50000000  1
  Cl  Cl17  1  -0.00000000  -0.00000000  0.00000000  1
  Cl  Cl18  1  0.50000000  0.50000000  0.50000000  1
  Cl  Cl19  1  0.50000000  -0.00000000  0.00000000  1
loop_
_geom_bond_atom_site_label_1
_geom_bond_atom_site_label_2
_geom_bond_distance
_geom_bond_site_symmetry_2
Cl0 Er0 2.561060 1_555
Cl0 Rb0 3.327187 1_555
Cl0 Rb6 3.653288 1_555
Cl0 Rb6 3.653288 1_455
Cl0 Rb3 3.848137 1_555
Cl1 Er1 2.561060 1_555
Cl1 Rb1 3.327187 1_555
Cl1 Rb7 3.653288 1_655
Cl1 Rb7 3.653288 1_555
Cl1 Rb2 3.848137 1_555
Cl2 Er2 2.561060 1_555
Cl2 Rb2 3.327187 1_555
Cl2 Rb4 3.653288 1_655
Cl2 Rb4 3.653288 1_555
Cl2 Rb1 3.848137 1_565
Cl3 Er3 2.561060 1_555
Cl3 Rb3 3.327187 1_555
Cl3 Rb5 3.653288 1_455
Cl3 Rb5 3.653288 1_555
Cl3 Rb0 3.848137 1_545
Cl4 Er0 2.528874 1_555
Cl4 Rb2 3.398715 1_555
Cl4 Rb3 3.565944 1_565
Cl4 Rb5 3.592213 1_565
Cl4 Rb6 3.741461 1_555
Cl5 Er1 2.528874 1_555
Cl5 Rb3 3.398715 1_555
Cl5 Rb2 3.565944 1_545
Cl5 Rb4 3.592213 1_545
Cl5 Rb7 3.741461 1_555
Cl6 Er2 2.528874 1_555
Cl6 Rb0 3.398715 1_554
Cl6 Rb1 3.565944 1_555
Cl6 Rb7 3.592213 1_555
Cl6 Rb4 3.741461 1_555
Cl7 Er1 2.528874 1_455
Cl7 Rb3 3.398715 1_555
Cl7 Rb2 3.565944 1_445
Cl7 Rb4 3.592213 1_545
Cl7 Rb7 3.741461 1_555
Cl8 Er3 2.528874 1_555
Cl8 Rb1 3.398715 1_556
Cl8 Rb0 3.565944 1_555
Cl8 Rb6 3.592213 1_555
Cl8 Rb5 3.741461 1_555
Cl9 Er0 2.528874 1_655
Cl9 Rb2 3.398715 1_555
Cl9 Rb3 3.565944 1_665
Cl9 Rb5 3.592213 1_565
Cl9 Rb6 3.741461 1_555
Cl10 Er3 2.528874 1_655
Cl10 Rb1 3.398715 1_556
Cl10 Rb0 3.565944 1_655
Cl10 Rb6 3.592213 1_555
Cl10 Rb5 3.741461 1_555
Cl11 Er2 2.528874 1_455
Cl11 Rb0 3.398715 1_554
Cl11 Rb1 3.565944 1_455
Cl11 Rb7 3.592213 1_555
Cl11 Rb4 3.741461 1_555
Cl12 Er0 2.615216 1_555
Cl12 Rb4 3.254976 1_555
Cl12 Rb7 3.307978 1_555
Cl12 Rb2 3.692734 1_555
Cl12 Rb2 3.692734 1_455
Cl13 Er1 2.615216 1_555
Cl13 Rb5 3.254976 1_555
Cl13 Rb6 3.307978 1_555
Cl13 Rb3 3.692734 1_655
Cl13 Rb3 3.692734 1_555
Cl14 Er2 2.615216 1_556
Cl14 Rb6 3.254976 1_555
Cl14 Rb5 3.307978 1_565
Cl14 Rb0 3.692734 1_555
Cl14 Rb0 3.692734 1_655
Cl15 Er3 2.615216 1_554
Cl15 Rb7 3.254976 1_555
Cl15 Rb4 3.307978 1_545
Cl15 Rb1 3.692734 1_555
Cl15 Rb1 3.692734 1_455
Cl16 Er1 2.701500 1_455
Cl16 Er0 2.701500 1_555
Cl16 Rb6 3.586768 1_455
Cl16 Rb7 3.586768 1_555
Cl16 Rb2 3.797808 1_455
Cl16 Rb3 3.797808 1_555
Cl17 Er2 2.701500 1_445
Cl17 Er3 2.701500 1_554
Cl17 Rb5 3.586768 1_454
Cl17 Rb4 3.586768 1_545
Cl17 Rb0 3.797808 1_544
Cl17 Rb1 3.797808 1_455
Cl18 Er1 2.701500 1_555
Cl18 Er0 2.701500 1_555
Cl18 Rb6 3.586768 1_555
Cl18 Rb7 3.586768 1_555
Cl18 Rb3 3.797808 1_555
Cl18 Rb2 3.797808 1_555
Cl19 Er2 2.701500 1_545
Cl19 Er3 2.701500 1_554
Cl19 Rb5 3.586768 1_554
Cl19 Rb4 3.586768 1_545
Cl19 Rb0 3.797808 1_544
Cl19 Rb1 3.797808 1_555
