# generated using pymatgen
data_TbZnSn
_symmetry_space_group_name_H-M   'P 1'
_cell_length_a   4.46089044
_cell_length_b   4.46088946
_cell_length_c   16.12884132
_cell_angle_alpha   90.00000000
_cell_angle_beta   90.00000000
_cell_angle_gamma   119.99999986
_symmetry_Int_Tables_number   1
_chemical_formula_structural   TbZnSn
_chemical_formula_sum   'Tb4 Zn4 Sn4'
_cell_volume   277.95649080
_cell_formula_units_Z   4
loop_
 _symmetry_equiv_pos_site_id
 _symmetry_equiv_pos_as_xyz
  1  'x, y, z'
loop_
 _atom_site_type_symbol
 _atom_site_label
 _atom_site_symmetry_multiplicity
 _atom_site_fract_x
 _atom_site_fract_y
 _atom_site_fract_z
 _atom_site_occupancy
  Tb  Tb0  1  0.00000000  0.00000000  0.75000000  1
  Tb  Tb1  1  0.00000000  0.00000000  0.25000000  1
  Tb  Tb2  1  0.00000000  0.00000000  0.50000000  1
  Tb  Tb3  1  0.00000000  0.00000000  0.00000000  1
  Zn  Zn0  1  0.66666700  0.33333300  0.83879774  1
  Zn  Zn1  1  0.66666700  0.33333300  0.66120226  1
  Zn  Zn2  1  0.33333300  0.66666700  0.16120226  1
  Zn  Zn3  1  0.33333300  0.66666700  0.33879774  1
  Sn  Sn0  1  0.66666700  0.33333300  0.11440924  1
  Sn  Sn1  1  0.66666700  0.33333300  0.38559076  1
  Sn  Sn2  1  0.33333300  0.66666700  0.88559076  1
  Sn  Sn3  1  0.33333300  0.66666700  0.61440924  1
loop_
_geom_bond_atom_site_label_1
_geom_bond_atom_site_label_2
_geom_bond_distance
_geom_bond_site_symmetry_2
Tb0 Zn1 2.946927 1_455
Tb0 Zn0 2.946927 1_455
Tb0 Zn1 2.946930 1_445
Tb0 Zn0 2.946930 1_445
Tb0 Zn1 2.946930 1_555
Tb0 Zn0 2.946930 1_555
Tb1 Zn3 2.946927 1_545
Tb1 Zn2 2.946927 1_545
Tb1 Zn2 2.946930 1_555
Tb1 Zn3 2.946930 1_555
Tb1 Zn2 2.946930 1_445
Tb1 Zn3 2.946930 1_445
Sn0 Zn2 2.683796 1_545
Sn0 Zn2 2.683797 1_655
Sn0 Zn2 2.683804 1_555
Sn0 Tb3 3.168321 1_655
Sn0 Tb3 3.168324 1_665
Sn0 Tb3 3.168324 1_555
Sn0 Tb1 3.378727 1_655
Sn0 Tb1 3.378729 1_665
Sn0 Tb1 3.378730 1_555
Sn1 Zn3 2.683796 1_545
Sn1 Zn3 2.683797 1_655
Sn1 Zn3 2.683804 1_555
Sn1 Tb2 3.168321 1_655
Sn1 Tb2 3.168324 1_665
Sn1 Tb2 3.168324 1_555
Sn1 Tb1 3.378727 1_655
Sn1 Tb1 3.378729 1_665
Sn1 Tb1 3.378730 1_555
Sn2 Zn0 2.683796 1_565
Sn2 Zn0 2.683797 1_455
Sn2 Zn0 2.683804 1_555
Sn2 Tb3 3.168321 1_566
Sn2 Tb3 3.168324 1_556
Sn2 Tb3 3.168324 1_666
Sn2 Tb0 3.378727 1_565
Sn2 Tb0 3.378729 1_555
Sn2 Tb0 3.378730 1_665
Sn3 Zn1 2.683796 1_565
Sn3 Zn1 2.683797 1_455
Sn3 Zn1 2.683804 1_555
Sn3 Tb2 3.168321 1_565
Sn3 Tb2 3.168324 1_555
Sn3 Tb2 3.168324 1_665
Sn3 Tb0 3.378727 1_565
Sn3 Tb0 3.378729 1_555
Sn3 Tb0 3.378730 1_665
