# generated using pymatgen
data_Ca2SnS4
_symmetry_space_group_name_H-M   'P 1'
_cell_length_a   7.01900169
_cell_length_b   8.65748500
_cell_length_c   11.80309979
_cell_angle_alpha   90.00000000
_cell_angle_beta   98.55275548
_cell_angle_gamma   90.00000000
_symmetry_Int_Tables_number   1
_chemical_formula_structural   Ca2SnS4
_chemical_formula_sum   'Ca8 Sn4 S16'
_cell_volume   709.26165387
_cell_formula_units_Z   4
loop_
 _symmetry_equiv_pos_site_id
 _symmetry_equiv_pos_as_xyz
  1  'x, y, z'
loop_
 _atom_site_type_symbol
 _atom_site_label
 _atom_site_symmetry_multiplicity
 _atom_site_fract_x
 _atom_site_fract_y
 _atom_site_fract_z
 _atom_site_occupancy
  Ca  Ca0  1  0.71189600  0.13214400  0.93672700  1
  Ca  Ca1  1  0.21189600  0.36785600  0.43672700  1
  Ca  Ca2  1  0.28810400  0.86785600  0.06327300  1
  Ca  Ca3  1  0.78810400  0.63214400  0.56327300  1
  Ca  Ca4  1  0.71071100  0.50411700  0.18948000  1
  Ca  Ca5  1  0.21071100  0.99588300  0.68948100  1
  Ca  Ca6  1  0.28928900  0.49588300  0.81051900  1
  Ca  Ca7  1  0.78928900  0.00411700  0.31052000  1
  Sn  Sn0  1  0.78646200  0.71891000  0.91813500  1
  Sn  Sn1  1  0.28646200  0.78109000  0.41813500  1
  Sn  Sn2  1  0.21353800  0.28109000  0.08186500  1
  Sn  Sn3  1  0.71353800  0.21891000  0.58186500  1
  S  S0  1  0.71479300  0.45797300  0.95417500  1
  S  S1  1  0.21479300  0.04202700  0.45417500  1
  S  S2  1  0.28520700  0.54202700  0.04582500  1
  S  S3  1  0.78520700  0.95797300  0.54582500  1
  S  S4  1  0.48493600  0.85756100  0.87045100  1
  S  S5  1  0.98493600  0.64243900  0.37045100  1
  S  S6  1  0.51506400  0.14243900  0.12954900  1
  S  S7  1  0.01506400  0.35756100  0.62954900  1
  S  S8  1  0.00244100  0.73444500  0.77805100  1
  S  S9  1  0.50244100  0.76555500  0.27805100  1
  S  S10  1  0.99755900  0.26555500  0.22194900  1
  S  S11  1  0.49755900  0.23444500  0.72194900  1
  S  S12  1  0.89773600  0.85315400  0.09589800  1
  S  S13  1  0.39773600  0.64684600  0.59589800  1
  S  S14  1  0.10226400  0.14684600  0.90410200  1
  S  S15  1  0.60226400  0.35315400  0.40410200  1
loop_
_geom_bond_atom_site_label_1
_geom_bond_atom_site_label_2
_geom_bond_distance
_geom_bond_site_symmetry_2
Ca0 S14 2.825930 1_655
Ca0 S0 2.828220 1_555
Ca0 S6 2.834010 1_556
Ca0 S11 2.887872 1_555
Ca0 S4 2.903463 1_545
Ca0 S12 3.214974 1_546
Ca1 S15 2.825930 1_555
Ca1 S1 2.828220 1_555
Ca1 S7 2.834010 1_555
Ca1 S10 2.887872 1_455
Ca1 S5 2.903463 1_455
Ca1 S13 3.214974 1_555
Ca2 S12 2.825930 1_455
Ca2 S2 2.828220 1_555
Ca2 S4 2.834010 1_554
Ca2 S9 2.887872 1_555
Ca2 S6 2.903463 1_565
Ca2 S14 3.214974 1_564
Ca3 S13 2.825930 1_555
Ca3 S3 2.828220 1_555
Ca3 S5 2.834010 1_555
Ca3 S8 2.887872 1_655
Ca3 S7 2.903463 1_655
Ca3 S15 3.214974 1_555
Ca4 S0 2.810273 1_554
Ca4 S10 2.869973 1_555
Ca4 S5 2.911794 1_555
Ca4 S9 2.967727 1_555
Ca4 S15 3.046017 1_555
Ca4 S2 3.224330 1_555
Ca5 S1 2.810285 1_565
Ca5 S11 2.869973 1_565
Ca5 S4 2.911786 1_555
Ca5 S8 2.967722 1_555
Ca5 S14 3.046007 1_565
Ca5 S3 3.224335 1_455
Ca6 S2 2.810285 1_556
Ca6 S8 2.869973 1_555
Ca6 S7 2.911786 1_555
Ca6 S11 2.967722 1_555
Ca6 S13 3.046007 1_555
Ca6 S0 3.224335 1_555
Ca7 S3 2.810273 1_545
Ca7 S9 2.869973 1_545
Ca7 S6 2.911794 1_555
Ca7 S10 2.967727 1_555
Ca7 S12 3.046017 1_545
Ca7 S1 3.224330 1_655
S0 Sn0 2.366643 1_555
S1 Sn1 2.366643 1_545
S2 Sn2 2.366643 1_555
S3 Sn3 2.366643 1_565
S4 Sn0 2.425397 1_555
S5 Sn1 2.425397 1_655
S6 Sn2 2.425397 1_555
S7 Sn3 2.425397 1_455
S8 Sn0 2.407399 1_455
S9 Sn1 2.407399 1_555
S10 Sn2 2.407399 1_655
S11 Sn3 2.407399 1_555
S12 Sn0 2.423961 1_554
S13 Sn1 2.423961 1_555
S14 Sn2 2.423961 1_556
S15 Sn3 2.423961 1_555
