# generated using pymatgen
data_UB2Rh2C
_symmetry_space_group_name_H-M   'P 1'
_cell_length_a   5.80080957
_cell_length_b   5.80080957
_cell_length_c   5.80080957
_cell_angle_alpha   141.80179198
_cell_angle_beta   141.80179198
_cell_angle_gamma   55.12747868
_symmetry_Int_Tables_number   1
_chemical_formula_structural   UB2Rh2C
_chemical_formula_sum   'U1 B2 Rh2 C1'
_cell_volume   74.10333807
_cell_formula_units_Z   1
loop_
 _symmetry_equiv_pos_site_id
 _symmetry_equiv_pos_as_xyz
  1  'x, y, z'
loop_
 _atom_site_type_symbol
 _atom_site_label
 _atom_site_symmetry_multiplicity
 _atom_site_fract_x
 _atom_site_fract_y
 _atom_site_fract_z
 _atom_site_occupancy
  U  U0  1  0.00000000  0.00000000  0.00000000  1
  B  B0  1  0.64656300  0.64656300  0.00000000  1
  B  B1  1  0.35343700  0.35343700  0.00000000  1
  Rh  Rh0  1  0.25000000  0.75000000  0.50000000  1
  Rh  Rh1  1  0.75000000  0.25000000  0.50000000  1
  C  C0  1  0.50000000  0.50000000  0.00000000  1
loop_
_geom_bond_atom_site_label_1
_geom_bond_atom_site_label_2
_geom_bond_distance
_geom_bond_site_symmetry_2
B0 C0 1.507371 1_555
B0 Rh0 2.175844 1_655
B0 Rh1 2.175844 1_554
B0 Rh1 2.175844 1_565
B0 Rh0 2.175844 1_554
B1 C0 1.507371 1_555
B1 Rh1 2.175844 1_454
B1 Rh0 2.175844 1_555
B1 Rh0 2.175844 1_544
B1 Rh1 2.175844 1_555
C0 U0 2.684238 1_655
C0 U0 2.684238 1_565
C0 U0 2.684238 1_554
C0 U0 2.684238 1_666
