# generated using pymatgen
data_Ba2VN3
_symmetry_space_group_name_H-M   'P 1'
_cell_length_a   6.54012819
_cell_length_b   6.54012819
_cell_length_c   13.05760429
_cell_angle_alpha   90.00000000
_cell_angle_beta   90.00000000
_cell_angle_gamma   126.26939843
_symmetry_Int_Tables_number   1
_chemical_formula_structural   Ba2VN3
_chemical_formula_sum   'Ba8 V4 N12'
_cell_volume   450.30079618
_cell_formula_units_Z   4
loop_
 _symmetry_equiv_pos_site_id
 _symmetry_equiv_pos_as_xyz
  1  'x, y, z'
loop_
 _atom_site_type_symbol
 _atom_site_label
 _atom_site_symmetry_multiplicity
 _atom_site_fract_x
 _atom_site_fract_y
 _atom_site_fract_z
 _atom_site_occupancy
  Ba  Ba0  1  0.85874332  0.14125668  0.42172300  1
  Ba  Ba1  1  0.35874332  0.64125668  0.07827700  1
  Ba  Ba2  1  0.64125668  0.35874332  0.92172300  1
  Ba  Ba3  1  0.14125668  0.85874332  0.57827700  1
  Ba  Ba4  1  0.44390874  0.55609126  0.64518404  1
  Ba  Ba5  1  0.55609126  0.44390874  0.35481596  1
  Ba  Ba6  1  0.05609126  0.94390874  0.14518404  1
  Ba  Ba7  1  0.94390874  0.05609126  0.85481596  1
  V  V0  1  0.75620834  0.24379166  0.66779953  1
  V  V1  1  0.74379166  0.25620834  0.16779953  1
  V  V2  1  0.24379166  0.75620834  0.33220047  1
  V  V3  1  0.25620834  0.74379166  0.83220047  1
  N  N0  1  0.97541061  0.52458939  0.75000000  1
  N  N1  1  0.52458939  0.97541061  0.25000000  1
  N  N2  1  0.02458939  0.47541061  0.25000000  1
  N  N3  1  0.47541061  0.02458939  0.75000000  1
  N  N4  1  0.40467495  0.59532505  0.86615437  1
  N  N5  1  0.59532505  0.40467495  0.13384563  1
  N  N6  1  0.09532505  0.90467495  0.36615437  1
  N  N7  1  0.66708473  0.33291527  0.55774598  1
  N  N8  1  0.16708473  0.83291527  0.94225402  1
  N  N9  1  0.83291527  0.16708473  0.05774598  1
  N  N10  1  0.33291527  0.66708473  0.44225402  1
  N  N11  1  0.90467495  0.09532505  0.63384563  1
loop_
_geom_bond_atom_site_label_1
_geom_bond_atom_site_label_2
_geom_bond_distance
_geom_bond_site_symmetry_2
Ba0 N11 2.821190 1_555
Ba0 N6 2.854325 1_645
Ba0 N7 2.855874 1_555
Ba0 N1 2.859330 1_545
Ba0 N2 2.859330 1_655
Ba0 N10 2.982846 1_545
Ba0 N10 2.982846 1_655
Ba1 N4 2.821190 1_554
Ba1 N5 2.854325 1_555
Ba1 N8 2.855874 1_554
Ba1 N1 2.859330 1_555
Ba1 N2 2.859330 1_555
Ba1 N9 2.982846 1_455
Ba1 N9 2.982846 1_565
Ba2 N5 2.821190 1_556
Ba2 N4 2.854325 1_555
Ba2 N9 2.855874 1_556
Ba2 N3 2.859330 1_555
Ba2 N0 2.859330 1_555
Ba2 N8 2.982846 1_545
Ba2 N8 2.982846 1_655
Ba3 N6 2.821190 1_555
Ba3 N11 2.854325 1_465
Ba3 N10 2.855874 1_555
Ba3 N0 2.859330 1_455
Ba3 N3 2.859330 1_565
Ba3 N7 2.982846 1_455
Ba3 N7 2.982846 1_565
Ba4 N7 2.843425 1_555
Ba4 N4 2.921436 1_555
Ba4 N10 2.949355 1_555
Ba4 N11 2.994357 1_455
Ba4 N11 2.994357 1_565
Ba5 N10 2.843425 1_555
Ba5 N5 2.921436 1_555
Ba5 N7 2.949355 1_555
Ba5 N6 2.994357 1_655
Ba5 N6 2.994357 1_545
Ba6 N9 2.843425 1_465
Ba6 N6 2.921436 1_555
Ba6 N8 2.949355 1_554
Ba6 N5 2.994357 1_455
Ba6 N5 2.994357 1_565
Ba7 N8 2.843425 1_645
Ba7 N11 2.921436 1_555
Ba7 N9 2.949355 1_556
Ba7 N4 2.994357 1_655
Ba7 N4 2.994357 1_545
N0 V3 1.861417 1_655
N0 V0 1.861417 1_555
N1 V1 1.861417 1_565
N1 V2 1.861417 1_555
N2 V1 1.861417 1_455
N2 V2 1.861417 1_555
N3 V0 1.861417 1_555
N3 V3 1.861417 1_545
N4 V3 1.788219 1_555
N5 V1 1.788219 1_555
N6 V2 1.788219 1_555
N7 V0 1.773851 1_555
N8 V3 1.773851 1_555
N9 V1 1.773851 1_555
N10 V2 1.773851 1_555
N11 V0 1.788219 1_555
