# generated using pymatgen
data_Sm3FeO6
_symmetry_space_group_name_H-M   'P 1'
_cell_length_a   7.27170091
_cell_length_b   7.27170091
_cell_length_c   5.55049610
_cell_angle_alpha   90.00000000
_cell_angle_beta   90.00000000
_cell_angle_gamma   102.85792956
_symmetry_Int_Tables_number   1
_chemical_formula_structural   Sm3FeO6
_chemical_formula_sum   'Sm6 Fe2 O12'
_cell_volume   286.13762028
_cell_formula_units_Z   2
loop_
 _symmetry_equiv_pos_site_id
 _symmetry_equiv_pos_as_xyz
  1  'x, y, z'
loop_
 _atom_site_type_symbol
 _atom_site_label
 _atom_site_symmetry_multiplicity
 _atom_site_fract_x
 _atom_site_fract_y
 _atom_site_fract_z
 _atom_site_occupancy
  Sm  Sm0  1  0.58692416  0.79858115  0.04267422  1
  Sm  Sm1  1  0.20141885  0.41307584  0.04267422  1
  Sm  Sm2  1  0.41307584  0.20141885  0.54267422  1
  Sm  Sm3  1  0.79858115  0.58692416  0.54267422  1
  Sm  Sm4  1  0.10340223  0.89659777  0.99771582  1
  Sm  Sm5  1  0.89659777  0.10340223  0.49771582  1
  Fe  Fe0  1  0.30834809  0.69165191  0.57406139  1
  Fe  Fe1  1  0.69165191  0.30834809  0.07406139  1
  O  O0  1  0.17435755  0.14568820  0.27092704  1
  O  O1  1  0.85431180  0.82564245  0.27092704  1
  O  O2  1  0.82564245  0.85431180  0.77092704  1
  O  O3  1  0.14568820  0.17435755  0.77092704  1
  O  O4  1  0.60579559  0.08258079  0.24807273  1
  O  O5  1  0.91741921  0.39420441  0.24807273  1
  O  O6  1  0.39420441  0.91741921  0.74807273  1
  O  O7  1  0.08258079  0.60579559  0.74807273  1
  O  O8  1  0.54018969  0.45981031  0.21852362  1
  O  O9  1  0.45981031  0.54018969  0.71852362  1
  O  O10  1  0.28360280  0.71639720  0.23900120  1
  O  O11  1  0.71639720  0.28360280  0.73900120  1
loop_
_geom_bond_atom_site_label_1
_geom_bond_atom_site_label_2
_geom_bond_distance
_geom_bond_site_symmetry_2
Fe0 O10 1.880914 1_555
Fe0 O6 1.887243 1_555
Fe0 O7 1.887243 1_555
Fe0 O9 1.899723 1_555
Fe1 O11 1.880914 1_554
Fe1 O4 1.887243 1_555
Fe1 O5 1.887243 1_555
Fe1 O8 1.899723 1_555
O0 Sm2 2.267048 1_555
O0 Sm1 2.292173 1_555
O0 Sm4 2.330400 1_544
O0 Sm5 2.341415 1_455
O1 Sm3 2.267048 1_555
O1 Sm0 2.292173 1_555
O1 Sm4 2.330400 1_654
O1 Sm5 2.341415 1_565
O2 Sm0 2.267048 1_556
O2 Sm3 2.292173 1_555
O2 Sm5 2.330400 1_565
O2 Sm4 2.341415 1_655
O3 Sm1 2.267048 1_556
O3 Sm2 2.292173 1_555
O3 Sm5 2.330400 1_455
O3 Sm4 2.341415 1_545
O4 Sm0 2.336094 1_545
O4 Sm2 2.433825 1_555
O4 Sm5 2.504412 1_555
O5 Sm1 2.336094 1_655
O5 Sm3 2.433825 1_555
O5 Sm5 2.504412 1_555
O6 Sm2 2.336094 1_565
O6 Sm0 2.433825 1_556
O6 Sm4 2.504412 1_555
O7 Sm3 2.336094 1_455
O7 Sm1 2.433825 1_556
O7 Sm4 2.504412 1_555
O8 Sm1 2.600789 1_555
O8 Sm0 2.600789 1_555
O8 Sm2 2.617051 1_555
O8 Sm3 2.617051 1_555
O9 Sm2 2.600789 1_555
O9 Sm3 2.600789 1_555
O9 Sm0 2.617051 1_556
O9 Sm1 2.617051 1_556
O10 Sm1 2.413069 1_555
O10 Sm0 2.413069 1_555
O10 Sm4 2.447840 1_554
O11 Sm2 2.413069 1_555
O11 Sm3 2.413069 1_555
O11 Sm5 2.447840 1_555
