# generated using pymatgen
data_CaPrHfFeO6
_symmetry_space_group_name_H-M   'P 1'
_cell_length_a   5.68032198
_cell_length_b   5.68032198
_cell_length_c   5.68032198
_cell_angle_alpha   60.00000000
_cell_angle_beta   60.00000000
_cell_angle_gamma   60.00000000
_symmetry_Int_Tables_number   1
_chemical_formula_structural   CaPrHfFeO6
_chemical_formula_sum   'Ca1 Pr1 Hf1 Fe1 O6'
_cell_volume   129.59966019
_cell_formula_units_Z   1
loop_
 _symmetry_equiv_pos_site_id
 _symmetry_equiv_pos_as_xyz
  1  'x, y, z'
loop_
 _atom_site_type_symbol
 _atom_site_label
 _atom_site_symmetry_multiplicity
 _atom_site_fract_x
 _atom_site_fract_y
 _atom_site_fract_z
 _atom_site_occupancy
  Ca  Ca0  1  0.75000000  0.75000000  0.75000000  1
  Pr  Pr0  1  0.25000000  0.25000000  0.25000000  1
  Hf  Hf0  1  0.50000000  0.50000000  0.50000000  1
  Fe  Fe0  1  -0.00000000  -0.00000000  -0.00000000  1
  O  O0  1  0.75350784  0.24649216  0.24649216  1
  O  O1  1  0.24649216  0.75350784  0.75350784  1
  O  O2  1  0.75350784  0.24649216  0.75350784  1
  O  O3  1  0.24649216  0.75350784  0.24649216  1
  O  O4  1  0.75350784  0.75350784  0.24649216  1
  O  O5  1  0.24649216  0.24649216  0.75350784  1
loop_
_geom_bond_atom_site_label_1
_geom_bond_atom_site_label_2
_geom_bond_distance
_geom_bond_site_symmetry_2
Ca0 O1 2.840301 1_555
Ca0 O2 2.840301 1_555
Ca0 O4 2.840301 1_555
Ca0 O0 2.840301 1_565
Ca0 O3 2.840301 1_655
Ca0 O5 2.840301 1_655
Ca0 O5 2.840301 1_565
Ca0 O3 2.840301 1_556
Ca0 O0 2.840301 1_556
Ca0 O2 2.840301 1_565
Ca0 O1 2.840301 1_655
Ca0 O4 2.840301 1_556
Hf0 O5 2.036476 1_555
Hf0 O3 2.036476 1_555
Hf0 O0 2.036476 1_555
Hf0 O2 2.036476 1_555
Hf0 O4 2.036476 1_555
Hf0 O1 2.036476 1_555
Fe0 O4 1.980118 1_445
Fe0 O2 1.980118 1_454
Fe0 O1 1.980118 1_544
Fe0 O0 1.980118 1_455
Fe0 O3 1.980118 1_545
Fe0 O5 1.980118 1_554
O0 Pr0 2.840301 1_655
O0 Pr0 2.840301 1_555
O1 Pr0 2.840301 1_565
O1 Pr0 2.840301 1_556
O2 Pr0 2.840301 1_556
O2 Pr0 2.840301 1_655
O3 Pr0 2.840301 1_565
O3 Pr0 2.840301 1_555
O4 Pr0 2.840301 1_655
O4 Pr0 2.840301 1_565
O5 Pr0 2.840301 1_556
O5 Pr0 2.840301 1_555
