# generated using pymatgen
data_Hf3Al
_symmetry_space_group_name_H-M   'P 1'
_cell_length_a   6.12758459
_cell_length_b   6.12758459
_cell_length_c   4.96666119
_cell_angle_alpha   90.00000000
_cell_angle_beta   90.00000000
_cell_angle_gamma   120.00000513
_symmetry_Int_Tables_number   1
_chemical_formula_structural   Hf3Al
_chemical_formula_sum   'Hf6 Al2'
_cell_volume   161.50046435
_cell_formula_units_Z   2
loop_
 _symmetry_equiv_pos_site_id
 _symmetry_equiv_pos_as_xyz
  1  'x, y, z'
loop_
 _atom_site_type_symbol
 _atom_site_label
 _atom_site_symmetry_multiplicity
 _atom_site_fract_x
 _atom_site_fract_y
 _atom_site_fract_z
 _atom_site_occupancy
  Hf  Hf0  1  0.17044251  0.34088502  0.25000000  1
  Hf  Hf1  1  0.65911498  0.82955749  0.25000000  1
  Hf  Hf2  1  0.17044251  0.82955749  0.25000000  1
  Hf  Hf3  1  0.82955749  0.65911498  0.75000000  1
  Hf  Hf4  1  0.34088502  0.17044251  0.75000000  1
  Hf  Hf5  1  0.82955749  0.17044251  0.75000000  1
  Al  Al0  1  0.33333300  0.66666700  0.75000000  1
  Al  Al1  1  0.66666700  0.33333300  0.25000000  1
loop_
_geom_bond_atom_site_label_1
_geom_bond_atom_site_label_2
_geom_bond_distance
_geom_bond_site_symmetry_2
Hf0 Hf1 2.994382 1_555
Hf0 Hf2 2.994382 1_555
Hf0 Hf5 3.072336 1_455
Hf0 Hf5 3.072336 1_454
Hf0 Hf4 3.072336 1_555
Hf0 Hf4 3.072336 1_554
Hf0 Hf1 3.133202 1_445
Hf0 Hf2 3.133203 1_545
Hf1 Hf2 2.994382 1_555
Hf1 Hf5 3.072336 1_565
Hf1 Hf5 3.072336 1_564
Hf1 Hf3 3.072336 1_554
Hf1 Hf3 3.072336 1_555
Hf1 Hf2 3.133203 1_655
Hf2 Hf3 3.072336 1_454
Hf2 Hf4 3.072336 1_565
Hf2 Hf4 3.072336 1_564
Hf2 Hf3 3.072336 1_455
Hf3 Hf4 2.994382 1_555
Hf3 Hf5 2.994382 1_555
Hf3 Hf4 3.133202 1_665
Hf3 Hf5 3.133203 1_565
Hf4 Hf5 2.994382 1_555
Hf4 Hf5 3.133203 1_455
Al0 Hf2 3.025838 1_556
Al0 Hf2 3.025838 1_555
Al0 Hf0 3.025841 1_556
Al0 Hf1 3.025841 1_556
Al0 Hf1 3.025841 1_555
Al0 Hf0 3.025841 1_555
Al0 Hf4 3.064051 1_565
Al0 Hf3 3.064051 1_455
Al0 Hf5 3.064054 1_565
Al0 Hf5 3.064054 1_455
Al0 Hf3 3.064057 1_555
Al0 Hf4 3.064057 1_555
Al1 Hf5 3.025838 1_554
Al1 Hf5 3.025838 1_555
Al1 Hf4 3.025841 1_555
Al1 Hf4 3.025841 1_554
Al1 Hf3 3.025841 1_554
Al1 Hf3 3.025841 1_555
Al1 Hf0 3.064051 1_655
Al1 Hf1 3.064051 1_545
Al1 Hf2 3.064054 1_655
Al1 Hf2 3.064054 1_545
Al1 Hf0 3.064057 1_555
Al1 Hf1 3.064057 1_555
