# generated using pymatgen
data_SrNd3AlCuO8
_symmetry_space_group_name_H-M   'P 1'
_cell_length_a   6.93223596
_cell_length_b   6.93223596
_cell_length_c   5.32214100
_cell_angle_alpha   90.00000000
_cell_angle_beta   90.00000000
_cell_angle_gamma   134.77269068
_symmetry_Int_Tables_number   1
_chemical_formula_structural   SrNd3AlCuO8
_chemical_formula_sum   'Sr1 Nd3 Al1 Cu1 O8'
_cell_volume   181.56586783
_cell_formula_units_Z   1
loop_
 _symmetry_equiv_pos_site_id
 _symmetry_equiv_pos_as_xyz
  1  'x, y, z'
loop_
 _atom_site_type_symbol
 _atom_site_label
 _atom_site_symmetry_multiplicity
 _atom_site_fract_x
 _atom_site_fract_y
 _atom_site_fract_z
 _atom_site_occupancy
  Sr  Sr0  1  0.14460000  0.85540000  0.50000000  1
  Nd  Nd0  1  0.63755800  0.36244200  0.00000000  1
  Nd  Nd1  1  0.36139900  0.63860100  0.00000000  1
  Nd  Nd2  1  0.86145000  0.13855000  0.50000000  1
  Al  Al0  1  0.49752600  0.50247400  0.50000000  1
  Cu  Cu0  1  0.00438700  0.99561300  0.00000000  1
  O  O0  1  0.81514000  0.18486000  0.00000000  1
  O  O1  1  0.34053300  0.65946700  0.50000000  1
  O  O2  1  0.66925300  0.33074700  0.50000000  1
  O  O3  1  0.18447600  0.81552400  0.00000000  1
  O  O4  1  0.73781300  0.74597300  0.74548900  1
  O  O5  1  0.25402700  0.26218700  0.25451100  1
  O  O6  1  0.25402700  0.26218700  0.74548900  1
  O  O7  1  0.73781300  0.74597300  0.25451100  1
loop_
_geom_bond_atom_site_label_1
_geom_bond_atom_site_label_2
_geom_bond_distance
_geom_bond_site_symmetry_2
Nd0 O0 2.272792 1_555
Nd0 O5 2.604582 1_555
Nd0 O6 2.604582 1_554
Nd0 O7 2.604582 1_555
Nd0 O4 2.604582 1_554
Nd0 O2 2.691811 1_554
Nd0 O2 2.691811 1_555
Nd0 O3 2.732351 1_655
Nd0 O3 2.732351 1_545
Nd1 O3 2.264358 1_555
Nd1 O7 2.542028 1_555
Nd1 O4 2.542028 1_554
Nd1 O5 2.542028 1_555
Nd1 O6 2.542028 1_554
Nd1 O1 2.674437 1_555
Nd1 O1 2.674437 1_554
Nd1 O0 2.730510 1_455
Nd1 O0 2.730510 1_565
Nd2 O2 2.459843 1_555
Nd2 O4 2.561696 1_545
Nd2 O7 2.561696 1_545
Nd2 O6 2.561696 1_655
Nd2 O5 2.561696 1_655
Nd2 O1 2.678960 1_655
Nd2 O1 2.678960 1_545
Nd2 O0 2.726278 1_556
Nd2 O0 2.726278 1_555
Al0 O6 1.835862 1_555
Al0 O5 1.835862 1_555
Al0 O4 1.835862 1_555
Al0 O7 1.835862 1_555
Al0 O1 2.009283 1_555
Al0 O2 2.197857 1_555
Cu0 O7 1.933880 1_455
Cu0 O4 1.933880 1_454
Cu0 O5 1.933880 1_565
Cu0 O6 1.933880 1_564
Cu0 O3 2.304878 1_555
Cu0 O0 2.422088 1_465
O1 Sr0 2.507659 1_555
O2 Sr0 2.684160 1_545
O2 Sr0 2.684160 1_655
O3 Sr0 2.709568 1_555
O3 Sr0 2.709568 1_554
O4 Sr0 2.687259 1_655
O5 Sr0 2.687259 1_545
O6 Sr0 2.687259 1_545
O7 Sr0 2.687259 1_655
