# generated using pymatgen
data_Sr6Ca2Fe7CoO20
_symmetry_space_group_name_H-M   'P 1'
_cell_length_a   11.06490803
_cell_length_b   11.46105282
_cell_length_c   17.48151697
_cell_angle_alpha   109.07314819
_cell_angle_beta   108.59679525
_cell_angle_gamma   89.88518095
_symmetry_Int_Tables_number   1
_chemical_formula_structural   Sr6Ca2Fe7CoO20
_chemical_formula_sum   'Sr24 Ca8 Fe28 Co4 O80'
_cell_volume   1972.85414677
_cell_formula_units_Z   4
loop_
 _symmetry_equiv_pos_site_id
 _symmetry_equiv_pos_as_xyz
  1  'x, y, z'
loop_
 _atom_site_type_symbol
 _atom_site_label
 _atom_site_symmetry_multiplicity
 _atom_site_fract_x
 _atom_site_fract_y
 _atom_site_fract_z
 _atom_site_occupancy
  Sr  Sr0  1  0.30650400  0.06427500  0.61000500  1
  Sr  Sr1  1  0.30615100  0.56418000  0.61038600  1
  Sr  Sr2  1  0.80729800  0.06478900  0.61041400  1
  Sr  Sr3  1  0.80793500  0.56444500  0.61147800  1
  Sr  Sr4  1  0.19525800  0.43433100  0.38834800  1
  Sr  Sr5  1  0.19552600  0.43757400  0.89400500  1
  Sr  Sr6  1  0.19511800  0.93513000  0.38750600  1
  Sr  Sr7  1  0.69532700  0.43561900  0.38754100  1
  Sr  Sr8  1  0.70197300  0.43785900  0.89400800  1
  Sr  Sr9  1  0.69516500  0.93376400  0.38818000  1
  Sr  Sr10  1  0.70062100  0.93615000  0.89591700  1
  Sr  Sr11  1  0.05649200  0.29020900  0.10963500  1
  Sr  Sr12  1  0.05833400  0.29558300  0.61050500  1
  Sr  Sr13  1  0.05814400  0.79744500  0.61159700  1
  Sr  Sr14  1  0.55497500  0.29512600  0.60919800  1
  Sr  Sr15  1  0.55807000  0.79777300  0.10778100  1
  Sr  Sr16  1  0.55579200  0.79656700  0.61016600  1
  Sr  Sr17  1  0.44554300  0.20257200  0.38611200  1
  Sr  Sr18  1  0.44927400  0.20491100  0.89420200  1
  Sr  Sr19  1  0.44534600  0.70241600  0.38649500  1
  Sr  Sr20  1  0.45263600  0.71137100  0.89585000  1
  Sr  Sr21  1  0.94335200  0.20336900  0.38638800  1
  Sr  Sr22  1  0.94879300  0.20459900  0.89412400  1
  Sr  Sr23  1  0.94406900  0.70204300  0.38658100  1
  Ca  Ca0  1  0.30141600  0.06354300  0.10257600  1
  Ca  Ca1  1  0.29657700  0.56868400  0.10468200  1
  Ca  Ca2  1  0.79966400  0.06035200  0.10245000  1
  Ca  Ca3  1  0.80510600  0.57164200  0.10414900  1
  Ca  Ca4  1  0.20085800  0.93592100  0.89888200  1
  Ca  Ca5  1  0.04699200  0.78975100  0.10391900  1
  Ca  Ca6  1  0.55248500  0.28180200  0.10368900  1
  Ca  Ca7  1  0.94581100  0.71546300  0.89786900  1
  Fe  Fe0  1  0.00302100  0.99886300  0.49803300  1
  Fe  Fe1  1  0.00307300  0.50031200  0.49977400  1
  Fe  Fe2  1  0.50323800  0.99963400  0.49878800  1
  Fe  Fe3  1  0.50897700  0.50309800  0.00637200  1
  Fe  Fe4  1  0.50414500  0.50027500  0.49976600  1
  Fe  Fe5  1  0.25822000  0.25014500  0.00430800  1
  Fe  Fe6  1  0.25233800  0.24852700  0.49776400  1
  Fe  Fe7  1  0.25410600  0.75321100  0.00195000  1
  Fe  Fe8  1  0.25221100  0.74921500  0.49815400  1
  Fe  Fe9  1  0.75740200  0.25233700  0.00593900  1
  Fe  Fe10  1  0.75404000  0.25035700  0.49995900  1
  Fe  Fe11  1  0.75427200  0.74971100  0.50055300  1
  Fe  Fe12  1  0.10359400  0.08482800  0.24484400  1
  Fe  Fe13  1  0.11030200  0.08944200  0.75478900  1
  Fe  Fe14  1  0.10357700  0.59069000  0.24576500  1
  Fe  Fe15  1  0.10804600  0.59762100  0.75528400  1
  Fe  Fe16  1  0.60229300  0.08947300  0.24395300  1
  Fe  Fe17  1  0.60963200  0.09064400  0.75292800  1
  Fe  Fe18  1  0.60281700  0.58363900  0.24305200  1
  Fe  Fe19  1  0.61001100  0.59152600  0.75098400  1
  Fe  Fe20  1  0.35714800  0.40852400  0.24512500  1
  Fe  Fe21  1  0.35938800  0.41264800  0.75340000  1
  Fe  Fe22  1  0.35003900  0.90679100  0.24332400  1
  Fe  Fe23  1  0.35837700  0.91134400  0.75604600  1
  Fe  Fe24  1  0.85020700  0.40661800  0.24299900  1
  Fe  Fe25  1  0.85984400  0.41425900  0.75292100  1
  Fe  Fe26  1  0.85830000  0.91032000  0.24714300  1
  Fe  Fe27  1  0.86047800  0.90657700  0.75162900  1
  Co  Co0  1  0.00834400  0.00005700  0.00395200  1
  Co  Co1  1  0.00640000  0.50424300  0.00413300  1
  Co  Co2  1  0.50675500  0.00272500  0.00282800  1
  Co  Co3  1  0.75751500  0.75163900  0.00073600  1
  O  O0  1  0.12358900  0.12225800  0.49149000  1
  O  O1  1  0.12651100  0.11441100  0.98931400  1
  O  O2  1  0.12352700  0.62190800  0.49160600  1
  O  O3  1  0.12272200  0.62691500  0.99075500  1
  O  O4  1  0.62359900  0.12195700  0.49071800  1
  O  O5  1  0.62563200  0.12366600  0.99527800  1
  O  O6  1  0.62340000  0.62192700  0.49066100  1
  O  O7  1  0.62777200  0.61975100  0.99309700  1
  O  O8  1  0.13672500  0.38246600  0.01424800  1
  O  O9  1  0.13109000  0.37775300  0.50688400  1
  O  O10  1  0.13266000  0.88279700  0.01210800  1
  O  O11  1  0.13232800  0.87724300  0.50819900  1
  O  O12  1  0.63767600  0.38034400  0.01633200  1
  O  O13  1  0.63206100  0.37789500  0.50742200  1
  O  O14  1  0.63587600  0.88747300  0.01440300  1
  O  O15  1  0.63114600  0.87700200  0.50634800  1
  O  O16  1  0.37366700  0.11916200  0.49088800  1
  O  O17  1  0.37585700  0.11705700  0.99237500  1
  O  O18  1  0.37310500  0.61976000  0.49097400  1
  O  O19  1  0.37413600  0.61828600  0.99263500  1
  O  O20  1  0.87343400  0.11948800  0.49084100  1
  O  O21  1  0.87942200  0.11305800  0.99302500  1
  O  O22  1  0.87381500  0.61935300  0.49075900  1
  O  O23  1  0.88275000  0.62023000  0.99241700  1
  O  O24  1  0.38850300  0.38388100  0.01766600  1
  O  O25  1  0.38124100  0.37963300  0.50641200  1
  O  O26  1  0.38238800  0.88878500  0.01223900  1
  O  O27  1  0.38171900  0.87928100  0.50719500  1
  O  O28  1  0.88509000  0.38398000  0.01459800  1
  O  O29  1  0.88154600  0.37981700  0.50631500  1
  O  O30  1  0.89466600  0.88768700  0.01816700  1
  O  O31  1  0.88130600  0.87906300  0.50642100  1
  O  O32  1  0.09893200  0.10102500  0.14274800  1
  O  O33  1  0.08404900  0.09307100  0.64257400  1
  O  O34  1  0.09100300  0.60565600  0.14040200  1
  O  O35  1  0.07799500  0.59546500  0.64111800  1
  O  O36  1  0.58239800  0.09691700  0.13500900  1
  O  O37  1  0.58230200  0.09501700  0.64077200  1
  O  O38  1  0.59352000  0.60166900  0.13948300  1
  O  O39  1  0.58100400  0.59452900  0.63838800  1
  O  O40  1  0.44166500  0.40685500  0.35781300  1
  O  O41  1  0.44495100  0.40364600  0.86250800  1
  O  O42  1  0.43726300  0.90619000  0.35669900  1
  O  O43  1  0.44685100  0.91152800  0.86733100  1
  O  O44  1  0.93743300  0.40729300  0.35638200  1
  O  O45  1  0.94202200  0.39901900  0.85972400  1
  O  O46  1  0.94286600  0.90754700  0.36004300  1
  O  O47  1  0.94599300  0.88988700  0.85672700  1
  O  O48  1  0.33598400  0.28216700  0.13976800  1
  O  O49  1  0.33089900  0.29643600  0.64116800  1
  O  O50  1  0.33310900  0.78411800  0.13777800  1
  O  O51  1  0.33044300  0.79572100  0.64364000  1
  O  O52  1  0.83546100  0.27990700  0.13938800  1
  O  O53  1  0.83443800  0.29901900  0.64035300  1
  O  O54  1  0.84367200  0.78456000  0.14480900  1
  O  O55  1  0.83047100  0.79415000  0.63778500  1
  O  O56  1  0.18867100  0.20003500  0.35836500  1
  O  O57  1  0.19457900  0.20934400  0.86369000  1
  O  O58  1  0.18609600  0.70393400  0.35905500  1
  O  O59  1  0.19770800  0.71648200  0.86324700  1
  O  O60  1  0.68559900  0.20465900  0.35640400  1
  O  O61  1  0.69410900  0.20606000  0.86374900  1
  O  O62  1  0.68755000  0.69859100  0.35584000  1
  O  O63  1  0.69880800  0.70794000  0.85847900  1
  O  O64  1  0.42561300  0.05619800  0.23909900  1
  O  O65  1  0.43564000  0.05965400  0.75177800  1
  O  O66  1  0.42518500  0.55912400  0.23853700  1
  O  O67  1  0.43741200  0.56304900  0.75277000  1
  O  O68  1  0.92598900  0.06092400  0.23997200  1
  O  O69  1  0.93624800  0.05948900  0.75210100  1
  O  O70  1  0.92588400  0.55639000  0.23861500  1
  O  O71  1  0.93652400  0.57133400  0.76032700  1
  O  O72  1  0.18541000  0.44212500  0.24797800  1
  O  O73  1  0.18562000  0.44525100  0.75286200  1
  O  O74  1  0.17402600  0.92822200  0.24065600  1
  O  O75  1  0.18588600  0.93860200  0.76019400  1
  O  O76  1  0.67293600  0.42706700  0.23912600  1
  O  O77  1  0.68499900  0.43855100  0.75025300  1
  O  O78  1  0.68546300  0.94257800  0.24851300  1
  O  O79  1  0.68764900  0.94016800  0.75235800  1
loop_
_geom_bond_atom_site_label_1
_geom_bond_atom_site_label_2
_geom_bond_distance
_geom_bond_site_symmetry_2
Ca0 O48 2.372316 1_555
Ca0 O64 2.372878 1_555
Ca0 O26 2.477170 1_545
Ca0 O10 2.503995 1_545
Ca0 O1 2.512277 1_554
Ca0 O32 2.549496 1_555
Ca0 O17 2.559741 1_554
Ca0 O36 2.978695 1_555
Ca1 O50 2.348575 1_555
Ca1 O66 2.357048 1_555
Ca1 O8 2.491854 1_555
Ca1 O34 2.544149 1_555
Ca1 O3 2.555865 1_554
Ca1 O19 2.588091 1_554
Ca1 O24 2.589827 1_555
Ca2 O68 2.362186 1_555
Ca2 O52 2.384262 1_555
Ca2 O14 2.412774 1_545
Ca2 O30 2.503190 1_545
Ca2 O5 2.515280 1_554
Ca2 O21 2.576246 1_554
Ca2 O36 2.644192 1_555
Ca3 O54 2.306367 1_555
Ca3 O70 2.367727 1_555
Ca3 O7 2.487705 1_554
Ca3 O28 2.556456 1_555
Ca3 O12 2.568734 1_555
Ca3 O23 2.578071 1_554
Ca3 O38 2.600250 1_555
Ca4 O59 2.382664 1_555
Ca4 O75 2.387251 1_555
Ca4 O1 2.463722 1_565
Ca4 O26 2.531776 1_556
Ca4 O17 2.551586 1_565
Ca4 O10 2.569073 1_556
Ca4 O47 2.683378 1_455
Ca4 O43 2.940199 1_555
Ca5 O74 2.365356 1_555
Ca5 O34 2.402692 1_555
Ca5 O30 2.414232 1_455
Ca5 O23 2.481262 1_454
Ca5 O54 2.574831 1_455
Ca5 O10 2.589358 1_555
Ca5 O3 2.595540 1_554
Ca6 O36 2.353558 1_555
Ca6 O76 2.360919 1_555
Ca6 O5 2.501847 1_554
Ca6 O24 2.514638 1_555
Ca6 O17 2.521746 1_554
Ca6 O12 2.558483 1_555
Ca6 O48 2.664294 1_555
Ca6 O52 2.992662 1_555
Ca7 O47 2.335429 1_555
Ca7 O71 2.401641 1_555
Ca7 O23 2.515498 1_555
Ca7 O3 2.557368 1_655
Ca7 O30 2.584701 1_556
Ca7 O63 2.590953 1_555
Ca7 O10 2.611529 1_656
Fe0 O20 1.993422 1_465
Fe0 O31 1.996360 1_455
Fe0 O0 2.000877 1_565
Fe0 O11 2.003335 1_555
Fe0 O46 2.164753 1_455
Fe0 O33 2.265004 1_565
Fe1 O22 1.980085 1_455
Fe1 O29 1.984220 1_455
Fe1 O9 1.997198 1_555
Fe1 O2 1.999457 1_555
Fe1 O35 2.217652 1_555
Fe1 O44 2.245665 1_455
Fe2 O16 1.985120 1_565
Fe2 O15 1.997510 1_555
Fe2 O27 1.999542 1_555
Fe2 O4 2.003894 1_565
Fe2 O42 2.226614 1_555
Fe2 O37 2.228615 1_565
Fe3 O7 1.993365 1_554
Fe3 O19 1.999346 1_554
Fe3 O12 2.007853 1_555
Fe3 O24 2.008569 1_555
Fe3 O38 2.112812 1_555
Fe3 O41 2.262628 1_554
Fe4 O13 1.995599 1_555
Fe4 O25 1.996997 1_555
Fe4 O18 1.997185 1_555
Fe4 O6 1.999217 1_555
Fe4 O39 2.177393 1_555
Fe4 O40 2.225918 1_555
Fe5 O17 2.005415 1_554
Fe5 O24 2.010526 1_555
Fe5 O8 2.026303 1_555
Fe5 O1 2.027703 1_554
Fe5 O48 2.148578 1_555
Fe5 O57 2.214350 1_554
Fe6 O0 1.985117 1_555
Fe6 O9 1.998249 1_555
Fe6 O16 1.998372 1_555
Fe6 O25 2.009385 1_555
Fe6 O56 2.182922 1_555
Fe6 O49 2.248143 1_555
Fe7 O3 1.971989 1_554
Fe7 O10 2.003730 1_555
Fe7 O26 2.030969 1_555
Fe7 O19 2.036384 1_554
Fe7 O50 2.157645 1_555
Fe7 O59 2.194280 1_554
Fe8 O11 1.978855 1_555
Fe8 O2 1.991139 1_555
Fe8 O18 1.995973 1_555
Fe8 O27 2.002685 1_555
Fe8 O58 2.181662 1_555
Fe8 O51 2.283325 1_555
Fe9 O12 1.977847 1_555
Fe9 O5 1.997749 1_554
Fe9 O28 2.004577 1_555
Fe9 O21 2.090984 1_554
Fe9 O52 2.126592 1_555
Fe9 O61 2.231595 1_554
Fe10 O13 1.988735 1_555
Fe10 O4 1.994817 1_555
Fe10 O20 1.997617 1_555
Fe10 O29 2.001247 1_555
Fe10 O53 2.200197 1_555
Fe10 O60 2.253026 1_555
Fe11 O6 1.988718 1_555
Fe11 O15 1.994534 1_555
Fe11 O22 1.995103 1_555
Fe11 O31 2.000280 1_555
Fe11 O55 2.153755 1_555
Fe11 O62 2.264958 1_555
Fe12 O32 1.838581 1_555
Fe12 O56 1.915423 1_555
Fe12 O74 1.944008 1_545
Fe12 O68 1.955610 1_455
Fe13 O57 1.882913 1_555
Fe13 O33 1.903721 1_555
Fe13 O75 1.935881 1_545
Fe13 O69 1.939975 1_455
Fe14 O34 1.866635 1_555
Fe14 O58 1.900524 1_555
Fe14 O72 1.932650 1_555
Fe14 O70 1.962186 1_455
Fe15 O59 1.879621 1_555
Fe15 O35 1.907592 1_555
Fe15 O73 1.938309 1_555
Fe15 O71 1.956230 1_455
Fe16 O36 1.876592 1_555
Fe16 O60 1.899988 1_555
Fe16 O78 1.929345 1_545
Fe16 O64 1.962268 1_555
Fe17 O61 1.884629 1_555
Fe17 O37 1.903715 1_555
Fe17 O79 1.925586 1_545
Fe17 O65 1.950989 1_555
Fe18 O38 1.859298 1_555
Fe18 O62 1.905404 1_555
Fe18 O76 1.942864 1_555
Fe18 O66 1.958843 1_555
Fe19 O63 1.861679 1_555
Fe19 O39 1.902599 1_555
Fe19 O77 1.936186 1_555
Fe19 O67 1.949870 1_555
Fe20 O48 1.878132 1_555
Fe20 O40 1.898734 1_555
Fe20 O66 1.936395 1_555
Fe20 O72 1.951093 1_555
Fe21 O41 1.876567 1_555
Fe21 O49 1.903183 1_555
Fe21 O67 1.934223 1_555
Fe21 O73 1.955627 1_555
Fe22 O50 1.871210 1_555
Fe22 O42 1.910122 1_555
Fe22 O64 1.940281 1_565
Fe22 O74 1.950169 1_555
Fe23 O43 1.877679 1_555
Fe23 O51 1.904034 1_555
Fe23 O65 1.937810 1_565
Fe23 O75 1.953631 1_555
Fe24 O52 1.873420 1_555
Fe24 O44 1.905302 1_555
Fe24 O70 1.945826 1_555
Fe24 O76 1.957235 1_555
Fe25 O45 1.863591 1_555
Fe25 O53 1.909437 1_555
Fe25 O71 1.939396 1_555
Fe25 O77 1.941986 1_555
Fe26 O54 1.853402 1_555
Fe26 O46 1.906539 1_555
Fe26 O68 1.939719 1_565
Fe26 O78 1.953260 1_555
Fe27 O47 1.851387 1_555
Fe27 O55 1.906729 1_555
Fe27 O69 1.940711 1_565
Fe27 O79 1.953151 1_555
Co0 O10 1.926477 1_545
Co0 O30 1.928095 1_445
Co0 O21 1.931116 1_454
Co0 O1 1.982985 1_554
Co0 O32 2.202153 1_555
Co0 O47 2.332684 1_444
Co1 O23 1.916482 1_454
Co1 O8 2.012282 1_555
Co1 O28 2.015900 1_455
Co1 O3 2.025371 1_554
Co1 O34 2.162072 1_555
Co1 O45 2.280702 1_454
Co2 O14 1.951844 1_545
Co2 O17 1.956608 1_554
Co2 O5 1.976488 1_554
Co2 O26 1.979408 1_545
Co2 O36 2.084507 1_555
Co2 O43 2.127405 1_544
Co3 O7 2.029316 1_554
Co3 O23 2.046135 1_554
Co3 O30 2.056973 1_555
Co3 O14 2.060543 1_555
Co3 O63 2.239256 1_554
Co3 O54 2.289882 1_555
O0 Sr6 2.625522 1_545
O0 Sr21 2.643678 1_455
O0 Sr12 2.654711 1_555
O0 Sr0 2.655244 1_555
O1 Sr22 2.594862 1_455
O1 Sr11 2.710617 1_556
O2 Sr4 2.623143 1_555
O2 Sr23 2.631881 1_455
O2 Sr1 2.654996 1_555
O2 Sr13 2.678610 1_555
O3 Sr5 2.584949 1_555
O4 Sr9 2.619934 1_545
O4 Sr17 2.622649 1_555
O4 Sr14 2.667582 1_555
O4 Sr2 2.667804 1_555
O5 Sr18 2.581845 1_555
O5 Sr10 2.607057 1_545
O6 Sr7 2.614407 1_555
O6 Sr19 2.617403 1_555
O6 Sr16 2.681096 1_555
O6 Sr3 2.686527 1_555
O7 Sr8 2.561395 1_555
O7 Sr20 2.608702 1_555
O7 Sr15 2.661518 1_556
O8 Sr11 2.605190 1_555
O8 Sr5 2.642419 1_554
O8 Sr22 2.706224 1_454
O9 Sr1 2.616439 1_555
O9 Sr12 2.620004 1_555
O9 Sr4 2.652732 1_555
O9 Sr21 2.687214 1_455
O11 Sr13 2.609063 1_555
O11 Sr0 2.610025 1_565
O11 Sr6 2.688154 1_555
O11 Sr23 2.700610 1_455
O12 Sr18 2.705416 1_554
O12 Sr8 2.721566 1_554
O13 Sr14 2.620528 1_555
O13 Sr3 2.623802 1_555
O13 Sr7 2.676451 1_555
O13 Sr17 2.689681 1_555
O14 Sr15 2.541544 1_555
O14 Sr10 2.611144 1_554
O14 Sr20 2.661244 1_554
O15 Sr16 2.626896 1_555
O15 Sr2 2.633824 1_565
O15 Sr9 2.646848 1_555
O15 Sr19 2.673841 1_555
O16 Sr6 2.620342 1_545
O16 Sr17 2.641554 1_555
O16 Sr14 2.648258 1_555
O16 Sr0 2.670047 1_555
O17 Sr18 2.577017 1_555
O18 Sr4 2.623130 1_555
O18 Sr19 2.633877 1_555
O18 Sr16 2.665430 1_555
O18 Sr1 2.677614 1_555
O19 Sr5 2.584078 1_555
O19 Sr20 2.622227 1_555
O19 Sr15 2.668946 1_556
O20 Sr9 2.627723 1_545
O20 Sr21 2.628358 1_555
O20 Sr2 2.670557 1_555
O20 Sr12 2.676306 1_655
O21 Sr10 2.555658 1_545
O21 Sr22 2.591199 1_555
O21 Sr11 2.622994 1_656
O22 Sr7 2.617463 1_555
O22 Sr23 2.617841 1_555
O22 Sr3 2.689229 1_555
O22 Sr13 2.690576 1_655
O23 Sr8 2.607947 1_555
O24 Sr18 2.710114 1_554
O24 Sr5 2.744340 1_554
O25 Sr14 2.605570 1_555
O25 Sr1 2.628951 1_555
O25 Sr4 2.649370 1_555
O25 Sr17 2.684483 1_555
O26 Sr15 2.591546 1_555
O26 Sr20 2.679001 1_554
O27 Sr16 2.597195 1_555
O27 Sr0 2.621966 1_565
O27 Sr6 2.676803 1_555
O27 Sr19 2.683885 1_555
O28 Sr11 2.580929 1_655
O28 Sr8 2.655596 1_554
O28 Sr22 2.696352 1_554
O29 Sr3 2.631823 1_555
O29 Sr12 2.635368 1_655
O29 Sr21 2.662836 1_555
O29 Sr7 2.664530 1_555
O30 Sr10 2.707420 1_554
O31 Sr13 2.627994 1_655
O31 Sr2 2.630593 1_565
O31 Sr9 2.652193 1_555
O31 Sr23 2.670560 1_555
O32 Sr11 2.428936 1_555
O33 Sr12 2.555053 1_555
O33 Sr0 2.694362 1_555
O33 Sr2 2.930048 1_455
O35 Sr13 2.525824 1_555
O35 Sr1 2.743347 1_555
O35 Sr3 2.867136 1_455
O37 Sr14 2.524708 1_555
O37 Sr2 2.705301 1_555
O37 Sr0 2.925706 1_555
O38 Sr15 2.486843 1_555
O39 Sr16 2.517805 1_555
O39 Sr3 2.699831 1_555
O39 Sr1 2.924565 1_555
O40 Sr17 2.543874 1_555
O40 Sr7 2.686631 1_555
O40 Sr4 2.938148 1_555
O41 Sr18 2.510911 1_555
O41 Sr8 2.722021 1_555
O41 Sr5 2.982656 1_555
O42 Sr19 2.549157 1_555
O42 Sr9 2.726612 1_555
O42 Sr6 2.894615 1_555
O43 Sr20 2.498330 1_555
O43 Sr10 2.688853 1_555
O44 Sr21 2.553542 1_555
O44 Sr4 2.724041 1_655
O44 Sr7 2.896574 1_555
O45 Sr22 2.485706 1_555
O45 Sr5 2.679955 1_655
O45 Sr8 2.906643 1_555
O46 Sr23 2.544182 1_555
O46 Sr6 2.677795 1_655
O46 Sr9 2.933277 1_555
O47 Sr10 3.010817 1_555
O48 Sr11 2.973452 1_555
O49 Sr0 2.532052 1_555
O49 Sr14 2.708889 1_555
O49 Sr12 2.889413 1_555
O50 Sr15 2.717204 1_555
O51 Sr1 2.519388 1_555
O51 Sr16 2.737580 1_555
O51 Sr13 2.884900 1_555
O52 Sr11 2.668051 1_655
O53 Sr2 2.560371 1_555
O53 Sr12 2.687365 1_655
O53 Sr14 2.961592 1_555
O54 Sr15 3.030840 1_555
O55 Sr3 2.518492 1_555
O55 Sr13 2.702693 1_655
O55 Sr16 2.922955 1_555
O56 Sr4 2.558774 1_555
O56 Sr17 2.725139 1_555
O56 Sr21 2.906041 1_455
O57 Sr5 2.492737 1_555
O57 Sr18 2.699553 1_555
O57 Sr22 2.936767 1_455
O58 Sr6 2.527171 1_555
O58 Sr19 2.754405 1_555
O58 Sr23 2.869269 1_455
O59 Sr20 2.698275 1_555
O60 Sr7 2.517305 1_555
O60 Sr21 2.731366 1_555
O60 Sr17 2.865989 1_555
O61 Sr8 2.529499 1_555
O61 Sr22 2.697199 1_555
O61 Sr18 2.923572 1_555
O62 Sr9 2.562454 1_555
O62 Sr23 2.712992 1_555
O62 Sr19 2.893356 1_555
O63 Sr10 2.478470 1_555
O63 Sr20 2.994260 1_555
O64 Sr17 2.508023 1_555
O65 Sr0 2.452299 1_555
O65 Sr18 2.458827 1_555
O66 Sr19 2.508840 1_555
O67 Sr1 2.453651 1_555
O67 Sr20 2.475470 1_555
O68 Sr21 2.492037 1_555
O69 Sr2 2.453253 1_555
O69 Sr22 2.455995 1_555
O70 Sr23 2.522968 1_555
O71 Sr3 2.511255 1_555
O72 Sr11 2.443934 1_555
O72 Sr4 2.452357 1_555
O73 Sr5 2.465185 1_555
O73 Sr12 2.470528 1_555
O74 Sr6 2.477127 1_555
O75 Sr13 2.506770 1_555
O76 Sr7 2.495282 1_555
O77 Sr14 2.439275 1_555
O77 Sr8 2.462268 1_555
O78 Sr15 2.433715 1_555
O78 Sr9 2.444805 1_555
O79 Sr16 2.457439 1_555
O79 Sr10 2.483287 1_555
