# generated using pymatgen
data_CaTa2CuO7
_symmetry_space_group_name_H-M   'P 1'
_cell_length_a   8.98814100
_cell_length_b   10.83360200
_cell_length_c   10.92658149
_cell_angle_alpha   86.18562240
_cell_angle_beta   90.00000000
_cell_angle_gamma   90.00000000
_symmetry_Int_Tables_number   1
_chemical_formula_structural   CaTa2CuO7
_chemical_formula_sum   'Ca6 Ta12 Cu6 O42'
_cell_volume   1061.60742908
_cell_formula_units_Z   6
loop_
 _symmetry_equiv_pos_site_id
 _symmetry_equiv_pos_as_xyz
  1  'x, y, z'
loop_
 _atom_site_type_symbol
 _atom_site_label
 _atom_site_symmetry_multiplicity
 _atom_site_fract_x
 _atom_site_fract_y
 _atom_site_fract_z
 _atom_site_occupancy
  Ca  Ca0  1  0.44254800  0.57359800  0.84004300  1
  Ca  Ca1  1  0.94581700  0.75000000  0.50000000  1
  Ca  Ca2  1  0.44254800  0.92640200  0.15995700  1
  Ca  Ca3  1  0.05418300  0.25000000  0.50000000  1
  Ca  Ca4  1  0.55745200  0.42640200  0.15995700  1
  Ca  Ca5  1  0.55745200  0.07359800  0.84004300  1
  Ta  Ta0  1  0.19772300  0.29018100  0.83171200  1
  Ta  Ta1  1  0.75137500  0.38166700  0.83881500  1
  Ta  Ta2  1  0.24862500  0.88166700  0.83881500  1
  Ta  Ta3  1  0.80227700  0.79018100  0.83171200  1
  Ta  Ta4  1  0.30465700  0.96621900  0.52483000  1
  Ta  Ta5  1  0.75137500  0.11833300  0.16118500  1
  Ta  Ta6  1  0.69534300  0.46621900  0.52483000  1
  Ta  Ta7  1  0.24862500  0.61833300  0.16118500  1
  Ta  Ta8  1  0.30465700  0.53378100  0.47517000  1
  Ta  Ta9  1  0.69534300  0.03378100  0.47517000  1
  Ta  Ta10  1  0.80227700  0.70981900  0.16828800  1
  Ta  Ta11  1  0.19772300  0.20981900  0.16828800  1
  Cu  Cu0  1  0.92506100  0.41073200  0.19951300  1
  Cu  Cu1  1  0.07493900  0.58926800  0.80048700  1
  Cu  Cu2  1  0.42836600  0.25000000  0.50000000  1
  Cu  Cu3  1  0.92506100  0.08926800  0.80048700  1
  Cu  Cu4  1  0.57163400  0.75000000  0.50000000  1
  Cu  Cu5  1  0.07493900  0.91073200  0.19951300  1
  O  O0  1  0.77088600  0.96128300  0.79891700  1
  O  O1  1  0.77032200  0.29067000  0.16377800  1
  O  O2  1  0.85566900  0.75000000  0.00000000  1
  O  O3  1  0.87377900  0.10610300  0.48886800  1
  O  O4  1  0.38282300  0.57068500  0.04702600  1
  O  O5  1  0.93693000  0.71476000  0.72796500  1
  O  O6  1  0.35593500  0.94311000  0.69671100  1
  O  O7  1  0.12622100  0.60610300  0.48886800  1
  O  O8  1  0.72862900  0.86798500  0.52839700  1
  O  O9  1  0.38282300  0.92931500  0.95297400  1
  O  O10  1  0.72862900  0.63201500  0.47160300  1
  O  O11  1  0.44360900  0.88444400  0.43064900  1
  O  O12  1  0.92992100  0.03634800  0.15415400  1
  O  O13  1  0.06307000  0.21476000  0.72796500  1
  O  O14  1  0.64406500  0.05689000  0.30328900  1
  O  O15  1  0.35593500  0.55689000  0.30328900  1
  O  O16  1  0.93693000  0.78524000  0.27203500  1
  O  O17  1  0.61717700  0.42931500  0.95297400  1
  O  O18  1  0.22911400  0.46128300  0.79891700  1
  O  O19  1  0.55639100  0.11555600  0.56935100  1
  O  O20  1  0.37875000  0.27853100  0.18723300  1
  O  O21  1  0.27137100  0.13201500  0.47160300  1
  O  O22  1  0.07007900  0.53634800  0.15415400  1
  O  O23  1  0.27137100  0.36798500  0.52839700  1
  O  O24  1  0.87377900  0.39389700  0.51113200  1
  O  O25  1  0.55639100  0.38444400  0.43064900  1
  O  O26  1  0.12622100  0.89389700  0.51113200  1
  O  O27  1  0.62125000  0.77853100  0.18723300  1
  O  O28  1  0.62125000  0.72146900  0.81276700  1
  O  O29  1  0.07007900  0.96365200  0.84584600  1
  O  O30  1  0.06307000  0.28524000  0.27203500  1
  O  O31  1  0.77088600  0.53871700  0.20108300  1
  O  O32  1  0.14433100  0.25000000  0.00000000  1
  O  O33  1  0.22967800  0.79067000  0.16377800  1
  O  O34  1  0.61717700  0.07068500  0.04702600  1
  O  O35  1  0.92992100  0.46365200  0.84584600  1
  O  O36  1  0.22911400  0.03871700  0.20108300  1
  O  O37  1  0.77032200  0.20933000  0.83622200  1
  O  O38  1  0.44360900  0.61555600  0.56935100  1
  O  O39  1  0.64406500  0.44311000  0.69671100  1
  O  O40  1  0.22967800  0.70933000  0.83622200  1
  O  O41  1  0.37875000  0.22146900  0.81276700  1
loop_
_geom_bond_atom_site_label_1
_geom_bond_atom_site_label_2
_geom_bond_distance
_geom_bond_site_symmetry_2
Ca0 O28 2.274093 1_555
Ca0 O4 2.322624 1_556
Ca0 O18 2.331391 1_555
Ca0 O40 2.411760 1_555
Ca0 O17 2.484536 1_555
Ca0 O39 2.833094 1_555
Ca0 O38 2.962440 1_555
Ca1 O26 2.258211 1_655
Ca1 O7 2.258211 1_655
Ca1 O10 2.365080 1_555
Ca1 O8 2.365080 1_555
Ca1 O5 2.496014 1_555
Ca1 O16 2.496014 1_555
Ca2 O27 2.274093 1_555
Ca2 O9 2.322624 1_554
Ca2 O36 2.331391 1_565
Ca2 O33 2.411760 1_555
Ca2 O34 2.484536 1_565
Ca2 O14 2.833094 1_565
Ca2 O11 2.962440 1_555
Ca3 O24 2.258211 1_455
Ca3 O3 2.258211 1_455
Ca3 O23 2.365080 1_555
Ca3 O21 2.365080 1_555
Ca3 O30 2.496014 1_555
Ca3 O13 2.496014 1_555
Ca4 O20 2.274093 1_555
Ca4 O17 2.322624 1_554
Ca4 O31 2.331391 1_555
Ca4 O1 2.411760 1_555
Ca4 O4 2.484536 1_555
Ca4 O15 2.833094 1_555
Ca4 O25 2.962440 1_555
Ca5 O41 2.274093 1_555
Ca5 O34 2.322624 1_556
Ca5 O0 2.331391 1_545
Ca5 O37 2.411760 1_555
Ca5 O9 2.484536 1_545
Ca5 O6 2.833094 1_545
Ca5 O19 2.962440 1_555
Cu0 O22 1.925315 1_655
Cu0 O1 1.961181 1_555
Cu0 O31 1.961184 1_555
Cu0 O30 1.967642 1_655
Cu1 O35 1.925315 1_455
Cu1 O40 1.961181 1_555
Cu1 O18 1.961184 1_555
Cu1 O5 1.967642 1_455
Cu2 O23 1.942686 1_555
Cu2 O21 1.942686 1_555
Cu2 O25 1.967975 1_555
Cu2 O19 1.967975 1_555
Cu3 O29 1.925315 1_645
Cu3 O37 1.961181 1_555
Cu3 O0 1.961184 1_545
Cu3 O13 1.967642 1_655
Cu4 O10 1.942686 1_555
Cu4 O8 1.942686 1_555
Cu4 O11 1.967975 1_555
Cu4 O38 1.967975 1_555
Cu5 O12 1.925315 1_465
Cu5 O33 1.961181 1_555
Cu5 O36 1.961184 1_565
Cu5 O16 1.967642 1_455
O0 Ta3 1.885646 1_555
O1 Ta5 1.876871 1_555
O2 Ta3 1.922114 1_554
O2 Ta10 1.922114 1_555
O3 Ta9 1.795575 1_555
O4 Ta7 1.833835 1_555
O5 Ta3 1.881671 1_555
O6 Ta2 1.909654 1_555
O6 Ta4 1.933830 1_555
O7 Ta8 1.795575 1_555
O8 Ta9 1.874830 1_565
O9 Ta2 1.833835 1_555
O10 Ta6 1.874830 1_555
O11 Ta4 1.877484 1_555
O12 Ta5 1.838271 1_555
O13 Ta0 1.881671 1_555
O14 Ta5 1.909654 1_555
O14 Ta9 1.933830 1_555
O15 Ta7 1.909654 1_555
O15 Ta8 1.933830 1_555
O16 Ta10 1.881671 1_555
O17 Ta1 1.833835 1_555
O18 Ta0 1.885646 1_555
O19 Ta9 1.877484 1_555
O20 Ta11 1.806910 1_555
O21 Ta4 1.874830 1_545
O22 Ta7 1.838271 1_555
O23 Ta8 1.874830 1_555
O24 Ta6 1.795575 1_555
O25 Ta6 1.877484 1_555
O26 Ta4 1.795575 1_555
O27 Ta10 1.806910 1_555
O28 Ta3 1.806910 1_555
O29 Ta2 1.838271 1_555
O30 Ta11 1.881671 1_555
O31 Ta10 1.885646 1_555
O32 Ta0 1.922114 1_554
O32 Ta11 1.922114 1_555
O33 Ta7 1.876871 1_555
O34 Ta5 1.833835 1_555
O35 Ta1 1.838271 1_555
O36 Ta11 1.885646 1_555
O37 Ta1 1.876871 1_555
O38 Ta8 1.877484 1_555
O39 Ta1 1.909654 1_555
O39 Ta6 1.933830 1_555
O40 Ta2 1.876871 1_555
O41 Ta0 1.806910 1_555
