# generated using pymatgen
data_Li2CeSm(MoO4)4
_symmetry_space_group_name_H-M   'P 1'
_cell_length_a   5.22665400
_cell_length_b   5.22665400
_cell_length_c   9.69072100
_cell_angle_alpha   90.00000000
_cell_angle_beta   90.00000000
_cell_angle_gamma   90.00000000
_symmetry_Int_Tables_number   1
_chemical_formula_structural   Li2CeSm(MoO4)4
_chemical_formula_sum   'Li2 Ce1 Sm1 Mo4 O16'
_cell_volume   264.73026384
_cell_formula_units_Z   1
loop_
 _symmetry_equiv_pos_site_id
 _symmetry_equiv_pos_as_xyz
  1  'x, y, z'
loop_
 _atom_site_type_symbol
 _atom_site_label
 _atom_site_symmetry_multiplicity
 _atom_site_fract_x
 _atom_site_fract_y
 _atom_site_fract_z
 _atom_site_occupancy
  Li  Li0  1  0.50000000  0.75000000  0.12534100  1
  Li  Li1  1  0.00000000  0.25000000  0.62465900  1
  Ce  Ce0  1  0.50000000  0.25000000  0.87500000  1
  Sm  Sm0  1  0.00000000  0.75000000  0.37500000  1
  Mo  Mo0  1  0.00000000  0.25000000  0.12636600  1
  Mo  Mo1  1  0.50000000  0.75000000  0.62363400  1
  Mo  Mo2  1  0.50000000  0.25000000  0.37500000  1
  Mo  Mo3  1  0.00000000  0.75000000  0.87500000  1
  O  O0  1  0.80487200  0.42797900  0.27379000  1
  O  O1  1  0.31007000  0.94255900  0.77003800  1
  O  O2  1  0.19512800  0.07202100  0.27379000  1
  O  O3  1  0.68993000  0.55744100  0.77003800  1
  O  O4  1  0.21741400  0.94018900  0.02815200  1
  O  O5  1  0.72245800  0.43975600  0.52462400  1
  O  O6  1  0.78258600  0.55981100  0.02815200  1
  O  O7  1  0.27754200  0.06024400  0.52462400  1
  O  O8  1  0.68975600  0.02754200  0.22537600  1
  O  O9  1  0.19018900  0.53258600  0.72184800  1
  O  O10  1  0.31024400  0.47245800  0.22537600  1
  O  O11  1  0.80981100  0.96741400  0.72184800  1
  O  O12  1  0.32202100  0.55487200  0.47621000  1
  O  O13  1  0.80744100  0.06007000  0.97996200  1
  O  O14  1  0.67797900  0.94512800  0.47621000  1
  O  O15  1  0.19255900  0.43993000  0.97996200  1
loop_
_geom_bond_atom_site_label_1
_geom_bond_atom_site_label_2
_geom_bond_distance
_geom_bond_site_symmetry_2
Li0 O8 2.006911 1_565
Li0 O10 2.006911 1_555
Li0 O6 2.014114 1_555
Li0 O4 2.014114 1_555
Li1 O5 2.006911 1_455
Li1 O7 2.006911 1_555
Li1 O9 2.014114 1_555
Li1 O11 2.014114 1_445
Ce0 O3 2.145262 1_555
Ce0 O1 2.145262 1_545
Ce0 O13 2.145262 1_555
Ce0 O15 2.145262 1_555
Ce0 O4 2.646928 1_546
Ce0 O11 2.646928 1_545
Ce0 O6 2.646928 1_556
Ce0 O9 2.646928 1_555
Mo0 O2 1.986578 1_555
Mo0 O0 1.986578 1_455
Mo0 O13 2.002811 1_454
Mo0 O15 2.002811 1_554
Mo0 O4 2.195266 1_545
Mo0 O6 2.195266 1_455
Mo0 O8 2.214019 1_455
Mo0 O10 2.214019 1_555
Mo1 O12 1.986578 1_555
Mo1 O14 1.986578 1_555
Mo1 O1 2.002811 1_555
Mo1 O3 2.002811 1_555
Mo1 O11 2.195266 1_555
Mo1 O9 2.195266 1_555
Mo1 O7 2.214019 1_565
Mo1 O5 2.214019 1_555
Mo2 O2 2.089597 1_555
Mo2 O12 2.089597 1_555
Mo2 O14 2.089597 1_545
Mo2 O0 2.089597 1_555
Mo2 O7 2.106642 1_555
Mo2 O5 2.106642 1_555
Mo2 O10 2.106642 1_555
Mo2 O8 2.106642 1_555
Mo3 O9 2.117106 1_555
Mo3 O4 2.117106 1_556
Mo3 O11 2.117106 1_455
Mo3 O6 2.117106 1_456
Mo3 O3 2.161936 1_455
Mo3 O15 2.161936 1_555
Mo3 O13 2.161936 1_465
Mo3 O1 2.161936 1_555
O0 Sm0 2.198839 1_655
O2 Sm0 2.198839 1_545
O5 Sm0 2.614588 1_655
O7 Sm0 2.614588 1_545
O8 Sm0 2.614588 1_645
O10 Sm0 2.614588 1_555
O12 Sm0 2.198839 1_555
O14 Sm0 2.198839 1_655
