# generated using pymatgen
data_Ti4Fe2P3
_symmetry_space_group_name_H-M   'P 1'
_cell_length_a   6.21062410
_cell_length_b   6.21062410
_cell_length_c   3.46562400
_cell_angle_alpha   90.00000000
_cell_angle_beta   90.00000000
_cell_angle_gamma   118.05591232
_symmetry_Int_Tables_number   1
_chemical_formula_structural   Ti4Fe2P3
_chemical_formula_sum   'Ti4 Fe2 P3'
_cell_volume   117.96719423
_cell_formula_units_Z   1
loop_
 _symmetry_equiv_pos_site_id
 _symmetry_equiv_pos_as_xyz
  1  'x, y, z'
loop_
 _atom_site_type_symbol
 _atom_site_label
 _atom_site_symmetry_multiplicity
 _atom_site_fract_x
 _atom_site_fract_y
 _atom_site_fract_z
 _atom_site_occupancy
  Ti  Ti0  1  0.40906300  0.40906300  0.50000000  1
  Ti  Ti1  1  0.57793400  0.99305500  0.50000000  1
  Ti  Ti2  1  0.99305500  0.57793400  0.50000000  1
  Ti  Ti3  1  0.75826400  0.75826400  0.00000000  1
  Fe  Fe0  1  0.24992800  0.00327900  0.00000000  1
  Fe  Fe1  1  0.00327900  0.24992800  0.00000000  1
  P  P0  1  0.32129200  0.66372600  0.00000000  1
  P  P1  1  0.66372600  0.32129200  0.00000000  1
  P  P2  1  0.02335900  0.02335900  0.50000000  1
loop_
_geom_bond_atom_site_label_1
_geom_bond_atom_site_label_2
_geom_bond_distance
_geom_bond_site_symmetry_2
Fe0 P2 2.272287 1_555
Fe0 P2 2.272287 1_554
Fe0 P0 2.350072 1_545
Fe0 P1 2.393919 1_555
Fe0 Ti1 2.697816 1_545
Fe0 Ti1 2.697816 1_544
Fe1 P2 2.272287 1_555
Fe1 P2 2.272287 1_554
Fe1 P1 2.350072 1_455
Fe1 P0 2.393919 1_555
Fe1 Ti2 2.697816 1_455
Fe1 Ti2 2.697816 1_454
P0 Ti3 2.492176 1_555
P0 Ti2 2.533873 1_455
P0 Ti2 2.533873 1_454
P0 Ti0 2.571439 1_555
P0 Ti0 2.571439 1_554
P0 Ti1 2.580686 1_555
P0 Ti1 2.580686 1_554
P1 Ti3 2.492176 1_555
P1 Ti1 2.533873 1_545
P1 Ti1 2.533873 1_544
P1 Ti0 2.571439 1_555
P1 Ti0 2.571439 1_554
P1 Ti2 2.580686 1_554
P1 Ti2 2.580686 1_555
P2 Ti3 2.423659 1_446
P2 Ti3 2.423659 1_445
P2 Ti0 2.465505 1_555
P2 Ti2 2.682993 1_445
P2 Ti1 2.682993 1_445
