# generated using pymatgen
data_NaMg14Ti
_symmetry_space_group_name_H-M   'P 1'
_cell_length_a   6.41086663
_cell_length_b   6.48393794
_cell_length_c   10.24892924
_cell_angle_alpha   90.00000000
_cell_angle_beta   90.00000000
_cell_angle_gamma   120.37777128
_symmetry_Int_Tables_number   1
_chemical_formula_structural   NaMg14Ti
_chemical_formula_sum   'Na1 Mg14 Ti1'
_cell_volume   367.53515100
_cell_formula_units_Z   1
loop_
 _symmetry_equiv_pos_site_id
 _symmetry_equiv_pos_as_xyz
  1  'x, y, z'
loop_
 _atom_site_type_symbol
 _atom_site_label
 _atom_site_symmetry_multiplicity
 _atom_site_fract_x
 _atom_site_fract_y
 _atom_site_fract_z
 _atom_site_occupancy
  Na  Na0  1  0.16767313  0.83383606  0.12500000  1
  Mg  Mg0  1  0.16686793  0.33343346  0.62500000  1
  Mg  Mg1  1  0.16791197  0.83395549  0.62500000  1
  Mg  Mg2  1  0.66363860  0.32935219  0.12500000  1
  Mg  Mg3  1  0.66663804  0.33298682  0.62500000  1
  Mg  Mg4  1  0.66363860  0.83428542  0.12500000  1
  Mg  Mg5  1  0.66663804  0.83365022  0.62500000  1
  Mg  Mg6  1  0.33116008  0.17336900  0.37400610  1
  Mg  Mg7  1  0.33116008  0.17336900  0.87599390  1
  Mg  Mg8  1  0.33116008  0.65779208  0.37400610  1
  Mg  Mg9  1  0.33116008  0.65779208  0.87599390  1
  Mg  Mg10  1  0.84085432  0.17042766  0.37041959  1
  Mg  Mg11  1  0.84085432  0.17042766  0.87958041  1
  Mg  Mg12  1  0.82948363  0.66474232  0.37670998  1
  Mg  Mg13  1  0.82948363  0.66474232  0.87329002  1
  Ti  Ti0  1  0.17167747  0.33583823  0.12500000  1
loop_
_geom_bond_atom_site_label_1
_geom_bond_atom_site_label_2
_geom_bond_distance
_geom_bond_site_symmetry_2
Na0 Ti0 3.242045 1_565
Na0 Ti0 3.242045 1_555
Mg0 Mg6 3.147919 1_555
Mg0 Mg7 3.147919 1_555
Mg0 Mg9 3.147925 1_555
Mg0 Mg8 3.147925 1_555
Mg0 Mg10 3.171582 1_455
Mg0 Mg11 3.171582 1_455
Mg0 Mg5 3.205425 1_555
Mg0 Mg3 3.205425 1_555
Mg0 Mg5 3.205443 1_445
Mg0 Mg3 3.205444 1_455
Mg0 Mg1 3.241974 1_545
Mg0 Mg1 3.241974 1_555
Mg1 Mg12 3.158954 1_455
Mg1 Mg13 3.158954 1_455
Mg1 Mg9 3.197869 1_555
Mg1 Mg8 3.197869 1_555
Mg1 Mg6 3.197876 1_565
Mg1 Mg7 3.197876 1_565
Mg1 Mg3 3.198267 1_565
Mg1 Mg5 3.198268 1_555
Mg1 Mg3 3.212600 1_455
Mg1 Mg5 3.212600 1_455
Mg2 Mg6 3.146222 1_555
Mg2 Mg7 3.146222 1_554
Mg2 Ti0 3.175372 1_555
Mg2 Na0 3.178096 1_545
Mg2 Mg4 3.209982 1_545
Mg2 Na0 3.232772 1_655
Mg2 Ti0 3.235906 1_655
Mg2 Mg4 3.273956 1_555
Mg3 Mg6 3.172183 1_555
Mg3 Mg7 3.172183 1_555
Mg3 Mg5 3.237668 1_545
Mg3 Mg5 3.246270 1_555
Mg4 Mg8 3.146222 1_555
Mg4 Mg9 3.146222 1_554
Mg4 Ti0 3.175371 1_555
Mg4 Na0 3.178096 1_555
Mg4 Na0 3.232773 1_655
Mg4 Ti0 3.235905 1_665
Mg5 Mg8 3.172183 1_555
Mg5 Mg9 3.172183 1_555
Mg6 Ti0 3.123677 1_555
Mg6 Mg8 3.140969 1_555
Mg6 Na0 3.181886 1_545
Mg6 Mg8 3.342969 1_545
Mg7 Ti0 3.123677 1_556
Mg7 Mg9 3.140969 1_555
Mg7 Na0 3.181886 1_546
Mg7 Mg9 3.342969 1_545
Mg8 Ti0 3.123683 1_555
Mg8 Na0 3.181879 1_555
Mg9 Ti0 3.123683 1_556
Mg9 Na0 3.181879 1_556
Mg10 Ti0 3.110376 1_655
Mg10 Mg8 3.133899 1_655
Mg10 Mg6 3.133899 1_655
Mg10 Mg2 3.140590 1_555
Mg10 Mg4 3.140596 1_545
Mg10 Mg3 3.218201 1_555
Mg10 Mg5 3.218207 1_545
Mg10 Mg12 3.243220 1_545
Mg10 Mg12 3.243220 1_555
Mg10 Mg8 3.277473 1_545
Mg10 Mg6 3.277474 1_555
Mg11 Ti0 3.110376 1_656
Mg11 Mg9 3.133899 1_655
Mg11 Mg7 3.133899 1_655
Mg11 Mg2 3.140590 1_556
Mg11 Mg4 3.140596 1_546
Mg11 Mg3 3.218201 1_555
Mg11 Mg5 3.218207 1_545
Mg11 Mg13 3.243220 1_545
Mg11 Mg13 3.243220 1_555
Mg11 Mg9 3.277473 1_545
Mg11 Mg7 3.277474 1_555
Mg12 Mg5 3.149803 1_555
Mg12 Mg3 3.149809 1_555
Mg12 Mg6 3.172256 1_555
Mg12 Mg8 3.172256 1_555
Mg12 Na0 3.186481 1_655
Mg12 Mg4 3.190009 1_555
Mg12 Mg2 3.190016 1_555
Mg12 Mg6 3.239322 1_665
Mg12 Mg8 3.239322 1_655
Mg13 Mg5 3.149803 1_555
Mg13 Mg3 3.149809 1_555
Mg13 Mg7 3.172256 1_555
Mg13 Mg9 3.172256 1_555
Mg13 Na0 3.186481 1_656
Mg13 Mg4 3.190009 1_556
Mg13 Mg2 3.190016 1_556
Mg13 Mg7 3.239322 1_665
Mg13 Mg9 3.239322 1_655
