# generated using pymatgen
data_AlSiNi2
_symmetry_space_group_name_H-M   'P 1'
_cell_length_a   4.53011749
_cell_length_b   4.48015905
_cell_length_c   4.51018381
_cell_angle_alpha   88.20160402
_cell_angle_beta   90.00000000
_cell_angle_gamma   90.00000000
_symmetry_Int_Tables_number   1
_chemical_formula_structural   AlSiNi2
_chemical_formula_sum   'Al2 Si2 Ni4'
_cell_volume   91.49201029
_cell_formula_units_Z   2
loop_
 _symmetry_equiv_pos_site_id
 _symmetry_equiv_pos_as_xyz
  1  'x, y, z'
loop_
 _atom_site_type_symbol
 _atom_site_label
 _atom_site_symmetry_multiplicity
 _atom_site_fract_x
 _atom_site_fract_y
 _atom_site_fract_z
 _atom_site_occupancy
  Al  Al0  1  0.64998589  0.09450278  0.34725802  1
  Al  Al1  1  0.14998589  0.90549722  0.65274198  1
  Si  Si0  1  0.34494664  0.60123811  0.15978184  1
  Si  Si1  1  0.84494664  0.39876189  0.84021816  1
  Ni  Ni0  1  0.35682442  0.40457371  0.65792436  1
  Ni  Ni1  1  0.85682442  0.59542629  0.34207564  1
  Ni  Ni2  1  0.64824306  0.88763456  0.85957482  1
  Ni  Ni3  1  0.14824306  0.11236544  0.14042518  1
loop_
_geom_bond_atom_site_label_1
_geom_bond_atom_site_label_2
_geom_bond_distance
_geom_bond_site_symmetry_2
Al0 Ni0 2.403943 1_555
Al0 Ni2 2.413494 1_544
Al0 Ni1 2.425126 1_545
Al0 Ni1 2.431407 1_555
Al0 Ni3 2.442688 1_655
Al0 Ni3 2.457286 1_555
Al0 Ni2 2.462455 1_545
Al0 Si0 2.761424 1_545
Al0 Si0 2.767323 1_555
Al0 Si1 2.769864 1_554
Al0 Si1 2.787763 1_555
Al1 Ni1 2.403943 1_455
Al1 Ni3 2.413494 1_566
Al1 Ni0 2.425126 1_565
Al1 Ni0 2.431407 1_555
Al1 Ni2 2.442688 1_555
Al1 Ni2 2.457286 1_455
Al1 Ni3 2.462455 1_565
Al1 Si1 2.761424 1_465
Al1 Si1 2.767323 1_455
Al1 Si0 2.769864 1_556
Al1 Si0 2.787763 1_555
Ni0 Si1 2.359013 1_555
Ni0 Si0 2.388030 1_555
Ni0 Si0 2.455133 1_556
Ni0 Si1 2.460173 1_455
Ni1 Si0 2.359013 1_655
Ni1 Si1 2.388030 1_555
Ni1 Si1 2.455133 1_554
Ni1 Si0 2.460173 1_555
Ni2 Si0 2.293116 1_556
Ni2 Si1 2.368704 1_555
Ni2 Si1 2.456197 1_565
Ni3 Si1 2.293116 1_454
Ni3 Si0 2.368704 1_555
Ni3 Si0 2.456197 1_545
