# generated using pymatgen
data_Li3V(PO4)2
_symmetry_space_group_name_H-M   'P 1'
_cell_length_a   9.95426700
_cell_length_b   8.63753100
_cell_length_c   16.33244541
_cell_angle_alpha   64.72983172
_cell_angle_beta   90.00000000
_cell_angle_gamma   90.00000000
_symmetry_Int_Tables_number   1
_chemical_formula_structural   Li3V(PO4)2
_chemical_formula_sum   'Li24 V8 P16 O64'
_cell_volume   1269.88683591
_cell_formula_units_Z   8
loop_
 _symmetry_equiv_pos_site_id
 _symmetry_equiv_pos_as_xyz
  1  'x, y, z'
loop_
 _atom_site_type_symbol
 _atom_site_label
 _atom_site_symmetry_multiplicity
 _atom_site_fract_x
 _atom_site_fract_y
 _atom_site_fract_z
 _atom_site_occupancy
  Li  Li0  1  0.40171900  0.98087700  0.44432600  1
  Li  Li1  1  0.87806600  0.61999600  0.79129600  1
  Li  Li2  1  0.61713900  0.59810200  0.71859700  1
  Li  Li3  1  0.08633200  0.26462800  0.02106500  1
  Li  Li4  1  0.10212900  0.01263600  0.25544800  1
  Li  Li5  1  0.58435000  0.24987400  0.00429500  1
  Li  Li6  1  0.08435000  0.75012600  0.49570500  1
  Li  Li7  1  0.60212900  0.98736400  0.24455200  1
  Li  Li8  1  0.58633200  0.73537200  0.47893500  1
  Li  Li9  1  0.11713900  0.40189800  0.78140300  1
  Li  Li10  1  0.37806600  0.38000400  0.70870400  1
  Li  Li11  1  0.90171900  0.01912300  0.05567400  1
  Li  Li12  1  0.09828100  0.98087700  0.94432600  1
  Li  Li13  1  0.62193400  0.61999600  0.29129600  1
  Li  Li14  1  0.88286100  0.59810200  0.21859700  1
  Li  Li15  1  0.41366800  0.26462800  0.52106500  1
  Li  Li16  1  0.39787100  0.01263600  0.75544800  1
  Li  Li17  1  0.91565000  0.24987400  0.50429500  1
  Li  Li18  1  0.41565000  0.75012600  0.99570500  1
  Li  Li19  1  0.89787100  0.98736400  0.74455200  1
  Li  Li20  1  0.91366800  0.73537200  0.97893500  1
  Li  Li21  1  0.38286100  0.40189800  0.28140300  1
  Li  Li22  1  0.12193400  0.38000400  0.20870400  1
  Li  Li23  1  0.59828100  0.01912300  0.55567400  1
  V  V0  1  0.85168700  0.02629800  0.38572800  1
  V  V1  1  0.37918800  0.55972100  0.85915700  1
  V  V2  1  0.87918800  0.44027900  0.64084300  1
  V  V3  1  0.35168700  0.97370200  0.11427200  1
  V  V4  1  0.64831300  0.02629800  0.88572800  1
  V  V5  1  0.12081200  0.55972100  0.35915700  1
  V  V6  1  0.62081200  0.44027900  0.14084300  1
  V  V7  1  0.14831300  0.97370200  0.61427200  1
  P  P0  1  0.84791800  0.25135000  0.16307900  1
  P  P1  1  0.36649500  0.77902500  0.63554500  1
  P  P2  1  0.84555500  0.83436800  0.59703200  1
  P  P3  1  0.33633100  0.36948300  0.08709000  1
  P  P4  1  0.83633100  0.63051700  0.41291000  1
  P  P5  1  0.34555500  0.16563200  0.90296800  1
  P  P6  1  0.86649500  0.22097500  0.86445500  1
  P  P7  1  0.34791800  0.74865000  0.33692100  1
  P  P8  1  0.65208200  0.25135000  0.66307900  1
  P  P9  1  0.13350500  0.77902500  0.13554500  1
  P  P10  1  0.65444500  0.83436800  0.09703200  1
  P  P11  1  0.16366900  0.36948300  0.58709000  1
  P  P12  1  0.66366900  0.63051700  0.91291000  1
  P  P13  1  0.15444500  0.16563200  0.40296800  1
  P  P14  1  0.63350500  0.22097500  0.36445500  1
  P  P15  1  0.15208200  0.74865000  0.83692100  1
  O  O0  1  0.05771900  0.01714800  0.41625800  1
  O  O1  1  0.58456800  0.59153500  0.84154000  1
  O  O2  1  0.76485700  0.77531000  0.68577800  1
  O  O3  1  0.18696100  0.33652600  0.11001900  1
  O  O4  1  0.35813300  0.52087200  0.99234800  1
  O  O5  1  0.92220600  0.14610600  0.25616900  1
  O  O6  1  0.74911100  0.89843200  0.51376600  1
  O  O7  1  0.64761700  0.06290800  0.34202300  1
  O  O8  1  0.16028200  0.55631900  0.85088500  1
  O  O9  1  0.39915200  0.60689100  0.72081400  1
  O  O10  1  0.91911400  0.21585200  0.09082800  1
  O  O11  1  0.69490800  0.20414900  0.16607800  1
  O  O12  1  0.48027700  0.81278800  0.56697000  1
  O  O13  1  0.22201400  0.76593800  0.60036000  1
  O  O14  1  0.93089000  0.68221000  0.59872000  1
  O  O15  1  0.40671100  0.20604400  0.09000000  1
  O  O16  1  0.90671100  0.79395600  0.41000000  1
  O  O17  1  0.43089000  0.31779000  0.90128000  1
  O  O18  1  0.72201400  0.23406200  0.89964000  1
  O  O19  1  0.19490800  0.79585100  0.33392200  1
  O  O20  1  0.98027700  0.18721200  0.93303000  1
  O  O21  1  0.41911400  0.78414800  0.40917200  1
  O  O22  1  0.89915200  0.39310900  0.77918600  1
  O  O23  1  0.66028200  0.44368100  0.64911500  1
  O  O24  1  0.14761700  0.93709200  0.15797700  1
  O  O25  1  0.24911100  0.10156800  0.98623400  1
  O  O26  1  0.42220600  0.85389400  0.24383100  1
  O  O27  1  0.68696100  0.66347400  0.38998100  1
  O  O28  1  0.85813300  0.47912800  0.50765200  1
  O  O29  1  0.26485700  0.22469000  0.81422200  1
  O  O30  1  0.55771900  0.98285200  0.08374200  1
  O  O31  1  0.08456800  0.40846500  0.65846000  1
  O  O32  1  0.91543200  0.59153500  0.34154000  1
  O  O33  1  0.44228100  0.01714800  0.91625800  1
  O  O34  1  0.73514300  0.77531000  0.18577800  1
  O  O35  1  0.14186700  0.52087200  0.49234800  1
  O  O36  1  0.31303900  0.33652600  0.61001900  1
  O  O37  1  0.57779400  0.14610600  0.75616900  1
  O  O38  1  0.75088900  0.89843200  0.01376600  1
  O  O39  1  0.85238300  0.06290800  0.84202300  1
  O  O40  1  0.33971800  0.55631900  0.35088500  1
  O  O41  1  0.10084800  0.60689100  0.22081400  1
  O  O42  1  0.58088600  0.21585200  0.59082800  1
  O  O43  1  0.01972300  0.81278800  0.06697000  1
  O  O44  1  0.80509200  0.20414900  0.66607800  1
  O  O45  1  0.27798600  0.76593800  0.10036000  1
  O  O46  1  0.56911000  0.68221000  0.09872000  1
  O  O47  1  0.09328900  0.20604400  0.59000000  1
  O  O48  1  0.59328900  0.79395600  0.91000000  1
  O  O49  1  0.06911000  0.31779000  0.40128000  1
  O  O50  1  0.77798600  0.23406200  0.39964000  1
  O  O51  1  0.51972300  0.18721200  0.43303000  1
  O  O52  1  0.30509200  0.79585100  0.83392200  1
  O  O53  1  0.08088600  0.78414800  0.90917200  1
  O  O54  1  0.60084800  0.39310900  0.27918600  1
  O  O55  1  0.83971800  0.44368100  0.14911500  1
  O  O56  1  0.35238300  0.93709200  0.65797700  1
  O  O57  1  0.25088900  0.10156800  0.48623400  1
  O  O58  1  0.07779400  0.85389400  0.74383100  1
  O  O59  1  0.64186700  0.47912800  0.00765200  1
  O  O60  1  0.81303900  0.66347400  0.88998100  1
  O  O61  1  0.23514300  0.22469000  0.31422200  1
  O  O62  1  0.41543200  0.40846500  0.15846000  1
  O  O63  1  0.94228100  0.98285200  0.58374200  1
loop_
_geom_bond_atom_site_label_1
_geom_bond_atom_site_label_2
_geom_bond_distance
_geom_bond_site_symmetry_2
Li0 O21 2.019915 1_555
Li0 O12 2.061261 1_555
Li0 O51 2.075915 1_565
Li0 O57 2.102055 1_565
Li1 O60 1.916924 1_555
Li1 O2 2.016370 1_555
Li1 O22 2.062693 1_555
Li2 O1 2.010720 1_555
Li2 O2 2.022830 1_555
Li2 O23 2.131570 1_555
Li2 O9 2.172071 1_555
Li3 O10 1.958713 1_455
Li3 O3 2.066420 1_555
Li3 O20 2.109466 1_454
Li3 O25 2.369999 1_554
Li4 O19 1.988176 1_545
Li4 O24 2.012944 1_545
Li4 O5 2.132717 1_455
Li5 O59 2.084382 1_555
Li5 O30 2.125647 1_545
Li5 O17 2.160030 1_554
Li5 O15 2.185638 1_555
Li5 O18 2.239959 1_554
Li6 O35 2.084382 1_555
Li6 O0 2.125647 1_565
Li6 O14 2.160030 1_455
Li6 O16 2.185638 1_455
Li6 O13 2.239959 1_555
Li7 O11 1.988176 1_565
Li7 O7 2.012944 1_565
Li7 O26 2.132717 1_555
Li8 O21 1.958713 1_555
Li8 O27 2.066420 1_555
Li8 O12 2.109466 1_555
Li8 O6 2.369999 1_555
Li9 O31 2.010720 1_555
Li9 O29 2.022830 1_555
Li9 O8 2.131570 1_555
Li9 O22 2.172071 1_455
Li10 O36 1.916924 1_555
Li10 O29 2.016370 1_555
Li10 O9 2.062693 1_555
Li11 O10 2.019915 1_555
Li11 O20 2.061261 1_554
Li11 O43 2.075915 1_645
Li11 O38 2.102055 1_545
Li12 O53 2.019915 1_555
Li12 O43 2.061261 1_556
Li12 O20 2.075915 1_465
Li12 O25 2.102055 1_565
Li13 O27 1.916924 1_555
Li13 O34 2.016370 1_555
Li13 O54 2.062693 1_555
Li14 O32 2.010720 1_555
Li14 O34 2.022830 1_555
Li14 O55 2.131570 1_555
Li14 O41 2.172071 1_655
Li15 O42 1.958713 1_555
Li15 O36 2.066420 1_555
Li15 O51 2.109466 1_555
Li15 O57 2.369999 1_555
Li16 O52 1.988176 1_545
Li16 O56 2.012944 1_545
Li16 O37 2.132717 1_555
Li17 O28 2.084382 1_555
Li17 O63 2.125647 1_545
Li17 O49 2.160030 1_655
Li17 O47 2.185638 1_655
Li17 O50 2.239959 1_555
Li18 O4 2.084382 1_555
Li18 O33 2.125647 1_565
Li18 O46 2.160030 1_556
Li18 O48 2.185638 1_555
Li18 O45 2.239959 1_556
Li19 O44 1.988176 1_565
Li19 O39 2.012944 1_565
Li19 O58 2.132717 1_655
Li20 O53 1.958713 1_655
Li20 O60 2.066420 1_555
Li20 O43 2.109466 1_656
Li20 O38 2.369999 1_556
Li21 O62 2.010720 1_555
Li21 O61 2.022830 1_555
Li21 O40 2.131570 1_555
Li21 O54 2.172071 1_555
Li22 O3 1.916924 1_555
Li22 O61 2.016370 1_555
Li22 O41 2.062693 1_555
Li23 O42 2.019915 1_555
Li23 O51 2.061261 1_555
Li23 O12 2.075915 1_545
Li23 O6 2.102055 1_545
O0 P13 1.543174 1_555
O0 V0 2.104142 1_455
O1 P12 1.557942 1_555
O1 V1 2.066494 1_555
O2 P2 1.541136 1_555
O3 P3 1.530045 1_555
O4 P3 1.556864 1_556
O4 V1 2.065283 1_555
O5 P0 1.582648 1_555
O5 V0 2.042457 1_555
O6 P2 1.560384 1_555
O6 V0 2.159519 1_565
O7 P14 1.563679 1_555
O7 V0 2.131492 1_555
O8 P15 1.579557 1_555
O8 V1 2.184207 1_555
O9 P1 1.577317 1_555
O9 V1 2.127151 1_555
O10 P0 1.515806 1_555
O11 P0 1.572072 1_555
O11 V6 2.038645 1_555
O12 P1 1.530816 1_555
O13 P1 1.570635 1_555
O13 V7 2.039230 1_555
O14 P2 1.555214 1_555
O14 V2 1.969147 1_555
O15 P3 1.558433 1_555
O15 V3 1.950747 1_545
O16 P4 1.558433 1_555
O16 V0 1.950747 1_565
O17 P5 1.555214 1_555
O17 V1 1.969147 1_555
O18 P6 1.570635 1_555
O18 V4 2.039230 1_555
O19 P7 1.572072 1_555
O19 V5 2.038645 1_555
O20 P6 1.530816 1_555
O21 P7 1.515806 1_555
O22 P6 1.577317 1_555
O22 V2 2.127151 1_555
O23 P8 1.579557 1_555
O23 V2 2.184207 1_555
O24 P9 1.563679 1_555
O24 V3 2.131492 1_555
O25 P5 1.560384 1_555
O25 V3 2.159519 1_546
O26 P7 1.582648 1_555
O26 V3 2.042457 1_555
O27 P4 1.530045 1_555
O28 P4 1.556864 1_555
O28 V2 2.065283 1_555
O29 P5 1.541136 1_555
O30 P10 1.543174 1_555
O30 V3 2.104142 1_555
O31 P11 1.557942 1_555
O31 V2 2.066494 1_455
O32 P4 1.557942 1_555
O32 V5 2.066494 1_655
O33 P5 1.543174 1_555
O33 V4 2.104142 1_555
O34 P10 1.541136 1_555
O35 P11 1.556864 1_555
O35 V5 2.065283 1_555
O36 P11 1.530045 1_555
O37 P8 1.582648 1_555
O37 V4 2.042457 1_555
O38 P10 1.560384 1_555
O38 V4 2.159519 1_564
O39 P6 1.563679 1_555
O39 V4 2.131492 1_555
O40 P7 1.579557 1_555
O40 V5 2.184207 1_555
O41 P9 1.577317 1_555
O41 V5 2.127151 1_555
O42 P8 1.515806 1_555
O43 P9 1.530816 1_555
O44 P8 1.572072 1_555
O44 V2 2.038645 1_555
O45 P9 1.570635 1_555
O45 V3 2.039230 1_555
O46 P10 1.555214 1_555
O46 V6 1.969147 1_555
O47 P11 1.558433 1_555
O47 V7 1.950747 1_545
O48 P12 1.558433 1_555
O48 V4 1.950747 1_565
O49 P13 1.555214 1_555
O49 V5 1.969147 1_555
O50 P14 1.570635 1_555
O50 V0 2.039230 1_555
O51 P14 1.530816 1_555
O52 P15 1.572072 1_555
O52 V1 2.038645 1_555
O53 P15 1.515806 1_555
O54 P14 1.577317 1_555
O54 V6 2.127151 1_555
O55 P0 1.579557 1_555
O55 V6 2.184207 1_555
O56 P1 1.563679 1_555
O56 V7 2.131492 1_555
O57 P13 1.560384 1_555
O57 V7 2.159519 1_545
O58 P15 1.582648 1_555
O58 V7 2.042457 1_555
O59 P12 1.556864 1_554
O59 V6 2.065283 1_555
O60 P12 1.530045 1_555
O61 P13 1.541136 1_555
O62 P3 1.557942 1_555
O62 V6 2.066494 1_555
O63 P2 1.543174 1_555
O63 V7 2.104142 1_655
