# generated using pymatgen
data_La4Ga3FeO12
_symmetry_space_group_name_H-M   'P 1'
_cell_length_a   5.60689502
_cell_length_b   9.54978486
_cell_length_c   9.70967908
_cell_angle_alpha   70.20081375
_cell_angle_beta   90.00835745
_cell_angle_gamma   90.00043398
_symmetry_Int_Tables_number   1
_chemical_formula_structural   La4Ga3FeO12
_chemical_formula_sum   'La8 Ga6 Fe2 O24'
_cell_volume   489.16761314
_cell_formula_units_Z   2
loop_
 _symmetry_equiv_pos_site_id
 _symmetry_equiv_pos_as_xyz
  1  'x, y, z'
loop_
 _atom_site_type_symbol
 _atom_site_label
 _atom_site_symmetry_multiplicity
 _atom_site_fract_x
 _atom_site_fract_y
 _atom_site_fract_z
 _atom_site_occupancy
  La  La0  1  0.49951400  0.12507800  0.12492100  1
  La  La1  1  0.99952500  0.62506600  0.12492800  1
  La  La2  1  0.00048500  0.37492800  0.87508200  1
  La  La3  1  0.50048400  0.87490600  0.87508100  1
  La  La4  1  0.50033800  0.62449300  0.62522200  1
  La  La5  1  0.00033500  0.12449100  0.62522800  1
  La  La6  1  0.99966400  0.87551800  0.37477000  1
  La  La7  1  0.49967800  0.37551800  0.37476900  1
  Ga  Ga0  1  0.50000000  0.50000000  0.00000000  1
  Ga  Ga1  1  0.99999700  0.00000000  0.00000000  1
  Ga  Ga2  1  0.50046200  0.75027000  0.24905800  1
  Ga  Ga3  1  0.00046200  0.25027000  0.24905800  1
  Ga  Ga4  1  0.99953600  0.74973100  0.75094100  1
  Ga  Ga5  1  0.49953600  0.24973000  0.75094200  1
  Fe  Fe0  1  0.50000000  0.00000300  0.49999800  1
  Fe  Fe1  1  0.00000400  0.50000000  0.50000100  1
  O  O0  1  0.42967300  0.62493400  0.12473400  1
  O  O1  1  0.92966700  0.12493800  0.12473500  1
  O  O2  1  0.07033400  0.87506300  0.87526500  1
  O  O3  1  0.57033400  0.37506500  0.87526700  1
  O  O4  1  0.93008400  0.62564600  0.62616900  1
  O  O5  1  0.43008100  0.12564500  0.62616800  1
  O  O6  1  0.56991100  0.87435200  0.37383400  1
  O  O7  1  0.06992100  0.37435200  0.37383300  1
  O  O8  1  0.78699400  0.12576900  0.40877700  1
  O  O9  1  0.28700200  0.62576300  0.40877800  1
  O  O10  1  0.71299500  0.37423800  0.59121800  1
  O  O11  1  0.21300000  0.87423500  0.59121800  1
  O  O12  1  0.78451800  0.62486700  0.91048900  1
  O  O13  1  0.28451500  0.12486900  0.91049200  1
  O  O14  1  0.71547800  0.87513200  0.08951200  1
  O  O15  1  0.21548600  0.37513300  0.08951500  1
  O  O16  1  0.78318000  0.62548100  0.33913800  1
  O  O17  1  0.28317400  0.12548300  0.33914000  1
  O  O18  1  0.71681900  0.87451500  0.66085700  1
  O  O19  1  0.21681500  0.37451700  0.66086400  1
  O  O20  1  0.28497700  0.62484600  0.84004100  1
  O  O21  1  0.78497600  0.12484700  0.84004000  1
  O  O22  1  0.21501800  0.87515100  0.15996300  1
  O  O23  1  0.71502900  0.37515600  0.15995600  1
loop_
_geom_bond_atom_site_label_1
_geom_bond_atom_site_label_2
_geom_bond_distance
_geom_bond_site_symmetry_2
La0 O13 2.406271 1_554
La0 O17 2.409139 1_555
La0 O1 2.411824 1_555
La0 O15 2.792929 1_555
La0 O22 2.794059 1_545
La0 O6 2.794548 1_545
La0 O3 2.795158 1_554
La0 O23 2.798132 1_555
La0 O14 2.799644 1_545
La1 O12 2.406349 1_554
La1 O16 2.409106 1_555
La1 O0 2.411796 1_655
La1 O14 2.793059 1_555
La1 O23 2.793949 1_555
La1 O7 2.794438 1_655
La1 O2 2.795253 1_654
La1 O22 2.798138 1_655
La1 O15 2.799542 1_655
La2 O15 2.406299 1_556
La2 O19 2.409119 1_555
La2 O3 2.411813 1_455
La2 O13 2.792960 1_555
La2 O20 2.793978 1_555
La2 O4 2.794508 1_455
La2 O1 2.795167 1_456
La2 O21 2.798171 1_455
La2 O12 2.799583 1_455
La3 O14 2.406321 1_556
La3 O18 2.409127 1_555
La3 O2 2.411808 1_555
La3 O12 2.792820 1_555
La3 O21 2.794156 1_565
La3 O5 2.794622 1_565
La3 O0 2.795065 1_556
La3 O20 2.797978 1_555
La3 O13 2.799809 1_565
La4 O4 2.409596 1_555
La4 O20 2.411274 1_555
La4 O9 2.414468 1_555
La4 O10 2.788716 1_555
La4 O19 2.790357 1_555
La4 O3 2.793623 1_555
La4 O18 2.802392 1_555
La4 O6 2.803260 1_555
La4 O11 2.803419 1_555
La5 O5 2.409596 1_555
La5 O21 2.411218 1_455
La5 O8 2.414519 1_455
La5 O11 2.788768 1_545
La5 O18 2.790356 1_445
La5 O2 2.793580 1_545
La5 O19 2.802428 1_555
La5 O7 2.803320 1_555
La5 O10 2.803455 1_455
La6 O6 2.409636 1_555
La6 O22 2.411193 1_655
La6 O11 2.414466 1_655
La6 O8 2.788725 1_565
La6 O17 2.790250 1_665
La6 O1 2.793525 1_565
La6 O16 2.802515 1_555
La6 O4 2.803397 1_555
La6 O9 2.803513 1_655
La7 O7 2.409658 1_555
La7 O23 2.411221 1_555
La7 O10 2.414430 1_555
La7 O9 2.788696 1_555
La7 O16 2.790207 1_555
La7 O0 2.793510 1_555
La7 O17 2.802535 1_555
La7 O8 2.803396 1_555
La7 O5 2.803415 1_555
Ga0 O15 2.005099 1_555
Ga0 O12 2.005108 1_554
Ga0 O0 2.006199 1_555
Ga0 O3 2.006207 1_554
Ga0 O23 2.008044 1_555
Ga0 O20 2.008047 1_554
Ga1 O13 2.005110 1_654
Ga1 O14 2.005119 1_545
Ga1 O1 2.006241 1_555
Ga1 O2 2.006241 1_644
Ga1 O21 2.008049 1_554
Ga1 O22 2.008072 1_645
Ga2 O16 1.997860 1_555
Ga2 O6 1.998994 1_555
Ga2 O9 2.000651 1_555
Ga2 O14 2.006043 1_555
Ga2 O0 2.006505 1_555
Ga2 O22 2.008183 1_555
Ga3 O17 1.997829 1_555
Ga3 O7 1.998997 1_555
Ga3 O8 2.000654 1_455
Ga3 O15 2.006056 1_555
Ga3 O1 2.006473 1_455
Ga3 O23 2.008170 1_455
Ga4 O18 1.997843 1_555
Ga4 O4 1.998989 1_555
Ga4 O11 2.000672 1_655
Ga4 O12 2.006067 1_555
Ga4 O2 2.006484 1_655
Ga4 O20 2.008197 1_655
Ga5 O19 1.997860 1_555
Ga5 O5 1.999008 1_555
Ga5 O10 2.000673 1_555
Ga5 O13 2.006079 1_555
Ga5 O3 2.006515 1_555
Ga5 O21 2.008180 1_555
Fe0 O17 2.021121 1_555
Fe0 O18 2.021128 1_545
Fe0 O5 2.022391 1_555
Fe0 O6 2.022404 1_545
Fe0 O8 2.023876 1_555
Fe0 O11 2.023909 1_545
Fe1 O19 2.021108 1_555
Fe1 O16 2.021145 1_455
Fe1 O4 2.022407 1_455
Fe1 O7 2.022419 1_555
Fe1 O9 2.023886 1_555
Fe1 O10 2.023917 1_455
