# generated using pymatgen
data_Ca3Y3N5
_symmetry_space_group_name_H-M   'P 1'
_cell_length_a   6.77593097
_cell_length_b   7.04992726
_cell_length_c   9.27174137
_cell_angle_alpha   102.43271398
_cell_angle_beta   112.51368820
_cell_angle_gamma   103.18246407
_symmetry_Int_Tables_number   1
_chemical_formula_structural   Ca3Y3N5
_chemical_formula_sum   'Ca6 Y6 N10'
_cell_volume   375.14858282
_cell_formula_units_Z   2
loop_
 _symmetry_equiv_pos_site_id
 _symmetry_equiv_pos_as_xyz
  1  'x, y, z'
loop_
 _atom_site_type_symbol
 _atom_site_label
 _atom_site_symmetry_multiplicity
 _atom_site_fract_x
 _atom_site_fract_y
 _atom_site_fract_z
 _atom_site_occupancy
  Ca  Ca0  1  0.79070700  0.43771000  0.53936900  1
  Ca  Ca1  1  0.20929300  0.56229000  0.46063100  1
  Ca  Ca2  1  0.74889300  0.79520400  0.86410500  1
  Ca  Ca3  1  0.25110700  0.20479600  0.13589500  1
  Ca  Ca4  1  0.75279700  0.61132100  0.17432900  1
  Ca  Ca5  1  0.24720300  0.38867900  0.82567100  1
  Y  Y0  1  0.78974800  0.26785800  0.89017500  1
  Y  Y1  1  0.21025200  0.73214200  0.10982500  1
  Y  Y2  1  0.77212600  0.96980300  0.54968900  1
  Y  Y3  1  0.22787400  0.03019700  0.45031100  1
  Y  Y4  1  0.26968500  0.91010600  0.80570300  1
  Y  Y5  1  0.73031500  0.08989400  0.19429700  1
  N  N0  1  0.00616200  0.07814300  0.83246700  1
  N  N1  1  0.99383800  0.92185700  0.16753300  1
  N  N2  1  0.93345300  0.73759700  0.47486000  1
  N  N3  1  0.06654700  0.26240300  0.52514000  1
  N  N4  1  0.92077000  0.54464900  0.82787400  1
  N  N5  1  0.07923000  0.45535100  0.17212600  1
  N  N6  1  0.47945800  0.91143200  0.64989500  1
  N  N7  1  0.52054200  0.08856800  0.35010500  1
  N  N8  1  0.46836900  0.76431700  0.99470800  1
  N  N9  1  0.53163100  0.23568300  0.00529200  1
loop_
_geom_bond_atom_site_label_1
_geom_bond_atom_site_label_2
_geom_bond_distance
_geom_bond_site_symmetry_2
Ca0 N4 2.350247 1_555
Ca0 N2 2.412025 1_555
Ca0 N7 2.472658 1_555
Ca0 N3 2.492091 1_655
Ca1 N5 2.350247 1_555
Ca1 N3 2.412025 1_555
Ca1 N6 2.472658 1_555
Ca1 N2 2.492091 1_455
Ca2 N4 2.360456 1_555
Ca2 N1 2.476547 1_556
Ca2 N0 2.482199 1_665
Ca2 N6 2.560341 1_555
Ca2 N8 2.610412 1_555
Ca3 N5 2.360456 1_555
Ca3 N0 2.476547 1_554
Ca3 N1 2.482199 1_445
Ca3 N7 2.560341 1_555
Ca3 N9 2.610412 1_555
Ca4 N2 2.424456 1_555
Ca4 N1 2.443714 1_555
Ca4 N9 2.513822 1_555
Ca4 N8 2.629624 1_554
Ca4 N5 2.690014 1_655
Ca5 N3 2.424456 1_555
Ca5 N0 2.443714 1_555
Ca5 N8 2.513822 1_555
Ca5 N9 2.629624 1_556
Ca5 N4 2.690014 1_455
N0 Y2 2.318079 1_445
N0 Y0 2.326532 1_455
N0 Y4 2.414735 1_545
N1 Y3 2.318079 1_665
N1 Y1 2.326532 1_655
N1 Y5 2.414735 1_565
N2 Y2 2.294375 1_555
N2 Y3 2.638150 1_665
N2 Y4 2.803052 1_655
N3 Y3 2.294375 1_555
N3 Y2 2.638150 1_445
N3 Y5 2.803052 1_455
N4 Y0 2.239989 1_555
N4 Y1 2.414815 1_656
N4 Y4 3.176765 1_655
N5 Y1 2.239989 1_555
N5 Y0 2.414815 1_454
N5 Y5 3.176765 1_455
N6 Y4 2.383199 1_555
N6 Y3 2.435937 1_565
N6 Y2 2.483668 1_555
N6 Y0 2.700113 1_565
N7 Y5 2.383199 1_555
N7 Y2 2.435937 1_545
N7 Y3 2.483668 1_555
N7 Y1 2.700113 1_545
N8 Y4 2.353655 1_555
N8 Y1 2.366954 1_556
N8 Y5 2.375035 1_566
N9 Y5 2.353655 1_555
N9 Y0 2.366954 1_554
N9 Y4 2.375035 1_544
