# generated using pymatgen
data_Li5Mn2CoO8
_symmetry_space_group_name_H-M   'P 1'
_cell_length_a   4.97817224
_cell_length_b   7.78275125
_cell_length_c   7.73462296
_cell_angle_alpha   81.75810746
_cell_angle_beta   77.46457444
_cell_angle_gamma   101.89691152
_symmetry_Int_Tables_number   1
_chemical_formula_structural   Li5Mn2CoO8
_chemical_formula_sum   'Li10 Mn4 Co2 O16'
_cell_volume   280.63761098
_cell_formula_units_Z   2
loop_
 _symmetry_equiv_pos_site_id
 _symmetry_equiv_pos_as_xyz
  1  'x, y, z'
loop_
 _atom_site_type_symbol
 _atom_site_label
 _atom_site_symmetry_multiplicity
 _atom_site_fract_x
 _atom_site_fract_y
 _atom_site_fract_z
 _atom_site_occupancy
  Li  Li0  1  0.99914600  0.37988800  0.88298300  1
  Li  Li1  1  0.00028500  0.88120100  0.38047100  1
  Li  Li2  1  0.49256000  0.49558900  0.00264100  1
  Li  Li3  1  0.50004700  0.00081500  0.49802100  1
  Li  Li4  1  0.99418500  0.61984900  0.11878500  1
  Li  Li5  1  0.00266300  0.11653500  0.61440200  1
  Li  Li6  1  0.50132900  0.75153100  0.24970400  1
  Li  Li7  1  0.50543300  0.24934000  0.74813500  1
  Li  Li8  1  0.00167100  0.74994300  0.75046800  1
  Li  Li9  1  0.99552600  0.24820500  0.25366400  1
  Mn  Mn0  1  0.49503500  0.12760200  0.13116700  1
  Mn  Mn1  1  0.99923400  0.00289000  0.00115400  1
  Mn  Mn2  1  0.00269600  0.50137000  0.49844500  1
  Mn  Mn3  1  0.50483600  0.62856800  0.62649500  1
  Co  Co0  1  0.49949200  0.86908000  0.87000700  1
  Co  Co1  1  0.49396400  0.37212100  0.37276400  1
  O  O0  1  0.75291200  0.12078500  0.89359000  1
  O  O1  1  0.75903400  0.62192200  0.39291700  1
  O  O2  1  0.24845000  0.22872700  0.00695900  1
  O  O3  1  0.25342600  0.72600000  0.50664600  1
  O  O4  1  0.71251700  0.36026100  0.13491000  1
  O  O5  1  0.72103000  0.85988500  0.62657900  1
  O  O6  1  0.25263900  0.49408700  0.27076500  1
  O  O7  1  0.24753700  0.99590400  0.77330200  1
  O  O8  1  0.27833700  0.62477500  0.86066200  1
  O  O9  1  0.26908100  0.12079200  0.36378600  1
  O  O10  1  0.75506700  0.77592800  0.99564900  1
  O  O11  1  0.75489900  0.27538100  0.49159700  1
  O  O12  1  0.26008800  0.39254800  0.60823800  1
  O  O13  1  0.24759100  0.89462400  0.11820800  1
  O  O14  1  0.75346300  0.50679700  0.72791800  1
  O  O15  1  0.74582600  0.00705800  0.22896700  1
loop_
_geom_bond_atom_site_label_1
_geom_bond_atom_site_label_2
_geom_bond_distance
_geom_bond_site_symmetry_2
Li0 O8 2.074438 1_655
Li0 O0 2.113167 1_555
Li0 O4 2.115208 1_556
Li0 O2 2.153825 1_656
Li0 O14 2.169121 1_555
Li0 O12 2.214022 1_655
Li1 O9 2.027686 1_565
Li1 O5 2.061381 1_455
Li1 O1 2.102021 1_455
Li1 O13 2.107980 1_555
Li1 O15 2.182684 1_465
Li1 O3 2.196119 1_555
Li2 O8 1.996998 1_554
Li2 O4 2.001936 1_555
Li2 O6 2.153961 1_555
Li2 O2 2.171026 1_555
Li2 O14 2.216256 1_554
Li2 O10 2.287114 1_554
Li3 O9 1.988665 1_555
Li3 O5 2.015337 1_545
Li3 O15 2.161320 1_555
Li3 O7 2.215877 1_545
Li3 O3 2.219724 1_545
Li3 O11 2.236679 1_555
Li4 O10 2.134535 1_554
Li4 O8 2.172134 1_654
Li4 O4 2.178805 1_555
Li4 O1 2.192368 1_555
Li4 O6 2.200253 1_655
Li4 O13 2.246585 1_655
Li5 O9 2.089273 1_555
Li5 O7 2.160872 1_545
Li5 O5 2.167582 1_445
Li5 O11 2.180008 1_455
Li5 O12 2.251254 1_555
Li5 O0 2.254321 1_455
Li6 O10 2.051729 1_554
Li6 O3 2.057448 1_555
Li6 O15 2.070730 1_565
Li6 O6 2.090428 1_555
Li6 O13 2.164058 1_555
Li6 O1 2.172648 1_555
Li7 O11 2.057125 1_555
Li7 O7 2.077018 1_545
Li7 O14 2.090508 1_555
Li7 O2 2.093221 1_556
Li7 O0 2.138154 1_555
Li7 O12 2.166559 1_555
Li8 O3 2.081589 1_555
Li8 O10 2.084705 1_455
Li8 O14 2.088606 1_455
Li8 O8 2.096911 1_555
Li8 O7 2.101997 1_555
Li8 O5 2.107393 1_455
Li9 O11 2.031147 1_555
Li9 O15 2.085180 1_555
Li9 O2 2.090007 1_655
Li9 O9 2.093187 1_655
Li9 O4 2.104236 1_555
Li9 O6 2.110442 1_655
Mn0 O9 1.890721 1_555
Mn0 O4 1.916268 1_555
Mn0 O15 1.923662 1_555
Mn0 O2 1.934606 1_555
Mn0 O13 1.999990 1_545
Mn0 O0 2.014828 1_554
Mn1 O0 1.930179 1_554
Mn1 O7 1.935540 1_644
Mn1 O13 1.937778 1_645
Mn1 O10 1.938605 1_544
Mn1 O15 1.940522 1_555
Mn1 O2 1.943765 1_655
Mn2 O1 1.922829 1_455
Mn2 O6 1.938846 1_555
Mn2 O11 1.943830 1_455
Mn2 O14 1.943858 1_455
Mn2 O3 1.945452 1_555
Mn2 O12 1.947783 1_555
Mn3 O5 1.897660 1_555
Mn3 O8 1.907122 1_555
Mn3 O3 1.922003 1_555
Mn3 O14 1.933242 1_555
Mn3 O1 1.982254 1_555
Mn3 O12 2.026049 1_555
Co0 O10 1.950316 1_555
Co0 O7 1.952675 1_555
Co0 O5 1.983994 1_555
Co0 O8 2.010813 1_555
Co0 O13 2.112975 1_556
Co0 O0 2.155396 1_565
Co1 O6 1.906198 1_555
Co1 O4 1.948850 1_555
Co1 O11 1.955021 1_555
Co1 O12 1.984138 1_555
Co1 O9 2.062524 1_555
Co1 O1 2.159552 1_555
