# generated using pymatgen
data_SrMg3SiN4
_symmetry_space_group_name_H-M   'P 1'
_cell_length_a   10.59657791
_cell_length_b   10.59657791
_cell_length_c   10.59657791
_cell_angle_alpha   114.06784592
_cell_angle_beta   114.06784592
_cell_angle_gamma   100.62404067
_symmetry_Int_Tables_number   1
_chemical_formula_structural   SrMg3SiN4
_chemical_formula_sum   'Sr8 Mg24 Si8 N32'
_cell_volume   899.94356501
_cell_formula_units_Z   8
loop_
 _symmetry_equiv_pos_site_id
 _symmetry_equiv_pos_as_xyz
  1  'x, y, z'
loop_
 _atom_site_type_symbol
 _atom_site_label
 _atom_site_symmetry_multiplicity
 _atom_site_fract_x
 _atom_site_fract_y
 _atom_site_fract_z
 _atom_site_occupancy
  Sr  Sr0  1  0.56209349  0.04188384  0.99959458  1
  Sr  Sr1  1  0.04228926  0.56249891  0.00040542  1
  Sr  Sr2  1  0.31249891  0.81209349  0.02020965  1
  Sr  Sr3  1  0.79188384  0.29228926  0.97979035  1
  Sr  Sr4  1  0.18790651  0.20811616  0.50040542  1
  Sr  Sr5  1  0.70771074  0.68750109  0.49959458  1
  Sr  Sr6  1  0.43750109  0.43790651  0.47979035  1
  Sr  Sr7  1  0.95811616  0.95771074  0.52020965  1
  Mg  Mg0  1  0.83945305  0.15808785  0.37170039  1
  Mg  Mg1  1  0.78638746  0.46775267  0.62829961  1
  Mg  Mg2  1  0.21775267  0.08945305  0.18136521  1
  Mg  Mg3  1  0.90808785  0.03638746  0.81863479  1
  Mg  Mg4  1  0.91054695  0.09191215  0.12829961  1
  Mg  Mg5  1  0.96361254  0.78224733  0.87170039  1
  Mg  Mg6  1  0.53224733  0.16054695  0.31863479  1
  Mg  Mg7  1  0.84191215  0.21361254  0.68136521  1
  Mg  Mg8  1  0.58593251  0.94947478  0.64585696  1
  Mg  Mg9  1  0.30361782  0.94007655  0.35414304  1
  Mg  Mg10  1  0.69007655  0.83593251  0.13645873  1
  Mg  Mg11  1  0.69947478  0.55361782  0.86354127  1
  Mg  Mg12  1  0.16406749  0.30052522  0.85414304  1
  Mg  Mg13  1  0.44638218  0.30992345  0.14585696  1
  Mg  Mg14  1  0.05992345  0.41406749  0.36354127  1
  Mg  Mg15  1  0.05052522  0.69638218  0.63645873  1
  Mg  Mg16  1  0.29266501  0.97517303  0.63863040  1
  Mg  Mg17  1  0.33654264  0.65403562  0.36136960  1
  Mg  Mg18  1  0.40403562  0.54266501  0.81749298  1
  Mg  Mg19  1  0.72517303  0.58654264  0.18250702  1
  Mg  Mg20  1  0.45733499  0.27482697  0.86136960  1
  Mg  Mg21  1  0.41345736  0.59596438  0.13863040  1
  Mg  Mg22  1  0.34596438  0.70733499  0.68250702  1
  Mg  Mg23  1  0.02482697  0.66345736  0.31749298  1
  Si  Si0  1  0.75526536  0.39634904  0.28794253  1
  Si  Si1  1  0.10840751  0.46732382  0.71205747  1
  Si  Si2  1  0.21732382  0.00526536  0.85891632  1
  Si  Si3  1  0.14634904  0.35840751  0.14108368  1
  Si  Si4  1  0.99473464  0.85365096  0.21205747  1
  Si  Si5  1  0.64159249  0.78267618  0.78794253  1
  Si  Si6  1  0.53267618  0.24473464  0.64108368  1
  Si  Si7  1  0.60365096  0.89159249  0.35891632  1
  N  N0  1  0.61513557  0.35911354  0.09514006  1
  N  N1  1  0.26397248  0.51999551  0.90485994  1
  N  N2  1  0.26999551  0.86513557  0.75602303  1
  N  N3  1  0.10911354  0.51397248  0.24397697  1
  N  N4  1  0.13486443  0.89088646  0.40485994  1
  N  N5  1  0.48602752  0.73000449  0.59514006  1
  N  N6  1  0.48000449  0.38486443  0.74397697  1
  N  N7  1  0.64088646  0.73602752  0.25602303  1
  N  N8  1  0.75168983  0.97792444  0.88020150  1
  N  N9  1  0.09772394  0.87148833  0.11979850  1
  N  N10  1  0.62148833  0.00168983  0.27376440  1
  N  N11  1  0.72792444  0.34772394  0.72623560  1
  N  N12  1  0.99831017  0.27207556  0.61979850  1
  N  N13  1  0.65227606  0.37851167  0.38020150  1
  N  N14  1  0.12851167  0.24831017  0.22623560  1
  N  N15  1  0.02207556  0.90227606  0.77376440  1
  N  N16  1  0.83420741  0.26366724  0.24354472  1
  N  N17  1  0.02012252  0.59066269  0.75645528  1
  N  N18  1  0.34066269  0.08420741  0.07054017  1
  N  N19  1  0.01366724  0.27012252  0.92945983  1
  N  N20  1  0.91579259  0.98633276  0.25645528  1
  N  N21  1  0.72987748  0.65933731  0.74354472  1
  N  N22  1  0.40933731  0.16579259  0.42945983  1
  N  N23  1  0.73633276  0.97987748  0.57054017  1
  N  N24  1  0.50205068  0.11216285  0.69901101  1
  N  N25  1  0.41315284  0.80303967  0.30098899  1
  N  N26  1  0.55303967  0.75205068  0.88988783  1
  N  N27  1  0.86216285  0.66315284  0.11011217  1
  N  N28  1  0.24794932  0.13783615  0.80098899  1
  N  N29  1  0.33684716  0.44696033  0.19901101  1
  N  N30  1  0.19696033  0.49794932  0.61011217  1
  N  N31  1  0.88783615  0.58684716  0.38988783  1
loop_
_geom_bond_atom_site_label_1
_geom_bond_atom_site_label_2
_geom_bond_distance
_geom_bond_site_symmetry_2
Mg0 N12 2.062725 1_555
Mg0 N16 2.073530 1_555
Mg0 N10 2.094979 1_555
Mg0 N20 2.234716 1_545
Mg1 N13 2.062726 1_555
Mg1 N17 2.073530 1_655
Mg1 N11 2.094983 1_555
Mg1 N21 2.234716 1_555
Mg2 N14 2.062726 1_555
Mg2 N18 2.073530 1_555
Mg2 N9 2.094979 1_545
Mg2 N22 2.234716 1_555
Mg3 N15 2.062735 1_645
Mg3 N19 2.073530 1_655
Mg3 N8 2.094982 1_545
Mg3 N23 2.234716 1_545
Mg4 N8 2.062725 1_544
Mg4 N20 2.073530 1_545
Mg4 N14 2.094979 1_655
Mg4 N16 2.234716 1_555
Mg5 N9 2.062726 1_656
Mg5 N21 2.073530 1_555
Mg5 N15 2.094983 1_655
Mg5 N17 2.234716 1_655
Mg6 N10 2.062726 1_555
Mg6 N22 2.073530 1_555
Mg6 N13 2.094979 1_555
Mg6 N18 2.234716 1_555
Mg7 N11 2.062735 1_555
Mg7 N23 2.073530 1_545
Mg7 N12 2.094982 1_555
Mg7 N19 2.234716 1_655
Mg8 N24 2.064136 1_565
Mg8 N23 2.082924 1_555
Mg8 N5 2.104006 1_555
Mg8 N8 2.231397 1_555
Mg9 N25 2.064152 1_555
Mg9 N22 2.082914 1_565
Mg9 N4 2.104010 1_555
Mg9 N9 2.231388 1_555
Mg10 N26 2.064146 1_554
Mg10 N20 2.082917 1_555
Mg10 N7 2.104005 1_555
Mg10 N10 2.231395 1_565
Mg11 N27 2.064142 1_556
Mg11 N21 2.082914 1_555
Mg11 N6 2.104008 1_555
Mg11 N11 2.231382 1_555
Mg12 N28 2.064145 1_555
Mg12 N19 2.082924 1_555
Mg12 N1 2.104006 1_555
Mg12 N12 2.231397 1_455
Mg13 N29 2.064152 1_555
Mg13 N18 2.082914 1_555
Mg13 N0 2.104010 1_555
Mg13 N13 2.231388 1_555
Mg14 N30 2.064146 1_555
Mg14 N16 2.082917 1_455
Mg14 N3 2.104005 1_555
Mg14 N14 2.231395 1_555
Mg15 N31 2.064145 1_455
Mg15 N17 2.082914 1_555
Mg15 N2 2.104008 1_555
Mg15 N15 2.231382 1_555
Mg16 N4 1.999091 1_555
Mg16 N2 2.070812 1_555
Mg16 N24 2.082420 1_565
Mg16 N28 2.168595 1_565
Mg17 N5 1.999096 1_555
Mg17 N3 2.070807 1_555
Mg17 N25 2.082416 1_555
Mg17 N29 2.168602 1_555
Mg18 N6 1.999088 1_555
Mg18 N1 2.070813 1_555
Mg18 N26 2.082420 1_555
Mg18 N30 2.168612 1_555
Mg19 N7 1.999103 1_555
Mg19 N0 2.070806 1_555
Mg19 N27 2.082416 1_555
Mg19 N31 2.168609 1_555
Mg20 N0 1.999091 1_556
Mg20 N6 2.070812 1_555
Mg20 N28 2.082424 1_555
Mg20 N24 2.168600 1_555
Mg21 N1 1.999096 1_554
Mg21 N7 2.070807 1_555
Mg21 N29 2.082416 1_555
Mg21 N25 2.168602 1_555
Mg22 N2 1.999088 1_555
Mg22 N5 2.070813 1_555
Mg22 N30 2.082420 1_555
Mg22 N26 2.168612 1_555
Mg23 N3 1.999103 1_555
Mg23 N4 2.070806 1_555
Mg23 N31 2.082424 1_455
Mg23 N27 2.168613 1_455
N0 Si0 1.785132 1_555
N0 Sr3 2.674625 1_554
N0 Sr0 2.950291 1_554
N1 Si1 1.785127 1_555
N1 Sr2 2.674623 1_556
N1 Sr1 2.950281 1_556
N2 Si2 1.785120 1_565
N2 Sr0 2.674623 1_565
N2 Sr2 2.950281 1_556
N3 Si3 1.785114 1_555
N3 Sr1 2.674622 1_555
N3 Sr3 2.950287 1_454
N4 Si4 1.785132 1_455
N4 Sr7 2.674625 1_455
N4 Sr4 2.950291 1_565
N5 Si5 1.785127 1_555
N5 Sr6 2.674623 1_555
N5 Sr5 2.950281 1_555
N6 Si6 1.785120 1_555
N6 Sr4 2.674623 1_555
N6 Sr6 2.950281 1_555
N7 Si7 1.785114 1_555
N7 Sr5 2.674622 1_555
N7 Sr7 2.950287 1_555
N8 Si5 1.768440 1_555
N8 Sr0 2.823513 1_565
N8 Sr3 2.938511 1_565
N9 Si4 1.768438 1_455
N9 Sr1 2.823511 1_555
N9 Sr2 2.938500 1_555
N10 Si7 1.768447 1_545
N10 Sr2 2.823511 1_545
N10 Sr0 2.938500 1_554
N11 Si6 1.768438 1_555
N11 Sr3 2.823510 1_555
N11 Sr1 2.938507 1_656
N12 Si1 1.768440 1_655
N12 Sr4 2.823513 1_655
N12 Sr7 2.938511 1_545
N13 Si0 1.768438 1_555
N13 Sr5 2.823511 1_555
N13 Sr6 2.938500 1_555
N14 Si3 1.768447 1_555
N14 Sr6 2.823511 1_555
N14 Sr4 2.938500 1_555
N15 Si2 1.768438 1_565
N15 Sr7 2.823510 1_455
N15 Sr5 2.938507 1_455
N16 Si0 1.764371 1_555
N16 Sr0 2.643197 1_554
N16 Sr3 2.797094 1_554
N17 Si1 1.764372 1_555
N17 Sr1 2.643197 1_556
N17 Sr2 2.797094 1_556
N18 Si2 1.764370 1_554
N18 Sr2 2.643197 1_545
N18 Sr0 2.797094 1_554
N19 Si3 1.764370 1_556
N19 Sr3 2.643197 1_455
N19 Sr1 2.797094 1_556
N20 Si4 1.764371 1_555
N20 Sr4 2.643197 1_665
N20 Sr7 2.797094 1_555
N21 Si5 1.764372 1_555
N21 Sr5 2.643197 1_555
N21 Sr6 2.797094 1_555
N22 Si6 1.764370 1_555
N22 Sr6 2.643197 1_555
N22 Sr4 2.797094 1_555
N23 Si7 1.764370 1_555
N23 Sr7 2.643197 1_555
N23 Sr5 2.797094 1_555
N24 Si6 1.775754 1_555
N24 Sr3 2.771539 1_555
N25 Si7 1.775744 1_555
N25 Sr2 2.771538 1_555
N26 Si5 1.775744 1_555
N26 Sr0 2.771539 1_565
N27 Si4 1.775748 1_555
N27 Sr1 2.771542 1_655
N28 Si2 1.775744 1_555
N28 Sr7 2.771538 1_445
N29 Si3 1.775744 1_555
N29 Sr6 2.771538 1_555
N30 Si1 1.775744 1_555
N30 Sr4 2.771539 1_555
N31 Si0 1.775744 1_555
N31 Sr5 2.771532 1_555
