# generated using pymatgen
data_LiTi2Zn2(PO5)2
_symmetry_space_group_name_H-M   'P 1'
_cell_length_a   5.70333033
_cell_length_b   7.23649209
_cell_length_c   8.25292004
_cell_angle_alpha   90.36327262
_cell_angle_beta   42.76327922
_cell_angle_gamma   109.13930015
_symmetry_Int_Tables_number   1
_chemical_formula_structural   LiTi2Zn2(PO5)2
_chemical_formula_sum   'Li1 Ti2 Zn2 P2 O10'
_cell_volume   203.37833489
_cell_formula_units_Z   1
loop_
 _symmetry_equiv_pos_site_id
 _symmetry_equiv_pos_as_xyz
  1  'x, y, z'
loop_
 _atom_site_type_symbol
 _atom_site_label
 _atom_site_symmetry_multiplicity
 _atom_site_fract_x
 _atom_site_fract_y
 _atom_site_fract_z
 _atom_site_occupancy
  Li  Li0  1  0.12084400  0.26960000  0.41547800  1
  Ti  Ti0  1  0.51146900  0.50654600  0.49755300  1
  Ti  Ti1  1  0.45977000  0.00801400  0.52886700  1
  Zn  Zn0  1  0.80623800  0.25679000  0.05446900  1
  Zn  Zn1  1  0.47666400  0.77005000  0.82703700  1
  P  P0  1  0.45769400  0.24745400  0.90437000  1
  P  P1  1  0.49091000  0.75442800  0.14579400  1
  O  O0  1  0.50536000  0.08479300  0.76913000  1
  O  O1  1  0.40391500  0.40401100  0.81519500  1
  O  O2  1  0.51187200  0.93621200  0.24158700  1
  O  O3  1  0.48508600  0.58040500  0.25430600  1
  O  O4  1  0.13024200  0.66381900  0.20766700  1
  O  O5  1  0.83728700  0.84674300  0.84316400  1
  O  O6  1  0.84597800  0.35911800  0.80845300  1
  O  O7  1  0.11163400  0.15728900  0.19897800  1
  O  O8  1  0.47386100  0.75244800  0.60093500  1
  O  O9  1  0.48024600  0.25481500  0.39621800  1
loop_
_geom_bond_atom_site_label_1
_geom_bond_atom_site_label_2
_geom_bond_distance
_geom_bond_site_symmetry_2
Li0 O9 1.975736 1_555
Li0 O7 1.986757 1_555
Li0 O3 2.015009 1_555
Li0 O0 2.134684 1_455
Li0 O6 2.563094 1_455
O0 P0 1.566155 1_555
O0 Ti1 2.226303 1_555
O0 Zn1 2.257725 1_545
O1 P0 1.577689 1_555
O1 Zn0 2.101343 1_456
O1 Ti0 2.272447 1_555
O1 Zn1 2.556097 1_555
O2 P1 1.546689 1_555
O2 Zn0 2.066352 1_565
O2 Ti1 2.242898 1_565
O3 P1 1.527144 1_555
O3 Ti0 2.201872 1_555
O4 P1 1.580975 1_555
O4 Zn1 2.069765 1_554
O4 Ti0 2.115883 1_455
O5 P1 1.580464 1_556
O5 Zn1 2.051454 1_555
O5 Ti1 2.119946 1_665
O6 P0 1.563449 1_555
O6 Zn0 1.988804 1_556
O6 Ti0 2.282000 1_655
O7 P0 1.536959 1_554
O7 Ti1 2.223226 1_455
O8 Zn1 1.880929 1_555
O8 Ti0 1.975547 1_555
O8 Ti1 1.990500 1_565
O9 Zn0 1.922282 1_555
O9 Ti0 2.009023 1_555
O9 Ti1 2.025366 1_555
