# generated using pymatgen
data_TbNiSb2
_symmetry_space_group_name_H-M   'P 1'
_cell_length_a   4.38315900
_cell_length_b   4.38315900
_cell_length_c   9.32993900
_cell_angle_alpha   90.00000000
_cell_angle_beta   90.00000000
_cell_angle_gamma   90.00000000
_symmetry_Int_Tables_number   1
_chemical_formula_structural   TbNiSb2
_chemical_formula_sum   'Tb2 Ni2 Sb4'
_cell_volume   179.24756077
_cell_formula_units_Z   2
loop_
 _symmetry_equiv_pos_site_id
 _symmetry_equiv_pos_as_xyz
  1  'x, y, z'
loop_
 _atom_site_type_symbol
 _atom_site_label
 _atom_site_symmetry_multiplicity
 _atom_site_fract_x
 _atom_site_fract_y
 _atom_site_fract_z
 _atom_site_occupancy
  Tb  Tb0  1  0.00000000  0.50000000  0.74051900  1
  Tb  Tb1  1  0.50000000  0.00000000  0.25948100  1
  Ni  Ni0  1  0.50000000  0.50000000  0.50000000  1
  Ni  Ni1  1  0.00000000  0.00000000  0.50000000  1
  Sb  Sb0  1  0.50000000  0.50000000  0.00000000  1
  Sb  Sb1  1  0.00000000  0.00000000  0.00000000  1
  Sb  Sb2  1  0.00000000  0.50000000  0.35980200  1
  Sb  Sb3  1  0.50000000  0.00000000  0.64019800  1
loop_
_geom_bond_atom_site_label_1
_geom_bond_atom_site_label_2
_geom_bond_distance
_geom_bond_site_symmetry_2
Ni0 Sb3 2.552251 1_565
Ni0 Sb3 2.552251 1_555
Ni0 Sb2 2.552251 1_555
Ni0 Sb2 2.552251 1_655
Ni0 Tb0 3.136667 1_555
Ni0 Tb0 3.136667 1_655
Ni0 Tb1 3.136667 1_565
Ni0 Tb1 3.136667 1_555
Ni1 Sb3 2.552251 1_455
Ni1 Sb3 2.552251 1_555
Ni1 Sb2 2.552251 1_545
Ni1 Sb2 2.552251 1_555
Ni1 Tb0 3.136667 1_555
Ni1 Tb0 3.136667 1_545
Ni1 Tb1 3.136667 1_555
Ni1 Tb1 3.136667 1_455
Sb0 Sb1 3.099361 1_555
Sb0 Sb1 3.099361 1_665
Sb0 Sb1 3.099361 1_565
Sb0 Sb1 3.099361 1_655
Sb0 Tb1 3.265575 1_555
Sb0 Tb1 3.265575 1_565
Sb0 Tb0 3.265575 1_654
Sb0 Tb0 3.265575 1_554
Sb1 Tb1 3.265575 1_455
Sb1 Tb1 3.265575 1_555
Sb1 Tb0 3.265575 1_554
Sb1 Tb0 3.265575 1_544
Sb2 Tb1 3.237610 1_455
Sb2 Tb1 3.237610 1_555
Sb2 Tb1 3.237610 1_565
Sb2 Tb1 3.237610 1_465
Sb3 Tb0 3.237610 1_655
Sb3 Tb0 3.237610 1_555
Sb3 Tb0 3.237610 1_545
Sb3 Tb0 3.237610 1_645
