# generated using pymatgen
data_Ho2Hf2(MoO4)7
_symmetry_space_group_name_H-M   'P 1'
_cell_length_a   11.62102075
_cell_length_b   11.62102075
_cell_length_c   13.98076730
_cell_angle_alpha   69.06049224
_cell_angle_beta   69.06049224
_cell_angle_gamma   50.63019651
_symmetry_Int_Tables_number   1
_chemical_formula_structural   Ho2Hf2(MoO4)7
_chemical_formula_sum   'Ho4 Hf4 Mo14 O56'
_cell_volume   1340.69935455
_cell_formula_units_Z   2
loop_
 _symmetry_equiv_pos_site_id
 _symmetry_equiv_pos_as_xyz
  1  'x, y, z'
loop_
 _atom_site_type_symbol
 _atom_site_label
 _atom_site_symmetry_multiplicity
 _atom_site_fract_x
 _atom_site_fract_y
 _atom_site_fract_z
 _atom_site_occupancy
  Ho  Ho0  1  0.14896900  0.12425200  0.06350300  1
  Ho  Ho1  1  0.85103100  0.87574800  0.93649700  1
  Ho  Ho2  1  0.87574800  0.85103100  0.43649700  1
  Ho  Ho3  1  0.12425200  0.14896900  0.56350300  1
  Hf  Hf0  1  0.42051300  0.34855700  0.18719300  1
  Hf  Hf1  1  0.57948700  0.65144300  0.81280700  1
  Hf  Hf2  1  0.65144300  0.57948700  0.31280700  1
  Hf  Hf3  1  0.34855700  0.42051300  0.68719300  1
  Mo  Mo0  1  0.49928700  0.98802000  0.17274800  1
  Mo  Mo1  1  0.50071300  0.01198000  0.82725200  1
  Mo  Mo2  1  0.01198000  0.50071300  0.32725200  1
  Mo  Mo3  1  0.98802000  0.49928700  0.67274800  1
  Mo  Mo4  1  0.45655200  0.22663500  0.47736000  1
  Mo  Mo5  1  0.54344800  0.77336500  0.52264000  1
  Mo  Mo6  1  0.77336500  0.54344800  0.02264000  1
  Mo  Mo7  1  0.22663500  0.45655200  0.97736000  1
  Mo  Mo8  1  0.81261100  0.06573900  0.14709300  1
  Mo  Mo9  1  0.18738900  0.93426100  0.85290700  1
  Mo  Mo10  1  0.93426100  0.18738900  0.35290700  1
  Mo  Mo11  1  0.06573900  0.81261100  0.64709300  1
  Mo  Mo12  1  0.29544600  0.70455400  0.25000000  1
  Mo  Mo13  1  0.70455400  0.29544600  0.75000000  1
  O  O0  1  0.48762000  0.12533200  0.21830700  1
  O  O1  1  0.51238000  0.87466800  0.78169300  1
  O  O2  1  0.87466800  0.51238000  0.28169300  1
  O  O3  1  0.12533200  0.48762000  0.71830700  1
  O  O4  1  0.64354900  0.06960000  0.49528200  1
  O  O5  1  0.35645100  0.93040000  0.50471800  1
  O  O6  1  0.93040000  0.35645100  0.00471800  1
  O  O7  1  0.06960000  0.64354900  0.99528200  1
  O  O8  1  0.31581300  0.06018100  0.16518900  1
  O  O9  1  0.68418700  0.93981900  0.83481100  1
  O  O10  1  0.93981900  0.68418700  0.33481100  1
  O  O11  1  0.06018100  0.31581300  0.66518900  1
  O  O12  1  0.93491800  0.02435400  0.39833400  1
  O  O13  1  0.06508200  0.97564600  0.60166600  1
  O  O14  1  0.97564600  0.06508200  0.10166600  1
  O  O15  1  0.02435400  0.93491800  0.89833400  1
  O  O16  1  0.79781600  0.99553300  0.28363100  1
  O  O17  1  0.20218400  0.00446700  0.71636900  1
  O  O18  1  0.00446700  0.20218400  0.21636900  1
  O  O19  1  0.99553300  0.79781600  0.78363100  1
  O  O20  1  0.57559800  0.80609000  0.26133000  1
  O  O21  1  0.42440200  0.19391000  0.73867000  1
  O  O22  1  0.19391000  0.42440200  0.23867000  1
  O  O23  1  0.80609000  0.57559800  0.76133000  1
  O  O24  1  0.66677700  0.82969700  0.47029400  1
  O  O25  1  0.33322300  0.17030300  0.52970600  1
  O  O26  1  0.17030300  0.33322300  0.02970600  1
  O  O27  1  0.82969700  0.66677700  0.97029400  1
  O  O28  1  0.82992700  0.94640900  0.08261700  1
  O  O29  1  0.17007300  0.05359100  0.91738300  1
  O  O30  1  0.05359100  0.17007300  0.41738300  1
  O  O31  1  0.94640900  0.82992700  0.58261700  1
  O  O32  1  0.61260700  0.96008900  0.04751200  1
  O  O33  1  0.38739300  0.03991100  0.95248800  1
  O  O34  1  0.03991100  0.38739300  0.45248800  1
  O  O35  1  0.96008900  0.61260700  0.54751200  1
  O  O36  1  0.37548800  0.39020600  0.04314100  1
  O  O37  1  0.62451200  0.60979400  0.95685900  1
  O  O38  1  0.60979400  0.62451200  0.45685900  1
  O  O39  1  0.39020600  0.37548800  0.54314100  1
  O  O40  1  0.25907900  0.86931900  0.15685700  1
  O  O41  1  0.74092100  0.13068100  0.84314300  1
  O  O42  1  0.13068100  0.74092100  0.34314300  1
  O  O43  1  0.86931900  0.25907900  0.65685700  1
  O  O44  1  0.43896300  0.63918900  0.31994000  1
  O  O45  1  0.56103700  0.36081100  0.68006000  1
  O  O46  1  0.36081100  0.56103700  0.18006000  1
  O  O47  1  0.63918900  0.43896300  0.81994000  1
  O  O48  1  0.64337800  0.26356800  0.12480900  1
  O  O49  1  0.35662200  0.73643200  0.87519100  1
  O  O50  1  0.73643200  0.35662200  0.37519100  1
  O  O51  1  0.26356800  0.64337800  0.62480900  1
  O  O52  1  0.44886700  0.30317200  0.33940900  1
  O  O53  1  0.55113300  0.69682800  0.66059100  1
  O  O54  1  0.69682800  0.55113300  0.16059100  1
  O  O55  1  0.30317200  0.44886700  0.83940900  1
loop_
_geom_bond_atom_site_label_1
_geom_bond_atom_site_label_2
_geom_bond_distance
_geom_bond_site_symmetry_2
Ho0 O18 2.257550 1_555
Ho0 O29 2.343754 1_554
Ho0 O14 2.353964 1_455
Ho0 O33 2.369572 1_554
Ho0 O6 2.370678 1_455
Ho0 O8 2.391009 1_555
Ho0 O40 2.395486 1_545
Ho0 O26 2.458057 1_555
Ho1 O19 2.257550 1_555
Ho1 O28 2.343754 1_556
Ho1 O15 2.353964 1_655
Ho1 O32 2.369572 1_556
Ho1 O7 2.370678 1_655
Ho1 O9 2.391009 1_555
Ho1 O41 2.395486 1_565
Ho1 O27 2.458057 1_555
Ho2 O16 2.257550 1_555
Ho2 O31 2.343754 1_555
Ho2 O12 2.353964 1_565
Ho2 O35 2.369572 1_555
Ho2 O4 2.370678 1_565
Ho2 O10 2.391009 1_555
Ho2 O42 2.395486 1_655
Ho2 O24 2.458057 1_555
Ho3 O17 2.257550 1_555
Ho3 O30 2.343754 1_555
Ho3 O13 2.353964 1_545
Ho3 O34 2.369572 1_555
Ho3 O5 2.370678 1_545
Ho3 O11 2.391009 1_555
Ho3 O43 2.395486 1_455
Ho3 O25 2.458057 1_555
Hf0 O48 2.049353 1_555
Hf0 O46 2.070866 1_555
Hf0 O36 2.073464 1_555
Hf0 O22 2.093704 1_555
Hf0 O52 2.096191 1_555
Hf0 O0 2.096707 1_555
Hf1 O49 2.049353 1_555
Hf1 O47 2.070866 1_555
Hf1 O37 2.073464 1_555
Hf1 O23 2.093704 1_555
Hf1 O53 2.096191 1_555
Hf1 O1 2.096707 1_555
Hf2 O50 2.049353 1_555
Hf2 O44 2.070866 1_555
Hf2 O38 2.073464 1_555
Hf2 O20 2.093704 1_555
Hf2 O54 2.096191 1_555
Hf2 O2 2.096707 1_555
Hf3 O51 2.049353 1_555
Hf3 O45 2.070866 1_555
Hf3 O39 2.073464 1_555
Hf3 O21 2.093704 1_555
Hf3 O55 2.096191 1_555
Hf3 O3 2.096707 1_555
Mo0 O8 1.757800 1_565
Mo0 O32 1.766656 1_555
Mo0 O20 1.823455 1_555
Mo0 O0 1.833205 1_565
Mo1 O9 1.757800 1_545
Mo1 O33 1.766656 1_555
Mo1 O21 1.823455 1_555
Mo1 O1 1.833205 1_545
Mo2 O10 1.757800 1_455
Mo2 O34 1.766656 1_555
Mo2 O22 1.823455 1_555
Mo2 O2 1.833205 1_455
Mo3 O11 1.757800 1_655
Mo3 O35 1.766656 1_555
Mo3 O23 1.823455 1_555
Mo3 O3 1.833205 1_655
Mo4 O25 1.765324 1_555
Mo4 O4 1.773895 1_555
Mo4 O52 1.820721 1_555
Mo4 O39 1.835975 1_555
Mo5 O24 1.765324 1_555
Mo5 O5 1.773895 1_555
Mo5 O53 1.820721 1_555
Mo5 O38 1.835975 1_555
Mo6 O27 1.765324 1_554
Mo6 O6 1.773895 1_555
Mo6 O54 1.820721 1_555
Mo6 O37 1.835975 1_554
Mo7 O26 1.765324 1_556
Mo7 O7 1.773895 1_555
Mo7 O55 1.820721 1_555
Mo7 O36 1.835975 1_556
Mo8 O14 1.765813 1_555
Mo8 O16 1.780255 1_545
Mo8 O28 1.784911 1_545
Mo8 O48 1.854768 1_555
Mo9 O15 1.765813 1_555
Mo9 O17 1.780255 1_565
Mo9 O29 1.784911 1_565
Mo9 O49 1.854768 1_555
Mo10 O12 1.765813 1_555
Mo10 O18 1.780255 1_655
Mo10 O30 1.784911 1_655
Mo10 O50 1.854768 1_555
Mo11 O13 1.765813 1_555
Mo11 O19 1.780255 1_455
Mo11 O31 1.784911 1_455
Mo11 O51 1.854768 1_555
Mo12 O40 1.767812 1_555
Mo12 O42 1.767812 1_555
Mo12 O46 1.828183 1_555
Mo12 O44 1.828183 1_555
Mo13 O43 1.767812 1_555
Mo13 O41 1.767812 1_555
Mo13 O45 1.828183 1_555
Mo13 O47 1.828183 1_555
