# generated using pymatgen
data_Ca3Ti3Si2GeO15
_symmetry_space_group_name_H-M   'P 1'
_cell_length_a   6.70533700
_cell_length_b   7.18747008
_cell_length_c   26.50565076
_cell_angle_alpha   89.96020241
_cell_angle_beta   89.97495735
_cell_angle_gamma   65.77504181
_symmetry_Int_Tables_number   1
_chemical_formula_structural   Ca3Ti3Si2GeO15
_chemical_formula_sum   'Ca12 Ti12 Si8 Ge4 O60'
_cell_volume   1164.93577768
_cell_formula_units_Z   4
loop_
 _symmetry_equiv_pos_site_id
 _symmetry_equiv_pos_as_xyz
  1  'x, y, z'
loop_
 _atom_site_type_symbol
 _atom_site_label
 _atom_site_symmetry_multiplicity
 _atom_site_fract_x
 _atom_site_fract_y
 _atom_site_fract_z
 _atom_site_occupancy
  Ca  Ca0  1  0.75424100  0.74682900  0.97479700  1
  Ca  Ca1  1  0.75390600  0.74711700  0.64105000  1
  Ca  Ca2  1  0.75401800  0.74696300  0.30814800  1
  Ca  Ca3  1  0.24581300  0.75304400  0.80763600  1
  Ca  Ca4  1  0.24593600  0.75523400  0.47362000  1
  Ca  Ca5  1  0.24599900  0.75522500  0.14057000  1
  Ca  Ca6  1  0.24408100  0.25591400  0.69222500  1
  Ca  Ca7  1  0.24439600  0.25537700  0.35998500  1
  Ca  Ca8  1  0.24433500  0.25555000  0.02690900  1
  Ca  Ca9  1  0.75586600  0.24389300  0.85927000  1
  Ca  Ca10  1  0.75461400  0.24388400  0.52511200  1
  Ca  Ca11  1  0.75455300  0.24387700  0.19194900  1
  Ti  Ti0  1  0.25293900  0.00282700  0.91903400  1
  Ti  Ti1  1  0.25324100  0.00483400  0.58418900  1
  Ti  Ti2  1  0.25301000  0.00540600  0.25119100  1
  Ti  Ti3  1  0.74614800  0.49793900  0.75195600  1
  Ti  Ti4  1  0.74978800  0.49713600  0.41913700  1
  Ti  Ti5  1  0.75044000  0.49695200  0.08600300  1
  Ti  Ti6  1  0.75158100  0.99099700  0.74915000  1
  Ti  Ti7  1  0.74815200  0.99354300  0.41657200  1
  Ti  Ti8  1  0.74771600  0.99347300  0.08342100  1
  Ti  Ti9  1  0.24888000  0.50917500  0.91615200  1
  Ti  Ti10  1  0.24803800  0.50862500  0.58131700  1
  Ti  Ti11  1  0.24806600  0.50864500  0.24824000  1
  Si  Si0  1  0.25140100  0.25042700  0.47695600  1
  Si  Si1  1  0.25143500  0.25036300  0.14381700  1
  Si  Si2  1  0.25179800  0.75056800  0.68956500  1
  Si  Si3  1  0.25184100  0.75029800  0.35650800  1
  Si  Si4  1  0.25176700  0.75010000  0.02384000  1
  Si  Si5  1  0.74819300  0.74957700  0.85695600  1
  Si  Si6  1  0.74853500  0.74949700  0.52368900  1
  Si  Si7  1  0.74849200  0.74952500  0.19054900  1
  Ge  Ge0  1  0.74927500  0.24967300  0.97792600  1
  Ge  Ge1  1  0.74940500  0.24952500  0.64336000  1
  Ge  Ge2  1  0.74926500  0.24949500  0.31050200  1
  Ge  Ge3  1  0.25061000  0.25043100  0.81076900  1
  O  O0  1  0.35311600  0.87983200  0.98805500  1
  O  O1  1  0.35250200  0.87995200  0.65360100  1
  O  O2  1  0.35220800  0.88043300  0.32062900  1
  O  O3  1  0.64641700  0.62069100  0.82102600  1
  O  O4  1  0.64699800  0.61981700  0.48777000  1
  O  O5  1  0.64711000  0.61989300  0.15459300  1
  O  O6  1  0.63933500  0.10870700  0.67995400  1
  O  O7  1  0.63773100  0.10940300  0.34720300  1
  O  O8  1  0.63657400  0.10956200  0.01424700  1
  O  O9  1  0.36171900  0.39102700  0.84711500  1
  O  O10  1  0.35180400  0.38190200  0.51209200  1
  O  O11  1  0.35191700  0.38178400  0.17896500  1
  O  O12  1  0.56066900  0.41526000  0.93439400  1
  O  O13  1  0.55979800  0.41289400  0.59950700  1
  O  O14  1  0.56002400  0.41286200  0.26656100  1
  O  O15  1  0.43974600  0.08493500  0.76731300  1
  O  O16  1  0.43640500  0.09870000  0.43736500  1
  O  O17  1  0.43609200  0.09857900  0.10418400  1
  O  O18  1  0.43650100  0.59911000  0.72940800  1
  O  O19  1  0.43764200  0.59939500  0.39630800  1
  O  O20  1  0.43756900  0.59884900  0.06339000  1
  O  O21  1  0.56343900  0.90131400  0.89658400  1
  O  O22  1  0.56438300  0.90077600  0.56318600  1
  O  O23  1  0.56420200  0.90075400  0.23005600  1
  O  O24  1  0.24144600  0.24939100  0.93967500  1
  O  O25  1  0.24154900  0.24916200  0.60591400  1
  O  O26  1  0.24149600  0.24907200  0.27306700  1
  O  O27  1  0.75849200  0.25039800  0.77250900  1
  O  O28  1  0.75797700  0.24980100  0.43885400  1
  O  O29  1  0.75795900  0.24981300  0.10563500  1
  O  O30  1  0.75932100  0.74934300  0.72733300  1
  O  O31  1  0.75919700  0.74916100  0.39488300  1
  O  O32  1  0.75922800  0.74924700  0.06156400  1
  O  O33  1  0.24057600  0.75050400  0.89418100  1
  O  O34  1  0.24161700  0.74962600  0.55928600  1
  O  O35  1  0.24161700  0.74950700  0.22625000  1
  O  O36  1  0.14967500  0.10066000  0.84687300  1
  O  O37  1  0.15903800  0.11071700  0.51157400  1
  O  O38  1  0.15885800  0.11089900  0.17847100  1
  O  O39  1  0.84928900  0.39955300  0.67962300  1
  O  O40  1  0.85074500  0.39893600  0.34672000  1
  O  O41  1  0.85179700  0.39895100  0.01383200  1
  O  O42  1  0.84060600  0.88847400  0.82171700  1
  O  O43  1  0.84142100  0.88810700  0.48844300  1
  O  O44  1  0.84130200  0.88808100  0.15526700  1
  O  O45  1  0.15938600  0.61099600  0.98871100  1
  O  O46  1  0.16009400  0.61144100  0.65433200  1
  O  O47  1  0.16011000  0.61103200  0.32131700  1
  O  O48  1  0.93638900  0.58807100  0.89428500  1
  O  O49  1  0.93548900  0.58902900  0.56123500  1
  O  O50  1  0.93559800  0.58894500  0.22807000  1
  O  O51  1  0.06346600  0.91120400  0.72710100  1
  O  O52  1  0.06242600  0.91051300  0.39395900  1
  O  O53  1  0.06250800  0.91116500  0.06102900  1
  O  O54  1  0.05779000  0.42625800  0.76964600  1
  O  O55  1  0.06307600  0.41008900  0.43940400  1
  O  O56  1  0.06342800  0.41018400  0.10622500  1
  O  O57  1  0.94147300  0.07337800  0.93680100  1
  O  O58  1  0.94216300  0.07505700  0.60177900  1
  O  O59  1  0.94172100  0.07486600  0.26885500  1
loop_
_geom_bond_atom_site_label_1
_geom_bond_atom_site_label_2
_geom_bond_distance
_geom_bond_site_symmetry_2
Ca0 O32 2.300255 1_556
Ca0 O21 2.449644 1_555
Ca0 O0 2.482199 1_555
Ca0 O48 2.491030 1_555
Ca0 O45 2.508607 1_655
Ca0 O41 2.530805 1_556
Ca0 O8 2.613050 1_566
Ca1 O30 2.287462 1_555
Ca1 O22 2.437515 1_555
Ca1 O49 2.472824 1_555
Ca1 O1 2.481425 1_555
Ca1 O46 2.512724 1_655
Ca1 O39 2.526017 1_555
Ca1 O6 2.602390 1_565
Ca2 O31 2.299408 1_555
Ca2 O23 2.443518 1_555
Ca2 O50 2.478656 1_555
Ca2 O2 2.483428 1_555
Ca2 O47 2.511607 1_655
Ca2 O40 2.527590 1_555
Ca2 O7 2.608039 1_565
Ca3 O33 2.294360 1_555
Ca3 O18 2.449137 1_555
Ca3 O3 2.479890 1_555
Ca3 O51 2.490416 1_555
Ca3 O42 2.509656 1_455
Ca3 O36 2.533940 1_565
Ca3 O9 2.608974 1_555
Ca4 O34 2.271346 1_555
Ca4 O19 2.434243 1_555
Ca4 O52 2.467795 1_555
Ca4 O4 2.484444 1_555
Ca4 O43 2.509460 1_455
Ca4 O37 2.580893 1_565
Ca4 O10 2.679102 1_555
Ca5 O35 2.271743 1_555
Ca5 O20 2.431935 1_555
Ca5 O53 2.466214 1_555
Ca5 O5 2.484272 1_555
Ca5 O44 2.510077 1_455
Ca5 O38 2.581283 1_565
Ca5 O11 2.678977 1_555
Ca6 O25 2.288496 1_555
Ca6 O15 2.422482 1_555
Ca6 O39 2.437757 1_455
Ca6 O6 2.438836 1_555
Ca6 O54 2.452885 1_555
Ca6 O46 2.582955 1_555
Ca6 O1 2.696221 1_545
Ca7 O26 2.304543 1_555
Ca7 O7 2.429104 1_555
Ca7 O40 2.433272 1_455
Ca7 O16 2.437554 1_555
Ca7 O55 2.457131 1_555
Ca7 O47 2.591451 1_555
Ca7 O2 2.697730 1_545
Ca8 O24 2.312890 1_554
Ca8 O8 2.421986 1_555
Ca8 O41 2.425781 1_455
Ca8 O17 2.435159 1_555
Ca8 O56 2.453798 1_555
Ca8 O45 2.584381 1_554
Ca8 O0 2.696642 1_544
Ca9 O27 2.300306 1_555
Ca9 O12 2.423483 1_555
Ca9 O36 2.430949 1_655
Ca9 O9 2.431802 1_555
Ca9 O57 2.453779 1_555
Ca9 O42 2.579005 1_545
Ca9 O3 2.695627 1_555
Ca10 O28 2.286964 1_555
Ca10 O13 2.401928 1_555
Ca10 O58 2.435143 1_555
Ca10 O10 2.489975 1_555
Ca10 O37 2.503663 1_655
Ca10 O43 2.569806 1_545
Ca10 O4 2.682918 1_555
Ca11 O29 2.288456 1_555
Ca11 O14 2.405957 1_555
Ca11 O59 2.440014 1_555
Ca11 O11 2.488805 1_555
Ca11 O38 2.502782 1_655
Ca11 O44 2.570130 1_545
Ca11 O5 2.683757 1_555
Ge0 O12 1.763911 1_555
Ge0 O57 1.765006 1_555
Ge0 O8 1.770472 1_556
Ge0 O41 1.771100 1_556
Ge1 O13 1.766501 1_555
Ge1 O6 1.766623 1_555
Ge1 O58 1.768711 1_555
Ge1 O39 1.769148 1_555
Ge2 O14 1.766936 1_555
Ge2 O59 1.769388 1_555
Ge2 O7 1.770724 1_555
Ge2 O40 1.772027 1_555
Ge3 O15 1.764271 1_555
Ge3 O54 1.765006 1_555
Ge3 O9 1.767522 1_555
Ge3 O36 1.768763 1_555
O0 Si4 1.658061 1_556
O0 Ti0 2.022646 1_565
O1 Si2 1.656192 1_555
O1 Ti1 2.035208 1_565
O2 Si3 1.657396 1_555
O2 Ti2 2.035969 1_565
O3 Si5 1.658746 1_555
O3 Ti3 2.023421 1_555
O4 Si6 1.661710 1_555
O4 Ti4 2.016012 1_555
O5 Si7 1.661357 1_555
O5 Ti5 2.016130 1_555
O6 Ti6 2.030423 1_545
O7 Ti7 2.028658 1_545
O8 Ti8 2.025363 1_545
O9 Ti9 2.028718 1_555
O10 Si0 1.654508 1_555
O10 Ti10 2.039984 1_555
O11 Si1 1.654741 1_555
O11 Ti11 2.041570 1_555
O12 Ti9 1.975495 1_555
O13 Ti10 1.973812 1_555
O14 Ti11 1.975847 1_555
O15 Ti6 1.975034 1_545
O16 Si0 1.649127 1_555
O16 Ti7 1.986872 1_545
O17 Si1 1.648864 1_555
O17 Ti8 1.985931 1_545
O18 Si2 1.651463 1_555
O18 Ti3 1.989572 1_555
O19 Si3 1.652895 1_555
O19 Ti4 2.006298 1_555
O20 Si4 1.649548 1_555
O20 Ti5 2.009089 1_555
O21 Si5 1.648972 1_555
O21 Ti0 1.993512 1_565
O22 Si6 1.643660 1_555
O22 Ti1 1.985204 1_565
O23 Si7 1.644145 1_555
O23 Ti2 1.986261 1_565
O24 Ti0 1.826222 1_555
O24 Ti9 1.988055 1_555
O25 Ti1 1.819341 1_555
O25 Ti10 1.992387 1_555
O26 Ti2 1.816530 1_555
O26 Ti11 1.995353 1_555
O27 Ti3 1.829480 1_555
O27 Ti6 1.983468 1_545
O28 Ti4 1.831674 1_555
O28 Ti7 1.961293 1_545
O29 Ti5 1.831343 1_555
O29 Ti8 1.962488 1_545
O30 Ti6 1.811420 1_555
O30 Ti3 1.956564 1_555
O31 Ti7 1.820944 1_555
O31 Ti4 1.946957 1_555
O32 Ti8 1.820186 1_555
O32 Ti5 1.948689 1_555
O33 Ti9 1.808384 1_555
O33 Ti0 1.963394 1_565
O34 Ti10 1.811280 1_555
O34 Ti1 1.981282 1_565
O35 Ti11 1.809916 1_555
O35 Ti2 1.985649 1_565
O36 Ti0 2.057169 1_555
O37 Si0 1.656027 1_555
O37 Ti1 2.070555 1_555
O38 Si1 1.656107 1_555
O38 Ti2 2.072414 1_555
O39 Ti3 2.062408 1_555
O40 Ti4 2.061407 1_555
O41 Ti5 2.055545 1_555
O42 Si5 1.660993 1_555
O42 Ti6 2.058396 1_555
O43 Si6 1.661509 1_555
O43 Ti7 2.050486 1_555
O44 Si7 1.661437 1_555
O44 Ti8 2.050122 1_555
O45 Si4 1.661429 1_556
O45 Ti9 2.057918 1_555
O46 Si2 1.660293 1_555
O46 Ti10 2.069454 1_555
O47 Si3 1.660533 1_555
O47 Ti11 2.070262 1_555
O48 Si5 1.648115 1_555
O48 Ti9 2.018301 1_655
O49 Si6 1.644716 1_555
O49 Ti10 2.004019 1_655
O50 Si7 1.645112 1_555
O50 Ti11 2.004242 1_655
O51 Si2 1.649729 1_555
O51 Ti6 2.014724 1_455
O52 Si3 1.650699 1_555
O52 Ti7 2.030645 1_455
O53 Si4 1.648378 1_555
O53 Ti8 2.032806 1_455
O54 Ti3 1.992235 1_455
O55 Si0 1.646976 1_555
O55 Ti4 2.003723 1_455
O56 Si1 1.647030 1_555
O56 Ti5 2.001789 1_455
O57 Ti0 1.992751 1_655
O58 Ti1 1.989607 1_655
O59 Ti2 1.992378 1_655
