# generated using pymatgen
data_TaTlWO6
_symmetry_space_group_name_H-M   'P 1'
_cell_length_a   7.43074317
_cell_length_b   7.43074317
_cell_length_c   7.43074317
_cell_angle_alpha   120.19831661
_cell_angle_beta   119.89205311
_cell_angle_gamma   89.92196025
_symmetry_Int_Tables_number   1
_chemical_formula_structural   TaTlWO6
_chemical_formula_sum   'Ta2 Tl2 W2 O12'
_cell_volume   289.92170104
_cell_formula_units_Z   2
loop_
 _symmetry_equiv_pos_site_id
 _symmetry_equiv_pos_as_xyz
  1  'x, y, z'
loop_
 _atom_site_type_symbol
 _atom_site_label
 _atom_site_symmetry_multiplicity
 _atom_site_fract_x
 _atom_site_fract_y
 _atom_site_fract_z
 _atom_site_occupancy
  Ta  Ta0  1  0.50000000  0.99704100  0.49704100  1
  Ta  Ta1  1  0.00000000  0.99704100  0.99704100  1
  Tl  Tl0  1  0.09296700  0.27633600  0.68336900  1
  Tl  Tl1  1  0.90703300  0.59040200  0.18336900  1
  W  W0  1  0.50028200  0.49726100  0.49697900  1
  W  W1  1  0.49971800  0.99669700  0.99697900  1
  O  O0  1  0.55873800  0.30875700  0.25001900  1
  O  O1  1  0.18514800  0.93759000  0.25244200  1
  O  O2  1  0.19372700  0.94038000  0.87831500  1
  O  O3  1  0.56102000  0.31644400  0.62375800  1
  O  O4  1  0.56206600  0.94038000  0.24665300  1
  O  O5  1  0.19268600  0.31644400  0.25542400  1
  O  O6  1  0.44126200  0.69128100  0.75001900  1
  O  O7  1  0.81485200  0.06729400  0.75244200  1
  O  O8  1  0.80731400  0.06273800  0.12375800  1
  O  O9  1  0.43793400  0.68458800  0.37831500  1
  O  O10  1  0.43898000  0.06273800  0.75542400  1
  O  O11  1  0.80627300  0.68458800  0.74665300  1
loop_
_geom_bond_atom_site_label_1
_geom_bond_atom_site_label_2
_geom_bond_distance
_geom_bond_site_symmetry_2
O0 W0 1.930099 1_555
O0 W1 1.974705 1_544
O1 Ta1 1.982158 1_554
O1 Ta0 1.982158 1_555
O2 W1 1.937926 1_555
O2 Ta1 1.979488 1_555
O3 W0 1.935032 1_555
O3 Ta0 2.013564 1_545
O4 W1 1.937924 1_554
O4 Ta0 1.979493 1_555
O5 W0 1.935032 1_555
O5 Ta1 2.013564 1_544
O6 W1 1.930099 1_555
O6 W0 1.974705 1_555
O7 Ta1 1.982158 1_645
O7 Ta0 1.982158 1_545
O8 W1 1.935032 1_544
O8 Ta1 2.013564 1_644
O9 W0 1.937926 1_555
O9 Ta0 1.979488 1_555
O10 W1 1.935032 1_545
O10 Ta0 2.013564 1_545
O11 W0 1.937926 1_555
O11 Ta1 1.979488 1_655
