# generated using pymatgen
data_Mg3Bi3N5
_symmetry_space_group_name_H-M   'P 1'
_cell_length_a   6.18724436
_cell_length_b   7.93500463
_cell_length_c   8.73438416
_cell_angle_alpha   98.02824028
_cell_angle_beta   104.04754657
_cell_angle_gamma   94.38627069
_symmetry_Int_Tables_number   1
_chemical_formula_structural   Mg3Bi3N5
_chemical_formula_sum   'Mg6 Bi6 N10'
_cell_volume   409.19204232
_cell_formula_units_Z   2
loop_
 _symmetry_equiv_pos_site_id
 _symmetry_equiv_pos_as_xyz
  1  'x, y, z'
loop_
 _atom_site_type_symbol
 _atom_site_label
 _atom_site_symmetry_multiplicity
 _atom_site_fract_x
 _atom_site_fract_y
 _atom_site_fract_z
 _atom_site_occupancy
  Mg  Mg0  1  0.89604300  0.31172700  0.94874100  1
  Mg  Mg1  1  0.10395700  0.68827300  0.05125900  1
  Mg  Mg2  1  0.72463200  0.02115600  0.58660100  1
  Mg  Mg3  1  0.27536800  0.97884400  0.41339900  1
  Mg  Mg4  1  0.12607500  0.89423500  0.74112100  1
  Mg  Mg5  1  0.87392500  0.10576500  0.25887900  1
  Bi  Bi0  1  0.77398400  0.51296100  0.61131500  1
  Bi  Bi1  1  0.22601600  0.48703900  0.38868500  1
  Bi  Bi2  1  0.63376800  0.90172600  0.88337100  1
  Bi  Bi3  1  0.36623200  0.09827400  0.11662900  1
  Bi  Bi4  1  0.72037300  0.74383600  0.28535900  1
  Bi  Bi5  1  0.27962700  0.25616400  0.71464100  1
  N  N0  1  0.99260800  0.13253100  0.77732100  1
  N  N1  1  0.00739200  0.86746900  0.22267900  1
  N  N2  1  0.85465400  0.76926800  0.55639600  1
  N  N3  1  0.14534600  0.23073200  0.44360400  1
  N  N4  1  0.85803200  0.54538500  0.85579500  1
  N  N5  1  0.14196800  0.45461500  0.14420500  1
  N  N6  1  0.41293500  0.99810300  0.66102800  1
  N  N7  1  0.58706500  0.00189700  0.33897200  1
  N  N8  1  0.31750900  0.84419300  0.95936000  1
  N  N9  1  0.68249100  0.15580700  0.04064000  1
loop_
_geom_bond_atom_site_label_1
_geom_bond_atom_site_label_2
_geom_bond_distance
_geom_bond_site_symmetry_2
Mg0 N5 2.109469 1_656
Mg0 N9 2.112596 1_556
Mg0 N4 2.132233 1_555
Mg0 N0 2.142459 1_555
Mg1 N4 2.109469 1_454
Mg1 N8 2.112596 1_554
Mg1 N5 2.132233 1_555
Mg1 N1 2.142459 1_555
Mg2 N0 2.080602 1_555
Mg2 N7 2.102376 1_555
Mg2 N6 2.182479 1_545
Mg2 N2 2.216622 1_545
Mg3 N1 2.080602 1_555
Mg3 N6 2.102376 1_555
Mg3 N7 2.182479 1_565
Mg3 N3 2.216622 1_565
Mg4 N8 2.093190 1_555
Mg4 N2 2.095179 1_455
Mg4 N0 2.134463 1_465
Mg4 N6 2.204293 1_555
Mg5 N9 2.093190 1_555
Mg5 N3 2.095179 1_655
Mg5 N1 2.134463 1_645
Mg5 N7 2.204293 1_555
Bi0 N4 2.045356 1_555
Bi0 N2 2.202047 1_555
Bi1 N5 2.045356 1_555
Bi1 N3 2.202047 1_555
Bi2 N9 2.230475 1_566
Bi2 N8 2.248636 1_555
Bi2 N6 2.347287 1_555
Bi3 N8 2.230475 1_544
Bi3 N9 2.248636 1_555
Bi3 N7 2.347287 1_555
Bi4 N1 2.184335 1_655
Bi4 N2 2.285038 1_555
Bi4 N7 2.295808 1_565
Bi5 N0 2.184335 1_455
Bi5 N3 2.285038 1_555
Bi5 N6 2.295808 1_545
