# generated using pymatgen
data_Ho(AlGe)2
_symmetry_space_group_name_H-M   'P 1'
_cell_length_a   4.22619362
_cell_length_b   4.22619213
_cell_length_c   6.59479519
_cell_angle_alpha   90.00009861
_cell_angle_beta   89.99988287
_cell_angle_gamma   119.99935414
_symmetry_Int_Tables_number   1
_chemical_formula_structural   Ho(AlGe)2
_chemical_formula_sum   'Ho1 Al2 Ge2'
_cell_volume   102.00780377
_cell_formula_units_Z   1
loop_
 _symmetry_equiv_pos_site_id
 _symmetry_equiv_pos_as_xyz
  1  'x, y, z'
loop_
 _atom_site_type_symbol
 _atom_site_label
 _atom_site_symmetry_multiplicity
 _atom_site_fract_x
 _atom_site_fract_y
 _atom_site_fract_z
 _atom_site_occupancy
  Ho  Ho0  1  -0.00003238  -0.00003062  0.99995026  1
  Al  Al0  1  0.66667758  0.33334168  0.35505127  1
  Al  Al1  1  0.33334282  0.66667535  0.64498254  1
  Ge  Ge0  1  0.66667270  0.33334011  0.74207244  1
  Ge  Ge1  1  0.33333928  0.66667349  0.25794449  1
loop_
_geom_bond_atom_site_label_1
_geom_bond_atom_site_label_2
_geom_bond_distance
_geom_bond_site_symmetry_2
Al0 Ge1 2.522631 1_655
Al0 Ge1 2.522639 1_555
Al0 Ge1 2.522653 1_545
Al0 Ge0 2.552325 1_555
Al1 Ge0 2.522593 1_555
Al1 Ge0 2.522613 1_565
Al1 Ge0 2.522632 1_455
Al1 Ge1 2.552437 1_555
Ge0 Ho0 2.974086 1_665
Ge0 Ho0 2.974180 1_655
Ge0 Ho0 2.974313 1_555
Ge1 Ho0 2.974522 1_664
Ge1 Ho0 2.974624 1_564
Ge1 Ho0 2.974749 1_554
