# generated using pymatgen
data_Mg3SO9
_symmetry_space_group_name_H-M   'P 1'
_cell_length_a   7.13005718
_cell_length_b   5.71073553
_cell_length_c   7.10973880
_cell_angle_alpha   86.15247635
_cell_angle_beta   105.10564756
_cell_angle_gamma   113.03701310
_symmetry_Int_Tables_number   1
_chemical_formula_structural   Mg3SO9
_chemical_formula_sum   'Mg3 S1 O9'
_cell_volume   257.00354065
_cell_formula_units_Z   1
loop_
 _symmetry_equiv_pos_site_id
 _symmetry_equiv_pos_as_xyz
  1  'x, y, z'
loop_
 _atom_site_type_symbol
 _atom_site_label
 _atom_site_symmetry_multiplicity
 _atom_site_fract_x
 _atom_site_fract_y
 _atom_site_fract_z
 _atom_site_occupancy
  Mg  Mg0  1  0.85504800  0.83918600  0.36272400  1
  Mg  Mg1  1  0.63266000  0.68664200  0.79712800  1
  Mg  Mg2  1  0.11420000  0.64987600  0.81663400  1
  S  S0  1  0.07441200  0.81218000  0.13385500  1
  O  O0  1  0.78747900  0.45497300  0.76868300  1
  O  O1  1  0.69521300  0.85640700  0.54446500  1
  O  O2  1  0.42756400  0.77606300  0.89520900  1
  O  O3  1  0.82506600  0.76657300  0.08967300  1
  O  O4  1  0.99717900  0.40503800  0.05692100  1
  O  O5  1  0.05350000  0.90386300  0.62028400  1
  O  O6  1  0.90731500  0.98641600  0.68453600  1
  O  O7  1  0.32307300  0.53650500  0.76129700  1
  O  O8  1  0.79154100  0.32627700  0.95284000  1
loop_
_geom_bond_atom_site_label_1
_geom_bond_atom_site_label_2
_geom_bond_distance
_geom_bond_site_symmetry_2
Mg0 O3 1.951599 1_555
Mg0 O5 1.955269 1_655
Mg0 O1 1.962219 1_555
Mg1 O7 1.981794 1_555
Mg1 O2 2.012270 1_555
Mg1 O1 2.052121 1_555
Mg1 O0 2.074853 1_555
Mg1 O3 2.136954 1_556
Mg1 O6 2.327181 1_555
Mg2 O7 1.971321 1_555
Mg2 O2 1.991690 1_555
Mg2 O5 2.035830 1_555
Mg2 O0 2.095118 1_455
Mg2 O4 2.253665 1_456
Mg2 S0 2.616493 1_556
O0 O8 1.457063 1_555
O1 O6 1.505172 1_555
O2 O7 1.529863 1_555
O3 S0 1.638527 1_655
O4 O8 1.364807 1_554
O4 S0 2.240544 1_655
O5 O6 1.476139 1_455
