# generated using pymatgen
data_Na3FeN2
_symmetry_space_group_name_H-M   'P 1'
_cell_length_a   9.42403800
_cell_length_b   10.88194156
_cell_length_c   10.88194113
_cell_angle_alpha   90.00000101
_cell_angle_beta   125.26439198
_cell_angle_gamma   54.73560960
_symmetry_Int_Tables_number   1
_chemical_formula_structural   Na3FeN2
_chemical_formula_sum   'Na24 Fe8 N16'
_cell_volume   644.30149372
_cell_formula_units_Z   8
loop_
 _symmetry_equiv_pos_site_id
 _symmetry_equiv_pos_as_xyz
  1  'x, y, z'
loop_
 _atom_site_type_symbol
 _atom_site_label
 _atom_site_symmetry_multiplicity
 _atom_site_fract_x
 _atom_site_fract_y
 _atom_site_fract_z
 _atom_site_occupancy
  Na  Na0  1  0.18823800  0.06451200  0.95441200  1
  Na  Na1  1  0.81176200  0.75274900  0.54558800  1
  Na  Na2  1  0.81176200  0.43548800  0.76617400  1
  Na  Na3  1  0.18823800  0.74725100  0.73382600  1
  Na  Na4  1  0.27941300  0.76617400  0.29833700  1
  Na  Na5  1  0.72058700  0.73382600  0.01892400  1
  Na  Na6  1  0.27941300  0.95441200  0.48107600  1
  Na  Na7  1  0.72058700  0.54558800  0.20166300  1
  Na  Na8  1  0.68273900  0.01892400  0.74725100  1
  Na  Na9  1  0.68273900  0.29833700  0.43548800  1
  Na  Na10  1  0.31726100  0.20166300  0.75274900  1
  Na  Na11  1  0.31726100  0.48107600  0.06451200  1
  Na  Na12  1  0.81176200  0.93548800  0.04558800  1
  Na  Na13  1  0.18823800  0.24725100  0.45441200  1
  Na  Na14  1  0.18823800  0.56451200  0.23382600  1
  Na  Na15  1  0.81176200  0.25274900  0.26617400  1
  Na  Na16  1  0.72058700  0.23382600  0.70166300  1
  Na  Na17  1  0.27941300  0.26617400  0.98107600  1
  Na  Na18  1  0.72058700  0.04558800  0.51892400  1
  Na  Na19  1  0.27941300  0.45441200  0.79833700  1
  Na  Na20  1  0.31726100  0.98107600  0.25274900  1
  Na  Na21  1  0.31726100  0.70166300  0.56451200  1
  Na  Na22  1  0.68273900  0.79833700  0.24725100  1
  Na  Na23  1  0.68273900  0.51892400  0.93548800  1
  Fe  Fe0  1  0.21064400  0.00000000  0.71064400  1
  Fe  Fe1  1  0.78935600  0.71064400  0.78935600  1
  Fe  Fe2  1  0.78935600  0.50000000  0.50000000  1
  Fe  Fe3  1  0.21064400  0.78935600  0.00000000  1
  Fe  Fe4  1  0.78935600  0.00000000  0.28935600  1
  Fe  Fe5  1  0.21064400  0.28935600  0.21064400  1
  Fe  Fe6  1  0.21064400  0.50000000  0.50000000  1
  Fe  Fe7  1  0.78935600  0.21064400  0.00000000  1
  N  N0  1  0.00000000  0.00000000  0.50000000  1
  N  N1  1  0.00000000  0.50000000  0.00000000  1
  N  N2  1  0.00000000  0.50000000  0.50000000  1
  N  N3  1  0.00000000  0.00000000  0.00000000  1
  N  N4  1  0.50000000  0.92951000  0.75000000  1
  N  N5  1  0.50000000  0.57049000  0.25000000  1
  N  N6  1  0.00000000  0.25000000  0.67951000  1
  N  N7  1  0.00000000  0.75000000  0.82049000  1
  N  N8  1  0.64098100  0.67951000  0.57049000  1
  N  N9  1  0.35901900  0.82049000  0.92951000  1
  N  N10  1  0.50000000  0.07049000  0.25000000  1
  N  N11  1  0.50000000  0.42951000  0.75000000  1
  N  N12  1  0.00000000  0.75000000  0.32049000  1
  N  N13  1  0.00000000  0.25000000  0.17951000  1
  N  N14  1  0.35901900  0.32049000  0.42951000  1
  N  N15  1  0.64098100  0.17951000  0.07049000  1
loop_
_geom_bond_atom_site_label_1
_geom_bond_atom_site_label_2
_geom_bond_distance
_geom_bond_site_symmetry_2
Fe0 N0 1.985117 1_555
Fe0 N6 2.108074 1_555
Fe0 N4 2.108074 1_545
Fe0 N9 2.108079 1_545
Fe1 N1 1.985117 1_656
Fe1 N8 2.108073 1_555
Fe1 N4 2.108074 1_555
Fe1 N7 2.108074 1_655
Fe2 N2 1.985117 1_655
Fe2 N8 2.108071 1_555
Fe2 N5 2.108074 1_555
Fe2 N6 2.108074 1_655
Fe3 N3 1.985117 1_565
Fe3 N9 2.108065 1_554
Fe3 N5 2.108074 1_555
Fe3 N7 2.108074 1_554
Fe4 N0 1.985117 1_655
Fe4 N12 2.108074 1_645
Fe4 N10 2.108074 1_555
Fe4 N15 2.108079 1_555
Fe5 N1 1.985117 1_555
Fe5 N14 2.108073 1_555
Fe5 N10 2.108074 1_555
Fe5 N13 2.108074 1_555
Fe6 N2 1.985117 1_555
Fe6 N14 2.108071 1_555
Fe6 N11 2.108074 1_555
Fe6 N12 2.108074 1_555
Fe7 N3 1.985117 1_655
Fe7 N15 2.108065 1_555
Fe7 N11 2.108074 1_554
Fe7 N13 2.108074 1_655
N0 Na9 2.517937 1_455
N0 Na21 2.517937 1_545
N0 Na6 2.517937 1_545
N0 Na18 2.517937 1_455
N0 Na3 2.517939 1_545
N0 Na15 2.517939 1_455
N1 Na11 2.517937 1_555
N1 Na23 2.517937 1_454
N1 Na5 2.517942 1_455
N1 Na17 2.517942 1_554
N1 Na14 2.517946 1_555
N1 Na2 2.517946 1_454
N2 Na19 2.517937 1_555
N2 Na7 2.517937 1_455
N2 Na22 2.517937 1_455
N2 Na10 2.517937 1_555
N2 Na1 2.517939 1_455
N2 Na13 2.517939 1_555
N3 Na20 2.517937 1_545
N3 Na8 2.517937 1_454
N3 Na4 2.517941 1_545
N3 Na16 2.517941 1_454
N3 Na12 2.517946 1_445
N3 Na0 2.517946 1_554
N4 Na5 2.298637 1_556
N4 Na6 2.298641 1_555
N4 Na10 2.430582 1_565
N4 Na8 2.430582 1_565
N5 Na4 2.298637 1_555
N5 Na7 2.298641 1_555
N5 Na11 2.430582 1_555
N5 Na9 2.430582 1_555
N6 Na9 2.298641 1_455
N6 Na10 2.298641 1_555
N6 Na0 2.430578 1_555
N6 Na2 2.430578 1_455
N7 Na11 2.298641 1_556
N7 Na8 2.298641 1_465
N7 Na1 2.430582 1_455
N7 Na3 2.430582 1_555
N8 Na1 2.298623 1_555
N8 Na2 2.298645 1_555
N8 Na6 2.430587 1_555
N8 Na4 2.430591 1_555
N9 Na3 2.298628 1_555
N9 Na0 2.298639 1_565
N9 Na7 2.430582 1_556
N9 Na5 2.430596 1_556
N10 Na17 2.298637 1_554
N10 Na18 2.298641 1_555
N10 Na22 2.430582 1_545
N10 Na20 2.430582 1_545
N11 Na16 2.298637 1_555
N11 Na19 2.298641 1_555
N11 Na23 2.430582 1_555
N11 Na21 2.430582 1_555
N12 Na21 2.298641 1_555
N12 Na22 2.298641 1_455
N12 Na12 2.430578 1_455
N12 Na14 2.430578 1_555
N13 Na23 2.298641 1_454
N13 Na20 2.298641 1_545
N13 Na13 2.430582 1_555
N13 Na15 2.430582 1_455
N14 Na13 2.298623 1_555
N14 Na14 2.298645 1_555
N14 Na18 2.430587 1_555
N14 Na16 2.430591 1_555
N15 Na15 2.298628 1_555
N15 Na12 2.298639 1_545
N15 Na19 2.430582 1_554
N15 Na17 2.430596 1_554
