# generated using pymatgen
data_KNbWO7
_symmetry_space_group_name_H-M   'P 1'
_cell_length_a   7.49067674
_cell_length_b   7.49067674
_cell_length_c   7.49067674
_cell_angle_alpha   119.47263746
_cell_angle_beta   119.40856367
_cell_angle_gamma   90.97167902
_symmetry_Int_Tables_number   1
_chemical_formula_structural   KNbWO7
_chemical_formula_sum   'K2 Nb2 W2 O14'
_cell_volume   299.66571703
_cell_formula_units_Z   2
loop_
 _symmetry_equiv_pos_site_id
 _symmetry_equiv_pos_as_xyz
  1  'x, y, z'
loop_
 _atom_site_type_symbol
 _atom_site_label
 _atom_site_symmetry_multiplicity
 _atom_site_fract_x
 _atom_site_fract_y
 _atom_site_fract_z
 _atom_site_occupancy
  K  K0  1  0.50000000  0.50000000  0.50000000  1
  K  K1  1  0.50000000  0.00000000  0.00000000  1
  Nb  Nb0  1  0.00000000  0.00000000  0.00000000  1
  Nb  Nb1  1  0.50000000  0.00000000  0.50000000  1
  W  W0  1  0.00000000  0.00000000  0.50000000  1
  W  W1  1  0.00000000  0.50000000  0.00000000  1
  O  O0  1  0.28373500  0.53373500  0.75000000  1
  O  O1  1  0.71626500  0.46626500  0.25000000  1
  O  O2  1  0.31356500  0.06356500  0.25000000  1
  O  O3  1  0.93803300  0.68803300  0.25000000  1
  O  O4  1  0.30106100  0.68680800  0.24813900  1
  O  O5  1  0.93867000  0.05292200  0.25186100  1
  O  O6  1  0.30106100  0.05292200  0.61425200  1
  O  O7  1  0.93867000  0.68680800  0.88574800  1
  O  O8  1  0.68643500  0.93643500  0.75000000  1
  O  O9  1  0.06196700  0.31196700  0.75000000  1
  O  O10  1  0.69893900  0.31319200  0.75186100  1
  O  O11  1  0.06133000  0.94707800  0.74813900  1
  O  O12  1  0.69893900  0.94707800  0.38574800  1
  O  O13  1  0.06133000  0.31319200  0.11425200  1
loop_
_geom_bond_atom_site_label_1
_geom_bond_atom_site_label_2
_geom_bond_distance
_geom_bond_site_symmetry_2
K0 O2 2.719809 1_555
K0 O8 2.719809 1_555
K0 O10 2.765059 1_555
K0 O4 2.765059 1_555
K0 O13 2.765066 1_555
K0 O7 2.765066 1_555
K0 O1 2.953397 1_555
K0 O0 2.953397 1_555
K1 O2 2.719809 1_555
K1 O8 2.719809 1_544
K1 O6 2.765065 1_554
K1 O12 2.765065 1_545
K1 O11 2.765065 1_544
K1 O5 2.765065 1_555
K1 O1 2.953397 1_555
K1 O0 2.953397 1_544
Nb0 O8 2.003875 1_444
Nb0 O2 2.003875 1_555
Nb0 O11 2.012190 1_544
Nb0 O5 2.012190 1_455
Nb0 O13 2.012197 1_555
Nb0 O7 2.012197 1_444
Nb1 O8 2.003875 1_545
Nb1 O2 2.003875 1_555
Nb1 O6 2.012190 1_555
Nb1 O12 2.012190 1_545
Nb1 O4 2.012195 1_545
Nb1 O10 2.012195 1_555
O3 W0 1.996636 1_665
O3 W1 1.996636 1_655
O4 W1 1.927619 1_555
O5 W0 1.927620 1_655
O6 W0 1.927620 1_555
O7 W1 1.927613 1_656
O9 W0 1.996636 1_555
O9 W1 1.996636 1_556
O10 W1 1.927619 1_656
O11 W0 1.927620 1_565
O12 W0 1.927620 1_665
O13 W1 1.927613 1_555
