# generated using pymatgen
data_Pr8C8Cl5
_symmetry_space_group_name_H-M   'P 1'
_cell_length_a   17.11739400
_cell_length_b   6.83604300
_cell_length_c   7.71591871
_cell_angle_alpha   76.01102524
_cell_angle_beta   90.00000000
_cell_angle_gamma   90.00000000
_symmetry_Int_Tables_number   1
_chemical_formula_structural   Pr8C8Cl5
_chemical_formula_sum   'Pr16 C16 Cl10'
_cell_volume   876.10270785
_cell_formula_units_Z   2
loop_
 _symmetry_equiv_pos_site_id
 _symmetry_equiv_pos_as_xyz
  1  'x, y, z'
loop_
 _atom_site_type_symbol
 _atom_site_label
 _atom_site_symmetry_multiplicity
 _atom_site_fract_x
 _atom_site_fract_y
 _atom_site_fract_z
 _atom_site_occupancy
  Pr  Pr0  1  0.07034200  0.87633400  0.15070700  1
  Pr  Pr1  1  0.57034200  0.62366600  0.84929300  1
  Pr  Pr2  1  0.92965800  0.12366600  0.84929300  1
  Pr  Pr3  1  0.42965800  0.37633400  0.15070700  1
  Pr  Pr4  1  0.95136300  0.38328000  0.22506600  1
  Pr  Pr5  1  0.45136300  0.11672000  0.77493400  1
  Pr  Pr6  1  0.04863700  0.61672000  0.77493400  1
  Pr  Pr7  1  0.54863700  0.88328000  0.22506600  1
  Pr  Pr8  1  0.19514200  0.37593800  0.07435800  1
  Pr  Pr9  1  0.69514200  0.12406200  0.92564200  1
  Pr  Pr10  1  0.80485800  0.62406200  0.92564200  1
  Pr  Pr11  1  0.30485800  0.87593800  0.07435800  1
  Pr  Pr12  1  0.17332000  0.10348300  0.70087900  1
  Pr  Pr13  1  0.67332000  0.39651700  0.29912100  1
  Pr  Pr14  1  0.82668000  0.89651700  0.29912100  1
  Pr  Pr15  1  0.32668000  0.60348300  0.70087900  1
  C  C0  1  0.03827300  0.27675100  0.02121500  1
  C  C1  1  0.53827300  0.22324900  0.97878500  1
  C  C2  1  0.96172700  0.72324900  0.97878500  1
  C  C3  1  0.46172700  0.77675100  0.02121500  1
  C  C4  1  0.16006600  0.76447000  0.95208900  1
  C  C5  1  0.66006600  0.73553000  0.04791100  1
  C  C6  1  0.83993400  0.23553000  0.04791100  1
  C  C7  1  0.33993400  0.26447000  0.95208900  1
  C  C8  1  0.08538000  0.22133100  0.90200600  1
  C  C9  1  0.58538000  0.27866900  0.09799400  1
  C  C10  1  0.91462000  0.77866900  0.09799400  1
  C  C11  1  0.41462000  0.72133100  0.90200600  1
  C  C12  1  0.28502300  0.21813000  0.84243800  1
  C  C13  1  0.78502300  0.28187000  0.15756200  1
  C  C14  1  0.71497700  0.78187000  0.15756200  1
  C  C15  1  0.21497700  0.71813000  0.84243800  1
  Cl  Cl0  1  0.20263400  0.98353400  0.34970500  1
  Cl  Cl1  1  0.70263400  0.51646600  0.65029500  1
  Cl  Cl2  1  0.79736600  0.01646600  0.65029500  1
  Cl  Cl3  1  0.29736600  0.48353400  0.34970500  1
  Cl  Cl4  1  0.09660400  0.48170900  0.41471100  1
  Cl  Cl5  1  0.59660400  0.01829100  0.58528900  1
  Cl  Cl6  1  0.90339600  0.51829100  0.58528900  1
  Cl  Cl7  1  0.40339600  0.98170900  0.41471100  1
  Cl  Cl8  1  0.00000000  0.00000000  0.50000000  1
  Cl  Cl9  1  0.50000000  0.50000000  0.50000000  1
loop_
_geom_bond_atom_site_label_1
_geom_bond_atom_site_label_2
_geom_bond_distance
_geom_bond_site_symmetry_2
C0 C8 1.344712 1_554
C0 Pr4 2.402352 1_455
C0 Pr6 2.628413 1_554
C0 Pr2 2.642472 1_454
C0 Pr0 2.733131 1_545
C0 Pr8 2.823569 1_555
C1 C9 1.344712 1_556
C1 Pr5 2.402352 1_555
C1 Pr7 2.628413 1_546
C1 Pr3 2.642472 1_556
C1 Pr1 2.733131 1_555
C1 Pr9 2.823569 1_555
C2 Pr6 2.402352 1_655
C2 Pr4 2.628413 1_556
C2 Pr0 2.642472 1_656
C2 Pr2 2.733131 1_565
C2 Pr10 2.823569 1_555
C3 Pr7 2.402352 1_555
C3 Pr5 2.628413 1_564
C3 Pr1 2.642472 1_554
C3 Pr3 2.733131 1_555
C3 Pr11 2.823569 1_555
C4 Pr0 2.420495 1_556
C4 Pr12 2.647188 1_565
C4 Pr8 2.663368 1_556
C4 Pr6 2.682195 1_555
C4 Pr11 2.821527 1_556
C5 Pr1 2.420495 1_554
C5 Pr13 2.647188 1_555
C5 Pr9 2.663368 1_564
C5 Pr7 2.682195 1_555
C5 Pr10 2.821527 1_554
C6 Pr2 2.420495 1_554
C6 Pr14 2.647188 1_545
C6 Pr10 2.663368 1_554
C6 Pr4 2.682195 1_555
C6 Pr9 2.821527 1_554
C7 Pr3 2.420495 1_556
C7 Pr15 2.647188 1_555
C7 Pr11 2.663368 1_546
C7 Pr5 2.682195 1_555
C7 Pr8 2.821527 1_556
C8 Pr12 2.434692 1_555
C8 Pr8 2.663666 1_556
C8 Pr0 2.668845 1_546
C8 Pr6 2.716854 1_555
C8 Pr2 2.801365 1_455
C9 Pr13 2.434692 1_555
C9 Pr9 2.663666 1_554
C9 Pr1 2.668845 1_554
C9 Pr7 2.716854 1_545
C9 Pr3 2.801365 1_555
C10 C2 1.344712 1_554
C10 Pr14 2.434692 1_555
C10 Pr10 2.663666 1_554
C10 Pr2 2.668845 1_564
C10 Pr4 2.716854 1_555
C10 Pr0 2.801365 1_655
C11 C3 1.344712 1_556
C11 Pr15 2.434692 1_555
C11 Pr11 2.663666 1_556
C11 Pr3 2.668845 1_556
C11 Pr5 2.716854 1_565
C11 Pr1 2.801365 1_555
C12 C7 1.352486 1_555
C12 Pr12 2.424277 1_555
C12 Pr11 2.601101 1_546
C12 Pr15 2.692557 1_555
C12 Pr8 2.768823 1_556
C12 Pr5 3.005596 1_555
C13 C6 1.352486 1_555
C13 Pr13 2.424277 1_555
C13 Pr10 2.601101 1_554
C13 Pr14 2.692557 1_545
C13 Pr9 2.768823 1_554
C13 Pr4 3.005596 1_555
C14 C5 1.352486 1_555
C14 Pr14 2.424277 1_555
C14 Pr9 2.601101 1_564
C14 Pr13 2.692557 1_555
C14 Pr10 2.768823 1_554
C14 Pr7 3.005596 1_555
C15 C4 1.352486 1_555
C15 Pr15 2.424277 1_555
C15 Pr8 2.601101 1_556
C15 Pr12 2.692557 1_565
C15 Pr11 2.768823 1_556
C15 Pr6 3.005596 1_555
Cl0 Pr0 2.926873 1_555
Cl0 Pr11 2.978603 1_555
Cl0 Pr8 2.995095 1_565
Cl0 Pr12 3.056212 1_565
Cl1 Pr1 2.926873 1_555
Cl1 Pr10 2.978603 1_555
Cl1 Pr9 2.995095 1_555
Cl1 Pr13 3.056212 1_555
Cl2 Pr2 2.926873 1_555
Cl2 Pr9 2.978603 1_555
Cl2 Pr10 2.995095 1_545
Cl2 Pr14 3.056212 1_545
Cl3 Pr3 2.926873 1_555
Cl3 Pr8 2.978603 1_555
Cl3 Pr11 2.995095 1_555
Cl3 Pr15 3.056212 1_555
Cl4 Pr0 2.995370 1_555
Cl4 Pr4 3.041530 1_455
Cl4 Pr6 3.239067 1_555
Cl4 Pr12 3.244214 1_555
Cl4 Pr8 3.344015 1_555
Cl5 Pr1 2.995370 1_545
Cl5 Pr5 3.041530 1_555
Cl5 Pr7 3.239067 1_545
Cl5 Pr13 3.244214 1_555
Cl5 Pr9 3.344015 1_555
Cl6 Pr2 2.995370 1_555
Cl6 Pr6 3.041530 1_655
Cl6 Pr4 3.239067 1_555
Cl6 Pr14 3.244214 1_555
Cl6 Pr10 3.344015 1_555
Cl7 Pr3 2.995370 1_565
Cl7 Pr7 3.041530 1_555
Cl7 Pr5 3.239067 1_565
Cl7 Pr15 3.244214 1_555
Cl7 Pr11 3.344015 1_555
Cl8 Pr6 3.061226 1_545
Cl8 Pr4 3.061226 1_455
Cl8 Pr2 3.244944 1_455
Cl8 Pr0 3.244944 1_545
Cl8 Pr12 3.497823 1_555
Cl8 Pr14 3.497823 1_445
Cl9 Pr7 3.061226 1_555
Cl9 Pr5 3.061226 1_555
Cl9 Pr1 3.244944 1_555
Cl9 Pr3 3.244944 1_555
Cl9 Pr15 3.497823 1_555
Cl9 Pr13 3.497823 1_555
