# generated using pymatgen
data_Er2InAu2
_symmetry_space_group_name_H-M   'P 1'
_cell_length_a   7.83550414
_cell_length_b   7.83550414
_cell_length_c   3.69093421
_cell_angle_alpha   90.00000000
_cell_angle_beta   90.00000000
_cell_angle_gamma   90.00000000
_symmetry_Int_Tables_number   1
_chemical_formula_structural   Er2InAu2
_chemical_formula_sum   'Er4 In2 Au4'
_cell_volume   226.60536766
_cell_formula_units_Z   2
loop_
 _symmetry_equiv_pos_site_id
 _symmetry_equiv_pos_as_xyz
  1  'x, y, z'
loop_
 _atom_site_type_symbol
 _atom_site_label
 _atom_site_symmetry_multiplicity
 _atom_site_fract_x
 _atom_site_fract_y
 _atom_site_fract_z
 _atom_site_occupancy
  Er  Er0  1  0.66957824  0.16957824  0.50000000  1
  Er  Er1  1  0.33042176  0.83042176  0.50000000  1
  Er  Er2  1  0.16957824  0.33042176  0.50000000  1
  Er  Er3  1  0.83042176  0.66957824  0.50000000  1
  In  In0  1  0.50000000  0.50000000  -0.00000000  1
  In  In1  1  -0.00000000  0.00000000  -0.00000000  1
  Au  Au0  1  0.12880613  0.62880613  -0.00000000  1
  Au  Au1  1  0.87119387  0.37119387  0.00000000  1
  Au  Au2  1  0.62880613  0.87119387  -0.00000000  1
  Au  Au3  1  0.37119387  0.12880613  -0.00000000  1
loop_
_geom_bond_atom_site_label_1
_geom_bond_atom_site_label_2
_geom_bond_distance
_geom_bond_site_symmetry_2
Er0 In0 3.445911 1_555
Er0 In0 3.445911 1_556
Er0 In1 3.445911 1_656
Er0 In1 3.445911 1_655
Er1 In0 3.445911 1_555
Er1 In0 3.445911 1_556
Er1 In1 3.445911 1_566
Er1 In1 3.445911 1_565
Er2 In0 3.445911 1_555
Er2 In0 3.445911 1_556
Er2 In1 3.445911 1_556
Er2 In1 3.445911 1_555
Er3 In1 3.445911 1_665
Er3 In0 3.445911 1_555
Er3 In0 3.445911 1_556
Er3 In1 3.445911 1_666
Au0 Au1 2.854621 1_455
Au0 Er1 2.897763 1_554
Au0 Er1 2.897763 1_555
Au0 Er2 2.995666 1_554
Au0 Er3 2.995666 1_455
Au0 Er3 2.995666 1_454
Au0 Er2 2.995666 1_555
Au0 In1 3.078624 1_565
Au0 In0 3.078624 1_555
Au1 Er0 2.897763 1_555
Au1 Er0 2.897763 1_554
Au1 Er2 2.995666 1_654
Au1 Er2 2.995666 1_655
Au1 Er3 2.995666 1_555
Au1 Er3 2.995666 1_554
Au1 In1 3.078624 1_655
Au1 In0 3.078624 1_555
Au2 Au3 2.854621 1_565
Au2 Er3 2.897763 1_555
Au2 Er3 2.897763 1_554
Au2 Er0 2.995666 1_564
Au2 Er0 2.995666 1_565
Au2 Er1 2.995666 1_555
Au2 Er1 2.995666 1_554
Au2 In1 3.078624 1_665
Au2 In0 3.078624 1_555
Au3 Er2 2.897763 1_554
Au3 Er2 2.897763 1_555
Au3 Er1 2.995666 1_544
Au3 Er1 2.995666 1_545
Au3 Er0 2.995666 1_555
Au3 Er0 2.995666 1_554
Au3 In1 3.078624 1_555
Au3 In0 3.078624 1_555
