# generated using pymatgen
data_LiOsN2
_symmetry_space_group_name_H-M   'P 1'
_cell_length_a   5.68513354
_cell_length_b   4.66106005
_cell_length_c   9.26455729
_cell_angle_alpha   89.99999894
_cell_angle_beta   144.56815281
_cell_angle_gamma   114.20068771
_symmetry_Int_Tables_number   1
_chemical_formula_structural   LiOsN2
_chemical_formula_sum   'Li2 Os2 N4'
_cell_volume   100.63844653
_cell_formula_units_Z   2
loop_
 _symmetry_equiv_pos_site_id
 _symmetry_equiv_pos_as_xyz
  1  'x, y, z'
loop_
 _atom_site_type_symbol
 _atom_site_label
 _atom_site_symmetry_multiplicity
 _atom_site_fract_x
 _atom_site_fract_y
 _atom_site_fract_z
 _atom_site_occupancy
  Li  Li0  1  0.00000000  0.50000000  0.75000000  1
  Li  Li1  1  0.00000000  0.00000000  0.50000000  1
  Os  Os0  1  0.00000000  0.50000000  0.25000000  1
  Os  Os1  1  0.00000000  0.00000000  0.00000000  1
  N  N0  1  0.50000000  0.04487100  0.12500000  1
  N  N1  1  0.50000000  0.95512900  0.62500000  1
  N  N2  1  0.41025800  0.45512900  0.33012900  1
  N  N3  1  0.58974200  0.54487100  0.91987100  1
loop_
_geom_bond_atom_site_label_1
_geom_bond_atom_site_label_2
_geom_bond_distance
_geom_bond_site_symmetry_2
Li0 N2 2.141955 1_455
Li0 N3 2.141955 1_555
Li0 N0 2.141956 1_566
Li0 N1 2.141956 1_445
Li1 N0 2.141955 1_455
Li1 N1 2.141956 1_545
Li1 N3 2.141956 1_555
Li1 N2 2.141956 1_445
N0 Os1 1.900823 1_555
N0 Os0 1.900824 1_655
N1 Os1 1.900823 1_666
N1 Os0 1.900823 1_555
N2 Os0 1.900823 1_555
N2 Os1 1.900824 1_555
N3 Os0 1.900823 1_656
N3 Os1 1.900824 1_666
