# generated using pymatgen
data_BaSrY4(CuO5)2
_symmetry_space_group_name_H-M   'P 1'
_cell_length_a   5.68948100
_cell_length_b   7.21642900
_cell_length_c   12.20445000
_cell_angle_alpha   90.00000000
_cell_angle_beta   90.00000000
_cell_angle_gamma   90.00000000
_symmetry_Int_Tables_number   1
_chemical_formula_structural   BaSrY4(CuO5)2
_chemical_formula_sum   'Ba2 Sr2 Y8 Cu4 O20'
_cell_volume   501.08708226
_cell_formula_units_Z   2
loop_
 _symmetry_equiv_pos_site_id
 _symmetry_equiv_pos_as_xyz
  1  'x, y, z'
loop_
 _atom_site_type_symbol
 _atom_site_label
 _atom_site_symmetry_multiplicity
 _atom_site_fract_x
 _atom_site_fract_y
 _atom_site_fract_z
 _atom_site_occupancy
  Ba  Ba0  1  0.00000000  0.32005400  0.40608500  1
  Ba  Ba1  1  0.00000000  0.67994600  0.90608500  1
  Sr  Sr0  1  0.50000000  0.17576000  0.59106900  1
  Sr  Sr1  1  0.50000000  0.82424000  0.09106900  1
  Y  Y0  1  0.00000000  0.13700600  0.78689800  1
  Y  Y1  1  0.00000000  0.86299400  0.28689800  1
  Y  Y2  1  0.50000000  0.36345000  0.21258600  1
  Y  Y3  1  0.50000000  0.63655000  0.71258600  1
  Y  Y4  1  0.00000000  0.85533300  0.57407000  1
  Y  Y5  1  0.00000000  0.14466700  0.07407000  1
  Y  Y6  1  0.50000000  0.64568700  0.42649200  1
  Y  Y7  1  0.50000000  0.35431300  0.92649200  1
  Cu  Cu0  1  0.00000000  0.53197800  0.16130900  1
  Cu  Cu1  1  0.00000000  0.46802200  0.66130900  1
  Cu  Cu2  1  0.50000000  0.96928700  0.83821700  1
  Cu  Cu3  1  0.50000000  0.03071300  0.33821700  1
  O  O0  1  0.00000000  0.17059600  0.59949300  1
  O  O1  1  0.00000000  0.82940400  0.09949300  1
  O  O2  1  0.50000000  0.32667100  0.40556800  1
  O  O3  1  0.50000000  0.67332900  0.90556800  1
  O  O4  1  0.25739600  0.90005400  0.72482700  1
  O  O5  1  0.74260400  0.09994600  0.22482700  1
  O  O6  1  0.75267300  0.60384900  0.27295200  1
  O  O7  1  0.24732700  0.39615100  0.77295200  1
  O  O8  1  0.24732700  0.60384900  0.27295200  1
  O  O9  1  0.75267300  0.39615100  0.77295200  1
  O  O10  1  0.74260400  0.90005400  0.72482700  1
  O  O11  1  0.25739600  0.09994600  0.22482700  1
  O  O12  1  0.74251400  0.08489900  0.93339200  1
  O  O13  1  0.25748600  0.91510100  0.43339200  1
  O  O14  1  0.24338200  0.41371800  0.06793500  1
  O  O15  1  0.75661800  0.58628200  0.56793500  1
  O  O16  1  0.75661800  0.41371800  0.06793500  1
  O  O17  1  0.24338200  0.58628200  0.56793500  1
  O  O18  1  0.25748600  0.08489900  0.93339200  1
  O  O19  1  0.74251400  0.91510100  0.43339200  1
loop_
_geom_bond_atom_site_label_1
_geom_bond_atom_site_label_2
_geom_bond_distance
_geom_bond_site_symmetry_2
Ba0 O0 2.595177 1_555
Ba0 O2 2.845148 1_555
Ba0 O2 2.845148 1_455
Ba0 O8 2.968902 1_555
Ba0 O6 2.968902 1_455
Ba0 O17 3.083875 1_555
Ba0 O15 3.083875 1_455
Ba0 O11 3.092124 1_555
Ba0 O5 3.092124 1_455
Ba0 O13 3.285894 1_545
Ba0 O19 3.285894 1_445
Ba1 O1 2.595177 1_556
Ba1 O3 2.845148 1_455
Ba1 O3 2.845148 1_555
Ba1 O7 2.968902 1_555
Ba1 O9 2.968902 1_455
Ba1 O16 3.083875 1_456
Ba1 O14 3.083875 1_556
Ba1 O4 3.092124 1_555
Ba1 O10 3.092124 1_455
Ba1 O18 3.285894 1_565
Ba1 O12 3.285894 1_465
Cu0 O14 1.986051 1_555
Cu0 O16 1.986051 1_455
Cu0 O8 2.026234 1_555
Cu0 O6 2.026234 1_455
Cu0 O1 2.275082 1_555
Cu1 O17 1.986051 1_555
Cu1 O15 1.986051 1_455
Cu1 O7 2.026234 1_555
Cu1 O9 2.026234 1_455
Cu1 O0 2.275082 1_555
Cu2 O18 1.987228 1_565
Cu2 O12 1.987228 1_565
Cu2 O10 2.017398 1_555
Cu2 O4 2.017398 1_555
Cu2 O3 2.288476 1_555
Cu3 O13 1.987228 1_545
Cu3 O19 1.987228 1_545
Cu3 O5 2.017398 1_555
Cu3 O11 2.017398 1_555
Cu3 O2 2.288476 1_555
O0 Y4 2.296133 1_545
O0 Y0 2.299984 1_555
O0 Sr0 2.846842 1_455
O0 Sr0 2.846842 1_555
O1 Y5 2.296133 1_565
O1 Y1 2.299984 1_555
O1 Sr1 2.846842 1_455
O1 Sr1 2.846842 1_555
O2 Y6 2.316276 1_555
O2 Y2 2.370147 1_555
O2 Sr0 2.512254 1_555
O3 Y7 2.316276 1_555
O3 Y3 2.370147 1_555
O3 Sr1 2.512254 1_556
O4 Y3 2.354452 1_555
O4 Y4 2.373609 1_555
O4 Y0 2.375374 1_565
O4 Sr0 2.920382 1_565
O5 Y2 2.354452 1_555
O5 Y5 2.373609 1_655
O5 Y1 2.375374 1_645
O5 Sr1 2.920382 1_545
O6 Y1 2.346562 1_655
O6 Y2 2.370446 1_555
O6 Y6 2.381004 1_555
O6 Sr1 3.086025 1_555
O7 Y0 2.346562 1_555
O7 Y3 2.370446 1_555
O7 Y7 2.381004 1_555
O7 Sr0 3.086025 1_555
O8 Y1 2.346562 1_555
O8 Y2 2.370446 1_555
O8 Y6 2.381004 1_555
O8 Sr1 3.086025 1_555
O9 Y0 2.346562 1_655
O9 Y3 2.370446 1_555
O9 Y7 2.381004 1_555
O9 Sr0 3.086025 1_555
O10 Y3 2.354452 1_555
O10 Y4 2.373609 1_655
O10 Y0 2.375374 1_665
O10 Sr0 2.920382 1_565
O11 Y2 2.354452 1_555
O11 Y5 2.373609 1_555
O11 Y1 2.375374 1_545
O11 Sr1 2.920382 1_545
O12 Y5 2.297799 1_656
O12 Y0 2.341798 1_655
O12 Y7 2.385544 1_555
O12 Sr1 3.024106 1_546
O13 Y4 2.297799 1_555
O13 Y1 2.341798 1_555
O13 Y6 2.385544 1_555
O13 Sr0 3.024106 1_565
O14 Y7 2.301158 1_554
O14 Y2 2.319450 1_555
O14 Y5 2.385961 1_555
O15 Y6 2.301158 1_555
O15 Y3 2.319450 1_555
O15 Y4 2.385961 1_655
O16 Y7 2.301158 1_554
O16 Y2 2.319450 1_555
O16 Y5 2.385961 1_655
O17 Y6 2.301158 1_555
O17 Y3 2.319450 1_555
O17 Y4 2.385961 1_555
O18 Y5 2.297799 1_556
O18 Y0 2.341798 1_555
O18 Y7 2.385544 1_555
O18 Sr1 3.024106 1_546
O19 Y4 2.297799 1_655
O19 Y1 2.341798 1_655
O19 Y6 2.385544 1_555
O19 Sr0 3.024106 1_565
