# generated using pymatgen
data_CaLa2Fe2(TeO6)2
_symmetry_space_group_name_H-M   'P 1'
_cell_length_a   5.43445335
_cell_length_b   5.45768615
_cell_length_c   10.98035504
_cell_angle_alpha   90.05300497
_cell_angle_beta   89.97100185
_cell_angle_gamma   59.96698698
_symmetry_Int_Tables_number   1
_chemical_formula_structural   CaLa2Fe2(TeO6)2
_chemical_formula_sum   'Ca1 La2 Fe2 Te2 O12'
_cell_volume   281.94630677
_cell_formula_units_Z   1
loop_
 _symmetry_equiv_pos_site_id
 _symmetry_equiv_pos_as_xyz
  1  'x, y, z'
loop_
 _atom_site_type_symbol
 _atom_site_label
 _atom_site_symmetry_multiplicity
 _atom_site_fract_x
 _atom_site_fract_y
 _atom_site_fract_z
 _atom_site_occupancy
  Ca  Ca0  1  0.99902500  0.99778800  0.25002600  1
  La  La0  1  0.99987800  0.99987600  0.53892000  1
  La  La1  1  0.00011400  0.99868900  0.96113500  1
  Fe  Fe0  1  0.33778300  0.32656700  0.74997300  1
  Fe  Fe1  1  0.66521800  0.66401400  0.25007600  1
  Te  Te0  1  0.66686700  0.66721400  0.74993900  1
  Te  Te1  1  0.33324400  0.33310600  0.25002900  1
  O  O0  1  0.97670400  0.37732400  0.65058000  1
  O  O1  1  0.65289900  0.97006500  0.64899400  1
  O  O2  1  0.37698900  0.65728100  0.64822100  1
  O  O3  1  0.62562200  0.03421400  0.14540400  1
  O  O4  1  0.34113900  0.62638400  0.14677100  1
  O  O5  1  0.02498400  0.34651200  0.14831800  1
  O  O6  1  0.03421700  0.62606200  0.35431700  1
  O  O7  1  0.34604800  0.02687700  0.35207200  1
  O  O8  1  0.62724500  0.34229100  0.35311600  1
  O  O9  1  0.37731900  0.97104500  0.85109400  1
  O  O10  1  0.64748800  0.37786100  0.84928800  1
  O  O11  1  0.96721400  0.65682900  0.85172700  1
loop_
_geom_bond_atom_site_label_1
_geom_bond_atom_site_label_2
_geom_bond_distance
_geom_bond_site_symmetry_2
Ca0 O4 2.252127 1_655
Ca0 O3 2.253002 1_565
Ca0 O6 2.253878 1_655
Ca0 O8 2.256045 1_565
Ca0 O7 2.266888 1_665
Ca0 O5 2.271987 1_665
La0 O2 2.303775 1_655
La0 O1 2.312598 1_555
La0 O0 2.344813 1_565
La0 O6 2.813662 1_655
La0 O8 2.824656 1_565
La0 O7 2.836239 1_665
La1 O11 2.299184 1_455
La1 O9 2.317844 1_555
La1 O10 2.345313 1_465
La1 O3 2.805974 1_466
La1 O4 2.821390 1_556
La1 O5 2.845370 1_566
Fe0 O10 2.138522 1_555
Fe0 O0 2.139375 1_455
Fe0 O1 2.146272 1_545
Fe0 O9 2.151934 1_545
Fe0 O11 2.216592 1_455
Fe0 O2 2.222593 1_555
Fe1 O5 2.162544 1_655
Fe1 O7 2.177216 1_565
Fe1 O8 2.184465 1_555
Fe1 O4 2.189594 1_555
Fe1 O6 2.227390 1_655
Fe1 O3 2.240265 1_565
O0 Te0 1.963894 1_555
O1 Te0 1.960660 1_555
O2 Te0 1.954282 1_555
O3 Te1 1.976261 1_555
O4 Te1 1.980252 1_555
O5 Te1 1.984535 1_555
O6 Te1 1.975436 1_555
O7 Te1 1.985113 1_555
O8 Te1 1.979504 1_555
O9 Te0 1.960189 1_555
O10 Te0 1.965844 1_555
O11 Te0 1.955992 1_555
