# generated using pymatgen
data_Nd4Si2S3O7
_symmetry_space_group_name_H-M   'P 1'
_cell_length_a   11.09115505
_cell_length_b   11.09115505
_cell_length_c   11.09115505
_cell_angle_alpha   114.26552661
_cell_angle_beta   114.26552661
_cell_angle_gamma   100.25725619
_symmetry_Int_Tables_number   1
_chemical_formula_structural   Nd4Si2S3O7
_chemical_formula_sum   'Nd16 Si8 S12 O28'
_cell_volume   1030.39478896
_cell_formula_units_Z   4
loop_
 _symmetry_equiv_pos_site_id
 _symmetry_equiv_pos_as_xyz
  1  'x, y, z'
loop_
 _atom_site_type_symbol
 _atom_site_label
 _atom_site_symmetry_multiplicity
 _atom_site_fract_x
 _atom_site_fract_y
 _atom_site_fract_z
 _atom_site_occupancy
  Nd  Nd0  1  0.42147700  0.92147700  0.84295400  1
  Nd  Nd1  1  0.67147700  0.32852300  0.00000000  1
  Nd  Nd2  1  0.32852300  0.67147700  0.00000000  1
  Nd  Nd3  1  0.07852300  0.57852300  0.15704600  1
  Nd  Nd4  1  0.32852300  0.32852300  0.65704600  1
  Nd  Nd5  1  0.07852300  0.92147700  0.50000000  1
  Nd  Nd6  1  0.42147700  0.57852300  0.50000000  1
  Nd  Nd7  1  0.67147700  0.67147700  0.34295400  1
  Nd  Nd8  1  0.03189000  0.79513900  0.76324800  1
  Nd  Nd9  1  0.03189000  0.26864200  0.23675200  1
  Nd  Nd10  1  0.20486100  0.96811000  0.23675200  1
  Nd  Nd11  1  0.01864200  0.28189000  0.73675200  1
  Nd  Nd12  1  0.54513900  0.28189000  0.26324800  1
  Nd  Nd13  1  0.71811000  0.98135800  0.26324800  1
  Nd  Nd14  1  0.71811000  0.45486100  0.73675200  1
  Nd  Nd15  1  0.73135800  0.96811000  0.76324800  1
  Si  Si0  1  0.27750500  0.40174700  0.12424200  1
  Si  Si1  1  0.27750500  0.15326300  0.87575800  1
  Si  Si2  1  0.59825300  0.72249500  0.87575800  1
  Si  Si3  1  0.90326300  0.52750500  0.37575800  1
  Si  Si4  1  0.15174700  0.52750500  0.62424200  1
  Si  Si5  1  0.47249500  0.09673700  0.62424200  1
  Si  Si6  1  0.47249500  0.84825300  0.37575800  1
  Si  Si7  1  0.84673700  0.72249500  0.12424200  1
  S  S0  1  0.50000000  0.50000000  0.00000000  1
  S  S1  1  0.25000000  0.75000000  0.50000000  1
  S  S2  1  0.75000000  0.25000000  0.50000000  1
  S  S3  1  0.00000000  0.00000000  0.00000000  1
  S  S4  1  0.87500000  0.97643400  0.60143400  1
  S  S5  1  0.72643400  0.62500000  0.60143400  1
  S  S6  1  0.02356600  0.12500000  0.39856600  1
  S  S7  1  0.37500000  0.27356600  0.39856600  1
  S  S8  1  0.87500000  0.27356600  0.89856600  1
  S  S9  1  0.02356600  0.62500000  0.89856600  1
  S  S10  1  0.72643400  0.12500000  0.10143400  1
  S  S11  1  0.37500000  0.97643400  0.10143400  1
  O  O0  1  0.77145100  0.77145100  0.00000000  1
  O  O1  1  0.52145100  0.02145100  0.50000000  1
  O  O2  1  0.97854900  0.47854900  0.50000000  1
  O  O3  1  0.22854900  0.22854900  0.00000000  1
  O  O4  1  0.20034700  0.97298000  0.77263300  1
  O  O5  1  0.20034700  0.42771300  0.22736700  1
  O  O6  1  0.02702000  0.79965300  0.22736700  1
  O  O7  1  0.17771300  0.45034700  0.72736700  1
  O  O8  1  0.72298000  0.45034700  0.27263300  1
  O  O9  1  0.54965300  0.82228700  0.27263300  1
  O  O10  1  0.54965300  0.27702000  0.72736700  1
  O  O11  1  0.57228700  0.79965300  0.77263300  1
  O  O12  1  0.29907900  0.05916300  0.52131900  1
  O  O13  1  0.53784400  0.77775900  0.47868100  1
  O  O14  1  0.94083700  0.70092100  0.47868100  1
  O  O15  1  0.52775900  0.54907900  0.73991500  1
  O  O16  1  0.80916300  0.78784400  0.26008500  1
  O  O17  1  0.45092100  0.47224100  0.26008500  1
  O  O18  1  0.21215600  0.19083700  0.73991500  1
  O  O19  1  0.22224100  0.46215600  0.52131900  1
  O  O20  1  0.45092100  0.19083700  0.97868100  1
  O  O21  1  0.21215600  0.47224100  0.02131900  1
  O  O22  1  0.80916300  0.54907900  0.02131900  1
  O  O23  1  0.22224100  0.70092100  0.76008500  1
  O  O24  1  0.94083700  0.46215600  0.23991500  1
  O  O25  1  0.29907900  0.77775900  0.23991500  1
  O  O26  1  0.53784400  0.05916300  0.76008500  1
  O  O27  1  0.52775900  0.78784400  0.97868100  1
loop_
_geom_bond_atom_site_label_1
_geom_bond_atom_site_label_2
_geom_bond_distance
_geom_bond_site_symmetry_2
Nd0 O4 2.498534 1_555
Nd0 O11 2.498544 1_555
Nd0 O26 2.503855 1_565
Nd0 O23 2.503863 1_555
Nd0 O27 2.617250 1_555
Nd0 O20 2.617253 1_565
Nd0 S1 2.919328 1_555
Nd0 S10 2.957418 1_566
Nd0 S11 2.957418 1_556
Nd1 O8 2.498534 1_555
Nd1 O10 2.498534 1_554
Nd1 O22 2.503864 1_555
Nd1 O20 2.503864 1_554
Nd1 O24 2.617250 1_555
Nd1 O26 2.617250 1_554
Nd1 S0 2.919328 1_555
Nd1 S10 2.957418 1_555
Nd1 S8 2.957418 1_554
Nd2 O9 2.498534 1_555
Nd2 O7 2.498534 1_554
Nd2 O21 2.503855 1_555
Nd2 O27 2.503855 1_554
Nd2 O25 2.617243 1_555
Nd2 O23 2.617243 1_554
Nd2 S0 2.919328 1_555
Nd2 S11 2.957418 1_555
Nd2 S9 2.957418 1_554
Nd3 O6 2.498534 1_555
Nd3 O5 2.498544 1_555
Nd3 O24 2.503855 1_455
Nd3 O25 2.503863 1_555
Nd3 O21 2.617250 1_555
Nd3 O22 2.617253 1_455
Nd3 S1 2.919328 1_555
Nd3 S8 2.957418 1_454
Nd3 S9 2.957418 1_554
Nd4 O10 2.498534 1_555
Nd4 O7 2.498544 1_555
Nd4 O18 2.503855 1_555
Nd4 O15 2.503863 1_555
Nd4 O19 2.617250 1_555
Nd4 O12 2.617253 1_555
Nd4 S0 2.919328 1_556
Nd4 S7 2.957418 1_555
Nd4 S6 2.957418 1_555
Nd5 O4 2.498534 1_555
Nd5 O6 2.498534 1_555
Nd5 O14 2.503864 1_455
Nd5 O12 2.503864 1_565
Nd5 O18 2.617250 1_565
Nd5 O16 2.617250 1_455
Nd5 S1 2.919328 1_555
Nd5 S4 2.957418 1_455
Nd5 S6 2.957418 1_565
Nd6 O11 2.498534 1_555
Nd6 O5 2.498534 1_555
Nd6 O19 2.503855 1_555
Nd6 O13 2.503855 1_555
Nd6 O17 2.617243 1_555
Nd6 O15 2.617243 1_555
Nd6 S1 2.919328 1_555
Nd6 S5 2.957418 1_555
Nd6 S7 2.957418 1_555
Nd7 O8 2.498534 1_555
Nd7 O9 2.498544 1_555
Nd7 O16 2.503855 1_555
Nd7 O17 2.503863 1_555
Nd7 O13 2.617250 1_555
Nd7 O14 2.617253 1_555
Nd7 S0 2.919328 1_555
Nd7 S4 2.957418 1_555
Nd7 S5 2.957418 1_555
Nd8 O4 2.398169 1_555
Nd8 O14 2.523254 1_455
Nd8 O23 2.523270 1_555
Nd8 S5 2.863835 1_455
Nd8 S9 2.863843 1_555
Nd8 S3 2.885918 1_566
Nd8 S4 3.455063 1_455
Nd8 S11 3.455074 1_556
Nd9 O5 2.398170 1_555
Nd9 O24 2.523258 1_455
Nd9 O19 2.523258 1_555
Nd9 S6 2.863833 1_555
Nd9 S10 2.863833 1_455
Nd9 S3 2.885923 1_555
Nd9 S8 3.455073 1_454
Nd9 S7 3.455073 1_555
Nd10 O6 2.398169 1_555
Nd10 O12 2.523254 1_565
Nd10 O25 2.523270 1_555
Nd10 S7 2.863835 1_565
Nd10 S11 2.863843 1_555
Nd10 S3 2.885918 1_565
Nd10 S6 3.455063 1_565
Nd10 S9 3.455074 1_554
Nd11 O7 2.398170 1_555
Nd11 O21 2.523258 1_556
Nd11 O18 2.523258 1_555
Nd11 S8 2.863833 1_455
Nd11 S4 2.863833 1_445
Nd11 S2 2.885923 1_455
Nd11 S6 3.455073 1_555
Nd11 S9 3.455073 1_555
Nd12 O8 2.398169 1_555
Nd12 O20 2.523254 1_554
Nd12 O17 2.523270 1_555
Nd12 S11 2.863835 1_545
Nd12 S7 2.863843 1_555
Nd12 S2 2.885918 1_555
Nd12 S10 3.455063 1_555
Nd12 S5 3.455074 1_555
Nd13 O9 2.398170 1_555
Nd13 O16 2.523258 1_555
Nd13 O27 2.523258 1_554
Nd13 S10 2.863833 1_565
Nd13 S6 2.863833 1_665
Nd13 S2 2.885923 1_565
Nd13 S11 3.455073 1_555
Nd13 S4 3.455073 1_555
Nd14 O10 2.398169 1_555
Nd14 O22 2.523254 1_556
Nd14 O15 2.523270 1_555
Nd14 S9 2.863835 1_655
Nd14 S5 2.863843 1_555
Nd14 S2 2.885918 1_555
Nd14 S8 3.455063 1_555
Nd14 S7 3.455074 1_555
Nd15 O11 2.398170 1_555
Nd15 O13 2.523258 1_555
Nd15 O26 2.523258 1_565
Nd15 S4 2.863833 1_555
Nd15 S8 2.863833 1_565
Nd15 S3 2.885923 1_666
Nd15 S5 3.455073 1_555
Nd15 S10 3.455073 1_566
O0 Si7 1.649735 1_555
O0 Si2 1.649735 1_554
O1 Si6 1.649735 1_545
O1 Si5 1.649735 1_555
O2 Si4 1.649735 1_655
O2 Si3 1.649735 1_555
O3 Si0 1.649735 1_555
O3 Si1 1.649735 1_554
O4 Si1 1.656819 1_565
O5 Si0 1.656819 1_555
O6 Si7 1.656819 1_455
O7 Si4 1.656819 1_555
O8 Si3 1.656819 1_555
O9 Si6 1.656819 1_555
O10 Si5 1.656819 1_555
O11 Si2 1.656819 1_555
O12 Si5 1.641665 1_555
O13 Si6 1.641675 1_555
O14 Si3 1.641665 1_555
O15 Si2 1.641667 1_555
O16 Si7 1.641675 1_555
O17 Si0 1.641667 1_555
O18 Si1 1.641675 1_555
O19 Si4 1.641675 1_555
O20 Si1 1.641665 1_555
O21 Si0 1.641675 1_555
O22 Si7 1.641665 1_555
O23 Si4 1.641667 1_555
O24 Si3 1.641675 1_555
O25 Si6 1.641667 1_555
O26 Si5 1.641675 1_555
O27 Si2 1.641675 1_555
