# generated using pymatgen
data_Ca5Mg
_symmetry_space_group_name_H-M   'P 1'
_cell_length_a   13.98912959
_cell_length_b   13.98912959
_cell_length_c   18.90259447
_cell_angle_alpha   69.93938676
_cell_angle_beta   69.93938676
_cell_angle_gamma   33.38602761
_symmetry_Int_Tables_number   1
_chemical_formula_structural   Ca5Mg
_chemical_formula_sum   'Ca40 Mg8'
_cell_volume   1900.56554152
_cell_formula_units_Z   8
loop_
 _symmetry_equiv_pos_site_id
 _symmetry_equiv_pos_as_xyz
  1  'x, y, z'
loop_
 _atom_site_type_symbol
 _atom_site_label
 _atom_site_symmetry_multiplicity
 _atom_site_fract_x
 _atom_site_fract_y
 _atom_site_fract_z
 _atom_site_occupancy
  Ca  Ca0_0  1  0.99786812  0.99786812  0.03697113  1
  Ca  Ca0_1  1  0.99786812  0.99786812  0.53697112  1
  Ca  Ca0_2  1  0.99786812  0.49786812  0.03697112  1
  Ca  Ca0_3  1  0.99786812  0.49786812  0.53697112  1
  Ca  Ca0_4  1  0.49786812  0.99786812  0.03697112  1
  Ca  Ca0_5  1  0.49786812  0.99786812  0.53697112  1
  Ca  Ca0_6  1  0.49786812  0.49786812  0.03697113  1
  Ca  Ca0_7  1  0.49786812  0.49786812  0.53697112  1
  Ca  Ca1_0  1  0.14255666  0.14255666  0.18304560  1
  Ca  Ca1_1  1  0.14255666  0.14255666  0.68304560  1
  Ca  Ca1_2  1  0.14255665  0.64255666  0.18304560  1
  Ca  Ca1_3  1  0.14255665  0.64255666  0.68304560  1
  Ca  Ca1_4  1  0.64255666  0.14255666  0.18304560  1
  Ca  Ca1_5  1  0.64255666  0.14255665  0.68304560  1
  Ca  Ca1_6  1  0.64255665  0.64255666  0.18304560  1
  Ca  Ca1_7  1  0.64255666  0.64255666  0.68304560  1
  Ca  Ca2_0  1  0.48453810  0.48453810  0.26354440  1
  Ca  Ca2_1  1  0.48453810  0.48453810  0.76354440  1
  Ca  Ca2_2  1  0.48453810  0.98453811  0.26354440  1
  Ca  Ca2_3  1  0.48453810  0.98453810  0.76354440  1
  Ca  Ca2_4  1  0.98453811  0.48453810  0.26354440  1
  Ca  Ca2_5  1  0.98453810  0.48453810  0.76354440  1
  Ca  Ca2_6  1  0.98453811  0.98453811  0.26354440  1
  Ca  Ca2_7  1  0.98453811  0.98453811  0.76354440  1
  Ca  Ca3_0  1  0.31964320  0.31964320  0.35974143  1
  Ca  Ca3_1  1  0.31964321  0.31964321  0.85974143  1
  Ca  Ca3_2  1  0.31964320  0.81964320  0.35974143  1
  Ca  Ca3_3  1  0.31964320  0.81964320  0.85974143  1
  Ca  Ca3_4  1  0.81964320  0.31964320  0.35974143  1
  Ca  Ca3_5  1  0.81964320  0.31964320  0.85974143  1
  Ca  Ca3_6  1  0.81964320  0.81964320  0.35974143  1
  Ca  Ca3_7  1  0.81964320  0.81964320  0.85974143  1
  Ca  Ca4_0  1  0.15311624  0.15311624  0.46051677  1
  Ca  Ca4_1  1  0.15311624  0.15311624  0.96051677  1
  Ca  Ca4_2  1  0.15311624  0.65311624  0.46051677  1
  Ca  Ca4_3  1  0.15311624  0.65311624  0.96051677  1
  Ca  Ca4_4  1  0.65311624  0.15311624  0.46051677  1
  Ca  Ca4_5  1  0.65311624  0.15311624  0.96051677  1
  Ca  Ca4_6  1  0.65311624  0.65311624  0.46051677  1
  Ca  Ca4_7  1  0.65311624  0.65311624  0.96051677  1
  Mg  Mg0_0  1  0.31894468  0.31894468  0.11284667  1
  Mg  Mg0_1  1  0.31894468  0.31894468  0.61284668  1
  Mg  Mg0_2  1  0.31894468  0.81894468  0.11284667  1
  Mg  Mg0_3  1  0.31894468  0.81894468  0.61284668  1
  Mg  Mg0_4  1  0.81894468  0.31894468  0.11284667  1
  Mg  Mg0_5  1  0.81894468  0.31894468  0.61284668  1
  Mg  Mg0_6  1  0.81894468  0.81894468  0.11284667  1
  Mg  Mg0_7  1  0.81894468  0.81894468  0.61284668  1
loop_
_geom_bond_atom_site_label_1
_geom_bond_atom_site_label_2
_geom_bond_distance
_geom_bond_site_symmetry_2
Ca0_0 Mg0_2 3.417398 1_655
Ca0_0 Mg0_4 3.417398 1_565
Ca0_0 Ca3_3 3.787414 1_654
Ca0_0 Ca3_5 3.787414 1_564
Ca0_1 Mg0_3 3.417398 1_655
Ca0_1 Mg0_5 3.417398 1_565
Ca0_1 Ca3_2 3.787414 1_655
Ca0_1 Ca3_4 3.787414 1_565
Ca0_2 Mg0_6 3.417398 1_555
Ca0_2 Mg0_0 3.417398 1_655
Ca0_2 Ca3_7 3.787414 1_554
Ca0_2 Ca3_1 3.787414 1_654
Ca0_3 Mg0_1 3.417398 1_655
Ca0_3 Mg0_7 3.417398 1_555
Ca0_3 Ca3_0 3.787414 1_655
Ca0_3 Ca3_6 3.787414 1_555
Ca0_4 Mg0_6 3.417398 1_555
Ca0_4 Mg0_0 3.417398 1_565
Ca0_4 Ca3_7 3.787414 1_554
Ca0_4 Ca3_1 3.787414 1_564
Ca0_5 Mg0_1 3.417398 1_565
Ca0_5 Mg0_7 3.417398 1_555
Ca0_5 Ca3_0 3.787414 1_565
Ca0_5 Ca3_6 3.787414 1_555
Ca0_6 Mg0_2 3.417398 1_555
Ca0_6 Mg0_4 3.417398 1_555
Ca0_6 Ca3_5 3.787414 1_554
Ca0_6 Ca3_3 3.787414 1_554
Ca0_7 Mg0_3 3.417398 1_555
Ca0_7 Mg0_5 3.417398 1_555
Ca0_7 Ca3_2 3.787414 1_555
Ca0_7 Ca3_4 3.787414 1_555
Ca1_0 Mg0_4 3.400585 1_455
Ca1_0 Mg0_2 3.400585 1_545
Ca1_0 Ca3_4 3.786319 1_455
Ca1_0 Ca3_2 3.786319 1_545
Ca1_1 Mg0_5 3.400585 1_455
Ca1_1 Mg0_3 3.400585 1_545
Ca1_1 Ca3_3 3.786319 1_545
Ca1_1 Ca3_5 3.786319 1_455
Ca1_2 Mg0_0 3.400585 1_555
Ca1_2 Mg0_6 3.400585 1_455
Ca1_2 Ca3_6 3.786319 1_455
Ca1_2 Ca3_0 3.786319 1_555
Ca1_3 Mg0_7 3.400585 1_455
Ca1_3 Mg0_1 3.400585 1_555
Ca1_3 Ca3_7 3.786319 1_455
Ca1_3 Ca3_1 3.786319 1_555
Ca1_4 Mg0_0 3.400585 1_555
Ca1_4 Mg0_6 3.400585 1_545
Ca1_4 Ca3_6 3.786319 1_545
Ca1_4 Ca3_0 3.786319 1_555
Ca1_5 Mg0_7 3.400585 1_545
Ca1_5 Mg0_1 3.400585 1_555
Ca1_5 Ca3_7 3.786319 1_545
Ca1_5 Ca3_1 3.786319 1_555
Ca1_6 Mg0_4 3.400585 1_555
Ca1_6 Mg0_2 3.400585 1_555
Ca1_6 Ca3_2 3.786319 1_555
Ca1_6 Ca3_4 3.786319 1_555
Ca1_7 Mg0_5 3.400585 1_555
Ca1_7 Mg0_3 3.400585 1_555
Ca1_7 Ca3_5 3.786319 1_555
Ca1_7 Ca3_3 3.786319 1_555
Ca2_0 Mg0_2 3.557089 1_555
Ca2_0 Mg0_4 3.557089 1_555
Ca2_0 Ca3_2 3.938941 1_555
Ca2_0 Ca3_4 3.938941 1_555
Ca2_0 Ca3_0 4.132720 1_555
Ca2_1 Mg0_3 3.557089 1_555
Ca2_1 Mg0_5 3.557089 1_555
Ca2_1 Ca3_3 3.938941 1_555
Ca2_1 Ca3_5 3.938941 1_555
Ca2_1 Ca3_1 4.132720 1_555
Ca2_2 Mg0_0 3.557089 1_565
Ca2_2 Mg0_6 3.557089 1_555
Ca2_2 Ca3_0 3.938941 1_565
Ca2_2 Ca3_6 3.938941 1_555
Ca2_2 Ca3_2 4.132720 1_555
Ca2_3 Mg0_1 3.557089 1_565
Ca2_3 Mg0_7 3.557089 1_555
Ca2_3 Ca3_7 3.938941 1_555
Ca2_3 Ca3_1 3.938941 1_565
Ca2_3 Ca3_3 4.132720 1_555
Ca2_4 Mg0_0 3.557089 1_655
Ca2_4 Mg0_6 3.557089 1_555
Ca2_4 Ca3_0 3.938941 1_655
Ca2_4 Ca3_6 3.938941 1_555
Ca2_4 Ca3_4 4.132720 1_555
Ca2_5 Mg0_1 3.557089 1_655
Ca2_5 Mg0_7 3.557089 1_555
Ca2_5 Ca3_7 3.938941 1_555
Ca2_5 Ca3_1 3.938941 1_655
Ca2_5 Ca3_5 4.132720 1_555
Ca2_6 Mg0_4 3.557089 1_565
Ca2_6 Mg0_2 3.557089 1_655
Ca2_6 Ca3_2 3.938941 1_655
Ca2_6 Ca3_4 3.938941 1_565
Ca2_6 Ca3_6 4.132720 1_555
Ca2_7 Mg0_3 3.557089 1_655
Ca2_7 Mg0_5 3.557089 1_565
Ca2_7 Ca3_3 3.938941 1_655
Ca2_7 Ca3_5 3.938941 1_565
Ca2_7 Ca3_7 4.132720 1_555
Ca3_0 Ca4_2 3.965044 1_555
Ca3_0 Ca4_4 3.965044 1_555
Ca3_0 Ca3_6 4.018290 1_455
Ca3_0 Ca3_6 4.018290 1_545
Ca3_0 Ca4_0 4.178097 1_555
Ca3_1 Ca4_3 3.965044 1_555
Ca3_1 Ca4_5 3.965044 1_555
Ca3_1 Ca3_7 4.018290 1_455
Ca3_1 Ca3_7 4.018290 1_545
Ca3_1 Ca4_1 4.178097 1_555
Ca3_2 Ca4_0 3.965044 1_565
Ca3_2 Ca4_6 3.965044 1_555
Ca3_2 Ca3_4 4.018290 1_465
Ca3_2 Ca3_4 4.018290 1_555
Ca3_2 Ca4_2 4.178097 1_555
Ca3_3 Ca4_1 3.965044 1_565
Ca3_3 Ca4_7 3.965044 1_555
Ca3_3 Ca3_5 4.018290 1_465
Ca3_3 Ca3_5 4.018290 1_555
Ca3_3 Ca4_3 4.178097 1_555
Ca3_4 Ca4_0 3.965044 1_655
Ca3_4 Ca4_6 3.965044 1_555
Ca3_4 Ca4_4 4.178097 1_555
Ca3_5 Ca4_1 3.965044 1_655
Ca3_5 Ca4_7 3.965044 1_555
Ca3_5 Ca4_5 4.178097 1_555
Ca3_6 Ca4_4 3.965044 1_565
Ca3_6 Ca4_2 3.965044 1_655
Ca3_6 Ca4_6 4.178097 1_555
Ca3_7 Ca4_3 3.965044 1_655
Ca3_7 Ca4_5 3.965044 1_565
Ca3_7 Ca4_7 4.178097 1_555
Ca4_0 Mg0_5 3.572695 1_455
Ca4_0 Mg0_3 3.572695 1_545
Ca4_1 Mg0_4 3.572695 1_456
Ca4_1 Mg0_2 3.572695 1_546
Ca4_2 Mg0_7 3.572695 1_455
Ca4_2 Mg0_1 3.572695 1_555
Ca4_3 Mg0_0 3.572695 1_556
Ca4_3 Mg0_6 3.572695 1_456
Ca4_4 Mg0_7 3.572695 1_545
Ca4_4 Mg0_1 3.572695 1_555
Ca4_5 Mg0_6 3.572695 1_546
Ca4_5 Mg0_0 3.572695 1_556
Ca4_6 Mg0_5 3.572695 1_555
Ca4_6 Mg0_3 3.572695 1_555
Ca4_7 Mg0_4 3.572695 1_556
Ca4_7 Mg0_2 3.572695 1_556
