# generated using pymatgen
data_TmMnB4
_symmetry_space_group_name_H-M   'P 1'
_cell_length_a   3.34595892
_cell_length_b   5.89707774
_cell_length_c   11.41431293
_cell_angle_alpha   90.00160790
_cell_angle_beta   89.99999888
_cell_angle_gamma   89.99999508
_symmetry_Int_Tables_number   1
_chemical_formula_structural   TmMnB4
_chemical_formula_sum   'Tm4 Mn4 B16'
_cell_volume   225.22014429
_cell_formula_units_Z   4
loop_
 _symmetry_equiv_pos_site_id
 _symmetry_equiv_pos_as_xyz
  1  'x, y, z'
loop_
 _atom_site_type_symbol
 _atom_site_label
 _atom_site_symmetry_multiplicity
 _atom_site_fract_x
 _atom_site_fract_y
 _atom_site_fract_z
 _atom_site_occupancy
  Tm  Tm0  1  0.50000015  0.37220462  0.15012249  1
  Tm  Tm1  1  0.50000010  0.62778434  0.84985798  1
  Tm  Tm2  1  0.50000006  0.12780046  0.65017308  1
  Tm  Tm3  1  0.49999984  0.87219921  0.34985426  1
  Mn  Mn0  1  0.49999969  0.36772270  0.41340941  1
  Mn  Mn1  1  0.49999947  0.63227715  0.58660554  1
  Mn  Mn2  1  0.50000025  0.13228616  0.91340437  1
  Mn  Mn3  1  0.49999996  0.86773349  0.08657733  1
  B  B0  1  0.00000035  0.11328318  0.04695320  1
  B  B1  1  0.00000031  0.88672236  0.95302841  1
  B  B2  1  0.00000004  0.38671043  0.54696818  1
  B  B3  1  0.00000014  0.61327873  0.45304790  1
  B  B4  1  -0.00000024  0.13675798  0.46799378  1
  B  B5  1  -0.00000014  0.86323990  0.53201895  1
  B  B6  1  0.00000050  0.36323940  0.96798063  1
  B  B7  1  0.00000026  0.63675964  0.03200341  1
  B  B8  1  0.00000005  0.02341818  0.19169730  1
  B  B9  1  0.00000026  0.97657182  0.80829245  1
  B  B10  1  -0.00000003  0.47654806  0.69172596  1
  B  B11  1  0.00000007  0.52343316  0.30828380  1
  B  B12  1  -0.00000032  0.21496772  0.31463135  1
  B  B13  1  -0.00000037  0.78504288  0.68537856  1
  B  B14  1  -0.00000015  0.28501562  0.81464845  1
  B  B15  1  -0.00000025  0.71500382  0.18534223  1
loop_
_geom_bond_atom_site_label_1
_geom_bond_atom_site_label_2
_geom_bond_distance
_geom_bond_site_symmetry_2
B0 B1 1.712983 1_544
B0 B6 1.727813 1_554
B0 B8 1.735079 1_555
B0 Mn3 2.258369 1_545
B0 Mn3 2.258371 1_445
B0 Mn2 2.266081 1_554
B0 Mn2 2.266082 1_454
B0 Tm0 2.552817 1_555
B0 Tm0 2.552818 1_455
B1 B7 1.727860 1_556
B1 B9 1.734963 1_555
B1 Mn2 2.258423 1_565
B1 Mn2 2.258423 1_465
B1 Mn3 2.266077 1_556
B1 Mn3 2.266079 1_456
B1 Tm1 2.552882 1_555
B1 Tm1 2.552883 1_455
B2 B3 1.713032 1_555
B2 B4 1.727762 1_555
B2 Mn1 2.258447 1_555
B2 Mn1 2.258450 1_455
B2 Mn0 2.266148 1_555
B2 Mn0 2.266150 1_455
B2 Tm2 2.553004 1_555
B2 Tm2 2.553004 1_455
B3 B5 1.727786 1_555
B3 Mn0 2.258409 1_555
B3 Mn0 2.258412 1_455
B3 Mn1 2.266142 1_555
B3 Mn1 2.266145 1_455
B3 Tm3 2.552982 1_555
B3 Tm3 2.552983 1_455
B4 B5 1.770811 1_545
B4 Mn0 2.245480 1_555
B4 Mn0 2.245480 1_455
B4 Tm3 2.655396 1_445
B4 Tm3 2.655396 1_545
B4 Tm2 2.669414 1_455
B4 Tm2 2.669415 1_555
B5 Mn1 2.245479 1_555
B5 Mn1 2.245481 1_455
B5 Tm2 2.655487 1_465
B5 Tm2 2.655488 1_565
B5 Tm3 2.669285 1_555
B5 Tm3 2.669285 1_455
B6 B7 1.770774 1_556
B6 Mn2 2.245391 1_555
B6 Mn2 2.245393 1_455
B6 Tm1 2.655294 1_555
B6 Tm1 2.655296 1_455
B6 Tm0 2.669080 1_556
B6 Tm0 2.669081 1_456
B7 Mn3 2.245458 1_555
B7 Mn3 2.245459 1_455
B7 Tm0 2.655309 1_555
B7 Tm0 2.655310 1_455
B7 Tm1 2.669113 1_554
B7 Tm1 2.669114 1_454
B8 Mn3 2.254189 1_545
B8 Mn3 2.254190 1_445
B8 Tm3 2.617844 1_545
B8 Tm3 2.617844 1_445
B8 Tm0 2.693440 1_455
B8 Tm0 2.693441 1_555
B9 Mn2 2.254212 1_465
B9 Mn2 2.254212 1_565
B9 Tm2 2.617567 1_565
B9 Tm2 2.617568 1_465
B9 Tm1 2.693426 1_555
B9 Tm1 2.693427 1_455
B10 B2 1.735151 1_555
B10 B14 1.801233 1_555
B10 B13 1.820662 1_555
B10 Mn1 2.254325 1_555
B10 Mn1 2.254328 1_455
B10 Tm1 2.617648 1_455
B10 Tm1 2.617648 1_555
B10 Tm2 2.693201 1_455
B10 Tm2 2.693201 1_555
B11 B3 1.735234 1_555
B11 B15 1.801544 1_555
B11 B12 1.820489 1_555
B11 Mn0 2.254312 1_555
B11 Mn0 2.254314 1_455
B11 Tm0 2.617863 1_455
B11 Tm0 2.617863 1_555
B11 Tm3 2.693319 1_555
B11 Tm3 2.693320 1_455
B12 B8 1.801349 1_555
B12 B4 1.810277 1_555
B12 Mn0 2.209407 1_455
B12 Mn0 2.209407 1_555
B12 Tm3 2.654492 1_445
B12 Tm3 2.654493 1_545
B12 Tm0 2.680427 1_455
B12 Tm0 2.680429 1_555
B13 B9 1.801094 1_555
B13 B5 1.810227 1_555
B13 Mn1 2.209403 1_555
B13 Mn1 2.209404 1_455
B13 Tm2 2.654412 1_465
B13 Tm2 2.654415 1_565
B13 Tm1 2.680236 1_455
B13 Tm1 2.680238 1_555
B14 B6 1.809939 1_555
B14 B9 1.820361 1_545
B14 Mn2 2.209241 1_455
B14 Mn2 2.209243 1_555
B14 Tm1 2.654453 1_455
B14 Tm1 2.654454 1_555
B14 Tm2 2.680079 1_455
B14 Tm2 2.680080 1_555
B15 B7 1.810043 1_555
B15 B8 1.820187 1_565
B15 Mn3 2.209294 1_455
B15 Mn3 2.209296 1_555
B15 Tm0 2.654607 1_455
B15 Tm0 2.654609 1_555
B15 Tm3 2.680332 1_455
B15 Tm3 2.680333 1_555
