# generated using pymatgen
data_ZnGaPS
_symmetry_space_group_name_H-M   'P 1'
_cell_length_a   6.72112653
_cell_length_b   6.72112653
_cell_length_c   6.72112718
_cell_angle_alpha   33.53401525
_cell_angle_beta   33.53401525
_cell_angle_gamma   33.53401627
_symmetry_Int_Tables_number   1
_chemical_formula_structural   ZnGaPS
_chemical_formula_sum   'Zn1 Ga1 P1 S1'
_cell_volume   82.52967542
_cell_formula_units_Z   1
loop_
 _symmetry_equiv_pos_site_id
 _symmetry_equiv_pos_as_xyz
  1  'x, y, z'
loop_
 _atom_site_type_symbol
 _atom_site_label
 _atom_site_symmetry_multiplicity
 _atom_site_fract_x
 _atom_site_fract_y
 _atom_site_fract_z
 _atom_site_occupancy
  Zn  Zn0  1  0.00150100  0.00150100  0.00150100  1
  Ga  Ga0  1  0.49886900  0.49886900  0.49886900  1
  P  P0  1  0.12593300  0.12593300  0.12593300  1
  S  S0  1  0.62369700  0.62369700  0.62369700  1
loop_
_geom_bond_atom_site_label_1
_geom_bond_atom_site_label_2
_geom_bond_distance
_geom_bond_site_symmetry_2
Ga0 P0 2.362076 1_556
Ga0 P0 2.362076 1_565
Ga0 P0 2.362076 1_655
Ga0 S0 2.373207 1_555
P0 Zn0 2.365679 1_555
S0 Zn0 2.393185 1_665
S0 Zn0 2.393185 1_566
S0 Zn0 2.393185 1_656
