# generated using pymatgen
data_Sr2AgPb
_symmetry_space_group_name_H-M   'P 1'
_cell_length_a   13.59067432
_cell_length_b   13.59067432
_cell_length_c   13.59067432
_cell_angle_alpha   123.34819071
_cell_angle_beta   118.85669058
_cell_angle_gamma   88.14638173
_symmetry_Int_Tables_number   1
_chemical_formula_structural   Sr2AgPb
_chemical_formula_sum   'Sr2 Ag1 Pb1'
_cell_volume   1740.98051612
_cell_formula_units_Z   1
loop_
 _symmetry_equiv_pos_site_id
 _symmetry_equiv_pos_as_xyz
  1  'x, y, z'
loop_
 _atom_site_type_symbol
 _atom_site_label
 _atom_site_symmetry_multiplicity
 _atom_site_fract_x
 _atom_site_fract_y
 _atom_site_fract_z
 _atom_site_occupancy
  Sr  Sr0  1  0.00000000  0.24641400  0.24641400  1
  Sr  Sr1  1  0.00000000  0.75358600  0.75358600  1
  Ag  Ag0  1  0.00000000  0.00000000  0.00000000  1
  Pb  Pb0  1  0.00000000  0.50000000  0.50000000  1
loop_
_geom_bond_atom_site_label_1
_geom_bond_atom_site_label_2
_geom_bond_distance
_geom_bond_site_symmetry_2
Ag0 Sr0 3.178045 1_555
Ag0 Sr1 3.178045 1_544
Pb0 Sr0 3.270543 1_555
Pb0 Sr1 3.270543 1_555
