# generated using pymatgen
data_Sr3Zn3Te(PO7)2
_symmetry_space_group_name_H-M   'P 1'
_cell_length_a   8.41917215
_cell_length_b   8.41917215
_cell_length_c   5.24144300
_cell_angle_alpha   90.00000000
_cell_angle_beta   90.00000000
_cell_angle_gamma   120.00000115
_symmetry_Int_Tables_number   1
_chemical_formula_structural   Sr3Zn3Te(PO7)2
_chemical_formula_sum   'Sr3 Zn3 Te1 P2 O14'
_cell_volume   321.75127248
_cell_formula_units_Z   1
loop_
 _symmetry_equiv_pos_site_id
 _symmetry_equiv_pos_as_xyz
  1  'x, y, z'
loop_
 _atom_site_type_symbol
 _atom_site_label
 _atom_site_symmetry_multiplicity
 _atom_site_fract_x
 _atom_site_fract_y
 _atom_site_fract_z
 _atom_site_occupancy
  Sr  Sr0  1  0.42978400  0.42978400  0.00000000  1
  Sr  Sr1  1  0.00000000  0.57021600  0.00000000  1
  Sr  Sr2  1  0.57021600  0.00000000  0.00000000  1
  Zn  Zn0  1  0.76147700  0.76147700  0.50000000  1
  Zn  Zn1  1  0.00000000  0.23852300  0.50000000  1
  Zn  Zn2  1  0.23852300  0.00000000  0.50000000  1
  Te  Te0  1  0.00000000  0.00000000  0.00000000  1
  P  P0  1  0.33333300  0.66666700  0.45427200  1
  P  P1  1  0.66666700  0.33333300  0.54572800  1
  O  O0  1  0.90766000  0.77880700  0.20947600  1
  O  O1  1  0.87114700  0.09234000  0.20947600  1
  O  O2  1  0.22119300  0.12885300  0.20947600  1
  O  O3  1  0.12885300  0.22119300  0.79052400  1
  O  O4  1  0.09234000  0.87114700  0.79052400  1
  O  O5  1  0.77880700  0.90766000  0.79052400  1
  O  O6  1  0.33333300  0.66666700  0.74862200  1
  O  O7  1  0.66666700  0.33333300  0.25137800  1
  O  O8  1  0.51403200  0.68864400  0.33693800  1
  O  O9  1  0.17461200  0.48596800  0.33693800  1
  O  O10  1  0.31135600  0.82538800  0.33693800  1
  O  O11  1  0.82538800  0.31135600  0.66306200  1
  O  O12  1  0.48596800  0.17461200  0.66306200  1
  O  O13  1  0.68864400  0.51403200  0.66306200  1
loop_
_geom_bond_atom_site_label_1
_geom_bond_atom_site_label_2
_geom_bond_distance
_geom_bond_site_symmetry_2
O0 Zn0 1.917095 1_555
O0 Te0 1.957076 1_665
O0 Sr1 2.501859 1_655
O1 Zn1 1.917095 1_655
O1 Te0 1.957076 1_655
O1 Sr2 2.501859 1_555
O2 Zn2 1.917095 1_555
O2 Te0 1.957076 1_555
O2 Sr0 2.501859 1_555
O3 Zn1 1.917095 1_555
O3 Te0 1.957076 1_556
O3 Sr0 2.501859 1_556
O4 Zn2 1.917095 1_565
O4 Te0 1.957076 1_566
O4 Sr1 2.501859 1_556
O5 Zn0 1.917095 1_555
O5 Te0 1.957076 1_666
O5 Sr2 2.501859 1_566
O6 P0 1.542819 1_555
O6 Sr1 2.827075 1_556
O6 Sr2 2.827077 1_566
O6 Sr0 2.827082 1_556
O7 P1 1.542819 1_555
O7 Sr2 2.827075 1_555
O7 Sr1 2.827077 1_655
O7 Sr0 2.827082 1_555
O8 P0 1.563788 1_555
O8 Zn0 2.041836 1_555
O8 Sr0 2.612642 1_555
O8 Sr2 2.995700 1_565
O9 P0 1.563785 1_555
O9 Zn1 2.041836 1_555
O9 Sr1 2.612642 1_555
O9 Sr0 2.995700 1_555
O10 P0 1.563780 1_555
O10 Zn2 2.041836 1_565
O10 Sr2 2.612642 1_565
O10 Sr1 2.995700 1_555
O11 P1 1.563780 1_555
O11 Zn1 2.041836 1_655
O11 Sr1 2.612642 1_656
O11 Sr2 2.995700 1_556
O12 P1 1.563785 1_555
O12 Zn2 2.041836 1_555
O12 Sr2 2.612642 1_556
O12 Sr0 2.995700 1_556
O13 P1 1.563788 1_555
O13 Zn0 2.041836 1_555
O13 Sr0 2.612642 1_556
O13 Sr1 2.995700 1_656
