# generated using pymatgen
data_Ho(CoB)4
_symmetry_space_group_name_H-M   'P 1'
_cell_length_a   5.00278000
_cell_length_b   5.00278000
_cell_length_c   6.97422300
_cell_angle_alpha   90.00000000
_cell_angle_beta   90.00000000
_cell_angle_gamma   90.00000000
_symmetry_Int_Tables_number   1
_chemical_formula_structural   Ho(CoB)4
_chemical_formula_sum   'Ho2 Co8 B8'
_cell_volume   174.54951230
_cell_formula_units_Z   2
loop_
 _symmetry_equiv_pos_site_id
 _symmetry_equiv_pos_as_xyz
  1  'x, y, z'
loop_
 _atom_site_type_symbol
 _atom_site_label
 _atom_site_symmetry_multiplicity
 _atom_site_fract_x
 _atom_site_fract_y
 _atom_site_fract_z
 _atom_site_occupancy
  Ho  Ho0  1  0.75000000  0.25000000  0.25000000  1
  Ho  Ho1  1  0.25000000  0.75000000  0.75000000  1
  Co  Co0  1  0.00390900  0.75000000  0.11275500  1
  Co  Co1  1  0.49609100  0.75000000  0.11275500  1
  Co  Co2  1  0.75000000  0.00390900  0.61275500  1
  Co  Co3  1  0.75000000  0.49609100  0.61275500  1
  Co  Co4  1  0.99609100  0.25000000  0.88724500  1
  Co  Co5  1  0.50390900  0.25000000  0.88724500  1
  Co  Co6  1  0.25000000  0.99609100  0.38724500  1
  Co  Co7  1  0.25000000  0.50390900  0.38724500  1
  B  B0  1  0.57551400  0.75000000  0.40798500  1
  B  B1  1  0.92448600  0.75000000  0.40798500  1
  B  B2  1  0.75000000  0.57551400  0.90798500  1
  B  B3  1  0.75000000  0.92448600  0.90798500  1
  B  B4  1  0.42448600  0.25000000  0.59201500  1
  B  B5  1  0.07551400  0.25000000  0.59201500  1
  B  B6  1  0.25000000  0.42448600  0.09201500  1
  B  B7  1  0.25000000  0.07551400  0.09201500  1
loop_
_geom_bond_atom_site_label_1
_geom_bond_atom_site_label_2
_geom_bond_distance
_geom_bond_site_symmetry_2
Co0 Ho1 2.813587 1_554
Co0 Ho0 2.964233 1_465
Co0 Ho0 2.964233 1_455
Co1 Ho1 2.813587 1_554
Co1 Ho0 2.964233 1_565
Co1 Ho0 2.964233 1_555
Co2 Ho0 2.813587 1_555
Co2 Ho1 2.964233 1_645
Co2 Ho1 2.964233 1_545
Co3 Ho0 2.813587 1_555
Co3 Ho1 2.964233 1_655
Co3 Ho1 2.964233 1_555
Co4 Ho0 2.813587 1_556
Co4 Ho1 2.964233 1_645
Co4 Ho1 2.964233 1_655
Co5 Ho0 2.813587 1_556
Co5 Ho1 2.964233 1_555
Co5 Ho1 2.964233 1_545
Co6 Ho1 2.813587 1_555
Co6 Ho0 2.964233 1_565
Co6 Ho0 2.964233 1_465
Co7 Ho1 2.813587 1_555
Co7 Ho0 2.964233 1_555
Co7 Ho0 2.964233 1_455
B0 B1 1.745830 1_555
B0 Co7 2.046596 1_555
B0 Co6 2.046596 1_555
B0 Co1 2.096987 1_555
B0 Co3 2.101195 1_555
B0 Co2 2.101195 1_565
B0 Ho0 2.869311 1_555
B0 Ho0 2.869311 1_565
B0 Ho1 2.888171 1_555
B1 Co7 2.046596 1_655
B1 Co6 2.046596 1_655
B1 Co0 2.096987 1_655
B1 Co3 2.101195 1_555
B1 Co2 2.101195 1_565
B1 Ho0 2.869311 1_555
B1 Ho0 2.869311 1_565
B1 Ho1 2.888171 1_655
B2 B3 1.745830 1_555
B2 Co4 2.046596 1_555
B2 Co5 2.046596 1_555
B2 Co3 2.096987 1_555
B2 Co1 2.101195 1_556
B2 Co0 2.101195 1_656
B2 Ho1 2.869311 1_655
B2 Ho1 2.869311 1_555
B2 Ho0 2.888171 1_556
B3 Co5 2.046596 1_565
B3 Co4 2.046596 1_565
B3 Co2 2.096987 1_565
B3 Co1 2.101195 1_556
B3 Co0 2.101195 1_656
B3 Ho1 2.869311 1_655
B3 Ho1 2.869311 1_555
B3 Ho0 2.888171 1_566
B4 B5 1.745830 1_555
B4 Co2 2.046596 1_555
B4 Co3 2.046596 1_555
B4 Co5 2.096987 1_555
B4 Co7 2.101195 1_555
B4 Co6 2.101195 1_545
B4 Ho1 2.869311 1_555
B4 Ho1 2.869311 1_545
B4 Ho0 2.888171 1_555
B5 Co2 2.046596 1_455
B5 Co3 2.046596 1_455
B5 Co4 2.096987 1_455
B5 Co6 2.101195 1_545
B5 Co7 2.101195 1_555
B5 Ho1 2.869311 1_545
B5 Ho1 2.869311 1_555
B5 Ho0 2.888171 1_455
B6 B7 1.745830 1_555
B6 Co0 2.046596 1_555
B6 Co1 2.046596 1_555
B6 Co7 2.096987 1_555
B6 Co5 2.101195 1_554
B6 Co4 2.101195 1_454
B6 Ho0 2.869311 1_555
B6 Ho0 2.869311 1_455
B6 Ho1 2.888171 1_554
B7 Co1 2.046596 1_545
B7 Co0 2.046596 1_545
B7 Co6 2.096987 1_545
B7 Co5 2.101195 1_554
B7 Co4 2.101195 1_454
B7 Ho0 2.869311 1_555
B7 Ho0 2.869311 1_455
B7 Ho1 2.888171 1_544
