# generated using pymatgen
data_CaV(GeO3)4
_symmetry_space_group_name_H-M   'P 1'
_cell_length_a   5.16510100
_cell_length_b   5.16510100
_cell_length_c   7.62190220
_cell_angle_alpha   90.00000000
_cell_angle_beta   90.00000000
_cell_angle_gamma   82.51350572
_symmetry_Int_Tables_number   1
_chemical_formula_structural   CaV(GeO3)4
_chemical_formula_sum   'Ca1 V1 Ge4 O12'
_cell_volume   201.60580783
_cell_formula_units_Z   1
loop_
 _symmetry_equiv_pos_site_id
 _symmetry_equiv_pos_as_xyz
  1  'x, y, z'
loop_
 _atom_site_type_symbol
 _atom_site_label
 _atom_site_symmetry_multiplicity
 _atom_site_fract_x
 _atom_site_fract_y
 _atom_site_fract_z
 _atom_site_occupancy
  Ca  Ca0  1  0.49232767  0.50767233  -0.00000000  1
  V  V0  1  0.05544971  0.94455029  0.50000000  1
  Ge  Ge0  1  0.49042505  0.99483884  0.23772795  1
  Ge  Ge1  1  0.49042505  0.99483884  0.76227205  1
  Ge  Ge2  1  0.00516116  0.50957495  0.76227205  1
  Ge  Ge3  1  0.00516116  0.50957495  0.23772795  1
  O  O0  1  0.32866790  0.32797434  0.25289733  1
  O  O1  1  0.67202566  0.67133210  0.25289733  1
  O  O2  1  0.67202566  0.67133210  0.74710267  1
  O  O3  1  0.32866790  0.32797434  0.74710267  1
  O  O4  1  0.16971683  0.83028317  0.23275461  1
  O  O5  1  0.83998617  0.16001383  0.33849014  1
  O  O6  1  0.83998617  0.16001383  0.66150986  1
  O  O7  1  0.16971683  0.83028317  0.76724539  1
  O  O8  1  0.56004803  0.03175842  -0.00000000  1
  O  O9  1  0.39013605  0.98716858  0.50000000  1
  O  O10  1  0.96824158  0.43995197  -0.00000000  1
  O  O11  1  0.01283142  0.60986395  0.50000000  1
loop_
_geom_bond_atom_site_label_1
_geom_bond_atom_site_label_2
_geom_bond_distance
_geom_bond_site_symmetry_2
Ca0 O1 2.344350 1_555
Ca0 O0 2.344350 1_555
Ca0 O2 2.344350 1_554
Ca0 O3 2.344350 1_554
Ca0 O10 2.437368 1_555
Ca0 O8 2.437368 1_555
Ca0 O10 2.774293 1_455
Ca0 O8 2.774293 1_565
Ca0 O7 2.824337 1_554
Ca0 O4 2.824337 1_555
Ge0 O1 1.810199 1_555
Ge0 O0 1.815910 1_565
Ge0 O8 1.861901 1_565
Ge0 O4 1.958237 1_555
Ge0 O9 2.066711 1_555
Ge0 O5 2.231362 1_565
Ge1 O2 1.810199 1_555
Ge1 O3 1.815910 1_565
Ge1 O8 1.861901 1_566
Ge1 O7 1.958237 1_555
Ge1 O9 2.066711 1_555
Ge1 O6 2.231362 1_565
Ge2 O3 1.810199 1_555
Ge2 O2 1.815910 1_455
Ge2 O10 1.861901 1_456
Ge2 O7 1.958237 1_555
Ge2 O11 2.066711 1_555
Ge2 O6 2.231362 1_455
Ge3 O0 1.810199 1_555
Ge3 O1 1.815910 1_455
Ge3 O10 1.861901 1_455
Ge3 O4 1.958237 1_555
Ge3 O11 2.066711 1_555
Ge3 O5 2.231362 1_455
O4 V0 2.180582 1_555
O5 V0 1.915647 1_645
O6 V0 1.915647 1_645
O7 V0 2.180582 1_555
O9 V0 1.770870 1_555
O11 V0 1.770870 1_555
