# generated using pymatgen
data_Mn2AlO4
_symmetry_space_group_name_H-M   'P 1'
_cell_length_a   6.01009348
_cell_length_b   6.01009348
_cell_length_c   6.01009260
_cell_angle_alpha   59.84337721
_cell_angle_beta   59.84337721
_cell_angle_gamma   59.84337877
_symmetry_Int_Tables_number   1
_chemical_formula_structural   Mn2AlO4
_chemical_formula_sum   'Mn4 Al2 O8'
_cell_volume   152.96151249
_cell_formula_units_Z   2
loop_
 _symmetry_equiv_pos_site_id
 _symmetry_equiv_pos_as_xyz
  1  'x, y, z'
loop_
 _atom_site_type_symbol
 _atom_site_label
 _atom_site_symmetry_multiplicity
 _atom_site_fract_x
 _atom_site_fract_y
 _atom_site_fract_z
 _atom_site_occupancy
  Mn  Mn0  1  0.50000000  0.00000000  0.00000000  1
  Mn  Mn1  1  0.00000000  0.00000000  0.00000000  1
  Mn  Mn2  1  0.00000000  0.50000000  0.00000000  1
  Mn  Mn3  1  0.00000000  0.00000000  0.50000000  1
  Al  Al0  1  0.62120500  0.62120500  0.62120500  1
  Al  Al1  1  0.37879500  0.37879500  0.37879500  1
  O  O0  1  0.74483500  0.24544800  0.74483500  1
  O  O1  1  0.25516500  0.25516500  0.75455200  1
  O  O2  1  0.75455200  0.25516500  0.25516500  1
  O  O3  1  0.25764800  0.25764800  0.25764800  1
  O  O4  1  0.74483500  0.74483500  0.24544800  1
  O  O5  1  0.25516500  0.75455200  0.25516500  1
  O  O6  1  0.24544800  0.74483500  0.74483500  1
  O  O7  1  0.74235200  0.74235200  0.74235200  1
loop_
_geom_bond_atom_site_label_1
_geom_bond_atom_site_label_2
_geom_bond_distance
_geom_bond_site_symmetry_2
Mn0 O4 2.081799 1_545
Mn0 O1 2.081799 1_554
Mn0 O0 2.081799 1_554
Mn0 O5 2.081799 1_545
Mn0 O7 2.189540 1_544
Mn0 O3 2.189540 1_555
Mn1 O0 2.167205 1_454
Mn1 O5 2.167205 1_545
Mn1 O6 2.167205 1_544
Mn1 O2 2.167205 1_455
Mn1 O4 2.167205 1_445
Mn1 O1 2.167205 1_554
Mn2 O4 2.081799 1_455
Mn2 O1 2.081799 1_554
Mn2 O2 2.081799 1_455
Mn2 O6 2.081799 1_554
Mn2 O3 2.189540 1_555
Mn2 O7 2.189540 1_454
Mn3 O5 2.081799 1_545
Mn3 O6 2.081799 1_545
Mn3 O2 2.081799 1_455
Mn3 O0 2.081799 1_455
Mn3 O3 2.189541 1_555
Mn3 O7 2.189541 1_445
Al0 O7 1.785593 1_555
Al0 O4 1.840399 1_555
Al0 O6 1.840400 1_555
Al0 O0 1.840400 1_555
Al1 O3 1.785593 1_555
Al1 O1 1.840399 1_555
Al1 O2 1.840400 1_555
Al1 O5 1.840400 1_555
