# generated using pymatgen
data_YHfMg6
_symmetry_space_group_name_H-M   'P 1'
_cell_length_a   5.18651800
_cell_length_b   6.52724700
_cell_length_c   11.33648400
_cell_angle_alpha   90.00000000
_cell_angle_beta   90.00000000
_cell_angle_gamma   90.00000000
_symmetry_Int_Tables_number   1
_chemical_formula_structural   YHfMg6
_chemical_formula_sum   'Y2 Hf2 Mg12'
_cell_volume   383.78174764
_cell_formula_units_Z   2
loop_
 _symmetry_equiv_pos_site_id
 _symmetry_equiv_pos_as_xyz
  1  'x, y, z'
loop_
 _atom_site_type_symbol
 _atom_site_label
 _atom_site_symmetry_multiplicity
 _atom_site_fract_x
 _atom_site_fract_y
 _atom_site_fract_z
 _atom_site_occupancy
  Y  Y0  1  0.00000000  0.50000000  0.33165100  1
  Y  Y1  1  0.00000000  0.00000000  0.83165100  1
  Hf  Hf0  1  0.50000000  0.50000000  0.16393900  1
  Hf  Hf1  1  0.50000000  0.00000000  0.66393900  1
  Mg  Mg0  1  0.00000000  0.74258300  0.08489100  1
  Mg  Mg1  1  0.00000000  0.25741700  0.08489100  1
  Mg  Mg2  1  0.00000000  0.00000000  0.33503500  1
  Mg  Mg3  1  0.50000000  0.24788200  0.41734600  1
  Mg  Mg4  1  0.50000000  0.75211800  0.41734600  1
  Mg  Mg5  1  0.50000000  0.00000000  0.16490100  1
  Mg  Mg6  1  0.00000000  0.24258300  0.58489100  1
  Mg  Mg7  1  0.00000000  0.75741700  0.58489100  1
  Mg  Mg8  1  0.00000000  0.50000000  0.83503500  1
  Mg  Mg9  1  0.50000000  0.74788200  0.91734600  1
  Mg  Mg10  1  0.50000000  0.25211800  0.91734600  1
  Mg  Mg11  1  0.50000000  0.50000000  0.66490100  1
loop_
_geom_bond_atom_site_label_1
_geom_bond_atom_site_label_2
_geom_bond_distance
_geom_bond_site_symmetry_2
Hf0 Mg0 3.167836 1_555
Hf0 Mg1 3.167836 1_655
Hf0 Mg0 3.167836 1_655
Hf0 Mg1 3.167836 1_555
Hf0 Y0 3.215556 1_555
Hf0 Y0 3.215556 1_655
Hf0 Mg9 3.229967 1_554
Hf0 Mg10 3.229967 1_554
Hf0 Mg5 3.263642 1_555
Hf0 Mg5 3.263642 1_565
Hf0 Mg4 3.310707 1_555
Hf0 Mg3 3.310707 1_555
Hf1 Mg7 3.167836 1_545
Hf1 Mg6 3.167836 1_555
Hf1 Mg6 3.167836 1_655
Hf1 Mg7 3.167836 1_645
Hf1 Y1 3.215556 1_555
Hf1 Y1 3.215556 1_655
Hf1 Mg3 3.229967 1_555
Hf1 Mg4 3.229967 1_545
Hf1 Mg11 3.263642 1_555
Hf1 Mg11 3.263642 1_545
Hf1 Mg10 3.310707 1_555
Hf1 Mg9 3.310707 1_545
Mg0 Mg1 3.166798 1_555
Mg0 Y0 3.214428 1_555
Mg0 Mg9 3.214623 1_554
Mg0 Mg9 3.214623 1_454
Mg0 Mg5 3.220381 1_565
Mg0 Mg5 3.220381 1_465
Mg0 Mg8 3.245018 1_554
Mg0 Mg2 3.296157 1_565
Mg0 Y1 3.326401 1_564
Mg0 Mg1 3.360449 1_565
Mg1 Y0 3.214428 1_555
Mg1 Mg10 3.214623 1_554
Mg1 Mg10 3.214623 1_454
Mg1 Mg5 3.220381 1_455
Mg1 Mg5 3.220381 1_555
Mg1 Mg8 3.245018 1_554
Mg1 Mg2 3.296157 1_555
Mg1 Y1 3.326401 1_554
Mg2 Mg4 3.195870 1_545
Mg2 Mg3 3.195870 1_455
Mg2 Mg4 3.195870 1_445
Mg2 Mg3 3.195870 1_555
Mg2 Mg5 3.231866 1_555
Mg2 Mg5 3.231866 1_455
Mg2 Mg7 3.245018 1_545
Mg2 Mg6 3.245018 1_555
Mg2 Y0 3.263849 1_545
Mg2 Y0 3.263849 1_555
Mg3 Mg6 3.214623 1_555
Mg3 Mg6 3.214623 1_655
Mg3 Y0 3.221317 1_655
Mg3 Y0 3.221317 1_555
Mg3 Mg4 3.235974 1_545
Mg3 Mg5 3.287553 1_555
Mg3 Mg4 3.291273 1_555
Mg4 Mg7 3.214623 1_655
Mg4 Mg7 3.214623 1_555
Mg4 Y0 3.221317 1_655
Mg4 Y0 3.221317 1_555
Mg4 Mg5 3.287553 1_565
Mg5 Mg9 3.253309 1_544
Mg6 Mg7 3.166798 1_545
Mg6 Y1 3.214428 1_555
Mg6 Mg8 3.296157 1_555
Mg6 Y0 3.326401 1_555
Mg6 Mg7 3.360449 1_555
Mg7 Y1 3.214428 1_565
Mg7 Mg8 3.296157 1_555
Mg7 Y0 3.326401 1_555
Mg8 Mg9 3.195870 1_455
Mg8 Mg9 3.195870 1_555
Mg8 Y1 3.263849 1_565
Mg8 Y1 3.263849 1_555
Mg9 Y1 3.221317 1_565
Mg9 Y1 3.221317 1_665
Mg10 Mg8 3.195870 1_555
Mg10 Mg8 3.195870 1_655
Mg10 Y1 3.221317 1_555
Mg10 Y1 3.221317 1_655
Mg10 Mg9 3.235974 1_555
Mg10 Mg5 3.253309 1_556
Mg10 Mg11 3.287553 1_555
Mg10 Mg9 3.291273 1_545
Mg11 Mg7 3.220381 1_555
Mg11 Mg7 3.220381 1_655
Mg11 Mg6 3.220381 1_555
Mg11 Mg6 3.220381 1_655
Mg11 Mg8 3.231866 1_555
Mg11 Mg8 3.231866 1_655
Mg11 Mg4 3.253309 1_555
Mg11 Mg3 3.253309 1_555
Mg11 Mg9 3.287553 1_555
