# generated using pymatgen
data_LaTeCl
_symmetry_space_group_name_H-M   'P 1'
_cell_length_a   4.55521034
_cell_length_b   4.55521034
_cell_length_c   8.32011452
_cell_angle_alpha   90.00000000
_cell_angle_beta   90.00000000
_cell_angle_gamma   90.00000000
_symmetry_Int_Tables_number   1
_chemical_formula_structural   LaTeCl
_chemical_formula_sum   'La2 Te2 Cl2'
_cell_volume   172.64188741
_cell_formula_units_Z   2
loop_
 _symmetry_equiv_pos_site_id
 _symmetry_equiv_pos_as_xyz
  1  'x, y, z'
loop_
 _atom_site_type_symbol
 _atom_site_label
 _atom_site_symmetry_multiplicity
 _atom_site_fract_x
 _atom_site_fract_y
 _atom_site_fract_z
 _atom_site_occupancy
  La  La0  1  0.75000000  0.75000000  0.75910166  1
  La  La1  1  0.25000000  0.25000000  0.24089834  1
  Te  Te0  1  0.75000000  0.75000000  0.36193058  1
  Te  Te1  1  0.25000000  0.25000000  0.63806942  1
  Cl  Cl0  1  0.75000000  0.25000000  -0.00000000  1
  Cl  Cl1  1  0.25000000  0.75000000  -0.00000000  1
loop_
_geom_bond_atom_site_label_1
_geom_bond_atom_site_label_2
_geom_bond_distance
_geom_bond_site_symmetry_2
La0 Te0 3.304509 1_555
La0 Te1 3.374763 1_665
La0 Te1 3.374763 1_555
La0 Te1 3.374763 1_565
La0 Te1 3.374763 1_655
La1 Te1 3.304509 1_555
La1 Te0 3.374763 1_555
La1 Te0 3.374763 1_455
La1 Te0 3.374763 1_545
La1 Te0 3.374763 1_445
Cl0 La0 3.033927 1_544
Cl0 La1 3.033927 1_555
Cl0 La0 3.033927 1_554
Cl0 La1 3.033927 1_655
Cl1 La1 3.033927 1_555
Cl1 La0 3.033927 1_454
Cl1 La0 3.033927 1_554
Cl1 La1 3.033927 1_565
