# generated using pymatgen
data_NaMg30AlO32
_symmetry_space_group_name_H-M   'P 1'
_cell_length_a   8.52274400
_cell_length_b   8.52274400
_cell_length_c   8.50848600
_cell_angle_alpha   90.00000000
_cell_angle_beta   90.00000000
_cell_angle_gamma   90.00000000
_symmetry_Int_Tables_number   1
_chemical_formula_structural   NaMg30AlO32
_chemical_formula_sum   'Na1 Mg30 Al1 O32'
_cell_volume   618.03230395
_cell_formula_units_Z   1
loop_
 _symmetry_equiv_pos_site_id
 _symmetry_equiv_pos_as_xyz
  1  'x, y, z'
loop_
 _atom_site_type_symbol
 _atom_site_label
 _atom_site_symmetry_multiplicity
 _atom_site_fract_x
 _atom_site_fract_y
 _atom_site_fract_z
 _atom_site_occupancy
  Na  Na0  1  0.00000000  0.00000000  0.50000000  1
  Mg  Mg0  1  0.50000000  0.00000000  0.00000000  1
  Mg  Mg1  1  0.50000000  0.00000000  0.50000000  1
  Mg  Mg2  1  0.00000000  0.50000000  0.00000000  1
  Mg  Mg3  1  0.00000000  0.50000000  0.50000000  1
  Mg  Mg4  1  0.50000000  0.50000000  0.00000000  1
  Mg  Mg5  1  0.50000000  0.50000000  0.50000000  1
  Mg  Mg6  1  0.24991700  0.00000000  0.25277400  1
  Mg  Mg7  1  0.24991700  0.00000000  0.74722600  1
  Mg  Mg8  1  0.75008300  0.00000000  0.25277400  1
  Mg  Mg9  1  0.75008300  0.00000000  0.74722600  1
  Mg  Mg10  1  0.24995400  0.50000000  0.25132100  1
  Mg  Mg11  1  0.24995400  0.50000000  0.74867900  1
  Mg  Mg12  1  0.75004600  0.50000000  0.25132100  1
  Mg  Mg13  1  0.75004600  0.50000000  0.74867900  1
  Mg  Mg14  1  0.00000000  0.24991700  0.25277400  1
  Mg  Mg15  1  0.00000000  0.24991700  0.74722600  1
  Mg  Mg16  1  0.50000000  0.24995400  0.25132100  1
  Mg  Mg17  1  0.50000000  0.24995400  0.74867900  1
  Mg  Mg18  1  0.00000000  0.75008300  0.25277400  1
  Mg  Mg19  1  0.00000000  0.75008300  0.74722600  1
  Mg  Mg20  1  0.50000000  0.75004600  0.25132100  1
  Mg  Mg21  1  0.50000000  0.75004600  0.74867900  1
  Mg  Mg22  1  0.25029500  0.25029500  0.00000000  1
  Mg  Mg23  1  0.24896700  0.24896700  0.50000000  1
  Mg  Mg24  1  0.74970500  0.25029500  0.00000000  1
  Mg  Mg25  1  0.75103300  0.24896700  0.50000000  1
  Mg  Mg26  1  0.25029500  0.74970500  0.00000000  1
  Mg  Mg27  1  0.24896700  0.75103300  0.50000000  1
  Mg  Mg28  1  0.74970500  0.74970500  0.00000000  1
  Mg  Mg29  1  0.75103300  0.75103300  0.50000000  1
  Al  Al0  1  0.00000000  0.00000000  0.00000000  1
  O  O0  1  0.00000000  0.23815300  0.00000000  1
  O  O1  1  0.00000000  0.26143800  0.50000000  1
  O  O2  1  0.50000000  0.24855400  0.00000000  1
  O  O3  1  0.50000000  0.25165100  0.50000000  1
  O  O4  1  0.00000000  0.76184700  0.00000000  1
  O  O5  1  0.00000000  0.73856200  0.50000000  1
  O  O6  1  0.50000000  0.75144600  0.00000000  1
  O  O7  1  0.50000000  0.74834900  0.50000000  1
  O  O8  1  0.24968000  0.24968000  0.24919500  1
  O  O9  1  0.24968000  0.24968000  0.75080500  1
  O  O10  1  0.75032000  0.24968000  0.24919500  1
  O  O11  1  0.75032000  0.24968000  0.75080500  1
  O  O12  1  0.24968000  0.75032000  0.24919500  1
  O  O13  1  0.24968000  0.75032000  0.75080500  1
  O  O14  1  0.75032000  0.75032000  0.24919500  1
  O  O15  1  0.75032000  0.75032000  0.75080500  1
  O  O16  1  0.00000000  0.00000000  0.22332600  1
  O  O17  1  0.00000000  0.00000000  0.77667400  1
  O  O18  1  0.50000000  0.00000000  0.24539600  1
  O  O19  1  0.50000000  0.00000000  0.75460400  1
  O  O20  1  0.00000000  0.50000000  0.24539600  1
  O  O21  1  0.00000000  0.50000000  0.75460400  1
  O  O22  1  0.50000000  0.50000000  0.24849500  1
  O  O23  1  0.50000000  0.50000000  0.75150500  1
  O  O24  1  0.23815300  0.00000000  0.00000000  1
  O  O25  1  0.26143800  0.00000000  0.50000000  1
  O  O26  1  0.76184700  0.00000000  0.00000000  1
  O  O27  1  0.73856200  0.00000000  0.50000000  1
  O  O28  1  0.24855400  0.50000000  0.00000000  1
  O  O29  1  0.25165100  0.50000000  0.50000000  1
  O  O30  1  0.75144600  0.50000000  0.00000000  1
  O  O31  1  0.74834900  0.50000000  0.50000000  1
loop_
_geom_bond_atom_site_label_1
_geom_bond_atom_site_label_2
_geom_bond_distance
_geom_bond_site_symmetry_2
Na0 O5 2.228169 1_545
Na0 O27 2.228169 1_455
Na0 O25 2.228169 1_555
Na0 O1 2.228169 1_555
Na0 O17 2.354077 1_555
Na0 O16 2.354077 1_555
Mg0 O19 2.087948 1_554
Mg0 O18 2.087948 1_555
Mg0 O2 2.118362 1_555
Mg0 O6 2.118362 1_545
Mg0 O24 2.231655 1_555
Mg0 O26 2.231655 1_555
Mg1 O25 2.033203 1_555
Mg1 O27 2.033203 1_555
Mg1 O7 2.144757 1_545
Mg1 O3 2.144757 1_555
Mg1 O18 2.166295 1_555
Mg1 O19 2.166295 1_555
Mg2 O21 2.087948 1_554
Mg2 O20 2.087948 1_555
Mg2 O28 2.118362 1_555
Mg2 O30 2.118362 1_455
Mg2 O0 2.231655 1_555
Mg2 O4 2.231655 1_555
Mg3 O1 2.033203 1_555
Mg3 O5 2.033203 1_555
Mg3 O31 2.144757 1_455
Mg3 O29 2.144757 1_555
Mg3 O20 2.166295 1_555
Mg3 O21 2.166295 1_555
Mg4 O22 2.114316 1_555
Mg4 O23 2.114316 1_554
Mg4 O30 2.143010 1_555
Mg4 O6 2.143010 1_555
Mg4 O2 2.143010 1_555
Mg4 O28 2.143010 1_555
Mg5 O29 2.116615 1_555
Mg5 O3 2.116615 1_555
Mg5 O7 2.116615 1_555
Mg5 O31 2.116615 1_555
Mg5 O23 2.139927 1_555
Mg5 O22 2.139927 1_555
Mg6 O25 2.105809 1_555
Mg6 O12 2.128178 1_545
Mg6 O8 2.128178 1_555
Mg6 O18 2.132318 1_555
Mg6 O16 2.144665 1_555
Mg6 O24 2.153060 1_555
Mg7 O25 2.105809 1_555
Mg7 O9 2.128178 1_555
Mg7 O13 2.128178 1_545
Mg7 O19 2.132318 1_555
Mg7 O17 2.144665 1_555
Mg7 O24 2.153060 1_556
Mg8 O27 2.105809 1_555
Mg8 O14 2.128178 1_545
Mg8 O10 2.128178 1_555
Mg8 O18 2.132318 1_555
Mg8 O16 2.144665 1_655
Mg8 O26 2.153060 1_555
Mg9 O27 2.105809 1_555
Mg9 O15 2.128178 1_545
Mg9 O11 2.128178 1_555
Mg9 O19 2.132318 1_555
Mg9 O17 2.144665 1_655
Mg9 O26 2.153060 1_556
Mg10 O29 2.115931 1_555
Mg10 O20 2.130890 1_555
Mg10 O22 2.131214 1_555
Mg10 O12 2.133491 1_555
Mg10 O8 2.133491 1_555
Mg10 O28 2.138394 1_555
Mg11 O29 2.115931 1_555
Mg11 O21 2.130890 1_555
Mg11 O23 2.131214 1_555
Mg11 O13 2.133491 1_555
Mg11 O9 2.133491 1_555
Mg11 O28 2.138394 1_556
Mg12 O31 2.115931 1_555
Mg12 O20 2.130890 1_655
Mg12 O22 2.131214 1_555
Mg12 O10 2.133491 1_555
Mg12 O14 2.133491 1_555
Mg12 O30 2.138394 1_555
Mg13 O31 2.115931 1_555
Mg13 O21 2.130890 1_655
Mg13 O23 2.131214 1_555
Mg13 O11 2.133491 1_555
Mg13 O15 2.133491 1_555
Mg13 O30 2.138394 1_556
Mg14 O1 2.105809 1_555
Mg14 O8 2.128178 1_555
Mg14 O10 2.128178 1_455
Mg14 O20 2.132318 1_555
Mg14 O16 2.144665 1_555
Mg14 O0 2.153060 1_555
Mg15 O1 2.105809 1_555
Mg15 O11 2.128178 1_455
Mg15 O9 2.128178 1_555
Mg15 O21 2.132318 1_555
Mg15 O17 2.144665 1_555
Mg15 O0 2.153060 1_556
Mg16 O3 2.115931 1_555
Mg16 O18 2.130890 1_555
Mg16 O22 2.131214 1_555
Mg16 O10 2.133491 1_555
Mg16 O8 2.133491 1_555
Mg16 O2 2.138394 1_555
Mg17 O3 2.115931 1_555
Mg17 O19 2.130890 1_555
Mg17 O23 2.131214 1_555
Mg17 O11 2.133491 1_555
Mg17 O9 2.133491 1_555
Mg17 O2 2.138394 1_556
Mg18 O5 2.105809 1_555
Mg18 O12 2.128178 1_555
Mg18 O14 2.128178 1_455
Mg18 O20 2.132318 1_555
Mg18 O16 2.144665 1_565
Mg18 O4 2.153060 1_555
Mg19 O5 2.105809 1_555
Mg19 O13 2.128178 1_555
Mg19 O15 2.128178 1_455
Mg19 O21 2.132318 1_555
Mg19 O17 2.144665 1_565
Mg19 O4 2.153060 1_556
Mg20 O7 2.115931 1_555
Mg20 O18 2.130890 1_565
Mg20 O22 2.131214 1_555
Mg20 O12 2.133491 1_555
Mg20 O14 2.133491 1_555
Mg20 O6 2.138394 1_555
Mg21 O7 2.115931 1_555
Mg21 O19 2.130890 1_565
Mg21 O23 2.131214 1_555
Mg21 O13 2.133491 1_555
Mg21 O15 2.133491 1_555
Mg21 O6 2.138394 1_556
Mg22 O8 2.120285 1_555
Mg22 O9 2.120285 1_554
Mg22 O2 2.128224 1_555
Mg22 O28 2.128224 1_555
Mg22 O0 2.135709 1_555
Mg22 O24 2.135709 1_555
Mg23 O25 2.124542 1_555
Mg23 O1 2.124542 1_555
Mg23 O9 2.133988 1_555
Mg23 O8 2.133988 1_555
Mg23 O3 2.139612 1_555
Mg23 O29 2.139612 1_555
Mg24 O10 2.120285 1_555
Mg24 O11 2.120285 1_554
Mg24 O2 2.128224 1_555
Mg24 O30 2.128224 1_555
Mg24 O26 2.135709 1_555
Mg24 O0 2.135709 1_655
Mg25 O27 2.124542 1_555
Mg25 O1 2.124542 1_655
Mg25 O11 2.133988 1_555
Mg25 O10 2.133988 1_555
Mg25 O3 2.139612 1_555
Mg25 O31 2.139612 1_555
Mg26 O12 2.120285 1_555
Mg26 O13 2.120285 1_554
Mg26 O28 2.128224 1_555
Mg26 O6 2.128224 1_555
Mg26 O4 2.135709 1_555
Mg26 O24 2.135709 1_565
Mg27 O5 2.124542 1_555
Mg27 O25 2.124542 1_565
Mg27 O13 2.133988 1_555
Mg27 O12 2.133988 1_555
Mg27 O29 2.139612 1_555
Mg27 O7 2.139612 1_555
Mg28 O14 2.120285 1_555
Mg28 O15 2.120285 1_554
Mg28 O30 2.128224 1_555
Mg28 O6 2.128224 1_555
Mg28 O4 2.135709 1_655
Mg28 O26 2.135709 1_565
Mg29 O27 2.124542 1_565
Mg29 O5 2.124542 1_655
Mg29 O15 2.133988 1_555
Mg29 O14 2.133988 1_555
Mg29 O7 2.139612 1_555
Mg29 O31 2.139612 1_555
Al0 O16 1.900166 1_555
Al0 O17 1.900166 1_554
Al0 O4 2.029717 1_545
Al0 O26 2.029717 1_455
Al0 O24 2.029717 1_555
Al0 O0 2.029717 1_555
