# generated using pymatgen
data_Li9Mn2Co5O16
_symmetry_space_group_name_H-M   'P 1'
_cell_length_a   5.03958900
_cell_length_b   7.69547444
_cell_length_c   7.91043398
_cell_angle_alpha   98.36794353
_cell_angle_beta   99.64352629
_cell_angle_gamma   104.45832288
_symmetry_Int_Tables_number   1
_chemical_formula_structural   Li9Mn2Co5O16
_chemical_formula_sum   'Li9 Mn2 Co5 O16'
_cell_volume   287.17339946
_cell_formula_units_Z   1
loop_
 _symmetry_equiv_pos_site_id
 _symmetry_equiv_pos_as_xyz
  1  'x, y, z'
loop_
 _atom_site_type_symbol
 _atom_site_label
 _atom_site_symmetry_multiplicity
 _atom_site_fract_x
 _atom_site_fract_y
 _atom_site_fract_z
 _atom_site_occupancy
  Li  Li0  1  0.49531300  0.74554800  0.74536900  1
  Li  Li1  1  0.01289200  0.38178800  0.13254900  1
  Li  Li2  1  0.49770800  0.99294400  0.49879400  1
  Li  Li3  1  0.98405100  0.86999600  0.61704000  1
  Li  Li4  1  0.50062400  0.49948300  0.00541500  1
  Li  Li5  1  0.99736800  0.12778400  0.37772600  1
  Li  Li6  1  0.00026800  0.61907800  0.87423400  1
  Li  Li7  1  0.50735000  0.26317700  0.25178100  1
  Li  Li8  1  0.49721600  0.62270800  0.37238500  1
  Mn  Mn0  1  0.00049700  0.00194100  0.99996000  1
  Mn  Mn1  1  0.50228800  0.87081000  0.12996500  1
  Co  Co0  1  0.00038000  0.24985500  0.74820700  1
  Co  Co1  1  0.00565800  0.50475700  0.49669600  1
  Co  Co2  1  0.50493800  0.13030000  0.87204900  1
  Co  Co3  1  0.99407900  0.74359100  0.25068400  1
  Co  Co4  1  0.49651300  0.38300700  0.61644800  1
  O  O0  1  0.73714000  0.76660800  0.99891300  1
  O  O1  1  0.23939200  0.38172000  0.39409900  1
  O  O2  1  0.75543000  0.01366600  0.74377100  1
  O  O3  1  0.27001800  0.88789500  0.90205600  1
  O  O4  1  0.77109000  0.51601300  0.25112800  1
  O  O5  1  0.25326500  0.13766000  0.64030600  1
  O  O6  1  0.24761400  0.64359400  0.13086500  1
  O  O7  1  0.75979400  0.27400300  0.49514900  1
  O  O8  1  0.22789500  0.72899800  0.51115000  1
  O  O9  1  0.75023900  0.35938700  0.86248700  1
  O  O10  1  0.25926200  0.97687900  0.25163500  1
  O  O11  1  0.74533000  0.86839900  0.34433800  1
  O  O12  1  0.23628400  0.48234900  0.74691100  1
  O  O13  1  0.74519100  0.10928400  0.11348500  1
  O  O14  1  0.75271400  0.60818200  0.62205300  1
  O  O15  1  0.25219800  0.23859400  0.00235200  1
loop_
_geom_bond_atom_site_label_1
_geom_bond_atom_site_label_2
_geom_bond_distance
_geom_bond_site_symmetry_2
Li0 O8 2.067431 1_555
Li0 O12 2.121053 1_555
Li0 O0 2.126490 1_555
Li0 O14 2.135484 1_555
Li0 O2 2.153669 1_565
Li0 O3 2.173182 1_555
Li1 O4 2.039910 1_455
Li1 O6 2.069194 1_555
Li1 O15 2.116337 1_555
Li1 O13 2.160437 1_455
Li1 O1 2.189286 1_555
Li1 O9 2.275320 1_454
Li2 O10 2.085706 1_555
Li2 O2 2.105011 1_565
Li2 O8 2.169642 1_555
Li2 O11 2.176224 1_555
Li2 O5 2.189778 1_565
Li2 O7 2.242278 1_565
Li3 O8 2.033531 1_655
Li3 O2 2.062838 1_565
Li3 O14 2.070246 1_555
Li3 O5 2.127883 1_665
Li3 O11 2.283939 1_555
Li3 O3 2.429198 1_655
Li4 O15 2.078284 1_555
Li4 O0 2.115863 1_554
Li4 O4 2.146123 1_555
Li4 O6 2.156429 1_555
Li4 O9 2.195912 1_554
Li4 O12 2.212400 1_554
Li5 O1 2.001596 1_655
Li5 O11 2.033613 1_545
Li5 O7 2.074489 1_555
Li5 O13 2.222071 1_555
Li5 O10 2.225919 1_645
Li5 O5 2.234049 1_655
Li6 O9 2.058985 1_455
Li6 O12 2.062548 1_555
Li6 O3 2.130460 1_555
Li6 O14 2.146672 1_455
Li6 O6 2.152637 1_556
Li6 O0 2.210005 1_455
Li7 O4 2.065482 1_555
Li7 O7 2.100353 1_555
Li7 O15 2.121834 1_555
Li7 O1 2.179165 1_555
Li7 O13 2.192503 1_555
Li7 O10 2.245109 1_545
Li8 O1 2.030081 1_555
Li8 O11 2.054749 1_555
Li8 O4 2.068673 1_555
Li8 O8 2.123286 1_555
Li8 O6 2.154857 1_555
Li8 O14 2.203432 1_555
Mn0 O15 1.937620 1_556
Mn0 O0 1.957804 1_445
Mn0 O13 1.961171 1_456
Mn0 O3 1.991185 1_545
Mn0 O2 2.216019 1_455
Mn0 O10 2.251407 1_546
Mn1 O6 1.894923 1_555
Mn1 O11 1.923762 1_555
Mn1 O10 1.938580 1_555
Mn1 O0 1.939477 1_554
Mn1 O13 1.970953 1_565
Mn1 O3 2.019052 1_554
Co0 O12 1.887282 1_555
Co0 O2 1.917090 1_455
Co0 O5 1.948739 1_555
Co0 O9 1.951270 1_455
Co0 O15 2.215979 1_556
Co0 O7 2.217971 1_455
Co1 O8 1.783213 1_555
Co1 O7 1.891725 1_455
Co1 O1 1.896368 1_555
Co1 O14 1.985485 1_455
Co1 O4 2.123482 1_455
Co1 O12 2.174151 1_555
Co2 O9 1.903616 1_555
Co2 O3 2.014445 1_545
Co2 O15 2.024643 1_556
Co2 O2 2.039303 1_555
Co2 O5 2.063867 1_555
Co2 O13 2.133695 1_556
Co3 O4 1.830396 1_555
Co3 O11 1.936001 1_555
Co3 O10 1.950301 1_655
Co3 O6 1.951284 1_655
Co3 O8 2.228529 1_655
Co3 O0 2.242272 1_554
Co4 O14 1.874290 1_555
Co4 O1 1.999434 1_555
Co4 O12 2.023326 1_555
Co4 O5 2.031900 1_555
Co4 O7 2.032944 1_555
Co4 O9 2.200290 1_555
