# generated using pymatgen
data_SrLaMnO3
_symmetry_space_group_name_H-M   'P 1'
_cell_length_a   3.58538730
_cell_length_b   3.96022500
_cell_length_c   7.17487882
_cell_angle_alpha   73.97965928
_cell_angle_beta   75.73320118
_cell_angle_gamma   90.00000000
_symmetry_Int_Tables_number   1
_chemical_formula_structural   SrLaMnO3
_chemical_formula_sum   'Sr1 La1 Mn1 O3'
_cell_volume   94.64597966
_cell_formula_units_Z   1
loop_
 _symmetry_equiv_pos_site_id
 _symmetry_equiv_pos_as_xyz
  1  'x, y, z'
loop_
 _atom_site_type_symbol
 _atom_site_label
 _atom_site_symmetry_multiplicity
 _atom_site_fract_x
 _atom_site_fract_y
 _atom_site_fract_z
 _atom_site_occupancy
  Sr  Sr0  1  0.33824300  0.35425900  0.29148300  1
  La  La0  1  0.62630800  0.64771900  0.70456100  1
  Mn  Mn0  1  0.97856500  0.99582600  0.00834700  1
  O  O0  1  0.16951100  0.16946100  0.66107800  1
  O  O1  1  0.81886400  0.82472000  0.35056000  1
  O  O2  1  0.98350800  0.50801500  0.98397000  1
loop_
_geom_bond_atom_site_label_1
_geom_bond_atom_site_label_2
_geom_bond_distance
_geom_bond_site_symmetry_2
La0 O1 2.360547 1_555
La0 O2 2.572636 1_555
La0 O2 2.597537 1_455
La0 O0 2.635331 1_555
La0 O0 2.635334 1_565
La0 O0 2.739416 1_655
La0 O0 2.739418 1_665
Mn0 O2 1.986928 1_554
Mn0 O2 1.986932 1_564
Mn0 O1 2.281323 1_555
Mn0 O0 2.315870 1_664
O0 Sr0 2.464090 1_555
O1 Sr0 2.676841 1_655
O1 Sr0 2.676844 1_665
O1 Sr0 2.723286 1_555
O1 Sr0 2.723289 1_565
O2 Sr0 2.708101 1_556
O2 Sr0 2.738253 1_656
