# generated using pymatgen
data_YGa2N3
_symmetry_space_group_name_H-M   'P 1'
_cell_length_a   5.96970617
_cell_length_b   5.93442909
_cell_length_c   5.29934800
_cell_angle_alpha   90.00000000
_cell_angle_beta   90.00000000
_cell_angle_gamma   119.80471591
_symmetry_Int_Tables_number   1
_chemical_formula_structural   YGa2N3
_chemical_formula_sum   'Y2 Ga4 N6'
_cell_volume   162.90567834
_cell_formula_units_Z   2
loop_
 _symmetry_equiv_pos_site_id
 _symmetry_equiv_pos_as_xyz
  1  'x, y, z'
loop_
 _atom_site_type_symbol
 _atom_site_label
 _atom_site_symmetry_multiplicity
 _atom_site_fract_x
 _atom_site_fract_y
 _atom_site_fract_z
 _atom_site_occupancy
  Y  Y0  1  0.00000000  0.68828000  0.47206000  1
  Y  Y1  1  0.00000000  0.31172000  0.97206000  1
  Ga  Ga0  1  0.34743700  0.33986900  0.48991700  1
  Ga  Ga1  1  0.65256300  0.99243100  0.48991700  1
  Ga  Ga2  1  0.65256300  0.66013100  0.98991700  1
  Ga  Ga3  1  0.34743700  0.00756900  0.98991700  1
  N  N0  1  0.37627800  0.33019700  0.85883200  1
  N  N1  1  0.62372200  0.95391900  0.85883200  1
  N  N2  1  0.62372200  0.66980300  0.35883200  1
  N  N3  1  0.37627800  0.04608100  0.35883200  1
  N  N4  1  0.00000000  0.69551600  0.91844300  1
  N  N5  1  0.00000000  0.30448400  0.41844300  1
loop_
_geom_bond_atom_site_label_1
_geom_bond_atom_site_label_2
_geom_bond_distance
_geom_bond_site_symmetry_2
Ga0 N2 1.956081 1_555
Ga0 N3 1.962211 1_555
Ga0 N0 1.965915 1_555
Ga0 N5 2.014068 1_555
Ga1 N3 1.956085 1_565
Ga1 N2 1.962205 1_555
Ga1 N1 1.965915 1_555
Ga1 N5 2.014071 1_665
Ga2 N0 1.956081 1_555
Ga2 N1 1.962211 1_555
Ga2 N2 1.965915 1_556
Ga2 N4 2.014068 1_655
Ga3 N1 1.956085 1_545
Ga3 N0 1.962205 1_555
Ga3 N3 1.965915 1_556
Ga3 N4 2.014071 1_545
N0 Y1 2.274410 1_555
N1 Y1 2.274410 1_665
N2 Y0 2.274410 1_655
N3 Y0 2.274410 1_545
N4 Y1 2.295265 1_555
N4 Y0 2.365929 1_555
N4 Y0 2.934123 1_556
N5 Y0 2.295265 1_555
N5 Y1 2.365929 1_554
N5 Y1 2.934123 1_555
