# generated using pymatgen
data_Li2V5O10
_symmetry_space_group_name_H-M   'P 1'
_cell_length_a   5.18949098
_cell_length_b   9.94520440
_cell_length_c   8.38339376
_cell_angle_alpha   68.25582395
_cell_angle_beta   94.04387102
_cell_angle_gamma   77.33397718
_symmetry_Int_Tables_number   1
_chemical_formula_structural   Li2V5O10
_chemical_formula_sum   'Li4 V10 O20'
_cell_volume   386.56943374
_cell_formula_units_Z   2
loop_
 _symmetry_equiv_pos_site_id
 _symmetry_equiv_pos_as_xyz
  1  'x, y, z'
loop_
 _atom_site_type_symbol
 _atom_site_label
 _atom_site_symmetry_multiplicity
 _atom_site_fract_x
 _atom_site_fract_y
 _atom_site_fract_z
 _atom_site_occupancy
  Li  Li0  1  0.73095000  0.46653800  0.92813500  1
  Li  Li1  1  0.24602900  0.97493900  0.42444400  1
  Li  Li2  1  0.76903400  0.03343000  0.57195100  1
  Li  Li3  1  0.25378700  0.52506700  0.07554300  1
  V  V0  1  0.24994700  0.74994500  0.25017000  1
  V  V1  1  0.75003200  0.24997700  0.75001300  1
  V  V2  1  0.77823800  0.34851800  0.33752400  1
  V  V3  1  0.28925200  0.84979000  0.83381900  1
  V  V4  1  0.72160700  0.15107700  0.16257800  1
  V  V5  1  0.21107100  0.65048800  0.66605500  1
  V  V6  1  0.26443900  0.42976800  0.46782700  1
  V  V7  1  0.76829000  0.92250000  0.96728500  1
  V  V8  1  0.23535300  0.07034900  0.03207800  1
  V  V9  1  0.73198300  0.57737100  0.53279500  1
  O  O0  1  0.01265400  0.03678400  0.82522900  1
  O  O1  1  0.51879000  0.54772900  0.32708000  1
  O  O2  1  0.48735500  0.46328500  0.67468000  1
  O  O3  1  0.98119400  0.95228700  0.17292400  1
  O  O4  1  0.92381600  0.14272900  0.36114100  1
  O  O5  1  0.41308500  0.64230400  0.86531800  1
  O  O6  1  0.57621900  0.35708800  0.13889000  1
  O  O7  1  0.08690600  0.85784200  0.63466400  1
  O  O8  1  0.94959200  0.37354400  0.57972600  1
  O  O9  1  0.46158900  0.85621600  0.07087900  1
  O  O10  1  0.55040900  0.12646000  0.92028600  1
  O  O11  1  0.03840300  0.64386200  0.42908600  1
  O  O12  1  0.93184500  0.24514600  0.97302100  1
  O  O13  1  0.45635500  0.74533300  0.47607900  1
  O  O14  1  0.56801900  0.25488800  0.52695000  1
  O  O15  1  0.04368800  0.75471000  0.02394000  1
  O  O16  1  0.04940600  0.42692700  0.26432000  1
  O  O17  1  0.56367500  0.92383700  0.75981600  1
  O  O18  1  0.45035000  0.07301600  0.23572900  1
  O  O19  1  0.93663900  0.57625700  0.74002600  1
loop_
_geom_bond_atom_site_label_1
_geom_bond_atom_site_label_2
_geom_bond_distance
_geom_bond_site_symmetry_2
Li0 O5 1.996219 1_555
Li0 O6 2.027258 1_556
Li0 O19 2.071277 1_555
Li0 O12 2.097742 1_555
Li0 O2 2.409136 1_555
Li1 O4 1.963993 1_465
Li1 O18 2.031113 1_565
Li1 O7 2.061627 1_555
Li1 O13 2.168174 1_555
Li1 O3 2.542591 1_455
Li2 O7 1.995289 1_645
Li2 O4 2.027282 1_555
Li2 O17 2.068424 1_545
Li2 O14 2.098238 1_555
Li2 O0 2.408393 1_655
Li3 O6 1.965747 1_555
Li3 O16 2.031849 1_555
Li3 O5 2.062655 1_554
Li3 O15 2.168251 1_555
Li3 O1 2.543197 1_555
O0 V7 2.039707 1_445
O0 V3 2.059027 1_545
O0 V1 2.090812 1_455
O0 V8 2.183933 1_556
O1 V0 2.022025 1_555
O1 V6 2.093780 1_555
O1 V2 2.104913 1_555
O1 V9 2.129733 1_555
O2 V9 2.039239 1_555
O2 V5 2.059650 1_555
O2 V1 2.091679 1_555
O2 V6 2.184263 1_555
O3 V0 2.022449 1_655
O3 V8 2.093815 1_665
O3 V4 2.102226 1_565
O3 V7 2.129266 1_554
O4 V4 1.868711 1_555
O4 V2 1.949152 1_555
O5 V5 1.873786 1_555
O5 V3 1.931711 1_555
O6 V2 1.867824 1_555
O6 V4 1.950865 1_555
O7 V3 1.874407 1_555
O7 V5 1.930881 1_555
O8 V9 1.970214 1_555
O8 V1 2.021748 1_555
O8 V6 2.022492 1_655
O8 V2 2.278674 1_555
O9 V7 1.988202 1_554
O9 V0 2.036513 1_555
O9 V8 2.087059 1_565
O9 V3 2.149894 1_554
O10 V7 1.971655 1_545
O10 V1 2.021686 1_555
O10 V8 2.022778 1_556
O10 V4 2.276939 1_556
O11 V9 1.987952 1_455
O11 V0 2.033639 1_555
O11 V6 2.086525 1_555
O11 V5 2.150740 1_555
O12 V8 1.949231 1_656
O12 V1 2.013102 1_555
O12 V4 2.044878 1_556
O13 V9 1.824864 1_555
O13 V0 2.089076 1_555
O13 V5 2.178510 1_555
O14 V6 1.949892 1_555
O14 V1 2.013587 1_555
O14 V2 2.042853 1_555
O15 V7 1.823152 1_454
O15 V0 2.090406 1_555
O15 V3 2.180995 1_554
O16 V2 1.792606 1_455
O16 V6 1.984386 1_555
O17 V3 1.789222 1_555
O17 V7 1.966986 1_555
O18 V4 1.791258 1_555
O18 V8 1.984500 1_555
O19 V5 1.790036 1_655
O19 V9 1.966379 1_555
