# generated using pymatgen
data_TiS2
_symmetry_space_group_name_H-M   'P 1'
_cell_length_a   7.26012444
_cell_length_b   7.26012444
_cell_length_c   7.26012453
_cell_angle_alpha   58.49836880
_cell_angle_beta   58.49836880
_cell_angle_gamma   58.49837154
_symmetry_Int_Tables_number   1
_chemical_formula_structural   TiS2
_chemical_formula_sum   'Ti4 S8'
_cell_volume   261.29814028
_cell_formula_units_Z   4
loop_
 _symmetry_equiv_pos_site_id
 _symmetry_equiv_pos_as_xyz
  1  'x, y, z'
loop_
 _atom_site_type_symbol
 _atom_site_label
 _atom_site_symmetry_multiplicity
 _atom_site_fract_x
 _atom_site_fract_y
 _atom_site_fract_z
 _atom_site_occupancy
  Ti  Ti0  1  0.37891600  0.37891600  0.37891600  1
  Ti  Ti1  1  0.99167900  0.99167900  0.53421700  1
  Ti  Ti2  1  0.53421700  0.99167900  0.99167900  1
  Ti  Ti3  1  0.99167900  0.53421700  0.99167900  1
  S  S0  1  0.75548300  0.75548300  0.75548300  1
  S  S1  1  0.74669600  0.74669600  0.22815600  1
  S  S2  1  0.22815600  0.74669600  0.74669600  1
  S  S3  1  0.74669600  0.22815600  0.74669600  1
  S  S4  1  0.24249100  0.24249100  0.24249100  1
  S  S5  1  0.24581000  0.24581000  0.76736800  1
  S  S6  1  0.76736800  0.24581000  0.24581000  1
  S  S7  1  0.24581000  0.76736800  0.24581000  1
loop_
_geom_bond_atom_site_label_1
_geom_bond_atom_site_label_2
_geom_bond_distance
_geom_bond_site_symmetry_2
S0 Ti1 2.403580 1_555
S0 Ti3 2.403580 1_555
S0 Ti2 2.403580 1_555
S1 Ti2 2.280351 1_554
S1 Ti3 2.280351 1_554
S2 Ti3 2.280351 1_455
S2 Ti1 2.280351 1_455
S3 Ti2 2.280351 1_545
S3 Ti1 2.280351 1_545
S4 Ti0 2.453297 1_555
S4 Ti1 2.553760 1_445
S4 Ti2 2.553760 1_544
S4 Ti3 2.553760 1_454
S5 Ti0 2.258539 1_555
S5 Ti3 2.612805 1_455
S5 Ti2 2.612805 1_545
S6 Ti0 2.258539 1_555
S6 Ti3 2.612805 1_554
S6 Ti1 2.612805 1_545
S7 Ti0 2.258539 1_555
S7 Ti2 2.612805 1_554
S7 Ti1 2.612805 1_455
