# generated using pymatgen
data_Te4MoW3Se4
_symmetry_space_group_name_H-M   'P 1'
_cell_length_a   3.43778909
_cell_length_b   3.43778909
_cell_length_c   39.16656300
_cell_angle_alpha   90.00000000
_cell_angle_beta   90.00000000
_cell_angle_gamma   120.00002099
_symmetry_Int_Tables_number   1
_chemical_formula_structural   Te4MoW3Se4
_chemical_formula_sum   'Te4 Mo1 W3 Se4'
_cell_volume   400.87083469
_cell_formula_units_Z   1
loop_
 _symmetry_equiv_pos_site_id
 _symmetry_equiv_pos_as_xyz
  1  'x, y, z'
loop_
 _atom_site_type_symbol
 _atom_site_label
 _atom_site_symmetry_multiplicity
 _atom_site_fract_x
 _atom_site_fract_y
 _atom_site_fract_z
 _atom_site_occupancy
  Te  Te0  1  0.33333300  0.66666700  0.04657500  1
  Te  Te1  1  0.33333300  0.66666700  0.42194400  1
  Te  Te2  1  0.33333300  0.66666700  0.14126800  1
  Te  Te3  1  0.33333300  0.66666700  0.51737300  1
  Mo  Mo0  1  0.00000000  0.00000000  0.09391800  1
  W  W0  1  0.00000000  0.00000000  0.46966100  1
  W  W1  1  0.33333300  0.66666700  0.28180000  1
  W  W2  1  0.33333300  0.66666700  0.65754500  1
  Se  Se0  1  0.00000000  0.00000000  0.32376100  1
  Se  Se1  1  0.00000000  0.00000000  0.69948300  1
  Se  Se2  1  0.00000000  0.00000000  0.23984100  1
  Se  Se3  1  0.00000000  0.00000000  0.61557700  1
loop_
_geom_bond_atom_site_label_1
_geom_bond_atom_site_label_2
_geom_bond_distance
_geom_bond_site_symmetry_2
Te1 W0 2.726222 1_565
Te1 W0 2.726224 1_555
Te1 W0 2.726224 1_665
Te3 W0 2.726088 1_565
Te3 W0 2.726089 1_665
Te3 W0 2.726089 1_555
Mo0 Te0 2.716201 1_545
Mo0 Te0 2.716203 1_445
Mo0 Te0 2.716203 1_555
Mo0 Te2 2.716388 1_545
Mo0 Te2 2.716390 1_445
Mo0 Te2 2.716390 1_555
Se0 W1 2.576906 1_545
Se0 W1 2.576908 1_445
Se0 W1 2.576908 1_555
Se1 W2 2.576332 1_545
Se1 W2 2.576333 1_555
Se1 W2 2.576333 1_445
Se2 W1 2.576856 1_545
Se2 W1 2.576858 1_555
Se2 W1 2.576858 1_445
Se3 W2 2.577081 1_545
Se3 W2 2.577083 1_555
Se3 W2 2.577083 1_445
