# generated using pymatgen
data_Ho7Mg3Rh2
_symmetry_space_group_name_H-M   'P 1'
_cell_length_a   9.58827835
_cell_length_b   9.58827835
_cell_length_c   9.62914922
_cell_angle_alpha   60.00407601
_cell_angle_beta   60.00407601
_cell_angle_gamma   60.08884854
_symmetry_Int_Tables_number   1
_chemical_formula_structural   Ho7Mg3Rh2
_chemical_formula_sum   'Ho14 Mg6 Rh4'
_cell_volume   626.42884010
_cell_formula_units_Z   2
loop_
 _symmetry_equiv_pos_site_id
 _symmetry_equiv_pos_as_xyz
  1  'x, y, z'
loop_
 _atom_site_type_symbol
 _atom_site_label
 _atom_site_symmetry_multiplicity
 _atom_site_fract_x
 _atom_site_fract_y
 _atom_site_fract_z
 _atom_site_occupancy
  Ho  Ho0  1  0.65247700  0.65247700  0.65421500  1
  Ho  Ho1  1  0.65277800  0.03959700  0.65625900  1
  Ho  Ho2  1  0.03959700  0.65277800  0.65625900  1
  Ho  Ho3  1  0.65419100  0.65419100  0.04095500  1
  Ho  Ho4  1  0.43557800  0.43557800  0.06089400  1
  Ho  Ho5  1  0.06300800  0.43640800  0.43644000  1
  Ho  Ho6  1  0.43640800  0.06300800  0.43644000  1
  Ho  Ho7  1  0.06542500  0.06542500  0.43366600  1
  Ho  Ho8  1  0.81057800  0.81057800  0.18820500  1
  Ho  Ho9  1  0.18821600  0.81135200  0.81102800  1
  Ho  Ho10  1  0.81135200  0.18821600  0.81102800  1
  Ho  Ho11  1  0.18956400  0.18956400  0.81256700  1
  Ho  Ho12  1  0.81050200  0.18993000  0.18942000  1
  Ho  Ho13  1  0.18993000  0.81050200  0.18942000  1
  Mg  Mg0  1  0.42040400  0.42040400  0.41927400  1
  Mg  Mg1  1  0.42040100  0.74214000  0.41628400  1
  Mg  Mg2  1  0.74214000  0.42040100  0.41628400  1
  Mg  Mg3  1  0.41671800  0.41671800  0.74610800  1
  Mg  Mg4  1  0.43648900  0.06397400  0.06525300  1
  Mg  Mg5  1  0.06397400  0.43648900  0.06525300  1
  Rh  Rh0  1  0.86003200  0.86003200  0.85626300  1
  Rh  Rh1  1  0.85667000  0.42300500  0.85840700  1
  Rh  Rh2  1  0.42300500  0.85667000  0.85840700  1
  Rh  Rh3  1  0.86056400  0.86056400  0.42167000  1
loop_
_geom_bond_atom_site_label_1
_geom_bond_atom_site_label_2
_geom_bond_distance
_geom_bond_site_symmetry_2
Ho0 Rh2 2.787023 1_555
Ho0 Rh1 2.787023 1_555
Ho0 Rh3 2.830470 1_555
Ho0 Ho4 3.465910 1_556
Ho0 Mg3 3.478385 1_555
Ho0 Ho5 3.484435 1_655
Ho0 Ho6 3.484435 1_565
Ho0 Mg1 3.487097 1_555
Ho0 Mg2 3.487097 1_555
Ho1 Rh0 2.778723 1_545
Ho1 Rh2 2.805580 1_545
Ho1 Rh3 2.825800 1_545
Ho1 Mg3 3.457489 1_555
Ho1 Mg2 3.479900 1_555
Ho1 Mg4 3.483678 1_556
Ho1 Mg0 3.484643 1_555
Ho1 Ho7 3.503848 1_655
Ho1 Ho6 3.505129 1_555
Ho2 Rh0 2.778723 1_455
Ho2 Rh1 2.805580 1_455
Ho2 Rh3 2.825800 1_455
Ho2 Mg3 3.457489 1_555
Ho2 Mg1 3.479900 1_555
Ho2 Mg5 3.483678 1_556
Ho2 Mg0 3.484643 1_555
Ho2 Ho7 3.503848 1_565
Ho2 Ho5 3.505129 1_555
Ho3 Rh0 2.796281 1_554
Ho3 Rh2 2.822128 1_554
Ho3 Rh1 2.822128 1_554
Ho3 Mg2 3.443739 1_555
Ho3 Mg1 3.443739 1_555
Ho3 Mg0 3.464355 1_555
Ho3 Mg5 3.478674 1_655
Ho3 Mg4 3.478674 1_565
Ho3 Ho4 3.521569 1_555
Ho4 Mg3 3.222087 1_554
Ho4 Mg0 3.311810 1_555
Ho4 Rh1 3.463553 1_554
Ho4 Rh2 3.463553 1_554
Ho4 Mg5 3.537924 1_555
Ho4 Mg4 3.537924 1_555
Ho4 Ho9 3.593231 1_554
Ho4 Ho6 3.594737 1_555
Ho4 Ho5 3.594737 1_555
Ho5 Mg2 3.259489 1_455
Ho5 Mg0 3.275435 1_555
Ho5 Rh1 3.483374 1_455
Ho5 Rh3 3.486055 1_455
Ho5 Ho7 3.558974 1_555
Ho5 Mg5 3.569206 1_555
Ho5 Ho6 3.585070 1_555
Ho5 Ho8 3.604581 1_455
Ho6 Mg1 3.259489 1_545
Ho6 Mg0 3.275435 1_555
Ho6 Rh2 3.483374 1_545
Ho6 Rh3 3.486055 1_545
Ho6 Ho7 3.558974 1_555
Ho6 Mg4 3.569206 1_555
Ho6 Ho9 3.596871 1_545
Ho6 Ho8 3.604581 1_545
Ho7 Mg1 3.263153 1_545
Ho7 Mg2 3.263153 1_455
Ho7 Rh3 3.468676 1_445
Ho7 Rh0 3.486813 1_445
Ho7 Mg4 3.552939 1_555
Ho7 Mg5 3.552939 1_555
Ho7 Ho9 3.618092 1_545
Ho8 Rh0 2.803481 1_554
Ho8 Rh3 2.810154 1_555
Ho8 Mg1 3.470164 1_555
Ho8 Mg2 3.470164 1_555
Ho8 Mg4 3.584547 1_565
Ho8 Mg5 3.584547 1_655
Ho9 Rh2 2.768693 1_555
Ho9 Rh0 2.770820 1_455
Ho9 Mg3 3.498045 1_555
Ho9 Mg1 3.525939 1_555
Ho9 Mg5 3.589902 1_556
Ho10 Rh1 2.768693 1_555
Ho10 Rh0 2.770820 1_545
Ho10 Mg3 3.498045 1_555
Ho10 Mg2 3.525939 1_555
Ho10 Mg4 3.589902 1_556
Ho10 Ho4 3.593231 1_556
Ho10 Ho5 3.596871 1_655
Ho10 Ho7 3.618092 1_655
Ho11 Rh1 2.801226 1_455
Ho11 Rh2 2.801226 1_545
Ho11 Mg3 3.441042 1_555
Ho11 Mg0 3.501914 1_555
Ho11 Mg4 3.600384 1_556
Ho11 Mg5 3.600384 1_556
Ho11 Ho5 3.626374 1_555
Ho11 Ho6 3.626374 1_555
Ho12 Rh3 2.775766 1_545
Ho12 Rh1 2.793419 1_554
Ho12 Mg2 3.469222 1_555
Ho12 Mg0 3.484532 1_555
Ho12 Mg5 3.594928 1_655
Ho12 Ho6 3.596252 1_555
Ho12 Ho7 3.600204 1_655
Ho12 Ho4 3.618267 1_555
Ho13 Rh3 2.775766 1_455
Ho13 Rh2 2.793419 1_554
Ho13 Mg1 3.469222 1_555
Ho13 Mg0 3.484532 1_555
Ho13 Mg4 3.594928 1_565
Ho13 Ho5 3.596252 1_555
Ho13 Ho7 3.600204 1_565
Ho13 Ho4 3.618267 1_555
Mg0 Mg2 3.070587 1_555
Mg0 Mg1 3.070587 1_555
Mg0 Mg3 3.112196 1_555
Mg1 Mg2 3.089065 1_555
Mg1 Mg3 3.148485 1_555
Mg1 Mg4 3.239691 1_565
Mg2 Mg3 3.148485 1_555
Mg2 Mg5 3.239691 1_655
Mg3 Mg4 3.235686 1_556
Mg3 Mg5 3.235686 1_556
Mg4 Rh0 3.494142 1_544
Mg4 Rh2 3.522351 1_544
Mg4 Mg5 3.576573 1_555
Mg5 Rh0 3.494142 1_454
Mg5 Rh1 3.522351 1_454
