# generated using pymatgen
data_Ba3TaFe3(SiO7)2
_symmetry_space_group_name_H-M   'P 1'
_cell_length_a   8.66028628
_cell_length_b   8.66028628
_cell_length_c   5.31484900
_cell_angle_alpha   90.00000000
_cell_angle_beta   90.00000000
_cell_angle_gamma   120.00000212
_symmetry_Int_Tables_number   1
_chemical_formula_structural   Ba3TaFe3(SiO7)2
_chemical_formula_sum   'Ba3 Ta1 Fe3 Si2 O14'
_cell_volume   345.21213169
_cell_formula_units_Z   1
loop_
 _symmetry_equiv_pos_site_id
 _symmetry_equiv_pos_as_xyz
  1  'x, y, z'
loop_
 _atom_site_type_symbol
 _atom_site_label
 _atom_site_symmetry_multiplicity
 _atom_site_fract_x
 _atom_site_fract_y
 _atom_site_fract_z
 _atom_site_occupancy
  Ba  Ba0  1  0.43340800  0.00000000  0.00000000  1
  Ba  Ba1  1  0.56659200  0.56659200  0.00000000  1
  Ba  Ba2  1  0.00000000  0.43340800  0.00000000  1
  Ta  Ta0  1  0.00000000  0.00000000  0.00000000  1
  Fe  Fe0  1  0.74911700  0.00000000  0.50000000  1
  Fe  Fe1  1  0.25088300  0.25088300  0.50000000  1
  Fe  Fe2  1  0.00000000  0.74911700  0.50000000  1
  Si  Si0  1  0.66666700  0.33333300  0.47800000  1
  Si  Si1  1  0.33333300  0.66666700  0.52200000  1
  O  O0  1  0.66666700  0.33333300  0.78241700  1
  O  O1  1  0.33333300  0.66666700  0.21758300  1
  O  O2  1  0.17753700  0.70270500  0.64563600  1
  O  O3  1  0.52516800  0.82246300  0.64563600  1
  O  O4  1  0.29729500  0.47483200  0.64563600  1
  O  O5  1  0.82246300  0.52516800  0.35436400  1
  O  O6  1  0.70270500  0.17753700  0.35436400  1
  O  O7  1  0.47483200  0.29729500  0.35436400  1
  O  O8  1  0.11507600  0.89996400  0.22335800  1
  O  O9  1  0.78488800  0.88492400  0.22335800  1
  O  O10  1  0.10003600  0.21511200  0.22335800  1
  O  O11  1  0.88492400  0.78488800  0.77664200  1
  O  O12  1  0.89996400  0.11507600  0.77664200  1
  O  O13  1  0.21511200  0.10003600  0.77664200  1
loop_
_geom_bond_atom_site_label_1
_geom_bond_atom_site_label_2
_geom_bond_distance
_geom_bond_site_symmetry_2
Ba0 O8 2.715073 1_545
Ba0 O13 2.715073 1_554
Ba0 O6 2.786476 1_555
Ba0 O3 2.786476 1_544
Ba0 O1 2.814237 1_545
Ba0 O0 2.814238 1_554
Ba0 O2 3.062856 1_544
Ba0 O7 3.062856 1_555
Ba1 O11 2.715073 1_554
Ba1 O9 2.715073 1_555
Ba1 O4 2.786476 1_554
Ba1 O7 2.786476 1_555
Ba1 O0 2.814244 1_554
Ba1 O1 2.814244 1_555
Ba1 O5 3.062856 1_555
Ba1 O3 3.062856 1_554
Ba2 O12 2.715073 1_454
Ba2 O10 2.715073 1_555
Ba2 O2 2.786476 1_554
Ba2 O5 2.786476 1_455
Ba2 O0 2.814237 1_454
Ba2 O1 2.814238 1_555
Ba2 O6 3.062856 1_455
Ba2 O4 3.062856 1_554
Fe0 O12 1.886718 1_555
Fe0 O9 1.886718 1_545
Fe0 O3 1.934593 1_545
Fe0 O6 1.934593 1_555
Fe1 O10 1.886718 1_555
Fe1 O13 1.886718 1_555
Fe1 O7 1.934593 1_555
Fe1 O4 1.934593 1_555
Fe2 O8 1.886718 1_555
Fe2 O11 1.886718 1_455
Fe2 O5 1.934593 1_455
Fe2 O2 1.934593 1_555
O0 Si0 1.617930 1_555
O1 Si1 1.617930 1_555
O2 Si1 1.664552 1_555
O3 Si1 1.664557 1_555
O4 Si1 1.664560 1_555
O5 Si0 1.664557 1_555
O6 Si0 1.664552 1_555
O7 Si0 1.664560 1_555
O8 Ta0 2.004087 1_565
O9 Ta0 2.004087 1_665
O10 Ta0 2.004087 1_555
O11 Ta0 2.004087 1_666
O12 Ta0 2.004087 1_656
O13 Ta0 2.004087 1_556
