# generated using pymatgen
data_MgTi2S5
_symmetry_space_group_name_H-M   'P 1'
_cell_length_a   3.93251600
_cell_length_b   6.06763000
_cell_length_c   14.80998500
_cell_angle_alpha   90.00000000
_cell_angle_beta   90.00000000
_cell_angle_gamma   90.00000000
_symmetry_Int_Tables_number   1
_chemical_formula_structural   MgTi2S5
_chemical_formula_sum   'Mg2 Ti4 S10'
_cell_volume   353.38182305
_cell_formula_units_Z   2
loop_
 _symmetry_equiv_pos_site_id
 _symmetry_equiv_pos_as_xyz
  1  'x, y, z'
loop_
 _atom_site_type_symbol
 _atom_site_label
 _atom_site_symmetry_multiplicity
 _atom_site_fract_x
 _atom_site_fract_y
 _atom_site_fract_z
 _atom_site_occupancy
  Mg  Mg0  1  0.50000000  0.59684600  0.00000000  1
  Mg  Mg1  1  0.00000000  0.40315400  0.50000000  1
  Ti  Ti0  1  0.00000000  0.06818400  0.84919200  1
  Ti  Ti1  1  0.50000000  0.93181600  0.65080800  1
  Ti  Ti2  1  0.50000000  0.93181600  0.34919200  1
  Ti  Ti3  1  0.00000000  0.06818400  0.15080800  1
  S  S0  1  0.50000000  0.09173400  0.50000000  1
  S  S1  1  0.00000000  0.90826600  0.00000000  1
  S  S2  1  0.50000000  0.86413700  0.81796000  1
  S  S3  1  0.00000000  0.13586300  0.68204000  1
  S  S4  1  0.50000000  0.86413700  0.18204000  1
  S  S5  1  0.00000000  0.13586300  0.31796000  1
  S  S6  1  0.00000000  0.41449800  0.10796400  1
  S  S7  1  0.50000000  0.58550200  0.39203600  1
  S  S8  1  0.50000000  0.58550200  0.60796400  1
  S  S9  1  0.00000000  0.41449800  0.89203600  1
loop_
_geom_bond_atom_site_label_1
_geom_bond_atom_site_label_2
_geom_bond_distance
_geom_bond_site_symmetry_2
Mg0 S1 2.727029 1_555
Mg0 S1 2.727029 1_655
Mg0 S9 2.765314 1_554
Mg0 S9 2.765314 1_654
Mg0 S6 2.765314 1_555
Mg0 S6 2.765314 1_655
Mg1 S0 2.727029 1_455
Mg1 S0 2.727029 1_555
Mg1 S8 2.765314 1_455
Mg1 S8 2.765314 1_555
Mg1 S7 2.765314 1_455
Mg1 S7 2.765314 1_555
S0 Ti2 2.435136 1_545
S0 Ti1 2.435136 1_545
S1 Ti3 2.435136 1_565
S1 Ti0 2.435136 1_564
S2 Ti0 2.369170 1_565
S2 Ti0 2.369170 1_665
S2 Ti1 2.509348 1_555
S3 Ti1 2.369170 1_445
S3 Ti1 2.369170 1_545
S3 Ti0 2.509348 1_555
S4 Ti3 2.369170 1_565
S4 Ti3 2.369170 1_665
S4 Ti2 2.509348 1_555
S5 Ti2 2.369170 1_545
S5 Ti2 2.369170 1_445
S5 Ti3 2.509348 1_555
S6 Ti3 2.195017 1_555
S7 Ti2 2.195017 1_555
S8 Ti1 2.195017 1_555
S9 Ti0 2.195017 1_555
