# generated using pymatgen
data_Ni2P2O7
_symmetry_space_group_name_H-M   'P 1'
_cell_length_a   5.20790953
_cell_length_b   5.20790132
_cell_length_c   8.90171574
_cell_angle_alpha   97.75027405
_cell_angle_beta   97.75010881
_cell_angle_gamma   104.16775952
_symmetry_Int_Tables_number   1
_chemical_formula_structural   Ni2P2O7
_chemical_formula_sum   'Ni4 P4 O14'
_cell_volume   228.38483067
_cell_formula_units_Z   2
loop_
 _symmetry_equiv_pos_site_id
 _symmetry_equiv_pos_as_xyz
  1  'x, y, z'
loop_
 _atom_site_type_symbol
 _atom_site_label
 _atom_site_symmetry_multiplicity
 _atom_site_fract_x
 _atom_site_fract_y
 _atom_site_fract_z
 _atom_site_occupancy
  Ni  Ni0  1  0.31331824  0.68666846  0.75000351  1
  Ni  Ni1  1  0.68668176  0.31334022  0.24999431  1
  Ni  Ni2  1  0.31331815  0.68666873  0.25000352  1
  Ni  Ni3  1  0.68668193  0.31333981  0.74999436  1
  P  P0  1  0.22090045  0.22089031  0.45393381  1
  P  P1  1  0.22090099  0.22089128  0.95393446  1
  P  P2  1  0.77910160  0.77910629  0.04606647  1
  P  P3  1  0.77910079  0.77910697  0.54606537  1
  O  O0  1  -0.00000173  -0.00000035  0.50000121  1
  O  O1  1  -0.00000051  0.00000111  0.00000103  1
  O  O2  1  0.37991276  0.37992428  0.10878338  1
  O  O3  1  0.37991311  0.37992445  0.60878390  1
  O  O4  1  0.62009199  0.62007331  0.39121711  1
  O  O5  1  0.62009275  0.62007348  0.89121627  1
  O  O6  1  0.92444433  0.61548671  0.13870596  1
  O  O7  1  0.92444511  0.61548542  0.63870675  1
  O  O8  1  0.38452438  0.07553704  0.36130665  1
  O  O9  1  0.38452455  0.07553669  0.86130659  1
  O  O10  1  0.07555726  0.38451489  0.36129467  1
  O  O11  1  0.07555727  0.38451477  0.86129456  1
  O  O12  1  0.61547000  0.92445714  0.13869291  1
  O  O13  1  0.61546982  0.92445700  0.63869318  1
loop_
_geom_bond_atom_site_label_1
_geom_bond_atom_site_label_2
_geom_bond_distance
_geom_bond_site_symmetry_2
Ni0 O3 2.024779 1_555
Ni0 O5 2.024870 1_555
Ni0 O9 2.052473 1_565
Ni0 O7 2.052498 1_455
Ni0 O11 2.188227 1_555
Ni0 O13 2.188393 1_555
Ni1 O4 2.024740 1_555
Ni1 O2 2.024814 1_555
Ni1 O10 2.052525 1_655
Ni1 O12 2.052533 1_545
Ni1 O6 2.188192 1_555
Ni1 O8 2.188458 1_555
Ni2 O2 2.024782 1_555
Ni2 O4 2.024872 1_555
Ni2 O8 2.052474 1_565
Ni2 O6 2.052504 1_455
Ni2 O10 2.188228 1_555
Ni2 O12 2.188395 1_555
Ni3 O5 2.024736 1_555
Ni3 O3 2.024813 1_555
Ni3 O11 2.052523 1_655
Ni3 O13 2.052531 1_545
Ni3 O7 2.188186 1_555
Ni3 O9 2.188457 1_555
O0 P3 1.556147 1_445
O0 P0 1.556168 1_555
O1 P2 1.556160 1_445
O1 P1 1.556161 1_554
O2 P1 1.523238 1_554
O3 P0 1.523249 1_555
O4 P3 1.523230 1_555
O5 P2 1.523242 1_556
O6 P2 1.521843 1_555
O7 P3 1.521865 1_555
O8 P0 1.521828 1_555
O9 P1 1.521834 1_555
O10 P0 1.521862 1_555
O11 P1 1.521863 1_555
O12 P2 1.521848 1_555
O13 P3 1.521850 1_555
