# generated using pymatgen
data_Ba3BiAs
_symmetry_space_group_name_H-M   'P 1'
_cell_length_a   6.24772800
_cell_length_b   6.24772800
_cell_length_c   6.24772800
_cell_angle_alpha   90.00000000
_cell_angle_beta   90.00000000
_cell_angle_gamma   90.00000000
_symmetry_Int_Tables_number   1
_chemical_formula_structural   Ba3BiAs
_chemical_formula_sum   'Ba3 Bi1 As1'
_cell_volume   243.87447178
_cell_formula_units_Z   1
loop_
 _symmetry_equiv_pos_site_id
 _symmetry_equiv_pos_as_xyz
  1  'x, y, z'
loop_
 _atom_site_type_symbol
 _atom_site_label
 _atom_site_symmetry_multiplicity
 _atom_site_fract_x
 _atom_site_fract_y
 _atom_site_fract_z
 _atom_site_occupancy
  Ba  Ba0  1  0.00000000  0.50000000  0.50000000  1
  Ba  Ba1  1  0.50000000  0.00000000  0.50000000  1
  Ba  Ba2  1  0.50000000  0.50000000  0.00000000  1
  Bi  Bi0  1  0.00000000  0.00000000  0.00000000  1
  As  As0  1  0.50000000  0.50000000  0.50000000  1
loop_
_geom_bond_atom_site_label_1
_geom_bond_atom_site_label_2
_geom_bond_distance
_geom_bond_site_symmetry_2
As0 Ba1 3.123864 1_565
As0 Ba2 3.123864 1_556
As0 Ba2 3.123864 1_555
As0 Ba1 3.123864 1_555
As0 Ba0 3.123864 1_655
As0 Ba0 3.123864 1_555
