# generated using pymatgen
data_Rb3P6N11
_symmetry_space_group_name_H-M   'P 1'
_cell_length_a   10.50594843
_cell_length_b   10.50594843
_cell_length_c   10.50594843
_cell_angle_alpha   90.00000000
_cell_angle_beta   90.00000000
_cell_angle_gamma   90.00000000
_symmetry_Int_Tables_number   1
_chemical_formula_structural   Rb3P6N11
_chemical_formula_sum   'Rb12 P24 N44'
_cell_volume   1159.59355802
_cell_formula_units_Z   4
loop_
 _symmetry_equiv_pos_site_id
 _symmetry_equiv_pos_as_xyz
  1  'x, y, z'
loop_
 _atom_site_type_symbol
 _atom_site_label
 _atom_site_symmetry_multiplicity
 _atom_site_fract_x
 _atom_site_fract_y
 _atom_site_fract_z
 _atom_site_occupancy
  Rb  Rb0  1  0.98739291  0.98739291  0.98739291  1
  Rb  Rb1  1  0.23739291  0.26260709  0.73739291  1
  Rb  Rb2  1  0.26260709  0.73739291  0.23739291  1
  Rb  Rb3  1  0.73739291  0.23739291  0.26260709  1
  Rb  Rb4  1  0.48739291  0.51260709  0.01260709  1
  Rb  Rb5  1  0.51260709  0.01260709  0.48739291  1
  Rb  Rb6  1  0.01260709  0.48739291  0.51260709  1
  Rb  Rb7  1  0.76260709  0.76260709  0.76260709  1
  Rb  Rb8  1  0.87500000  0.12500000  0.62500000  1
  Rb  Rb9  1  0.12500000  0.62500000  0.87500000  1
  Rb  Rb10  1  0.62500000  0.87500000  0.12500000  1
  Rb  Rb11  1  0.37500000  0.37500000  0.37500000  1
  P  P0  1  0.67940538  0.45249651  0.54036646  1
  P  P1  1  0.17940538  0.04750349  0.45963354  1
  P  P2  1  0.45249651  0.54036646  0.67940538  1
  P  P3  1  0.54750349  0.04036646  0.82059462  1
  P  P4  1  0.54036646  0.67940538  0.45249651  1
  P  P5  1  0.95963354  0.32059462  0.95249651  1
  P  P6  1  0.42940538  0.79036646  0.79750349  1
  P  P7  1  0.92940538  0.70963354  0.20249651  1
  P  P8  1  0.57059462  0.29036646  0.70249651  1
  P  P9  1  0.70963354  0.20249651  0.92940538  1
  P  P10  1  0.70249651  0.57059462  0.29036646  1
  P  P11  1  0.20249651  0.92940538  0.70963354  1
  P  P12  1  0.79036646  0.79750349  0.42940538  1
  P  P13  1  0.79750349  0.42940538  0.79036646  1
  P  P14  1  0.29036646  0.70249651  0.57059462  1
  P  P15  1  0.20963354  0.29750349  0.07059462  1
  P  P16  1  0.29750349  0.07059462  0.20963354  1
  P  P17  1  0.45963354  0.17940538  0.04750349  1
  P  P18  1  0.04036646  0.82059462  0.54750349  1
  P  P19  1  0.95249651  0.95963354  0.32059462  1
  P  P20  1  0.04750349  0.45963354  0.17940538  1
  P  P21  1  0.82059462  0.54750349  0.04036646  1
  P  P22  1  0.32059462  0.95249651  0.95963354  1
  P  P23  1  0.07059462  0.20963354  0.29750349  1
  N  N0  1  0.55065457  0.55065457  0.55065457  1
  N  N1  1  0.80065457  0.69934543  0.30065457  1
  N  N2  1  0.69934543  0.30065457  0.80065457  1
  N  N3  1  0.30065457  0.80065457  0.69934543  1
  N  N4  1  0.05065457  0.94934543  0.44934543  1
  N  N5  1  0.94934543  0.44934543  0.05065457  1
  N  N6  1  0.44934543  0.05065457  0.94934543  1
  N  N7  1  0.19934543  0.19934543  0.19934543  1
  N  N8  1  0.62500000  0.30857260  0.55857260  1
  N  N9  1  0.69142740  0.05857260  0.87500000  1
  N  N10  1  0.55857260  0.62500000  0.30857260  1
  N  N11  1  0.94142740  0.37500000  0.80857260  1
  N  N12  1  0.30857260  0.55857260  0.62500000  1
  N  N13  1  0.44142740  0.12500000  0.19142740  1
  N  N14  1  0.05857260  0.87500000  0.69142740  1
  N  N15  1  0.80857260  0.94142740  0.37500000  1
  N  N16  1  0.19142740  0.44142740  0.12500000  1
  N  N17  1  0.87500000  0.69142740  0.05857260  1
  N  N18  1  0.37500000  0.80857260  0.94142740  1
  N  N19  1  0.27654344  0.01126221  0.34671768  1
  N  N20  1  0.12500000  0.19142740  0.44142740  1
  N  N21  1  0.23873779  0.02654344  0.59671768  1
  N  N22  1  0.47345656  0.40328232  0.73873779  1
  N  N23  1  0.52654344  0.90328232  0.76126221  1
  N  N24  1  0.40328232  0.73873779  0.47345656  1
  N  N25  1  0.09671768  0.26126221  0.97345656  1
  N  N26  1  0.48873779  0.65328232  0.77654344  1
  N  N27  1  0.98873779  0.84671768  0.22345656  1
  N  N28  1  0.51126221  0.15328232  0.72345656  1
  N  N29  1  0.84671768  0.22345656  0.98873779  1
  N  N30  1  0.72345656  0.51126221  0.15328232  1
  N  N31  1  0.22345656  0.98873779  0.84671768  1
  N  N32  1  0.65328232  0.77654344  0.48873779  1
  N  N33  1  0.77654344  0.48873779  0.65328232  1
  N  N34  1  0.15328232  0.72345656  0.51126221  1
  N  N35  1  0.34671768  0.27654344  0.01126221  1
  N  N36  1  0.01126221  0.34671768  0.27654344  1
  N  N37  1  0.26126221  0.97345656  0.09671768  1
  N  N38  1  0.76126221  0.52654344  0.90328232  1
  N  N39  1  0.02654344  0.59671768  0.23873779  1
  N  N40  1  0.97345656  0.09671768  0.26126221  1
  N  N41  1  0.90328232  0.76126221  0.52654344  1
  N  N42  1  0.59671768  0.23873779  0.02654344  1
  N  N43  1  0.73873779  0.47345656  0.40328232  1
loop_
_geom_bond_atom_site_label_1
_geom_bond_atom_site_label_2
_geom_bond_distance
_geom_bond_site_symmetry_2
N0 P0 1.704349 1_555
N0 P4 1.704349 1_555
N0 P2 1.704349 1_555
N0 Rb11 3.196357 1_555
N1 P12 1.704349 1_555
N1 P7 1.704349 1_555
N1 P10 1.704349 1_555
N1 Rb10 3.196357 1_555
N2 P13 1.704349 1_555
N2 P9 1.704349 1_555
N2 P8 1.704349 1_555
N2 Rb8 3.196357 1_555
N3 P6 1.704349 1_555
N3 P11 1.704349 1_555
N3 P14 1.704349 1_555
N3 Rb9 3.196357 1_555
N4 P1 1.704349 1_565
N4 P19 1.704349 1_455
N4 P18 1.704349 1_555
N4 Rb8 3.196357 1_465
N5 P20 1.704349 1_655
N5 P21 1.704349 1_555
N5 P5 1.704349 1_554
N5 Rb9 3.196357 1_654
N6 P17 1.704349 1_556
N6 P3 1.704349 1_555
N6 P22 1.704349 1_545
N6 Rb10 3.196357 1_546
N7 P23 1.704349 1_555
N7 P15 1.704349 1_555
N7 P16 1.704349 1_555
N7 Rb11 3.196357 1_555
N8 P8 1.627761 1_555
N8 P0 1.627761 1_555
N8 Rb8 3.332415 1_555
N8 Rb11 3.332415 1_555
N8 Rb5 3.409084 1_555
N8 Rb3 3.409084 1_555
N9 P3 1.627761 1_555
N9 P9 1.627761 1_555
N9 Rb10 3.332415 1_546
N9 Rb8 3.332415 1_555
N9 Rb7 3.409084 1_545
N9 Rb0 3.409084 1_545
N10 P10 1.627761 1_555
N10 P4 1.627761 1_555
N10 Rb11 3.332415 1_555
N10 Rb10 3.332415 1_555
N10 Rb2 3.409084 1_555
N10 Rb4 3.409084 1_555
N11 P13 1.627761 1_555
N11 P5 1.627761 1_555
N11 Rb8 3.332415 1_555
N11 Rb9 3.332415 1_655
N11 Rb6 3.409084 1_655
N11 Rb1 3.409084 1_655
N12 P14 1.627761 1_555
N12 P2 1.627761 1_555
N12 Rb9 3.332415 1_555
N12 Rb11 3.332415 1_555
N12 Rb1 3.409084 1_555
N12 Rb6 3.409084 1_555
N13 P16 1.627761 1_555
N13 P17 1.627761 1_555
N13 Rb11 3.332415 1_555
N13 Rb10 3.332415 1_545
N13 Rb5 3.409084 1_555
N13 Rb3 3.409084 1_555
N14 P18 1.627761 1_555
N14 P11 1.627761 1_555
N14 Rb8 3.332415 1_465
N14 Rb9 3.332415 1_555
N14 Rb7 3.409084 1_455
N14 Rb0 3.409084 1_455
N15 P12 1.627761 1_555
N15 P19 1.627761 1_555
N15 Rb10 3.332415 1_555
N15 Rb8 3.332415 1_565
N15 Rb5 3.409084 1_565
N15 Rb3 3.409084 1_565
N16 P15 1.627761 1_555
N16 P20 1.627761 1_555
N16 Rb11 3.332415 1_555
N16 Rb9 3.332415 1_554
N16 Rb4 3.409084 1_555
N16 Rb2 3.409084 1_555
N17 P21 1.627761 1_555
N17 P7 1.627761 1_555
N17 Rb9 3.332415 1_654
N17 Rb10 3.332415 1_555
N17 Rb7 3.409084 1_554
N17 Rb0 3.409084 1_554
N18 P6 1.627761 1_555
N18 P22 1.627761 1_555
N18 Rb9 3.332415 1_555
N18 Rb10 3.332415 1_556
N18 Rb4 3.409084 1_556
N18 Rb2 3.409084 1_556
N19 P16 1.584683 1_555
N19 P1 1.610505 1_555
N19 Rb5 2.887079 1_555
N19 Rb2 3.101489 1_545
N20 P23 1.627761 1_555
N20 P1 1.627761 1_555
N20 Rb11 3.332415 1_555
N20 Rb8 3.332415 1_455
N20 Rb6 3.409084 1_555
N20 Rb1 3.409084 1_555
N21 P1 1.584683 1_555
N21 P11 1.610505 1_545
N21 Rb1 2.887079 1_555
N21 Rb5 3.101489 1_555
N22 P2 1.584683 1_555
N22 P8 1.610505 1_555
N22 Rb1 2.887079 1_555
N22 Rb4 3.101489 1_556
N23 P3 1.584683 1_565
N23 P6 1.610505 1_555
N23 Rb7 2.887079 1_555
N23 Rb5 3.101489 1_565
N24 P4 1.584683 1_555
N24 P14 1.610505 1_555
N24 Rb2 2.887079 1_555
N24 Rb5 3.101489 1_565
N25 P5 1.584683 1_455
N25 P15 1.610505 1_556
N25 Rb1 2.887079 1_555
N25 Rb0 3.101489 1_445
N26 P6 1.584683 1_555
N26 P2 1.610505 1_555
N26 Rb4 2.887079 1_556
N26 Rb7 3.101489 1_555
N27 P7 1.584683 1_555
N27 P19 1.610505 1_555
N27 Rb0 2.887079 1_554
N27 Rb2 3.101489 1_655
N28 P8 1.584683 1_555
N28 P3 1.610505 1_555
N28 Rb5 2.887079 1_555
N28 Rb1 3.101489 1_555
N29 P9 1.584683 1_555
N29 P5 1.610505 1_555
N29 Rb0 2.887079 1_545
N29 Rb3 3.101489 1_556
N30 P10 1.584683 1_555
N30 P21 1.610505 1_555
N30 Rb4 2.887079 1_555
N30 Rb3 3.101489 1_555
N31 P11 1.584683 1_555
N31 P22 1.610505 1_555
N31 Rb0 2.887079 1_455
N31 Rb1 3.101489 1_565
N32 P12 1.584683 1_555
N32 P4 1.610505 1_555
N32 Rb5 2.887079 1_565
N32 Rb7 3.101489 1_555
N33 P13 1.584683 1_555
N33 P0 1.610505 1_555
N33 Rb6 2.887079 1_655
N33 Rb7 3.101489 1_555
N34 P14 1.584683 1_555
N34 P18 1.610505 1_555
N34 Rb6 2.887079 1_555
N34 Rb2 3.101489 1_555
N35 P15 1.584683 1_555
N35 P17 1.610505 1_555
N35 Rb4 2.887079 1_555
N35 Rb1 3.101489 1_554
N36 P23 1.584683 1_555
N36 P20 1.610505 1_555
N36 Rb6 2.887079 1_555
N36 Rb3 3.101489 1_455
N37 P22 1.584683 1_554
N37 P16 1.610505 1_565
N37 Rb2 2.887079 1_555
N37 Rb0 3.101489 1_454
N38 P21 1.584683 1_556
N38 P13 1.610505 1_555
N38 Rb7 2.887079 1_555
N38 Rb4 3.101489 1_556
N39 P20 1.584683 1_555
N39 P7 1.610505 1_455
N39 Rb2 2.887079 1_555
N39 Rb6 3.101489 1_555
N40 P19 1.584683 1_545
N40 P23 1.610505 1_655
N40 Rb3 2.887079 1_555
N40 Rb0 3.101489 1_544
N41 P18 1.584683 1_655
N41 P12 1.610505 1_555
N41 Rb7 2.887079 1_555
N41 Rb6 3.101489 1_655
N42 P17 1.584683 1_555
N42 P9 1.610505 1_554
N42 Rb3 2.887079 1_555
N42 Rb4 3.101489 1_555
N43 P0 1.584683 1_555
N43 P10 1.610505 1_555
N43 Rb3 2.887079 1_555
N43 Rb6 3.101489 1_655
