# generated using pymatgen
data_Nd6Al5Fe9
_symmetry_space_group_name_H-M   'P 1'
_cell_length_a   8.16411503
_cell_length_b   8.16412488
_cell_length_c   13.27579803
_cell_angle_alpha   107.90467797
_cell_angle_beta   107.90460799
_cell_angle_gamma   90.00963662
_symmetry_Int_Tables_number   1
_chemical_formula_structural   Nd6Al5Fe9
_chemical_formula_sum   'Nd12 Al10 Fe18'
_cell_volume   796.84343294
_cell_formula_units_Z   2
loop_
 _symmetry_equiv_pos_site_id
 _symmetry_equiv_pos_as_xyz
  1  'x, y, z'
loop_
 _atom_site_type_symbol
 _atom_site_label
 _atom_site_symmetry_multiplicity
 _atom_site_fract_x
 _atom_site_fract_y
 _atom_site_fract_z
 _atom_site_occupancy
  Nd  Nd0  1  0.10767359  0.10765975  0.21536950  1
  Nd  Nd1  1  0.89237656  0.89240388  0.78471687  1
  Nd  Nd2  1  0.39238175  0.39234957  0.78469608  1
  Nd  Nd3  1  0.60766662  0.60768114  0.21539231  1
  Nd  Nd4  1  0.35784542  0.85787941  0.38430521  1
  Nd  Nd5  1  0.64216981  0.14213020  0.61573530  1
  Nd  Nd6  1  0.02631957  0.52628718  0.38419763  1
  Nd  Nd7  1  0.52639752  0.35784130  0.38430485  1
  Nd  Nd8  1  0.14213415  0.97358932  0.61573787  1
  Nd  Nd9  1  0.97370276  0.47372961  0.61583932  1
  Nd  Nd10  1  0.47361316  0.64217039  0.61573182  1
  Nd  Nd11  1  0.85787897  0.02643082  0.38431086  1
  Al  Al0  1  0.71285941  0.21284981  0.18879545  1
  Al  Al1  1  0.28719667  0.78719666  0.81129039  1
  Al  Al2  1  0.47606907  0.97607949  0.18897015  1
  Al  Al3  1  0.97591869  0.71281293  0.18894516  1
  Al  Al4  1  0.78721727  0.52412327  0.81112275  1
  Al  Al5  1  0.52396198  0.02396264  0.81109530  1
  Al  Al6  1  0.02410636  0.28720796  0.81111286  1
  Al  Al7  1  0.21280648  0.47591378  0.18894745  1
  Al  Al8  1  0.25001722  0.25000326  0.50003293  1
  Al  Al9  1  0.75001435  0.75002742  0.50004941  1
  Fe  Fe0  1  0.23316306  0.73323397  0.11399558  1
  Fe  Fe1  1  0.76680519  0.26672644  0.88594297  1
  Fe  Fe2  1  0.88057148  0.38049538  0.11359131  1
  Fe  Fe3  1  0.38050368  0.23302598  0.11378835  1
  Fe  Fe4  1  0.26686807  0.11940392  0.88614859  1
  Fe  Fe5  1  0.11940831  0.61947731  0.88635375  1
  Fe  Fe6  1  0.61947896  0.76695328  0.88616151  1
  Fe  Fe7  1  0.73309741  0.88058129  0.11378701  1
  Fe  Fe8  1  -0.00001069  0.49998584  -0.00002834  1
  Fe  Fe9  1  0.49998750  -0.00000769  -0.00002600  1
  Fe  Fe10  1  0.06993085  0.20956649  -0.00020599  1
  Fe  Fe11  1  0.93002115  0.79037889  0.00010281  1
  Fe  Fe12  1  0.79032370  0.07000898  -0.00007757  1
  Fe  Fe13  1  0.42990977  0.70970158  -0.00002276  1
  Fe  Fe14  1  0.20962817  0.92995325  -0.00002587  1
  Fe  Fe15  1  0.57003609  0.29025109  -0.00008097  1
  Fe  Fe16  1  0.70963823  0.56995853  -0.00020060  1
  Fe  Fe17  1  0.29031070  0.42997668  0.00009678  1
loop_
_geom_bond_atom_site_label_1
_geom_bond_atom_site_label_2
_geom_bond_distance
_geom_bond_site_symmetry_2
Nd0 Nd6 3.653982 1_555
Nd0 Nd7 3.654441 1_555
Nd0 Nd11 3.654513 1_455
Nd0 Nd4 3.654720 1_545
Nd1 Nd9 3.654434 1_555
Nd1 Nd8 3.654576 1_655
Nd1 Nd5 3.654870 1_565
Nd1 Nd10 3.654940 1_555
Nd2 Nd9 3.654521 1_455
Nd2 Nd8 3.654910 1_545
Nd2 Nd5 3.655112 1_555
Nd3 Nd6 3.654143 1_655
Nd3 Nd7 3.654591 1_555
Nd3 Nd4 3.654860 1_555
Nd4 Nd5 3.382670 1_565
Nd4 Nd6 3.827175 1_555
Nd4 Nd8 3.869975 1_555
Nd5 Nd9 3.827278 1_555
Nd5 Nd7 3.869953 1_555
Nd6 Nd9 3.383668 1_455
Nd6 Nd8 3.871475 1_555
Nd7 Nd9 3.871460 1_555
Nd10 Nd7 3.382732 1_555
Nd10 Nd2 3.654938 1_555
Nd10 Nd8 3.827168 1_555
Nd10 Nd4 3.869897 1_555
Nd10 Nd6 3.871392 1_555
Nd11 Nd8 3.382678 1_645
Nd11 Nd3 3.654658 1_545
Nd11 Nd7 3.827134 1_555
Nd11 Nd5 3.869869 1_555
Nd11 Nd9 3.871389 1_555
Al0 Fe2 2.534749 1_555
Al0 Fe7 2.611118 1_545
Al0 Fe3 2.611680 1_555
Al0 Fe9 2.639297 1_555
Al0 Fe15 2.687599 1_555
Al0 Fe12 2.687847 1_555
Al0 Al2 2.734600 1_545
Al0 Nd0 3.277150 1_655
Al0 Nd3 3.277258 1_555
Al0 Nd11 3.315927 1_555
Al0 Nd7 3.316077 1_555
Al0 Nd6 3.414826 1_655
Al1 Fe5 2.534203 1_555
Al1 Fe4 2.610629 1_565
Al1 Fe6 2.611080 1_555
Al1 Fe9 2.637873 1_566
Al1 Fe13 2.685672 1_556
Al1 Fe14 2.686000 1_556
Al1 Al5 2.734548 1_565
Al1 Nd1 3.277238 1_455
Al1 Nd2 3.277365 1_555
Al1 Nd8 3.316219 1_555
Al1 Nd10 3.316382 1_555
Al1 Nd9 3.415287 1_455
Al2 Fe0 2.534928 1_555
Al2 Fe3 2.610474 1_565
Al2 Fe7 2.610996 1_555
Al2 Fe9 2.640858 1_565
Al2 Fe13 2.688881 1_555
Al2 Fe14 2.689216 1_555
Al2 Nd0 3.277245 1_565
Al2 Nd3 3.277399 1_555
Al2 Nd7 3.313994 1_565
Al2 Nd11 3.314283 1_565
Al2 Nd4 3.415409 1_555
Al3 Fe7 2.535073 1_555
Al3 Fe0 2.610622 1_655
Al3 Fe2 2.611355 1_555
Al3 Fe8 2.640948 1_655
Al3 Fe11 2.687986 1_555
Al3 Fe16 2.689538 1_555
Al3 Al7 2.735357 1_655
Al3 Nd3 3.276003 1_555
Al3 Nd0 3.277662 1_665
Al3 Nd6 3.313448 1_655
Al3 Nd4 3.315029 1_655
Al3 Nd11 3.415527 1_565
Al4 Fe6 2.534451 1_555
Al4 Fe5 2.610458 1_655
Al4 Fe1 2.610647 1_555
Al4 Fe8 2.639710 1_656
Al4 Fe16 2.685998 1_556
Al4 Fe11 2.688159 1_556
Al4 Al6 2.735458 1_655
Al4 Nd1 3.276037 1_555
Al4 Nd2 3.277607 1_555
Al4 Nd9 3.313585 1_555
Al4 Nd5 3.315530 1_555
Al4 Nd10 3.415709 1_555
Al5 Fe1 2.534297 1_555
Al5 Fe6 2.610050 1_545
Al5 Fe4 2.610479 1_555
Al5 Fe9 2.639645 1_556
Al5 Fe15 2.687162 1_556
Al5 Fe12 2.687537 1_556
Al5 Nd2 3.277181 1_555
Al5 Nd1 3.277261 1_545
Al5 Nd10 3.314323 1_545
Al5 Nd8 3.314466 1_545
Al5 Nd5 3.415514 1_555
Al6 Fe4 2.534425 1_555
Al6 Fe1 2.610111 1_455
Al6 Fe5 2.610969 1_555
Al6 Fe8 2.639766 1_556
Al6 Fe10 2.686337 1_556
Al6 Fe17 2.687926 1_556
Al6 Nd2 3.276019 1_555
Al6 Nd1 3.277381 1_445
Al6 Nd9 3.313669 1_455
Al6 Nd5 3.315185 1_455
Al6 Nd8 3.415556 1_545
Al7 Fe3 2.535050 1_555
Al7 Fe2 2.610837 1_455
Al7 Fe0 2.611120 1_555
Al7 Fe8 2.640947 1_555
Al7 Fe17 2.687780 1_555
Al7 Fe10 2.689904 1_555
Al7 Nd0 3.275868 1_555
Al7 Nd3 3.277712 1_555
Al7 Nd6 3.313222 1_555
Al7 Nd4 3.315214 1_555
Al7 Nd7 3.415486 1_555
Al8 Nd7 3.345072 1_555
Al8 Nd8 3.345217 1_545
Al8 Nd11 3.345277 1_455
Al8 Nd4 3.345503 1_545
Al8 Nd10 3.345549 1_555
Al8 Nd5 3.345760 1_555
Al8 Nd6 3.345944 1_555
Al8 Nd9 3.346047 1_455
Al8 Nd2 3.403185 1_555
Al8 Nd0 3.403188 1_555
Al9 Nd10 3.344820 1_555
Al9 Nd8 3.345120 1_655
Al9 Nd5 3.345280 1_565
Al9 Nd11 3.345420 1_565
Al9 Nd9 3.345705 1_555
Al9 Nd7 3.345743 1_555
Al9 Nd4 3.345935 1_555
Al9 Nd6 3.346332 1_655
Al9 Nd3 3.403112 1_555
Al9 Nd1 3.403236 1_555
Fe0 Fe8 2.448698 1_555
Fe0 Fe14 2.494741 1_555
Fe0 Fe13 2.494894 1_555
Fe0 Fe11 2.600416 1_455
Fe0 Fe17 2.601180 1_555
Fe0 Fe5 2.721487 1_554
Fe0 Nd4 3.233856 1_555
Fe0 Nd0 3.244151 1_565
Fe0 Nd3 3.244965 1_555
Fe1 Fe8 2.448811 1_656
Fe1 Fe12 2.494308 1_556
Fe1 Fe15 2.494614 1_556
Fe1 Fe10 2.600167 1_656
Fe1 Fe16 2.600884 1_556
Fe1 Fe2 2.721565 1_556
Fe1 Nd5 3.232637 1_555
Fe1 Nd1 3.243325 1_545
Fe1 Nd2 3.244245 1_555
Fe2 Fe8 2.446649 1_655
Fe2 Nd6 3.237389 1_655
Fe2 Nd0 3.246004 1_655
Fe2 Nd3 3.246900 1_555
Fe3 Fe9 2.448169 1_555
Fe3 Fe4 2.721463 1_554
Fe3 Nd7 3.236349 1_555
Fe3 Nd0 3.243834 1_555
Fe3 Nd3 3.246209 1_555
Fe4 Fe9 2.448309 1_556
Fe4 Nd8 3.235085 1_545
Fe4 Nd2 3.243903 1_555
Fe4 Nd1 3.244644 1_445
Fe5 Fe8 2.446640 1_556
Fe5 Nd9 3.236292 1_455
Fe5 Nd1 3.245507 1_455
Fe5 Nd2 3.246287 1_555
Fe6 Fe9 2.448219 1_566
Fe6 Fe7 2.721293 1_556
Fe6 Nd10 3.235313 1_555
Fe6 Nd1 3.243277 1_555
Fe6 Nd2 3.245721 1_555
Fe7 Fe9 2.448178 1_565
Fe7 Nd11 3.236434 1_565
Fe7 Nd3 3.244768 1_555
Fe7 Nd0 3.245391 1_665
Fe10 Fe8 2.438368 1_555
Fe10 Fe4 2.492441 1_554
Fe10 Fe3 2.493637 1_555
Fe10 Fe17 2.542680 1_555
Fe10 Fe12 2.551821 1_455
Fe10 Fe14 2.552347 1_545
Fe10 Fe2 2.600039 1_455
Fe10 Nd1 3.141129 1_444
Fe10 Nd0 3.146382 1_555
Fe11 Fe8 2.438350 1_655
Fe11 Fe7 2.492752 1_555
Fe11 Fe6 2.493269 1_554
Fe11 Fe16 2.542752 1_555
Fe11 Fe14 2.551883 1_655
Fe11 Fe12 2.552471 1_565
Fe11 Fe5 2.599751 1_654
Fe11 Nd0 3.143094 1_665
Fe11 Nd1 3.144636 1_554
Fe12 Fe9 2.438451 1_555
Fe12 Fe2 2.491842 1_555
Fe12 Fe15 2.543350 1_555
Fe12 Fe6 2.598846 1_544
Fe12 Fe7 2.601243 1_545
Fe12 Nd1 3.142623 1_544
Fe12 Nd0 3.144955 1_655
Fe13 Fe9 2.437971 1_565
Fe13 Fe5 2.491801 1_554
Fe13 Fe14 2.543370 1_555
Fe13 Fe17 2.552786 1_555
Fe13 Fe16 2.553350 1_555
Fe13 Fe7 2.599860 1_555
Fe13 Fe6 2.601678 1_554
Fe13 Nd2 3.143767 1_554
Fe13 Nd3 3.145068 1_555
Fe14 Fe9 2.438424 1_565
Fe14 Fe5 2.491616 1_554
Fe14 Fe3 2.599131 1_565
Fe14 Fe4 2.601003 1_564
Fe14 Nd1 3.143091 1_454
Fe14 Nd0 3.144476 1_565
Fe15 Fe9 2.437917 1_555
Fe15 Fe2 2.492179 1_555
Fe15 Fe16 2.552670 1_555
Fe15 Fe17 2.553263 1_555
Fe15 Fe4 2.599577 1_554
Fe15 Fe3 2.601950 1_555
Fe15 Nd2 3.143098 1_554
Fe15 Nd3 3.145558 1_555
Fe16 Fe8 2.437900 1_655
Fe16 Fe6 2.492760 1_554
Fe16 Fe7 2.493952 1_555
Fe16 Fe2 2.600667 1_555
Fe16 Nd2 3.141806 1_554
Fe16 Nd3 3.146921 1_555
Fe17 Fe8 2.437875 1_555
Fe17 Fe3 2.492999 1_555
Fe17 Fe4 2.493487 1_554
Fe17 Fe5 2.600425 1_554
Fe17 Nd3 3.143701 1_555
Fe17 Nd2 3.145053 1_554
