# generated using pymatgen
data_Yb(FeO2)2
_symmetry_space_group_name_H-M   'P 1'
_cell_length_a   3.46771127
_cell_length_b   3.46771127
_cell_length_c   8.78858159
_cell_angle_alpha   78.62177251
_cell_angle_beta   78.62177251
_cell_angle_gamma   60.00001386
_symmetry_Int_Tables_number   1
_chemical_formula_structural   Yb(FeO2)2
_chemical_formula_sum   'Yb1 Fe2 O4'
_cell_volume   89.11761260
_cell_formula_units_Z   1
loop_
 _symmetry_equiv_pos_site_id
 _symmetry_equiv_pos_as_xyz
  1  'x, y, z'
loop_
 _atom_site_type_symbol
 _atom_site_label
 _atom_site_symmetry_multiplicity
 _atom_site_fract_x
 _atom_site_fract_y
 _atom_site_fract_z
 _atom_site_occupancy
  Yb  Yb0  1  0.00000000  0.00000000  0.00000000  1
  Fe  Fe0  1  0.78316700  0.78316700  0.65049900  1
  Fe  Fe1  1  0.21683300  0.21683300  0.34950100  1
  O  O0  1  0.86885200  0.86885200  0.39344400  1
  O  O1  1  0.13114800  0.13114800  0.60655600  1
  O  O2  1  0.71235900  0.71235900  0.86292300  1
  O  O3  1  0.28764100  0.28764100  0.13707700  1
loop_
_geom_bond_atom_site_label_1
_geom_bond_atom_site_label_2
_geom_bond_distance
_geom_bond_site_symmetry_2
Fe0 O2 1.817819 1_555
Fe0 O1 2.037093 1_665
Fe0 O1 2.037093 1_655
Fe0 O1 2.037093 1_565
Fe0 O0 2.199749 1_555
Fe1 O3 1.817819 1_555
Fe1 O0 2.037093 1_445
Fe1 O0 2.037093 1_545
Fe1 O0 2.037093 1_455
Fe1 O1 2.199749 1_555
O2 Yb0 2.320421 1_666
O2 Yb0 2.320422 1_656
O2 Yb0 2.320422 1_566
O3 Yb0 2.320421 1_555
O3 Yb0 2.320422 1_655
O3 Yb0 2.320422 1_565
