# generated using pymatgen
data_Pm
_symmetry_space_group_name_H-M   'P 1'
_cell_length_a   7.39754536
_cell_length_b   7.39754252
_cell_length_c   18.12369252
_cell_angle_alpha   78.22406010
_cell_angle_beta   101.77593707
_cell_angle_gamma   120.00000653
_symmetry_Int_Tables_number   1
_chemical_formula_structural   Pm
_chemical_formula_sum   Pm24
_cell_volume   834.72901350
_cell_formula_units_Z   24
loop_
 _symmetry_equiv_pos_site_id
 _symmetry_equiv_pos_as_xyz
  1  'x, y, z'
loop_
 _atom_site_type_symbol
 _atom_site_label
 _atom_site_symmetry_multiplicity
 _atom_site_fract_x
 _atom_site_fract_y
 _atom_site_fract_z
 _atom_site_occupancy
  Pm  Pm0_0  1  0.00000000  0.00000000  0.00000000  1
  Pm  Pm0_1  1  0.00000000  0.00000000  0.50000000  1
  Pm  Pm0_2  1  0.00000000  0.50000000  0.00000000  1
  Pm  Pm0_3  1  0.00000000  0.50000000  0.50000000  1
  Pm  Pm0_4  1  0.50000000  1.00000000  0.00000000  1
  Pm  Pm0_5  1  0.50000000  0.00000000  0.50000000  1
  Pm  Pm0_6  1  0.50000000  0.50000000  0.00000000  1
  Pm  Pm0_7  1  0.50000000  0.50000000  0.50000000  1
  Pm  Pm1_0  1  0.38884541  0.11115559  0.16653424  1
  Pm  Pm1_1  1  0.38884541  0.11115559  0.66653424  1
  Pm  Pm1_2  1  0.38884542  0.61115559  0.16653424  1
  Pm  Pm1_3  1  0.38884541  0.61115559  0.66653424  1
  Pm  Pm1_4  1  0.88884541  0.11115558  0.16653424  1
  Pm  Pm1_5  1  0.88884541  0.11115559  0.66653424  1
  Pm  Pm1_6  1  0.88884541  0.61115559  0.16653424  1
  Pm  Pm1_7  1  0.88884542  0.61115559  0.66653424  1
  Pm  Pm2_0  1  0.11115508  0.38884442  0.33346575  1
  Pm  Pm2_1  1  0.11115508  0.38884442  0.83346575  1
  Pm  Pm2_2  1  0.11115508  0.88884442  0.33346575  1
  Pm  Pm2_3  1  0.11115508  0.88884442  0.83346575  1
  Pm  Pm2_4  1  0.61115508  0.38884442  0.33346575  1
  Pm  Pm2_5  1  0.61115508  0.38884442  0.83346575  1
  Pm  Pm2_6  1  0.61115508  0.88884442  0.33346575  1
  Pm  Pm2_7  1  0.61115508  0.88884442  0.83346575  1
loop_
_geom_bond_atom_site_label_1
_geom_bond_atom_site_label_2
_geom_bond_distance
_geom_bond_site_symmetry_2
Pm0_0 Pm2_1 3.628226 1_554
Pm0_0 Pm1_6 3.628226 1_445
Pm0_0 Pm1_4 3.628226 1_455
Pm0_0 Pm2_3 3.628228 1_544
Pm0_0 Pm2_7 3.628228 1_444
Pm0_0 Pm1_0 3.628230 1_555
Pm0_0 Pm0_2 3.698771 1_545
Pm0_0 Pm0_2 3.698771 1_555
Pm0_0 Pm0_6 3.698772 1_445
Pm0_0 Pm0_6 3.698772 1_555
Pm0_0 Pm0_4 3.698773 1_445
Pm0_0 Pm0_4 3.698773 1_545
Pm0_1 Pm2_0 3.628226 1_555
Pm0_1 Pm1_7 3.628226 1_445
Pm0_1 Pm1_5 3.628226 1_455
Pm0_1 Pm2_2 3.628228 1_545
Pm0_1 Pm2_6 3.628228 1_445
Pm0_1 Pm1_1 3.628230 1_555
Pm0_1 Pm0_3 3.698771 1_545
Pm0_1 Pm0_3 3.698771 1_555
Pm0_1 Pm0_7 3.698772 1_445
Pm0_1 Pm0_7 3.698772 1_555
Pm0_1 Pm0_5 3.698773 1_555
Pm0_1 Pm0_5 3.698773 1_455
Pm0_2 Pm2_3 3.628226 1_554
Pm0_2 Pm1_4 3.628226 1_455
Pm0_2 Pm1_6 3.628226 1_455
Pm0_2 Pm2_1 3.628228 1_554
Pm0_2 Pm2_5 3.628228 1_454
Pm0_2 Pm1_2 3.628230 1_555
Pm0_2 Pm0_4 3.698772 1_555
Pm0_2 Pm0_4 3.698772 1_445
Pm0_2 Pm0_6 3.698773 1_455
Pm0_2 Pm0_6 3.698773 1_555
Pm0_3 Pm2_2 3.628226 1_555
Pm0_3 Pm1_5 3.628226 1_455
Pm0_3 Pm1_7 3.628226 1_455
Pm0_3 Pm2_0 3.628228 1_555
Pm0_3 Pm2_4 3.628228 1_455
Pm0_3 Pm1_3 3.628230 1_555
Pm0_3 Pm0_5 3.698772 1_565
Pm0_3 Pm0_5 3.698772 1_455
Pm0_3 Pm0_7 3.698773 1_555
Pm0_3 Pm0_7 3.698773 1_455
Pm0_4 Pm2_5 3.628226 1_564
Pm0_4 Pm1_2 3.628226 1_555
Pm0_4 Pm1_0 3.628226 1_565
Pm0_4 Pm2_7 3.628228 1_554
Pm0_4 Pm2_3 3.628228 1_554
Pm0_4 Pm1_4 3.628230 1_565
Pm0_4 Pm0_6 3.698771 1_555
Pm0_4 Pm0_6 3.698771 1_565
Pm0_5 Pm2_4 3.628226 1_555
Pm0_5 Pm1_3 3.628226 1_545
Pm0_5 Pm1_1 3.628226 1_555
Pm0_5 Pm2_6 3.628228 1_545
Pm0_5 Pm2_2 3.628228 1_545
Pm0_5 Pm1_5 3.628230 1_555
Pm0_5 Pm0_7 3.698771 1_545
Pm0_5 Pm0_7 3.698771 1_555
Pm0_6 Pm2_7 3.628226 1_554
Pm0_6 Pm1_0 3.628226 1_555
Pm0_6 Pm1_2 3.628226 1_555
Pm0_6 Pm2_5 3.628228 1_554
Pm0_6 Pm2_1 3.628228 1_554
Pm0_6 Pm1_6 3.628230 1_555
Pm0_7 Pm2_6 3.628226 1_555
Pm0_7 Pm1_1 3.628226 1_555
Pm0_7 Pm1_3 3.628226 1_555
Pm0_7 Pm2_4 3.628228 1_555
Pm0_7 Pm2_0 3.628228 1_555
Pm0_7 Pm1_7 3.628230 1_555
Pm1_0 Pm2_4 3.633884 1_555
Pm1_0 Pm2_6 3.633886 1_545
Pm1_0 Pm2_2 3.633890 1_545
Pm1_0 Pm1_2 3.698771 1_545
Pm1_0 Pm1_2 3.698771 1_555
Pm1_0 Pm1_6 3.698772 1_555
Pm1_0 Pm1_6 3.698772 1_445
Pm1_0 Pm1_4 3.698773 1_555
Pm1_0 Pm1_4 3.698773 1_455
Pm1_1 Pm2_5 3.633884 1_555
Pm1_1 Pm2_7 3.633886 1_545
Pm1_1 Pm2_3 3.633890 1_545
Pm1_1 Pm1_3 3.698771 1_545
Pm1_1 Pm1_3 3.698771 1_555
Pm1_1 Pm1_7 3.698772 1_445
Pm1_1 Pm1_7 3.698772 1_555
Pm1_1 Pm1_5 3.698773 1_555
Pm1_1 Pm1_5 3.698773 1_455
Pm1_2 Pm2_6 3.633884 1_555
Pm1_2 Pm2_4 3.633886 1_555
Pm1_2 Pm2_0 3.633890 1_555
Pm1_2 Pm1_4 3.698772 1_565
Pm1_2 Pm1_4 3.698772 1_455
Pm1_2 Pm1_6 3.698773 1_555
Pm1_2 Pm1_6 3.698773 1_455
Pm1_3 Pm2_7 3.633884 1_555
Pm1_3 Pm2_5 3.633886 1_555
Pm1_3 Pm2_1 3.633890 1_555
Pm1_3 Pm1_5 3.698772 1_565
Pm1_3 Pm1_5 3.698772 1_455
Pm1_3 Pm1_7 3.698773 1_455
Pm1_3 Pm1_7 3.698773 1_555
Pm1_4 Pm2_0 3.633884 1_655
Pm1_4 Pm2_2 3.633886 1_645
Pm1_4 Pm2_6 3.633890 1_545
Pm1_4 Pm1_6 3.698771 1_545
Pm1_4 Pm1_6 3.698771 1_555
Pm1_5 Pm2_1 3.633884 1_655
Pm1_5 Pm2_3 3.633886 1_645
Pm1_5 Pm2_7 3.633890 1_545
Pm1_5 Pm1_7 3.698771 1_555
Pm1_5 Pm1_7 3.698771 1_545
Pm1_6 Pm2_2 3.633884 1_655
Pm1_6 Pm2_0 3.633886 1_655
Pm1_6 Pm2_4 3.633890 1_555
Pm1_7 Pm2_3 3.633884 1_655
Pm1_7 Pm2_1 3.633886 1_655
Pm1_7 Pm2_5 3.633890 1_555
Pm2_0 Pm2_2 3.698771 1_545
Pm2_0 Pm2_2 3.698771 1_555
Pm2_0 Pm2_6 3.698772 1_555
Pm2_0 Pm2_6 3.698772 1_445
Pm2_0 Pm2_4 3.698773 1_455
Pm2_0 Pm2_4 3.698773 1_555
Pm2_1 Pm2_3 3.698771 1_545
Pm2_1 Pm2_3 3.698771 1_555
Pm2_1 Pm2_7 3.698772 1_555
Pm2_1 Pm2_7 3.698772 1_445
Pm2_1 Pm2_5 3.698773 1_455
Pm2_1 Pm2_5 3.698773 1_555
Pm2_2 Pm2_4 3.698772 1_565
Pm2_2 Pm2_4 3.698772 1_455
Pm2_2 Pm2_6 3.698773 1_455
Pm2_2 Pm2_6 3.698773 1_555
Pm2_3 Pm2_5 3.698772 1_565
Pm2_3 Pm2_5 3.698772 1_455
Pm2_3 Pm2_7 3.698773 1_455
Pm2_3 Pm2_7 3.698773 1_555
Pm2_4 Pm2_6 3.698771 1_545
Pm2_4 Pm2_6 3.698771 1_555
Pm2_5 Pm2_7 3.698771 1_545
Pm2_5 Pm2_7 3.698771 1_555
