# generated using pymatgen
data_Rb3DyF6
_symmetry_space_group_name_H-M   'P 1'
_cell_length_a   6.75370965
_cell_length_b   6.75370965
_cell_length_c   6.75370965
_cell_angle_alpha   60.00000000
_cell_angle_beta   60.00000000
_cell_angle_gamma   60.00000000
_symmetry_Int_Tables_number   1
_chemical_formula_structural   Rb3DyF6
_chemical_formula_sum   'Rb3 Dy1 F6'
_cell_volume   217.82722523
_cell_formula_units_Z   1
loop_
 _symmetry_equiv_pos_site_id
 _symmetry_equiv_pos_as_xyz
  1  'x, y, z'
loop_
 _atom_site_type_symbol
 _atom_site_label
 _atom_site_symmetry_multiplicity
 _atom_site_fract_x
 _atom_site_fract_y
 _atom_site_fract_z
 _atom_site_occupancy
  Rb  Rb0  1  0.75000000  0.75000000  0.75000000  1
  Rb  Rb1  1  0.25000000  0.25000000  0.25000000  1
  Rb  Rb2  1  0.50000000  0.50000000  0.50000000  1
  Dy  Dy0  1  0.00000000  -0.00000000  0.00000000  1
  F  F0  1  0.77415454  0.77415454  0.22584546  1
  F  F1  1  0.22584546  0.22584546  0.77415454  1
  F  F2  1  0.77415454  0.22584546  0.77415454  1
  F  F3  1  0.22584546  0.77415454  0.22584546  1
  F  F4  1  0.22584546  0.77415454  0.77415454  1
  F  F5  1  0.77415454  0.22584546  0.22584546  1
loop_
_geom_bond_atom_site_label_1
_geom_bond_atom_site_label_2
_geom_bond_distance
_geom_bond_site_symmetry_2
Dy0 F3 2.157092 1_545
Dy0 F1 2.157092 1_554
Dy0 F5 2.157092 1_455
Dy0 F2 2.157092 1_454
Dy0 F0 2.157092 1_445
Dy0 F4 2.157092 1_544
F0 Rb2 2.618501 1_555
F0 Rb0 3.384726 1_554
F0 Rb1 3.384726 1_565
F0 Rb1 3.384726 1_655
F0 Rb0 3.384726 1_555
F1 Rb2 2.618501 1_555
F1 Rb1 3.384726 1_555
F1 Rb0 3.384726 1_455
F1 Rb0 3.384726 1_545
F1 Rb1 3.384726 1_556
F2 Rb2 2.618501 1_555
F2 Rb0 3.384726 1_545
F2 Rb1 3.384726 1_655
F2 Rb1 3.384726 1_556
F2 Rb0 3.384726 1_555
F3 Rb2 2.618501 1_555
F3 Rb1 3.384726 1_555
F3 Rb0 3.384726 1_554
F3 Rb0 3.384726 1_455
F3 Rb1 3.384726 1_565
F4 Rb2 2.618501 1_555
F4 Rb0 3.384726 1_455
F4 Rb1 3.384726 1_565
F4 Rb1 3.384726 1_556
F4 Rb0 3.384726 1_555
F5 Rb2 2.618501 1_555
F5 Rb1 3.384726 1_555
F5 Rb0 3.384726 1_554
F5 Rb0 3.384726 1_545
F5 Rb1 3.384726 1_655
