# generated using pymatgen
data_Li9Mn2Co5O16
_symmetry_space_group_name_H-M   'P 1'
_cell_length_a   5.02819900
_cell_length_b   5.92262301
_cell_length_c   10.15453205
_cell_angle_alpha   104.88178895
_cell_angle_beta   99.65063334
_cell_angle_gamma   92.25218717
_symmetry_Int_Tables_number   1
_chemical_formula_structural   Li9Mn2Co5O16
_chemical_formula_sum   'Li9 Mn2 Co5 O16'
_cell_volume   287.04571934
_cell_formula_units_Z   1
loop_
 _symmetry_equiv_pos_site_id
 _symmetry_equiv_pos_as_xyz
  1  'x, y, z'
loop_
 _atom_site_type_symbol
 _atom_site_label
 _atom_site_symmetry_multiplicity
 _atom_site_fract_x
 _atom_site_fract_y
 _atom_site_fract_z
 _atom_site_occupancy
  Li  Li0  1  0.25844100  0.86592200  0.72978500  1
  Li  Li1  1  0.25576700  0.39376200  0.26395500  1
  Li  Li2  1  0.75154700  0.61908600  0.73393900  1
  Li  Li3  1  0.75581700  0.13764100  0.26440000  1
  Li  Li4  1  0.24630400  0.35556200  0.73408900  1
  Li  Li5  1  0.25835700  0.87665500  0.26595400  1
  Li  Li6  1  0.74200400  0.11457100  0.73692000  1
  Li  Li7  1  0.73818100  0.63795000  0.27008600  1
  Li  Li8  1  0.50149100  0.74834300  0.50117500  1
  Mn  Mn0  1  0.00070600  0.00243300  0.99965300  1
  Mn  Mn1  1  0.50166600  0.74919700  0.00170300  1
  Co  Co0  1  0.00590300  0.50512300  0.50151000  1
  Co  Co1  1  0.49476000  0.25208600  0.50100300  1
  Co  Co2  1  0.00167100  0.49804500  0.00024600  1
  Co  Co3  1  0.98623500  0.99110200  0.49662300  1
  Co  Co4  1  0.49823600  0.24643500  0.99819200  1
  O  O0  1  0.13943000  0.18173300  0.88639500  1
  O  O1  1  0.10508700  0.68029000  0.38578100  1
  O  O2  1  0.64263500  0.92427700  0.88474300  1
  O  O3  1  0.64492400  0.43179500  0.38981300  1
  O  O4  1  0.12475200  0.70861300  0.89782500  1
  O  O5  1  0.12218800  0.21569700  0.38724600  1
  O  O6  1  0.64438600  0.42175200  0.88839400  1
  O  O7  1  0.63711000  0.94714700  0.38119600  1
  O  O8  1  0.34704600  0.54923700  0.61374400  1
  O  O9  1  0.35568100  0.08210200  0.11378300  1
  O  O10  1  0.87953900  0.31732200  0.61441300  1
  O  O11  1  0.86804100  0.82412200  0.11473200  1
  O  O12  1  0.36894200  0.07082100  0.61267900  1
  O  O13  1  0.35916900  0.56855900  0.11453300  1
  O  O14  1  0.89454000  0.79093000  0.61326600  1
  O  O15  1  0.86944200  0.29168800  0.10222200  1
loop_
_geom_bond_atom_site_label_1
_geom_bond_atom_site_label_2
_geom_bond_distance
_geom_bond_site_symmetry_2
Li0 O14 1.971190 1_455
Li0 O12 2.026145 1_565
Li0 O8 2.052157 1_555
Li0 O2 2.230766 1_555
Li0 O0 2.294520 1_565
Li0 O4 2.320248 1_555
Li1 O5 2.008781 1_555
Li1 O1 2.078748 1_555
Li1 O3 2.119439 1_555
Li1 O13 2.161793 1_555
Li1 O9 2.206551 1_555
Li1 O15 2.272482 1_455
Li2 O14 1.983139 1_555
Li2 O10 2.078365 1_555
Li2 O8 2.154024 1_555
Li2 O2 2.202110 1_555
Li2 O4 2.234634 1_655
Li2 O6 2.300352 1_555
Li3 O7 1.976740 1_545
Li3 O5 2.007449 1_655
Li3 O3 2.035358 1_555
Li3 O15 2.217470 1_555
Li3 O11 2.235280 1_545
Li3 O9 2.270077 1_555
Li4 O8 1.986869 1_555
Li4 O10 2.000870 1_455
Li4 O12 2.003218 1_555
Li4 O0 2.189452 1_555
Li4 O6 2.277420 1_555
Li4 O4 2.483067 1_555
Li5 O7 2.027311 1_555
Li5 O1 2.097118 1_555
Li5 O13 2.200843 1_555
Li5 O11 2.236680 1_455
Li5 O5 2.266795 1_565
Li5 O9 2.297883 1_565
Li6 O12 2.044006 1_555
Li6 O10 2.111450 1_555
Li6 O6 2.191499 1_555
Li6 O2 2.202106 1_545
Li6 O14 2.245266 1_545
Li6 O0 2.250751 1_655
Li7 O1 1.983002 1_655
Li7 O7 2.022098 1_555
Li7 O3 2.024201 1_555
Li7 O13 2.211680 1_555
Li7 O11 2.305005 1_555
Li7 O15 2.496978 1_555
Li8 O8 2.053859 1_555
Li8 O7 2.070748 1_555
Li8 O14 2.079471 1_555
Li8 O1 2.102270 1_555
Li8 O3 2.145812 1_555
Li8 O12 2.148554 1_565
Mn0 O9 1.926385 1_556
Mn0 O11 1.940542 1_446
Mn0 O2 1.941683 1_445
Mn0 O0 1.942936 1_555
Mn0 O15 1.964218 1_456
Mn0 O4 1.965645 1_545
Mn1 O13 1.953273 1_555
Mn1 O2 1.960942 1_554
Mn1 O11 1.968046 1_555
Mn1 O4 1.981394 1_554
Mn1 O6 2.199987 1_554
Mn1 O9 2.227743 1_565
Co0 O8 1.861690 1_555
Co0 O1 1.867651 1_555
Co0 O3 1.940197 1_455
Co0 O14 1.941021 1_455
Co0 O10 1.949096 1_455
Co0 O5 1.977659 1_555
Co1 O12 1.910828 1_555
Co1 O3 1.953898 1_555
Co1 O5 2.001289 1_555
Co1 O10 2.045586 1_555
Co1 O8 2.076659 1_555
Co1 O7 2.125826 1_545
Co2 O6 1.926160 1_454
Co2 O13 1.935229 1_555
Co2 O15 1.955788 1_455
Co2 O4 1.959937 1_554
Co2 O0 2.141027 1_554
Co2 O11 2.177916 1_455
Co3 O7 1.908077 1_555
Co3 O14 1.970391 1_555
Co3 O12 2.048716 1_665
Co3 O1 2.064064 1_655
Co3 O5 2.100542 1_665
Co3 O10 2.135648 1_565
Co4 O9 1.911249 1_556
Co4 O6 1.915900 1_555
Co4 O0 1.930306 1_555
Co4 O15 1.955953 1_556
Co4 O13 2.179112 1_556
Co4 O2 2.180630 1_545
