# generated using pymatgen
data_CsRbMg30O31
_symmetry_space_group_name_H-M   'P 1'
_cell_length_a   8.66877600
_cell_length_b   8.74809900
_cell_length_c   8.80381000
_cell_angle_alpha   90.00000000
_cell_angle_beta   90.00000000
_cell_angle_gamma   90.00000000
_symmetry_Int_Tables_number   1
_chemical_formula_structural   CsRbMg30O31
_chemical_formula_sum   'Cs1 Rb1 Mg30 O31'
_cell_volume   667.63966631
_cell_formula_units_Z   1
loop_
 _symmetry_equiv_pos_site_id
 _symmetry_equiv_pos_as_xyz
  1  'x, y, z'
loop_
 _atom_site_type_symbol
 _atom_site_label
 _atom_site_symmetry_multiplicity
 _atom_site_fract_x
 _atom_site_fract_y
 _atom_site_fract_z
 _atom_site_occupancy
  Cs  Cs0  1  0.00856600  0.00000000  0.50000000  1
  Rb  Rb0  1  0.86295200  0.50000000  0.50000000  1
  Mg  Mg0  1  0.01071100  0.50000000  0.00000000  1
  Mg  Mg1  1  0.00932400  0.00000000  0.00000000  1
  Mg  Mg2  1  0.48657200  0.50000000  0.50000000  1
  Mg  Mg3  1  0.50088900  0.00000000  0.50000000  1
  Mg  Mg4  1  0.49371000  0.50000000  0.00000000  1
  Mg  Mg5  1  0.49949800  0.00000000  0.00000000  1
  Mg  Mg6  1  0.00338000  0.25659200  0.24590400  1
  Mg  Mg7  1  0.00338000  0.74340800  0.24590400  1
  Mg  Mg8  1  0.00338000  0.25659200  0.75409600  1
  Mg  Mg9  1  0.00338000  0.74340800  0.75409600  1
  Mg  Mg10  1  0.50177300  0.25253700  0.25095700  1
  Mg  Mg11  1  0.50177300  0.74746300  0.25095700  1
  Mg  Mg12  1  0.50177300  0.25253700  0.74904300  1
  Mg  Mg13  1  0.50177300  0.74746300  0.74904300  1
  Mg  Mg14  1  0.74626900  0.21866500  0.50000000  1
  Mg  Mg15  1  0.74626900  0.78133500  0.50000000  1
  Mg  Mg16  1  0.75315400  0.24440100  0.00000000  1
  Mg  Mg17  1  0.75315400  0.75559900  0.00000000  1
  Mg  Mg18  1  0.24720700  0.26282300  0.50000000  1
  Mg  Mg19  1  0.24720700  0.73717700  0.50000000  1
  Mg  Mg20  1  0.25257100  0.25114100  0.00000000  1
  Mg  Mg21  1  0.25257100  0.74885900  0.00000000  1
  Mg  Mg22  1  0.74934600  0.50000000  0.21594500  1
  Mg  Mg23  1  0.75028600  0.00000000  0.23699600  1
  Mg  Mg24  1  0.74934600  0.50000000  0.78405500  1
  Mg  Mg25  1  0.75028600  0.00000000  0.76300400  1
  Mg  Mg26  1  0.23981100  0.50000000  0.25845100  1
  Mg  Mg27  1  0.25852100  0.00000000  0.24691200  1
  Mg  Mg28  1  0.23981100  0.50000000  0.74154900  1
  Mg  Mg29  1  0.25852100  0.00000000  0.75308800  1
  O  O0  1  0.71602900  0.00000000  0.50000000  1
  O  O1  1  0.74144100  0.50000000  0.00000000  1
  O  O2  1  0.74170900  0.00000000  0.00000000  1
  O  O3  1  0.26519000  0.50000000  0.50000000  1
  O  O4  1  0.28925300  0.00000000  0.50000000  1
  O  O5  1  0.25626800  0.50000000  0.00000000  1
  O  O6  1  0.25931600  0.00000000  0.00000000  1
  O  O7  1  0.75287500  0.25402200  0.25483400  1
  O  O8  1  0.75287500  0.74597800  0.25483400  1
  O  O9  1  0.75287500  0.25402200  0.74516600  1
  O  O10  1  0.75287500  0.74597800  0.74516600  1
  O  O11  1  0.25332600  0.25153200  0.25059300  1
  O  O12  1  0.25332600  0.74846800  0.25059300  1
  O  O13  1  0.25332600  0.25153200  0.74940700  1
  O  O14  1  0.25332600  0.74846800  0.74940700  1
  O  O15  1  0.00794500  0.28197700  0.50000000  1
  O  O16  1  0.00794500  0.71802300  0.50000000  1
  O  O17  1  0.00106200  0.25480300  0.00000000  1
  O  O18  1  0.00106200  0.74519700  0.00000000  1
  O  O19  1  0.51373000  0.26425400  0.50000000  1
  O  O20  1  0.51373000  0.73574600  0.50000000  1
  O  O21  1  0.50362700  0.25337900  0.00000000  1
  O  O22  1  0.50362700  0.74662100  0.00000000  1
  O  O23  1  0.99521300  0.50000000  0.22728200  1
  O  O24  1  0.99640600  0.00000000  0.21452800  1
  O  O25  1  0.99521300  0.50000000  0.77271800  1
  O  O26  1  0.99640600  0.00000000  0.78547200  1
  O  O27  1  0.51163800  0.50000000  0.25385500  1
  O  O28  1  0.50478900  0.00000000  0.24351400  1
  O  O29  1  0.51163800  0.50000000  0.74614500  1
  O  O30  1  0.50478900  0.00000000  0.75648600  1
loop_
_geom_bond_atom_site_label_1
_geom_bond_atom_site_label_2
_geom_bond_distance
_geom_bond_site_symmetry_2
Cs0 O4 2.433213 1_555
Cs0 O16 2.466769 1_545
Cs0 O15 2.466769 1_555
Cs0 O26 2.515451 1_455
Cs0 O24 2.515451 1_455
Cs0 O0 2.535938 1_455
Mg0 O23 2.005453 1_455
Mg0 O25 2.005453 1_454
Mg0 O5 2.128679 1_555
Mg0 O17 2.146638 1_555
Mg0 O18 2.146638 1_555
Mg0 O1 2.334241 1_455
Mg1 O24 1.891981 1_455
Mg1 O26 1.891981 1_454
Mg1 O6 2.167125 1_555
Mg1 O18 2.230192 1_545
Mg1 O17 2.230192 1_555
Mg1 O2 2.319894 1_455
Mg2 O3 1.919111 1_555
Mg2 O19 2.075723 1_555
Mg2 O20 2.075723 1_555
Mg2 O29 2.177881 1_555
Mg2 O27 2.177881 1_555
Mg3 O4 1.834625 1_555
Mg3 O0 1.865000 1_555
Mg3 O30 2.258307 1_555
Mg3 O28 2.258307 1_555
Mg3 O19 2.314399 1_555
Mg3 O20 2.314399 1_545
Mg4 O5 2.058332 1_555
Mg4 O1 2.147525 1_555
Mg4 O22 2.159177 1_555
Mg4 O21 2.159177 1_555
Mg4 O27 2.240288 1_555
Mg4 O29 2.240288 1_554
Mg5 O6 2.082084 1_555
Mg5 O2 2.099673 1_555
Mg5 O28 2.144342 1_555
Mg5 O30 2.144342 1_554
Mg5 O21 2.216874 1_555
Mg5 O22 2.216874 1_545
Mg6 O23 2.136832 1_455
Mg6 O17 2.165042 1_555
Mg6 O11 2.167571 1_555
Mg6 O7 2.173111 1_455
Mg6 O15 2.248357 1_555
Mg6 O24 2.262432 1_455
Mg7 O23 2.136832 1_455
Mg7 O18 2.165042 1_555
Mg7 O12 2.167571 1_555
Mg7 O8 2.173111 1_455
Mg7 O16 2.248357 1_555
Mg7 O24 2.262432 1_465
Mg8 O25 2.136832 1_455
Mg8 O17 2.165042 1_556
Mg8 O13 2.167571 1_555
Mg8 O9 2.173111 1_455
Mg8 O15 2.248357 1_555
Mg8 O26 2.262432 1_455
Mg9 O25 2.136832 1_455
Mg9 O18 2.165042 1_556
Mg9 O14 2.167571 1_555
Mg9 O10 2.173111 1_455
Mg9 O16 2.248357 1_555
Mg9 O26 2.262432 1_465
Mg10 O11 2.153752 1_555
Mg10 O27 2.166669 1_555
Mg10 O7 2.177053 1_555
Mg10 O19 2.197368 1_555
Mg10 O21 2.209448 1_555
Mg10 O28 2.210345 1_555
Mg11 O12 2.153752 1_555
Mg11 O27 2.166669 1_555
Mg11 O8 2.177053 1_555
Mg11 O20 2.197368 1_555
Mg11 O22 2.209448 1_555
Mg11 O28 2.210345 1_565
Mg12 O13 2.153752 1_555
Mg12 O29 2.166669 1_555
Mg12 O9 2.177053 1_555
Mg12 O19 2.197368 1_555
Mg12 O21 2.209448 1_556
Mg12 O30 2.210345 1_555
Mg13 O14 2.153752 1_555
Mg13 O29 2.166669 1_555
Mg13 O10 2.177053 1_555
Mg13 O20 2.197368 1_555
Mg13 O22 2.209448 1_556
Mg13 O30 2.210345 1_565
Mg14 O0 1.930782 1_555
Mg14 O19 2.054901 1_555
Mg14 O9 2.181197 1_555
Mg14 O7 2.181197 1_555
Mg14 O15 2.335048 1_655
Mg15 O0 1.930782 1_565
Mg15 O20 2.054901 1_555
Mg15 O8 2.181197 1_555
Mg15 O10 2.181197 1_555
Mg15 O16 2.335048 1_655
Mg16 O2 2.140345 1_555
Mg16 O17 2.150985 1_655
Mg16 O21 2.164519 1_555
Mg16 O1 2.238310 1_555
Mg16 O9 2.245090 1_554
Mg16 O7 2.245090 1_555
Mg17 O2 2.140345 1_565
Mg17 O18 2.150985 1_655
Mg17 O22 2.164519 1_555
Mg17 O1 2.238310 1_555
Mg17 O10 2.245090 1_554
Mg17 O8 2.245090 1_555
Mg18 O3 2.080696 1_555
Mg18 O15 2.080866 1_555
Mg18 O13 2.198592 1_555
Mg18 O11 2.198592 1_555
Mg18 O19 2.310462 1_555
Mg18 O4 2.327913 1_555
Mg19 O3 2.080696 1_555
Mg19 O16 2.080866 1_555
Mg19 O14 2.198592 1_555
Mg19 O12 2.198592 1_555
Mg19 O20 2.310462 1_555
Mg19 O4 2.327913 1_565
Mg20 O21 2.176436 1_555
Mg20 O5 2.177279 1_555
Mg20 O17 2.180511 1_555
Mg20 O6 2.197784 1_555
Mg20 O11 2.206186 1_555
Mg20 O13 2.206186 1_554
Mg21 O22 2.176436 1_555
Mg21 O5 2.177279 1_555
Mg21 O18 2.180511 1_555
Mg21 O6 2.197784 1_565
Mg21 O12 2.206186 1_555
Mg21 O14 2.206186 1_554
Mg22 O1 1.902373 1_555
Mg22 O27 2.087491 1_555
Mg22 O23 2.133702 1_555
Mg22 O8 2.179121 1_555
Mg22 O7 2.179121 1_555
Mg23 O2 2.087792 1_555
Mg23 O28 2.128932 1_555
Mg23 O24 2.142709 1_555
Mg23 O7 2.227865 1_555
Mg23 O8 2.227865 1_545
Mg23 O0 2.334403 1_555
Mg24 O1 1.902373 1_556
Mg24 O29 2.087491 1_555
Mg24 O25 2.133702 1_555
Mg24 O10 2.179121 1_555
Mg24 O9 2.179121 1_555
Mg25 O2 2.087792 1_556
Mg25 O30 2.128932 1_555
Mg25 O26 2.142709 1_555
Mg25 O9 2.227865 1_555
Mg25 O10 2.227865 1_545
Mg25 O0 2.334403 1_555
Mg26 O3 2.137902 1_555
Mg26 O23 2.138048 1_455
Mg26 O12 2.177877 1_555
Mg26 O11 2.177877 1_555
Mg26 O5 2.279821 1_555
Mg26 O27 2.356755 1_555
Mg27 O28 2.135052 1_555
Mg27 O6 2.173777 1_555
Mg27 O11 2.201126 1_555
Mg27 O12 2.201126 1_545
Mg27 O4 2.244009 1_555
Mg27 O24 2.290033 1_455
Mg28 O3 2.137902 1_555
Mg28 O25 2.138048 1_455
Mg28 O14 2.177877 1_555
Mg28 O13 2.177877 1_555
Mg28 O5 2.279821 1_556
Mg28 O29 2.356755 1_555
Mg29 O30 2.135052 1_555
Mg29 O6 2.173777 1_556
Mg29 O13 2.201126 1_555
Mg29 O14 2.201126 1_545
Mg29 O4 2.244009 1_555
Mg29 O26 2.290033 1_455
O15 Rb0 2.284200 1_455
O16 Rb0 2.284200 1_455
O23 Rb0 2.660668 1_555
O25 Rb0 2.660668 1_555
