# generated using pymatgen
data_CaMn(GeO3)2
_symmetry_space_group_name_H-M   'P 1'
_cell_length_a   9.33619700
_cell_length_b   5.38408000
_cell_length_c   10.43083400
_cell_angle_alpha   75.29228803
_cell_angle_beta   90.00000000
_cell_angle_gamma   90.00000000
_symmetry_Int_Tables_number   1
_chemical_formula_structural   CaMn(GeO3)2
_chemical_formula_sum   'Ca4 Mn4 Ge8 O24'
_cell_volume   507.14472759
_cell_formula_units_Z   4
loop_
 _symmetry_equiv_pos_site_id
 _symmetry_equiv_pos_as_xyz
  1  'x, y, z'
loop_
 _atom_site_type_symbol
 _atom_site_label
 _atom_site_symmetry_multiplicity
 _atom_site_fract_x
 _atom_site_fract_y
 _atom_site_fract_z
 _atom_site_occupancy
  Ca  Ca0  1  0.44918800  0.52634900  0.27224100  1
  Ca  Ca1  1  0.94918800  0.97365100  0.72775900  1
  Ca  Ca2  1  0.55081200  0.47365100  0.72775900  1
  Ca  Ca3  1  0.05081200  0.02634900  0.27224100  1
  Mn  Mn0  1  0.65912200  0.03327100  0.23654800  1
  Mn  Mn1  1  0.15912200  0.46672900  0.76345200  1
  Mn  Mn2  1  0.34087800  0.96672900  0.76345200  1
  Mn  Mn3  1  0.84087800  0.53327100  0.23654800  1
  Ge  Ge0  1  0.34559900  0.17863400  0.04308100  1
  Ge  Ge1  1  0.84559900  0.32136600  0.95691900  1
  Ge  Ge2  1  0.65440100  0.82136600  0.95691900  1
  Ge  Ge3  1  0.15440100  0.67863400  0.04308100  1
  Ge  Ge4  1  0.35068000  0.88752100  0.48054600  1
  Ge  Ge5  1  0.85068000  0.61247900  0.51945400  1
  Ge  Ge6  1  0.64932000  0.11247900  0.51945400  1
  Ge  Ge7  1  0.14932000  0.38752100  0.48054600  1
  O  O0  1  0.24132800  0.67838100  0.39430100  1
  O  O1  1  0.74132800  0.82161900  0.60569900  1
  O  O2  1  0.75867200  0.32161900  0.60569900  1
  O  O3  1  0.25867200  0.17838100  0.39430100  1
  O  O4  1  0.30785700  0.83579700  0.09933500  1
  O  O5  1  0.80785700  0.66420300  0.90066500  1
  O  O6  1  0.69214300  0.16420300  0.90066500  1
  O  O7  1  0.19214300  0.33579700  0.09933500  1
  O  O8  1  0.98067900  0.34327300  0.41272200  1
  O  O9  1  0.48067900  0.15672700  0.58727800  1
  O  O10  1  0.01932100  0.65672700  0.58727800  1
  O  O11  1  0.51932100  0.84327300  0.41272200  1
  O  O12  1  0.01464200  0.74709400  0.13569700  1
  O  O13  1  0.51464200  0.75290600  0.86430300  1
  O  O14  1  0.98535800  0.25290600  0.86430300  1
  O  O15  1  0.48535800  0.24709400  0.13569700  1
  O  O16  1  0.35112000  0.26009300  0.86910100  1
  O  O17  1  0.85112000  0.23990700  0.13089900  1
  O  O18  1  0.64888000  0.73990700  0.13089900  1
  O  O19  1  0.14888000  0.76009300  0.86910100  1
  O  O20  1  0.33331900  0.69673800  0.64454400  1
  O  O21  1  0.83331900  0.80326200  0.35545600  1
  O  O22  1  0.66668100  0.30326200  0.35545600  1
  O  O23  1  0.16668100  0.19673800  0.64454400  1
loop_
_geom_bond_atom_site_label_1
_geom_bond_atom_site_label_2
_geom_bond_distance
_geom_bond_site_symmetry_2
Ca0 O15 2.343192 1_555
Ca0 O22 2.406217 1_555
Ca0 O18 2.471994 1_555
Ca0 O4 2.498785 1_555
Ca0 O0 2.566367 1_555
Ca0 O11 2.599456 1_555
Ca0 O3 2.661488 1_555
Ca1 O14 2.343192 1_565
Ca1 O23 2.406217 1_665
Ca1 O19 2.471994 1_655
Ca1 O5 2.498785 1_555
Ca1 O1 2.566367 1_555
Ca1 O10 2.599456 1_655
Ca1 O2 2.661488 1_565
Ca2 O13 2.343192 1_555
Ca2 O20 2.406217 1_555
Ca2 O16 2.471994 1_555
Ca2 O6 2.498785 1_555
Ca2 O2 2.566367 1_555
Ca2 O9 2.599456 1_555
Ca2 O1 2.661488 1_555
Ca3 O12 2.343192 1_545
Ca3 O21 2.406217 1_445
Ca3 O17 2.471994 1_455
Ca3 O7 2.498785 1_555
Ca3 O3 2.566367 1_555
Ca3 O8 2.599456 1_455
Ca3 O0 2.661488 1_545
Mn0 O15 2.109234 1_555
Mn0 O22 2.138216 1_555
Mn0 O18 2.145277 1_545
Mn0 O21 2.221938 1_545
Mn0 O17 2.245617 1_555
Mn0 O11 2.274295 1_545
Mn1 O14 2.109234 1_455
Mn1 O23 2.138216 1_555
Mn1 O19 2.145277 1_555
Mn1 O20 2.221938 1_555
Mn1 O16 2.245617 1_555
Mn1 O10 2.274295 1_555
Mn2 O13 2.109234 1_555
Mn2 O20 2.138216 1_555
Mn2 O16 2.145277 1_565
Mn2 O23 2.221938 1_565
Mn2 O19 2.245617 1_555
Mn2 O9 2.274295 1_565
Mn3 O12 2.109234 1_655
Mn3 O21 2.138216 1_555
Mn3 O17 2.145277 1_555
Mn3 O22 2.221938 1_555
Mn3 O18 2.245617 1_555
Mn3 O8 2.274295 1_555
Ge0 O15 1.718283 1_555
Ge0 O16 1.756190 1_554
Ge0 O4 1.823650 1_545
Ge0 O7 1.834410 1_555
Ge1 O14 1.718283 1_555
Ge1 O17 1.756190 1_556
Ge1 O5 1.823650 1_555
Ge1 O6 1.834410 1_555
Ge2 O13 1.718283 1_555
Ge2 O18 1.756190 1_556
Ge2 O6 1.823650 1_565
Ge2 O5 1.834410 1_555
Ge3 O12 1.718283 1_555
Ge3 O19 1.756190 1_554
Ge3 O7 1.823650 1_555
Ge3 O4 1.834410 1_555
Ge4 O20 1.765058 1_555
Ge4 O11 1.766856 1_555
Ge4 O3 1.812244 1_565
Ge4 O0 1.906279 1_555
Ge4 O9 2.373334 1_565
Ge5 O21 1.765058 1_555
Ge5 O10 1.766856 1_655
Ge5 O2 1.812244 1_555
Ge5 O1 1.906279 1_555
Ge5 O8 2.373334 1_555
Ge6 O22 1.765058 1_555
Ge6 O9 1.766856 1_555
Ge6 O1 1.812244 1_545
Ge6 O2 1.906279 1_555
Ge6 O11 2.373334 1_545
Ge7 O23 1.765058 1_555
Ge7 O8 1.766856 1_455
Ge7 O0 1.812244 1_555
Ge7 O3 1.906279 1_555
Ge7 O10 2.373334 1_555
