# generated using pymatgen
data_NdMn2O5
_symmetry_space_group_name_H-M   'P 1'
_cell_length_a   5.72160062
_cell_length_b   7.49457793
_cell_length_c   8.63264079
_cell_angle_alpha   90.00000000
_cell_angle_beta   90.00000000
_cell_angle_gamma   90.00000000
_symmetry_Int_Tables_number   1
_chemical_formula_structural   NdMn2O5
_chemical_formula_sum   'Nd4 Mn8 O20'
_cell_volume   370.17611201
_cell_formula_units_Z   4
loop_
 _symmetry_equiv_pos_site_id
 _symmetry_equiv_pos_as_xyz
  1  'x, y, z'
loop_
 _atom_site_type_symbol
 _atom_site_label
 _atom_site_symmetry_multiplicity
 _atom_site_fract_x
 _atom_site_fract_y
 _atom_site_fract_z
 _atom_site_occupancy
  Nd  Nd0  1  -0.00000000  0.35872534  0.67248765  1
  Nd  Nd1  1  -0.00000000  0.64127466  0.32751235  1
  Nd  Nd2  1  -0.00000000  0.85872534  0.82751235  1
  Nd  Nd3  1  -0.00000000  0.14127466  0.17248765  1
  Mn  Mn0  1  0.50000000  0.08956823  0.85089154  1
  Mn  Mn1  1  0.50000000  0.91043177  0.14910846  1
  Mn  Mn2  1  0.50000000  0.58956823  0.64910846  1
  Mn  Mn3  1  0.50000000  0.41043177  0.35089154  1
  Mn  Mn4  1  0.25729344  0.50000000  -0.00000000  1
  Mn  Mn5  1  0.74270656  -0.00000000  0.50000000  1
  Mn  Mn6  1  0.74270656  0.50000000  -0.00000000  1
  Mn  Mn7  1  0.25729344  -0.00000000  0.50000000  1
  O  O0  1  0.25065818  0.90162944  0.29400732  1
  O  O1  1  0.25065818  0.09837056  0.70599268  1
  O  O2  1  0.74934182  0.40162944  0.20599268  1
  O  O3  1  0.74934182  0.59837056  0.79400732  1
  O  O4  1  0.74934182  0.09837056  0.70599268  1
  O  O5  1  0.74934182  0.90162944  0.29400732  1
  O  O6  1  0.25065818  0.59837056  0.79400732  1
  O  O7  1  0.25065818  0.40162944  0.20599268  1
  O  O8  1  0.50000000  0.34679705  0.93743574  1
  O  O9  1  0.50000000  0.65320295  0.06256426  1
  O  O10  1  0.50000000  0.84679705  0.56256426  1
  O  O11  1  0.50000000  0.15320295  0.43743574  1
  O  O12  1  0.27810495  -0.00000000  -0.00000000  1
  O  O13  1  0.72189505  0.50000000  0.50000000  1
  O  O14  1  0.72189505  -0.00000000  -0.00000000  1
  O  O15  1  0.27810495  0.50000000  0.50000000  1
  O  O16  1  -0.00000000  0.15717693  0.44847031  1
  O  O17  1  -0.00000000  0.84282307  0.55152969  1
  O  O18  1  -0.00000000  0.65717693  0.05152969  1
  O  O19  1  -0.00000000  0.34282307  0.94847031  1
loop_
_geom_bond_atom_site_label_1
_geom_bond_atom_site_label_2
_geom_bond_distance
_geom_bond_site_symmetry_2
Nd0 O19 2.385438 1_555
Nd0 O15 2.422844 1_555
Nd0 O13 2.422844 1_455
Nd0 O4 2.438824 1_455
Nd0 O1 2.438824 1_555
Nd0 O16 2.453873 1_555
Nd0 O3 2.526473 1_455
Nd0 O6 2.526473 1_555
Nd1 O18 2.385438 1_555
Nd1 O15 2.422844 1_555
Nd1 O13 2.422844 1_455
Nd1 O5 2.438824 1_455
Nd1 O0 2.438824 1_555
Nd1 O17 2.453873 1_555
Nd1 O2 2.526473 1_455
Nd1 O7 2.526473 1_555
Nd2 O17 2.385438 1_555
Nd2 O14 2.422844 1_466
Nd2 O12 2.422844 1_566
Nd2 O3 2.438824 1_455
Nd2 O6 2.438824 1_555
Nd2 O18 2.453873 1_556
Nd2 O4 2.526473 1_465
Nd2 O1 2.526473 1_565
Nd3 O16 2.385438 1_555
Nd3 O12 2.422844 1_555
Nd3 O14 2.422844 1_455
Nd3 O2 2.438824 1_455
Nd3 O7 2.438824 1_555
Nd3 O19 2.453873 1_554
Nd3 O5 2.526473 1_445
Nd3 O0 2.526473 1_545
Mn0 O1 1.898496 1_555
Mn0 O4 1.898496 1_555
Mn0 O12 1.928566 1_556
Mn0 O14 1.928566 1_556
Mn0 O8 2.067525 1_555
Mn1 O5 1.898496 1_555
Mn1 O0 1.898496 1_555
Mn1 O14 1.928566 1_565
Mn1 O12 1.928566 1_565
Mn1 O9 2.067525 1_555
Mn2 O6 1.898496 1_555
Mn2 O3 1.898496 1_555
Mn2 O15 1.928566 1_555
Mn2 O13 1.928566 1_555
Mn2 O10 2.067525 1_555
Mn3 O7 1.898496 1_555
Mn3 O2 1.898496 1_555
Mn3 O15 1.928566 1_555
Mn3 O13 1.928566 1_555
Mn3 O11 2.067525 1_555
Mn4 O9 1.881077 1_555
Mn4 O8 1.881077 1_554
Mn4 O7 1.925405 1_555
Mn4 O6 1.925405 1_554
Mn4 O18 1.937182 1_555
Mn4 O19 1.937182 1_554
Mn5 O10 1.881077 1_545
Mn5 O11 1.881077 1_555
Mn5 O5 1.925405 1_545
Mn5 O4 1.925405 1_555
Mn5 O16 1.937182 1_655
Mn5 O17 1.937182 1_645
Mn6 O9 1.881077 1_555
Mn6 O8 1.881077 1_554
Mn6 O2 1.925405 1_555
Mn6 O3 1.925405 1_554
Mn6 O18 1.937182 1_655
Mn6 O19 1.937182 1_654
Mn7 O10 1.881077 1_545
Mn7 O11 1.881077 1_555
Mn7 O0 1.925405 1_545
Mn7 O1 1.925405 1_555
Mn7 O17 1.937182 1_545
Mn7 O16 1.937182 1_555
