# generated using pymatgen
data_Pr2S3O20
_symmetry_space_group_name_H-M   'P 1'
_cell_length_a   7.39566451
_cell_length_b   7.39566451
_cell_length_c   18.24153872
_cell_angle_alpha   84.73908947
_cell_angle_beta   84.73908947
_cell_angle_gamma   54.51033786
_symmetry_Int_Tables_number   1
_chemical_formula_structural   Pr2S3O20
_chemical_formula_sum   'Pr4 S6 O40'
_cell_volume   808.04457112
_cell_formula_units_Z   2
loop_
 _symmetry_equiv_pos_site_id
 _symmetry_equiv_pos_as_xyz
  1  'x, y, z'
loop_
 _atom_site_type_symbol
 _atom_site_label
 _atom_site_symmetry_multiplicity
 _atom_site_fract_x
 _atom_site_fract_y
 _atom_site_fract_z
 _atom_site_occupancy
  Pr  Pr0  1  0.84659500  0.80625700  0.38379700  1
  Pr  Pr1  1  0.19374300  0.15340500  0.11620300  1
  Pr  Pr2  1  0.15340500  0.19374300  0.61620300  1
  Pr  Pr3  1  0.80625700  0.84659500  0.88379700  1
  S  S0  1  0.22605900  0.16734700  0.41083400  1
  S  S1  1  0.83265300  0.77394100  0.08916600  1
  S  S2  1  0.77394100  0.83265300  0.58916600  1
  S  S3  1  0.16734700  0.22605900  0.91083400  1
  S  S4  1  0.32550200  0.67449800  0.25000000  1
  S  S5  1  0.67449800  0.32550200  0.75000000  1
  O  O0  1  0.22656100  0.08703400  0.48907200  1
  O  O1  1  0.91296600  0.77343900  0.01092800  1
  O  O2  1  0.77343900  0.91296600  0.51092800  1
  O  O3  1  0.08703400  0.22656100  0.98907200  1
  O  O4  1  0.07274600  0.41406000  0.40797500  1
  O  O5  1  0.58594000  0.92725400  0.09202500  1
  O  O6  1  0.92725400  0.58594000  0.59202500  1
  O  O7  1  0.41406000  0.07274600  0.90797500  1
  O  O8  1  0.16284700  0.06671100  0.36115300  1
  O  O9  1  0.93328900  0.83715300  0.13884700  1
  O  O10  1  0.83715300  0.93328900  0.63884700  1
  O  O11  1  0.06671100  0.16284700  0.86115300  1
  O  O12  1  0.45538900  0.09812900  0.38608200  1
  O  O13  1  0.90187100  0.54461100  0.11391800  1
  O  O14  1  0.54461100  0.90187100  0.61391800  1
  O  O15  1  0.09812900  0.45538900  0.88608200  1
  O  O16  1  0.40704500  0.50013300  0.19503200  1
  O  O17  1  0.49986700  0.59295500  0.30496800  1
  O  O18  1  0.59295500  0.49986700  0.80496800  1
  O  O19  1  0.50013300  0.40704500  0.69503200  1
  O  O20  1  0.11979100  0.72186100  0.29033000  1
  O  O21  1  0.27813900  0.88020900  0.20967000  1
  O  O22  1  0.88020900  0.27813900  0.70967000  1
  O  O23  1  0.72186100  0.11979100  0.79033000  1
  O  O24  1  0.82881500  0.15562500  0.37663700  1
  O  O25  1  0.84437500  0.17118500  0.12336300  1
  O  O26  1  0.17118500  0.84437500  0.62336300  1
  O  O27  1  0.15562500  0.82881500  0.87663700  1
  O  O28  1  0.66597400  0.75218300  0.29203600  1
  O  O29  1  0.24781700  0.33402600  0.20796400  1
  O  O30  1  0.33402600  0.24781700  0.70796400  1
  O  O31  1  0.75218300  0.66597400  0.79203600  1
  O  O32  1  0.24675100  0.63972100  0.46277800  1
  O  O33  1  0.36027900  0.75324900  0.03722200  1
  O  O34  1  0.75324900  0.36027900  0.53722200  1
  O  O35  1  0.63972100  0.24675100  0.96277800  1
  O  O36  1  0.66815300  0.52646000  0.49491800  1
  O  O37  1  0.47354000  0.33184700  0.00508200  1
  O  O38  1  0.33184700  0.47354000  0.50508200  1
  O  O39  1  0.52646000  0.66815300  0.99491800  1
loop_
_geom_bond_atom_site_label_1
_geom_bond_atom_site_label_2
_geom_bond_distance
_geom_bond_site_symmetry_2
O0 S0 1.494194 1_555
O0 Pr2 2.429682 1_555
O1 S1 1.494194 1_555
O1 Pr3 2.429682 1_554
O2 S2 1.494194 1_555
O2 Pr0 2.429682 1_555
O3 S3 1.494194 1_555
O3 Pr1 2.429682 1_556
O4 S0 1.486195 1_555
O4 Pr0 2.381789 1_455
O5 S1 1.486195 1_555
O5 Pr1 2.381789 1_565
O6 S2 1.486195 1_555
O6 Pr2 2.381789 1_655
O7 S3 1.486195 1_555
O7 Pr3 2.381789 1_545
O8 S0 1.482963 1_555
O9 S1 1.482963 1_555
O10 S2 1.482963 1_555
O11 S3 1.482963 1_555
O12 S0 1.495440 1_555
O12 Pr0 2.403105 1_545
O13 S1 1.495440 1_555
O13 Pr1 2.403105 1_655
O14 S2 1.495440 1_555
O14 Pr2 2.403105 1_565
O15 S3 1.495440 1_555
O15 Pr3 2.403105 1_455
O16 S4 1.501758 1_555
O17 S4 1.501758 1_555
O18 S5 1.501758 1_555
O19 S5 1.501758 1_555
O20 S4 1.483823 1_555
O20 Pr0 2.340507 1_455
O21 S4 1.483823 1_555
O21 Pr1 2.340507 1_565
O22 S5 1.483823 1_555
O22 Pr2 2.340507 1_655
O23 S5 1.483823 1_555
O23 Pr3 2.340507 1_545
O24 Pr0 2.501436 1_545
O25 Pr1 2.501436 1_655
O26 Pr2 2.501436 1_565
O27 Pr3 2.501436 1_455
O28 Pr0 2.428829 1_555
O29 Pr1 2.428829 1_555
O30 Pr2 2.428829 1_555
O31 Pr3 2.428829 1_555
O32 O38 1.232523 1_555
O32 Pr0 2.928330 1_455
O33 O39 1.232523 1_554
O33 Pr1 2.928330 1_565
O34 O36 1.232523 1_555
O34 Pr2 2.928330 1_655
O35 O37 1.232523 1_556
O35 Pr3 2.928330 1_545
