# generated using pymatgen
data_Mg14NbCu
_symmetry_space_group_name_H-M   'P 1'
_cell_length_a   6.29469896
_cell_length_b   6.26323906
_cell_length_c   9.92812979
_cell_angle_alpha   89.99938641
_cell_angle_beta   90.00080581
_cell_angle_gamma   119.83385010
_symmetry_Int_Tables_number   1
_chemical_formula_structural   Mg14NbCu
_chemical_formula_sum   'Mg14 Nb1 Cu1'
_cell_volume   339.54450833
_cell_formula_units_Z   1
loop_
 _symmetry_equiv_pos_site_id
 _symmetry_equiv_pos_as_xyz
  1  'x, y, z'
loop_
 _atom_site_type_symbol
 _atom_site_label
 _atom_site_symmetry_multiplicity
 _atom_site_fract_x
 _atom_site_fract_y
 _atom_site_fract_z
 _atom_site_occupancy
  Mg  Mg0  1  0.16810778  0.33404424  0.62500068  1
  Mg  Mg1  1  0.16927187  0.83463814  0.62499550  1
  Mg  Mg2  1  0.66209034  0.33744955  0.12500013  1
  Mg  Mg3  1  0.66542147  0.33201346  0.62500053  1
  Mg  Mg4  1  0.66213015  0.82464549  0.12499904  1
  Mg  Mg5  1  0.66545097  0.83341901  0.62499932  1
  Mg  Mg6  1  0.32580564  0.16234113  0.36227337  1
  Mg  Mg7  1  0.32581530  0.16234411  0.88772021  1
  Mg  Mg8  1  0.32580604  0.66347435  0.36228113  1
  Mg  Mg9  1  0.32581329  0.66348386  0.88771195  1
  Mg  Mg10  1  0.84382411  0.17192563  0.36385713  1
  Mg  Mg11  1  0.84384280  0.17193867  0.88617533  1
  Mg  Mg12  1  0.84345976  0.67173675  0.37221632  1
  Mg  Mg13  1  0.84346528  0.67173770  0.87777307  1
  Nb  Nb0  1  0.15732632  0.82861036  0.12499695  1
  Cu  Cu0  1  0.17236889  0.33619755  0.12499935  1
loop_
_geom_bond_atom_site_label_1
_geom_bond_atom_site_label_2
_geom_bond_distance
_geom_bond_site_symmetry_2
Mg0 Mg1 3.131552 1_545
Mg0 Mg1 3.131700 1_555
Mg0 Mg3 3.136787 1_555
Mg0 Mg5 3.137021 1_555
Mg0 Mg10 3.139643 1_455
Mg0 Mg11 3.139870 1_455
Mg0 Mg5 3.157808 1_445
Mg0 Mg3 3.157951 1_455
Mg0 Mg7 3.163440 1_555
Mg0 Mg9 3.163514 1_555
Mg0 Mg6 3.163525 1_555
Mg0 Mg8 3.163539 1_555
Mg1 Mg13 3.076243 1_455
Mg1 Mg12 3.076245 1_455
Mg1 Mg3 3.126984 1_565
Mg1 Mg5 3.127104 1_555
Mg1 Mg9 3.158184 1_555
Mg1 Mg8 3.158216 1_555
Mg1 Mg6 3.158282 1_565
Mg1 Mg7 3.158325 1_565
Mg1 Mg5 3.167609 1_455
Mg1 Mg3 3.167820 1_455
Mg2 Mg7 2.987150 1_554
Mg2 Mg6 2.987159 1_555
Mg2 Mg4 3.051300 1_555
Mg2 Nb0 3.104787 1_655
Mg2 Nb0 3.190159 1_545
Mg2 Mg4 3.211939 1_545
Mg3 Mg5 3.122909 1_545
Mg3 Mg5 3.140330 1_555
Mg3 Mg7 3.200351 1_555
Mg3 Mg6 3.200411 1_555
Mg4 Mg9 2.987348 1_554
Mg4 Mg8 2.987363 1_555
Mg4 Nb0 3.104831 1_655
Mg4 Nb0 3.190015 1_555
Mg5 Mg9 3.200393 1_555
Mg5 Mg8 3.200431 1_555
Mg6 Nb0 2.972811 1_545
Mg6 Mg8 3.124523 1_545
Mg6 Mg8 3.138716 1_555
Mg7 Nb0 2.972812 1_546
Mg7 Mg9 3.124475 1_545
Mg7 Mg9 3.138764 1_555
Mg8 Nb0 2.972451 1_555
Mg9 Nb0 2.972491 1_556
Mg10 Mg2 3.030981 1_555
Mg10 Mg4 3.031104 1_545
Mg10 Mg8 3.064266 1_655
Mg10 Mg6 3.064276 1_655
Mg10 Mg12 3.132679 1_555
Mg10 Mg12 3.132761 1_545
Mg10 Mg3 3.179439 1_555
Mg10 Mg5 3.179464 1_545
Mg10 Mg6 3.231364 1_555
Mg10 Mg8 3.231461 1_545
Mg11 Mg2 3.030795 1_556
Mg11 Mg4 3.030871 1_546
Mg11 Mg9 3.064217 1_655
Mg11 Mg7 3.064249 1_655
Mg11 Mg13 3.132654 1_555
Mg11 Mg13 3.132808 1_545
Mg11 Mg3 3.179670 1_555
Mg11 Mg5 3.179791 1_545
Mg11 Mg7 3.231389 1_555
Mg11 Mg9 3.231507 1_545
Mg12 Nb0 2.993594 1_655
Mg12 Mg4 3.054774 1_555
Mg12 Mg2 3.054969 1_555
Mg12 Mg8 3.063888 1_655
Mg12 Mg6 3.063919 1_665
Mg12 Mg5 3.115853 1_555
Mg12 Mg3 3.115958 1_555
Mg12 Mg8 3.234544 1_555
Mg12 Mg6 3.234608 1_555
Mg13 Nb0 2.993586 1_656
Mg13 Mg4 3.054901 1_556
Mg13 Mg2 3.055050 1_556
Mg13 Mg9 3.063870 1_655
Mg13 Mg7 3.063939 1_665
Mg13 Mg5 3.115752 1_555
Mg13 Mg3 3.115880 1_555
Mg13 Mg9 3.234563 1_555
Mg13 Mg7 3.234590 1_555
Cu0 Mg6 2.951968 1_555
Cu0 Mg8 2.952017 1_555
Cu0 Mg7 2.952070 1_554
Cu0 Mg9 2.952079 1_554
Cu0 Mg11 2.973217 1_454
Cu0 Mg10 2.973575 1_455
Cu0 Mg2 3.078756 1_555
Cu0 Mg4 3.078860 1_555
Cu0 Nb0 3.132283 1_555
Cu0 Nb0 3.133111 1_545
Cu0 Mg4 3.215946 1_445
Cu0 Mg2 3.215958 1_455
