# generated using pymatgen
data_Sr2CaReO6
_symmetry_space_group_name_H-M   'P 1'
_cell_length_a   5.83662508
_cell_length_b   5.90053700
_cell_length_c   8.26326320
_cell_angle_alpha   90.00000000
_cell_angle_beta   90.20748349
_cell_angle_gamma   90.00000000
_symmetry_Int_Tables_number   1
_chemical_formula_structural   Sr2CaReO6
_chemical_formula_sum   'Sr4 Ca2 Re2 O12'
_cell_volume   284.57849188
_cell_formula_units_Z   2
loop_
 _symmetry_equiv_pos_site_id
 _symmetry_equiv_pos_as_xyz
  1  'x, y, z'
loop_
 _atom_site_type_symbol
 _atom_site_label
 _atom_site_symmetry_multiplicity
 _atom_site_fract_x
 _atom_site_fract_y
 _atom_site_fract_z
 _atom_site_occupancy
  Sr  Sr0  1  0.49227500  0.54017700  0.25037400  1
  Sr  Sr1  1  0.99227500  0.95982300  0.75037400  1
  Sr  Sr2  1  0.50772500  0.45982300  0.74962600  1
  Sr  Sr3  1  0.00772500  0.04017700  0.24962600  1
  Ca  Ca0  1  0.00000000  0.50000000  0.50000000  1
  Ca  Ca1  1  0.50000000  0.00000000  0.00000000  1
  Re  Re0  1  0.00000000  0.50000000  0.00000000  1
  Re  Re1  1  0.50000000  0.00000000  0.50000000  1
  O  O0  1  0.23328400  0.81140900  0.45918000  1
  O  O1  1  0.73328400  0.68859100  0.95918000  1
  O  O2  1  0.76671600  0.18859100  0.54082000  1
  O  O3  1  0.26671600  0.31140900  0.04082000  1
  O  O4  1  0.68418600  0.73095700  0.54514400  1
  O  O5  1  0.18418600  0.76904300  0.04514400  1
  O  O6  1  0.31581400  0.26904300  0.45485600  1
  O  O7  1  0.81581400  0.23095700  0.95485600  1
  O  O8  1  0.58217300  0.97732600  0.27282700  1
  O  O9  1  0.08217300  0.52267400  0.77282700  1
  O  O10  1  0.41782700  0.02267400  0.72717300  1
  O  O11  1  0.91782700  0.47732600  0.22717300  1
loop_
_geom_bond_atom_site_label_1
_geom_bond_atom_site_label_2
_geom_bond_distance
_geom_bond_site_symmetry_2
Ca0 O9 2.307077 1_555
Ca0 O11 2.307077 1_455
Ca0 O0 2.312437 1_555
Ca0 O2 2.312437 1_455
Ca0 O6 2.323573 1_555
Ca0 O4 2.323573 1_455
Ca1 O8 2.307077 1_545
Ca1 O10 2.307077 1_554
Ca1 O1 2.312437 1_544
Ca1 O3 2.312437 1_555
Ca1 O7 2.323573 1_554
Ca1 O5 2.323573 1_545
O0 Re1 1.942074 1_565
O0 Sr3 2.556798 1_565
O0 Sr0 2.800415 1_555
O0 Sr1 2.925749 1_455
O1 Re0 1.942074 1_656
O1 Sr2 2.556798 1_555
O1 Sr1 2.800415 1_555
O1 Sr0 2.925749 1_556
O2 Re1 1.942074 1_555
O2 Sr1 2.556798 1_545
O2 Sr2 2.800415 1_555
O2 Sr3 2.925749 1_655
O3 Re0 1.942074 1_555
O3 Sr0 2.556798 1_555
O3 Sr3 2.800415 1_555
O3 Sr2 2.925749 1_554
O4 Re1 1.952455 1_565
O4 Sr2 2.547135 1_555
O4 Sr1 2.812664 1_555
O4 Sr0 2.904314 1_555
O5 Re0 1.952455 1_555
O5 Sr3 2.547135 1_565
O5 Sr0 2.812664 1_555
O5 Sr1 2.904314 1_454
O6 Re1 1.952455 1_555
O6 Sr0 2.547135 1_555
O6 Sr3 2.812664 1_555
O6 Sr2 2.904314 1_555
O7 Re0 1.952455 1_656
O7 Sr1 2.547135 1_545
O7 Sr2 2.812664 1_555
O7 Sr3 2.904314 1_656
O8 Re1 1.943783 1_565
O8 Sr3 2.519313 1_665
O8 Sr0 2.638637 1_555
O9 Re0 1.943783 1_556
O9 Sr2 2.519313 1_555
O9 Sr1 2.638637 1_455
O10 Re1 1.943783 1_555
O10 Sr1 2.519313 1_445
O10 Sr2 2.638637 1_555
O11 Re0 1.943783 1_655
O11 Sr0 2.519313 1_555
O11 Sr3 2.638637 1_655
