# generated using pymatgen
data_Na4Eu2GeP4
_symmetry_space_group_name_H-M   'P 1'
_cell_length_a   9.34310117
_cell_length_b   9.34310117
_cell_length_c   7.13289175
_cell_angle_alpha   89.34065877
_cell_angle_beta   89.34065877
_cell_angle_gamma   119.54689407
_symmetry_Int_Tables_number   1
_chemical_formula_structural   Na4Eu2GeP4
_chemical_formula_sum   'Na8 Eu4 Ge2 P8'
_cell_volume   541.53898159
_cell_formula_units_Z   2
loop_
 _symmetry_equiv_pos_site_id
 _symmetry_equiv_pos_as_xyz
  1  'x, y, z'
loop_
 _atom_site_type_symbol
 _atom_site_label
 _atom_site_symmetry_multiplicity
 _atom_site_fract_x
 _atom_site_fract_y
 _atom_site_fract_z
 _atom_site_occupancy
  Na  Na0  1  0.47283200  0.94380100  0.38289100  1
  Na  Na1  1  0.94380100  0.47283200  0.88289100  1
  Na  Na2  1  0.86457100  0.72315800  0.18843600  1
  Na  Na3  1  0.28427400  0.13355100  0.21241900  1
  Na  Na4  1  0.85107100  0.13660200  0.20363900  1
  Na  Na5  1  0.13355100  0.28427400  0.71241900  1
  Na  Na6  1  0.72315800  0.86457100  0.68843600  1
  Na  Na7  1  0.13660200  0.85107100  0.70363900  1
  Eu  Eu0  1  0.05046100  0.52913900  0.38116800  1
  Eu  Eu1  1  0.48153800  0.53183300  0.37931100  1
  Eu  Eu2  1  0.52913900  0.05046100  0.88116800  1
  Eu  Eu3  1  0.53183300  0.48153800  0.87931100  1
  Ge  Ge0  1  0.66288000  0.32671700  0.49919200  1
  Ge  Ge1  1  0.32671700  0.66288000  0.99919200  1
  P  P0  1  0.66003900  0.33646600  0.15856000  1
  P  P1  1  0.33646600  0.66003900  0.65856000  1
  P  P2  1  0.19785800  0.38531300  0.11581900  1
  P  P3  1  0.61367900  0.80576300  0.09122200  1
  P  P4  1  0.19735300  0.81066300  0.10124200  1
  P  P5  1  0.80576300  0.61367900  0.59122200  1
  P  P6  1  0.38531300  0.19785800  0.61581900  1
  P  P7  1  0.81066300  0.19735300  0.60124200  1
loop_
_geom_bond_atom_site_label_1
_geom_bond_atom_site_label_2
_geom_bond_distance
_geom_bond_site_symmetry_2
Na0 P1 3.001584 1_555
Na0 P4 3.037554 1_555
Na0 P3 3.065277 1_555
Na0 P7 3.289961 1_565
Na0 P6 3.322230 1_565
Na1 P0 3.001584 1_556
Na1 P7 3.037554 1_555
Na1 P5 3.065277 1_555
Na1 P4 3.289961 1_656
Na1 P2 3.322230 1_656
Na2 P4 2.856423 1_655
Na2 P3 2.894951 1_555
Na2 P5 2.990684 1_555
Na2 P0 3.157215 1_555
Na3 P4 2.835998 1_545
Na3 P2 2.916897 1_555
Na3 P6 3.012398 1_555
Na3 P0 3.074936 1_555
Na4 P3 2.907449 1_545
Na4 P7 2.954944 1_555
Na4 P2 2.963824 1_655
Na4 P0 3.172151 1_555
Na5 P7 2.835998 1_455
Na5 P6 2.916897 1_555
Na5 P2 3.012398 1_556
Na5 P1 3.074936 1_555
Na6 P7 2.856423 1_565
Na6 P5 2.894951 1_555
Na6 P3 2.990684 1_556
Na6 P1 3.157215 1_555
Na7 P5 2.907449 1_455
Na7 P4 2.954944 1_556
Na7 P6 2.963824 1_565
Na7 P1 3.172151 1_555
Eu0 P4 3.007412 1_555
Eu0 P2 3.018001 1_555
Eu0 P1 3.083066 1_555
Eu0 P5 3.134499 1_455
Eu0 P7 3.170244 1_455
Eu1 P1 2.972127 1_555
Eu1 P3 3.000226 1_555
Eu1 P2 3.004434 1_555
Eu1 P5 3.145359 1_555
Eu1 P6 3.235426 1_555
Eu2 P7 3.007412 1_555
Eu2 P6 3.018001 1_555
Eu2 P0 3.083066 1_556
Eu2 P3 3.134499 1_546
Eu2 P4 3.170244 1_546
Eu3 P0 2.972127 1_556
Eu3 P5 3.000226 1_555
Eu3 P6 3.004434 1_555
Eu3 P3 3.145359 1_556
Eu3 P2 3.235426 1_556
Ge0 P7 2.355000 1_555
Ge0 P6 2.390574 1_555
Ge0 P0 2.431291 1_555
Ge0 P5 2.435578 1_555
Ge0 Na0 3.236866 1_545
Ge1 P4 2.355000 1_556
Ge1 P2 2.390574 1_556
Ge1 P1 2.431291 1_555
Ge1 P3 2.435578 1_556
Ge1 Na1 3.236866 1_455
