# generated using pymatgen
data_LaZnFeSbO6
_symmetry_space_group_name_H-M   'P 1'
_cell_length_a   5.68776200
_cell_length_b   5.42362900
_cell_length_c   9.70319062
_cell_angle_alpha   56.53846864
_cell_angle_beta   90.00000000
_cell_angle_gamma   90.00000000
_symmetry_Int_Tables_number   1
_chemical_formula_structural   LaZnFeSbO6
_chemical_formula_sum   'La2 Zn2 Fe2 Sb2 O12'
_cell_volume   249.71544200
_cell_formula_units_Z   2
loop_
 _symmetry_equiv_pos_site_id
 _symmetry_equiv_pos_as_xyz
  1  'x, y, z'
loop_
 _atom_site_type_symbol
 _atom_site_label
 _atom_site_symmetry_multiplicity
 _atom_site_fract_x
 _atom_site_fract_y
 _atom_site_fract_z
 _atom_site_occupancy
  La  La0  1  0.29619700  0.23329500  0.74909800  1
  La  La1  1  0.70380300  0.23329500  0.24909800  1
  Zn  Zn0  1  0.78731700  0.77621300  0.75049100  1
  Zn  Zn1  1  0.21268300  0.77621300  0.25049100  1
  Fe  Fe0  1  0.75166800  0.99574100  0.00300300  1
  Fe  Fe1  1  0.24833200  0.99574100  0.50300300  1
  Sb  Sb0  1  0.76041600  0.49990900  0.50131800  1
  Sb  Sb1  1  0.23958400  0.49990900  0.00131800  1
  O  O0  1  0.28099100  0.41855600  0.23236400  1
  O  O1  1  0.43189100  0.13463100  0.06530600  1
  O  O2  1  0.45684800  0.74748800  0.43417700  1
  O  O3  1  0.54315200  0.74748800  0.93417700  1
  O  O4  1  0.56810900  0.13463100  0.56530600  1
  O  O5  1  0.71900900  0.41855600  0.73236400  1
  O  O6  1  0.80115500  0.63213700  0.26387300  1
  O  O7  1  0.97214300  0.84196400  0.43198100  1
  O  O8  1  0.97153900  0.22006500  0.06839000  1
  O  O9  1  0.02846100  0.22006500  0.56839000  1
  O  O10  1  0.02785700  0.84196400  0.93198100  1
  O  O11  1  0.19884500  0.63213700  0.76387300  1
loop_
_geom_bond_atom_site_label_1
_geom_bond_atom_site_label_2
_geom_bond_distance
_geom_bond_site_symmetry_2
La0 O11 2.312672 1_555
La0 O9 2.353176 1_555
La0 O10 2.414504 1_545
La0 O5 2.576697 1_555
La0 O4 2.628879 1_555
La0 O3 2.631051 1_545
La0 O1 2.912982 1_556
La0 O2 2.924442 1_555
La1 O6 2.312672 1_555
La1 O8 2.353176 1_555
La1 O7 2.414504 1_545
La1 O0 2.576697 1_555
La1 O1 2.628879 1_555
La1 O2 2.631051 1_545
La1 O4 2.912982 1_555
La1 O3 2.924442 1_554
Fe0 O10 2.066896 1_654
Fe0 O8 2.073150 1_565
Fe0 O3 2.158017 1_554
Fe0 O1 2.177885 1_565
Fe0 O6 2.206994 1_555
Fe0 O5 2.355542 1_564
Fe1 O7 2.066896 1_455
Fe1 O9 2.073150 1_565
Fe1 O2 2.158017 1_555
Fe1 O4 2.177885 1_565
Fe1 O11 2.206994 1_555
Fe1 O0 2.355542 1_565
O0 Sb1 2.045816 1_555
O0 Zn1 2.078690 1_555
O1 Sb1 2.037234 1_555
O1 Zn1 2.170306 1_545
O2 Sb0 2.060102 1_555
O2 Zn1 2.196231 1_555
O3 Sb1 2.060102 1_556
O3 Zn0 2.196231 1_555
O4 Sb0 2.037234 1_555
O4 Zn0 2.170306 1_545
O5 Sb0 2.045816 1_555
O5 Zn0 2.078690 1_555
O6 Sb0 2.013507 1_555
O6 Zn1 2.448332 1_655
O7 Sb0 1.992025 1_555
O7 Zn1 2.406808 1_655
O8 Sb1 1.990536 1_655
O8 Zn1 2.471383 1_645
O9 Sb0 1.990536 1_455
O9 Zn0 2.471383 1_445
O10 Sb1 1.992025 1_556
O10 Zn0 2.406808 1_455
O11 Sb1 2.013507 1_556
O11 Zn0 2.448332 1_455
