# generated using pymatgen
data_VCu13Sn(AsS8)2
_symmetry_space_group_name_H-M   'P 1'
_cell_length_a   10.69850024
_cell_length_b   10.69850024
_cell_length_c   10.70930703
_cell_angle_alpha   89.99686718
_cell_angle_beta   89.99686718
_cell_angle_gamma   89.98436764
_symmetry_Int_Tables_number   1
_chemical_formula_structural   VCu13Sn(AsS8)2
_chemical_formula_sum   'V2 Cu26 Sn2 As4 S32'
_cell_volume   1225.76482384
_cell_formula_units_Z   2
loop_
 _symmetry_equiv_pos_site_id
 _symmetry_equiv_pos_as_xyz
  1  'x, y, z'
loop_
 _atom_site_type_symbol
 _atom_site_label
 _atom_site_symmetry_multiplicity
 _atom_site_fract_x
 _atom_site_fract_y
 _atom_site_fract_z
 _atom_site_occupancy
  V  V0  1  0.49968800  0.00029200  0.50002400  1
  V  V1  1  0.00029200  0.49968800  0.00002400  1
  Cu  Cu0  1  0.75126600  0.75055200  0.24840300  1
  Cu  Cu1  1  0.75008200  0.25051800  0.75211100  1
  Cu  Cu2  1  0.24917900  0.25092200  0.24899400  1
  Cu  Cu3  1  0.24807400  0.74983500  0.75054200  1
  Cu  Cu4  1  0.75055200  0.75126600  0.74840300  1
  Cu  Cu5  1  0.25051800  0.75008200  0.25211100  1
  Cu  Cu6  1  0.25092200  0.24917900  0.74899400  1
  Cu  Cu7  1  0.74983500  0.24807400  0.25054200  1
  Cu  Cu8  1  0.75633700  0.99987200  0.50009500  1
  Cu  Cu9  1  0.49940000  0.74426000  0.49956900  1
  Cu  Cu10  1  0.50051400  0.00067900  0.24430000  1
  Cu  Cu11  1  0.49937100  0.25562400  0.50040300  1
  Cu  Cu12  1  0.49973100  0.00049600  0.75567800  1
  Cu  Cu13  1  0.24379500  0.99989900  0.49988200  1
  Cu  Cu14  1  0.99987200  0.75633700  0.00009500  1
  Cu  Cu15  1  0.74426000  0.49940000  0.99956900  1
  Cu  Cu16  1  0.00067900  0.50051400  0.74430000  1
  Cu  Cu17  1  0.25562400  0.49937100  0.00040300  1
  Cu  Cu18  1  0.00049600  0.49973100  0.25567800  1
  Cu  Cu19  1  0.99989900  0.24379500  0.99988200  1
  Cu  Cu20  1  0.75056400  0.00039100  0.00090900  1
  Cu  Cu21  1  0.00039100  0.75056400  0.50090900  1
  Cu  Cu22  1  0.49841600  0.50046800  0.25015100  1
  Cu  Cu23  1  0.00045800  0.24941400  0.49912700  1
  Cu  Cu24  1  0.50046800  0.49841600  0.75015100  1
  Cu  Cu25  1  0.24941400  0.00045800  0.99912700  1
  Sn  Sn0  1  0.74990300  0.50009900  0.49971300  1
  Sn  Sn1  1  0.50009900  0.74990300  0.99971300  1
  As  As0  1  0.00033000  0.99948000  0.24999400  1
  As  As1  1  0.50001900  0.24999700  0.00042800  1
  As  As2  1  0.99948000  0.00033000  0.74999400  1
  As  As3  1  0.24999700  0.50001900  0.50042800  1
  S  S0  1  0.87971100  0.63469700  0.37033800  1
  S  S1  1  0.63025600  0.62105200  0.13499000  1
  S  S2  1  0.87221200  0.87798100  0.12812800  1
  S  S3  1  0.87917500  0.36512900  0.63059800  1
  S  S4  1  0.62288200  0.37156700  0.87179300  1
  S  S5  1  0.87356300  0.12261700  0.87193600  1
  S  S6  1  0.12825800  0.37235900  0.37680300  1
  S  S7  1  0.37652000  0.37163800  0.12695600  1
  S  S8  1  0.12672600  0.12356400  0.12854900  1
  S  S9  1  0.12791300  0.62739000  0.62231100  1
  S  S10  1  0.36894200  0.62097500  0.86591200  1
  S  S11  1  0.12789400  0.87710100  0.87140800  1
  S  S12  1  0.63469700  0.87971100  0.87033800  1
  S  S13  1  0.62105200  0.63025600  0.63499000  1
  S  S14  1  0.87798100  0.87221200  0.62812800  1
  S  S15  1  0.36512900  0.87917500  0.13059800  1
  S  S16  1  0.37156700  0.62288200  0.37179300  1
  S  S17  1  0.12261700  0.87356300  0.37193600  1
  S  S18  1  0.37235900  0.12825800  0.87680300  1
  S  S19  1  0.37163800  0.37652000  0.62695600  1
  S  S20  1  0.12356400  0.12672600  0.62854900  1
  S  S21  1  0.62739000  0.12791300  0.12231100  1
  S  S22  1  0.62097500  0.36894200  0.36591200  1
  S  S23  1  0.87710100  0.12789400  0.37140800  1
  S  S24  1  0.62051900  0.87923600  0.37925900  1
  S  S25  1  0.62042200  0.12110100  0.62012000  1
  S  S26  1  0.37911100  0.12062100  0.37989300  1
  S  S27  1  0.37910900  0.87983400  0.62068400  1
  S  S28  1  0.87923600  0.62051900  0.87925900  1
  S  S29  1  0.12110100  0.62042200  0.12012000  1
  S  S30  1  0.12062100  0.37911100  0.87989300  1
  S  S31  1  0.87983400  0.37910900  0.12068400  1
loop_
_geom_bond_atom_site_label_1
_geom_bond_atom_site_label_2
_geom_bond_distance
_geom_bond_site_symmetry_2
Cu0 S1 2.252125 1_555
Cu0 S0 2.264717 1_555
Cu0 S2 2.278719 1_555
Cu0 S24 2.411392 1_555
Cu1 S3 2.259405 1_555
Cu1 S4 2.273952 1_555
Cu1 S5 2.294189 1_555
Cu1 S25 2.416777 1_555
Cu2 S7 2.287492 1_555
Cu2 S6 2.287803 1_555
Cu2 S8 2.288652 1_555
Cu2 S26 2.416550 1_555
Cu3 S10 2.257929 1_555
Cu3 S11 2.276286 1_555
Cu3 S9 2.292559 1_555
Cu3 S27 2.415414 1_555
Cu4 S13 2.252125 1_555
Cu4 S12 2.264717 1_555
Cu4 S14 2.278719 1_555
Cu4 S28 2.411392 1_555
Cu5 S15 2.259405 1_555
Cu5 S16 2.273952 1_555
Cu5 S17 2.294189 1_555
Cu5 S29 2.416777 1_555
Cu6 S19 2.287492 1_555
Cu6 S18 2.287803 1_555
Cu6 S20 2.288652 1_555
Cu6 S30 2.416550 1_555
Cu7 S22 2.257929 1_555
Cu7 S23 2.276286 1_555
Cu7 S21 2.292559 1_555
Cu7 S31 2.415414 1_555
Cu8 S14 2.331963 1_555
Cu8 S23 2.333459 1_565
Cu8 S25 2.334022 1_565
Cu8 S24 2.335185 1_555
Cu9 S13 2.298674 1_555
Cu9 S24 2.329170 1_555
Cu9 S16 2.330347 1_555
Cu9 S27 2.332666 1_555
Cu10 S15 2.296038 1_545
Cu10 S21 2.324379 1_555
Cu10 S24 2.329041 1_545
Cu10 S26 2.332652 1_555
Cu11 S22 2.288503 1_555
Cu11 S19 2.318666 1_555
Cu11 S25 2.321891 1_555
Cu11 S26 2.325602 1_555
Cu12 S12 2.293815 1_545
Cu12 S18 2.325264 1_555
Cu12 S27 2.328754 1_545
Cu12 S25 2.332405 1_555
Cu13 S17 2.320859 1_555
Cu13 S20 2.322364 1_565
Cu13 S26 2.327169 1_565
Cu13 S27 2.327740 1_555
Cu14 S2 2.331963 1_555
Cu14 S11 2.333459 1_654
Cu14 S29 2.334022 1_655
Cu14 S28 2.335185 1_554
Cu15 S1 2.298674 1_556
Cu15 S28 2.329170 1_555
Cu15 S4 2.330347 1_555
Cu15 S31 2.332666 1_556
Cu16 S3 2.296038 1_455
Cu16 S9 2.324379 1_555
Cu16 S28 2.329041 1_455
Cu16 S30 2.332652 1_555
Cu17 S10 2.288503 1_554
Cu17 S7 2.318666 1_555
Cu17 S29 2.321891 1_555
Cu17 S30 2.325602 1_554
Cu18 S0 2.293815 1_455
Cu18 S6 2.325264 1_555
Cu18 S31 2.328754 1_455
Cu18 S29 2.332405 1_555
Cu19 S5 2.320859 1_555
Cu19 S8 2.322364 1_656
Cu19 S30 2.327169 1_655
Cu19 S31 2.327740 1_556
Cu20 S12 2.271589 1_544
Cu20 S2 2.294366 1_545
Cu20 S21 2.299392 1_555
Cu20 S5 2.312964 1_554
Cu21 S0 2.271589 1_455
Cu21 S14 2.294366 1_455
Cu21 S9 2.299392 1_555
Cu21 S17 2.312964 1_555
Cu22 S1 2.274951 1_555
Cu22 S22 2.288043 1_555
Cu22 S16 2.291928 1_555
Cu22 S7 2.311357 1_555
Cu23 S3 2.279844 1_455
Cu23 S23 2.303056 1_455
Cu23 S6 2.305693 1_555
Cu23 S20 2.318963 1_555
Cu24 S13 2.274951 1_555
Cu24 S10 2.288043 1_555
Cu24 S4 2.291928 1_555
Cu24 S19 2.311357 1_555
Cu25 S15 2.279844 1_546
Cu25 S11 2.303056 1_545
Cu25 S18 2.305693 1_555
Cu25 S8 2.318963 1_556
As0 S17 2.287095 1_555
As0 S2 2.296303 1_455
As0 S8 2.298478 1_565
As0 S23 2.305474 1_465
As1 S21 2.294696 1_555
As1 S7 2.296617 1_555
As1 S18 2.305604 1_554
As1 S4 2.306010 1_554
As2 S5 2.287095 1_555
As2 S14 2.296303 1_545
As2 S20 2.298478 1_655
As2 S11 2.305474 1_645
As3 S9 2.294696 1_555
As3 S19 2.296617 1_555
As3 S6 2.305604 1_555
As3 S16 2.306010 1_555
S0 Sn0 2.433627 1_555
S1 Sn1 2.436609 1_554
S3 Sn0 2.441604 1_555
S10 Sn1 2.434385 1_555
S12 Sn1 2.433627 1_555
S13 Sn0 2.436609 1_555
S15 Sn1 2.441604 1_554
S22 Sn0 2.434385 1_555
S24 V0 2.240573 1_565
S25 V0 2.234805 1_555
S26 V0 2.230595 1_555
S27 V0 2.234999 1_565
S28 V1 2.240573 1_656
S29 V1 2.234805 1_555
S30 V1 2.230595 1_556
S31 V1 2.234999 1_655
