# generated using pymatgen
data_MgH4C4S4(OF)12
_symmetry_space_group_name_H-M   'P 1'
_cell_length_a   5.44280198
_cell_length_b   9.21006543
_cell_length_c   12.60794500
_cell_angle_alpha   92.54691800
_cell_angle_beta   91.66514633
_cell_angle_gamma   104.66346600
_symmetry_Int_Tables_number   1
_chemical_formula_structural   MgH4C4S4(OF)12
_chemical_formula_sum   'Mg1 H4 C4 S4 O12 F12'
_cell_volume   610.29747920
_cell_formula_units_Z   1
loop_
 _symmetry_equiv_pos_site_id
 _symmetry_equiv_pos_as_xyz
  1  'x, y, z'
loop_
 _atom_site_type_symbol
 _atom_site_label
 _atom_site_symmetry_multiplicity
 _atom_site_fract_x
 _atom_site_fract_y
 _atom_site_fract_z
 _atom_site_occupancy
  Mg  Mg0  1  0.48122521  0.49006350  0.48896814  1
  H  H0  1  0.48986931  0.50132188  0.77533147  1
  H  H1  1  0.99235199  0.99466328  0.78263408  1
  H  H2  1  0.51893917  0.49822470  0.21529337  1
  H  H3  1  0.01444469  0.00355365  0.21514388  1
  C  C0  1  0.38902274  0.72910032  0.94356121  1
  C  C1  1  0.91887975  0.19097055  0.60281069  1
  C  C2  1  0.61164733  0.26267793  0.05028438  1
  C  C3  1  0.05818848  0.81086539  0.40486233  1
  S  S0  1  0.54199173  0.74126042  0.81113164  1
  S  S1  1  0.07009018  0.22695869  0.74040647  1
  S  S2  1  0.45844426  0.25734319  0.18247761  1
  S  S3  1  0.94194020  0.77316942  0.26204448  1
  O  O0  1  0.62683173  0.59146673  0.80458927  1
  O  O1  1  0.13985725  0.07526322  0.75770066  1
  O  O2  1  0.38051352  0.40939658  0.18533773  1
  O  O3  1  0.86742579  0.92193862  0.23928835  1
  O  O4  1  0.77228425  0.86013501  0.82746105  1
  O  O5  1  0.30781498  0.33764352  0.72952735  1
  O  O6  1  0.22449256  0.14080406  0.16789060  1
  O  O7  1  0.70677896  0.65790531  0.26459081  1
  O  O8  1  0.35228207  0.74677370  0.73141916  1
  O  O9  1  0.88195146  0.25397661  0.81018652  1
  O  O10  1  0.64628774  0.25217519  0.26308378  1
  O  O11  1  0.14938306  0.75165588  0.20139096  1
  F  F0  1  0.29638394  0.85013728  0.96023494  1
  F  F1  1  0.85947929  0.31736939  0.57285479  1
  F  F2  1  0.70089909  0.13996797  0.03644356  1
  F  F3  1  0.10658586  0.68488928  0.44155832  1
  F  F4  1  0.19808574  0.60299949  0.94247979  1
  F  F5  1  0.70535894  0.07840372  0.60329955  1
  F  F6  1  0.80470024  0.38748287  0.04964477  1
  F  F7  1  0.27347886  0.92268565  0.41174759  1
  F  F8  1  0.56186766  0.72564465  0.02142301  1
  F  F9  1  0.08012441  0.15359476  0.53396242  1
  F  F10  1  0.43970800  0.26470795  0.97171905  1
  F  F11  1  0.88038955  0.84995262  0.46388323  1
loop_
_geom_bond_atom_site_label_1
_geom_bond_atom_site_label_2
_geom_bond_distance
_geom_bond_site_symmetry_2
H0 O0 1.012195 1_555
H0 O5 1.649543 1_555
H1 O1 1.013956 1_665
H1 O4 1.624650 1_555
H2 O2 1.011698 1_555
H2 O7 1.647734 1_555
H3 O3 1.013889 1_445
H3 O6 1.623183 1_555
C0 F0 1.345739 1_555
C0 F8 1.346847 1_556
C0 F4 1.347493 1_555
C1 F9 1.346429 1_655
C1 F5 1.347763 1_555
C1 F1 1.350898 1_555
C2 F2 1.345015 1_555
C2 F10 1.346828 1_554
C2 F6 1.347305 1_555
C3 F11 1.346937 1_455
C3 F7 1.347745 1_555
C3 F3 1.350918 1_555
O0 S0 1.561406 1_555
O1 S1 1.560306 1_555
O2 S2 1.561899 1_555
O3 S3 1.560030 1_555
O4 S0 1.443039 1_555
O5 S1 1.444686 1_555
O6 S2 1.443672 1_555
O7 S3 1.443516 1_555
O8 S0 1.431628 1_555
O9 S1 1.430533 1_655
O10 S2 1.431408 1_555
O11 S3 1.431372 1_455
