# generated using pymatgen
data_Mg14NbBiO16
_symmetry_space_group_name_H-M   'P 1'
_cell_length_a   8.77905882
_cell_length_b   8.83129499
_cell_length_c   4.45276334
_cell_angle_alpha   90.00000000
_cell_angle_beta   90.00000000
_cell_angle_gamma   90.00000000
_symmetry_Int_Tables_number   1
_chemical_formula_structural   Mg14NbBiO16
_chemical_formula_sum   'Mg14 Nb1 Bi1 O16'
_cell_volume   345.22478189
_cell_formula_units_Z   1
loop_
 _symmetry_equiv_pos_site_id
 _symmetry_equiv_pos_as_xyz
  1  'x, y, z'
loop_
 _atom_site_type_symbol
 _atom_site_label
 _atom_site_symmetry_multiplicity
 _atom_site_fract_x
 _atom_site_fract_y
 _atom_site_fract_z
 _atom_site_occupancy
  Mg  Mg0  1  0.50000000  0.00000000  -0.00000000  1
  Mg  Mg1  1  0.50000000  0.50000000  -0.00000000  1
  Mg  Mg2  1  0.00000000  0.24032857  0.50000000  1
  Mg  Mg3  1  0.00000000  0.75967143  0.50000000  1
  Mg  Mg4  1  0.50000000  0.24827693  0.50000000  1
  Mg  Mg5  1  0.50000000  0.75172307  0.50000000  1
  Mg  Mg6  1  0.25619476  0.00000000  0.50000000  1
  Mg  Mg7  1  0.26399660  0.50000000  0.50000000  1
  Mg  Mg8  1  0.74380524  0.00000000  0.50000000  1
  Mg  Mg9  1  0.73600340  0.50000000  0.50000000  1
  Mg  Mg10  1  0.26017203  0.24493603  0.00000000  1
  Mg  Mg11  1  0.26017203  0.75506397  -0.00000000  1
  Mg  Mg12  1  0.73982797  0.24493603  0.00000000  1
  Mg  Mg13  1  0.73982797  0.75506397  -0.00000000  1
  Nb  Nb0  1  0.00000000  0.00000000  -0.00000000  1
  Bi  Bi0  1  0.00000000  0.50000000  -0.00000000  1
  O  O0  1  0.26310644  0.00000000  -0.00000000  1
  O  O1  1  0.27445687  0.50000000  0.00000000  1
  O  O2  1  0.73689356  0.00000000  -0.00000000  1
  O  O3  1  0.72554313  0.50000000  -0.00000000  1
  O  O4  1  0.24884441  0.25011900  0.50000000  1
  O  O5  1  0.24884441  0.74988100  0.50000000  1
  O  O6  1  0.75115559  0.25011900  0.50000000  1
  O  O7  1  0.75115559  0.74988100  0.50000000  1
  O  O8  1  0.00000000  0.00000000  0.50000000  1
  O  O9  1  0.00000000  0.50000000  0.50000000  1
  O  O10  1  0.50000000  0.00000000  0.50000000  1
  O  O11  1  0.50000000  0.50000000  0.50000000  1
  O  O12  1  -0.00000000  0.24255532  -0.00000000  1
  O  O13  1  0.00000000  0.75744468  -0.00000000  1
  O  O14  1  0.50000000  0.24648712  0.00000000  1
  O  O15  1  0.50000000  0.75351288  -0.00000000  1
loop_
_geom_bond_atom_site_label_1
_geom_bond_atom_site_label_2
_geom_bond_distance
_geom_bond_site_symmetry_2
Mg0 O2 2.079702 1_555
Mg0 O0 2.079702 1_555
Mg0 O15 2.176800 1_545
Mg0 O14 2.176800 1_555
Mg0 O10 2.226382 1_554
Mg0 O10 2.226382 1_555
Mg1 O1 1.980056 1_555
Mg1 O3 1.980056 1_555
Mg1 O11 2.226382 1_555
Mg1 O11 2.226382 1_554
Mg1 O14 2.238847 1_555
Mg1 O15 2.238847 1_555
Mg2 O8 2.122412 1_555
Mg2 O4 2.186330 1_555
Mg2 O6 2.186330 1_455
Mg2 O12 2.226469 1_556
Mg2 O12 2.226469 1_555
Mg2 O9 2.293235 1_555
Mg3 O8 2.122412 1_565
Mg3 O5 2.186330 1_555
Mg3 O7 2.186330 1_455
Mg3 O13 2.226469 1_555
Mg3 O13 2.226469 1_556
Mg3 O9 2.293235 1_555
Mg4 O10 2.192607 1_555
Mg4 O4 2.204970 1_555
Mg4 O6 2.204970 1_555
Mg4 O11 2.223041 1_555
Mg4 O14 2.226438 1_555
Mg4 O14 2.226438 1_556
Mg5 O10 2.192607 1_565
Mg5 O5 2.204970 1_555
Mg5 O7 2.204970 1_555
Mg5 O11 2.223041 1_555
Mg5 O15 2.226438 1_556
Mg5 O15 2.226438 1_555
Mg6 O10 2.140381 1_555
Mg6 O5 2.209817 1_545
Mg6 O4 2.209817 1_555
Mg6 O0 2.227208 1_555
Mg6 O0 2.227208 1_556
Mg6 O8 2.249149 1_555
Mg7 O11 2.071888 1_555
Mg7 O4 2.210778 1_555
Mg7 O5 2.210778 1_555
Mg7 O1 2.228275 1_556
Mg7 O1 2.228275 1_555
Mg7 O9 2.317642 1_555
Mg8 O10 2.140381 1_555
Mg8 O6 2.209817 1_555
Mg8 O7 2.209817 1_545
Mg8 O2 2.227208 1_556
Mg8 O2 2.227208 1_555
Mg8 O8 2.249149 1_655
Mg9 O11 2.071888 1_555
Mg9 O6 2.210778 1_555
Mg9 O7 2.210778 1_555
Mg9 O3 2.228275 1_556
Mg9 O3 2.228275 1_555
Mg9 O9 2.317642 1_655
Mg10 O14 2.105508 1_555
Mg10 O0 2.163256 1_555
Mg10 O4 2.229072 1_554
Mg10 O4 2.229072 1_555
Mg10 O1 2.256033 1_555
Mg10 O12 2.284162 1_555
Mg11 O15 2.105508 1_555
Mg11 O0 2.163256 1_565
Mg11 O5 2.229072 1_555
Mg11 O5 2.229072 1_554
Mg11 O1 2.256033 1_555
Mg11 O13 2.284162 1_555
Mg12 O14 2.105508 1_555
Mg12 O2 2.163256 1_555
Mg12 O6 2.229072 1_555
Mg12 O6 2.229072 1_554
Mg12 O3 2.256033 1_555
Mg12 O12 2.284162 1_655
Mg13 O15 2.105508 1_555
Mg13 O2 2.163256 1_565
Mg13 O7 2.229072 1_555
Mg13 O7 2.229072 1_554
Mg13 O3 2.256033 1_555
Mg13 O13 2.284162 1_655
Nb0 O13 2.142078 1_545
Nb0 O12 2.142078 1_555
Nb0 O8 2.226382 1_554
Nb0 O8 2.226382 1_555
Nb0 O0 2.309827 1_555
Nb0 O2 2.309827 1_455
Bi0 O9 2.226382 1_555
Bi0 O9 2.226382 1_554
Bi0 O12 2.273570 1_555
Bi0 O13 2.273570 1_555
Bi0 O3 2.409473 1_455
Bi0 O1 2.409473 1_555
