# generated using pymatgen
data_Mn3O4
_symmetry_space_group_name_H-M   'P 1'
_cell_length_a   3.16895700
_cell_length_b   12.02349000
_cell_length_c   10.82945500
_cell_angle_alpha   90.00000000
_cell_angle_beta   90.00000000
_cell_angle_gamma   90.00000000
_symmetry_Int_Tables_number   1
_chemical_formula_structural   Mn3O4
_chemical_formula_sum   'Mn12 O16'
_cell_volume   412.62305838
_cell_formula_units_Z   4
loop_
 _symmetry_equiv_pos_site_id
 _symmetry_equiv_pos_as_xyz
  1  'x, y, z'
loop_
 _atom_site_type_symbol
 _atom_site_label
 _atom_site_symmetry_multiplicity
 _atom_site_fract_x
 _atom_site_fract_y
 _atom_site_fract_z
 _atom_site_occupancy
  Mn  Mn0  1  0.24862600  0.25000000  0.55529400  1
  Mn  Mn1  1  0.75137400  0.75000000  0.44470600  1
  Mn  Mn2  1  0.24862600  0.75000000  0.94470600  1
  Mn  Mn3  1  0.75137400  0.25000000  0.05529400  1
  Mn  Mn4  1  0.74552600  0.46562700  0.62376700  1
  Mn  Mn5  1  0.25447400  0.96562700  0.37623300  1
  Mn  Mn6  1  0.74552600  0.53437300  0.87623300  1
  Mn  Mn7  1  0.25447400  0.03437300  0.12376700  1
  Mn  Mn8  1  0.25447400  0.53437300  0.37623300  1
  Mn  Mn9  1  0.74552600  0.03437300  0.62376700  1
  Mn  Mn10  1  0.25447400  0.46562700  0.12376700  1
  Mn  Mn11  1  0.74552600  0.96562700  0.87623300  1
  O  O0  1  0.24251400  0.50000000  0.75000000  1
  O  O1  1  0.75748600  0.00000000  0.25000000  1
  O  O2  1  0.75748600  0.50000000  0.25000000  1
  O  O3  1  0.24251400  0.00000000  0.75000000  1
  O  O4  1  0.74868900  0.25000000  0.64580000  1
  O  O5  1  0.25131100  0.75000000  0.35420000  1
  O  O6  1  0.74868900  0.75000000  0.85420000  1
  O  O7  1  0.25131100  0.25000000  0.14580000  1
  O  O8  1  0.24772100  0.40463400  0.51741200  1
  O  O9  1  0.75227900  0.90463400  0.48258800  1
  O  O10  1  0.24772100  0.59536600  0.98258800  1
  O  O11  1  0.75227900  0.09536600  0.01741200  1
  O  O12  1  0.75227900  0.59536600  0.48258800  1
  O  O13  1  0.24772100  0.09536600  0.51741200  1
  O  O14  1  0.75227900  0.40463400  0.01741200  1
  O  O15  1  0.24772100  0.90463400  0.98258800  1
loop_
_geom_bond_atom_site_label_1
_geom_bond_atom_site_label_2
_geom_bond_distance
_geom_bond_site_symmetry_2
Mn0 O4 1.862953 1_455
Mn0 O4 1.863293 1_555
Mn0 O13 1.903965 1_555
Mn0 O8 1.903965 1_555
Mn1 O5 1.862953 1_655
Mn1 O5 1.863293 1_555
Mn1 O12 1.903965 1_555
Mn1 O9 1.903965 1_555
Mn2 O6 1.862953 1_455
Mn2 O6 1.863293 1_555
Mn2 O10 1.903965 1_555
Mn2 O15 1.903965 1_555
Mn3 O7 1.862953 1_655
Mn3 O7 1.863293 1_555
Mn3 O11 1.903965 1_555
Mn3 O14 1.903965 1_555
Mn4 O8 2.086371 1_555
Mn4 O8 2.096910 1_655
Mn4 O0 2.126030 1_655
Mn4 O0 2.140210 1_555
Mn4 O12 2.184332 1_555
Mn4 O4 2.603565 1_555
Mn5 O9 2.086371 1_555
Mn5 O9 2.096910 1_455
Mn5 O1 2.126030 1_465
Mn5 O1 2.140210 1_565
Mn5 O13 2.184332 1_565
Mn5 O5 2.603565 1_555
Mn6 O10 2.086371 1_555
Mn6 O10 2.096910 1_655
Mn6 O0 2.126030 1_655
Mn6 O0 2.140210 1_555
Mn6 O14 2.184332 1_556
Mn6 O6 2.603565 1_555
Mn7 O11 2.086371 1_555
Mn7 O11 2.096910 1_455
Mn7 O1 2.126030 1_455
Mn7 O1 2.140210 1_555
Mn7 O15 2.184332 1_544
Mn7 O7 2.603565 1_555
Mn8 O12 2.086371 1_555
Mn8 O12 2.096910 1_455
Mn8 O2 2.126030 1_455
Mn8 O2 2.140210 1_555
Mn8 O8 2.184332 1_555
Mn8 O5 2.603565 1_555
Mn9 O13 2.086371 1_555
Mn9 O13 2.096910 1_655
Mn9 O3 2.126030 1_655
Mn9 O3 2.140210 1_555
Mn9 O9 2.184332 1_545
Mn9 O4 2.603565 1_555
Mn10 O14 2.086371 1_555
Mn10 O14 2.096910 1_455
Mn10 O2 2.126030 1_455
Mn10 O2 2.140210 1_555
Mn10 O10 2.184332 1_554
Mn10 O7 2.603565 1_555
Mn11 O15 2.086371 1_555
Mn11 O15 2.096910 1_655
Mn11 O3 2.126030 1_665
Mn11 O3 2.140210 1_565
Mn11 O11 2.184332 1_566
Mn11 O6 2.603565 1_555
