# generated using pymatgen
data_VP2PbO8
_symmetry_space_group_name_H-M   'P 1'
_cell_length_a   7.57088900
_cell_length_b   9.06855200
_cell_length_c   9.27412500
_cell_angle_alpha   90.00000000
_cell_angle_beta   90.00000000
_cell_angle_gamma   90.00000000
_symmetry_Int_Tables_number   1
_chemical_formula_structural   VP2PbO8
_chemical_formula_sum   'V4 P8 Pb4 O32'
_cell_volume   636.73360553
_cell_formula_units_Z   4
loop_
 _symmetry_equiv_pos_site_id
 _symmetry_equiv_pos_as_xyz
  1  'x, y, z'
loop_
 _atom_site_type_symbol
 _atom_site_label
 _atom_site_symmetry_multiplicity
 _atom_site_fract_x
 _atom_site_fract_y
 _atom_site_fract_z
 _atom_site_occupancy
  V  V0  1  0.27924700  0.74916300  0.49578400  1
  V  V1  1  0.72075300  0.24916300  0.00421600  1
  V  V2  1  0.77924700  0.75083700  0.50421600  1
  V  V3  1  0.22075300  0.25083700  0.99578400  1
  P  P0  1  0.19814600  0.96997300  0.77641200  1
  P  P1  1  0.80185400  0.46997300  0.72358800  1
  P  P2  1  0.69814600  0.53002700  0.22358800  1
  P  P3  1  0.30185400  0.03002700  0.27641200  1
  P  P4  1  0.30210300  0.52922100  0.22276700  1
  P  P5  1  0.69789700  0.02922100  0.27723300  1
  P  P6  1  0.80210300  0.97077900  0.77723300  1
  P  P7  1  0.19789700  0.47077900  0.72276700  1
  Pb  Pb0  1  0.49964500  0.18367300  0.59603000  1
  Pb  Pb1  1  0.50035500  0.68367300  0.90397000  1
  Pb  Pb2  1  0.99964500  0.31632700  0.40397000  1
  Pb  Pb3  1  0.00035500  0.81632700  0.09603000  1
  O  O0  1  0.00007300  0.01621500  0.73187300  1
  O  O1  1  0.99992700  0.51621500  0.76812700  1
  O  O2  1  0.50007300  0.48378500  0.26812700  1
  O  O3  1  0.49992700  0.98378500  0.23187300  1
  O  O4  1  0.49879200  0.74652200  0.46666700  1
  O  O5  1  0.50120800  0.24652200  0.03333300  1
  O  O6  1  0.99879200  0.75347800  0.53333300  1
  O  O7  1  0.00120800  0.25347800  0.96666700  1
  O  O8  1  0.29100800  0.92685000  0.63482800  1
  O  O9  1  0.70899200  0.42685000  0.86517200  1
  O  O10  1  0.79100800  0.57315000  0.36517200  1
  O  O11  1  0.20899200  0.07315000  0.13482800  1
  O  O12  1  0.21211900  0.57481800  0.36541600  1
  O  O13  1  0.78788100  0.07481800  0.13458400  1
  O  O14  1  0.71211900  0.92518200  0.63458400  1
  O  O15  1  0.28788100  0.42518200  0.86541600  1
  O  O16  1  0.19444700  0.84778700  0.88824500  1
  O  O17  1  0.80555300  0.34778700  0.61175500  1
  O  O18  1  0.69444700  0.65221300  0.11175500  1
  O  O19  1  0.30555300  0.15221300  0.38824500  1
  O  O20  1  0.30562500  0.65154100  0.11098600  1
  O  O21  1  0.69437500  0.15154100  0.38901400  1
  O  O22  1  0.80562500  0.84845900  0.88901400  1
  O  O23  1  0.19437500  0.34845900  0.61098600  1
  O  O24  1  0.28625900  0.61355900  0.67070400  1
  O  O25  1  0.71374100  0.11355900  0.82929600  1
  O  O26  1  0.78625900  0.88644100  0.32929600  1
  O  O27  1  0.21374100  0.38644100  0.17070400  1
  O  O28  1  0.21577200  0.88646000  0.33068500  1
  O  O29  1  0.78422800  0.38646000  0.16931500  1
  O  O30  1  0.71577200  0.61354000  0.66931500  1
  O  O31  1  0.28422800  0.11354000  0.83068500  1
loop_
_geom_bond_atom_site_label_1
_geom_bond_atom_site_label_2
_geom_bond_distance
_geom_bond_site_symmetry_2
O0 P6 1.610333 1_445
O0 P0 1.610974 1_545
O1 P7 1.610333 1_655
O1 P1 1.610974 1_555
O2 P4 1.610333 1_555
O2 P2 1.610974 1_555
O3 P5 1.610333 1_565
O3 P3 1.610974 1_565
O4 V0 1.684113 1_555
O4 V2 2.152016 1_555
O5 V1 1.684113 1_555
O5 V3 2.152016 1_554
O6 V2 1.684113 1_555
O6 V0 2.152016 1_655
O7 V3 1.684113 1_555
O7 V1 2.152016 1_456
O8 P0 1.539920 1_555
O8 V0 2.065735 1_555
O8 Pb0 2.837041 1_565
O9 P1 1.539920 1_555
O9 V1 2.065735 1_556
O9 Pb1 2.837041 1_555
O10 P2 1.539920 1_555
O10 V2 2.065735 1_555
O10 Pb2 2.837041 1_555
O11 P3 1.539920 1_555
O11 V3 2.065735 1_554
O11 Pb3 2.837041 1_545
O12 P4 1.544434 1_555
O12 V0 2.054222 1_555
O12 Pb2 2.865394 1_455
O13 P5 1.544434 1_555
O13 V1 2.054222 1_555
O13 Pb3 2.865394 1_645
O14 P6 1.544434 1_555
O14 V2 2.054222 1_555
O14 Pb0 2.865394 1_565
O15 P7 1.544434 1_555
O15 V3 2.054222 1_555
O15 Pb1 2.865394 1_555
O16 P0 1.517974 1_555
O16 Pb3 2.440102 1_556
O16 Pb1 2.756822 1_555
O17 P1 1.517974 1_555
O17 Pb2 2.440102 1_555
O17 Pb0 2.756822 1_555
O18 P2 1.517974 1_555
O18 Pb1 2.440102 1_554
O18 Pb3 2.756822 1_655
O19 P3 1.517974 1_555
O19 Pb0 2.440102 1_555
O19 Pb2 2.756822 1_455
O20 P4 1.518508 1_555
O20 Pb1 2.438113 1_554
O20 Pb3 2.755697 1_555
O21 P5 1.518508 1_555
O21 Pb0 2.438113 1_555
O21 Pb2 2.755697 1_555
O22 P6 1.518508 1_555
O22 Pb3 2.438113 1_656
O22 Pb1 2.755697 1_555
O23 P7 1.518508 1_555
O23 Pb2 2.438113 1_455
O23 Pb0 2.755697 1_555
O24 P7 1.535315 1_555
O24 V0 2.036342 1_555
O24 Pb1 2.776981 1_555
O25 P6 1.535315 1_545
O25 V1 2.036342 1_556
O25 Pb0 2.776981 1_555
O26 P5 1.535315 1_565
O26 V2 2.036342 1_555
O26 Pb3 2.776981 1_655
O27 P4 1.535315 1_555
O27 V3 2.036342 1_554
O27 Pb2 2.776981 1_455
O28 P3 1.540500 1_565
O28 V0 2.031156 1_555
O28 Pb3 2.792895 1_555
O29 P2 1.540500 1_555
O29 V1 2.031156 1_555
O29 Pb2 2.792895 1_555
O30 P1 1.540500 1_555
O30 V2 2.031156 1_555
O30 Pb1 2.792895 1_555
O31 P0 1.540500 1_545
O31 V3 2.031156 1_555
O31 Pb0 2.792895 1_555
