# generated using pymatgen
data_SrCa3(RuO3)4
_symmetry_space_group_name_H-M   'P 1'
_cell_length_a   7.79295000
_cell_length_b   5.47316900
_cell_length_c   5.60954956
_cell_angle_alpha   89.91930960
_cell_angle_beta   90.00000000
_cell_angle_gamma   90.00000000
_symmetry_Int_Tables_number   1
_chemical_formula_structural   SrCa3(RuO3)4
_chemical_formula_sum   'Sr1 Ca3 Ru4 O12'
_cell_volume   239.25901316
_cell_formula_units_Z   1
loop_
 _symmetry_equiv_pos_site_id
 _symmetry_equiv_pos_as_xyz
  1  'x, y, z'
loop_
 _atom_site_type_symbol
 _atom_site_label
 _atom_site_symmetry_multiplicity
 _atom_site_fract_x
 _atom_site_fract_y
 _atom_site_fract_z
 _atom_site_occupancy
  Sr  Sr0  1  0.50000000  0.49029200  0.54409500  1
  Ca  Ca0  1  0.50000000  0.01180000  0.05042400  1
  Ca  Ca1  1  0.00000000  0.51135500  0.44737700  1
  Ca  Ca2  1  0.00000000  0.98966100  0.94948800  1
  Ru  Ru0  1  0.24744500  0.00032000  0.50007100  1
  Ru  Ru1  1  0.75219400  0.49961100  0.99985600  1
  Ru  Ru2  1  0.75255500  0.00032000  0.50007100  1
  Ru  Ru3  1  0.24780600  0.49961100  0.99985600  1
  O  O0  1  0.29428200  0.19545500  0.80095200  1
  O  O1  1  0.71239900  0.29234700  0.28845300  1
  O  O2  1  0.79955300  0.79859200  0.20361200  1
  O  O3  1  0.19964300  0.69966500  0.70364700  1
  O  O4  1  0.20044700  0.79859200  0.20361200  1
  O  O5  1  0.80035700  0.69966500  0.70364700  1
  O  O6  1  0.70571800  0.19545500  0.80095200  1
  O  O7  1  0.28760100  0.29234700  0.28845300  1
  O  O8  1  0.50000000  0.59183200  0.98950800  1
  O  O9  1  0.50000000  0.93228800  0.47181900  1
  O  O10  1  0.00000000  0.40875500  0.02554400  1
  O  O11  1  0.00000000  0.09203600  0.52856300  1
loop_
_geom_bond_atom_site_label_1
_geom_bond_atom_site_label_2
_geom_bond_distance
_geom_bond_site_symmetry_2
Ca0 O8 2.324293 1_544
Ca0 O0 2.352636 1_554
Ca0 O6 2.352636 1_554
Ca0 O9 2.402958 1_545
Ca0 O1 2.624132 1_555
Ca0 O7 2.624132 1_555
Ca0 O2 2.747133 1_545
Ca0 O4 2.747133 1_545
Ca1 O11 2.339124 1_555
Ca1 O3 2.356593 1_555
Ca1 O5 2.356593 1_455
Ca1 O10 2.432781 1_555
Ca1 O4 2.602945 1_555
Ca1 O2 2.602945 1_455
Ca1 O1 2.694034 1_455
Ca1 O7 2.694034 1_555
Ca2 O10 2.333703 1_566
Ca2 O4 2.358301 1_556
Ca2 O2 2.358301 1_456
Ca2 O11 2.426003 1_565
Ca2 O5 2.616810 1_455
Ca2 O3 2.616810 1_555
Ca2 O0 2.686932 1_565
Ca2 O6 2.686932 1_465
O0 Ru0 2.031657 1_555
O0 Ru3 2.037781 1_555
O0 Sr0 2.691394 1_555
O1 Ru1 1.999670 1_554
O1 Ru2 2.014039 1_555
O1 Sr0 2.444238 1_555
O2 Ru2 2.030740 1_565
O2 Ru1 2.031157 1_554
O3 Ru3 2.023742 1_555
O3 Ru0 2.036016 1_565
O3 Sr0 2.756053 1_555
O4 Ru0 2.030740 1_565
O4 Ru3 2.031157 1_554
O5 Ru1 2.023742 1_555
O5 Ru2 2.036016 1_565
O5 Sr0 2.756053 1_555
O6 Ru2 2.031657 1_555
O6 Ru1 2.037781 1_555
O6 Sr0 2.691394 1_555
O7 Ru3 1.999670 1_554
O7 Ru0 2.014039 1_555
O7 Sr0 2.444238 1_555
O8 Ru3 2.029924 1_555
O8 Ru1 2.029924 1_555
O8 Sr0 2.560390 1_555
O9 Ru2 2.009362 1_565
O9 Ru0 2.009362 1_565
O9 Sr0 2.452295 1_555
O10 Ru1 1.999285 1_454
O10 Ru3 1.999285 1_554
O11 Ru0 1.999049 1_555
O11 Ru2 1.999049 1_455
