# generated using pymatgen
data_Nd2(GeIr)3
_symmetry_space_group_name_H-M   'P 1'
_cell_length_a   5.70197000
_cell_length_b   5.70197000
_cell_length_c   42.41181400
_cell_angle_alpha   90.00000000
_cell_angle_beta   90.00000000
_cell_angle_gamma   90.00000000
_symmetry_Int_Tables_number   1
_chemical_formula_structural   Nd2(GeIr)3
_chemical_formula_sum   'Nd16 Ge24 Ir24'
_cell_volume   1378.91248597
_cell_formula_units_Z   8
loop_
 _symmetry_equiv_pos_site_id
 _symmetry_equiv_pos_as_xyz
  1  'x, y, z'
loop_
 _atom_site_type_symbol
 _atom_site_label
 _atom_site_symmetry_multiplicity
 _atom_site_fract_x
 _atom_site_fract_y
 _atom_site_fract_z
 _atom_site_occupancy
  Nd  Nd0_0  1  0.25000000  0.25000000  0.38000150  1
  Nd  Nd0_1  1  0.25000000  0.25000000  0.88000150  1
  Nd  Nd0_2  1  0.25000000  0.75000000  0.38000150  1
  Nd  Nd0_3  1  0.25000000  0.75000000  0.88000150  1
  Nd  Nd0_4  1  0.75000000  0.25000000  0.38000150  1
  Nd  Nd0_5  1  0.75000000  0.25000000  0.88000150  1
  Nd  Nd0_6  1  0.75000000  0.75000000  0.38000150  1
  Nd  Nd0_7  1  0.75000000  0.75000000  0.88000150  1
  Nd  Nd1_0  1  0.25000000  0.25000000  0.11999850  1
  Nd  Nd1_1  1  0.25000000  0.25000000  0.61999850  1
  Nd  Nd1_2  1  0.25000000  0.75000000  0.11999850  1
  Nd  Nd1_3  1  0.25000000  0.75000000  0.61999850  1
  Nd  Nd1_4  1  0.75000000  0.25000000  0.11999850  1
  Nd  Nd1_5  1  0.75000000  0.25000000  0.61999850  1
  Nd  Nd1_6  1  0.75000000  0.75000000  0.11999850  1
  Nd  Nd1_7  1  0.75000000  0.75000000  0.61999850  1
  Ge  Ge0_0  1  0.25000000  0.25000000  0.19389250  1
  Ge  Ge0_1  1  0.25000000  0.25000000  0.69389250  1
  Ge  Ge0_2  1  0.25000000  0.75000000  0.19389250  1
  Ge  Ge0_3  1  0.25000000  0.75000000  0.69389250  1
  Ge  Ge0_4  1  0.75000000  0.25000000  0.19389250  1
  Ge  Ge0_5  1  0.75000000  0.25000000  0.69389250  1
  Ge  Ge0_6  1  0.75000000  0.75000000  0.19389250  1
  Ge  Ge0_7  1  0.75000000  0.75000000  0.69389250  1
  Ge  Ge1_0  1  0.25000000  0.25000000  0.30610750  1
  Ge  Ge1_1  1  0.25000000  0.25000000  0.80610750  1
  Ge  Ge1_2  1  0.25000000  0.75000000  0.30610750  1
  Ge  Ge1_3  1  0.25000000  0.75000000  0.80610750  1
  Ge  Ge1_4  1  0.75000000  0.25000000  0.30610750  1
  Ge  Ge1_5  1  0.75000000  0.25000000  0.80610750  1
  Ge  Ge1_6  1  0.75000000  0.75000000  0.30610750  1
  Ge  Ge1_7  1  0.75000000  0.75000000  0.80610750  1
  Ge  Ge2_0  1  0.25000000  0.25000000  0.00000000  1
  Ge  Ge2_1  1  0.25000000  0.25000000  0.50000000  1
  Ge  Ge2_2  1  0.25000000  0.75000000  0.00000000  1
  Ge  Ge2_3  1  0.25000000  0.75000000  0.50000000  1
  Ge  Ge2_4  1  0.75000000  0.25000000  0.00000000  1
  Ge  Ge2_5  1  0.75000000  0.25000000  0.50000000  1
  Ge  Ge2_6  1  0.75000000  0.75000000  0.00000000  1
  Ge  Ge2_7  1  0.75000000  0.75000000  0.50000000  1
  Ir  Ir0_0  1  0.25000000  0.25000000  0.05674650  1
  Ir  Ir0_1  1  0.25000000  0.25000000  0.55674650  1
  Ir  Ir0_2  1  0.25000000  0.75000000  0.05674650  1
  Ir  Ir0_3  1  0.25000000  0.75000000  0.55674650  1
  Ir  Ir0_4  1  0.75000000  0.25000000  0.05674650  1
  Ir  Ir0_5  1  0.75000000  0.25000000  0.55674650  1
  Ir  Ir0_6  1  0.75000000  0.75000000  0.05674650  1
  Ir  Ir0_7  1  0.75000000  0.75000000  0.55674650  1
  Ir  Ir1_0  1  0.25000000  0.25000000  0.44325350  1
  Ir  Ir1_1  1  0.25000000  0.25000000  0.94325350  1
  Ir  Ir1_2  1  0.25000000  0.75000000  0.44325350  1
  Ir  Ir1_3  1  0.25000000  0.75000000  0.94325350  1
  Ir  Ir1_4  1  0.75000000  0.25000000  0.44325350  1
  Ir  Ir1_5  1  0.75000000  0.25000000  0.94325350  1
  Ir  Ir1_6  1  0.75000000  0.75000000  0.44325350  1
  Ir  Ir1_7  1  0.75000000  0.75000000  0.94325350  1
  Ir  Ir2_0  1  0.25000000  0.25000000  0.25000000  1
  Ir  Ir2_1  1  0.25000000  0.25000000  0.75000000  1
  Ir  Ir2_2  1  0.25000000  0.75000000  0.25000000  1
  Ir  Ir2_3  1  0.25000000  0.75000000  0.75000000  1
  Ir  Ir2_4  1  0.75000000  0.25000000  0.25000000  1
  Ir  Ir2_5  1  0.75000000  0.25000000  0.75000000  1
  Ir  Ir2_6  1  0.75000000  0.75000000  0.25000000  1
  Ir  Ir2_7  1  0.75000000  0.75000000  0.75000000  1
loop_
_geom_bond_atom_site_label_1
_geom_bond_atom_site_label_2
_geom_bond_distance
_geom_bond_site_symmetry_2
Nd0_0 Nd0_2 2.850985 1_545
Nd0_0 Nd0_2 2.850985 1_555
Nd0_0 Nd0_4 2.850985 1_555
Nd0_0 Nd0_4 2.850985 1_455
Nd0_1 Nd0_3 2.850985 1_545
Nd0_1 Nd0_3 2.850985 1_555
Nd0_1 Nd0_5 2.850985 1_455
Nd0_1 Nd0_5 2.850985 1_555
Nd0_2 Nd0_6 2.850985 1_555
Nd0_2 Nd0_6 2.850985 1_455
Nd0_3 Nd0_7 2.850985 1_455
Nd0_3 Nd0_7 2.850985 1_555
Nd0_4 Nd0_6 2.850985 1_545
Nd0_4 Nd0_6 2.850985 1_555
Nd0_5 Nd0_7 2.850985 1_545
Nd0_5 Nd0_7 2.850985 1_555
Nd1_0 Nd1_4 2.850985 1_555
Nd1_0 Nd1_2 2.850985 1_545
Nd1_0 Nd1_2 2.850985 1_555
Nd1_0 Nd1_4 2.850985 1_455
Nd1_1 Nd1_5 2.850985 1_555
Nd1_1 Nd1_5 2.850985 1_455
Nd1_1 Nd1_3 2.850985 1_555
Nd1_1 Nd1_3 2.850985 1_545
Nd1_2 Nd1_6 2.850985 1_455
Nd1_2 Nd1_6 2.850985 1_555
Nd1_3 Nd1_7 2.850985 1_555
Nd1_3 Nd1_7 2.850985 1_455
Nd1_4 Nd1_6 2.850985 1_545
Nd1_4 Nd1_6 2.850985 1_555
Nd1_5 Nd1_7 2.850985 1_545
Nd1_5 Nd1_7 2.850985 1_555
Ge0_0 Ir2_0 2.379621 1_555
Ge0_0 Ge0_2 2.850985 1_555
Ge0_0 Ge0_4 2.850985 1_555
Ge0_0 Ge0_4 2.850985 1_455
Ge0_0 Ge0_2 2.850985 1_545
Ge0_0 Nd1_0 3.133979 1_555
Ge0_1 Ir2_1 2.379621 1_555
Ge0_1 Ge0_5 2.850985 1_555
Ge0_1 Ge0_3 2.850985 1_545
Ge0_1 Ge0_3 2.850985 1_555
Ge0_1 Ge0_5 2.850985 1_455
Ge0_1 Nd1_1 3.133979 1_555
Ge0_2 Ir2_2 2.379621 1_555
Ge0_2 Ge0_6 2.850985 1_455
Ge0_2 Ge0_6 2.850985 1_555
Ge0_2 Nd1_2 3.133979 1_555
Ge0_3 Ir2_3 2.379621 1_555
Ge0_3 Ge0_7 2.850985 1_555
Ge0_3 Ge0_7 2.850985 1_455
Ge0_3 Nd1_3 3.133979 1_555
Ge0_4 Ir2_4 2.379621 1_555
Ge0_4 Ge0_6 2.850985 1_545
Ge0_4 Ge0_6 2.850985 1_555
Ge0_4 Nd1_4 3.133979 1_555
Ge0_5 Ir2_5 2.379621 1_555
Ge0_5 Ge0_7 2.850985 1_555
Ge0_5 Ge0_7 2.850985 1_545
Ge0_5 Nd1_5 3.133979 1_555
Ge0_6 Ir2_6 2.379621 1_555
Ge0_6 Nd1_6 3.133979 1_555
Ge0_7 Ir2_7 2.379621 1_555
Ge0_7 Nd1_7 3.133979 1_555
Ge1_0 Ir2_0 2.379621 1_555
Ge1_0 Ge1_4 2.850985 1_455
Ge1_0 Ge1_4 2.850985 1_555
Ge1_0 Ge1_2 2.850985 1_545
Ge1_0 Ge1_2 2.850985 1_555
Ge1_0 Nd0_0 3.133979 1_555
Ge1_1 Ir2_1 2.379621 1_555
Ge1_1 Ge1_3 2.850985 1_555
Ge1_1 Ge1_5 2.850985 1_455
Ge1_1 Ge1_3 2.850985 1_545
Ge1_1 Ge1_5 2.850985 1_555
Ge1_1 Nd0_1 3.133979 1_555
Ge1_2 Ir2_2 2.379621 1_555
Ge1_2 Ge1_6 2.850985 1_455
Ge1_2 Ge1_6 2.850985 1_555
Ge1_2 Nd0_2 3.133979 1_555
Ge1_3 Ir2_3 2.379621 1_555
Ge1_3 Ge1_7 2.850985 1_555
Ge1_3 Ge1_7 2.850985 1_455
Ge1_3 Nd0_3 3.133979 1_555
Ge1_4 Ir2_4 2.379621 1_555
Ge1_4 Ge1_6 2.850985 1_545
Ge1_4 Ge1_6 2.850985 1_555
Ge1_4 Nd0_4 3.133979 1_555
Ge1_5 Ir2_5 2.379621 1_555
Ge1_5 Ge1_7 2.850985 1_555
Ge1_5 Ge1_7 2.850985 1_545
Ge1_5 Nd0_5 3.133979 1_555
Ge1_6 Ir2_6 2.379621 1_555
Ge1_6 Nd0_6 3.133979 1_555
Ge1_7 Ir2_7 2.379621 1_555
Ge1_7 Nd0_7 3.133979 1_555
Ge2_0 Ir1_1 2.406722 1_554
Ge2_0 Ir0_0 2.406722 1_555
Ge2_1 Ir1_0 2.406722 1_555
Ge2_1 Ir0_1 2.406722 1_555
Ge2_2 Ir1_3 2.406722 1_554
Ge2_2 Ir0_2 2.406722 1_555
Ge2_3 Ir1_2 2.406722 1_555
Ge2_3 Ir0_3 2.406722 1_555
Ge2_4 Ir1_5 2.406722 1_554
Ge2_4 Ir0_4 2.406722 1_555
Ge2_5 Ir1_4 2.406722 1_555
Ge2_5 Ir0_5 2.406722 1_555
Ge2_6 Ir1_7 2.406722 1_554
Ge2_6 Ir0_6 2.406722 1_555
Ge2_7 Ir1_6 2.406722 1_555
Ge2_7 Ir0_7 2.406722 1_555
Ir0_0 Nd1_0 2.682632 1_555
Ir0_1 Nd1_1 2.682632 1_555
Ir0_2 Nd1_2 2.682632 1_555
Ir0_3 Nd1_3 2.682632 1_555
Ir0_4 Nd1_4 2.682632 1_555
Ir0_5 Nd1_5 2.682632 1_555
Ir0_6 Nd1_6 2.682632 1_555
Ir0_7 Nd1_7 2.682632 1_555
Ir1_0 Nd0_0 2.682632 1_555
Ir1_1 Nd0_1 2.682632 1_555
Ir1_2 Nd0_2 2.682632 1_555
Ir1_3 Nd0_3 2.682632 1_555
Ir1_4 Nd0_4 2.682632 1_555
Ir1_5 Nd0_5 2.682632 1_555
Ir1_6 Nd0_6 2.682632 1_555
Ir1_7 Nd0_7 2.682632 1_555
