# generated using pymatgen
data_Rb6Ge2O7
_symmetry_space_group_name_H-M   'P 1'
_cell_length_a   9.43984599
_cell_length_b   6.84180546
_cell_length_c   11.55949380
_cell_angle_alpha   55.17761022
_cell_angle_beta   90.00000000
_cell_angle_gamma   90.00000000
_symmetry_Int_Tables_number   1
_chemical_formula_structural   Rb6Ge2O7
_chemical_formula_sum   'Rb12 Ge4 O14'
_cell_volume   612.88433874
_cell_formula_units_Z   2
loop_
 _symmetry_equiv_pos_site_id
 _symmetry_equiv_pos_as_xyz
  1  'x, y, z'
loop_
 _atom_site_type_symbol
 _atom_site_label
 _atom_site_symmetry_multiplicity
 _atom_site_fract_x
 _atom_site_fract_y
 _atom_site_fract_z
 _atom_site_occupancy
  Rb  Rb0  1  0.78528273  0.60073317  0.27913241  1
  Rb  Rb1  1  0.71471727  0.60073317  0.77913241  1
  Rb  Rb2  1  0.21471727  0.39926683  0.72086759  1
  Rb  Rb3  1  0.35250302  0.03541785  0.08348563  1
  Rb  Rb4  1  0.85250302  0.96458215  0.41651437  1
  Rb  Rb5  1  0.64749698  0.96458215  0.91651437  1
  Rb  Rb6  1  0.14749698  0.03541785  0.58348563  1
  Rb  Rb7  1  0.47365598  0.79226784  0.45625568  1
  Rb  Rb8  1  0.97365598  0.20773216  0.04374432  1
  Rb  Rb9  1  0.52634402  0.20773216  0.54374432  1
  Rb  Rb10  1  0.02634402  0.79226784  0.95625568  1
  Rb  Rb11  1  0.28528273  0.39926683  0.22086759  1
  Ge  Ge0  1  0.36159713  0.67789244  0.87200922  1
  Ge  Ge1  1  0.13840287  0.67789244  0.37200922  1
  Ge  Ge2  1  0.63840287  0.32210756  0.12799078  1
  Ge  Ge3  1  0.86159713  0.32210756  0.62799078  1
  O  O0  1  0.28818725  0.49216946  0.43541969  1
  O  O1  1  0.00000000  0.50000000  0.50000000  1
  O  O2  1  0.50000000  0.50000000  -0.00000000  1
  O  O3  1  0.08319541  0.74346645  0.20864807  1
  O  O4  1  0.78818725  0.50783054  0.06458031  1
  O  O5  1  0.71181275  0.50783054  0.56458031  1
  O  O6  1  0.21181275  0.49216946  0.93541969  1
  O  O7  1  0.33924162  0.93303708  0.87231372  1
  O  O8  1  0.83924162  0.06696292  0.62768628  1
  O  O9  1  0.66075838  0.06696292  0.12768628  1
  O  O10  1  0.16075838  0.93303708  0.37231372  1
  O  O11  1  0.41680459  0.74346645  0.70864807  1
  O  O12  1  0.91680459  0.25653355  0.79135193  1
  O  O13  1  0.58319541  0.25653355  0.29135193  1
loop_
_geom_bond_atom_site_label_1
_geom_bond_atom_site_label_2
_geom_bond_distance
_geom_bond_site_symmetry_2
Ge0 O11 1.752501 1_555
Ge0 O6 1.757104 1_555
Ge0 O7 1.760357 1_555
Ge0 O2 1.822277 1_556
Ge1 O3 1.752501 1_555
Ge1 O0 1.757104 1_555
Ge1 O10 1.760357 1_555
Ge1 O1 1.822277 1_555
Ge2 O13 1.752501 1_555
Ge2 O4 1.757104 1_555
Ge2 O9 1.760357 1_555
Ge2 O2 1.822277 1_555
Ge3 O12 1.752501 1_555
Ge3 O5 1.757104 1_555
Ge3 O8 1.760357 1_555
Ge3 O1 1.822277 1_655
O0 Rb9 2.761583 1_555
O0 Rb7 2.811364 1_555
O0 Rb6 2.889710 1_555
O0 Rb11 2.890693 1_555
O0 Rb2 3.062241 1_555
O1 Rb0 3.015316 1_455
O1 Rb2 3.015316 1_555
O1 Rb4 3.077344 1_455
O1 Rb6 3.077344 1_555
O2 Rb1 3.015316 1_554
O2 Rb11 3.015316 1_555
O2 Rb3 3.077344 1_555
O2 Rb5 3.077344 1_554
O3 Rb10 2.792658 1_554
O3 Rb8 2.806662 1_465
O3 Rb0 2.935566 1_455
O3 Rb11 2.970698 1_555
O3 Rb3 3.040645 1_565
O4 Rb10 2.761583 1_654
O4 Rb8 2.811364 1_555
O4 Rb5 2.889710 1_554
O4 Rb0 2.890693 1_555
O4 Rb1 3.062241 1_554
O5 Rb7 2.761583 1_555
O5 Rb9 2.811364 1_555
O5 Rb4 2.889710 1_555
O5 Rb1 2.890693 1_555
O5 Rb0 3.062241 1_555
O6 Rb8 2.761583 1_456
O6 Rb10 2.811364 1_555
O6 Rb3 2.889710 1_556
O6 Rb2 2.890693 1_555
O6 Rb11 3.062241 1_556
O7 Rb2 2.871245 1_565
O7 Rb3 2.901345 1_566
O7 Rb5 2.983454 1_555
O7 Rb10 3.086453 1_555
O8 Rb1 2.871245 1_545
O8 Rb4 2.901345 1_545
O8 Rb6 2.983454 1_655
O8 Rb9 3.086453 1_555
O9 Rb0 2.871245 1_545
O9 Rb5 2.901345 1_544
O9 Rb3 2.983454 1_555
O9 Rb8 3.086453 1_555
O10 Rb11 2.871245 1_565
O10 Rb6 2.901345 1_565
O10 Rb4 2.983454 1_455
O10 Rb7 3.086453 1_555
O11 Rb7 2.792658 1_555
O11 Rb9 2.806662 1_565
O11 Rb1 2.935566 1_555
O11 Rb2 2.970698 1_555
O11 Rb6 3.040645 1_565
O12 Rb8 2.792658 1_556
O12 Rb10 2.806662 1_645
O12 Rb2 2.935566 1_655
O12 Rb1 2.970698 1_555
O12 Rb5 3.040645 1_545
O13 Rb9 2.792658 1_555
O13 Rb7 2.806662 1_545
O13 Rb11 2.935566 1_555
O13 Rb0 2.970698 1_555
O13 Rb4 3.040645 1_545
