# generated using pymatgen
data_KPr(FeO3)4
_symmetry_space_group_name_H-M   'P 1'
_cell_length_a   5.44318253
_cell_length_b   5.44318253
_cell_length_c   7.72595186
_cell_angle_alpha   90.00000000
_cell_angle_beta   90.00000000
_cell_angle_gamma   90.18640293
_symmetry_Int_Tables_number   1
_chemical_formula_structural   KPr(FeO3)4
_chemical_formula_sum   'K1 Pr1 Fe4 O12'
_cell_volume   228.90511394
_cell_formula_units_Z   1
loop_
 _symmetry_equiv_pos_site_id
 _symmetry_equiv_pos_as_xyz
  1  'x, y, z'
loop_
 _atom_site_type_symbol
 _atom_site_label
 _atom_site_symmetry_multiplicity
 _atom_site_fract_x
 _atom_site_fract_y
 _atom_site_fract_z
 _atom_site_occupancy
  K  K0  1  0.00150297  0.00150297  0.00000000  1
  Pr  Pr0  1  0.49940978  0.49940978  0.50000000  1
  Fe  Fe0  1  0.49938256  0.00022339  0.75450512  1
  Fe  Fe1  1  0.49938256  0.00022339  0.24549488  1
  Fe  Fe2  1  0.00022339  0.49938256  0.24549488  1
  Fe  Fe3  1  0.00022339  0.49938256  0.75450512  1
  O  O0  1  0.72916222  0.27004604  0.73929099  1
  O  O1  1  0.27004604  0.72916222  0.73929099  1
  O  O2  1  0.27004604  0.72916222  0.26070901  1
  O  O3  1  0.72916222  0.27004604  0.26070901  1
  O  O4  1  0.75143186  0.75143186  0.75101773  1
  O  O5  1  0.24831188  0.24831188  0.72141658  1
  O  O6  1  0.24831188  0.24831188  0.27858342  1
  O  O7  1  0.75143186  0.75143186  0.24898227  1
  O  O8  1  0.49290974  0.01364516  0.00000000  1
  O  O9  1  0.51433917  0.97987727  0.50000000  1
  O  O10  1  0.01364516  0.49290974  -0.00000000  1
  O  O11  1  0.97987727  0.51433917  0.50000000  1
loop_
_geom_bond_atom_site_label_1
_geom_bond_atom_site_label_2
_geom_bond_distance
_geom_bond_site_symmetry_2
K0 O8 2.675418 1_555
K0 O10 2.675418 1_555
K0 O4 2.719175 1_444
K0 O7 2.719175 1_445
K0 O10 2.769370 1_545
K0 O8 2.769370 1_455
K0 O5 2.868856 1_554
K0 O6 2.868856 1_555
K0 O3 2.899201 1_455
K0 O0 2.899201 1_454
K0 O2 2.899201 1_545
K0 O1 2.899201 1_544
Fe0 O8 1.898420 1_556
Fe0 O0 1.929575 1_555
Fe0 O4 1.931054 1_545
Fe0 O1 1.933144 1_545
Fe0 O5 1.941282 1_555
Fe0 O9 1.971108 1_545
Fe1 O8 1.898420 1_555
Fe1 O3 1.929575 1_555
Fe1 O7 1.931054 1_545
Fe1 O2 1.933144 1_545
Fe1 O6 1.941282 1_555
Fe1 O9 1.971108 1_545
Fe2 O10 1.898420 1_555
Fe2 O2 1.929575 1_555
Fe2 O7 1.931054 1_455
Fe2 O3 1.933144 1_455
Fe2 O6 1.941282 1_555
Fe2 O11 1.971108 1_455
Fe3 O10 1.898420 1_556
Fe3 O1 1.929575 1_555
Fe3 O4 1.931054 1_455
Fe3 O0 1.933144 1_455
Fe3 O5 1.941282 1_555
Fe3 O11 1.971108 1_455
O0 Pr0 2.559428 1_555
O1 Pr0 2.559428 1_555
O2 Pr0 2.559428 1_555
O3 Pr0 2.559428 1_555
O4 Pr0 2.740898 1_555
O5 Pr0 2.578820 1_555
O6 Pr0 2.578820 1_555
O7 Pr0 2.740898 1_555
O9 Pr0 2.616270 1_555
O9 Pr0 2.829342 1_565
O11 Pr0 2.616270 1_555
O11 Pr0 2.829342 1_655
