# generated using pymatgen
data_NaMg14CrO16
_symmetry_space_group_name_H-M   'P 1'
_cell_length_a   8.54936864
_cell_length_b   8.56581296
_cell_length_c   4.27145468
_cell_angle_alpha   90.00000000
_cell_angle_beta   90.00000000
_cell_angle_gamma   90.00000000
_symmetry_Int_Tables_number   1
_chemical_formula_structural   NaMg14CrO16
_chemical_formula_sum   'Na1 Mg14 Cr1 O16'
_cell_volume   312.80841936
_cell_formula_units_Z   1
loop_
 _symmetry_equiv_pos_site_id
 _symmetry_equiv_pos_as_xyz
  1  'x, y, z'
loop_
 _atom_site_type_symbol
 _atom_site_label
 _atom_site_symmetry_multiplicity
 _atom_site_fract_x
 _atom_site_fract_y
 _atom_site_fract_z
 _atom_site_occupancy
  Na  Na0  1  -0.00000000  0.00000000  -0.00000000  1
  Mg  Mg0  1  0.50000000  0.00000000  -0.00000000  1
  Mg  Mg1  1  0.50000000  0.50000000  -0.00000000  1
  Mg  Mg2  1  -0.00000000  0.24138823  0.50000000  1
  Mg  Mg3  1  -0.00000000  0.75861177  0.50000000  1
  Mg  Mg4  1  0.50000000  0.24764964  0.50000000  1
  Mg  Mg5  1  0.50000000  0.75235036  0.50000000  1
  Mg  Mg6  1  0.24723801  0.00000000  0.50000000  1
  Mg  Mg7  1  0.25169516  0.50000000  0.50000000  1
  Mg  Mg8  1  0.75276199  0.00000000  0.50000000  1
  Mg  Mg9  1  0.74830484  0.50000000  0.50000000  1
  Mg  Mg10  1  0.25040133  0.24438718  -0.00000000  1
  Mg  Mg11  1  0.25040133  0.75561282  0.00000000  1
  Mg  Mg12  1  0.74959867  0.24438718  -0.00000000  1
  Mg  Mg13  1  0.74959867  0.75561282  -0.00000000  1
  Cr  Cr0  1  -0.00000000  0.50000000  -0.00000000  1
  O  O0  1  0.26380961  -0.00000000  0.00000000  1
  O  O1  1  0.24190218  0.50000000  -0.00000000  1
  O  O2  1  0.73619039  0.00000000  -0.00000000  1
  O  O3  1  0.75809782  0.50000000  0.00000000  1
  O  O4  1  0.24914434  0.25210780  0.50000000  1
  O  O5  1  0.24914434  0.74789220  0.50000000  1
  O  O6  1  0.75085566  0.25210780  0.50000000  1
  O  O7  1  0.75085566  0.74789220  0.50000000  1
  O  O8  1  -0.00000000  0.00000000  0.50000000  1
  O  O9  1  -0.00000000  0.50000000  0.50000000  1
  O  O10  1  0.50000000  0.00000000  0.50000000  1
  O  O11  1  0.50000000  0.50000000  0.50000000  1
  O  O12  1  -0.00000000  0.26884768  0.00000000  1
  O  O13  1  -0.00000000  0.73115232  -0.00000000  1
  O  O14  1  0.50000000  0.25646382  -0.00000000  1
  O  O15  1  0.50000000  0.74353618  -0.00000000  1
loop_
_geom_bond_atom_site_label_1
_geom_bond_atom_site_label_2
_geom_bond_distance
_geom_bond_site_symmetry_2
Na0 O8 2.135727 1_554
Na0 O8 2.135727 1_555
Na0 O0 2.255406 1_555
Na0 O2 2.255406 1_455
Na0 O12 2.302899 1_555
Na0 O13 2.302899 1_545
Mg0 O0 2.019279 1_555
Mg0 O2 2.019279 1_555
Mg0 O10 2.135727 1_555
Mg0 O10 2.135727 1_554
Mg0 O15 2.196821 1_545
Mg0 O14 2.196821 1_555
Mg1 O14 2.086085 1_555
Mg1 O15 2.086085 1_555
Mg1 O11 2.135727 1_554
Mg1 O11 2.135727 1_555
Mg1 O3 2.206573 1_555
Mg1 O1 2.206573 1_555
Mg2 O8 2.067686 1_555
Mg2 O6 2.132005 1_455
Mg2 O4 2.132005 1_555
Mg2 O12 2.148641 1_555
Mg2 O12 2.148641 1_556
Mg2 O9 2.215220 1_555
Mg3 O8 2.067686 1_565
Mg3 O7 2.132005 1_455
Mg3 O5 2.132005 1_555
Mg3 O13 2.148641 1_555
Mg3 O13 2.148641 1_556
Mg3 O9 2.215220 1_555
Mg4 O10 2.121320 1_555
Mg4 O14 2.137061 1_556
Mg4 O14 2.137061 1_555
Mg4 O6 2.144997 1_555
Mg4 O4 2.144997 1_555
Mg4 O11 2.161586 1_555
Mg5 O10 2.121320 1_565
Mg5 O15 2.137061 1_556
Mg5 O15 2.137061 1_555
Mg5 O7 2.144997 1_555
Mg5 O5 2.144997 1_555
Mg5 O11 2.161586 1_555
Mg6 O8 2.113729 1_555
Mg6 O0 2.140421 1_555
Mg6 O0 2.140421 1_556
Mg6 O4 2.159570 1_555
Mg6 O5 2.159570 1_545
Mg6 O10 2.160955 1_555
Mg7 O11 2.122850 1_555
Mg7 O4 2.123510 1_555
Mg7 O5 2.123510 1_555
Mg7 O1 2.137368 1_556
Mg7 O1 2.137368 1_555
Mg7 O9 2.151835 1_555
Mg8 O8 2.113729 1_655
Mg8 O2 2.140421 1_555
Mg8 O2 2.140421 1_556
Mg8 O6 2.159570 1_555
Mg8 O7 2.159570 1_545
Mg8 O10 2.160955 1_555
Mg9 O11 2.122850 1_555
Mg9 O6 2.123510 1_555
Mg9 O7 2.123510 1_555
Mg9 O3 2.137368 1_556
Mg9 O3 2.137368 1_555
Mg9 O9 2.151835 1_655
Mg10 O0 2.096511 1_555
Mg10 O14 2.136417 1_555
Mg10 O4 2.136778 1_554
Mg10 O4 2.136778 1_555
Mg10 O12 2.151002 1_555
Mg10 O1 2.190737 1_555
Mg11 O0 2.096511 1_565
Mg11 O15 2.136417 1_555
Mg11 O5 2.136778 1_554
Mg11 O5 2.136778 1_555
Mg11 O13 2.151002 1_555
Mg11 O1 2.190737 1_555
Mg12 O2 2.096511 1_555
Mg12 O14 2.136417 1_555
Mg12 O6 2.136778 1_555
Mg12 O6 2.136778 1_554
Mg12 O12 2.151002 1_655
Mg12 O3 2.190737 1_555
Mg13 O2 2.096511 1_565
Mg13 O15 2.136417 1_555
Mg13 O7 2.136778 1_554
Mg13 O7 2.136778 1_555
Mg13 O13 2.151002 1_655
Mg13 O3 2.190737 1_555
Cr0 O13 1.980008 1_555
Cr0 O12 1.980008 1_555
Cr0 O3 2.068111 1_455
Cr0 O1 2.068111 1_555
Cr0 O9 2.135727 1_555
Cr0 O9 2.135727 1_554
