# generated using pymatgen
data_Mg5Si6
_symmetry_space_group_name_H-M   'P 1'
_cell_length_a   4.32263800
_cell_length_b   7.39150800
_cell_length_c   12.64672230
_cell_angle_alpha   83.86243305
_cell_angle_beta   90.00000000
_cell_angle_gamma   90.00000000
_symmetry_Int_Tables_number   1
_chemical_formula_structural   Mg5Si6
_chemical_formula_sum   'Mg10 Si12'
_cell_volume   401.75693975
_cell_formula_units_Z   2
loop_
 _symmetry_equiv_pos_site_id
 _symmetry_equiv_pos_as_xyz
  1  'x, y, z'
loop_
 _atom_site_type_symbol
 _atom_site_label
 _atom_site_symmetry_multiplicity
 _atom_site_fract_x
 _atom_site_fract_y
 _atom_site_fract_z
 _atom_site_occupancy
  Mg  Mg0  1  0.50000000  0.98586100  0.94736500  1
  Mg  Mg1  1  0.50000000  0.92675500  0.52440200  1
  Mg  Mg2  1  0.00000000  0.64992800  0.66199800  1
  Mg  Mg3  1  0.00000000  0.49224000  0.30471300  1
  Mg  Mg4  1  0.00000000  0.81419800  0.14302300  1
  Mg  Mg5  1  0.00000000  0.28358800  0.82609700  1
  Mg  Mg6  1  0.00000000  0.24156200  0.57332000  1
  Mg  Mg7  1  0.00000000  0.06598400  0.33368400  1
  Mg  Mg8  1  0.00000000  0.24982200  0.08338500  1
  Mg  Mg9  1  0.00000000  0.63193100  0.95031600  1
  Si  Si0  1  0.50000000  0.38368400  0.95206700  1
  Si  Si1  1  0.50000000  0.57559600  0.10580800  1
  Si  Si2  1  0.00000000  0.72734700  0.44659600  1
  Si  Si3  1  0.50000000  0.55059500  0.50254100  1
  Si  Si4  1  0.50000000  0.07359500  0.71728100  1
  Si  Si5  1  0.50000000  0.02603200  0.16670700  1
  Si  Si6  1  0.50000000  0.27040300  0.42229700  1
  Si  Si7  1  0.50000000  0.40794900  0.68488700  1
  Si  Si8  1  0.50000000  0.64366700  0.81056900  1
  Si  Si9  1  0.50000000  0.31046400  0.23130400  1
  Si  Si10  1  0.50000000  0.77997700  0.31569100  1
  Si  Si11  1  0.00000000  0.91609100  0.79244700  1
loop_
_geom_bond_atom_site_label_1
_geom_bond_atom_site_label_2
_geom_bond_distance
_geom_bond_site_symmetry_2
Mg0 Si5 2.821193 1_566
Mg0 Si4 2.912735 1_565
Mg0 Si0 2.947463 1_565
Mg0 Si11 2.998631 1_555
Mg0 Si11 2.998631 1_655
Mg1 Si6 2.723612 1_565
Mg1 Si4 2.773855 1_565
Mg1 Si3 2.823362 1_555
Mg1 Si2 2.849934 1_555
Mg1 Si2 2.849934 1_655
Mg1 Si10 2.959118 1_555
Mg2 Si11 2.699287 1_555
Mg2 Si2 2.723051 1_555
Mg2 Si7 2.800614 1_455
Mg2 Si7 2.800614 1_555
Mg2 Si8 2.860987 1_455
Mg2 Si8 2.860987 1_555
Mg2 Si3 3.097369 1_555
Mg2 Si3 3.097369 1_455
Mg3 Si2 2.628006 1_555
Mg3 Si9 2.757749 1_455
Mg3 Si9 2.757749 1_555
Mg3 Si6 3.008302 1_555
Mg3 Si6 3.008302 1_455
Mg3 Si10 3.045823 1_555
Mg3 Si10 3.045823 1_455
Mg4 Si5 2.704246 1_465
Mg4 Si5 2.704246 1_565
Mg4 Si1 2.860190 1_455
Mg4 Si1 2.860190 1_555
Mg4 Si10 3.063600 1_455
Mg4 Si10 3.063600 1_555
Mg5 Si11 2.794080 1_545
Mg5 Si0 2.829969 1_455
Mg5 Si0 2.829969 1_555
Mg5 Si7 2.890411 1_455
Mg5 Si7 2.890411 1_555
Mg5 Si4 3.071010 1_555
Mg5 Si4 3.071010 1_455
Mg6 Si6 2.877077 1_555
Mg6 Si6 2.877077 1_455
Mg6 Si7 2.923301 1_455
Mg6 Si7 2.923301 1_555
Mg6 Si4 3.007335 1_455
Mg6 Si4 3.007335 1_555
Mg6 Si3 3.202029 1_455
Mg6 Si3 3.202029 1_555
Mg7 Si2 2.745906 1_545
Mg7 Si6 2.927846 1_455
Mg7 Si6 2.927846 1_555
Mg7 Si9 3.018765 1_555
Mg7 Si9 3.018765 1_455
Mg7 Si10 3.048776 1_545
Mg7 Si10 3.048776 1_445
Mg7 Si5 3.057969 1_555
Mg7 Si5 3.057969 1_455
Mg8 Si0 2.838484 1_554
Mg8 Si0 2.838484 1_454
Mg8 Si5 2.853974 1_455
Mg8 Si5 2.853974 1_555
Mg8 Si9 2.924209 1_455
Mg8 Si9 2.924209 1_555
Mg9 Si11 2.738792 1_555
Mg9 Si8 2.787389 1_455
Mg9 Si8 2.787389 1_555
Mg9 Si0 2.833731 1_455
Mg9 Si0 2.833731 1_555
Mg9 Si1 2.921742 1_556
Mg9 Si1 2.921742 1_456
Si0 Si8 2.481882 1_555
Si0 Si1 2.526329 1_556
Si1 Si9 2.386288 1_555
Si2 Si3 2.584778 1_455
Si2 Si3 2.584778 1_555
Si3 Si6 2.401770 1_555
Si3 Si7 2.431002 1_555
Si4 Si7 2.461515 1_555
Si5 Si9 2.335521 1_555
Si6 Si9 2.401889 1_555
Si7 Si8 2.480771 1_555
Si10 Si5 2.474882 1_565
Si10 Si2 2.725007 1_555
Si10 Si2 2.725007 1_655
Si10 Si3 2.757153 1_555
Si11 Si4 2.587208 1_565
Si11 Si4 2.587208 1_465
