# generated using pymatgen
data_Li2AgSn2
_symmetry_space_group_name_H-M   'P 1'
_cell_length_a   10.54667469
_cell_length_b   10.54667469
_cell_length_c   10.54667469
_cell_angle_alpha   154.97307370
_cell_angle_beta   154.97307370
_cell_angle_gamma   35.68677945
_symmetry_Int_Tables_number   1
_chemical_formula_structural   Li2AgSn2
_chemical_formula_sum   'Li4 Ag2 Sn4'
_cell_volume   209.69617008
_cell_formula_units_Z   2
loop_
 _symmetry_equiv_pos_site_id
 _symmetry_equiv_pos_as_xyz
  1  'x, y, z'
loop_
 _atom_site_type_symbol
 _atom_site_label
 _atom_site_symmetry_multiplicity
 _atom_site_fract_x
 _atom_site_fract_y
 _atom_site_fract_z
 _atom_site_occupancy
  Li  Li0  1  0.32554913  0.32554913  -0.00000000  1
  Li  Li1  1  0.07554913  0.57554913  0.50000000  1
  Li  Li2  1  0.42445087  0.92445087  0.50000000  1
  Li  Li3  1  0.67445087  0.67445087  0.00000000  1
  Ag  Ag0  1  0.25000000  0.75000000  0.50000000  1
  Ag  Ag1  1  0.50000000  0.50000000  0.00000000  1
  Sn  Sn0  1  0.82845046  0.82845046  0.00000000  1
  Sn  Sn1  1  0.57845046  0.07845046  0.50000000  1
  Sn  Sn2  1  0.92154954  0.42154954  0.50000000  1
  Sn  Sn3  1  0.17154954  0.17154954  -0.00000000  1
loop_
_geom_bond_atom_site_label_1
_geom_bond_atom_site_label_2
_geom_bond_distance
_geom_bond_site_symmetry_2
Li0 Sn2 2.989541 1_555
Li0 Sn2 2.989541 1_454
Li0 Li2 3.027430 1_544
Li0 Li2 3.027430 1_555
Li0 Sn3 3.092113 1_555
Li0 Sn0 3.232198 1_545
Li0 Sn0 3.232198 1_556
Li0 Sn0 3.232198 1_444
Li0 Sn0 3.232198 1_455
Li1 Sn3 2.989541 1_566
Li1 Sn3 2.989541 1_555
Li1 Li3 3.027430 1_556
Li1 Li3 3.027430 1_455
Li1 Sn2 3.092113 1_455
Li1 Sn1 3.232198 1_454
Li1 Sn1 3.232198 1_566
Li1 Sn1 3.232198 1_555
Li1 Sn1 3.232198 1_465
Li2 Sn0 2.989541 1_455
Li2 Sn0 2.989541 1_556
Li2 Sn1 3.092113 1_565
Li2 Sn2 3.232198 1_454
Li2 Sn2 3.232198 1_555
Li2 Sn2 3.232198 1_465
Li2 Sn2 3.232198 1_566
Li3 Sn1 2.989541 1_565
Li3 Sn1 2.989541 1_554
Li3 Sn0 3.092113 1_555
Li3 Sn3 3.232198 1_554
Li3 Sn3 3.232198 1_666
Li3 Sn3 3.232198 1_655
Li3 Sn3 3.232198 1_565
Ag0 Li0 2.742796 1_566
Ag0 Li3 2.742796 1_455
Ag0 Li3 2.742796 1_556
Ag0 Li0 2.742796 1_555
Ag0 Sn3 2.775438 1_555
Ag0 Sn0 2.775438 1_556
Ag0 Sn0 2.775438 1_455
Ag0 Sn3 2.775438 1_566
Ag1 Li1 2.742796 1_655
Ag1 Li2 2.742796 1_555
Ag1 Li2 2.742796 1_544
Ag1 Li1 2.742796 1_554
Ag1 Sn1 2.775438 1_565
Ag1 Sn2 2.775438 1_555
Ag1 Sn2 2.775438 1_454
Ag1 Sn1 2.775438 1_554
Sn0 Sn2 2.952316 1_554
Sn0 Sn2 2.952316 1_565
Sn1 Sn3 2.952316 1_656
Sn1 Sn3 2.952316 1_555
