# generated using pymatgen
data_NiNCl3
_symmetry_space_group_name_H-M   'P 1'
_cell_length_a   6.27678366
_cell_length_b   6.27678366
_cell_length_c   5.69647900
_cell_angle_alpha   90.00000000
_cell_angle_beta   90.00000000
_cell_angle_gamma   119.99999637
_symmetry_Int_Tables_number   1
_chemical_formula_structural   NiNCl3
_chemical_formula_sum   'Ni2 N2 Cl6'
_cell_volume   194.36204866
_cell_formula_units_Z   2
loop_
 _symmetry_equiv_pos_site_id
 _symmetry_equiv_pos_as_xyz
  1  'x, y, z'
loop_
 _atom_site_type_symbol
 _atom_site_label
 _atom_site_symmetry_multiplicity
 _atom_site_fract_x
 _atom_site_fract_y
 _atom_site_fract_z
 _atom_site_occupancy
  Ni  Ni0  1  0.00000000  0.00000000  0.00000000  1
  Ni  Ni1  1  0.00000000  0.00000000  0.50000000  1
  N  N0  1  0.33333300  0.66666700  0.75000000  1
  N  N1  1  0.66666700  0.33333300  0.25000000  1
  Cl  Cl0  1  0.16393600  0.32787300  0.25000000  1
  Cl  Cl1  1  0.83606400  0.67212700  0.75000000  1
  Cl  Cl2  1  0.67212700  0.83606400  0.25000000  1
  Cl  Cl3  1  0.32787300  0.16393600  0.75000000  1
  Cl  Cl4  1  0.16393600  0.83606400  0.25000000  1
  Cl  Cl5  1  0.83606400  0.16393600  0.75000000  1
loop_
_geom_bond_atom_site_label_1
_geom_bond_atom_site_label_2
_geom_bond_distance
_geom_bond_site_symmetry_2
Cl0 Ni1 2.281360 1_555
Cl0 Ni0 2.281360 1_555
Cl1 Ni1 2.281360 1_665
Cl1 Ni0 2.281360 1_666
Cl2 Ni1 2.281360 1_665
Cl2 Ni0 2.281360 1_665
Cl3 Ni0 2.281360 1_556
Cl3 Ni1 2.281360 1_555
Cl4 Ni0 2.281356 1_565
Cl4 Ni1 2.281356 1_565
Cl5 Ni0 2.281356 1_656
Cl5 Ni1 2.281356 1_655
