# generated using pymatgen
data_Ba2Si3Au
_symmetry_space_group_name_H-M   'P 1'
_cell_length_a   4.26644951
_cell_length_b   4.26644903
_cell_length_c   10.14922302
_cell_angle_alpha   90.00000234
_cell_angle_beta   89.99999882
_cell_angle_gamma   120.00000576
_symmetry_Int_Tables_number   1
_chemical_formula_structural   Ba2Si3Au
_chemical_formula_sum   'Ba2 Si3 Au1'
_cell_volume   159.99137642
_cell_formula_units_Z   1
loop_
 _symmetry_equiv_pos_site_id
 _symmetry_equiv_pos_as_xyz
  1  'x, y, z'
loop_
 _atom_site_type_symbol
 _atom_site_label
 _atom_site_symmetry_multiplicity
 _atom_site_fract_x
 _atom_site_fract_y
 _atom_site_fract_z
 _atom_site_occupancy
  Ba  Ba0  1  0.66666677  0.33333320  0.24912318  1
  Ba  Ba1  1  0.66666686  0.33333328  0.75089936  1
  Si  Si0  1  -0.00000014  0.00000005  0.50002254  1
  Si  Si1  1  0.33333325  0.66666676  0.00002624  1
  Si  Si2  1  0.33333335  0.66666672  0.50002242  1
  Au  Au0  1  -0.00000009  -0.00000002  -0.00009274  1
loop_
_geom_bond_atom_site_label_1
_geom_bond_atom_site_label_2
_geom_bond_distance
_geom_bond_site_symmetry_2
Ba0 Si1 3.529733 1_545
Ba0 Si1 3.529734 1_655
Ba0 Si1 3.529735 1_555
Ba0 Si2 3.542858 1_545
Ba0 Si2 3.542858 1_655
Ba0 Si0 3.542859 1_655
Ba0 Si2 3.542859 1_555
Ba0 Si0 3.542860 1_665
Ba0 Si0 3.542860 1_555
Ba1 Si1 3.529951 1_656
Ba1 Si1 3.529951 1_546
Ba1 Si1 3.529953 1_556
Ba1 Si0 3.542694 1_655
Ba1 Si0 3.542695 1_665
Ba1 Si2 3.542695 1_545
Ba1 Si2 3.542696 1_655
Ba1 Si0 3.542696 1_555
Ba1 Si2 3.542697 1_555
Si0 Si2 2.463235 1_445
Si0 Si2 2.463235 1_555
Si0 Si2 2.463236 1_545
Au0 Si1 2.463236 1_545
Au0 Si1 2.463236 1_445
Au0 Si1 2.463236 1_555
Au0 Ba1 3.529086 1_454
Au0 Ba1 3.529087 1_444
Au0 Ba1 3.529088 1_554
Au0 Ba0 3.530598 1_455
Au0 Ba0 3.530599 1_445
Au0 Ba0 3.530600 1_555
