# generated using pymatgen
data_MoN
_symmetry_space_group_name_H-M   'P 1'
_cell_length_a   6.06801132
_cell_length_b   6.06801132
_cell_length_c   5.10971034
_cell_angle_alpha   82.97206828
_cell_angle_beta   82.97206828
_cell_angle_gamma   100.37359593
_symmetry_Int_Tables_number   1
_chemical_formula_structural   MoN
_chemical_formula_sum   'Mo8 N8'
_cell_volume   181.65775237
_cell_formula_units_Z   8
loop_
 _symmetry_equiv_pos_site_id
 _symmetry_equiv_pos_as_xyz
  1  'x, y, z'
loop_
 _atom_site_type_symbol
 _atom_site_label
 _atom_site_symmetry_multiplicity
 _atom_site_fract_x
 _atom_site_fract_y
 _atom_site_fract_z
 _atom_site_occupancy
  Mo  Mo0  1  0.87505200  0.87505200  0.76790000  1
  Mo  Mo1  1  0.12494800  0.12494800  0.23210000  1
  Mo  Mo2  1  0.39850400  0.02530100  0.72732600  1
  Mo  Mo3  1  0.02530100  0.39850400  0.72732600  1
  Mo  Mo4  1  0.51650000  0.51650000  0.74029100  1
  Mo  Mo5  1  0.60149600  0.97469900  0.27267400  1
  Mo  Mo6  1  0.97469900  0.60149600  0.27267400  1
  Mo  Mo7  1  0.48350000  0.48350000  0.25970900  1
  N  N0  1  0.31440000  0.68560000  0.50000000  1
  N  N1  1  0.68560000  0.31440000  0.50000000  1
  N  N2  1  0.20015000  0.45779500  0.04998900  1
  N  N3  1  0.54220500  0.79985000  0.95001100  1
  N  N4  1  0.13114000  0.86886000  0.00000000  1
  N  N5  1  0.45779500  0.20015000  0.04998900  1
  N  N6  1  0.86886000  0.13114000  0.00000000  1
  N  N7  1  0.79985000  0.54220500  0.95001100  1
loop_
_geom_bond_atom_site_label_1
_geom_bond_atom_site_label_2
_geom_bond_distance
_geom_bond_site_symmetry_2
Mo0 N7 2.063411 1_555
Mo0 N3 2.063411 1_555
Mo0 N6 2.069726 1_566
Mo0 N4 2.069726 1_656
Mo1 N2 2.063411 1_555
Mo1 N5 2.063411 1_555
Mo1 N4 2.069726 1_545
Mo1 N6 2.069726 1_455
Mo2 N4 2.010730 1_546
Mo2 N3 2.053795 1_545
Mo2 N5 2.099793 1_556
Mo2 N1 2.316714 1_555
Mo2 N0 2.492151 1_545
Mo3 N6 2.010730 1_456
Mo3 N7 2.053795 1_455
Mo3 N2 2.099793 1_556
Mo3 N0 2.316714 1_555
Mo3 N1 2.492151 1_455
Mo4 N3 2.126993 1_555
Mo4 N7 2.126993 1_555
Mo4 N0 2.139551 1_555
Mo4 N1 2.139551 1_555
Mo4 N5 2.277820 1_556
Mo4 N2 2.277820 1_556
Mo5 N6 2.010730 1_565
Mo5 N5 2.053795 1_565
Mo5 N3 2.099793 1_554
Mo5 N0 2.316714 1_555
Mo5 N1 2.492151 1_565
Mo6 N4 2.010730 1_655
Mo6 N2 2.053795 1_655
Mo6 N7 2.099793 1_554
Mo6 N1 2.316714 1_555
Mo6 N0 2.492151 1_655
Mo7 N2 2.126993 1_555
Mo7 N5 2.126993 1_555
Mo7 N0 2.139551 1_555
Mo7 N1 2.139551 1_555
Mo7 N3 2.277820 1_554
Mo7 N7 2.277820 1_554
