# generated using pymatgen
data_Mg7(SiO3)8
_symmetry_space_group_name_H-M   'P 1'
_cell_length_a   10.35796616
_cell_length_b   10.35796616
_cell_length_c   5.36205965
_cell_angle_alpha   84.35268956
_cell_angle_beta   84.35268956
_cell_angle_gamma   124.81235426
_symmetry_Int_Tables_number   1
_chemical_formula_structural   Mg7(SiO3)8
_chemical_formula_sum   'Mg7 Si8 O24'
_cell_volume   461.53969912
_cell_formula_units_Z   1
loop_
 _symmetry_equiv_pos_site_id
 _symmetry_equiv_pos_as_xyz
  1  'x, y, z'
loop_
 _atom_site_type_symbol
 _atom_site_label
 _atom_site_symmetry_multiplicity
 _atom_site_fract_x
 _atom_site_fract_y
 _atom_site_fract_z
 _atom_site_occupancy
  Mg  Mg0  1  0.74440600  0.25559400  0.50000000  1
  Mg  Mg1  1  0.25559400  0.74440600  0.50000000  1
  Mg  Mg2  1  0.82169100  0.17830900  0.00000000  1
  Mg  Mg3  1  0.17830900  0.82169100  0.00000000  1
  Mg  Mg4  1  0.00000000  0.00000000  0.00000000  1
  Mg  Mg5  1  0.90827900  0.09172100  0.50000000  1
  Mg  Mg6  1  0.09172100  0.90827900  0.50000000  1
  Si  Si0  1  0.62914100  0.79715700  0.27431800  1
  Si  Si1  1  0.37085900  0.20284300  0.72568200  1
  Si  Si2  1  0.20284300  0.37085900  0.72568200  1
  Si  Si3  1  0.79715700  0.62914100  0.27431800  1
  Si  Si4  1  0.46790100  0.12846600  0.21991800  1
  Si  Si5  1  0.53209900  0.87153400  0.78008200  1
  Si  Si6  1  0.87153400  0.53209900  0.78008200  1
  Si  Si7  1  0.12846600  0.46790100  0.21991800  1
  O  O0  1  0.46916500  0.23089000  0.44212400  1
  O  O1  1  0.53083500  0.76911000  0.55787600  1
  O  O2  1  0.76911000  0.53083500  0.55787600  1
  O  O3  1  0.23089000  0.46916500  0.44212400  1
  O  O4  1  0.65775500  0.65775500  0.26992800  1
  O  O5  1  0.34224500  0.34224500  0.73007200  1
  O  O6  1  0.90657200  0.90657200  0.68468200  1
  O  O7  1  0.09342800  0.09342800  0.31531800  1
  O  O8  1  0.51830300  0.78306200  0.06549700  1
  O  O9  1  0.48169700  0.21693800  0.93450300  1
  O  O10  1  0.21693800  0.48169700  0.93450300  1
  O  O11  1  0.78306200  0.51830300  0.06549700  1
  O  O12  1  0.62698100  0.13625600  0.23207600  1
  O  O13  1  0.37301900  0.86374400  0.76792400  1
  O  O14  1  0.86374400  0.37301900  0.76792400  1
  O  O15  1  0.13625600  0.62698100  0.23207600  1
  O  O16  1  0.79948300  0.97462300  0.20709100  1
  O  O17  1  0.20051700  0.02537700  0.79290900  1
  O  O18  1  0.02537700  0.20051700  0.79290900  1
  O  O19  1  0.97462300  0.79948300  0.20709100  1
  O  O20  1  0.29747600  0.94754500  0.28506000  1
  O  O21  1  0.70252400  0.05245500  0.71494000  1
  O  O22  1  0.05245500  0.70252400  0.71494000  1
  O  O23  1  0.94754500  0.29747600  0.28506000  1
loop_
_geom_bond_atom_site_label_1
_geom_bond_atom_site_label_2
_geom_bond_distance
_geom_bond_site_symmetry_2
Mg0 O14 2.011954 1_555
Mg0 O12 2.011954 1_555
Mg0 O23 2.079878 1_555
Mg0 O21 2.079878 1_555
Mg1 O15 2.011954 1_555
Mg1 O13 2.011954 1_555
Mg1 O20 2.079878 1_555
Mg1 O22 2.079878 1_555
Mg2 O12 2.049904 1_555
Mg2 O14 2.049904 1_554
Mg2 O21 2.117907 1_554
Mg2 O23 2.117907 1_555
Mg2 O18 2.161400 1_654
Mg2 O16 2.161400 1_545
Mg3 O15 2.049904 1_555
Mg3 O13 2.049904 1_554
Mg3 O22 2.117907 1_554
Mg3 O20 2.117907 1_555
Mg3 O19 2.161400 1_455
Mg3 O17 2.161400 1_564
Mg4 O6 2.075185 1_444
Mg4 O7 2.075185 1_555
Mg4 O19 2.116881 1_445
Mg4 O16 2.116881 1_445
Mg4 O18 2.116881 1_554
Mg4 O17 2.116881 1_554
Mg5 O6 2.059821 1_545
Mg5 O7 2.059821 1_655
Mg5 O16 2.090561 1_545
Mg5 O18 2.090561 1_655
Mg5 O21 2.114330 1_555
Mg5 O23 2.114330 1_555
Mg6 O6 2.059821 1_455
Mg6 O7 2.059821 1_565
Mg6 O19 2.090561 1_455
Mg6 O17 2.090561 1_565
Mg6 O22 2.114330 1_555
Mg6 O20 2.114330 1_555
O0 Si1 1.644271 1_555
O0 Si4 1.667725 1_555
O1 Si0 1.644271 1_555
O1 Si5 1.667725 1_555
O2 Si3 1.644271 1_555
O2 Si6 1.667725 1_555
O3 Si2 1.644271 1_555
O3 Si7 1.667725 1_555
O4 Si0 1.633172 1_555
O4 Si3 1.633172 1_555
O5 Si2 1.633172 1_555
O5 Si1 1.633172 1_555
O8 Si0 1.639175 1_555
O8 Si5 1.653414 1_554
O9 Si1 1.639175 1_555
O9 Si4 1.653414 1_556
O10 Si2 1.639175 1_555
O10 Si7 1.653414 1_556
O11 Si3 1.639175 1_555
O11 Si6 1.653414 1_554
O12 Si4 1.611272 1_555
O13 Si5 1.611272 1_555
O14 Si6 1.611272 1_555
O15 Si7 1.611272 1_555
O16 Si0 1.631948 1_555
O17 Si1 1.631948 1_555
O18 Si2 1.631948 1_555
O19 Si3 1.631948 1_555
O20 Si4 1.650053 1_565
O21 Si5 1.650053 1_545
O22 Si6 1.650053 1_455
O23 Si7 1.650053 1_655
