# generated using pymatgen
data_CaMnFeBiO6
_symmetry_space_group_name_H-M   'P 1'
_cell_length_a   5.42584118
_cell_length_b   5.54370200
_cell_length_c   7.73231323
_cell_angle_alpha   90.00003549
_cell_angle_beta   90.02866618
_cell_angle_gamma   89.99997910
_symmetry_Int_Tables_number   1
_chemical_formula_structural   CaMnFeBiO6
_chemical_formula_sum   'Ca2 Mn2 Fe2 Bi2 O12'
_cell_volume   232.58212726
_cell_formula_units_Z   2
loop_
 _symmetry_equiv_pos_site_id
 _symmetry_equiv_pos_as_xyz
  1  'x, y, z'
loop_
 _atom_site_type_symbol
 _atom_site_label
 _atom_site_symmetry_multiplicity
 _atom_site_fract_x
 _atom_site_fract_y
 _atom_site_fract_z
 _atom_site_occupancy
  Ca  Ca0  1  0.50941800  0.54645300  0.25013200  1
  Ca  Ca1  1  0.00941700  0.95354700  0.75013300  1
  Mn  Mn0  1  0.99973500  0.50102200  0.49946400  1
  Mn  Mn1  1  0.49973500  0.99898000  0.99946300  1
  Fe  Fe0  1  0.00018600  0.50256300  0.00075800  1
  Fe  Fe1  1  0.50018600  0.99743500  0.50075600  1
  Bi  Bi0  1  0.99269900  0.04850600  0.24926200  1
  Bi  Bi1  1  0.49269800  0.45149400  0.74926200  1
  O  O0  1  0.78973000  0.79792000  0.04061200  1
  O  O1  1  0.71005300  0.29814600  0.45956300  1
  O  O2  1  0.20022400  0.21209700  0.54177900  1
  O  O3  1  0.30014700  0.71126100  0.95847700  1
  O  O4  1  0.21005400  0.20185400  0.95956300  1
  O  O5  1  0.28973000  0.70208000  0.54061400  1
  O  O6  1  0.80014900  0.78873900  0.45847700  1
  O  O7  1  0.70022500  0.28790100  0.04177800  1
  O  O8  1  0.41865400  0.97669300  0.24516200  1
  O  O9  1  0.07915500  0.47942100  0.25479200  1
  O  O10  1  0.57915400  0.02057800  0.75479100  1
  O  O11  1  0.91865200  0.52330700  0.74516300  1
loop_
_geom_bond_atom_site_label_1
_geom_bond_atom_site_label_2
_geom_bond_distance
_geom_bond_site_symmetry_2
Ca0 O9 2.364222 1_555
Ca0 O1 2.387591 1_555
Ca0 O7 2.392373 1_555
Ca0 O8 2.435733 1_555
Ca0 O0 2.623687 1_555
Ca0 O6 2.623967 1_555
Ca0 O3 2.684635 1_554
Ca0 O5 2.685668 1_555
Ca1 O10 2.364220 1_465
Ca1 O4 2.387590 1_565
Ca1 O2 2.392368 1_565
Ca1 O11 2.435734 1_455
Ca1 O5 2.623683 1_555
Ca1 O3 2.623960 1_555
Ca1 O6 2.684634 1_455
Ca1 O0 2.685648 1_456
Mn0 O9 1.944238 1_655
Mn0 O6 1.953688 1_555
Mn0 O5 1.954197 1_655
Mn0 O11 1.954219 1_555
Mn0 O1 1.957058 1_555
Mn0 O2 1.963553 1_655
Mn1 O10 1.944235 1_565
Mn1 O3 1.953702 1_555
Mn1 O0 1.954201 1_556
Mn1 O8 1.954217 1_556
Mn1 O4 1.957045 1_565
Mn1 O7 1.963539 1_566
Fe0 O9 2.014340 1_555
Fe0 O0 2.019960 1_455
Fe0 O3 2.023576 1_554
Fe0 O11 2.028295 1_454
Fe0 O7 2.041118 1_455
Fe0 O4 2.043896 1_554
Fe1 O10 2.014346 1_565
Fe1 O5 2.019956 1_555
Fe1 O6 2.023575 1_555
Fe1 O8 2.028285 1_555
Fe1 O2 2.041125 1_565
Fe1 O1 2.043901 1_565
Bi0 O8 2.345432 1_645
Bi0 O0 2.396607 1_545
Bi0 O6 2.404994 1_545
Bi0 O9 2.434858 1_655
Bi0 O7 2.617427 1_555
Bi0 O1 2.629430 1_555
Bi0 O4 2.670948 1_654
Bi0 O2 2.683967 1_655
Bi1 O11 2.345426 1_555
Bi1 O5 2.396595 1_555
Bi1 O3 2.404995 1_555
Bi1 O10 2.434863 1_555
Bi1 O2 2.617428 1_555
Bi1 O4 2.629425 1_555
Bi1 O1 2.670947 1_555
Bi1 O7 2.683969 1_556
