# generated using pymatgen
data_Ba2CoO4
_symmetry_space_group_name_H-M   'P 1'
_cell_length_a   5.88745294
_cell_length_b   7.67998756
_cell_length_c   10.50778733
_cell_angle_alpha   90.00000000
_cell_angle_beta   90.00000000
_cell_angle_gamma   90.00000000
_symmetry_Int_Tables_number   1
_chemical_formula_structural   Ba2CoO4
_chemical_formula_sum   'Ba8 Co4 O16'
_cell_volume   475.11554459
_cell_formula_units_Z   4
loop_
 _symmetry_equiv_pos_site_id
 _symmetry_equiv_pos_as_xyz
  1  'x, y, z'
loop_
 _atom_site_type_symbol
 _atom_site_label
 _atom_site_symmetry_multiplicity
 _atom_site_fract_x
 _atom_site_fract_y
 _atom_site_fract_z
 _atom_site_occupancy
  Ba  Ba0  1  0.25000000  0.85246912  0.42086063  1
  Ba  Ba1  1  0.75000000  0.14753088  0.57913937  1
  Ba  Ba2  1  0.25000000  0.35246912  0.07913937  1
  Ba  Ba3  1  0.75000000  0.64753088  0.92086063  1
  Ba  Ba4  1  0.25000000  0.01107034  0.81129986  1
  Ba  Ba5  1  0.75000000  0.98892966  0.18870014  1
  Ba  Ba6  1  0.25000000  0.51107034  0.68870014  1
  Ba  Ba7  1  0.75000000  0.48892966  0.31129986  1
  Co  Co0  1  0.25000000  0.27497272  0.42204873  1
  Co  Co1  1  0.75000000  0.72502728  0.57795127  1
  Co  Co2  1  0.25000000  0.77497272  0.07795127  1
  Co  Co3  1  0.75000000  0.22502728  0.92204873  1
  O  O0  1  0.49774711  0.68373477  0.14939575  1
  O  O1  1  -0.00225289  0.31626523  0.85060425  1
  O  O2  1  0.00225289  0.18373477  0.35060425  1
  O  O3  1  0.50225289  0.81626523  0.64939575  1
  O  O4  1  0.50225289  0.31626523  0.85060425  1
  O  O5  1  0.00225289  0.68373477  0.14939575  1
  O  O6  1  -0.00225289  0.81626523  0.64939575  1
  O  O7  1  0.49774711  0.18373477  0.35060425  1
  O  O8  1  0.25000000  0.18947962  0.58276847  1
  O  O9  1  0.75000000  0.81052038  0.41723153  1
  O  O10  1  0.25000000  0.68947962  0.91723153  1
  O  O11  1  0.75000000  0.31052038  0.08276847  1
  O  O12  1  0.75000000  0.99336886  0.91540639  1
  O  O13  1  0.25000000  0.00663114  0.08459361  1
  O  O14  1  0.75000000  0.49336886  0.58459361  1
  O  O15  1  0.25000000  0.50663114  0.41540639  1
loop_
_geom_bond_atom_site_label_1
_geom_bond_atom_site_label_2
_geom_bond_distance
_geom_bond_site_symmetry_2
Ba0 O15 2.656650 1_555
Ba0 O3 2.837186 1_555
Ba0 O6 2.837186 1_555
Ba0 O9 2.961549 1_555
Ba0 O9 2.961549 1_455
Ba0 O2 3.024076 1_565
Ba0 O7 3.024076 1_565
Ba0 O8 3.097316 1_565
Ba1 O14 2.656650 1_555
Ba1 O2 2.837186 1_655
Ba1 O7 2.837186 1_555
Ba1 O8 2.961549 1_555
Ba1 O8 2.961549 1_655
Ba1 O3 3.024076 1_545
Ba1 O6 3.024076 1_645
Ba1 O9 3.097316 1_545
Ba2 O13 2.656650 1_555
Ba2 O4 2.837186 1_554
Ba2 O1 2.837186 1_554
Ba2 O11 2.961549 1_555
Ba2 O11 2.961549 1_455
Ba2 O0 3.024076 1_555
Ba2 O5 3.024076 1_555
Ba2 O10 3.097316 1_554
Ba3 O12 2.656650 1_555
Ba3 O0 2.837186 1_556
Ba3 O5 2.837186 1_656
Ba3 O10 2.961549 1_555
Ba3 O10 2.961549 1_655
Ba3 O4 3.024076 1_555
Ba3 O1 3.024076 1_655
Ba3 O11 3.097316 1_556
Ba4 O3 2.708908 1_545
Ba4 O6 2.708908 1_545
Ba4 O10 2.709056 1_545
Ba4 O8 2.764764 1_555
Ba4 O4 2.805353 1_555
Ba4 O1 2.805353 1_555
Ba4 O13 2.871915 1_556
Ba4 O12 3.143356 1_445
Ba4 O12 3.143356 1_545
Ba5 O7 2.708908 1_565
Ba5 O2 2.708908 1_665
Ba5 O11 2.709056 1_565
Ba5 O9 2.764764 1_555
Ba5 O5 2.805353 1_655
Ba5 O0 2.805353 1_555
Ba5 O12 2.871915 1_554
Ba5 O13 3.143356 1_565
Ba5 O13 3.143356 1_665
Ba6 O4 2.708908 1_555
Ba6 O1 2.708908 1_555
Ba6 O8 2.709056 1_555
Ba6 O10 2.764764 1_555
Ba6 O3 2.805353 1_555
Ba6 O6 2.805353 1_555
Ba6 O15 2.871915 1_555
Ba6 O14 3.143356 1_555
Ba6 O14 3.143356 1_455
Ba7 O0 2.708908 1_555
Ba7 O5 2.708908 1_655
Ba7 O9 2.709056 1_555
Ba7 O11 2.764764 1_555
Ba7 O7 2.805353 1_555
Ba7 O2 2.805353 1_655
Ba7 O14 2.871915 1_555
Ba7 O15 3.143356 1_655
Ba7 O15 3.143356 1_555
Co0 O15 1.780502 1_555
Co0 O7 1.783841 1_555
Co0 O2 1.783841 1_555
Co0 O8 1.811955 1_555
Co1 O14 1.780502 1_555
Co1 O6 1.783841 1_655
Co1 O3 1.783841 1_555
Co1 O9 1.811955 1_555
Co2 O13 1.780502 1_565
Co2 O5 1.783841 1_555
Co2 O0 1.783841 1_555
Co2 O10 1.811955 1_554
Co3 O12 1.780502 1_545
Co3 O4 1.783841 1_555
Co3 O1 1.783841 1_655
Co3 O11 1.811955 1_556
