# generated using pymatgen
data_Tb4(SiS4)3
_symmetry_space_group_name_H-M   'P 1'
_cell_length_a   11.04664019
_cell_length_b   9.89462770
_cell_length_c   17.19897033
_cell_angle_alpha   69.19931799
_cell_angle_beta   90.00000000
_cell_angle_gamma   90.00000000
_symmetry_Int_Tables_number   1
_chemical_formula_structural   Tb4(SiS4)3
_chemical_formula_sum   'Tb16 Si12 S48'
_cell_volume   1757.36018349
_cell_formula_units_Z   4
loop_
 _symmetry_equiv_pos_site_id
 _symmetry_equiv_pos_as_xyz
  1  'x, y, z'
loop_
 _atom_site_type_symbol
 _atom_site_label
 _atom_site_symmetry_multiplicity
 _atom_site_fract_x
 _atom_site_fract_y
 _atom_site_fract_z
 _atom_site_occupancy
  Tb  Tb0  1  0.73913385  0.96852216  0.20991776  1
  Tb  Tb1  1  0.23913385  0.03147784  0.29008224  1
  Tb  Tb2  1  0.26086615  0.03147784  0.79008224  1
  Tb  Tb3  1  0.76086615  0.96852216  0.70991776  1
  Tb  Tb4  1  0.12601079  0.60462004  0.36656022  1
  Tb  Tb5  1  0.62601079  0.39537996  0.13343978  1
  Tb  Tb6  1  0.87398921  0.39537996  0.63343978  1
  Tb  Tb7  1  0.37398921  0.60462004  0.86656022  1
  Tb  Tb8  1  0.84954070  0.18419183  0.44103183  1
  Tb  Tb9  1  0.34954070  0.81580817  0.05896817  1
  Tb  Tb10  1  0.15045930  0.81580817  0.55896817  1
  Tb  Tb11  1  0.65045930  0.18419183  0.94103183  1
  Tb  Tb12  1  0.51830103  0.51600327  0.37482556  1
  Tb  Tb13  1  0.01830103  0.48399673  0.12517444  1
  Tb  Tb14  1  0.48169897  0.48399673  0.62517444  1
  Tb  Tb15  1  0.98169897  0.51600327  0.87482556  1
  Si  Si0  1  0.78570946  0.52447892  0.26707221  1
  Si  Si1  1  0.28570946  0.47552108  0.23292779  1
  Si  Si2  1  0.21429054  0.47552108  0.73292779  1
  Si  Si3  1  0.71429054  0.52447892  0.76707221  1
  Si  Si4  1  0.61850925  0.24204925  0.55987652  1
  Si  Si5  1  0.11850925  0.75795075  0.94012348  1
  Si  Si6  1  0.38149075  0.75795075  0.44012348  1
  Si  Si7  1  0.88149075  0.24204925  0.05987652  1
  Si  Si8  1  0.94966850  0.89902792  0.38141885  1
  Si  Si9  1  0.44966850  0.10097208  0.11858115  1
  Si  Si10  1  0.05033150  0.10097208  0.61858115  1
  Si  Si11  1  0.55033150  0.89902792  0.88141885  1
  S  S0  1  0.95763546  0.43364955  0.31368660  1
  S  S1  1  0.45763546  0.56635045  0.18631340  1
  S  S2  1  0.04236454  0.56635045  0.68631340  1
  S  S3  1  0.54236454  0.43364955  0.81368660  1
  S  S4  1  0.44407228  0.31622416  0.52646890  1
  S  S5  1  0.94407228  0.68377584  0.97353110  1
  S  S6  1  0.55592772  0.68377584  0.47353110  1
  S  S7  1  0.05592772  0.31622416  0.02646890  1
  S  S8  1  0.77315560  0.97848805  0.37165377  1
  S  S9  1  0.27315560  0.02151195  0.12834623  1
  S  S10  1  0.22684440  0.02151195  0.62834623  1
  S  S11  1  0.72684440  0.97848805  0.87165377  1
  S  S12  1  0.02414693  0.30708112  0.52591673  1
  S  S13  1  0.52414693  0.69291888  0.97408327  1
  S  S14  1  0.97585307  0.69291888  0.47408327  1
  S  S15  1  0.47585307  0.30708112  0.02591673  1
  S  S16  1  0.02492716  0.88221888  0.27079946  1
  S  S17  1  0.52492716  0.11778112  0.22920054  1
  S  S18  1  0.97507284  0.11778112  0.72920054  1
  S  S19  1  0.47507284  0.88221888  0.77079946  1
  S  S20  1  0.06466108  0.05333456  0.40641039  1
  S  S21  1  0.56466108  0.94666544  0.09358961  1
  S  S22  1  0.93533892  0.94666544  0.59358961  1
  S  S23  1  0.43533892  0.05333456  0.90641039  1
  S  S24  1  0.65588504  0.04119669  0.55244848  1
  S  S25  1  0.15588504  0.95880331  0.94755152  1
  S  S26  1  0.34411496  0.95880331  0.44755152  1
  S  S27  1  0.84411496  0.04119669  0.05244848  1
  S  S28  1  0.74110886  0.40209927  0.48704281  1
  S  S29  1  0.24110886  0.59790073  0.01295719  1
  S  S30  1  0.25889114  0.59790073  0.51295719  1
  S  S31  1  0.75889114  0.40209927  0.98704281  1
  S  S32  1  0.66562165  0.34257742  0.31303192  1
  S  S33  1  0.16562165  0.65742258  0.18696808  1
  S  S34  1  0.33437835  0.65742258  0.68696808  1
  S  S35  1  0.83437835  0.34257742  0.81303192  1
  S  S36  1  0.28906469  0.39379241  0.36338447  1
  S  S37  1  0.78906469  0.60620759  0.13661553  1
  S  S38  1  0.71093531  0.60620759  0.63661553  1
  S  S39  1  0.21093531  0.39379241  0.86338447  1
  S  S40  1  0.34829638  0.76497011  0.31657845  1
  S  S41  1  0.84829638  0.23502989  0.18342155  1
  S  S42  1  0.65170362  0.23502989  0.68342155  1
  S  S43  1  0.15170362  0.76497011  0.81657845  1
  S  S44  1  0.72234585  0.68712675  0.30897789  1
  S  S45  1  0.22234585  0.31287325  0.19102211  1
  S  S46  1  0.27765415  0.31287325  0.69102211  1
  S  S47  1  0.77765415  0.68712675  0.80897789  1
loop_
_geom_bond_atom_site_label_1
_geom_bond_atom_site_label_2
_geom_bond_distance
_geom_bond_site_symmetry_2
S0 Si0 2.132063 1_555
S0 Tb4 2.870699 1_655
S0 Tb8 2.911309 1_555
S0 Tb13 3.172079 1_655
S1 Si1 2.132063 1_555
S1 Tb5 2.870699 1_555
S1 Tb9 2.911309 1_555
S1 Tb12 3.172079 1_555
S2 Si2 2.132063 1_555
S2 Tb6 2.870699 1_455
S2 Tb10 2.911309 1_555
S2 Tb15 3.172079 1_455
S3 Si3 2.132063 1_555
S3 Tb7 2.870699 1_555
S3 Tb11 2.911309 1_555
S3 Tb14 3.172079 1_555
S4 Si4 2.069395 1_555
S4 Tb12 2.778568 1_555
S4 Tb14 2.795002 1_555
S5 Si5 2.069395 1_655
S5 Tb13 2.778568 1_656
S5 Tb15 2.795002 1_555
S6 Si6 2.069395 1_555
S6 Tb14 2.778568 1_555
S6 Tb12 2.795002 1_555
S7 Si7 2.069395 1_455
S7 Tb15 2.778568 1_454
S7 Tb13 2.795002 1_555
S8 Si8 2.086765 1_555
S8 Tb8 2.829031 1_565
S8 Tb0 2.843167 1_555
S9 Si9 2.086765 1_555
S9 Tb9 2.829031 1_545
S9 Tb1 2.843167 1_555
S10 Si10 2.086765 1_555
S10 Tb10 2.829031 1_545
S10 Tb2 2.843167 1_555
S11 Si11 2.086765 1_555
S11 Tb11 2.829031 1_565
S11 Tb3 2.843167 1_555
S12 Si10 2.115247 1_555
S12 Tb6 2.842906 1_455
S12 Tb8 2.931049 1_455
S12 Tb4 3.422648 1_555
S13 Si11 2.115247 1_555
S13 Tb7 2.842906 1_555
S13 Tb9 2.931049 1_556
S13 Tb5 3.422648 1_556
S14 Si8 2.115247 1_555
S14 Tb4 2.842906 1_655
S14 Tb10 2.931049 1_655
S14 Tb6 3.422648 1_555
S15 Si9 2.115247 1_555
S15 Tb5 2.842906 1_555
S15 Tb11 2.931049 1_554
S15 Tb7 3.422648 1_554
S16 Si8 2.136167 1_455
S16 Tb1 2.870224 1_565
S16 Tb4 2.879411 1_555
S16 Tb0 3.340295 1_455
S17 Si9 2.136167 1_555
S17 Tb0 2.870224 1_545
S17 Tb5 2.879411 1_555
S17 Tb1 3.340295 1_555
S18 Si10 2.136167 1_655
S18 Tb3 2.870224 1_545
S18 Tb6 2.879411 1_555
S18 Tb2 3.340295 1_655
S19 Si11 2.136167 1_555
S19 Tb2 2.870224 1_565
S19 Tb7 2.879411 1_555
S19 Tb3 3.340295 1_555
S20 Si8 2.143738 1_445
S20 Tb1 2.841058 1_555
S20 Tb8 2.868045 1_455
S20 Tb10 2.987750 1_545
S21 Si9 2.143738 1_565
S21 Tb0 2.841058 1_555
S21 Tb9 2.868045 1_555
S21 Tb11 2.987750 1_564
S22 Si10 2.143738 1_665
S22 Tb3 2.841058 1_555
S22 Tb10 2.868045 1_655
S22 Tb8 2.987750 1_565
S23 Si11 2.143738 1_545
S23 Tb2 2.841058 1_555
S23 Tb11 2.868045 1_555
S23 Tb9 2.987750 1_546
S24 Si4 2.077671 1_555
S24 Tb3 2.795302 1_545
S24 Tb8 2.885245 1_555
S25 Si5 2.077671 1_555
S25 Tb2 2.795302 1_565
S25 Tb9 2.885245 1_556
S26 Si6 2.077671 1_555
S26 Tb1 2.795302 1_565
S26 Tb10 2.885245 1_555
S27 Si7 2.077671 1_555
S27 Tb0 2.795302 1_545
S27 Tb11 2.885245 1_554
S28 Si4 2.121861 1_555
S28 Tb8 2.814535 1_555
S28 Tb6 2.894807 1_555
S28 Tb12 3.083533 1_555
S29 Si5 2.121861 1_554
S29 Tb9 2.814535 1_555
S29 Tb7 2.894807 1_554
S29 Tb13 3.083533 1_555
S30 Si6 2.121861 1_555
S30 Tb10 2.814535 1_555
S30 Tb4 2.894807 1_555
S30 Tb14 3.083533 1_555
S31 Si7 2.121861 1_556
S31 Tb11 2.814535 1_555
S31 Tb5 2.894807 1_556
S31 Tb15 3.083533 1_555
S32 Si0 2.147929 1_555
S32 Tb12 2.831575 1_555
S32 Tb5 2.976399 1_555
S32 Tb8 2.996641 1_555
S33 Si1 2.147929 1_555
S33 Tb13 2.831575 1_555
S33 Tb4 2.976399 1_555
S33 Tb9 2.996641 1_555
S34 Si2 2.147929 1_555
S34 Tb14 2.831575 1_555
S34 Tb7 2.976399 1_555
S34 Tb10 2.996641 1_555
S35 Si3 2.147929 1_555
S35 Tb15 2.831575 1_555
S35 Tb6 2.976399 1_555
S35 Tb11 2.996641 1_555
S36 Si1 2.097839 1_555
S36 Tb4 2.771258 1_555
S36 Tb12 2.842966 1_555
S37 Si0 2.097839 1_555
S37 Tb5 2.771258 1_555
S37 Tb13 2.842966 1_655
S38 Si3 2.097839 1_555
S38 Tb6 2.771258 1_555
S38 Tb14 2.842966 1_555
S39 Si2 2.097839 1_555
S39 Tb7 2.771258 1_555
S39 Tb15 2.842966 1_455
S40 Si6 2.132942 1_555
S40 Tb1 2.786048 1_565
S40 Tb4 2.883941 1_555
S40 Tb12 2.974248 1_555
S41 Si7 2.132942 1_555
S41 Tb0 2.786048 1_545
S41 Tb5 2.883941 1_555
S41 Tb13 2.974248 1_655
S42 Si4 2.132942 1_555
S42 Tb3 2.786048 1_545
S42 Tb6 2.883941 1_555
S42 Tb14 2.974248 1_555
S43 Si5 2.132942 1_555
S43 Tb2 2.786048 1_565
S43 Tb7 2.883941 1_555
S43 Tb15 2.974248 1_455
S44 Si0 2.103135 1_555
S44 Tb0 2.705603 1_555
S44 Tb12 2.805022 1_555
S45 Si1 2.103135 1_555
S45 Tb1 2.705603 1_555
S45 Tb13 2.805022 1_555
S46 Si2 2.103135 1_555
S46 Tb2 2.705603 1_555
S46 Tb14 2.805022 1_555
S47 Si3 2.103135 1_555
S47 Tb3 2.705603 1_555
S47 Tb15 2.805022 1_555
