# generated using pymatgen
data_Co2Cu3(CN)12
_symmetry_space_group_name_H-M   'P 1'
_cell_length_a   7.13749200
_cell_length_b   7.13749200
_cell_length_c   10.17518700
_cell_angle_alpha   90.00000000
_cell_angle_beta   90.00000000
_cell_angle_gamma   90.00000000
_symmetry_Int_Tables_number   1
_chemical_formula_structural   Co2Cu3(CN)12
_chemical_formula_sum   'Co2 Cu3 C12 N12'
_cell_volume   518.36261060
_cell_formula_units_Z   1
loop_
 _symmetry_equiv_pos_site_id
 _symmetry_equiv_pos_as_xyz
  1  'x, y, z'
loop_
 _atom_site_type_symbol
 _atom_site_label
 _atom_site_symmetry_multiplicity
 _atom_site_fract_x
 _atom_site_fract_y
 _atom_site_fract_z
 _atom_site_occupancy
  Co  Co0  1  0.50000000  0.00000000  0.75064400  1
  Co  Co1  1  0.00000000  0.50000000  0.24935600  1
  Cu  Cu0  1  0.50000000  0.00000000  0.24665300  1
  Cu  Cu1  1  0.00000000  0.50000000  0.75334700  1
  Cu  Cu2  1  0.50000000  0.50000000  0.50000000  1
  C  C0  1  0.18423300  0.68391600  0.24961100  1
  C  C1  1  0.68391600  0.18423300  0.75038900  1
  C  C2  1  0.50000000  0.00000000  0.56727800  1
  C  C3  1  0.00000000  0.50000000  0.06594300  1
  C  C4  1  0.81576700  0.68391600  0.24961100  1
  C  C5  1  0.31608400  0.18423300  0.75038900  1
  C  C6  1  0.50000000  0.00000000  0.93405700  1
  C  C7  1  0.00000000  0.50000000  0.43272200  1
  C  C8  1  0.18423300  0.31608400  0.24961100  1
  C  C9  1  0.68391600  0.81576700  0.75038900  1
  C  C10  1  0.81576700  0.31608400  0.24961100  1
  C  C11  1  0.31608400  0.81576700  0.75038900  1
  N  N0  1  0.30167400  0.79772600  0.25220200  1
  N  N1  1  0.79772600  0.30167400  0.74779800  1
  N  N2  1  0.50000000  0.00000000  0.45223900  1
  N  N3  1  0.00000000  0.50000000  0.95142400  1
  N  N4  1  0.69832600  0.79772600  0.25220200  1
  N  N5  1  0.20227400  0.30167400  0.74779800  1
  N  N6  1  0.50000000  0.00000000  0.04857600  1
  N  N7  1  0.00000000  0.50000000  0.54776100  1
  N  N8  1  0.30167400  0.20227400  0.25220200  1
  N  N9  1  0.79772600  0.69832600  0.74779800  1
  N  N10  1  0.69832600  0.20227400  0.25220200  1
  N  N11  1  0.20227400  0.69832600  0.74779800  1
loop_
_geom_bond_atom_site_label_1
_geom_bond_atom_site_label_2
_geom_bond_distance
_geom_bond_site_symmetry_2
Cu0 N6 2.015471 1_555
Cu0 N0 2.022702 1_545
Cu0 N4 2.022702 1_545
Cu0 N10 2.022702 1_555
Cu0 N8 2.022702 1_555
Cu0 N2 2.091876 1_555
Cu1 N3 2.015471 1_555
Cu1 N9 2.022702 1_455
Cu1 N1 2.022702 1_455
Cu1 N5 2.022702 1_555
Cu1 N11 2.022702 1_555
Cu1 N7 2.091876 1_555
C0 N0 1.167558 1_555
C0 Co1 1.858039 1_555
C1 N1 1.167558 1_555
C1 Co0 1.858039 1_555
C2 N2 1.170543 1_555
C2 Co0 1.865783 1_555
C3 N3 1.165252 1_554
C3 Co1 1.866262 1_555
C4 N4 1.167558 1_555
C4 Co1 1.858039 1_655
C5 N5 1.167558 1_555
C5 Co0 1.858039 1_555
C6 N6 1.165252 1_556
C6 Co0 1.866262 1_555
C7 N7 1.170543 1_555
C7 Co1 1.865783 1_555
C8 N8 1.167558 1_555
C8 Co1 1.858039 1_555
C9 N9 1.167558 1_555
C9 Co0 1.858039 1_565
C10 N10 1.167558 1_555
C10 Co1 1.858039 1_655
C11 N11 1.167558 1_555
C11 Co0 1.858039 1_565
