# generated using pymatgen
data_Ag8Hg(AsO5)2
_symmetry_space_group_name_H-M   'P 1'
_cell_length_a   6.10923414
_cell_length_b   6.10923414
_cell_length_c   22.16307900
_cell_angle_alpha   90.00000000
_cell_angle_beta   90.00000000
_cell_angle_gamma   120.00000148
_symmetry_Int_Tables_number   1
_chemical_formula_structural   Ag8Hg(AsO5)2
_chemical_formula_sum   'Ag16 Hg2 As4 O20'
_cell_volume   716.36483561
_cell_formula_units_Z   2
loop_
 _symmetry_equiv_pos_site_id
 _symmetry_equiv_pos_as_xyz
  1  'x, y, z'
loop_
 _atom_site_type_symbol
 _atom_site_label
 _atom_site_symmetry_multiplicity
 _atom_site_fract_x
 _atom_site_fract_y
 _atom_site_fract_z
 _atom_site_occupancy
  Ag  Ag0  1  0.62502000  0.65111000  0.80403900  1
  Ag  Ag1  1  0.02609000  0.37498000  0.80403900  1
  Ag  Ag2  1  0.97391000  0.34889000  0.30403900  1
  Ag  Ag3  1  0.34889000  0.97391000  0.80403900  1
  Ag  Ag4  1  0.65111000  0.62502000  0.30403900  1
  Ag  Ag5  1  0.37498000  0.02609000  0.30403900  1
  Ag  Ag6  1  0.66666700  0.33333300  0.95177900  1
  Ag  Ag7  1  0.33333300  0.66666700  0.45177900  1
  Ag  Ag8  1  0.66666700  0.33333300  0.20785600  1
  Ag  Ag9  1  0.33333300  0.66666700  0.70785600  1
  Ag  Ag10  1  0.63906000  0.95928900  0.54975500  1
  Ag  Ag11  1  0.32022900  0.36094000  0.54975500  1
  Ag  Ag12  1  0.67977100  0.04071100  0.04975500  1
  Ag  Ag13  1  0.04071100  0.67977100  0.54975500  1
  Ag  Ag14  1  0.95928900  0.63906000  0.04975500  1
  Ag  Ag15  1  0.36094000  0.32022900  0.04975500  1
  Hg  Hg0  1  0.66666700  0.33333300  0.66696400  1
  Hg  Hg1  1  0.33333300  0.66666700  0.16696400  1
  As  As0  1  0.00000000  0.00000000  0.92030000  1
  As  As1  1  0.00000000  0.00000000  0.42030000  1
  As  As2  1  0.00000000  0.00000000  0.67690300  1
  As  As3  1  0.00000000  0.00000000  0.17690300  1
  O  O0  1  0.69312000  0.85152300  0.64914400  1
  O  O1  1  0.15840300  0.30688000  0.64914400  1
  O  O2  1  0.84159700  0.14847700  0.14914400  1
  O  O3  1  0.14847700  0.84159700  0.64914400  1
  O  O4  1  0.85152300  0.69312000  0.14914400  1
  O  O5  1  0.30688000  0.15840300  0.14914400  1
  O  O6  1  0.66666700  0.33333300  0.57225400  1
  O  O7  1  0.33333300  0.66666700  0.07225400  1
  O  O8  1  0.00000000  0.00000000  0.75518600  1
  O  O9  1  0.00000000  0.00000000  0.25518600  1
  O  O10  1  0.00000000  0.00000000  0.99973200  1
  O  O11  1  0.00000000  0.00000000  0.49973200  1
  O  O12  1  0.86460900  0.17105500  0.89457800  1
  O  O13  1  0.30644600  0.13539100  0.89457800  1
  O  O14  1  0.69355400  0.82894500  0.39457800  1
  O  O15  1  0.82894500  0.69355400  0.89457800  1
  O  O16  1  0.17105500  0.86460900  0.39457800  1
  O  O17  1  0.13539100  0.30644600  0.39457800  1
  O  O18  1  0.66666700  0.33333300  0.76055800  1
  O  O19  1  0.33333300  0.66666700  0.26055800  1
loop_
_geom_bond_atom_site_label_1
_geom_bond_atom_site_label_2
_geom_bond_distance
_geom_bond_site_symmetry_2
Ag0 O18 2.292658 1_555
Ag0 O15 2.307122 1_555
Ag0 O8 2.465873 1_665
Ag1 O18 2.292652 1_455
Ag1 O12 2.307122 1_455
Ag1 O8 2.465873 1_555
Ag2 O19 2.292655 1_655
Ag2 O17 2.307122 1_655
Ag2 O9 2.465873 1_655
Ag3 O18 2.292655 1_565
Ag3 O13 2.307122 1_565
Ag3 O8 2.465873 1_565
Ag4 O19 2.292658 1_555
Ag4 O14 2.307122 1_555
Ag4 O9 2.465873 1_665
Ag5 O19 2.292652 1_545
Ag5 O16 2.307122 1_545
Ag5 O9 2.465873 1_555
Ag6 O12 2.291564 1_555
Ag6 O13 2.291568 1_555
Ag6 O15 2.291568 1_555
Ag7 O16 2.291564 1_555
Ag7 O17 2.291568 1_555
Ag7 O14 2.291568 1_555
Ag8 O2 2.305992 1_555
Ag8 O4 2.305997 1_555
Ag8 O5 2.305997 1_555
Ag9 O3 2.305992 1_555
Ag9 O0 2.305997 1_555
Ag9 O1 2.305997 1_555
Ag10 O6 2.261299 1_565
Ag10 O11 2.367464 1_665
Ag10 O0 2.368995 1_555
Ag11 O6 2.261305 1_555
Ag11 O11 2.367464 1_555
Ag11 O1 2.368995 1_555
Ag12 O7 2.261302 1_545
Ag12 O10 2.367464 1_654
Ag12 O2 2.368995 1_555
Ag13 O6 2.261302 1_455
Ag13 O11 2.367464 1_565
Ag13 O3 2.368995 1_555
Ag14 O7 2.261299 1_655
Ag14 O10 2.367464 1_664
Ag14 O4 2.368995 1_555
Ag15 O7 2.261305 1_555
Ag15 O10 2.367464 1_554
Ag15 O5 2.368995 1_555
Hg0 O18 2.074331 1_555
Hg0 O6 2.099065 1_555
Hg1 O19 2.074331 1_555
Hg1 O7 2.099065 1_555
As0 O15 1.722082 1_445
As0 O13 1.722082 1_555
As0 O12 1.722082 1_455
As0 O10 1.760458 1_555
As1 O14 1.722082 1_445
As1 O17 1.722082 1_555
As1 O16 1.722082 1_545
As1 O11 1.760458 1_555
As2 O8 1.734992 1_555
As2 O1 1.736543 1_555
As2 O0 1.736543 1_445
As2 O3 1.736543 1_545
As3 O9 1.734992 1_555
As3 O5 1.736543 1_555
As3 O4 1.736543 1_445
As3 O2 1.736543 1_455
