# generated using pymatgen
data_Sr4Ca4TiMn7O20
_symmetry_space_group_name_H-M   'P 1'
_cell_length_a   11.04307132
_cell_length_b   11.23330452
_cell_length_c   17.57557555
_cell_angle_alpha   108.66744887
_cell_angle_beta   108.35454522
_cell_angle_gamma   90.08077499
_symmetry_Int_Tables_number   1
_chemical_formula_structural   Sr4Ca4TiMn7O20
_chemical_formula_sum   'Sr16 Ca16 Ti4 Mn28 O80'
_cell_volume   1947.76854926
_cell_formula_units_Z   4
loop_
 _symmetry_equiv_pos_site_id
 _symmetry_equiv_pos_as_xyz
  1  'x, y, z'
loop_
 _atom_site_type_symbol
 _atom_site_label
 _atom_site_symmetry_multiplicity
 _atom_site_fract_x
 _atom_site_fract_y
 _atom_site_fract_z
 _atom_site_occupancy
  Sr  Sr0  1  0.30967300  0.56121900  0.61049100  1
  Sr  Sr1  1  0.80673500  0.05811200  0.60791400  1
  Sr  Sr2  1  0.80697800  0.56075100  0.61033600  1
  Sr  Sr3  1  0.19750200  0.43913300  0.38885200  1
  Sr  Sr4  1  0.19944600  0.44061100  0.89108600  1
  Sr  Sr5  1  0.69723100  0.43937900  0.38848200  1
  Sr  Sr6  1  0.69845400  0.93823800  0.38792600  1
  Sr  Sr7  1  0.69807900  0.93896500  0.88981900  1
  Sr  Sr8  1  0.05879800  0.29725700  0.60879600  1
  Sr  Sr9  1  0.05990600  0.80138500  0.60996500  1
  Sr  Sr10  1  0.55840400  0.30057900  0.61020800  1
  Sr  Sr11  1  0.55716900  0.79951700  0.60915700  1
  Sr  Sr12  1  0.44667800  0.19962800  0.38883500  1
  Sr  Sr13  1  0.44675100  0.20243700  0.88837100  1
  Sr  Sr14  1  0.94869200  0.19750900  0.38814400  1
  Sr  Sr15  1  0.94694300  0.20142900  0.88928300  1
  Ca  Ca0  1  0.30565700  0.06581500  0.10910700  1
  Ca  Ca1  1  0.30569000  0.06004400  0.60382200  1
  Ca  Ca2  1  0.31052800  0.56635200  0.10999900  1
  Ca  Ca3  1  0.80582400  0.06781600  0.10987200  1
  Ca  Ca4  1  0.80358500  0.56262200  0.11098600  1
  Ca  Ca5  1  0.19881600  0.93489200  0.39352800  1
  Ca  Ca6  1  0.19599700  0.93565500  0.89133500  1
  Ca  Ca7  1  0.69547700  0.43482500  0.89239800  1
  Ca  Ca8  1  0.05592000  0.29257800  0.10884600  1
  Ca  Ca9  1  0.05933700  0.79512400  0.10957000  1
  Ca  Ca10  1  0.55597900  0.29538800  0.10775300  1
  Ca  Ca11  1  0.55122700  0.79316800  0.10901800  1
  Ca  Ca12  1  0.44776600  0.70624900  0.39366000  1
  Ca  Ca13  1  0.44237000  0.70132800  0.89185400  1
  Ca  Ca14  1  0.95147100  0.70676700  0.39310000  1
  Ca  Ca15  1  0.95033300  0.70587800  0.89386100  1
  Ti  Ti0  1  0.00822400  0.00016700  0.00295400  1
  Ti  Ti1  1  0.00652500  0.50442500  0.00512300  1
  Ti  Ti2  1  0.50268400  0.99883200  0.99945500  1
  Ti  Ti3  1  0.75407700  0.74856800  0.00207700  1
  Mn  Mn0  1  0.00609200  0.99665100  0.49774700  1
  Mn  Mn1  1  0.00367000  0.50025700  0.49859600  1
  Mn  Mn2  1  0.50307800  0.99872300  0.49859200  1
  Mn  Mn3  1  0.50601000  0.50058300  0.00229500  1
  Mn  Mn4  1  0.50447700  0.50131000  0.49947400  1
  Mn  Mn5  1  0.25593300  0.25153200  0.00287500  1
  Mn  Mn6  1  0.25410400  0.24806100  0.49789500  1
  Mn  Mn7  1  0.25558600  0.75215000  0.00198500  1
  Mn  Mn8  1  0.25514200  0.75023400  0.49869900  1
  Mn  Mn9  1  0.75640700  0.25206900  0.00316700  1
  Mn  Mn10  1  0.75441100  0.24965400  0.49954200  1
  Mn  Mn11  1  0.75491000  0.74816600  0.49872500  1
  Mn  Mn12  1  0.10816400  0.09116200  0.24685900  1
  Mn  Mn13  1  0.11212000  0.09502800  0.74965100  1
  Mn  Mn14  1  0.10963400  0.59903500  0.24887500  1
  Mn  Mn15  1  0.11109400  0.59968100  0.75069200  1
  Mn  Mn16  1  0.60713800  0.09290000  0.24434000  1
  Mn  Mn17  1  0.60659500  0.09830100  0.74728100  1
  Mn  Mn18  1  0.60898200  0.59559600  0.24886800  1
  Mn  Mn19  1  0.61449800  0.59869000  0.75480600  1
  Mn  Mn20  1  0.35758500  0.40531700  0.24884400  1
  Mn  Mn21  1  0.36417500  0.40302300  0.75080500  1
  Mn  Mn22  1  0.35638700  0.90166200  0.25010200  1
  Mn  Mn23  1  0.36120100  0.90404700  0.75031600  1
  Mn  Mn24  1  0.86016500  0.40533300  0.24947200  1
  Mn  Mn25  1  0.86129600  0.40768200  0.75570100  1
  Mn  Mn26  1  0.86085900  0.89952100  0.24595100  1
  Mn  Mn27  1  0.86629600  0.90210100  0.75166400  1
  O  O0  1  0.12784900  0.11635100  0.49148500  1
  O  O1  1  0.12702500  0.11851400  0.99090400  1
  O  O2  1  0.12078600  0.62344900  0.48847200  1
  O  O3  1  0.12182000  0.62538000  0.99029000  1
  O  O4  1  0.62330700  0.12104600  0.49210100  1
  O  O5  1  0.62520400  0.12032600  0.99439600  1
  O  O6  1  0.62110000  0.62247800  0.48831600  1
  O  O7  1  0.62785900  0.62341500  0.98829900  1
  O  O8  1  0.13410900  0.38423600  0.01525600  1
  O  O9  1  0.13221700  0.37710800  0.50665400  1
  O  O10  1  0.13744500  0.88142500  0.01359900  1
  O  O11  1  0.13661300  0.88056800  0.50791800  1
  O  O12  1  0.64045600  0.37827000  0.01378400  1
  O  O13  1  0.63054400  0.37830000  0.50520500  1
  O  O14  1  0.63907800  0.87979400  0.01595800  1
  O  O15  1  0.62838300  0.87432800  0.50318700  1
  O  O16  1  0.37146900  0.11465800  0.49062800  1
  O  O17  1  0.37442400  0.11345500  0.99132500  1
  O  O18  1  0.37521500  0.62129000  0.48777800  1
  O  O19  1  0.37478100  0.62818800  0.99305900  1
  O  O20  1  0.87720300  0.11808600  0.49261000  1
  O  O21  1  0.87794400  0.11990300  0.99390300  1
  O  O22  1  0.87526400  0.62114200  0.48921100  1
  O  O23  1  0.87578900  0.61781800  0.98735800  1
  O  O24  1  0.38354500  0.37985300  0.01466600  1
  O  O25  1  0.38195300  0.37941400  0.50680500  1
  O  O26  1  0.38793900  0.88299800  0.01423500  1
  O  O27  1  0.38111600  0.88243200  0.50754900  1
  O  O28  1  0.88593800  0.38777400  0.01390600  1
  O  O29  1  0.88188900  0.37988800  0.50605300  1
  O  O30  1  0.89084400  0.88377000  0.01512000  1
  O  O31  1  0.88416500  0.87651600  0.50444200  1
  O  O32  1  0.08176200  0.09157800  0.12835200  1
  O  O33  1  0.08044900  0.08096400  0.63361300  1
  O  O34  1  0.07462700  0.59699400  0.12732500  1
  O  O35  1  0.07303400  0.58507700  0.63410500  1
  O  O36  1  0.57744500  0.09179200  0.13003400  1
  O  O37  1  0.57349800  0.08333500  0.63150800  1
  O  O38  1  0.58113300  0.59819700  0.13730200  1
  O  O39  1  0.57530900  0.58521000  0.63325100  1
  O  O40  1  0.43775200  0.41485400  0.36342300  1
  O  O41  1  0.44485000  0.41179700  0.86491700  1
  O  O42  1  0.43955900  0.91054100  0.36538200  1
  O  O43  1  0.45093200  0.90748000  0.87542400  1
  O  O44  1  0.93817800  0.41491800  0.36451100  1
  O  O45  1  0.94607900  0.41553500  0.87244800  1
  O  O46  1  0.94785700  0.90626000  0.36729700  1
  O  O47  1  0.95030300  0.90849400  0.87449000  1
  O  O48  1  0.33480200  0.28900700  0.14022600  1
  O  O49  1  0.32658000  0.29398000  0.63573300  1
  O  O50  1  0.32944000  0.78907800  0.13999900  1
  O  O51  1  0.32164600  0.79282200  0.62844400  1
  O  O52  1  0.83834500  0.29137600  0.14053600  1
  O  O53  1  0.82586800  0.30546900  0.64020800  1
  O  O54  1  0.83215400  0.77847000  0.12582000  1
  O  O55  1  0.82367700  0.79698800  0.63041400  1
  O  O56  1  0.18826400  0.19942200  0.36516900  1
  O  O57  1  0.18942200  0.20473300  0.86210700  1
  O  O58  1  0.19834300  0.71084900  0.36940700  1
  O  O59  1  0.19551400  0.71176000  0.86188500  1
  O  O60  1  0.68612800  0.19335700  0.35924900  1
  O  O61  1  0.68773000  0.20809600  0.86088400  1
  O  O62  1  0.69350100  0.69695900  0.36387600  1
  O  O63  1  0.70606600  0.71326700  0.87544100  1
  O  O64  1  0.42458700  0.06224500  0.24164200  1
  O  O65  1  0.42728400  0.07126000  0.74366100  1
  O  O66  1  0.42972100  0.57233100  0.24865000  1
  O  O67  1  0.43296400  0.57109400  0.75840300  1
  O  O68  1  0.92449100  0.06734000  0.24057300  1
  O  O69  1  0.93729800  0.06964300  0.75024100  1
  O  O70  1  0.92411200  0.56843300  0.24855000  1
  O  O71  1  0.93838400  0.57450200  0.75911700  1
  O  O72  1  0.17950400  0.42454500  0.24092700  1
  O  O73  1  0.18570500  0.43837900  0.75121800  1
  O  O74  1  0.17884000  0.92165900  0.24844000  1
  O  O75  1  0.18334400  0.93641800  0.75957300  1
  O  O76  1  0.67464400  0.42637000  0.24075200  1
  O  O77  1  0.68627800  0.43070800  0.75875500  1
  O  O78  1  0.67383300  0.92928400  0.24048000  1
  O  O79  1  0.68655600  0.94384200  0.75196500  1
loop_
_geom_bond_atom_site_label_1
_geom_bond_atom_site_label_2
_geom_bond_distance
_geom_bond_site_symmetry_2
Ca0 O64 2.299073 1_555
Ca0 O48 2.386994 1_555
Ca0 O10 2.521559 1_545
Ca0 O26 2.567254 1_545
Ca0 O1 2.601407 1_554
Ca0 O32 2.603346 1_555
Ca0 O17 2.616563 1_554
Ca0 O36 2.908997 1_555
Ca1 O65 2.362690 1_555
Ca1 O11 2.494777 1_545
Ca1 O49 2.499363 1_555
Ca1 O27 2.503741 1_545
Ca1 O0 2.552671 1_555
Ca1 O16 2.559716 1_555
Ca1 O33 2.694327 1_555
Ca1 O37 2.839293 1_555
Ca2 O66 2.355902 1_555
Ca2 O50 2.380351 1_555
Ca2 O24 2.540701 1_555
Ca2 O8 2.553117 1_555
Ca2 O19 2.653514 1_554
Ca2 O3 2.710104 1_554
Ca2 O34 2.726287 1_555
Ca2 O38 2.876147 1_555
Ca3 O68 2.259691 1_555
Ca3 O52 2.394849 1_555
Ca3 O14 2.533636 1_545
Ca3 O5 2.581791 1_554
Ca3 O30 2.591388 1_545
Ca3 O21 2.629725 1_554
Ca3 O36 2.657496 1_555
Ca3 O32 2.963288 1_655
Ca4 O70 2.343806 1_555
Ca4 O54 2.363890 1_555
Ca4 O12 2.497764 1_555
Ca4 O28 2.536348 1_555
Ca4 O38 2.647319 1_555
Ca4 O7 2.681939 1_554
Ca4 O23 2.773730 1_554
Ca4 O34 2.928284 1_655
Ca5 O58 2.414397 1_555
Ca5 O74 2.444640 1_555
Ca5 O0 2.518131 1_565
Ca5 O16 2.521765 1_565
Ca5 O11 2.557377 1_555
Ca5 O27 2.575762 1_555
Ca5 O46 2.663516 1_455
Ca5 O42 2.851503 1_555
Ca6 O75 2.278468 1_555
Ca6 O59 2.399675 1_555
Ca6 O1 2.530747 1_565
Ca6 O17 2.553650 1_565
Ca6 O47 2.641255 1_455
Ca6 O10 2.668093 1_556
Ca6 O26 2.728816 1_556
Ca6 O43 2.923314 1_555
Ca7 O77 2.304288 1_555
Ca7 O61 2.422267 1_555
Ca7 O7 2.529394 1_555
Ca7 O23 2.583640 1_555
Ca7 O12 2.647118 1_556
Ca7 O41 2.652626 1_555
Ca7 O28 2.675938 1_556
Ca7 O45 2.897008 1_555
Ca8 O72 2.290219 1_555
Ca8 O32 2.394322 1_555
Ca8 O8 2.547057 1_555
Ca8 O28 2.574242 1_455
Ca8 O21 2.585853 1_454
Ca8 O52 2.632656 1_455
Ca8 O1 2.677970 1_554
Ca8 O48 2.955539 1_555
Ca9 O74 2.337604 1_555
Ca9 O34 2.343481 1_555
Ca9 O30 2.515452 1_455
Ca9 O10 2.547477 1_555
Ca9 O3 2.619671 1_554
Ca9 O54 2.625790 1_455
Ca9 O23 2.682750 1_454
Ca9 O50 2.864734 1_555
Ca10 O76 2.282518 1_555
Ca10 O36 2.440607 1_555
Ca10 O24 2.497939 1_555
Ca10 O12 2.533175 1_555
Ca10 O5 2.622270 1_554
Ca10 O17 2.666698 1_554
Ca10 O48 2.683314 1_555
Ca10 O52 2.990422 1_555
Ca11 O78 2.296089 1_555
Ca11 O38 2.397630 1_555
Ca11 O26 2.496858 1_555
Ca11 O19 2.540839 1_554
Ca11 O14 2.564906 1_555
Ca11 O50 2.674477 1_555
Ca11 O7 2.720182 1_554
Ca11 O54 3.032227 1_555
Ca12 O66 2.454230 1_555
Ca12 O18 2.476316 1_555
Ca12 O42 2.494798 1_555
Ca12 O6 2.513733 1_555
Ca12 O15 2.548212 1_555
Ca12 O27 2.619405 1_555
Ca12 O58 2.654455 1_555
Ca12 O62 2.917084 1_555
Ca13 O67 2.302579 1_555
Ca13 O43 2.428943 1_555
Ca13 O19 2.483135 1_555
Ca13 O7 2.569657 1_555
Ca13 O59 2.618897 1_555
Ca13 O26 2.675855 1_556
Ca13 O14 2.774863 1_556
Ca13 O63 3.022206 1_555
Ca14 O46 2.422522 1_555
Ca14 O70 2.438946 1_555
Ca14 O2 2.493402 1_655
Ca14 O22 2.533752 1_555
Ca14 O31 2.559151 1_555
Ca14 O11 2.632936 1_655
Ca14 O62 2.726330 1_555
Ca14 O58 2.886980 1_655
Ca15 O71 2.317130 1_555
Ca15 O47 2.406716 1_555
Ca15 O3 2.498166 1_655
Ca15 O23 2.499342 1_555
Ca15 O63 2.618363 1_555
Ca15 O30 2.669460 1_556
Ca15 O10 2.679612 1_656
Ca15 O59 2.938132 1_655
Mn0 O11 1.949899 1_555
Mn0 O0 1.952137 1_565
Mn0 O31 1.960680 1_455
Mn0 O20 1.974390 1_465
Mn0 O46 2.068937 1_455
Mn0 O33 2.142098 1_565
Mn1 O29 1.968088 1_455
Mn1 O22 1.970641 1_455
Mn1 O2 1.979116 1_555
Mn1 O9 1.988276 1_555
Mn1 O44 2.115221 1_455
Mn1 O35 2.136158 1_555
Mn2 O27 1.950761 1_555
Mn2 O16 1.954956 1_565
Mn2 O4 1.963294 1_565
Mn2 O15 1.970086 1_555
Mn2 O37 2.097097 1_565
Mn2 O42 2.105665 1_555
Mn3 O24 2.020961 1_555
Mn3 O12 2.031616 1_555
Mn3 O19 2.046415 1_554
Mn3 O7 2.048290 1_554
Mn3 O38 2.147793 1_555
Mn3 O41 2.170299 1_554
Mn4 O13 1.965675 1_555
Mn4 O6 1.968430 1_555
Mn4 O18 1.973407 1_555
Mn4 O25 1.984894 1_555
Mn4 O39 2.109358 1_555
Mn4 O40 2.146064 1_555
Mn5 O24 1.930240 1_555
Mn5 O1 1.976761 1_554
Mn5 O8 2.015386 1_555
Mn5 O17 2.032396 1_554
Mn5 O48 2.188052 1_555
Mn5 O57 2.226829 1_554
Mn6 O25 1.975344 1_555
Mn6 O16 1.982168 1_555
Mn6 O9 1.982420 1_555
Mn6 O0 1.983481 1_555
Mn6 O56 2.093710 1_555
Mn6 O49 2.180210 1_555
Mn7 O19 1.921364 1_554
Mn7 O10 1.958545 1_555
Mn7 O3 1.966649 1_554
Mn7 O26 1.983994 1_555
Mn7 O50 2.197754 1_555
Mn7 O59 2.228065 1_554
Mn8 O11 1.967278 1_555
Mn8 O27 1.968447 1_555
Mn8 O18 1.969984 1_555
Mn8 O2 1.980979 1_555
Mn8 O58 2.052039 1_555
Mn8 O51 2.052834 1_555
Mn9 O12 1.915824 1_555
Mn9 O5 2.005095 1_554
Mn9 O21 2.005137 1_554
Mn9 O28 2.011268 1_555
Mn9 O52 2.187085 1_555
Mn9 O61 2.255321 1_554
Mn10 O29 1.980067 1_555
Mn10 O4 1.988529 1_555
Mn10 O13 1.992133 1_555
Mn10 O20 2.008066 1_555
Mn10 O60 2.208582 1_555
Mn10 O53 2.214871 1_555
Mn11 O22 1.955256 1_555
Mn11 O6 1.966962 1_555
Mn11 O31 1.984286 1_555
Mn11 O15 1.992585 1_555
Mn11 O55 2.076951 1_555
Mn11 O62 2.126464 1_555
Mn12 O56 1.950626 1_555
Mn12 O68 2.009052 1_455
Mn12 O32 2.011712 1_555
Mn12 O74 2.063938 1_545
Mn13 O57 1.878587 1_555
Mn13 O33 1.910744 1_555
Mn13 O69 1.954860 1_455
Mn13 O75 1.984947 1_545
Mn14 O58 2.002805 1_555
Mn14 O34 2.040171 1_555
Mn14 O70 2.074825 1_455
Mn14 O72 2.086553 1_555
Mn15 O59 1.883520 1_555
Mn15 O35 1.909065 1_555
Mn15 O71 1.985617 1_455
Mn15 O73 1.993055 1_555
Mn16 O60 1.881990 1_555
Mn16 O36 1.926872 1_555
Mn16 O78 1.969919 1_545
Mn16 O64 2.027847 1_555
Mn17 O61 1.898506 1_555
Mn17 O37 1.901219 1_555
Mn17 O79 1.961374 1_545
Mn17 O65 1.980878 1_555
Mn18 O62 1.894442 1_555
Mn18 O38 1.896636 1_555
Mn18 O66 1.995050 1_555
Mn18 O76 2.013766 1_555
Mn19 O39 1.996211 1_555
Mn19 O63 2.018323 1_555
Mn19 O67 2.051706 1_555
Mn19 O77 2.060897 1_555
Mn20 O48 1.874737 1_555
Mn20 O40 1.894574 1_555
Mn20 O72 1.944603 1_555
Mn20 O66 2.038628 1_555
Mn21 O41 1.890423 1_555
Mn21 O49 1.909712 1_555
Mn21 O67 1.982443 1_555
Mn21 O73 2.012819 1_555
Mn22 O50 1.871447 1_555
Mn22 O42 1.912342 1_555
Mn22 O74 1.965932 1_555
Mn22 O64 2.020320 1_565
Mn23 O51 2.008960 1_555
Mn23 O75 2.044928 1_555
Mn23 O65 2.065183 1_565
Mn23 O43 2.095636 1_555
Mn24 O52 1.871394 1_555
Mn24 O44 1.898720 1_555
Mn24 O70 1.969336 1_555
Mn24 O76 2.025685 1_555
Mn25 O53 1.896927 1_555
Mn25 O45 1.941298 1_555
Mn25 O77 1.965480 1_555
Mn25 O71 2.032545 1_555
Mn26 O46 2.020709 1_555
Mn26 O54 2.036372 1_555
Mn26 O68 2.051514 1_565
Mn26 O78 2.069811 1_555
Mn27 O55 1.978139 1_555
Mn27 O47 2.040892 1_555
Mn27 O79 2.041394 1_555
Mn27 O69 2.048375 1_565
O0 Sr14 2.616530 1_455
O0 Sr8 2.697141 1_555
O1 Ti0 1.970708 1_556
O1 Sr15 2.616385 1_455
O2 Sr3 2.586242 1_555
O2 Sr9 2.680013 1_555
O2 Sr0 2.754136 1_555
O3 Ti1 1.991502 1_556
O3 Sr4 2.590857 1_555
O4 Sr12 2.584331 1_555
O4 Sr6 2.610138 1_545
O4 Sr1 2.659808 1_555
O4 Sr10 2.674151 1_555
O5 Ti2 1.961981 1_545
O5 Sr7 2.591436 1_545
O5 Sr13 2.645644 1_555
O6 Sr5 2.576757 1_555
O6 Sr11 2.684896 1_555
O6 Sr2 2.734403 1_555
O7 Ti3 1.881990 1_556
O8 Ti1 1.959809 1_555
O8 Sr4 2.749442 1_554
O8 Sr15 2.754357 1_454
O9 Sr8 2.574905 1_555
O9 Sr0 2.601583 1_555
O9 Sr3 2.674706 1_555
O9 Sr14 2.675064 1_455
O10 Ti0 1.961504 1_565
O11 Sr9 2.588715 1_555
O12 Sr13 2.750855 1_554
O13 Sr2 2.589991 1_555
O13 Sr10 2.599635 1_555
O13 Sr5 2.659459 1_555
O13 Sr12 2.660728 1_555
O14 Ti3 1.953313 1_555
O14 Ti2 2.029702 1_554
O14 Sr7 2.762802 1_554
O15 Sr11 2.591540 1_555
O15 Sr1 2.608079 1_565
O15 Sr6 2.671070 1_555
O16 Sr12 2.613111 1_555
O16 Sr10 2.736056 1_555
O17 Ti2 1.918312 1_545
O17 Sr13 2.641411 1_555
O18 Sr3 2.573653 1_555
O18 Sr11 2.674258 1_555
O18 Sr0 2.746669 1_555
O19 Sr4 2.605099 1_555
O20 Sr6 2.585562 1_545
O20 Sr14 2.598043 1_555
O20 Sr8 2.649698 1_655
O20 Sr1 2.651790 1_555
O21 Ti0 1.975484 1_656
O21 Sr7 2.596717 1_545
O21 Sr15 2.599750 1_555
O22 Sr5 2.578969 1_555
O22 Sr9 2.696944 1_655
O22 Sr2 2.737683 1_555
O23 Ti1 1.944282 1_656
O23 Ti3 2.003002 1_556
O24 Sr4 2.736500 1_554
O24 Sr13 2.744812 1_554
O25 Sr0 2.582080 1_555
O25 Sr10 2.586280 1_555
O25 Sr3 2.670472 1_555
O25 Sr12 2.673094 1_555
O26 Ti2 1.945575 1_554
O27 Sr11 2.592247 1_555
O28 Ti1 1.941195 1_655
O28 Sr15 2.762495 1_554
O29 Sr2 2.597548 1_555
O29 Sr8 2.606788 1_655
O29 Sr5 2.666247 1_555
O29 Sr14 2.699115 1_555
O30 Ti0 1.945332 1_665
O30 Ti3 2.047656 1_555
O30 Sr7 2.773282 1_554
O31 Sr9 2.580332 1_655
O31 Sr1 2.609425 1_565
O31 Sr6 2.673607 1_555
O32 Ti0 1.998245 1_555
O33 Sr8 2.600990 1_555
O33 Sr1 2.910334 1_455
O33 Sr9 3.031594 1_545
O34 Ti1 1.952086 1_555
O35 Sr9 2.593726 1_555
O35 Sr0 2.772512 1_555
O35 Sr2 2.834278 1_455
O35 Sr8 3.116062 1_555
O36 Ti2 2.075865 1_544
O37 Sr10 2.582634 1_555
O37 Sr1 2.736006 1_555
O37 Sr11 3.082785 1_545
O39 Sr11 2.572050 1_555
O39 Sr2 2.713455 1_555
O39 Sr0 2.833274 1_555
O39 Sr10 3.089282 1_555
O40 Sr12 2.592037 1_555
O40 Sr5 2.757887 1_555
O40 Sr3 2.825569 1_555
O41 Sr13 2.513292 1_555
O41 Sr4 2.890095 1_555
O42 Sr6 2.762752 1_555
O42 Sr12 3.137466 1_565
O43 Ti2 1.978238 1_555
O43 Sr7 2.672656 1_555
O44 Sr14 2.601971 1_555
O44 Sr3 2.758571 1_655
O44 Sr5 2.822549 1_555
O45 Ti1 2.099383 1_656
O45 Sr15 2.515168 1_555
O45 Sr4 2.716000 1_655
O46 Sr6 2.897289 1_555
O46 Sr14 3.173120 1_565
O47 Ti0 2.041468 1_666
O47 Sr7 2.892068 1_555
O49 Sr10 2.739463 1_555
O49 Sr8 2.846032 1_555
O49 Sr0 3.169466 1_555
O51 Sr0 2.516538 1_555
O51 Sr11 2.730615 1_555
O51 Sr9 2.810479 1_555
O53 Sr1 2.645911 1_555
O53 Sr8 2.791465 1_655
O53 Sr10 2.829332 1_555
O53 Sr2 3.072318 1_555
O54 Ti3 1.984134 1_555
O55 Sr2 2.561043 1_555
O55 Sr9 2.745609 1_655
O55 Sr11 2.848961 1_555
O55 Sr1 3.081080 1_565
O56 Sr3 2.586413 1_555
O56 Sr12 2.751063 1_555
O56 Sr14 2.800173 1_455
O57 Sr4 2.528294 1_555
O57 Sr13 2.733262 1_555
O57 Sr15 2.866393 1_455
O58 Sr3 3.178507 1_555
O60 Sr5 2.639531 1_555
O60 Sr14 2.779270 1_555
O60 Sr12 2.847897 1_555
O60 Sr6 3.060731 1_545
O61 Sr15 2.751981 1_555
O61 Sr13 2.854467 1_555
O62 Sr6 2.603718 1_555
O62 Sr5 3.057952 1_555
O63 Ti3 2.020724 1_556
O63 Sr7 2.470646 1_555
O64 Sr12 2.485856 1_555
O65 Sr13 2.437597 1_555
O67 Sr0 2.491987 1_555
O68 Sr14 2.463963 1_555
O69 Sr15 2.386325 1_555
O69 Sr1 2.423553 1_555
O71 Sr2 2.513642 1_555
O72 Sr3 2.495477 1_555
O73 Sr4 2.406721 1_555
O73 Sr8 2.446847 1_555
O75 Sr9 2.501314 1_555
O76 Sr5 2.484795 1_555
O77 Sr10 2.485229 1_555
O78 Sr6 2.487763 1_555
O79 Sr7 2.404222 1_555
O79 Sr11 2.469760 1_555
