# generated using pymatgen
data_V(GeO3)2
_symmetry_space_group_name_H-M   'P 1'
_cell_length_a   6.75367653
_cell_length_b   7.55438883
_cell_length_c   9.83050632
_cell_angle_alpha   78.90111879
_cell_angle_beta   76.53924380
_cell_angle_gamma   94.93560880
_symmetry_Int_Tables_number   1
_chemical_formula_structural   V(GeO3)2
_chemical_formula_sum   'V4 Ge8 O24'
_cell_volume   474.13023049
_cell_formula_units_Z   4
loop_
 _symmetry_equiv_pos_site_id
 _symmetry_equiv_pos_as_xyz
  1  'x, y, z'
loop_
 _atom_site_type_symbol
 _atom_site_label
 _atom_site_symmetry_multiplicity
 _atom_site_fract_x
 _atom_site_fract_y
 _atom_site_fract_z
 _atom_site_occupancy
  V  V0  1  0.89820200  0.17584700  0.92559500  1
  V  V1  1  0.10163300  0.82421700  0.07449800  1
  V  V2  1  0.89823700  0.67540900  0.42650000  1
  V  V3  1  0.10219500  0.32406500  0.57380700  1
  Ge  Ge0  1  0.38396700  0.72022100  0.48907400  1
  Ge  Ge1  1  0.38379000  0.22022600  0.98900300  1
  Ge  Ge2  1  0.79069900  0.94271300  0.67381700  1
  Ge  Ge3  1  0.79131100  0.44279500  0.17344200  1
  Ge  Ge4  1  0.61629800  0.27975500  0.51083500  1
  Ge  Ge5  1  0.61609000  0.77981300  0.01106400  1
  Ge  Ge6  1  0.20920500  0.05716300  0.32624800  1
  Ge  Ge7  1  0.20852000  0.55728000  0.82657700  1
  O  O0  1  0.38807800  0.94592300  0.40140600  1
  O  O1  1  0.38766000  0.44593400  0.90143000  1
  O  O2  1  0.65360700  0.28355200  0.32804200  1
  O  O3  1  0.65228400  0.78375700  0.82821800  1
  O  O4  1  0.61204700  0.05409700  0.59855600  1
  O  O5  1  0.61210200  0.55408100  0.09862100  1
  O  O6  1  0.34766000  0.21613400  0.17181700  1
  O  O7  1  0.34641100  0.71638400  0.67195700  1
  O  O8  1  0.07958900  0.19356100  0.43519800  1
  O  O9  1  0.07878700  0.69353900  0.93548400  1
  O  O10  1  0.37126600  0.33082300  0.58962300  1
  O  O11  1  0.37106200  0.83102300  0.08990900  1
  O  O12  1  0.92059600  0.80669900  0.56466400  1
  O  O13  1  0.92110300  0.30658200  0.06451100  1
  O  O14  1  0.62896800  0.66925100  0.41015200  1
  O  O15  1  0.62883300  0.16915300  0.90995900  1
  O  O16  1  0.17546200  0.57640000  0.46228000  1
  O  O17  1  0.17528900  0.07644200  0.96245300  1
  O  O18  1  0.96130700  0.10499500  0.71946300  1
  O  O19  1  0.96123600  0.60544500  0.21972200  1
  O  O20  1  0.82483800  0.42346700  0.53767800  1
  O  O21  1  0.82461700  0.92365900  0.03753400  1
  O  O22  1  0.03847400  0.89506700  0.28054900  1
  O  O23  1  0.03857500  0.39453000  0.78031800  1
loop_
_geom_bond_atom_site_label_1
_geom_bond_atom_site_label_2
_geom_bond_distance
_geom_bond_site_symmetry_2
Ge0 O7 1.750357 1_555
Ge0 O0 1.750897 1_555
Ge0 O14 1.764956 1_555
Ge0 O16 1.803434 1_555
Ge1 O6 1.750261 1_556
Ge1 O1 1.750954 1_555
Ge1 O15 1.765813 1_555
Ge1 O17 1.802192 1_555
Ge2 O4 1.749797 1_565
Ge2 O3 1.750486 1_555
Ge2 O12 1.765819 1_555
Ge2 O18 1.800378 1_565
Ge3 O5 1.750461 1_555
Ge3 O2 1.751405 1_555
Ge3 O13 1.765329 1_555
Ge3 O19 1.802617 1_555
Ge4 O2 1.749700 1_555
Ge4 O4 1.750590 1_555
Ge4 O10 1.765072 1_555
Ge4 O20 1.803364 1_555
Ge5 O3 1.750744 1_554
Ge5 O5 1.750920 1_555
Ge5 O11 1.765608 1_555
Ge5 O21 1.802242 1_555
Ge6 O0 1.750040 1_545
Ge6 O6 1.750794 1_555
Ge6 O8 1.765998 1_555
Ge6 O22 1.800239 1_545
Ge7 O1 1.750436 1_555
Ge7 O7 1.751369 1_555
Ge7 O9 1.765284 1_555
Ge7 O23 1.803104 1_555
O8 V3 1.854746 1_555
O9 V1 1.859368 1_556
O10 V3 1.856797 1_555
O11 V1 1.857932 1_555
O12 V2 1.854623 1_555
O13 V0 1.858907 1_554
O14 V2 1.859979 1_555
O15 V0 1.858261 1_555
O16 V3 1.964967 1_555
O16 V2 2.152879 1_455
O17 V1 1.965968 1_546
O17 V0 2.156363 1_455
O18 V3 1.968976 1_655
O18 V0 2.151537 1_555
O19 V1 1.964769 1_655
O19 V2 2.154545 1_555
O20 V2 1.961434 1_555
O20 V3 2.155903 1_655
O21 V0 1.965387 1_564
O21 V1 2.156339 1_655
O22 V2 1.972165 1_455
O22 V1 2.150779 1_555
O23 V0 1.964522 1_455
O23 V3 2.153751 1_555
