# generated using pymatgen
data_CaU(PbO3)2
_symmetry_space_group_name_H-M   'P 1'
_cell_length_a   6.23986700
_cell_length_b   5.95724616
_cell_length_c   8.69667466
_cell_angle_alpha   90.06578603
_cell_angle_beta   90.00000000
_cell_angle_gamma   90.00000000
_symmetry_Int_Tables_number   1
_chemical_formula_structural   CaU(PbO3)2
_chemical_formula_sum   'Ca2 U2 Pb4 O12'
_cell_volume   323.27626257
_cell_formula_units_Z   2
loop_
 _symmetry_equiv_pos_site_id
 _symmetry_equiv_pos_as_xyz
  1  'x, y, z'
loop_
 _atom_site_type_symbol
 _atom_site_label
 _atom_site_symmetry_multiplicity
 _atom_site_fract_x
 _atom_site_fract_y
 _atom_site_fract_z
 _atom_site_occupancy
  Ca  Ca0  1  0.50000000  0.00000000  0.50000000  1
  Ca  Ca1  1  0.00000000  0.50000000  0.00000000  1
  U  U0  1  0.50000000  0.00000000  0.00000000  1
  U  U1  1  0.00000000  0.50000000  0.50000000  1
  Pb  Pb0  1  0.45442300  0.51057900  0.77050700  1
  Pb  Pb1  1  0.04557700  0.01057900  0.27050700  1
  Pb  Pb2  1  0.54557700  0.48942100  0.22949300  1
  Pb  Pb3  1  0.95442300  0.98942100  0.72949300  1
  O  O0  1  0.04700100  0.59282500  0.73757100  1
  O  O1  1  0.45299900  0.09282500  0.23757100  1
  O  O2  1  0.95299900  0.40717500  0.26242900  1
  O  O3  1  0.54700100  0.90717500  0.76242900  1
  O  O4  1  0.17074600  0.19314300  0.52515500  1
  O  O5  1  0.32925400  0.69314300  0.02515500  1
  O  O6  1  0.82925400  0.80685700  0.47484500  1
  O  O7  1  0.67074600  0.30685700  0.97484500  1
  O  O8  1  0.27127100  0.67444300  0.44600500  1
  O  O9  1  0.22872900  0.17444300  0.94600500  1
  O  O10  1  0.72872900  0.32555700  0.55399500  1
  O  O11  1  0.77127100  0.82555700  0.05399500  1
loop_
_geom_bond_atom_site_label_1
_geom_bond_atom_site_label_2
_geom_bond_distance
_geom_bond_site_symmetry_2
Ca0 O4 2.364770 1_555
Ca0 O6 2.364770 1_545
Ca0 O1 2.367152 1_555
Ca0 O3 2.367152 1_545
Ca0 O10 2.452913 1_555
Ca0 O8 2.452913 1_545
Ca1 O5 2.364770 1_555
Ca1 O7 2.364770 1_454
Ca1 O0 2.367152 1_554
Ca1 O2 2.367152 1_455
Ca1 O11 2.452913 1_455
Ca1 O9 2.452913 1_554
O0 U1 2.158206 1_555
O0 Pb3 2.433310 1_455
O0 Pb0 2.604901 1_555
O1 U0 2.158206 1_555
O1 Pb2 2.433310 1_555
O1 Pb1 2.604901 1_555
O2 U1 2.158206 1_655
O2 Pb1 2.433310 1_655
O2 Pb2 2.604901 1_555
O3 U0 2.158206 1_566
O3 Pb0 2.433310 1_555
O3 Pb3 2.604901 1_555
O4 U1 2.127343 1_555
O4 Pb3 2.541222 1_445
O4 Pb1 2.586838 1_555
O5 U0 2.127343 1_565
O5 Pb2 2.541222 1_555
O5 Pb0 2.586838 1_554
O6 U1 2.127343 1_655
O6 Pb1 2.541222 1_665
O6 Pb3 2.586838 1_555
O7 U0 2.127343 1_556
O7 Pb0 2.541222 1_555
O7 Pb2 2.586838 1_556
O8 U1 2.041268 1_555
O8 Pb2 2.772229 1_555
O9 U0 2.041268 1_556
O9 Pb3 2.772229 1_445
O10 U1 2.041268 1_655
O10 Pb0 2.772229 1_555
O11 U0 2.041268 1_565
O11 Pb1 2.772229 1_665
