# generated using pymatgen
data_Na4Ni7(PO4)6
_symmetry_space_group_name_H-M   'P 1'
_cell_length_a   8.86839753
_cell_length_b   8.86839753
_cell_length_c   6.49689054
_cell_angle_alpha   81.10715878
_cell_angle_beta   81.10715878
_cell_angle_gamma   105.65197123
_symmetry_Int_Tables_number   1
_chemical_formula_structural   Na4Ni7(PO4)6
_chemical_formula_sum   'Na4 Ni7 P6 O24'
_cell_volume   475.64817183
_cell_formula_units_Z   1
loop_
 _symmetry_equiv_pos_site_id
 _symmetry_equiv_pos_as_xyz
  1  'x, y, z'
loop_
 _atom_site_type_symbol
 _atom_site_label
 _atom_site_symmetry_multiplicity
 _atom_site_fract_x
 _atom_site_fract_y
 _atom_site_fract_z
 _atom_site_occupancy
  Na  Na0  1  0.92957800  0.92957800  0.52202300  1
  Na  Na1  1  0.27713900  0.27713900  0.46324900  1
  Na  Na2  1  0.73677700  0.48745900  0.46083800  1
  Na  Na3  1  0.48745900  0.73677700  0.46083800  1
  Ni  Ni0  1  0.35813500  0.98344400  0.18203300  1
  Ni  Ni1  1  0.98344400  0.35813500  0.18203300  1
  Ni  Ni2  1  0.02393900  0.63695000  0.81785500  1
  Ni  Ni3  1  0.63695000  0.02393900  0.81785500  1
  Ni  Ni4  1  0.37525600  0.62710400  0.99868900  1
  Ni  Ni5  1  0.62710400  0.37525600  0.99868900  1
  Ni  Ni6  1  0.00081600  0.00081600  0.00042300  1
  P  P0  1  0.69154500  0.69154500  0.03563300  1
  P  P1  1  0.31433800  0.31433800  0.95778500  1
  P  P2  1  0.28293800  0.90606600  0.71992300  1
  P  P3  1  0.90606600  0.28293800  0.71992300  1
  P  P4  1  0.09967900  0.71550400  0.28287500  1
  P  P5  1  0.71550400  0.09967900  0.28287500  1
  O  O0  1  0.55620900  0.55620900  0.20301600  1
  O  O1  1  0.45286200  0.45286200  0.80284700  1
  O  O2  1  0.80059300  0.80059300  0.14592900  1
  O  O3  1  0.20446600  0.20446600  0.84977100  1
  O  O4  1  0.22382100  0.40010600  0.10777000  1
  O  O5  1  0.40010600  0.22382100  0.10777000  1
  O  O6  1  0.60166500  0.78114000  0.89304100  1
  O  O7  1  0.78114000  0.60166500  0.89304100  1
  O  O8  1  0.99946900  0.66030100  0.51011300  1
  O  O9  1  0.66030100  0.99946900  0.51011300  1
  O  O10  1  0.33844600  0.00076100  0.49111600  1
  O  O11  1  0.00076100  0.33844600  0.49111600  1
  O  O12  1  0.01776800  0.60383200  0.14353400  1
  O  O13  1  0.60383200  0.01776800  0.14353400  1
  O  O14  1  0.39252000  0.98613500  0.86169000  1
  O  O15  1  0.98613500  0.39252000  0.86169000  1
  O  O16  1  0.11196300  0.89749900  0.21269400  1
  O  O17  1  0.72482000  0.28438400  0.74899700  1
  O  O18  1  0.28438400  0.72482000  0.74899700  1
  O  O19  1  0.72024000  0.28175100  0.25160900  1
  O  O20  1  0.28175100  0.72024000  0.25160900  1
  O  O21  1  0.88676600  0.09951700  0.79018600  1
  O  O22  1  0.09951700  0.88676600  0.79018600  1
  O  O23  1  0.89749900  0.11196300  0.21269400  1
loop_
_geom_bond_atom_site_label_1
_geom_bond_atom_site_label_2
_geom_bond_distance
_geom_bond_site_symmetry_2
Na0 O23 2.481125 1_565
Na0 O16 2.481125 1_655
Na0 O21 2.523261 1_565
Na0 O22 2.523261 1_655
Na0 O8 2.633240 1_555
Na0 O9 2.633240 1_555
Na1 O3 2.431447 1_555
Na1 O4 2.565899 1_555
Na1 O5 2.565899 1_555
Na1 O10 2.635949 1_555
Na1 O11 2.635949 1_555
Na2 O17 2.356421 1_555
Na2 O19 2.425150 1_555
Na2 O8 2.516905 1_555
Na2 O0 2.604265 1_555
Na3 O18 2.356421 1_555
Na3 O20 2.425150 1_555
Na3 O9 2.516905 1_555
Na3 O0 2.604265 1_555
Ni0 O10 2.021846 1_565
Ni0 O5 2.028315 1_565
Ni0 O14 2.051729 1_554
Ni0 O16 2.075454 1_555
Ni0 O13 2.086400 1_565
Ni0 O20 2.199456 1_555
Ni1 O11 2.021846 1_655
Ni1 O4 2.028315 1_655
Ni1 O15 2.051729 1_554
Ni1 O23 2.075454 1_555
Ni1 O12 2.086400 1_655
Ni1 O19 2.199456 1_555
Ni2 O8 2.029243 1_455
Ni2 O7 2.058384 1_455
Ni2 O15 2.068795 1_455
Ni2 O12 2.080789 1_556
Ni2 O22 2.104334 1_555
Ni2 O18 2.178025 1_555
Ni3 O9 2.029243 1_545
Ni3 O6 2.058384 1_545
Ni3 O14 2.068795 1_545
Ni3 O13 2.080789 1_556
Ni3 O21 2.104334 1_555
Ni3 O17 2.178025 1_555
Ni4 O4 2.040660 1_556
Ni4 O6 2.042747 1_555
Ni4 O18 2.092467 1_555
Ni4 O20 2.106623 1_556
Ni4 O1 2.321930 1_555
Ni4 O0 2.382813 1_556
Ni5 O5 2.040660 1_556
Ni5 O7 2.042747 1_555
Ni5 O17 2.092467 1_555
Ni5 O19 2.106623 1_556
Ni5 O1 2.321930 1_555
Ni5 O0 2.382813 1_556
Ni6 O22 2.046959 1_544
Ni6 O21 2.046959 1_454
Ni6 O23 2.056691 1_455
Ni6 O16 2.056691 1_545
Ni6 O2 2.111949 1_445
Ni6 O3 2.151402 1_554
O0 P0 1.574569 1_555
O1 P1 1.566091 1_555
O2 P0 1.519159 1_555
O3 P1 1.517182 1_555
O4 P1 1.577734 1_554
O5 P1 1.577734 1_554
O6 P0 1.570789 1_556
O7 P0 1.570789 1_556
O8 P4 1.531398 1_655
O9 P5 1.531398 1_565
O10 P2 1.523839 1_545
O11 P3 1.523839 1_455
O12 P4 1.555745 1_555
O13 P5 1.555745 1_555
O14 P2 1.550342 1_555
O15 P3 1.550342 1_555
O16 P4 1.577028 1_555
O17 P3 1.592940 1_555
O18 P2 1.592940 1_555
O19 P5 1.584172 1_555
O20 P4 1.584172 1_555
O21 P3 1.574708 1_555
O22 P2 1.574708 1_555
O23 P5 1.577028 1_555
