# generated using pymatgen
data_La2Ta2O9
_symmetry_space_group_name_H-M   'P 1'
_cell_length_a   8.11878698
_cell_length_b   8.11878698
_cell_length_c   6.79148452
_cell_angle_alpha   68.37779334
_cell_angle_beta   68.37779334
_cell_angle_gamma   27.96668492
_symmetry_Int_Tables_number   1
_chemical_formula_structural   La2Ta2O9
_chemical_formula_sum   'La2 Ta2 O9'
_cell_volume   194.20791719
_cell_formula_units_Z   1
loop_
 _symmetry_equiv_pos_site_id
 _symmetry_equiv_pos_as_xyz
  1  'x, y, z'
loop_
 _atom_site_type_symbol
 _atom_site_label
 _atom_site_symmetry_multiplicity
 _atom_site_fract_x
 _atom_site_fract_y
 _atom_site_fract_z
 _atom_site_occupancy
  La  La0  1  0.30492300  0.30492300  0.18647900  1
  La  La1  1  0.69507700  0.69507700  0.81352100  1
  Ta  Ta0  1  0.03811600  0.03811600  0.19603700  1
  Ta  Ta1  1  0.96188400  0.96188400  0.80396300  1
  O  O0  1  0.07929800  0.07929800  0.84504000  1
  O  O1  1  0.92070200  0.92070200  0.15496000  1
  O  O2  1  0.54669500  0.54669500  0.16314700  1
  O  O3  1  0.45330500  0.45330500  0.83685300  1
  O  O4  1  0.00000000  0.00000000  0.50000000  1
  O  O5  1  0.17422100  0.17422100  0.08079800  1
  O  O6  1  0.82577900  0.82577900  0.91920200  1
  O  O7  1  0.72161400  0.72161400  0.43644400  1
  O  O8  1  0.27838600  0.27838600  0.56355600  1
loop_
_geom_bond_atom_site_label_1
_geom_bond_atom_site_label_2
_geom_bond_distance
_geom_bond_site_symmetry_2
La0 O5 2.424625 1_555
La0 O8 2.433078 1_555
La0 O7 2.600257 1_545
La0 O7 2.600257 1_455
La0 O6 2.607428 1_454
La0 O6 2.607428 1_544
La0 O3 2.624507 1_554
La0 O1 2.631713 1_545
La0 O1 2.631713 1_455
La1 O6 2.424625 1_555
La1 O7 2.433078 1_555
La1 O8 2.600257 1_565
La1 O8 2.600257 1_655
La1 O5 2.607428 1_566
La1 O5 2.607428 1_656
La1 O2 2.624507 1_556
La1 O0 2.631713 1_565
La1 O0 2.631713 1_655
O0 Ta1 1.972910 1_445
O0 Ta0 2.220079 1_556
O1 Ta0 1.972910 1_665
O1 Ta1 2.220079 1_554
O2 Ta0 1.973317 1_565
O2 Ta0 1.973317 1_655
O3 Ta1 1.973317 1_545
O3 Ta1 1.973317 1_455
O4 Ta0 1.918508 1_555
O4 Ta1 1.918508 1_445
O5 Ta0 1.984139 1_555
O6 Ta1 1.984139 1_555
