# generated using pymatgen
data_EuZrF7
_symmetry_space_group_name_H-M   'P 1'
_cell_length_a   5.75621155
_cell_length_b   6.14222788
_cell_length_c   8.31111245
_cell_angle_alpha   102.09193552
_cell_angle_beta   90.00000000
_cell_angle_gamma   90.00000000
_symmetry_Int_Tables_number   1
_chemical_formula_structural   EuZrF7
_chemical_formula_sum   'Eu2 Zr2 F14'
_cell_volume   287.32771353
_cell_formula_units_Z   2
loop_
 _symmetry_equiv_pos_site_id
 _symmetry_equiv_pos_as_xyz
  1  'x, y, z'
loop_
 _atom_site_type_symbol
 _atom_site_label
 _atom_site_symmetry_multiplicity
 _atom_site_fract_x
 _atom_site_fract_y
 _atom_site_fract_z
 _atom_site_occupancy
  Eu  Eu0  1  0.69977654  0.65650985  0.68705108  1
  Eu  Eu1  1  0.19977654  0.34349015  0.31294892  1
  Zr  Zr0  1  0.70945012  0.81104497  0.22479383  1
  Zr  Zr1  1  0.20945012  0.18895503  0.77520617  1
  F  F0  1  0.88501591  0.45592693  0.47137151  1
  F  F1  1  0.38501591  0.54407307  0.52862849  1
  F  F2  1  0.42952077  0.93297599  0.76959835  1
  F  F3  1  0.92952077  0.06702401  0.23040165  1
  F  F4  1  0.95331477  0.95951736  0.76159474  1
  F  F5  1  0.45331477  0.04048264  0.23840526  1
  F  F6  1  0.99617875  0.45179408  0.78418226  1
  F  F7  1  0.49617875  0.54820592  0.21581774  1
  F  F8  1  0.69687216  0.75580537  0.97826485  1
  F  F9  1  0.19687216  0.24419463  0.02173515  1
  F  F10  1  0.70720730  0.86402646  0.47261958  1
  F  F11  1  0.20720730  0.13597354  0.52738042  1
  F  F12  1  0.49902268  0.37900787  0.78685312  1
  F  F13  1  0.99902268  0.62099213  0.21314688  1
loop_
_geom_bond_atom_site_label_1
_geom_bond_atom_site_label_2
_geom_bond_distance
_geom_bond_site_symmetry_2
Eu0 F0 2.223233 1_555
Eu0 F1 2.261044 1_555
Eu0 F2 2.299181 1_555
Eu0 F4 2.344035 1_555
Eu0 F12 2.349674 1_555
Eu0 F6 2.359873 1_555
Eu0 F8 2.368905 1_555
Eu0 F10 2.398809 1_555
Eu1 F1 2.223233 1_555
Eu1 F0 2.261044 1_455
Eu1 F3 2.299181 1_455
Eu1 F5 2.344035 1_555
Eu1 F13 2.349674 1_455
Eu1 F7 2.359873 1_555
Eu1 F9 2.368905 1_555
Eu1 F11 2.398809 1_555
F2 Zr1 2.012027 1_565
F3 Zr0 2.012027 1_545
F4 Zr1 2.026272 1_665
F5 Zr0 2.026272 1_545
F6 Zr1 2.017062 1_655
F7 Zr0 2.017062 1_555
F8 Zr0 2.006793 1_556
F9 Zr1 2.006793 1_554
F10 Zr0 2.016840 1_555
F11 Zr1 2.016840 1_555
F12 Zr1 2.025608 1_555
F13 Zr0 2.025608 1_555
