# generated using pymatgen
data_LiMn6O5F7
_symmetry_space_group_name_H-M   'P 1'
_cell_length_a   7.35686111
_cell_length_b   5.93849057
_cell_length_c   5.75015138
_cell_angle_alpha   76.00390648
_cell_angle_beta   73.75064411
_cell_angle_gamma   71.96089185
_symmetry_Int_Tables_number   1
_chemical_formula_structural   LiMn6O5F7
_chemical_formula_sum   'Li1 Mn6 O5 F7'
_cell_volume   225.98697402
_cell_formula_units_Z   1
loop_
 _symmetry_equiv_pos_site_id
 _symmetry_equiv_pos_as_xyz
  1  'x, y, z'
loop_
 _atom_site_type_symbol
 _atom_site_label
 _atom_site_symmetry_multiplicity
 _atom_site_fract_x
 _atom_site_fract_y
 _atom_site_fract_z
 _atom_site_occupancy
  Li  Li0  1  0.32897600  0.18264600  0.68097900  1
  Mn  Mn0  1  0.83356900  0.67491300  0.65854800  1
  Mn  Mn1  1  0.67793800  0.33542100  0.33548300  1
  Mn  Mn2  1  0.33124700  0.69558100  0.64440600  1
  Mn  Mn3  1  0.15422800  0.32119100  0.29845500  1
  Mn  Mn4  1  0.51408900  0.97516400  0.07049200  1
  Mn  Mn5  1  0.98212700  0.99680400  0.00491600  1
  O  O0  1  0.62956000  0.57381300  0.54682000  1
  O  O1  1  0.95732300  0.20945200  0.23415800  1
  O  O2  1  0.70008100  0.10446500  0.12533600  1
  O  O3  1  0.03320700  0.78953800  0.76285900  1
  O  O4  1  0.33293000  0.99414800  0.38978700  1
  F  F0  1  0.62107900  0.03418800  0.68135700  1
  F  F1  1  0.32716700  0.37238000  0.92281700  1
  F  F2  1  0.29015900  0.91175700  0.93665300  1
  F  F3  1  0.37324400  0.43370100  0.40256800  1
  F  F4  1  0.67114500  0.62767700  0.01765800  1
  F  F5  1  0.03415800  0.30808000  0.69479500  1
  F  F6  1  0.00406900  0.67783300  0.30024700  1
loop_
_geom_bond_atom_site_label_1
_geom_bond_atom_site_label_2
_geom_bond_distance
_geom_bond_site_symmetry_2
Li0 O4 2.217363 1_545
Mn0 O3 2.071207 1_655
Mn0 O0 2.076072 1_555
Mn1 O1 1.926678 1_555
Mn1 O0 1.971209 1_555
Mn1 O2 1.980135 1_555
Mn2 O4 2.008776 1_555
Mn2 O3 2.042855 1_555
Mn2 O0 2.044128 1_555
Mn3 O1 1.920722 1_455
Mn3 O4 2.021832 1_545
Mn4 O2 1.889623 1_565
Mn4 O4 1.948719 1_555
Mn5 O2 1.944784 1_565
Mn5 O3 1.960354 1_654
Mn5 O1 1.973177 1_565
F0 Li0 2.055143 1_555
F0 Mn4 2.134253 1_546
F0 Mn0 2.228897 1_545
F0 Mn1 2.367995 1_555
F1 Li0 1.985382 1_555
F1 Mn3 2.181880 1_556
F1 Mn2 2.184060 1_555
F1 Mn4 2.419085 1_546
F2 Li0 1.932960 1_565
F2 Mn5 2.105666 1_456
F2 Mn4 2.163781 1_556
F2 Mn2 2.254390 1_555
F3 Li0 1.935493 1_555
F3 Mn1 2.080600 1_555
F3 Mn3 2.191132 1_555
F3 Mn2 2.226175 1_555
F4 Mn4 2.077424 1_555
F4 Mn0 2.077749 1_554
F4 Mn1 2.194932 1_555
F5 Li0 2.048668 1_555
F5 Mn3 2.193261 1_555
F5 Mn0 2.219965 1_455
F5 Mn5 2.281493 1_446
F6 Mn3 2.064265 1_555
F6 Mn0 2.090065 1_455
F6 Mn5 2.214953 1_455
