# generated using pymatgen
data_MgTiP3WO12
_symmetry_space_group_name_H-M   'P 1'
_cell_length_a   8.67876926
_cell_length_b   8.67876880
_cell_length_c   8.67876907
_cell_angle_alpha   60.67963284
_cell_angle_beta   60.67963857
_cell_angle_gamma   60.67963939
_symmetry_Int_Tables_number   1
_chemical_formula_structural   MgTiP3WO12
_chemical_formula_sum   'Mg2 Ti2 P6 W2 O24'
_cell_volume   469.32271312
_cell_formula_units_Z   2
loop_
 _symmetry_equiv_pos_site_id
 _symmetry_equiv_pos_as_xyz
  1  'x, y, z'
loop_
 _atom_site_type_symbol
 _atom_site_label
 _atom_site_symmetry_multiplicity
 _atom_site_fract_x
 _atom_site_fract_y
 _atom_site_fract_z
 _atom_site_occupancy
  Mg  Mg0  1  0.00170500  0.00170500  0.00170500  1
  Mg  Mg1  1  0.50170500  0.50170500  0.50170500  1
  Ti  Ti0  1  0.14653700  0.14653700  0.14653700  1
  Ti  Ti1  1  0.64653700  0.64653700  0.64653700  1
  P  P0  1  0.04245200  0.44731300  0.75969500  1
  P  P1  1  0.44731300  0.75969500  0.04245200  1
  P  P2  1  0.75969500  0.04245200  0.44731300  1
  P  P3  1  0.25969500  0.94731300  0.54245200  1
  P  P4  1  0.54245200  0.25969500  0.94731300  1
  P  P5  1  0.94731300  0.54245200  0.25969500  1
  W  W0  1  0.35798300  0.35798300  0.35798300  1
  W  W1  1  0.85798300  0.85798300  0.85798300  1
  O  O0  1  0.09311500  0.50198000  0.33275900  1
  O  O1  1  0.33275900  0.09311500  0.50198000  1
  O  O2  1  0.05171400  0.25249600  0.91603100  1
  O  O3  1  0.50198000  0.33275900  0.09311500  1
  O  O4  1  0.00198000  0.59311500  0.83276000  1
  O  O5  1  0.23633200  0.43378200  0.60370900  1
  O  O6  1  0.25249600  0.91603100  0.05171400  1
  O  O7  1  0.43378200  0.60370900  0.23633200  1
  O  O8  1  0.19240300  0.00233100  0.37765900  1
  O  O9  1  0.60370900  0.23633200  0.43378200  1
  O  O10  1  0.10370900  0.93378200  0.73633200  1
  O  O11  1  0.37765900  0.19240300  0.00233100  1
  O  O12  1  0.59311500  0.83276000  0.00198000  1
  O  O13  1  0.91603100  0.05171400  0.25249600  1
  O  O14  1  0.41603100  0.75249600  0.55171400  1
  O  O15  1  0.83276000  0.00198000  0.59311500  1
  O  O16  1  0.55171400  0.41603100  0.75249600  1
  O  O17  1  0.73633200  0.10370900  0.93378200  1
  O  O18  1  0.75249600  0.55171400  0.41603100  1
  O  O19  1  0.00233100  0.37765900  0.19240300  1
  O  O20  1  0.50233100  0.69240300  0.87765900  1
  O  O21  1  0.93378200  0.73633200  0.10370900  1
  O  O22  1  0.69240300  0.87765900  0.50233100  1
  O  O23  1  0.87765900  0.50233100  0.69240300  1
loop_
_geom_bond_atom_site_label_1
_geom_bond_atom_site_label_2
_geom_bond_distance
_geom_bond_site_symmetry_2
Mg0 O2 2.121969 1_554
Mg0 O13 2.121970 1_455
Mg0 O6 2.121970 1_545
Mg0 O21 2.292869 1_445
Mg0 O10 2.292869 1_544
Mg0 O17 2.292869 1_454
Mg1 O16 2.121970 1_555
Mg1 O14 2.121970 1_555
Mg1 O18 2.121970 1_555
Mg1 O7 2.292869 1_555
Mg1 O9 2.292869 1_555
Mg1 O5 2.292869 1_555
O0 P5 1.503019 1_455
O0 W0 2.074907 1_555
O1 P3 1.503019 1_545
O1 W0 2.074907 1_555
O2 P0 1.559821 1_555
O2 Ti0 2.143454 1_556
O3 P4 1.503019 1_554
O3 W0 2.074907 1_555
O4 P0 1.503025 1_555
O4 W1 2.074904 1_455
O5 P0 1.552090 1_555
O5 W0 2.141037 1_555
O6 P1 1.559821 1_555
O6 Ti0 2.143454 1_565
O7 P1 1.552090 1_555
O7 W0 2.141037 1_555
O8 P3 1.578175 1_545
O8 Ti0 1.893059 1_555
O9 P2 1.552090 1_555
O9 W0 2.141037 1_555
O10 P3 1.552090 1_555
O10 W1 2.141037 1_455
O11 P4 1.578175 1_554
O11 Ti0 1.893059 1_555
O12 P1 1.503025 1_555
O12 W1 2.074904 1_554
O13 P2 1.559821 1_555
O13 Ti0 2.143454 1_655
O14 P3 1.559821 1_555
O14 Ti1 2.143454 1_555
O15 P2 1.503025 1_555
O15 W1 2.074904 1_545
O16 P4 1.559821 1_555
O16 Ti1 2.143454 1_555
O17 P4 1.552090 1_555
O17 W1 2.141037 1_545
O18 P5 1.559821 1_555
O18 Ti1 2.143454 1_555
O19 P5 1.578175 1_455
O19 Ti0 1.893059 1_555
O20 P1 1.578175 1_556
O20 Ti1 1.893059 1_555
O21 P5 1.552090 1_555
O21 W1 2.141037 1_554
O22 P2 1.578175 1_565
O22 Ti1 1.893059 1_555
O23 P0 1.578175 1_655
O23 Ti1 1.893059 1_555
