# generated using pymatgen
data_Mn2Si(P2O7)2
_symmetry_space_group_name_H-M   'P 1'
_cell_length_a   9.04684618
_cell_length_b   9.04684618
_cell_length_c   12.56241722
_cell_angle_alpha   77.42496100
_cell_angle_beta   77.42496100
_cell_angle_gamma   33.22517039
_symmetry_Int_Tables_number   1
_chemical_formula_structural   Mn2Si(P2O7)2
_chemical_formula_sum   'Mn4 Si2 P8 O28'
_cell_volume   548.63610726
_cell_formula_units_Z   2
loop_
 _symmetry_equiv_pos_site_id
 _symmetry_equiv_pos_as_xyz
  1  'x, y, z'
loop_
 _atom_site_type_symbol
 _atom_site_label
 _atom_site_symmetry_multiplicity
 _atom_site_fract_x
 _atom_site_fract_y
 _atom_site_fract_z
 _atom_site_occupancy
  Mn  Mn0  1  0.91048500  0.59679600  0.63119400  1
  Mn  Mn1  1  0.40320400  0.08951500  0.86880600  1
  Mn  Mn2  1  0.08951500  0.40320400  0.36880600  1
  Mn  Mn3  1  0.59679600  0.91048500  0.13119400  1
  Si  Si0  1  0.85980500  0.14019500  0.75000000  1
  Si  Si1  1  0.14019500  0.85980500  0.25000000  1
  P  P0  1  0.70428100  0.02869600  0.41658800  1
  P  P1  1  0.97130400  0.29571900  0.08341200  1
  P  P2  1  0.29571900  0.97130400  0.58341200  1
  P  P3  1  0.02869600  0.70428100  0.91658800  1
  P  P4  1  0.52706100  0.22670900  0.63449400  1
  P  P5  1  0.77329100  0.47293900  0.86550600  1
  P  P6  1  0.47293900  0.77329100  0.36550600  1
  P  P7  1  0.22670900  0.52706100  0.13449400  1
  O  O0  1  0.89685800  0.98010100  0.33217800  1
  O  O1  1  0.01989900  0.10314200  0.16782200  1
  O  O2  1  0.10314200  0.01989900  0.66782200  1
  O  O3  1  0.98010100  0.89685800  0.83217800  1
  O  O4  1  0.16247200  0.23335100  0.54671000  1
  O  O5  1  0.76664900  0.83752800  0.95329000  1
  O  O6  1  0.83752800  0.76664900  0.45329000  1
  O  O7  1  0.23335100  0.16247200  0.04671000  1
  O  O8  1  0.57171200  0.73937100  0.62692600  1
  O  O9  1  0.26062900  0.42828800  0.87307400  1
  O  O10  1  0.42828800  0.26062900  0.37307400  1
  O  O11  1  0.73937100  0.57171200  0.12692600  1
  O  O12  1  0.69721000  0.11923000  0.51763400  1
  O  O13  1  0.88077000  0.30279000  0.98236600  1
  O  O14  1  0.28535200  0.62471500  0.17968500  1
  O  O15  1  0.37528500  0.71464800  0.32031500  1
  O  O16  1  0.71464800  0.37528500  0.82031500  1
  O  O17  1  0.62471500  0.28535200  0.67968500  1
  O  O18  1  0.49038600  0.22756900  0.12113000  1
  O  O19  1  0.77243100  0.50961400  0.37887000  1
  O  O20  1  0.50961400  0.77243100  0.87887000  1
  O  O21  1  0.22756900  0.49038600  0.62113000  1
  O  O22  1  0.37736900  0.00203900  0.29749300  1
  O  O23  1  0.99796100  0.62263100  0.20250700  1
  O  O24  1  0.62263100  0.99796100  0.70250700  1
  O  O25  1  0.00203900  0.37736900  0.79749300  1
  O  O26  1  0.11923000  0.69721000  0.01763400  1
  O  O27  1  0.30279000  0.88077000  0.48236600  1
loop_
_geom_bond_atom_site_label_1
_geom_bond_atom_site_label_2
_geom_bond_distance
_geom_bond_site_symmetry_2
Mn0 O21 2.108682 1_655
Mn0 O8 2.118336 1_555
Mn0 O4 2.249420 1_655
Mn0 O25 2.277704 1_655
Mn0 O6 2.289489 1_555
Mn0 O24 2.311583 1_555
Mn1 O20 2.108682 1_545
Mn1 O9 2.118336 1_555
Mn1 O5 2.249420 1_545
Mn1 O24 2.277704 1_545
Mn1 O7 2.289489 1_556
Mn1 O25 2.311583 1_555
Mn2 O19 2.108682 1_455
Mn2 O10 2.118336 1_555
Mn2 O6 2.249420 1_455
Mn2 O23 2.277704 1_455
Mn2 O4 2.289489 1_555
Mn2 O22 2.311583 1_555
Mn3 O18 2.108682 1_565
Mn3 O11 2.118336 1_555
Mn3 O7 2.249420 1_565
Mn3 O22 2.277704 1_565
Mn3 O5 2.289489 1_554
Mn3 O23 2.311583 1_555
O0 P0 1.571666 1_565
O0 Si1 1.608651 1_655
O1 P1 1.571666 1_455
O1 Si1 1.608651 1_545
O2 P2 1.571666 1_545
O2 Si0 1.608651 1_455
O3 P3 1.571666 1_655
O3 Si0 1.608651 1_565
O4 P2 1.506910 1_545
O5 P3 1.506910 1_655
O6 P0 1.506910 1_565
O7 P1 1.506910 1_455
O8 P2 1.505162 1_555
O9 P3 1.505162 1_555
O10 P0 1.505162 1_555
O11 P1 1.505162 1_555
O12 P4 1.613549 1_555
O12 P0 1.617393 1_555
O13 P5 1.613549 1_555
O13 P1 1.617393 1_556
O14 P7 1.586811 1_555
O14 Si1 1.633504 1_555
O15 P6 1.586811 1_555
O15 Si1 1.633504 1_555
O16 P5 1.586811 1_555
O16 Si0 1.633504 1_555
O17 P4 1.586811 1_555
O17 Si0 1.633504 1_555
O18 P7 1.506664 1_555
O19 P6 1.506664 1_555
O20 P5 1.506664 1_555
O21 P4 1.506664 1_555
O22 P6 1.522632 1_545
O23 P7 1.522632 1_655
O24 P4 1.522632 1_565
O25 P5 1.522632 1_455
O26 P7 1.613549 1_555
O26 P3 1.617393 1_554
O27 P6 1.613549 1_555
O27 P2 1.617393 1_555
