# generated using pymatgen
data_Mg14SnC
_symmetry_space_group_name_H-M   'P 1'
_cell_length_a   6.25554870
_cell_length_b   6.25554822
_cell_length_c   10.02512830
_cell_angle_alpha   90.00000000
_cell_angle_beta   90.00000000
_cell_angle_gamma   120.00000256
_symmetry_Int_Tables_number   1
_chemical_formula_structural   Mg14SnC
_chemical_formula_sum   'Mg14 Sn1 C1'
_cell_volume   339.74364758
_cell_formula_units_Z   1
loop_
 _symmetry_equiv_pos_site_id
 _symmetry_equiv_pos_as_xyz
  1  'x, y, z'
loop_
 _atom_site_type_symbol
 _atom_site_label
 _atom_site_symmetry_multiplicity
 _atom_site_fract_x
 _atom_site_fract_y
 _atom_site_fract_z
 _atom_site_occupancy
  Mg  Mg0  1  0.16878723  0.83439312  0.12500000  1
  Mg  Mg1  1  0.15907558  0.82953729  0.62500000  1
  Mg  Mg2  1  0.66560688  0.33121277  0.12500000  1
  Mg  Mg3  1  0.67046271  0.34092442  0.62500000  1
  Mg  Mg4  1  0.66560688  0.83439312  0.12500000  1
  Mg  Mg5  1  0.67046271  0.82953729  0.62500000  1
  Mg  Mg6  1  0.32934512  0.17065488  0.39408539  1
  Mg  Mg7  1  0.32934512  0.17065488  0.85591461  1
  Mg  Mg8  1  0.32934512  0.65869125  0.39408539  1
  Mg  Mg9  1  0.32934512  0.65869125  0.85591461  1
  Mg  Mg10  1  0.84130875  0.17065488  0.39408539  1
  Mg  Mg11  1  0.84130875  0.17065488  0.85591461  1
  Mg  Mg12  1  0.83333300  0.66666700  0.37626475  1
  Mg  Mg13  1  0.83333300  0.66666700  0.87373525  1
  Sn  Sn0  1  0.16666700  0.33333300  0.12500000  1
  C  C0  1  0.16666700  0.33333300  0.62500000  1
loop_
_geom_bond_atom_site_label_1
_geom_bond_atom_site_label_2
_geom_bond_distance
_geom_bond_site_symmetry_2
Mg0 Mg12 3.106089 1_455
Mg0 Mg13 3.106089 1_454
Mg0 Sn0 3.127795 1_565
Mg0 Sn0 3.127795 1_555
Mg0 Mg9 3.255438 1_554
Mg0 Mg8 3.255438 1_555
Mg0 Mg6 3.255444 1_565
Mg0 Mg7 3.255444 1_564
Mg1 Mg8 2.962098 1_555
Mg1 Mg9 2.962098 1_555
Mg1 Mg6 2.962105 1_565
Mg1 Mg7 2.962105 1_565
Mg1 Mg13 3.054868 1_455
Mg1 Mg12 3.054868 1_455
Mg2 Sn0 3.127795 1_555
Mg2 Sn0 3.127795 1_655
Mg2 Mg7 3.255444 1_554
Mg2 Mg6 3.255444 1_555
Mg3 Mg7 2.962105 1_555
Mg3 Mg6 2.962105 1_555
Mg4 Sn0 3.127795 1_555
Mg4 Sn0 3.127795 1_665
Mg4 Mg9 3.255444 1_554
Mg4 Mg8 3.255444 1_555
Mg5 Mg8 2.962105 1_555
Mg5 Mg9 2.962105 1_555
Mg6 Mg8 3.052935 1_555
Mg6 Mg8 3.202613 1_545
Mg6 Sn0 3.222407 1_555
Mg7 Mg9 3.052935 1_555
Mg7 Mg9 3.202613 1_545
Mg7 Sn0 3.222407 1_556
Mg8 Sn0 3.222413 1_555
Mg9 Sn0 3.222413 1_556
Mg10 Mg3 2.962098 1_555
Mg10 Mg5 2.962105 1_545
Mg10 Mg8 3.052935 1_655
Mg10 Mg6 3.052935 1_655
Mg10 Mg12 3.133170 1_555
Mg10 Mg12 3.133170 1_545
Mg10 Mg8 3.202613 1_545
Mg10 Mg6 3.202613 1_555
Mg10 Sn0 3.222413 1_655
Mg10 Mg2 3.255438 1_555
Mg10 Mg4 3.255443 1_545
Mg11 Mg3 2.962098 1_555
Mg11 Mg5 2.962105 1_545
Mg11 Mg9 3.052935 1_655
Mg11 Mg7 3.052935 1_655
Mg11 Mg13 3.133170 1_555
Mg11 Mg13 3.133170 1_545
Mg11 Mg9 3.202613 1_545
Mg11 Mg7 3.202613 1_555
Mg11 Sn0 3.222413 1_656
Mg11 Mg2 3.255438 1_556
Mg11 Mg4 3.255443 1_546
Mg12 Mg5 3.054861 1_555
Mg12 Mg3 3.054868 1_555
Mg12 Mg4 3.106082 1_555
Mg12 Mg2 3.106089 1_555
Mg12 Mg6 3.133170 1_665
Mg12 Mg6 3.133170 1_555
Mg12 Mg8 3.133170 1_655
Mg12 Mg8 3.133170 1_555
Mg13 Mg5 3.054861 1_555
Mg13 Mg3 3.054868 1_555
Mg13 Mg4 3.106082 1_556
Mg13 Mg2 3.106089 1_556
Mg13 Mg7 3.133170 1_665
Mg13 Mg7 3.133170 1_555
Mg13 Mg9 3.133170 1_655
Mg13 Mg9 3.133170 1_555
C0 Mg7 2.909599 1_555
C0 Mg6 2.909599 1_555
C0 Mg8 2.909605 1_555
C0 Mg9 2.909605 1_555
C0 Mg10 2.909606 1_455
C0 Mg11 2.909606 1_455
