# generated using pymatgen
data_LiIn2
_symmetry_space_group_name_H-M   'P 1'
_cell_length_a   7.42054275
_cell_length_b   7.42054275
_cell_length_c   7.42054275
_cell_angle_alpha   60.00000000
_cell_angle_beta   60.00000000
_cell_angle_gamma   60.00000000
_symmetry_Int_Tables_number   1
_chemical_formula_structural   LiIn2
_chemical_formula_sum   'Li4 In8'
_cell_volume   288.92958697
_cell_formula_units_Z   4
loop_
 _symmetry_equiv_pos_site_id
 _symmetry_equiv_pos_as_xyz
  1  'x, y, z'
loop_
 _atom_site_type_symbol
 _atom_site_label
 _atom_site_symmetry_multiplicity
 _atom_site_fract_x
 _atom_site_fract_y
 _atom_site_fract_z
 _atom_site_occupancy
  Li  Li0  1  0.12500000  0.12500000  0.62500000  1
  Li  Li1  1  0.12500000  0.12500000  0.12500000  1
  Li  Li2  1  0.12500000  0.62500000  0.12500000  1
  Li  Li3  1  0.62500000  0.12500000  0.12500000  1
  In  In0  1  0.39526404  0.39526404  0.81420687  1
  In  In1  1  0.39526404  0.39526404  0.39526404  1
  In  In2  1  0.85473596  0.43579313  0.85473596  1
  In  In3  1  0.85473596  0.85473596  0.85473596  1
  In  In4  1  0.85473596  0.85473596  0.43579313  1
  In  In5  1  0.43579313  0.85473596  0.85473596  1
  In  In6  1  0.39526404  0.81420687  0.39526404  1
  In  In7  1  0.81420687  0.39526404  0.39526404  1
loop_
_geom_bond_atom_site_label_1
_geom_bond_atom_site_label_2
_geom_bond_distance
_geom_bond_site_symmetry_2
In0 Li1 2.852114 1_556
In0 Li3 2.852119 1_556
In0 Li2 2.852119 1_556
In0 In7 3.108783 1_555
In0 In1 3.108783 1_555
In0 In6 3.108783 1_555
In1 Li0 2.852114 1_555
In1 Li2 2.852114 1_555
In1 Li3 2.852114 1_555
In1 In7 3.108783 1_555
In1 In6 3.108783 1_555
In2 Li1 2.852114 1_656
In2 Li0 2.852119 1_655
In2 Li3 2.852119 1_556
In2 In4 3.108783 1_555
In2 In5 3.108783 1_555
In2 In3 3.108783 1_555
In3 Li2 2.852114 1_656
In3 Li3 2.852114 1_566
In3 Li0 2.852114 1_665
In3 In4 3.108783 1_555
In3 In5 3.108783 1_555
In4 Li1 2.852114 1_665
In4 Li3 2.852119 1_565
In4 Li2 2.852119 1_655
In4 In5 3.108783 1_555
In5 Li1 2.852114 1_566
In5 Li0 2.852119 1_565
In5 Li2 2.852119 1_556
In6 Li1 2.852114 1_565
In6 Li3 2.852119 1_565
In6 Li0 2.852119 1_565
In6 In7 3.108783 1_555
In7 Li1 2.852114 1_655
In7 Li0 2.852119 1_655
In7 Li2 2.852119 1_655
