# generated using pymatgen
data_BaSrCaMg(SiO4)2
_symmetry_space_group_name_H-M   'P 1'
_cell_length_a   5.53167022
_cell_length_b   5.53167022
_cell_length_c   6.99093000
_cell_angle_alpha   90.00000000
_cell_angle_beta   90.00000000
_cell_angle_gamma   120.00000264
_symmetry_Int_Tables_number   1
_chemical_formula_structural   BaSrCaMg(SiO4)2
_chemical_formula_sum   'Ba1 Sr1 Ca1 Mg1 Si2 O8'
_cell_volume   185.25849679
_cell_formula_units_Z   1
loop_
 _symmetry_equiv_pos_site_id
 _symmetry_equiv_pos_as_xyz
  1  'x, y, z'
loop_
 _atom_site_type_symbol
 _atom_site_label
 _atom_site_symmetry_multiplicity
 _atom_site_fract_x
 _atom_site_fract_y
 _atom_site_fract_z
 _atom_site_occupancy
  Ba  Ba0  1  0.33333300  0.66666700  0.49903900  1
  Sr  Sr0  1  0.66666700  0.33333300  0.84077100  1
  Ca  Ca0  1  0.00000000  0.00000000  0.16747100  1
  Mg  Mg0  1  0.33333300  0.66666700  0.00000400  1
  Si  Si0  1  0.66666700  0.33333300  0.27232800  1
  Si  Si1  1  0.00000000  0.00000000  0.72613000  1
  O  O0  1  0.66666700  0.33333300  0.50261600  1
  O  O1  1  0.00000000  0.00000000  0.49278300  1
  O  O2  1  0.50796700  0.49203300  0.17776600  1
  O  O3  1  0.50796700  0.01593400  0.17776600  1
  O  O4  1  0.98406600  0.49203300  0.17776600  1
  O  O5  1  0.15815100  0.84184900  0.82185600  1
  O  O6  1  0.15815100  0.31630200  0.82185600  1
  O  O7  1  0.68369800  0.84184900  0.82185600  1
loop_
_geom_bond_atom_site_label_1
_geom_bond_atom_site_label_2
_geom_bond_distance
_geom_bond_site_symmetry_2
Ba0 O3 2.800724 1_565
Ba0 O4 2.800724 1_455
Ba0 O2 2.800727 1_555
Ba0 O5 2.812521 1_555
Ba0 O6 2.812524 1_555
Ba0 O7 2.812524 1_555
Ba0 O0 3.193806 1_455
Ba0 O0 3.193806 1_565
Ba0 O0 3.193816 1_555
Ba0 O1 3.194008 1_565
Ba0 O1 3.194012 1_665
Ba0 O1 3.194012 1_555
Ca0 O1 2.274233 1_555
Ca0 O2 2.767824 1_555
Ca0 O2 2.767824 1_445
Ca0 O3 2.767824 1_555
Ca0 O4 2.767824 1_445
Ca0 O4 2.767824 1_455
Ca0 O3 2.767824 1_455
Ca0 O7 2.852001 1_444
Ca0 O6 2.852001 1_554
Ca0 O5 2.852001 1_544
Mg0 O3 2.084205 1_565
Mg0 O4 2.084205 1_455
Mg0 O2 2.084209 1_555
Mg0 O5 2.090033 1_554
Mg0 O7 2.090037 1_554
Mg0 O6 2.090037 1_554
O0 Si0 1.609927 1_555
O0 Sr0 2.364018 1_555
O1 Si1 1.631313 1_555
O2 Si0 1.658017 1_555
O2 Sr0 2.803980 1_554
O3 Si0 1.658013 1_555
O3 Sr0 2.803977 1_554
O4 Si0 1.658013 1_555
O4 Sr0 2.803977 1_554
O5 Si1 1.656465 1_565
O5 Sr0 2.770196 1_455
O5 Sr0 2.770196 1_565
O6 Si1 1.656465 1_555
O6 Sr0 2.770193 1_455
O6 Sr0 2.770199 1_555
O7 Si1 1.656465 1_665
O7 Sr0 2.770193 1_565
O7 Sr0 2.770199 1_555
