# generated using pymatgen
data_Pu(TeO3)2
_symmetry_space_group_name_H-M   'P 1'
_cell_length_a   11.30738300
_cell_length_b   7.03038300
_cell_length_c   8.51691020
_cell_angle_alpha   56.04777131
_cell_angle_beta   90.00000000
_cell_angle_gamma   90.00000000
_symmetry_Int_Tables_number   1
_chemical_formula_structural   Pu(TeO3)2
_chemical_formula_sum   'Pu4 Te8 O24'
_cell_volume   561.61848010
_cell_formula_units_Z   4
loop_
 _symmetry_equiv_pos_site_id
 _symmetry_equiv_pos_as_xyz
  1  'x, y, z'
loop_
 _atom_site_type_symbol
 _atom_site_label
 _atom_site_symmetry_multiplicity
 _atom_site_fract_x
 _atom_site_fract_y
 _atom_site_fract_z
 _atom_site_occupancy
  Pu  Pu0  1  0.40986400  0.26697900  0.49188000  1
  Pu  Pu1  1  0.90986400  0.73302100  0.00812000  1
  Pu  Pu2  1  0.59013600  0.73302100  0.50812000  1
  Pu  Pu3  1  0.09013600  0.26697900  0.99188000  1
  Te  Te0  1  0.58233600  0.73452600  0.03898400  1
  Te  Te1  1  0.08233600  0.26547400  0.46101600  1
  Te  Te2  1  0.41766400  0.26547400  0.96101600  1
  Te  Te3  1  0.91766400  0.73452600  0.53898400  1
  Te  Te4  1  0.22441200  0.80924500  0.92876200  1
  Te  Te5  1  0.72441200  0.19075500  0.57123800  1
  Te  Te6  1  0.77558800  0.19075500  0.07123800  1
  Te  Te7  1  0.27558800  0.80924500  0.42876200  1
  O  O0  1  0.72539800  0.56080300  0.12304700  1
  O  O1  1  0.22539800  0.43919700  0.37695300  1
  O  O2  1  0.27460200  0.43919700  0.87695300  1
  O  O3  1  0.77460200  0.56080300  0.62304700  1
  O  O4  1  0.59947400  0.86626000  0.18417000  1
  O  O5  1  0.09947400  0.13374000  0.31583000  1
  O  O6  1  0.40052600  0.13374000  0.81583000  1
  O  O7  1  0.90052600  0.86626000  0.68417000  1
  O  O8  1  0.47967200  0.47413000  0.20391300  1
  O  O9  1  0.97967200  0.52587000  0.29608700  1
  O  O10  1  0.52032800  0.52587000  0.79608700  1
  O  O11  1  0.02032800  0.47413000  0.70391300  1
  O  O12  1  0.25865100  0.97684400  0.16123800  1
  O  O13  1  0.75865100  0.02315600  0.33876200  1
  O  O14  1  0.74134900  0.02315600  0.83876200  1
  O  O15  1  0.24134900  0.97684400  0.66123800  1
  O  O16  1  0.40305700  0.99922800  0.41633500  1
  O  O17  1  0.90305700  0.00077200  0.08366500  1
  O  O18  1  0.59694300  0.00077200  0.58366500  1
  O  O19  1  0.09694300  0.99922800  0.91633500  1
  O  O20  1  0.40496700  0.61035500  0.45927100  1
  O  O21  1  0.90496700  0.38964500  0.04072900  1
  O  O22  1  0.59503300  0.38964500  0.54072900  1
  O  O23  1  0.09503300  0.61035500  0.95927100  1
loop_
_geom_bond_atom_site_label_1
_geom_bond_atom_site_label_2
_geom_bond_distance
_geom_bond_site_symmetry_2
O0 Te0 1.909016 1_555
O0 Pu1 2.334722 1_555
O1 Te1 1.909016 1_555
O1 Pu0 2.334722 1_555
O2 Te2 1.909016 1_555
O2 Pu3 2.334722 1_555
O3 Te3 1.909016 1_555
O3 Pu2 2.334722 1_555
O4 Te0 1.924450 1_555
O4 Pu2 2.369413 1_555
O5 Te1 1.924450 1_555
O5 Pu3 2.369413 1_554
O6 Te2 1.924450 1_555
O6 Pu0 2.369413 1_555
O7 Te3 1.924450 1_555
O7 Pu1 2.369413 1_556
O8 Te0 1.949290 1_555
O8 Pu0 2.183912 1_555
O9 Te1 1.949290 1_655
O9 Pu1 2.183912 1_555
O10 Te2 1.949290 1_555
O10 Pu2 2.183912 1_555
O11 Te3 1.949290 1_455
O11 Pu3 2.183912 1_555
O12 Te7 1.902020 1_555
O12 Te2 2.528484 1_564
O12 Pu3 2.566232 1_564
O13 Te6 1.902020 1_555
O13 Te3 2.528484 1_545
O13 Pu2 2.566232 1_545
O14 Te5 1.902020 1_555
O14 Te0 2.528484 1_546
O14 Pu1 2.566232 1_546
O15 Te4 1.902020 1_555
O15 Te1 2.528484 1_565
O15 Pu0 2.566232 1_565
O16 Te7 1.927363 1_555
O16 Pu0 2.305680 1_565
O16 Pu2 2.637109 1_555
O17 Te6 1.927363 1_555
O17 Pu1 2.305680 1_545
O17 Pu3 2.637109 1_654
O18 Te5 1.927363 1_555
O18 Pu2 2.305680 1_545
O18 Pu0 2.637109 1_555
O19 Te4 1.927363 1_555
O19 Pu3 2.305680 1_565
O19 Pu1 2.637109 1_456
O20 Te7 1.938306 1_555
O20 Pu0 2.271345 1_555
O20 Pu2 2.387777 1_555
O21 Te6 1.938306 1_555
O21 Pu1 2.271345 1_555
O21 Pu3 2.387777 1_654
O22 Te5 1.938306 1_555
O22 Pu2 2.271345 1_555
O22 Pu0 2.387777 1_555
O23 Te4 1.938306 1_555
O23 Pu3 2.271345 1_555
O23 Pu1 2.387777 1_456
