# generated using pymatgen
data_Dy3Te3N
_symmetry_space_group_name_H-M   'P 1'
_cell_length_a   11.96043260
_cell_length_b   8.09958235
_cell_length_c   8.63858629
_cell_angle_alpha   71.12424697
_cell_angle_beta   90.00000000
_cell_angle_gamma   90.00000000
_symmetry_Int_Tables_number   1
_chemical_formula_structural   Dy3Te3N
_chemical_formula_sum   'Dy12 Te12 N4'
_cell_volume   791.85450587
_cell_formula_units_Z   4
loop_
 _symmetry_equiv_pos_site_id
 _symmetry_equiv_pos_as_xyz
  1  'x, y, z'
loop_
 _atom_site_type_symbol
 _atom_site_label
 _atom_site_symmetry_multiplicity
 _atom_site_fract_x
 _atom_site_fract_y
 _atom_site_fract_z
 _atom_site_occupancy
  Dy  Dy0  1  0.02304156  0.60180794  0.13775016  1
  Dy  Dy1  1  0.52304156  0.39819206  0.36224984  1
  Dy  Dy2  1  0.97695844  0.39819206  0.86224984  1
  Dy  Dy3  1  0.47695844  0.60180794  0.63775016  1
  Dy  Dy4  1  0.41186795  0.83845494  0.20535047  1
  Dy  Dy5  1  0.91186795  0.16154506  0.29464953  1
  Dy  Dy6  1  0.58813205  0.16154506  0.79464953  1
  Dy  Dy7  1  0.08813205  0.83845494  0.70535047  1
  Dy  Dy8  1  0.70830009  0.76716387  0.34553576  1
  Dy  Dy9  1  0.20830009  0.23283613  0.15446424  1
  Dy  Dy10  1  0.29169991  0.23283613  0.65446424  1
  Dy  Dy11  1  0.79169991  0.76716387  0.84553576  1
  Te  Te0  1  0.97930756  0.77741068  0.41396898  1
  Te  Te1  1  0.47930756  0.22258932  0.08603102  1
  Te  Te2  1  0.02069244  0.22258932  0.58603102  1
  Te  Te3  1  0.52069244  0.77741068  0.91396898  1
  Te  Te4  1  0.26626379  0.50683849  0.31317385  1
  Te  Te5  1  0.76626379  0.49316151  0.18682615  1
  Te  Te6  1  0.73373621  0.49316151  0.68682615  1
  Te  Te7  1  0.23373621  0.50683849  0.81317385  1
  Te  Te8  1  0.30801711  0.95334772  0.48337034  1
  Te  Te9  1  0.80801711  0.04665228  0.01662966  1
  Te  Te10  1  0.69198289  0.04665228  0.51662966  1
  Te  Te11  1  0.19198289  0.95334772  0.98337034  1
  N  N0  1  0.53450828  0.67289060  0.37680071  1
  N  N1  1  0.03450828  0.32710940  0.12319929  1
  N  N2  1  0.46549172  0.32710940  0.62319929  1
  N  N3  1  0.96549172  0.67289060  0.87680071  1
loop_
_geom_bond_atom_site_label_1
_geom_bond_atom_site_label_2
_geom_bond_distance
_geom_bond_site_symmetry_2
Dy0 N3 2.246571 1_454
Dy0 N1 2.272871 1_555
Dy0 Te5 3.185095 1_455
Dy0 Te0 3.191576 1_455
Dy0 Te4 3.255221 1_555
Dy0 Te11 3.392894 1_554
Dy1 N2 2.246571 1_555
Dy1 N0 2.272871 1_555
Dy1 Te4 3.185095 1_555
Dy1 Te1 3.191576 1_555
Dy1 Te5 3.255221 1_555
Dy1 Te10 3.392894 1_555
Dy2 N1 2.246571 1_656
Dy2 N3 2.272871 1_555
Dy2 Te7 3.185095 1_655
Dy2 Te2 3.191576 1_655
Dy2 Te6 3.255221 1_555
Dy2 Te9 3.392894 1_556
Dy3 N0 2.246571 1_555
Dy3 N2 2.272871 1_555
Dy3 Te6 3.185095 1_555
Dy3 Te3 3.191576 1_555
Dy3 Te7 3.255221 1_555
Dy3 Te8 3.392894 1_555
Dy4 N0 2.204178 1_555
Dy4 Te3 3.013266 1_554
Dy4 Te1 3.052603 1_565
Dy4 Te4 3.081552 1_555
Dy4 Te8 3.102107 1_555
Dy4 Te11 3.210143 1_554
Dy5 N1 2.204178 1_655
Dy5 Te2 3.013266 1_655
Dy5 Te0 3.052603 1_545
Dy5 Te5 3.081552 1_555
Dy5 Te9 3.102107 1_555
Dy5 Te10 3.210143 1_555
Dy6 N2 2.204178 1_555
Dy6 Te1 3.013266 1_556
Dy6 Te3 3.052603 1_545
Dy6 Te6 3.081552 1_555
Dy6 Te10 3.102107 1_555
Dy6 Te9 3.210143 1_556
Dy7 N3 2.204178 1_455
Dy7 Te0 3.013266 1_455
Dy7 Te2 3.052603 1_565
Dy7 Te7 3.081552 1_555
Dy7 Te11 3.102107 1_555
Dy7 Te8 3.210143 1_555
Dy8 N0 2.200735 1_555
Dy8 Te5 3.042104 1_555
Dy8 Te6 3.078398 1_555
Dy8 Te10 3.084150 1_565
Dy8 Te9 3.233909 1_565
Dy8 Te0 3.300692 1_555
Dy9 N1 2.200735 1_555
Dy9 Te4 3.042104 1_555
Dy9 Te7 3.078398 1_554
Dy9 Te11 3.084150 1_544
Dy9 Te8 3.233909 1_545
Dy9 Te1 3.300692 1_555
Dy10 N2 2.200735 1_555
Dy10 Te7 3.042104 1_555
Dy10 Te4 3.078398 1_555
Dy10 Te8 3.084150 1_545
Dy10 Te11 3.233909 1_545
Dy10 Te2 3.300692 1_555
Dy11 N3 2.200735 1_555
Dy11 Te6 3.042104 1_555
Dy11 Te5 3.078398 1_556
Dy11 Te9 3.084150 1_566
Dy11 Te10 3.233909 1_565
Dy11 Te3 3.300692 1_555
