# generated using pymatgen
data_Gd
_symmetry_space_group_name_H-M   'P 1'
_cell_length_a   7.28386718
_cell_length_b   7.28386318
_cell_length_c   11.80343060
_cell_angle_alpha   90.00000000
_cell_angle_beta   90.00000000
_cell_angle_gamma   119.99999872
_symmetry_Int_Tables_number   1
_chemical_formula_structural   Gd
_chemical_formula_sum   Gd16
_cell_volume   542.32882166
_cell_formula_units_Z   16
loop_
 _symmetry_equiv_pos_site_id
 _symmetry_equiv_pos_as_xyz
  1  'x, y, z'
loop_
 _atom_site_type_symbol
 _atom_site_label
 _atom_site_symmetry_multiplicity
 _atom_site_fract_x
 _atom_site_fract_y
 _atom_site_fract_z
 _atom_site_occupancy
  Gd  Gd0_0  1  0.16666650  0.33333350  0.12500000  1
  Gd  Gd0_1  1  0.16666650  0.33333350  0.62500000  1
  Gd  Gd0_2  1  0.16666650  0.83333350  0.12500000  1
  Gd  Gd0_3  1  0.16666650  0.83333350  0.62500000  1
  Gd  Gd0_4  1  0.66666650  0.33333350  0.12500000  1
  Gd  Gd0_5  1  0.66666650  0.33333350  0.62500000  1
  Gd  Gd0_6  1  0.66666650  0.83333350  0.12500000  1
  Gd  Gd0_7  1  0.66666650  0.83333350  0.62500000  1
  Gd  Gd1_0  1  0.33333350  0.16666650  0.37500000  1
  Gd  Gd1_1  1  0.33333350  0.16666650  0.87500000  1
  Gd  Gd1_2  1  0.33333350  0.66666650  0.37500000  1
  Gd  Gd1_3  1  0.33333350  0.66666650  0.87500000  1
  Gd  Gd1_4  1  0.83333350  0.16666650  0.37500000  1
  Gd  Gd1_5  1  0.83333350  0.16666650  0.87500000  1
  Gd  Gd1_6  1  0.83333350  0.66666650  0.37500000  1
  Gd  Gd1_7  1  0.83333350  0.66666650  0.87500000  1
loop_
_geom_bond_atom_site_label_1
_geom_bond_atom_site_label_2
_geom_bond_distance
_geom_bond_site_symmetry_2
Gd0_0 Gd1_2 3.623365 1_555
Gd0_0 Gd1_3 3.623365 1_554
Gd0_0 Gd1_4 3.623366 1_455
Gd0_0 Gd1_5 3.623366 1_454
Gd0_0 Gd1_1 3.623369 1_554
Gd0_0 Gd1_0 3.623369 1_555
Gd0_0 Gd0_2 3.641932 1_555
Gd0_0 Gd0_2 3.641932 1_545
Gd0_0 Gd0_6 3.641933 1_555
Gd0_0 Gd0_6 3.641933 1_445
Gd0_0 Gd0_4 3.641934 1_455
Gd0_0 Gd0_4 3.641934 1_555
Gd0_1 Gd1_2 3.623365 1_555
Gd0_1 Gd1_3 3.623365 1_555
Gd0_1 Gd1_4 3.623366 1_455
Gd0_1 Gd1_5 3.623366 1_455
Gd0_1 Gd1_0 3.623369 1_555
Gd0_1 Gd1_1 3.623369 1_555
Gd0_1 Gd0_3 3.641932 1_555
Gd0_1 Gd0_3 3.641932 1_545
Gd0_1 Gd0_7 3.641933 1_555
Gd0_1 Gd0_7 3.641933 1_445
Gd0_1 Gd0_5 3.641934 1_555
Gd0_1 Gd0_5 3.641934 1_455
Gd0_2 Gd1_0 3.623365 1_565
Gd0_2 Gd1_1 3.623365 1_564
Gd0_2 Gd1_6 3.623366 1_455
Gd0_2 Gd1_7 3.623366 1_454
Gd0_2 Gd1_3 3.623369 1_554
Gd0_2 Gd1_2 3.623369 1_555
Gd0_2 Gd0_4 3.641933 1_455
Gd0_2 Gd0_4 3.641933 1_565
Gd0_2 Gd0_6 3.641934 1_455
Gd0_2 Gd0_6 3.641934 1_555
Gd0_3 Gd1_0 3.623365 1_565
Gd0_3 Gd1_1 3.623365 1_565
Gd0_3 Gd1_6 3.623366 1_455
Gd0_3 Gd1_7 3.623366 1_455
Gd0_3 Gd1_2 3.623369 1_555
Gd0_3 Gd1_3 3.623369 1_555
Gd0_3 Gd0_5 3.641933 1_455
Gd0_3 Gd0_5 3.641933 1_565
Gd0_3 Gd0_7 3.641934 1_455
Gd0_3 Gd0_7 3.641934 1_555
Gd0_4 Gd1_7 3.623365 1_554
Gd0_4 Gd1_6 3.623365 1_555
Gd0_4 Gd1_1 3.623366 1_554
Gd0_4 Gd1_0 3.623366 1_555
Gd0_4 Gd1_4 3.623369 1_555
Gd0_4 Gd1_5 3.623369 1_554
Gd0_4 Gd0_6 3.641932 1_545
Gd0_4 Gd0_6 3.641932 1_555
Gd0_5 Gd1_6 3.623365 1_555
Gd0_5 Gd1_7 3.623365 1_555
Gd0_5 Gd1_0 3.623366 1_555
Gd0_5 Gd1_1 3.623366 1_555
Gd0_5 Gd1_4 3.623369 1_555
Gd0_5 Gd1_5 3.623369 1_555
Gd0_5 Gd0_7 3.641932 1_555
Gd0_5 Gd0_7 3.641932 1_545
Gd0_6 Gd1_4 3.623365 1_565
Gd0_6 Gd1_5 3.623365 1_564
Gd0_6 Gd1_3 3.623366 1_554
Gd0_6 Gd1_2 3.623366 1_555
Gd0_6 Gd1_7 3.623369 1_554
Gd0_6 Gd1_6 3.623369 1_555
Gd0_7 Gd1_4 3.623365 1_565
Gd0_7 Gd1_5 3.623365 1_565
Gd0_7 Gd1_2 3.623366 1_555
Gd0_7 Gd1_3 3.623366 1_555
Gd0_7 Gd1_6 3.623369 1_555
Gd0_7 Gd1_7 3.623369 1_555
Gd1_0 Gd1_2 3.641932 1_545
Gd1_0 Gd1_2 3.641932 1_555
Gd1_0 Gd1_6 3.641933 1_555
Gd1_0 Gd1_6 3.641933 1_445
Gd1_0 Gd1_4 3.641934 1_555
Gd1_0 Gd1_4 3.641934 1_455
Gd1_1 Gd1_3 3.641932 1_545
Gd1_1 Gd1_3 3.641932 1_555
Gd1_1 Gd1_7 3.641933 1_555
Gd1_1 Gd1_7 3.641933 1_445
Gd1_1 Gd1_5 3.641934 1_555
Gd1_1 Gd1_5 3.641934 1_455
Gd1_2 Gd1_4 3.641933 1_565
Gd1_2 Gd1_4 3.641933 1_455
Gd1_2 Gd1_6 3.641934 1_455
Gd1_2 Gd1_6 3.641934 1_555
Gd1_3 Gd1_5 3.641933 1_565
Gd1_3 Gd1_5 3.641933 1_455
Gd1_3 Gd1_7 3.641934 1_455
Gd1_3 Gd1_7 3.641934 1_555
Gd1_4 Gd1_6 3.641932 1_555
Gd1_4 Gd1_6 3.641932 1_545
Gd1_5 Gd1_7 3.641932 1_555
Gd1_5 Gd1_7 3.641932 1_545
