# generated using pymatgen
data_Hg4S(ICl2)2
_symmetry_space_group_name_H-M   'P 1'
_cell_length_a   6.67804200
_cell_length_b   8.20179984
_cell_length_c   24.12279586
_cell_angle_alpha   120.77077233
_cell_angle_beta   90.00000000
_cell_angle_gamma   90.00000000
_symmetry_Int_Tables_number   1
_chemical_formula_structural   Hg4S(ICl2)2
_chemical_formula_sum   'Hg8 S2 I4 Cl8'
_cell_volume   1135.24822293
_cell_formula_units_Z   2
loop_
 _symmetry_equiv_pos_site_id
 _symmetry_equiv_pos_as_xyz
  1  'x, y, z'
loop_
 _atom_site_type_symbol
 _atom_site_label
 _atom_site_symmetry_multiplicity
 _atom_site_fract_x
 _atom_site_fract_y
 _atom_site_fract_z
 _atom_site_occupancy
  Hg  Hg0  1  0.47942100  0.91421400  0.18101300  1
  Hg  Hg1  1  0.97942100  0.08578600  0.31898700  1
  Hg  Hg2  1  0.52057900  0.08578600  0.81898700  1
  Hg  Hg3  1  0.02057900  0.91421400  0.68101300  1
  Hg  Hg4  1  0.74866500  0.20232500  0.06370800  1
  Hg  Hg5  1  0.24866500  0.79767500  0.43629200  1
  Hg  Hg6  1  0.25133500  0.79767500  0.93629200  1
  Hg  Hg7  1  0.75133500  0.20232500  0.56370800  1
  S  S0  1  0.00000000  0.00000000  0.00000000  1
  S  S1  1  0.50000000  0.00000000  0.50000000  1
  I  I0  1  0.47244600  0.43862700  0.13821300  1
  I  I1  1  0.97244600  0.56137300  0.36178700  1
  I  I2  1  0.52755400  0.56137300  0.86178700  1
  I  I3  1  0.02755400  0.43862700  0.63821300  1
  Cl  Cl0  1  0.50572600  0.85793400  0.07721700  1
  Cl  Cl1  1  0.00572600  0.14206600  0.42278300  1
  Cl  Cl2  1  0.49427400  0.14206600  0.92278300  1
  Cl  Cl3  1  0.99427400  0.85793400  0.57721700  1
  Cl  Cl4  1  0.45166500  0.00135000  0.28926200  1
  Cl  Cl5  1  0.95166500  0.99865000  0.21073800  1
  Cl  Cl6  1  0.54833500  0.99865000  0.71073800  1
  Cl  Cl7  1  0.04833500  0.00135000  0.78926200  1
loop_
_geom_bond_atom_site_label_1
_geom_bond_atom_site_label_2
_geom_bond_distance
_geom_bond_site_symmetry_2
Hg4 S0 2.307205 1_655
Hg4 I0 2.612439 1_555
Hg5 S1 2.307205 1_565
Hg5 I1 2.612439 1_455
Hg6 S0 2.307205 1_566
Hg6 I2 2.612439 1_555
Hg7 S1 2.307205 1_555
Hg7 I3 2.612439 1_655
Cl0 Hg0 2.308809 1_555
Cl1 Hg1 2.308809 1_455
Cl2 Hg2 2.308809 1_555
Cl3 Hg3 2.308809 1_655
Cl4 Hg0 2.335449 1_545
Cl5 Hg1 2.335449 1_565
Cl6 Hg2 2.335449 1_565
Cl7 Hg3 2.335449 1_545
