# generated using pymatgen
data_CeAg2
_symmetry_space_group_name_H-M   'P 1'
_cell_length_a   5.93225087
_cell_length_b   5.93225087
_cell_length_c   5.93225087
_cell_angle_alpha   130.37276085
_cell_angle_beta   113.21316157
_cell_angle_gamma   87.59798340
_symmetry_Int_Tables_number   1
_chemical_formula_structural   CeAg2
_chemical_formula_sum   'Ce2 Ag4'
_cell_volume   139.21658280
_cell_formula_units_Z   2
loop_
 _symmetry_equiv_pos_site_id
 _symmetry_equiv_pos_as_xyz
  1  'x, y, z'
loop_
 _atom_site_type_symbol
 _atom_site_label
 _atom_site_symmetry_multiplicity
 _atom_site_fract_x
 _atom_site_fract_y
 _atom_site_fract_z
 _atom_site_occupancy
  Ce  Ce0  1  0.23195300  0.48195300  0.75000000  1
  Ce  Ce1  1  0.76804700  0.51804700  0.25000000  1
  Ag  Ag0  1  0.35268100  0.83353400  0.51914700  1
  Ag  Ag1  1  0.64731900  0.16646600  0.48085300  1
  Ag  Ag2  1  0.18561200  0.16646600  0.01914700  1
  Ag  Ag3  1  0.81438800  0.83353400  0.98085300  1
loop_
_geom_bond_atom_site_label_1
_geom_bond_atom_site_label_2
_geom_bond_distance
_geom_bond_site_symmetry_2
Ce0 Ce1 3.279619 1_455
Ce0 Ce1 3.279619 1_556
Ag0 Ag1 2.861998 1_565
Ag0 Ag2 2.871382 1_555
Ag0 Ag2 2.871386 1_566
Ag0 Ag3 3.014963 1_555
Ag0 Ce1 3.223032 1_455
Ag0 Ce0 3.301868 1_565
Ag0 Ce0 3.301868 1_554
Ag0 Ce1 3.311662 1_555
Ag0 Ce1 3.311662 1_566
Ag0 Ce0 3.367066 1_555
Ag1 Ag3 2.871382 1_555
Ag1 Ag3 2.871386 1_544
Ag1 Ag2 3.014963 1_555
Ag1 Ce0 3.223032 1_655
Ag1 Ce1 3.301868 1_545
Ag1 Ce1 3.301868 1_556
Ag1 Ce0 3.311662 1_544
Ag1 Ce0 3.311662 1_555
Ag1 Ce1 3.367066 1_555
Ag2 Ag3 2.861989 1_444
Ag2 Ce0 3.223034 1_554
Ag2 Ce1 3.301862 1_455
Ag2 Ce1 3.301866 1_444
Ag2 Ce0 3.311660 1_555
Ag2 Ce0 3.311663 1_544
Ag2 Ce1 3.367071 1_555
Ag3 Ce1 3.223034 1_556
Ag3 Ce0 3.301862 1_655
Ag3 Ce0 3.301866 1_666
Ag3 Ce1 3.311660 1_555
Ag3 Ce1 3.311663 1_566
Ag3 Ce0 3.367071 1_555
