# generated using pymatgen
data_Li2VOF4
_symmetry_space_group_name_H-M   'P 1'
_cell_length_a   5.10673600
_cell_length_b   10.34076467
_cell_length_c   7.49225359
_cell_angle_alpha   79.63297419
_cell_angle_beta   70.07510551
_cell_angle_gamma   104.29146857
_symmetry_Int_Tables_number   1
_chemical_formula_structural   Li2VOF4
_chemical_formula_sum   'Li8 V4 O4 F16'
_cell_volume   344.97792849
_cell_formula_units_Z   4
loop_
 _symmetry_equiv_pos_site_id
 _symmetry_equiv_pos_as_xyz
  1  'x, y, z'
loop_
 _atom_site_type_symbol
 _atom_site_label
 _atom_site_symmetry_multiplicity
 _atom_site_fract_x
 _atom_site_fract_y
 _atom_site_fract_z
 _atom_site_occupancy
  Li  Li0  1  0.35745100  0.72842300  0.01675600  1
  Li  Li1  1  0.35733100  0.22846300  0.51689100  1
  Li  Li2  1  0.35419800  0.47854100  0.76669100  1
  Li  Li3  1  0.35416700  0.97843200  0.26694200  1
  Li  Li4  1  0.64579900  0.52156300  0.23323300  1
  Li  Li5  1  0.64578900  0.02150500  0.73309700  1
  Li  Li6  1  0.64270900  0.27158400  0.98308800  1
  Li  Li7  1  0.64238900  0.77148200  0.48331300  1
  V  V0  1  0.00010900  0.75004500  0.74995400  1
  V  V1  1  0.00001300  0.49995300  0.50002100  1
  V  V2  1  0.99993500  0.24992600  0.25004200  1
  V  V3  1  0.00004900  0.00006000  0.99995900  1
  O  O0  1  0.86509900  0.87497300  0.87514700  1
  O  O1  1  0.86527500  0.37502300  0.37484800  1
  O  O2  1  0.13521400  0.12500300  0.12500100  1
  O  O3  1  0.13455400  0.62499700  0.62501700  1
  F  F0  1  0.23823500  0.89400000  0.06728600  1
  F  F1  1  0.23826100  0.39399700  0.56707600  1
  F  F2  1  0.58846600  0.64397000  0.81727200  1
  F  F3  1  0.58877900  0.14407900  0.31700200  1
  F  F4  1  0.41150500  0.35599900  0.18272800  1
  F  F5  1  0.41130700  0.85597500  0.68295000  1
  F  F6  1  0.76174900  0.10594600  0.93295800  1
  F  F7  1  0.76178100  0.60605300  0.43271200  1
  F  F8  1  0.98220800  0.64251500  0.99786600  1
  F  F9  1  0.98233000  0.14275000  0.49745400  1
  F  F10  1  0.33747300  0.60748700  0.25213200  1
  F  F11  1  0.33700500  0.10724000  0.75252100  1
  F  F12  1  0.66275900  0.39265100  0.74761300  1
  F  F13  1  0.66259600  0.89260400  0.24789000  1
  F  F14  1  0.01782300  0.35740200  0.00211300  1
  F  F15  1  0.01764300  0.85735900  0.50242600  1
loop_
_geom_bond_atom_site_label_1
_geom_bond_atom_site_label_2
_geom_bond_distance
_geom_bond_site_symmetry_2
Li0 O0 2.397900 1_554
Li1 O1 2.398973 1_555
Li2 O3 2.397921 1_555
Li3 O2 2.396961 1_565
Li4 O1 2.397621 1_555
Li5 O0 2.398502 1_545
Li6 O2 2.397298 1_556
Li7 O3 2.398420 1_555
O0 V3 1.859298 1_665
O0 V0 1.859868 1_655
O1 V2 1.859282 1_555
O1 V1 1.859812 1_655
O2 V2 1.859759 1_455
O2 V3 1.859972 1_554
O3 V0 1.858924 1_555
O3 V1 1.859257 1_555
F0 V3 1.953077 1_564
F0 Li0 2.009083 1_555
F0 Li3 2.041786 1_555
F0 Li5 2.498904 1_564
F1 V1 1.951874 1_555
F1 Li1 2.007705 1_555
F1 Li2 2.042084 1_555
F1 Li4 2.497350 1_555
F2 V0 1.953571 1_655
F2 Li2 2.008271 1_555
F2 Li0 2.040802 1_556
F2 Li7 2.497742 1_555
F3 V2 1.951433 1_555
F3 Li3 2.008603 1_545
F3 Li1 2.043120 1_555
F3 Li6 2.497413 1_554
F4 V2 1.953255 1_455
F4 Li4 2.009052 1_555
F4 Li6 2.041661 1_554
F4 Li1 2.498687 1_555
F5 V0 1.951760 1_555
F5 Li5 2.007764 1_565
F5 Li7 2.041943 1_555
F5 Li0 2.497002 1_556
F6 V3 1.951466 1_655
F6 Li6 2.008572 1_555
F6 Li5 2.043289 1_555
F6 Li3 2.498012 1_546
F7 V1 1.953503 1_655
F7 Li7 2.008143 1_555
F7 Li4 2.040985 1_555
F7 Li2 2.497988 1_555
F8 Li4 1.925076 1_556
F8 V0 1.945645 1_655
F8 Li0 1.967467 1_656
F9 Li5 1.927186 1_555
F9 V2 1.941728 1_555
F9 Li1 1.967911 1_655
F10 Li0 1.924814 1_555
F10 V1 1.945468 1_555
F10 Li4 1.967923 1_555
F11 Li1 1.926956 1_555
F11 V3 1.941868 1_555
F11 Li5 1.968237 1_555
F12 Li6 1.925879 1_555
F12 V1 1.943369 1_655
F12 Li2 1.968595 1_555
F13 Li7 1.925507 1_555
F13 V3 1.945480 1_664
F13 Li3 1.967595 1_555
F14 Li2 1.925720 1_554
F14 V2 1.945563 1_455
F14 Li6 1.967165 1_454
F15 Li3 1.926088 1_555
F15 V0 1.943161 1_555
F15 Li7 1.968256 1_455
