# generated using pymatgen
data_Ca7MgFeCo7O20
_symmetry_space_group_name_H-M   'P 1'
_cell_length_a   10.62710276
_cell_length_b   11.08647847
_cell_length_c   16.82486904
_cell_angle_alpha   109.12287088
_cell_angle_beta   108.83278392
_cell_angle_gamma   90.09839120
_symmetry_Int_Tables_number   1
_chemical_formula_structural   Ca7MgFeCo7O20
_chemical_formula_sum   'Ca28 Mg4 Fe4 Co28 O80'
_cell_volume   1759.76153662
_cell_formula_units_Z   4
loop_
 _symmetry_equiv_pos_site_id
 _symmetry_equiv_pos_as_xyz
  1  'x, y, z'
loop_
 _atom_site_type_symbol
 _atom_site_label
 _atom_site_symmetry_multiplicity
 _atom_site_fract_x
 _atom_site_fract_y
 _atom_site_fract_z
 _atom_site_occupancy
  Ca  Ca0  1  0.30722520  0.06625700  0.60609336  1
  Ca  Ca1  1  0.29941080  0.56822650  0.60682087  1
  Ca  Ca2  1  0.80577668  0.06284140  0.60732665  1
  Ca  Ca3  1  0.80790554  0.56300466  0.11011356  1
  Ca  Ca4  1  0.80190881  0.56469380  0.60742121  1
  Ca  Ca5  1  0.19047278  0.43022752  0.38844977  1
  Ca  Ca6  1  0.20186332  0.43691852  0.89817478  1
  Ca  Ca7  1  0.19666986  0.93800742  0.38556952  1
  Ca  Ca8  1  0.19384350  0.93722782  0.89507002  1
  Ca  Ca9  1  0.69778885  0.43097345  0.39015289  1
  Ca  Ca10  1  0.70094707  0.43209463  0.89448180  1
  Ca  Ca11  1  0.69658651  0.93579402  0.38979725  1
  Ca  Ca12  1  0.69382730  0.93743220  0.89305277  1
  Ca  Ca13  1  0.05380105  0.29587634  0.11187061  1
  Ca  Ca14  1  0.05191950  0.28994826  0.60510706  1
  Ca  Ca15  1  0.05015472  0.79219224  0.60789369  1
  Ca  Ca16  1  0.55833325  0.29392914  0.11133604  1
  Ca  Ca17  1  0.55547502  0.28941447  0.60621931  1
  Ca  Ca18  1  0.55384369  0.78783079  0.11055023  1
  Ca  Ca19  1  0.55427333  0.79408467  0.60757683  1
  Ca  Ca20  1  0.44583218  0.19815169  0.38423351  1
  Ca  Ca21  1  0.45086243  0.20865798  0.89381023  1
  Ca  Ca22  1  0.44375292  0.70808017  0.38523992  1
  Ca  Ca23  1  0.44088657  0.71009148  0.89204393  1
  Ca  Ca24  1  0.94684236  0.20148999  0.38721536  1
  Ca  Ca25  1  0.94410896  0.20524327  0.89062886  1
  Ca  Ca26  1  0.94350098  0.70724335  0.38902696  1
  Ca  Ca27  1  0.94649143  0.71012170  0.89500759  1
  Mg  Mg0  1  0.28747655  0.07556870  0.11611255  1
  Mg  Mg1  1  0.28095577  0.57791711  0.11909223  1
  Mg  Mg2  1  0.78331372  0.08072642  0.11477673  1
  Mg  Mg3  1  0.02978525  0.78553070  0.11588558  1
  Fe  Fe0  1  0.10362578  0.59218247  0.75168048  1
  Fe  Fe1  1  0.60923405  0.59335653  0.75147107  1
  Fe  Fe2  1  0.35722142  0.40844341  0.75130301  1
  Fe  Fe3  1  0.35660891  0.91025020  0.75092747  1
  Co  Co0  1  0.00949008  0.00344410  0.00949873  1
  Co  Co1  1  0.00506460  0.99973985  0.49829306  1
  Co  Co2  1  0.01112538  0.50414126  0.00505102  1
  Co  Co3  1  0.00330402  0.49996032  0.49938319  1
  Co  Co4  1  0.50764294  0.00250922  0.00494239  1
  Co  Co5  1  0.50433794  0.99938284  0.49746877  1
  Co  Co6  1  0.50897575  0.50032556  0.00265206  1
  Co  Co7  1  0.50326888  0.49801767  0.49709752  1
  Co  Co8  1  0.26007842  0.25491788  0.00690468  1
  Co  Co9  1  0.25496272  0.24929609  0.49908392  1
  Co  Co10  1  0.26019282  0.75129712  0.00689643  1
  Co  Co11  1  0.25409295  0.75041023  0.49840274  1
  Co  Co12  1  0.75995795  0.25018201  0.00383772  1
  Co  Co13  1  0.75348855  0.24820080  0.49780584  1
  Co  Co14  1  0.75935642  0.75346870  0.00364483  1
  Co  Co15  1  0.75177778  0.74832355  0.49644786  1
  Co  Co16  1  0.09974525  0.08707190  0.24168162  1
  Co  Co17  1  0.10877285  0.09728836  0.75187553  1
  Co  Co18  1  0.11066352  0.59870557  0.24940894  1
  Co  Co19  1  0.60163127  0.09103717  0.24496126  1
  Co  Co20  1  0.61163736  0.09518733  0.74995092  1
  Co  Co21  1  0.60247619  0.59267032  0.24459139  1
  Co  Co22  1  0.35719977  0.40132010  0.24548703  1
  Co  Co23  1  0.34681755  0.89603983  0.23877983  1
  Co  Co24  1  0.85835883  0.40116331  0.24939813  1
  Co  Co25  1  0.86020937  0.40278035  0.75211019  1
  Co  Co26  1  0.85720961  0.90843287  0.24610254  1
  Co  Co27  1  0.85875760  0.90389864  0.75161977  1
  O  O0  1  0.12473089  0.11577333  0.48561201  1
  O  O1  1  0.12611104  0.13301294  0.98915444  1
  O  O2  1  0.11913759  0.61546302  0.48157310  1
  O  O3  1  0.12778378  0.62961533  0.98997685  1
  O  O4  1  0.62306224  0.11510470  0.48360845  1
  O  O5  1  0.62574041  0.12268669  0.98803248  1
  O  O6  1  0.61699834  0.61245664  0.48314110  1
  O  O7  1  0.62897884  0.63175147  0.98848987  1
  O  O8  1  0.15521005  0.40686344  0.03224364  1
  O  O9  1  0.13500049  0.37713156  0.51252931  1
  O  O10  1  0.14491658  0.90002638  0.02366756  1
  O  O11  1  0.13609774  0.87344960  0.50999487  1
  O  O12  1  0.64058460  0.38329474  0.01568336  1
  O  O13  1  0.63430630  0.37563599  0.51349553  1
  O  O14  1  0.64474227  0.89755215  0.02443452  1
  O  O15  1  0.63078371  0.87440088  0.50822234  1
  O  O16  1  0.37368748  0.11976825  0.48285531  1
  O  O17  1  0.37783385  0.10853124  0.98940338  1
  O  O18  1  0.36598538  0.62201152  0.48129547  1
  O  O19  1  0.37596773  0.61193674  0.98273734  1
  O  O20  1  0.87318511  0.11965426  0.48364861  1
  O  O21  1  0.87857139  0.10944932  0.99442114  1
  O  O22  1  0.86954579  0.61866085  0.48356544  1
  O  O23  1  0.87835763  0.61407503  0.98862798  1
  O  O24  1  0.38818001  0.37472629  0.01608075  1
  O  O25  1  0.38217167  0.38738190  0.50691768  1
  O  O26  1  0.38638401  0.88191195  0.02207824  1
  O  O27  1  0.38502526  0.88613499  0.51153900  1
  O  O28  1  0.89398478  0.38132848  0.01740752  1
  O  O29  1  0.88220952  0.38419323  0.51223757  1
  O  O30  1  0.89884814  0.87637844  0.02810989  1
  O  O31  1  0.88358824  0.88421540  0.51016477  1
  O  O32  1  0.11138656  0.11384571  0.14380138  1
  O  O33  1  0.08792129  0.10343567  0.64265276  1
  O  O34  1  0.09624615  0.62331450  0.14429909  1
  O  O35  1  0.08836307  0.60611137  0.64134381  1
  O  O36  1  0.60789396  0.11089872  0.14384850  1
  O  O37  1  0.58990900  0.10136984  0.64075894  1
  O  O38  1  0.60159300  0.60129695  0.13952386  1
  O  O39  1  0.58709495  0.60375872  0.63879844  1
  O  O40  1  0.44345964  0.39302126  0.35494616  1
  O  O41  1  0.45243416  0.39562541  0.86221100  1
  O  O42  1  0.43297904  0.89947144  0.35121812  1
  O  O43  1  0.45177918  0.89559109  0.86253918  1
  O  O44  1  0.94257595  0.39175971  0.35781049  1
  O  O45  1  0.95122279  0.39565039  0.86158654  1
  O  O46  1  0.94556652  0.90043804  0.35526273  1
  O  O47  1  0.94742420  0.89919478  0.86300913  1
  O  O48  1  0.34350729  0.26882106  0.14250364  1
  O  O49  1  0.34337001  0.28650207  0.64124210  1
  O  O50  1  0.34829663  0.76262890  0.14116473  1
  O  O51  1  0.33866708  0.78640158  0.63915663  1
  O  O52  1  0.83901956  0.27510679  0.14308742  1
  O  O53  1  0.83917006  0.28728275  0.64371309  1
  O  O54  1  0.85193583  0.78053904  0.14443521  1
  O  O55  1  0.83548874  0.78875593  0.64156238  1
  O  O56  1  0.18327938  0.20169311  0.35309599  1
  O  O57  1  0.19703360  0.21461232  0.86202048  1
  O  O58  1  0.19602459  0.71783091  0.35666780  1
  O  O59  1  0.19737335  0.71894622  0.86233223  1
  O  O60  1  0.68165674  0.20788977  0.35507939  1
  O  O61  1  0.70279317  0.21038790  0.85982121  1
  O  O62  1  0.68433877  0.71174500  0.35364336  1
  O  O63  1  0.70453523  0.72004126  0.86301878  1
  O  O64  1  0.41136717  0.05651731  0.23180609  1
  O  O65  1  0.42749289  0.07026503  0.75083034  1
  O  O66  1  0.41289142  0.56035384  0.23419038  1
  O  O67  1  0.42530839  0.57077902  0.75113036  1
  O  O68  1  0.91110769  0.06662319  0.23302678  1
  O  O69  1  0.92578006  0.06696490  0.75098103  1
  O  O70  1  0.93067090  0.56176180  0.24918650  1
  O  O71  1  0.92196301  0.56940552  0.75189111  1
  O  O72  1  0.17802622  0.43701401  0.24922679  1
  O  O73  1  0.17501715  0.43116023  0.75174206  1
  O  O74  1  0.15821172  0.91805100  0.23174469  1
  O  O75  1  0.17525605  0.93271333  0.75177522  1
  O  O76  1  0.67717031  0.43456546  0.24999520  1
  O  O77  1  0.67550695  0.43180684  0.75184765  1
  O  O78  1  0.67552746  0.93242482  0.24762771  1
  O  O79  1  0.67552983  0.93180585  0.75098245  1
loop_
_geom_bond_atom_site_label_1
_geom_bond_atom_site_label_2
_geom_bond_distance
_geom_bond_site_symmetry_2
Ca0 O49 2.315904 1_555
Ca0 O65 2.342031 1_555
Ca0 O27 2.444492 1_545
Ca0 O11 2.512866 1_545
Ca0 O0 2.523150 1_555
Ca0 O33 2.596630 1_555
Ca0 O16 2.626796 1_555
Ca0 O37 2.869218 1_555
Ca1 O51 2.303997 1_555
Ca1 O67 2.354478 1_555
Ca1 O9 2.460391 1_555
Ca1 O35 2.495699 1_555
Ca1 O25 2.524095 1_555
Ca1 O2 2.550523 1_555
Ca1 O18 2.665475 1_555
Ca1 O39 2.930268 1_555
Ca2 O69 2.325422 1_555
Ca2 O53 2.356020 1_555
Ca2 O31 2.456656 1_545
Ca2 O15 2.511082 1_545
Ca2 O37 2.537823 1_555
Ca2 O4 2.573612 1_555
Ca2 O20 2.656961 1_555
Ca2 O33 2.866294 1_655
Ca3 O70 2.286405 1_555
Ca3 O54 2.297364 1_555
Ca3 O12 2.396963 1_555
Ca3 O38 2.407934 1_555
Ca3 O28 2.489105 1_555
Ca3 O23 2.608402 1_554
Ca3 O7 2.626515 1_554
Ca3 O34 2.961501 1_655
Ca4 O71 2.335197 1_555
Ca4 O55 2.357453 1_555
Ca4 O13 2.462254 1_555
Ca4 O29 2.466949 1_555
Ca4 O39 2.511837 1_555
Ca4 O6 2.567169 1_555
Ca4 O22 2.645659 1_555
Ca4 O35 2.916400 1_655
Ca5 O72 2.329271 1_555
Ca5 O56 2.400325 1_555
Ca5 O2 2.431233 1_555
Ca5 O25 2.520078 1_555
Ca5 O44 2.522526 1_455
Ca5 O18 2.523699 1_555
Ca5 O9 2.578893 1_555
Ca5 O40 2.923340 1_555
Ca6 O57 2.333243 1_555
Ca6 O73 2.366101 1_555
Ca6 O19 2.385766 1_555
Ca6 O3 2.489622 1_555
Ca6 O45 2.536855 1_455
Ca6 O8 2.580479 1_556
Ca6 O24 2.587677 1_556
Ca6 O41 2.920509 1_555
Ca7 O58 2.327014 1_555
Ca7 O74 2.419873 1_555
Ca7 O0 2.442173 1_565
Ca7 O16 2.473177 1_565
Ca7 O46 2.555961 1_455
Ca7 O27 2.625440 1_555
Ca7 O11 2.675669 1_555
Ca7 O42 2.757183 1_555
Ca8 O59 2.302475 1_555
Ca8 O75 2.338266 1_555
Ca8 O17 2.440850 1_565
Ca8 O1 2.495003 1_565
Ca8 O47 2.502333 1_455
Ca8 O10 2.536140 1_556
Ca8 O26 2.677529 1_556
Ca8 O43 2.972161 1_555
Ca9 O76 2.310490 1_555
Ca9 O60 2.339103 1_555
Ca9 O6 2.458406 1_555
Ca9 O22 2.474602 1_555
Ca9 O29 2.536061 1_555
Ca9 O40 2.575291 1_555
Ca9 O13 2.621959 1_555
Ca9 O44 2.831089 1_555
Ca10 O77 2.325565 1_555
Ca10 O61 2.334605 1_555
Ca10 O23 2.469630 1_555
Ca10 O41 2.521853 1_555
Ca10 O12 2.535490 1_556
Ca10 O7 2.545417 1_555
Ca10 O28 2.613435 1_556
Ca10 O45 2.889835 1_555
Ca11 O78 2.317087 1_555
Ca11 O62 2.348321 1_555
Ca11 O4 2.408184 1_565
Ca11 O20 2.476934 1_565
Ca11 O31 2.557715 1_555
Ca11 O15 2.590123 1_555
Ca11 O42 2.661230 1_555
Ca11 O46 2.887755 1_555
Ca12 O63 2.305864 1_555
Ca12 O79 2.314627 1_555
Ca12 O5 2.428300 1_565
Ca12 O43 2.466294 1_555
Ca12 O21 2.468708 1_565
Ca12 O14 2.595722 1_556
Ca12 O30 2.860960 1_556
Ca12 O47 2.905387 1_555
Ca13 O72 2.277252 1_555
Ca13 O32 2.288687 1_555
Ca13 O28 2.357392 1_455
Ca13 O52 2.527866 1_455
Ca13 O8 2.545169 1_555
Ca13 O21 2.565045 1_454
Ca13 O1 2.588461 1_554
Ca14 O33 2.350231 1_555
Ca14 O73 2.372258 1_555
Ca14 O9 2.451783 1_555
Ca14 O29 2.458175 1_455
Ca14 O20 2.510407 1_455
Ca14 O53 2.548521 1_455
Ca14 O0 2.614459 1_555
Ca14 O49 2.960422 1_555
Ca15 O35 2.313772 1_555
Ca15 O75 2.344961 1_555
Ca15 O31 2.470625 1_455
Ca15 O11 2.509855 1_555
Ca15 O55 2.524821 1_455
Ca15 O22 2.553292 1_455
Ca15 O2 2.678773 1_555
Ca15 O51 2.943307 1_555
Ca16 O76 2.275154 1_555
Ca16 O36 2.288896 1_555
Ca16 O24 2.390769 1_555
Ca16 O12 2.507091 1_555
Ca16 O48 2.535907 1_555
Ca16 O17 2.606902 1_554
Ca16 O5 2.608606 1_554
Ca16 O52 2.876266 1_555
Ca17 O37 2.340278 1_555
Ca17 O77 2.358732 1_555
Ca17 O13 2.422281 1_555
Ca17 O49 2.509739 1_555
Ca17 O16 2.533495 1_555
Ca17 O25 2.563616 1_555
Ca17 O4 2.618285 1_555
Ca17 O53 2.875762 1_555
Ca18 O78 2.281693 1_555
Ca18 O38 2.296991 1_555
Ca18 O26 2.404999 1_555
Ca18 O50 2.435867 1_555
Ca18 O14 2.562500 1_555
Ca18 O7 2.565999 1_554
Ca18 O19 2.572106 1_554
Ca19 O79 2.320675 1_555
Ca19 O39 2.336737 1_555
Ca19 O27 2.469359 1_555
Ca19 O15 2.469520 1_555
Ca19 O51 2.520802 1_555
Ca19 O18 2.596888 1_555
Ca19 O6 2.650605 1_555
Ca19 O55 2.860262 1_555
Ca20 O40 2.366538 1_555
Ca20 O16 2.420747 1_555
Ca20 O64 2.435150 1_555
Ca20 O4 2.484349 1_555
Ca20 O13 2.642669 1_555
Ca20 O56 2.670433 1_555
Ca20 O25 2.681191 1_555
Ca20 O60 2.713001 1_555
Ca21 O41 2.303719 1_555
Ca21 O65 2.323241 1_555
Ca21 O5 2.443221 1_555
Ca21 O17 2.528622 1_555
Ca21 O24 2.544177 1_556
Ca21 O57 2.580509 1_555
Ca21 O12 2.595091 1_556
Ca21 O61 2.913892 1_555
Ca22 O42 2.365869 1_555
Ca22 O66 2.445711 1_555
Ca22 O18 2.464816 1_555
Ca22 O58 2.528142 1_555
Ca22 O6 2.533694 1_555
Ca22 O15 2.542522 1_555
Ca22 O27 2.629410 1_555
Ca22 O62 2.777126 1_555
Ca23 O43 2.279108 1_555
Ca23 O67 2.319561 1_555
Ca23 O19 2.398646 1_555
Ca23 O59 2.480781 1_555
Ca23 O7 2.493632 1_555
Ca23 O26 2.615714 1_556
Ca23 O14 2.794656 1_556
Ca23 O63 3.003073 1_555
Ca24 O44 2.316480 1_555
Ca24 O20 2.418728 1_555
Ca24 O68 2.435231 1_555
Ca24 O0 2.496784 1_655
Ca24 O9 2.609646 1_655
Ca24 O29 2.673053 1_555
Ca24 O60 2.698416 1_555
Ca24 O56 2.752265 1_655
Ca25 O69 2.291740 1_555
Ca25 O45 2.323721 1_555
Ca25 O1 2.436221 1_655
Ca25 O61 2.451571 1_555
Ca25 O28 2.579422 1_556
Ca25 O21 2.580754 1_555
Ca25 O57 2.886885 1_655
Ca25 O8 2.957803 1_656
Ca26 O70 2.336976 1_555
Ca26 O46 2.390773 1_555
Ca26 O22 2.437218 1_555
Ca26 O2 2.472230 1_655
Ca26 O11 2.562674 1_655
Ca26 O31 2.575052 1_555
Ca26 O62 2.627469 1_555
Ca26 O58 2.914779 1_655
Ca27 O47 2.329499 1_555
Ca27 O71 2.330650 1_555
Ca27 O23 2.443729 1_555
Ca27 O3 2.452422 1_655
Ca27 O63 2.461626 1_555
Ca27 O30 2.588354 1_556
Ca27 O10 2.759848 1_656
Ca27 O59 2.898413 1_655
Mg0 O64 2.045180 1_555
Mg0 O32 2.082067 1_555
Mg0 O48 2.084129 1_555
Mg0 O10 2.233204 1_545
Mg0 O1 2.537551 1_554
Mg0 O26 2.659557 1_545
Mg0 O17 2.726044 1_554
Mg1 O50 2.041733 1_555
Mg1 O66 2.061284 1_555
Mg1 O8 2.105290 1_555
Mg1 O34 2.165009 1_555
Mg1 O3 2.496652 1_554
Mg2 O68 2.070561 1_555
Mg2 O36 2.076062 1_555
Mg2 O52 2.088628 1_555
Mg2 O14 2.263881 1_545
Mg2 O5 2.432094 1_554
Mg2 O21 2.640358 1_554
Mg2 O30 2.786972 1_545
Mg3 O74 2.054291 1_555
Mg3 O34 2.076369 1_555
Mg3 O54 2.099802 1_455
Mg3 O30 2.187296 1_455
Mg3 O23 2.426022 1_454
Fe0 O35 1.868124 1_555
Fe0 O59 1.875378 1_555
Fe0 O73 1.941079 1_555
Fe0 O71 1.947851 1_455
Fe1 O39 1.875559 1_555
Fe1 O63 1.887201 1_555
Fe1 O77 1.926835 1_555
Fe1 O67 1.968065 1_555
Fe2 O49 1.860498 1_555
Fe2 O41 1.865813 1_555
Fe2 O67 1.939819 1_555
Fe2 O73 1.955107 1_555
Fe3 O51 1.879860 1_555
Fe3 O43 1.884141 1_555
Fe3 O65 1.926820 1_565
Fe3 O75 1.947718 1_555
Co0 O21 1.831466 1_454
Co0 O10 1.845506 1_545
Co0 O30 1.996510 1_445
Co0 O1 2.075204 1_554
Co0 O32 2.092903 1_555
Co0 O47 2.219663 1_444
Co1 O0 1.914933 1_565
Co1 O31 1.917075 1_455
Co1 O20 1.946883 1_465
Co1 O11 1.987070 1_555
Co1 O46 2.163869 1_455
Co1 O33 2.186897 1_565
Co2 O23 1.878128 1_454
Co2 O8 1.895696 1_555
Co2 O28 1.947687 1_455
Co2 O3 1.991123 1_554
Co2 O34 2.156924 1_555
Co2 O45 2.186636 1_454
Co3 O29 1.925088 1_455
Co3 O2 1.931050 1_555
Co3 O22 1.953155 1_455
Co3 O9 1.966222 1_555
Co3 O44 2.159147 1_455
Co3 O35 2.160474 1_555
Co4 O17 1.824010 1_554
Co4 O14 1.879268 1_545
Co4 O5 1.975940 1_554
Co4 O26 2.004434 1_545
Co4 O36 2.142203 1_555
Co4 O43 2.171736 1_544
Co5 O27 1.903449 1_555
Co5 O4 1.916410 1_565
Co5 O16 1.941769 1_565
Co5 O15 1.942165 1_555
Co5 O37 2.170856 1_565
Co5 O42 2.205315 1_555
Co6 O19 1.900841 1_554
Co6 O12 1.918919 1_555
Co6 O24 2.006270 1_555
Co6 O7 2.055090 1_554
Co6 O38 2.090182 1_555
Co6 O41 2.139076 1_554
Co7 O25 1.858098 1_555
Co7 O6 1.870482 1_555
Co7 O13 1.964655 1_555
Co7 O18 2.021076 1_555
Co7 O39 2.155424 1_555
Co7 O40 2.161267 1_555
Co8 O24 1.834422 1_555
Co8 O1 1.843110 1_554
Co8 O8 2.025853 1_555
Co8 O17 2.053855 1_554
Co8 O48 2.116128 1_555
Co8 O57 2.195817 1_554
Co9 O9 1.915031 1_555
Co9 O16 1.923616 1_555
Co9 O0 1.930978 1_555
Co9 O25 1.983475 1_555
Co9 O49 2.162175 1_555
Co9 O56 2.198450 1_555
Co10 O3 1.834164 1_554
Co10 O26 1.868251 1_555
Co10 O19 1.995996 1_554
Co10 O10 2.055350 1_555
Co10 O50 2.108034 1_555
Co10 O59 2.206709 1_554
Co11 O11 1.860263 1_555
Co11 O18 1.865862 1_555
Co11 O27 1.955876 1_555
Co11 O2 1.956588 1_555
Co11 O51 2.140261 1_555
Co11 O58 2.163969 1_555
Co12 O5 1.898686 1_554
Co12 O28 1.939132 1_555
Co12 O12 1.950346 1_555
Co12 O21 2.005506 1_554
Co12 O52 2.139027 1_555
Co12 O61 2.187062 1_554
Co13 O13 1.909853 1_555
Co13 O20 1.919691 1_555
Co13 O4 1.924523 1_555
Co13 O29 1.934401 1_555
Co13 O60 2.158972 1_555
Co13 O53 2.214011 1_555
Co14 O7 1.829127 1_554
Co14 O30 1.858851 1_555
Co14 O23 2.002133 1_554
Co14 O14 2.018215 1_555
Co14 O63 2.147003 1_554
Co14 O54 2.167426 1_555
Co15 O15 1.906696 1_555
Co15 O22 1.912302 1_555
Co15 O31 1.959940 1_555
Co15 O6 1.983722 1_555
Co15 O62 2.167902 1_555
Co15 O55 2.198343 1_555
Co16 O32 1.807516 1_555
Co16 O56 1.810470 1_555
Co16 O74 1.947076 1_545
Co16 O68 1.969683 1_455
Co17 O33 1.802760 1_555
Co17 O57 1.816637 1_555
Co17 O75 1.957388 1_545
Co17 O69 1.967379 1_455
Co18 O58 1.789190 1_555
Co18 O34 1.834853 1_555
Co18 O72 1.930824 1_555
Co18 O70 1.954035 1_455
Co19 O60 1.800141 1_555
Co19 O36 1.807071 1_555
Co19 O78 1.935084 1_545
Co19 O64 1.984105 1_555
Co20 O37 1.800495 1_555
Co20 O61 1.810942 1_555
Co20 O79 1.938928 1_545
Co20 O65 1.981318 1_555
Co21 O38 1.798396 1_555
Co21 O62 1.801265 1_555
Co21 O76 1.942512 1_555
Co21 O66 1.986698 1_555
Co22 O40 1.806040 1_555
Co22 O48 1.830316 1_555
Co22 O66 1.945149 1_555
Co22 O72 1.962080 1_555
Co23 O42 1.803611 1_555
Co23 O50 1.819451 1_555
Co23 O64 1.958105 1_565
Co23 O74 1.989560 1_555
Co24 O44 1.791617 1_555
Co24 O52 1.821683 1_555
Co24 O70 1.939550 1_555
Co24 O76 1.964005 1_555
Co25 O53 1.794829 1_555
Co25 O45 1.811051 1_555
Co25 O71 1.960872 1_555
Co25 O77 1.988433 1_555
Co26 O46 1.804499 1_555
Co26 O54 1.813358 1_555
Co26 O68 1.944966 1_565
Co26 O78 1.956655 1_555
Co27 O55 1.809436 1_555
Co27 O47 1.824002 1_555
Co27 O69 1.946515 1_565
Co27 O79 1.969292 1_555
