# generated using pymatgen
data_Y12Ge5S28
_symmetry_space_group_name_H-M   'P 1'
_cell_length_a   9.89711375
_cell_length_b   11.43450655
_cell_length_c   11.43821068
_cell_angle_alpha   60.32255794
_cell_angle_beta   115.63603068
_cell_angle_gamma   115.63723716
_symmetry_Int_Tables_number   1
_chemical_formula_structural   Y12Ge5S28
_chemical_formula_sum   'Y12 Ge5 S28'
_cell_volume   973.70818169
_cell_formula_units_Z   1
loop_
 _symmetry_equiv_pos_site_id
 _symmetry_equiv_pos_as_xyz
  1  'x, y, z'
loop_
 _atom_site_type_symbol
 _atom_site_label
 _atom_site_symmetry_multiplicity
 _atom_site_fract_x
 _atom_site_fract_y
 _atom_site_fract_z
 _atom_site_occupancy
  Y  Y0  1  0.23475900  0.06657200  0.29755400  1
  Y  Y1  1  0.22176700  0.53767200  0.80842100  1
  Y  Y2  1  0.65312300  0.30255500  0.57325000  1
  Y  Y3  1  0.63733300  0.81926500  0.05133200  1
  Y  Y4  1  0.12567000  0.25412400  0.52531100  1
  Y  Y5  1  0.12650300  0.76602200  0.99743400  1
  Y  Y6  1  0.77696200  0.96349100  0.69270900  1
  Y  Y7  1  0.76802300  0.43399200  0.19898900  1
  Y  Y8  1  0.36610600  0.68353700  0.44853000  1
  Y  Y9  1  0.34405900  0.19628700  0.92594400  1
  Y  Y10  1  0.86683500  0.73396300  0.49796300  1
  Y  Y11  1  0.87798600  0.24629000  0.97687900  1
  Ge  Ge0  1  0.33533200  0.91999500  0.74615700  1
  Ge  Ge1  1  0.33150600  0.42011400  0.24729600  1
  Ge  Ge2  1  0.66725200  0.00258300  0.33217700  1
  Ge  Ge3  1  0.66611200  0.50022200  0.83204000  1
  Ge  Ge4  1  0.00030700  0.76201500  0.23826800  1
  S  S0  1  0.10314300  0.75856500  0.74973300  1
  S  S1  1  0.09597400  0.26593400  0.25735000  1
  S  S2  1  0.47820200  0.79142800  0.78268900  1
  S  S3  1  0.49058100  0.30115200  0.29261000  1
  S  S4  1  0.41416500  0.95602400  0.94536500  1
  S  S5  1  0.41986600  0.45419600  0.44676200  1
  S  S6  1  0.90124100  0.99425000  0.48779300  1
  S  S7  1  0.90072400  0.49483700  0.98922100  1
  S  S8  1  0.51505000  0.96093500  0.45511400  1
  S  S9  1  0.51844100  0.46270900  0.95661900  1
  S  S10  1  0.58309300  0.80282500  0.29658500  1
  S  S11  1  0.58144500  0.30200200  0.79667500  1
  S  S12  1  0.33346000  0.11093600  0.55686700  1
  S  S13  1  0.33303800  0.61001900  0.05567800  1
  S  S14  1  0.67144700  0.69710000  0.64703400  1
  S  S15  1  0.66190100  0.18712900  0.13590900  1
  S  S16  1  0.14891800  0.77106700  0.46658800  1
  S  S17  1  0.16630400  0.26219100  0.99824300  1
  S  S18  1  0.74043200  0.08579900  0.82095900  1
  S  S19  1  0.76218500  0.60713300  0.30326000  1
  S  S20  1  0.09192200  0.04968800  0.78378100  1
  S  S21  1  0.08950600  0.57681800  0.27378500  1
  S  S22  1  0.83577100  0.25750900  0.48331000  1
  S  S23  1  0.84272600  0.75417300  0.00323500  1
  S  S24  1  0.24230300  0.91812500  0.16706100  1
  S  S25  1  0.25873300  0.43468200  0.66008400  1
  S  S26  1  0.91494500  0.95466800  0.20310200  1
  S  S27  1  0.90485100  0.46890600  0.69483400  1
loop_
_geom_bond_atom_site_label_1
_geom_bond_atom_site_label_2
_geom_bond_distance
_geom_bond_site_symmetry_2
Ge0 S12 2.185021 1_565
Ge0 S2 2.239295 1_555
Ge0 S0 2.241800 1_555
Ge0 S4 2.254655 1_555
Ge1 S13 2.192429 1_555
Ge1 S5 2.231838 1_555
Ge1 S1 2.242814 1_555
Ge1 S3 2.246467 1_555
Ge2 S15 2.190513 1_555
Ge2 S6 2.235288 1_545
Ge2 S8 2.241042 1_545
Ge2 S10 2.248962 1_545
Ge3 S14 2.196642 1_555
Ge3 S11 2.230270 1_555
Ge3 S9 2.237159 1_555
Ge3 S7 2.242655 1_555
Ge4 S16 2.409667 1_555
Ge4 S19 2.417390 1_455
Ge4 S21 2.425757 1_555
Ge4 S24 2.476849 1_555
Ge4 S23 2.481396 1_455
Ge4 S26 2.483400 1_455
S0 Y5 2.782700 1_555
S0 Y10 2.871776 1_455
S0 Y1 2.900655 1_555
S1 Y4 2.888566 1_555
S1 Y0 2.901672 1_555
S1 Y11 3.049926 1_454
S2 Y3 2.893255 1_556
S2 Y1 2.894005 1_555
S2 Y6 3.044213 1_555
S3 Y0 2.775849 1_555
S3 Y7 2.884136 1_555
S3 Y2 2.907345 1_555
S4 Y3 2.754697 1_556
S4 Y5 2.830866 1_555
S4 Y9 2.998364 1_565
S5 Y8 2.903400 1_555
S5 Y2 2.918710 1_555
S5 Y4 2.997165 1_555
S6 Y10 2.793207 1_555
S6 Y6 2.904191 1_555
S6 Y4 2.945205 1_665
S7 Y11 2.822049 1_555
S7 Y7 2.872105 1_556
S7 Y5 2.954360 1_655
S8 Y6 2.832529 1_555
S8 Y8 2.886873 1_555
S8 Y0 2.969913 1_565
S9 Y7 2.787448 1_556
S9 Y9 2.892587 1_555
S9 Y1 2.943095 1_555
S10 Y8 2.800074 1_555
S10 Y10 2.886531 1_555
S10 Y3 2.981029 1_555
S11 Y9 2.818838 1_555
S11 Y11 2.889821 1_555
S11 Y2 2.929704 1_555
S12 Y0 2.926287 1_555
S12 Y4 2.954059 1_555
S12 Y2 2.956381 1_555
S13 Y3 2.928045 1_555
S13 Y5 2.933314 1_554
S13 Y1 2.954502 1_554
S14 Y10 2.874138 1_555
S14 Y8 2.884028 1_555
S14 Y6 2.998837 1_555
S15 Y7 2.896067 1_555
S15 Y9 3.028710 1_554
S15 Y11 3.039065 1_554
S16 Y10 2.791808 1_455
S16 Y8 2.848767 1_555
S16 Y0 2.888830 1_565
S16 Y1 3.438425 1_555
S17 Y11 2.688305 1_455
S17 Y9 2.714772 1_555
S17 Y1 2.774971 1_555
S17 Y0 2.984032 1_556
S18 Y6 2.677042 1_545
S18 Y11 2.716585 1_555
S18 Y2 2.774597 1_555
S18 Y3 2.992699 1_546
S19 Y7 2.800381 1_555
S19 Y10 2.835168 1_555
S19 Y3 2.881897 1_555
S19 Y2 3.436924 1_555
S20 Y9 2.692477 1_555
S20 Y6 2.705868 1_445
S20 Y4 2.766195 1_555
S20 Y5 2.999629 1_545
S21 Y8 2.787129 1_555
S21 Y7 2.837996 1_455
S21 Y5 2.889724 1_554
S21 Y4 3.429286 1_555
S22 Y4 2.710969 1_655
S22 Y2 2.744265 1_555
S22 Y7 2.807764 1_555
S22 Y6 2.986218 1_545
S23 Y3 2.769717 1_555
S23 Y5 2.780991 1_654
S23 Y6 3.114068 1_554
S23 Y7 3.152225 1_555
S24 Y5 2.792023 1_554
S24 Y0 2.798144 1_565
S24 Y9 3.111616 1_564
S24 Y8 3.152905 1_555
S25 Y1 2.699645 1_555
S25 Y4 2.723119 1_555
S25 Y8 2.805676 1_555
S25 Y9 2.992104 1_555
S26 Y0 2.779987 1_665
S26 Y3 2.795165 1_555
S26 Y11 3.104988 1_564
S26 Y10 3.145146 1_555
S27 Y2 2.698100 1_555
S27 Y1 2.737784 1_655
S27 Y10 2.809541 1_555
S27 Y11 2.997112 1_555
