# generated using pymatgen
data_K4Rb2Co2O5
_symmetry_space_group_name_H-M   'P 1'
_cell_length_a   6.70191984
_cell_length_b   6.70191984
_cell_length_c   11.67543876
_cell_angle_alpha   90.00000000
_cell_angle_beta   90.00000000
_cell_angle_gamma   90.00017047
_symmetry_Int_Tables_number   1
_chemical_formula_structural   K4Rb2Co2O5
_chemical_formula_sum   'K8 Rb4 Co4 O10'
_cell_volume   524.41084962
_cell_formula_units_Z   2
loop_
 _symmetry_equiv_pos_site_id
 _symmetry_equiv_pos_as_xyz
  1  'x, y, z'
loop_
 _atom_site_type_symbol
 _atom_site_label
 _atom_site_symmetry_multiplicity
 _atom_site_fract_x
 _atom_site_fract_y
 _atom_site_fract_z
 _atom_site_occupancy
  K  K0  1  0.50000000  -0.00000000  0.24999127  1
  K  K1  1  0.50000000  -0.00000000  0.75000873  1
  K  K2  1  0.00000000  -0.00000000  0.77927100  1
  K  K3  1  0.50000000  0.50000000  0.27923136  1
  K  K4  1  0.50000000  0.50000000  0.72076864  1
  K  K5  1  0.00000000  -0.00000000  0.22072900  1
  K  K6  1  0.00000000  0.50000000  0.24999127  1
  K  K7  1  0.00000000  0.50000000  0.75000873  1
  Rb  Rb0  1  0.31199484  0.31199484  -0.00000000  1
  Rb  Rb1  1  0.18802654  0.81197346  0.50000000  1
  Rb  Rb2  1  0.81197346  0.18802654  0.50000000  1
  Rb  Rb3  1  0.68800516  0.68800516  -0.00000000  1
  Co  Co0  1  0.20573410  0.79426590  -0.00000000  1
  Co  Co1  1  0.70583385  0.70583385  0.50000000  1
  Co  Co2  1  0.29416615  0.29416615  0.50000000  1
  Co  Co3  1  0.79426590  0.20573410  -0.00000000  1
  O  O0  1  0.50000000  0.50000000  0.50000000  1
  O  O1  1  0.00000000  -0.00000000  -0.00000000  1
  O  O2  1  0.78167989  0.78167989  0.35880044  1
  O  O3  1  0.21832011  0.21832011  0.35880044  1
  O  O4  1  0.78167989  0.78167989  0.64119956  1
  O  O5  1  0.28170224  0.71829776  0.85877635  1
  O  O6  1  0.71829776  0.28170224  0.85877635  1
  O  O7  1  0.71829776  0.28170224  0.14122365  1
  O  O8  1  0.21832011  0.21832011  0.64119956  1
  O  O9  1  0.28170224  0.71829776  0.14122365  1
loop_
_geom_bond_atom_site_label_1
_geom_bond_atom_site_label_2
_geom_bond_distance
_geom_bond_site_symmetry_2
K0 O9 2.705070 1_545
K0 O7 2.705070 1_555
K0 O2 2.705280 1_545
K0 O3 2.705280 1_555
K1 O5 2.705070 1_545
K1 O6 2.705070 1_555
K1 O8 2.705280 1_555
K1 O4 2.705280 1_545
K2 O1 2.577108 1_556
K2 O4 2.623046 1_445
K2 O8 2.623046 1_555
K2 O6 2.826724 1_455
K2 O5 2.826724 1_545
K3 O0 2.577571 1_555
K3 O7 2.622427 1_555
K3 O9 2.622427 1_555
K3 O3 2.826760 1_555
K3 O2 2.826760 1_555
K4 O0 2.577571 1_555
K4 O5 2.622427 1_555
K4 O6 2.622427 1_555
K4 O8 2.826760 1_555
K4 O4 2.826760 1_555
K5 O1 2.577108 1_555
K5 O2 2.623046 1_445
K5 O3 2.623046 1_555
K5 O7 2.826724 1_455
K5 O9 2.826724 1_545
K6 O9 2.705070 1_555
K6 O7 2.705070 1_455
K6 O3 2.705280 1_555
K6 O2 2.705280 1_455
K7 O6 2.705070 1_455
K7 O5 2.705070 1_555
K7 O4 2.705280 1_455
K7 O8 2.705280 1_555
Co0 O9 1.799203 1_555
Co0 O5 1.799203 1_554
Co0 O1 1.949940 1_565
Co1 O2 1.798482 1_555
Co1 O4 1.798482 1_555
Co1 O0 1.950879 1_555
Co2 O3 1.798482 1_555
Co2 O8 1.798482 1_555
Co2 O0 1.950879 1_555
Co3 O7 1.799203 1_555
Co3 O6 1.799203 1_554
Co3 O1 1.949940 1_655
O0 Rb2 2.956872 1_555
O0 Rb1 2.956872 1_555
O1 Rb3 2.957066 1_445
O1 Rb0 2.957066 1_555
O2 Rb1 3.189885 1_655
O2 Rb2 3.189885 1_565
O3 Rb2 3.189885 1_455
O3 Rb1 3.189885 1_545
O4 Rb1 3.189885 1_655
O4 Rb2 3.189885 1_565
O5 Rb0 3.189781 1_556
O5 Rb3 3.189781 1_556
O6 Rb0 3.189781 1_556
O6 Rb3 3.189781 1_556
O7 Rb0 3.189781 1_555
O7 Rb3 3.189781 1_555
O8 Rb2 3.189885 1_455
O8 Rb1 3.189885 1_545
O9 Rb3 3.189781 1_555
O9 Rb0 3.189781 1_555
