# generated using pymatgen
data_Ho5Ni2Bi
_symmetry_space_group_name_H-M   'P 1'
_cell_length_a   8.59177080
_cell_length_b   8.59177080
_cell_length_c   8.59177080
_cell_angle_alpha   127.35851847
_cell_angle_beta   127.35851847
_cell_angle_gamma   77.66653214
_symmetry_Int_Tables_number   1
_chemical_formula_structural   Ho5Ni2Bi
_chemical_formula_sum   'Ho10 Ni4 Bi2'
_cell_volume   388.52050269
_cell_formula_units_Z   2
loop_
 _symmetry_equiv_pos_site_id
 _symmetry_equiv_pos_as_xyz
  1  'x, y, z'
loop_
 _atom_site_type_symbol
 _atom_site_label
 _atom_site_symmetry_multiplicity
 _atom_site_fract_x
 _atom_site_fract_y
 _atom_site_fract_z
 _atom_site_occupancy
  Ho  Ho0  1  0.00000000  -0.00000000  -0.00000000  1
  Ho  Ho1  1  0.50000000  0.50000000  -0.00000000  1
  Ho  Ho2  1  0.02187991  0.52187991  0.81013775  1
  Ho  Ho3  1  0.71174216  0.21174216  0.18986225  1
  Ho  Ho4  1  0.52187991  0.71174216  0.50000000  1
  Ho  Ho5  1  0.21174216  0.02187991  0.50000000  1
  Ho  Ho6  1  0.97812009  0.47812009  0.18986225  1
  Ho  Ho7  1  0.28825784  0.78825784  0.81013775  1
  Ho  Ho8  1  0.47812009  0.28825784  0.50000000  1
  Ho  Ho9  1  0.78825784  0.97812009  0.50000000  1
  Ni  Ni0  1  0.36811771  0.86811771  0.23623542  1
  Ni  Ni1  1  0.63188229  0.13188229  0.76376458  1
  Ni  Ni2  1  0.86811771  0.63188229  0.50000000  1
  Ni  Ni3  1  0.13188229  0.36811771  0.50000000  1
  Bi  Bi0  1  0.75000000  0.75000000  -0.00000000  1
  Bi  Bi1  1  0.25000000  0.25000000  -0.00000000  1
loop_
_geom_bond_atom_site_label_1
_geom_bond_atom_site_label_2
_geom_bond_distance
_geom_bond_site_symmetry_2
Ho0 Ni1 2.979291 1_454
Ho0 Ni2 2.979291 1_444
Ho0 Ni3 2.979291 1_555
Ho0 Ni0 2.979291 1_545
Ho1 Ni1 2.979291 1_554
Ho1 Ni2 2.979291 1_555
Ho1 Ni3 2.979291 1_554
Ho1 Ni0 2.979291 1_555
Ho2 Ni2 2.826582 1_455
Ho2 Ni3 2.826582 1_555
Ho2 Ni0 2.906583 1_556
Ho3 Ni2 2.826582 1_555
Ho3 Ni3 2.826582 1_655
Ho3 Ni1 2.906583 1_554
Ho4 Ni1 2.826582 1_565
Ho4 Ni0 2.826582 1_555
Ho4 Ni2 2.906583 1_555
Ho5 Ni1 2.826582 1_555
Ho5 Ni0 2.826582 1_545
Ho5 Ni3 2.906583 1_555
Ho6 Ni2 2.826582 1_555
Ho6 Ni3 2.826582 1_655
Ho6 Ni1 2.906583 1_554
Ho7 Ni2 2.826582 1_455
Ho7 Ni3 2.826582 1_555
Ho7 Ni0 2.906583 1_556
Ho8 Ni0 2.826582 1_545
Ho8 Ni1 2.826582 1_555
Ho8 Ni3 2.906583 1_555
Ho9 Ni0 2.826582 1_555
Ho9 Ni1 2.826582 1_565
Ho9 Ni2 2.906583 1_555
Bi0 Ho7 3.278327 1_554
Bi0 Ho4 3.278327 1_554
Bi0 Ho9 3.278327 1_555
Bi0 Ho3 3.278327 1_565
Bi0 Ho6 3.278327 1_555
Bi0 Ho2 3.278327 1_654
Bi0 Ho5 3.278327 1_665
Bi0 Ho8 3.278327 1_554
Bi0 Ho0 3.346383 1_665
Bi0 Ho1 3.346383 1_555
Bi1 Ho3 3.278327 1_555
Bi1 Ho2 3.278327 1_554
Bi1 Ho7 3.278327 1_544
Bi1 Ho8 3.278327 1_555
Bi1 Ho6 3.278327 1_455
Bi1 Ho5 3.278327 1_554
Bi1 Ho4 3.278327 1_555
Bi1 Ho9 3.278327 1_444
Bi1 Ho0 3.346383 1_555
Bi1 Ho1 3.346383 1_555
