# generated using pymatgen
data_KNdH2S2O9
_symmetry_space_group_name_H-M   'P 1'
_cell_length_a   8.64321000
_cell_length_b   10.10993958
_cell_length_c   10.61681415
_cell_angle_alpha   117.39695971
_cell_angle_beta   90.00000000
_cell_angle_gamma   90.00000000
_symmetry_Int_Tables_number   1
_chemical_formula_structural   KNdH2S2O9
_chemical_formula_sum   'K4 Nd4 H8 S8 O36'
_cell_volume   823.66848834
_cell_formula_units_Z   4
loop_
 _symmetry_equiv_pos_site_id
 _symmetry_equiv_pos_as_xyz
  1  'x, y, z'
loop_
 _atom_site_type_symbol
 _atom_site_label
 _atom_site_symmetry_multiplicity
 _atom_site_fract_x
 _atom_site_fract_y
 _atom_site_fract_z
 _atom_site_occupancy
  K  K0  1  0.68973000  0.22653500  0.70174800  1
  K  K1  1  0.18973000  0.77346500  0.79825200  1
  K  K2  1  0.31027000  0.77346500  0.29825200  1
  K  K3  1  0.81027000  0.22653500  0.20174800  1
  Nd  Nd0  1  0.84394700  0.73806300  0.47189100  1
  Nd  Nd1  1  0.34394700  0.26193700  0.02810900  1
  Nd  Nd2  1  0.15605300  0.26193700  0.52810900  1
  Nd  Nd3  1  0.65605300  0.73806300  0.97189100  1
  H  H0  1  0.51268200  0.61051200  0.45233000  1
  H  H1  1  0.01268200  0.38948800  0.04767000  1
  H  H2  1  0.48731800  0.38948800  0.54767000  1
  H  H3  1  0.98731800  0.61051200  0.95233000  1
  H  H4  1  0.52301400  0.77250100  0.57383800  1
  H  H5  1  0.02301400  0.22749900  0.92616200  1
  H  H6  1  0.47698600  0.22749900  0.42616200  1
  H  H7  1  0.97698600  0.77250100  0.07383800  1
  S  S0  1  0.18198600  0.47574100  0.38282900  1
  S  S1  1  0.68198600  0.52425900  0.11717100  1
  S  S2  1  0.81801400  0.52425900  0.61717100  1
  S  S3  1  0.31801400  0.47574100  0.88282900  1
  S  S4  1  0.86914900  0.95272000  0.32688900  1
  S  S5  1  0.36914900  0.04728000  0.17311100  1
  S  S6  1  0.13085100  0.04728000  0.67311100  1
  S  S7  1  0.63085100  0.95272000  0.82688900  1
  O  O0  1  0.30509900  0.45355800  0.27668100  1
  O  O1  1  0.80509900  0.54644200  0.22331900  1
  O  O2  1  0.69490100  0.54644200  0.72331900  1
  O  O3  1  0.19490100  0.45355800  0.77668100  1
  O  O4  1  0.07935500  0.59618500  0.38983100  1
  O  O5  1  0.57935500  0.40381500  0.11016900  1
  O  O6  1  0.92064500  0.40381500  0.61016900  1
  O  O7  1  0.42064500  0.59618500  0.88983100  1
  O  O8  1  0.09458500  0.33348700  0.33984700  1
  O  O9  1  0.59458500  0.66651300  0.16015300  1
  O  O10  1  0.90541500  0.66651300  0.66015300  1
  O  O11  1  0.40541500  0.33348700  0.83984700  1
  O  O12  1  0.25180300  0.51405500  0.52414500  1
  O  O13  1  0.75180300  0.48594500  0.97585500  1
  O  O14  1  0.74819700  0.48594500  0.47585500  1
  O  O15  1  0.24819700  0.51405500  0.02414500  1
  O  O16  1  0.79204200  0.93232300  0.19400100  1
  O  O17  1  0.29204200  0.06767700  0.30599900  1
  O  O18  1  0.20795800  0.06767700  0.80599900  1
  O  O19  1  0.70795800  0.93232300  0.69400100  1
  O  O20  1  0.94958400  0.09901100  0.38710100  1
  O  O21  1  0.44958400  0.90098900  0.11289900  1
  O  O22  1  0.05041600  0.90098900  0.61289900  1
  O  O23  1  0.55041600  0.09901100  0.88710100  1
  O  O24  1  0.75446400  0.95020200  0.43166900  1
  O  O25  1  0.25446400  0.04979800  0.06833100  1
  O  O26  1  0.24553600  0.04979800  0.56833100  1
  O  O27  1  0.74553600  0.95020200  0.93166900  1
  O  O28  1  0.98002400  0.82821600  0.29698700  1
  O  O29  1  0.48002400  0.17178400  0.20301300  1
  O  O30  1  0.01997600  0.17178400  0.70301300  1
  O  O31  1  0.51997600  0.82821600  0.79698700  1
  O  O32  1  0.54326600  0.71164600  0.47211200  1
  O  O33  1  0.04326600  0.28835400  0.02788800  1
  O  O34  1  0.45673400  0.28835400  0.52788800  1
  O  O35  1  0.95673400  0.71164600  0.97211200  1
loop_
_geom_bond_atom_site_label_1
_geom_bond_atom_site_label_2
_geom_bond_distance
_geom_bond_site_symmetry_2
K0 O11 2.810447 1_555
K0 O30 2.908768 1_655
K0 O13 2.934443 1_555
K0 O19 2.941748 1_545
K0 O34 2.985790 1_555
K0 O24 2.994579 1_545
K0 O23 3.052778 1_555
K0 O6 3.121660 1_555
K0 O2 3.135777 1_555
K1 O10 2.810447 1_455
K1 O31 2.908768 1_555
K1 O12 2.934443 1_555
K1 O18 2.941748 1_565
K1 O35 2.985790 1_455
K1 O25 2.994579 1_566
K1 O22 3.052778 1_555
K1 O7 3.121660 1_555
K1 O3 3.135777 1_555
K2 O9 2.810447 1_555
K2 O28 2.908768 1_455
K2 O15 2.934443 1_555
K2 O17 2.941748 1_565
K2 O32 2.985790 1_555
K2 O26 2.994579 1_565
K2 O21 3.052778 1_555
K2 O4 3.121660 1_555
K2 O0 3.135777 1_555
K3 O8 2.810447 1_655
K3 O29 2.908768 1_555
K3 O14 2.934443 1_555
K3 O16 2.941748 1_545
K3 O33 2.985790 1_655
K3 O27 2.994579 1_544
K3 O20 3.052778 1_555
K3 O5 3.121660 1_555
K3 O1 3.135777 1_555
Nd0 O4 2.409631 1_655
Nd0 O22 2.422726 1_655
Nd0 O1 2.474918 1_555
Nd0 O10 2.476104 1_555
Nd0 O24 2.494633 1_555
Nd0 O19 2.556787 1_555
Nd0 O32 2.612648 1_555
Nd0 O28 2.686968 1_555
Nd0 O14 2.698569 1_555
Nd1 O5 2.409631 1_555
Nd1 O23 2.422726 1_554
Nd1 O0 2.474918 1_555
Nd1 O11 2.476104 1_554
Nd1 O25 2.494633 1_555
Nd1 O18 2.556787 1_554
Nd1 O33 2.612648 1_555
Nd1 O29 2.686968 1_555
Nd1 O15 2.698569 1_555
Nd2 O6 2.409631 1_455
Nd2 O20 2.422726 1_455
Nd2 O3 2.474918 1_555
Nd2 O8 2.476104 1_555
Nd2 O26 2.494633 1_555
Nd2 O17 2.556787 1_555
Nd2 O34 2.612648 1_555
Nd2 O30 2.686968 1_555
Nd2 O12 2.698569 1_555
Nd3 O7 2.409631 1_555
Nd3 O21 2.422726 1_556
Nd3 O2 2.474918 1_555
Nd3 O9 2.476104 1_556
Nd3 O27 2.494633 1_555
Nd3 O16 2.556787 1_556
Nd3 O35 2.612648 1_555
Nd3 O31 2.686968 1_555
Nd3 O13 2.698569 1_555
H0 O32 0.980706 1_555
H1 O33 0.980706 1_555
H2 O34 0.980706 1_555
H3 O35 0.980706 1_555
H4 O32 0.981868 1_555
H5 O33 0.981868 1_556
H6 O34 0.981868 1_555
H7 O35 0.981868 1_554
O0 S0 1.489971 1_555
O1 S1 1.489971 1_555
O2 S2 1.489971 1_555
O3 S3 1.489971 1_555
O4 S0 1.480488 1_555
O5 S1 1.480488 1_555
O6 S2 1.480488 1_555
O7 S3 1.480488 1_555
O8 S0 1.497759 1_555
O9 S1 1.497759 1_555
O10 S2 1.497759 1_555
O11 S3 1.497759 1_555
O12 S0 1.493427 1_555
O13 S1 1.493427 1_556
O14 S2 1.493427 1_555
O15 S3 1.493427 1_554
O16 S4 1.486413 1_555
O17 S5 1.486413 1_555
O18 S6 1.486413 1_555
O19 S7 1.486413 1_555
O20 S4 1.486367 1_545
O21 S5 1.486367 1_565
O22 S6 1.486367 1_565
O23 S7 1.486367 1_545
O24 S4 1.498926 1_555
O25 S5 1.498926 1_555
O26 S6 1.498926 1_555
O27 S7 1.498926 1_555
O28 S4 1.495257 1_555
O29 S5 1.495257 1_555
O30 S6 1.495257 1_555
O31 S7 1.495257 1_555
