# generated using pymatgen
data_TeC2S2(N2Cl)2
_symmetry_space_group_name_H-M   'P 1'
_cell_length_a   8.99499102
_cell_length_b   10.24322333
_cell_length_c   8.99499102
_cell_angle_alpha   106.68307859
_cell_angle_beta   127.45394208
_cell_angle_gamma   93.27021737
_symmetry_Int_Tables_number   1
_chemical_formula_structural   TeC2S2(N2Cl)2
_chemical_formula_sum   'Te2 C4 S4 N8 Cl4'
_cell_volume   600.27799769
_cell_formula_units_Z   2
loop_
 _symmetry_equiv_pos_site_id
 _symmetry_equiv_pos_as_xyz
  1  'x, y, z'
loop_
 _atom_site_type_symbol
 _atom_site_label
 _atom_site_symmetry_multiplicity
 _atom_site_fract_x
 _atom_site_fract_y
 _atom_site_fract_z
 _atom_site_occupancy
  Te  Te0  1  0.86444300  0.75000000  0.61444300  1
  Te  Te1  1  0.13555700  0.25000000  0.38555700  1
  C  C0  1  0.82974200  0.69044000  0.25119600  1
  C  C1  1  0.56075500  0.80956000  0.63930300  1
  C  C2  1  0.17025800  0.30956000  0.74880400  1
  C  C3  1  0.43924400  0.19044000  0.36069700  1
  S  S0  1  0.60788200  0.83774600  0.30820500  1
  S  S1  1  0.47046000  0.66225400  0.27013700  1
  S  S2  1  0.39211800  0.16225400  0.69179500  1
  S  S3  1  0.52954000  0.33774600  0.72986300  1
  N  N0  1  0.75891100  0.76058600  0.14672100  1
  N  N1  1  0.38613400  0.73941400  0.49832500  1
  N  N2  1  0.24108900  0.23941400  0.85327900  1
  N  N3  1  0.61386600  0.26058600  0.50167500  1
  N  N4  1  0.88839800  0.62226700  0.36152000  1
  N  N5  1  0.73925200  0.87773300  0.76613000  1
  N  N6  1  0.11160200  0.37773300  0.63848000  1
  N  N7  1  0.26074800  0.12226700  0.23387000  1
  Cl  Cl0  1  0.21118900  0.85484800  0.80210700  1
  Cl  Cl1  1  0.94725900  0.64515200  0.85634000  1
  Cl  Cl2  1  0.78881100  0.14515200  0.19789300  1
  Cl  Cl3  1  0.05274100  0.35484800  0.14366000  1
loop_
_geom_bond_atom_site_label_1
_geom_bond_atom_site_label_2
_geom_bond_distance
_geom_bond_site_symmetry_2
C0 N0 1.231680 1_555
C0 N4 1.246557 1_555
C1 N1 1.231681 1_555
C1 N5 1.246558 1_555
C2 N2 1.231680 1_555
C2 N6 1.246557 1_555
C3 N3 1.231686 1_555
C3 N7 1.246551 1_555
S0 S1 1.937749 1_555
S0 Te0 2.765500 1_555
S1 Te0 2.765492 1_555
S2 S3 1.937749 1_555
S2 Te1 2.765500 1_555
S3 Te1 2.765492 1_555
N0 S0 2.538398 1_555
N1 S1 2.538404 1_555
N2 S2 2.538398 1_555
N3 S3 2.538404 1_555
N4 Te0 2.419393 1_555
N5 Te0 2.419395 1_555
N6 Te1 2.419393 1_555
N7 Te1 2.419395 1_555
Cl0 Te0 2.429893 1_455
Cl1 Te0 2.429885 1_555
Cl2 Te1 2.429893 1_655
Cl3 Te1 2.429885 1_555
