# generated using pymatgen
data_BaMoP2
_symmetry_space_group_name_H-M   'P 1'
_cell_length_a   3.62060037
_cell_length_b   3.62060037
_cell_length_c   15.27297200
_cell_angle_alpha   90.00000000
_cell_angle_beta   90.00000000
_cell_angle_gamma   120.00000669
_symmetry_Int_Tables_number   1
_chemical_formula_structural   BaMoP2
_chemical_formula_sum   'Ba2 Mo2 P4'
_cell_volume   173.38652397
_cell_formula_units_Z   2
loop_
 _symmetry_equiv_pos_site_id
 _symmetry_equiv_pos_as_xyz
  1  'x, y, z'
loop_
 _atom_site_type_symbol
 _atom_site_label
 _atom_site_symmetry_multiplicity
 _atom_site_fract_x
 _atom_site_fract_y
 _atom_site_fract_z
 _atom_site_occupancy
  Ba  Ba0  1  0.00000000  0.00000000  0.50000000  1
  Ba  Ba1  1  0.00000000  0.00000000  0.00000000  1
  Mo  Mo0  1  0.00000000  0.00000000  0.25000000  1
  Mo  Mo1  1  0.00000000  0.00000000  0.75000000  1
  P  P0  1  0.33333300  0.66666700  0.34206000  1
  P  P1  1  0.66666700  0.33333300  0.84206000  1
  P  P2  1  0.33333300  0.66666700  0.15794000  1
  P  P3  1  0.66666700  0.33333300  0.65794000  1
loop_
_geom_bond_atom_site_label_1
_geom_bond_atom_site_label_2
_geom_bond_distance
_geom_bond_site_symmetry_2
Ba0 P0 3.191919 1_545
Ba0 P3 3.191919 1_455
Ba0 P0 3.191921 1_445
Ba0 P0 3.191921 1_555
Ba0 P3 3.191921 1_555
Ba0 P3 3.191921 1_445
Ba1 P1 3.191919 1_454
Ba1 P2 3.191919 1_545
Ba1 P1 3.191921 1_444
Ba1 P1 3.191921 1_554
Ba1 P2 3.191921 1_555
Ba1 P2 3.191921 1_445
Mo0 P2 2.519225 1_545
Mo0 P0 2.519225 1_545
Mo0 P2 2.519227 1_555
Mo0 P2 2.519227 1_445
Mo0 P0 2.519227 1_445
Mo0 P0 2.519227 1_555
Mo1 P3 2.519225 1_455
Mo1 P1 2.519225 1_455
Mo1 P3 2.519227 1_555
Mo1 P3 2.519227 1_445
Mo1 P1 2.519227 1_445
Mo1 P1 2.519227 1_555
