# generated using pymatgen
data_Ba2Gd(CuO2)4
_symmetry_space_group_name_H-M   'P 1'
_cell_length_a   13.83769943
_cell_length_b   13.83769943
_cell_length_c   3.89956500
_cell_angle_alpha   90.00000000
_cell_angle_beta   90.00000000
_cell_angle_gamma   163.73601607
_symmetry_Int_Tables_number   1
_chemical_formula_structural   Ba2Gd(CuO2)4
_chemical_formula_sum   'Ba2 Gd1 Cu4 O8'
_cell_volume   209.12222175
_cell_formula_units_Z   1
loop_
 _symmetry_equiv_pos_site_id
 _symmetry_equiv_pos_as_xyz
  1  'x, y, z'
loop_
 _atom_site_type_symbol
 _atom_site_label
 _atom_site_symmetry_multiplicity
 _atom_site_fract_x
 _atom_site_fract_y
 _atom_site_fract_z
 _atom_site_occupancy
  Ba  Ba0  1  0.63536300  0.36463700  0.50000000  1
  Ba  Ba1  1  0.36463700  0.63536300  0.50000000  1
  Gd  Gd0  1  0.50000000  0.50000000  0.50000000  1
  Cu  Cu0  1  0.93840700  0.06159300  0.00000000  1
  Cu  Cu1  1  0.06159300  0.93840700  0.00000000  1
  Cu  Cu2  1  0.78741400  0.21258600  0.00000000  1
  Cu  Cu3  1  0.21258600  0.78741400  0.00000000  1
  O  O0  1  0.85475200  0.14524800  0.00000000  1
  O  O1  1  0.14524800  0.85475200  0.00000000  1
  O  O2  1  0.55258800  0.44741200  0.00000000  1
  O  O3  1  0.44741200  0.55258800  0.00000000  1
  O  O4  1  0.71811900  0.28188100  0.00000000  1
  O  O5  1  0.28188100  0.71811900  0.00000000  1
  O  O6  1  0.94737300  0.05262700  0.50000000  1
  O  O7  1  0.05262700  0.94737300  0.50000000  1
loop_
_geom_bond_atom_site_label_1
_geom_bond_atom_site_label_2
_geom_bond_distance
_geom_bond_site_symmetry_2
Ba0 O1 2.776041 1_656
Ba0 O1 2.776041 1_655
Ba0 O1 2.776041 1_545
Ba0 O1 2.776041 1_546
Ba0 O4 2.990350 1_555
Ba0 O4 2.990350 1_556
Ba0 O2 2.990744 1_555
Ba0 O2 2.990744 1_556
Ba0 O7 2.994906 1_655
Ba0 O7 2.994906 1_545
Ba1 O0 2.776041 1_455
Ba1 O0 2.776041 1_566
Ba1 O0 2.776041 1_456
Ba1 O0 2.776041 1_565
Ba1 O5 2.990350 1_555
Ba1 O5 2.990350 1_556
Ba1 O3 2.990744 1_556
Ba1 O3 2.990744 1_555
Ba1 O6 2.994906 1_455
Ba1 O6 2.994906 1_565
Gd0 O3 2.424343 1_556
Gd0 O3 2.424343 1_555
Gd0 O2 2.424343 1_555
Gd0 O2 2.424343 1_556
Gd0 O6 2.431106 1_455
Gd0 O7 2.431106 1_655
Gd0 O7 2.431106 1_545
Gd0 O6 2.431106 1_565
Cu0 O6 1.965195 1_554
Cu0 O6 1.965195 1_555
Cu0 O3 1.972885 1_655
Cu0 O3 1.972885 1_545
Cu0 O0 2.291906 1_555
Cu1 O7 1.965195 1_555
Cu1 O7 1.965195 1_554
Cu1 O2 1.972885 1_565
Cu1 O2 1.972885 1_455
Cu1 O1 2.291906 1_555
Cu2 O0 1.844867 1_555
Cu2 O4 1.898483 1_555
Cu2 O5 1.963259 1_545
Cu2 O5 1.963259 1_655
Cu3 O1 1.844867 1_555
Cu3 O5 1.898483 1_555
Cu3 O4 1.963259 1_455
Cu3 O4 1.963259 1_565
