# generated using pymatgen
data_NaCdCuSe2
_symmetry_space_group_name_H-M   'P 1'
_cell_length_a   3.74436800
_cell_length_b   8.03043600
_cell_length_c   17.59895500
_cell_angle_alpha   90.00000000
_cell_angle_beta   90.00000000
_cell_angle_gamma   90.00000000
_symmetry_Int_Tables_number   1
_chemical_formula_structural   NaCdCuSe2
_chemical_formula_sum   'Na4 Cd4 Cu4 Se8'
_cell_volume   529.18135148
_cell_formula_units_Z   4
loop_
 _symmetry_equiv_pos_site_id
 _symmetry_equiv_pos_as_xyz
  1  'x, y, z'
loop_
 _atom_site_type_symbol
 _atom_site_label
 _atom_site_symmetry_multiplicity
 _atom_site_fract_x
 _atom_site_fract_y
 _atom_site_fract_z
 _atom_site_occupancy
  Na  Na0  1  0.25000000  0.14422000  0.92418700  1
  Na  Na1  1  0.25000000  0.64422000  0.57581300  1
  Na  Na2  1  0.75000000  0.85578000  0.07581300  1
  Na  Na3  1  0.75000000  0.35578000  0.42418700  1
  Cd  Cd0  1  0.25000000  0.11790000  0.24247700  1
  Cd  Cd1  1  0.25000000  0.61790000  0.25752300  1
  Cd  Cd2  1  0.75000000  0.88210000  0.75752300  1
  Cd  Cd3  1  0.75000000  0.38210000  0.74247700  1
  Cu  Cu0  1  0.25000000  0.63235800  0.89273000  1
  Cu  Cu1  1  0.25000000  0.13235800  0.60727000  1
  Cu  Cu2  1  0.75000000  0.36764200  0.10727000  1
  Cu  Cu3  1  0.75000000  0.86764200  0.39273000  1
  Se  Se0  1  0.25000000  0.15221400  0.09937900  1
  Se  Se1  1  0.25000000  0.65221400  0.40062100  1
  Se  Se2  1  0.75000000  0.84778600  0.90062100  1
  Se  Se3  1  0.75000000  0.34778600  0.59937900  1
  Se  Se4  1  0.25000000  0.57730900  0.11568400  1
  Se  Se5  1  0.25000000  0.07730900  0.38431600  1
  Se  Se6  1  0.75000000  0.42269100  0.88431600  1
  Se  Se7  1  0.75000000  0.92269100  0.61568400  1
loop_
_geom_bond_atom_site_label_1
_geom_bond_atom_site_label_2
_geom_bond_distance
_geom_bond_site_symmetry_2
Na0 Se6 2.999704 1_455
Na0 Se6 2.999704 1_555
Na0 Se2 3.056768 1_445
Na0 Se2 3.056768 1_545
Na0 Se0 3.083864 1_556
Na1 Se7 2.999704 1_555
Na1 Se7 2.999704 1_455
Na1 Se3 3.056768 1_555
Na1 Se3 3.056768 1_455
Na1 Se1 3.083864 1_555
Na2 Se4 2.999704 1_555
Na2 Se4 2.999704 1_655
Na2 Se0 3.056768 1_665
Na2 Se0 3.056768 1_565
Na2 Se2 3.083864 1_554
Na3 Se5 2.999704 1_555
Na3 Se5 2.999704 1_655
Na3 Se1 3.056768 1_555
Na3 Se1 3.056768 1_655
Na3 Se3 3.083864 1_555
Cd0 Se5 2.517411 1_555
Cd0 Se0 2.533406 1_555
Cd1 Se4 2.517411 1_555
Cd1 Se1 2.533406 1_555
Cd2 Se7 2.517411 1_555
Cd2 Se2 2.533406 1_555
Cd3 Se6 2.517411 1_555
Cd3 Se3 2.533406 1_555
Cu0 Se6 2.522282 1_555
Cu0 Se6 2.522282 1_455
Cu0 Se2 2.552879 1_555
Cu0 Se2 2.552879 1_455
Cu1 Se7 2.522282 1_545
Cu1 Se7 2.522282 1_445
Cu1 Se3 2.552879 1_555
Cu1 Se3 2.552879 1_455
Cu2 Se4 2.522282 1_655
Cu2 Se4 2.522282 1_555
Cu2 Se0 2.552879 1_655
Cu2 Se0 2.552879 1_555
Cu3 Se5 2.522282 1_665
Cu3 Se5 2.522282 1_565
Cu3 Se1 2.552879 1_555
Cu3 Se1 2.552879 1_655
