# generated using pymatgen
data_U2Cu(PO10)2
_symmetry_space_group_name_H-M   'P 1'
_cell_length_a   7.01066200
_cell_length_b   7.01066200
_cell_length_c   18.05232500
_cell_angle_alpha   90.00000000
_cell_angle_beta   90.00000000
_cell_angle_gamma   90.00000000
_symmetry_Int_Tables_number   1
_chemical_formula_structural   U2Cu(PO10)2
_chemical_formula_sum   'U4 Cu2 P4 O40'
_cell_volume   887.26061160
_cell_formula_units_Z   2
loop_
 _symmetry_equiv_pos_site_id
 _symmetry_equiv_pos_as_xyz
  1  'x, y, z'
loop_
 _atom_site_type_symbol
 _atom_site_label
 _atom_site_symmetry_multiplicity
 _atom_site_fract_x
 _atom_site_fract_y
 _atom_site_fract_z
 _atom_site_occupancy
  U  U0  1  0.75000000  0.75000000  0.55435700  1
  U  U1  1  0.25000000  0.25000000  0.44564300  1
  U  U2  1  0.75000000  0.75000000  0.05583000  1
  U  U3  1  0.25000000  0.25000000  0.94417000  1
  Cu  Cu0  1  0.75000000  0.75000000  0.31146500  1
  Cu  Cu1  1  0.25000000  0.25000000  0.68853500  1
  P  P0  1  0.75000000  0.25000000  0.00000000  1
  P  P1  1  0.25000000  0.75000000  0.00000000  1
  P  P2  1  0.75000000  0.25000000  0.50000000  1
  P  P3  1  0.25000000  0.75000000  0.50000000  1
  O  O0  1  0.75000000  0.75000000  0.65480300  1
  O  O1  1  0.25000000  0.25000000  0.34519700  1
  O  O2  1  0.75000000  0.75000000  0.45284200  1
  O  O3  1  0.25000000  0.25000000  0.54715800  1
  O  O4  1  0.75000000  0.75000000  0.95570400  1
  O  O5  1  0.25000000  0.25000000  0.04429600  1
  O  O6  1  0.75000000  0.75000000  0.15708900  1
  O  O7  1  0.25000000  0.25000000  0.84291100  1
  O  O8  1  0.57274300  0.25000000  0.94889400  1
  O  O9  1  0.92725700  0.25000000  0.94889400  1
  O  O10  1  0.25000000  0.57274300  0.94889400  1
  O  O11  1  0.25000000  0.92725700  0.94889400  1
  O  O12  1  0.42725700  0.75000000  0.05110600  1
  O  O13  1  0.07274300  0.75000000  0.05110600  1
  O  O14  1  0.75000000  0.42725700  0.05110600  1
  O  O15  1  0.75000000  0.07274300  0.05110600  1
  O  O16  1  0.57157100  0.25000000  0.44973400  1
  O  O17  1  0.92842900  0.25000000  0.44973400  1
  O  O18  1  0.25000000  0.57157100  0.44973400  1
  O  O19  1  0.25000000  0.92842900  0.44973400  1
  O  O20  1  0.42842900  0.75000000  0.55026600  1
  O  O21  1  0.07157100  0.75000000  0.55026600  1
  O  O22  1  0.75000000  0.42842900  0.55026600  1
  O  O23  1  0.75000000  0.07157100  0.55026600  1
  O  O24  1  0.85321900  0.85321900  0.81590100  1
  O  O25  1  0.64678100  0.85321900  0.81590100  1
  O  O26  1  0.85321900  0.64678100  0.81590100  1
  O  O27  1  0.64678100  0.64678100  0.81590100  1
  O  O28  1  0.14678100  0.14678100  0.18409900  1
  O  O29  1  0.35321900  0.14678100  0.18409900  1
  O  O30  1  0.14678100  0.35321900  0.18409900  1
  O  O31  1  0.35321900  0.35321900  0.18409900  1
  O  O32  1  0.07158800  0.07158800  0.69492400  1
  O  O33  1  0.42841200  0.07158800  0.69492400  1
  O  O34  1  0.07158800  0.42841200  0.69492400  1
  O  O35  1  0.42841200  0.42841200  0.69492400  1
  O  O36  1  0.92841200  0.92841200  0.30507600  1
  O  O37  1  0.57158800  0.92841200  0.30507600  1
  O  O38  1  0.92841200  0.57158800  0.30507600  1
  O  O39  1  0.57158800  0.57158800  0.30507600  1
loop_
_geom_bond_atom_site_label_1
_geom_bond_atom_site_label_2
_geom_bond_distance
_geom_bond_site_symmetry_2
Cu0 O36 1.772635 1_555
Cu0 O37 1.772635 1_555
Cu0 O38 1.772635 1_555
Cu0 O39 1.772635 1_555
Cu1 O35 1.772635 1_555
Cu1 O34 1.772635 1_555
Cu1 O33 1.772635 1_555
Cu1 O32 1.772635 1_555
O0 U0 1.813284 1_555
O1 U1 1.813284 1_555
O2 U0 1.832582 1_555
O3 U1 1.832582 1_555
O4 U2 1.807507 1_556
O5 U3 1.807507 1_554
O6 U2 1.827960 1_555
O7 U3 1.827960 1_555
O8 P0 1.547719 1_556
O8 U3 2.264249 1_555
O9 P0 1.547719 1_556
O9 U3 2.264249 1_655
O10 P1 1.547719 1_556
O10 U3 2.264249 1_555
O11 P1 1.547719 1_556
O11 U3 2.264249 1_565
O12 P1 1.547719 1_555
O12 U2 2.264249 1_555
O13 P1 1.547719 1_555
O13 U2 2.264249 1_455
O14 P0 1.547719 1_555
O14 U2 2.264249 1_555
O15 P0 1.547719 1_555
O15 U2 2.264249 1_545
O16 P2 1.545371 1_555
O16 U1 2.255635 1_555
O17 P2 1.545371 1_555
O17 U1 2.255635 1_655
O18 P3 1.545371 1_555
O18 U1 2.255635 1_555
O19 P3 1.545371 1_555
O19 U1 2.255635 1_565
O20 P3 1.545371 1_555
O20 U0 2.255635 1_555
O21 P3 1.545371 1_555
O21 U0 2.255635 1_455
O22 P2 1.545371 1_555
O22 U0 2.255635 1_555
O23 P2 1.545371 1_555
O23 U0 2.255635 1_545
O24 O25 1.447267 1_555
O24 O26 1.447267 1_555
O25 O27 1.447267 1_555
O26 O27 1.447267 1_555
O28 O30 1.447267 1_555
O28 O29 1.447267 1_555
O29 O31 1.447267 1_555
O30 O31 1.447267 1_555
