# generated using pymatgen
data_Sr2RhO4
_symmetry_space_group_name_H-M   'P 1'
_cell_length_a   3.88255737
_cell_length_b   3.88254966
_cell_length_c   6.89187599
_cell_angle_alpha   106.36024421
_cell_angle_beta   106.36027765
_cell_angle_gamma   90.00000000
_symmetry_Int_Tables_number   1
_chemical_formula_structural   Sr2RhO4
_chemical_formula_sum   'Sr2 Rh1 O4'
_cell_volume   95.29107942
_cell_formula_units_Z   1
loop_
 _symmetry_equiv_pos_site_id
 _symmetry_equiv_pos_as_xyz
  1  'x, y, z'
loop_
 _atom_site_type_symbol
 _atom_site_label
 _atom_site_symmetry_multiplicity
 _atom_site_fract_x
 _atom_site_fract_y
 _atom_site_fract_z
 _atom_site_occupancy
  Sr  Sr0  1  0.64558880  0.64558880  0.29117960  1
  Sr  Sr1  1  0.35441120  0.35441120  0.70882040  1
  Rh  Rh0  1  0.00000000  0.00000000  0.00000000  1
  O  O0  1  0.83819693  0.83819693  0.67639286  1
  O  O1  1  0.16180307  0.16180307  0.32360714  1
  O  O2  1  0.00000000  0.50000000  0.00000000  1
  O  O3  1  0.50000000  0.00000000  0.00000000  1
loop_
_geom_bond_atom_site_label_1
_geom_bond_atom_site_label_2
_geom_bond_distance
_geom_bond_site_symmetry_2
O0 Rh0 2.045669 1_666
O0 Sr0 2.435110 1_555
O0 Sr1 2.753019 1_555
O0 Sr1 2.753022 1_655
O0 Sr1 2.753022 1_565
O0 Sr1 2.753025 1_665
O1 Rh0 2.045669 1_555
O1 Sr1 2.435110 1_555
O1 Sr0 2.753019 1_555
O1 Sr0 2.753022 1_455
O1 Sr0 2.753022 1_545
O1 Sr0 2.753025 1_445
O2 Rh0 1.941275 1_555
O2 Rh0 1.941275 1_565
O2 Sr0 2.675192 1_555
O2 Sr1 2.675192 1_454
O2 Sr1 2.675197 1_554
O2 Sr0 2.675197 1_455
O3 Rh0 1.941279 1_655
O3 Rh0 1.941279 1_555
O3 Sr0 2.675189 1_555
O3 Sr1 2.675189 1_544
O3 Sr1 2.675194 1_554
O3 Sr0 2.675194 1_545
