# generated using pymatgen
data_YHgB
_symmetry_space_group_name_H-M   'P 1'
_cell_length_a   4.34062447
_cell_length_b   4.34062447
_cell_length_c   4.34062447
_cell_angle_alpha   60.00000000
_cell_angle_beta   60.00000000
_cell_angle_gamma   60.00000000
_symmetry_Int_Tables_number   1
_chemical_formula_structural   YHgB
_chemical_formula_sum   'Y1 Hg1 B1'
_cell_volume   57.82846260
_cell_formula_units_Z   1
loop_
 _symmetry_equiv_pos_site_id
 _symmetry_equiv_pos_as_xyz
  1  'x, y, z'
loop_
 _atom_site_type_symbol
 _atom_site_label
 _atom_site_symmetry_multiplicity
 _atom_site_fract_x
 _atom_site_fract_y
 _atom_site_fract_z
 _atom_site_occupancy
  Y  Y0  1  0.50000000  0.50000000  0.50000000  1
  Hg  Hg0  1  0.00000000  0.00000000  0.00000000  1
  B  B0  1  0.75000000  0.75000000  0.75000000  1
loop_
_geom_bond_atom_site_label_1
_geom_bond_atom_site_label_2
_geom_bond_distance
_geom_bond_site_symmetry_2
Hg0 Y0 3.069285 1_545
Hg0 Y0 3.069285 1_554
Hg0 Y0 3.069285 1_455
Hg0 Y0 3.069285 1_454
Hg0 Y0 3.069285 1_544
Hg0 Y0 3.069285 1_445
B0 Y0 2.658079 1_565
B0 Hg0 2.658079 1_566
B0 Hg0 2.658079 1_656
B0 Y0 2.658079 1_655
B0 Hg0 2.658079 1_665
B0 Y0 2.658079 1_556
B0 Hg0 2.658079 1_666
B0 Y0 2.658079 1_555
