# generated using pymatgen
data_NaPrCr4O12
_symmetry_space_group_name_H-M   'P 1'
_cell_length_a   5.33643417
_cell_length_b   5.33643417
_cell_length_c   7.57129335
_cell_angle_alpha   90.00000000
_cell_angle_beta   90.00000000
_cell_angle_gamma   90.00000000
_symmetry_Int_Tables_number   1
_chemical_formula_structural   NaPrCr4O12
_chemical_formula_sum   'Na1 Pr1 Cr4 O12'
_cell_volume   215.61173087
_cell_formula_units_Z   1
loop_
 _symmetry_equiv_pos_site_id
 _symmetry_equiv_pos_as_xyz
  1  'x, y, z'
loop_
 _atom_site_type_symbol
 _atom_site_label
 _atom_site_symmetry_multiplicity
 _atom_site_fract_x
 _atom_site_fract_y
 _atom_site_fract_z
 _atom_site_occupancy
  Na  Na0  1  0.50000000  0.50000000  0.50000000  1
  Pr  Pr0  1  -0.00000000  0.00000000  -0.00000000  1
  Cr  Cr0  1  -0.00000000  0.50000000  0.74097853  1
  Cr  Cr1  1  -0.00000000  0.50000000  0.25902147  1
  Cr  Cr2  1  0.50000000  0.00000000  0.74097853  1
  Cr  Cr3  1  0.50000000  0.00000000  0.25902147  1
  O  O0  1  0.24576746  0.24576746  0.75466612  1
  O  O1  1  0.24576746  0.24576746  0.24533388  1
  O  O2  1  0.75423254  0.75423254  0.24533388  1
  O  O3  1  0.75423254  0.75423254  0.75466612  1
  O  O4  1  0.75423254  0.24576746  0.75466612  1
  O  O5  1  0.75423254  0.24576746  0.24533388  1
  O  O6  1  0.24576746  0.75423254  0.24533388  1
  O  O7  1  0.24576746  0.75423254  0.75466612  1
  O  O8  1  -0.00000000  0.50000000  0.50000000  1
  O  O9  1  -0.00000000  0.50000000  -0.00000000  1
  O  O10  1  0.50000000  0.00000000  0.50000000  1
  O  O11  1  0.50000000  0.00000000  -0.00000000  1
loop_
_geom_bond_atom_site_label_1
_geom_bond_atom_site_label_2
_geom_bond_distance
_geom_bond_site_symmetry_2
Na0 O8 2.668217 1_555
Na0 O8 2.668217 1_655
Na0 O10 2.668217 1_555
Na0 O10 2.668217 1_565
Na0 O5 2.720113 1_555
Na0 O2 2.720113 1_555
Na0 O6 2.720113 1_555
Na0 O4 2.720113 1_555
Na0 O3 2.720113 1_555
Na0 O1 2.720113 1_555
Na0 O7 2.720113 1_555
Na0 O0 2.720113 1_555
Cr0 O8 1.824519 1_555
Cr0 O0 1.889828 1_555
Cr0 O3 1.889828 1_455
Cr0 O4 1.889828 1_455
Cr0 O7 1.889828 1_555
Cr0 O9 1.961128 1_556
Cr1 O8 1.824519 1_555
Cr1 O1 1.889828 1_555
Cr1 O5 1.889828 1_455
Cr1 O2 1.889828 1_455
Cr1 O6 1.889828 1_555
Cr1 O9 1.961128 1_555
Cr2 O10 1.824519 1_555
Cr2 O7 1.889828 1_545
Cr2 O0 1.889828 1_555
Cr2 O3 1.889828 1_545
Cr2 O4 1.889828 1_555
Cr2 O11 1.961128 1_556
Cr3 O10 1.824519 1_555
Cr3 O6 1.889828 1_545
Cr3 O1 1.889828 1_555
Cr3 O2 1.889828 1_545
Cr3 O5 1.889828 1_555
Cr3 O11 1.961128 1_555
O0 Pr0 2.624970 1_556
O1 Pr0 2.624970 1_555
O2 Pr0 2.624970 1_665
O3 Pr0 2.624970 1_666
O4 Pr0 2.624970 1_656
O5 Pr0 2.624970 1_655
O6 Pr0 2.624970 1_565
O7 Pr0 2.624970 1_566
O9 Pr0 2.668217 1_555
O9 Pr0 2.668217 1_565
O11 Pr0 2.668217 1_555
O11 Pr0 2.668217 1_655
