# generated using pymatgen
data_Ti5NiSn3
_symmetry_space_group_name_H-M   'P 1'
_cell_length_a   8.20282093
_cell_length_b   8.20282093
_cell_length_c   5.51635300
_cell_angle_alpha   90.00000000
_cell_angle_beta   90.00000000
_cell_angle_gamma   119.99999138
_symmetry_Int_Tables_number   1
_chemical_formula_structural   Ti5NiSn3
_chemical_formula_sum   'Ti10 Ni2 Sn6'
_cell_volume   321.44685486
_cell_formula_units_Z   2
loop_
 _symmetry_equiv_pos_site_id
 _symmetry_equiv_pos_as_xyz
  1  'x, y, z'
loop_
 _atom_site_type_symbol
 _atom_site_label
 _atom_site_symmetry_multiplicity
 _atom_site_fract_x
 _atom_site_fract_y
 _atom_site_fract_z
 _atom_site_occupancy
  Ti  Ti0  1  0.25467400  0.00000000  0.75000000  1
  Ti  Ti1  1  0.74532600  0.00000000  0.25000000  1
  Ti  Ti2  1  0.00000000  0.25467400  0.75000000  1
  Ti  Ti3  1  0.00000000  0.74532600  0.25000000  1
  Ti  Ti4  1  0.74532600  0.74532600  0.75000000  1
  Ti  Ti5  1  0.25467400  0.25467400  0.25000000  1
  Ti  Ti6  1  0.33333300  0.66666700  0.50000000  1
  Ti  Ti7  1  0.66666700  0.33333300  0.50000000  1
  Ti  Ti8  1  0.66666700  0.33333300  0.00000000  1
  Ti  Ti9  1  0.33333300  0.66666700  0.00000000  1
  Ni  Ni0  1  0.00000000  0.00000000  0.50000000  1
  Ni  Ni1  1  0.00000000  0.00000000  0.00000000  1
  Sn  Sn0  1  0.60980300  0.00000000  0.75000000  1
  Sn  Sn1  1  0.39019700  0.00000000  0.25000000  1
  Sn  Sn2  1  0.00000000  0.60980300  0.75000000  1
  Sn  Sn3  1  0.00000000  0.39019700  0.25000000  1
  Sn  Sn4  1  0.39019700  0.39019700  0.75000000  1
  Sn  Sn5  1  0.60980300  0.60980300  0.25000000  1
loop_
_geom_bond_atom_site_label_1
_geom_bond_atom_site_label_2
_geom_bond_distance
_geom_bond_site_symmetry_2
Ti6 Ti9 2.758176 1_555
Ti6 Ti9 2.758176 1_556
Ti7 Ti8 2.758176 1_555
Ti7 Ti8 2.758176 1_556
Ni0 Ti3 2.503197 1_545
Ni0 Ti1 2.503197 1_455
Ni0 Ti2 2.503197 1_555
Ni0 Ti0 2.503197 1_555
Ni0 Ti4 2.503197 1_445
Ni0 Ti5 2.503197 1_555
Ni1 Ti3 2.503197 1_545
Ni1 Ti1 2.503197 1_455
Ni1 Ti0 2.503197 1_554
Ni1 Ti2 2.503197 1_554
Ni1 Ti4 2.503197 1_444
Ni1 Ti5 2.503197 1_555
Sn0 Ti4 2.814650 1_545
Sn0 Ti2 2.814650 1_655
Sn0 Ti8 2.884494 1_556
Sn0 Ti7 2.884494 1_555
Sn0 Ti6 2.884497 1_545
Sn0 Ti9 2.884497 1_546
Sn0 Ti0 2.913060 1_555
Sn0 Ti1 2.973777 1_555
Sn0 Ti1 2.973777 1_556
Sn1 Ti5 2.814650 1_555
Sn1 Ti3 2.814650 1_545
Sn1 Ti6 2.884494 1_545
Sn1 Ti9 2.884494 1_545
Sn1 Ti7 2.884497 1_555
Sn1 Ti8 2.884497 1_555
Sn1 Ti1 2.913060 1_555
Sn1 Ti0 2.973777 1_555
Sn1 Ti0 2.973777 1_554
Sn2 Ti4 2.814650 1_455
Sn2 Ti0 2.814650 1_565
Sn2 Ti9 2.884494 1_556
Sn2 Ti6 2.884494 1_555
Sn2 Ti8 2.884497 1_456
Sn2 Ti7 2.884497 1_455
Sn2 Ti2 2.913060 1_555
Sn2 Ti3 2.973777 1_556
Sn2 Ti3 2.973777 1_555
Sn3 Ti5 2.814650 1_555
Sn3 Ti1 2.814650 1_455
Sn3 Ti8 2.884494 1_455
Sn3 Ti7 2.884494 1_455
Sn3 Ti6 2.884497 1_555
Sn3 Ti9 2.884497 1_555
Sn3 Ti3 2.913060 1_555
Sn3 Ti2 2.973777 1_554
Sn3 Ti2 2.973777 1_555
Sn4 Ti2 2.814650 1_555
Sn4 Ti0 2.814650 1_555
Sn4 Ti7 2.884501 1_555
Sn4 Ti8 2.884501 1_556
Sn4 Ti9 2.884501 1_556
Sn4 Ti6 2.884501 1_555
Sn4 Ti4 2.913060 1_555
Sn4 Ti5 2.973777 1_555
Sn4 Ti5 2.973777 1_556
Sn5 Ti1 2.814650 1_565
Sn5 Ti3 2.814650 1_655
Sn5 Ti6 2.884501 1_555
Sn5 Ti9 2.884501 1_555
Sn5 Ti8 2.884501 1_555
Sn5 Ti7 2.884501 1_555
Sn5 Ti5 2.913060 1_555
Sn5 Ti4 2.973777 1_555
Sn5 Ti4 2.973777 1_554
