# generated using pymatgen
data_TmNiGe3
_symmetry_space_group_name_H-M   'P 1'
_cell_length_a   10.88663286
_cell_length_b   10.88663286
_cell_length_c   4.04046509
_cell_angle_alpha   90.00000000
_cell_angle_beta   90.00000000
_cell_angle_gamma   158.63917934
_symmetry_Int_Tables_number   1
_chemical_formula_structural   TmNiGe3
_chemical_formula_sum   'Tm2 Ni2 Ge6'
_cell_volume   174.42398004
_cell_formula_units_Z   2
loop_
 _symmetry_equiv_pos_site_id
 _symmetry_equiv_pos_as_xyz
  1  'x, y, z'
loop_
 _atom_site_type_symbol
 _atom_site_label
 _atom_site_symmetry_multiplicity
 _atom_site_fract_x
 _atom_site_fract_y
 _atom_site_fract_z
 _atom_site_occupancy
  Tm  Tm0  1  0.16842993  0.83157007  0.50000000  1
  Tm  Tm1  1  0.83157007  0.16842993  0.50000000  1
  Ni  Ni0  1  0.38898707  0.61101293  -0.00000000  1
  Ni  Ni1  1  0.61101293  0.38898707  -0.00000000  1
  Ge  Ge0  1  0.28354714  0.71645286  0.00000000  1
  Ge  Ge1  1  0.71645286  0.28354714  -0.00000000  1
  Ge  Ge2  1  0.44249327  0.55750673  0.50000000  1
  Ge  Ge3  1  0.55750673  0.44249327  0.50000000  1
  Ge  Ge4  1  0.05763584  0.94236416  0.00000000  1
  Ge  Ge5  1  0.94236416  0.05763584  -0.00000000  1
loop_
_geom_bond_atom_site_label_1
_geom_bond_atom_site_label_2
_geom_bond_distance
_geom_bond_site_symmetry_2
Ni0 Tm1 3.108274 1_454
Ni0 Tm1 3.108274 1_565
Ni0 Tm1 3.108274 1_455
Ni0 Tm1 3.108274 1_564
Ni1 Tm0 3.108274 1_654
Ni1 Tm0 3.108274 1_655
Ni1 Tm0 3.108274 1_544
Ni1 Tm0 3.108274 1_545
Ge0 Ni0 2.256000 1_555
Ge0 Ge1 2.476213 1_455
Ge0 Ge1 2.476213 1_565
Ge0 Tm1 3.034455 1_455
Ge0 Tm1 3.034455 1_454
Ge0 Tm1 3.034455 1_565
Ge0 Tm1 3.034455 1_564
Ge0 Tm0 3.185590 1_555
Ge0 Tm0 3.185590 1_554
Ge1 Ni1 2.256000 1_555
Ge1 Tm0 3.034455 1_544
Ge1 Tm0 3.034455 1_545
Ge1 Tm0 3.034455 1_655
Ge1 Tm0 3.034455 1_654
Ge1 Tm1 3.185590 1_554
Ge1 Tm1 3.185590 1_555
Ge2 Ni0 2.322059 1_555
Ge2 Ni0 2.322059 1_556
Ge2 Ge3 2.460836 1_555
Ge2 Ge5 2.855200 1_455
Ge2 Ge5 2.855200 1_456
Ge2 Ge5 2.855200 1_565
Ge2 Ge5 2.855200 1_566
Ge2 Tm1 3.115039 1_455
Ge2 Tm1 3.115039 1_565
Ge3 Ni1 2.322059 1_556
Ge3 Ni1 2.322059 1_555
Ge3 Ge4 2.855200 1_545
Ge3 Ge4 2.855200 1_546
Ge3 Ge4 2.855200 1_655
Ge3 Ge4 2.855200 1_656
Ge3 Tm0 3.115039 1_545
Ge3 Tm0 3.115039 1_655
Ge4 Ni1 2.318430 1_565
Ge4 Ni1 2.318430 1_455
Ge4 Ge5 2.466361 1_465
Ge4 Tm0 3.114624 1_555
Ge4 Tm0 3.114624 1_554
Ge5 Ni0 2.318430 1_545
Ge5 Ni0 2.318430 1_655
Ge5 Tm1 3.114624 1_554
Ge5 Tm1 3.114624 1_555
