# generated using pymatgen
data_Ce2CdCu2
_symmetry_space_group_name_H-M   'P 1'
_cell_length_a   5.64858045
_cell_length_b   5.64858045
_cell_length_c   7.51493827
_cell_angle_alpha   77.13598013
_cell_angle_beta   77.13598013
_cell_angle_gamma   79.73213955
_symmetry_Int_Tables_number   1
_chemical_formula_structural   Ce2CdCu2
_chemical_formula_sum   'Ce4 Cd2 Cu4'
_cell_volume   225.79155485
_cell_formula_units_Z   2
loop_
 _symmetry_equiv_pos_site_id
 _symmetry_equiv_pos_as_xyz
  1  'x, y, z'
loop_
 _atom_site_type_symbol
 _atom_site_label
 _atom_site_symmetry_multiplicity
 _atom_site_fract_x
 _atom_site_fract_y
 _atom_site_fract_z
 _atom_site_occupancy
  Ce  Ce0  1  0.79920500  0.79920500  0.73962600  1
  Ce  Ce1  1  0.20079500  0.20079500  0.26037400  1
  Ce  Ce2  1  0.33234700  0.33234700  0.72709200  1
  Ce  Ce3  1  0.66765300  0.66765300  0.27290800  1
  Cd  Cd0  1  0.77558700  0.22441300  0.00000000  1
  Cd  Cd1  1  0.22441300  0.77558700  0.00000000  1
  Cu  Cu0  1  0.67343100  0.12551300  0.40259300  1
  Cu  Cu1  1  0.87448700  0.32656900  0.59740700  1
  Cu  Cu2  1  0.32656900  0.87448700  0.59740700  1
  Cu  Cu3  1  0.12551300  0.67343100  0.40259300  1
loop_
_geom_bond_atom_site_label_1
_geom_bond_atom_site_label_2
_geom_bond_distance
_geom_bond_site_symmetry_2
Ce0 Cu0 2.927919 1_565
Ce0 Cu3 2.927919 1_655
Ce0 Cu2 3.004709 1_655
Ce0 Cu1 3.004709 1_565
Ce0 Cu1 3.018928 1_555
Ce0 Cu2 3.018928 1_555
Ce1 Cu2 2.927919 1_545
Ce1 Cu1 2.927919 1_455
Ce1 Cu3 3.004709 1_545
Ce1 Cu0 3.004709 1_455
Ce1 Cu0 3.018928 1_555
Ce1 Cu3 3.018928 1_555
Ce2 Cu1 2.967519 1_455
Ce2 Cu2 2.967519 1_545
Ce2 Cu2 2.996381 1_555
Ce2 Cu1 2.996381 1_555
Ce2 Cu3 3.065576 1_555
Ce2 Cu0 3.065576 1_555
Ce3 Cu0 2.967519 1_565
Ce3 Cu3 2.967519 1_655
Ce3 Cu0 2.996381 1_555
Ce3 Cu3 2.996381 1_555
Ce3 Cu1 3.065576 1_555
Ce3 Cu2 3.065576 1_555
Cd0 Cu0 2.895418 1_555
Cd0 Cu1 2.895418 1_554
Cd0 Cd1 3.250140 1_645
Cd0 Ce0 3.387826 1_544
Cd0 Ce1 3.387826 1_655
Cd0 Ce1 3.405477 1_555
Cd0 Ce0 3.405477 1_554
Cd0 Ce3 3.423898 1_545
Cd0 Ce2 3.423898 1_654
Cd0 Ce3 3.468672 1_555
Cd0 Ce2 3.468672 1_554
Cd1 Cu3 2.895418 1_555
Cd1 Cu2 2.895418 1_554
Cd1 Ce0 3.387826 1_454
Cd1 Ce1 3.387826 1_565
Cd1 Ce1 3.405477 1_555
Cd1 Ce0 3.405477 1_554
Cd1 Ce3 3.423898 1_455
Cd1 Ce2 3.423898 1_564
Cd1 Ce2 3.468672 1_554
Cd1 Ce3 3.468672 1_555
Cu0 Cu1 2.581350 1_555
Cu0 Cu2 2.604131 1_545
Cu0 Cu3 3.273718 1_645
Cu1 Cu3 2.604131 1_655
Cu1 Cu2 3.273718 1_645
Cu2 Cu3 2.581350 1_555
