# generated using pymatgen
data_Na3Zn(BO2)5
_symmetry_space_group_name_H-M   'P 1'
_cell_length_a   7.98461800
_cell_length_b   12.38284900
_cell_length_c   18.24243300
_cell_angle_alpha   90.00000000
_cell_angle_beta   90.00000000
_cell_angle_gamma   90.00000000
_symmetry_Int_Tables_number   1
_chemical_formula_structural   Na3Zn(BO2)5
_chemical_formula_sum   'Na24 Zn8 B40 O80'
_cell_volume   1803.67165522
_cell_formula_units_Z   8
loop_
 _symmetry_equiv_pos_site_id
 _symmetry_equiv_pos_as_xyz
  1  'x, y, z'
loop_
 _atom_site_type_symbol
 _atom_site_label
 _atom_site_symmetry_multiplicity
 _atom_site_fract_x
 _atom_site_fract_y
 _atom_site_fract_z
 _atom_site_occupancy
  Na  Na0  1  0.70731900  0.57276800  0.42965200  1
  Na  Na1  1  0.20731900  0.92723200  0.57034800  1
  Na  Na2  1  0.29268100  0.07276800  0.07034800  1
  Na  Na3  1  0.79268100  0.42723200  0.92965200  1
  Na  Na4  1  0.29268100  0.42723200  0.57034800  1
  Na  Na5  1  0.79268100  0.07276800  0.42965200  1
  Na  Na6  1  0.70731900  0.92723200  0.92965200  1
  Na  Na7  1  0.20731900  0.57276800  0.07034800  1
  Na  Na8  1  0.33104400  0.08162200  0.42139300  1
  Na  Na9  1  0.83104400  0.41837800  0.57860700  1
  Na  Na10  1  0.66895600  0.58162200  0.07860700  1
  Na  Na11  1  0.16895600  0.91837800  0.92139300  1
  Na  Na12  1  0.66895600  0.91837800  0.57860700  1
  Na  Na13  1  0.16895600  0.58162200  0.42139300  1
  Na  Na14  1  0.33104400  0.41837800  0.92139300  1
  Na  Na15  1  0.83104400  0.08162200  0.07860700  1
  Na  Na16  1  0.31018200  0.34719400  0.24539800  1
  Na  Na17  1  0.81018200  0.15280600  0.75460200  1
  Na  Na18  1  0.68981800  0.84719400  0.25460200  1
  Na  Na19  1  0.18981800  0.65280600  0.74539800  1
  Na  Na20  1  0.68981800  0.65280600  0.75460200  1
  Na  Na21  1  0.18981800  0.84719400  0.24539800  1
  Na  Na22  1  0.31018200  0.15280600  0.74539800  1
  Na  Na23  1  0.81018200  0.34719400  0.25460200  1
  Zn  Zn0  1  0.57623200  0.32346900  0.40331800  1
  Zn  Zn1  1  0.07623200  0.17653100  0.59668200  1
  Zn  Zn2  1  0.42376800  0.82346900  0.09668200  1
  Zn  Zn3  1  0.92376800  0.67653100  0.90331800  1
  Zn  Zn4  1  0.42376800  0.67653100  0.59668200  1
  Zn  Zn5  1  0.92376800  0.82346900  0.40331800  1
  Zn  Zn6  1  0.57623200  0.17653100  0.90331800  1
  Zn  Zn7  1  0.07623200  0.32346900  0.09668200  1
  B  B0  1  0.92022800  0.34296000  0.42463600  1
  B  B1  1  0.42022800  0.15704000  0.57536400  1
  B  B2  1  0.07977200  0.84296000  0.07536400  1
  B  B3  1  0.57977200  0.65704000  0.92463600  1
  B  B4  1  0.07977200  0.65704000  0.57536400  1
  B  B5  1  0.57977200  0.84296000  0.42463600  1
  B  B6  1  0.92022800  0.15704000  0.92463600  1
  B  B7  1  0.42022800  0.34296000  0.07536400  1
  B  B8  1  0.22739400  0.32780800  0.42702800  1
  B  B9  1  0.72739400  0.17219200  0.57297200  1
  B  B10  1  0.77260600  0.82780800  0.07297200  1
  B  B11  1  0.27260600  0.67219200  0.92702800  1
  B  B12  1  0.77260600  0.67219200  0.57297200  1
  B  B13  1  0.27260600  0.82780800  0.42702800  1
  B  B14  1  0.22739400  0.17219200  0.92702800  1
  B  B15  1  0.72739400  0.32780800  0.07297200  1
  B  B16  1  0.06325900  0.21290900  0.33639200  1
  B  B17  1  0.56325900  0.28709100  0.66360800  1
  B  B18  1  0.93674100  0.71290900  0.16360800  1
  B  B19  1  0.43674100  0.78709100  0.83639200  1
  B  B20  1  0.93674100  0.78709100  0.66360800  1
  B  B21  1  0.43674100  0.71290900  0.33639200  1
  B  B22  1  0.06325900  0.28709100  0.83639200  1
  B  B23  1  0.56325900  0.21290900  0.16360800  1
  B  B24  1  0.55512800  0.15057400  0.29709600  1
  B  B25  1  0.05512800  0.34942600  0.70290400  1
  B  B26  1  0.44487200  0.65057400  0.20290400  1
  B  B27  1  0.94487200  0.84942600  0.79709600  1
  B  B28  1  0.44487200  0.84942600  0.70290400  1
  B  B29  1  0.94487200  0.65057400  0.29709600  1
  B  B30  1  0.55512800  0.34942600  0.79709600  1
  B  B31  1  0.05512800  0.15057400  0.20290400  1
  B  B32  1  0.50969600  0.52154100  0.30141500  1
  B  B33  1  0.00969600  0.97845900  0.69858500  1
  B  B34  1  0.49030400  0.02154100  0.19858500  1
  B  B35  1  0.99030400  0.47845900  0.80141500  1
  B  B36  1  0.49030400  0.47845900  0.69858500  1
  B  B37  1  0.99030400  0.02154100  0.30141500  1
  B  B38  1  0.50969600  0.97845900  0.80141500  1
  B  B39  1  0.00969600  0.52154100  0.19858500  1
  O  O0  1  0.57418300  0.16974700  0.36949500  1
  O  O1  1  0.07418300  0.33025300  0.63050500  1
  O  O2  1  0.42581700  0.66974700  0.13050500  1
  O  O3  1  0.92581700  0.83025300  0.86949500  1
  O  O4  1  0.42581700  0.83025300  0.63050500  1
  O  O5  1  0.92581700  0.66974700  0.36949500  1
  O  O6  1  0.57418300  0.33025300  0.86949500  1
  O  O7  1  0.07418300  0.16974700  0.13050500  1
  O  O8  1  0.21968300  0.25366500  0.36990200  1
  O  O9  1  0.71968300  0.24633500  0.63009800  1
  O  O10  1  0.78031700  0.75366500  0.13009800  1
  O  O11  1  0.28031700  0.74633500  0.86990200  1
  O  O12  1  0.78031700  0.74633500  0.63009800  1
  O  O13  1  0.28031700  0.75366500  0.36990200  1
  O  O14  1  0.21968300  0.24633500  0.86990200  1
  O  O15  1  0.71968300  0.25366500  0.13009800  1
  O  O16  1  0.77811800  0.38170600  0.45514900  1
  O  O17  1  0.27811800  0.11829400  0.54485100  1
  O  O18  1  0.22188200  0.88170600  0.04485100  1
  O  O19  1  0.72188200  0.61829400  0.95514900  1
  O  O20  1  0.22188200  0.61829400  0.54485100  1
  O  O21  1  0.72188200  0.88170600  0.45514900  1
  O  O22  1  0.77811800  0.11829400  0.95514900  1
  O  O23  1  0.27811800  0.38170600  0.04485100  1
  O  O24  1  0.37168700  0.35833100  0.45851700  1
  O  O25  1  0.87168700  0.14166900  0.54148300  1
  O  O26  1  0.62831300  0.85833100  0.04148300  1
  O  O27  1  0.12831300  0.64166900  0.95851700  1
  O  O28  1  0.62831300  0.64166900  0.54148300  1
  O  O29  1  0.12831300  0.85833100  0.45851700  1
  O  O30  1  0.37168700  0.14166900  0.95851700  1
  O  O31  1  0.87168700  0.35833100  0.04148300  1
  O  O32  1  0.57564400  0.42583700  0.31866300  1
  O  O33  1  0.07564400  0.07416300  0.68133700  1
  O  O34  1  0.42435600  0.92583700  0.18133700  1
  O  O35  1  0.92435600  0.57416300  0.81866300  1
  O  O36  1  0.42435600  0.57416300  0.68133700  1
  O  O37  1  0.92435600  0.92583700  0.31866300  1
  O  O38  1  0.57564400  0.07416300  0.81866300  1
  O  O39  1  0.07564400  0.42583700  0.18133700  1
  O  O40  1  0.57369700  0.22907500  0.24355700  1
  O  O41  1  0.07369700  0.27092500  0.75644300  1
  O  O42  1  0.42630300  0.72907500  0.25644300  1
  O  O43  1  0.92630300  0.77092500  0.74355700  1
  O  O44  1  0.42630300  0.77092500  0.75644300  1
  O  O45  1  0.92630300  0.72907500  0.24355700  1
  O  O46  1  0.57369700  0.27092500  0.74355700  1
  O  O47  1  0.07369700  0.22907500  0.25644300  1
  O  O48  1  0.45691300  0.59639600  0.35387700  1
  O  O49  1  0.95691300  0.90360400  0.64612300  1
  O  O50  1  0.54308700  0.09639600  0.14612300  1
  O  O51  1  0.04308700  0.40360400  0.85387700  1
  O  O52  1  0.54308700  0.40360400  0.64612300  1
  O  O53  1  0.04308700  0.09639600  0.35387700  1
  O  O54  1  0.45691300  0.90360400  0.85387700  1
  O  O55  1  0.95691300  0.59639600  0.14612300  1
  O  O56  1  0.49021500  0.54580500  0.22590000  1
  O  O57  1  0.99021500  0.95419500  0.77410000  1
  O  O58  1  0.50978500  0.04580500  0.27410000  1
  O  O59  1  0.00978500  0.45419500  0.72590000  1
  O  O60  1  0.50978500  0.45419500  0.77410000  1
  O  O61  1  0.00978500  0.04580500  0.22590000  1
  O  O62  1  0.49021500  0.95419500  0.72590000  1
  O  O63  1  0.99021500  0.54580500  0.27410000  1
  O  O64  1  0.91715400  0.27307500  0.36533200  1
  O  O65  1  0.41715400  0.22692500  0.63466800  1
  O  O66  1  0.08284600  0.77307500  0.13466800  1
  O  O67  1  0.58284600  0.72692500  0.86533200  1
  O  O68  1  0.08284600  0.72692500  0.63466800  1
  O  O69  1  0.58284600  0.77307500  0.36533200  1
  O  O70  1  0.91715400  0.22692500  0.86533200  1
  O  O71  1  0.41715400  0.27307500  0.13466800  1
  O  O72  1  0.07727100  0.37665200  0.45238700  1
  O  O73  1  0.57727100  0.12334800  0.54761300  1
  O  O74  1  0.92272900  0.87665200  0.04761300  1
  O  O75  1  0.42272900  0.62334800  0.95238700  1
  O  O76  1  0.92272900  0.62334800  0.54761300  1
  O  O77  1  0.42272900  0.87665200  0.45238700  1
  O  O78  1  0.07727100  0.12334800  0.95238700  1
  O  O79  1  0.57727100  0.37665200  0.04761300  1
loop_
_geom_bond_atom_site_label_1
_geom_bond_atom_site_label_2
_geom_bond_distance
_geom_bond_site_symmetry_2
Na0 O28 2.299515 1_555
Na0 O5 2.385398 1_555
Na0 O48 2.448265 1_555
Na0 O16 2.476561 1_555
Na1 O29 2.299515 1_555
Na1 O4 2.385398 1_555
Na1 O49 2.448265 1_455
Na1 O17 2.476561 1_565
Na2 O30 2.299515 1_554
Na2 O7 2.385398 1_555
Na2 O50 2.448265 1_555
Na2 O18 2.476561 1_545
Na3 O31 2.299515 1_556
Na3 O6 2.385398 1_555
Na3 O51 2.448265 1_655
Na3 O19 2.476561 1_555
Na4 O24 2.299515 1_555
Na4 O1 2.385398 1_555
Na4 O52 2.448265 1_555
Na4 O20 2.476561 1_555
Na5 O25 2.299515 1_555
Na5 O0 2.385398 1_555
Na5 O53 2.448265 1_655
Na5 O21 2.476561 1_545
Na6 O26 2.299515 1_556
Na6 O3 2.385398 1_555
Na6 O54 2.448265 1_555
Na6 O22 2.476561 1_565
Na7 O27 2.299515 1_554
Na7 O2 2.385398 1_555
Na7 O55 2.448265 1_455
Na7 O23 2.476561 1_555
Na8 O17 2.336040 1_555
Na8 O0 2.419929 1_555
Na8 O8 2.492285 1_555
Na8 O53 2.614744 1_555
Na8 O77 2.701412 1_545
Na9 O16 2.336040 1_555
Na9 O1 2.419929 1_655
Na9 O9 2.492285 1_555
Na9 O52 2.614744 1_555
Na9 O76 2.701412 1_555
Na10 O19 2.336040 1_554
Na10 O2 2.419929 1_555
Na10 O10 2.492285 1_555
Na10 O55 2.614744 1_555
Na10 O79 2.701412 1_555
Na11 O18 2.336040 1_556
Na11 O3 2.419929 1_455
Na11 O11 2.492285 1_555
Na11 O54 2.614744 1_555
Na11 O78 2.701412 1_565
Na12 O21 2.336040 1_555
Na12 O4 2.419929 1_555
Na12 O12 2.492285 1_555
Na12 O49 2.614744 1_555
Na12 O73 2.701412 1_565
Na13 O20 2.336040 1_555
Na13 O5 2.419929 1_455
Na13 O13 2.492285 1_555
Na13 O48 2.614744 1_555
Na13 O72 2.701412 1_555
Na14 O23 2.336040 1_556
Na14 O6 2.419929 1_555
Na14 O14 2.492285 1_555
Na14 O51 2.614744 1_555
Na14 O75 2.701412 1_555
Na15 O22 2.336040 1_554
Na15 O7 2.419929 1_655
Na15 O15 2.492285 1_555
Na15 O50 2.614744 1_555
Na15 O74 2.701412 1_545
Na16 O71 2.377444 1_555
Na16 O47 2.396957 1_555
Na16 O39 2.412679 1_555
Na16 O40 2.562727 1_555
Na16 O8 2.649920 1_555
Na16 O32 2.688384 1_555
Na16 O56 2.870785 1_555
Na17 O70 2.377444 1_555
Na17 O46 2.396957 1_555
Na17 O38 2.412679 1_555
Na17 O41 2.562727 1_655
Na17 O9 2.649920 1_555
Na17 O33 2.688384 1_655
Na17 O57 2.870785 1_545
Na18 O69 2.377444 1_555
Na18 O45 2.396957 1_555
Na18 O37 2.412679 1_555
Na18 O42 2.562727 1_555
Na18 O10 2.649920 1_555
Na18 O34 2.688384 1_555
Na18 O58 2.870785 1_565
Na19 O68 2.377444 1_555
Na19 O44 2.396957 1_555
Na19 O36 2.412679 1_555
Na19 O43 2.562727 1_455
Na19 O11 2.649920 1_555
Na19 O35 2.688384 1_455
Na19 O59 2.870785 1_555
Na20 O67 2.377444 1_555
Na20 O43 2.396957 1_555
Na20 O35 2.412679 1_555
Na20 O44 2.562727 1_555
Na20 O12 2.649920 1_555
Na20 O36 2.688384 1_555
Na20 O60 2.870785 1_555
Na21 O66 2.377444 1_555
Na21 O42 2.396957 1_555
Na21 O34 2.412679 1_555
Na21 O45 2.562727 1_455
Na21 O13 2.649920 1_555
Na21 O37 2.688384 1_455
Na21 O61 2.870785 1_565
Na22 O65 2.377444 1_555
Na22 O41 2.396957 1_555
Na22 O33 2.412679 1_555
Na22 O46 2.562727 1_555
Na22 O14 2.649920 1_555
Na22 O38 2.688384 1_555
Na22 O62 2.870785 1_545
Na23 O64 2.377444 1_555
Na23 O40 2.396957 1_555
Na23 O32 2.412679 1_555
Na23 O47 2.562727 1_655
Na23 O15 2.649920 1_555
Na23 O39 2.688384 1_655
Na23 O63 2.870785 1_555
B0 O16 1.351874 1_555
B0 O64 1.385595 1_555
B0 O72 1.415161 1_655
B1 O17 1.351874 1_555
B1 O65 1.385595 1_555
B1 O73 1.415161 1_555
B2 O18 1.351874 1_555
B2 O66 1.385595 1_555
B2 O74 1.415161 1_455
B3 O19 1.351874 1_555
B3 O67 1.385595 1_555
B3 O75 1.415161 1_555
B4 O20 1.351874 1_555
B4 O68 1.385595 1_555
B4 O76 1.415161 1_455
B5 O21 1.351874 1_555
B5 O69 1.385595 1_555
B5 O77 1.415161 1_555
B6 O22 1.351874 1_555
B6 O70 1.385595 1_555
B6 O78 1.415161 1_655
B7 O23 1.351874 1_555
B7 O71 1.385595 1_555
B7 O79 1.415161 1_555
B8 O24 1.341724 1_555
B8 O8 1.390219 1_555
B8 O72 1.420087 1_555
B9 O25 1.341724 1_555
B9 O9 1.390219 1_555
B9 O73 1.420087 1_555
B10 O26 1.341724 1_555
B10 O10 1.390219 1_555
B10 O74 1.420087 1_555
B11 O27 1.341724 1_555
B11 O11 1.390219 1_555
B11 O75 1.420087 1_555
B12 O28 1.341724 1_555
B12 O12 1.390219 1_555
B12 O76 1.420087 1_555
B13 O29 1.341724 1_555
B13 O13 1.390219 1_555
B13 O77 1.420087 1_555
B14 O30 1.341724 1_555
B14 O14 1.390219 1_555
B14 O78 1.420087 1_555
B15 O31 1.341724 1_555
B15 O15 1.390219 1_555
B15 O79 1.420087 1_555
B16 O47 1.474495 1_555
B16 O8 1.479309 1_555
B16 O64 1.481458 1_455
B16 O53 1.486354 1_555
B17 O46 1.474495 1_555
B17 O9 1.479309 1_555
B17 O65 1.481458 1_555
B17 O52 1.486354 1_555
B18 O45 1.474495 1_555
B18 O10 1.479309 1_555
B18 O66 1.481458 1_655
B18 O55 1.486354 1_555
B19 O44 1.474495 1_555
B19 O11 1.479309 1_555
B19 O67 1.481458 1_555
B19 O54 1.486354 1_555
B20 O43 1.474495 1_555
B20 O12 1.479309 1_555
B20 O68 1.481458 1_655
B20 O49 1.486354 1_555
B21 O42 1.474495 1_555
B21 O13 1.479309 1_555
B21 O69 1.481458 1_555
B21 O48 1.486354 1_555
B22 O41 1.474495 1_555
B22 O14 1.479309 1_555
B22 O70 1.481458 1_455
B22 O51 1.486354 1_555
B23 O40 1.474495 1_555
B23 O15 1.479309 1_555
B23 O71 1.481458 1_555
B23 O50 1.486354 1_555
B24 O0 1.350501 1_555
B24 O40 1.385930 1_555
B24 O58 1.410726 1_555
B25 O1 1.350501 1_555
B25 O41 1.385930 1_555
B25 O59 1.410726 1_555
B26 O2 1.350501 1_555
B26 O42 1.385930 1_555
B26 O56 1.410726 1_555
B27 O3 1.350501 1_555
B27 O43 1.385930 1_555
B27 O57 1.410726 1_555
B28 O4 1.350501 1_555
B28 O44 1.385930 1_555
B28 O62 1.410726 1_555
B29 O5 1.350501 1_555
B29 O45 1.385930 1_555
B29 O63 1.410726 1_555
B30 O6 1.350501 1_555
B30 O46 1.385930 1_555
B30 O60 1.410726 1_555
B31 O7 1.350501 1_555
B31 O47 1.385930 1_555
B31 O61 1.410726 1_555
B32 O32 1.334433 1_555
B32 O48 1.397396 1_555
B32 O56 1.418517 1_555
B33 O33 1.334433 1_565
B33 O49 1.397396 1_455
B33 O57 1.418517 1_455
B34 O34 1.334433 1_545
B34 O50 1.397396 1_555
B34 O58 1.418517 1_555
B35 O35 1.334433 1_555
B35 O51 1.397396 1_655
B35 O59 1.418517 1_655
B36 O36 1.334433 1_555
B36 O52 1.397396 1_555
B36 O60 1.418517 1_555
B37 O37 1.334433 1_545
B37 O53 1.397396 1_655
B37 O61 1.418517 1_655
B38 O38 1.334433 1_565
B38 O54 1.397396 1_555
B38 O62 1.418517 1_555
B39 O39 1.334433 1_555
B39 O55 1.397396 1_455
B39 O63 1.418517 1_455
O0 Zn0 2.001087 1_555
O1 Zn1 2.001087 1_555
O2 Zn2 2.001087 1_555
O3 Zn3 2.001087 1_555
O4 Zn4 2.001087 1_555
O5 Zn5 2.001087 1_555
O6 Zn6 2.001087 1_555
O7 Zn7 2.001087 1_555
O16 Zn0 2.003134 1_555
O17 Zn1 2.003134 1_555
O18 Zn2 2.003134 1_555
O19 Zn3 2.003134 1_555
O20 Zn4 2.003134 1_555
O21 Zn5 2.003134 1_555
O22 Zn6 2.003134 1_555
O23 Zn7 2.003134 1_555
O24 Zn0 1.966652 1_555
O25 Zn1 1.966652 1_655
O26 Zn2 1.966652 1_555
O27 Zn3 1.966652 1_455
O28 Zn4 1.966652 1_555
O29 Zn5 1.966652 1_455
O30 Zn6 1.966652 1_555
O31 Zn7 1.966652 1_655
O32 Zn0 1.997937 1_555
O33 Zn1 1.997937 1_555
O34 Zn2 1.997937 1_555
O35 Zn3 1.997937 1_555
O36 Zn4 1.997937 1_555
O37 Zn5 1.997937 1_555
O38 Zn6 1.997937 1_555
O39 Zn7 1.997937 1_555
