# generated using pymatgen
data_Np2C3
_symmetry_space_group_name_H-M   'P 1'
_cell_length_a   6.95131052
_cell_length_b   6.95131052
_cell_length_c   6.95131052
_cell_angle_alpha   109.47122063
_cell_angle_beta   109.47122063
_cell_angle_gamma   109.47122063
_symmetry_Int_Tables_number   1
_chemical_formula_structural   Np2C3
_chemical_formula_sum   'Np8 C12'
_cell_volume   258.57002465
_cell_formula_units_Z   4
loop_
 _symmetry_equiv_pos_site_id
 _symmetry_equiv_pos_as_xyz
  1  'x, y, z'
loop_
 _atom_site_type_symbol
 _atom_site_label
 _atom_site_symmetry_multiplicity
 _atom_site_fract_x
 _atom_site_fract_y
 _atom_site_fract_z
 _atom_site_occupancy
  Np  Np0  1  0.59862600  0.50000000  0.00000000  1
  Np  Np1  1  0.50000000  0.00000000  0.59862600  1
  Np  Np2  1  0.00000000  0.59862600  0.50000000  1
  Np  Np3  1  0.90137400  0.90137400  0.90137400  1
  Np  Np4  1  0.50000000  0.00000000  0.09862600  1
  Np  Np5  1  0.09862600  0.50000000  0.00000000  1
  Np  Np6  1  0.00000000  0.09862600  0.50000000  1
  Np  Np7  1  0.40137400  0.40137400  0.40137400  1
  C  C0  1  0.78658700  0.25000000  0.03658700  1
  C  C1  1  0.71341300  0.75000000  0.46341300  1
  C  C2  1  0.53658700  0.75000000  0.28658700  1
  C  C3  1  0.96341300  0.25000000  0.21341300  1
  C  C4  1  0.25000000  0.03658700  0.78658700  1
  C  C5  1  0.75000000  0.46341300  0.71341300  1
  C  C6  1  0.75000000  0.28658700  0.53658700  1
  C  C7  1  0.25000000  0.21341300  0.96341300  1
  C  C8  1  0.03658700  0.78658700  0.25000000  1
  C  C9  1  0.46341300  0.71341300  0.75000000  1
  C  C10  1  0.28658700  0.53658700  0.75000000  1
  C  C11  1  0.21341300  0.96341300  0.25000000  1
loop_
_geom_bond_atom_site_label_1
_geom_bond_atom_site_label_2
_geom_bond_distance
_geom_bond_site_symmetry_2
C0 C3 1.419326 1_555
C0 Np4 2.437020 1_555
C0 Np5 2.437020 1_655
C0 Np0 2.525613 1_555
C0 Np1 2.525613 1_554
C1 C2 1.419326 1_555
C1 Np6 2.437020 1_665
C1 Np7 2.437020 1_555
C1 Np2 2.525613 1_655
C1 Np3 2.525613 1_555
C2 Np1 2.437020 1_565
C2 Np0 2.437020 1_555
C2 Np5 2.525613 1_555
C2 Np4 2.525613 1_565
C3 Np3 2.437020 1_544
C3 Np2 2.437020 1_655
C3 Np7 2.525613 1_655
C3 Np6 2.525613 1_655
C4 C7 1.419326 1_555
C4 Np6 2.437020 1_555
C4 Np4 2.437020 1_556
C4 Np1 2.525613 1_555
C4 Np2 2.525613 1_545
C5 C6 1.419326 1_555
C5 Np5 2.437020 1_656
C5 Np7 2.437020 1_555
C5 Np0 2.525613 1_556
C5 Np3 2.525613 1_555
C6 Np2 2.437020 1_655
C6 Np1 2.437020 1_555
C6 Np4 2.525613 1_555
C6 Np6 2.525613 1_655
C7 Np3 2.437020 1_445
C7 Np0 2.437020 1_556
C7 Np7 2.525613 1_556
C7 Np5 2.525613 1_556
C8 Np5 2.437020 1_555
C8 Np6 2.437020 1_565
C8 Np2 2.525613 1_555
C8 Np0 2.525613 1_455
C9 Np4 2.437020 1_566
C9 Np7 2.437020 1_555
C9 Np1 2.525613 1_565
C9 Np3 2.525613 1_555
C10 C9 1.419326 1_555
C10 Np0 2.437020 1_556
C10 Np2 2.437020 1_555
C10 Np6 2.525613 1_555
C10 Np5 2.525613 1_556
C11 C8 1.419326 1_555
C11 Np1 2.437020 1_565
C11 Np3 2.437020 1_454
C11 Np7 2.525613 1_565
C11 Np4 2.525613 1_565
