# generated using pymatgen
data_Li9Mn7O16
_symmetry_space_group_name_H-M   'P 1'
_cell_length_a   5.08726200
_cell_length_b   5.29373312
_cell_length_c   11.36353354
_cell_angle_alpha   84.61378318
_cell_angle_beta   88.06119954
_cell_angle_gamma   77.63475602
_symmetry_Int_Tables_number   1
_chemical_formula_structural   Li9Mn7O16
_chemical_formula_sum   'Li9 Mn7 O16'
_cell_volume   297.57820005
_cell_formula_units_Z   1
loop_
 _symmetry_equiv_pos_site_id
 _symmetry_equiv_pos_as_xyz
  1  'x, y, z'
loop_
 _atom_site_type_symbol
 _atom_site_label
 _atom_site_symmetry_multiplicity
 _atom_site_fract_x
 _atom_site_fract_y
 _atom_site_fract_z
 _atom_site_occupancy
  Li  Li0  1  0.26672500  0.07911500  0.93686700  1
  Li  Li1  1  0.73818000  0.18441100  0.81963300  1
  Li  Li2  1  0.25408000  0.32296600  0.68749000  1
  Li  Li3  1  0.26182000  0.81558900  0.18036700  1
  Li  Li4  1  0.73327500  0.92088500  0.06313300  1
  Li  Li5  1  0.25004100  0.56489000  0.43767200  1
  Li  Li6  1  0.74592000  0.67703400  0.31251000  1
  Li  Li7  1  0.74995900  0.43511000  0.56232800  1
  Li  Li8  1  0.50000000  0.50000000  0.00000000  1
  Mn  Mn0  1  0.00057900  0.60888800  0.87995800  1
  Mn  Mn1  1  0.99942100  0.39111200  0.12004200  1
  Mn  Mn2  1  0.49632500  0.73221000  0.75830700  1
  Mn  Mn3  1  0.99549000  0.86989300  0.62764700  1
  Mn  Mn4  1  0.50000000  0.00000000  0.50000000  1
  Mn  Mn5  1  0.00451000  0.13010700  0.37235300  1
  Mn  Mn6  1  0.50367500  0.26779000  0.24169300  1
  O  O0  1  0.10493400  0.68497100  0.03131100  1
  O  O1  1  0.63960200  0.83337700  0.89678700  1
  O  O2  1  0.11849500  0.91708200  0.78821000  1
  O  O3  1  0.13837000  0.46940400  0.26794200  1
  O  O4  1  0.65316600  0.59023800  0.15204100  1
  O  O5  1  0.13632600  0.20994200  0.52371000  1
  O  O6  1  0.64071100  0.33459000  0.39445700  1
  O  O7  1  0.63689800  0.08327900  0.64704800  1
  O  O8  1  0.34683400  0.40976200  0.84795900  1
  O  O9  1  0.86163000  0.53059600  0.73205800  1
  O  O10  1  0.35928900  0.66541000  0.60554300  1
  O  O11  1  0.36039800  0.16662300  0.10321300  1
  O  O12  1  0.89506600  0.31502900  0.96868900  1
  O  O13  1  0.36310200  0.91672100  0.35295200  1
  O  O14  1  0.88150500  0.08291800  0.21179000  1
  O  O15  1  0.86367400  0.79005800  0.47629000  1
loop_
_geom_bond_atom_site_label_1
_geom_bond_atom_site_label_2
_geom_bond_distance
_geom_bond_site_symmetry_2
Li0 O8 2.048466 1_555
Li0 O12 2.071835 1_455
Li0 O11 2.082001 1_556
Li0 O1 2.119889 1_545
Li0 O2 2.189354 1_545
Li0 O0 2.537331 1_546
Li1 O8 2.121763 1_555
Li1 O12 2.128798 1_555
Li1 O1 2.129996 1_545
Li1 O2 2.179215 1_645
Li1 O7 2.186764 1_555
Li1 O9 2.202605 1_555
Li2 O8 2.016750 1_555
Li2 O10 2.122449 1_555
Li2 O9 2.132332 1_455
Li2 O7 2.145806 1_555
Li2 O5 2.149094 1_555
Li2 O2 2.553825 1_545
Li3 O4 2.121763 1_555
Li3 O0 2.128798 1_555
Li3 O11 2.129996 1_565
Li3 O14 2.179215 1_465
Li3 O13 2.186764 1_555
Li3 O3 2.202605 1_555
Li4 O4 2.048466 1_555
Li4 O0 2.071835 1_655
Li4 O1 2.082001 1_554
Li4 O11 2.119889 1_565
Li4 O14 2.189354 1_565
Li4 O12 2.537331 1_564
Li5 O15 2.124427 1_455
Li5 O10 2.149414 1_555
Li5 O3 2.162964 1_555
Li5 O6 2.164723 1_555
Li5 O13 2.193459 1_555
Li5 O5 2.214401 1_555
Li6 O4 2.016750 1_555
Li6 O6 2.122449 1_555
Li6 O3 2.132332 1_655
Li6 O13 2.145806 1_555
Li6 O15 2.149094 1_555
Li6 O14 2.553825 1_565
Li7 O5 2.124427 1_655
Li7 O6 2.149414 1_555
Li7 O9 2.162964 1_555
Li7 O10 2.164723 1_555
Li7 O7 2.193459 1_555
Li7 O15 2.214401 1_555
Li8 O4 2.055679 1_555
Li8 O8 2.055679 1_554
Li8 O12 2.073375 1_554
Li8 O0 2.073375 1_555
Li8 O1 2.255298 1_554
Li8 O11 2.255298 1_555
Mn0 O8 1.891985 1_555
Mn0 O0 1.919774 1_556
Mn0 O12 1.936813 1_455
Mn0 O9 1.957731 1_455
Mn0 O1 1.976204 1_455
Mn0 O2 2.041104 1_555
Mn1 O4 1.891985 1_555
Mn1 O12 1.919774 1_554
Mn1 O0 1.936813 1_655
Mn1 O3 1.957731 1_655
Mn1 O11 1.976204 1_655
Mn1 O14 2.041104 1_555
Mn2 O1 1.922860 1_555
Mn2 O9 1.963291 1_555
Mn2 O10 1.981728 1_555
Mn2 O2 1.995089 1_555
Mn2 O8 2.169564 1_555
Mn2 O7 2.372903 1_565
Mn3 O7 1.946661 1_565
Mn3 O10 1.954907 1_655
Mn3 O15 1.980507 1_555
Mn3 O2 2.003192 1_655
Mn3 O9 2.273040 1_555
Mn3 O5 2.290139 1_665
Mn4 O7 1.954509 1_555
Mn4 O13 1.954509 1_545
Mn4 O15 1.967867 1_545
Mn4 O5 1.967867 1_555
Mn4 O10 2.274690 1_545
Mn4 O6 2.274690 1_555
Mn5 O13 1.946661 1_545
Mn5 O6 1.954907 1_455
Mn5 O5 1.980507 1_555
Mn5 O14 2.003192 1_455
Mn5 O3 2.273040 1_555
Mn5 O15 2.290139 1_445
Mn6 O11 1.922860 1_555
Mn6 O3 1.963291 1_555
Mn6 O6 1.981728 1_555
Mn6 O14 1.995089 1_555
Mn6 O4 2.169564 1_555
Mn6 O13 2.372903 1_545
