# generated using pymatgen
data_Si
_symmetry_space_group_name_H-M   'P 1'
_cell_length_a   10.76329056
_cell_length_b   10.76329056
_cell_length_c   10.76329056
_cell_angle_alpha   109.47122063
_cell_angle_beta   109.47122063
_cell_angle_gamma   109.47122063
_symmetry_Int_Tables_number   1
_chemical_formula_structural   Si
_chemical_formula_sum   Si41
_cell_volume   959.87195311
_cell_formula_units_Z   41
loop_
 _symmetry_equiv_pos_site_id
 _symmetry_equiv_pos_as_xyz
  1  'x, y, z'
loop_
 _atom_site_type_symbol
 _atom_site_label
 _atom_site_symmetry_multiplicity
 _atom_site_fract_x
 _atom_site_fract_y
 _atom_site_fract_z
 _atom_site_occupancy
  Si  Si0  1  0.78659388  0.39175378  0.13262899  1
  Si  Si1  1  0.39484010  0.74087421  0.60824622  1
  Si  Si2  1  0.65396589  0.86737101  0.25912579  1
  Si  Si3  1  0.65396589  0.25912579  0.86737101  1
  Si  Si4  1  0.78659388  0.13262899  0.39175378  1
  Si  Si5  1  0.39484010  0.60824622  0.74087421  1
  Si  Si6  1  0.25912579  0.65396589  0.86737101  1
  Si  Si7  1  0.13262899  0.78659388  0.39175378  1
  Si  Si8  1  0.60824622  0.39484010  0.74087421  1
  Si  Si9  1  0.39175378  0.78659388  0.13262899  1
  Si  Si10  1  0.74087421  0.39484010  0.60824622  1
  Si  Si11  1  0.86737101  0.65396589  0.25912579  1
  Si  Si12  1  0.74087421  0.60824622  0.39484010  1
  Si  Si13  1  0.86737101  0.25912579  0.65396589  1
  Si  Si14  1  0.39175378  0.13262899  0.78659388  1
  Si  Si15  1  0.60824622  0.74087421  0.39484010  1
  Si  Si16  1  0.25912579  0.86737101  0.65396589  1
  Si  Si17  1  0.13262899  0.39175378  0.78659388  1
  Si  Si18  1  0.21340612  0.34603411  0.60515990  1
  Si  Si19  1  0.60515990  0.21340612  0.34603411  1
  Si  Si20  1  0.34603411  0.60515990  0.21340612  1
  Si  Si21  1  0.34603411  0.21340612  0.60515990  1
  Si  Si22  1  0.21340612  0.60515990  0.34603411  1
  Si  Si23  1  0.60515990  0.34603411  0.21340612  1
  Si  Si24  1  -0.00000000  -0.00000000  0.21736945  1
  Si  Si25  1  -0.00000000  0.21736945  -0.00000000  1
  Si  Si26  1  0.78263055  0.78263055  0.78263055  1
  Si  Si27  1  0.21736945  0.00000000  0.00000000  1
  Si  Si28  1  0.00000000  0.00000000  -0.00000000  1
  Si  Si29  1  -0.00000000  0.35932015  0.22356876  1
  Si  Si30  1  0.64067985  0.86424861  0.64067985  1
  Si  Si31  1  0.77643124  0.77643124  0.13575139  1
  Si  Si32  1  0.77643124  0.13575139  0.77643124  1
  Si  Si33  1  -0.00000000  0.22356876  0.35932015  1
  Si  Si34  1  0.64067985  0.64067985  0.86424861  1
  Si  Si35  1  0.13575139  0.77643124  0.77643124  1
  Si  Si36  1  0.22356876  -0.00000000  0.35932015  1
  Si  Si37  1  0.35932015  -0.00000000  0.22356876  1
  Si  Si38  1  0.86424861  0.64067985  0.64067985  1
  Si  Si39  1  0.35932015  0.22356876  -0.00000000  1
  Si  Si40  1  0.22356876  0.35932015  -0.00000000  1
loop_
_geom_bond_atom_site_label_1
_geom_bond_atom_site_label_2
_geom_bond_distance
_geom_bond_site_symmetry_2
Si0 Si3 2.331138 1_554
Si0 Si23 2.363909 1_555
Si0 Si11 2.363918 1_555
Si0 Si29 2.370535 1_655
Si1 Si5 2.331120 1_555
Si1 Si16 2.363909 1_555
Si1 Si22 2.363916 1_555
Si1 Si30 2.370536 1_555
Si2 Si4 2.331138 1_565
Si2 Si9 2.363918 1_555
Si2 Si31 2.370532 1_555
Si3 Si8 2.363909 1_555
Si3 Si32 2.370532 1_555
Si5 Si6 2.363909 1_555
Si6 Si9 2.331138 1_556
Si10 Si8 2.331120 1_555
Si10 Si13 2.363909 1_555
Si10 Si19 2.363916 1_555
Si10 Si38 2.370536 1_555
Si11 Si7 2.331138 1_655
Si11 Si12 2.363909 1_555
Si11 Si31 2.370532 1_555
Si12 Si15 2.331120 1_555
Si12 Si23 2.363916 1_555
Si12 Si38 2.370536 1_555
Si13 Si17 2.331138 1_655
Si13 Si4 2.363918 1_555
Si13 Si32 2.370532 1_555
Si14 Si16 2.331138 1_545
Si14 Si21 2.363909 1_555
Si14 Si3 2.363918 1_555
Si14 Si39 2.370535 1_556
Si15 Si2 2.363909 1_555
Si15 Si20 2.363916 1_555
Si15 Si30 2.370536 1_555
Si16 Si7 2.363918 1_555
Si16 Si35 2.370532 1_555
Si17 Si18 2.363909 1_555
Si17 Si6 2.363918 1_555
Si17 Si40 2.370535 1_556
Si18 Si21 2.331120 1_555
Si18 Si5 2.363916 1_555
Si18 Si33 2.370536 1_555
Si19 Si23 2.331120 1_555
Si19 Si4 2.363909 1_555
Si19 Si37 2.370536 1_555
Si20 Si22 2.331120 1_555
Si20 Si9 2.363909 1_555
Si20 Si40 2.370536 1_555
Si21 Si8 2.363916 1_555
Si21 Si36 2.370536 1_555
Si22 Si7 2.363909 1_555
Si22 Si29 2.370536 1_555
Si23 Si39 2.370536 1_555
Si24 Si28 2.339611 1_555
Si24 Si33 2.381968 1_555
Si24 Si36 2.381968 1_555
Si24 Si31 2.381968 1_445
Si25 Si28 2.339611 1_555
Si25 Si32 2.381968 1_454
Si25 Si29 2.381968 1_555
Si25 Si40 2.381968 1_555
Si26 Si28 2.339611 1_666
Si26 Si30 2.381968 1_555
Si26 Si38 2.381968 1_555
Si26 Si34 2.381968 1_555
Si27 Si28 2.339611 1_555
Si27 Si37 2.381968 1_555
Si27 Si39 2.381968 1_555
Si27 Si35 2.381968 1_544
Si29 Si33 2.386018 1_555
Si30 Si32 2.386018 1_565
Si31 Si34 2.386018 1_554
Si33 Si4 2.370535 1_455
Si34 Si8 2.370536 1_555
Si34 Si5 2.370536 1_555
Si35 Si6 2.370532 1_555
Si35 Si38 2.386018 1_455
Si36 Si7 2.370535 1_545
Si36 Si37 2.386018 1_555
Si37 Si9 2.370535 1_545
Si39 Si40 2.386018 1_555
