# generated using pymatgen
data_Dy2Ni2Sn
_symmetry_space_group_name_H-M   'P 1'
_cell_length_a   5.41057091
_cell_length_b   5.41057091
_cell_length_c   5.41057091
_cell_angle_alpha   133.68171256
_cell_angle_beta   117.66005500
_cell_angle_gamma   81.09037883
_symmetry_Int_Tables_number   1
_chemical_formula_structural   Dy2Ni2Sn
_chemical_formula_sum   'Dy2 Ni2 Sn1'
_cell_volume   98.00027385
_cell_formula_units_Z   1
loop_
 _symmetry_equiv_pos_site_id
 _symmetry_equiv_pos_as_xyz
  1  'x, y, z'
loop_
 _atom_site_type_symbol
 _atom_site_label
 _atom_site_symmetry_multiplicity
 _atom_site_fract_x
 _atom_site_fract_y
 _atom_site_fract_z
 _atom_site_occupancy
  Dy  Dy0  1  0.29728633  0.79728633  0.50000000  1
  Dy  Dy1  1  0.70271367  0.20271367  0.50000000  1
  Ni  Ni0  1  0.71090165  0.50000000  0.21090165  1
  Ni  Ni1  1  0.28909835  0.50000000  0.78909835  1
  Sn  Sn0  1  -0.00000000  0.00000000  -0.00000000  1
loop_
_geom_bond_atom_site_label_1
_geom_bond_atom_site_label_2
_geom_bond_distance
_geom_bond_site_symmetry_2
Dy0 Ni0 2.932170 1_455
Dy0 Ni1 2.932170 1_555
Dy0 Ni1 2.949880 1_565
Dy0 Ni0 2.949880 1_566
Dy0 Ni1 2.949880 1_554
Dy0 Ni0 2.949880 1_555
Dy0 Sn0 3.240964 1_566
Dy0 Sn0 3.240964 1_555
Dy0 Sn0 3.258951 1_666
Dy0 Sn0 3.258951 1_565
Dy1 Ni1 2.932170 1_655
Dy1 Ni0 2.932170 1_555
Dy1 Ni1 2.949880 1_555
Dy1 Ni0 2.949880 1_545
Dy1 Ni1 2.949880 1_544
Dy1 Ni0 2.949880 1_556
Dy1 Sn0 3.240964 1_666
Dy1 Sn0 3.240964 1_655
Dy1 Sn0 3.258951 1_656
Dy1 Sn0 3.258951 1_555
Ni0 Ni1 2.362433 1_554
Ni0 Sn0 2.673896 1_655
Ni0 Sn0 2.673896 1_666
Ni1 Sn0 2.673896 1_555
Ni1 Sn0 2.673896 1_566
