# generated using pymatgen
data_Mg4Sn5(TeO6)3
_symmetry_space_group_name_H-M   'P 1'
_cell_length_a   9.20673165
_cell_length_b   9.20673165
_cell_length_c   11.71460277
_cell_angle_alpha   87.62235337
_cell_angle_beta   87.62235337
_cell_angle_gamma   61.75149318
_symmetry_Int_Tables_number   1
_chemical_formula_structural   Mg4Sn5(TeO6)3
_chemical_formula_sum   'Mg8 Sn10 Te6 O36'
_cell_volume   873.69275280
_cell_formula_units_Z   2
loop_
 _symmetry_equiv_pos_site_id
 _symmetry_equiv_pos_as_xyz
  1  'x, y, z'
loop_
 _atom_site_type_symbol
 _atom_site_label
 _atom_site_symmetry_multiplicity
 _atom_site_fract_x
 _atom_site_fract_y
 _atom_site_fract_z
 _atom_site_occupancy
  Mg  Mg0  1  0.34942600  0.05106100  0.07384800  1
  Mg  Mg1  1  0.36520400  0.68041700  0.95853600  1
  Mg  Mg2  1  0.94893900  0.65057400  0.42615200  1
  Mg  Mg3  1  0.31958300  0.63479600  0.54146400  1
  Mg  Mg4  1  0.68041700  0.36520400  0.45853600  1
  Mg  Mg5  1  0.05106100  0.34942600  0.57384800  1
  Mg  Mg6  1  0.65057400  0.94893900  0.92615200  1
  Mg  Mg7  1  0.63479600  0.31958300  0.04146400  1
  Sn  Sn0  1  0.28904400  0.97286500  0.72674600  1
  Sn  Sn1  1  0.97286500  0.28904400  0.22674600  1
  Sn  Sn2  1  0.12859900  0.51791300  0.07781600  1
  Sn  Sn3  1  0.51791300  0.12859900  0.57781600  1
  Sn  Sn4  1  0.48208700  0.87140100  0.42218400  1
  Sn  Sn5  1  0.83043100  0.16956900  0.75000000  1
  Sn  Sn6  1  0.16956900  0.83043100  0.25000000  1
  Sn  Sn7  1  0.87140100  0.48208700  0.92218400  1
  Sn  Sn8  1  0.71095600  0.02713500  0.27325400  1
  Sn  Sn9  1  0.02713500  0.71095600  0.77325400  1
  Te  Te0  1  0.66713500  0.64508900  0.67908400  1
  Te  Te1  1  0.00000000  0.00000000  0.00000000  1
  Te  Te2  1  0.00000000  0.00000000  0.50000000  1
  Te  Te3  1  0.64508900  0.66713500  0.17908400  1
  Te  Te4  1  0.33286500  0.35491100  0.32091600  1
  Te  Te5  1  0.35491100  0.33286500  0.82091600  1
  O  O0  1  0.87638200  0.59312600  0.58532100  1
  O  O1  1  0.23592800  0.88608600  0.58221000  1
  O  O2  1  0.40103300  0.77757200  0.28792400  1
  O  O3  1  0.93490000  0.91851800  0.17471300  1
  O  O4  1  0.11391400  0.76407200  0.91779000  1
  O  O5  1  0.08148200  0.06510000  0.32528700  1
  O  O6  1  0.57502400  0.56871500  0.06207500  1
  O  O7  1  0.89877200  0.23868000  0.57885600  1
  O  O8  1  0.10122800  0.76132000  0.42114400  1
  O  O9  1  0.19165200  0.25514800  0.15574000  1
  O  O10  1  0.42090400  0.77549800  0.82217000  1
  O  O11  1  0.80834800  0.74485200  0.84426000  1
  O  O12  1  0.76407200  0.11391400  0.41779000  1
  O  O13  1  0.54121000  0.89692000  0.65688000  1
  O  O14  1  0.22450200  0.57909600  0.67783000  1
  O  O15  1  0.42497600  0.43128500  0.93792500  1
  O  O16  1  0.57909600  0.22450200  0.17783000  1
  O  O17  1  0.10308000  0.45879000  0.84312000  1
  O  O18  1  0.22242800  0.59896700  0.21207600  1
  O  O19  1  0.77549800  0.42090400  0.32217000  1
  O  O20  1  0.59312600  0.87638200  0.08532100  1
  O  O21  1  0.45879000  0.10308000  0.34312000  1
  O  O22  1  0.76132000  0.10122800  0.92114400  1
  O  O23  1  0.56871500  0.57502400  0.56207500  1
  O  O24  1  0.59896700  0.22242800  0.71207600  1
  O  O25  1  0.91851800  0.93490000  0.67471300  1
  O  O26  1  0.25514800  0.19165200  0.65574000  1
  O  O27  1  0.43128500  0.42497600  0.43792500  1
  O  O28  1  0.88608600  0.23592800  0.08221000  1
  O  O29  1  0.89692000  0.54121000  0.15688000  1
  O  O30  1  0.12361800  0.40687400  0.41467900  1
  O  O31  1  0.06510000  0.08148200  0.82528700  1
  O  O32  1  0.23868000  0.89877200  0.07885600  1
  O  O33  1  0.74485200  0.80834800  0.34426000  1
  O  O34  1  0.77757200  0.40103300  0.78792400  1
  O  O35  1  0.40687400  0.12361800  0.91467900  1
loop_
_geom_bond_atom_site_label_1
_geom_bond_atom_site_label_2
_geom_bond_distance
_geom_bond_site_symmetry_2
Mg0 O9 2.002798 1_555
Mg0 O20 2.056697 1_545
Mg0 O32 2.085743 1_545
Mg0 O35 2.086144 1_554
Mg1 O10 1.955029 1_555
Mg1 O15 2.112407 1_555
Mg1 O6 2.114439 1_556
Mg1 O4 2.132603 1_555
Mg1 O32 2.295044 1_556
Mg2 O33 2.002798 1_555
Mg2 O30 2.056697 1_655
Mg2 O8 2.085743 1_655
Mg2 O0 2.086144 1_555
Mg3 O14 1.955029 1_555
Mg3 O23 2.112407 1_555
Mg3 O27 2.114439 1_555
Mg3 O1 2.132603 1_555
Mg3 O8 2.295044 1_555
Mg4 O19 1.955029 1_555
Mg4 O27 2.112407 1_555
Mg4 O23 2.114439 1_555
Mg4 O12 2.132603 1_555
Mg4 O7 2.295044 1_555
Mg5 O26 2.002798 1_555
Mg5 O0 2.056697 1_455
Mg5 O7 2.085743 1_455
Mg5 O30 2.086144 1_555
Mg6 O11 2.002798 1_555
Mg6 O35 2.056697 1_565
Mg6 O22 2.085743 1_565
Mg6 O20 2.086144 1_556
Mg7 O16 1.955029 1_555
Mg7 O6 2.112407 1_555
Mg7 O15 2.114439 1_554
Mg7 O28 2.132603 1_555
Mg7 O22 2.295044 1_554
O0 Te0 2.035260 1_555
O1 Sn0 2.072466 1_555
O1 Te2 2.163075 1_565
O2 Sn6 2.013554 1_555
O2 Sn4 2.144102 1_555
O2 Te3 2.327132 1_555
O3 Sn8 2.128422 1_565
O3 Sn6 2.131578 1_655
O3 Te1 2.303779 1_665
O4 Sn9 2.072466 1_555
O4 Te1 2.163075 1_566
O5 Sn1 2.128422 1_455
O5 Sn6 2.131578 1_545
O5 Te2 2.303779 1_555
O6 Te3 1.961059 1_555
O7 Te2 2.170059 1_655
O7 Sn5 2.233555 1_555
O8 Te2 2.170059 1_565
O8 Sn6 2.233555 1_555
O9 Sn1 2.033280 1_455
O9 Sn2 2.356737 1_555
O10 Sn0 1.970070 1_555
O10 Te0 2.581784 1_555
O11 Sn9 2.033280 1_655
O11 Sn7 2.356737 1_555
O12 Sn8 2.072466 1_555
O12 Te2 2.163075 1_655
O13 Te0 2.053758 1_555
O13 Sn3 2.207502 1_565
O13 Sn0 2.214028 1_555
O14 Sn9 1.970070 1_555
O14 Te5 2.581784 1_555
O15 Te5 1.961059 1_555
O16 Sn8 1.970070 1_555
O16 Te4 2.581784 1_555
O17 Te5 2.053758 1_555
O17 Sn7 2.207502 1_455
O17 Sn9 2.214028 1_555
O18 Sn6 2.013554 1_555
O18 Sn2 2.144102 1_555
O18 Te4 2.327132 1_555
O19 Sn1 1.970070 1_555
O19 Te3 2.581784 1_555
O20 Te3 2.035260 1_555
O21 Te4 2.053758 1_555
O21 Sn4 2.207502 1_545
O21 Sn8 2.214028 1_555
O22 Te1 2.170059 1_656
O22 Sn5 2.233555 1_555
O23 Te0 1.961059 1_555
O24 Sn5 2.013554 1_555
O24 Sn3 2.144102 1_555
O24 Te5 2.327132 1_555
O25 Sn9 2.128422 1_655
O25 Sn5 2.131578 1_565
O25 Te2 2.303779 1_665
O26 Sn0 2.033280 1_545
O26 Sn3 2.356737 1_555
O27 Te4 1.961059 1_555
O28 Sn1 2.072466 1_555
O28 Te1 2.163075 1_655
O29 Te3 2.053758 1_555
O29 Sn2 2.207502 1_655
O29 Sn1 2.214028 1_555
O30 Te4 2.035260 1_555
O31 Sn0 2.128422 1_545
O31 Sn5 2.131578 1_455
O31 Te1 2.303779 1_556
O32 Te1 2.170059 1_565
O32 Sn6 2.233555 1_555
O33 Sn8 2.033280 1_565
O33 Sn4 2.356737 1_555
O34 Sn5 2.013554 1_555
O34 Sn7 2.144102 1_555
O34 Te0 2.327132 1_555
O35 Te5 2.035260 1_555
