# generated using pymatgen
data_K3DyCl6
_symmetry_space_group_name_H-M   'P 1'
_cell_length_a   7.75468674
_cell_length_b   13.03712795
_cell_length_c   12.47187702
_cell_angle_alpha   109.02489272
_cell_angle_beta   90.00000000
_cell_angle_gamma   90.00000000
_symmetry_Int_Tables_number   1
_chemical_formula_structural   K3DyCl6
_chemical_formula_sum   'K12 Dy4 Cl24'
_cell_volume   1192.01866729
_cell_formula_units_Z   4
loop_
 _symmetry_equiv_pos_site_id
 _symmetry_equiv_pos_as_xyz
  1  'x, y, z'
loop_
 _atom_site_type_symbol
 _atom_site_label
 _atom_site_symmetry_multiplicity
 _atom_site_fract_x
 _atom_site_fract_y
 _atom_site_fract_z
 _atom_site_occupancy
  K  K0  1  0.43707621  0.68565256  0.73581003  1
  K  K1  1  0.56292379  0.31434744  0.26418997  1
  K  K2  1  0.93707621  0.31434744  0.76418997  1
  K  K3  1  0.06292379  0.68565256  0.23581003  1
  K  K4  1  0.96291273  0.90023140  0.64115868  1
  K  K5  1  0.03708727  0.09976860  0.35884132  1
  K  K6  1  0.46291273  0.09976860  0.85884132  1
  K  K7  1  0.53708727  0.90023140  0.14115868  1
  K  K8  1  0.92773776  0.67993727  0.88800141  1
  K  K9  1  0.07226224  0.32006273  0.11199859  1
  K  K10  1  0.42773776  0.32006273  0.61199859  1
  K  K11  1  0.57226224  0.67993727  0.38800141  1
  Dy  Dy0  1  0.00000000  0.50000000  0.50000000  1
  Dy  Dy1  1  0.50000000  0.50000000  -0.00000000  1
  Dy  Dy2  1  0.00000000  0.00000000  -0.00000000  1
  Dy  Dy3  1  0.50000000  0.00000000  0.50000000  1
  Cl  Cl0  1  0.49640930  0.88364076  0.63446721  1
  Cl  Cl1  1  0.50359070  0.11635924  0.36553279  1
  Cl  Cl2  1  0.99640930  0.11635924  0.86553279  1
  Cl  Cl3  1  0.00359070  0.88364076  0.13446721  1
  Cl  Cl4  1  0.28723013  0.65544496  0.99611961  1
  Cl  Cl5  1  0.71276987  0.34455504  0.00388039  1
  Cl  Cl6  1  0.78723013  0.34455504  0.50388039  1
  Cl  Cl7  1  0.21276987  0.65544496  0.49611961  1
  Cl  Cl8  1  0.78629704  0.65726704  0.60899075  1
  Cl  Cl9  1  0.21370296  0.34273296  0.39100925  1
  Cl  Cl10  1  0.28629704  0.34273296  0.89100925  1
  Cl  Cl11  1  0.71370296  0.65726704  0.10899075  1
  Cl  Cl12  1  0.63930167  0.49964750  0.80531894  1
  Cl  Cl13  1  0.36069833  0.50035250  0.19468106  1
  Cl  Cl14  1  0.13930167  0.50035250  0.69468106  1
  Cl  Cl15  1  0.86069833  0.49964750  0.30531894  1
  Cl  Cl16  1  0.16854605  0.85410193  0.84014315  1
  Cl  Cl17  1  0.83145395  0.14589807  0.15985685  1
  Cl  Cl18  1  0.66854605  0.14589807  0.65985685  1
  Cl  Cl19  1  0.33145395  0.85410193  0.34014315  1
  Cl  Cl20  1  0.70865694  0.89851127  0.90955076  1
  Cl  Cl21  1  0.29134306  0.10148873  0.09044924  1
  Cl  Cl22  1  0.20865694  0.10148873  0.59044924  1
  Cl  Cl23  1  0.79134306  0.89851127  0.40955076  1
loop_
_geom_bond_atom_site_label_1
_geom_bond_atom_site_label_2
_geom_bond_distance
_geom_bond_site_symmetry_2
Cl0 Dy3 2.602536 1_565
Cl0 K0 3.255580 1_555
Cl0 K6 3.270634 1_565
Cl0 K11 3.394912 1_555
Cl0 K4 3.623385 1_555
Cl1 Dy3 2.602536 1_555
Cl1 K1 3.255580 1_555
Cl1 K7 3.270634 1_545
Cl1 K10 3.394912 1_555
Cl1 K5 3.623385 1_555
Cl2 Dy2 2.602536 1_656
Cl2 K2 3.255580 1_555
Cl2 K4 3.270634 1_545
Cl2 K9 3.394912 1_656
Cl2 K6 3.623385 1_655
Cl3 Dy2 2.602536 1_565
Cl3 K3 3.255580 1_555
Cl3 K5 3.270634 1_565
Cl3 K8 3.394912 1_454
Cl3 K7 3.623385 1_455
Cl4 Dy1 2.625946 1_556
Cl4 K8 3.157928 1_455
Cl4 K3 3.368918 1_556
Cl4 K0 3.588733 1_555
Cl4 K7 3.667037 1_556
Cl5 Dy1 2.625946 1_555
Cl5 K9 3.157928 1_655
Cl5 K2 3.368918 1_554
Cl5 K1 3.588733 1_555
Cl5 K6 3.667037 1_554
Cl6 Dy0 2.625946 1_655
Cl6 K10 3.157928 1_555
Cl6 K1 3.368918 1_555
Cl6 K2 3.588733 1_555
Cl6 K5 3.667037 1_655
Cl7 Dy0 2.625946 1_555
Cl7 K11 3.157928 1_555
Cl7 K0 3.368918 1_555
Cl7 K3 3.588733 1_555
Cl7 K4 3.667037 1_455
Cl8 Dy0 2.642122 1_655
Cl8 K0 3.096907 1_555
Cl8 K11 3.312047 1_555
Cl8 K4 3.352860 1_555
Cl8 K8 3.567742 1_555
Cl9 Dy0 2.642122 1_555
Cl9 K1 3.096907 1_555
Cl9 K10 3.312047 1_555
Cl9 K5 3.352860 1_555
Cl9 K9 3.567742 1_555
Cl10 Dy1 2.642122 1_556
Cl10 K2 3.096907 1_455
Cl10 K9 3.312047 1_556
Cl10 K6 3.352860 1_555
Cl10 K10 3.567742 1_555
Cl11 Dy1 2.642122 1_555
Cl11 K3 3.096907 1_655
Cl11 K8 3.312047 1_554
Cl11 K7 3.352860 1_555
Cl11 K11 3.567742 1_555
Cl12 Dy1 2.656132 1_556
Cl12 K8 3.163985 1_555
Cl12 K10 3.210315 1_555
Cl12 K0 3.234472 1_555
Cl12 K2 3.259354 1_555
Cl13 Dy1 2.656132 1_555
Cl13 K9 3.163985 1_555
Cl13 K11 3.210315 1_555
Cl13 K1 3.234472 1_555
Cl13 K3 3.259354 1_555
Cl14 Dy0 2.656132 1_555
Cl14 K10 3.163985 1_555
Cl14 K8 3.210315 1_455
Cl14 K2 3.234472 1_455
Cl14 K0 3.259354 1_555
Cl15 Dy0 2.656132 1_655
Cl15 K11 3.163985 1_555
Cl15 K9 3.210315 1_655
Cl15 K3 3.234472 1_655
Cl15 K1 3.259354 1_555
Cl16 Dy2 2.613194 1_566
Cl16 K0 2.998206 1_555
Cl16 K8 3.143671 1_455
Cl16 K4 3.168031 1_455
Cl17 Dy2 2.613194 1_655
Cl17 K1 2.998206 1_555
Cl17 K9 3.143671 1_655
Cl17 K5 3.168031 1_655
Cl18 Dy3 2.613194 1_555
Cl18 K2 2.998206 1_555
Cl18 K10 3.143671 1_555
Cl18 K6 3.168031 1_555
Cl19 Dy3 2.613194 1_565
Cl19 K3 2.998206 1_555
Cl19 K11 3.143671 1_555
Cl19 K7 3.168031 1_555
Cl20 Dy2 2.674775 1_666
Cl20 K7 3.173696 1_556
Cl20 K8 3.252582 1_555
Cl20 K6 3.463790 1_565
Cl20 K0 3.593230 1_555
Cl21 Dy2 2.674775 1_555
Cl21 K6 3.173696 1_554
Cl21 K9 3.252582 1_555
Cl21 K7 3.463790 1_545
Cl21 K1 3.593230 1_555
Cl22 Dy3 2.674775 1_555
Cl22 K5 3.173696 1_555
Cl22 K10 3.252582 1_555
Cl22 K4 3.463790 1_445
Cl22 K2 3.593230 1_455
Cl23 Dy3 2.674775 1_565
Cl23 K4 3.173696 1_555
Cl23 K11 3.252582 1_555
Cl23 K5 3.463790 1_665
Cl23 K3 3.593230 1_655
