# generated using pymatgen
data_Sr5Ca3Mn6(FeO10)2
_symmetry_space_group_name_H-M   'P 1'
_cell_length_a   11.04363607
_cell_length_b   11.13427458
_cell_length_c   17.79772386
_cell_angle_alpha   108.16049836
_cell_angle_beta   108.24166930
_cell_angle_gamma   89.98782774
_symmetry_Int_Tables_number   1
_chemical_formula_structural   Sr5Ca3Mn6(FeO10)2
_chemical_formula_sum   'Sr20 Ca12 Mn24 Fe8 O80'
_cell_volume   1963.41753093
_cell_formula_units_Z   4
loop_
 _symmetry_equiv_pos_site_id
 _symmetry_equiv_pos_as_xyz
  1  'x, y, z'
loop_
 _atom_site_type_symbol
 _atom_site_label
 _atom_site_symmetry_multiplicity
 _atom_site_fract_x
 _atom_site_fract_y
 _atom_site_fract_z
 _atom_site_occupancy
  Sr  Sr0  1  0.30867100  0.05701100  0.60929100  1
  Sr  Sr1  1  0.30878600  0.55812000  0.60956700  1
  Sr  Sr2  1  0.80886500  0.05818500  0.60984600  1
  Sr  Sr3  1  0.81056600  0.55829200  0.61140900  1
  Sr  Sr4  1  0.19627400  0.43974000  0.38614300  1
  Sr  Sr5  1  0.20034000  0.44356300  0.89391000  1
  Sr  Sr6  1  0.69775100  0.44110100  0.38677900  1
  Sr  Sr7  1  0.69811800  0.94094500  0.38655000  1
  Sr  Sr8  1  0.70052000  0.94246100  0.89336800  1
  Sr  Sr9  1  0.06043000  0.30229200  0.61055700  1
  Sr  Sr10  1  0.05989800  0.80243400  0.61086800  1
  Sr  Sr11  1  0.55994500  0.30352000  0.61093500  1
  Sr  Sr12  1  0.56001800  0.80215200  0.61083300  1
  Sr  Sr13  1  0.44742700  0.19699100  0.38684200  1
  Sr  Sr14  1  0.45299000  0.20205000  0.89372700  1
  Sr  Sr15  1  0.44716200  0.69643100  0.38669200  1
  Sr  Sr16  1  0.45085400  0.70166800  0.89409300  1
  Sr  Sr17  1  0.94684900  0.19506000  0.38595400  1
  Sr  Sr18  1  0.94896600  0.20115200  0.89312900  1
  Sr  Sr19  1  0.94723500  0.69728100  0.38621700  1
  Ca  Ca0  1  0.30382900  0.06090600  0.10467700  1
  Ca  Ca1  1  0.30311100  0.56461400  0.10463100  1
  Ca  Ca2  1  0.80384700  0.06200600  0.10383200  1
  Ca  Ca3  1  0.80431100  0.56263100  0.10378300  1
  Ca  Ca4  1  0.19914600  0.93917900  0.39217000  1
  Ca  Ca5  1  0.20297100  0.93884300  0.89824500  1
  Ca  Ca6  1  0.70458100  0.44117800  0.89868700  1
  Ca  Ca7  1  0.05378100  0.29146500  0.10529900  1
  Ca  Ca8  1  0.05634300  0.79273300  0.10634400  1
  Ca  Ca9  1  0.55508000  0.29122400  0.10434900  1
  Ca  Ca10  1  0.55549900  0.79194100  0.10456100  1
  Ca  Ca11  1  0.95454800  0.70930700  0.89943700  1
  Mn  Mn0  1  0.00273600  0.99895800  0.49752400  1
  Mn  Mn1  1  0.00223400  0.49949600  0.49851600  1
  Mn  Mn2  1  0.50303100  0.49943400  0.49881300  1
  Mn  Mn3  1  0.25700600  0.25112400  0.00378800  1
  Mn  Mn4  1  0.25153800  0.24762600  0.49676400  1
  Mn  Mn5  1  0.25183700  0.74871800  0.49779000  1
  Mn  Mn6  1  0.75296400  0.24994600  0.49874500  1
  Mn  Mn7  1  0.75312800  0.74907400  0.49903600  1
  Mn  Mn8  1  0.10544000  0.08936700  0.24379600  1
  Mn  Mn9  1  0.11534000  0.09486200  0.75678500  1
  Mn  Mn10  1  0.10460900  0.59672900  0.24205800  1
  Mn  Mn11  1  0.11103000  0.60428100  0.75646100  1
  Mn  Mn12  1  0.60359600  0.08998600  0.24248800  1
  Mn  Mn13  1  0.61489600  0.10268700  0.75210000  1
  Mn  Mn14  1  0.60477800  0.59154100  0.24223000  1
  Mn  Mn15  1  0.61702200  0.59707900  0.75606100  1
  Mn  Mn16  1  0.35250800  0.40236000  0.24087900  1
  Mn  Mn17  1  0.36572900  0.40576900  0.75408100  1
  Mn  Mn18  1  0.35238400  0.90185700  0.24654600  1
  Mn  Mn19  1  0.36148000  0.90597900  0.75586700  1
  Mn  Mn20  1  0.85548200  0.40159500  0.24260900  1
  Mn  Mn21  1  0.86142800  0.41108200  0.75841000  1
  Mn  Mn22  1  0.85758900  0.89936100  0.24199800  1
  Mn  Mn23  1  0.86850900  0.90110400  0.75481000  1
  Fe  Fe0  1  0.00848000  0.00101500  0.00372900  1
  Fe  Fe1  1  0.00683000  0.50176400  0.00286500  1
  Fe  Fe2  1  0.50691700  0.00177900  0.00441900  1
  Fe  Fe3  1  0.50206600  0.99956900  0.49784000  1
  Fe  Fe4  1  0.50799900  0.50173900  0.00461500  1
  Fe  Fe5  1  0.25683200  0.75350200  0.00471700  1
  Fe  Fe6  1  0.75837400  0.25351600  0.00509000  1
  Fe  Fe7  1  0.75852800  0.75093700  0.00307300  1
  O  O0  1  0.12517000  0.11847700  0.49180300  1
  O  O1  1  0.13095800  0.12301000  0.99473800  1
  O  O2  1  0.12569400  0.62386500  0.49470000  1
  O  O3  1  0.12439600  0.62572400  0.99354400  1
  O  O4  1  0.62604600  0.12491700  0.49658100  1
  O  O5  1  0.62783600  0.12514700  0.99764100  1
  O  O6  1  0.62429400  0.62297600  0.49531100  1
  O  O7  1  0.62947200  0.61985400  0.99384900  1
  O  O8  1  0.13890300  0.37885900  0.01555800  1
  O  O9  1  0.12913300  0.37361200  0.50180700  1
  O  O10  1  0.13677200  0.88104500  0.01309800  1
  O  O11  1  0.12827300  0.87578200  0.49888500  1
  O  O12  1  0.63627600  0.38103600  0.01456400  1
  O  O13  1  0.62756700  0.37528500  0.50046000  1
  O  O14  1  0.63647200  0.87977500  0.01554000  1
  O  O15  1  0.62822800  0.87461800  0.50093700  1
  O  O16  1  0.37088500  0.11887500  0.49141600  1
  O  O17  1  0.37282500  0.12104900  0.99467800  1
  O  O18  1  0.37530600  0.62202400  0.49530300  1
  O  O19  1  0.37817900  0.62317600  0.99891400  1
  O  O20  1  0.87669800  0.12307800  0.49691500  1
  O  O21  1  0.87946200  0.12202900  0.99628200  1
  O  O22  1  0.87418600  0.62367200  0.49518100  1
  O  O23  1  0.87549000  0.61888400  0.98990600  1
  O  O24  1  0.38522700  0.38123100  0.01461300  1
  O  O25  1  0.37904900  0.37588900  0.50122900  1
  O  O26  1  0.38571700  0.88523400  0.01528500  1
  O  O27  1  0.37561700  0.87542100  0.49905800  1
  O  O28  1  0.88571500  0.38533300  0.01403100  1
  O  O29  1  0.87716700  0.37477400  0.50087600  1
  O  O30  1  0.88876400  0.88235200  0.01425900  1
  O  O31  1  0.87835100  0.87689200  0.50099700  1
  O  O32  1  0.08878100  0.09263300  0.13501900  1
  O  O33  1  0.08216000  0.07932100  0.64314800  1
  O  O34  1  0.08308200  0.59533300  0.13222900  1
  O  O35  1  0.07105100  0.58136100  0.64132300  1
  O  O36  1  0.58018700  0.09600000  0.13374900  1
  O  O37  1  0.57157300  0.07777200  0.63359800  1
  O  O38  1  0.58326500  0.59542100  0.13344800  1
  O  O39  1  0.58098500  0.57802600  0.64176100  1
  O  O40  1  0.42993200  0.42064700  0.35432200  1
  O  O41  1  0.44474500  0.41881800  0.86913200  1
  O  O42  1  0.43670500  0.92503100  0.36246500  1
  O  O43  1  0.44460400  0.91970500  0.87097300  1
  O  O44  1  0.93131500  0.42261700  0.35696600  1
  O  O45  1  0.94666800  0.41400200  0.86998600  1
  O  O46  1  0.93422900  0.92252600  0.35674100  1
  O  O47  1  0.95026000  0.91146500  0.87021300  1
  O  O48  1  0.32996300  0.28810400  0.13130700  1
  O  O49  1  0.32644400  0.30718600  0.64021600  1
  O  O50  1  0.32553900  0.79161600  0.13665700  1
  O  O51  1  0.32221300  0.80970400  0.64115700  1
  O  O52  1  0.83586700  0.28836900  0.13419000  1
  O  O53  1  0.82609600  0.31639700  0.64385000  1
  O  O54  1  0.83669700  0.78614300  0.13339400  1
  O  O55  1  0.82611900  0.80749300  0.63959400  1
  O  O56  1  0.18077700  0.18905900  0.35693700  1
  O  O57  1  0.19410600  0.20533400  0.87154300  1
  O  O58  1  0.18130100  0.69303100  0.35619600  1
  O  O59  1  0.19609100  0.70960000  0.87012100  1
  O  O60  1  0.68071500  0.18324200  0.35663900  1
  O  O61  1  0.69167000  0.20878000  0.86803200  1
  O  O62  1  0.68113700  0.68514100  0.35640500  1
  O  O63  1  0.69719400  0.70513900  0.86847900  1
  O  O64  1  0.42655000  0.06203700  0.23866000  1
  O  O65  1  0.43919700  0.06520600  0.75317000  1
  O  O66  1  0.42731600  0.56500500  0.23722600  1
  O  O67  1  0.44253400  0.56971800  0.75328300  1
  O  O68  1  0.92784800  0.06458300  0.23700900  1
  O  O69  1  0.94025800  0.06762200  0.75303600  1
  O  O70  1  0.92882200  0.56471200  0.23758500  1
  O  O71  1  0.93873400  0.57927900  0.76297000  1
  O  O72  1  0.17764400  0.42645800  0.23817900  1
  O  O73  1  0.19268300  0.44173500  0.75434000  1
  O  O74  1  0.17667600  0.92006500  0.24695800  1
  O  O75  1  0.18691200  0.92917100  0.76182200  1
  O  O76  1  0.67797700  0.42333900  0.23742900  1
  O  O77  1  0.68753800  0.42870500  0.76169800  1
  O  O78  1  0.68004700  0.92325300  0.23742400  1
  O  O79  1  0.69463000  0.93989200  0.75423200  1
loop_
_geom_bond_atom_site_label_1
_geom_bond_atom_site_label_2
_geom_bond_distance
_geom_bond_site_symmetry_2
Ca0 O64 2.341207 1_555
Ca0 O48 2.423743 1_555
Ca0 O26 2.476903 1_545
Ca0 O10 2.480949 1_545
Ca0 O1 2.540799 1_554
Ca0 O17 2.571589 1_554
Ca0 O32 2.596200 1_555
Ca0 O36 2.936143 1_555
Ca1 O66 2.327586 1_555
Ca1 O50 2.405898 1_555
Ca1 O8 2.497468 1_555
Ca1 O19 2.528654 1_554
Ca1 O24 2.535329 1_555
Ca1 O3 2.581142 1_554
Ca1 O34 2.627716 1_555
Ca1 O38 2.974963 1_555
Ca2 O68 2.328037 1_555
Ca2 O52 2.408572 1_555
Ca2 O14 2.489680 1_545
Ca2 O30 2.523790 1_545
Ca2 O5 2.524342 1_554
Ca2 O21 2.570272 1_554
Ca2 O36 2.687956 1_555
Ca3 O70 2.340479 1_555
Ca3 O54 2.379879 1_555
Ca3 O28 2.487857 1_555
Ca3 O12 2.491735 1_555
Ca3 O7 2.524631 1_554
Ca3 O23 2.628091 1_554
Ca3 O38 2.656618 1_555
Ca3 O34 2.962554 1_655
Ca4 O74 2.458022 1_555
Ca4 O16 2.534084 1_565
Ca4 O27 2.537963 1_555
Ca4 O11 2.546522 1_555
Ca4 O0 2.548880 1_565
Ca4 O58 2.605282 1_555
Ca4 O46 2.786362 1_455
Ca4 O42 2.829027 1_555
Ca4 O56 3.030321 1_565
Ca5 O75 2.346435 1_555
Ca5 O59 2.439508 1_555
Ca5 O17 2.528966 1_565
Ca5 O1 2.538854 1_565
Ca5 O10 2.623517 1_556
Ca5 O26 2.628892 1_556
Ca5 O47 2.676664 1_455
Ca5 O43 2.854488 1_555
Ca6 O77 2.345349 1_555
Ca6 O61 2.466781 1_555
Ca6 O23 2.488769 1_555
Ca6 O7 2.508547 1_555
Ca6 O28 2.612788 1_556
Ca6 O12 2.665661 1_556
Ca6 O41 2.747108 1_555
Ca6 O45 2.873758 1_555
Ca7 O72 2.341601 1_555
Ca7 O32 2.435554 1_555
Ca7 O8 2.508136 1_555
Ca7 O28 2.519091 1_455
Ca7 O21 2.532013 1_454
Ca7 O52 2.615897 1_455
Ca7 O1 2.620119 1_554
Ca7 O48 2.940300 1_555
Ca8 O34 2.382430 1_555
Ca8 O74 2.397094 1_555
Ca8 O30 2.495292 1_455
Ca8 O10 2.539765 1_555
Ca8 O3 2.582625 1_554
Ca8 O54 2.621894 1_455
Ca8 O23 2.634465 1_454
Ca8 O50 2.851213 1_555
Ca9 O76 2.330728 1_555
Ca9 O36 2.386098 1_555
Ca9 O24 2.488982 1_555
Ca9 O12 2.500221 1_555
Ca9 O5 2.537186 1_554
Ca9 O17 2.586094 1_554
Ca9 O48 2.677562 1_555
Ca9 O52 2.979624 1_555
Ca10 O78 2.330372 1_555
Ca10 O38 2.397589 1_555
Ca10 O14 2.473772 1_555
Ca10 O26 2.506425 1_555
Ca10 O19 2.528853 1_554
Ca10 O7 2.621996 1_554
Ca10 O50 2.772251 1_555
Ca10 O54 2.989014 1_555
Ca11 O71 2.359707 1_555
Ca11 O47 2.460399 1_555
Ca11 O3 2.488734 1_655
Ca11 O23 2.501893 1_555
Ca11 O10 2.615371 1_656
Ca11 O30 2.625016 1_556
Ca11 O63 2.717931 1_555
Ca11 O59 2.874068 1_655
Mn0 O0 1.944459 1_565
Mn0 O11 1.949993 1_555
Mn0 O31 1.960685 1_455
Mn0 O20 1.961253 1_465
Mn0 O46 2.249227 1_455
Mn0 O33 2.327830 1_565
Mn1 O2 1.974477 1_555
Mn1 O29 1.977729 1_455
Mn1 O22 1.978038 1_455
Mn1 O9 1.982659 1_555
Mn1 O44 2.261328 1_455
Mn1 O35 2.283684 1_555
Mn2 O6 1.948312 1_555
Mn2 O13 1.949970 1_555
Mn2 O25 1.960447 1_555
Mn2 O18 1.963112 1_555
Mn2 O39 2.284930 1_555
Mn2 O40 2.308418 1_555
Mn3 O1 1.927619 1_554
Mn3 O17 1.934555 1_554
Mn3 O8 1.937098 1_555
Mn3 O24 1.948570 1_555
Mn3 O48 2.059704 1_555
Mn3 O57 2.123851 1_554
Mn4 O16 1.947817 1_555
Mn4 O9 1.949313 1_555
Mn4 O0 1.966658 1_555
Mn4 O25 1.972021 1_555
Mn4 O56 2.236105 1_555
Mn4 O49 2.294577 1_555
Mn5 O2 1.944583 1_555
Mn5 O27 1.954741 1_555
Mn5 O18 1.961934 1_555
Mn5 O11 1.965376 1_555
Mn5 O58 2.266963 1_555
Mn5 O51 2.292262 1_555
Mn6 O29 1.936489 1_555
Mn6 O4 1.958990 1_555
Mn6 O20 1.965214 1_555
Mn6 O13 1.966058 1_555
Mn6 O60 2.269550 1_555
Mn6 O53 2.317881 1_555
Mn7 O22 1.933526 1_555
Mn7 O15 1.963830 1_555
Mn7 O31 1.969447 1_555
Mn7 O6 1.970726 1_555
Mn7 O55 2.248197 1_555
Mn7 O62 2.278846 1_555
Mn8 O56 1.880782 1_555
Mn8 O32 1.898446 1_555
Mn8 O68 1.941242 1_455
Mn8 O74 2.052629 1_545
Mn9 O33 1.890118 1_555
Mn9 O69 1.934397 1_455
Mn9 O57 1.939925 1_555
Mn9 O75 2.023456 1_545
Mn10 O58 1.886561 1_555
Mn10 O34 1.888854 1_555
Mn10 O70 1.946284 1_455
Mn10 O72 2.049920 1_555
Mn11 O35 1.888624 1_555
Mn11 O59 1.918785 1_555
Mn11 O71 1.967179 1_455
Mn11 O73 2.016951 1_555
Mn12 O60 1.879667 1_555
Mn12 O36 1.893219 1_555
Mn12 O64 1.956543 1_555
Mn12 O78 2.027325 1_545
Mn13 O61 1.938412 1_555
Mn13 O37 1.938463 1_555
Mn13 O65 1.991967 1_555
Mn13 O79 2.020798 1_545
Mn14 O62 1.879879 1_555
Mn14 O38 1.889670 1_555
Mn14 O66 1.952105 1_555
Mn14 O76 2.027570 1_555
Mn15 O39 1.888347 1_555
Mn15 O63 1.904071 1_555
Mn15 O67 1.933837 1_555
Mn15 O77 2.049101 1_555
Mn16 O40 1.874047 1_555
Mn16 O48 1.906062 1_555
Mn16 O72 1.937344 1_555
Mn16 O66 2.018389 1_555
Mn17 O49 1.887609 1_555
Mn17 O41 1.916088 1_555
Mn17 O73 1.953603 1_555
Mn17 O67 2.018984 1_555
Mn18 O50 1.886874 1_555
Mn18 O42 1.911963 1_555
Mn18 O74 1.953032 1_555
Mn18 O64 2.024851 1_565
Mn19 O51 1.893911 1_555
Mn19 O43 1.921056 1_555
Mn19 O75 1.976164 1_555
Mn19 O65 1.990358 1_565
Mn20 O44 1.880049 1_555
Mn20 O52 1.892533 1_555
Mn20 O76 1.952040 1_555
Mn20 O70 2.027249 1_555
Mn21 O53 1.892887 1_555
Mn21 O45 1.902648 1_555
Mn21 O77 1.947515 1_555
Mn21 O71 2.026133 1_555
Mn22 O46 1.882280 1_555
Mn22 O54 1.892221 1_555
Mn22 O78 1.958348 1_555
Mn22 O68 2.034630 1_565
Mn23 O55 1.891383 1_555
Mn23 O47 1.933493 1_555
Mn23 O79 1.965721 1_555
Mn23 O69 2.029569 1_565
Fe0 O10 1.951819 1_545
Fe0 O30 1.959317 1_445
Fe0 O21 1.963536 1_454
Fe0 O1 1.992979 1_554
Fe0 O32 2.122326 1_555
Fe0 O47 2.149669 1_444
Fe1 O23 1.958275 1_454
Fe1 O28 1.958791 1_455
Fe1 O3 1.973967 1_554
Fe1 O8 2.009155 1_555
Fe1 O34 2.094475 1_555
Fe1 O45 2.136649 1_454
Fe2 O26 1.957564 1_545
Fe2 O5 1.972193 1_554
Fe2 O14 1.980165 1_545
Fe2 O17 1.992111 1_554
Fe2 O36 2.093461 1_555
Fe2 O43 2.138589 1_544
Fe3 O4 1.965340 1_565
Fe3 O16 1.966372 1_565
Fe3 O15 1.969450 1_555
Fe3 O27 1.974781 1_555
Fe3 O42 2.163297 1_555
Fe3 O37 2.170954 1_565
Fe4 O12 1.958291 1_555
Fe4 O7 1.970953 1_554
Fe4 O19 1.971695 1_554
Fe4 O24 1.992732 1_555
Fe4 O38 2.086324 1_555
Fe4 O41 2.170874 1_554
Fe5 O10 1.946256 1_555
Fe5 O3 1.960927 1_554
Fe5 O26 1.968240 1_555
Fe5 O19 1.976011 1_554
Fe5 O50 2.129197 1_555
Fe5 O59 2.165999 1_554
Fe6 O12 1.963383 1_555
Fe6 O28 1.967820 1_555
Fe6 O5 1.975302 1_554
Fe6 O21 1.985823 1_554
Fe6 O52 2.091801 1_555
Fe6 O61 2.204275 1_554
Fe7 O23 1.964461 1_554
Fe7 O30 1.972133 1_555
Fe7 O7 1.973197 1_554
Fe7 O14 1.977885 1_555
Fe7 O54 2.111503 1_555
Fe7 O63 2.163327 1_554
O0 Sr17 2.613863 1_455
O0 Sr0 2.680689 1_555
O0 Sr9 2.723231 1_555
O1 Sr18 2.602199 1_455
O2 Sr19 2.623182 1_455
O2 Sr4 2.648848 1_555
O2 Sr10 2.670803 1_555
O2 Sr1 2.673598 1_555
O3 Sr5 2.578755 1_555
O4 Sr13 2.629474 1_555
O4 Sr11 2.652598 1_555
O4 Sr2 2.660277 1_555
O4 Sr7 2.671886 1_545
O5 Sr14 2.575427 1_555
O5 Sr8 2.608575 1_545
O6 Sr15 2.617271 1_555
O6 Sr6 2.651801 1_555
O6 Sr12 2.658448 1_555
O6 Sr3 2.699240 1_555
O7 Sr16 2.586103 1_555
O8 Sr18 2.741457 1_454
O8 Sr5 2.749364 1_554
O9 Sr9 2.613455 1_555
O9 Sr1 2.645468 1_555
O9 Sr17 2.665359 1_455
O9 Sr4 2.688905 1_555
O11 Sr19 2.641170 1_455
O11 Sr0 2.642190 1_565
O11 Sr10 2.677021 1_555
O12 Sr14 2.701598 1_554
O13 Sr11 2.638373 1_555
O13 Sr13 2.639792 1_555
O13 Sr3 2.670348 1_555
O13 Sr6 2.671633 1_555
O14 Sr16 2.713404 1_554
O14 Sr8 2.761251 1_554
O15 Sr12 2.636360 1_555
O15 Sr15 2.647756 1_555
O15 Sr2 2.650574 1_565
O15 Sr7 2.684566 1_555
O16 Sr13 2.632367 1_555
O16 Sr0 2.674159 1_555
O16 Sr11 2.757919 1_555
O17 Sr14 2.613727 1_555
O18 Sr4 2.634738 1_555
O18 Sr15 2.647939 1_555
O18 Sr1 2.649365 1_555
O18 Sr12 2.686376 1_555
O19 Sr5 2.592935 1_555
O19 Sr16 2.615789 1_555
O20 Sr7 2.636971 1_545
O20 Sr2 2.640289 1_555
O20 Sr17 2.662204 1_555
O20 Sr9 2.665755 1_655
O21 Sr18 2.574199 1_555
O21 Sr8 2.590440 1_545
O22 Sr6 2.618119 1_555
O22 Sr19 2.655931 1_555
O22 Sr3 2.674219 1_555
O22 Sr10 2.685282 1_655
O24 Sr5 2.729168 1_554
O24 Sr14 2.738771 1_554
O25 Sr1 2.633267 1_555
O25 Sr11 2.643983 1_555
O25 Sr4 2.663443 1_555
O25 Sr13 2.667674 1_555
O26 Sr16 2.751353 1_554
O27 Sr0 2.630279 1_565
O27 Sr15 2.664506 1_555
O27 Sr12 2.691624 1_555
O28 Sr18 2.741028 1_554
O29 Sr3 2.643051 1_555
O29 Sr6 2.647678 1_555
O29 Sr9 2.658189 1_655
O29 Sr17 2.685722 1_555
O30 Sr8 2.737849 1_554
O31 Sr2 2.628472 1_565
O31 Sr7 2.643127 1_555
O31 Sr10 2.662002 1_655
O31 Sr19 2.678960 1_555
O33 Sr9 2.714352 1_555
O33 Sr0 2.744529 1_555
O33 Sr2 2.882613 1_455
O33 Sr10 2.950053 1_545
O35 Sr10 2.675378 1_555
O35 Sr3 2.753375 1_455
O35 Sr1 2.849026 1_555
O35 Sr9 2.977889 1_555
O37 Sr11 2.663923 1_555
O37 Sr2 2.780190 1_555
O37 Sr0 2.796764 1_555
O37 Sr12 2.964941 1_545
O39 Sr12 2.712980 1_555
O39 Sr3 2.748020 1_555
O39 Sr1 2.873441 1_555
O39 Sr11 2.927786 1_555
O40 Sr13 2.720642 1_555
O40 Sr4 2.804319 1_555
O40 Sr6 2.825272 1_555
O40 Sr15 2.936989 1_555
O41 Sr14 2.580442 1_555
O41 Sr5 2.867884 1_555
O41 Sr16 3.037989 1_555
O42 Sr15 2.707512 1_555
O42 Sr7 2.779883 1_555
O42 Sr13 2.918999 1_565
O43 Sr16 2.583135 1_555
O43 Sr8 2.728155 1_555
O43 Sr14 3.039492 1_565
O44 Sr17 2.733934 1_555
O44 Sr6 2.786704 1_555
O44 Sr4 2.802745 1_655
O44 Sr19 2.933412 1_555
O45 Sr18 2.527607 1_555
O45 Sr5 2.702604 1_655
O46 Sr19 2.712640 1_555
O46 Sr7 2.814377 1_555
O46 Sr17 2.910170 1_565
O47 Sr8 2.918599 1_555
O47 Sr18 3.123091 1_565
O49 Sr0 2.660352 1_555
O49 Sr11 2.784054 1_555
O49 Sr9 2.814845 1_555
O49 Sr1 3.004172 1_555
O51 Sr1 2.674151 1_555
O51 Sr10 2.772088 1_555
O51 Sr12 2.838028 1_555
O51 Sr0 2.974298 1_565
O53 Sr2 2.740738 1_555
O53 Sr11 2.805872 1_555
O53 Sr9 2.823972 1_655
O53 Sr3 2.919581 1_555
O55 Sr3 2.656798 1_555
O55 Sr10 2.781805 1_655
O55 Sr12 2.817977 1_555
O55 Sr2 2.994272 1_565
O56 Sr4 2.670228 1_555
O56 Sr17 2.785477 1_455
O56 Sr13 2.820003 1_555
O57 Sr5 2.554155 1_555
O57 Sr14 2.762876 1_555
O57 Sr18 2.853286 1_455
O58 Sr19 2.796157 1_455
O58 Sr15 2.811782 1_555
O58 Sr4 3.024341 1_555
O59 Sr16 2.716165 1_555
O59 Sr5 3.118485 1_555
O60 Sr6 2.746490 1_555
O60 Sr13 2.786667 1_555
O60 Sr17 2.815158 1_555
O60 Sr7 2.903350 1_545
O61 Sr18 2.740386 1_555
O61 Sr14 2.817587 1_555
O61 Sr8 3.132330 1_545
O62 Sr7 2.723949 1_555
O62 Sr15 2.795121 1_555
O62 Sr19 2.813360 1_555
O62 Sr6 2.926168 1_555
O63 Sr8 2.537736 1_555
O63 Sr16 2.897900 1_555
O64 Sr13 2.532897 1_555
O65 Sr14 2.447094 1_555
O65 Sr0 2.487364 1_555
O66 Sr15 2.544481 1_555
O67 Sr16 2.451160 1_555
O67 Sr1 2.483898 1_555
O68 Sr17 2.536334 1_555
O69 Sr18 2.444501 1_555
O69 Sr2 2.475736 1_555
O70 Sr19 2.539123 1_555
O71 Sr3 2.559527 1_555
O72 Sr4 2.533212 1_555
O73 Sr5 2.452538 1_555
O73 Sr9 2.505330 1_555
O75 Sr10 2.540694 1_555
O76 Sr6 2.541883 1_555
O77 Sr11 2.535845 1_555
O78 Sr7 2.542715 1_555
O79 Sr8 2.447884 1_555
O79 Sr12 2.502283 1_555
