# generated using pymatgen
data_Sc2NiPd
_symmetry_space_group_name_H-M   'P 1'
_cell_length_a   4.57009665
_cell_length_b   4.57009665
_cell_length_c   4.57009665
_cell_angle_alpha   60.00000000
_cell_angle_beta   60.00000000
_cell_angle_gamma   60.00000000
_symmetry_Int_Tables_number   1
_chemical_formula_structural   Sc2NiPd
_chemical_formula_sum   'Sc2 Ni1 Pd1'
_cell_volume   67.49337659
_cell_formula_units_Z   1
loop_
 _symmetry_equiv_pos_site_id
 _symmetry_equiv_pos_as_xyz
  1  'x, y, z'
loop_
 _atom_site_type_symbol
 _atom_site_label
 _atom_site_symmetry_multiplicity
 _atom_site_fract_x
 _atom_site_fract_y
 _atom_site_fract_z
 _atom_site_occupancy
  Sc  Sc0  1  0.25000000  0.25000000  0.25000000  1
  Sc  Sc1  1  0.75000000  0.75000000  0.75000000  1
  Ni  Ni0  1  0.50000000  0.50000000  0.50000000  1
  Pd  Pd0  1  -0.00000000  -0.00000000  -0.00000000  1
loop_
_geom_bond_atom_site_label_1
_geom_bond_atom_site_label_2
_geom_bond_distance
_geom_bond_site_symmetry_2
Ni0 Sc0 2.798601 1_565
Ni0 Sc0 2.798601 1_655
Ni0 Sc1 2.798601 1_545
Ni0 Sc1 2.798601 1_455
Ni0 Sc0 2.798601 1_556
Ni0 Sc1 2.798601 1_554
Ni0 Sc1 2.798601 1_555
Ni0 Sc0 2.798601 1_555
Pd0 Sc1 2.798601 1_544
Pd0 Sc0 2.798601 1_455
Pd0 Sc1 2.798601 1_454
Pd0 Sc0 2.798601 1_545
Pd0 Sc1 2.798601 1_445
Pd0 Sc1 2.798601 1_444
Pd0 Sc0 2.798601 1_554
Pd0 Sc0 2.798601 1_555
