# generated using pymatgen
data_Li5Mn2CoO8
_symmetry_space_group_name_H-M   'P 1'
_cell_length_a   2.90268700
_cell_length_b   5.94883500
_cell_length_c   8.27262806
_cell_angle_alpha   89.49599930
_cell_angle_beta   90.00000000
_cell_angle_gamma   90.00000000
_symmetry_Int_Tables_number   1
_chemical_formula_structural   Li5Mn2CoO8
_chemical_formula_sum   'Li5 Mn2 Co1 O8'
_cell_volume   142.84295542
_cell_formula_units_Z   1
loop_
 _symmetry_equiv_pos_site_id
 _symmetry_equiv_pos_as_xyz
  1  'x, y, z'
loop_
 _atom_site_type_symbol
 _atom_site_label
 _atom_site_symmetry_multiplicity
 _atom_site_fract_x
 _atom_site_fract_y
 _atom_site_fract_z
 _atom_site_occupancy
  Li  Li0  1  0.00000000  0.00200800  0.49387000  1
  Li  Li1  1  0.50000000  0.26475500  0.26693900  1
  Li  Li2  1  0.00000000  0.50190100  0.00801600  1
  Li  Li3  1  0.50000000  0.74203900  0.72821300  1
  Li  Li4  1  0.00000000  0.49703200  0.49458000  1
  Mn  Mn0  1  0.00000000  0.99888700  0.00373500  1
  Mn  Mn1  1  0.50000000  0.25430900  0.73981600  1
  Co  Co0  1  0.50000000  0.73485000  0.27599000  1
  O  O0  1  0.00000000  0.51229400  0.24267700  1
  O  O1  1  0.50000000  0.78306900  0.99464300  1
  O  O2  1  0.00000000  0.02545700  0.76153300  1
  O  O3  1  0.50000000  0.24762600  0.52257200  1
  O  O4  1  0.00000000  0.46860800  0.75663300  1
  O  O5  1  0.50000000  0.75504600  0.49092200  1
  O  O6  1  0.00000000  0.99042800  0.22952500  1
  O  O7  1  0.50000000  0.22169200  0.99033600  1
loop_
_geom_bond_atom_site_label_1
_geom_bond_atom_site_label_2
_geom_bond_distance
_geom_bond_site_symmetry_2
Li0 O5 2.065426 1_445
Li0 O5 2.065426 1_545
Li0 O3 2.074563 1_555
Li0 O3 2.074563 1_455
Li0 O6 2.188518 1_545
Li0 O2 2.219890 1_555
Li1 O0 2.076040 1_555
Li1 O0 2.076040 1_655
Li1 O3 2.116315 1_555
Li1 O6 2.207774 1_545
Li1 O6 2.207774 1_645
Li1 O7 2.304767 1_554
Li2 O0 1.942791 1_555
Li2 O4 2.090741 1_554
Li2 O7 2.216008 1_554
Li2 O7 2.216008 1_454
Li2 O1 2.216539 1_554
Li2 O1 2.216539 1_454
Li3 O5 1.963864 1_555
Li3 O4 2.191064 1_555
Li3 O4 2.191064 1_655
Li3 O1 2.219683 1_555
Li3 O2 2.243473 1_565
Li3 O2 2.243473 1_665
Li4 O0 2.085079 1_555
Li4 O3 2.086928 1_455
Li4 O3 2.086928 1_555
Li4 O5 2.112430 1_455
Li4 O5 2.112430 1_555
Li4 O4 2.172968 1_555
Mn0 O6 1.868112 1_555
Mn0 O1 1.939604 1_454
Mn0 O1 1.939604 1_554
Mn0 O7 1.967960 1_564
Mn0 O7 1.967960 1_464
Mn0 O2 2.008485 1_564
Mn1 O3 1.797968 1_555
Mn1 O4 1.937540 1_555
Mn1 O4 1.937540 1_655
Mn1 O2 1.996945 1_555
Mn1 O2 1.996945 1_655
Mn1 O7 2.079822 1_555
Co0 O5 1.783161 1_555
Co0 O0 1.985348 1_555
Co0 O0 1.985348 1_655
Co0 O6 2.134352 1_555
Co0 O6 2.134352 1_655
Co0 O1 2.342583 1_554
