# generated using pymatgen
data_Be3P2
_symmetry_space_group_name_H-M   'P 1'
_cell_length_a   5.07838500
_cell_length_b   5.07838500
_cell_length_c   5.07838500
_cell_angle_alpha   90.00000000
_cell_angle_beta   90.00000000
_cell_angle_gamma   90.00000000
_symmetry_Int_Tables_number   1
_chemical_formula_structural   Be3P2
_chemical_formula_sum   'Be6 P4'
_cell_volume   130.97151974
_cell_formula_units_Z   2
loop_
 _symmetry_equiv_pos_site_id
 _symmetry_equiv_pos_as_xyz
  1  'x, y, z'
loop_
 _atom_site_type_symbol
 _atom_site_label
 _atom_site_symmetry_multiplicity
 _atom_site_fract_x
 _atom_site_fract_y
 _atom_site_fract_z
 _atom_site_occupancy
  Be  Be0  1  0.00000000  0.00000000  0.50000000  1
  Be  Be1  1  0.00000000  0.50000000  0.00000000  1
  Be  Be2  1  0.50000000  0.00000000  0.00000000  1
  Be  Be3  1  0.50000000  0.00000000  0.50000000  1
  Be  Be4  1  0.50000000  0.50000000  0.00000000  1
  Be  Be5  1  0.00000000  0.50000000  0.50000000  1
  P  P0  1  0.75000000  0.75000000  0.25000000  1
  P  P1  1  0.25000000  0.75000000  0.75000000  1
  P  P2  1  0.75000000  0.25000000  0.75000000  1
  P  P3  1  0.25000000  0.25000000  0.25000000  1
loop_
_geom_bond_atom_site_label_1
_geom_bond_atom_site_label_2
_geom_bond_distance
_geom_bond_site_symmetry_2
Be0 P0 2.199005 1_445
Be0 P1 2.199005 1_545
Be0 P3 2.199005 1_555
Be0 P2 2.199005 1_455
Be1 P2 2.199005 1_454
Be1 P0 2.199005 1_455
Be1 P3 2.199005 1_555
Be1 P1 2.199005 1_554
Be2 P3 2.199005 1_555
Be2 P1 2.199005 1_544
Be2 P0 2.199005 1_545
Be2 P2 2.199005 1_554
Be3 P2 2.199005 1_555
Be3 P1 2.199005 1_545
Be3 P0 2.199005 1_545
Be3 P3 2.199005 1_555
Be4 P0 2.199005 1_555
Be4 P3 2.199005 1_555
Be4 P2 2.199005 1_554
Be4 P1 2.199005 1_554
Be5 P3 2.199005 1_555
Be5 P0 2.199005 1_455
Be5 P1 2.199005 1_555
Be5 P2 2.199005 1_455
