# generated using pymatgen
data_CaV4(CoO7)2
_symmetry_space_group_name_H-M   'P 1'
_cell_length_a   14.65675800
_cell_length_b   6.82263700
_cell_length_c   11.25838847
_cell_angle_alpha   78.50778823
_cell_angle_beta   90.00000000
_cell_angle_gamma   90.00000000
_symmetry_Int_Tables_number   1
_chemical_formula_structural   CaV4(CoO7)2
_chemical_formula_sum   'Ca4 V16 Co8 O56'
_cell_volume   1103.24285987
_cell_formula_units_Z   4
loop_
 _symmetry_equiv_pos_site_id
 _symmetry_equiv_pos_as_xyz
  1  'x, y, z'
loop_
 _atom_site_type_symbol
 _atom_site_label
 _atom_site_symmetry_multiplicity
 _atom_site_fract_x
 _atom_site_fract_y
 _atom_site_fract_z
 _atom_site_occupancy
  Ca  Ca0  1  0.87640800  0.67477700  0.97187400  1
  Ca  Ca1  1  0.37640800  0.32522300  0.52812600  1
  Ca  Ca2  1  0.12359200  0.32522300  0.02812600  1
  Ca  Ca3  1  0.62359200  0.67477700  0.47187400  1
  V  V0  1  0.86516900  0.15921100  0.98166300  1
  V  V1  1  0.00875900  0.58172900  0.68674500  1
  V  V2  1  0.49124100  0.58172900  0.18674500  1
  V  V3  1  0.99124100  0.41827100  0.31325500  1
  V  V4  1  0.70364100  0.49253500  0.79377900  1
  V  V5  1  0.20364100  0.50746500  0.70622100  1
  V  V6  1  0.29635900  0.50746500  0.20622100  1
  V  V7  1  0.79635900  0.49253500  0.29377900  1
  V  V8  1  0.50875900  0.41827100  0.81325500  1
  V  V9  1  0.13687100  0.12726200  0.48070200  1
  V  V10  1  0.63687100  0.87273800  0.01929800  1
  V  V11  1  0.86312900  0.87273800  0.51929800  1
  V  V12  1  0.36516900  0.84078900  0.51833700  1
  V  V13  1  0.63483100  0.15921100  0.48166300  1
  V  V14  1  0.13483100  0.84078900  0.01833700  1
  V  V15  1  0.36312900  0.12726200  0.98070200  1
  Co  Co0  1  0.67087200  0.36149800  0.07851300  1
  Co  Co1  1  0.17087200  0.63850200  0.42148700  1
  Co  Co2  1  0.32912800  0.63850200  0.92148700  1
  Co  Co3  1  0.82912800  0.36149800  0.57851300  1
  Co  Co4  1  0.75598400  0.00252500  0.24752100  1
  Co  Co5  1  0.25598400  0.99747500  0.25247900  1
  Co  Co6  1  0.24401600  0.99747500  0.75247900  1
  Co  Co7  1  0.74401600  0.00252500  0.74752100  1
  O  O0  1  0.97229200  0.24920100  0.97105900  1
  O  O1  1  0.47229200  0.75079900  0.52894100  1
  O  O2  1  0.02770800  0.75079900  0.02894100  1
  O  O3  1  0.52770800  0.24920100  0.47105900  1
  O  O4  1  0.84012000  0.00750600  0.87519800  1
  O  O5  1  0.34012000  0.99249400  0.62480200  1
  O  O6  1  0.15988000  0.99249400  0.12480200  1
  O  O7  1  0.65988000  0.00750600  0.37519800  1
  O  O8  1  0.84622100  0.00782700  0.12504800  1
  O  O9  1  0.34622100  0.99217300  0.37495200  1
  O  O10  1  0.15377900  0.99217300  0.87495200  1
  O  O11  1  0.65377900  0.00782700  0.62504800  1
  O  O12  1  0.29089600  0.33304400  0.95115900  1
  O  O13  1  0.79089600  0.66695600  0.54884100  1
  O  O14  1  0.70910400  0.66695600  0.04884100  1
  O  O15  1  0.20910400  0.33304400  0.45115900  1
  O  O16  1  0.35552500  0.02108600  0.12953100  1
  O  O17  1  0.85552500  0.97891400  0.37046900  1
  O  O18  1  0.64447500  0.97891400  0.87046900  1
  O  O19  1  0.14447500  0.02108600  0.62953100  1
  O  O20  1  0.33494300  0.94041900  0.89389300  1
  O  O21  1  0.43388400  0.60474700  0.83327100  1
  O  O22  1  0.83494300  0.05958100  0.60610700  1
  O  O23  1  0.16505700  0.94041900  0.39389300  1
  O  O24  1  0.46939600  0.30918200  0.70539400  1
  O  O25  1  0.96939600  0.69081800  0.79460600  1
  O  O26  1  0.53060400  0.69081800  0.29460600  1
  O  O27  1  0.03060400  0.30918200  0.20539400  1
  O  O28  1  0.47357200  0.22597500  0.94793400  1
  O  O29  1  0.97357200  0.77402500  0.55206600  1
  O  O30  1  0.52642800  0.77402500  0.05206600  1
  O  O31  1  0.02642800  0.22597500  0.44793400  1
  O  O32  1  0.89318900  0.56088700  0.20281300  1
  O  O33  1  0.39318900  0.43911300  0.29718700  1
  O  O34  1  0.10681100  0.43911300  0.79718700  1
  O  O35  1  0.60681100  0.56088700  0.70281300  1
  O  O36  1  0.74895800  0.30593200  0.22198700  1
  O  O37  1  0.24895800  0.69406800  0.27801300  1
  O  O38  1  0.25104200  0.69406800  0.77801300  1
  O  O39  1  0.75104200  0.30593200  0.72198700  1
  O  O40  1  0.71022600  0.36942000  0.46307400  1
  O  O41  1  0.21022600  0.63058000  0.03692600  1
  O  O42  1  0.28977400  0.63058000  0.53692600  1
  O  O43  1  0.78977400  0.36942000  0.96307400  1
  O  O44  1  0.73420900  0.70586900  0.29060000  1
  O  O45  1  0.23420900  0.29413100  0.20940000  1
  O  O46  1  0.26579100  0.29413100  0.70940000  1
  O  O47  1  0.76579100  0.70586900  0.79060000  1
  O  O48  1  0.87774400  0.40339600  0.41335200  1
  O  O49  1  0.37774400  0.59660400  0.08664800  1
  O  O50  1  0.12225600  0.59660400  0.58664800  1
  O  O51  1  0.62225600  0.40339600  0.91335200  1
  O  O52  1  0.06611600  0.60474700  0.33327100  1
  O  O53  1  0.56611600  0.39525300  0.16672900  1
  O  O54  1  0.93388400  0.39525300  0.66672900  1
  O  O55  1  0.66505700  0.05958100  0.10610700  1
loop_
_geom_bond_atom_site_label_1
_geom_bond_atom_site_label_2
_geom_bond_distance
_geom_bond_site_symmetry_2
Ca0 O4 2.374088 1_565
Ca0 O2 2.394200 1_656
Ca0 O25 2.401140 1_555
Ca0 O43 2.458595 1_555
Ca0 O32 2.572791 1_556
Ca0 O47 2.581888 1_555
Ca0 O14 2.597739 1_556
Ca1 O5 2.374088 1_545
Ca1 O3 2.394200 1_555
Ca1 O24 2.401140 1_555
Ca1 O42 2.458595 1_555
Ca1 O33 2.572791 1_555
Ca1 O46 2.581888 1_555
Ca1 O15 2.597739 1_555
Ca2 O6 2.374088 1_545
Ca2 O0 2.394200 1_454
Ca2 O27 2.401140 1_555
Ca2 O41 2.458595 1_555
Ca2 O34 2.572791 1_554
Ca2 O45 2.581888 1_555
Ca2 O12 2.597739 1_554
Ca3 O7 2.374088 1_565
Ca3 O1 2.394200 1_555
Ca3 O26 2.401140 1_555
Ca3 O40 2.458595 1_555
Ca3 O35 2.572791 1_555
Ca3 O44 2.581888 1_555
Ca3 O13 2.597739 1_555
Co0 O53 1.867610 1_555
Co0 O36 1.954153 1_555
Co0 O51 1.958363 1_554
Co0 O55 2.022832 1_555
Co0 O14 2.119284 1_555
Co0 O43 2.168203 1_554
Co1 O52 1.867610 1_555
Co1 O37 1.954153 1_555
Co1 O50 1.958363 1_555
Co1 O23 2.022832 1_555
Co1 O15 2.119284 1_555
Co1 O42 2.168203 1_555
Co2 O21 1.867610 1_555
Co2 O38 1.954153 1_555
Co2 O49 1.958363 1_556
Co2 O20 2.022832 1_555
Co2 O12 2.119284 1_555
Co2 O41 2.168203 1_556
Co3 O54 1.867610 1_555
Co3 O39 1.954153 1_555
Co3 O48 1.958363 1_555
Co3 O22 2.022832 1_555
Co3 O13 2.119284 1_555
Co3 O40 2.168203 1_555
Co4 O8 1.905749 1_555
Co4 O17 1.995402 1_545
Co4 O44 2.010575 1_545
Co4 O7 2.017653 1_555
Co4 O36 2.034987 1_555
Co4 O55 2.053148 1_555
Co5 O9 1.905749 1_555
Co5 O16 1.995402 1_565
Co5 O45 2.010575 1_565
Co5 O6 2.017653 1_555
Co5 O37 2.034987 1_555
Co5 O23 2.053148 1_555
Co6 O10 1.905749 1_555
Co6 O19 1.995402 1_565
Co6 O46 2.010575 1_565
Co6 O5 2.017653 1_555
Co6 O38 2.034987 1_555
Co6 O20 2.053148 1_555
Co7 O11 1.905749 1_555
Co7 O18 1.995402 1_545
Co7 O47 2.010575 1_545
Co7 O4 2.017653 1_555
Co7 O39 2.034987 1_555
Co7 O22 2.053148 1_555
O0 V0 1.681411 1_555
O1 V12 1.681411 1_555
O2 V14 1.681411 1_555
O3 V13 1.681411 1_555
O4 V0 1.771191 1_555
O5 V12 1.771191 1_555
O6 V14 1.771191 1_555
O7 V13 1.771191 1_555
O8 V0 1.756539 1_554
O9 V12 1.756539 1_555
O10 V14 1.756539 1_556
O11 V13 1.756539 1_555
O12 V15 1.736822 1_555
O13 V11 1.736822 1_555
O14 V10 1.736822 1_555
O15 V9 1.736822 1_555
O16 V15 1.691470 1_554
O17 V11 1.691470 1_555
O18 V10 1.691470 1_556
O19 V9 1.691470 1_555
O20 V15 1.802025 1_565
O21 V8 1.728585 1_555
O22 V11 1.802025 1_545
O23 V9 1.802025 1_565
O24 V8 1.649715 1_555
O25 V1 1.649715 1_655
O26 V2 1.649715 1_555
O27 V3 1.649715 1_455
O28 V15 1.763798 1_555
O28 V8 1.869125 1_555
O29 V11 1.763798 1_555
O29 V1 1.869125 1_655
O30 V10 1.763798 1_555
O30 V2 1.869125 1_555
O31 V9 1.763798 1_555
O31 V3 1.869125 1_455
O32 V7 1.757890 1_555
O32 V3 2.018921 1_555
O33 V6 1.757890 1_555
O33 V2 2.018921 1_555
O34 V5 1.757890 1_555
O34 V1 2.018921 1_555
O35 V4 1.757890 1_555
O35 V8 2.018921 1_555
O36 V7 1.779561 1_555
O37 V6 1.779561 1_555
O38 V5 1.779561 1_555
O39 V4 1.779561 1_555
O40 V13 1.789469 1_555
O40 V7 2.300899 1_555
O41 V14 1.789469 1_555
O41 V6 2.300899 1_555
O42 V12 1.789469 1_555
O42 V5 2.300899 1_555
O43 V0 1.789469 1_555
O43 V4 2.300899 1_555
O44 V7 1.711367 1_555
O45 V6 1.711367 1_555
O46 V5 1.711367 1_555
O47 V4 1.711367 1_555
O48 V7 1.810733 1_555
O48 V3 2.000482 1_555
O49 V6 1.810733 1_555
O49 V2 2.000482 1_555
O50 V5 1.810733 1_555
O50 V1 2.000482 1_555
O51 V4 1.810733 1_555
O51 V8 2.000482 1_555
O52 V3 1.728585 1_455
O53 V2 1.728585 1_555
O54 V1 1.728585 1_655
O55 V10 1.802025 1_545
