# generated using pymatgen
data_Zn10Si(B4Rh9)2
_symmetry_space_group_name_H-M   'P 1'
_cell_length_a   17.85616000
_cell_length_b   17.85616000
_cell_length_c   2.87480300
_cell_angle_alpha   90.00000000
_cell_angle_beta   90.00000000
_cell_angle_gamma   90.00000000
_symmetry_Int_Tables_number   1
_chemical_formula_structural   Zn10Si(B4Rh9)2
_chemical_formula_sum   'Zn20 Si2 B16 Rh36'
_cell_volume   916.60923163
_cell_formula_units_Z   2
loop_
 _symmetry_equiv_pos_site_id
 _symmetry_equiv_pos_as_xyz
  1  'x, y, z'
loop_
 _atom_site_type_symbol
 _atom_site_label
 _atom_site_symmetry_multiplicity
 _atom_site_fract_x
 _atom_site_fract_y
 _atom_site_fract_z
 _atom_site_occupancy
  Zn  Zn0  1  0.55022000  0.05022000  0.00000000  1
  Zn  Zn1  1  0.44978000  0.94978000  0.00000000  1
  Zn  Zn2  1  0.05022000  0.44978000  0.00000000  1
  Zn  Zn3  1  0.94978000  0.55022000  0.00000000  1
  Zn  Zn4  1  0.03203300  0.18932800  0.00000000  1
  Zn  Zn5  1  0.96796700  0.81067200  0.00000000  1
  Zn  Zn6  1  0.18932800  0.96796700  0.00000000  1
  Zn  Zn7  1  0.53203300  0.31067200  0.00000000  1
  Zn  Zn8  1  0.81067200  0.03203300  0.00000000  1
  Zn  Zn9  1  0.46796700  0.68932800  0.00000000  1
  Zn  Zn10  1  0.68932800  0.53203300  0.00000000  1
  Zn  Zn11  1  0.31067200  0.46796700  0.00000000  1
  Zn  Zn12  1  0.20905400  0.70905400  0.00000000  1
  Zn  Zn13  1  0.79094600  0.29094600  0.00000000  1
  Zn  Zn14  1  0.70905400  0.79094600  0.00000000  1
  Zn  Zn15  1  0.29094600  0.20905400  0.00000000  1
  Zn  Zn16  1  0.66886600  0.16886600  0.00000000  1
  Zn  Zn17  1  0.33113400  0.83113400  0.00000000  1
  Zn  Zn18  1  0.16886600  0.33113400  0.00000000  1
  Zn  Zn19  1  0.83113400  0.66886600  0.00000000  1
  Si  Si0  1  0.00000000  0.00000000  0.00000000  1
  Si  Si1  1  0.50000000  0.50000000  0.00000000  1
  B  B0  1  0.33417500  0.03889200  0.00000000  1
  B  B1  1  0.66582500  0.96110800  0.00000000  1
  B  B2  1  0.03889200  0.66582500  0.00000000  1
  B  B3  1  0.83417500  0.46110800  0.00000000  1
  B  B4  1  0.96110800  0.33417500  0.00000000  1
  B  B5  1  0.16582500  0.53889200  0.00000000  1
  B  B6  1  0.53889200  0.83417500  0.00000000  1
  B  B7  1  0.46110800  0.16582500  0.00000000  1
  B  B8  1  0.16694700  0.12431100  0.00000000  1
  B  B9  1  0.83305300  0.87568900  0.00000000  1
  B  B10  1  0.12431100  0.83305300  0.00000000  1
  B  B11  1  0.66694700  0.37568900  0.00000000  1
  B  B12  1  0.87568900  0.16694700  0.00000000  1
  B  B13  1  0.33305300  0.62431100  0.00000000  1
  B  B14  1  0.62431100  0.66694700  0.00000000  1
  B  B15  1  0.37568900  0.33305300  0.00000000  1
  Rh  Rh0  1  0.25431300  0.08722800  0.50000000  1
  Rh  Rh1  1  0.74568700  0.91277200  0.50000000  1
  Rh  Rh2  1  0.08722800  0.74568700  0.50000000  1
  Rh  Rh3  1  0.75431300  0.41277200  0.50000000  1
  Rh  Rh4  1  0.91277200  0.25431300  0.50000000  1
  Rh  Rh5  1  0.24568700  0.58722800  0.50000000  1
  Rh  Rh6  1  0.58722800  0.75431300  0.50000000  1
  Rh  Rh7  1  0.41277200  0.24568700  0.50000000  1
  Rh  Rh8  1  0.04777600  0.32560300  0.50000000  1
  Rh  Rh9  1  0.95222400  0.67439700  0.50000000  1
  Rh  Rh10  1  0.32560300  0.95222400  0.50000000  1
  Rh  Rh11  1  0.54777600  0.17439700  0.50000000  1
  Rh  Rh12  1  0.67439700  0.04777600  0.50000000  1
  Rh  Rh13  1  0.45222400  0.82560300  0.50000000  1
  Rh  Rh14  1  0.82560300  0.54777600  0.50000000  1
  Rh  Rh15  1  0.17439700  0.45222400  0.50000000  1
  Rh  Rh16  1  0.15977400  0.21033900  0.50000000  1
  Rh  Rh17  1  0.84022600  0.78966100  0.50000000  1
  Rh  Rh18  1  0.21033900  0.84022600  0.50000000  1
  Rh  Rh19  1  0.65977400  0.28966100  0.50000000  1
  Rh  Rh20  1  0.78966100  0.15977400  0.50000000  1
  Rh  Rh21  1  0.34022600  0.71033900  0.50000000  1
  Rh  Rh22  1  0.71033900  0.65977400  0.50000000  1
  Rh  Rh23  1  0.28966100  0.34022600  0.50000000  1
  Rh  Rh24  1  0.09534500  0.06528100  0.50000000  1
  Rh  Rh25  1  0.90465500  0.93471900  0.50000000  1
  Rh  Rh26  1  0.06528100  0.90465500  0.50000000  1
  Rh  Rh27  1  0.59534500  0.43471900  0.50000000  1
  Rh  Rh28  1  0.93471900  0.09534500  0.50000000  1
  Rh  Rh29  1  0.40465500  0.56528100  0.50000000  1
  Rh  Rh30  1  0.56528100  0.59534500  0.50000000  1
  Rh  Rh31  1  0.43471900  0.40465500  0.50000000  1
  Rh  Rh32  1  0.08233300  0.58233300  0.50000000  1
  Rh  Rh33  1  0.91766700  0.41766700  0.50000000  1
  Rh  Rh34  1  0.58233300  0.91766700  0.50000000  1
  Rh  Rh35  1  0.41766700  0.08233300  0.50000000  1
loop_
_geom_bond_atom_site_label_1
_geom_bond_atom_site_label_2
_geom_bond_distance
_geom_bond_site_symmetry_2
Zn0 Zn1 2.536353 1_545
Zn2 Zn3 2.536353 1_455
B0 Rh10 2.117661 1_544
B0 Rh10 2.117661 1_545
B0 Rh0 2.201048 1_554
B0 Rh0 2.201048 1_555
B0 Rh35 2.211434 1_554
B0 Rh35 2.211434 1_555
B0 Zn1 2.606355 1_545
B1 Rh12 2.117661 1_565
B1 Rh12 2.117661 1_564
B1 Rh1 2.201048 1_554
B1 Rh1 2.201048 1_555
B1 Rh34 2.211434 1_554
B1 Rh34 2.211434 1_555
B1 Zn0 2.606355 1_565
B2 Rh9 2.117661 1_454
B2 Rh9 2.117661 1_455
B2 Rh2 2.201048 1_555
B2 Rh2 2.201048 1_554
B2 Rh32 2.211434 1_555
B2 Rh32 2.211434 1_554
B2 Zn3 2.606355 1_455
B3 Rh14 2.117661 1_555
B3 Rh14 2.117661 1_554
B3 Rh3 2.201048 1_554
B3 Rh3 2.201048 1_555
B3 Rh33 2.211434 1_555
B3 Rh33 2.211434 1_554
B3 Zn3 2.606355 1_555
B4 Rh8 2.117661 1_655
B4 Rh8 2.117661 1_654
B4 Rh4 2.201048 1_555
B4 Rh4 2.201048 1_554
B4 Rh33 2.211434 1_554
B4 Rh33 2.211434 1_555
B4 Zn2 2.606355 1_655
B5 Rh15 2.117661 1_555
B5 Rh15 2.117661 1_554
B5 Rh5 2.201048 1_555
B5 Rh5 2.201048 1_554
B5 Rh32 2.211434 1_555
B5 Rh32 2.211434 1_554
B5 Zn2 2.606355 1_555
B6 Rh13 2.117661 1_555
B6 Rh13 2.117661 1_554
B6 Rh6 2.201048 1_555
B6 Rh6 2.201048 1_554
B6 Rh34 2.211434 1_555
B6 Rh34 2.211434 1_554
B6 Zn1 2.606355 1_555
B7 Rh11 2.117661 1_554
B7 Rh11 2.117661 1_555
B7 Rh7 2.201048 1_555
B7 Rh7 2.201048 1_554
B7 Rh35 2.211434 1_555
B7 Rh35 2.211434 1_554
B7 Zn0 2.606355 1_555
B8 Rh16 2.107658 1_555
B8 Rh16 2.107658 1_554
B8 Rh24 2.193581 1_554
B8 Rh24 2.193581 1_555
B8 Rh0 2.222216 1_555
B8 Rh0 2.222216 1_554
B8 Zn4 2.674195 1_555
B8 Zn15 2.681822 1_555
B9 Rh17 2.107658 1_555
B9 Rh17 2.107658 1_554
B9 Rh25 2.193581 1_555
B9 Rh25 2.193581 1_554
B9 Rh1 2.222216 1_555
B9 Rh1 2.222216 1_554
B9 Zn5 2.674195 1_555
B9 Zn14 2.681822 1_555
B10 Rh18 2.107658 1_554
B10 Rh18 2.107658 1_555
B10 Rh26 2.193581 1_554
B10 Rh26 2.193581 1_555
B10 Rh2 2.222216 1_555
B10 Rh2 2.222216 1_554
B10 Zn6 2.674195 1_555
B10 Zn12 2.681822 1_555
B11 Rh19 2.107658 1_555
B11 Rh19 2.107658 1_554
B11 Rh27 2.193581 1_555
B11 Rh27 2.193581 1_554
B11 Rh3 2.222216 1_554
B11 Rh3 2.222216 1_555
B11 Zn7 2.674195 1_555
B11 Zn13 2.681822 1_555
B12 Rh20 2.107658 1_555
B12 Rh20 2.107658 1_554
B12 Rh28 2.193581 1_555
B12 Rh28 2.193581 1_554
B12 Rh4 2.222216 1_555
B12 Rh4 2.222216 1_554
B12 Zn8 2.674195 1_555
B12 Zn13 2.681822 1_555
B13 Rh21 2.107658 1_555
B13 Rh21 2.107658 1_554
B13 Rh29 2.193581 1_554
B13 Rh29 2.193581 1_555
B13 Rh5 2.222216 1_554
B13 Rh5 2.222216 1_555
B13 Zn9 2.674195 1_555
B13 Zn12 2.681822 1_555
B14 Rh22 2.107658 1_554
B14 Rh22 2.107658 1_555
B14 Rh30 2.193581 1_555
B14 Rh30 2.193581 1_554
B14 Rh6 2.222216 1_555
B14 Rh6 2.222216 1_554
B14 Zn10 2.674195 1_555
B14 Zn14 2.681822 1_555
B15 Rh23 2.107658 1_555
B15 Rh23 2.107658 1_554
B15 Rh31 2.193581 1_555
B15 Rh31 2.193581 1_554
B15 Rh7 2.222216 1_555
B15 Rh7 2.222216 1_554
B15 Zn11 2.674195 1_555
B15 Zn15 2.681822 1_555
Rh0 Zn15 2.688145 1_556
Rh0 Zn15 2.688145 1_555
Rh0 Zn6 2.819143 1_545
Rh0 Zn6 2.819143 1_546
Rh1 Zn14 2.688145 1_556
Rh1 Zn14 2.688145 1_555
Rh1 Zn8 2.819143 1_566
Rh1 Zn8 2.819143 1_565
Rh2 Zn12 2.688145 1_556
Rh2 Zn12 2.688145 1_555
Rh2 Zn5 2.819143 1_455
Rh2 Zn5 2.819143 1_456
Rh3 Zn13 2.688145 1_556
Rh3 Zn13 2.688145 1_555
Rh3 Zn10 2.819143 1_555
Rh3 Zn10 2.819143 1_556
Rh4 Zn13 2.688145 1_555
Rh4 Zn13 2.688145 1_556
Rh4 Zn4 2.819143 1_655
Rh4 Zn4 2.819143 1_656
Rh5 Zn12 2.688145 1_556
Rh5 Zn12 2.688145 1_555
Rh5 Zn11 2.819143 1_556
Rh5 Zn11 2.819143 1_555
Rh6 Zn14 2.688145 1_556
Rh6 Zn14 2.688145 1_555
Rh6 Zn9 2.819143 1_555
Rh6 Zn9 2.819143 1_556
Rh7 Zn15 2.688145 1_556
Rh7 Zn15 2.688145 1_555
Rh7 Zn7 2.819143 1_555
Rh7 Zn7 2.819143 1_556
Rh8 Zn18 2.598268 1_556
Rh8 Zn18 2.598268 1_555
Rh8 Zn2 2.642831 1_555
Rh8 Zn2 2.642831 1_556
Rh8 Zn4 2.840128 1_556
Rh8 Zn4 2.840128 1_555
Rh9 Zn19 2.598268 1_556
Rh9 Zn19 2.598268 1_555
Rh9 Zn3 2.642831 1_555
Rh9 Zn3 2.642831 1_556
Rh9 Zn5 2.840128 1_556
Rh9 Zn5 2.840128 1_555
Rh10 Zn17 2.598268 1_556
Rh10 Zn17 2.598268 1_555
Rh10 Zn1 2.642831 1_555
Rh10 Zn1 2.642831 1_556
Rh10 Zn6 2.840128 1_555
Rh10 Zn6 2.840128 1_556
Rh11 Zn16 2.598268 1_555
Rh11 Zn16 2.598268 1_556
Rh11 Zn0 2.642831 1_556
Rh11 Zn0 2.642831 1_555
Rh11 Zn7 2.840128 1_556
Rh11 Zn7 2.840128 1_555
Rh12 Zn16 2.598268 1_556
Rh12 Zn16 2.598268 1_555
Rh12 Zn0 2.642831 1_556
Rh12 Zn0 2.642831 1_555
Rh12 Zn8 2.840128 1_556
Rh12 Zn8 2.840128 1_555
Rh13 Zn17 2.598268 1_556
Rh13 Zn17 2.598268 1_555
Rh13 Zn1 2.642831 1_555
Rh13 Zn1 2.642831 1_556
Rh13 Zn9 2.840128 1_556
Rh13 Zn9 2.840128 1_555
Rh14 Zn19 2.598268 1_556
Rh14 Zn19 2.598268 1_555
Rh14 Zn3 2.642831 1_555
Rh14 Zn3 2.642831 1_556
Rh14 Zn10 2.840128 1_555
Rh14 Zn10 2.840128 1_556
Rh15 Zn18 2.598268 1_556
Rh15 Zn18 2.598268 1_555
Rh15 Zn2 2.642831 1_555
Rh15 Zn2 2.642831 1_556
Rh15 Zn11 2.840128 1_556
Rh15 Zn11 2.840128 1_555
Rh16 Zn18 2.597085 1_556
Rh16 Zn18 2.597085 1_555
Rh16 Zn4 2.722072 1_556
Rh16 Zn4 2.722072 1_555
Rh16 Zn15 2.748214 1_556
Rh16 Zn15 2.748214 1_555
Rh17 Zn19 2.597085 1_556
Rh17 Zn19 2.597085 1_555
Rh17 Zn5 2.722072 1_555
Rh17 Zn5 2.722072 1_556
Rh17 Zn14 2.748214 1_556
Rh17 Zn14 2.748214 1_555
Rh18 Zn17 2.597085 1_555
Rh18 Zn17 2.597085 1_556
Rh18 Zn6 2.722072 1_555
Rh18 Zn6 2.722072 1_556
Rh18 Zn12 2.748214 1_555
Rh18 Zn12 2.748214 1_556
Rh19 Zn16 2.597085 1_555
Rh19 Zn16 2.597085 1_556
Rh19 Zn7 2.722072 1_556
Rh19 Zn7 2.722072 1_555
Rh19 Zn13 2.748214 1_556
Rh19 Zn13 2.748214 1_555
Rh20 Zn16 2.597085 1_555
Rh20 Zn16 2.597085 1_556
Rh20 Zn8 2.722072 1_555
Rh20 Zn8 2.722072 1_556
Rh20 Zn13 2.748214 1_555
Rh20 Zn13 2.748214 1_556
Rh21 Zn17 2.597085 1_556
Rh21 Zn17 2.597085 1_555
Rh21 Zn9 2.722072 1_556
Rh21 Zn9 2.722072 1_555
Rh21 Zn12 2.748214 1_555
Rh21 Zn12 2.748214 1_556
Rh22 Zn19 2.597085 1_556
Rh22 Zn19 2.597085 1_555
Rh22 Zn10 2.722072 1_555
Rh22 Zn10 2.722072 1_556
Rh22 Zn14 2.748214 1_556
Rh22 Zn14 2.748214 1_555
Rh23 Zn18 2.597085 1_555
Rh23 Zn18 2.597085 1_556
Rh23 Zn11 2.722072 1_556
Rh23 Zn11 2.722072 1_555
Rh23 Zn15 2.748214 1_556
Rh23 Zn15 2.748214 1_555
Rh24 Si0 2.514636 1_555
Rh24 Si0 2.514636 1_556
Rh24 Zn6 2.811021 1_546
Rh24 Zn6 2.811021 1_545
Rh24 Zn4 2.872353 1_555
Rh24 Zn4 2.872353 1_556
Rh25 Si0 2.514636 1_666
Rh25 Si0 2.514636 1_665
Rh25 Zn8 2.811021 1_566
Rh25 Zn8 2.811021 1_565
Rh25 Zn5 2.872353 1_555
Rh25 Zn5 2.872353 1_556
Rh26 Si0 2.514636 1_566
Rh26 Si0 2.514636 1_565
Rh26 Zn5 2.811021 1_455
Rh26 Zn5 2.811021 1_456
Rh26 Zn6 2.872353 1_556
Rh26 Zn6 2.872353 1_555
Rh27 Si1 2.514636 1_555
Rh27 Si1 2.514636 1_556
Rh27 Zn10 2.811021 1_555
Rh27 Zn10 2.811021 1_556
Rh27 Zn7 2.872353 1_556
Rh27 Zn7 2.872353 1_555
Rh28 Si0 2.514636 1_655
Rh28 Si0 2.514636 1_656
Rh28 Zn4 2.811021 1_656
Rh28 Zn4 2.811021 1_655
Rh28 Zn8 2.872353 1_555
Rh28 Zn8 2.872353 1_556
Rh29 Si1 2.514636 1_555
Rh29 Si1 2.514636 1_556
Rh29 Zn11 2.811021 1_555
Rh29 Zn11 2.811021 1_556
Rh29 Zn9 2.872353 1_555
Rh29 Zn9 2.872353 1_556
Rh30 Si1 2.514636 1_555
Rh30 Si1 2.514636 1_556
Rh30 Zn9 2.811021 1_555
Rh30 Zn9 2.811021 1_556
Rh30 Zn10 2.872353 1_555
Rh30 Zn10 2.872353 1_556
Rh31 Si1 2.514636 1_555
Rh31 Si1 2.514636 1_556
Rh31 Zn7 2.811021 1_556
Rh31 Zn7 2.811021 1_555
Rh31 Zn11 2.872353 1_556
Rh31 Zn11 2.872353 1_555
Rh32 Zn2 2.827912 1_555
Rh32 Zn2 2.827912 1_556
Rh32 Zn3 2.827912 1_455
Rh32 Zn3 2.827912 1_456
Rh33 Zn2 2.827912 1_655
Rh33 Zn2 2.827912 1_656
Rh33 Zn3 2.827912 1_555
Rh33 Zn3 2.827912 1_556
Rh34 Zn0 2.827912 1_566
Rh34 Zn0 2.827912 1_565
Rh34 Zn1 2.827912 1_555
Rh34 Zn1 2.827912 1_556
Rh35 Zn1 2.827912 1_546
Rh35 Zn0 2.827912 1_555
Rh35 Zn1 2.827912 1_545
Rh35 Zn0 2.827912 1_556
