# generated using pymatgen
data_Ba2NdReO6
_symmetry_space_group_name_H-M   'P 1'
_cell_length_a   6.08252742
_cell_length_b   6.07244900
_cell_length_c   8.59388493
_cell_angle_alpha   90.00000000
_cell_angle_beta   89.88395679
_cell_angle_gamma   90.00000000
_symmetry_Int_Tables_number   1
_chemical_formula_structural   Ba2NdReO6
_chemical_formula_sum   'Ba4 Nd2 Re2 O12'
_cell_volume   317.42168687
_cell_formula_units_Z   2
loop_
 _symmetry_equiv_pos_site_id
 _symmetry_equiv_pos_as_xyz
  1  'x, y, z'
loop_
 _atom_site_type_symbol
 _atom_site_label
 _atom_site_symmetry_multiplicity
 _atom_site_fract_x
 _atom_site_fract_y
 _atom_site_fract_z
 _atom_site_occupancy
  Ba  Ba0  1  0.00331900  0.48389500  0.25035000  1
  Ba  Ba1  1  0.99668100  0.51610500  0.74965000  1
  Ba  Ba2  1  0.49668100  0.98389500  0.24965000  1
  Ba  Ba3  1  0.50331900  0.01610500  0.75035000  1
  Nd  Nd0  1  0.00000000  0.00000000  0.00000000  1
  Nd  Nd1  1  0.50000000  0.50000000  0.50000000  1
  Re  Re0  1  0.00000000  0.00000000  0.50000000  1
  Re  Re1  1  0.50000000  0.50000000  0.00000000  1
  O  O0  1  0.95428800  0.00719600  0.27169700  1
  O  O1  1  0.04571200  0.99280400  0.72830300  1
  O  O2  1  0.54571200  0.50719600  0.22830300  1
  O  O3  1  0.45428800  0.49280400  0.77169700  1
  O  O4  1  0.24894200  0.70691200  0.02394500  1
  O  O5  1  0.75105800  0.29308800  0.97605500  1
  O  O6  1  0.25105800  0.20691200  0.47605500  1
  O  O7  1  0.74894200  0.79308800  0.52394500  1
  O  O8  1  0.29337300  0.24895800  0.02486400  1
  O  O9  1  0.70662700  0.75104200  0.97513600  1
  O  O10  1  0.20662700  0.74895800  0.47513600  1
  O  O11  1  0.79337300  0.25104200  0.52486400  1
loop_
_geom_bond_atom_site_label_1
_geom_bond_atom_site_label_2
_geom_bond_distance
_geom_bond_site_symmetry_2
Ba0 O2 2.793817 1_455
Ba0 O4 2.800009 1_555
Ba0 O10 2.803831 1_555
Ba0 O0 2.915792 1_455
Ba0 O6 2.978909 1_555
Ba0 O8 2.981468 1_555
Ba0 O11 3.030420 1_455
Ba0 O5 3.044366 1_454
Ba0 O0 3.196916 1_465
Ba0 O2 3.307202 1_555
Ba0 O7 3.381248 1_455
Ba0 O9 3.391110 1_454
Ba1 O3 2.793817 1_655
Ba1 O5 2.800009 1_555
Ba1 O11 2.803831 1_555
Ba1 O1 2.915792 1_655
Ba1 O7 2.978909 1_555
Ba1 O9 2.981468 1_555
Ba1 O10 3.030420 1_655
Ba1 O4 3.044366 1_656
Ba1 O1 3.196916 1_645
Ba1 O3 3.307202 1_555
Ba1 O6 3.381248 1_655
Ba1 O8 3.391110 1_656
Ba2 O0 2.793817 1_565
Ba2 O6 2.800009 1_565
Ba2 O8 2.803831 1_565
Ba2 O2 2.915792 1_555
Ba2 O4 2.978909 1_555
Ba2 O10 2.981468 1_555
Ba2 O9 3.030420 1_554
Ba2 O7 3.044366 1_555
Ba2 O2 3.196916 1_565
Ba2 O0 3.307202 1_465
Ba2 O5 3.381248 1_564
Ba2 O11 3.391110 1_565
Ba3 O1 2.793817 1_545
Ba3 O7 2.800009 1_545
Ba3 O9 2.803831 1_545
Ba3 O3 2.915792 1_555
Ba3 O5 2.978909 1_555
Ba3 O11 2.981468 1_555
Ba3 O8 3.030420 1_556
Ba3 O6 3.044366 1_555
Ba3 O3 3.196916 1_545
Ba3 O1 3.307202 1_645
Ba3 O4 3.381248 1_546
Ba3 O10 3.391110 1_545
Nd0 O5 2.346050 1_454
Nd0 O4 2.346050 1_545
Nd0 O8 2.348820 1_555
Nd0 O9 2.348820 1_444
Nd0 O0 2.351276 1_455
Nd0 O1 2.351276 1_544
Nd1 O7 2.346050 1_555
Nd1 O6 2.346050 1_555
Nd1 O11 2.348820 1_555
Nd1 O10 2.348820 1_555
Nd1 O3 2.351276 1_555
Nd1 O2 2.351276 1_555
O0 Re0 1.982652 1_655
O1 Re0 1.982652 1_565
O2 Re1 1.982652 1_555
O3 Re1 1.982652 1_556
O4 Re1 1.987890 1_555
O5 Re1 1.987890 1_556
O6 Re0 1.987890 1_555
O7 Re0 1.987890 1_665
O8 Re1 1.986975 1_555
O9 Re1 1.986975 1_556
O10 Re0 1.986975 1_565
O11 Re0 1.986975 1_655
