# generated using pymatgen
data_Tb2SnAu2
_symmetry_space_group_name_H-M   'P 1'
_cell_length_a   7.91659809
_cell_length_b   7.91659809
_cell_length_c   3.75257681
_cell_angle_alpha   90.00000000
_cell_angle_beta   90.00000000
_cell_angle_gamma   89.99803750
_symmetry_Int_Tables_number   1
_chemical_formula_structural   Tb2SnAu2
_chemical_formula_sum   'Tb4 Sn2 Au4'
_cell_volume   235.18346507
_cell_formula_units_Z   2
loop_
 _symmetry_equiv_pos_site_id
 _symmetry_equiv_pos_as_xyz
  1  'x, y, z'
loop_
 _atom_site_type_symbol
 _atom_site_label
 _atom_site_symmetry_multiplicity
 _atom_site_fract_x
 _atom_site_fract_y
 _atom_site_fract_z
 _atom_site_occupancy
  Tb  Tb0  1  0.67008897  0.17008897  0.50000000  1
  Tb  Tb1  1  0.32991103  0.82991103  0.50000000  1
  Tb  Tb2  1  0.17008927  0.32991073  0.50000000  1
  Tb  Tb3  1  0.82991073  0.67008927  0.50000000  1
  Sn  Sn0  1  0.50000000  0.50000000  0.00000000  1
  Sn  Sn1  1  0.00000000  0.00000000  0.00000000  1
  Au  Au0  1  0.12699955  0.62699955  -0.00000000  1
  Au  Au1  1  0.87300045  0.37300045  -0.00000000  1
  Au  Au2  1  0.62698024  0.87301976  0.00000000  1
  Au  Au3  1  0.37301976  0.12698024  0.00000000  1
loop_
_geom_bond_atom_site_label_1
_geom_bond_atom_site_label_2
_geom_bond_distance
_geom_bond_site_symmetry_2
Sn0 Tb0 3.486360 1_555
Sn0 Tb0 3.486360 1_554
Sn0 Tb1 3.486360 1_554
Sn0 Tb1 3.486360 1_555
Sn0 Tb2 3.486429 1_555
Sn0 Tb2 3.486429 1_554
Sn0 Tb3 3.486429 1_555
Sn0 Tb3 3.486429 1_554
Sn1 Tb0 3.486360 1_454
Sn1 Tb0 3.486360 1_455
Sn1 Tb1 3.486360 1_544
Sn1 Tb1 3.486360 1_545
Sn1 Tb3 3.486429 1_444
Sn1 Tb3 3.486429 1_445
Sn1 Tb2 3.486429 1_555
Sn1 Tb2 3.486429 1_554
Au0 Au1 2.843762 1_455
Au0 Tb1 2.946434 1_555
Au0 Tb1 2.946434 1_554
Au0 Tb3 3.027929 1_454
Au0 Tb3 3.027929 1_455
Au0 Tb2 3.027929 1_555
Au0 Tb2 3.027929 1_554
Au0 Sn1 3.119330 1_565
Au0 Sn0 3.119330 1_555
Au1 Tb0 2.946434 1_555
Au1 Tb0 2.946434 1_554
Au1 Tb2 3.027929 1_655
Au1 Tb3 3.027929 1_554
Au1 Tb3 3.027929 1_555
Au1 Tb2 3.027929 1_654
Au1 Sn1 3.119330 1_655
Au1 Sn0 3.119330 1_555
Au2 Au3 2.843232 1_565
Au2 Tb3 2.946538 1_554
Au2 Tb3 2.946538 1_555
Au2 Tb1 3.027844 1_554
Au2 Tb1 3.027844 1_555
Au2 Tb0 3.027844 1_564
Au2 Tb0 3.027844 1_565
Au2 Sn0 3.119491 1_555
Au2 Sn1 3.119491 1_665
Au3 Tb2 2.946538 1_555
Au3 Tb2 2.946538 1_554
Au3 Tb0 3.027844 1_554
Au3 Tb1 3.027844 1_544
Au3 Tb1 3.027844 1_545
Au3 Tb0 3.027844 1_555
Au3 Sn0 3.119491 1_555
Au3 Sn1 3.119491 1_555
