# generated using pymatgen
data_PrNi3
_symmetry_space_group_name_H-M   'P 1'
_cell_length_a   5.01960227
_cell_length_b   5.01960227
_cell_length_c   8.70414000
_cell_angle_alpha   73.24105786
_cell_angle_beta   73.24105786
_cell_angle_gamma   59.99998725
_symmetry_Int_Tables_number   1
_chemical_formula_structural   PrNi3
_chemical_formula_sum   'Pr3 Ni9'
_cell_volume   179.09386326
_cell_formula_units_Z   3
loop_
 _symmetry_equiv_pos_site_id
 _symmetry_equiv_pos_as_xyz
  1  'x, y, z'
loop_
 _atom_site_type_symbol
 _atom_site_label
 _atom_site_symmetry_multiplicity
 _atom_site_fract_x
 _atom_site_fract_y
 _atom_site_fract_z
 _atom_site_occupancy
  Pr  Pr0  1  0.13847477  0.13847477  0.58457670  1
  Pr  Pr1  1  0.86152523  0.86152523  0.41542330  1
  Pr  Pr2  1  -0.00000000  -0.00000000  0.00000000  1
  Ni  Ni0  1  0.08069065  0.57943071  0.76044993  1
  Ni  Ni1  1  0.57943071  0.57943071  0.76044993  1
  Ni  Ni2  1  0.57943071  0.08069065  0.76044993  1
  Ni  Ni3  1  0.91930935  0.42056929  0.23955007  1
  Ni  Ni4  1  0.42056929  0.42056929  0.23955007  1
  Ni  Ni5  1  0.42056929  0.91930935  0.23955007  1
  Ni  Ni6  1  0.33279999  0.33279999  0.00160104  1
  Ni  Ni7  1  0.66720001  0.66720001  0.99839896  1
  Ni  Ni8  1  0.50000000  0.50000000  0.50000000  1
loop_
_geom_bond_atom_site_label_1
_geom_bond_atom_site_label_2
_geom_bond_distance
_geom_bond_site_symmetry_2
Pr0 Pr1 3.213447 1_455
Pr0 Pr1 3.213447 1_545
Pr0 Pr1 3.213455 1_445
Pr0 Pr2 3.409592 1_556
Pr1 Pr2 3.409592 1_665
Ni0 Ni7 2.434009 1_455
Ni0 Ni6 2.450828 1_556
Ni0 Ni2 2.503476 1_555
Ni0 Ni1 2.503477 1_555
Ni0 Ni2 2.516125 1_465
Ni0 Ni1 2.516126 1_455
Ni0 Ni8 2.580437 1_555
Ni0 Pr0 2.895296 1_565
Ni0 Pr0 2.895301 1_555
Ni0 Pr1 3.182681 1_455
Ni0 Pr2 3.188209 1_566
Ni0 Pr2 3.188217 1_556
Ni1 Ni7 2.434001 1_555
Ni1 Ni6 2.450831 1_556
Ni1 Ni2 2.503477 1_555
Ni1 Ni2 2.516126 1_565
Ni1 Ni8 2.580442 1_555
Ni1 Pr0 2.895298 1_565
Ni1 Pr0 2.895298 1_655
Ni1 Pr1 3.182675 1_555
Ni1 Pr2 3.188213 1_656
Ni1 Pr2 3.188213 1_566
Ni2 Ni7 2.434009 1_545
Ni2 Ni6 2.450828 1_556
Ni2 Ni8 2.580437 1_555
Ni2 Pr0 2.895296 1_655
Ni2 Pr0 2.895301 1_555
Ni2 Pr1 3.182681 1_545
Ni2 Pr2 3.188209 1_656
Ni2 Pr2 3.188217 1_556
Ni3 Ni6 2.434009 1_655
Ni3 Ni7 2.450828 1_554
Ni3 Ni5 2.503476 1_555
Ni3 Ni4 2.503477 1_555
Ni3 Ni5 2.516125 1_645
Ni3 Ni4 2.516126 1_655
Ni3 Ni8 2.580437 1_555
Ni3 Pr1 2.895296 1_545
Ni3 Pr1 2.895301 1_555
Ni3 Pr0 3.182681 1_655
Ni3 Pr2 3.188209 1_655
Ni3 Pr2 3.188217 1_665
Ni4 Ni6 2.434001 1_555
Ni4 Ni7 2.450831 1_554
Ni4 Ni5 2.503477 1_555
Ni4 Ni5 2.516126 1_545
Ni4 Ni8 2.580442 1_555
Ni4 Pr1 2.895298 1_545
Ni4 Pr1 2.895298 1_455
Ni4 Pr0 3.182675 1_555
Ni4 Pr2 3.188213 1_565
Ni4 Pr2 3.188213 1_655
Ni5 Ni6 2.434009 1_565
Ni5 Ni7 2.450828 1_554
Ni5 Ni8 2.580437 1_555
Ni5 Pr1 2.895296 1_455
Ni5 Pr1 2.895301 1_555
Ni5 Pr0 3.182681 1_565
Ni5 Pr2 3.188209 1_565
Ni5 Pr2 3.188217 1_665
Ni6 Pr2 2.898097 1_565
Ni6 Pr2 2.898097 1_655
Ni6 Pr2 2.898102 1_555
Ni6 Ni7 2.898182 1_554
Ni6 Ni7 2.898190 1_454
Ni6 Ni7 2.898190 1_544
Ni7 Pr2 2.898097 1_656
Ni7 Pr2 2.898097 1_566
Ni7 Pr2 2.898102 1_666
Ni8 Pr0 2.980042 1_555
Ni8 Pr1 2.980042 1_555
Ni8 Pr0 2.980046 1_565
Ni8 Pr0 2.980046 1_655
Ni8 Pr1 2.980046 1_455
Ni8 Pr1 2.980046 1_545
