# generated using pymatgen
data_MgCrAs2O7
_symmetry_space_group_name_H-M   'P 1'
_cell_length_a   8.66307500
_cell_length_b   7.36513000
_cell_length_c   9.78069750
_cell_angle_alpha   66.34060960
_cell_angle_beta   90.00000000
_cell_angle_gamma   90.00000000
_symmetry_Int_Tables_number   1
_chemical_formula_structural   MgCrAs2O7
_chemical_formula_sum   'Mg4 Cr4 As8 O28'
_cell_volume   571.60074010
_cell_formula_units_Z   4
loop_
 _symmetry_equiv_pos_site_id
 _symmetry_equiv_pos_as_xyz
  1  'x, y, z'
loop_
 _atom_site_type_symbol
 _atom_site_label
 _atom_site_symmetry_multiplicity
 _atom_site_fract_x
 _atom_site_fract_y
 _atom_site_fract_z
 _atom_site_occupancy
  Mg  Mg0  1  0.07159000  0.73107100  0.89516500  1
  Mg  Mg1  1  0.57159000  0.26892900  0.60483500  1
  Mg  Mg2  1  0.92841000  0.26892900  0.10483500  1
  Mg  Mg3  1  0.42841000  0.73107100  0.39516500  1
  Cr  Cr0  1  0.94346900  0.20095500  0.66486300  1
  Cr  Cr1  1  0.44346900  0.79904500  0.83513700  1
  Cr  Cr2  1  0.05653100  0.79904500  0.33513700  1
  Cr  Cr3  1  0.55653100  0.20095500  0.16486300  1
  As  As0  1  0.77525600  0.56103000  0.75125000  1
  As  As1  1  0.27525600  0.43897000  0.74875000  1
  As  As2  1  0.22474400  0.43897000  0.24875000  1
  As  As3  1  0.72474400  0.56103000  0.25125000  1
  As  As4  1  0.72650600  0.96817100  0.96276300  1
  As  As5  1  0.22650600  0.03182900  0.53723700  1
  As  As6  1  0.27349400  0.03182900  0.03723700  1
  As  As7  1  0.77349400  0.96817100  0.46276300  1
  O  O0  1  0.73644200  0.13215000  0.04725500  1
  O  O1  1  0.23644200  0.86785000  0.45274500  1
  O  O2  1  0.26355800  0.86785000  0.95274500  1
  O  O3  1  0.76355800  0.13215000  0.54725500  1
  O  O4  1  0.59909400  0.64389000  0.76854000  1
  O  O5  1  0.09909400  0.35611000  0.73146000  1
  O  O6  1  0.40090600  0.35611000  0.23146000  1
  O  O7  1  0.90090600  0.64389000  0.26854000  1
  O  O8  1  0.90211300  0.52623000  0.89299700  1
  O  O9  1  0.40211300  0.47377000  0.60700300  1
  O  O10  1  0.09788700  0.47377000  0.10700300  1
  O  O11  1  0.59788700  0.52623000  0.39299700  1
  O  O12  1  0.86328900  0.74410400  0.58803500  1
  O  O13  1  0.36328900  0.25589600  0.91196500  1
  O  O14  1  0.13671100  0.25589600  0.41196500  1
  O  O15  1  0.63671100  0.74410400  0.08803500  1
  O  O16  1  0.91365900  0.02598100  0.32841700  1
  O  O17  1  0.41365900  0.97401900  0.17158300  1
  O  O18  1  0.08634100  0.97401900  0.67158300  1
  O  O19  1  0.58634100  0.02598100  0.82841700  1
  O  O20  1  0.73828400  0.36339900  0.20055100  1
  O  O21  1  0.23828400  0.63660100  0.29944900  1
  O  O22  1  0.26171600  0.63660100  0.79944900  1
  O  O23  1  0.76171600  0.36339900  0.70055100  1
  O  O24  1  0.59891600  0.93081700  0.40141100  1
  O  O25  1  0.09891600  0.06918300  0.09858900  1
  O  O26  1  0.40108400  0.06918300  0.59858900  1
  O  O27  1  0.90108400  0.93081700  0.90141100  1
loop_
_geom_bond_atom_site_label_1
_geom_bond_atom_site_label_2
_geom_bond_distance
_geom_bond_site_symmetry_2
Mg0 O27 2.102856 1_455
Mg0 O8 2.111357 1_455
Mg0 O2 2.133783 1_555
Mg0 O22 2.143869 1_555
Mg0 O10 2.187390 1_556
Mg0 O18 2.204456 1_555
Mg1 O26 2.102856 1_555
Mg1 O9 2.111357 1_555
Mg1 O3 2.133783 1_555
Mg1 O23 2.143869 1_555
Mg1 O11 2.187390 1_555
Mg1 O19 2.204456 1_555
Mg2 O25 2.102856 1_655
Mg2 O10 2.111357 1_655
Mg2 O0 2.133783 1_555
Mg2 O20 2.143869 1_555
Mg2 O8 2.187390 1_554
Mg2 O16 2.204456 1_555
Mg3 O24 2.102856 1_555
Mg3 O11 2.111357 1_555
Mg3 O1 2.133783 1_555
Mg3 O21 2.143869 1_555
Mg3 O9 2.187390 1_555
Mg3 O17 2.204456 1_555
Cr0 O5 2.035963 1_655
Cr0 O18 2.059539 1_645
Cr0 O23 2.089884 1_555
Cr0 O3 2.115891 1_555
Cr0 O27 2.398255 1_545
Cr1 O4 2.035963 1_555
Cr1 O19 2.059539 1_565
Cr1 O22 2.089884 1_555
Cr1 O2 2.115891 1_555
Cr1 O26 2.398255 1_565
Cr2 O7 2.035963 1_455
Cr2 O16 2.059539 1_465
Cr2 O21 2.089884 1_555
Cr2 O1 2.115891 1_555
Cr2 O25 2.398255 1_565
Cr3 O6 2.035963 1_555
Cr3 O17 2.059539 1_545
Cr3 O20 2.089884 1_555
Cr3 O0 2.115891 1_555
Cr3 O24 2.398255 1_545
As0 O4 1.677158 1_555
As0 O8 1.705960 1_555
As0 O23 1.719783 1_555
As0 O12 1.794572 1_555
As1 O5 1.677158 1_555
As1 O9 1.705960 1_555
As1 O22 1.719783 1_555
As1 O13 1.794572 1_555
As2 O6 1.677158 1_555
As2 O10 1.705960 1_555
As2 O21 1.719783 1_555
As2 O14 1.794572 1_555
As3 O7 1.677158 1_555
As3 O11 1.705960 1_555
As3 O20 1.719783 1_555
As3 O15 1.794572 1_555
As4 O27 1.689842 1_555
As4 O19 1.712680 1_565
As4 O0 1.717548 1_566
As4 O15 1.790793 1_556
As5 O26 1.689842 1_555
As5 O18 1.712680 1_545
As5 O1 1.717548 1_545
As5 O14 1.790793 1_555
As6 O25 1.689842 1_555
As6 O17 1.712680 1_545
As6 O2 1.717548 1_544
As6 O13 1.790793 1_554
As7 O24 1.689842 1_555
As7 O16 1.712680 1_565
As7 O3 1.717548 1_565
As7 O12 1.790793 1_555
