# generated using pymatgen
data_K2PdBr3Cl
_symmetry_space_group_name_H-M   'P 1'
_cell_length_a   7.45265222
_cell_length_b   7.45265222
_cell_length_c   4.37687500
_cell_angle_alpha   90.00000000
_cell_angle_beta   90.00000000
_cell_angle_gamma   90.26343930
_symmetry_Int_Tables_number   1
_chemical_formula_structural   K2PdBr3Cl
_chemical_formula_sum   'K2 Pd1 Br3 Cl1'
_cell_volume   243.09793183
_cell_formula_units_Z   1
loop_
 _symmetry_equiv_pos_site_id
 _symmetry_equiv_pos_as_xyz
  1  'x, y, z'
loop_
 _atom_site_type_symbol
 _atom_site_label
 _atom_site_symmetry_multiplicity
 _atom_site_fract_x
 _atom_site_fract_y
 _atom_site_fract_z
 _atom_site_occupancy
  K  K0  1  0.50530500  0.00549800  0.50000000  1
  K  K1  1  0.99450200  0.49469500  0.50000000  1
  Pd  Pd0  1  0.99762700  0.00237300  0.00000000  1
  Br  Br0  1  0.23033400  0.76966600  0.00000000  1
  Br  Br1  1  0.23286300  0.23612300  0.00000000  1
  Br  Br2  1  0.76387700  0.76713700  0.00000000  1
  Cl  Cl0  1  0.77549200  0.22450800  0.00000000  1
loop_
_geom_bond_atom_site_label_1
_geom_bond_atom_site_label_2
_geom_bond_distance
_geom_bond_site_symmetry_2
Br0 Pd0 2.458280 1_465
Br0 K1 3.470545 1_455
Br0 K1 3.470545 1_454
Br0 K0 3.470545 1_565
Br0 K0 3.470545 1_564
Br1 Pd0 2.465796 1_455
Br1 K1 3.419053 1_455
Br1 K1 3.419053 1_454
Br1 K0 3.449362 1_555
Br1 K0 3.449362 1_554
Br2 Pd0 2.465796 1_565
Br2 K0 3.419053 1_565
Br2 K0 3.419053 1_564
Br2 K1 3.449362 1_555
Br2 K1 3.449362 1_554
Cl0 Pd0 2.346599 1_555
Cl0 K0 3.387883 1_555
Cl0 K0 3.387883 1_554
Cl0 K1 3.387883 1_555
Cl0 K1 3.387883 1_554
