# generated using pymatgen
data_BaYbCuTe3
_symmetry_space_group_name_H-M   'P 1'
_cell_length_a   7.78823658
_cell_length_b   7.78823658
_cell_length_c   11.30039611
_cell_angle_alpha   90.00000000
_cell_angle_beta   90.00000000
_cell_angle_gamma   147.16852744
_symmetry_Int_Tables_number   1
_chemical_formula_structural   BaYbCuTe3
_chemical_formula_sum   'Ba2 Yb2 Cu2 Te6'
_cell_volume   371.62703676
_cell_formula_units_Z   2
loop_
 _symmetry_equiv_pos_site_id
 _symmetry_equiv_pos_as_xyz
  1  'x, y, z'
loop_
 _atom_site_type_symbol
 _atom_site_label
 _atom_site_symmetry_multiplicity
 _atom_site_fract_x
 _atom_site_fract_y
 _atom_site_fract_z
 _atom_site_occupancy
  Ba  Ba0  1  0.25039348  0.74960652  0.25000000  1
  Ba  Ba1  1  0.74960652  0.25039348  0.75000000  1
  Yb  Yb0  1  0.00000000  0.00000000  0.00000000  1
  Yb  Yb1  1  0.00000000  0.00000000  0.50000000  1
  Cu  Cu0  1  0.53446392  0.46553608  0.25000000  1
  Cu  Cu1  1  0.46553608  0.53446392  0.75000000  1
  Te  Te0  1  0.63441215  0.36558785  0.05773656  1
  Te  Te1  1  0.36558785  0.63441215  0.94226344  1
  Te  Te2  1  0.36558785  0.63441215  0.55773656  1
  Te  Te3  1  0.63441215  0.36558785  0.44226344  1
  Te  Te4  1  0.93299804  0.06700196  0.25000000  1
  Te  Te5  1  0.06700196  0.93299804  0.75000000  1
loop_
_geom_bond_atom_site_label_1
_geom_bond_atom_site_label_2
_geom_bond_distance
_geom_bond_site_symmetry_2
Ba0 Te4 3.505494 1_565
Ba0 Te4 3.505494 1_455
Ba0 Te3 3.545119 1_455
Ba0 Te3 3.545119 1_565
Ba0 Te0 3.545119 1_565
Ba0 Te0 3.545119 1_455
Ba0 Te2 3.880177 1_555
Ba0 Te1 3.880177 1_554
Ba1 Te5 3.505494 1_545
Ba1 Te5 3.505494 1_655
Ba1 Te1 3.545119 1_545
Ba1 Te1 3.545119 1_655
Ba1 Te2 3.545119 1_545
Ba1 Te2 3.545119 1_655
Ba1 Te0 3.880177 1_556
Ba1 Te3 3.880177 1_555
Cu0 Te3 2.636399 1_555
Cu0 Te0 2.636399 1_555
Cu0 Te4 2.672601 1_455
Cu0 Te4 2.672601 1_565
Cu1 Te1 2.636399 1_555
Cu1 Te2 2.636399 1_555
Cu1 Te5 2.672601 1_545
Cu1 Te5 2.672601 1_655
Te0 Yb0 3.050150 1_555
Te0 Yb0 3.050150 1_665
Te1 Yb0 3.050150 1_556
Te1 Yb0 3.050150 1_666
Te2 Yb1 3.050150 1_555
Te2 Yb1 3.050150 1_665
Te3 Yb1 3.050150 1_555
Te3 Yb1 3.050150 1_665
Te4 Yb1 2.997233 1_655
Te4 Yb0 2.997233 1_655
Te5 Yb0 2.997233 1_566
Te5 Yb1 2.997233 1_565
