# generated using pymatgen
data_YCr3F15
_symmetry_space_group_name_H-M   'P 1'
_cell_length_a   12.10915000
_cell_length_b   6.40176600
_cell_length_c   9.03547413
_cell_angle_alpha   75.11492570
_cell_angle_beta   90.00000000
_cell_angle_gamma   90.00000000
_symmetry_Int_Tables_number   1
_chemical_formula_structural   YCr3F15
_chemical_formula_sum   'Y2 Cr6 F30'
_cell_volume   676.92516554
_cell_formula_units_Z   2
loop_
 _symmetry_equiv_pos_site_id
 _symmetry_equiv_pos_as_xyz
  1  'x, y, z'
loop_
 _atom_site_type_symbol
 _atom_site_label
 _atom_site_symmetry_multiplicity
 _atom_site_fract_x
 _atom_site_fract_y
 _atom_site_fract_z
 _atom_site_occupancy
  Y  Y0  1  0.75000000  0.44138900  0.76167000  1
  Y  Y1  1  0.25000000  0.55861100  0.23833000  1
  Cr  Cr0  1  0.50000000  0.00000000  0.50000000  1
  Cr  Cr1  1  0.49885600  0.00909000  0.16398900  1
  Cr  Cr2  1  0.50114400  0.99091000  0.83601100  1
  Cr  Cr3  1  0.00000000  0.00000000  0.50000000  1
  Cr  Cr4  1  0.00114400  0.00909000  0.16398900  1
  Cr  Cr5  1  0.99885600  0.99091000  0.83601100  1
  F  F0  1  0.75000000  0.63209800  0.54663300  1
  F  F1  1  0.75000000  0.63449100  0.22258900  1
  F  F2  1  0.75000000  0.64037000  0.90368000  1
  F  F3  1  0.25000000  0.36790200  0.45336700  1
  F  F4  1  0.25000000  0.35963000  0.09632000  1
  F  F5  1  0.25000000  0.36550900  0.77741100  1
  F  F6  1  0.42031500  0.11238200  0.64876700  1
  F  F7  1  0.41442400  0.12027500  0.31625500  1
  F  F8  1  0.41688100  0.11434000  0.97504900  1
  F  F9  1  0.57968500  0.88761800  0.35123300  1
  F  F10  1  0.58311900  0.88566000  0.02495100  1
  F  F11  1  0.58557600  0.87972500  0.68374500  1
  F  F12  1  0.08358600  0.76468400  0.53933600  1
  F  F13  1  0.10203000  0.76492500  0.20916700  1
  F  F14  1  0.08112600  0.75169200  0.87979600  1
  F  F15  1  0.91641400  0.23531600  0.46066400  1
  F  F16  1  0.91887400  0.24830800  0.12020400  1
  F  F17  1  0.89797000  0.23507500  0.79083300  1
  F  F18  1  0.58358600  0.23531600  0.46066400  1
  F  F19  1  0.58112600  0.24830800  0.12020400  1
  F  F20  1  0.60203000  0.23507500  0.79083300  1
  F  F21  1  0.41641400  0.76468400  0.53933600  1
  F  F22  1  0.39797000  0.76492500  0.20916700  1
  F  F23  1  0.41887400  0.75169200  0.87979600  1
  F  F24  1  0.07968500  0.11238200  0.64876700  1
  F  F25  1  0.08557600  0.12027500  0.31625500  1
  F  F26  1  0.08311900  0.11434000  0.97504900  1
  F  F27  1  0.92031500  0.88761800  0.35123300  1
  F  F28  1  0.91688100  0.88566000  0.02495100  1
  F  F29  1  0.91442400  0.87972500  0.68374500  1
loop_
_geom_bond_atom_site_label_1
_geom_bond_atom_site_label_2
_geom_bond_distance
_geom_bond_site_symmetry_2
Cr0 F18 1.773432 1_555
Cr0 F21 1.773432 1_545
Cr0 F6 1.937092 1_555
Cr0 F9 1.937092 1_545
Cr0 F11 1.940686 1_545
Cr0 F7 1.940686 1_555
Cr1 F19 1.784080 1_555
Cr1 F9 1.936260 1_545
Cr1 F10 1.937450 1_545
Cr1 F8 1.939788 1_554
Cr1 F22 1.942801 1_545
Cr1 F7 1.986921 1_555
Cr2 F23 1.784080 1_555
Cr2 F6 1.936260 1_565
Cr2 F8 1.937450 1_565
Cr2 F10 1.939788 1_556
Cr2 F20 1.942801 1_565
Cr2 F11 1.986921 1_555
Cr3 F15 1.773432 1_455
Cr3 F12 1.773432 1_545
Cr3 F24 1.937092 1_555
Cr3 F27 1.937092 1_445
Cr3 F25 1.940686 1_555
Cr3 F29 1.940686 1_445
Cr4 F16 1.784080 1_455
Cr4 F27 1.936260 1_445
Cr4 F28 1.937450 1_445
Cr4 F26 1.939788 1_554
Cr4 F13 1.942801 1_545
Cr4 F25 1.986921 1_555
Cr5 F14 1.784080 1_655
Cr5 F24 1.936260 1_665
Cr5 F26 1.937450 1_665
Cr5 F28 1.939788 1_556
Cr5 F17 1.942801 1_565
Cr5 F29 1.986921 1_555
F0 Y0 2.011699 1_555
F2 Y0 2.027017 1_555
F3 Y1 2.011699 1_555
F4 Y1 2.027017 1_555
F13 Y1 2.201270 1_555
F17 Y0 2.201270 1_555
F20 Y0 2.201270 1_555
F22 Y1 2.201270 1_555
