# generated using pymatgen
data_BaMg(WO2)4
_symmetry_space_group_name_H-M   'P 1'
_cell_length_a   5.74304177
_cell_length_b   5.74304177
_cell_length_c   7.32097100
_cell_angle_alpha   90.00000000
_cell_angle_beta   90.00000000
_cell_angle_gamma   119.99999734
_symmetry_Int_Tables_number   1
_chemical_formula_structural   BaMg(WO2)4
_chemical_formula_sum   'Ba1 Mg1 W4 O8'
_cell_volume   209.11408196
_cell_formula_units_Z   1
loop_
 _symmetry_equiv_pos_site_id
 _symmetry_equiv_pos_as_xyz
  1  'x, y, z'
loop_
 _atom_site_type_symbol
 _atom_site_label
 _atom_site_symmetry_multiplicity
 _atom_site_fract_x
 _atom_site_fract_y
 _atom_site_fract_z
 _atom_site_occupancy
  Ba  Ba0  1  0.00000000  0.00000000  0.00000000  1
  Mg  Mg0  1  0.00000000  0.00000000  0.50000000  1
  W  W0  1  0.33333300  0.66666700  0.71691600  1
  W  W1  1  0.66666700  0.33333300  0.71691600  1
  W  W2  1  0.33333300  0.66666700  0.28308400  1
  W  W3  1  0.66666700  0.33333300  0.28308400  1
  O  O0  1  0.28998200  0.28998200  0.68393900  1
  O  O1  1  0.71001800  0.00000000  0.68393900  1
  O  O2  1  0.00000000  0.71001800  0.68393900  1
  O  O3  1  0.71001800  0.71001800  0.31606100  1
  O  O4  1  0.00000000  0.28998200  0.31606100  1
  O  O5  1  0.28998200  0.00000000  0.31606100  1
  O  O6  1  0.33333300  0.66666700  0.00000000  1
  O  O7  1  0.66666700  0.33333300  0.00000000  1
loop_
_geom_bond_atom_site_label_1
_geom_bond_atom_site_label_2
_geom_bond_distance
_geom_bond_site_symmetry_2
Ba0 O4 2.850876 1_555
Ba0 O5 2.850876 1_555
Ba0 O1 2.850876 1_454
Ba0 O2 2.850876 1_544
Ba0 O3 2.850876 1_445
Ba0 O0 2.850876 1_554
Ba0 O7 3.315743 1_455
Ba0 O6 3.315743 1_545
Ba0 O6 3.315748 1_555
Ba0 O6 3.315748 1_445
Ba0 O7 3.315748 1_555
Ba0 O7 3.315748 1_445
Mg0 O2 2.141693 1_545
Mg0 O1 2.141693 1_455
Mg0 O4 2.141693 1_555
Mg0 O5 2.141693 1_555
Mg0 O3 2.141693 1_445
Mg0 O0 2.141693 1_555
O0 W1 2.064369 1_555
O0 W0 2.064369 1_555
O1 W1 2.064363 1_555
O1 W0 2.064367 1_545
O2 W0 2.064363 1_555
O2 W1 2.064367 1_455
O3 W3 2.064369 1_555
O3 W2 2.064369 1_555
O4 W3 2.064363 1_455
O4 W2 2.064367 1_555
O5 W2 2.064363 1_545
O5 W3 2.064367 1_555
O6 W0 2.072450 1_554
O6 W2 2.072450 1_555
O7 W1 2.072450 1_554
O7 W3 2.072450 1_555
