# generated using pymatgen
data_Gd2NiPtO6
_symmetry_space_group_name_H-M   'P 1'
_cell_length_a   5.77176400
_cell_length_b   5.39663200
_cell_length_c   9.44205874
_cell_angle_alpha   55.30686171
_cell_angle_beta   90.00000000
_cell_angle_gamma   90.00000000
_symmetry_Int_Tables_number   1
_chemical_formula_structural   Gd2NiPtO6
_chemical_formula_sum   'Gd4 Ni2 Pt2 O12'
_cell_volume   241.81430562
_cell_formula_units_Z   2
loop_
 _symmetry_equiv_pos_site_id
 _symmetry_equiv_pos_as_xyz
  1  'x, y, z'
loop_
 _atom_site_type_symbol
 _atom_site_label
 _atom_site_symmetry_multiplicity
 _atom_site_fract_x
 _atom_site_fract_y
 _atom_site_fract_z
 _atom_site_occupancy
  Gd  Gd0  1  0.07229000  0.72533200  0.75210900  1
  Gd  Gd1  1  0.92771000  0.27466800  0.24789100  1
  Gd  Gd2  1  0.57229000  0.27466800  0.74789100  1
  Gd  Gd3  1  0.42771000  0.72533200  0.25210900  1
  Ni  Ni0  1  0.50000000  0.50000000  0.00000000  1
  Ni  Ni1  1  0.00000000  0.50000000  0.50000000  1
  Pt  Pt0  1  0.50000000  0.00000000  0.50000000  1
  Pt  Pt1  1  0.00000000  0.00000000  0.00000000  1
  O  O0  1  0.45555300  0.86990300  0.74879100  1
  O  O1  1  0.54444700  0.13009700  0.25120900  1
  O  O2  1  0.95555300  0.13009700  0.75120900  1
  O  O3  1  0.04444700  0.86990300  0.24879100  1
  O  O4  1  0.80028400  0.75093800  0.56199000  1
  O  O5  1  0.19971600  0.24906200  0.43801000  1
  O  O6  1  0.30028400  0.24906200  0.93801000  1
  O  O7  1  0.69971600  0.75093800  0.06199000  1
  O  O8  1  0.30667000  0.63452900  0.55597100  1
  O  O9  1  0.69333000  0.36547100  0.44402900  1
  O  O10  1  0.80667000  0.36547100  0.94402900  1
  O  O11  1  0.19333000  0.63452900  0.05597100  1
loop_
_geom_bond_atom_site_label_1
_geom_bond_atom_site_label_2
_geom_bond_distance
_geom_bond_site_symmetry_2
Gd0 O2 2.281311 1_465
Gd0 O10 2.323691 1_455
Gd0 O4 2.328928 1_455
Gd0 O0 2.339929 1_555
Gd0 O6 2.506620 1_555
Gd0 O8 2.555962 1_555
Gd0 O11 2.712814 1_556
Gd0 O5 2.789777 1_565
Gd1 O3 2.281311 1_645
Gd1 O11 2.323691 1_655
Gd1 O5 2.328928 1_655
Gd1 O1 2.339929 1_555
Gd1 O7 2.506620 1_555
Gd1 O9 2.555962 1_555
Gd1 O10 2.712814 1_554
Gd1 O4 2.789777 1_545
Gd2 O0 2.281311 1_545
Gd2 O8 2.323691 1_555
Gd2 O6 2.328928 1_555
Gd2 O2 2.339929 1_555
Gd2 O4 2.506620 1_555
Gd2 O10 2.555962 1_555
Gd2 O9 2.712814 1_555
Gd2 O7 2.789777 1_546
Gd3 O1 2.281311 1_565
Gd3 O9 2.323691 1_555
Gd3 O7 2.328928 1_555
Gd3 O3 2.339929 1_555
Gd3 O5 2.506620 1_555
Gd3 O11 2.555962 1_555
Gd3 O8 2.712814 1_555
Gd3 O6 2.789777 1_564
Ni0 O0 2.070446 1_554
Ni0 O1 2.070446 1_555
Ni0 O11 2.091921 1_555
Ni0 O10 2.091921 1_554
Ni0 O6 2.099421 1_554
Ni0 O7 2.099421 1_555
Ni1 O3 2.070446 1_555
Ni1 O2 2.070446 1_455
Ni1 O9 2.091921 1_455
Ni1 O8 2.091921 1_555
Ni1 O4 2.099421 1_455
Ni1 O5 2.099421 1_555
O0 Pt0 2.049277 1_565
O1 Pt0 2.049277 1_555
O2 Pt1 2.049277 1_656
O3 Pt1 2.049277 1_565
O4 Pt0 2.063368 1_565
O5 Pt0 2.063368 1_555
O6 Pt1 2.063368 1_556
O7 Pt1 2.063368 1_665
O8 Pt0 2.056184 1_565
O9 Pt0 2.056184 1_555
O10 Pt1 2.056184 1_656
O11 Pt1 2.056184 1_565
