# generated using pymatgen
data_Cr3FeO6
_symmetry_space_group_name_H-M   'P 1'
_cell_length_a   9.18816068
_cell_length_b   10.24053189
_cell_length_c   10.36012458
_cell_angle_alpha   84.20469233
_cell_angle_beta   93.08655689
_cell_angle_gamma   92.57152704
_symmetry_Int_Tables_number   1
_chemical_formula_structural   Cr3FeO6
_chemical_formula_sum   'Cr24 Fe8 O48'
_cell_volume   967.64906943
_cell_formula_units_Z   8
loop_
 _symmetry_equiv_pos_site_id
 _symmetry_equiv_pos_as_xyz
  1  'x, y, z'
loop_
 _atom_site_type_symbol
 _atom_site_label
 _atom_site_symmetry_multiplicity
 _atom_site_fract_x
 _atom_site_fract_y
 _atom_site_fract_z
 _atom_site_occupancy
  Cr  Cr0  1  0.49004100  0.03378300  0.32357500  1
  Cr  Cr1  1  0.27227000  0.84314200  0.20964200  1
  Cr  Cr2  1  0.08324400  0.31233000  0.53080900  1
  Cr  Cr3  1  0.75506600  0.09032600  0.07702700  1
  Cr  Cr4  1  0.63655100  0.52847200  0.22240900  1
  Cr  Cr5  1  0.25261600  0.56742200  0.48789700  1
  Cr  Cr6  1  0.89031000  0.93653200  0.54804600  1
  Cr  Cr7  1  0.58183800  0.87036200  0.87112300  1
  Cr  Cr8  1  0.91881000  0.40658700  0.28842800  1
  Cr  Cr9  1  0.22947800  0.07094800  0.47280300  1
  Cr  Cr10  1  0.15158800  0.16063700  0.05521000  1
  Cr  Cr11  1  0.83867500  0.70871100  0.79637100  1
  Cr  Cr12  1  0.56996400  0.59592100  0.78454500  1
  Cr  Cr13  1  0.50367000  0.84527900  0.60839400  1
  Cr  Cr14  1  0.71088800  0.21369000  0.42056800  1
  Cr  Cr15  1  0.45531300  0.33382600  0.58369200  1
  Cr  Cr16  1  0.78769000  0.42219500  0.64964800  1
  Cr  Cr17  1  0.58938500  0.13083300  0.79930700  1
  Cr  Cr18  1  0.26390800  0.04908400  0.75520600  1
  Cr  Cr19  1  0.95404900  0.64343400  0.41708500  1
  Cr  Cr20  1  0.67741800  0.84861600  0.28878600  1
  Cr  Cr21  1  0.97012500  0.00274300  0.87189300  1
  Cr  Cr22  1  0.21729600  0.41971600  0.79323700  1
  Cr  Cr23  1  0.42198900  0.34065200  0.01493000  1
  Fe  Fe0  1  0.03265800  0.64194500  0.12748500  1
  Fe  Fe1  1  0.93773400  0.46064700  0.94719700  1
  Fe  Fe2  1  0.37074900  0.32303700  0.30348400  1
  Fe  Fe3  1  0.21944900  0.76022300  0.68319200  1
  Fe  Fe4  1  0.58306000  0.61500100  0.49052100  1
  Fe  Fe5  1  0.30986800  0.64424600  0.94444300  1
  Fe  Fe6  1  0.46250100  0.06843200  0.05383300  1
  Fe  Fe7  1  0.99538800  0.91667200  0.27362400  1
  O  O0  1  0.17005200  0.59917500  0.79337900  1
  O  O1  1  0.08783600  0.74915600  0.28135700  1
  O  O2  1  0.20947700  0.34065100  0.97200200  1
  O  O3  1  0.78496400  0.50616600  0.80666700  1
  O  O4  1  0.41162000  0.20887100  0.73250700  1
  O  O5  1  0.31565200  0.94081800  0.61018400  1
  O  O6  1  0.41762200  0.48560900  0.87943600  1
  O  O7  1  0.24371500  0.70410300  0.09929700  1
  O  O8  1  0.70890900  0.36511100  0.27957500  1
  O  O9  1  0.25702600  0.41014600  0.61079900  1
  O  O10  1  0.67473100  0.27360200  0.60652900  1
  O  O11  1  0.58793500  0.67704500  0.29927100  1
  O  O12  1  0.04362400  0.98500400  0.43974600  1
  O  O13  1  0.35573800  0.19227200  0.14987700  1
  O  O14  1  0.41769400  0.45953700  0.41958600  1
  O  O15  1  0.14384600  0.11880800  0.87774500  1
  O  O16  1  0.91661000  0.26186400  0.41643000  1
  O  O17  1  0.97931100  0.36612800  0.68241500  1
  O  O18  1  0.84827300  0.81498800  0.41291700  1
  O  O19  1  0.74343000  0.01072500  0.91072000  1
  O  O20  1  0.15011700  0.13879000  0.62126000  1
  O  O21  1  0.38539700  0.70045400  0.54007700  1
  O  O22  1  0.85461400  0.59279700  0.24584400  1
  O  O23  1  0.19987400  0.24843500  0.38410900  1
  O  O24  1  0.45299000  0.44393900  0.15890200  1
  O  O25  1  0.56857700  0.90202300  0.43285200  1
  O  O26  1  0.67287800  0.72125000  0.65333300  1
  O  O27  1  0.10071200  0.68681000  0.55028800  1
  O  O28  1  0.48109200  0.18721500  0.42436500  1
  O  O29  1  0.77559200  0.05883600  0.53104000  1
  O  O30  1  0.01715600  0.44865300  0.12654700  1
  O  O31  1  0.82139300  0.92046500  0.16552400  1
  O  O32  1  0.67374100  0.10701400  0.26114900  1
  O  O33  1  0.67673300  0.70952000  0.90796700  1
  O  O34  1  0.13271400  0.97635700  0.13964800  1
  O  O35  1  0.90284500  0.88610700  0.72992400  1
  O  O36  1  0.43633200  0.00657400  0.88493400  1
  O  O37  1  0.48534900  0.91207900  0.17973500  1
  O  O38  1  0.07419600  0.48485400  0.40943200  1
  O  O39  1  0.79980100  0.53834100  0.50884200  1
  O  O40  1  0.42991700  0.75024000  0.78745200  1
  O  O41  1  0.59724800  0.21877800  0.97836000  1
  O  O42  1  0.30330800  0.97520300  0.34073700  1
  O  O43  1  0.56173600  0.47834100  0.64940700  1
  O  O44  1  0.96104100  0.66437600  0.95504800  1
  O  O45  1  0.94079200  0.14704300  0.00987800  1
  O  O46  1  0.15762500  0.89763000  0.80764900  1
  O  O47  1  0.60085800  0.97332800  0.70805100  1
loop_
_geom_bond_atom_site_label_1
_geom_bond_atom_site_label_2
_geom_bond_distance
_geom_bond_site_symmetry_2
Cr0 O42 1.803933 1_545
Cr0 O25 1.820413 1_545
Cr0 O32 1.932764 1_555
Cr0 O28 1.979401 1_555
Cr0 O37 2.034499 1_545
Cr0 O13 2.597304 1_555
Cr1 O7 1.914657 1_555
Cr1 O34 1.971830 1_555
Cr1 O42 2.012327 1_555
Cr1 O1 2.048140 1_555
Cr1 O37 2.079542 1_555
Cr2 O16 1.967917 1_455
Cr2 O17 2.016406 1_455
Cr2 O20 2.028192 1_555
Cr2 O9 2.030104 1_555
Cr2 O38 2.064653 1_555
Cr2 O23 2.079787 1_555
Cr3 O45 1.921115 1_555
Cr3 O19 1.974964 1_554
Cr3 O31 1.987616 1_545
Cr3 O32 2.111160 1_555
Cr3 O41 2.148924 1_554
Cr4 O8 1.857063 1_555
Cr4 O11 1.868809 1_555
Cr4 O24 1.972650 1_555
Cr4 O22 2.090155 1_555
Cr5 O21 1.888159 1_555
Cr5 O9 1.950138 1_555
Cr5 O38 1.983468 1_555
Cr5 O27 2.066505 1_555
Cr5 O14 2.108524 1_555
Cr6 O29 1.662711 1_565
Cr6 O12 1.866716 1_655
Cr6 O35 1.901549 1_555
Cr6 O18 1.977067 1_555
Cr7 O33 1.893397 1_555
Cr7 O47 1.911045 1_555
Cr7 O36 1.995447 1_565
Cr7 O40 2.035686 1_555
Cr7 O19 2.073838 1_565
Cr8 O16 1.886460 1_555
Cr8 O30 1.948629 1_655
Cr8 O8 1.955413 1_555
Cr8 O22 2.020344 1_555
Cr8 O38 2.039558 1_655
Cr9 O12 1.915987 1_545
Cr9 O42 1.929791 1_545
Cr9 O20 1.939570 1_555
Cr9 O23 1.975354 1_555
Cr9 O5 2.004687 1_545
Cr9 O28 2.602202 1_555
Cr10 O15 1.926415 1_554
Cr10 O45 1.970355 1_455
Cr10 O34 2.002537 1_545
Cr10 O2 2.016127 1_554
Cr10 O13 2.096868 1_555
Cr11 O33 1.933659 1_555
Cr11 O35 1.953641 1_555
Cr11 O44 1.966904 1_555
Cr11 O26 2.066196 1_555
Cr11 O3 2.103862 1_555
Cr12 O43 1.933011 1_555
Cr12 O6 1.995964 1_555
Cr12 O33 2.003392 1_555
Cr12 O26 2.016539 1_555
Cr12 O40 2.085744 1_555
Cr12 O3 2.207124 1_555
Cr13 O47 1.910999 1_555
Cr13 O21 1.966204 1_555
Cr13 O25 1.968007 1_555
Cr13 O5 2.025024 1_555
Cr13 O26 2.055947 1_555
Cr13 O40 2.135246 1_555
Cr14 O16 1.933616 1_555
Cr14 O29 1.955211 1_555
Cr14 O8 2.020074 1_555
Cr14 O32 2.075539 1_555
Cr14 O28 2.118607 1_555
Cr14 O10 2.127068 1_555
Cr15 O43 1.900455 1_555
Cr15 O4 1.948762 1_555
Cr15 O14 2.049857 1_555
Cr15 O9 2.058200 1_555
Cr15 O10 2.128735 1_555
Cr15 O28 2.368409 1_555
Cr16 O39 1.791720 1_555
Cr16 O17 1.879295 1_555
Cr16 O10 1.880925 1_555
Cr16 O3 1.917070 1_555
Cr16 O43 2.178773 1_555
Cr17 O4 1.915482 1_555
Cr17 O47 1.959704 1_545
Cr17 O36 2.032135 1_555
Cr17 O19 2.131204 1_555
Cr17 O41 2.138805 1_555
Cr17 O10 2.493467 1_555
Cr18 O46 1.845370 1_545
Cr18 O20 1.880220 1_555
Cr18 O15 1.934678 1_555
Cr18 O5 2.042847 1_545
Cr18 O36 2.054301 1_555
Cr18 O4 2.081387 1_555
Cr19 O27 1.946137 1_655
Cr19 O39 1.967769 1_555
Cr19 O38 2.014556 1_655
Cr19 O18 2.041118 1_555
Cr19 O22 2.054186 1_555
Cr19 O1 2.102323 1_655
Cr20 O11 1.901633 1_555
Cr20 O31 1.956251 1_555
Cr20 O25 1.975237 1_555
Cr20 O18 1.994616 1_555
Cr20 O37 2.133794 1_555
Cr21 O15 1.948856 1_655
Cr21 O35 2.040265 1_545
Cr21 O19 2.149220 1_555
Cr21 O45 2.191732 1_556
Cr21 O46 2.237006 1_645
Cr22 O0 1.907348 1_555
Cr22 O2 1.948592 1_555
Cr22 O9 1.957086 1_555
Cr22 O6 2.115177 1_555
Cr22 O17 2.479913 1_455
Cr23 O24 1.915851 1_555
Cr23 O6 1.937550 1_554
Cr23 O2 1.979116 1_554
Cr23 O13 2.052712 1_555
Cr23 O41 2.153093 1_554
Fe0 O44 1.865833 1_454
Fe0 O30 1.979114 1_555
Fe0 O7 2.040522 1_555
Fe0 O1 2.054299 1_555
Fe0 O22 2.109639 1_455
Fe1 O30 1.953468 1_656
Fe1 O3 2.002209 1_555
Fe1 O44 2.096997 1_555
Fe2 O23 1.910773 1_555
Fe2 O14 1.953552 1_555
Fe2 O24 2.002742 1_555
Fe2 O28 2.041779 1_555
Fe2 O13 2.175979 1_555
Fe3 O27 1.903931 1_555
Fe3 O0 1.958948 1_555
Fe3 O5 2.101543 1_555
Fe3 O46 2.117120 1_555
Fe3 O40 2.165018 1_555
Fe3 O21 2.325585 1_555
Fe4 O11 2.020967 1_555
Fe4 O43 2.061890 1_555
Fe4 O21 2.159062 1_555
Fe4 O39 2.165105 1_555
Fe4 O26 2.202315 1_555
Fe4 O14 2.298308 1_555
Fe5 O7 1.912072 1_556
Fe5 O0 2.046674 1_555
Fe5 O6 2.123668 1_555
Fe5 O40 2.183898 1_555
Fe6 O36 1.919846 1_554
Fe6 O37 1.971796 1_545
Fe6 O13 2.008042 1_555
Fe6 O41 2.050547 1_554
Fe7 O31 1.901460 1_555
Fe7 O1 1.940720 1_655
Fe7 O12 1.944561 1_655
Fe7 O34 1.959664 1_655
Fe7 O18 2.185006 1_555
