# generated using pymatgen
data_Li7Mn4(P2O7)4
_symmetry_space_group_name_H-M   'P 1'
_cell_length_a   9.71472652
_cell_length_b   9.75436760
_cell_length_c   11.15180996
_cell_angle_alpha   77.21096225
_cell_angle_beta   90.00000000
_cell_angle_gamma   90.00000000
_symmetry_Int_Tables_number   1
_chemical_formula_structural   Li7Mn4(P2O7)4
_chemical_formula_sum   'Li14 Mn8 P16 O56'
_cell_volume   1030.54050156
_cell_formula_units_Z   2
loop_
 _symmetry_equiv_pos_site_id
 _symmetry_equiv_pos_as_xyz
  1  'x, y, z'
loop_
 _atom_site_type_symbol
 _atom_site_label
 _atom_site_symmetry_multiplicity
 _atom_site_fract_x
 _atom_site_fract_y
 _atom_site_fract_z
 _atom_site_occupancy
  Li  Li0  1  0.96785442  0.11711554  0.54812974  1
  Li  Li1  1  0.67356957  0.17132193  0.45364724  1
  Li  Li2  1  0.35381856  0.08703263  0.97236432  1
  Li  Li3  1  0.65925991  0.15376780  0.95863720  1
  Li  Li4  1  0.86194845  0.41095981  0.02869743  1
  Li  Li5  1  0.17213574  0.32760025  0.54876850  1
  Li  Li6  1  0.47285448  0.38584279  0.44856531  1
  Li  Li7  1  0.03214558  0.61711554  0.54812974  1
  Li  Li8  1  0.32643043  0.67132193  0.45364724  1
  Li  Li9  1  0.64618144  0.58703263  0.97236432  1
  Li  Li10  1  0.34074009  0.65376780  0.95863720  1
  Li  Li11  1  0.13805155  0.91095981  0.02869743  1
  Li  Li12  1  0.82786426  0.82760025  0.54876850  1
  Li  Li13  1  0.52714552  0.88584279  0.44856531  1
  Mn  Mn0  1  0.17109800  0.20966792  0.31961435  1
  Mn  Mn1  1  0.46346697  0.25684184  0.17478747  1
  Mn  Mn2  1  0.96552430  0.23622522  0.83245246  1
  Mn  Mn3  1  0.67441510  0.29554794  0.67433531  1
  Mn  Mn4  1  0.82890200  0.70966792  0.31961435  1
  Mn  Mn5  1  0.53653303  0.75684184  0.17478747  1
  Mn  Mn6  1  0.03447570  0.73622522  0.83245246  1
  Mn  Mn7  1  0.32558490  0.79554794  0.67433531  1
  P  P0  1  0.69686303  0.02357294  0.24326121  1
  P  P1  1  0.95600165  0.11670937  0.11541393  1
  P  P2  1  0.17994191  0.05786546  0.75452599  1
  P  P3  1  0.40046460  0.12141875  0.57358105  1
  P  P4  1  0.90184816  0.38320798  0.42416551  1
  P  P5  1  0.68282042  0.43955237  0.24297719  1
  P  P6  1  0.30313697  0.52357294  0.24326121  1
  P  P7  1  0.45757268  0.38222816  0.88987404  1
  P  P8  1  0.04399835  0.61670937  0.11541393  1
  P  P9  1  0.20089072  0.47479321  0.75616049  1
  P  P10  1  0.82005809  0.55786546  0.75452599  1
  P  P11  1  0.59953540  0.62141875  0.57358105  1
  P  P12  1  0.09815184  0.88320798  0.42416551  1
  P  P13  1  0.31717958  0.93955237  0.24297719  1
  P  P14  1  0.54242732  0.88222816  0.88987404  1
  P  P15  1  0.79910928  0.97479321  0.75616049  1
  O  O0  1  0.65419189  0.02545276  0.37244189  1
  O  O1  1  0.09256030  0.03267280  0.44213916  1
  O  O2  1  0.33880872  0.08441872  0.27032621  1
  O  O3  1  0.60499920  0.11080124  0.14418102  1
  O  O4  1  0.84458843  0.09097086  0.22800878  1
  O  O5  1  0.07293676  0.18457157  0.16886609  1
  O  O6  1  0.88240514  0.21935098  0.00734170  1
  O  O7  1  0.52483720  0.02351300  0.91906165  1
  O  O8  1  0.32934432  0.11347503  0.70405861  1
  O  O9  1  0.18105460  0.06225819  0.88774200  1
  O  O10  1  0.78560590  0.12383846  0.78416698  1
  O  O11  1  0.54244584  0.18452855  0.58228046  1
  O  O12  1  0.07573566  0.16495692  0.68433465  1
  O  O13  1  0.31480576  0.22415080  0.48071189  1
  O  O14  1  0.81570058  0.28003177  0.51651527  1
  O  O15  1  0.57994038  0.33137543  0.31405098  1
  O  O16  1  0.04449030  0.32126204  0.41860318  1
  O  O17  1  0.29480354  0.37147343  0.22357350  1
  O  O18  1  0.83237174  0.38786530  0.29380688  1
  O  O19  1  0.68331569  0.43426223  0.10990800  1
  O  O20  1  0.01712354  0.48008471  0.08375331  1
  O  O21  1  0.39896670  0.27296677  -0.00177545  1
  O  O22  1  0.58430874  0.32239981  0.84026238  1
  O  O23  1  0.34773585  0.40018225  0.77904616  1
  O  O24  1  0.83850998  0.41255989  0.72691400  1
  O  O25  1  0.09909007  0.38963061  0.84351853  1
  O  O26  1  0.34580811  0.52545276  0.37244189  1
  O  O27  1  0.59136056  0.47260819  0.55497001  1
  O  O28  1  0.90743970  0.53267280  0.44213916  1
  O  O29  1  0.17237038  0.48348176  0.62169341  1
  O  O30  1  0.39500080  0.61080124  0.14418102  1
  O  O31  1  0.66119128  0.58441872  0.27032621  1
  O  O32  1  0.15541157  0.59097086  0.22800878  1
  O  O33  1  0.92706324  0.68457157  0.16886609  1
  O  O34  1  0.11759486  0.71935098  0.00734170  1
  O  O35  1  0.47516280  0.52351300  0.91906165  1
  O  O36  1  0.81894540  0.56225819  0.88774200  1
  O  O37  1  0.67065568  0.61347503  0.70405861  1
  O  O38  1  0.21439410  0.62383846  0.78416698  1
  O  O39  1  0.45755416  0.68452855  0.58228046  1
  O  O40  1  0.92426434  0.66495692  0.68433465  1
  O  O41  1  0.68519424  0.72415080  0.48071189  1
  O  O42  1  0.18429942  0.78003177  0.51651527  1
  O  O43  1  0.42005962  0.83137543  0.31405098  1
  O  O44  1  0.95550970  0.82126204  0.41860318  1
  O  O45  1  0.70519646  0.87147343  0.22357350  1
  O  O46  1  0.31668431  0.93426223  0.10990800  1
  O  O47  1  0.16762826  0.88786530  0.29380688  1
  O  O48  1  0.98287646  0.98008471  0.08375331  1
  O  O49  1  0.60103330  0.77296677  -0.00177545  1
  O  O50  1  0.41569126  0.82239981  0.84026238  1
  O  O51  1  0.65226415  0.90018225  0.77904616  1
  O  O52  1  0.90090993  0.88963061  0.84351853  1
  O  O53  1  0.16149002  0.91255989  0.72691400  1
  O  O54  1  0.40863944  0.97260819  0.55497001  1
  O  O55  1  0.82762962  0.98348176  0.62169341  1
loop_
_geom_bond_atom_site_label_1
_geom_bond_atom_site_label_2
_geom_bond_distance
_geom_bond_site_symmetry_2
Li0 O55 1.937636 1_545
Li0 O12 1.984218 1_655
Li0 O1 1.993558 1_655
Li0 O14 2.141614 1_555
Li0 O16 2.309252 1_655
Li1 O0 1.857558 1_555
Li1 O11 1.943920 1_555
Li1 O14 1.962553 1_555
Li1 O15 2.147606 1_555
Li2 O7 1.913253 1_555
Li2 O46 1.921342 1_546
Li2 O21 1.948461 1_556
Li2 O9 1.966416 1_555
Li3 O7 1.939758 1_555
Li3 O22 2.004288 1_555
Li3 O3 2.085897 1_556
Li3 O6 2.357417 1_556
Li3 O10 2.372519 1_555
Li4 O20 1.813116 1_655
Li4 O6 1.945899 1_555
Li4 O36 1.948438 1_554
Li4 O19 1.993614 1_555
Li5 O29 1.876386 1_555
Li5 O16 1.920504 1_555
Li5 O13 1.963242 1_555
Li5 O12 2.148876 1_555
Li6 O26 1.893848 1_555
Li6 O27 1.973405 1_555
Li6 O15 1.991883 1_555
Li6 O13 2.173296 1_555
Li6 O11 2.289180 1_555
Li7 O29 1.937636 1_555
Li7 O40 1.984218 1_455
Li7 O28 1.993558 1_455
Li7 O42 2.141614 1_555
Li7 O44 2.309252 1_455
Li8 O26 1.857558 1_555
Li8 O39 1.943920 1_555
Li8 O42 1.962553 1_555
Li8 O43 2.147606 1_555
Li9 O35 1.913253 1_555
Li9 O19 1.921342 1_556
Li9 O49 1.948461 1_556
Li9 O36 1.966416 1_555
Li10 O35 1.939758 1_555
Li10 O50 2.004288 1_555
Li10 O30 2.085897 1_556
Li10 O34 2.357417 1_556
Li10 O38 2.372519 1_555
Li11 O48 1.813116 1_455
Li11 O34 1.945899 1_555
Li11 O9 1.948438 1_564
Li11 O46 1.993614 1_555
Li12 O55 1.876386 1_555
Li12 O44 1.920504 1_555
Li12 O41 1.963242 1_555
Li12 O40 2.148876 1_555
Li13 O0 1.893848 1_565
Li13 O54 1.973405 1_555
Li13 O43 1.991883 1_555
Li13 O41 2.173296 1_555
Li13 O39 2.289180 1_555
Mn0 O5 1.994403 1_555
Mn0 O17 2.081831 1_555
Mn0 O1 2.094142 1_555
Mn0 O16 2.109098 1_555
Mn0 O2 2.178654 1_555
Mn0 O13 2.304101 1_555
Mn1 O21 2.038922 1_555
Mn1 O3 2.061925 1_555
Mn1 O17 2.121401 1_555
Mn1 O2 2.153393 1_555
Mn1 O15 2.172716 1_555
Mn2 O25 2.004935 1_655
Mn2 O6 2.083455 1_556
Mn2 O10 2.192736 1_555
Mn2 O12 2.205984 1_655
Mn2 O24 2.229350 1_555
Mn2 O9 2.679668 1_655
Mn3 O11 2.088637 1_555
Mn3 O27 2.094760 1_555
Mn3 O22 2.115032 1_555
Mn3 O24 2.117571 1_555
Mn3 O10 2.136377 1_555
Mn3 O14 2.263240 1_555
Mn4 O33 1.994403 1_555
Mn4 O45 2.081831 1_555
Mn4 O28 2.094142 1_555
Mn4 O44 2.109098 1_555
Mn4 O31 2.178654 1_555
Mn4 O41 2.304101 1_555
Mn5 O49 2.038922 1_555
Mn5 O30 2.061925 1_555
Mn5 O45 2.121401 1_555
Mn5 O31 2.153393 1_555
Mn5 O43 2.172716 1_555
Mn6 O52 2.004935 1_455
Mn6 O34 2.083455 1_556
Mn6 O38 2.192736 1_555
Mn6 O40 2.205984 1_455
Mn6 O53 2.229350 1_555
Mn6 O36 2.679668 1_455
Mn7 O39 2.088637 1_555
Mn7 O54 2.094760 1_555
Mn7 O50 2.115032 1_555
Mn7 O53 2.117571 1_555
Mn7 O38 2.136377 1_555
Mn7 O42 2.263240 1_555
O0 P0 1.503062 1_555
O1 P12 1.515941 1_545
O2 P13 1.524719 1_545
O3 P0 1.524805 1_555
O4 P0 1.571998 1_555
O4 P1 1.634493 1_555
O5 P1 1.502888 1_455
O6 P1 1.559451 1_555
O7 P14 1.494331 1_545
O8 P3 1.597076 1_555
O8 P2 1.606985 1_555
O9 P2 1.495707 1_555
O10 P15 1.558666 1_545
O11 P3 1.522269 1_555
O12 P2 1.538421 1_555
O13 P3 1.519795 1_555
O14 P4 1.521523 1_555
O15 P5 1.539575 1_555
O16 P4 1.518485 1_455
O17 P6 1.549239 1_555
O18 P4 1.594277 1_555
O18 P5 1.599922 1_555
O19 P5 1.496239 1_555
O20 P8 1.475533 1_555
O21 P7 1.532937 1_554
O22 P7 1.518382 1_555
O23 P9 1.596134 1_555
O23 P7 1.612741 1_555
O24 P10 1.526136 1_555
O25 P9 1.502966 1_555
O26 P6 1.503062 1_555
O27 P11 1.513197 1_555
O28 P4 1.515941 1_555
O29 P9 1.508754 1_555
O30 P6 1.524805 1_555
O31 P5 1.524719 1_555
O32 P6 1.571998 1_555
O32 P8 1.634493 1_555
O33 P8 1.502888 1_655
O34 P8 1.559451 1_555
O35 P7 1.494331 1_555
O36 P10 1.495707 1_555
O37 P11 1.597076 1_555
O37 P10 1.606985 1_555
O38 P9 1.558666 1_555
O39 P11 1.522269 1_555
O40 P10 1.538421 1_555
O41 P11 1.519795 1_555
O42 P12 1.521523 1_555
O43 P13 1.539575 1_555
O44 P12 1.518485 1_655
O45 P0 1.549239 1_565
O46 P13 1.496239 1_555
O47 P12 1.594277 1_555
O47 P13 1.599922 1_555
O48 P1 1.475533 1_565
O49 P14 1.532937 1_554
O50 P14 1.518382 1_555
O51 P15 1.596134 1_555
O51 P14 1.612741 1_555
O52 P15 1.502966 1_555
O53 P2 1.526136 1_565
O54 P3 1.513197 1_565
O55 P15 1.508754 1_555
