# generated using pymatgen
data_Mg(ScSe2)2
_symmetry_space_group_name_H-M   'P 1'
_cell_length_a   7.56867500
_cell_length_b   12.73784000
_cell_length_c   13.08248000
_cell_angle_alpha   90.00000000
_cell_angle_beta   90.00000000
_cell_angle_gamma   90.00000000
_symmetry_Int_Tables_number   1
_chemical_formula_structural   Mg(ScSe2)2
_chemical_formula_sum   'Mg8 Sc16 Se32'
_cell_volume   1261.26320406
_cell_formula_units_Z   8
loop_
 _symmetry_equiv_pos_site_id
 _symmetry_equiv_pos_as_xyz
  1  'x, y, z'
loop_
 _atom_site_type_symbol
 _atom_site_label
 _atom_site_symmetry_multiplicity
 _atom_site_fract_x
 _atom_site_fract_y
 _atom_site_fract_z
 _atom_site_occupancy
  Mg  Mg0  1  0.37981000  0.10934300  0.68694500  1
  Mg  Mg1  1  0.62019000  0.89065700  0.18694500  1
  Mg  Mg2  1  0.37981000  0.39065700  0.18694500  1
  Mg  Mg3  1  0.62019000  0.60934300  0.68694500  1
  Mg  Mg4  1  0.87833200  0.12567700  0.32298500  1
  Mg  Mg5  1  0.12166800  0.87432300  0.82298500  1
  Mg  Mg6  1  0.87833200  0.37432300  0.82298500  1
  Mg  Mg7  1  0.12166800  0.62567700  0.32298500  1
  Sc  Sc0  1  0.88086600  0.10713800  0.68696700  1
  Sc  Sc1  1  0.11913400  0.89286200  0.18696700  1
  Sc  Sc2  1  0.88086600  0.39286200  0.18696700  1
  Sc  Sc3  1  0.11913400  0.60713800  0.68696700  1
  Sc  Sc4  1  0.38001300  0.12845100  0.32656400  1
  Sc  Sc5  1  0.61998700  0.87154900  0.82656400  1
  Sc  Sc6  1  0.38001300  0.37154900  0.82656400  1
  Sc  Sc7  1  0.61998700  0.62845100  0.32656400  1
  Sc  Sc8  1  0.62839200  0.13285900  0.98737200  1
  Sc  Sc9  1  0.37160800  0.86714100  0.48737200  1
  Sc  Sc10  1  0.62839200  0.36714100  0.48737200  1
  Sc  Sc11  1  0.37160800  0.63285900  0.98737200  1
  Sc  Sc12  1  0.12924300  0.13194600  0.98963500  1
  Sc  Sc13  1  0.87075700  0.86805400  0.48963500  1
  Sc  Sc14  1  0.12924300  0.36805400  0.48963500  1
  Sc  Sc15  1  0.87075700  0.63194600  0.98963500  1
  Se  Se0  1  0.87143700  0.01637400  0.87518100  1
  Se  Se1  1  0.12856300  0.98362600  0.37518100  1
  Se  Se2  1  0.87143700  0.48362600  0.37518100  1
  Se  Se3  1  0.12856300  0.51637400  0.87518100  1
  Se  Se4  1  0.36946700  0.03912300  0.13198000  1
  Se  Se5  1  0.63053300  0.96087700  0.63198000  1
  Se  Se6  1  0.36946700  0.46087700  0.63198000  1
  Se  Se7  1  0.63053300  0.53912300  0.13198000  1
  Se  Se8  1  0.37917900  0.01826600  0.87304700  1
  Se  Se9  1  0.62082100  0.98173400  0.37304700  1
  Se  Se10  1  0.37917900  0.48173400  0.37304700  1
  Se  Se11  1  0.62082100  0.51826600  0.87304700  1
  Se  Se12  1  0.87725800  0.03817900  0.13209000  1
  Se  Se13  1  0.12274200  0.96182100  0.63209000  1
  Se  Se14  1  0.87725800  0.46182100  0.63209000  1
  Se  Se15  1  0.12274200  0.53817900  0.13209000  1
  Se  Se16  1  0.87965300  0.21576000  0.51103700  1
  Se  Se17  1  0.12034700  0.78424000  0.01103700  1
  Se  Se18  1  0.87965300  0.28424000  0.01103700  1
  Se  Se19  1  0.12034700  0.71576000  0.51103700  1
  Se  Se20  1  0.37878600  0.21639400  0.51262800  1
  Se  Se21  1  0.62121400  0.78360600  0.01262800  1
  Se  Se22  1  0.37878600  0.28360600  0.01262800  1
  Se  Se23  1  0.62121400  0.71639400  0.51262800  1
  Se  Se24  1  0.12825800  0.22913100  0.78112800  1
  Se  Se25  1  0.87174200  0.77086900  0.28112800  1
  Se  Se26  1  0.12825800  0.27086900  0.28112800  1
  Se  Se27  1  0.87174200  0.72913100  0.78112800  1
  Se  Se28  1  0.63053300  0.23100700  0.77944100  1
  Se  Se29  1  0.36946700  0.76899300  0.27944100  1
  Se  Se30  1  0.63053300  0.26899300  0.27944100  1
  Se  Se31  1  0.36946700  0.73100700  0.77944100  1
loop_
_geom_bond_atom_site_label_1
_geom_bond_atom_site_label_2
_geom_bond_distance
_geom_bond_site_symmetry_2
Mg0 Se20 2.657091 1_555
Mg0 Se8 2.696953 1_555
Mg0 Se28 2.732583 1_555
Mg0 Se24 2.733362 1_555
Mg0 Se5 2.773898 1_545
Mg0 Se13 2.798513 1_545
Mg1 Se21 2.657091 1_555
Mg1 Se9 2.696953 1_555
Mg1 Se29 2.732583 1_555
Mg1 Se25 2.733362 1_555
Mg1 Se4 2.773898 1_565
Mg1 Se12 2.798513 1_565
Mg2 Se22 2.657091 1_555
Mg2 Se10 2.696953 1_555
Mg2 Se30 2.732583 1_555
Mg2 Se26 2.733362 1_555
Mg2 Se7 2.773898 1_555
Mg2 Se15 2.798513 1_555
Mg3 Se23 2.657091 1_555
Mg3 Se11 2.696953 1_555
Mg3 Se31 2.732583 1_555
Mg3 Se27 2.733362 1_555
Mg3 Se6 2.773898 1_555
Mg3 Se14 2.798513 1_555
Mg4 Se30 2.678551 1_555
Mg4 Se26 2.701563 1_655
Mg4 Se1 2.706884 1_645
Mg4 Se16 2.714643 1_555
Mg4 Se12 2.734806 1_555
Mg4 Se9 2.754889 1_545
Mg5 Se31 2.678551 1_555
Mg5 Se27 2.701563 1_455
Mg5 Se0 2.706884 1_465
Mg5 Se17 2.714643 1_556
Mg5 Se13 2.734806 1_555
Mg5 Se8 2.754889 1_565
Mg6 Se28 2.678551 1_555
Mg6 Se24 2.701563 1_655
Mg6 Se3 2.706884 1_655
Mg6 Se18 2.714643 1_556
Mg6 Se14 2.734806 1_555
Mg6 Se11 2.754889 1_555
Mg7 Se29 2.678551 1_555
Mg7 Se25 2.701563 1_455
Mg7 Se2 2.706884 1_455
Mg7 Se19 2.714643 1_555
Mg7 Se15 2.734806 1_555
Mg7 Se10 2.754889 1_555
Sc0 Se16 2.685484 1_555
Sc0 Se13 2.700575 1_645
Sc0 Se0 2.721157 1_555
Sc0 Se24 2.727299 1_655
Sc0 Se28 2.746446 1_555
Sc0 Se5 2.752869 1_545
Sc1 Se17 2.685484 1_555
Sc1 Se12 2.700575 1_465
Sc1 Se1 2.721157 1_555
Sc1 Se25 2.727299 1_455
Sc1 Se29 2.746446 1_555
Sc1 Se4 2.752869 1_565
Sc2 Se18 2.685484 1_555
Sc2 Se15 2.700575 1_655
Sc2 Se2 2.721157 1_555
Sc2 Se26 2.727299 1_655
Sc2 Se30 2.746446 1_555
Sc2 Se7 2.752869 1_555
Sc3 Se19 2.685484 1_555
Sc3 Se14 2.700575 1_455
Sc3 Se3 2.721157 1_555
Sc3 Se27 2.727299 1_455
Sc3 Se31 2.746446 1_555
Sc3 Se6 2.752869 1_555
Sc4 Se30 2.679569 1_555
Sc4 Se20 2.679584 1_555
Sc4 Se9 2.680353 1_545
Sc4 Se26 2.697226 1_555
Sc4 Se1 2.725733 1_545
Sc4 Se4 2.789508 1_555
Sc5 Se31 2.679569 1_555
Sc5 Se21 2.679584 1_556
Sc5 Se8 2.680353 1_565
Sc5 Se27 2.697226 1_555
Sc5 Se0 2.725733 1_565
Sc5 Se5 2.789508 1_555
Sc6 Se28 2.679569 1_555
Sc6 Se22 2.679584 1_556
Sc6 Se11 2.680353 1_555
Sc6 Se24 2.697226 1_555
Sc6 Se3 2.725733 1_555
Sc6 Se6 2.789508 1_555
Sc7 Se29 2.679569 1_555
Sc7 Se23 2.679584 1_555
Sc7 Se10 2.680353 1_555
Sc7 Se25 2.697226 1_555
Sc7 Se2 2.725733 1_555
Sc7 Se7 2.789508 1_555
Sc8 Se22 2.713915 1_556
Sc8 Se18 2.725908 1_556
Sc8 Se0 2.782028 1_555
Sc8 Se8 2.815210 1_555
Sc8 Se12 2.930333 1_556
Sc8 Se4 2.974079 1_556
Sc8 Se28 2.993831 1_555
Sc9 Se23 2.713915 1_555
Sc9 Se19 2.725908 1_555
Sc9 Se1 2.782028 1_555
Sc9 Se9 2.815210 1_555
Sc9 Se13 2.930333 1_555
Sc9 Se5 2.974079 1_555
Sc9 Se29 2.993831 1_555
Sc10 Se20 2.713915 1_555
Sc10 Se16 2.725908 1_555
Sc10 Se2 2.782028 1_555
Sc10 Se10 2.815210 1_555
Sc10 Se14 2.930333 1_555
Sc10 Se6 2.974079 1_555
Sc10 Se30 2.993831 1_555
Sc11 Se21 2.713915 1_556
Sc11 Se17 2.725908 1_556
Sc11 Se3 2.782028 1_555
Sc11 Se11 2.815210 1_555
Sc11 Se15 2.930333 1_556
Sc11 Se7 2.974079 1_556
Sc11 Se31 2.993831 1_555
Sc12 Se22 2.718389 1_556
Sc12 Se18 2.722161 1_456
Sc12 Se8 2.828728 1_555
Sc12 Se4 2.858608 1_556
Sc12 Se0 2.866461 1_455
Sc12 Se12 2.921848 1_456
Sc12 Se24 2.995555 1_555
Sc13 Se23 2.718389 1_555
Sc13 Se19 2.722161 1_655
Sc13 Se9 2.828728 1_555
Sc13 Se5 2.858608 1_555
Sc13 Se1 2.866461 1_655
Sc13 Se13 2.921848 1_655
Sc13 Se25 2.995555 1_555
Sc14 Se20 2.718389 1_555
Sc14 Se16 2.722161 1_455
Sc14 Se10 2.828728 1_555
Sc14 Se6 2.858608 1_555
Sc14 Se2 2.866461 1_455
Sc14 Se14 2.921848 1_455
Sc14 Se26 2.995555 1_555
Sc15 Se21 2.718389 1_556
Sc15 Se17 2.722161 1_656
Sc15 Se11 2.828728 1_555
Sc15 Se7 2.858608 1_556
Sc15 Se3 2.866461 1_655
Sc15 Se15 2.921848 1_656
Sc15 Se27 2.995555 1_555
