# generated using pymatgen
data_Cu2B3Ir4
_symmetry_space_group_name_H-M   'P 1'
_cell_length_a   12.83828703
_cell_length_b   12.83828703
_cell_length_c   2.80808613
_cell_angle_alpha   90.00000000
_cell_angle_beta   90.00000000
_cell_angle_gamma   167.30160744
_symmetry_Int_Tables_number   1
_chemical_formula_structural   Cu2B3Ir4
_chemical_formula_sum   'Cu2 B3 Ir4'
_cell_volume   101.73947435
_cell_formula_units_Z   1
loop_
 _symmetry_equiv_pos_site_id
 _symmetry_equiv_pos_as_xyz
  1  'x, y, z'
loop_
 _atom_site_type_symbol
 _atom_site_label
 _atom_site_symmetry_multiplicity
 _atom_site_fract_x
 _atom_site_fract_y
 _atom_site_fract_z
 _atom_site_occupancy
  Cu  Cu0  1  0.27662486  0.72337514  0.50000000  1
  Cu  Cu1  1  0.72119679  0.27880321  -0.00000000  1
  B  B0  1  0.38170182  0.61829818  0.50000000  1
  B  B1  1  0.61480201  0.38519799  0.00000000  1
  B  B2  1  0.98978185  0.01021815  0.50000000  1
  Ir  Ir0  1  0.15074690  0.84925310  0.50000000  1
  Ir  Ir1  1  0.84807878  0.15192122  -0.00000000  1
  Ir  Ir2  1  0.55101905  0.44898095  0.50000000  1
  Ir  Ir3  1  0.45004593  0.54995407  0.00000000  1
loop_
_geom_bond_atom_site_label_1
_geom_bond_atom_site_label_2
_geom_bond_distance
_geom_bond_site_symmetry_2
Cu0 Cu1 2.446994 1_565
Cu0 Cu1 2.446994 1_566
Cu0 Cu1 2.446994 1_455
Cu0 Cu1 2.446994 1_456
Cu0 Ir1 2.704066 1_566
Cu0 Ir1 2.704066 1_565
Cu0 Ir1 2.704066 1_456
Cu0 Ir1 2.704066 1_455
Cu1 Ir0 2.686855 1_545
Cu1 Ir0 2.686855 1_544
Cu1 Ir0 2.686855 1_655
Cu1 Ir0 2.686855 1_654
B0 Ir1 2.173306 1_456
B0 Ir1 2.173306 1_455
B0 Ir1 2.173306 1_566
B0 Ir1 2.173306 1_565
B0 Ir3 2.239006 1_556
B0 Ir3 2.239006 1_555
B0 Cu0 2.681468 1_555
B1 Ir2 2.149579 1_555
B1 Ir2 2.149579 1_554
B1 Ir0 2.197374 1_655
B1 Ir0 2.197374 1_654
B1 Ir0 2.197374 1_544
B1 Ir0 2.197374 1_545
B1 Cu1 2.715097 1_555
B2 Ir2 2.111349 1_655
B2 Ir2 2.111349 1_545
B2 Ir3 2.239485 1_546
B2 Ir3 2.239485 1_545
B2 Ir3 2.239485 1_656
B2 Ir3 2.239485 1_655
