# generated using pymatgen
data_Sm2CdGe2
_symmetry_space_group_name_H-M   'P 1'
_cell_length_a   7.42078490
_cell_length_b   7.42078490
_cell_length_c   4.27440503
_cell_angle_alpha   90.00000000
_cell_angle_beta   90.00000000
_cell_angle_gamma   90.00000000
_symmetry_Int_Tables_number   1
_chemical_formula_structural   Sm2CdGe2
_chemical_formula_sum   'Sm4 Cd2 Ge4'
_cell_volume   235.38314364
_cell_formula_units_Z   2
loop_
 _symmetry_equiv_pos_site_id
 _symmetry_equiv_pos_as_xyz
  1  'x, y, z'
loop_
 _atom_site_type_symbol
 _atom_site_label
 _atom_site_symmetry_multiplicity
 _atom_site_fract_x
 _atom_site_fract_y
 _atom_site_fract_z
 _atom_site_occupancy
  Sm  Sm0  1  0.67942218  0.17942218  0.50000000  1
  Sm  Sm1  1  0.32057782  0.82057782  0.50000000  1
  Sm  Sm2  1  0.17942218  0.32057782  0.50000000  1
  Sm  Sm3  1  0.82057782  0.67942218  0.50000000  1
  Cd  Cd0  1  0.50000000  0.50000000  0.00000000  1
  Cd  Cd1  1  -0.00000000  -0.00000000  0.00000000  1
  Ge  Ge0  1  0.11961691  0.61961691  0.00000000  1
  Ge  Ge1  1  0.88038309  0.38038309  -0.00000000  1
  Ge  Ge2  1  0.61961691  0.88038309  0.00000000  1
  Ge  Ge3  1  0.38038309  0.11961691  -0.00000000  1
loop_
_geom_bond_atom_site_label_1
_geom_bond_atom_site_label_2
_geom_bond_distance
_geom_bond_site_symmetry_2
Cd0 Ge0 2.959019 1_555
Cd0 Ge2 2.959019 1_555
Cd0 Ge1 2.959019 1_555
Cd0 Ge3 2.959019 1_555
Cd0 Sm1 3.464066 1_554
Cd0 Sm0 3.464066 1_554
Cd0 Sm2 3.464066 1_555
Cd0 Sm2 3.464066 1_554
Cd0 Sm1 3.464066 1_555
Cd0 Sm3 3.464066 1_554
Cd0 Sm3 3.464066 1_555
Cd0 Sm0 3.464066 1_555
Cd1 Ge1 2.959019 1_455
Cd1 Ge0 2.959019 1_545
Cd1 Ge2 2.959019 1_445
Cd1 Ge3 2.959019 1_555
Cd1 Sm0 3.464066 1_454
Cd1 Sm1 3.464066 1_544
Cd1 Sm2 3.464066 1_555
Cd1 Sm0 3.464066 1_455
Cd1 Sm2 3.464066 1_554
Cd1 Sm1 3.464066 1_545
Cd1 Sm3 3.464066 1_444
Cd1 Sm3 3.464066 1_445
Ge0 Ge1 2.510657 1_455
Ge0 Sm1 3.002584 1_554
Ge0 Sm1 3.002584 1_555
Ge0 Sm2 3.112719 1_555
Ge0 Sm2 3.112719 1_554
Ge0 Sm3 3.112719 1_455
Ge0 Sm3 3.112719 1_454
Ge1 Sm0 3.002584 1_554
Ge1 Sm0 3.002584 1_555
Ge1 Sm2 3.112719 1_655
Ge1 Sm2 3.112719 1_654
Ge1 Sm3 3.112719 1_554
Ge1 Sm3 3.112719 1_555
Ge2 Ge3 2.510657 1_565
Ge2 Sm3 3.002584 1_555
Ge2 Sm3 3.002584 1_554
Ge2 Sm1 3.112719 1_555
Ge2 Sm0 3.112719 1_565
Ge2 Sm0 3.112719 1_564
Ge2 Sm1 3.112719 1_554
Ge3 Sm2 3.002584 1_555
Ge3 Sm2 3.002584 1_554
Ge3 Sm1 3.112719 1_544
Ge3 Sm0 3.112719 1_554
Ge3 Sm1 3.112719 1_545
Ge3 Sm0 3.112719 1_555
