# generated using pymatgen
data_C2S3
_symmetry_space_group_name_H-M   'P 1'
_cell_length_a   8.47825077
_cell_length_b   10.47319036
_cell_length_c   10.66986700
_cell_angle_alpha   90.00000000
_cell_angle_beta   90.00000000
_cell_angle_gamma   108.42795626
_symmetry_Int_Tables_number   1
_chemical_formula_structural   C2S3
_chemical_formula_sum   'C16 S24'
_cell_volume   898.84163292
_cell_formula_units_Z   8
loop_
 _symmetry_equiv_pos_site_id
 _symmetry_equiv_pos_as_xyz
  1  'x, y, z'
loop_
 _atom_site_type_symbol
 _atom_site_label
 _atom_site_symmetry_multiplicity
 _atom_site_fract_x
 _atom_site_fract_y
 _atom_site_fract_z
 _atom_site_occupancy
  C  C0  1  0.38147700  0.65946100  0.57797100  1
  C  C1  1  0.61852300  0.34053900  0.42202900  1
  C  C2  1  0.61852300  0.84053900  0.07797100  1
  C  C3  1  0.38147700  0.15946100  0.92202900  1
  C  C4  1  0.78022700  0.56830400  0.48236200  1
  C  C5  1  0.21977300  0.43169600  0.51763800  1
  C  C6  1  0.21977300  0.93169600  0.98236200  1
  C  C7  1  0.78022700  0.06830400  0.01763800  1
  C  C8  1  0.87442000  0.54490700  0.71174400  1
  C  C9  1  0.12558000  0.45509300  0.28825600  1
  C  C10  1  0.12558000  0.95509300  0.21174400  1
  C  C11  1  0.87442000  0.04490700  0.78825600  1
  C  C12  1  0.71761100  0.93276600  0.98879000  1
  C  C13  1  0.28238900  0.06723400  0.01121000  1
  C  C14  1  0.28238900  0.56723400  0.48879000  1
  C  C15  1  0.71761100  0.43276600  0.51121000  1
  S  S0  1  0.89579800  0.67224100  0.59790300  1
  S  S1  1  0.10420200  0.32775900  0.40209700  1
  S  S2  1  0.10420200  0.82775900  0.09790300  1
  S  S3  1  0.89579800  0.17224100  0.90209700  1
  S  S4  1  0.46683400  0.82493900  0.56259400  1
  S  S5  1  0.53316600  0.17506100  0.43740600  1
  S  S6  1  0.53316600  0.67506100  0.06259400  1
  S  S7  1  0.46683400  0.32493900  0.93740600  1
  S  S8  1  0.40921200  0.57547300  0.71374700  1
  S  S9  1  0.59078800  0.42452700  0.28625300  1
  S  S10  1  0.59078800  0.92452700  0.21374700  1
  S  S11  1  0.40921200  0.07547300  0.78625300  1
  S  S12  1  0.26660800  0.88002500  0.83724400  1
  S  S13  1  0.73339200  0.11997500  0.16275600  1
  S  S14  1  0.73339200  0.61997500  0.33724400  1
  S  S15  1  0.26660800  0.38002500  0.66275600  1
  S  S16  1  0.95054700  0.57379500  0.85428600  1
  S  S17  1  0.04945300  0.42620500  0.14571400  1
  S  S18  1  0.04945300  0.92620500  0.35428600  1
  S  S19  1  0.95054700  0.07379500  0.64571400  1
  S  S20  1  0.76299500  0.88484300  0.84110800  1
  S  S21  1  0.23700500  0.11515700  0.15889200  1
  S  S22  1  0.23700500  0.61515700  0.34110800  1
  S  S23  1  0.76299500  0.38484300  0.65889200  1
loop_
_geom_bond_atom_site_label_1
_geom_bond_atom_site_label_2
_geom_bond_distance
_geom_bond_site_symmetry_2
C0 C14 1.425189 1_555
C0 S4 1.661708 1_555
C0 S8 1.748875 1_555
C1 C15 1.425189 1_555
C1 S5 1.661708 1_555
C1 S9 1.748875 1_555
C2 S6 1.661708 1_555
C2 S10 1.748875 1_555
C3 S7 1.661708 1_555
C3 S11 1.748875 1_555
C4 S14 1.727394 1_555
C4 S0 1.729309 1_555
C5 S15 1.727394 1_555
C5 S1 1.729309 1_555
C6 S12 1.727394 1_555
C6 S2 1.729309 1_556
C7 S13 1.727394 1_555
C7 S3 1.729309 1_554
C8 S16 1.642499 1_555
C8 S23 1.737663 1_555
C8 S0 1.770290 1_555
C9 S17 1.642499 1_555
C9 S22 1.737663 1_555
C9 S1 1.770290 1_555
C10 S18 1.642499 1_555
C10 S21 1.737663 1_565
C10 S2 1.770290 1_555
C11 S19 1.642499 1_555
C11 S20 1.737663 1_545
C11 S3 1.770290 1_555
C12 C7 1.383893 1_566
C12 C2 1.425189 1_556
C12 S20 1.733505 1_555
C13 C6 1.383893 1_544
C13 C3 1.425189 1_554
C13 S21 1.733505 1_555
C14 C5 1.383893 1_555
C14 S22 1.733505 1_555
C15 C4 1.383893 1_555
C15 S23 1.733505 1_555
S10 S13 2.093603 1_565
S11 S12 2.093603 1_545
S14 S9 2.093603 1_555
S15 S8 2.093603 1_555
