# generated using pymatgen
data_Li5Fe4(P2O7)4
_symmetry_space_group_name_H-M   'P 1'
_cell_length_a   9.76434900
_cell_length_b   9.80606052
_cell_length_c   11.09501432
_cell_angle_alpha   89.96229177
_cell_angle_beta   78.41890613
_cell_angle_gamma   89.98127352
_symmetry_Int_Tables_number   1
_chemical_formula_structural   Li5Fe4(P2O7)4
_chemical_formula_sum   'Li10 Fe8 P16 O56'
_cell_volume   1040.71741715
_cell_formula_units_Z   2
loop_
 _symmetry_equiv_pos_site_id
 _symmetry_equiv_pos_as_xyz
  1  'x, y, z'
loop_
 _atom_site_type_symbol
 _atom_site_label
 _atom_site_symmetry_multiplicity
 _atom_site_fract_x
 _atom_site_fract_y
 _atom_site_fract_z
 _atom_site_occupancy
  Li  Li0  1  0.12170200  0.28654300  0.54856800  1
  Li  Li1  1  0.08946300  0.89089900  0.97387600  1
  Li  Li2  1  0.40856100  0.39151400  0.02751100  1
  Li  Li3  1  0.38596900  0.79384100  0.45442900  1
  Li  Li4  1  0.58785100  0.60492900  0.96823200  1
  Li  Li5  1  0.85552300  0.41208500  0.04647200  1
  Li  Li6  1  0.64497200  0.91094900  0.95241900  1
  Li  Li7  1  0.91073300  0.10600300  0.03082400  1
  Li  Li8  1  0.82018900  0.41272600  0.54981900  1
  Li  Li9  1  0.88625500  0.71684400  0.45449400  1
  Fe  Fe0  1  0.20950400  0.07867600  0.33006200  1
  Fe  Fe1  1  0.24959900  0.79361300  0.17741200  1
  Fe  Fe2  1  0.25545700  0.28943700  0.82192800  1
  Fe  Fe3  1  0.29282100  0.57721200  0.66989700  1
  Fe  Fe4  1  0.70305600  0.41971100  0.32565000  1
  Fe  Fe5  1  0.75277600  0.71524200  0.17423600  1
  Fe  Fe6  1  0.74291000  0.21360400  0.82558200  1
  Fe  Fe7  1  0.79083900  0.93047000  0.66789400  1
  P  P0  1  0.02317300  0.54940000  0.25029700  1
  P  P1  1  0.11963800  0.28902400  0.11647300  1
  P  P2  1  0.06006500  0.07366600  0.76227100  1
  P  P3  1  0.12357700  0.85325700  0.57490900  1
  P  P4  1  0.37759600  0.35419700  0.42507000  1
  P  P5  1  0.43880500  0.57363500  0.23879600  1
  P  P6  1  0.52605000  0.94672900  0.24255200  1
  P  P7  1  0.38032300  0.78967200  0.88256900  1
  P  P8  1  0.61549800  0.20565300  0.11718800  1
  P  P9  1  0.47373100  0.05147600  0.74447300  1
  P  P10  1  0.56225200  0.42641500  0.75794300  1
  P  P11  1  0.62145600  0.64968200  0.57554200  1
  P  P12  1  0.87789500  0.14696700  0.42804300  1
  P  P13  1  0.93923600  0.92625200  0.24245000  1
  P  P14  1  0.88199900  0.70903900  0.88116000  1
  P  P15  1  0.97661200  0.44898500  0.75947600  1
  O  O0  1  0.01180800  0.57332700  0.38472000  1
  O  O1  1  0.03350200  0.15885500  0.43774200  1
  O  O2  1  0.09289600  0.91775100  0.26631300  1
  O  O3  1  0.11143400  0.41111400  0.21476800  1
  O  O4  1  0.10614200  0.65855500  0.16444200  1
  O  O5  1  0.17963900  0.17093100  0.17893700  1
  O  O6  1  0.22353400  0.33741000  0.99741200  1
  O  O7  1  0.02082200  0.73971800  0.91027800  1
  O  O8  1  0.12816300  0.93741600  0.69825600  1
  O  O9  1  0.06447100  0.06333200  0.89671600  1
  O  O10  1  0.13306800  0.46383100  0.77636600  1
  O  O11  1  0.19244000  0.71649000  0.59325900  1
  O  O12  1  0.15390800  0.19470000  0.70603100  1
  O  O13  1  0.21343400  0.92852400  0.46662100  1
  O  O14  1  0.28728700  0.42863900  0.53406400  1
  O  O15  1  0.34619900  0.69546200  0.29482700  1
  O  O16  1  0.30873700  0.21730700  0.40794500  1
  O  O17  1  0.36826200  0.96382600  0.22361700  1
  O  O18  1  0.36691700  0.43860500  0.30191900  1
  O  O19  1  0.43671100  0.56413400  0.10396800  1
  O  O20  1  0.47697000  0.23886700  0.08943600  1
  O  O21  1  0.27515400  0.83599000  0.00220300  1
  O  O22  1  0.32158300  0.66998200  0.82026500  1
  O  O23  1  0.38679200  0.91128400  0.78592200  1
  O  O24  1  0.41007800  0.41435200  0.73197500  1
  O  O25  1  0.39513100  0.15769200  0.83888100  1
  O  O26  1  0.46922500  0.65880900  0.55986700  1
  O  O27  1  0.53459100  0.89663000  0.36724000  1
  O  O28  1  0.47316600  0.07696700  0.61384500  1
  O  O29  1  0.53305400  0.34668800  0.42730100  1
  O  O30  1  0.60825500  0.86381300  0.13367500  1
  O  O31  1  0.58842600  0.58054000  0.26776600  1
  O  O32  1  0.59443200  0.09760000  0.22903400  1
  O  O33  1  0.69199100  0.32608900  0.16840800  1
  O  O34  1  0.71930600  0.14086000  0.00560300  1
  O  O35  1  0.52270500  0.76819800  0.91112600  1
  O  O36  1  0.56274800  0.43040300  0.89340200  1
  O  O37  1  0.61625300  0.57407000  0.70543000  1
  O  O38  1  0.62277800  0.02830200  0.78021100  1
  O  O39  1  0.69221500  0.78541500  0.58950000  1
  O  O40  1  0.66765000  0.32285500  0.69093100  1
  O  O41  1  0.71654000  0.56134400  0.47749100  1
  O  O42  1  0.79203600  0.06534600  0.53212600  1
  O  O43  1  0.84829700  0.80945000  0.30524900  1
  O  O44  1  0.81888900  0.28953200  0.40875600  1
  O  O45  1  0.87549500  0.52535700  0.21445900  1
  O  O46  1  0.93466700  0.93442500  0.10801300  1
  O  O47  1  0.87761200  0.06843000  0.30066700  1
  O  O48  1  0.97646600  0.26787300  0.08956600  1
  O  O49  1  0.77877100  0.64165800  0.99179200  1
  O  O50  1  0.80793400  0.82826300  0.82755300  1
  O  O51  1  0.89305200  0.36321100  0.86437200  1
  O  O52  1  0.90641600  0.59826500  0.76917800  1
  O  O53  1  0.91120600  0.08340600  0.73380200  1
  O  O54  1  0.96842200  0.83978000  0.56827200  1
  O  O55  1  0.97045200  0.40112400  0.63144900  1
loop_
_geom_bond_atom_site_label_1
_geom_bond_atom_site_label_2
_geom_bond_distance
_geom_bond_site_symmetry_2
Li0 O55 1.934983 1_455
Li0 O12 2.044636 1_555
Li0 O1 2.061397 1_555
Li0 O14 2.116203 1_555
Li0 O16 2.255444 1_555
Li1 O7 1.826692 1_555
Li1 O9 1.932163 1_565
Li1 O46 1.943934 1_456
Li1 O21 1.975894 1_556
Li2 O20 1.827867 1_555
Li2 O36 1.930342 1_554
Li2 O19 1.938110 1_555
Li2 O6 1.974881 1_554
Li3 O27 1.869160 1_555
Li3 O26 2.040052 1_555
Li3 O15 2.120316 1_555
Li3 O13 2.123215 1_555
Li3 O11 2.312909 1_555
Li4 O35 1.878610 1_555
Li4 O19 1.926970 1_556
Li4 O36 1.939630 1_555
Li4 O49 1.967116 1_555
Li5 O48 1.961569 1_555
Li5 O51 2.037129 1_554
Li5 O33 2.055029 1_555
Li5 O45 2.212334 1_555
Li5 O49 2.485415 1_554
Li6 O35 1.953523 1_555
Li6 O30 2.023822 1_556
Li6 O50 2.055296 1_555
Li6 O38 2.277062 1_565
Li6 O34 2.476421 1_566
Li7 O48 1.877833 1_555
Li7 O46 1.922781 1_545
Li7 O9 1.935478 1_654
Li7 O34 1.974426 1_555
Li8 O55 1.875965 1_555
Li8 O44 1.979783 1_555
Li8 O41 2.028725 1_555
Li8 O40 2.123458 1_555
Li9 O0 1.924080 1_655
Li9 O43 1.986997 1_555
Li9 O54 2.024804 1_555
Li9 O41 2.228853 1_555
Li9 O39 2.268615 1_555
Fe0 O16 1.967781 1_555
Fe0 O5 1.977127 1_555
Fe0 O1 2.043256 1_555
Fe0 O17 2.081281 1_545
Fe0 O13 2.117877 1_545
Fe0 O2 2.147762 1_545
Fe1 O21 1.954001 1_555
Fe1 O4 1.954289 1_555
Fe1 O15 2.001063 1_555
Fe1 O2 2.047032 1_555
Fe1 O17 2.152244 1_555
Fe2 O25 1.914662 1_555
Fe2 O6 1.966392 1_555
Fe2 O12 2.003452 1_555
Fe2 O24 2.042186 1_555
Fe2 O10 2.201879 1_555
Fe3 O22 1.969790 1_555
Fe3 O11 1.970092 1_555
Fe3 O26 2.062228 1_555
Fe3 O10 2.079509 1_555
Fe3 O14 2.105331 1_555
Fe3 O24 2.156318 1_555
Fe4 O29 1.946337 1_555
Fe4 O33 1.993992 1_555
Fe4 O44 2.043339 1_555
Fe4 O31 2.106805 1_555
Fe4 O45 2.143745 1_555
Fe4 O41 2.208318 1_555
Fe5 O43 2.093553 1_555
Fe5 O49 2.116143 1_554
Fe5 O30 2.137568 1_555
Fe5 O31 2.174364 1_555
Fe5 O45 2.305278 1_555
Fe6 O40 2.087543 1_555
Fe6 O34 2.089189 1_556
Fe6 O53 2.166997 1_555
Fe6 O51 2.177685 1_555
Fe6 O38 2.273946 1_555
Fe7 O42 2.002203 1_565
Fe7 O39 2.011465 1_555
Fe7 O54 2.061561 1_555
Fe7 O50 2.070402 1_555
Fe7 O38 2.084619 1_565
Fe7 O53 2.124344 1_565
O0 P0 1.491880 1_555
O1 P12 1.549042 1_455
O2 P13 1.577214 1_455
O3 P1 1.611121 1_555
O3 P0 1.612605 1_555
O4 P0 1.548803 1_555
O5 P1 1.525156 1_555
O6 P1 1.568666 1_556
O7 P14 1.486110 1_455
O8 P2 1.594595 1_565
O8 P3 1.606886 1_555
O9 P2 1.504248 1_555
O10 P15 1.582806 1_455
O11 P3 1.531752 1_555
O12 P2 1.551712 1_555
O13 P3 1.527768 1_555
O14 P4 1.531480 1_555
O15 P5 1.551082 1_555
O16 P4 1.530457 1_555
O17 P6 1.604910 1_555
O18 P5 1.593263 1_555
O18 P4 1.618203 1_555
O19 P5 1.503109 1_555
O20 P8 1.482334 1_555
O21 P7 1.573492 1_554
O22 P7 1.531357 1_555
O23 P7 1.595972 1_555
O23 P9 1.632542 1_565
O24 P10 1.573814 1_555
O25 P9 1.564985 1_555
O26 P11 1.533440 1_555
O27 P6 1.485781 1_555
O28 P9 1.471657 1_555
O29 P4 1.524863 1_555
O30 P6 1.541488 1_555
O31 P5 1.559138 1_555
O32 P8 1.612714 1_555
O32 P6 1.617790 1_545
O33 P8 1.564438 1_555
O34 P8 1.568632 1_555
O35 P7 1.501385 1_555
O36 P10 1.504433 1_555
O37 P10 1.609343 1_555
O37 P11 1.611942 1_555
O38 P9 1.599456 1_555
O39 P11 1.522090 1_555
O40 P10 1.528492 1_555
O41 P11 1.546296 1_555
O42 P12 1.512457 1_555
O43 P13 1.528729 1_555
O44 P12 1.542963 1_555
O45 P0 1.588569 1_655
O46 P13 1.503258 1_555
O47 P13 1.602396 1_545
O47 P12 1.610393 1_555
O48 P1 1.501443 1_655
O49 P14 1.569021 1_555
O50 P14 1.553975 1_555
O51 P15 1.531517 1_555
O52 P15 1.610642 1_555
O52 P14 1.631910 1_555
O53 P2 1.551062 1_655
O54 P3 1.537209 1_655
O55 P15 1.508906 1_555
