# generated using pymatgen
data_SrLaEuSbO6
_symmetry_space_group_name_H-M   'P 1'
_cell_length_a   5.98407923
_cell_length_b   5.98407923
_cell_length_c   8.68068811
_cell_angle_alpha   90.00000000
_cell_angle_beta   90.00000000
_cell_angle_gamma   90.00000000
_symmetry_Int_Tables_number   1
_chemical_formula_structural   SrLaEuSbO6
_chemical_formula_sum   'Sr2 La2 Eu2 Sb2 O12'
_cell_volume   310.84853340
_cell_formula_units_Z   2
loop_
 _symmetry_equiv_pos_site_id
 _symmetry_equiv_pos_as_xyz
  1  'x, y, z'
loop_
 _atom_site_type_symbol
 _atom_site_label
 _atom_site_symmetry_multiplicity
 _atom_site_fract_x
 _atom_site_fract_y
 _atom_site_fract_z
 _atom_site_occupancy
  Sr  Sr0  1  0.50000000  -0.00000000  0.25000000  1
  Sr  Sr1  1  0.00000000  0.50000000  0.75000000  1
  La  La0  1  -0.00000000  -0.00000000  0.00000000  1
  La  La1  1  0.50000000  0.50000000  0.50000000  1
  Eu  Eu0  1  -0.00000000  0.50000000  0.25000000  1
  Eu  Eu1  1  0.50000000  0.00000000  0.75000000  1
  Sb  Sb0  1  0.00000000  0.00000000  0.50000000  1
  Sb  Sb1  1  0.50000000  0.50000000  0.00000000  1
  O  O0  1  -0.00000000  0.00000000  0.26829684  1
  O  O1  1  0.50000000  0.50000000  0.23170316  1
  O  O2  1  0.00000000  0.00000000  0.73170316  1
  O  O3  1  0.50000000  0.50000000  0.76829684  1
  O  O4  1  0.34371442  0.20158483  0.99825962  1
  O  O5  1  0.65628558  0.79841517  0.99825962  1
  O  O6  1  0.79841517  0.34371442  0.00174038  1
  O  O7  1  0.20158483  0.65628558  0.00174038  1
  O  O8  1  0.84371442  0.29841517  0.49825962  1
  O  O9  1  0.15628558  0.70158483  0.49825962  1
  O  O10  1  0.29841517  0.15628558  0.50174038  1
  O  O11  1  0.70158483  0.84371442  0.50174038  1
loop_
_geom_bond_atom_site_label_1
_geom_bond_atom_site_label_2
_geom_bond_distance
_geom_bond_site_symmetry_2
La0 O0 2.329001 1_555
La0 O2 2.329001 1_554
La0 O7 2.384507 1_545
La0 O5 2.384507 1_444
La0 O6 2.384507 1_455
La0 O4 2.384507 1_554
La1 O3 2.329001 1_555
La1 O1 2.329001 1_555
La1 O10 2.384507 1_555
La1 O8 2.384507 1_555
La1 O11 2.384507 1_555
La1 O9 2.384507 1_555
Eu0 O7 2.640854 1_555
Eu0 O6 2.640854 1_455
Eu0 O9 2.640854 1_555
Eu0 O8 2.640854 1_455
Eu0 O0 2.996252 1_555
Eu0 O1 2.996252 1_555
Eu0 O1 2.996252 1_455
Eu0 O0 2.996252 1_565
Eu1 O10 2.640854 1_555
Eu1 O5 2.640854 1_545
Eu1 O4 2.640854 1_555
Eu1 O11 2.640854 1_545
Eu1 O2 2.996252 1_555
Eu1 O3 2.996252 1_555
Eu1 O2 2.996252 1_655
Eu1 O3 2.996252 1_545
O0 Sb0 2.011343 1_555
O0 Sr0 2.996252 1_455
O0 Sr0 2.996252 1_555
O1 Sb1 2.011343 1_555
O1 Sr0 2.996252 1_555
O1 Sr0 2.996252 1_565
O2 Sb0 2.011343 1_555
O2 Sr1 2.996252 1_545
O2 Sr1 2.996252 1_555
O3 Sb1 2.011343 1_556
O3 Sr1 2.996252 1_655
O3 Sr1 2.996252 1_555
O4 Sb1 2.015873 1_556
O4 Sr0 2.665568 1_556
O5 Sb1 2.015873 1_556
O5 Sr0 2.665568 1_566
O6 Sb1 2.015873 1_555
O6 Sr1 2.665568 1_654
O7 Sb1 2.015873 1_555
O7 Sr1 2.665568 1_554
O8 Sb0 2.015873 1_655
O8 Sr1 2.665568 1_655
O9 Sb0 2.015873 1_565
O9 Sr1 2.665568 1_555
O10 Sb0 2.015873 1_555
O10 Sr0 2.665568 1_555
O11 Sb0 2.015873 1_665
O11 Sr0 2.665568 1_565
