# generated using pymatgen
data_Fe2SeS
_symmetry_space_group_name_H-M   'P 1'
_cell_length_a   3.41535372
_cell_length_b   3.41535372
_cell_length_c   5.65856500
_cell_angle_alpha   90.00000000
_cell_angle_beta   90.00000000
_cell_angle_gamma   119.99999452
_symmetry_Int_Tables_number   1
_chemical_formula_structural   Fe2SeS
_chemical_formula_sum   'Fe2 Se1 S1'
_cell_volume   57.16212197
_cell_formula_units_Z   1
loop_
 _symmetry_equiv_pos_site_id
 _symmetry_equiv_pos_as_xyz
  1  'x, y, z'
loop_
 _atom_site_type_symbol
 _atom_site_label
 _atom_site_symmetry_multiplicity
 _atom_site_fract_x
 _atom_site_fract_y
 _atom_site_fract_z
 _atom_site_occupancy
  Fe  Fe0  1  0.00000000  0.00000000  0.73050500  1
  Fe  Fe1  1  0.00000000  0.00000000  0.26949500  1
  Se  Se0  1  0.33333300  0.66666700  0.00000000  1
  S  S0  1  0.66666700  0.33333300  0.50000000  1
loop_
_geom_bond_atom_site_label_1
_geom_bond_atom_site_label_2
_geom_bond_distance
_geom_bond_site_symmetry_2
Fe0 S0 2.364207 1_455
Fe0 S0 2.364210 1_445
Fe0 S0 2.364210 1_555
Fe0 Se0 2.492728 1_546
Fe0 Se0 2.492731 1_446
Fe0 Se0 2.492731 1_556
Fe1 S0 2.364207 1_455
Fe1 S0 2.364210 1_445
Fe1 S0 2.364210 1_555
Fe1 Se0 2.492728 1_545
Fe1 Se0 2.492731 1_445
Fe1 Se0 2.492731 1_555
