# generated using pymatgen
data_TaSb3O8
_symmetry_space_group_name_H-M   'P 1'
_cell_length_a   4.89244889
_cell_length_b   5.49957022
_cell_length_c   11.83263210
_cell_angle_alpha   90.00000000
_cell_angle_beta   89.81075579
_cell_angle_gamma   90.00000000
_symmetry_Int_Tables_number   1
_chemical_formula_structural   TaSb3O8
_chemical_formula_sum   'Ta2 Sb6 O16'
_cell_volume   318.37139577
_cell_formula_units_Z   2
loop_
 _symmetry_equiv_pos_site_id
 _symmetry_equiv_pos_as_xyz
  1  'x, y, z'
loop_
 _atom_site_type_symbol
 _atom_site_label
 _atom_site_symmetry_multiplicity
 _atom_site_fract_x
 _atom_site_fract_y
 _atom_site_fract_z
 _atom_site_occupancy
  Ta  Ta0  1  0.50101321  0.63065207  0.64207009  1
  Ta  Ta1  1  0.00101321  0.86934793  0.14207009  1
  Sb  Sb0  1  0.50489886  0.36866429  0.14526021  1
  Sb  Sb1  1  0.00489886  0.13133571  0.64526021  1
  Sb  Sb2  1  0.54144814  0.97401600  0.89342833  1
  Sb  Sb3  1  0.45469578  0.02152713  0.39397358  1
  Sb  Sb4  1  0.04144814  0.52598400  0.39342833  1
  Sb  Sb5  1  0.95469578  0.47847287  0.89397358  1
  O  O0  1  0.66240096  0.31809563  0.99015597  1
  O  O1  1  0.33621755  0.68084492  0.49137254  1
  O  O2  1  0.16240096  0.18190437  0.49015597  1
  O  O3  1  0.83621755  0.81915508  0.99137254  1
  O  O4  1  0.33500540  0.34887431  0.30363570  1
  O  O5  1  0.66431591  0.65206760  0.80239369  1
  O  O6  1  0.83500540  0.15112569  0.80363570  1
  O  O7  1  0.16431591  0.84793240  0.30239369  1
  O  O8  1  0.70460639  0.08011951  0.19956468  1
  O  O9  1  0.29234068  0.91940052  0.70226556  1
  O  O10  1  0.20460639  0.41988049  0.69956468  1
  O  O11  1  0.79234068  0.58059948  0.20226556  1
  O  O12  1  0.21504154  0.14354220  0.09652814  1
  O  O13  1  0.78801559  0.85851005  0.59335151  1
  O  O14  1  0.71504154  0.35645780  0.59652814  1
  O  O15  1  0.28801559  0.64148995  0.09335151  1
loop_
_geom_bond_atom_site_label_1
_geom_bond_atom_site_label_2
_geom_bond_distance
_geom_bond_site_symmetry_2
O0 Sb0 2.007505 1_556
O0 Sb5 2.026682 1_555
O0 Sb2 2.290281 1_545
O1 Ta0 1.978727 1_555
O1 Sb4 2.039435 1_555
O1 Sb3 2.273808 1_565
O2 Sb1 2.007505 1_555
O2 Sb3 2.026682 1_555
O2 Sb4 2.290281 1_555
O3 Ta1 1.978727 1_656
O3 Sb2 2.039435 1_555
O3 Sb5 2.273808 1_555
O4 Sb4 2.032297 1_555
O4 Sb0 2.050442 1_555
O4 Sb3 2.175001 1_555
O5 Sb5 2.028342 1_555
O5 Ta0 2.064220 1_555
O5 Sb2 2.156927 1_555
O6 Sb2 2.032297 1_545
O6 Sb1 2.050442 1_655
O6 Sb5 2.175001 1_555
O7 Sb3 2.028342 1_565
O7 Ta1 2.064220 1_555
O7 Sb4 2.156927 1_555
O8 Sb0 1.972269 1_555
O8 Ta1 1.975574 1_645
O8 Sb3 2.621428 1_555
O9 Sb1 1.948698 1_565
O9 Ta0 2.016562 1_555
O9 Sb2 2.590410 1_555
O10 Sb1 1.972269 1_555
O10 Ta0 1.975574 1_555
O10 Sb5 2.621428 1_455
O11 Sb0 1.948698 1_555
O11 Ta1 2.016562 1_655
O11 Sb4 2.590410 1_655
O12 Ta1 1.912341 1_545
O12 Sb0 1.970222 1_555
O13 Sb1 1.938750 1_665
O13 Ta0 1.966953 1_555
O14 Ta0 1.912341 1_555
O14 Sb1 1.970222 1_655
O15 Sb0 1.938750 1_555
O15 Ta1 1.966953 1_555
