# generated using pymatgen
data_Ca2AlCuO5
_symmetry_space_group_name_H-M   'P 1'
_cell_length_a   8.30152880
_cell_length_b   8.30152880
_cell_length_c   8.30152880
_cell_angle_alpha   142.94941088
_cell_angle_beta   140.39293728
_cell_angle_gamma   55.35162693
_symmetry_Int_Tables_number   1
_chemical_formula_structural   Ca2AlCuO5
_chemical_formula_sum   'Ca4 Al2 Cu2 O10'
_cell_volume   218.14939982
_cell_formula_units_Z   2
loop_
 _symmetry_equiv_pos_site_id
 _symmetry_equiv_pos_as_xyz
  1  'x, y, z'
loop_
 _atom_site_type_symbol
 _atom_site_label
 _atom_site_symmetry_multiplicity
 _atom_site_fract_x
 _atom_site_fract_y
 _atom_site_fract_z
 _atom_site_occupancy
  Ca  Ca0  1  0.42079000  0.90026300  0.53706100  1
  Ca  Ca1  1  0.13679800  0.61627100  0.53706100  1
  Ca  Ca2  1  0.57921000  0.11627100  0.47947300  1
  Ca  Ca3  1  0.86320200  0.40026300  0.47947300  1
  Al  Al0  1  0.82709100  0.78889200  0.11598200  1
  Al  Al1  1  0.17290900  0.28889200  0.96180100  1
  Cu  Cu0  1  0.50000000  0.49798700  0.99798700  1
  Cu  Cu1  1  0.00000000  0.99798700  0.99798700  1
  O  O0  1  0.89261400  0.12380500  0.51641900  1
  O  O1  1  0.10738600  0.62380500  0.23119100  1
  O  O2  1  0.42475800  0.31855700  0.03745500  1
  O  O3  1  0.57524200  0.61269600  0.89379800  1
  O  O4  1  0.78110200  0.81855700  0.89379800  1
  O  O5  1  0.21889800  0.11269600  0.03745500  1
  O  O6  1  0.76898100  0.26620900  0.00159900  1
  O  O7  1  0.23101900  0.23261800  0.49722800  1
  O  O8  1  0.23538900  0.73261800  0.00159900  1
  O  O9  1  0.76461100  0.76620900  0.49722800  1
loop_
_geom_bond_atom_site_label_1
_geom_bond_atom_site_label_2
_geom_bond_distance
_geom_bond_site_symmetry_2
Ca0 O4 2.329672 1_555
Ca0 O1 2.406622 1_555
Ca0 O7 2.432031 1_565
Ca0 O8 2.466579 1_555
Ca0 O2 2.491876 1_566
Ca0 O6 2.562111 1_566
Ca0 O9 2.598007 1_555
Ca0 O2 2.929603 1_555
Ca1 O3 2.329677 1_555
Ca1 O1 2.406622 1_555
Ca1 O9 2.432024 1_455
Ca1 O6 2.466582 1_455
Ca1 O5 2.491872 1_566
Ca1 O8 2.562116 1_556
Ca1 O7 2.597999 1_555
Ca1 O5 2.929605 1_555
Ca2 O5 2.329672 1_555
Ca2 O0 2.406622 1_555
Ca2 O6 2.432031 1_556
Ca2 O9 2.466582 1_545
Ca2 O3 2.491871 1_555
Ca2 O7 2.562111 1_555
Ca2 O8 2.598004 1_545
Ca2 O3 2.929609 1_544
Ca3 O2 2.329676 1_555
Ca3 O0 2.406622 1_555
Ca3 O8 2.432026 1_656
Ca3 O7 2.466582 1_655
Ca3 O4 2.491872 1_555
Ca3 O9 2.562114 1_555
Ca3 O6 2.597999 1_555
Ca3 O4 2.929605 1_544
Al0 O4 1.772441 1_554
Al0 O3 1.772446 1_554
Al0 O1 1.801195 1_655
Al0 O0 1.804765 1_565
Al1 O2 1.772441 1_556
Al1 O5 1.772449 1_556
Al1 O0 1.801194 1_455
Al1 O1 1.804761 1_556
Cu0 O9 1.939913 1_556
Cu0 O8 1.939916 1_556
Cu0 O6 1.947489 1_556
Cu0 O7 1.947489 1_555
Cu0 O2 2.206478 1_556
Cu0 O3 2.206479 1_555
Cu1 O7 1.939912 1_566
Cu1 O6 1.939912 1_466
Cu1 O8 1.947486 1_556
Cu1 O9 1.947490 1_455
Cu1 O5 2.206472 1_566
Cu1 O4 2.206472 1_455
