# generated using pymatgen
data_CuH6(CO2)4
_symmetry_space_group_name_H-M   'P 1'
_cell_length_a   8.68033200
_cell_length_b   9.16279000
_cell_length_c   10.89655800
_cell_angle_alpha   90.00000000
_cell_angle_beta   90.00000000
_cell_angle_gamma   90.00000000
_symmetry_Int_Tables_number   1
_chemical_formula_structural   CuH6(CO2)4
_chemical_formula_sum   'Cu4 H24 C16 O32'
_cell_volume   866.66928267
_cell_formula_units_Z   4
loop_
 _symmetry_equiv_pos_site_id
 _symmetry_equiv_pos_as_xyz
  1  'x, y, z'
loop_
 _atom_site_type_symbol
 _atom_site_label
 _atom_site_symmetry_multiplicity
 _atom_site_fract_x
 _atom_site_fract_y
 _atom_site_fract_z
 _atom_site_occupancy
  Cu  Cu0  1  0.00000000  0.50000000  0.50000000  1
  Cu  Cu1  1  0.50000000  0.50000000  0.00000000  1
  Cu  Cu2  1  0.50000000  0.00000000  0.50000000  1
  Cu  Cu3  1  0.00000000  0.00000000  0.00000000  1
  H  H0  1  0.09364900  0.14413400  0.78347300  1
  H  H1  1  0.23025800  0.81582100  0.57204700  1
  H  H2  1  0.90635100  0.85586600  0.21652700  1
  H  H3  1  0.11648600  0.03419800  0.35601400  1
  H  H4  1  0.09364900  0.35586600  0.28347300  1
  H  H5  1  0.90635100  0.64413400  0.71652700  1
  H  H6  1  0.59364900  0.35586600  0.21652700  1
  H  H7  1  0.11648600  0.46580200  0.85601400  1
  H  H8  1  0.73025800  0.81582100  0.92795300  1
  H  H9  1  0.38351400  0.53419800  0.35601400  1
  H  H10  1  0.26974200  0.18417900  0.07204700  1
  H  H11  1  0.76974200  0.31582100  0.92795300  1
  H  H12  1  0.40635100  0.85586600  0.28347300  1
  H  H13  1  0.61648600  0.03419800  0.14398600  1
  H  H14  1  0.88351400  0.53419800  0.14398600  1
  H  H15  1  0.88351400  0.96580200  0.64398600  1
  H  H16  1  0.23025800  0.68417900  0.07204700  1
  H  H17  1  0.26974200  0.31582100  0.57204700  1
  H  H18  1  0.40635100  0.64413400  0.78347300  1
  H  H19  1  0.59364900  0.14413400  0.71652700  1
  H  H20  1  0.73025800  0.68417900  0.42795300  1
  H  H21  1  0.76974200  0.18417900  0.42795300  1
  H  H22  1  0.38351400  0.96580200  0.85601400  1
  H  H23  1  0.61648600  0.46580200  0.64398600  1
  C  C0  1  0.05497100  0.50795500  0.77477600  1
  C  C1  1  0.77020500  0.76458800  0.01394100  1
  C  C2  1  0.55497100  0.99204500  0.22522400  1
  C  C3  1  0.94502900  0.49204500  0.22522400  1
  C  C4  1  0.94502900  0.00795500  0.72522400  1
  C  C5  1  0.27020500  0.76458800  0.48605900  1
  C  C6  1  0.72979500  0.26458800  0.01394100  1
  C  C7  1  0.22979500  0.26458800  0.48605900  1
  C  C8  1  0.72979500  0.23541200  0.51394100  1
  C  C9  1  0.22979500  0.23541200  0.98605900  1
  C  C10  1  0.44502900  0.49204500  0.27477600  1
  C  C11  1  0.05497100  0.99204500  0.27477600  1
  C  C12  1  0.55497100  0.50795500  0.72522400  1
  C  C13  1  0.44502900  0.00795500  0.77477600  1
  C  C14  1  0.77020500  0.73541200  0.51394100  1
  C  C15  1  0.27020500  0.73541200  0.98605900  1
  O  O0  1  0.40864800  0.96154400  0.67113100  1
  O  O1  1  0.38133700  0.83291900  0.42955400  1
  O  O2  1  0.40864800  0.53845600  0.17113100  1
  O  O3  1  0.94889800  0.60618700  0.79796500  1
  O  O4  1  0.59135200  0.03845600  0.32886900  1
  O  O5  1  0.44889800  0.89381300  0.20203500  1
  O  O6  1  0.55110200  0.39381300  0.29796500  1
  O  O7  1  0.11866300  0.33291900  0.42955400  1
  O  O8  1  0.94889800  0.89381300  0.29796500  1
  O  O9  1  0.28768700  0.35066000  0.94626400  1
  O  O10  1  0.28768700  0.14934000  0.44626400  1
  O  O11  1  0.55110200  0.10618700  0.79796500  1
  O  O12  1  0.44889800  0.60618700  0.70203500  1
  O  O13  1  0.90864800  0.53845600  0.32886900  1
  O  O14  1  0.05110200  0.10618700  0.70203500  1
  O  O15  1  0.05110200  0.39381300  0.20203500  1
  O  O16  1  0.61866300  0.16708100  0.57044600  1
  O  O17  1  0.90864800  0.96154400  0.82886900  1
  O  O18  1  0.59135200  0.46154400  0.82886900  1
  O  O19  1  0.11866300  0.16708100  0.92955400  1
  O  O20  1  0.88133700  0.66708100  0.57044600  1
  O  O21  1  0.88133700  0.83291900  0.07044600  1
  O  O22  1  0.78768700  0.35066000  0.55373600  1
  O  O23  1  0.71231300  0.64934000  0.05373600  1
  O  O24  1  0.38133700  0.66708100  0.92955400  1
  O  O25  1  0.61866300  0.33291900  0.07044600  1
  O  O26  1  0.09135200  0.03845600  0.17113100  1
  O  O27  1  0.21231300  0.85066000  0.94626400  1
  O  O28  1  0.71231300  0.85066000  0.55373600  1
  O  O29  1  0.09135200  0.46154400  0.67113100  1
  O  O30  1  0.78768700  0.14934000  0.05373600  1
  O  O31  1  0.21231300  0.64934000  0.44626400  1
loop_
_geom_bond_atom_site_label_1
_geom_bond_atom_site_label_2
_geom_bond_distance
_geom_bond_site_symmetry_2
Cu0 O7 1.998487 1_555
Cu0 O20 1.998487 1_455
Cu0 O13 2.056747 1_455
Cu0 O29 2.056747 1_555
Cu0 O22 2.368913 1_455
Cu0 O31 2.368913 1_555
Cu1 O25 1.998487 1_555
Cu1 O24 1.998487 1_554
Cu1 O2 2.056747 1_555
Cu1 O18 2.056747 1_554
Cu1 O23 2.368913 1_555
Cu1 O9 2.368913 1_554
Cu2 O16 1.998487 1_555
Cu2 O1 1.998487 1_545
Cu2 O4 2.056747 1_555
Cu2 O0 2.056747 1_545
Cu2 O10 2.368913 1_555
Cu2 O28 2.368913 1_545
Cu3 O19 1.998487 1_554
Cu3 O21 1.998487 1_445
Cu3 O26 2.056747 1_555
Cu3 O17 2.056747 1_444
Cu3 O27 2.368913 1_544
Cu3 O30 2.368913 1_455
H0 O14 1.022136 1_555
H0 O19 1.620222 1_555
H2 O8 1.022136 1_555
H2 O21 1.620222 1_555
H4 O15 1.022136 1_555
H4 O7 1.620222 1_555
H5 O3 1.022136 1_555
H5 O20 1.620222 1_555
H6 O6 1.022136 1_555
H6 O25 1.620222 1_555
H12 O5 1.022136 1_555
H12 O1 1.620222 1_555
H18 O12 1.022136 1_555
H18 O24 1.620222 1_555
H19 O11 1.022136 1_555
H19 O16 1.620222 1_555
C0 H7 1.103590 1_555
C0 O29 1.247419 1_555
C0 O3 1.312162 1_455
C1 H8 1.103870 1_554
C1 O23 1.247270 1_555
C1 O21 1.304484 1_555
C2 H13 1.103590 1_565
C2 O4 1.247419 1_565
C2 O5 1.312162 1_555
C3 H14 1.103590 1_555
C3 O13 1.247419 1_555
C3 O15 1.312162 1_655
C4 H15 1.103590 1_545
C4 O17 1.247419 1_545
C4 O14 1.312162 1_655
C5 H1 1.103870 1_555
C5 O31 1.247270 1_555
C5 O1 1.304484 1_555
C6 H11 1.103870 1_554
C6 O30 1.247270 1_555
C6 O25 1.304484 1_555
C7 H17 1.103870 1_555
C7 O10 1.247270 1_555
C7 O7 1.304484 1_555
C8 H21 1.103870 1_555
C8 O22 1.247270 1_555
C8 O16 1.304484 1_555
C9 H10 1.103870 1_556
C9 O9 1.247270 1_555
C9 O19 1.304484 1_555
C10 H9 1.103590 1_555
C10 O2 1.247419 1_555
C10 O6 1.312162 1_555
C11 H3 1.103590 1_565
C11 O26 1.247419 1_565
C11 O8 1.312162 1_455
C12 H23 1.103590 1_555
C12 O18 1.247419 1_555
C12 O12 1.312162 1_555
C13 H22 1.103590 1_545
C13 O0 1.247419 1_545
C13 O11 1.312162 1_555
C14 H20 1.103870 1_555
C14 O28 1.247270 1_555
C14 O20 1.304484 1_555
C15 H16 1.103870 1_556
C15 O27 1.247270 1_555
C15 O24 1.304484 1_555
