# generated using pymatgen
data_SrZrF6
_symmetry_space_group_name_H-M   'P 1'
_cell_length_a   6.65007694
_cell_length_b   6.65007694
_cell_length_c   5.32769704
_cell_angle_alpha   90.00000000
_cell_angle_beta   90.00000000
_cell_angle_gamma   110.86965620
_symmetry_Int_Tables_number   1
_chemical_formula_structural   SrZrF6
_chemical_formula_sum   'Sr2 Zr2 F12'
_cell_volume   220.15196317
_cell_formula_units_Z   2
loop_
 _symmetry_equiv_pos_site_id
 _symmetry_equiv_pos_as_xyz
  1  'x, y, z'
loop_
 _atom_site_type_symbol
 _atom_site_label
 _atom_site_symmetry_multiplicity
 _atom_site_fract_x
 _atom_site_fract_y
 _atom_site_fract_z
 _atom_site_occupancy
  Sr  Sr0  1  0.25000000  0.75000000  0.45289497  1
  Sr  Sr1  1  0.75000000  0.25000000  0.54710503  1
  Zr  Zr0  1  0.75000000  0.75000000  -0.00000000  1
  Zr  Zr1  1  0.25000000  0.25000000  0.00000000  1
  F  F0  1  0.68261056  0.93954938  0.26140689  1
  F  F1  1  0.31738944  0.06045062  0.73859311  1
  F  F2  1  0.81738944  0.56045062  0.26140689  1
  F  F3  1  0.56045062  0.81738944  0.73859311  1
  F  F4  1  0.18261056  0.43954938  0.73859311  1
  F  F5  1  0.43954938  0.18261056  0.26140689  1
  F  F6  1  0.93954938  0.68261056  0.73859311  1
  F  F7  1  0.06045062  0.31738944  0.26140689  1
  F  F8  1  0.42421523  0.57578477  0.15505851  1
  F  F9  1  0.57578477  0.42421523  0.84494149  1
  F  F10  1  0.07578477  0.92421523  0.15505851  1
  F  F11  1  0.92421523  0.07578477  0.84494149  1
loop_
_geom_bond_atom_site_label_1
_geom_bond_atom_site_label_2
_geom_bond_distance
_geom_bond_site_symmetry_2
F0 Zr0 2.032689 1_555
F0 Sr1 2.474007 1_565
F0 Sr0 2.884869 1_555
F1 Zr1 2.032689 1_556
F1 Sr0 2.474007 1_545
F1 Sr1 2.884869 1_555
F2 Zr0 2.032689 1_555
F2 Sr1 2.474007 1_555
F2 Sr0 2.884869 1_655
F3 Zr0 2.032689 1_556
F3 Sr0 2.474007 1_555
F3 Sr1 2.884869 1_565
F4 Zr1 2.032689 1_556
F4 Sr0 2.474007 1_555
F4 Sr1 2.884869 1_455
F5 Zr1 2.032689 1_555
F5 Sr1 2.474007 1_555
F5 Sr0 2.884869 1_545
F6 Zr0 2.032689 1_556
F6 Sr0 2.474007 1_655
F6 Sr1 2.884869 1_555
F7 Zr1 2.032689 1_555
F7 Sr1 2.474007 1_455
F7 Sr0 2.884869 1_555
F8 Zr0 2.220370 1_555
F8 Zr1 2.220370 1_555
F8 Sr0 2.481662 1_555
F9 Zr0 2.220370 1_556
F9 Zr1 2.220370 1_556
F9 Sr1 2.481662 1_555
F10 Zr1 2.220370 1_565
F10 Zr0 2.220370 1_455
F10 Sr0 2.481662 1_555
F11 Zr1 2.220370 1_656
F11 Zr0 2.220370 1_546
F11 Sr1 2.481662 1_555
