# generated using pymatgen
data_CaMn(PO3)4
_symmetry_space_group_name_H-M   'P 1'
_cell_length_a   7.55506338
_cell_length_b   7.55506338
_cell_length_c   10.12327426
_cell_angle_alpha   66.60975374
_cell_angle_beta   66.60975374
_cell_angle_gamma   70.71988298
_symmetry_Int_Tables_number   1
_chemical_formula_structural   CaMn(PO3)4
_chemical_formula_sum   'Ca2 Mn2 P8 O24'
_cell_volume   476.43455759
_cell_formula_units_Z   2
loop_
 _symmetry_equiv_pos_site_id
 _symmetry_equiv_pos_as_xyz
  1  'x, y, z'
loop_
 _atom_site_type_symbol
 _atom_site_label
 _atom_site_symmetry_multiplicity
 _atom_site_fract_x
 _atom_site_fract_y
 _atom_site_fract_z
 _atom_site_occupancy
  Ca  Ca0  1  0.95361178  0.04638822  0.75000000  1
  Ca  Ca1  1  0.04638822  0.95361178  0.25000000  1
  Mn  Mn0  1  0.50000000  0.00000000  0.00000000  1
  Mn  Mn1  1  0.00000000  0.50000000  0.50000000  1
  P  P0  1  0.31202949  0.30807304  0.69592867  1
  P  P1  1  0.69192696  0.68797051  0.80407133  1
  P  P2  1  0.68797051  0.69192696  0.30407133  1
  P  P3  1  0.30807304  0.31202949  0.19592867  1
  P  P4  1  0.71552390  0.27143911  0.47376867  1
  P  P5  1  0.72856089  0.28447610  0.02623133  1
  P  P6  1  0.28447610  0.72856089  0.52623133  1
  P  P7  1  0.27143911  0.71552390  0.97376867  1
  O  O0  1  0.29774151  0.53487779  0.66816042  1
  O  O1  1  0.46512221  0.70225849  0.83183958  1
  O  O2  1  0.70225849  0.46512221  0.33183958  1
  O  O3  1  0.53487779  0.29774151  0.16816042  1
  O  O4  1  0.48956480  0.25985500  0.55519959  1
  O  O5  1  0.74014500  0.51043520  0.94480041  1
  O  O6  1  0.51043520  0.74014500  0.44480041  1
  O  O7  1  0.25985500  0.48956480  0.05519959  1
  O  O8  1  0.35473601  0.19163756  0.83951201  1
  O  O9  1  0.80836244  0.64526399  0.66048799  1
  O  O10  1  0.64526399  0.80836244  0.16048799  1
  O  O11  1  0.19163756  0.35473601  0.33951201  1
  O  O12  1  0.13236515  0.29045948  0.67627733  1
  O  O13  1  0.70954052  0.86763485  0.82372267  1
  O  O14  1  0.86763485  0.70954052  0.32372267  1
  O  O15  1  0.29045948  0.13236515  0.17627733  1
  O  O16  1  0.79448173  0.30738494  0.57391523  1
  O  O17  1  0.69261506  0.20551827  0.92608477  1
  O  O18  1  0.20551827  0.69261506  0.42608477  1
  O  O19  1  0.30738494  0.79448173  0.07391523  1
  O  O20  1  0.81711978  0.09968978  0.41926054  1
  O  O21  1  0.90031022  0.18288022  0.08073946  1
  O  O22  1  0.18288022  0.90031022  0.58073946  1
  O  O23  1  0.09968978  0.81711978  0.91926054  1
loop_
_geom_bond_atom_site_label_1
_geom_bond_atom_site_label_2
_geom_bond_distance
_geom_bond_site_symmetry_2
Ca0 O22 2.244286 1_645
Ca0 O23 2.244286 1_645
Ca0 O12 2.352159 1_655
Ca0 O13 2.352159 1_545
Ca0 O17 2.419982 1_555
Ca0 O16 2.419982 1_555
Ca1 O21 2.244286 1_465
Ca1 O20 2.244286 1_465
Ca1 O15 2.352159 1_565
Ca1 O14 2.352159 1_455
Ca1 O19 2.419982 1_555
Ca1 O18 2.419982 1_555
Mn0 O10 2.106884 1_545
Mn0 O8 2.106884 1_554
Mn0 O19 2.189417 1_545
Mn0 O17 2.189417 1_554
Mn0 O15 2.195245 1_555
Mn0 O13 2.195245 1_544
Mn1 O9 2.106884 1_455
Mn1 O11 2.106884 1_555
Mn1 O18 2.189417 1_555
Mn1 O16 2.189417 1_455
Mn1 O14 2.195245 1_455
Mn1 O12 2.195245 1_555
O0 P0 1.595724 1_555
O0 P6 1.601188 1_555
O1 P1 1.595724 1_555
O1 P7 1.601188 1_555
O2 P2 1.595724 1_555
O2 P4 1.601188 1_555
O3 P3 1.595724 1_555
O3 P5 1.601188 1_555
O4 P4 1.589198 1_555
O4 P0 1.591719 1_555
O5 P5 1.589198 1_556
O5 P1 1.591719 1_555
O6 P6 1.589198 1_555
O6 P2 1.591719 1_555
O7 P7 1.589198 1_554
O7 P3 1.591719 1_555
O8 P0 1.469833 1_555
O9 P1 1.469833 1_555
O10 P2 1.469833 1_555
O11 P3 1.469833 1_555
O12 P0 1.501483 1_555
O13 P1 1.501483 1_555
O14 P2 1.501483 1_555
O15 P3 1.501483 1_555
O16 P4 1.504386 1_555
O17 P5 1.504386 1_556
O18 P6 1.504386 1_555
O19 P7 1.504386 1_554
O20 P4 1.466915 1_555
O21 P5 1.466915 1_555
O22 P6 1.466915 1_555
O23 P7 1.466915 1_555
