# generated using pymatgen
data_Ca2CoSi2O7
_symmetry_space_group_name_H-M   'P 1'
_cell_length_a   5.08158266
_cell_length_b   23.75756253
_cell_length_c   23.70800157
_cell_angle_alpha   90.00000000
_cell_angle_beta   90.00000000
_cell_angle_gamma   90.00000000
_symmetry_Int_Tables_number   1
_chemical_formula_structural   Ca2CoSi2O7
_chemical_formula_sum   'Ca36 Co18 Si36 O126'
_cell_volume   2862.17261945
_cell_formula_units_Z   18
loop_
 _symmetry_equiv_pos_site_id
 _symmetry_equiv_pos_as_xyz
  1  'x, y, z'
loop_
 _atom_site_type_symbol
 _atom_site_label
 _atom_site_symmetry_multiplicity
 _atom_site_fract_x
 _atom_site_fract_y
 _atom_site_fract_z
 _atom_site_occupancy
  Ca  Ca0  1  0.49926674  0.39241323  0.55323295  1
  Ca  Ca1  1  0.49926674  0.60758677  0.44676705  1
  Ca  Ca2  1  0.50073326  0.89241323  0.94676705  1
  Ca  Ca3  1  0.50073326  0.10758677  0.05323295  1
  Ca  Ca4  1  0.51193971  0.38519805  0.89246623  1
  Ca  Ca5  1  0.51193971  0.61480195  0.10753377  1
  Ca  Ca6  1  0.48806029  0.88519805  0.60753377  1
  Ca  Ca7  1  0.48806029  0.11480195  0.39246623  1
  Ca  Ca8  1  0.49947613  0.44479943  0.72557251  1
  Ca  Ca9  1  0.49947613  0.55520057  0.27442749  1
  Ca  Ca10  1  0.50052387  0.94479943  0.77442749  1
  Ca  Ca11  1  0.50052387  0.05520057  0.22557251  1
  Ca  Ca12  1  0.48663038  0.22515467  0.61096758  1
  Ca  Ca13  1  0.48663038  0.77484533  0.38903242  1
  Ca  Ca14  1  0.51336962  0.72515467  0.88903242  1
  Ca  Ca15  1  0.51336962  0.27484533  0.11096758  1
  Ca  Ca16  1  0.52550211  0.23184475  0.95032439  1
  Ca  Ca17  1  0.52550211  0.76815525  0.04967561  1
  Ca  Ca18  1  0.47449789  0.73184475  0.54967561  1
  Ca  Ca19  1  0.47449789  0.26815525  0.45032439  1
  Ca  Ca20  1  0.47666959  0.28456856  0.76482218  1
  Ca  Ca21  1  0.47666959  0.71543144  0.23517782  1
  Ca  Ca22  1  0.52333041  0.78456856  0.73517782  1
  Ca  Ca23  1  0.52333041  0.21543144  0.26482218  1
  Ca  Ca24  1  0.47802776  0.05895618  0.55259489  1
  Ca  Ca25  1  0.47802776  0.94104382  0.44740511  1
  Ca  Ca26  1  0.52197224  0.55895618  0.94740511  1
  Ca  Ca27  1  0.52197224  0.44104382  0.05259489  1
  Ca  Ca28  1  0.48492712  0.04916211  0.89841599  1
  Ca  Ca29  1  0.48492712  0.95083789  0.10158401  1
  Ca  Ca30  1  0.51507288  0.54916211  0.60158401  1
  Ca  Ca31  1  0.51507288  0.45083789  0.39841599  1
  Ca  Ca32  1  0.50624940  0.09775229  0.71220175  1
  Ca  Ca33  1  0.50624940  0.90224771  0.28779825  1
  Ca  Ca34  1  0.49375060  0.59775229  0.78779825  1
  Ca  Ca35  1  0.49375060  0.40224771  0.21220175  1
  Co  Co0  1  0.00537469  0.50000000  0.50000000  1
  Co  Co1  1  0.99462531  -0.00000000  -0.00000000  1
  Co  Co2  1  0.99262556  0.49343955  0.83632205  1
  Co  Co3  1  0.99262556  0.50656045  0.16367795  1
  Co  Co4  1  0.00737444  0.99343955  0.66367795  1
  Co  Co5  1  0.00737444  0.00656045  0.33632205  1
  Co  Co6  1  0.98931983  0.33667035  0.66126287  1
  Co  Co7  1  0.98931983  0.66332965  0.33873713  1
  Co  Co8  1  0.01068017  0.83667035  0.83873713  1
  Co  Co9  1  0.01068017  0.16332965  0.16126287  1
  Co  Co10  1  0.98921164  0.16633104  0.50214042  1
  Co  Co11  1  0.98921164  0.83366896  0.49785958  1
  Co  Co12  1  0.01078836  0.66633104  0.99785958  1
  Co  Co13  1  0.01078836  0.33366896  0.00214042  1
  Co  Co14  1  0.99469390  0.16520708  0.83029226  1
  Co  Co15  1  0.99469390  0.83479292  0.16970774  1
  Co  Co16  1  0.00530610  0.66520708  0.66970774  1
  Co  Co17  1  0.00530610  0.33479292  0.33029226  1
  Si  Si0  1  0.07011416  0.45805690  0.62072640  1
  Si  Si1  1  0.07011416  0.54194310  0.37927360  1
  Si  Si2  1  0.92988584  0.95805690  0.87927360  1
  Si  Si3  1  0.92988584  0.04194310  0.12072640  1
  Si  Si4  1  0.08355028  0.45087750  0.95590512  1
  Si  Si5  1  0.08355028  0.54912250  0.04409488  1
  Si  Si6  1  0.91644972  0.95087750  0.54409488  1
  Si  Si7  1  0.91644972  0.04912250  0.45590512  1
  Si  Si8  1  0.93095012  0.37398193  0.78543123  1
  Si  Si9  1  0.93095012  0.62601807  0.21456877  1
  Si  Si10  1  0.06904988  0.87398193  0.71456877  1
  Si  Si11  1  0.06904988  0.12601807  0.28543123  1
  Si  Si12  1  0.92544986  0.28793035  0.54122562  1
  Si  Si13  1  0.92544986  0.71206965  0.45877438  1
  Si  Si14  1  0.07455014  0.78793035  0.95877438  1
  Si  Si15  1  0.07455014  0.21206965  0.04122562  1
  Si  Si16  1  0.95607579  0.28528323  0.88198279  1
  Si  Si17  1  0.95607579  0.71471677  0.11801721  1
  Si  Si18  1  0.04392421  0.78528323  0.61801721  1
  Si  Si19  1  0.04392421  0.21471677  0.38198279  1
  Si  Si20  1  0.03896366  0.21690596  0.70995695  1
  Si  Si21  1  0.03896366  0.78309404  0.29004305  1
  Si  Si22  1  0.96103634  0.71690596  0.79004305  1
  Si  Si23  1  0.96103634  0.28309404  0.20995695  1
  Si  Si24  1  0.05312666  0.11865701  0.62272393  1
  Si  Si25  1  0.05312666  0.88134299  0.37727607  1
  Si  Si26  1  0.94687334  0.61865701  0.87727607  1
  Si  Si27  1  0.94687334  0.38134299  0.12272393  1
  Si  Si28  1  0.05038593  0.11738156  0.95152529  1
  Si  Si29  1  0.05038593  0.88261844  0.04847471  1
  Si  Si30  1  0.94961407  0.61738156  0.54847471  1
  Si  Si31  1  0.94961407  0.38261844  0.45152529  1
  Si  Si32  1  0.94137876  0.04442214  0.77965094  1
  Si  Si33  1  0.94137876  0.95557786  0.22034906  1
  Si  Si34  1  0.05862124  0.54442214  0.72034906  1
  Si  Si35  1  0.05862124  0.45557786  0.27965094  1
  O  O0  1  0.18173228  0.50836392  0.66493039  1
  O  O1  1  0.18173228  0.49163608  0.33506961  1
  O  O2  1  0.81826772  0.00836392  0.83506961  1
  O  O3  1  0.81826772  0.99163608  0.16493039  1
  O  O4  1  0.82460238  0.32616718  0.48543299  1
  O  O5  1  0.82460238  0.67383282  0.51456701  1
  O  O6  1  0.17539762  0.82616718  0.01456701  1
  O  O7  1  0.17539762  0.17383282  0.98543299  1
  O  O8  1  0.82799210  0.32037742  0.82637544  1
  O  O9  1  0.82799210  0.67962258  0.17362456  1
  O  O10  1  0.17200790  0.82037742  0.67362456  1
  O  O11  1  0.17200790  0.17962258  0.32637544  1
  O  O12  1  0.16073276  0.16021053  0.67547396  1
  O  O13  1  0.16073276  0.83978947  0.32452604  1
  O  O14  1  0.83926724  0.66021053  0.82452604  1
  O  O15  1  0.83926724  0.33978947  0.17547396  1
  O  O16  1  0.79555672  -0.00000000  0.50000000  1
  O  O17  1  0.20444328  0.50000000  -0.00000000  1
  O  O18  1  0.75272389  0.45790270  0.61766465  1
  O  O19  1  0.75272389  0.54209730  0.38233535  1
  O  O20  1  0.24727611  0.95790270  0.88233535  1
  O  O21  1  0.24727611  0.04209730  0.11766465  1
  O  O22  1  0.76586452  0.44930436  0.95805321  1
  O  O23  1  0.76586452  0.55069564  0.04194679  1
  O  O24  1  0.23413548  0.94930436  0.54194679  1
  O  O25  1  0.23413548  0.05069564  0.45805321  1
  O  O26  1  0.24780858  0.37537350  0.78088045  1
  O  O27  1  0.24780858  0.62462650  0.21911955  1
  O  O28  1  0.75219142  0.87537350  0.71911955  1
  O  O29  1  0.75219142  0.12462650  0.28088045  1
  O  O30  1  0.24295558  0.28416307  0.54317292  1
  O  O31  1  0.24295558  0.71583693  0.45682708  1
  O  O32  1  0.75704442  0.78416307  0.95682708  1
  O  O33  1  0.75704442  0.21583693  0.04317292  1
  O  O34  1  0.27218936  0.29162710  0.88555434  1
  O  O35  1  0.27218936  0.70837290  0.11444566  1
  O  O36  1  0.72781064  0.79162710  0.61444566  1
  O  O37  1  0.72781064  0.20837290  0.38555434  1
  O  O38  1  0.72317997  0.22129539  0.70312527  1
  O  O39  1  0.72317997  0.77870461  0.29687473  1
  O  O40  1  0.27682003  0.72129539  0.79687473  1
  O  O41  1  0.27682003  0.27870461  0.20312527  1
  O  O42  1  0.73584183  0.11509928  0.62105092  1
  O  O43  1  0.73584183  0.88490072  0.37894908  1
  O  O44  1  0.26415817  0.61509928  0.87894908  1
  O  O45  1  0.26415817  0.38490072  0.12105092  1
  O  O46  1  0.73432273  0.11380268  0.95854000  1
  O  O47  1  0.73432273  0.88619732  0.04146000  1
  O  O48  1  0.26567727  0.61380268  0.54146000  1
  O  O49  1  0.26567727  0.38619732  0.45854000  1
  O  O50  1  0.25674264  0.03776068  0.77456835  1
  O  O51  1  0.25674264  0.96223932  0.22543165  1
  O  O52  1  0.74325736  0.53776068  0.72543165  1
  O  O53  1  0.74325736  0.46223932  0.27456835  1
  O  O54  1  0.22939388  0.47553262  0.56273315  1
  O  O55  1  0.22939388  0.52446738  0.43726685  1
  O  O56  1  0.77060612  0.97553262  0.93726685  1
  O  O57  1  0.77060612  0.02446738  0.06273315  1
  O  O58  1  0.21960816  0.40063462  0.64226558  1
  O  O59  1  0.21960816  0.59936538  0.35773442  1
  O  O60  1  0.78039184  0.90063462  0.85773442  1
  O  O61  1  0.78039184  0.09936538  0.14226558  1
  O  O62  1  0.22652041  0.46645633  0.89612929  1
  O  O63  1  0.22652041  0.53354367  0.10387071  1
  O  O64  1  0.77347959  0.96645633  0.60387071  1
  O  O65  1  0.77347959  0.03354367  0.39612929  1
  O  O66  1  0.24374998  0.39514662  0.97908981  1
  O  O67  1  0.24374998  0.60485338  0.02091019  1
  O  O68  1  0.75625002  0.89514662  0.52091019  1
  O  O69  1  0.75625002  0.10485338  0.47908981  1
  O  O70  1  0.77209516  0.36106149  0.72616652  1
  O  O71  1  0.77209516  0.63893851  0.27383348  1
  O  O72  1  0.22790484  0.86106149  0.77383348  1
  O  O73  1  0.22790484  0.13893851  0.22616652  1
  O  O74  1  0.77788806  0.42855532  0.81288770  1
  O  O75  1  0.77788806  0.57144468  0.18711230  1
  O  O76  1  0.22211194  0.92855532  0.68711230  1
  O  O77  1  0.22211194  0.07144468  0.31288770  1
  O  O78  1  0.77350590  0.31730186  0.59489244  1
  O  O79  1  0.77350590  0.68269814  0.40510756  1
  O  O80  1  0.22649410  0.81730186  0.90510756  1
  O  O81  1  0.22649410  0.18269814  0.09489244  1
  O  O82  1  0.76718072  0.22849525  0.53002003  1
  O  O83  1  0.76718072  0.77150475  0.46997997  1
  O  O84  1  0.23281928  0.72849525  0.96997997  1
  O  O85  1  0.23281928  0.27150475  0.03002003  1
  O  O86  1  0.79595692  0.31442744  0.93576328  1
  O  O87  1  0.79595692  0.68557256  0.06423672  1
  O  O88  1  0.20404308  0.81442744  0.56423672  1
  O  O89  1  0.20404308  0.18557256  0.43576328  1
  O  O90  1  0.82894401  0.22234446  0.87837790  1
  O  O91  1  0.82894401  0.77765554  0.12162210  1
  O  O92  1  0.17105599  0.72234446  0.62162210  1
  O  O93  1  0.17105599  0.27765554  0.37837790  1
  O  O94  1  0.16302861  0.21330595  0.77327603  1
  O  O95  1  0.16302861  0.78669405  0.22672397  1
  O  O96  1  0.83697139  0.71330595  0.72672397  1
  O  O97  1  0.83697139  0.28669405  0.27327603  1
  O  O98  1  0.20250246  0.26956944  0.68014448  1
  O  O99  1  0.20250246  0.73043056  0.31985552  1
  O  O100  1  0.79749754  0.76956944  0.81985552  1
  O  O101  1  0.79749754  0.23043056  0.18014448  1
  O  O102  1  0.20698211  0.14413631  0.56721048  1
  O  O103  1  0.20698211  0.85586369  0.43278952  1
  O  O104  1  0.79301789  0.64413631  0.93278952  1
  O  O105  1  0.79301789  0.35586369  0.06721048  1
  O  O106  1  0.20956953  0.05928507  0.63612145  1
  O  O107  1  0.20956953  0.94071493  0.36387855  1
  O  O108  1  0.79043047  0.55928507  0.86387855  1
  O  O109  1  0.79043047  0.44071493  0.13612145  1
  O  O110  1  0.17102516  0.11916360  0.88779107  1
  O  O111  1  0.17102516  0.88083640  0.11220893  1
  O  O112  1  0.82897484  0.61916360  0.61220893  1
  O  O113  1  0.82897484  0.38083640  0.38779107  1
  O  O114  1  0.21606690  0.06525665  0.98186906  1
  O  O115  1  0.21606690  0.93474335  0.01813094  1
  O  O116  1  0.78393310  0.56525665  0.51813094  1
  O  O117  1  0.78393310  0.43474335  0.48186906  1
  O  O118  1  0.77660821  0.01549078  0.72671434  1
  O  O119  1  0.77660821  0.98450922  0.27328566  1
  O  O120  1  0.22339179  0.51549078  0.77328566  1
  O  O121  1  0.22339179  0.48450922  0.22671434  1
  O  O122  1  0.81674325  0.10762739  0.78440337  1
  O  O123  1  0.81674325  0.89237261  0.21559663  1
  O  O124  1  0.18325675  0.60762739  0.71559663  1
  O  O125  1  0.18325675  0.39237261  0.28440337  1
loop_
_geom_bond_atom_site_label_1
_geom_bond_atom_site_label_2
_geom_bond_distance
_geom_bond_site_symmetry_2
Ca0 O54 2.414728 1_555
Ca0 O117 2.442619 1_555
Ca0 O78 2.470187 1_555
Ca0 O18 2.532386 1_555
Ca0 O49 2.543762 1_555
Ca0 O58 2.552080 1_555
Ca0 O4 2.791749 1_555
Ca0 O30 2.892620 1_555
Ca1 O55 2.414728 1_555
Ca1 O116 2.442619 1_555
Ca1 O79 2.470187 1_555
Ca1 O19 2.532386 1_555
Ca1 O48 2.543762 1_555
Ca1 O59 2.552080 1_555
Ca1 O5 2.791749 1_555
Ca1 O31 2.892620 1_555
Ca2 O56 2.414728 1_555
Ca2 O115 2.442619 1_556
Ca2 O80 2.470187 1_555
Ca2 O20 2.532386 1_555
Ca2 O47 2.543762 1_556
Ca2 O60 2.552080 1_555
Ca2 O6 2.791749 1_556
Ca2 O32 2.892620 1_555
Ca3 O57 2.414728 1_555
Ca3 O114 2.442619 1_554
Ca3 O81 2.470187 1_555
Ca3 O21 2.532386 1_555
Ca3 O46 2.543762 1_554
Ca3 O61 2.552080 1_555
Ca3 O7 2.791749 1_554
Ca3 O33 2.892620 1_555
Ca4 O62 2.416190 1_555
Ca4 O86 2.442040 1_555
Ca4 O66 2.476032 1_555
Ca4 O22 2.530289 1_555
Ca4 O74 2.539066 1_555
Ca4 O34 2.540264 1_555
Ca4 O8 2.721404 1_555
Ca4 O26 2.975657 1_555
Ca5 O63 2.416190 1_555
Ca5 O87 2.442040 1_555
Ca5 O67 2.476032 1_555
Ca5 O23 2.530289 1_555
Ca5 O75 2.539066 1_555
Ca5 O35 2.540264 1_555
Ca5 O9 2.721404 1_555
Ca5 O27 2.975657 1_555
Ca6 O64 2.416190 1_555
Ca6 O88 2.442040 1_555
Ca6 O68 2.476032 1_555
Ca6 O24 2.530289 1_555
Ca6 O76 2.539066 1_555
Ca6 O36 2.540264 1_555
Ca6 O10 2.721404 1_555
Ca6 O28 2.975657 1_555
Ca7 O65 2.416190 1_555
Ca7 O89 2.442040 1_555
Ca7 O69 2.476032 1_555
Ca7 O25 2.530289 1_555
Ca7 O77 2.539066 1_555
Ca7 O37 2.540264 1_555
Ca7 O11 2.721404 1_555
Ca7 O29 2.975657 1_555
Ca8 O70 2.424274 1_555
Ca8 O120 2.463412 1_555
Ca8 O26 2.464822 1_555
Ca8 O52 2.532240 1_555
Ca8 O74 2.536869 1_555
Ca8 O0 2.637153 1_555
Ca8 O58 2.650336 1_555
Ca8 O18 2.880593 1_555
Ca9 O71 2.424274 1_555
Ca9 O121 2.463412 1_555
Ca9 O27 2.464822 1_555
Ca9 O53 2.532240 1_555
Ca9 O75 2.536869 1_555
Ca9 O1 2.637153 1_555
Ca9 O59 2.650336 1_555
Ca9 O19 2.880593 1_555
Ca10 O72 2.424274 1_555
Ca10 O118 2.463412 1_565
Ca10 O28 2.464822 1_555
Ca10 O50 2.532240 1_565
Ca10 O76 2.536869 1_555
Ca10 O2 2.637153 1_565
Ca10 O60 2.650336 1_555
Ca10 O20 2.880593 1_555
Ca11 O73 2.424274 1_555
Ca11 O119 2.463412 1_545
Ca11 O29 2.464822 1_555
Ca11 O51 2.532240 1_545
Ca11 O77 2.536869 1_555
Ca11 O3 2.637153 1_545
Ca11 O61 2.650336 1_555
Ca11 O21 2.880593 1_555
Ca12 O82 2.392010 1_555
Ca12 O98 2.426476 1_555
Ca12 O30 2.466155 1_555
Ca12 O38 2.495396 1_555
Ca12 O102 2.607764 1_555
Ca12 O78 2.657619 1_555
Ca12 O12 2.731663 1_555
Ca12 O42 2.915008 1_555
Ca13 O83 2.392010 1_555
Ca13 O99 2.426476 1_555
Ca13 O31 2.466155 1_555
Ca13 O39 2.495396 1_555
Ca13 O103 2.607764 1_555
Ca13 O79 2.657619 1_555
Ca13 O13 2.731663 1_555
Ca13 O43 2.915008 1_555
Ca14 O84 2.392010 1_555
Ca14 O100 2.426476 1_555
Ca14 O32 2.466155 1_555
Ca14 O40 2.495396 1_555
Ca14 O104 2.607764 1_555
Ca14 O80 2.657619 1_555
Ca14 O14 2.731663 1_555
Ca14 O44 2.915008 1_555
Ca15 O85 2.392010 1_555
Ca15 O101 2.426476 1_555
Ca15 O33 2.466155 1_555
Ca15 O41 2.495396 1_555
Ca15 O105 2.607764 1_555
Ca15 O81 2.657619 1_555
Ca15 O15 2.731663 1_555
Ca15 O45 2.915008 1_555
Ca16 O90 2.310419 1_555
Ca16 O7 2.399469 1_555
Ca16 O86 2.420182 1_555
Ca16 O34 2.456040 1_555
Ca16 O33 2.524785 1_556
Ca16 O85 2.582586 1_556
Ca16 O46 3.004758 1_555
Ca17 O91 2.310419 1_555
Ca17 O6 2.399469 1_555
Ca17 O87 2.420182 1_555
Ca17 O35 2.456040 1_555
Ca17 O32 2.524785 1_554
Ca17 O84 2.582586 1_554
Ca17 O47 3.004758 1_555
Ca18 O92 2.310419 1_555
Ca18 O5 2.399469 1_555
Ca18 O88 2.420182 1_555
Ca18 O36 2.456040 1_555
Ca18 O31 2.524785 1_555
Ca18 O83 2.582586 1_555
Ca18 O48 3.004758 1_555
Ca19 O93 2.310419 1_555
Ca19 O4 2.399469 1_555
Ca19 O89 2.420182 1_555
Ca19 O37 2.456040 1_555
Ca19 O30 2.524785 1_555
Ca19 O82 2.582586 1_555
Ca19 O49 3.004758 1_555
Ca20 O94 2.333813 1_555
Ca20 O38 2.443020 1_555
Ca20 O8 2.457747 1_555
Ca20 O98 2.469455 1_555
Ca20 O26 2.480204 1_555
Ca20 O70 2.529050 1_555
Ca21 O95 2.333813 1_555
Ca21 O39 2.443020 1_555
Ca21 O9 2.457747 1_555
Ca21 O99 2.469455 1_555
Ca21 O27 2.480204 1_555
Ca21 O71 2.529050 1_555
Ca22 O96 2.333813 1_555
Ca22 O40 2.443020 1_555
Ca22 O10 2.457747 1_555
Ca22 O100 2.469455 1_555
Ca22 O28 2.480204 1_555
Ca22 O72 2.529050 1_555
Ca23 O97 2.333813 1_555
Ca23 O41 2.443020 1_555
Ca23 O11 2.457747 1_555
Ca23 O101 2.469455 1_555
Ca23 O29 2.480204 1_555
Ca23 O73 2.529050 1_555
Ca24 O106 2.404675 1_555
Ca24 O102 2.472324 1_555
Ca24 O16 2.473901 1_555
Ca24 O42 2.475771 1_555
Ca24 O69 2.494935 1_555
Ca24 O25 2.568730 1_555
Ca24 O24 2.895872 1_545
Ca24 O64 2.925954 1_545
Ca25 O107 2.404675 1_555
Ca25 O103 2.472324 1_555
Ca25 O16 2.473901 1_565
Ca25 O43 2.475771 1_555
Ca25 O68 2.494935 1_555
Ca25 O24 2.568730 1_555
Ca25 O25 2.895872 1_565
Ca25 O65 2.925954 1_565
Ca26 O108 2.404675 1_555
Ca26 O104 2.472324 1_555
Ca26 O17 2.473901 1_556
Ca26 O44 2.475771 1_555
Ca26 O67 2.494935 1_556
Ca26 O23 2.568730 1_556
Ca26 O22 2.895872 1_555
Ca26 O62 2.925954 1_555
Ca27 O109 2.404675 1_555
Ca27 O105 2.472324 1_555
Ca27 O17 2.473901 1_555
Ca27 O45 2.475771 1_555
Ca27 O66 2.494935 1_554
Ca27 O22 2.568730 1_554
Ca27 O23 2.895872 1_555
Ca27 O63 2.925954 1_555
Ca28 O110 2.318111 1_555
Ca28 O114 2.434602 1_555
Ca28 O46 2.448738 1_555
Ca28 O56 2.452696 1_545
Ca28 O2 2.462563 1_555
Ca28 O20 2.510858 1_545
Ca29 O111 2.318111 1_555
Ca29 O115 2.434602 1_555
Ca29 O47 2.448738 1_555
Ca29 O57 2.452696 1_565
Ca29 O3 2.462563 1_555
Ca29 O21 2.510858 1_565
Ca30 O112 2.318111 1_555
Ca30 O116 2.434602 1_555
Ca30 O48 2.448738 1_555
Ca30 O54 2.452696 1_555
Ca30 O0 2.462563 1_555
Ca30 O18 2.510858 1_555
Ca31 O113 2.318111 1_555
Ca31 O117 2.434602 1_555
Ca31 O49 2.448738 1_555
Ca31 O55 2.452696 1_555
Ca31 O1 2.462563 1_555
Ca31 O19 2.510858 1_555
Ca32 O122 2.339787 1_555
Ca32 O50 2.413527 1_555
Ca32 O118 2.413558 1_555
Ca32 O12 2.458201 1_555
Ca32 O42 2.490172 1_555
Ca32 O106 2.522188 1_555
Ca33 O123 2.339787 1_555
Ca33 O51 2.413527 1_555
Ca33 O119 2.413558 1_555
Ca33 O13 2.458201 1_555
Ca33 O43 2.490172 1_555
Ca33 O107 2.522188 1_555
Ca34 O124 2.339787 1_555
Ca34 O52 2.413527 1_555
Ca34 O120 2.413558 1_555
Ca34 O14 2.458201 1_555
Ca34 O44 2.490172 1_555
Ca34 O108 2.522188 1_555
Ca35 O125 2.339787 1_555
Ca35 O53 2.413527 1_555
Ca35 O121 2.413558 1_555
Ca35 O15 2.458201 1_555
Ca35 O45 2.490172 1_555
Ca35 O109 2.522188 1_555
Co0 O54 1.961066 1_555
Co0 O55 1.961066 1_555
Co0 O117 1.963304 1_455
Co0 O116 1.963304 1_455
Co1 O56 1.961066 1_544
Co1 O57 1.961066 1_555
Co1 O114 1.963304 1_654
Co1 O115 1.963304 1_645
Co2 O62 1.958082 1_655
Co2 O74 1.968654 1_555
Co2 O120 1.970536 1_655
Co2 O108 1.982331 1_555
Co3 O63 1.958082 1_655
Co3 O75 1.968654 1_555
Co3 O121 1.970536 1_655
Co3 O109 1.982331 1_555
Co4 O64 1.958082 1_455
Co4 O76 1.968654 1_555
Co4 O118 1.970536 1_465
Co4 O106 1.982331 1_565
Co5 O65 1.958082 1_455
Co5 O77 1.968654 1_555
Co5 O119 1.970536 1_445
Co5 O107 1.982331 1_545
Co6 O58 1.970172 1_655
Co6 O78 1.972402 1_555
Co6 O98 1.978702 1_655
Co6 O70 1.980397 1_555
Co7 O59 1.970172 1_655
Co7 O79 1.972402 1_555
Co7 O99 1.978702 1_655
Co7 O71 1.980397 1_555
Co8 O60 1.970172 1_455
Co8 O80 1.972402 1_555
Co8 O100 1.978702 1_455
Co8 O72 1.980397 1_555
Co9 O61 1.970172 1_455
Co9 O81 1.972402 1_555
Co9 O101 1.978702 1_455
Co9 O73 1.980397 1_555
Co10 O69 1.957880 1_555
Co10 O89 1.969055 1_655
Co10 O102 1.970408 1_655
Co10 O82 1.972566 1_555
Co11 O68 1.957880 1_555
Co11 O88 1.969055 1_655
Co11 O103 1.970408 1_655
Co11 O83 1.972566 1_555
Co12 O67 1.957880 1_556
Co12 O87 1.969055 1_456
Co12 O104 1.970408 1_455
Co12 O84 1.972566 1_555
Co13 O66 1.957880 1_554
Co13 O86 1.969055 1_454
Co13 O105 1.970408 1_455
Co13 O85 1.972566 1_555
Co14 O90 1.962578 1_555
Co14 O110 1.964111 1_655
Co14 O94 1.965888 1_655
Co14 O122 1.967893 1_555
Co15 O91 1.962578 1_555
Co15 O111 1.964111 1_655
Co15 O95 1.965888 1_655
Co15 O123 1.967893 1_555
Co16 O92 1.962578 1_555
Co16 O112 1.964111 1_455
Co16 O96 1.965888 1_455
Co16 O124 1.967893 1_555
Co17 O93 1.962578 1_555
Co17 O113 1.964111 1_455
Co17 O97 1.965888 1_455
Co17 O125 1.967893 1_555
O0 Si0 1.687729 1_555
O0 Si34 1.688631 1_555
O1 Si1 1.687729 1_555
O1 Si35 1.688631 1_555
O2 Si2 1.687729 1_545
O2 Si32 1.688631 1_555
O3 Si3 1.687729 1_565
O3 Si33 1.688631 1_555
O4 Si12 1.684475 1_555
O4 Si31 1.687735 1_555
O5 Si13 1.684475 1_555
O5 Si30 1.687735 1_555
O6 Si14 1.684475 1_554
O6 Si29 1.687735 1_555
O7 Si15 1.684475 1_556
O7 Si28 1.687735 1_555
O8 Si8 1.684586 1_555
O8 Si16 1.690204 1_555
O9 Si9 1.684586 1_555
O9 Si17 1.690204 1_555
O10 Si10 1.684586 1_555
O10 Si18 1.690204 1_555
O11 Si11 1.684586 1_555
O11 Si19 1.690204 1_555
O12 Si24 1.684512 1_555
O12 Si20 1.692777 1_555
O13 Si25 1.684512 1_555
O13 Si21 1.692777 1_555
O14 Si26 1.684512 1_555
O14 Si22 1.692777 1_555
O15 Si27 1.684512 1_555
O15 Si23 1.692777 1_555
O16 Si7 1.682921 1_555
O16 Si6 1.682921 1_545
O17 Si4 1.682921 1_554
O17 Si5 1.682921 1_555
O18 Si0 1.614482 1_655
O19 Si1 1.614482 1_655
O20 Si2 1.614482 1_455
O21 Si3 1.614482 1_455
O22 Si4 1.615582 1_655
O23 Si5 1.615582 1_655
O24 Si6 1.615582 1_455
O25 Si7 1.615582 1_455
O26 Si8 1.614092 1_455
O27 Si9 1.614092 1_455
O28 Si10 1.614092 1_655
O29 Si11 1.614092 1_655
O30 Si12 1.616571 1_455
O31 Si13 1.616571 1_455
O32 Si14 1.616571 1_655
O33 Si15 1.616571 1_655
O34 Si16 1.615632 1_455
O35 Si17 1.615632 1_455
O36 Si18 1.615632 1_655
O37 Si19 1.615632 1_655
O38 Si20 1.616202 1_655
O39 Si21 1.616202 1_655
O40 Si22 1.616202 1_455
O41 Si23 1.616202 1_455
O42 Si24 1.615010 1_655
O43 Si25 1.615010 1_655
O44 Si26 1.615010 1_455
O45 Si27 1.615010 1_455
O46 Si28 1.616925 1_655
O47 Si29 1.616925 1_655
O48 Si30 1.616925 1_455
O49 Si31 1.616925 1_455
O50 Si32 1.614845 1_455
O51 Si33 1.614845 1_455
O52 Si34 1.614845 1_655
O53 Si35 1.614845 1_655
O54 Si0 1.648591 1_555
O55 Si1 1.648591 1_555
O56 Si2 1.648591 1_555
O57 Si3 1.648591 1_555
O58 Si0 1.642844 1_555
O59 Si1 1.642844 1_555
O60 Si2 1.642844 1_555
O61 Si3 1.642844 1_555
O62 Si4 1.634982 1_555
O63 Si5 1.634982 1_555
O64 Si6 1.634982 1_555
O65 Si7 1.634982 1_555
O66 Si4 1.648603 1_555
O67 Si5 1.648603 1_555
O68 Si6 1.648603 1_555
O69 Si7 1.648603 1_555
O70 Si8 1.649245 1_555
O71 Si9 1.649245 1_555
O72 Si10 1.649245 1_555
O73 Si11 1.649245 1_555
O74 Si8 1.646111 1_555
O75 Si9 1.646111 1_555
O76 Si10 1.646111 1_555
O77 Si11 1.646111 1_555
O78 Si12 1.643750 1_555
O79 Si13 1.643750 1_555
O80 Si14 1.643750 1_555
O81 Si15 1.643750 1_555
O82 Si12 1.646586 1_555
O83 Si13 1.646586 1_555
O84 Si14 1.646586 1_555
O85 Si15 1.646586 1_555
O86 Si16 1.663474 1_555
O87 Si17 1.663474 1_555
O88 Si18 1.663474 1_555
O89 Si19 1.663474 1_555
O90 Si16 1.631103 1_555
O91 Si17 1.631103 1_555
O92 Si18 1.631103 1_555
O93 Si19 1.631103 1_555
O94 Si20 1.630425 1_555
O95 Si21 1.630425 1_555
O96 Si22 1.630425 1_555
O97 Si23 1.630425 1_555
O98 Si20 1.659991 1_555
O99 Si21 1.659991 1_555
O100 Si22 1.659991 1_555
O101 Si23 1.659991 1_555
O102 Si24 1.646156 1_555
O103 Si25 1.646156 1_555
O104 Si26 1.646156 1_555
O105 Si27 1.646156 1_555
O106 Si24 1.649994 1_555
O107 Si25 1.649994 1_555
O108 Si26 1.649994 1_555
O109 Si27 1.649994 1_555
O110 Si28 1.631184 1_555
O111 Si29 1.631184 1_555
O112 Si30 1.631184 1_555
O113 Si31 1.631184 1_555
O114 Si28 1.661292 1_555
O115 Si29 1.661292 1_555
O116 Si30 1.661292 1_555
O117 Si31 1.661292 1_555
O118 Si32 1.657883 1_555
O119 Si33 1.657883 1_555
O120 Si34 1.657883 1_555
O121 Si35 1.657883 1_555
O122 Si32 1.633595 1_555
O123 Si33 1.633595 1_555
O124 Si34 1.633595 1_555
O125 Si35 1.633595 1_555
