# generated using pymatgen
data_Ag3Bi7S12
_symmetry_space_group_name_H-M   'P 1'
_cell_length_a   7.03639371
_cell_length_b   7.03639371
_cell_length_c   20.45132175
_cell_angle_alpha   78.43999161
_cell_angle_beta   78.43999161
_cell_angle_gamma   33.66118691
_symmetry_Int_Tables_number   1
_chemical_formula_structural   Ag3Bi7S12
_chemical_formula_sum   'Ag3 Bi7 S12'
_cell_volume   548.80543422
_cell_formula_units_Z   1
loop_
 _symmetry_equiv_pos_site_id
 _symmetry_equiv_pos_as_xyz
  1  'x, y, z'
loop_
 _atom_site_type_symbol
 _atom_site_label
 _atom_site_symmetry_multiplicity
 _atom_site_fract_x
 _atom_site_fract_y
 _atom_site_fract_z
 _atom_site_occupancy
  Ag  Ag0  1  0.00000000  0.00000000  0.50000000  1
  Ag  Ag1  1  0.29906100  0.29906100  0.91226600  1
  Ag  Ag2  1  0.70093900  0.70093900  0.08773400  1
  Bi  Bi0  1  0.61364300  0.61364300  0.82737800  1
  Bi  Bi1  1  0.38635700  0.38635700  0.17262200  1
  Bi  Bi2  1  0.00000000  0.00000000  0.00000000  1
  Bi  Bi3  1  0.23750900  0.23750900  0.58880500  1
  Bi  Bi4  1  0.76249100  0.76249100  0.41119500  1
  Bi  Bi5  1  0.91817100  0.91817100  0.73196800  1
  Bi  Bi6  1  0.08182900  0.08182900  0.26803200  1
  S  S0  1  0.43710500  0.43710500  0.29698600  1
  S  S1  1  0.56289500  0.56289500  0.70301400  1
  S  S2  1  0.73266700  0.73266700  0.21033500  1
  S  S3  1  0.26733300  0.26733300  0.78966500  1
  S  S4  1  0.12643400  0.12643400  0.38862000  1
  S  S5  1  0.87356600  0.87356600  0.61138000  1
  S  S6  1  0.34839500  0.34839500  0.03445500  1
  S  S7  1  0.65160500  0.65160500  0.96554500  1
  S  S8  1  0.03202200  0.03202200  0.13158600  1
  S  S9  1  0.96797800  0.96797800  0.86841400  1
  S  S10  1  0.36243700  0.36243700  0.47095900  1
  S  S11  1  0.63756300  0.63756300  0.52904100  1
loop_
_geom_bond_atom_site_label_1
_geom_bond_atom_site_label_2
_geom_bond_distance
_geom_bond_site_symmetry_2
Ag0 S4 2.542583 1_555
Ag0 S5 2.542583 1_445
Ag0 S11 2.897898 1_545
Ag0 S11 2.897898 1_455
Ag0 S10 2.897898 1_455
Ag0 S10 2.897898 1_545
Ag1 S3 2.630240 1_555
Ag1 S6 2.716904 1_556
Ag1 S7 2.894290 1_455
Ag1 S7 2.894290 1_545
Ag1 S9 3.045923 1_545
Ag1 S9 3.045923 1_455
Ag2 S2 2.630240 1_555
Ag2 S7 2.716904 1_554
Ag2 S6 2.894290 1_655
Ag2 S6 2.894290 1_565
Ag2 S8 3.045923 1_655
Ag2 S8 3.045923 1_565
Bi0 S1 2.768429 1_555
Bi0 S9 2.831152 1_545
Bi0 S9 2.831152 1_455
Bi0 S3 2.891846 1_655
Bi0 S3 2.891846 1_565
Bi0 S7 2.975074 1_555
Bi1 S0 2.768429 1_555
Bi1 S8 2.831152 1_655
Bi1 S8 2.831152 1_565
Bi1 S2 2.891846 1_545
Bi1 S2 2.891846 1_455
Bi1 S6 2.975074 1_555
Bi2 S8 2.813211 1_555
Bi2 S9 2.813211 1_444
Bi2 S6 2.866179 1_545
Bi2 S7 2.866179 1_454
Bi2 S7 2.866179 1_544
Bi2 S6 2.866179 1_455
Bi3 S10 2.634795 1_555
Bi3 S5 2.841994 1_455
Bi3 S5 2.841994 1_545
Bi3 S11 2.854137 1_545
Bi3 S11 2.854137 1_455
Bi4 S11 2.634795 1_555
Bi4 S4 2.841994 1_655
Bi4 S4 2.841994 1_565
Bi4 S10 2.854137 1_565
Bi4 S10 2.854137 1_655
Bi5 S5 2.657725 1_555
Bi5 S1 2.796123 1_565
Bi5 S1 2.796123 1_655
Bi5 S3 2.944040 1_565
Bi5 S3 2.944040 1_655
Bi5 S9 3.003484 1_555
Bi6 S4 2.657725 1_555
Bi6 S0 2.796123 1_545
Bi6 S0 2.796123 1_455
Bi6 S2 2.944040 1_455
Bi6 S2 2.944040 1_545
Bi6 S8 3.003484 1_555
