# generated using pymatgen
data_CaNi3(P2O7)2
_symmetry_space_group_name_H-M   'P 1'
_cell_length_a   7.66210400
_cell_length_b   7.39724000
_cell_length_c   9.46443158
_cell_angle_alpha   68.00335908
_cell_angle_beta   90.00000000
_cell_angle_gamma   90.00000000
_symmetry_Int_Tables_number   1
_chemical_formula_structural   CaNi3(P2O7)2
_chemical_formula_sum   'Ca2 Ni6 P8 O28'
_cell_volume   497.38013367
_cell_formula_units_Z   2
loop_
 _symmetry_equiv_pos_site_id
 _symmetry_equiv_pos_as_xyz
  1  'x, y, z'
loop_
 _atom_site_type_symbol
 _atom_site_label
 _atom_site_symmetry_multiplicity
 _atom_site_fract_x
 _atom_site_fract_y
 _atom_site_fract_z
 _atom_site_occupancy
  Ca  Ca0  1  0.00000000  0.50000000  0.00000000  1
  Ca  Ca1  1  0.50000000  0.50000000  0.50000000  1
  Ni  Ni0  1  0.12732600  0.81516900  0.52451400  1
  Ni  Ni1  1  0.62732600  0.18483100  0.97548600  1
  Ni  Ni2  1  0.87267400  0.18483100  0.47548600  1
  Ni  Ni3  1  0.37267400  0.81516900  0.02451400  1
  Ni  Ni4  1  0.00000000  0.00000000  0.00000000  1
  Ni  Ni5  1  0.50000000  0.00000000  0.50000000  1
  P  P0  1  0.93472800  0.40204500  0.70324700  1
  P  P1  1  0.43472800  0.59795500  0.79675300  1
  P  P2  1  0.06527200  0.59795500  0.29675300  1
  P  P3  1  0.56527200  0.40204500  0.20324700  1
  P  P4  1  0.20416400  0.11893000  0.69106700  1
  P  P5  1  0.70416400  0.88107000  0.80893300  1
  P  P6  1  0.79583600  0.88107000  0.30893300  1
  P  P7  1  0.29583600  0.11893000  0.19106700  1
  O  O0  1  0.37785700  0.16937000  0.60638100  1
  O  O1  1  0.87785700  0.83063000  0.89361900  1
  O  O2  1  0.62214300  0.83063000  0.39361900  1
  O  O3  1  0.12214300  0.16937000  0.10638100  1
  O  O4  1  0.38112100  0.72712100  0.62973900  1
  O  O5  1  0.88112100  0.27287900  0.87026100  1
  O  O6  1  0.61887900  0.27287900  0.37026100  1
  O  O7  1  0.11887900  0.72712100  0.12973900  1
  O  O8  1  0.80738600  0.37883700  0.58728800  1
  O  O9  1  0.30738600  0.62116300  0.91271200  1
  O  O10  1  0.19261400  0.62116300  0.41271200  1
  O  O11  1  0.69261400  0.37883700  0.08728800  1
  O  O12  1  0.12288600  0.32526300  0.67522900  1
  O  O13  1  0.62288600  0.67473700  0.82477100  1
  O  O14  1  0.87711400  0.67473700  0.32477100  1
  O  O15  1  0.37711400  0.32526300  0.17522900  1
  O  O16  1  0.52394800  0.60742900  0.19545300  1
  O  O17  1  0.02394800  0.39257100  0.30454700  1
  O  O18  1  0.47605200  0.39257100  0.80454700  1
  O  O19  1  0.97605200  0.60742900  0.69545300  1
  O  O20  1  0.78781000  0.99233200  0.13588400  1
  O  O21  1  0.28781000  0.00766800  0.36411600  1
  O  O22  1  0.21219000  0.00766800  0.86411600  1
  O  O23  1  0.71219000  0.99233200  0.63588400  1
  O  O24  1  0.42382200  0.02840800  0.11138800  1
  O  O25  1  0.92382200  0.97159200  0.38861200  1
  O  O26  1  0.57617800  0.97159200  0.88861200  1
  O  O27  1  0.07617800  0.02840800  0.61138800  1
loop_
_geom_bond_atom_site_label_1
_geom_bond_atom_site_label_2
_geom_bond_distance
_geom_bond_site_symmetry_2
Ca0 O3 2.454918 1_555
Ca0 O1 2.454918 1_454
Ca0 O11 2.545232 1_455
Ca0 O9 2.545232 1_554
Ca0 O7 2.589485 1_555
Ca0 O5 2.589485 1_454
Ca0 O17 2.693946 1_555
Ca0 O19 2.693946 1_454
Ca1 O0 2.454918 1_555
Ca1 O2 2.454918 1_555
Ca1 O8 2.545232 1_555
Ca1 O10 2.545232 1_555
Ca1 O4 2.589485 1_555
Ca1 O6 2.589485 1_555
Ca1 O18 2.693946 1_555
Ca1 O16 2.693946 1_555
Ni0 O21 2.055462 1_565
Ni0 O27 2.071061 1_565
Ni0 O25 2.075983 1_455
Ni0 O19 2.111858 1_455
Ni0 O10 2.137054 1_555
Ni0 O4 2.170622 1_555
Ni1 O20 2.055462 1_546
Ni1 O26 2.071061 1_545
Ni1 O24 2.075983 1_556
Ni1 O18 2.111858 1_555
Ni1 O11 2.137054 1_556
Ni1 O5 2.170622 1_555
Ni2 O23 2.055462 1_545
Ni2 O25 2.071061 1_545
Ni2 O27 2.075983 1_655
Ni2 O17 2.111858 1_655
Ni2 O8 2.137054 1_555
Ni2 O6 2.170622 1_555
Ni3 O22 2.055462 1_564
Ni3 O24 2.071061 1_565
Ni3 O26 2.075983 1_554
Ni3 O16 2.111858 1_555
Ni3 O9 2.137054 1_554
Ni3 O7 2.170622 1_555
Ni4 O20 2.060541 1_445
Ni4 O22 2.060541 1_554
Ni4 O3 2.098620 1_555
Ni4 O1 2.098620 1_444
Ni4 O7 2.134303 1_545
Ni4 O5 2.134303 1_454
Ni5 O23 2.060541 1_545
Ni5 O21 2.060541 1_555
Ni5 O0 2.098620 1_555
Ni5 O2 2.098620 1_545
Ni5 O4 2.134303 1_545
Ni5 O6 2.134303 1_555
O0 P4 1.526032 1_555
O1 P5 1.526032 1_555
O2 P6 1.526032 1_555
O3 P7 1.526032 1_555
O4 P1 1.564879 1_555
O5 P0 1.564879 1_555
O6 P3 1.564879 1_555
O7 P2 1.564879 1_555
O8 P0 1.525481 1_555
O9 P1 1.525481 1_555
O10 P2 1.525481 1_555
O11 P3 1.525481 1_555
O12 P4 1.602651 1_555
O12 P0 1.607544 1_455
O13 P5 1.602651 1_555
O13 P1 1.607544 1_555
O14 P6 1.602651 1_555
O14 P2 1.607544 1_655
O15 P7 1.602651 1_555
O15 P3 1.607544 1_555
O16 P3 1.526414 1_555
O17 P2 1.526414 1_555
O18 P1 1.526414 1_555
O19 P0 1.526414 1_555
O20 P6 1.534215 1_555
O21 P7 1.534215 1_555
O22 P4 1.534215 1_555
O23 P5 1.534215 1_555
O24 P7 1.535254 1_555
O25 P6 1.535254 1_555
O26 P5 1.535254 1_555
O27 P4 1.535254 1_555
