# generated using pymatgen
data_ZnCuCO5
_symmetry_space_group_name_H-M   'P 1'
_cell_length_a   8.82763300
_cell_length_b   3.24086000
_cell_length_c   12.58988485
_cell_angle_alpha   81.52751341
_cell_angle_beta   90.00000000
_cell_angle_gamma   90.00000000
_symmetry_Int_Tables_number   1
_chemical_formula_structural   ZnCuCO5
_chemical_formula_sum   'Zn4 Cu4 C4 O20'
_cell_volume   356.25475692
_cell_formula_units_Z   4
loop_
 _symmetry_equiv_pos_site_id
 _symmetry_equiv_pos_as_xyz
  1  'x, y, z'
loop_
 _atom_site_type_symbol
 _atom_site_label
 _atom_site_symmetry_multiplicity
 _atom_site_fract_x
 _atom_site_fract_y
 _atom_site_fract_z
 _atom_site_occupancy
  Zn  Zn0  1  0.72964500  0.39971400  0.89522300  1
  Zn  Zn1  1  0.22964500  0.60028600  0.60477700  1
  Zn  Zn2  1  0.27035500  0.60028600  0.10477700  1
  Zn  Zn3  1  0.77035500  0.39971400  0.39522300  1
  Cu  Cu0  1  0.50079900  0.02054100  0.71605500  1
  Cu  Cu1  1  0.00079900  0.97945900  0.78394500  1
  Cu  Cu2  1  0.49920100  0.97945900  0.28394500  1
  Cu  Cu3  1  0.99920100  0.02054100  0.21605500  1
  C  C0  1  0.77964900  0.37981400  0.63581500  1
  C  C1  1  0.27964900  0.62018600  0.86418500  1
  C  C2  1  0.22035100  0.62018600  0.36418500  1
  C  C3  1  0.72035100  0.37981400  0.13581500  1
  O  O0  1  0.63239400  0.43642900  0.63814700  1
  O  O1  1  0.13239400  0.56357100  0.86185300  1
  O  O2  1  0.36760600  0.56357100  0.36185300  1
  O  O3  1  0.86760600  0.43642900  0.13814700  1
  O  O4  1  0.85172900  0.38675500  0.72809600  1
  O  O5  1  0.35172900  0.61324500  0.77190400  1
  O  O6  1  0.14827100  0.61324500  0.27190400  1
  O  O7  1  0.64827100  0.38675500  0.22809600  1
  O  O8  1  0.84948000  0.34083100  0.55117600  1
  O  O9  1  0.34948000  0.65916900  0.94882400  1
  O  O10  1  0.15052000  0.65916900  0.44882400  1
  O  O11  1  0.65052000  0.34083100  0.05117600  1
  O  O12  1  0.60926700  0.93490500  0.84037400  1
  O  O13  1  0.10926700  0.06509500  0.65962600  1
  O  O14  1  0.39073300  0.06509500  0.15962600  1
  O  O15  1  0.89073300  0.93490500  0.34037400  1
  O  O16  1  0.87312100  0.89290600  0.90202200  1
  O  O17  1  0.37312100  0.10709400  0.59797800  1
  O  O18  1  0.12687900  0.10709400  0.09797800  1
  O  O19  1  0.62687900  0.89290600  0.40202200  1
loop_
_geom_bond_atom_site_label_1
_geom_bond_atom_site_label_2
_geom_bond_distance
_geom_bond_site_symmetry_2
Cu0 O12 1.820877 1_545
Cu0 O17 1.853661 1_555
Cu0 O5 1.922228 1_545
Cu0 O0 1.933560 1_555
Cu0 O5 2.512730 1_555
Cu0 O0 2.538156 1_545
Cu1 O13 1.820877 1_565
Cu1 O16 1.853661 1_455
Cu1 O4 1.922228 1_465
Cu1 O1 1.933560 1_555
Cu1 O4 2.512730 1_455
Cu1 O1 2.538156 1_565
Cu2 O14 1.820877 1_565
Cu2 O19 1.853661 1_555
Cu2 O7 1.922228 1_565
Cu2 O2 1.933560 1_555
Cu2 O7 2.512730 1_555
Cu2 O2 2.538156 1_565
Cu3 O15 1.820877 1_545
Cu3 O18 1.853661 1_655
Cu3 O6 1.922228 1_645
Cu3 O3 1.933560 1_555
Cu3 O6 2.512730 1_655
Cu3 O3 2.538156 1_545
C0 O8 1.253446 1_555
C0 O0 1.313731 1_555
C0 O4 1.327733 1_555
C1 O9 1.253446 1_555
C1 O1 1.313731 1_555
C1 O5 1.327733 1_555
C2 O10 1.253446 1_555
C2 O2 1.313731 1_555
C2 O6 1.327733 1_555
C3 O11 1.253446 1_555
C3 O3 1.313731 1_555
C3 O7 1.327733 1_555
O4 Zn0 2.369925 1_555
O5 Zn1 2.369925 1_555
O6 Zn2 2.369925 1_555
O7 Zn3 2.369925 1_555
O8 Zn3 2.066144 1_555
O9 Zn2 2.066144 1_556
O10 Zn1 2.066144 1_555
O11 Zn0 2.066144 1_554
O12 Zn0 2.044941 1_565
O12 Zn0 2.064355 1_555
O13 Zn1 2.044941 1_545
O13 Zn1 2.064355 1_555
O14 Zn2 2.044941 1_545
O14 Zn2 2.064355 1_555
O15 Zn3 2.044941 1_565
O15 Zn3 2.064355 1_555
O16 Zn0 2.050994 1_555
O16 Zn0 2.065876 1_565
O17 Zn1 2.050994 1_555
O17 Zn1 2.065876 1_545
O18 Zn2 2.050994 1_555
O18 Zn2 2.065876 1_545
O19 Zn3 2.050994 1_555
O19 Zn3 2.065876 1_565
