# generated using pymatgen
data_Ca3Fe2(WO6)2
_symmetry_space_group_name_H-M   'P 1'
_cell_length_a   5.55133200
_cell_length_b   5.55207804
_cell_length_c   9.62228357
_cell_angle_alpha   73.22566546
_cell_angle_beta   89.99611132
_cell_angle_gamma   119.99602910
_symmetry_Int_Tables_number   1
_chemical_formula_structural   Ca3Fe2(WO6)2
_chemical_formula_sum   'Ca3 Fe2 W2 O12'
_cell_volume   242.16536366
_cell_formula_units_Z   1
loop_
 _symmetry_equiv_pos_site_id
 _symmetry_equiv_pos_as_xyz
  1  'x, y, z'
loop_
 _atom_site_type_symbol
 _atom_site_label
 _atom_site_symmetry_multiplicity
 _atom_site_fract_x
 _atom_site_fract_y
 _atom_site_fract_z
 _atom_site_occupancy
  Ca  Ca0  1  0.61976800  0.23949300  0.14063300  1
  Ca  Ca1  1  0.86874200  0.73746100  0.39378800  1
  Ca  Ca2  1  0.37573100  0.75155600  0.87257000  1
  Fe  Fe0  1  0.24745200  0.49497900  0.25750900  1
  Fe  Fe1  1  0.75118300  0.50246900  0.74635900  1
  W  W0  1  0.00133200  0.00270400  0.99577700  1
  W  W1  1  0.49839800  0.99684300  0.50494500  1
  O  O0  1  0.38745300  0.24753700  0.36523800  1
  O  O1  1  0.86007700  0.24748600  0.36523500  1
  O  O2  1  0.38746800  0.77492200  0.36519800  1
  O  O3  1  0.87036600  0.24698900  0.88246600  1
  O  O4  1  0.37663800  0.24697700  0.88246400  1
  O  O5  1  0.87035200  0.74058000  0.88256700  1
  O  O6  1  0.62939700  0.75418200  0.12100000  1
  O  O7  1  0.12470100  0.24940800  0.12102400  1
  O  O8  1  0.12479000  0.75417400  0.12101600  1
  O  O9  1  0.12948000  0.75527200  0.61909600  1
  O  O10  1  0.62585800  0.25169100  0.61901900  1
  O  O11  1  0.62581400  0.75528600  0.61909600  1
loop_
_geom_bond_atom_site_label_1
_geom_bond_atom_site_label_2
_geom_bond_distance
_geom_bond_site_symmetry_2
Ca0 O2 2.538083 1_545
Ca0 O1 2.539467 1_555
Ca0 O0 2.539484 1_555
Ca0 O7 2.781254 1_655
Ca0 O6 2.781478 1_545
Ca0 O8 2.781546 1_545
Ca0 O7 2.781551 1_555
Ca0 O8 2.781971 1_655
Ca0 O6 2.782095 1_555
Ca0 O5 2.825523 1_554
Ca0 O3 2.826665 1_554
Ca0 O4 2.826921 1_554
Ca1 O10 2.603577 1_555
Ca1 O11 2.604892 1_555
Ca1 O9 2.605005 1_655
Ca1 O0 2.788841 1_555
Ca1 O1 2.789056 1_555
Ca1 O2 2.789116 1_655
Ca1 O2 2.789206 1_555
Ca1 O1 2.789883 1_565
Ca1 O0 2.790042 1_665
Ca1 O7 2.939701 1_665
Ca1 O8 2.940245 1_655
Ca1 O6 2.940574 1_555
Ca2 O8 2.774117 1_556
Ca2 O6 2.774447 1_556
Ca2 O7 2.774495 1_556
Ca2 O5 2.776613 1_455
Ca2 O4 2.777099 1_565
Ca2 O3 2.777458 1_565
Ca2 O3 2.777623 1_455
Ca2 O5 2.777836 1_555
Ca2 O4 2.778028 1_555
Ca2 O9 2.795978 1_555
Ca2 O11 2.796094 1_555
Ca2 O10 2.797300 1_565
Fe0 O1 1.951930 1_455
Fe0 O0 1.952343 1_555
Fe0 O2 1.953310 1_555
Fe0 O8 2.036795 1_555
Fe0 O6 2.037062 1_555
Fe0 O7 2.037824 1_555
Fe1 O11 1.984675 1_555
Fe1 O9 1.984977 1_655
Fe1 O10 1.985015 1_555
Fe1 O4 2.007184 1_555
Fe1 O5 2.007205 1_555
Fe1 O3 2.007775 1_555
O0 W1 1.975101 1_545
O1 W1 1.975128 1_545
O2 W1 1.975677 1_555
O3 W0 1.920776 1_655
O4 W0 1.920884 1_555
O5 W0 1.921058 1_665
O6 W0 1.951993 1_664
O7 W0 1.952576 1_554
O8 W0 1.952393 1_564
O9 W1 1.898020 1_555
O10 W1 1.898173 1_545
O11 W1 1.898363 1_555
