# generated using pymatgen
data_VH6C2S2O7
_symmetry_space_group_name_H-M   'P 1'
_cell_length_a   8.93446000
_cell_length_b   9.40250900
_cell_length_c   11.61100821
_cell_angle_alpha   66.27408623
_cell_angle_beta   90.00000000
_cell_angle_gamma   90.00000000
_symmetry_Int_Tables_number   1
_chemical_formula_structural   VH6C2S2O7
_chemical_formula_sum   'V4 H24 C8 S8 O28'
_cell_volume   892.95833396
_cell_formula_units_Z   4
loop_
 _symmetry_equiv_pos_site_id
 _symmetry_equiv_pos_as_xyz
  1  'x, y, z'
loop_
 _atom_site_type_symbol
 _atom_site_label
 _atom_site_symmetry_multiplicity
 _atom_site_fract_x
 _atom_site_fract_y
 _atom_site_fract_z
 _atom_site_occupancy
  V  V0  1  0.64832900  0.32987200  0.67860000  1
  V  V1  1  0.14832900  0.17012800  0.32140000  1
  V  V2  1  0.35167100  0.67012800  0.32140000  1
  V  V3  1  0.85167100  0.82987200  0.67860000  1
  H  H0  1  0.09825000  0.27568600  0.61117200  1
  H  H1  1  0.59825000  0.22431400  0.38882800  1
  H  H2  1  0.90175000  0.72431400  0.38882800  1
  H  H3  1  0.40175000  0.77568600  0.61117200  1
  H  H4  1  0.21270400  0.10434500  0.68926700  1
  H  H5  1  0.71270400  0.39565500  0.31073300  1
  H  H6  1  0.78729600  0.89565500  0.31073300  1
  H  H7  1  0.28729600  0.60434500  0.68926700  1
  H  H8  1  0.23556300  0.27205200  0.72643100  1
  H  H9  1  0.73556300  0.22794800  0.27356900  1
  H  H10  1  0.76443700  0.72794800  0.27356900  1
  H  H11  1  0.26443700  0.77205200  0.72643100  1
  H  H12  1  0.84209500  0.37318900  0.05256300  1
  H  H13  1  0.34209500  0.12681100  0.94743700  1
  H  H14  1  0.15790500  0.62681100  0.94743700  1
  H  H15  1  0.65790500  0.87318900  0.05256300  1
  H  H16  1  0.68504400  0.33298900  0.97074700  1
  H  H17  1  0.18504400  0.16701100  0.02925300  1
  H  H18  1  0.31495600  0.66701100  0.02925300  1
  H  H19  1  0.81495600  0.83298900  0.97074700  1
  H  H20  1  0.84969900  0.21274400  0.00569200  1
  H  H21  1  0.34969900  0.28725600  0.99430800  1
  H  H22  1  0.15030100  0.78725600  0.99430800  1
  H  H23  1  0.65030100  0.71274400  0.00569200  1
  C  C0  1  0.20746300  0.23122100  0.65302100  1
  C  C1  1  0.70746300  0.26877900  0.34697900  1
  C  C2  1  0.79253700  0.76877900  0.34697900  1
  C  C3  1  0.29253700  0.73122100  0.65302100  1
  C  C4  1  0.80676200  0.33025900  0.98185800  1
  C  C5  1  0.30676200  0.16974100  0.01814200  1
  C  C6  1  0.19323800  0.66974100  0.01814200  1
  C  C7  1  0.69323800  0.83025900  0.98185800  1
  S  S0  1  0.34099300  0.30690300  0.53219100  1
  S  S1  1  0.84099300  0.19309700  0.46780900  1
  S  S2  1  0.65900700  0.69309700  0.46780900  1
  S  S3  1  0.15900700  0.80690300  0.53219100  1
  S  S4  1  0.88940800  0.45097900  0.83675800  1
  S  S5  1  0.38940800  0.04902100  0.16324200  1
  S  S6  1  0.11059200  0.54902100  0.16324200  1
  S  S7  1  0.61059200  0.95097900  0.83675800  1
  O  O0  1  0.53067500  0.39412300  0.75274100  1
  O  O1  1  0.03067500  0.10587700  0.24725900  1
  O  O2  1  0.46932500  0.60587700  0.24725900  1
  O  O3  1  0.96932500  0.89412300  0.75274100  1
  O  O4  1  0.31112100  0.25149000  0.43375900  1
  O  O5  1  0.81112100  0.24851000  0.56624100  1
  O  O6  1  0.68887900  0.74851000  0.56624100  1
  O  O7  1  0.18887900  0.75149000  0.43375900  1
  O  O8  1  0.32696100  0.47798200  0.48865700  1
  O  O9  1  0.82696100  0.02201800  0.51134300  1
  O  O10  1  0.67303900  0.52201800  0.51134300  1
  O  O11  1  0.17303900  0.97798200  0.48865700  1
  O  O12  1  0.49079100  0.25039100  0.58796400  1
  O  O13  1  0.99079100  0.24960900  0.41203600  1
  O  O14  1  0.50920900  0.74960900  0.41203600  1
  O  O15  1  0.00920900  0.75039100  0.58796400  1
  O  O16  1  0.05024300  0.44650700  0.85073200  1
  O  O17  1  0.55024300  0.05349300  0.14926800  1
  O  O18  1  0.94975700  0.55349300  0.14926800  1
  O  O19  1  0.44975700  0.94650700  0.85073200  1
  O  O20  1  0.81984600  0.60706700  0.80814200  1
  O  O21  1  0.31984600  0.89293300  0.19185800  1
  O  O22  1  0.18015400  0.39293300  0.19185800  1
  O  O23  1  0.68015400  0.10706700  0.80814200  1
  O  O24  1  0.84263500  0.38987000  0.74137300  1
  O  O25  1  0.34263500  0.11013000  0.25862700  1
  O  O26  1  0.15736500  0.61013000  0.25862700  1
  O  O27  1  0.65736500  0.88987000  0.74137300  1
loop_
_geom_bond_atom_site_label_1
_geom_bond_atom_site_label_2
_geom_bond_distance
_geom_bond_site_symmetry_2
C0 H4 1.094728 1_555
C0 H0 1.095229 1_555
C0 H8 1.095572 1_555
C1 H5 1.094728 1_555
C1 H1 1.095229 1_555
C1 H9 1.095572 1_555
C2 H6 1.094728 1_555
C2 H2 1.095229 1_555
C2 H10 1.095572 1_555
C3 H7 1.094728 1_555
C3 H3 1.095229 1_555
C3 H11 1.095572 1_555
C4 H16 1.094194 1_555
C4 H20 1.094790 1_556
C4 H12 1.096916 1_556
C5 H17 1.094194 1_555
C5 H21 1.094790 1_554
C5 H13 1.096916 1_554
C6 H18 1.094194 1_555
C6 H22 1.094790 1_554
C6 H14 1.096916 1_554
C7 H19 1.094194 1_555
C7 H23 1.094790 1_556
C7 H15 1.096916 1_556
O0 V0 1.621573 1_555
O1 V1 1.621573 1_555
O2 V2 1.621573 1_555
O3 V3 1.621573 1_555
O4 S0 1.458798 1_555
O4 V1 2.281624 1_555
O5 S1 1.458798 1_555
O5 V0 2.281624 1_555
O6 S2 1.458798 1_555
O6 V3 2.281624 1_555
O7 S3 1.458798 1_555
O7 V2 2.281624 1_555
O8 S0 1.484726 1_555
O8 V2 2.064162 1_555
O9 S1 1.484726 1_555
O9 V3 2.064162 1_545
O10 S2 1.484726 1_555
O10 V0 2.064162 1_555
O11 S3 1.484726 1_555
O11 V1 2.064162 1_565
O12 S0 1.488629 1_555
O12 V0 2.068809 1_555
O13 S1 1.488629 1_555
O13 V1 2.068809 1_655
O14 S2 1.488629 1_555
O14 V2 2.068809 1_555
O15 S3 1.488629 1_555
O15 V3 2.068809 1_455
O16 S4 1.444817 1_455
O17 S5 1.444817 1_555
O18 S6 1.444817 1_655
O19 S7 1.444817 1_555
O20 S4 1.502716 1_555
O20 V3 2.048470 1_555
O21 S5 1.502716 1_565
O21 V2 2.048470 1_555
O22 S6 1.502716 1_555
O22 V1 2.048470 1_555
O23 S7 1.502716 1_545
O23 V0 2.048470 1_555
O24 S4 1.497816 1_555
O24 V0 2.047955 1_555
O25 S5 1.497816 1_555
O25 V1 2.047955 1_555
O26 S6 1.497816 1_555
O26 V2 2.047955 1_555
O27 S7 1.497816 1_555
O27 V3 2.047955 1_555
