# generated using pymatgen
data_Co(BO2)2
_symmetry_space_group_name_H-M   'P 1'
_cell_length_a   4.45633828
_cell_length_b   5.50810424
_cell_length_c   9.73570207
_cell_angle_alpha   92.02048325
_cell_angle_beta   81.35062298
_cell_angle_gamma   74.58738037
_symmetry_Int_Tables_number   1
_chemical_formula_structural   Co(BO2)2
_chemical_formula_sum   'Co4 B8 O16'
_cell_volume   227.04751477
_cell_formula_units_Z   4
loop_
 _symmetry_equiv_pos_site_id
 _symmetry_equiv_pos_as_xyz
  1  'x, y, z'
loop_
 _atom_site_type_symbol
 _atom_site_label
 _atom_site_symmetry_multiplicity
 _atom_site_fract_x
 _atom_site_fract_y
 _atom_site_fract_z
 _atom_site_occupancy
  Co  Co0  1  0.75002100  0.32954700  0.67049800  1
  Co  Co1  1  0.24997900  0.67045700  0.32949700  1
  Co  Co2  1  0.75003100  0.82940700  0.17055600  1
  Co  Co3  1  0.24996900  0.17059400  0.82944300  1
  B  B0  1  0.12426600  0.22637400  0.14713800  1
  B  B1  1  0.12422400  0.72632800  0.64717300  1
  B  B2  1  0.37580100  0.16605800  0.46041200  1
  B  B3  1  0.37574800  0.66615100  0.96039600  1
  B  B4  1  0.87577400  0.27367000  0.35282600  1
  B  B5  1  0.87573400  0.77362400  0.85286200  1
  B  B6  1  0.62425200  0.33385000  0.03960500  1
  B  B7  1  0.62420100  0.83394400  0.53958900  1
  O  O0  1  0.47917200  0.60896000  0.10083200  1
  O  O1  1  0.47912900  0.10891900  0.60081200  1
  O  O2  1  0.02083600  0.04425400  0.24596900  1
  O  O3  1  0.02089700  0.54428900  0.74593400  1
  O  O4  1  0.52087000  0.89108100  0.39918800  1
  O  O5  1  0.52082700  0.39103900  0.89916700  1
  O  O6  1  0.97910400  0.45571100  0.25406700  1
  O  O7  1  0.97916500  0.95574600  0.75403100  1
  O  O8  1  0.46562100  0.16576400  0.11290800  1
  O  O9  1  0.46568700  0.66564100  0.61292300  1
  O  O10  1  0.03429700  0.24778400  0.47364400  1
  O  O11  1  0.03434400  0.74777600  0.97357700  1
  O  O12  1  0.53431400  0.33435500  0.38707800  1
  O  O13  1  0.53437900  0.83423500  0.88709200  1
  O  O14  1  0.96565500  0.25222400  0.02642300  1
  O  O15  1  0.96570300  0.75221600  0.52635800  1
loop_
_geom_bond_atom_site_label_1
_geom_bond_atom_site_label_2
_geom_bond_distance
_geom_bond_site_symmetry_2
Co0 O3 2.088035 1_655
Co0 O1 2.088629 1_555
Co0 O10 2.094357 1_655
Co0 O9 2.094464 1_555
Co0 O5 2.278849 1_555
Co0 O7 2.278955 1_545
Co1 O6 2.088023 1_455
Co1 O4 2.088629 1_555
Co1 O15 2.094412 1_455
Co1 O12 2.094521 1_555
Co1 O0 2.278813 1_555
Co1 O2 2.278914 1_565
Co2 O0 2.087938 1_555
Co2 O2 2.088104 1_665
Co2 O11 2.095403 1_654
Co2 O8 2.095941 1_565
Co2 O6 2.278313 1_555
Co2 O4 2.278480 1_555
Co3 O5 2.087926 1_555
Co3 O7 2.088100 1_445
Co3 O14 2.095412 1_456
Co3 O13 2.095953 1_545
Co3 O3 2.278299 1_555
Co3 O1 2.278470 1_555
B0 O8 1.451303 1_555
B0 O14 1.452319 1_455
B0 O2 1.524785 1_555
B0 O6 1.538923 1_455
B1 O9 1.451750 1_555
B1 O15 1.452948 1_455
B1 O3 1.523855 1_555
B1 O7 1.538779 1_455
B2 O10 1.451926 1_555
B2 O12 1.452957 1_555
B2 O1 1.523840 1_555
B2 O4 1.538578 1_545
B3 O11 1.451525 1_555
B3 O13 1.452214 1_555
B3 O0 1.524382 1_556
B3 O5 1.539235 1_555
B4 O12 1.451739 1_555
B4 O10 1.452979 1_655
B4 O6 1.523857 1_555
B4 O2 1.538767 1_655
B5 O13 1.451303 1_555
B5 O11 1.452317 1_655
B5 O7 1.524795 1_555
B5 O3 1.538910 1_655
B6 O14 1.451520 1_555
B6 O8 1.452218 1_555
B6 O5 1.524400 1_554
B6 O0 1.539220 1_555
B7 O15 1.451918 1_555
B7 O9 1.452985 1_555
B7 O4 1.523853 1_555
B7 O1 1.538567 1_565
