# generated using pymatgen
data_K3Gd(BO3)2
_symmetry_space_group_name_H-M   'P 1'
_cell_length_a   7.13030500
_cell_length_b   9.06389700
_cell_length_c   11.23600700
_cell_angle_alpha   90.00000000
_cell_angle_beta   90.00000000
_cell_angle_gamma   90.00000000
_symmetry_Int_Tables_number   1
_chemical_formula_structural   K3Gd(BO3)2
_chemical_formula_sum   'K12 Gd4 B8 O24'
_cell_volume   726.16459411
_cell_formula_units_Z   4
loop_
 _symmetry_equiv_pos_site_id
 _symmetry_equiv_pos_as_xyz
  1  'x, y, z'
loop_
 _atom_site_type_symbol
 _atom_site_label
 _atom_site_symmetry_multiplicity
 _atom_site_fract_x
 _atom_site_fract_y
 _atom_site_fract_z
 _atom_site_occupancy
  K  K0  1  0.25000000  0.93895000  0.13047000  1
  K  K1  1  0.75000000  0.06105000  0.86953000  1
  K  K2  1  0.75000000  0.56105000  0.63047000  1
  K  K3  1  0.25000000  0.43895000  0.36953000  1
  K  K4  1  0.50431600  0.69945800  0.90220800  1
  K  K5  1  0.49568400  0.30054200  0.09779200  1
  K  K6  1  0.49568400  0.80054200  0.40220800  1
  K  K7  1  0.00431600  0.30054200  0.09779200  1
  K  K8  1  0.50431600  0.19945800  0.59779200  1
  K  K9  1  0.99568400  0.69945800  0.90220800  1
  K  K10  1  0.99568400  0.19945800  0.59779200  1
  K  K11  1  0.00431600  0.80054200  0.40220800  1
  Gd  Gd0  1  0.25000000  0.87409300  0.66866500  1
  Gd  Gd1  1  0.75000000  0.12590700  0.33133500  1
  Gd  Gd2  1  0.75000000  0.62590700  0.16866500  1
  Gd  Gd3  1  0.25000000  0.37409300  0.83133500  1
  B  B0  1  0.25000000  0.56240600  0.62658800  1
  B  B1  1  0.75000000  0.43759400  0.37341200  1
  B  B2  1  0.75000000  0.93759400  0.12658800  1
  B  B3  1  0.25000000  0.06240600  0.87341200  1
  B  B4  1  0.25000000  0.58896100  0.11614500  1
  B  B5  1  0.75000000  0.41103900  0.88385500  1
  B  B6  1  0.75000000  0.91103900  0.61614500  1
  B  B7  1  0.25000000  0.08896100  0.38385500  1
  O  O0  1  0.08003400  0.62854100  0.16974900  1
  O  O1  1  0.91996600  0.37145900  0.83025100  1
  O  O2  1  0.91996600  0.87145900  0.66974900  1
  O  O3  1  0.58003400  0.37145900  0.83025100  1
  O  O4  1  0.08003400  0.12854100  0.33025100  1
  O  O5  1  0.41996600  0.62854100  0.16974900  1
  O  O6  1  0.41996600  0.12854100  0.33025100  1
  O  O7  1  0.58003400  0.87145900  0.66974900  1
  O  O8  1  0.25000000  0.50808700  0.01005600  1
  O  O9  1  0.75000000  0.49191300  0.98994400  1
  O  O10  1  0.75000000  0.99191300  0.51005600  1
  O  O11  1  0.25000000  0.00808700  0.48994400  1
  O  O12  1  0.25000000  0.62144200  0.74269300  1
  O  O13  1  0.75000000  0.37855800  0.25730700  1
  O  O14  1  0.75000000  0.87855800  0.24269300  1
  O  O15  1  0.25000000  0.12144200  0.75730700  1
  O  O16  1  0.25000000  0.66143400  0.53334600  1
  O  O17  1  0.75000000  0.33856600  0.46665400  1
  O  O18  1  0.75000000  0.83856600  0.03334600  1
  O  O19  1  0.25000000  0.16143400  0.96665400  1
  O  O20  1  0.25000000  0.91118300  0.88409700  1
  O  O21  1  0.75000000  0.08881700  0.11590300  1
  O  O22  1  0.75000000  0.58881700  0.38409700  1
  O  O23  1  0.25000000  0.41118300  0.61590300  1
loop_
_geom_bond_atom_site_label_1
_geom_bond_atom_site_label_2
_geom_bond_distance
_geom_bond_site_symmetry_2
K0 O19 2.730295 1_564
K0 O20 2.779666 1_554
K0 O6 3.075809 1_565
K0 O4 3.075809 1_565
K0 O0 3.095056 1_555
K0 O5 3.095056 1_555
K1 O18 2.730295 1_546
K1 O21 2.779666 1_556
K1 O2 3.075809 1_545
K1 O7 3.075809 1_545
K1 O1 3.095056 1_555
K1 O3 3.095056 1_555
K2 O17 2.730295 1_555
K2 O22 2.779666 1_555
K2 O1 3.075809 1_555
K2 O3 3.075809 1_555
K2 O2 3.095056 1_555
K2 O7 3.095056 1_555
K3 O16 2.730295 1_555
K3 O23 2.779666 1_555
K3 O5 3.075809 1_555
K3 O0 3.075809 1_555
K3 O6 3.095056 1_555
K3 O4 3.095056 1_555
K4 O18 2.613367 1_556
K4 O12 2.645875 1_555
K4 O20 2.648097 1_555
K4 O9 2.753072 1_555
K4 O8 2.786642 1_556
K4 O7 3.089343 1_555
K4 O3 3.127874 1_555
K4 O5 3.132331 1_556
K5 O19 2.613367 1_554
K5 O13 2.645875 1_555
K5 O21 2.648097 1_555
K5 O8 2.753072 1_555
K5 O9 2.786642 1_554
K5 O6 3.089343 1_555
K5 O5 3.127874 1_555
K5 O3 3.132331 1_554
K6 O16 2.613367 1_555
K6 O14 2.645875 1_555
K6 O22 2.648097 1_555
K6 O11 2.753072 1_565
K6 O10 2.786642 1_555
K6 O5 3.089343 1_555
K6 O6 3.127874 1_565
K6 O7 3.132331 1_555
K7 O19 2.613367 1_554
K7 O13 2.645875 1_455
K7 O21 2.648097 1_455
K7 O8 2.753072 1_555
K7 O9 2.786642 1_454
K7 O4 3.089343 1_555
K7 O0 3.127874 1_555
K7 O1 3.132331 1_454
K8 O17 2.613367 1_555
K8 O15 2.645875 1_555
K8 O23 2.648097 1_555
K8 O10 2.753072 1_545
K8 O11 2.786642 1_555
K8 O3 3.089343 1_555
K8 O7 3.127874 1_545
K8 O6 3.132331 1_555
K9 O18 2.613367 1_556
K9 O12 2.645875 1_655
K9 O20 2.648097 1_655
K9 O9 2.753072 1_555
K9 O8 2.786642 1_656
K9 O2 3.089343 1_555
K9 O1 3.127874 1_555
K9 O0 3.132331 1_656
K10 O17 2.613367 1_555
K10 O15 2.645875 1_655
K10 O23 2.648097 1_655
K10 O10 2.753072 1_545
K10 O11 2.786642 1_655
K10 O1 3.089343 1_555
K10 O2 3.127874 1_545
K10 O4 3.132331 1_655
K11 O16 2.613367 1_555
K11 O14 2.645875 1_455
K11 O22 2.648097 1_455
K11 O11 2.753072 1_565
K11 O10 2.786642 1_455
K11 O0 3.089343 1_555
K11 O4 3.127874 1_565
K11 O2 3.132331 1_455
Gd0 O11 2.346814 1_565
Gd0 O7 2.353396 1_555
Gd0 O2 2.353396 1_455
Gd0 O12 2.436384 1_555
Gd0 O20 2.443829 1_555
Gd0 O15 2.453223 1_565
Gd0 O16 2.455012 1_555
Gd1 O10 2.346814 1_545
Gd1 O4 2.353396 1_655
Gd1 O6 2.353396 1_555
Gd1 O13 2.436384 1_555
Gd1 O21 2.443829 1_555
Gd1 O14 2.453223 1_545
Gd1 O17 2.455012 1_555
Gd2 O9 2.346814 1_554
Gd2 O0 2.353396 1_655
Gd2 O5 2.353396 1_555
Gd2 O14 2.436384 1_555
Gd2 O22 2.443829 1_555
Gd2 O13 2.453223 1_555
Gd2 O18 2.455012 1_555
Gd3 O8 2.346814 1_556
Gd3 O3 2.353396 1_555
Gd3 O1 2.353396 1_455
Gd3 O15 2.436384 1_555
Gd3 O23 2.443829 1_555
Gd3 O12 2.453223 1_555
Gd3 O19 2.455012 1_555
B0 O23 1.375918 1_555
B0 O16 1.379586 1_555
B0 O12 1.410034 1_555
B1 O22 1.375918 1_555
B1 O17 1.379586 1_555
B1 O13 1.410034 1_555
B2 O21 1.375918 1_565
B2 O18 1.379586 1_555
B2 O14 1.410034 1_555
B3 O20 1.375918 1_545
B3 O19 1.379586 1_555
B3 O15 1.410034 1_555
B4 O8 1.399372 1_555
B4 O0 1.400066 1_555
B4 O5 1.400066 1_555
B5 O9 1.399372 1_555
B5 O1 1.400066 1_555
B5 O3 1.400066 1_555
B6 O10 1.399372 1_555
B6 O2 1.400066 1_555
B6 O7 1.400066 1_555
B7 O11 1.399372 1_555
B7 O4 1.400066 1_555
B7 O6 1.400066 1_555
