# generated using pymatgen
data_Zr5I18
_symmetry_space_group_name_H-M   'P 1'
_cell_length_a   7.95100300
_cell_length_b   10.47307948
_cell_length_c   42.76702228
_cell_angle_alpha   96.25837301
_cell_angle_beta   90.01236158
_cell_angle_gamma   112.16443015
_symmetry_Int_Tables_number   1
_chemical_formula_structural   Zr5I18
_chemical_formula_sum   'Zr15 I54'
_cell_volume   3275.15008725
_cell_formula_units_Z   3
loop_
 _symmetry_equiv_pos_site_id
 _symmetry_equiv_pos_as_xyz
  1  'x, y, z'
loop_
 _atom_site_type_symbol
 _atom_site_label
 _atom_site_symmetry_multiplicity
 _atom_site_fract_x
 _atom_site_fract_y
 _atom_site_fract_z
 _atom_site_occupancy
  Zr  Zr0  1  0.40115000  0.24883000  0.05055400  1
  Zr  Zr1  1  0.27103600  0.91543800  0.11509800  1
  Zr  Zr2  1  0.06584000  0.41838600  0.21505400  1
  Zr  Zr3  1  0.94167500  0.10366400  0.27694100  1
  Zr  Zr4  1  0.83230500  0.82815800  0.33282500  1
  Zr  Zr5  1  0.72587500  0.56117000  0.38680900  1
  Zr  Zr6  1  0.61145800  0.27197800  0.44490700  1
  Zr  Zr7  1  0.38854200  0.72802200  0.55509300  1
  Zr  Zr8  1  0.50000000  0.00000000  0.50000000  1
  Zr  Zr9  1  0.16769500  0.17184200  0.66717500  1
  Zr  Zr10  1  0.27412500  0.43883000  0.61319100  1
  Zr  Zr11  1  0.59885000  0.75117000  0.94944600  1
  Zr  Zr12  1  0.93416000  0.58161400  0.78494600  1
  Zr  Zr13  1  0.05832500  0.89633600  0.72305900  1
  Zr  Zr14  1  0.72896400  0.08456200  0.88490200  1
  I  I0  1  0.19991600  0.21491500  0.99393900  1
  I  I1  1  0.25033600  0.64900500  0.97092100  1
  I  I2  1  0.98967900  0.67371400  0.10225500  1
  I  I3  1  0.60252500  0.04323300  0.94872700  1
  I  I4  1  0.74966400  0.35099500  0.02907900  1
  I  I5  1  0.05348300  0.08213700  0.08344000  1
  I  I6  1  0.80008400  0.78508500  0.00606100  1
  I  I7  1  0.76869900  0.11527300  0.21683800  1
  I  I8  1  0.37362900  0.49088400  0.06370400  1
  I  I9  1  0.53979000  0.81306000  0.13784500  1
  I  I10  1  0.79436700  0.51422200  0.19614900  1
  I  I11  1  0.55921000  0.20811800  0.11594700  1
  I  I12  1  0.39747500  0.95676700  0.05127300  1
  I  I13  1  0.53924300  0.55755500  0.32591200  1
  I  I14  1  0.15835200  0.94923400  0.17289900  1
  I  I15  1  0.28776200  0.24240300  0.25048100  1
  I  I16  1  0.58566400  0.96654500  0.30687600  1
  I  I17  1  0.17861000  0.38061400  0.16075000  1
  I  I18  1  0.34476900  0.65400300  0.23153600  1
  I  I19  1  0.32155900  0.00332500  0.43697300  1
  I  I20  1  0.93474700  0.37092100  0.28456600  1
  I  I21  1  0.08299800  0.69200700  0.36107500  1
  I  I22  1  0.36995300  0.41658100  0.41653800  1
  I  I23  1  0.95284400  0.83006200  0.27100400  1
  I  I24  1  0.12367700  0.09704000  0.34068000  1
  I  I25  1  0.09824800  0.45049400  0.54871200  1
  I  I26  1  0.71131900  0.82644500  0.39596300  1
  I  I27  1  0.86140700  0.13669100  0.47183200  1
  I  I28  1  0.13859300  0.86330900  0.52816800  1
  I  I29  1  0.90175200  0.54950600  0.45128800  1
  I  I30  1  0.73633900  0.28454400  0.38180300  1
  I  I31  1  0.87632300  0.90296000  0.65932000  1
  I  I32  1  0.48959500  0.27157600  0.50701000  1
  I  I33  1  0.63004700  0.58341900  0.58346200  1
  I  I34  1  0.91700200  0.30799300  0.63892500  1
  I  I35  1  0.67844100  0.99667500  0.56302700  1
  I  I36  1  0.51040500  0.72842400  0.49299000  1
  I  I37  1  0.65523100  0.34599700  0.76846400  1
  I  I38  1  0.26366100  0.71545600  0.61819700  1
  I  I39  1  0.41433600  0.03345500  0.69312400  1
  I  I40  1  0.71223800  0.75759700  0.74951900  1
  I  I41  1  0.46075700  0.44244500  0.67408800  1
  I  I42  1  0.28868100  0.17355500  0.60403700  1
  I  I43  1  0.04715600  0.16993800  0.72899600  1
  I  I44  1  0.44079000  0.79188200  0.88405300  1
  I  I45  1  0.20563300  0.48577800  0.80385100  1
  I  I46  1  0.46021000  0.18694000  0.86215500  1
  I  I47  1  0.23130100  0.88472700  0.78316200  1
  I  I48  1  0.06525300  0.62907900  0.71543400  1
  I  I49  1  0.82139000  0.61938600  0.83925000  1
  I  I50  1  0.94651700  0.91786300  0.91656000  1
  I  I51  1  0.01032100  0.32628600  0.89774500  1
  I  I52  1  0.84164800  0.05076600  0.82710100  1
  I  I53  1  0.62637100  0.50911600  0.93629600  1
loop_
_geom_bond_atom_site_label_1
_geom_bond_atom_site_label_2
_geom_bond_distance
_geom_bond_site_symmetry_2
I0 Zr0 2.816148 1_556
I1 Zr11 2.764994 1_555
I2 Zr1 2.671753 1_655
I3 Zr14 2.929028 1_555
I3 Zr11 3.051413 1_545
I4 Zr0 2.764994 1_555
I5 Zr0 3.092397 1_555
I5 Zr1 3.265906 1_545
I6 Zr11 2.816148 1_554
I7 Zr3 2.950626 1_555
I7 Zr2 3.171599 1_655
I8 Zr0 2.626484 1_555
I9 Zr1 2.935556 1_555
I10 Zr2 2.851489 1_655
I11 Zr1 3.053429 1_545
I11 Zr0 3.200827 1_555
I12 Zr1 2.929028 1_555
I12 Zr0 3.051413 1_565
I13 Zr4 2.895354 1_555
I13 Zr5 2.986751 1_555
I14 Zr1 2.662358 1_555
I15 Zr3 2.882162 1_455
I15 Zr2 3.444921 1_555
I16 Zr3 3.008164 1_565
I16 Zr4 3.110003 1_555
I17 Zr2 2.534227 1_555
I18 Zr2 2.644880 1_555
I19 Zr6 2.871007 1_555
I19 Zr8 3.055463 1_555
I20 Zr3 2.803772 1_555
I20 Zr2 3.178646 1_655
I21 Zr5 2.923342 1_455
I21 Zr4 3.159925 1_455
I22 Zr5 3.017618 1_555
I22 Zr6 3.169623 1_555
I23 Zr4 2.811995 1_555
I23 Zr3 2.883848 1_565
I24 Zr4 2.877650 1_445
I24 Zr3 3.105618 1_455
I25 Zr7 2.935120 1_555
I25 Zr10 3.126553 1_555
I26 Zr5 2.809058 1_555
I26 Zr4 2.866280 1_555
I27 Zr8 3.005240 1_555
I27 Zr6 3.124479 1_555
I28 Zr8 3.005240 1_565
I28 Zr7 3.124479 1_555
I29 Zr6 2.935120 1_555
I29 Zr5 3.126553 1_555
I30 Zr6 2.875167 1_555
I30 Zr5 2.914232 1_555
I31 Zr9 2.877650 1_665
I31 Zr13 3.105618 1_655
I32 Zr6 2.827268 1_555
I32 Zr8 2.859730 1_555
I33 Zr10 3.017618 1_555
I33 Zr7 3.169623 1_555
I34 Zr10 2.923342 1_655
I34 Zr9 3.159925 1_655
I35 Zr7 2.871007 1_555
I35 Zr8 3.055463 1_565
I36 Zr7 2.827268 1_555
I36 Zr8 2.859730 1_565
I37 Zr12 2.644880 1_555
I38 Zr7 2.875167 1_555
I38 Zr10 2.914232 1_555
I39 Zr13 3.008164 1_545
I39 Zr9 3.110003 1_555
I40 Zr13 2.882162 1_655
I40 Zr12 3.444921 1_555
I41 Zr9 2.895354 1_555
I41 Zr10 2.986751 1_555
I42 Zr10 2.809058 1_555
I42 Zr9 2.866280 1_555
I43 Zr9 2.811995 1_555
I43 Zr13 2.883848 1_545
I44 Zr14 3.053429 1_565
I44 Zr11 3.200827 1_555
I45 Zr12 2.851489 1_455
I46 Zr14 2.935556 1_555
I47 Zr13 2.950626 1_555
I47 Zr12 3.171599 1_455
I48 Zr13 2.803772 1_555
I48 Zr12 3.178646 1_455
I49 Zr12 2.534227 1_555
I50 Zr11 3.092397 1_555
I50 Zr14 3.265906 1_565
I51 Zr14 2.671753 1_455
I52 Zr14 2.662358 1_555
I53 Zr11 2.626484 1_555
