# generated using pymatgen
data_K3FeH3(CO2)6
_symmetry_space_group_name_H-M   'P 1'
_cell_length_a   20.97480700
_cell_length_b   7.46426300
_cell_length_c   10.81588821
_cell_angle_alpha   74.08715625
_cell_angle_beta   90.00000000
_cell_angle_gamma   90.00000000
_symmetry_Int_Tables_number   1
_chemical_formula_structural   K3FeH3(CO2)6
_chemical_formula_sum   'K12 Fe4 H12 C24 O48'
_cell_volume   1628.46197897
_cell_formula_units_Z   4
loop_
 _symmetry_equiv_pos_site_id
 _symmetry_equiv_pos_as_xyz
  1  'x, y, z'
loop_
 _atom_site_type_symbol
 _atom_site_label
 _atom_site_symmetry_multiplicity
 _atom_site_fract_x
 _atom_site_fract_y
 _atom_site_fract_z
 _atom_site_occupancy
  K  K0  1  0.08886200  0.46613500  0.82361100  1
  K  K1  1  0.91113800  0.53386500  0.17638900  1
  K  K2  1  0.58886200  0.53386500  0.67638900  1
  K  K3  1  0.41113800  0.46613500  0.32361100  1
  K  K4  1  0.59020300  0.98028100  0.82509500  1
  K  K5  1  0.40979700  0.01971900  0.17490500  1
  K  K6  1  0.09020300  0.01971900  0.67490500  1
  K  K7  1  0.90979700  0.98028100  0.32509500  1
  K  K8  1  0.92035500  0.75402500  0.74782600  1
  K  K9  1  0.07964500  0.24597500  0.25217400  1
  K  K10  1  0.42035500  0.24597500  0.75217400  1
  K  K11  1  0.57964500  0.75402500  0.24782600  1
  Fe  Fe0  1  0.36842300  0.74992000  0.75108500  1
  Fe  Fe1  1  0.63157700  0.25008000  0.24891500  1
  Fe  Fe2  1  0.86842300  0.25008000  0.74891500  1
  Fe  Fe3  1  0.13157700  0.74992000  0.25108500  1
  H  H0  1  0.00163400  0.24247200  0.75688500  1
  H  H1  1  0.99836600  0.75752800  0.24311500  1
  H  H2  1  0.50163400  0.75752800  0.74311500  1
  H  H3  1  0.49836600  0.24247200  0.25688500  1
  H  H4  1  0.31912200  0.42970000  0.54087000  1
  H  H5  1  0.68087800  0.57030000  0.45913000  1
  H  H6  1  0.81912200  0.57030000  0.95913000  1
  H  H7  1  0.18087800  0.42970000  0.04087000  1
  H  H8  1  0.81295500  0.89882600  0.54601600  1
  H  H9  1  0.18704500  0.10117400  0.45398400  1
  H  H10  1  0.31295500  0.10117400  0.95398400  1
  H  H11  1  0.68704500  0.89882600  0.04601600  1
  C  C0  1  0.24143500  0.84753400  0.79490200  1
  C  C1  1  0.75856500  0.15246600  0.20509800  1
  C  C2  1  0.74143500  0.15246600  0.70509800  1
  C  C3  1  0.25856500  0.84753400  0.29490200  1
  C  C4  1  0.44141000  0.72957700  0.98306600  1
  C  C5  1  0.55859000  0.27042300  0.01693400  1
  C  C6  1  0.94141000  0.27042300  0.51693400  1
  C  C7  1  0.05859000  0.72957700  0.48306600  1
  C  C8  1  0.41546500  0.52982000  0.99207700  1
  C  C9  1  0.58453500  0.47018000  0.00792300  1
  C  C10  1  0.91546500  0.47018000  0.50792300  1
  C  C11  1  0.08453500  0.52982000  0.49207700  1
  C  C12  1  0.23608100  0.70314300  0.71461700  1
  C  C13  1  0.76391900  0.29685700  0.28538300  1
  C  C14  1  0.73608100  0.29685700  0.78538300  1
  C  C15  1  0.26391900  0.70314300  0.21461700  1
  C  C16  1  0.43595800  0.76446100  0.51417700  1
  C  C17  1  0.56404200  0.23553900  0.48582300  1
  C  C18  1  0.93595800  0.23553900  0.98582300  1
  C  C19  1  0.06404200  0.76446100  0.01417700  1
  C  C20  1  0.41445600  0.96695000  0.50774800  1
  C  C21  1  0.58554400  0.03305000  0.49225200  1
  C  C22  1  0.91445600  0.03305000  0.99225200  1
  C  C23  1  0.08554400  0.96695000  0.00774800  1
  O  O0  1  0.07722700  0.40085700  0.59179500  1
  O  O1  1  0.92277300  0.59914300  0.40820500  1
  O  O2  1  0.57722700  0.59914300  0.90820500  1
  O  O3  1  0.42277300  0.40085700  0.09179500  1
  O  O4  1  0.92374400  0.90381800  0.09104500  1
  O  O5  1  0.07625600  0.09618200  0.90895500  1
  O  O6  1  0.42374400  0.09618200  0.40895500  1
  O  O7  1  0.57625600  0.90381800  0.59104500  1
  O  O8  1  0.42180700  0.64231000  0.62099600  1
  O  O9  1  0.57819300  0.35769000  0.37900400  1
  O  O10  1  0.92180700  0.35769000  0.87900400  1
  O  O11  1  0.07819300  0.64231000  0.12099600  1
  O  O12  1  0.38814100  0.98593000  0.61171400  1
  O  O13  1  0.61185900  0.01407000  0.38828600  1
  O  O14  1  0.88814100  0.01407000  0.88828600  1
  O  O15  1  0.11185900  0.98593000  0.11171400  1
  O  O16  1  0.19303600  0.92178600  0.82385200  1
  O  O17  1  0.80696400  0.07821400  0.17614800  1
  O  O18  1  0.69303600  0.07821400  0.67614800  1
  O  O19  1  0.30696400  0.92178600  0.32385200  1
  O  O20  1  0.38779300  0.51306400  0.88863500  1
  O  O21  1  0.61220700  0.48693600  0.11136500  1
  O  O22  1  0.88779300  0.48693600  0.61136500  1
  O  O23  1  0.11220700  0.51306400  0.38863500  1
  O  O24  1  0.42906800  0.85105700  0.87496400  1
  O  O25  1  0.57093200  0.14894300  0.12503600  1
  O  O26  1  0.92906800  0.14894300  0.62503600  1
  O  O27  1  0.07093200  0.85105700  0.37496400  1
  O  O28  1  0.03543600  0.73234600  0.92117100  1
  O  O29  1  0.96456400  0.26765400  0.07882900  1
  O  O30  1  0.53543600  0.26765400  0.57882900  1
  O  O31  1  0.46456400  0.73234600  0.42117100  1
  O  O32  1  0.02867200  0.76004000  0.57509200  1
  O  O33  1  0.97132800  0.23996000  0.42490800  1
  O  O34  1  0.52867200  0.23996000  0.92490800  1
  O  O35  1  0.47132800  0.76004000  0.07509200  1
  O  O36  1  0.18283500  0.65632000  0.68420400  1
  O  O37  1  0.81716500  0.34368000  0.31579600  1
  O  O38  1  0.68283500  0.34368000  0.81579600  1
  O  O39  1  0.31716500  0.65632000  0.18420400  1
  O  O40  1  0.29961100  0.87823600  0.82496900  1
  O  O41  1  0.70038900  0.12176400  0.17503100  1
  O  O42  1  0.79961100  0.12176400  0.67503100  1
  O  O43  1  0.20038900  0.87823600  0.32496900  1
  O  O44  1  0.29066200  0.64303900  0.68616000  1
  O  O45  1  0.70933800  0.35696100  0.31384000  1
  O  O46  1  0.79066200  0.35696100  0.81384000  1
  O  O47  1  0.20933800  0.64303900  0.18616000  1
loop_
_geom_bond_atom_site_label_1
_geom_bond_atom_site_label_2
_geom_bond_distance
_geom_bond_site_symmetry_2
K0 O36 2.645771 1_555
K0 O5 2.673894 1_555
K0 O0 2.693216 1_555
K0 O28 2.732651 1_555
K0 O32 3.224612 1_555
K1 O37 2.645771 1_555
K1 O4 2.673894 1_555
K1 O1 2.693216 1_555
K1 O29 2.732651 1_555
K1 O33 3.224612 1_555
K2 O38 2.645771 1_555
K2 O7 2.673894 1_555
K2 O2 2.693216 1_555
K2 O30 2.732651 1_555
K2 O34 3.224612 1_555
K3 O39 2.645771 1_555
K3 O6 2.673894 1_555
K3 O3 2.693216 1_555
K3 O31 2.732651 1_555
K3 O35 3.224612 1_555
K4 O18 2.671354 1_565
K4 O2 2.751971 1_555
K4 O7 2.758960 1_555
K4 O34 2.781297 1_565
K4 O30 3.143633 1_565
K4 O38 3.315602 1_565
K5 O19 2.671354 1_545
K5 O3 2.751971 1_555
K5 O6 2.758960 1_555
K5 O35 2.781297 1_545
K5 O31 3.143633 1_545
K5 O39 3.315602 1_545
K6 O16 2.671354 1_545
K6 O0 2.751971 1_555
K6 O5 2.758960 1_555
K6 O32 2.781297 1_545
K6 O28 3.143633 1_545
K6 O36 3.315602 1_545
K7 O17 2.671354 1_565
K7 O1 2.751971 1_555
K7 O4 2.758960 1_555
K7 O33 2.781297 1_565
K7 O29 3.143633 1_565
K7 O37 3.315602 1_565
K8 O14 2.854673 1_565
K8 O22 2.869307 1_555
K8 O26 2.887877 1_565
K8 O10 2.909324 1_555
K8 O32 2.933959 1_655
K8 O28 3.033387 1_655
K9 O15 2.854673 1_545
K9 O23 2.869307 1_555
K9 O27 2.887877 1_545
K9 O11 2.909324 1_555
K9 O33 2.933959 1_455
K9 O29 3.033387 1_455
K10 O12 2.854673 1_545
K10 O20 2.869307 1_555
K10 O24 2.887877 1_545
K10 O8 2.909324 1_555
K10 O34 2.933959 1_555
K10 O30 3.033387 1_555
K11 O13 2.854673 1_565
K11 O21 2.869307 1_555
K11 O25 2.887877 1_565
K11 O9 2.909324 1_555
K11 O35 2.933959 1_555
K11 O31 3.033387 1_555
Fe0 O40 2.014649 1_555
Fe0 O20 2.015384 1_555
Fe0 O12 2.022519 1_555
Fe0 O44 2.024108 1_555
Fe0 O8 2.120944 1_555
Fe0 O24 2.130210 1_555
Fe1 O41 2.014649 1_555
Fe1 O21 2.015384 1_555
Fe1 O13 2.022519 1_555
Fe1 O45 2.024108 1_555
Fe1 O9 2.120944 1_555
Fe1 O25 2.130210 1_555
Fe2 O42 2.014649 1_555
Fe2 O22 2.015384 1_555
Fe2 O14 2.022519 1_555
Fe2 O46 2.024108 1_555
Fe2 O10 2.120944 1_555
Fe2 O26 2.130210 1_555
Fe3 O43 2.014649 1_555
Fe3 O23 2.015384 1_555
Fe3 O15 2.022519 1_555
Fe3 O47 2.024108 1_555
Fe3 O11 2.120944 1_555
Fe3 O27 2.130210 1_555
H0 K0 2.704829 1_555
H0 K6 2.794687 1_555
H1 K1 2.704829 1_555
H1 K7 2.794687 1_555
H2 K2 2.704829 1_555
H2 K4 2.794687 1_555
H3 K3 2.704829 1_555
H3 K5 2.794687 1_555
H4 K3 2.995044 1_555
H5 K2 2.995044 1_555
H6 K1 2.995044 1_556
H7 K0 2.995044 1_554
H8 K7 3.067324 1_555
H9 K6 3.067324 1_555
H10 K5 3.067324 1_556
H11 K4 3.067324 1_554
C0 O16 1.237309 1_555
C0 O40 1.299270 1_555
C1 O17 1.237309 1_555
C1 O41 1.299270 1_555
C2 O18 1.237309 1_555
C2 O42 1.299270 1_555
C3 O19 1.237309 1_555
C3 O43 1.299270 1_555
C4 O35 1.249121 1_556
C4 O24 1.294194 1_555
C5 O34 1.249121 1_554
C5 O25 1.294194 1_555
C6 O33 1.249121 1_555
C6 O26 1.294194 1_555
C7 O32 1.249121 1_555
C7 O27 1.294194 1_555
C8 O3 1.242603 1_556
C8 O20 1.296537 1_555
C9 O2 1.242603 1_554
C9 O21 1.296537 1_555
C10 O1 1.242603 1_555
C10 O22 1.296537 1_555
C11 O0 1.242603 1_555
C11 O23 1.296537 1_555
C12 O36 1.241246 1_555
C12 O44 1.297054 1_555
C13 O37 1.241246 1_555
C13 O45 1.297054 1_555
C14 O38 1.241246 1_555
C14 O46 1.297054 1_555
C15 O39 1.241246 1_555
C15 O47 1.297054 1_555
C16 O31 1.249647 1_555
C16 O8 1.294836 1_555
C17 O30 1.249647 1_555
C17 O9 1.294836 1_555
C18 O29 1.249647 1_556
C18 O10 1.294836 1_555
C19 O28 1.249647 1_554
C19 O11 1.294836 1_555
C20 O6 1.242985 1_565
C20 O12 1.294814 1_555
C21 O7 1.242985 1_545
C21 O13 1.294814 1_555
C22 O4 1.242985 1_546
C22 O14 1.294814 1_555
C23 O5 1.242985 1_564
C23 O15 1.294814 1_555
