# generated using pymatgen
data_Re2(CN2)3
_symmetry_space_group_name_H-M   'P 1'
_cell_length_a   10.44709119
_cell_length_b   4.89697552
_cell_length_c   30.28499769
_cell_angle_alpha   89.99999740
_cell_angle_beta   163.82139351
_cell_angle_gamma   76.44549419
_symmetry_Int_Tables_number   1
_chemical_formula_structural   Re2(CN2)3
_chemical_formula_sum   'Re4 C6 N12'
_cell_volume   233.46794525
_cell_formula_units_Z   2
loop_
 _symmetry_equiv_pos_site_id
 _symmetry_equiv_pos_as_xyz
  1  'x, y, z'
loop_
 _atom_site_type_symbol
 _atom_site_label
 _atom_site_symmetry_multiplicity
 _atom_site_fract_x
 _atom_site_fract_y
 _atom_site_fract_z
 _atom_site_occupancy
  Re  Re0  1  0.90518000  0.04234200  0.13412300  1
  Re  Re1  1  0.90518000  0.05247800  0.63412300  1
  Re  Re2  1  0.09476000  0.95766300  0.86587600  1
  Re  Re3  1  0.09476000  0.94757600  0.36587600  1
  C  C0  1  0.96799800  0.68029100  0.06693500  1
  C  C1  1  0.00004500  0.66922600  0.75002400  1
  C  C2  1  0.03198400  0.64829800  0.43307600  1
  C  C3  1  0.96799800  0.35171100  0.56693500  1
  C  C4  1  0.03198400  0.31971800  0.93307600  1
  C  C5  1  0.00004500  0.33073000  0.25002400  1
  N  N0  1  0.90823600  0.72731500  0.08763900  1
  N  N1  1  0.11227400  0.61894500  0.82747300  1
  N  N2  1  0.99179300  0.64265100  0.46069100  1
  N  N3  1  0.90823600  0.36444900  0.58763900  1
  N  N4  1  0.99179300  0.36555600  0.96069100  1
  N  N5  1  0.11227400  0.26878100  0.32747300  1
  N  N6  1  0.09176100  0.27267300  0.91238000  1
  N  N7  1  0.88778600  0.38100700  0.17256100  1
  N  N8  1  0.00818300  0.35733100  0.53932200  1
  N  N9  1  0.09176100  0.63556600  0.41238000  1
  N  N10  1  0.00818300  0.63448800  0.03932200  1
  N  N11  1  0.88778600  0.73120700  0.67256100  1
loop_
_geom_bond_atom_site_label_1
_geom_bond_atom_site_label_2
_geom_bond_distance
_geom_bond_site_symmetry_2
C0 N0 1.233098 1_555
C0 N10 1.247434 1_655
C1 N1 1.232571 1_555
C1 N11 1.232701 1_455
C2 N9 1.233013 1_555
C2 N2 1.247570 1_455
C3 N3 1.233098 1_555
C3 N8 1.247435 1_655
C4 N6 1.233013 1_555
C4 N4 1.247570 1_455
C5 N5 1.232571 1_555
C5 N7 1.232702 1_455
N0 Re0 2.103790 1_565
N0 Re2 2.115758 1_554
N1 Re0 2.027043 1_556
N1 Re2 2.098543 1_555
N2 Re0 2.108418 1_465
N2 Re2 2.212067 1_745
N3 Re1 2.103790 1_555
N3 Re3 2.115756 1_555
N4 Re1 2.108418 1_465
N4 Re3 2.212066 1_746
N5 Re1 2.027043 1_555
N5 Re3 2.098546 1_545
N6 Re2 2.103854 1_545
N6 Re0 2.115704 1_556
N7 Re2 2.027050 1_554
N7 Re0 2.098475 1_555
N8 Re2 2.108411 1_645
N8 Re0 2.212153 1_365
N9 Re3 2.103851 1_555
N9 Re1 2.115704 1_555
N10 Re3 2.108415 1_645
N10 Re1 2.212157 1_364
N11 Re3 2.027052 1_555
N11 Re1 2.098475 1_565
