# generated using pymatgen
data_LiMn2O3F
_symmetry_space_group_name_H-M   'P 1'
_cell_length_a   6.16212422
_cell_length_b   10.17390395
_cell_length_c   6.16897993
_cell_angle_alpha   89.98623797
_cell_angle_beta   59.96208473
_cell_angle_gamma   106.48271616
_symmetry_Int_Tables_number   1
_chemical_formula_structural   LiMn2O3F
_chemical_formula_sum   'Li4 Mn8 O12 F4'
_cell_volume   316.29940358
_cell_formula_units_Z   4
loop_
 _symmetry_equiv_pos_site_id
 _symmetry_equiv_pos_as_xyz
  1  'x, y, z'
loop_
 _atom_site_type_symbol
 _atom_site_label
 _atom_site_symmetry_multiplicity
 _atom_site_fract_x
 _atom_site_fract_y
 _atom_site_fract_z
 _atom_site_occupancy
  Li  Li0  1  0.10468500  0.15912100  0.93962200  1
  Li  Li1  1  0.10354600  0.65926200  0.45658900  1
  Li  Li2  1  0.89557400  0.84088900  0.04424000  1
  Li  Li3  1  0.89613300  0.34074000  0.56043000  1
  Mn  Mn0  1  0.50244300  0.25148800  0.25097400  1
  Mn  Mn1  1  0.49753400  0.74850100  0.75336400  1
  Mn  Mn2  1  0.50306000  0.50089500  0.50918100  1
  Mn  Mn3  1  0.49641400  0.49908900  0.01255400  1
  Mn  Mn4  1  0.99979400  0.49999800  0.01632900  1
  Mn  Mn5  1  0.49757200  0.99987000  0.99078500  1
  Mn  Mn6  1  0.50295900  0.00017900  0.48802400  1
  Mn  Mn7  1  0.00022500  0.99999100  0.48288300  1
  O  O0  1  0.75058500  0.39997100  0.36060900  1
  O  O1  1  0.74200500  0.89161200  0.83276500  1
  O  O2  1  0.74137500  0.39191500  0.92448400  1
  O  O3  1  0.75080600  0.89993500  0.38856400  1
  O  O4  1  0.31006500  0.38887500  0.35569400  1
  O  O5  1  0.31078000  0.88844600  0.83357100  1
  O  O6  1  0.68945500  0.61113300  0.66591100  1
  O  O7  1  0.68963300  0.11154600  0.14405900  1
  O  O8  1  0.25803600  0.60794200  0.66597500  1
  O  O9  1  0.24953100  0.09995300  0.13901100  1
  O  O10  1  0.24911400  0.60012600  0.11118400  1
  O  O11  1  0.25860000  0.10852600  0.57433600  1
  F  F0  1  0.75429200  0.64236000  0.12821800  1
  F  F1  1  0.75422200  0.14275200  0.61672000  1
  F  F2  1  0.24532100  0.35762200  0.88295500  1
  F  F3  1  0.24624100  0.85726300  0.37097100  1
loop_
_geom_bond_atom_site_label_1
_geom_bond_atom_site_label_2
_geom_bond_distance
_geom_bond_site_symmetry_2
Li0 O9 2.018826 1_556
Li0 O11 2.092939 1_555
Li0 O7 2.105736 1_456
Li1 O10 2.024900 1_555
Li1 O8 2.088108 1_555
Li1 O6 2.100053 1_455
Li2 O3 2.018972 1_555
Li2 O1 2.092009 1_554
Li2 O5 2.106555 1_654
Li3 O0 2.024909 1_555
Li3 O2 2.088646 1_555
Li3 O4 2.099219 1_655
Mn0 O4 1.987556 1_555
Mn0 O7 1.990814 1_555
Mn0 O2 2.025265 1_554
Mn0 O11 2.027363 1_555
Mn0 O0 2.191501 1_555
Mn0 O9 2.235512 1_555
Mn1 O6 1.985546 1_555
Mn1 O5 1.989065 1_555
Mn1 O8 2.028045 1_555
Mn1 O1 2.030693 1_555
Mn1 O10 2.190622 1_556
Mn1 O3 2.234177 1_555
Mn2 O0 1.926241 1_555
Mn2 O8 1.967970 1_555
Mn2 O6 1.973142 1_555
Mn2 O4 1.992111 1_555
Mn3 O10 1.926149 1_555
Mn3 O2 1.968716 1_554
Mn3 O4 1.972698 1_555
Mn3 O6 1.992495 1_554
Mn4 O0 1.936893 1_555
Mn4 O10 1.937192 1_655
Mn4 O8 1.993383 1_654
Mn4 O2 1.993968 1_554
Mn5 O9 1.921844 1_566
Mn5 O1 1.975856 1_555
Mn5 O5 1.981991 1_555
Mn5 O7 1.985814 1_566
Mn6 O3 1.922280 1_545
Mn6 O11 1.976215 1_555
Mn6 O7 1.981188 1_555
Mn6 O5 1.986532 1_545
Mn7 O9 1.934992 1_565
Mn7 O3 1.935146 1_455
Mn7 O1 1.992818 1_455
Mn7 O11 1.993602 1_565
F0 Li2 1.912094 1_555
F0 Mn3 2.231643 1_555
F0 Mn4 2.249727 1_555
F0 Mn2 2.254521 1_555
F1 Li3 1.907576 1_555
F1 Mn5 2.231476 1_545
F1 Mn7 2.255250 1_645
F1 Mn6 2.255746 1_555
F2 Li0 1.911796 1_555
F2 Mn2 2.232103 1_555
F2 Mn4 2.249925 1_456
F2 Mn3 2.253896 1_556
F3 Li1 1.907754 1_555
F3 Mn6 2.230914 1_565
F3 Mn7 2.255053 1_555
F3 Mn5 2.256348 1_554
