# generated using pymatgen
data_SnS
_symmetry_space_group_name_H-M   'P 1'
_cell_length_a   3.74941352
_cell_length_b   5.70754097
_cell_length_c   6.23385223
_cell_angle_alpha   90.00000000
_cell_angle_beta   107.50145393
_cell_angle_gamma   90.00000000
_symmetry_Int_Tables_number   1
_chemical_formula_structural   SnS
_chemical_formula_sum   'Sn2 S2'
_cell_volume   127.22864687
_cell_formula_units_Z   2
loop_
 _symmetry_equiv_pos_site_id
 _symmetry_equiv_pos_as_xyz
  1  'x, y, z'
loop_
 _atom_site_type_symbol
 _atom_site_label
 _atom_site_symmetry_multiplicity
 _atom_site_fract_x
 _atom_site_fract_y
 _atom_site_fract_z
 _atom_site_occupancy
  Sn  Sn0  1  0.84720062  0.25000000  0.69440124  1
  Sn  Sn1  1  0.15279938  0.75000000  0.30559876  1
  S  S0  1  0.19789208  0.25000000  0.39578415  1
  S  S1  1  0.80210792  0.75000000  0.60421585  1
loop_
_geom_bond_atom_site_label_1
_geom_bond_atom_site_label_2
_geom_bond_distance
_geom_bond_site_symmetry_2
S0 Sn0 2.581945 1_455
S0 Sn0 2.581945 1_555
S0 Sn1 2.903703 1_555
S0 Sn1 2.903703 1_545
S1 Sn1 2.581945 1_655
S1 Sn1 2.581945 1_555
S1 Sn0 2.903703 1_555
S1 Sn0 2.903703 1_565
