# generated using pymatgen
data_K2HoNb5O15
_symmetry_space_group_name_H-M   'P 1'
_cell_length_a   12.73894100
_cell_length_b   12.73894100
_cell_length_c   3.95326100
_cell_angle_alpha   90.00000000
_cell_angle_beta   90.00000000
_cell_angle_gamma   90.00000000
_symmetry_Int_Tables_number   1
_chemical_formula_structural   K2HoNb5O15
_chemical_formula_sum   'K4 Ho2 Nb10 O30'
_cell_volume   641.53763741
_cell_formula_units_Z   2
loop_
 _symmetry_equiv_pos_site_id
 _symmetry_equiv_pos_as_xyz
  1  'x, y, z'
loop_
 _atom_site_type_symbol
 _atom_site_label
 _atom_site_symmetry_multiplicity
 _atom_site_fract_x
 _atom_site_fract_y
 _atom_site_fract_z
 _atom_site_occupancy
  K  K0  1  0.66985800  0.16985800  0.50000000  1
  K  K1  1  0.33014200  0.83014200  0.50000000  1
  K  K2  1  0.16985800  0.33014200  0.50000000  1
  K  K3  1  0.83014200  0.66985800  0.50000000  1
  Ho  Ho0  1  0.00000000  0.00000000  0.50000000  1
  Ho  Ho1  1  0.50000000  0.50000000  0.50000000  1
  Nb  Nb0  1  0.50000000  0.00000000  0.00000000  1
  Nb  Nb1  1  0.00000000  0.50000000  0.00000000  1
  Nb  Nb2  1  0.21165900  0.07644300  0.00000000  1
  Nb  Nb3  1  0.78834100  0.92355700  0.00000000  1
  Nb  Nb4  1  0.07644300  0.78834100  0.00000000  1
  Nb  Nb5  1  0.71165900  0.42355700  0.00000000  1
  Nb  Nb6  1  0.92355700  0.21165900  0.00000000  1
  Nb  Nb7  1  0.28834100  0.57644300  0.00000000  1
  Nb  Nb8  1  0.57644300  0.71165900  0.00000000  1
  Nb  Nb9  1  0.42355700  0.28834100  0.00000000  1
  O  O0  1  0.18427800  0.07813000  0.50000000  1
  O  O1  1  0.81572200  0.92187000  0.50000000  1
  O  O2  1  0.07813000  0.81572200  0.50000000  1
  O  O3  1  0.68427800  0.42187000  0.50000000  1
  O  O4  1  0.92187000  0.18427800  0.50000000  1
  O  O5  1  0.31572200  0.57813000  0.50000000  1
  O  O6  1  0.57813000  0.68427800  0.50000000  1
  O  O7  1  0.42187000  0.31572200  0.50000000  1
  O  O8  1  0.21735000  0.71735000  0.00000000  1
  O  O9  1  0.78265000  0.28265000  0.00000000  1
  O  O10  1  0.71735000  0.78265000  0.00000000  1
  O  O11  1  0.28265000  0.21735000  0.00000000  1
  O  O12  1  0.50000000  0.00000000  0.50000000  1
  O  O13  1  0.00000000  0.50000000  0.50000000  1
  O  O14  1  0.05756400  0.13038400  0.00000000  1
  O  O15  1  0.94243600  0.86961600  0.00000000  1
  O  O16  1  0.13038400  0.94243600  0.00000000  1
  O  O17  1  0.55756400  0.36961600  0.00000000  1
  O  O18  1  0.86961600  0.05756400  0.00000000  1
  O  O19  1  0.44243600  0.63038400  0.00000000  1
  O  O20  1  0.63038400  0.55756400  0.00000000  1
  O  O21  1  0.36961600  0.44243600  0.00000000  1
  O  O22  1  0.34186400  0.99951600  0.00000000  1
  O  O23  1  0.65813600  0.00048400  0.00000000  1
  O  O24  1  0.99951600  0.65813600  0.00000000  1
  O  O25  1  0.84186400  0.50048400  0.00000000  1
  O  O26  1  0.00048400  0.34186400  0.00000000  1
  O  O27  1  0.15813600  0.49951600  0.00000000  1
  O  O28  1  0.49951600  0.84186400  0.00000000  1
  O  O29  1  0.50048400  0.15813600  0.00000000  1
loop_
_geom_bond_atom_site_label_1
_geom_bond_atom_site_label_2
_geom_bond_distance
_geom_bond_site_symmetry_2
K0 O9 2.834810 1_556
K0 O9 2.834810 1_555
K0 O29 2.929983 1_555
K0 O29 2.929983 1_556
K0 O23 2.929983 1_556
K0 O23 2.929983 1_555
K0 O12 3.060091 1_555
K0 O3 3.215617 1_555
K0 O4 3.215617 1_555
K1 O8 2.834810 1_555
K1 O8 2.834810 1_556
K1 O22 2.929983 1_555
K1 O22 2.929983 1_556
K1 O28 2.929983 1_555
K1 O28 2.929983 1_556
K1 O12 3.060091 1_565
K1 O5 3.215617 1_555
K1 O2 3.215617 1_555
K2 O11 2.834810 1_556
K2 O11 2.834810 1_555
K2 O26 2.929983 1_555
K2 O26 2.929983 1_556
K2 O27 2.929983 1_556
K2 O27 2.929983 1_555
K2 O13 3.060091 1_555
K2 O7 3.215617 1_555
K2 O0 3.215617 1_555
K3 O10 2.834810 1_555
K3 O10 2.834810 1_556
K3 O25 2.929983 1_556
K3 O24 2.929983 1_556
K3 O24 2.929983 1_555
K3 O25 2.929983 1_555
K3 O13 3.060091 1_655
K3 O6 3.215617 1_555
K3 O1 3.215617 1_555
Ho0 O0 2.549784 1_555
Ho0 O4 2.549784 1_455
Ho0 O1 2.549784 1_445
Ho0 O2 2.549784 1_545
Ho0 O14 2.683947 1_555
Ho0 O14 2.683947 1_556
Ho0 O16 2.683947 1_545
Ho0 O16 2.683947 1_546
Ho0 O18 2.683947 1_456
Ho0 O18 2.683947 1_455
Ho0 O15 2.683947 1_446
Ho0 O15 2.683947 1_445
Ho1 O5 2.549784 1_555
Ho1 O7 2.549784 1_555
Ho1 O3 2.549784 1_555
Ho1 O6 2.549784 1_555
Ho1 O21 2.683947 1_556
Ho1 O17 2.683947 1_555
Ho1 O17 2.683947 1_556
Ho1 O21 2.683947 1_555
Ho1 O20 2.683947 1_555
Ho1 O20 2.683947 1_556
Ho1 O19 2.683947 1_556
Ho1 O19 2.683947 1_555
Nb0 O12 1.976630 1_554
Nb0 O12 1.976630 1_555
Nb0 O29 2.014495 1_555
Nb0 O22 2.014495 1_545
Nb0 O28 2.014495 1_545
Nb0 O23 2.014495 1_555
Nb1 O13 1.976630 1_555
Nb1 O13 1.976630 1_554
Nb1 O26 2.014495 1_555
Nb1 O27 2.014495 1_555
Nb1 O24 2.014495 1_455
Nb1 O25 2.014495 1_455
Nb2 O22 1.926535 1_545
Nb2 O16 1.996542 1_545
Nb2 O0 2.007285 1_555
Nb2 O0 2.007285 1_554
Nb2 O11 2.009949 1_555
Nb2 O14 2.079801 1_555
Nb3 O23 1.926535 1_565
Nb3 O18 1.996542 1_565
Nb3 O1 2.007285 1_554
Nb3 O1 2.007285 1_555
Nb3 O10 2.009949 1_555
Nb3 O15 2.079801 1_555
Nb4 O24 1.926535 1_455
Nb4 O15 1.996542 1_455
Nb4 O2 2.007285 1_555
Nb4 O2 2.007285 1_554
Nb4 O8 2.009949 1_555
Nb4 O16 2.079801 1_555
Nb5 O25 1.926535 1_555
Nb5 O20 1.996542 1_555
Nb5 O3 2.007285 1_555
Nb5 O3 2.007285 1_554
Nb5 O9 2.009949 1_555
Nb5 O17 2.079801 1_555
Nb6 O26 1.926535 1_655
Nb6 O14 1.996542 1_655
Nb6 O4 2.007285 1_554
Nb6 O4 2.007285 1_555
Nb6 O9 2.009949 1_555
Nb6 O18 2.079801 1_555
Nb7 O27 1.926535 1_555
Nb7 O21 1.996542 1_555
Nb7 O5 2.007285 1_554
Nb7 O5 2.007285 1_555
Nb7 O8 2.009949 1_555
Nb7 O19 2.079801 1_555
Nb8 O28 1.926535 1_555
Nb8 O19 1.996542 1_555
Nb8 O6 2.007285 1_554
Nb8 O6 2.007285 1_555
Nb8 O10 2.009949 1_555
Nb8 O20 2.079801 1_555
Nb9 O29 1.926535 1_555
Nb9 O17 1.996542 1_555
Nb9 O7 2.007285 1_554
Nb9 O7 2.007285 1_555
Nb9 O11 2.009949 1_555
Nb9 O21 2.079801 1_555
