# generated using pymatgen
data_CsCoO2
_symmetry_space_group_name_H-M   'P 1'
_cell_length_a   6.09786840
_cell_length_b   5.97805320
_cell_length_c   8.52832000
_cell_angle_alpha   90.00024802
_cell_angle_beta   90.00015103
_cell_angle_gamma   90.13636350
_symmetry_Int_Tables_number   1
_chemical_formula_structural   CsCoO2
_chemical_formula_sum   'Cs4 Co4 O8'
_cell_volume   310.88522335
_cell_formula_units_Z   4
loop_
 _symmetry_equiv_pos_site_id
 _symmetry_equiv_pos_as_xyz
  1  'x, y, z'
loop_
 _atom_site_type_symbol
 _atom_site_label
 _atom_site_symmetry_multiplicity
 _atom_site_fract_x
 _atom_site_fract_y
 _atom_site_fract_z
 _atom_site_occupancy
  Cs  Cs0  1  0.99999900  0.00000100  0.49847900  1
  Cs  Cs1  1  0.50000000  0.50000100  0.00449000  1
  Cs  Cs2  1  0.50000000  0.99999800  0.75166400  1
  Cs  Cs3  1  0.00000100  0.50000000  0.24546300  1
  Co  Co0  1  0.50000100  0.50000000  0.49855000  1
  Co  Co1  1  0.00000300  0.49999600  0.75142600  1
  Co  Co2  1  0.00000000  0.00000000  0.00105800  1
  Co  Co3  1  0.50000200  0.99999900  0.24933600  1
  O  O0  1  0.24999700  0.99893800  0.12501700  1
  O  O1  1  0.74997100  0.50021400  0.62493600  1
  O  O2  1  0.50163600  0.74283200  0.36588500  1
  O  O3  1  0.99874100  0.25703000  0.88393000  1
  O  O4  1  0.49836000  0.25716900  0.36588500  1
  O  O5  1  0.00125600  0.74296800  0.88392800  1
  O  O6  1  0.75000400  0.00106300  0.12502100  1
  O  O7  1  0.25002800  0.49979000  0.62493300  1
loop_
_geom_bond_atom_site_label_1
_geom_bond_atom_site_label_2
_geom_bond_distance
_geom_bond_site_symmetry_2
Cs0 O7 3.520312 1_655
Cs0 O1 3.520317 1_545
Cs0 O7 3.528614 1_645
Cs0 O1 3.528624 1_555
Cs0 O6 3.531005 1_555
Cs0 O0 3.531051 1_645
Cs0 O4 3.585409 1_655
Cs0 O2 3.585412 1_545
Cs0 O2 3.608543 1_645
Cs0 O4 3.608550 1_555
Cs0 O3 3.628638 1_555
Cs0 O5 3.628645 1_645
Cs1 O2 3.406845 1_555
Cs1 O4 3.406859 1_555
Cs1 O0 3.506933 1_555
Cs1 O6 3.506956 1_555
Cs1 O6 3.511582 1_565
Cs1 O0 3.511585 1_545
Cs1 O3 3.526635 1_554
Cs1 O5 3.526645 1_554
Cs1 O5 3.533908 1_654
Cs1 O3 3.533920 1_454
Cs1 O1 3.577901 1_554
Cs1 O7 3.577920 1_554
Cs2 O7 3.523009 1_555
Cs2 O1 3.523050 1_565
Cs2 O1 3.527004 1_555
Cs2 O7 3.527061 1_565
Cs2 O0 3.530213 1_556
Cs2 O6 3.530239 1_566
Cs2 O3 3.586134 1_565
Cs2 O5 3.586148 1_555
Cs2 O5 3.605333 1_655
Cs2 O3 3.605360 1_465
Cs2 O2 3.631527 1_555
Cs2 O4 3.631552 1_565
Cs3 O3 3.408260 1_454
Cs3 O5 3.408282 1_554
Cs3 O6 3.500525 1_455
Cs3 O0 3.500547 1_555
Cs3 O0 3.517536 1_545
Cs3 O6 3.517539 1_465
Cs3 O4 3.523933 1_555
Cs3 O2 3.523968 1_455
Cs3 O2 3.535219 1_555
Cs3 O4 3.535257 1_455
Cs3 O7 3.577394 1_555
Cs3 O1 3.577432 1_455
Co0 O4 1.840492 1_555
Co0 O2 1.840504 1_555
Co0 O1 1.866871 1_555
Co0 O7 1.866876 1_555
Co1 O3 1.840286 1_455
Co1 O5 1.840296 1_555
Co1 O7 1.867682 1_555
Co1 O1 1.867697 1_455
Co2 O3 1.832728 1_454
Co2 O5 1.832740 1_544
Co2 O0 1.855159 1_545
Co2 O6 1.855178 1_455
Co3 O2 1.830745 1_555
Co3 O4 1.830753 1_565
Co3 O6 1.856895 1_565
Co3 O0 1.856925 1_555
