# generated using pymatgen
data_Li9Mn2Co5O16
_symmetry_space_group_name_H-M   'P 1'
_cell_length_a   5.16804700
_cell_length_b   7.72031333
_cell_length_c   7.73081855
_cell_angle_alpha   95.43603564
_cell_angle_beta   96.44076544
_cell_angle_gamma   108.56856523
_symmetry_Int_Tables_number   1
_chemical_formula_structural   Li9Mn2Co5O16
_chemical_formula_sum   'Li9 Mn2 Co5 O16'
_cell_volume   287.74907988
_cell_formula_units_Z   1
loop_
 _symmetry_equiv_pos_site_id
 _symmetry_equiv_pos_as_xyz
  1  'x, y, z'
loop_
 _atom_site_type_symbol
 _atom_site_label
 _atom_site_symmetry_multiplicity
 _atom_site_fract_x
 _atom_site_fract_y
 _atom_site_fract_z
 _atom_site_occupancy
  Li  Li0  1  0.43857400  0.93373900  0.80976600  1
  Li  Li1  1  0.06320400  0.56491300  0.68666600  1
  Li  Li2  1  0.68641100  0.18507500  0.56074900  1
  Li  Li3  1  0.31390300  0.81319600  0.43274500  1
  Li  Li4  1  0.93848700  0.44698800  0.31659700  1
  Li  Li5  1  0.56172700  0.05438200  0.19605800  1
  Li  Li6  1  0.18910800  0.69008300  0.06724100  1
  Li  Li7  1  0.81156400  0.31388700  0.93404200  1
  Li  Li8  1  0.74961900  0.75117400  0.25110700  1
  Mn  Mn0  1  0.99980700  0.99508900  0.99949300  1
  Mn  Mn1  1  0.37341700  0.37768900  0.12452300  1
  Co  Co0  1  0.62724000  0.62522800  0.87674300  1
  Co  Co1  1  0.24715300  0.24845300  0.74642200  1
  Co  Co2  1  0.87285500  0.86845500  0.61485500  1
  Co  Co3  1  0.50044400  0.50385200  0.49672100  1
  Co  Co4  1  0.11109100  0.11770600  0.37400600  1
  O  O0  1  0.86183900  0.08161800  0.78887900  1
  O  O1  1  0.49090900  0.71048800  0.66612300  1
  O  O2  1  0.10929900  0.33836100  0.52853600  1
  O  O3  1  0.73587700  0.97491300  0.41392400  1
  O  O4  1  0.34128200  0.57709400  0.27795700  1
  O  O5  1  0.99239600  0.21464000  0.14895100  1
  O  O6  1  0.63292800  0.84572300  0.02055000  1
  O  O7  1  0.21692600  0.45164000  0.91288300  1
  O  O8  1  0.03734200  0.79457500  0.85403700  1
  O  O9  1  0.63468400  0.41468900  0.72042700  1
  O  O10  1  0.27384200  0.04136200  0.59708900  1
  O  O11  1  0.90277600  0.66423600  0.48078700  1
  O  O12  1  0.52264300  0.29681500  0.33196100  1
  O  O13  1  0.15336400  0.92396200  0.21343300  1
  O  O14  1  0.73186500  0.52189300  0.08157100  1
  O  O15  1  0.37742600  0.15808900  0.97516500  1
loop_
_geom_bond_atom_site_label_1
_geom_bond_atom_site_label_2
_geom_bond_distance
_geom_bond_site_symmetry_2
Li0 O1 2.068487 1_555
Li0 O8 2.093140 1_555
Li0 O6 2.098396 1_556
Li0 O10 2.124557 1_565
Li0 O0 2.153626 1_565
Li0 O15 2.180482 1_565
Li1 O11 2.036838 1_455
Li1 O2 2.129779 1_555
Li1 O8 2.142634 1_555
Li1 O1 2.169015 1_555
Li1 O9 2.206568 1_455
Li1 O7 2.207912 1_555
Li2 O3 1.991643 1_545
Li2 O10 2.131411 1_555
Li2 O9 2.167713 1_555
Li2 O2 2.183957 1_655
Li2 O0 2.222536 1_555
Li2 O12 2.237663 1_555
Li3 O4 2.136229 1_555
Li3 O10 2.151103 1_565
Li3 O11 2.162570 1_455
Li3 O13 2.169147 1_555
Li3 O3 2.169634 1_555
Li3 O1 2.254652 1_555
Li4 O4 2.072722 1_655
Li4 O11 2.074765 1_555
Li4 O12 2.115043 1_555
Li4 O2 2.138803 1_655
Li4 O14 2.221046 1_555
Li4 O5 2.221232 1_555
Li5 O13 2.054675 1_545
Li5 O3 2.056847 1_545
Li5 O12 2.136249 1_555
Li5 O6 2.155646 1_545
Li5 O15 2.200968 1_554
Li5 O5 2.265088 1_555
Li6 O8 2.085072 1_554
Li6 O13 2.108156 1_555
Li6 O4 2.109931 1_555
Li6 O7 2.150405 1_554
Li6 O6 2.312517 1_555
Li6 O14 2.326832 1_455
Li7 O14 2.056427 1_556
Li7 O7 2.058500 1_655
Li7 O0 2.126805 1_555
Li7 O9 2.127517 1_555
Li7 O5 2.137684 1_556
Li7 O15 2.257324 1_555
Li8 O3 2.063811 1_555
Li8 O14 2.071127 1_555
Li8 O6 2.087858 1_555
Li8 O11 2.116282 1_555
Li8 O4 2.155813 1_555
Li8 O13 2.157626 1_655
Mn0 O8 1.899706 1_655
Mn0 O6 1.914048 1_556
Mn0 O13 1.954982 1_656
Mn0 O0 1.963351 1_565
Mn0 O5 1.972240 1_566
Mn0 O15 1.997658 1_665
Mn1 O4 1.914572 1_555
Mn1 O14 1.917273 1_555
Mn1 O12 1.943002 1_555
Mn1 O7 1.957348 1_554
Mn1 O15 1.965915 1_554
Mn1 O5 2.011847 1_455
Co0 O6 1.933096 1_556
Co0 O14 1.938617 1_556
Co0 O9 1.944720 1_555
Co0 O1 1.954989 1_555
Co0 O8 2.143429 1_655
Co0 O7 2.182808 1_555
Co1 O10 1.932475 1_555
Co1 O7 1.989942 1_555
Co1 O2 2.023347 1_555
Co1 O9 2.049578 1_555
Co1 O0 2.079740 1_455
Co1 O15 2.081558 1_555
Co2 O11 1.861597 1_555
Co2 O3 1.988795 1_555
Co2 O0 2.044223 1_565
Co2 O1 2.067532 1_555
Co2 O10 2.105255 1_665
Co2 O8 2.150118 1_655
Co3 O1 1.982723 1_555
Co3 O12 1.988525 1_555
Co3 O4 2.005464 1_555
Co3 O9 2.051001 1_555
Co3 O2 2.074938 1_555
Co3 O11 2.078072 1_555
Co4 O13 1.934729 1_545
Co4 O3 1.976863 1_445
Co4 O2 1.989020 1_555
Co4 O10 2.052322 1_555
Co4 O5 2.064718 1_455
Co4 O12 2.215554 1_555
