# generated using pymatgen
data_NaMg(PO3)3
_symmetry_space_group_name_H-M   'P 1'
_cell_length_a   14.43206961
_cell_length_b   14.43206961
_cell_length_c   14.43206961
_cell_angle_alpha   90.00000000
_cell_angle_beta   90.00000000
_cell_angle_gamma   90.00000000
_symmetry_Int_Tables_number   1
_chemical_formula_structural   NaMg(PO3)3
_chemical_formula_sum   'Na16 Mg16 P48 O144'
_cell_volume   3005.97832544
_cell_formula_units_Z   16
loop_
 _symmetry_equiv_pos_site_id
 _symmetry_equiv_pos_as_xyz
  1  'x, y, z'
loop_
 _atom_site_type_symbol
 _atom_site_label
 _atom_site_symmetry_multiplicity
 _atom_site_fract_x
 _atom_site_fract_y
 _atom_site_fract_z
 _atom_site_occupancy
  Na  Na0  1  0.00000000  0.00000000  0.50000000  1
  Na  Na1  1  0.00000000  0.50000000  -0.00000000  1
  Na  Na2  1  0.50000000  0.00000000  -0.00000000  1
  Na  Na3  1  0.50000000  0.50000000  0.50000000  1
  Na  Na4  1  0.50000000  0.50000000  -0.00000000  1
  Na  Na5  1  0.50000000  0.00000000  0.50000000  1
  Na  Na6  1  0.00000000  0.50000000  0.50000000  1
  Na  Na7  1  0.00000000  0.00000000  -0.00000000  1
  Na  Na8  1  0.25027962  0.74972038  0.24972038  1
  Na  Na9  1  0.74972038  0.24972038  0.25027962  1
  Na  Na10  1  0.24972038  0.25027962  0.74972038  1
  Na  Na11  1  0.75027962  0.75027962  0.75027962  1
  Na  Na12  1  0.74972038  0.25027962  0.75027962  1
  Na  Na13  1  0.25027962  0.75027962  0.74972038  1
  Na  Na14  1  0.75027962  0.74972038  0.25027962  1
  Na  Na15  1  0.24972038  0.24972038  0.24972038  1
  Mg  Mg0  1  0.37025639  0.62974361  0.12974361  1
  Mg  Mg1  1  0.62974361  0.12974361  0.37025639  1
  Mg  Mg2  1  0.12974361  0.37025639  0.62974361  1
  Mg  Mg3  1  0.87025639  0.87025639  0.87025639  1
  Mg  Mg4  1  0.62974361  0.37025639  0.87025639  1
  Mg  Mg5  1  0.37025639  0.87025639  0.62974361  1
  Mg  Mg6  1  0.87025639  0.62974361  0.37025639  1
  Mg  Mg7  1  0.12974361  0.12974361  0.12974361  1
  Mg  Mg8  1  0.12509216  0.87490784  0.37490784  1
  Mg  Mg9  1  0.87490784  0.37490784  0.12509216  1
  Mg  Mg10  1  0.37490784  0.12509216  0.87490784  1
  Mg  Mg11  1  0.62509216  0.62509216  0.62509216  1
  Mg  Mg12  1  0.87490784  0.12509216  0.62509216  1
  Mg  Mg13  1  0.12509216  0.62509216  0.87490784  1
  Mg  Mg14  1  0.62509216  0.87490784  0.12509216  1
  Mg  Mg15  1  0.37490784  0.37490784  0.37490784  1
  P  P0  1  0.02167059  0.52423722  0.24270314  1
  P  P1  1  0.97832941  0.02423722  0.25729686  1
  P  P2  1  0.47832941  0.47576278  0.74270314  1
  P  P3  1  0.52167059  0.97576278  0.75729686  1
  P  P4  1  0.24270314  0.02167059  0.52423722  1
  P  P5  1  0.25729686  0.97832941  0.02423722  1
  P  P6  1  0.74270314  0.47832941  0.47576278  1
  P  P7  1  0.75729686  0.52167059  0.97576278  1
  P  P8  1  0.52423722  0.24270314  0.02167059  1
  P  P9  1  0.02423722  0.25729686  0.97832941  1
  P  P10  1  0.47576278  0.74270314  0.47832941  1
  P  P11  1  0.97576278  0.75729686  0.52167059  1
  P  P12  1  0.97832941  0.47576278  0.75729686  1
  P  P13  1  0.02167059  0.97576278  0.74270314  1
  P  P14  1  0.52167059  0.52423722  0.25729686  1
  P  P15  1  0.47832941  0.02423722  0.24270314  1
  P  P16  1  0.75729686  0.97832941  0.47576278  1
  P  P17  1  0.74270314  0.02167059  0.97576278  1
  P  P18  1  0.25729686  0.52167059  0.52423722  1
  P  P19  1  0.24270314  0.47832941  0.02423722  1
  P  P20  1  0.47576278  0.75729686  0.97832941  1
  P  P21  1  0.97576278  0.74270314  0.02167059  1
  P  P22  1  0.52423722  0.25729686  0.52167059  1
  P  P23  1  0.02423722  0.24270314  0.47832941  1
  P  P24  1  0.01156873  0.72775901  0.22495992  1
  P  P25  1  0.98843127  0.22775901  0.27504008  1
  P  P26  1  0.48843127  0.27224099  0.72495992  1
  P  P27  1  0.51156873  0.77224099  0.77504008  1
  P  P28  1  0.22495992  0.01156873  0.72775901  1
  P  P29  1  0.27504008  0.98843127  0.22775901  1
  P  P30  1  0.72495992  0.48843127  0.27224099  1
  P  P31  1  0.77504008  0.51156873  0.77224099  1
  P  P32  1  0.72775901  0.22495992  0.01156873  1
  P  P33  1  0.22775901  0.27504008  0.98843127  1
  P  P34  1  0.27224099  0.72495992  0.48843127  1
  P  P35  1  0.77224099  0.77504008  0.51156873  1
  P  P36  1  0.98843127  0.27224099  0.77504008  1
  P  P37  1  0.01156873  0.77224099  0.72495992  1
  P  P38  1  0.51156873  0.72775901  0.27504008  1
  P  P39  1  0.48843127  0.22775901  0.22495992  1
  P  P40  1  0.77504008  0.98843127  0.27224099  1
  P  P41  1  0.72495992  0.01156873  0.77224099  1
  P  P42  1  0.27504008  0.51156873  0.72775901  1
  P  P43  1  0.22495992  0.48843127  0.22775901  1
  P  P44  1  0.27224099  0.77504008  0.98843127  1
  P  P45  1  0.77224099  0.72495992  0.01156873  1
  P  P46  1  0.72775901  0.27504008  0.51156873  1
  P  P47  1  0.22775901  0.22495992  0.48843127  1
  O  O0  1  0.37642643  0.99049733  0.27435956  1
  O  O1  1  0.62357357  0.49049733  0.22564044  1
  O  O2  1  0.12357357  0.00950267  0.77435956  1
  O  O3  1  0.87642643  0.50950267  0.72564044  1
  O  O4  1  0.27435956  0.37642643  0.99049733  1
  O  O5  1  0.22564044  0.62357357  0.49049733  1
  O  O6  1  0.77435956  0.12357357  0.00950267  1
  O  O7  1  0.72564044  0.87642643  0.50950267  1
  O  O8  1  0.99049733  0.27435956  0.37642643  1
  O  O9  1  0.49049733  0.22564044  0.62357357  1
  O  O10  1  0.00950267  0.77435956  0.12357357  1
  O  O11  1  0.50950267  0.72564044  0.87642643  1
  O  O12  1  0.62357357  0.00950267  0.72564044  1
  O  O13  1  0.37642643  0.50950267  0.77435956  1
  O  O14  1  0.87642643  0.99049733  0.22564044  1
  O  O15  1  0.12357357  0.49049733  0.27435956  1
  O  O16  1  0.72564044  0.62357357  0.00950267  1
  O  O17  1  0.77435956  0.37642643  0.50950267  1
  O  O18  1  0.22564044  0.87642643  0.99049733  1
  O  O19  1  0.27435956  0.12357357  0.49049733  1
  O  O20  1  0.00950267  0.72564044  0.62357357  1
  O  O21  1  0.50950267  0.77435956  0.37642643  1
  O  O22  1  0.99049733  0.22564044  0.87642643  1
  O  O23  1  0.49049733  0.27435956  0.12357357  1
  O  O24  1  0.46876677  0.53442652  0.16869677  1
  O  O25  1  0.53123323  0.03442652  0.33130323  1
  O  O26  1  0.03123323  0.46557348  0.66869677  1
  O  O27  1  0.96876677  0.96557348  0.83130323  1
  O  O28  1  0.16869677  0.46876677  0.53442652  1
  O  O29  1  0.33130323  0.53123323  0.03442652  1
  O  O30  1  0.66869677  0.03123323  0.46557348  1
  O  O31  1  0.83130323  0.96876677  0.96557348  1
  O  O32  1  0.53442652  0.16869677  0.46876677  1
  O  O33  1  0.03442652  0.33130323  0.53123323  1
  O  O34  1  0.46557348  0.66869677  0.03123323  1
  O  O35  1  0.96557348  0.83130323  0.96876677  1
  O  O36  1  0.53123323  0.46557348  0.83130323  1
  O  O37  1  0.46876677  0.96557348  0.66869677  1
  O  O38  1  0.96876677  0.53442652  0.33130323  1
  O  O39  1  0.03123323  0.03442652  0.16869677  1
  O  O40  1  0.83130323  0.53123323  0.46557348  1
  O  O41  1  0.66869677  0.46876677  0.96557348  1
  O  O42  1  0.33130323  0.96876677  0.53442652  1
  O  O43  1  0.16869677  0.03123323  0.03442652  1
  O  O44  1  0.46557348  0.83130323  0.53123323  1
  O  O45  1  0.96557348  0.66869677  0.46876677  1
  O  O46  1  0.53442652  0.33130323  0.96876677  1
  O  O47  1  0.03442652  0.16869677  0.03123323  1
  O  O48  1  0.01639764  0.96510662  0.33377421  1
  O  O49  1  0.98360236  0.46510662  0.16622579  1
  O  O50  1  0.48360236  0.03489338  0.83377421  1
  O  O51  1  0.51639764  0.53489338  0.66622579  1
  O  O52  1  0.33377421  0.01639764  0.96510662  1
  O  O53  1  0.16622579  0.98360236  0.46510662  1
  O  O54  1  0.83377421  0.48360236  0.03489338  1
  O  O55  1  0.66622579  0.51639764  0.53489338  1
  O  O56  1  0.96510662  0.33377421  0.01639764  1
  O  O57  1  0.46510662  0.16622579  0.98360236  1
  O  O58  1  0.03489338  0.83377421  0.48360236  1
  O  O59  1  0.53489338  0.66622579  0.51639764  1
  O  O60  1  0.98360236  0.03489338  0.66622579  1
  O  O61  1  0.01639764  0.53489338  0.83377421  1
  O  O62  1  0.51639764  0.96510662  0.16622579  1
  O  O63  1  0.48360236  0.46510662  0.33377421  1
  O  O64  1  0.66622579  0.98360236  0.03489338  1
  O  O65  1  0.83377421  0.01639764  0.53489338  1
  O  O66  1  0.16622579  0.51639764  0.96510662  1
  O  O67  1  0.33377421  0.48360236  0.46510662  1
  O  O68  1  0.03489338  0.66622579  0.98360236  1
  O  O69  1  0.53489338  0.83377421  0.01639764  1
  O  O70  1  0.96510662  0.16622579  0.51639764  1
  O  O71  1  0.46510662  0.33377421  0.48360236  1
  O  O72  1  0.41606782  0.72310965  0.23333276  1
  O  O73  1  0.58393218  0.22310965  0.26666724  1
  O  O74  1  0.08393218  0.27689035  0.73333276  1
  O  O75  1  0.91606782  0.77689035  0.76666724  1
  O  O76  1  0.23333276  0.41606782  0.72310965  1
  O  O77  1  0.26666724  0.58393218  0.22310965  1
  O  O78  1  0.73333276  0.08393218  0.27689035  1
  O  O79  1  0.76666724  0.91606782  0.77689035  1
  O  O80  1  0.72310965  0.23333276  0.41606782  1
  O  O81  1  0.22310965  0.26666724  0.58393218  1
  O  O82  1  0.27689035  0.73333276  0.08393218  1
  O  O83  1  0.77689035  0.76666724  0.91606782  1
  O  O84  1  0.58393218  0.27689035  0.76666724  1
  O  O85  1  0.41606782  0.77689035  0.73333276  1
  O  O86  1  0.91606782  0.72310965  0.26666724  1
  O  O87  1  0.08393218  0.22310965  0.23333276  1
  O  O88  1  0.76666724  0.58393218  0.27689035  1
  O  O89  1  0.73333276  0.41606782  0.77689035  1
  O  O90  1  0.26666724  0.91606782  0.72310965  1
  O  O91  1  0.23333276  0.08393218  0.22310965  1
  O  O92  1  0.27689035  0.76666724  0.58393218  1
  O  O93  1  0.77689035  0.73333276  0.41606782  1
  O  O94  1  0.72310965  0.26666724  0.91606782  1
  O  O95  1  0.22310965  0.23333276  0.08393218  1
  O  O96  1  0.08741227  0.77562221  0.27666695  1
  O  O97  1  0.91258773  0.27562221  0.22333305  1
  O  O98  1  0.41258773  0.22437779  0.77666695  1
  O  O99  1  0.58741227  0.72437779  0.72333305  1
  O  O100  1  0.27666695  0.08741227  0.77562221  1
  O  O101  1  0.22333305  0.91258773  0.27562221  1
  O  O102  1  0.77666695  0.41258773  0.22437779  1
  O  O103  1  0.72333305  0.58741227  0.72437779  1
  O  O104  1  0.77562221  0.27666695  0.08741227  1
  O  O105  1  0.27562221  0.22333305  0.91258773  1
  O  O106  1  0.22437779  0.77666695  0.41258773  1
  O  O107  1  0.72437779  0.72333305  0.58741227  1
  O  O108  1  0.91258773  0.22437779  0.72333305  1
  O  O109  1  0.08741227  0.72437779  0.77666695  1
  O  O110  1  0.58741227  0.77562221  0.22333305  1
  O  O111  1  0.41258773  0.27562221  0.27666695  1
  O  O112  1  0.72333305  0.91258773  0.22437779  1
  O  O113  1  0.77666695  0.08741227  0.72437779  1
  O  O114  1  0.22333305  0.58741227  0.77562221  1
  O  O115  1  0.27666695  0.41258773  0.27562221  1
  O  O116  1  0.22437779  0.72333305  0.91258773  1
  O  O117  1  0.72437779  0.77666695  0.08741227  1
  O  O118  1  0.77562221  0.22333305  0.58741227  1
  O  O119  1  0.27562221  0.27666695  0.41258773  1
  O  O120  1  0.04495668  0.62420365  0.19728254  1
  O  O121  1  0.95504332  0.12420365  0.30271746  1
  O  O122  1  0.45504332  0.37579635  0.69728254  1
  O  O123  1  0.54495668  0.87579635  0.80271746  1
  O  O124  1  0.19728254  0.04495668  0.62420365  1
  O  O125  1  0.30271746  0.95504332  0.12420365  1
  O  O126  1  0.69728254  0.45504332  0.37579635  1
  O  O127  1  0.80271746  0.54495668  0.87579635  1
  O  O128  1  0.62420365  0.19728254  0.04495668  1
  O  O129  1  0.12420365  0.30271746  0.95504332  1
  O  O130  1  0.37579635  0.69728254  0.45504332  1
  O  O131  1  0.87579635  0.80271746  0.54495668  1
  O  O132  1  0.95504332  0.37579635  0.80271746  1
  O  O133  1  0.04495668  0.87579635  0.69728254  1
  O  O134  1  0.54495668  0.62420365  0.30271746  1
  O  O135  1  0.45504332  0.12420365  0.19728254  1
  O  O136  1  0.80271746  0.95504332  0.37579635  1
  O  O137  1  0.69728254  0.04495668  0.87579635  1
  O  O138  1  0.30271746  0.54495668  0.62420365  1
  O  O139  1  0.19728254  0.45504332  0.12420365  1
  O  O140  1  0.37579635  0.80271746  0.95504332  1
  O  O141  1  0.87579635  0.69728254  0.04495668  1
  O  O142  1  0.62420365  0.30271746  0.54495668  1
  O  O143  1  0.12420365  0.19728254  0.45504332  1
loop_
_geom_bond_atom_site_label_1
_geom_bond_atom_site_label_2
_geom_bond_distance
_geom_bond_site_symmetry_2
Na0 O48 2.462664 1_545
Na0 O53 2.462664 1_545
Na0 O70 2.462664 1_455
Na0 O58 2.462664 1_545
Na0 O65 2.462664 1_455
Na0 O60 2.462664 1_455
Na1 O56 2.462664 1_455
Na1 O66 2.462664 1_554
Na1 O49 2.462664 1_455
Na1 O54 2.462664 1_455
Na1 O68 2.462664 1_554
Na1 O61 2.462664 1_554
Na2 O52 2.462664 1_554
Na2 O57 2.462664 1_554
Na2 O62 2.462664 1_545
Na2 O64 2.462664 1_545
Na2 O50 2.462664 1_554
Na2 O69 2.462664 1_545
Na3 O63 2.462664 1_555
Na3 O67 2.462664 1_555
Na3 O71 2.462664 1_555
Na3 O59 2.462664 1_555
Na3 O51 2.462664 1_555
Na3 O55 2.462664 1_555
Na4 O29 2.525377 1_555
Na4 O46 2.525377 1_554
Na4 O24 2.525377 1_555
Na4 O41 2.525377 1_554
Na4 O34 2.525377 1_555
Na4 O36 2.525377 1_554
Na5 O42 2.525377 1_545
Na5 O32 2.525377 1_555
Na5 O25 2.525377 1_555
Na5 O30 2.525377 1_555
Na5 O37 2.525377 1_545
Na5 O44 2.525377 1_545
Na6 O33 2.525377 1_555
Na6 O38 2.525377 1_455
Na6 O28 2.525377 1_555
Na6 O40 2.525377 1_455
Na6 O26 2.525377 1_555
Na6 O45 2.525377 1_455
Na7 O39 2.525377 1_555
Na7 O43 2.525377 1_555
Na7 O47 2.525377 1_555
Na7 O27 2.525377 1_444
Na7 O31 2.525377 1_444
Na7 O35 2.525377 1_444
Na8 O96 2.411616 1_555
Na8 O106 2.411616 1_555
Na8 O101 2.411616 1_555
Na8 O77 2.434807 1_555
Na8 O72 2.434807 1_555
Na8 O82 2.434807 1_555
Na9 O104 2.411616 1_555
Na9 O102 2.411616 1_555
Na9 O97 2.411616 1_555
Na9 O73 2.434807 1_555
Na9 O80 2.434807 1_555
Na9 O78 2.434807 1_555
Na10 O100 2.411616 1_555
Na10 O98 2.411616 1_555
Na10 O105 2.411616 1_555
Na10 O81 2.434807 1_555
Na10 O76 2.434807 1_555
Na10 O74 2.434807 1_555
Na11 O99 2.411616 1_555
Na11 O103 2.411616 1_555
Na11 O107 2.411616 1_555
Na11 O83 2.434807 1_555
Na11 O75 2.434807 1_555
Na11 O79 2.434807 1_555
Na12 O113 2.411616 1_555
Na12 O108 2.411616 1_555
Na12 O118 2.411616 1_555
Na12 O94 2.434807 1_555
Na12 O84 2.434807 1_555
Na12 O89 2.434807 1_555
Na13 O109 2.411616 1_555
Na13 O114 2.411616 1_555
Na13 O116 2.411616 1_555
Na13 O90 2.434807 1_555
Na13 O92 2.434807 1_555
Na13 O85 2.434807 1_555
Na14 O117 2.411616 1_555
Na14 O112 2.411616 1_555
Na14 O110 2.411616 1_555
Na14 O86 2.434807 1_555
Na14 O88 2.434807 1_555
Na14 O93 2.434807 1_555
Na15 O115 2.411616 1_555
Na15 O119 2.411616 1_555
Na15 O111 2.411616 1_555
Na15 O91 2.434807 1_555
Na15 O95 2.434807 1_555
Na15 O87 2.434807 1_555
Mg0 O24 2.056607 1_555
Mg0 O29 2.056607 1_555
Mg0 O34 2.056607 1_555
Mg0 O77 2.118450 1_555
Mg0 O72 2.118450 1_555
Mg0 O82 2.118450 1_555
Mg1 O32 2.056607 1_555
Mg1 O25 2.056607 1_555
Mg1 O30 2.056607 1_555
Mg1 O73 2.118450 1_555
Mg1 O80 2.118450 1_555
Mg1 O78 2.118450 1_555
Mg2 O33 2.056607 1_555
Mg2 O28 2.056607 1_555
Mg2 O26 2.056607 1_555
Mg2 O81 2.118450 1_555
Mg2 O76 2.118450 1_555
Mg2 O74 2.118450 1_555
Mg3 O35 2.056607 1_555
Mg3 O27 2.056607 1_555
Mg3 O31 2.056607 1_555
Mg3 O75 2.118450 1_555
Mg3 O79 2.118450 1_555
Mg3 O83 2.118450 1_555
Mg4 O46 2.056607 1_555
Mg4 O36 2.056607 1_555
Mg4 O41 2.056607 1_555
Mg4 O94 2.118450 1_555
Mg4 O84 2.118450 1_555
Mg4 O89 2.118450 1_555
Mg5 O42 2.056607 1_555
Mg5 O37 2.056607 1_555
Mg5 O44 2.056607 1_555
Mg5 O92 2.118450 1_555
Mg5 O90 2.118450 1_555
Mg5 O85 2.118450 1_555
Mg6 O38 2.056607 1_555
Mg6 O45 2.056607 1_555
Mg6 O40 2.056607 1_555
Mg6 O88 2.118450 1_555
Mg6 O86 2.118450 1_555
Mg6 O93 2.118450 1_555
Mg7 O47 2.056607 1_555
Mg7 O39 2.056607 1_555
Mg7 O43 2.056607 1_555
Mg7 O87 2.118450 1_555
Mg7 O91 2.118450 1_555
Mg7 O95 2.118450 1_555
Mg8 O96 2.087851 1_555
Mg8 O106 2.087851 1_555
Mg8 O101 2.087851 1_555
Mg8 O48 2.123148 1_555
Mg8 O58 2.123148 1_555
Mg8 O53 2.123148 1_555
Mg9 O104 2.087851 1_555
Mg9 O102 2.087851 1_555
Mg9 O97 2.087851 1_555
Mg9 O54 2.123148 1_555
Mg9 O56 2.123148 1_555
Mg9 O49 2.123148 1_555
Mg10 O98 2.087851 1_555
Mg10 O100 2.087851 1_555
Mg10 O105 2.087851 1_555
Mg10 O52 2.123148 1_555
Mg10 O50 2.123148 1_555
Mg10 O57 2.123148 1_555
Mg11 O99 2.087851 1_555
Mg11 O107 2.087851 1_555
Mg11 O103 2.087851 1_555
Mg11 O51 2.123148 1_555
Mg11 O55 2.123148 1_555
Mg11 O59 2.123148 1_555
Mg12 O118 2.087851 1_555
Mg12 O113 2.087851 1_555
Mg12 O108 2.087851 1_555
Mg12 O60 2.123148 1_555
Mg12 O70 2.123148 1_555
Mg12 O65 2.123148 1_555
Mg13 O114 2.087851 1_555
Mg13 O109 2.087851 1_555
Mg13 O116 2.087851 1_555
Mg13 O66 2.123148 1_555
Mg13 O61 2.123148 1_555
Mg13 O68 2.123148 1_555
Mg14 O112 2.087851 1_555
Mg14 O117 2.087851 1_555
Mg14 O110 2.087851 1_555
Mg14 O64 2.123148 1_555
Mg14 O69 2.123148 1_555
Mg14 O62 2.123148 1_555
Mg15 O119 2.087851 1_555
Mg15 O111 2.087851 1_555
Mg15 O115 2.087851 1_555
Mg15 O63 2.123148 1_555
Mg15 O67 2.123148 1_555
Mg15 O71 2.123148 1_555
O0 P29 1.610652 1_555
O0 P15 1.615150 1_565
O1 P30 1.610652 1_555
O1 P14 1.615150 1_555
O2 P28 1.610652 1_555
O2 P13 1.615150 1_545
O3 P31 1.610652 1_555
O3 P12 1.615150 1_555
O4 P33 1.610652 1_555
O4 P19 1.615150 1_556
O5 P34 1.610652 1_555
O5 P18 1.615150 1_555
O6 P32 1.610652 1_555
O6 P17 1.615150 1_554
O7 P35 1.610652 1_555
O7 P16 1.615150 1_555
O8 P25 1.610652 1_555
O8 P23 1.615150 1_655
O9 P26 1.610652 1_555
O9 P22 1.615150 1_555
O10 P24 1.610652 1_555
O10 P21 1.615150 1_455
O11 P27 1.610652 1_555
O11 P20 1.615150 1_555
O12 P41 1.610652 1_555
O12 P3 1.615150 1_545
O13 P42 1.610652 1_555
O13 P2 1.615150 1_555
O14 P40 1.610652 1_555
O14 P1 1.615150 1_565
O15 P43 1.610652 1_555
O15 P0 1.615150 1_555
O16 P45 1.610652 1_555
O16 P7 1.615150 1_554
O17 P46 1.610652 1_555
O17 P6 1.615150 1_555
O18 P44 1.610652 1_555
O18 P5 1.615150 1_556
O19 P47 1.610652 1_555
O19 P4 1.615150 1_555
O20 P37 1.610652 1_555
O20 P11 1.615150 1_455
O21 P38 1.610652 1_555
O21 P10 1.615150 1_555
O22 P36 1.610652 1_555
O22 P9 1.615150 1_655
O23 P39 1.610652 1_555
O23 P8 1.615150 1_555
O24 P14 1.496531 1_555
O25 P15 1.496531 1_555
O26 P12 1.496531 1_455
O27 P13 1.496531 1_655
O28 P18 1.496531 1_555
O29 P19 1.496531 1_555
O30 P16 1.496531 1_545
O31 P17 1.496531 1_565
O32 P22 1.496531 1_555
O33 P23 1.496531 1_555
O34 P20 1.496531 1_554
O35 P21 1.496531 1_556
O36 P2 1.496531 1_555
O37 P3 1.496531 1_555
O38 P0 1.496531 1_655
O39 P1 1.496531 1_455
O40 P6 1.496531 1_555
O41 P7 1.496531 1_555
O42 P4 1.496531 1_565
O43 P5 1.496531 1_545
O44 P10 1.496531 1_555
O45 P11 1.496531 1_555
O46 P8 1.496531 1_556
O47 P9 1.496531 1_554
O48 P1 1.499436 1_465
O49 P0 1.499436 1_655
O50 P3 1.499436 1_545
O51 P2 1.499436 1_555
O52 P5 1.499436 1_546
O53 P4 1.499436 1_565
O54 P7 1.499436 1_554
O55 P6 1.499436 1_555
O56 P9 1.499436 1_654
O57 P8 1.499436 1_556
O58 P11 1.499436 1_455
O59 P10 1.499436 1_555
O60 P13 1.499436 1_645
O61 P12 1.499436 1_455
O62 P15 1.499436 1_565
O63 P14 1.499436 1_555
O64 P17 1.499436 1_564
O65 P16 1.499436 1_545
O66 P19 1.499436 1_556
O67 P18 1.499436 1_555
O68 P21 1.499436 1_456
O69 P20 1.499436 1_554
O70 P23 1.499436 1_655
O71 P22 1.499436 1_555
O72 P38 1.505476 1_555
O73 P39 1.505476 1_555
O74 P36 1.505476 1_455
O75 P37 1.505476 1_655
O76 P42 1.505476 1_555
O77 P43 1.505476 1_555
O78 P40 1.505476 1_545
O79 P41 1.505476 1_565
O80 P46 1.505476 1_555
O81 P47 1.505476 1_555
O82 P44 1.505476 1_554
O83 P45 1.505476 1_556
O84 P26 1.505476 1_555
O85 P27 1.505476 1_555
O86 P24 1.505476 1_655
O87 P25 1.505476 1_455
O88 P30 1.505476 1_555
O89 P31 1.505476 1_555
O90 P28 1.505476 1_565
O91 P29 1.505476 1_545
O92 P34 1.505476 1_555
O93 P35 1.505476 1_555
O94 P32 1.505476 1_556
O95 P33 1.505476 1_554
O96 P24 1.494033 1_555
O97 P25 1.494033 1_555
O98 P26 1.494033 1_555
O99 P27 1.494033 1_555
O100 P28 1.494033 1_555
O101 P29 1.494033 1_555
O102 P30 1.494033 1_555
O103 P31 1.494033 1_555
O104 P32 1.494033 1_555
O105 P33 1.494033 1_555
O106 P34 1.494033 1_555
O107 P35 1.494033 1_555
O108 P36 1.494033 1_555
O109 P37 1.494033 1_555
O110 P38 1.494033 1_555
O111 P39 1.494033 1_555
O112 P40 1.494033 1_555
O113 P41 1.494033 1_555
O114 P42 1.494033 1_555
O115 P43 1.494033 1_555
O116 P44 1.494033 1_555
O117 P45 1.494033 1_555
O118 P46 1.494033 1_555
O119 P47 1.494033 1_555
O120 P0 1.619903 1_555
O120 P24 1.620285 1_555
O121 P1 1.619903 1_555
O121 P25 1.620285 1_555
O122 P2 1.619903 1_555
O122 P26 1.620285 1_555
O123 P3 1.619903 1_555
O123 P27 1.620285 1_555
O124 P4 1.619903 1_555
O124 P28 1.620285 1_555
O125 P5 1.619903 1_555
O125 P29 1.620285 1_555
O126 P6 1.619903 1_555
O126 P30 1.620285 1_555
O127 P7 1.619903 1_555
O127 P31 1.620285 1_555
O128 P8 1.619903 1_555
O128 P32 1.620285 1_555
O129 P9 1.619903 1_555
O129 P33 1.620285 1_555
O130 P10 1.619903 1_555
O130 P34 1.620285 1_555
O131 P11 1.619903 1_555
O131 P35 1.620285 1_555
O132 P12 1.619903 1_555
O132 P36 1.620285 1_555
O133 P13 1.619903 1_555
O133 P37 1.620285 1_555
O134 P14 1.619903 1_555
O134 P38 1.620285 1_555
O135 P15 1.619903 1_555
O135 P39 1.620285 1_555
O136 P16 1.619903 1_555
O136 P40 1.620285 1_555
O137 P17 1.619903 1_555
O137 P41 1.620285 1_555
O138 P18 1.619903 1_555
O138 P42 1.620285 1_555
O139 P19 1.619903 1_555
O139 P43 1.620285 1_555
O140 P20 1.619903 1_555
O140 P44 1.620285 1_555
O141 P21 1.619903 1_555
O141 P45 1.620285 1_555
O142 P22 1.619903 1_555
O142 P46 1.620285 1_555
O143 P23 1.619903 1_555
O143 P47 1.620285 1_555
