# generated using pymatgen
data_Er3In
_symmetry_space_group_name_H-M   'P 1'
_cell_length_a   6.75214883
_cell_length_b   6.75214746
_cell_length_c   5.57313403
_cell_angle_alpha   90.00000000
_cell_angle_beta   90.00000000
_cell_angle_gamma   120.00002849
_symmetry_Int_Tables_number   1
_chemical_formula_structural   Er3In
_chemical_formula_sum   'Er6 In2'
_cell_volume   220.04622359
_cell_formula_units_Z   2
loop_
 _symmetry_equiv_pos_site_id
 _symmetry_equiv_pos_as_xyz
  1  'x, y, z'
loop_
 _atom_site_type_symbol
 _atom_site_label
 _atom_site_symmetry_multiplicity
 _atom_site_fract_x
 _atom_site_fract_y
 _atom_site_fract_z
 _atom_site_occupancy
  Er  Er0  1  0.82943292  0.17056608  0.75000000  1
  Er  Er1  1  0.34113317  0.17056708  0.75000000  1
  Er  Er2  1  0.82943292  0.65886683  0.75000000  1
  Er  Er3  1  0.17056708  0.82943392  0.25000000  1
  Er  Er4  1  0.65886683  0.82943292  0.25000000  1
  Er  Er5  1  0.17056708  0.34113317  0.25000000  1
  In  In0  1  0.66666600  0.33333300  0.25000000  1
  In  In1  1  0.33333400  0.66666700  0.75000000  1
loop_
_geom_bond_atom_site_label_1
_geom_bond_atom_site_label_2
_geom_bond_distance
_geom_bond_site_symmetry_2
Er0 Er1 3.297076 1_555
Er0 Er2 3.297079 1_555
Er0 In0 3.374690 1_556
Er0 In0 3.374690 1_555
Er0 In1 3.376374 1_545
Er0 In1 3.376387 1_655
Er0 Er4 3.426971 1_546
Er0 Er4 3.426971 1_545
Er0 Er5 3.426974 1_655
Er0 Er5 3.426974 1_656
Er0 Er2 3.455069 1_545
Er0 Er1 3.455073 1_655
Er1 Er2 3.297071 1_555
Er1 In0 3.374686 1_555
Er1 In0 3.374686 1_556
Er1 In1 3.376378 1_555
Er1 In1 3.376385 1_545
Er1 Er5 3.426968 1_555
Er1 Er5 3.426968 1_556
Er1 Er3 3.426971 1_546
Er1 Er3 3.426971 1_545
Er1 Er2 3.455074 1_445
Er2 In0 3.374690 1_556
Er2 In0 3.374690 1_555
Er2 In1 3.376376 1_555
Er2 In1 3.376389 1_655
Er2 Er4 3.426968 1_556
Er2 Er4 3.426968 1_555
Er2 Er3 3.426974 1_656
Er2 Er3 3.426974 1_655
Er3 Er4 3.297076 1_555
Er3 Er5 3.297079 1_555
Er3 In1 3.374690 1_554
Er3 In1 3.374690 1_555
Er3 In0 3.376374 1_565
Er3 In0 3.376387 1_455
Er3 Er5 3.455069 1_565
Er3 Er4 3.455073 1_455
Er4 Er5 3.297071 1_555
Er4 In1 3.374686 1_554
Er4 In1 3.374686 1_555
Er4 In0 3.376378 1_555
Er4 In0 3.376385 1_565
Er4 Er5 3.455074 1_665
Er5 In1 3.374690 1_554
Er5 In1 3.374690 1_555
Er5 In0 3.376376 1_555
Er5 In0 3.376389 1_455
