# generated using pymatgen
data_Li9Mn2Co5O16
_symmetry_space_group_name_H-M   'P 1'
_cell_length_a   5.83561100
_cell_length_b   6.56728978
_cell_length_c   8.72969560
_cell_angle_alpha   82.68672294
_cell_angle_beta   109.35775011
_cell_angle_gamma   115.87423451
_symmetry_Int_Tables_number   1
_chemical_formula_structural   Li9Mn2Co5O16
_chemical_formula_sum   'Li9 Mn2 Co5 O16'
_cell_volume   283.94323916
_cell_formula_units_Z   1
loop_
 _symmetry_equiv_pos_site_id
 _symmetry_equiv_pos_as_xyz
  1  'x, y, z'
loop_
 _atom_site_type_symbol
 _atom_site_label
 _atom_site_symmetry_multiplicity
 _atom_site_fract_x
 _atom_site_fract_y
 _atom_site_fract_z
 _atom_site_occupancy
  Li  Li0  1  0.75035700  0.74676000  0.26033000  1
  Li  Li1  1  0.24794600  0.99602500  0.50107700  1
  Li  Li2  1  0.25754800  0.74641100  0.25794200  1
  Li  Li3  1  0.75623400  0.00847400  0.50243200  1
  Li  Li4  1  0.74951200  0.25203800  0.74235800  1
  Li  Li5  1  0.24445100  0.25430800  0.74180800  1
  Li  Li6  1  0.24831300  0.50600000  0.00193800  1
  Li  Li7  1  0.74972200  0.49764100  0.99558200  1
  Li  Li8  1  0.99781500  0.49886000  0.50077800  1
  Mn  Mn0  1  0.99885800  0.99859700  0.99816300  1
  Mn  Mn1  1  0.50735400  0.25225600  0.25177400  1
  Co  Co0  1  0.48306900  0.74084100  0.73993400  1
  Co  Co1  1  0.49846000  0.99895500  0.00121000  1
  Co  Co2  1  0.00119400  0.25252600  0.25367300  1
  Co  Co3  1  0.49987200  0.49840700  0.50194500  1
  Co  Co4  1  0.99777700  0.74253200  0.73841500  1
  O  O0  1  0.13485000  0.02267200  0.23757800  1
  O  O1  1  0.61037900  0.25679000  0.48168100  1
  O  O2  1  0.60562100  0.01097000  0.23770400  1
  O  O3  1  0.12689200  0.26027400  0.47943300  1
  O  O4  1  0.13929300  0.51519700  0.76228400  1
  O  O5  1  0.62599900  0.50235600  0.74684100  1
  O  O6  1  0.64424200  0.78097300  0.99776700  1
  O  O7  1  0.13748600  0.77982600  0.99623100  1
  O  O8  1  0.38797100  0.48715200  0.24814100  1
  O  O9  1  0.86978200  0.75090800  0.51033800  1
  O  O10  1  0.85221100  0.46963100  0.24403500  1
  O  O11  1  0.38968700  0.74635100  0.51070700  1
  O  O12  1  0.37698000  0.98819600  0.76546800  1
  O  O13  1  0.88038900  0.99377900  0.76736500  1
  O  O14  1  0.86364500  0.22034200  0.01507900  1
  O  O15  1  0.36609300  0.22395200  0.00999200  1
loop_
_geom_bond_atom_site_label_1
_geom_bond_atom_site_label_2
_geom_bond_distance
_geom_bond_site_symmetry_2
Li0 O8 2.034796 1_555
Li0 O9 2.059114 1_555
Li0 O6 2.176471 1_554
Li0 O10 2.179907 1_555
Li0 O2 2.200998 1_565
Li0 O0 2.238864 1_665
Li1 O1 2.106421 1_565
Li1 O3 2.108167 1_565
Li1 O9 2.110092 1_455
Li1 O11 2.117152 1_555
Li1 O12 2.179034 1_555
Li1 O0 2.179295 1_565
Li2 O2 2.062839 1_565
Li2 O11 2.082208 1_555
Li2 O8 2.167215 1_555
Li2 O7 2.168893 1_554
Li2 O0 2.191629 1_565
Li2 O10 2.242097 1_455
Li3 O9 2.055056 1_545
Li3 O11 2.097849 1_545
Li3 O1 2.109670 1_555
Li3 O3 2.129553 1_655
Li3 O2 2.184002 1_555
Li3 O13 2.185537 1_545
Li4 O5 2.071891 1_555
Li4 O13 2.105560 1_545
Li4 O4 2.138725 1_655
Li4 O1 2.148923 1_555
Li4 O12 2.164062 1_545
Li4 O14 2.258018 1_556
Li5 O5 2.097820 1_555
Li5 O4 2.100570 1_555
Li5 O13 2.129608 1_445
Li5 O12 2.162612 1_545
Li5 O3 2.162704 1_555
Li5 O15 2.219834 1_556
Li6 O4 1.975934 1_554
Li6 O8 2.039123 1_555
Li6 O7 2.150708 1_554
Li6 O15 2.225827 1_555
Li6 O6 2.235649 1_554
Li6 O14 2.238740 1_455
Li7 O5 2.049496 1_555
Li7 O10 2.056757 1_556
Li7 O14 2.165667 1_556
Li7 O6 2.204092 1_555
Li7 O15 2.208034 1_556
Li7 O7 2.211091 1_655
Li8 O3 2.062676 1_655
Li8 O1 2.085038 1_555
Li8 O9 2.112120 1_555
Li8 O10 2.118226 1_555
Li8 O11 2.130535 1_655
Li8 O4 2.154114 1_655
Mn0 O13 1.900550 1_555
Mn0 O6 1.933958 1_555
Mn0 O7 1.936126 1_655
Mn0 O0 1.974344 1_666
Mn0 O14 1.974843 1_566
Mn0 O15 1.979297 1_666
Mn1 O1 1.894765 1_555
Mn1 O10 1.910651 1_555
Mn1 O2 1.934996 1_555
Mn1 O8 1.943441 1_555
Mn1 O15 1.995438 1_555
Mn1 O0 2.005590 1_555
Co0 O11 1.891684 1_555
Co0 O4 1.962093 1_555
Co0 O12 2.033036 1_555
Co0 O5 2.057936 1_555
Co0 O6 2.133416 1_555
Co0 O13 2.136406 1_555
Co1 O12 1.941359 1_554
Co1 O2 1.949888 1_565
Co1 O7 1.954384 1_554
Co1 O14 1.959468 1_565
Co1 O15 1.962191 1_565
Co1 O6 1.965916 1_554
Co2 O3 1.859935 1_555
Co2 O10 1.949027 1_455
Co2 O14 1.970512 1_455
Co2 O0 2.015187 1_555
Co2 O8 2.118693 1_555
Co2 O2 2.124043 1_455
Co3 O1 2.001296 1_555
Co3 O3 2.011362 1_555
Co3 O11 2.012177 1_555
Co3 O5 2.016730 1_555
Co3 O9 2.053478 1_555
Co3 O8 2.093162 1_555
Co4 O9 1.883419 1_555
Co4 O4 1.958883 1_655
Co4 O12 2.046962 1_655
Co4 O5 2.071176 1_555
Co4 O13 2.112614 1_555
Co4 O7 2.130670 1_655
