# generated using pymatgen
data_Ba5As3SO12
_symmetry_space_group_name_H-M   'P 1'
_cell_length_a   10.81492270
_cell_length_b   10.81492270
_cell_length_c   7.85372500
_cell_angle_alpha   90.00000000
_cell_angle_beta   90.00000000
_cell_angle_gamma   120.00000428
_symmetry_Int_Tables_number   1
_chemical_formula_structural   Ba5As3SO12
_chemical_formula_sum   'Ba10 As6 S2 O24'
_cell_volume   795.52373661
_cell_formula_units_Z   2
loop_
 _symmetry_equiv_pos_site_id
 _symmetry_equiv_pos_as_xyz
  1  'x, y, z'
loop_
 _atom_site_type_symbol
 _atom_site_label
 _atom_site_symmetry_multiplicity
 _atom_site_fract_x
 _atom_site_fract_y
 _atom_site_fract_z
 _atom_site_occupancy
  Ba  Ba0  1  0.33333300  0.66666700  0.49887900  1
  Ba  Ba1  1  0.66666700  0.33333300  0.50112100  1
  Ba  Ba2  1  0.66666700  0.33333300  0.99887900  1
  Ba  Ba3  1  0.33333300  0.66666700  0.00112100  1
  Ba  Ba4  1  0.25457900  0.24780900  0.75000000  1
  Ba  Ba5  1  0.74542100  0.75219100  0.25000000  1
  Ba  Ba6  1  0.75219100  0.00677000  0.75000000  1
  Ba  Ba7  1  0.24780900  0.99323000  0.25000000  1
  Ba  Ba8  1  0.99323000  0.74542100  0.75000000  1
  Ba  Ba9  1  0.00677000  0.25457900  0.25000000  1
  As  As0  1  0.03331400  0.41037300  0.75000000  1
  As  As1  1  0.96668600  0.58962700  0.25000000  1
  As  As2  1  0.58962700  0.62294100  0.75000000  1
  As  As3  1  0.41037300  0.37705900  0.25000000  1
  As  As4  1  0.37705900  0.96668600  0.75000000  1
  As  As5  1  0.62294100  0.03331400  0.25000000  1
  S  S0  1  0.00000000  0.00000000  0.50000000  1
  S  S1  1  0.00000000  0.00000000  0.00000000  1
  O  O0  1  0.09067600  0.35875900  0.57257500  1
  O  O1  1  0.90932400  0.64124100  0.42742500  1
  O  O2  1  0.64124100  0.73191700  0.57257500  1
  O  O3  1  0.90932400  0.64124100  0.07257500  1
  O  O4  1  0.35875900  0.26808300  0.42742500  1
  O  O5  1  0.09067600  0.35875900  0.92742500  1
  O  O6  1  0.26808300  0.90932400  0.57257500  1
  O  O7  1  0.35875900  0.26808300  0.07257500  1
  O  O8  1  0.73191700  0.09067600  0.42742500  1
  O  O9  1  0.64124100  0.73191700  0.92742500  1
  O  O10  1  0.73191700  0.09067600  0.07257500  1
  O  O11  1  0.26808300  0.90932400  0.92742500  1
  O  O12  1  0.49003900  0.14953900  0.75000000  1
  O  O13  1  0.50996100  0.85046100  0.25000000  1
  O  O14  1  0.85046100  0.34050000  0.75000000  1
  O  O15  1  0.14953900  0.65950000  0.25000000  1
  O  O16  1  0.65950000  0.50996100  0.75000000  1
  O  O17  1  0.34050000  0.49003900  0.25000000  1
  O  O18  1  0.12414600  0.59580000  0.75000000  1
  O  O19  1  0.87585400  0.40420000  0.25000000  1
  O  O20  1  0.40420000  0.52834600  0.75000000  1
  O  O21  1  0.59580000  0.47165400  0.25000000  1
  O  O22  1  0.47165400  0.87585400  0.75000000  1
  O  O23  1  0.52834600  0.12414600  0.25000000  1
loop_
_geom_bond_atom_site_label_1
_geom_bond_atom_site_label_2
_geom_bond_distance
_geom_bond_site_symmetry_2
Ba0 O15 2.761074 1_555
Ba0 O13 2.761077 1_555
Ba0 O17 2.761081 1_555
Ba0 O18 2.803818 1_555
Ba0 O22 2.803819 1_555
Ba0 O20 2.803825 1_555
Ba0 O6 3.093852 1_555
Ba0 O0 3.093859 1_555
Ba0 O2 3.093862 1_555
Ba1 O14 2.761074 1_555
Ba1 O12 2.761077 1_555
Ba1 O16 2.761081 1_555
Ba1 O19 2.803818 1_555
Ba1 O23 2.803819 1_555
Ba1 O21 2.803825 1_555
Ba1 O8 3.093852 1_555
Ba1 O1 3.093859 1_555
Ba1 O4 3.093862 1_555
Ba2 O14 2.761074 1_555
Ba2 O12 2.761077 1_555
Ba2 O16 2.761081 1_555
Ba2 O19 2.803818 1_556
Ba2 O23 2.803819 1_556
Ba2 O21 2.803825 1_556
Ba2 O10 3.093852 1_556
Ba2 O3 3.093859 1_556
Ba2 O7 3.093862 1_556
Ba3 O15 2.761074 1_555
Ba3 O13 2.761077 1_555
Ba3 O17 2.761081 1_555
Ba3 O18 2.803818 1_554
Ba3 O22 2.803819 1_554
Ba3 O20 2.803825 1_554
Ba3 O11 3.093852 1_554
Ba3 O5 3.093859 1_554
Ba3 O9 3.093862 1_554
Ba4 O20 2.629455 1_555
Ba4 O4 2.736545 1_555
Ba4 O7 2.736545 1_556
Ba4 O5 2.941184 1_555
Ba4 O0 2.941184 1_555
Ba4 O12 3.212543 1_555
Ba4 S1 3.352497 1_556
Ba4 S0 3.352497 1_555
Ba5 O21 2.629455 1_555
Ba5 O2 2.736545 1_555
Ba5 O9 2.736545 1_554
Ba5 O1 2.941184 1_555
Ba5 O3 2.941184 1_555
Ba5 O13 3.212543 1_555
Ba5 S0 3.352497 1_665
Ba5 S1 3.352497 1_665
Ba6 O22 2.629455 1_545
Ba6 O8 2.736545 1_555
Ba6 O10 2.736545 1_556
Ba6 O9 2.941184 1_545
Ba6 O2 2.941184 1_545
Ba6 O14 3.212543 1_555
Ba6 S0 3.352497 1_655
Ba6 S1 3.352497 1_656
Ba7 O23 2.629455 1_565
Ba7 O6 2.736545 1_555
Ba7 O11 2.736545 1_554
Ba7 O7 2.941184 1_565
Ba7 O4 2.941184 1_565
Ba7 O15 3.212543 1_555
Ba7 S0 3.352497 1_565
Ba7 S1 3.352497 1_565
Ba8 O18 2.629455 1_655
Ba8 O1 2.736545 1_555
Ba8 O3 2.736545 1_556
Ba8 O11 2.941184 1_655
Ba8 O6 2.941184 1_655
Ba8 O16 3.212543 1_555
Ba8 S0 3.352497 1_665
Ba8 S1 3.352497 1_666
Ba9 O19 2.629455 1_455
Ba9 O0 2.736545 1_555
Ba9 O5 2.736545 1_554
Ba9 O10 2.941184 1_455
Ba9 O8 2.941184 1_455
Ba9 O17 3.212543 1_555
Ba9 S1 3.352497 1_555
Ba9 S0 3.352497 1_555
As0 O5 1.727549 1_555
As0 O0 1.727549 1_555
As0 O14 1.728391 1_455
As0 O18 1.736828 1_555
As1 O1 1.727549 1_555
As1 O3 1.727549 1_555
As1 O15 1.728391 1_655
As1 O19 1.736828 1_555
As2 O9 1.727549 1_555
As2 O2 1.727549 1_555
As2 O16 1.728391 1_555
As2 O20 1.736828 1_555
As3 O4 1.727549 1_555
As3 O7 1.727549 1_555
As3 O17 1.728391 1_555
As3 O21 1.736828 1_555
As4 O11 1.727549 1_555
As4 O6 1.727549 1_555
As4 O12 1.728391 1_565
As4 O22 1.736828 1_555
As5 O8 1.727549 1_555
As5 O10 1.727549 1_555
As5 O13 1.728391 1_545
As5 O23 1.736828 1_555
