# generated using pymatgen
data_Co4N
_symmetry_space_group_name_H-M   'P 1'
_cell_length_a   3.70956274
_cell_length_b   3.70947165
_cell_length_c   3.70955757
_cell_angle_alpha   90.00000000
_cell_angle_beta   90.00000000
_cell_angle_gamma   90.00000000
_symmetry_Int_Tables_number   1
_chemical_formula_structural   Co4N
_chemical_formula_sum   'Co4 N1'
_cell_volume   51.04543304
_cell_formula_units_Z   1
loop_
 _symmetry_equiv_pos_site_id
 _symmetry_equiv_pos_as_xyz
  1  'x, y, z'
loop_
 _atom_site_type_symbol
 _atom_site_label
 _atom_site_symmetry_multiplicity
 _atom_site_fract_x
 _atom_site_fract_y
 _atom_site_fract_z
 _atom_site_occupancy
  Co  Co0  1  0.50000000  0.00000000  0.00000000  1
  Co  Co1  1  0.00000000  0.50000000  -0.00000000  1
  Co  Co2  1  -0.00000000  0.00000000  0.50000000  1
  Co  Co3  1  0.50000000  0.50000000  0.50000000  1
  N  N0  1  0.00000000  0.00000000  -0.00000000  1
loop_
_geom_bond_atom_site_label_1
_geom_bond_atom_site_label_2
_geom_bond_distance
_geom_bond_site_symmetry_2
Co0 N0 1.854781 1_555
Co0 N0 1.854781 1_655
Co0 Co3 2.623023 1_545
Co0 Co3 2.623023 1_554
Co0 Co3 2.623023 1_555
Co0 Co3 2.623023 1_544
Co1 N0 1.854736 1_555
Co1 N0 1.854736 1_565
Co1 Co3 2.623055 1_455
Co1 Co3 2.623055 1_554
Co1 Co3 2.623055 1_454
Co1 Co3 2.623055 1_555
Co2 N0 1.854779 1_555
Co2 N0 1.854779 1_556
Co2 Co3 2.623025 1_555
Co2 Co3 2.623025 1_455
Co2 Co3 2.623025 1_445
Co2 Co3 2.623025 1_545
