# generated using pymatgen
data_NaCaAlSi2O7
_symmetry_space_group_name_H-M   'P 1'
_cell_length_a   12.71980000
_cell_length_b   7.75864700
_cell_length_c   7.75864700
_cell_angle_alpha   90.00000000
_cell_angle_beta   90.00000000
_cell_angle_gamma   90.00000000
_symmetry_Int_Tables_number   1
_chemical_formula_structural   NaCaAlSi2O7
_chemical_formula_sum   'Na4 Ca4 Al4 Si8 O28'
_cell_volume   765.68875428
_cell_formula_units_Z   4
loop_
 _symmetry_equiv_pos_site_id
 _symmetry_equiv_pos_as_xyz
  1  'x, y, z'
loop_
 _atom_site_type_symbol
 _atom_site_label
 _atom_site_symmetry_multiplicity
 _atom_site_fract_x
 _atom_site_fract_y
 _atom_site_fract_z
 _atom_site_occupancy
  Na  Na0  1  0.31251500  0.13325600  0.63325600  1
  Na  Na1  1  0.31251500  0.86674400  0.36674400  1
  Na  Na2  1  0.68748500  0.63325600  0.86674400  1
  Na  Na3  1  0.68748500  0.36674400  0.13325600  1
  Ca  Ca0  1  0.21166200  0.34638400  0.15361600  1
  Ca  Ca1  1  0.21166200  0.65361600  0.84638400  1
  Ca  Ca2  1  0.78833800  0.15361600  0.65361600  1
  Ca  Ca3  1  0.78833800  0.84638400  0.34638400  1
  Al  Al0  1  0.00000000  0.00000000  0.00000000  1
  Al  Al1  1  0.00000000  0.50000000  0.50000000  1
  Al  Al2  1  0.50000000  0.00000000  0.00000000  1
  Al  Al3  1  0.50000000  0.50000000  0.50000000  1
  Si  Si0  1  0.60741300  0.13859900  0.36140100  1
  Si  Si1  1  0.60741300  0.86140100  0.63859900  1
  Si  Si2  1  0.89322200  0.36448100  0.86448100  1
  Si  Si3  1  0.89322200  0.63551900  0.13551900  1
  Si  Si4  1  0.10677800  0.13551900  0.36448100  1
  Si  Si5  1  0.10677800  0.86448100  0.63551900  1
  Si  Si6  1  0.39258700  0.36140100  0.86140100  1
  Si  Si7  1  0.39258700  0.63859900  0.13859900  1
  O  O0  1  0.04872300  0.00000000  0.50000000  1
  O  O1  1  0.07490400  0.89803600  0.83846700  1
  O  O2  1  0.07490400  0.66153300  0.60196400  1
  O  O3  1  0.07490400  0.10196400  0.16153300  1
  O  O4  1  0.07490400  0.33846700  0.39803600  1
  O  O5  1  0.26379400  0.37358400  0.87358400  1
  O  O6  1  0.26379400  0.62641600  0.12641600  1
  O  O7  1  0.23474400  0.13544600  0.36455400  1
  O  O8  1  0.23474400  0.86455400  0.63544600  1
  O  O9  1  0.42363600  0.83626700  0.09302500  1
  O  O10  1  0.42363600  0.59302500  0.33626700  1
  O  O11  1  0.42363600  0.40697500  0.66373300  1
  O  O12  1  0.42363600  0.16373300  0.90697500  1
  O  O13  1  0.44727600  0.50000000  0.00000000  1
  O  O14  1  0.55272400  0.00000000  0.50000000  1
  O  O15  1  0.57636400  0.90697500  0.83626700  1
  O  O16  1  0.57636400  0.66373300  0.59302500  1
  O  O17  1  0.57636400  0.09302500  0.16373300  1
  O  O18  1  0.57636400  0.33626700  0.40697500  1
  O  O19  1  0.76525600  0.36455400  0.86455400  1
  O  O20  1  0.76525600  0.63544600  0.13544600  1
  O  O21  1  0.73620600  0.12641600  0.37358400  1
  O  O22  1  0.73620600  0.87358400  0.62641600  1
  O  O23  1  0.92509600  0.83846700  0.10196400  1
  O  O24  1  0.92509600  0.60196400  0.33846700  1
  O  O25  1  0.92509600  0.39803600  0.66153300  1
  O  O26  1  0.92509600  0.16153300  0.89803600  1
  O  O27  1  0.95127700  0.50000000  0.00000000  1
loop_
_geom_bond_atom_site_label_1
_geom_bond_atom_site_label_2
_geom_bond_distance
_geom_bond_site_symmetry_2
Na0 O8 2.307620 1_545
Na0 O7 2.307620 1_555
Na0 O11 2.561986 1_555
Na0 O12 2.561986 1_555
Na0 O5 2.708814 1_555
Na1 O8 2.307620 1_555
Na1 O7 2.307620 1_565
Na1 O10 2.561986 1_555
Na1 O9 2.561986 1_555
Na1 O6 2.708814 1_555
Na2 O20 2.307620 1_556
Na2 O19 2.307620 1_555
Na2 O15 2.561986 1_555
Na2 O16 2.561986 1_555
Na2 O22 2.708814 1_555
Na3 O20 2.307620 1_555
Na3 O19 2.307620 1_554
Na3 O18 2.561986 1_555
Na3 O17 2.561986 1_555
Na3 O21 2.708814 1_555
Ca0 O6 2.281390 1_555
Ca0 O5 2.281390 1_554
Ca0 O7 2.333040 1_555
Ca0 O3 2.574095 1_555
Ca0 O4 2.574095 1_555
Ca1 O5 2.281390 1_555
Ca1 O6 2.281390 1_556
Ca1 O8 2.333040 1_555
Ca1 O1 2.574095 1_555
Ca1 O2 2.574095 1_555
Ca2 O22 2.281390 1_545
Ca2 O21 2.281390 1_555
Ca2 O19 2.333040 1_555
Ca2 O26 2.574095 1_555
Ca2 O25 2.574095 1_555
Ca3 O22 2.281390 1_555
Ca3 O21 2.281390 1_565
Ca3 O20 2.333040 1_555
Ca3 O24 2.574095 1_555
Ca3 O23 2.574095 1_555
Al0 O26 1.761904 1_454
Al0 O3 1.761904 1_555
Al0 O23 1.761904 1_445
Al0 O1 1.761904 1_544
Al1 O24 1.761904 1_455
Al1 O4 1.761904 1_555
Al1 O25 1.761904 1_455
Al1 O2 1.761904 1_555
Al2 O12 1.754478 1_554
Al2 O17 1.754478 1_555
Al2 O9 1.754478 1_545
Al2 O15 1.754478 1_544
Al3 O18 1.754478 1_555
Al3 O10 1.754478 1_555
Al3 O16 1.754478 1_555
Al3 O11 1.754478 1_555
O0 Si5 1.660233 1_545
O0 Si4 1.660233 1_555
O1 Si5 1.646670 1_555
O2 Si5 1.646670 1_555
O3 Si4 1.646670 1_555
O4 Si4 1.646670 1_555
O5 Si6 1.643666 1_555
O6 Si7 1.643666 1_555
O7 Si4 1.627702 1_555
O8 Si5 1.627702 1_555
O9 Si7 1.622665 1_555
O10 Si7 1.622665 1_555
O11 Si6 1.622665 1_555
O12 Si6 1.622665 1_555
O13 Si7 1.672310 1_555
O13 Si6 1.672310 1_554
O14 Si0 1.672310 1_555
O14 Si1 1.672310 1_545
O15 Si1 1.622665 1_555
O16 Si1 1.622665 1_555
O17 Si0 1.622665 1_555
O18 Si0 1.622665 1_555
O19 Si2 1.627702 1_555
O20 Si3 1.627702 1_555
O21 Si0 1.643666 1_555
O22 Si1 1.643666 1_555
O23 Si3 1.646670 1_555
O24 Si3 1.646670 1_555
O25 Si2 1.646670 1_555
O26 Si2 1.646670 1_555
O27 Si2 1.660233 1_554
O27 Si3 1.660233 1_555
