# generated using pymatgen
data_Cu2(ReSe2)3
_symmetry_space_group_name_H-M   'P 1'
_cell_length_a   9.75120020
_cell_length_b   9.75120020
_cell_length_c   12.21419036
_cell_angle_alpha   85.27615832
_cell_angle_beta   85.27615832
_cell_angle_gamma   61.49698841
_symmetry_Int_Tables_number   1
_chemical_formula_structural   Cu2(ReSe2)3
_chemical_formula_sum   'Cu8 Re12 Se24'
_cell_volume   1015.93008993
_cell_formula_units_Z   4
loop_
 _symmetry_equiv_pos_site_id
 _symmetry_equiv_pos_as_xyz
  1  'x, y, z'
loop_
 _atom_site_type_symbol
 _atom_site_label
 _atom_site_symmetry_multiplicity
 _atom_site_fract_x
 _atom_site_fract_y
 _atom_site_fract_z
 _atom_site_occupancy
  Cu  Cu0  1  0.58383000  0.41617000  0.75000000  1
  Cu  Cu1  1  0.41617000  0.58383000  0.25000000  1
  Cu  Cu2  1  0.67256400  0.12121200  0.90563800  1
  Cu  Cu3  1  0.32743600  0.87878800  0.09436200  1
  Cu  Cu4  1  0.87878800  0.32743600  0.59436200  1
  Cu  Cu5  1  0.12121200  0.67256400  0.40563800  1
  Cu  Cu6  1  0.84496300  0.15503700  0.75000000  1
  Cu  Cu7  1  0.15503700  0.84496300  0.25000000  1
  Re  Re0  1  0.48157400  0.11258300  0.62247900  1
  Re  Re1  1  0.51842600  0.88741700  0.37752100  1
  Re  Re2  1  0.88741700  0.51842600  0.87752100  1
  Re  Re3  1  0.11258300  0.48157400  0.12247900  1
  Re  Re4  1  0.59205400  0.81178300  0.58617200  1
  Re  Re5  1  0.40794600  0.18821700  0.41382800  1
  Re  Re6  1  0.18821700  0.40794600  0.91382800  1
  Re  Re7  1  0.81178300  0.59205400  0.08617200  1
  Re  Re8  1  0.30179500  0.01963400  0.53747600  1
  Re  Re9  1  0.69820500  0.98036600  0.46252400  1
  Re  Re10  1  0.98036600  0.69820500  0.96252400  1
  Re  Re11  1  0.01963400  0.30179500  0.03747600  1
  Se  Se0  1  0.38427400  0.93999400  0.73555300  1
  Se  Se1  1  0.61572600  0.06000600  0.26444700  1
  Se  Se2  1  0.06000600  0.61572600  0.76444700  1
  Se  Se3  1  0.93999400  0.38427400  0.23555300  1
  Se  Se4  1  0.45757600  0.26961500  0.79795200  1
  Se  Se5  1  0.54242400  0.73038500  0.20204800  1
  Se  Se6  1  0.73038500  0.54242400  0.70204800  1
  Se  Se7  1  0.26961500  0.45757600  0.29795200  1
  Se  Se8  1  0.75798500  0.91501000  0.66375000  1
  Se  Se9  1  0.24201500  0.08499000  0.33625000  1
  Se  Se10  1  0.08499000  0.24201500  0.83625000  1
  Se  Se11  1  0.91501000  0.75798500  0.16375000  1
  Se  Se12  1  0.58822100  0.26865300  0.49862300  1
  Se  Se13  1  0.41177900  0.73134700  0.50137700  1
  Se  Se14  1  0.73134700  0.41177900  0.00137700  1
  Se  Se15  1  0.26865300  0.58822100  0.99862300  1
  Se  Se16  1  0.69161200  0.79515000  0.93002200  1
  Se  Se17  1  0.30838800  0.20485000  0.06997800  1
  Se  Se18  1  0.20485000  0.30838800  0.56997800  1
  Se  Se19  1  0.79515000  0.69161200  0.43002200  1
  Se  Se20  1  0.02323100  0.05783600  0.58406400  1
  Se  Se21  1  0.97676900  0.94216400  0.41593600  1
  Se  Se22  1  0.94216400  0.97676900  0.91593600  1
  Se  Se23  1  0.05783600  0.02323100  0.08406400  1
loop_
_geom_bond_atom_site_label_1
_geom_bond_atom_site_label_2
_geom_bond_distance
_geom_bond_site_symmetry_2
Cu0 Se6 2.307284 1_555
Cu0 Se4 2.307284 1_555
Cu0 Cu6 2.603758 1_555
Cu1 Se7 2.307284 1_555
Cu1 Se5 2.307284 1_555
Cu1 Cu7 2.603758 1_555
Cu2 Se22 2.324261 1_545
Cu2 Se4 2.337573 1_555
Cu2 Cu6 2.539335 1_555
Cu2 Se16 3.085758 1_545
Cu3 Se23 2.324261 1_565
Cu3 Se5 2.337573 1_555
Cu3 Cu7 2.539335 1_555
Cu3 Se17 3.085758 1_565
Cu4 Se20 2.324261 1_655
Cu4 Se6 2.337573 1_555
Cu4 Cu6 2.539335 1_555
Cu4 Se18 3.085758 1_655
Cu5 Se21 2.324261 1_455
Cu5 Se7 2.337573 1_555
Cu5 Cu7 2.539335 1_555
Cu5 Se19 3.085758 1_455
Cu6 Se22 2.488285 1_545
Cu6 Se20 2.488285 1_655
Cu6 Se8 3.123336 1_545
Cu6 Se10 3.123336 1_655
Cu7 Se21 2.488285 1_455
Cu7 Se23 2.488285 1_565
Cu7 Se11 3.123336 1_455
Cu7 Se9 3.123336 1_565
Re0 Se8 2.517627 1_545
Re0 Se18 2.550329 1_555
Re0 Se12 2.560917 1_555
Re0 Se0 2.562283 1_545
Re0 Se4 2.666271 1_555
Re1 Se9 2.517627 1_565
Re1 Se19 2.550329 1_555
Re1 Se13 2.560917 1_555
Re1 Se1 2.562283 1_565
Re1 Se5 2.666271 1_555
Re2 Se10 2.517627 1_655
Re2 Se16 2.550329 1_555
Re2 Se14 2.560917 1_556
Re2 Se2 2.562283 1_655
Re2 Se6 2.666271 1_555
Re3 Se11 2.517627 1_455
Re3 Se17 2.550329 1_555
Re3 Se15 2.560917 1_554
Re3 Se3 2.562283 1_455
Re3 Se7 2.666271 1_555
Re4 Se0 2.519212 1_555
Re4 Se19 2.542425 1_555
Re4 Se8 2.548163 1_555
Re4 Se13 2.554937 1_555
Re4 Se6 2.653729 1_555
Re5 Se1 2.519212 1_555
Re5 Se18 2.542425 1_555
Re5 Se9 2.548163 1_555
Re5 Se12 2.554937 1_555
Re5 Se7 2.653729 1_555
Re6 Se2 2.519212 1_555
Re6 Se17 2.542425 1_556
Re6 Se10 2.548163 1_555
Re6 Se15 2.554937 1_555
Re6 Se4 2.653729 1_555
Re7 Se3 2.519212 1_555
Re7 Se16 2.542425 1_554
Re7 Se11 2.548163 1_555
Re7 Se14 2.554937 1_555
Re7 Se5 2.653729 1_555
Re8 Se9 2.531842 1_555
Re8 Se13 2.548721 1_545
Re8 Se0 2.553059 1_545
Re8 Se18 2.561500 1_555
Re8 Se20 2.579849 1_555
Re9 Se8 2.531842 1_555
Re9 Se12 2.548721 1_565
Re9 Se1 2.553059 1_565
Re9 Se19 2.561500 1_555
Re9 Se21 2.579849 1_555
Re10 Se11 2.531842 1_556
Re10 Se15 2.548721 1_655
Re10 Se2 2.553059 1_655
Re10 Se16 2.561500 1_555
Re10 Se22 2.579849 1_555
Re11 Se10 2.531842 1_554
Re11 Se14 2.548721 1_455
Re11 Se3 2.553059 1_455
Re11 Se17 2.561500 1_555
Re11 Se23 2.579849 1_555
Se20 Se21 2.591726 1_445
Se22 Se23 2.591726 1_666
