# generated using pymatgen
data_MnGaIr
_symmetry_space_group_name_H-M   'P 1'
_cell_length_a   4.11846284
_cell_length_b   4.11846284
_cell_length_c   4.11846284
_cell_angle_alpha   60.00000000
_cell_angle_beta   60.00000000
_cell_angle_gamma   60.00000000
_symmetry_Int_Tables_number   1
_chemical_formula_structural   MnGaIr
_chemical_formula_sum   'Mn1 Ga1 Ir1'
_cell_volume   49.39584925
_cell_formula_units_Z   1
loop_
 _symmetry_equiv_pos_site_id
 _symmetry_equiv_pos_as_xyz
  1  'x, y, z'
loop_
 _atom_site_type_symbol
 _atom_site_label
 _atom_site_symmetry_multiplicity
 _atom_site_fract_x
 _atom_site_fract_y
 _atom_site_fract_z
 _atom_site_occupancy
  Mn  Mn0  1  0.50000000  0.50000000  0.50000000  1
  Ga  Ga0  1  0.25000000  0.25000000  0.25000000  1
  Ir  Ir0  1  0.00000000  0.00000000  0.00000000  1
loop_
_geom_bond_atom_site_label_1
_geom_bond_atom_site_label_2
_geom_bond_distance
_geom_bond_site_symmetry_2
Ga0 Ir0 2.522033 1_655
Ga0 Mn0 2.522033 1_455
Ga0 Ir0 2.522033 1_555
Ga0 Mn0 2.522033 1_555
Ga0 Mn0 2.522033 1_554
Ga0 Mn0 2.522033 1_545
Ga0 Ir0 2.522033 1_556
Ga0 Ir0 2.522033 1_565
Ir0 Mn0 2.912193 1_445
Ir0 Mn0 2.912193 1_545
Ir0 Mn0 2.912193 1_544
Ir0 Mn0 2.912193 1_455
Ir0 Mn0 2.912193 1_454
Ir0 Mn0 2.912193 1_554
