# generated using pymatgen
data_LiCr(CoO3)2
_symmetry_space_group_name_H-M   'P 1'
_cell_length_a   6.55209788
_cell_length_b   2.90850381
_cell_length_c   5.97449938
_cell_angle_alpha   90.83082677
_cell_angle_beta   104.02186238
_cell_angle_gamma   102.81992475
_symmetry_Int_Tables_number   1
_chemical_formula_structural   LiCr(CoO3)2
_chemical_formula_sum   'Li1 Cr1 Co2 O6'
_cell_volume   107.42801272
_cell_formula_units_Z   1
loop_
 _symmetry_equiv_pos_site_id
 _symmetry_equiv_pos_as_xyz
  1  'x, y, z'
loop_
 _atom_site_type_symbol
 _atom_site_label
 _atom_site_symmetry_multiplicity
 _atom_site_fract_x
 _atom_site_fract_y
 _atom_site_fract_z
 _atom_site_occupancy
  Li  Li0  1  0.33004000  0.66239500  0.83087300  1
  Cr  Cr0  1  0.32921800  0.66649400  0.33344700  1
  Co  Co0  1  0.68031500  0.36014500  0.65475300  1
  Co  Co1  1  0.99171200  0.98491800  0.00793200  1
  O  O0  1  0.00854200  0.50161900  0.21433500  1
  O  O1  1  0.36079800  0.19266600  0.57304400  1
  O  O2  1  0.29866400  0.14356800  0.09401800  1
  O  O3  1  0.68772500  0.81676100  0.88224200  1
  O  O4  1  0.65557100  0.85727300  0.44759800  1
  O  O5  1  0.99074900  0.48082700  0.79509200  1
loop_
_geom_bond_atom_site_label_1
_geom_bond_atom_site_label_2
_geom_bond_distance
_geom_bond_site_symmetry_2
Li0 O1 2.119329 1_555
Li0 O5 2.124161 1_455
Li0 O2 2.166338 1_566
Li0 O1 2.207604 1_565
Li0 O2 2.208803 1_556
Li0 O3 2.229055 1_555
Cr0 O0 1.992340 1_555
Cr0 O1 2.007833 1_555
Cr0 O2 2.013389 1_565
Cr0 O2 2.015581 1_555
Cr0 O1 2.021480 1_565
Cr0 O4 2.025126 1_555
Co0 O4 1.855346 1_545
Co0 O3 1.870944 1_555
Co0 O4 1.925453 1_555
Co0 O5 1.952322 1_555
Co0 O1 1.975772 1_555
Co0 O3 2.100414 1_545
Co1 O0 1.887305 1_655
Co1 O0 1.896876 1_665
Co1 O2 1.897979 1_665
Co1 O3 1.898014 1_554
Co1 O5 1.924727 1_554
Co1 O5 1.936688 1_564
