# generated using pymatgen
data_SrLaFeCoO6
_symmetry_space_group_name_H-M   'P 1'
_cell_length_a   5.56638494
_cell_length_b   9.50044536
_cell_length_c   5.49446603
_cell_angle_alpha   105.46588306
_cell_angle_beta   59.56693103
_cell_angle_gamma   90.00227747
_symmetry_Int_Tables_number   1
_chemical_formula_structural   SrLaFeCoO6
_chemical_formula_sum   'Sr2 La2 Fe2 Co2 O12'
_cell_volume   238.24996460
_cell_formula_units_Z   2
loop_
 _symmetry_equiv_pos_site_id
 _symmetry_equiv_pos_as_xyz
  1  'x, y, z'
loop_
 _atom_site_type_symbol
 _atom_site_label
 _atom_site_symmetry_multiplicity
 _atom_site_fract_x
 _atom_site_fract_y
 _atom_site_fract_z
 _atom_site_occupancy
  Sr  Sr0  1  0.87498500  0.37488700  0.25009200  1
  Sr  Sr1  1  0.37567200  0.87472300  0.24863600  1
  La  La0  1  0.12619700  0.62303900  0.74779200  1
  La  La1  1  0.62433500  0.12436900  0.75136500  1
  Fe  Fe0  1  0.25028000  0.24851900  0.49953900  1
  Fe  Fe1  1  0.75117000  0.74860700  0.49765600  1
  Co  Co0  1  0.49967600  0.50189800  0.00071300  1
  Co  Co1  1  0.99971600  0.00144000  0.00058000  1
  O  O0  1  0.87978200  0.37403300  0.74998900  1
  O  O1  1  0.38147300  0.87469900  0.74722800  1
  O  O2  1  0.61988200  0.12681100  0.25465300  1
  O  O3  1  0.12119800  0.62712700  0.25306200  1
  O  O4  1  0.37026700  0.37403300  0.75001800  1
  O  O5  1  0.87126500  0.87470100  0.74728300  1
  O  O6  1  0.12548100  0.12679500  0.25463200  1
  O  O7  1  0.62563900  0.62709400  0.25311100  1
  O  O8  1  0.62201300  0.61862100  0.75569800  1
  O  O9  1  0.11980300  0.12034500  0.76036600  1
  O  O10  1  0.37902200  0.38034300  0.24195100  1
  O  O11  1  0.88214400  0.87791700  0.23564100  1
loop_
_geom_bond_atom_site_label_1
_geom_bond_atom_site_label_2
_geom_bond_distance
_geom_bond_site_symmetry_2
La0 O4 2.734011 1_555
La0 O0 2.734251 1_455
La0 O7 2.742036 1_555
La0 O3 2.743036 1_555
La0 O3 2.752043 1_556
La0 O7 2.753094 1_456
La0 O10 2.764336 1_555
La0 O1 2.781131 1_555
La0 O5 2.781721 1_455
La0 O8 2.782651 1_555
La0 O11 2.782717 1_456
La0 O8 2.785220 1_455
La1 O1 2.730649 1_545
La1 O5 2.730679 1_545
La1 O2 2.746703 1_556
La1 O6 2.746776 1_556
La1 O6 2.748051 1_655
La1 O2 2.748055 1_555
La1 O0 2.765196 1_555
La1 O4 2.765206 1_555
La1 O9 2.783788 1_655
La1 O9 2.784137 1_555
La1 O10 2.796384 1_556
La1 O11 2.813055 1_545
Fe0 O2 1.935500 1_555
Fe0 O6 1.935883 1_555
Fe0 O4 1.953955 1_555
Fe0 O0 1.954170 1_455
Fe0 O9 1.985020 1_555
Fe0 O10 2.000722 1_555
Fe1 O3 1.936300 1_655
Fe1 O7 1.936530 1_555
Fe1 O1 1.953358 1_555
Fe1 O5 1.953373 1_555
Fe1 O8 1.988259 1_555
Fe1 O11 1.998292 1_555
Co0 O8 1.836617 1_554
Co0 O10 1.859042 1_555
Co0 O7 1.983637 1_555
Co0 O3 1.984320 1_555
Co0 O4 2.001151 1_554
Co0 O0 2.001251 1_554
Co1 O9 1.834740 1_654
Co1 O11 1.850815 1_545
Co1 O6 1.990015 1_655
Co1 O2 1.990238 1_555
Co1 O5 2.003062 1_544
Co1 O1 2.003198 1_644
O0 Sr0 2.732208 1_556
O0 Sr0 2.762452 1_555
O1 Sr1 2.738693 1_556
O1 Sr1 2.756054 1_555
O2 Sr0 2.750795 1_555
O2 Sr1 2.754594 1_545
O3 Sr1 2.745104 1_555
O3 Sr0 2.760945 1_455
O4 Sr0 2.732099 1_456
O4 Sr0 2.762634 1_555
O5 Sr1 2.738546 1_556
O5 Sr1 2.756271 1_655
O6 Sr0 2.750833 1_455
O6 Sr1 2.754513 1_545
O7 Sr1 2.745371 1_555
O7 Sr0 2.761093 1_555
O8 Sr0 2.769254 1_555
O8 Sr1 2.803405 1_556
O9 Sr0 2.785769 1_456
O9 Sr1 2.797059 1_545
O10 Sr0 2.783976 1_455
O10 Sr0 2.784352 1_555
O11 Sr1 2.784104 1_555
O11 Sr1 2.784388 1_655
