# generated using pymatgen
data_BiMoO5
_symmetry_space_group_name_H-M   'P 1'
_cell_length_a   5.78666105
_cell_length_b   9.19330991
_cell_length_c   11.38406500
_cell_angle_alpha   89.96220821
_cell_angle_beta   89.98435734
_cell_angle_gamma   107.57729558
_symmetry_Int_Tables_number   1
_chemical_formula_structural   BiMoO5
_chemical_formula_sum   'Bi4 Mo4 O20'
_cell_volume   577.33980422
_cell_formula_units_Z   4
loop_
 _symmetry_equiv_pos_site_id
 _symmetry_equiv_pos_as_xyz
  1  'x, y, z'
loop_
 _atom_site_type_symbol
 _atom_site_label
 _atom_site_symmetry_multiplicity
 _atom_site_fract_x
 _atom_site_fract_y
 _atom_site_fract_z
 _atom_site_occupancy
  Bi  Bi0  1  0.16669400  0.16645800  0.08900000  1
  Bi  Bi1  1  0.83333700  0.83353700  0.91098900  1
  Bi  Bi2  1  0.66607200  0.66633300  0.41098900  1
  Bi  Bi3  1  0.33392700  0.33366300  0.58901200  1
  Mo  Mo0  1  0.78568700  0.94764900  0.64360200  1
  Mo  Mo1  1  0.21430200  0.05235100  0.35639400  1
  Mo  Mo2  1  0.71391200  0.55218100  0.14343300  1
  Mo  Mo3  1  0.28608700  0.44782200  0.85656800  1
  O  O0  1  0.53337900  0.36839400  0.08571600  1
  O  O1  1  0.07454500  0.33384400  0.96545200  1
  O  O2  1  0.52688700  0.65714100  0.20359100  1
  O  O3  1  0.67963800  0.51269700  0.55286300  1
  O  O4  1  0.87068100  0.52941600  0.27334500  1
  O  O5  1  0.37042200  0.02920700  0.22666400  1
  O  O6  1  0.57435500  0.83368200  0.53439300  1
  O  O7  1  0.42563900  0.16631700  0.46561100  1
  O  O8  1  0.32035600  0.48730100  0.44713900  1
  O  O9  1  0.96653500  0.13143300  0.58584500  1
  O  O10  1  0.12931500  0.47058600  0.72665700  1
  O  O11  1  0.46662000  0.63161100  0.91428700  1
  O  O12  1  0.03345500  0.86857100  0.41415700  1
  O  O13  1  0.62957600  0.97079100  0.77334200  1
  O  O14  1  0.82117000  0.98748800  0.05263700  1
  O  O15  1  0.17885100  0.01251200  0.94735000  1
  O  O16  1  0.47310700  0.34285900  0.79641600  1
  O  O17  1  0.92545000  0.66615400  0.03455000  1
  O  O18  1  0.97251200  0.84271400  0.70399600  1
  O  O19  1  0.02748900  0.15728800  0.29600100  1
loop_
_geom_bond_atom_site_label_1
_geom_bond_atom_site_label_2
_geom_bond_distance
_geom_bond_site_symmetry_2
Bi0 O15 2.161332 1_554
Bi0 O14 2.211469 1_445
Bi0 O1 2.263555 1_554
Bi0 O0 2.360271 1_555
Bi0 O19 2.483310 1_555
Bi0 O5 2.516907 1_555
Bi1 O14 2.161359 1_556
Bi1 O15 2.211447 1_665
Bi1 O17 2.263535 1_556
Bi1 O11 2.360349 1_555
Bi1 O18 2.483165 1_555
Bi1 O13 2.516922 1_555
Bi2 O3 2.161871 1_555
Bi2 O8 2.211431 1_555
Bi2 O6 2.262261 1_555
Bi2 O12 2.364409 1_655
Bi2 O2 2.488072 1_555
Bi2 O4 2.518589 1_555
Bi3 O8 2.161882 1_555
Bi3 O3 2.211418 1_555
Bi3 O7 2.262206 1_555
Bi3 O9 2.364405 1_455
Bi3 O16 2.488126 1_555
Bi3 O10 2.518642 1_555
Mo0 O13 1.777225 1_555
Mo0 O18 1.789287 1_555
Mo0 O9 1.820001 1_565
Mo0 O6 1.835095 1_555
Mo1 O5 1.777164 1_555
Mo1 O19 1.789243 1_555
Mo1 O12 1.819996 1_545
Mo1 O7 1.835168 1_555
Mo2 O4 1.780162 1_555
Mo2 O2 1.789573 1_555
Mo2 O0 1.820332 1_555
Mo2 O17 1.831804 1_555
Mo3 O10 1.780159 1_555
Mo3 O16 1.789544 1_555
Mo3 O11 1.820354 1_555
Mo3 O1 1.831840 1_555
