# generated using pymatgen
data_CsHfMg14
_symmetry_space_group_name_H-M   'P 1'
_cell_length_a   6.63809330
_cell_length_b   6.63809272
_cell_length_c   10.46396740
_cell_angle_alpha   90.00000000
_cell_angle_beta   90.00000000
_cell_angle_gamma   120.00000289
_symmetry_Int_Tables_number   1
_chemical_formula_structural   CsHfMg14
_chemical_formula_sum   'Cs1 Hf1 Mg14'
_cell_volume   399.31319693
_cell_formula_units_Z   1
loop_
 _symmetry_equiv_pos_site_id
 _symmetry_equiv_pos_as_xyz
  1  'x, y, z'
loop_
 _atom_site_type_symbol
 _atom_site_label
 _atom_site_symmetry_multiplicity
 _atom_site_fract_x
 _atom_site_fract_y
 _atom_site_fract_z
 _atom_site_occupancy
  Cs  Cs0  1  0.16666700  0.33333300  0.12500000  1
  Hf  Hf0  1  0.16666700  0.33333300  0.62500000  1
  Mg  Mg0  1  0.17428265  0.83714083  0.12500000  1
  Mg  Mg1  1  0.16491156  0.83245528  0.62500000  1
  Mg  Mg2  1  0.66285917  0.32571735  0.12500000  1
  Mg  Mg3  1  0.66754472  0.33508844  0.62500000  1
  Mg  Mg4  1  0.66285917  0.83714083  0.12500000  1
  Mg  Mg5  1  0.66754472  0.83245528  0.62500000  1
  Mg  Mg6  1  0.33793857  0.16206143  0.39288239  1
  Mg  Mg7  1  0.33793857  0.16206143  0.85711761  1
  Mg  Mg8  1  0.33793857  0.67587815  0.39288239  1
  Mg  Mg9  1  0.33793857  0.67587815  0.85711761  1
  Mg  Mg10  1  0.82412185  0.16206143  0.39288239  1
  Mg  Mg11  1  0.82412185  0.16206143  0.85711761  1
  Mg  Mg12  1  0.83333300  0.66666700  0.37181794  1
  Mg  Mg13  1  0.83333300  0.66666700  0.87818206  1
loop_
_geom_bond_atom_site_label_1
_geom_bond_atom_site_label_2
_geom_bond_distance
_geom_bond_site_symmetry_2
Cs0 Mg0 3.319335 1_545
Cs0 Mg4 3.319335 1_555
Cs0 Mg4 3.319335 1_445
Cs0 Mg0 3.319335 1_555
Cs0 Mg2 3.319335 1_555
Cs0 Mg2 3.319335 1_455
Cs0 Mg6 3.425665 1_555
Cs0 Mg7 3.425665 1_554
Cs0 Mg8 3.425671 1_555
Cs0 Mg9 3.425671 1_554
Cs0 Mg10 3.425671 1_455
Cs0 Mg11 3.425671 1_454
Hf0 Mg6 3.126844 1_555
Hf0 Mg7 3.126844 1_555
Hf0 Mg8 3.126851 1_555
Hf0 Mg9 3.126851 1_555
Hf0 Mg10 3.126851 1_455
Hf0 Mg11 3.126851 1_455
Hf0 Mg5 3.319062 1_445
Hf0 Mg1 3.319062 1_545
Hf0 Mg1 3.319062 1_555
Hf0 Mg5 3.319062 1_555
Hf0 Mg3 3.319062 1_455
Hf0 Mg3 3.319062 1_555
Mg0 Mg12 3.242230 1_455
Mg0 Mg13 3.242230 1_454
Mg0 Mg2 3.243216 1_565
Mg0 Mg4 3.243217 1_555
Mg0 Mg8 3.368452 1_555
Mg0 Mg9 3.368452 1_554
Mg0 Mg7 3.368459 1_564
Mg0 Mg6 3.368459 1_565
Mg0 Mg2 3.394876 1_455
Mg0 Mg4 3.394877 1_455
Mg1 Mg9 3.081025 1_555
Mg1 Mg8 3.081025 1_555
Mg1 Mg7 3.081032 1_565
Mg1 Mg6 3.081032 1_565
Mg1 Mg13 3.263770 1_455
Mg1 Mg12 3.263770 1_455
Mg1 Mg3 3.301567 1_455
Mg1 Mg5 3.301567 1_455
Mg1 Mg3 3.336526 1_565
Mg1 Mg5 3.336526 1_555
Mg2 Mg4 3.243216 1_545
Mg2 Mg6 3.368459 1_555
Mg2 Mg7 3.368459 1_554
Mg2 Mg4 3.394876 1_555
Mg3 Mg7 3.081032 1_555
Mg3 Mg6 3.081032 1_555
Mg3 Mg5 3.301567 1_555
Mg3 Mg5 3.336526 1_545
Mg4 Mg8 3.368459 1_555
Mg4 Mg9 3.368459 1_554
Mg5 Mg9 3.081032 1_555
Mg5 Mg8 3.081032 1_555
Mg6 Mg8 3.227330 1_545
Mg6 Mg8 3.410763 1_555
Mg7 Mg9 3.227330 1_545
Mg7 Mg9 3.410763 1_555
Mg10 Mg3 3.081025 1_555
Mg10 Mg5 3.081032 1_545
Mg10 Mg8 3.227330 1_545
Mg10 Mg6 3.227330 1_555
Mg10 Mg12 3.326779 1_555
Mg10 Mg12 3.326779 1_545
Mg10 Mg2 3.368452 1_555
Mg10 Mg4 3.368459 1_545
Mg10 Mg8 3.410763 1_655
Mg10 Mg6 3.410763 1_655
Mg11 Mg3 3.081025 1_555
Mg11 Mg5 3.081032 1_545
Mg11 Mg9 3.227330 1_545
Mg11 Mg7 3.227330 1_555
Mg11 Mg13 3.326779 1_555
Mg11 Mg13 3.326779 1_545
Mg11 Mg2 3.368452 1_556
Mg11 Mg4 3.368459 1_546
Mg11 Mg9 3.410763 1_655
Mg11 Mg7 3.410763 1_655
Mg12 Mg4 3.242223 1_555
Mg12 Mg2 3.242230 1_555
Mg12 Mg5 3.263763 1_555
Mg12 Mg3 3.263770 1_555
Mg12 Mg6 3.326779 1_555
Mg12 Mg6 3.326779 1_665
Mg12 Mg8 3.326779 1_655
Mg12 Mg8 3.326779 1_555
Mg13 Mg4 3.242223 1_556
Mg13 Mg2 3.242230 1_556
Mg13 Mg5 3.263763 1_555
Mg13 Mg3 3.263770 1_555
Mg13 Mg7 3.326779 1_555
Mg13 Mg7 3.326779 1_665
Mg13 Mg9 3.326779 1_655
Mg13 Mg9 3.326779 1_555
