# generated using pymatgen
data_Li4Co3NiO8
_symmetry_space_group_name_H-M   'P 1'
_cell_length_a   5.85268794
_cell_length_b   10.14402436
_cell_length_c   5.85254570
_cell_angle_alpha   72.87120556
_cell_angle_beta   59.84272808
_cell_angle_gamma   72.63029908
_symmetry_Int_Tables_number   1
_chemical_formula_structural   Li4Co3NiO8
_chemical_formula_sum   'Li8 Co6 Ni2 O16'
_cell_volume   282.30195427
_cell_formula_units_Z   2
loop_
 _symmetry_equiv_pos_site_id
 _symmetry_equiv_pos_as_xyz
  1  'x, y, z'
loop_
 _atom_site_type_symbol
 _atom_site_label
 _atom_site_symmetry_multiplicity
 _atom_site_fract_x
 _atom_site_fract_y
 _atom_site_fract_z
 _atom_site_occupancy
  Li  Li0  1  0.74409200  0.75138000  0.75599400  1
  Li  Li1  1  0.25592100  0.24861800  0.24399500  1
  Li  Li2  1  0.25238700  0.74927900  0.24648000  1
  Li  Li3  1  0.74761400  0.25071100  0.75352600  1
  Li  Li4  1  0.24676900  0.74723000  0.74772000  1
  Li  Li5  1  0.75334000  0.25277000  0.25237100  1
  Li  Li6  1  0.74382900  0.75508000  0.24940000  1
  Li  Li7  1  0.25620500  0.24492100  0.75058600  1
  Co  Co0  1  0.99994700  0.50001700  0.49996700  1
  Co  Co1  1  0.49999500  0.00001400  0.99997300  1
  Co  Co2  1  0.49994500  0.00000700  0.49998700  1
  Co  Co3  1  0.50009900  0.50002500  0.99986400  1
  Co  Co4  1  0.99999700  0.00000600  0.50000500  1
  Co  Co5  1  0.99997900  0.50000800  0.00004000  1
  Ni  Ni0  1  0.49972700  0.49988900  0.50038700  1
  Ni  Ni1  1  0.00001600  0.00021200  0.00010500  1
  O  O0  1  0.14827500  0.61606100  0.11654900  1
  O  O1  1  0.64286400  0.11486600  0.64420300  1
  O  O2  1  0.35712200  0.88515000  0.35571000  1
  O  O3  1  0.85187200  0.38393500  0.88335300  1
  O  O4  1  0.84531800  0.88382800  0.89083700  1
  O  O5  1  0.37979700  0.38640700  0.35026500  1
  O  O6  1  0.10791000  0.61100200  0.63777300  1
  O  O7  1  0.60713600  0.10476900  0.13939300  1
  O  O8  1  0.62149600  0.61115500  0.11672100  1
  O  O9  1  0.14080600  0.10685300  0.61220900  1
  O  O10  1  0.85914400  0.89313400  0.38782900  1
  O  O11  1  0.37852700  0.38876200  0.88329700  1
  O  O12  1  0.39284700  0.89523700  0.86055500  1
  O  O13  1  0.89209400  0.38899600  0.36218300  1
  O  O14  1  0.62022200  0.61346200  0.64957800  1
  O  O15  1  0.15471900  0.11621700  0.10915100  1
loop_
_geom_bond_atom_site_label_1
_geom_bond_atom_site_label_2
_geom_bond_distance
_geom_bond_site_symmetry_2
Li0 O12 2.049611 1_555
Li0 O8 2.076948 1_556
Li0 O6 2.080902 1_655
Li0 O4 2.085308 1_555
Li0 O14 2.107913 1_555
Li0 O10 2.111669 1_555
Li1 O7 2.049459 1_555
Li1 O11 2.076440 1_554
Li1 O13 2.080933 1_455
Li1 O15 2.084818 1_555
Li1 O5 2.106253 1_555
Li1 O9 2.111915 1_555
Li2 O2 2.025151 1_555
Li2 O0 2.082845 1_555
Li2 O8 2.092337 1_555
Li2 O6 2.190278 1_555
Li2 O12 2.204712 1_554
Li2 O10 2.214416 1_455
Li3 O1 2.025346 1_555
Li3 O3 2.083041 1_555
Li3 O11 2.091910 1_555
Li3 O13 2.190509 1_555
Li3 O7 2.204423 1_556
Li3 O9 2.214226 1_655
Li4 O0 2.068368 1_556
Li4 O14 2.091741 1_555
Li4 O6 2.168858 1_555
Li4 O2 2.190462 1_555
Li4 O4 2.214612 1_455
Li4 O12 2.310602 1_555
Li5 O3 2.069129 1_554
Li5 O5 2.091650 1_555
Li5 O13 2.167871 1_555
Li5 O1 2.189624 1_555
Li5 O15 2.214149 1_655
Li5 O7 2.311628 1_555
Li6 O4 2.014607 1_554
Li6 O2 2.129819 1_555
Li6 O10 2.203418 1_555
Li6 O0 2.236056 1_655
Li6 O14 2.237999 1_555
Li6 O8 2.257797 1_555
Li7 O15 2.014424 1_556
Li7 O1 2.129529 1_555
Li7 O9 2.203655 1_555
Li7 O3 2.235574 1_455
Li7 O5 2.238006 1_555
Li7 O11 2.257165 1_555
Co0 O13 1.946244 1_555
Co0 O6 1.946503 1_655
Co0 O14 2.035049 1_555
Co0 O5 2.036206 1_655
Co0 O3 2.066741 1_555
Co0 O0 2.066795 1_655
Co1 O15 1.898796 1_556
Co1 O4 1.898926 1_545
Co1 O7 1.900233 1_556
Co1 O12 1.900428 1_545
Co1 O2 1.948091 1_546
Co1 O1 1.948170 1_555
Co2 O9 1.922551 1_555
Co2 O10 1.922924 1_545
Co2 O12 1.929561 1_545
Co2 O7 1.929619 1_555
Co2 O2 2.153922 1_545
Co2 O1 2.154091 1_555
Co3 O8 1.914144 1_556
Co3 O11 1.914758 1_555
Co3 O14 1.914810 1_555
Co3 O5 1.916023 1_556
Co3 O0 1.924916 1_556
Co3 O3 1.924925 1_555
Co4 O9 1.944595 1_655
Co4 O10 1.944872 1_545
Co4 O2 1.947149 1_645
Co4 O1 1.947157 1_555
Co4 O4 2.099773 1_545
Co4 O15 2.100001 1_655
Co5 O13 1.957792 1_555
Co5 O6 1.958259 1_654
Co5 O8 2.021595 1_555
Co5 O11 2.022198 1_654
Co5 O0 2.069227 1_655
Co5 O3 2.069290 1_554
Ni0 O11 2.046506 1_555
Ni0 O8 2.050201 1_555
Ni0 O14 2.069628 1_555
Ni0 O5 2.070658 1_555
Ni0 O6 2.076917 1_555
Ni0 O13 2.078561 1_555
Ni1 O9 2.051595 1_554
Ni1 O10 2.052273 1_445
Ni1 O7 2.060708 1_455
Ni1 O12 2.061738 1_544
Ni1 O15 2.066634 1_555
Ni1 O4 2.070559 1_444
