# generated using pymatgen
data_HoSi
_symmetry_space_group_name_H-M   'P 1'
_cell_length_a   3.80241048
_cell_length_b   4.24912539
_cell_length_c   5.64985336
_cell_angle_alpha   112.08851415
_cell_angle_beta   90.00000000
_cell_angle_gamma   90.00000000
_symmetry_Int_Tables_number   1
_chemical_formula_structural   HoSi
_chemical_formula_sum   'Ho2 Si2'
_cell_volume   84.58432879
_cell_formula_units_Z   2
loop_
 _symmetry_equiv_pos_site_id
 _symmetry_equiv_pos_as_xyz
  1  'x, y, z'
loop_
 _atom_site_type_symbol
 _atom_site_label
 _atom_site_symmetry_multiplicity
 _atom_site_fract_x
 _atom_site_fract_y
 _atom_site_fract_z
 _atom_site_occupancy
  Ho  Ho0  1  0.25000000  0.85939652  0.71879103  1
  Ho  Ho1  1  0.75000000  0.14060348  0.28120897  1
  Si  Si0  1  0.25000000  0.57637539  0.15275278  1
  Si  Si1  1  0.75000000  0.42362461  0.84724722  1
loop_
_geom_bond_atom_site_label_1
_geom_bond_atom_site_label_2
_geom_bond_distance
_geom_bond_site_symmetry_2
Ho0 Si1 2.929265 1_555
Ho0 Si1 2.929265 1_455
Ho0 Si1 2.929265 1_465
Ho0 Si1 2.929265 1_565
Ho0 Si0 2.963310 1_555
Ho0 Si0 3.110484 1_566
Ho0 Si0 3.110495 1_556
Ho1 Si0 2.929265 1_655
Ho1 Si0 2.929265 1_555
Ho1 Si0 2.929265 1_645
Ho1 Si0 2.929265 1_545
Ho1 Si1 2.963310 1_555
Ho1 Si1 3.110484 1_544
Ho1 Si1 3.110495 1_554
Si0 Si1 2.484469 1_554
Si0 Si1 2.484469 1_454
