# generated using pymatgen
data_Na2SrMg(PO4)2
_symmetry_space_group_name_H-M   'P 1'
_cell_length_a   5.24764277
_cell_length_b   9.15184237
_cell_length_c   13.40775753
_cell_angle_alpha   90.03851440
_cell_angle_beta   90.00000000
_cell_angle_gamma   90.00000000
_symmetry_Int_Tables_number   1
_chemical_formula_structural   Na2SrMg(PO4)2
_chemical_formula_sum   'Na8 Sr4 Mg4 P8 O32'
_cell_volume   643.91544737
_cell_formula_units_Z   4
loop_
 _symmetry_equiv_pos_site_id
 _symmetry_equiv_pos_as_xyz
  1  'x, y, z'
loop_
 _atom_site_type_symbol
 _atom_site_label
 _atom_site_symmetry_multiplicity
 _atom_site_fract_x
 _atom_site_fract_y
 _atom_site_fract_z
 _atom_site_occupancy
  Na  Na0  1  0.98623035  0.67629522  0.08773369  1
  Na  Na1  1  0.48623035  0.82370478  0.91226631  1
  Na  Na2  1  0.01376965  0.32370478  0.91226631  1
  Na  Na3  1  0.51376965  0.17629522  0.08773369  1
  Na  Na4  1  0.98836471  0.65532434  0.58774761  1
  Na  Na5  1  0.48836471  0.84467566  0.41225239  1
  Na  Na6  1  0.01163529  0.34467566  0.41225239  1
  Na  Na7  1  0.51163529  0.15532434  0.58774761  1
  Sr  Sr0  1  0.46098201  0.53103202  0.24978204  1
  Sr  Sr1  1  0.96098201  0.96896798  0.75021796  1
  Sr  Sr2  1  0.53901799  0.46896798  0.75021796  1
  Sr  Sr3  1  0.03901799  0.03103202  0.24978204  1
  Mg  Mg0  1  0.50000000  0.50000000  0.50000000  1
  Mg  Mg1  1  0.00000000  -0.00000000  0.50000000  1
  Mg  Mg2  1  0.50000000  0.50000000  -0.00000000  1
  Mg  Mg3  1  0.00000000  -0.00000000  -0.00000000  1
  P  P0  1  0.97989040  0.67758409  0.36675997  1
  P  P1  1  0.47989040  0.82241591  0.63324003  1
  P  P2  1  0.02010960  0.32241591  0.63324003  1
  P  P3  1  0.52010960  0.17758409  0.36675997  1
  P  P4  1  0.01005264  0.65588815  0.86705571  1
  P  P5  1  0.51005264  0.84411185  0.13294429  1
  P  P6  1  0.98994736  0.34411185  0.13294429  1
  P  P7  1  0.48994736  0.15588815  0.86705571  1
  O  O0  1  0.98558104  0.64694431  0.25553151  1
  O  O1  1  0.48558104  0.85305569  0.74446849  1
  O  O2  1  0.01441896  0.35305569  0.74446849  1
  O  O3  1  0.51441896  0.14694431  0.25553151  1
  O  O4  1  0.99744226  0.84234624  0.38952433  1
  O  O5  1  0.49744226  0.65765376  0.61047567  1
  O  O6  1  0.00255774  0.15765376  0.61047567  1
  O  O7  1  0.50255774  0.34234624  0.38952433  1
  O  O8  1  0.20335492  0.59811997  0.41903777  1
  O  O9  1  0.70335492  0.90188003  0.58096223  1
  O  O10  1  0.79664508  0.40188003  0.58096223  1
  O  O11  1  0.29664508  0.09811997  0.41903777  1
  O  O12  1  0.72999324  0.61964045  0.41198396  1
  O  O13  1  0.22999324  0.88035955  0.58801604  1
  O  O14  1  0.27000676  0.38035955  0.58801604  1
  O  O15  1  0.77000676  0.11964045  0.41198396  1
  O  O16  1  0.96498118  0.67869103  0.75624783  1
  O  O17  1  0.46498118  0.82130897  0.24375217  1
  O  O18  1  0.03501882  0.32130897  0.24375217  1
  O  O19  1  0.53501882  0.17869103  0.75624783  1
  O  O20  1  0.00225982  0.80539585  0.92095407  1
  O  O21  1  0.50225982  0.69460415  0.07904593  1
  O  O22  1  0.99774018  0.19460415  0.07904593  1
  O  O23  1  0.49774018  0.30539585  0.92095407  1
  O  O24  1  0.27123506  0.58559602  0.88851862  1
  O  O25  1  0.77123506  0.91440398  0.11148138  1
  O  O26  1  0.72876494  0.41440398  0.11148138  1
  O  O27  1  0.22876494  0.08559602  0.88851862  1
  O  O28  1  0.80043677  0.55769361  0.91156905  1
  O  O29  1  0.30043677  0.94230639  0.08843095  1
  O  O30  1  0.19956323  0.44230639  0.08843095  1
  O  O31  1  0.69956323  0.05769361  0.91156905  1
loop_
_geom_bond_atom_site_label_1
_geom_bond_atom_site_label_2
_geom_bond_distance
_geom_bond_site_symmetry_2
Na0 O0 2.265953 1_555
Na0 O30 2.416423 1_655
Na0 O25 2.474257 1_555
Na0 O20 2.531189 1_654
Na0 O21 2.547895 1_555
Na0 O21 2.715622 1_655
Na0 O26 2.769915 1_555
Na0 O28 2.775643 1_554
Na0 O29 2.940322 1_655
Na1 O1 2.265953 1_555
Na1 O31 2.416423 1_565
Na1 O24 2.474257 1_555
Na1 O21 2.531189 1_556
Na1 O20 2.547895 1_555
Na1 O20 2.715622 1_655
Na1 O27 2.769915 1_565
Na1 O29 2.775643 1_556
Na1 O28 2.940322 1_555
Na2 O2 2.265953 1_555
Na2 O28 2.416423 1_455
Na2 O27 2.474257 1_555
Na2 O22 2.531189 1_456
Na2 O23 2.547895 1_555
Na2 O23 2.715622 1_455
Na2 O24 2.769915 1_555
Na2 O30 2.775643 1_556
Na2 O31 2.940322 1_455
Na3 O3 2.265953 1_555
Na3 O29 2.416423 1_545
Na3 O26 2.474257 1_555
Na3 O23 2.531189 1_554
Na3 O22 2.547895 1_555
Na3 O22 2.715622 1_455
Na3 O25 2.769915 1_545
Na3 O31 2.775643 1_554
Na3 O30 2.940322 1_555
Na4 O16 2.272481 1_555
Na4 O13 2.418525 1_655
Na4 O10 2.529858 1_555
Na4 O8 2.581093 1_655
Na4 O5 2.594232 1_555
Na4 O5 2.688864 1_655
Na4 O9 2.708685 1_555
Na4 O12 2.738150 1_555
Na4 O14 2.918360 1_655
Na5 O17 2.272481 1_555
Na5 O12 2.418525 1_555
Na5 O11 2.529858 1_565
Na5 O9 2.581093 1_555
Na5 O4 2.594232 1_455
Na5 O4 2.688864 1_555
Na5 O8 2.708685 1_555
Na5 O13 2.738150 1_555
Na5 O15 2.918360 1_565
Na6 O18 2.272481 1_555
Na6 O15 2.418525 1_455
Na6 O8 2.529858 1_555
Na6 O10 2.581093 1_455
Na6 O7 2.594232 1_555
Na6 O7 2.688864 1_455
Na6 O11 2.708685 1_555
Na6 O14 2.738150 1_555
Na6 O12 2.918360 1_455
Na7 O19 2.272481 1_555
Na7 O14 2.418525 1_555
Na7 O9 2.529858 1_545
Na7 O11 2.581093 1_555
Na7 O6 2.594232 1_655
Na7 O6 2.688864 1_555
Na7 O10 2.708685 1_555
Na7 O15 2.738150 1_555
Na7 O13 2.918360 1_545
Mg0 O14 2.012437 1_555
Mg0 O12 2.012437 1_555
Mg0 O7 2.067145 1_555
Mg0 O5 2.067145 1_555
Mg0 O8 2.099836 1_555
Mg0 O10 2.099836 1_555
Mg1 O13 2.012437 1_545
Mg1 O15 2.012437 1_455
Mg1 O6 2.067145 1_555
Mg1 O4 2.067145 1_445
Mg1 O9 2.099836 1_445
Mg1 O11 2.099836 1_555
Mg2 O30 2.042312 1_555
Mg2 O28 2.042312 1_554
Mg2 O24 2.071364 1_554
Mg2 O26 2.071364 1_555
Mg2 O21 2.071896 1_555
Mg2 O23 2.071896 1_554
Mg3 O29 2.042312 1_545
Mg3 O31 2.042312 1_454
Mg3 O27 2.071364 1_554
Mg3 O25 2.071364 1_445
Mg3 O22 2.071896 1_455
Mg3 O20 2.071896 1_544
O0 P0 1.517566 1_555
O0 Sr0 2.711983 1_655
O0 Sr0 2.951213 1_555
O1 P1 1.517566 1_555
O1 Sr1 2.711983 1_555
O1 Sr1 2.951213 1_455
O2 P2 1.517566 1_555
O2 Sr2 2.711983 1_455
O2 Sr2 2.951213 1_555
O3 P3 1.517566 1_555
O3 Sr3 2.711983 1_555
O3 Sr3 2.951213 1_655
O4 P0 1.541012 1_555
O4 Sr3 2.558194 1_665
O5 P1 1.541012 1_555
O5 Sr2 2.558194 1_555
O6 P2 1.541012 1_555
O6 Sr1 2.558194 1_445
O7 P3 1.541012 1_555
O7 Sr0 2.558194 1_555
O8 P0 1.547903 1_455
O8 Sr0 2.711591 1_555
O9 P1 1.547903 1_555
O9 Sr1 2.711591 1_555
O10 P2 1.547903 1_655
O10 Sr2 2.711591 1_555
O11 P3 1.547903 1_555
O11 Sr3 2.711591 1_555
O12 P0 1.539155 1_555
O12 Sr0 2.716185 1_555
O13 P1 1.539155 1_555
O13 Sr1 2.716185 1_455
O14 P2 1.539155 1_555
O14 Sr2 2.716185 1_555
O15 P3 1.539155 1_555
O15 Sr3 2.716185 1_655
O16 P4 1.518937 1_655
O16 Sr1 2.657936 1_555
O16 Sr2 2.947341 1_555
O17 P5 1.518937 1_555
O17 Sr0 2.657936 1_555
O17 Sr3 2.947341 1_565
O18 P6 1.518937 1_455
O18 Sr3 2.657936 1_555
O18 Sr0 2.947341 1_555
O19 P7 1.518937 1_555
O19 Sr2 2.657936 1_555
O19 Sr1 2.947341 1_545
O20 P4 1.547495 1_555
O20 Sr1 2.744609 1_455
O21 P5 1.547495 1_555
O21 Sr0 2.744609 1_555
O22 P6 1.547495 1_555
O22 Sr3 2.744609 1_655
O23 P7 1.547495 1_555
O23 Sr2 2.744609 1_555
O24 P4 1.541240 1_555
O24 Sr2 2.559239 1_555
O25 P5 1.541240 1_555
O25 Sr3 2.559239 1_665
O26 P6 1.541240 1_555
O26 Sr0 2.559239 1_555
O27 P7 1.541240 1_555
O27 Sr1 2.559239 1_445
O28 P4 1.540937 1_655
O28 Sr2 2.686824 1_555
O29 P5 1.540937 1_555
O29 Sr3 2.686824 1_565
O30 P6 1.540937 1_455
O30 Sr0 2.686824 1_555
O31 P7 1.540937 1_555
O31 Sr1 2.686824 1_545
