# generated using pymatgen
data_Li7Mn2(CoO4)3
_symmetry_space_group_name_H-M   'P 1'
_cell_length_a   5.04476200
_cell_length_b   5.12854664
_cell_length_c   8.81899832
_cell_angle_alpha   106.29770143
_cell_angle_beta   90.23942291
_cell_angle_gamma   99.99423968
_symmetry_Int_Tables_number   1
_chemical_formula_structural   Li7Mn2(CoO4)3
_chemical_formula_sum   'Li7 Mn2 Co3 O12'
_cell_volume   215.33813833
_cell_formula_units_Z   1
loop_
 _symmetry_equiv_pos_site_id
 _symmetry_equiv_pos_as_xyz
  1  'x, y, z'
loop_
 _atom_site_type_symbol
 _atom_site_label
 _atom_site_symmetry_multiplicity
 _atom_site_fract_x
 _atom_site_fract_y
 _atom_site_fract_z
 _atom_site_occupancy
  Li  Li0  1  0.75346200  0.48808500  0.07210300  1
  Li  Li1  1  0.74939900  0.50379000  0.42003600  1
  Li  Li2  1  0.24920000  0.49959900  0.24774500  1
  Li  Li3  1  0.25166400  0.50789700  0.58863300  1
  Li  Li4  1  0.74374000  0.49971100  0.75650000  1
  Li  Li5  1  0.25480600  0.50236800  0.91544600  1
  Li  Li6  1  0.49982900  0.99717900  0.83285700  1
  Mn  Mn0  1  0.99786100  0.99376000  0.99606000  1
  Mn  Mn1  1  0.50016000  0.00421700  0.50270600  1
  Co  Co0  1  0.00123600  0.00105100  0.33340900  1
  Co  Co1  1  0.99928300  0.00093700  0.67529300  1
  Co  Co2  1  0.49816000  0.00168400  0.15620000  1
  O  O0  1  0.89466700  0.22666900  0.88088600  1
  O  O1  1  0.88184700  0.22474600  0.19782900  1
  O  O2  1  0.36232000  0.22515800  0.04877000  1
  O  O3  1  0.37029600  0.22259900  0.37709900  1
  O  O4  1  0.85332000  0.23220900  0.53599400  1
  O  O5  1  0.36260600  0.22389100  0.68986200  1
  O  O6  1  0.62335500  0.78519700  0.30132000  1
  O  O7  1  0.63647500  0.78170800  0.61542500  1
  O  O8  1  0.14289100  0.77354700  0.45946400  1
  O  O9  1  0.10761200  0.76695700  0.80386800  1
  O  O10  1  0.64558400  0.76553600  0.96831600  1
  O  O11  1  0.12022500  0.77150500  0.12418000  1
loop_
_geom_bond_atom_site_label_1
_geom_bond_atom_site_label_2
_geom_bond_distance
_geom_bond_site_symmetry_2
Li0 O10 2.038197 1_554
Li0 O0 2.054564 1_554
Li0 O11 2.105182 1_655
Li0 O1 2.147302 1_555
Li0 O2 2.161374 1_555
Li0 O6 2.338459 1_555
Li1 O7 2.058357 1_555
Li1 O4 2.075801 1_555
Li1 O3 2.147278 1_555
Li1 O6 2.178141 1_555
Li1 O8 2.178623 1_655
Li1 O1 2.259095 1_555
Li2 O2 2.070464 1_555
Li2 O1 2.086462 1_455
Li2 O8 2.131982 1_555
Li2 O6 2.139126 1_555
Li2 O11 2.171934 1_555
Li2 O3 2.213065 1_555
Li3 O5 2.059200 1_555
Li3 O8 2.140139 1_555
Li3 O7 2.158717 1_555
Li3 O3 2.181848 1_555
Li3 O9 2.197160 1_555
Li3 O4 2.211441 1_455
Li4 O9 2.054650 1_655
Li4 O10 2.099033 1_555
Li4 O5 2.150155 1_555
Li4 O4 2.178118 1_555
Li4 O0 2.229154 1_555
Li4 O7 2.282145 1_555
Li5 O0 2.062712 1_455
Li5 O9 2.110462 1_555
Li5 O10 2.154285 1_555
Li5 O11 2.159723 1_556
Li5 O2 2.213220 1_556
Li5 O5 2.230967 1_555
Li6 O9 2.095212 1_555
Li6 O0 2.105133 1_565
Li6 O7 2.111738 1_555
Li6 O10 2.114587 1_555
Li6 O5 2.125189 1_565
Li6 O2 2.125327 1_566
Mn0 O0 1.903119 1_565
Mn0 O9 1.912379 1_655
Mn0 O10 1.923993 1_555
Mn0 O11 1.979443 1_656
Mn0 O2 1.982624 1_666
Mn0 O1 1.994592 1_566
Mn1 O7 1.914846 1_545
Mn1 O4 1.925461 1_555
Mn1 O5 1.926732 1_555
Mn1 O8 1.947901 1_545
Mn1 O3 1.963555 1_555
Mn1 O6 1.983450 1_545
Co0 O3 1.979862 1_555
Co0 O6 2.006688 1_445
Co0 O1 2.027866 1_455
Co0 O8 2.029434 1_545
Co0 O11 2.046045 1_545
Co0 O4 2.069688 1_455
Co1 O7 1.958896 1_545
Co1 O5 1.967618 1_655
Co1 O0 1.986996 1_555
Co1 O9 2.002612 1_645
Co1 O8 2.136983 1_645
Co1 O4 2.138120 1_555
Co2 O2 1.886102 1_555
Co2 O10 1.990477 1_544
Co2 O11 2.033609 1_545
Co2 O1 2.044462 1_555
Co2 O6 2.074522 1_545
Co2 O3 2.126081 1_555
