# generated using pymatgen
data_Na2Fe2Ni(PO4)3
_symmetry_space_group_name_H-M   'P 1'
_cell_length_a   8.64939929
_cell_length_b   8.64939929
_cell_length_c   6.56066709
_cell_angle_alpha   73.99821010
_cell_angle_beta   73.99821010
_cell_angle_gamma   93.61041802
_symmetry_Int_Tables_number   1
_chemical_formula_structural   Na2Fe2Ni(PO4)3
_chemical_formula_sum   'Na4 Fe4 Ni2 P6 O24'
_cell_volume   448.36068659
_cell_formula_units_Z   2
loop_
 _symmetry_equiv_pos_site_id
 _symmetry_equiv_pos_as_xyz
  1  'x, y, z'
loop_
 _atom_site_type_symbol
 _atom_site_label
 _atom_site_symmetry_multiplicity
 _atom_site_fract_x
 _atom_site_fract_y
 _atom_site_fract_z
 _atom_site_occupancy
  Na  Na0  1  0.98529300  0.01470700  0.25000000  1
  Na  Na1  1  0.01470700  0.98529300  0.75000000  1
  Na  Na2  1  0.50000000  0.50000000  0.00000000  1
  Na  Na3  1  0.50000000  0.50000000  0.50000000  1
  Fe  Fe0  1  0.38059500  0.05596600  0.37454900  1
  Fe  Fe1  1  0.61940500  0.94403400  0.62545100  1
  Fe  Fe2  1  0.94403400  0.61940500  0.12545100  1
  Fe  Fe3  1  0.05596600  0.38059500  0.87454900  1
  Ni  Ni0  1  0.26477200  0.73522800  0.25000000  1
  Ni  Ni1  1  0.73522800  0.26477200  0.75000000  1
  P  P0  1  0.70983100  0.29016900  0.25000000  1
  P  P1  1  0.29016900  0.70983100  0.75000000  1
  P  P2  1  0.65454200  0.87537400  0.11879100  1
  P  P3  1  0.34545800  0.12462600  0.88120900  1
  P  P4  1  0.12462600  0.34545800  0.38120900  1
  P  P5  1  0.87537400  0.65454200  0.61879100  1
  O  O0  1  0.53088900  0.26275200  0.25557400  1
  O  O1  1  0.46911100  0.73724800  0.74442600  1
  O  O2  1  0.73724800  0.46911100  0.24442600  1
  O  O3  1  0.26275200  0.53088900  0.75557400  1
  O  O4  1  0.52079800  0.73234000  0.16643700  1
  O  O5  1  0.47920200  0.26766000  0.83356300  1
  O  O6  1  0.26766000  0.47920200  0.33356300  1
  O  O7  1  0.73234000  0.52079800  0.66643700  1
  O  O8  1  0.74223800  0.17915700  0.46243100  1
  O  O9  1  0.25776200  0.82084300  0.53756900  1
  O  O10  1  0.82084300  0.25776200  0.03756900  1
  O  O11  1  0.17915700  0.74223800  0.96243100  1
  O  O12  1  0.60353400  0.95645100  0.30760300  1
  O  O13  1  0.39646600  0.04354900  0.69239700  1
  O  O14  1  0.04354900  0.39646600  0.19239700  1
  O  O15  1  0.95645100  0.60353400  0.80760300  1
  O  O16  1  0.82522400  0.82496900  0.10920000  1
  O  O17  1  0.17477600  0.17503100  0.89080000  1
  O  O18  1  0.17503100  0.17477600  0.39080000  1
  O  O19  1  0.82496900  0.82522400  0.60920000  1
  O  O20  1  0.32293800  0.99377600  0.11198500  1
  O  O21  1  0.67706200  0.00622400  0.88801500  1
  O  O22  1  0.00622400  0.67706200  0.38801500  1
  O  O23  1  0.99377600  0.32293800  0.61198500  1
loop_
_geom_bond_atom_site_label_1
_geom_bond_atom_site_label_2
_geom_bond_distance
_geom_bond_site_symmetry_2
Na0 O17 2.438275 1_654
Na0 O19 2.438275 1_545
Na0 O18 2.591944 1_655
Na0 O16 2.591944 1_545
Na0 O20 2.842637 1_645
Na0 O22 2.842637 1_645
Na0 O8 2.870425 1_555
Na0 O10 2.870425 1_555
Na1 O16 2.438275 1_456
Na1 O18 2.438275 1_565
Na1 O19 2.591944 1_455
Na1 O17 2.591944 1_565
Na1 O23 2.842637 1_465
Na1 O21 2.842637 1_465
Na1 O11 2.870425 1_555
Na1 O9 2.870425 1_555
Na2 O0 2.347929 1_555
Na2 O1 2.347929 1_554
Na2 O6 2.484492 1_555
Na2 O7 2.484492 1_554
Na2 O4 2.556517 1_555
Na2 O5 2.556517 1_554
Na2 O2 2.915634 1_555
Na2 O3 2.915634 1_554
Na3 O3 2.347929 1_555
Na3 O2 2.347929 1_555
Na3 O5 2.484492 1_555
Na3 O4 2.484492 1_555
Na3 O7 2.556517 1_555
Na3 O6 2.556517 1_555
Na3 O1 2.915634 1_555
Na3 O0 2.915634 1_555
Fe0 O0 1.968801 1_555
Fe0 O9 2.076218 1_545
Fe0 O18 2.101122 1_555
Fe0 O13 2.101199 1_555
Fe0 O20 2.110944 1_545
Fe0 O12 2.145370 1_545
Fe1 O1 1.968801 1_555
Fe1 O8 2.076218 1_565
Fe1 O19 2.101122 1_555
Fe1 O12 2.101199 1_555
Fe1 O21 2.110944 1_565
Fe1 O13 2.145370 1_565
Fe2 O2 1.968801 1_555
Fe2 O11 2.076218 1_654
Fe2 O16 2.101122 1_555
Fe2 O15 2.101199 1_554
Fe2 O22 2.110944 1_655
Fe2 O14 2.145370 1_655
Fe3 O3 1.968801 1_555
Fe3 O10 2.076218 1_456
Fe3 O17 2.101122 1_555
Fe3 O14 2.101199 1_556
Fe3 O23 2.110944 1_455
Fe3 O15 2.145370 1_455
Ni0 O4 2.133129 1_555
Ni0 O6 2.133129 1_555
Ni0 O20 2.136519 1_555
Ni0 O22 2.136519 1_555
Ni0 O9 2.196435 1_555
Ni0 O11 2.196435 1_554
Ni1 O7 2.133129 1_555
Ni1 O5 2.133129 1_555
Ni1 O23 2.136519 1_555
Ni1 O21 2.136519 1_555
Ni1 O10 2.196435 1_556
Ni1 O8 2.196435 1_555
O0 P0 1.539761 1_555
O1 P1 1.539761 1_555
O2 P0 1.539761 1_555
O3 P1 1.539761 1_555
O4 P2 1.540664 1_555
O5 P3 1.540664 1_555
O6 P4 1.540664 1_555
O7 P5 1.540664 1_555
O8 P0 1.566645 1_555
O9 P1 1.566645 1_555
O10 P0 1.566645 1_555
O11 P1 1.566645 1_555
O12 P2 1.561240 1_555
O13 P3 1.561240 1_555
O14 P4 1.561240 1_555
O15 P5 1.561240 1_555
O16 P2 1.555138 1_555
O17 P3 1.555138 1_555
O18 P4 1.555138 1_555
O19 P5 1.555138 1_555
O20 P3 1.573557 1_564
O21 P2 1.573557 1_546
O22 P5 1.573557 1_455
O23 P4 1.573557 1_655
