# generated using pymatgen
data_TmMg2
_symmetry_space_group_name_H-M   'P 1'
_cell_length_a   5.95946610
_cell_length_b   5.95946321
_cell_length_c   5.95946610
_cell_angle_alpha   59.99999191
_cell_angle_beta   60.00000000
_cell_angle_gamma   59.99999191
_symmetry_Int_Tables_number   1
_chemical_formula_structural   TmMg2
_chemical_formula_sum   'Tm2 Mg4'
_cell_volume   149.66036476
_cell_formula_units_Z   2
loop_
 _symmetry_equiv_pos_site_id
 _symmetry_equiv_pos_as_xyz
  1  'x, y, z'
loop_
 _atom_site_type_symbol
 _atom_site_label
 _atom_site_symmetry_multiplicity
 _atom_site_fract_x
 _atom_site_fract_y
 _atom_site_fract_z
 _atom_site_occupancy
  Tm  Tm0  1  0.75000000  0.75000000  0.75000000  1
  Tm  Tm1  1  0.50000000  0.50000000  0.50000000  1
  Mg  Mg0  1  0.12500000  0.62500000  0.12500000  1
  Mg  Mg1  1  0.12500000  0.12500000  0.12500000  1
  Mg  Mg2  1  0.62500000  0.12500000  0.12500000  1
  Mg  Mg3  1  0.12500000  0.12500000  0.62500000  1
loop_
_geom_bond_atom_site_label_1
_geom_bond_atom_site_label_2
_geom_bond_distance
_geom_bond_site_symmetry_2
Tm0 Tm1 3.649411 1_565
Tm0 Tm1 3.649412 1_555
Tm0 Tm1 3.649413 1_655
Tm0 Tm1 3.649413 1_556
Mg0 Mg1 2.979732 1_565
Mg0 Mg1 2.979732 1_555
Mg0 Mg3 2.979732 1_555
Mg0 Mg3 2.979732 1_564
Mg0 Mg2 2.979732 1_555
Mg0 Mg2 2.979732 1_465
Mg0 Tm0 3.494047 1_455
Mg0 Tm1 3.494047 1_554
Mg0 Tm0 3.494047 1_554
Mg0 Tm1 3.494047 1_455
Mg0 Tm0 3.494047 1_454
Mg0 Tm1 3.494047 1_555
Mg1 Mg3 2.979733 1_555
Mg1 Mg3 2.979733 1_554
Mg1 Mg2 2.979733 1_455
Mg1 Mg2 2.979733 1_555
Mg1 Tm0 3.494045 1_454
Mg1 Tm1 3.494045 1_545
Mg1 Tm1 3.494046 1_554
Mg1 Tm1 3.494046 1_455
Mg1 Tm0 3.494046 1_544
Mg1 Tm0 3.494046 1_445
Mg2 Mg3 2.979733 1_555
Mg2 Mg3 2.979733 1_654
Mg2 Tm1 3.494045 1_545
Mg2 Tm0 3.494045 1_554
Mg2 Tm1 3.494046 1_555
Mg2 Tm0 3.494046 1_544
Mg2 Tm1 3.494046 1_554
Mg2 Tm0 3.494046 1_545
Mg3 Tm1 3.494045 1_545
Mg3 Tm0 3.494045 1_455
Mg3 Tm0 3.494046 1_445
Mg3 Tm1 3.494046 1_555
Mg3 Tm0 3.494046 1_545
Mg3 Tm1 3.494046 1_455
