# generated using pymatgen
data_NdFeSi
_symmetry_space_group_name_H-M   'P 1'
_cell_length_a   3.85804400
_cell_length_b   5.27798500
_cell_length_c   10.40606000
_cell_angle_alpha   90.00000000
_cell_angle_beta   90.00000000
_cell_angle_gamma   90.00000000
_symmetry_Int_Tables_number   1
_chemical_formula_structural   NdFeSi
_chemical_formula_sum   'Nd4 Fe4 Si4'
_cell_volume   211.89546091
_cell_formula_units_Z   4
loop_
 _symmetry_equiv_pos_site_id
 _symmetry_equiv_pos_as_xyz
  1  'x, y, z'
loop_
 _atom_site_type_symbol
 _atom_site_label
 _atom_site_symmetry_multiplicity
 _atom_site_fract_x
 _atom_site_fract_y
 _atom_site_fract_z
 _atom_site_occupancy
  Nd  Nd0  1  0.75000000  0.74912800  0.02883400  1
  Nd  Nd1  1  0.75000000  0.24906900  0.47117200  1
  Nd  Nd2  1  0.25000000  0.25093100  0.97117200  1
  Nd  Nd3  1  0.25000000  0.75087200  0.52883400  1
  Fe  Fe0  1  0.75000000  0.24592900  0.19639700  1
  Fe  Fe1  1  0.75000000  0.74597700  0.30385300  1
  Fe  Fe2  1  0.25000000  0.75402300  0.80385300  1
  Fe  Fe3  1  0.25000000  0.25407100  0.69639700  1
  Si  Si0  1  0.75000000  0.50312100  0.74985200  1
  Si  Si1  1  0.75000000  0.00364000  0.74989100  1
  Si  Si2  1  0.25000000  0.49636000  0.24989100  1
  Si  Si3  1  0.25000000  0.99687900  0.24985200  1
loop_
_geom_bond_atom_site_label_1
_geom_bond_atom_site_label_2
_geom_bond_distance
_geom_bond_site_symmetry_2
Nd0 Si0 3.180237 1_554
Nd0 Si1 3.198458 1_564
Nd0 Si3 3.274244 1_655
Nd0 Si3 3.274244 1_555
Nd0 Si2 3.285193 1_555
Nd0 Si2 3.285193 1_655
Nd1 Si1 3.176494 1_555
Nd1 Si0 3.194955 1_555
Nd1 Si2 3.275199 1_655
Nd1 Si2 3.275199 1_555
Nd1 Si3 3.285873 1_645
Nd1 Si3 3.285873 1_545
Nd2 Si2 3.176494 1_556
Nd2 Si3 3.194955 1_546
Nd2 Si1 3.275199 1_555
Nd2 Si1 3.275199 1_455
Nd2 Si0 3.285873 1_555
Nd2 Si0 3.285873 1_455
Nd3 Si3 3.180237 1_555
Nd3 Si2 3.198458 1_555
Nd3 Si0 3.274244 1_455
Nd3 Si0 3.274244 1_555
Nd3 Si1 3.285193 1_465
Nd3 Si1 3.285193 1_565
Fe0 Si3 2.399669 1_545
Fe0 Si3 2.399669 1_645
Fe0 Si2 2.403763 1_555
Fe0 Si2 2.403763 1_655
Fe0 Nd1 2.859373 1_555
Fe0 Nd2 3.035585 1_654
Fe0 Nd2 3.035585 1_554
Fe0 Nd0 3.148942 1_545
Fe0 Nd0 3.177116 1_555
Fe1 Si2 2.402537 1_655
Fe1 Si2 2.402537 1_555
Fe1 Si3 2.406357 1_555
Fe1 Si3 2.406357 1_655
Fe1 Nd0 2.861913 1_555
Fe1 Nd3 3.033620 1_655
Fe1 Nd3 3.033620 1_555
Fe1 Nd1 3.148008 1_555
Fe1 Nd1 3.175251 1_565
Fe2 Si1 2.402537 1_565
Fe2 Si1 2.402537 1_465
Fe2 Si0 2.406357 1_555
Fe2 Si0 2.406357 1_455
Fe2 Nd3 2.861913 1_555
Fe2 Nd0 3.033620 1_556
Fe2 Nd0 3.033620 1_456
Fe2 Nd2 3.148008 1_565
Fe2 Nd2 3.175251 1_555
Fe3 Si0 2.399669 1_455
Fe3 Si0 2.399669 1_555
Fe3 Si1 2.403763 1_555
Fe3 Si1 2.403763 1_455
Fe3 Nd2 2.859373 1_555
Fe3 Nd1 3.035585 1_555
Fe3 Nd1 3.035585 1_455
Fe3 Nd3 3.148942 1_555
Fe3 Nd3 3.177116 1_545
Si0 Si1 2.636253 1_555
Si0 Si1 2.641732 1_565
Si2 Si3 2.636253 1_545
Si2 Si3 2.641732 1_555
