# generated using pymatgen
data_Bi2BrClO2
_symmetry_space_group_name_H-M   'P 1'
_cell_length_a   3.94743300
_cell_length_b   3.94743300
_cell_length_c   7.84878200
_cell_angle_alpha   90.00000000
_cell_angle_beta   90.00000000
_cell_angle_gamma   90.00000000
_symmetry_Int_Tables_number   1
_chemical_formula_structural   Bi2BrClO2
_chemical_formula_sum   'Bi2 Br1 Cl1 O2'
_cell_volume   122.30150507
_cell_formula_units_Z   1
loop_
 _symmetry_equiv_pos_site_id
 _symmetry_equiv_pos_as_xyz
  1  'x, y, z'
loop_
 _atom_site_type_symbol
 _atom_site_label
 _atom_site_symmetry_multiplicity
 _atom_site_fract_x
 _atom_site_fract_y
 _atom_site_fract_z
 _atom_site_occupancy
  Bi  Bi0  1  0.50000000  0.50000000  0.84251300  1
  Bi  Bi1  1  0.00000000  0.00000000  0.16698800  1
  Br  Br0  1  0.00000000  0.00000000  0.64219000  1
  Cl  Cl0  1  0.50000000  0.50000000  0.33964300  1
  O  O0  1  0.00000000  0.50000000  0.00433300  1
  O  O1  1  0.50000000  0.00000000  0.00433300  1
loop_
_geom_bond_atom_site_label_1
_geom_bond_atom_site_label_2
_geom_bond_distance
_geom_bond_site_symmetry_2
Bi0 O0 2.347059 1_656
Bi0 O1 2.347059 1_556
Bi0 O1 2.347059 1_566
Bi0 O0 2.347059 1_556
Bi0 Br0 3.203625 1_565
Bi0 Br0 3.203625 1_555
Bi0 Br0 3.203625 1_655
Bi0 Br0 3.203625 1_665
Bi1 O0 2.350612 1_555
Bi1 O0 2.350612 1_545
Bi1 O1 2.350612 1_455
Bi1 O1 2.350612 1_555
Bi1 Cl0 3.102820 1_545
Bi1 Cl0 3.102820 1_445
Bi1 Cl0 3.102820 1_555
Bi1 Cl0 3.102820 1_455
