# generated using pymatgen
data_Li4Ti4Cr4NiO18
_symmetry_space_group_name_H-M   'P 1'
_cell_length_a   9.26891700
_cell_length_b   24.17762700
_cell_length_c   2.93211400
_cell_angle_alpha   90.00000000
_cell_angle_beta   90.00000000
_cell_angle_gamma   90.00000000
_symmetry_Int_Tables_number   1
_chemical_formula_structural   Li4Ti4Cr4NiO18
_chemical_formula_sum   'Li8 Ti8 Cr8 Ni2 O36'
_cell_volume   657.08797279
_cell_formula_units_Z   2
loop_
 _symmetry_equiv_pos_site_id
 _symmetry_equiv_pos_as_xyz
  1  'x, y, z'
loop_
 _atom_site_type_symbol
 _atom_site_label
 _atom_site_symmetry_multiplicity
 _atom_site_fract_x
 _atom_site_fract_y
 _atom_site_fract_z
 _atom_site_occupancy
  Li  Li0  1  0.20106400  0.98942800  0.00000000  1
  Li  Li1  1  0.16801000  0.19138600  0.00000000  1
  Li  Li2  1  0.33199000  0.69138600  0.00000000  1
  Li  Li3  1  0.29893600  0.48942800  0.00000000  1
  Li  Li4  1  0.70106400  0.51057200  0.00000000  1
  Li  Li5  1  0.66801000  0.30861400  0.00000000  1
  Li  Li6  1  0.83199000  0.80861400  0.00000000  1
  Li  Li7  1  0.79893600  0.01057200  0.00000000  1
  Ti  Ti0  1  0.98180500  0.09839800  0.00000000  1
  Ti  Ti1  1  0.18982800  0.80914800  0.50000000  1
  Ti  Ti2  1  0.31017200  0.30914800  0.50000000  1
  Ti  Ti3  1  0.51819500  0.59839800  0.00000000  1
  Ti  Ti4  1  0.48180500  0.40160200  0.00000000  1
  Ti  Ti5  1  0.68982800  0.69085200  0.50000000  1
  Ti  Ti6  1  0.81017200  0.19085200  0.50000000  1
  Ti  Ti7  1  0.01819500  0.90160200  0.00000000  1
  Cr  Cr0  1  0.96547700  0.31670500  0.00000000  1
  Cr  Cr1  1  0.17006900  0.58630600  0.50000000  1
  Cr  Cr2  1  0.32993100  0.08630600  0.50000000  1
  Cr  Cr3  1  0.53452300  0.81670500  0.00000000  1
  Cr  Cr4  1  0.46547700  0.18329500  0.00000000  1
  Cr  Cr5  1  0.67006900  0.91369400  0.50000000  1
  Cr  Cr6  1  0.82993100  0.41369400  0.50000000  1
  Cr  Cr7  1  0.03452300  0.68329500  0.00000000  1
  Ni  Ni0  1  0.00000000  0.50000000  0.00000000  1
  Ni  Ni1  1  0.50000000  0.00000000  0.00000000  1
  O  O0  1  0.96867200  0.40550800  0.00000000  1
  O  O1  1  0.03132800  0.59449200  0.00000000  1
  O  O2  1  0.07802600  0.94761500  0.50000000  1
  O  O3  1  0.02151900  0.15567100  0.50000000  1
  O  O4  1  0.17487400  0.66622700  0.50000000  1
  O  O5  1  0.13514300  0.75828200  0.00000000  1
  O  O6  1  0.13436100  0.50391600  0.50000000  1
  O  O7  1  0.10559400  0.29760900  0.50000000  1
  O  O8  1  0.20677200  0.86199200  0.00000000  1
  O  O9  1  0.18529400  0.07621100  0.00000000  1
  O  O10  1  0.31470600  0.57621100  0.00000000  1
  O  O11  1  0.29322800  0.36199200  0.00000000  1
  O  O12  1  0.39440600  0.79760900  0.50000000  1
  O  O13  1  0.36563900  0.00391600  0.50000000  1
  O  O14  1  0.36485700  0.25828200  0.00000000  1
  O  O15  1  0.32512600  0.16622700  0.50000000  1
  O  O16  1  0.47848100  0.65567100  0.50000000  1
  O  O17  1  0.42197400  0.44761500  0.50000000  1
  O  O18  1  0.46867200  0.09449200  0.00000000  1
  O  O19  1  0.53132800  0.90550800  0.00000000  1
  O  O20  1  0.57802600  0.55238500  0.50000000  1
  O  O21  1  0.52151900  0.34432900  0.50000000  1
  O  O22  1  0.67487500  0.83377300  0.50000000  1
  O  O23  1  0.63514300  0.74171800  0.00000000  1
  O  O24  1  0.63436100  0.99608400  0.50000000  1
  O  O25  1  0.60559400  0.20239100  0.50000000  1
  O  O26  1  0.70677200  0.63800800  0.00000000  1
  O  O27  1  0.68529400  0.42378900  0.00000000  1
  O  O28  1  0.81470600  0.92378900  0.00000000  1
  O  O29  1  0.79322800  0.13800800  0.00000000  1
  O  O30  1  0.89440600  0.70239100  0.50000000  1
  O  O31  1  0.86563900  0.49608400  0.50000000  1
  O  O32  1  0.86485700  0.24171800  0.00000000  1
  O  O33  1  0.82512500  0.33377300  0.50000000  1
  O  O34  1  0.97848100  0.84432900  0.50000000  1
  O  O35  1  0.92197400  0.05238500  0.50000000  1
loop_
_geom_bond_atom_site_label_1
_geom_bond_atom_site_label_2
_geom_bond_distance
_geom_bond_site_symmetry_2
Li0 O9 2.103292 1_565
Li0 O2 2.114687 1_555
Li0 O2 2.114687 1_554
Li0 O13 2.144520 1_564
Li0 O13 2.144520 1_565
Li1 O15 2.154096 1_554
Li1 O15 2.154096 1_555
Li1 O3 2.176837 1_555
Li1 O3 2.176837 1_554
Li1 O14 2.438227 1_555
Li2 O4 2.154096 1_554
Li2 O4 2.154096 1_555
Li2 O16 2.176837 1_555
Li2 O16 2.176837 1_554
Li2 O5 2.438227 1_555
Li3 O10 2.103292 1_555
Li3 O17 2.114687 1_555
Li3 O17 2.114687 1_554
Li3 O6 2.144520 1_555
Li3 O6 2.144520 1_554
Li4 O27 2.103292 1_555
Li4 O20 2.114687 1_554
Li4 O20 2.114687 1_555
Li4 O31 2.144520 1_555
Li4 O31 2.144520 1_554
Li5 O33 2.154090 1_554
Li5 O33 2.154090 1_555
Li5 O21 2.176837 1_555
Li5 O21 2.176837 1_554
Li5 O32 2.438227 1_555
Li6 O22 2.154090 1_555
Li6 O22 2.154090 1_554
Li6 O34 2.176837 1_554
Li6 O34 2.176837 1_555
Li6 O23 2.438227 1_555
Li7 O28 2.103292 1_545
Li7 O35 2.114687 1_554
Li7 O35 2.114687 1_555
Li7 O24 2.144520 1_545
Li7 O24 2.144520 1_544
Cr0 O33 2.002994 1_555
Cr0 O33 2.002994 1_554
Cr0 O7 2.012261 1_655
Cr0 O7 2.012261 1_654
Cr0 O32 2.038826 1_555
Cr0 O0 2.147250 1_555
Cr1 O4 1.932813 1_555
Cr1 O1 1.960162 1_556
Cr1 O1 1.960162 1_555
Cr1 O10 2.001544 1_555
Cr1 O10 2.001544 1_556
Cr1 O6 2.019304 1_555
Cr2 O15 1.932813 1_555
Cr2 O18 1.960162 1_555
Cr2 O18 1.960162 1_556
Cr2 O9 2.001544 1_556
Cr2 O9 2.001544 1_555
Cr2 O13 2.019304 1_555
Cr3 O22 2.002994 1_555
Cr3 O22 2.002994 1_554
Cr3 O12 2.012261 1_555
Cr3 O12 2.012261 1_554
Cr3 O23 2.038826 1_555
Cr3 O19 2.147250 1_555
Cr4 O15 2.002988 1_554
Cr4 O15 2.002988 1_555
Cr4 O25 2.012261 1_554
Cr4 O25 2.012261 1_555
Cr4 O14 2.038826 1_555
Cr4 O18 2.147250 1_555
Cr5 O22 1.932814 1_555
Cr5 O19 1.960162 1_555
Cr5 O19 1.960162 1_556
Cr5 O28 2.001544 1_556
Cr5 O28 2.001544 1_555
Cr5 O24 2.019304 1_555
Cr6 O33 1.932814 1_555
Cr6 O0 1.960162 1_555
Cr6 O0 1.960162 1_556
Cr6 O27 2.001544 1_555
Cr6 O27 2.001544 1_556
Cr6 O31 2.019304 1_555
Cr7 O4 2.002988 1_555
Cr7 O4 2.002988 1_554
Cr7 O30 2.012261 1_455
Cr7 O30 2.012261 1_454
Cr7 O5 2.038826 1_555
Cr7 O1 2.147250 1_555
Ni0 O6 1.925944 1_555
Ni0 O6 1.925944 1_554
Ni0 O31 1.925944 1_455
Ni0 O31 1.925944 1_454
Ni0 O0 2.302972 1_455
Ni0 O1 2.302972 1_555
Ni1 O24 1.925944 1_544
Ni1 O24 1.925944 1_545
Ni1 O13 1.925944 1_554
Ni1 O13 1.925944 1_555
Ni1 O18 2.302972 1_555
Ni1 O19 2.302972 1_545
O2 Ti7 1.922106 1_556
O2 Ti7 1.922106 1_555
O3 Ti0 2.049949 1_456
O3 Ti0 2.049949 1_455
O3 Ti6 2.135655 1_455
O5 Ti1 1.979570 1_554
O5 Ti1 1.979570 1_555
O7 Ti2 1.916630 1_555
O8 Ti1 1.950989 1_555
O8 Ti1 1.950989 1_554
O8 Ti7 1.993066 1_555
O9 Ti0 1.960922 1_455
O10 Ti3 1.960922 1_555
O11 Ti2 1.950989 1_554
O11 Ti2 1.950989 1_555
O11 Ti4 1.993066 1_555
O12 Ti1 1.916630 1_555
O14 Ti2 1.979570 1_554
O14 Ti2 1.979570 1_555
O16 Ti3 2.049949 1_555
O16 Ti3 2.049949 1_556
O16 Ti5 2.135655 1_555
O17 Ti4 1.922106 1_556
O17 Ti4 1.922106 1_555
O20 Ti3 1.922106 1_555
O20 Ti3 1.922106 1_556
O21 Ti4 2.049949 1_555
O21 Ti4 2.049949 1_556
O21 Ti2 2.135655 1_555
O23 Ti5 1.979570 1_554
O23 Ti5 1.979570 1_555
O25 Ti6 1.916630 1_555
O26 Ti5 1.950989 1_554
O26 Ti5 1.950989 1_555
O26 Ti3 1.993066 1_555
O27 Ti4 1.960922 1_555
O28 Ti7 1.960922 1_655
O29 Ti6 1.950989 1_555
O29 Ti6 1.950989 1_554
O29 Ti0 1.993066 1_555
O30 Ti5 1.916630 1_555
O32 Ti6 1.979570 1_555
O32 Ti6 1.979570 1_554
O34 Ti7 2.049949 1_655
O34 Ti7 2.049949 1_656
O34 Ti1 2.135655 1_655
O35 Ti0 1.922106 1_555
O35 Ti0 1.922106 1_556
