# generated using pymatgen
data_LaMgVS4
_symmetry_space_group_name_H-M   'P 1'
_cell_length_a   7.93611651
_cell_length_b   7.74155091
_cell_length_c   7.74470727
_cell_angle_alpha   58.97991882
_cell_angle_beta   59.17650541
_cell_angle_gamma   59.11766362
_symmetry_Int_Tables_number   1
_chemical_formula_structural   LaMgVS4
_chemical_formula_sum   'La2 Mg2 V2 S8'
_cell_volume   329.48238162
_cell_formula_units_Z   2
loop_
 _symmetry_equiv_pos_site_id
 _symmetry_equiv_pos_as_xyz
  1  'x, y, z'
loop_
 _atom_site_type_symbol
 _atom_site_label
 _atom_site_symmetry_multiplicity
 _atom_site_fract_x
 _atom_site_fract_y
 _atom_site_fract_z
 _atom_site_occupancy
  La  La0  1  0.50000300  0.50002800  0.49999500  1
  La  La1  1  0.99996900  0.50001200  0.50001600  1
  Mg  Mg0  1  0.87654000  0.87355200  0.87346900  1
  Mg  Mg1  1  0.12347600  0.12643100  0.12651800  1
  V  V0  1  0.50001500  0.49997800  0.99999300  1
  V  V1  1  0.49999700  0.00000700  0.50000400  1
  S  S0  1  0.70293300  0.76097100  0.76030500  1
  S  S1  1  0.27441800  0.21620200  0.73511700  1
  S  S2  1  0.27414700  0.73518900  0.21620800  1
  S  S3  1  0.72432800  0.23957200  0.23921900  1
  S  S4  1  0.72583300  0.26480500  0.78379100  1
  S  S5  1  0.27566900  0.76043300  0.76077600  1
  S  S6  1  0.29707500  0.23901500  0.23970900  1
  S  S7  1  0.72559900  0.78380100  0.26488100  1
loop_
_geom_bond_atom_site_label_1
_geom_bond_atom_site_label_2
_geom_bond_distance
_geom_bond_site_symmetry_2
La0 S4 2.814290 1_555
La0 S7 2.814413 1_555
La0 S2 2.814422 1_555
La0 S1 2.814664 1_555
La0 S5 2.853057 1_555
La0 S3 2.853332 1_555
La1 S7 2.813063 1_555
La1 S1 2.813345 1_655
La1 S4 2.814416 1_555
La1 S2 2.814515 1_655
La1 S0 2.853207 1_555
La1 S6 2.853544 1_655
Mg0 S4 2.459948 1_565
Mg0 S7 2.463577 1_556
Mg0 S5 2.582449 1_655
Mg0 S0 2.585218 1_555
Mg1 S2 2.459867 1_545
Mg1 S1 2.463490 1_554
Mg1 S3 2.582555 1_455
Mg1 S6 2.585345 1_555
S0 V1 2.550503 1_565
S0 V0 2.555888 1_555
S1 V1 2.458938 1_555
S2 V0 2.459431 1_554
S3 V0 2.551866 1_554
S3 V1 2.555824 1_555
S4 V0 2.459151 1_555
S5 V0 2.552015 1_555
S5 V1 2.555849 1_565
S6 V1 2.550396 1_555
S6 V0 2.555832 1_554
S7 V1 2.459052 1_565
