# generated using pymatgen
data_B
_symmetry_space_group_name_H-M   'P 1'
_cell_length_a   5.22784294
_cell_length_b   5.22784294
_cell_length_c   5.22784266
_cell_angle_alpha   67.45281198
_cell_angle_beta   67.45281198
_cell_angle_gamma   67.45282000
_symmetry_Int_Tables_number   1
_chemical_formula_structural   B
_chemical_formula_sum   B15
_cell_volume   117.09666876
_cell_formula_units_Z   15
loop_
 _symmetry_equiv_pos_site_id
 _symmetry_equiv_pos_as_xyz
  1  'x, y, z'
loop_
 _atom_site_type_symbol
 _atom_site_label
 _atom_site_symmetry_multiplicity
 _atom_site_fract_x
 _atom_site_fract_y
 _atom_site_fract_z
 _atom_site_occupancy
  B  B0  1  0.50000000  0.50000000  0.50000000  1
  B  B1  1  0.69902000  0.19281700  0.19281700  1
  B  B2  1  0.19281700  0.19281700  0.69902000  1
  B  B3  1  0.19281700  0.69902000  0.19281700  1
  B  B4  1  0.30098000  0.80718300  0.80718300  1
  B  B5  1  0.80718300  0.80718300  0.30098000  1
  B  B6  1  0.80718300  0.30098000  0.80718300  1
  B  B7  1  0.67061100  0.99313600  0.99313600  1
  B  B8  1  0.99313600  0.99313600  0.67061100  1
  B  B9  1  0.99313600  0.67061100  0.99313600  1
  B  B10  1  0.32938900  0.00686400  0.00686400  1
  B  B11  1  0.00686400  0.00686400  0.32938900  1
  B  B12  1  0.00686400  0.32938900  0.00686400  1
  B  B13  1  0.36593300  0.36593300  0.36593300  1
  B  B14  1  0.63406700  0.63406700  0.63406700  1
loop_
_geom_bond_atom_site_label_1
_geom_bond_atom_site_label_2
_geom_bond_distance
_geom_bond_site_symmetry_2
B0 B13 1.613651 1_555
B0 B14 1.613651 1_555
B1 B13 1.697452 1_555
B1 B12 1.787162 1_655
B1 B11 1.787162 1_655
B1 B6 1.789024 1_554
B1 B5 1.789024 1_545
B1 B7 1.809699 1_544
B2 B6 1.789024 1_455
B2 B4 1.789024 1_545
B2 B8 1.809699 1_445
B3 B4 1.789024 1_554
B3 B5 1.789024 1_455
B3 B9 1.809699 1_454
B4 B9 1.787162 1_455
B4 B8 1.787162 1_455
B5 B9 1.787162 1_554
B5 B7 1.787162 1_554
B6 B7 1.787162 1_545
B6 B8 1.787162 1_545
B7 B8 1.872350 1_555
B7 B9 1.872351 1_555
B8 B9 1.872350 1_555
B10 B7 1.732060 1_544
B10 B3 1.787162 1_545
B10 B2 1.787162 1_554
B10 B4 1.809699 1_544
B10 B11 1.872350 1_555
B10 B12 1.872351 1_555
B11 B8 1.732060 1_445
B11 B3 1.787162 1_545
B11 B5 1.809699 1_445
B11 B12 1.872350 1_555
B12 B9 1.732060 1_454
B12 B2 1.787162 1_554
B12 B6 1.809699 1_454
B13 B2 1.697452 1_555
B13 B3 1.697452 1_555
B14 B5 1.697452 1_555
B14 B6 1.697452 1_555
B14 B4 1.697452 1_555
