# generated using pymatgen
data_YMg14NbO16
_symmetry_space_group_name_H-M   'P 1'
_cell_length_a   4.41198300
_cell_length_b   8.70259700
_cell_length_c   8.78044300
_cell_angle_alpha   90.00000000
_cell_angle_beta   90.00000000
_cell_angle_gamma   90.00000000
_symmetry_Int_Tables_number   1
_chemical_formula_structural   YMg14NbO16
_chemical_formula_sum   'Y1 Mg14 Nb1 O16'
_cell_volume   337.13134327
_cell_formula_units_Z   1
loop_
 _symmetry_equiv_pos_site_id
 _symmetry_equiv_pos_as_xyz
  1  'x, y, z'
loop_
 _atom_site_type_symbol
 _atom_site_label
 _atom_site_symmetry_multiplicity
 _atom_site_fract_x
 _atom_site_fract_y
 _atom_site_fract_z
 _atom_site_occupancy
  Y  Y0  1  0.00000000  0.00000000  0.00000000  1
  Mg  Mg0  1  0.00000000  0.50000000  0.00000000  1
  Mg  Mg1  1  0.00000000  0.50000000  0.50000000  1
  Mg  Mg2  1  0.50000000  0.00000000  0.26041700  1
  Mg  Mg3  1  0.50000000  0.00000000  0.73958300  1
  Mg  Mg4  1  0.50000000  0.50000000  0.25213100  1
  Mg  Mg5  1  0.50000000  0.50000000  0.74786900  1
  Mg  Mg6  1  0.50000000  0.26229300  0.00000000  1
  Mg  Mg7  1  0.50000000  0.25411100  0.50000000  1
  Mg  Mg8  1  0.50000000  0.73770700  0.00000000  1
  Mg  Mg9  1  0.50000000  0.74588900  0.50000000  1
  Mg  Mg10  1  0.00000000  0.25827000  0.25604800  1
  Mg  Mg11  1  0.00000000  0.25827000  0.74395200  1
  Mg  Mg12  1  0.00000000  0.74173000  0.25604800  1
  Mg  Mg13  1  0.00000000  0.74173000  0.74395200  1
  Nb  Nb0  1  0.00000000  0.00000000  0.50000000  1
  O  O0  1  0.00000000  0.26123800  0.00000000  1
  O  O1  1  0.00000000  0.26499800  0.50000000  1
  O  O2  1  0.00000000  0.73876200  0.00000000  1
  O  O3  1  0.00000000  0.73500200  0.50000000  1
  O  O4  1  0.50000000  0.24995500  0.24880100  1
  O  O5  1  0.50000000  0.24995500  0.75119900  1
  O  O6  1  0.50000000  0.75004500  0.24880100  1
  O  O7  1  0.50000000  0.75004500  0.75119900  1
  O  O8  1  0.50000000  0.00000000  0.00000000  1
  O  O9  1  0.50000000  0.00000000  0.50000000  1
  O  O10  1  0.50000000  0.50000000  0.00000000  1
  O  O11  1  0.50000000  0.50000000  0.50000000  1
  O  O12  1  0.00000000  0.00000000  0.24772700  1
  O  O13  1  0.00000000  0.00000000  0.75227300  1
  O  O14  1  0.00000000  0.50000000  0.24905000  1
  O  O15  1  0.00000000  0.50000000  0.75095000  1
loop_
_geom_bond_atom_site_label_1
_geom_bond_atom_site_label_2
_geom_bond_distance
_geom_bond_site_symmetry_2
Mg0 O2 2.077849 1_555
Mg0 O0 2.077849 1_555
Mg0 O14 2.186769 1_555
Mg0 O15 2.186769 1_554
Mg0 O10 2.205992 1_555
Mg0 O10 2.205992 1_455
Mg1 O3 2.045128 1_555
Mg1 O1 2.045128 1_555
Mg1 O14 2.203452 1_555
Mg1 O15 2.203452 1_555
Mg1 O11 2.205992 1_455
Mg1 O11 2.205992 1_555
Mg2 O9 2.103645 1_555
Mg2 O4 2.177647 1_555
Mg2 O6 2.177647 1_545
Mg2 O12 2.208804 1_555
Mg2 O12 2.208804 1_655
Mg2 O8 2.286577 1_555
Mg3 O9 2.103645 1_555
Mg3 O5 2.177647 1_555
Mg3 O7 2.177647 1_545
Mg3 O13 2.208804 1_655
Mg3 O13 2.208804 1_555
Mg3 O8 2.286577 1_556
Mg4 O6 2.176237 1_555
Mg4 O4 2.176237 1_555
Mg4 O11 2.176400 1_555
Mg4 O14 2.206157 1_555
Mg4 O14 2.206157 1_655
Mg4 O10 2.213822 1_555
Mg5 O7 2.176237 1_555
Mg5 O5 2.176237 1_555
Mg5 O11 2.176400 1_555
Mg5 O15 2.206157 1_555
Mg5 O15 2.206157 1_655
Mg5 O10 2.213822 1_556
Mg6 O10 2.068668 1_555
Mg6 O4 2.187220 1_555
Mg6 O5 2.187220 1_554
Mg6 O0 2.206011 1_655
Mg6 O0 2.206011 1_555
Mg6 O8 2.282630 1_555
Mg7 O11 2.139873 1_555
Mg7 O5 2.205935 1_555
Mg7 O4 2.205935 1_555
Mg7 O1 2.208025 1_555
Mg7 O1 2.208025 1_655
Mg7 O9 2.211426 1_555
Mg8 O10 2.068668 1_555
Mg8 O6 2.187220 1_555
Mg8 O7 2.187220 1_554
Mg8 O2 2.206011 1_655
Mg8 O2 2.206011 1_555
Mg8 O8 2.282630 1_565
Mg9 O11 2.139873 1_555
Mg9 O7 2.205935 1_555
Mg9 O6 2.205935 1_555
Mg9 O3 2.208025 1_555
Mg9 O3 2.208025 1_655
Mg9 O9 2.211426 1_565
Mg10 O14 2.104576 1_555
Mg10 O1 2.142807 1_555
Mg10 O4 2.208095 1_555
Mg10 O4 2.208095 1_455
Mg10 O0 2.248363 1_555
Mg10 O12 2.248807 1_555
Mg11 O15 2.104576 1_555
Mg11 O1 2.142807 1_555
Mg11 O5 2.208095 1_455
Mg11 O5 2.208095 1_555
Mg11 O0 2.248363 1_556
Mg11 O13 2.248807 1_555
Mg12 O14 2.104576 1_555
Mg12 O3 2.142807 1_555
Mg12 O6 2.208095 1_455
Mg12 O6 2.208095 1_555
Mg12 O2 2.248363 1_555
Mg12 O12 2.248807 1_565
Mg13 O15 2.104576 1_555
Mg13 O3 2.142807 1_555
Mg13 O7 2.208095 1_555
Mg13 O7 2.208095 1_455
Mg13 O2 2.248363 1_556
Mg13 O13 2.248807 1_565
Nb0 O9 2.205992 1_555
Nb0 O9 2.205992 1_455
Nb0 O13 2.215069 1_555
Nb0 O12 2.215069 1_555
Nb0 O1 2.306171 1_555
Nb0 O3 2.306171 1_545
O0 Y0 2.273449 1_555
O2 Y0 2.273449 1_565
O8 Y0 2.205992 1_655
O8 Y0 2.205992 1_555
O12 Y0 2.175153 1_555
O13 Y0 2.175153 1_556
