# generated using pymatgen
data_Pr3(GaNi2)2
_symmetry_space_group_name_H-M   'P 1'
_cell_length_a   4.10103700
_cell_length_b   5.38281858
_cell_length_c   8.08400785
_cell_angle_alpha   98.26410888
_cell_angle_beta   90.00000000
_cell_angle_gamma   112.39178347
_symmetry_Int_Tables_number   1
_chemical_formula_structural   Pr3(GaNi2)2
_chemical_formula_sum   'Pr3 Ga2 Ni4'
_cell_volume   162.99417680
_cell_formula_units_Z   1
loop_
 _symmetry_equiv_pos_site_id
 _symmetry_equiv_pos_as_xyz
  1  'x, y, z'
loop_
 _atom_site_type_symbol
 _atom_site_label
 _atom_site_symmetry_multiplicity
 _atom_site_fract_x
 _atom_site_fract_y
 _atom_site_fract_z
 _atom_site_occupancy
  Pr  Pr0  1  0.62308500  0.24617000  0.87955800  1
  Pr  Pr1  1  0.37691500  0.75383000  0.12044200  1
  Pr  Pr2  1  0.00000000  0.00000000  0.50000000  1
  Ga  Ga0  1  0.32245900  0.64491800  0.71501000  1
  Ga  Ga1  1  0.67754100  0.35508200  0.28499000  1
  Ni  Ni0  1  0.91534700  0.83069400  0.86240500  1
  Ni  Ni1  1  0.08465300  0.16930600  0.13759500  1
  Ni  Ni2  1  0.73879200  0.47758400  0.58609000  1
  Ni  Ni3  1  0.26120800  0.52241600  0.41391000  1
loop_
_geom_bond_atom_site_label_1
_geom_bond_atom_site_label_2
_geom_bond_distance
_geom_bond_site_symmetry_2
Pr0 Pr1 3.358543 1_546
Pr0 Pr1 3.584777 1_656
Pr0 Pr1 3.584777 1_556
Pr0 Pr2 3.735189 1_555
Pr0 Pr2 3.735190 1_655
Pr1 Pr2 3.735189 1_665
Pr1 Pr2 3.735190 1_565
Ga0 Ni2 2.390503 1_455
Ga0 Ni2 2.390504 1_555
Ga0 Ni3 2.415601 1_555
Ga0 Ni0 2.477246 1_555
Ga0 Ni0 2.477246 1_455
Ga0 Pr0 3.079990 1_565
Ga0 Pr1 3.237833 1_556
Ga0 Pr0 3.276171 1_455
Ga0 Pr0 3.276172 1_555
Ga1 Ni3 2.390503 1_655
Ga1 Ni3 2.390504 1_555
Ga1 Ni2 2.415601 1_555
Ga1 Ni1 2.477246 1_555
Ga1 Ni1 2.477246 1_655
Ga1 Pr1 3.079990 1_545
Ga1 Pr0 3.237833 1_554
Ga1 Pr1 3.276171 1_655
Ga1 Pr1 3.276172 1_555
Ni0 Ni1 2.573608 1_666
Ni0 Ni2 2.618690 1_555
Ni0 Pr0 2.900091 1_665
Ni0 Pr0 2.900091 1_565
Ni0 Pr0 2.933907 1_555
Ni0 Pr1 2.991715 1_556
Ni0 Pr1 2.991715 1_656
Ni0 Pr2 3.171847 1_665
Ni1 Ni3 2.618690 1_555
Ni1 Pr1 2.900091 1_445
Ni1 Pr1 2.900091 1_545
Ni1 Pr1 2.933907 1_555
Ni1 Pr0 2.991715 1_554
Ni1 Pr0 2.991715 1_454
Ni1 Pr2 3.171847 1_555
Ni2 Ni3 2.507662 1_655
Ni2 Ni3 2.507663 1_555
Ni2 Pr0 2.793619 1_555
Ni2 Pr2 2.794132 1_665
Ni2 Pr2 3.134387 1_555
Ni2 Pr2 3.134387 1_655
Ni3 Pr1 2.793619 1_555
Ni3 Pr2 2.794132 1_555
Ni3 Pr2 3.134387 1_665
Ni3 Pr2 3.134387 1_565
