# generated using pymatgen
data_Mg(CrS2)2
_symmetry_space_group_name_H-M   'P 1'
_cell_length_a   7.19684883
_cell_length_b   7.19684749
_cell_length_c   7.19684560
_cell_angle_alpha   60.00005402
_cell_angle_beta   60.00004849
_cell_angle_gamma   60.00001658
_symmetry_Int_Tables_number   1
_chemical_formula_structural   Mg(CrS2)2
_chemical_formula_sum   'Mg2 Cr4 S8'
_cell_volume   263.57988150
_cell_formula_units_Z   2
loop_
 _symmetry_equiv_pos_site_id
 _symmetry_equiv_pos_as_xyz
  1  'x, y, z'
loop_
 _atom_site_type_symbol
 _atom_site_label
 _atom_site_symmetry_multiplicity
 _atom_site_fract_x
 _atom_site_fract_y
 _atom_site_fract_z
 _atom_site_occupancy
  Mg  Mg0  1  0.74999827  0.74999816  0.74999817  1
  Mg  Mg1  1  0.50000173  0.50000184  0.50000183  1
  Cr  Cr0  1  0.12500000  0.62500000  0.12500000  1
  Cr  Cr1  1  0.12500000  0.12500000  0.62500000  1
  Cr  Cr2  1  0.62500000  0.12500000  0.12500000  1
  Cr  Cr3  1  0.12500000  0.12500000  0.12500000  1
  S  S0  1  0.88761838  0.33714600  0.88761840  1
  S  S1  1  0.36238192  0.36238154  0.91285392  1
  S  S2  1  0.36238099  0.36238024  0.36237980  1
  S  S3  1  0.91285442  0.36238110  0.36238112  1
  S  S4  1  0.88761901  0.88761976  0.88762020  1
  S  S5  1  0.33714558  0.88761890  0.88761888  1
  S  S6  1  0.36238162  0.91285400  0.36238160  1
  S  S7  1  0.88761808  0.88761846  0.33714608  1
loop_
_geom_bond_atom_site_label_1
_geom_bond_atom_site_label_2
_geom_bond_distance
_geom_bond_site_symmetry_2
Mg0 S7 2.426003 1_555
Mg0 S0 2.426003 1_555
Mg0 S5 2.426007 1_555
Mg0 S4 2.426073 1_555
Mg1 S1 2.426003 1_555
Mg1 S6 2.426003 1_555
Mg1 S3 2.426007 1_555
Mg1 S2 2.426073 1_555
Cr0 S2 2.422848 1_555
Cr0 S4 2.422848 1_454
Cr0 S7 2.422865 1_455
Cr0 S1 2.422865 1_554
Cr0 S5 2.422867 1_554
Cr0 S3 2.422867 1_455
Cr1 S4 2.422852 1_445
Cr1 S2 2.422852 1_555
Cr1 S0 2.422864 1_455
Cr1 S6 2.422864 1_545
Cr1 S3 2.422865 1_455
Cr1 S5 2.422865 1_545
Cr2 S2 2.422844 1_555
Cr2 S4 2.422844 1_544
Cr2 S1 2.422863 1_554
Cr2 S7 2.422863 1_545
Cr2 S0 2.422866 1_554
Cr2 S6 2.422866 1_545
Cr3 S3 2.422853 1_455
Cr3 S5 2.422853 1_544
Cr3 S6 2.422858 1_545
Cr3 S0 2.422858 1_454
Cr3 S7 2.422861 1_445
Cr3 S1 2.422861 1_554
