# generated using pymatgen
data_Zn2Ni3O8
_symmetry_space_group_name_H-M   'P 1'
_cell_length_a   5.75358048
_cell_length_b   5.75358048
_cell_length_c   9.18848900
_cell_angle_alpha   90.00000000
_cell_angle_beta   90.00000000
_cell_angle_gamma   120.00000555
_symmetry_Int_Tables_number   1
_chemical_formula_structural   Zn2Ni3O8
_chemical_formula_sum   'Zn4 Ni6 O16'
_cell_volume   263.42142342
_cell_formula_units_Z   2
loop_
 _symmetry_equiv_pos_site_id
 _symmetry_equiv_pos_as_xyz
  1  'x, y, z'
loop_
 _atom_site_type_symbol
 _atom_site_label
 _atom_site_symmetry_multiplicity
 _atom_site_fract_x
 _atom_site_fract_y
 _atom_site_fract_z
 _atom_site_occupancy
  Zn  Zn0  1  0.66666700  0.33333300  0.03478100  1
  Zn  Zn1  1  0.33333300  0.66666700  0.53478100  1
  Zn  Zn2  1  0.66666700  0.33333300  0.41426300  1
  Zn  Zn3  1  0.33333300  0.66666700  0.91426300  1
  Ni  Ni0  1  0.66776200  0.83388100  0.24662800  1
  Ni  Ni1  1  0.83388100  0.16611900  0.74662800  1
  Ni  Ni2  1  0.16611900  0.33223800  0.24662800  1
  Ni  Ni3  1  0.83388100  0.66776200  0.74662800  1
  Ni  Ni4  1  0.33223800  0.16611900  0.74662800  1
  Ni  Ni5  1  0.16611900  0.83388100  0.24662800  1
  O  O0  1  0.84386700  0.15613300  0.14178400  1
  O  O1  1  0.68773500  0.84386700  0.64178400  1
  O  O2  1  0.15613300  0.31226500  0.64178400  1
  O  O3  1  0.84386700  0.68773500  0.14178400  1
  O  O4  1  0.31226500  0.15613300  0.14178400  1
  O  O5  1  0.15613300  0.84386700  0.64178400  1
  O  O6  1  0.51960800  0.48039200  0.86391500  1
  O  O7  1  0.03921600  0.51960800  0.36391500  1
  O  O8  1  0.48039200  0.96078400  0.36391500  1
  O  O9  1  0.51960800  0.03921600  0.86391500  1
  O  O10  1  0.00000000  0.00000000  0.34830500  1
  O  O11  1  0.00000000  0.00000000  0.84830500  1
  O  O12  1  0.33333300  0.66666700  0.13917100  1
  O  O13  1  0.96078400  0.48039200  0.86391500  1
  O  O14  1  0.48039200  0.51960800  0.36391500  1
  O  O15  1  0.66666700  0.33333300  0.63917100  1
loop_
_geom_bond_atom_site_label_1
_geom_bond_atom_site_label_2
_geom_bond_distance
_geom_bond_site_symmetry_2
Ni0 O3 1.874498 1_555
Ni0 O0 1.874502 1_565
Ni0 O10 1.900889 1_665
Ni0 O14 1.908888 1_555
Ni0 O8 1.908888 1_555
Ni0 O12 1.936931 1_555
Ni1 O2 1.874503 1_655
Ni1 O1 1.874503 1_545
Ni1 O11 1.900889 1_655
Ni1 O13 1.908888 1_555
Ni1 O9 1.908888 1_555
Ni1 O15 1.936926 1_555
Ni2 O4 1.874498 1_555
Ni2 O0 1.874502 1_455
Ni2 O10 1.900889 1_555
Ni2 O14 1.908888 1_555
Ni2 O7 1.908888 1_555
Ni2 O12 1.936931 1_555
Ni3 O1 1.874498 1_555
Ni3 O5 1.874502 1_655
Ni3 O11 1.900889 1_665
Ni3 O6 1.908888 1_555
Ni3 O13 1.908888 1_555
Ni3 O15 1.936931 1_555
Ni4 O2 1.874498 1_555
Ni4 O5 1.874502 1_545
Ni4 O11 1.900889 1_555
Ni4 O6 1.908888 1_555
Ni4 O9 1.908888 1_555
Ni4 O15 1.936931 1_555
Ni5 O4 1.874503 1_565
Ni5 O3 1.874503 1_455
Ni5 O10 1.900889 1_565
Ni5 O8 1.908888 1_555
Ni5 O7 1.908888 1_555
Ni5 O12 1.936926 1_555
O0 Zn0 2.021145 1_555
O1 Zn1 2.021153 1_555
O2 Zn1 2.021153 1_555
O3 Zn0 2.021153 1_555
O4 Zn0 2.021153 1_555
O5 Zn1 2.021145 1_555
O6 Zn3 1.913100 1_555
O6 Zn0 2.147705 1_556
O7 Zn2 1.913095 1_455
O7 Zn1 2.147702 1_555
O8 Zn2 1.913095 1_565
O8 Zn1 2.147702 1_555
O9 Zn3 1.913095 1_545
O9 Zn0 2.147702 1_556
O12 Zn3 2.066565 1_554
O13 Zn3 1.913095 1_655
O13 Zn0 2.147702 1_556
O14 Zn2 1.913100 1_555
O14 Zn1 2.147705 1_555
O15 Zn2 2.066565 1_555
