# generated using pymatgen
data_K3Zn
_symmetry_space_group_name_H-M   'P 1'
_cell_length_a   5.84873700
_cell_length_b   5.84873700
_cell_length_c   5.84873700
_cell_angle_alpha   90.00000000
_cell_angle_beta   90.00000000
_cell_angle_gamma   90.00000000
_symmetry_Int_Tables_number   1
_chemical_formula_structural   K3Zn
_chemical_formula_sum   'K3 Zn1'
_cell_volume   200.07198394
_cell_formula_units_Z   1
loop_
 _symmetry_equiv_pos_site_id
 _symmetry_equiv_pos_as_xyz
  1  'x, y, z'
loop_
 _atom_site_type_symbol
 _atom_site_label
 _atom_site_symmetry_multiplicity
 _atom_site_fract_x
 _atom_site_fract_y
 _atom_site_fract_z
 _atom_site_occupancy
  K  K0  1  0.50000000  0.00000000  0.50000000  1
  K  K1  1  0.50000000  0.50000000  0.00000000  1
  K  K2  1  0.00000000  0.50000000  0.50000000  1
  Zn  Zn0  1  0.00000000  0.00000000  0.00000000  1
loop_
_geom_bond_atom_site_label_1
_geom_bond_atom_site_label_2
_geom_bond_distance
_geom_bond_site_symmetry_2
K0 K2 4.135682 1_645
K0 K1 4.135682 1_545
K0 K1 4.135682 1_556
K0 K2 4.135682 1_555
K0 K1 4.135682 1_546
K0 K2 4.135682 1_545
K0 K2 4.135682 1_655
K0 K1 4.135682 1_555
K1 K2 4.135682 1_654
K1 K2 4.135682 1_554
K1 K2 4.135682 1_555
K1 K2 4.135682 1_655
