# generated using pymatgen
data_FePH12(CCl)4
_symmetry_space_group_name_H-M   'P 1'
_cell_length_a   8.11883000
_cell_length_b   8.11882997
_cell_length_c   13.27265700
_cell_angle_alpha   90.00000000
_cell_angle_beta   90.00000000
_cell_angle_gamma   120.00000010
_symmetry_Int_Tables_number   1
_chemical_formula_structural   FePH12(CCl)4
_chemical_formula_sum   'Fe2 P2 H24 C8 Cl8'
_cell_volume   757.66180934
_cell_formula_units_Z   2
loop_
 _symmetry_equiv_pos_site_id
 _symmetry_equiv_pos_as_xyz
  1  'x, y, z'
loop_
 _atom_site_type_symbol
 _atom_site_label
 _atom_site_symmetry_multiplicity
 _atom_site_fract_x
 _atom_site_fract_y
 _atom_site_fract_z
 _atom_site_occupancy
  Fe  Fe0  1  0.00000000  0.00000000  0.03913900  1
  Fe  Fe1  1  0.00000000  0.00000000  0.53913900  1
  P  P0  1  0.66666700  0.33333300  0.29576800  1
  P  P1  1  0.33333300  0.66666700  0.79576800  1
  H  H0  1  0.74059000  0.25941000  0.45756000  1
  H  H1  1  0.51882100  0.25941000  0.45756000  1
  H  H2  1  0.74059000  0.48117900  0.45756000  1
  H  H3  1  0.25941000  0.74059000  0.95756000  1
  H  H4  1  0.48117900  0.74059000  0.95756000  1
  H  H5  1  0.25941000  0.51882100  0.95756000  1
  H  H6  1  0.54717900  0.09435800  0.16802700  1
  H  H7  1  0.54717900  0.45282100  0.16802700  1
  H  H8  1  0.90564200  0.45282100  0.16802700  1
  H  H9  1  0.45282100  0.90564200  0.66802700  1
  H  H10  1  0.45282100  0.54717900  0.66802700  1
  H  H11  1  0.09435800  0.54717900  0.66802700  1
  H  H12  1  0.39944400  0.02084000  0.27876400  1
  H  H13  1  0.62139600  0.60055600  0.27876400  1
  H  H14  1  0.97916000  0.37860400  0.27876400  1
  H  H15  1  0.62139600  0.02084000  0.27876400  1
  H  H16  1  0.97916000  0.60055600  0.27876400  1
  H  H17  1  0.39944400  0.37860400  0.27876400  1
  H  H18  1  0.60055600  0.97916000  0.77876400  1
  H  H19  1  0.37860400  0.39944400  0.77876400  1
  H  H20  1  0.02084000  0.62139600  0.77876400  1
  H  H21  1  0.37860400  0.97916000  0.77876400  1
  H  H22  1  0.02084000  0.39944400  0.77876400  1
  H  H23  1  0.60055600  0.62139600  0.77876400  1
  C  C0  1  0.66666700  0.33333300  0.43086200  1
  C  C1  1  0.33333300  0.66666700  0.93086200  1
  C  C2  1  0.54650700  0.09301300  0.25082000  1
  C  C3  1  0.54650700  0.45349300  0.25082000  1
  C  C4  1  0.90698700  0.45349300  0.25082000  1
  C  C5  1  0.45349300  0.90698700  0.75082000  1
  C  C6  1  0.45349300  0.54650700  0.75082000  1
  C  C7  1  0.09301300  0.54650700  0.75082000  1
  Cl  Cl0  1  0.00000000  0.00000000  0.20565700  1
  Cl  Cl1  1  0.00000000  0.00000000  0.70565700  1
  Cl  Cl2  1  0.29779600  0.14889800  0.98498300  1
  Cl  Cl3  1  0.85110200  0.70220400  0.98498300  1
  Cl  Cl4  1  0.85110200  0.14889800  0.98498300  1
  Cl  Cl5  1  0.70220400  0.85110200  0.48498300  1
  Cl  Cl6  1  0.14889800  0.29779600  0.48498300  1
  Cl  Cl7  1  0.14889800  0.85110200  0.48498300  1
loop_
_geom_bond_atom_site_label_1
_geom_bond_atom_site_label_2
_geom_bond_distance
_geom_bond_site_symmetry_2
C0 H2 1.098259 1_555
C0 H0 1.098259 1_555
C0 H1 1.098259 1_555
C0 P0 1.793056 1_555
C1 H5 1.098259 1_555
C1 H4 1.098259 1_555
C1 H3 1.098259 1_555
C1 P1 1.793056 1_555
C2 H15 1.098571 1_555
C2 H12 1.098577 1_555
C2 H6 1.098924 1_555
C2 P0 1.791941 1_555
C3 H13 1.098577 1_555
C3 H17 1.098577 1_555
C3 H7 1.098924 1_555
C3 P0 1.791941 1_555
C4 H14 1.098571 1_555
C4 H16 1.098577 1_555
C4 H8 1.098924 1_555
C4 P0 1.791941 1_555
C5 H21 1.098571 1_555
C5 H18 1.098577 1_555
C5 H9 1.098924 1_555
C5 P1 1.791941 1_555
C6 H19 1.098577 1_555
C6 H23 1.098577 1_555
C6 H10 1.098924 1_555
C6 P1 1.791941 1_555
C7 H20 1.098571 1_555
C7 H22 1.098577 1_555
C7 H11 1.098924 1_555
C7 P1 1.791941 1_555
Cl0 Fe0 2.210136 1_555
Cl1 Fe1 2.210136 1_555
Cl2 Fe0 2.213779 1_556
Cl3 Fe0 2.213779 1_666
Cl4 Fe0 2.213779 1_656
Cl5 Fe1 2.213779 1_665
Cl6 Fe1 2.213779 1_555
Cl7 Fe1 2.213779 1_565
