# generated using pymatgen
data_DyTiFe5Co6
_symmetry_space_group_name_H-M   'P 1'
_cell_length_a   4.68816100
_cell_length_b   6.40449343
_cell_length_c   6.40449343
_cell_angle_alpha   98.16309622
_cell_angle_beta   111.46948735
_cell_angle_gamma   68.53051265
_symmetry_Int_Tables_number   1
_chemical_formula_structural   DyTiFe5Co6
_chemical_formula_sum   'Dy1 Ti1 Fe5 Co6'
_cell_volume   166.52953971
_cell_formula_units_Z   1
loop_
 _symmetry_equiv_pos_site_id
 _symmetry_equiv_pos_as_xyz
  1  'x, y, z'
loop_
 _atom_site_type_symbol
 _atom_site_label
 _atom_site_symmetry_multiplicity
 _atom_site_fract_x
 _atom_site_fract_y
 _atom_site_fract_z
 _atom_site_occupancy
  Dy  Dy0  1  0.00000000  0.00327500  0.00327500  1
  Ti  Ti0  1  0.00000000  0.62499200  0.62499200  1
  Fe  Fe0  1  0.49892700  0.00313000  0.50306400  1
  Fe  Fe1  1  0.00100600  0.00313000  0.50306400  1
  Fe  Fe2  1  0.50107300  0.50306400  0.00313000  1
  Fe  Fe3  1  0.99899400  0.50306400  0.00313000  1
  Fe  Fe4  1  0.50000000  0.22956500  0.22956500  1
  Co  Co0  1  0.72158100  0.78081500  0.22397800  1
  Co  Co1  1  0.27841900  0.22397800  0.78081500  1
  Co  Co2  1  0.50000000  0.77617100  0.77617100  1
  Co  Co3  1  0.64288800  0.35686000  0.64263700  1
  Co  Co4  1  0.35711200  0.64263700  0.35686000  1
  Co  Co5  1  0.00000000  0.34931800  0.34931800  1
loop_
_geom_bond_atom_site_label_1
_geom_bond_atom_site_label_2
_geom_bond_distance
_geom_bond_site_symmetry_2
Dy0 Fe4 3.016458 1_455
Dy0 Fe4 3.016458 1_555
Dy0 Ti0 3.173675 1_544
Dy0 Fe0 3.199302 1_555
Dy0 Fe2 3.199302 1_455
Dy0 Fe3 3.199304 1_455
Dy0 Fe1 3.199304 1_555
Dy0 Fe1 3.205195 1_554
Dy0 Fe3 3.205195 1_445
Dy0 Fe2 3.205197 1_545
Dy0 Fe0 3.205197 1_454
Fe0 Fe1 2.334334 1_555
Fe0 Fe1 2.353827 1_655
Fe0 Fe4 2.429909 1_555
Fe0 Ti0 2.650086 1_645
Fe1 Fe4 2.429906 1_455
Fe1 Ti0 2.650084 1_545
Fe2 Fe3 2.334334 1_555
Fe2 Fe3 2.353827 1_455
Fe2 Fe4 2.429909 1_555
Fe2 Ti0 2.650086 1_554
Fe3 Fe4 2.429906 1_655
Fe3 Ti0 2.650084 1_654
Co0 Fe2 2.407253 1_555
Co0 Fe3 2.407258 1_555
Co0 Fe1 2.422140 1_665
Co0 Fe0 2.422140 1_565
Co0 Ti0 2.572197 1_655
Co0 Co4 2.610035 1_555
Co0 Co4 2.610043 1_655
Co0 Co2 2.668862 1_554
Co0 Fe4 2.674494 1_565
Co0 Co5 2.684713 1_655
Co0 Dy0 3.002554 1_565
Co0 Dy0 3.002558 1_665
Co1 Fe0 2.407253 1_555
Co1 Fe1 2.407258 1_555
Co1 Fe3 2.422140 1_456
Co1 Fe2 2.422140 1_556
Co1 Ti0 2.572197 1_555
Co1 Co3 2.610035 1_555
Co1 Co3 2.610043 1_455
Co1 Co2 2.668862 1_545
Co1 Fe4 2.674494 1_556
Co1 Co5 2.684713 1_555
Co1 Dy0 3.002554 1_656
Co1 Dy0 3.002558 1_556
Co2 Fe2 2.425379 1_556
Co2 Fe0 2.425379 1_565
Co2 Fe3 2.425381 1_556
Co2 Fe1 2.425381 1_565
Co2 Co3 2.615762 1_555
Co2 Co4 2.615762 1_555
Co2 Ti0 2.665222 1_655
Co2 Ti0 2.665222 1_555
Co2 Dy0 3.020761 1_666
Co2 Dy0 3.020761 1_566
Co3 Co4 2.419917 1_555
Co3 Fe1 2.547429 1_655
Co3 Fe0 2.547429 1_555
Co3 Fe4 2.569470 1_555
Co3 Fe2 2.589062 1_556
Co3 Fe3 2.589066 1_556
Co3 Ti0 2.839504 1_555
Co3 Ti0 2.839508 1_655
Co3 Co5 2.924296 1_555
Co3 Co5 2.924300 1_655
Co3 Dy0 3.024111 1_656
Co4 Fe3 2.547429 1_455
Co4 Fe2 2.547429 1_555
Co4 Fe4 2.569470 1_555
Co4 Fe0 2.589062 1_565
Co4 Fe1 2.589066 1_565
Co4 Ti0 2.839504 1_655
Co4 Ti0 2.839508 1_555
Co4 Co5 2.924296 1_655
Co4 Co5 2.924300 1_555
Co4 Dy0 3.024111 1_565
Co5 Ti0 2.312818 1_555
Co5 Fe0 2.548391 1_555
Co5 Fe2 2.548391 1_455
Co5 Fe3 2.548393 1_455
Co5 Fe1 2.548393 1_555
Co5 Fe4 2.550317 1_555
Co5 Fe4 2.550317 1_455
Co5 Dy0 2.903191 1_555
