# generated using pymatgen
data_AsO2
_symmetry_space_group_name_H-M   'P 1'
_cell_length_a   4.53050700
_cell_length_b   11.41978200
_cell_length_c   12.42479821
_cell_angle_alpha   63.27052689
_cell_angle_beta   90.00000000
_cell_angle_gamma   90.00000000
_symmetry_Int_Tables_number   1
_chemical_formula_structural   AsO2
_chemical_formula_sum   'As12 O24'
_cell_volume   574.13440262
_cell_formula_units_Z   12
loop_
 _symmetry_equiv_pos_site_id
 _symmetry_equiv_pos_as_xyz
  1  'x, y, z'
loop_
 _atom_site_type_symbol
 _atom_site_label
 _atom_site_symmetry_multiplicity
 _atom_site_fract_x
 _atom_site_fract_y
 _atom_site_fract_z
 _atom_site_occupancy
  As  As0  1  0.24687600  0.31826400  0.04268000  1
  As  As1  1  0.74687600  0.18173600  0.95732000  1
  As  As2  1  0.75312400  0.68173600  0.95732000  1
  As  As3  1  0.25312400  0.81826400  0.04268000  1
  As  As4  1  0.55597300  0.80822300  0.55240300  1
  As  As5  1  0.05597300  0.69177700  0.44759700  1
  As  As6  1  0.44402700  0.19177700  0.44759700  1
  As  As7  1  0.94402700  0.30822300  0.55240300  1
  As  As8  1  0.39697800  0.51354100  0.76004500  1
  As  As9  1  0.89697800  0.98645900  0.23995500  1
  As  As10  1  0.60302200  0.48645900  0.23995500  1
  As  As11  1  0.10302200  0.01354100  0.76004500  1
  O  O0  1  0.12518300  0.23254100  0.95661100  1
  O  O1  1  0.62518300  0.26745900  0.04338900  1
  O  O2  1  0.87481700  0.76745900  0.04338900  1
  O  O3  1  0.37481700  0.73254100  0.95661100  1
  O  O4  1  0.27414500  0.48385500  0.90389200  1
  O  O5  1  0.77414500  0.01614500  0.09610800  1
  O  O6  1  0.72585500  0.51614500  0.09610800  1
  O  O7  1  0.22585500  0.98385500  0.90389200  1
  O  O8  1  0.52660100  0.67427700  0.71218700  1
  O  O9  1  0.02660100  0.82572300  0.28781300  1
  O  O10  1  0.47339900  0.32572300  0.28781300  1
  O  O11  1  0.97339900  0.17427700  0.71218700  1
  O  O12  1  0.17603700  0.80318400  0.50912500  1
  O  O13  1  0.67603700  0.69681600  0.49087500  1
  O  O14  1  0.82396300  0.19681600  0.49087500  1
  O  O15  1  0.32396300  0.30318400  0.50912500  1
  O  O16  1  0.67677100  0.40805500  0.76542400  1
  O  O17  1  0.17677100  0.09194500  0.23457600  1
  O  O18  1  0.32322900  0.59194500  0.23457600  1
  O  O19  1  0.82322900  0.90805500  0.76542400  1
  O  O20  1  0.11550300  0.50417900  0.67047400  1
  O  O21  1  0.61550300  0.99582100  0.32952600  1
  O  O22  1  0.88449700  0.49582100  0.32952600  1
  O  O23  1  0.38449700  0.00417900  0.67047400  1
loop_
_geom_bond_atom_site_label_1
_geom_bond_atom_site_label_2
_geom_bond_distance
_geom_bond_site_symmetry_2
As0 O1 1.808209 1_555
As0 O0 1.829644 1_554
As0 O4 1.905634 1_554
As1 O0 1.808209 1_655
As1 O1 1.829644 1_556
As1 O5 1.905634 1_556
As2 O3 1.808209 1_555
As2 O2 1.829644 1_556
As2 O6 1.905634 1_556
As3 O2 1.808209 1_455
As3 O3 1.829644 1_554
As3 O7 1.905634 1_554
As4 O12 1.811953 1_555
As4 O13 1.836794 1_555
As4 O8 1.888678 1_555
As5 O13 1.811953 1_455
As5 O12 1.836794 1_555
As5 O9 1.888678 1_555
As6 O14 1.811953 1_555
As6 O15 1.836794 1_555
As6 O10 1.888678 1_555
As7 O15 1.811953 1_655
As7 O14 1.836794 1_555
As7 O11 1.888678 1_555
As8 O20 1.727197 1_555
As8 O16 1.729159 1_555
As8 O4 1.753256 1_555
As8 O8 1.756680 1_555
As9 O21 1.727197 1_555
As9 O17 1.729159 1_665
As9 O5 1.753256 1_565
As9 O9 1.756680 1_655
As10 O22 1.727197 1_555
As10 O18 1.729159 1_555
As10 O6 1.753256 1_555
As10 O10 1.756680 1_555
As11 O23 1.727197 1_555
As11 O19 1.729159 1_445
As11 O7 1.753256 1_545
As11 O11 1.756680 1_455
