# generated using pymatgen
data_Sr4Co3ReO12
_symmetry_space_group_name_H-M   'P 1'
_cell_length_a   5.58456400
_cell_length_b   5.58456400
_cell_length_c   7.88316000
_cell_angle_alpha   90.00000000
_cell_angle_beta   90.00000000
_cell_angle_gamma   90.00000000
_symmetry_Int_Tables_number   1
_chemical_formula_structural   Sr4Co3ReO12
_chemical_formula_sum   'Sr4 Co3 Re1 O12'
_cell_volume   245.85490999
_cell_formula_units_Z   1
loop_
 _symmetry_equiv_pos_site_id
 _symmetry_equiv_pos_as_xyz
  1  'x, y, z'
loop_
 _atom_site_type_symbol
 _atom_site_label
 _atom_site_symmetry_multiplicity
 _atom_site_fract_x
 _atom_site_fract_y
 _atom_site_fract_z
 _atom_site_occupancy
  Sr  Sr0  1  0.50000000  0.00000000  0.72426000  1
  Sr  Sr1  1  0.00000000  0.50000000  0.27574000  1
  Sr  Sr2  1  0.50000000  0.00000000  0.27574000  1
  Sr  Sr3  1  0.00000000  0.50000000  0.72426000  1
  Co  Co0  1  0.00000000  0.00000000  0.00000000  1
  Co  Co1  1  0.50000000  0.50000000  0.50000000  1
  Co  Co2  1  0.00000000  0.00000000  0.50000000  1
  Re  Re0  1  0.50000000  0.50000000  0.00000000  1
  O  O0  1  0.00000000  0.00000000  0.76412600  1
  O  O1  1  0.50000000  0.50000000  0.23967300  1
  O  O2  1  0.75423500  0.75423500  0.50000000  1
  O  O3  1  0.26077100  0.26077100  0.00000000  1
  O  O4  1  0.75423500  0.24576500  0.50000000  1
  O  O5  1  0.26077100  0.73922900  0.00000000  1
  O  O6  1  0.00000000  0.00000000  0.23587400  1
  O  O7  1  0.50000000  0.50000000  0.76032700  1
  O  O8  1  0.24576500  0.24576500  0.50000000  1
  O  O9  1  0.73922900  0.73922900  0.00000000  1
  O  O10  1  0.24576500  0.75423500  0.50000000  1
  O  O11  1  0.73922900  0.26077100  0.00000000  1
loop_
_geom_bond_atom_site_label_1
_geom_bond_atom_site_label_2
_geom_bond_distance
_geom_bond_site_symmetry_2
Co0 O6 1.859432 1_555
Co0 O0 1.859432 1_554
Co0 O3 2.059508 1_555
Co0 O5 2.059508 1_545
Co0 O11 2.059508 1_455
Co0 O9 2.059508 1_445
Co1 O2 2.007889 1_555
Co1 O10 2.007889 1_555
Co1 O4 2.007889 1_555
Co1 O8 2.007889 1_555
Co1 O1 2.052199 1_555
Co1 O7 2.052199 1_555
Co2 O8 1.940994 1_555
Co2 O10 1.940994 1_545
Co2 O4 1.940994 1_455
Co2 O2 1.940994 1_445
Co2 O6 2.082148 1_555
Co2 O0 2.082148 1_555
O0 Sr3 2.809912 1_555
O0 Sr0 2.809912 1_555
O0 Sr3 2.809912 1_545
O0 Sr0 2.809912 1_455
O1 Re0 1.889381 1_555
O1 Sr1 2.806720 1_555
O1 Sr1 2.806720 1_655
O1 Sr2 2.806720 1_565
O1 Sr2 2.806720 1_555
O2 Sr1 2.650458 1_655
O2 Sr2 2.650458 1_565
O2 Sr3 2.650458 1_655
O2 Sr0 2.650458 1_565
O3 Re0 1.889375 1_555
O3 Sr1 2.937795 1_555
O3 Sr2 2.937795 1_555
O3 Sr3 2.937795 1_554
O3 Sr0 2.937795 1_554
O4 Sr2 2.650458 1_555
O4 Sr0 2.650458 1_555
O4 Sr1 2.650458 1_655
O4 Sr3 2.650458 1_655
O5 Re0 1.889375 1_555
O5 Sr3 2.937795 1_554
O5 Sr1 2.937795 1_555
O5 Sr0 2.937795 1_564
O5 Sr2 2.937795 1_565
O6 Sr1 2.809912 1_545
O6 Sr1 2.809912 1_555
O6 Sr2 2.809912 1_455
O6 Sr2 2.809912 1_555
O7 Re0 1.889381 1_556
O7 Sr0 2.806720 1_555
O7 Sr3 2.806720 1_655
O7 Sr0 2.806720 1_565
O7 Sr3 2.806720 1_555
O8 Sr1 2.650458 1_555
O8 Sr2 2.650458 1_555
O8 Sr0 2.650458 1_555
O8 Sr3 2.650458 1_555
O9 Re0 1.889375 1_555
O9 Sr1 2.937795 1_655
O9 Sr0 2.937795 1_564
O9 Sr3 2.937795 1_654
O9 Sr2 2.937795 1_565
O10 Sr1 2.650458 1_555
O10 Sr3 2.650458 1_555
O10 Sr2 2.650458 1_565
O10 Sr0 2.650458 1_565
O11 Re0 1.889375 1_555
O11 Sr0 2.937795 1_554
O11 Sr2 2.937795 1_555
O11 Sr3 2.937795 1_654
O11 Sr1 2.937795 1_655
