# generated using pymatgen
data_P2WO7
_symmetry_space_group_name_H-M   'P 1'
_cell_length_a   6.50312500
_cell_length_b   6.54442655
_cell_length_c   7.14616692
_cell_angle_alpha   87.32957709
_cell_angle_beta   65.71585396
_cell_angle_gamma   83.88332716
_symmetry_Int_Tables_number   1
_chemical_formula_structural   P2WO7
_chemical_formula_sum   'P4 W2 O14'
_cell_volume   275.64501409
_cell_formula_units_Z   2
loop_
 _symmetry_equiv_pos_site_id
 _symmetry_equiv_pos_as_xyz
  1  'x, y, z'
loop_
 _atom_site_type_symbol
 _atom_site_label
 _atom_site_symmetry_multiplicity
 _atom_site_fract_x
 _atom_site_fract_y
 _atom_site_fract_z
 _atom_site_occupancy
  P  P0  1  0.33953500  0.38708100  0.35326300  1
  P  P1  1  0.66046500  0.61291900  0.64673700  1
  P  P2  1  0.23709000  0.13538000  0.74824800  1
  P  P3  1  0.76291000  0.86462000  0.25175200  1
  W  W0  1  0.09010500  0.65112500  0.78919700  1
  W  W1  1  0.90989500  0.34887500  0.21080300  1
  O  O0  1  0.40691400  0.61168800  0.78488500  1
  O  O1  1  0.57245800  0.90924400  0.19261000  1
  O  O2  1  0.42754200  0.09075600  0.80739000  1
  O  O3  1  0.91273300  0.04117700  0.23035000  1
  O  O4  1  0.30701400  0.20114300  0.51090200  1
  O  O5  1  0.21787600  0.35008000  0.21654800  1
  O  O6  1  0.06484000  0.33068200  0.87095400  1
  O  O7  1  0.59308600  0.38831200  0.21511500  1
  O  O8  1  0.69298600  0.79885700  0.48909800  1
  O  O9  1  0.23822500  0.58460600  0.47770000  1
  O  O10  1  0.08726700  0.95882300  0.76965000  1
  O  O11  1  0.93516000  0.66931800  0.12904600  1
  O  O12  1  0.78212400  0.64992000  0.78345200  1
  O  O13  1  0.76177500  0.41539400  0.52230000  1
loop_
_geom_bond_atom_site_label_1
_geom_bond_atom_site_label_2
_geom_bond_distance
_geom_bond_site_symmetry_2
O0 P1 1.535136 1_555
O0 W0 2.036515 1_555
O1 P3 1.462821 1_555
O2 P2 1.462821 1_555
O3 P3 1.551987 1_545
O3 W1 2.010686 1_555
O4 P0 1.589230 1_555
O4 P2 1.614964 1_555
O5 P0 1.528964 1_555
O5 W1 2.020926 1_455
O6 P2 1.627490 1_555
O6 W0 2.155583 1_555
O6 W1 2.217254 1_456
O7 P0 1.535136 1_555
O7 W1 2.036515 1_555
O8 P1 1.589230 1_555
O8 P3 1.614964 1_555
O9 P0 1.529573 1_555
O9 W0 2.075995 1_555
O10 P2 1.551987 1_565
O10 W0 2.010686 1_555
O11 P3 1.627490 1_555
O11 W1 2.155583 1_555
O11 W0 2.217254 1_654
O12 P1 1.528964 1_555
O12 W0 2.020926 1_655
O13 P1 1.529573 1_555
O13 W1 2.075995 1_555
