# generated using pymatgen
data_Cu3B5Pt9
_symmetry_space_group_name_H-M   'P 1'
_cell_length_a   9.04620584
_cell_length_b   9.04620584
_cell_length_c   2.96035153
_cell_angle_alpha   90.00000000
_cell_angle_beta   90.00000000
_cell_angle_gamma   119.99999968
_symmetry_Int_Tables_number   1
_chemical_formula_structural   Cu3B5Pt9
_chemical_formula_sum   'Cu3 B5 Pt9'
_cell_volume   209.80065938
_cell_formula_units_Z   1
loop_
 _symmetry_equiv_pos_site_id
 _symmetry_equiv_pos_as_xyz
  1  'x, y, z'
loop_
 _atom_site_type_symbol
 _atom_site_label
 _atom_site_symmetry_multiplicity
 _atom_site_fract_x
 _atom_site_fract_y
 _atom_site_fract_z
 _atom_site_occupancy
  Cu  Cu0  1  0.45779380  -0.00000000  -0.00000000  1
  Cu  Cu1  1  -0.00000000  0.45779380  -0.00000000  1
  Cu  Cu2  1  0.54220620  0.54220620  0.00000000  1
  B  B0  1  0.81128459  -0.00000000  0.50000000  1
  B  B1  1  -0.00000000  0.81128459  0.50000000  1
  B  B2  1  0.18871541  0.18871541  0.50000000  1
  B  B3  1  0.66666700  0.33333300  0.00000000  1
  B  B4  1  0.33333300  0.66666700  0.00000000  1
  Pt  Pt0  1  0.80390792  0.53821696  0.50000000  1
  Pt  Pt1  1  0.46178304  0.26569096  0.50000000  1
  Pt  Pt2  1  0.73430904  0.19609208  0.50000000  1
  Pt  Pt3  1  0.26569096  0.46178304  0.50000000  1
  Pt  Pt4  1  0.19609208  0.73430904  0.50000000  1
  Pt  Pt5  1  0.53821696  0.80390792  0.50000000  1
  Pt  Pt6  1  0.17699945  0.00000000  -0.00000000  1
  Pt  Pt7  1  0.00000000  0.17699945  0.00000000  1
  Pt  Pt8  1  0.82300055  0.82300055  0.00000000  1
loop_
_geom_bond_atom_site_label_1
_geom_bond_atom_site_label_2
_geom_bond_distance
_geom_bond_site_symmetry_2
Cu0 Pt6 2.540123 1_555
Cu0 Pt5 2.675340 1_545
Cu0 Pt5 2.675340 1_544
Cu0 Pt2 2.675340 1_554
Cu0 Pt2 2.675340 1_555
Cu0 Pt1 2.807539 1_554
Cu0 Pt1 2.807539 1_555
Cu0 Pt4 2.807539 1_545
Cu0 Pt4 2.807539 1_544
Cu1 Pt7 2.540123 1_555
Cu1 Pt0 2.675340 1_455
Cu1 Pt0 2.675340 1_454
Cu1 Pt4 2.675340 1_554
Cu1 Pt4 2.675340 1_555
Cu1 Pt3 2.807539 1_554
Cu1 Pt3 2.807539 1_555
Cu1 Pt2 2.807539 1_455
Cu1 Pt2 2.807539 1_454
Cu2 Pt8 2.540124 1_555
Cu2 Pt3 2.675340 1_555
Cu2 Pt1 2.675340 1_554
Cu2 Pt3 2.675340 1_554
Cu2 Pt1 2.675340 1_555
Cu2 Pt5 2.807539 1_555
Cu2 Pt5 2.807539 1_554
Cu2 Pt0 2.807539 1_555
Cu2 Pt0 2.807539 1_554
B0 Pt2 2.206081 1_555
B0 Pt5 2.206081 1_545
B0 Pt8 2.221623 1_545
B0 Pt8 2.221623 1_546
B0 Pt7 2.221623 1_655
B0 Pt7 2.221623 1_656
B1 Pt4 2.206081 1_555
B1 Pt0 2.206081 1_455
B1 Pt8 2.221623 1_456
B1 Pt8 2.221623 1_455
B1 Pt6 2.221623 1_565
B1 Pt6 2.221623 1_566
B2 Pt3 2.206081 1_555
B2 Pt1 2.206081 1_555
B2 Pt7 2.221623 1_555
B2 Pt7 2.221623 1_556
B2 Pt6 2.221623 1_555
B2 Pt6 2.221623 1_556
B3 Pt2 2.205987 1_554
B3 Pt2 2.205987 1_555
B3 Pt0 2.205992 1_555
B3 Pt0 2.205992 1_554
B3 Pt1 2.205993 1_554
B3 Pt1 2.205993 1_555
B3 Cu1 2.639175 1_655
B3 Cu0 2.639176 1_555
B3 Cu2 2.639184 1_555
B4 Pt4 2.205987 1_555
B4 Pt4 2.205987 1_554
B4 Pt5 2.205992 1_554
B4 Pt5 2.205992 1_555
B4 Pt3 2.205993 1_554
B4 Pt3 2.205993 1_555
B4 Cu0 2.639175 1_565
B4 Cu1 2.639176 1_555
B4 Cu2 2.639184 1_555
