# generated using pymatgen
data_BaMgV4O8
_symmetry_space_group_name_H-M   'P 1'
_cell_length_a   5.47290992
_cell_length_b   5.47290992
_cell_length_c   7.42055600
_cell_angle_alpha   90.00000000
_cell_angle_beta   90.00000000
_cell_angle_gamma   119.99999903
_symmetry_Int_Tables_number   1
_chemical_formula_structural   BaMgV4O8
_chemical_formula_sum   'Ba1 Mg1 V4 O8'
_cell_volume   192.48801009
_cell_formula_units_Z   1
loop_
 _symmetry_equiv_pos_site_id
 _symmetry_equiv_pos_as_xyz
  1  'x, y, z'
loop_
 _atom_site_type_symbol
 _atom_site_label
 _atom_site_symmetry_multiplicity
 _atom_site_fract_x
 _atom_site_fract_y
 _atom_site_fract_z
 _atom_site_occupancy
  Ba  Ba0  1  0.00000000  0.00000000  0.00000000  1
  Mg  Mg0  1  0.00000000  0.00000000  0.50000000  1
  V  V0  1  0.33333300  0.66666700  0.74383800  1
  V  V1  1  0.66666700  0.33333300  0.74383800  1
  V  V2  1  0.33333300  0.66666700  0.25616200  1
  V  V3  1  0.66666700  0.33333300  0.25616200  1
  O  O0  1  0.31547500  0.31547500  0.67629700  1
  O  O1  1  0.68452500  0.00000000  0.67629700  1
  O  O2  1  0.00000000  0.68452500  0.67629700  1
  O  O3  1  0.68452500  0.68452500  0.32370300  1
  O  O4  1  0.00000000  0.31547500  0.32370300  1
  O  O5  1  0.31547500  0.00000000  0.32370300  1
  O  O6  1  0.33333300  0.66666700  0.00000000  1
  O  O7  1  0.66666700  0.33333300  0.00000000  1
loop_
_geom_bond_atom_site_label_1
_geom_bond_atom_site_label_2
_geom_bond_distance
_geom_bond_site_symmetry_2
Ba0 O1 2.958193 1_454
Ba0 O2 2.958193 1_544
Ba0 O4 2.958193 1_555
Ba0 O5 2.958193 1_555
Ba0 O0 2.958193 1_554
Ba0 O3 2.958193 1_445
Ba0 O7 3.159783 1_455
Ba0 O6 3.159783 1_545
Ba0 O6 3.159788 1_445
Ba0 O7 3.159788 1_555
Ba0 O7 3.159788 1_445
Ba0 O6 3.159788 1_555
Mg0 O4 2.166212 1_555
Mg0 O5 2.166212 1_555
Mg0 O1 2.166212 1_455
Mg0 O2 2.166212 1_545
Mg0 O3 2.166212 1_445
Mg0 O0 2.166212 1_555
O0 V0 1.940912 1_555
O0 V1 1.940912 1_555
O1 V1 1.940907 1_555
O1 V0 1.940910 1_545
O2 V0 1.940907 1_555
O2 V1 1.940910 1_455
O3 V3 1.940912 1_555
O3 V2 1.940912 1_555
O4 V3 1.940907 1_455
O4 V2 1.940910 1_555
O5 V2 1.940907 1_545
O5 V3 1.940910 1_555
O6 V2 1.900864 1_555
O6 V0 1.900864 1_554
O7 V3 1.900864 1_555
O7 V1 1.900864 1_554
