# generated using pymatgen
data_Li7Mn4CoO12
_symmetry_space_group_name_H-M   'P 1'
_cell_length_a   5.93419415
_cell_length_b   11.91231312
_cell_length_c   6.42040453
_cell_angle_alpha   102.98290932
_cell_angle_beta   76.97345286
_cell_angle_gamma   86.85329697
_symmetry_Int_Tables_number   1
_chemical_formula_structural   Li7Mn4CoO12
_chemical_formula_sum   'Li14 Mn8 Co2 O24'
_cell_volume   428.20481386
_cell_formula_units_Z   2
loop_
 _symmetry_equiv_pos_site_id
 _symmetry_equiv_pos_as_xyz
  1  'x, y, z'
loop_
 _atom_site_type_symbol
 _atom_site_label
 _atom_site_symmetry_multiplicity
 _atom_site_fract_x
 _atom_site_fract_y
 _atom_site_fract_z
 _atom_site_occupancy
  Li  Li0  1  0.83335800  0.08332000  0.66669100  1
  Li  Li1  1  0.83327900  0.58333500  0.66658800  1
  Li  Li2  1  0.83394300  0.33277900  0.66670600  1
  Li  Li3  1  0.83269500  0.83382300  0.66666900  1
  Li  Li4  1  0.33407700  0.33340000  0.66691000  1
  Li  Li5  1  0.33255600  0.83325100  0.66643600  1
  Li  Li6  1  0.48667200  0.48863900  0.98746600  1
  Li  Li7  1  0.48510500  0.98868100  0.98758300  1
  Li  Li8  1  0.18167200  0.17794300  0.34585300  1
  Li  Li9  1  0.17975900  0.67795100  0.34584500  1
  Li  Li10  1  0.50157500  0.24931400  0.98544300  1
  Li  Li11  1  0.49989900  0.74956300  0.98524800  1
  Li  Li12  1  0.16675500  0.41708600  0.34800400  1
  Li  Li13  1  0.16515200  0.91733700  0.34791700  1
  Mn  Mn0  1  0.00692200  0.49937400  0.99278000  1
  Mn  Mn1  1  0.00645800  0.99938700  0.99283300  1
  Mn  Mn2  1  0.66032900  0.16729100  0.34054900  1
  Mn  Mn3  1  0.65960100  0.66733200  0.34044400  1
  Mn  Mn4  1  0.01108000  0.25222000  0.99467400  1
  Mn  Mn5  1  0.00991000  0.75208600  0.99434900  1
  Mn  Mn6  1  0.65669300  0.41458200  0.33904900  1
  Mn  Mn7  1  0.65565800  0.91446400  0.33870800  1
  Co  Co0  1  0.33331000  0.58333900  0.66663400  1
  Co  Co1  1  0.33338300  0.08333000  0.66670100  1
  O  O0  1  0.21931500  0.37053700  0.00055400  1
  O  O1  1  0.21813600  0.87043700  0.00025200  1
  O  O2  1  0.44858700  0.29621700  0.33309100  1
  O  O3  1  0.44727300  0.79620200  0.33276900  1
  O  O4  1  0.88329000  0.03211100  0.31943900  1
  O  O5  1  0.88385200  0.53241100  0.31944600  1
  O  O6  1  0.78349700  0.13455900  0.01395600  1
  O  O7  1  0.78267500  0.63433000  0.01372200  1
  O  O8  1  0.57863600  0.46156700  0.65064100  1
  O  O9  1  0.57798500  0.96139900  0.65036100  1
  O  O10  1  0.08877000  0.20525500  0.68303400  1
  O  O11  1  0.08801100  0.70511400  0.68266900  1
  O  O12  1  0.25078200  0.13480600  0.99082500  1
  O  O13  1  0.24984700  0.63502300  0.99075400  1
  O  O14  1  0.41598600  0.03187800  0.34258400  1
  O  O15  1  0.41676200  0.53162900  0.34253700  1
  O  O16  1  0.56632200  0.19460800  0.65088400  1
  O  O17  1  0.56555600  0.69475100  0.65066200  1
  O  O18  1  0.10105300  0.47192800  0.68254300  1
  O  O19  1  0.10044900  0.97207000  0.68249400  1
  O  O20  1  0.91414100  0.29899800  0.32360500  1
  O  O21  1  0.91279400  0.79901400  0.32322300  1
  O  O22  1  0.75387700  0.36762500  0.01009500  1
  O  O23  1  0.75256700  0.86770800  0.00977900  1
loop_
_geom_bond_atom_site_label_1
_geom_bond_atom_site_label_2
_geom_bond_distance
_geom_bond_site_symmetry_2
Li0 O19 2.044751 1_645
Li0 O16 2.044795 1_555
Li0 O4 2.121754 1_555
Li0 O6 2.121897 1_556
Li0 O9 2.159102 1_545
Li0 O10 2.159397 1_655
Li1 O17 2.049079 1_555
Li1 O18 2.049309 1_655
Li1 O7 2.120474 1_556
Li1 O5 2.120507 1_555
Li1 O8 2.154444 1_555
Li1 O11 2.154978 1_655
Li2 O20 2.085433 1_555
Li2 O22 2.086543 1_556
Li2 O10 2.120430 1_655
Li2 O8 2.132138 1_555
Li2 O16 2.350767 1_555
Li2 O18 2.357074 1_655
Li3 O23 2.085427 1_556
Li3 O21 2.086912 1_555
Li3 O9 2.120333 1_555
Li3 O11 2.131370 1_655
Li3 O19 2.351998 1_655
Li3 O17 2.356568 1_555
Li4 O0 2.032656 1_556
Li4 O2 2.033552 1_555
Li4 O16 2.062275 1_555
Li4 O18 2.063456 1_555
Li4 O8 2.166715 1_555
Li4 O10 2.169566 1_555
Li5 O3 2.032810 1_555
Li5 O1 2.033488 1_556
Li5 O19 2.061958 1_555
Li5 O17 2.062863 1_555
Li5 O11 2.166376 1_555
Li5 O9 2.170082 1_555
Li6 O8 2.052742 1_555
Li6 O22 2.135528 1_556
Li6 O15 2.158045 1_556
Li6 O13 2.171930 1_555
Li6 O0 2.177508 1_556
Li6 O7 2.542160 1_556
Li7 O9 2.055063 1_555
Li7 O23 2.135236 1_556
Li7 O14 2.157870 1_566
Li7 O12 2.160765 1_565
Li7 O1 2.176894 1_556
Li7 O6 2.554336 1_566
Li8 O10 2.054781 1_555
Li8 O20 2.136295 1_455
Li8 O12 2.158047 1_554
Li8 O14 2.160129 1_555
Li8 O2 2.176912 1_555
Li8 O4 2.553924 1_455
Li9 O11 2.052609 1_555
Li9 O21 2.134864 1_455
Li9 O13 2.158114 1_554
Li9 O15 2.171959 1_555
Li9 O3 2.179443 1_555
Li9 O5 2.540531 1_455
Li10 O16 2.039050 1_555
Li10 O12 2.073067 1_555
Li10 O22 2.119253 1_556
Li10 O2 2.120619 1_556
Li10 O0 2.120968 1_556
Li10 O6 2.168061 1_556
Li11 O17 2.038953 1_555
Li11 O13 2.070041 1_555
Li11 O1 2.116369 1_556
Li11 O23 2.119481 1_556
Li11 O3 2.120002 1_556
Li11 O7 2.175250 1_556
Li12 O18 2.038678 1_555
Li12 O15 2.069865 1_555
Li12 O2 2.116802 1_555
Li12 O20 2.118700 1_455
Li12 O0 2.119586 1_555
Li12 O5 2.176701 1_455
Li13 O19 2.039200 1_555
Li13 O14 2.073525 1_565
Li13 O21 2.119627 1_455
Li13 O3 2.119631 1_555
Li13 O1 2.120725 1_555
Li13 O4 2.167840 1_465
Mn0 O18 1.890009 1_555
Mn0 O0 1.948567 1_556
Mn0 O7 1.990165 1_456
Mn0 O5 1.998525 1_456
Mn0 O13 2.223986 1_555
Mn0 O22 2.234326 1_456
Mn1 O19 1.890714 1_555
Mn1 O1 1.946214 1_556
Mn1 O6 1.987170 1_466
Mn1 O4 1.998461 1_466
Mn1 O12 2.227607 1_565
Mn1 O23 2.237085 1_456
Mn2 O16 1.890694 1_555
Mn2 O2 1.946314 1_555
Mn2 O4 1.987265 1_555
Mn2 O6 1.998378 1_555
Mn2 O14 2.227634 1_555
Mn2 O20 2.237006 1_555
Mn3 O17 1.889895 1_555
Mn3 O3 1.948409 1_555
Mn3 O5 1.989770 1_555
Mn3 O7 1.998884 1_555
Mn3 O15 2.224137 1_555
Mn3 O21 2.234308 1_555
Mn4 O10 1.892573 1_555
Mn4 O0 1.924374 1_556
Mn4 O12 1.931432 1_555
Mn4 O22 1.967141 1_456
Mn4 O20 1.997449 1_456
Mn4 O6 2.003539 1_456
Mn5 O11 1.892792 1_555
Mn5 O1 1.924647 1_556
Mn5 O13 1.930072 1_555
Mn5 O23 1.969396 1_456
Mn5 O21 1.997192 1_456
Mn5 O7 2.002986 1_456
Mn6 O8 1.892273 1_555
Mn6 O2 1.924285 1_555
Mn6 O15 1.930136 1_555
Mn6 O20 1.969530 1_555
Mn6 O22 1.997692 1_555
Mn6 O5 2.003425 1_555
Mn7 O9 1.892636 1_555
Mn7 O3 1.924486 1_555
Mn7 O14 1.931253 1_565
Mn7 O21 1.967082 1_555
Mn7 O23 1.997424 1_555
Mn7 O4 2.003611 1_565
Co0 O11 1.966556 1_555
Co0 O8 1.966717 1_555
Co0 O17 1.967123 1_555
Co0 O18 1.967143 1_555
Co0 O15 1.969923 1_555
Co0 O13 1.970041 1_555
Co1 O9 1.964441 1_545
Co1 O10 1.964449 1_555
Co1 O19 1.968727 1_545
Co1 O16 1.968910 1_555
Co1 O14 1.969881 1_555
Co1 O12 1.969940 1_555
