# generated using pymatgen
data_Li9Mn2Co5O16
_symmetry_space_group_name_H-M   'P 1'
_cell_length_a   2.95939000
_cell_length_b   5.05635140
_cell_length_c   19.31957017
_cell_angle_alpha   93.61613920
_cell_angle_beta   92.61889490
_cell_angle_gamma   91.87609769
_symmetry_Int_Tables_number   1
_chemical_formula_structural   Li9Mn2Co5O16
_chemical_formula_sum   'Li9 Mn2 Co5 O16'
_cell_volume   288.03161836
_cell_formula_units_Z   1
loop_
 _symmetry_equiv_pos_site_id
 _symmetry_equiv_pos_as_xyz
  1  'x, y, z'
loop_
 _atom_site_type_symbol
 _atom_site_label
 _atom_site_symmetry_multiplicity
 _atom_site_fract_x
 _atom_site_fract_y
 _atom_site_fract_z
 _atom_site_occupancy
  Li  Li0  1  0.06287100  0.68442900  0.12463400  1
  Li  Li1  1  0.69074800  0.57256100  0.38071200  1
  Li  Li2  1  0.29782400  0.43663600  0.62085400  1
  Li  Li3  1  0.93289300  0.31630200  0.87379600  1
  Li  Li4  1  0.55987200  0.19092000  0.12641800  1
  Li  Li5  1  0.20322600  0.06493600  0.38116300  1
  Li  Li6  1  0.81571700  0.92449500  0.62070400  1
  Li  Li7  1  0.43780100  0.80820900  0.87151900  1
  Li  Li8  1  0.24996000  0.75066000  0.50038100  1
  Mn  Mn0  1  0.00012800  0.99976100  0.99929200  1
  Mn  Mn1  1  0.62702000  0.87620100  0.25145300  1
  Co  Co0  1  0.87295500  0.62411100  0.74835100  1
  Co  Co1  1  0.49941700  0.49940700  0.99932900  1
  Co  Co2  1  0.12616300  0.37661600  0.25159500  1
  Co  Co3  1  0.74921600  0.25106300  0.50083100  1
  Co  Co4  1  0.37304000  0.12394100  0.74842600  1
  O  O0  1  0.55704800  0.83035800  0.05675800  1
  O  O1  1  0.17241400  0.73205000  0.31099900  1
  O  O2  1  0.78023300  0.55120800  0.55583300  1
  O  O3  1  0.44220900  0.46362200  0.80631200  1
  O  O4  1  0.06040400  0.33699400  0.05699900  1
  O  O5  1  0.65891500  0.21336800  0.30771000  1
  O  O6  1  0.25921700  0.11102400  0.55483100  1
  O  O7  1  0.89378600  0.95711700  0.80482000  1
  O  O8  1  0.59214900  0.53984600  0.19376700  1
  O  O9  1  0.23985100  0.39080900  0.44636400  1
  O  O10  1  0.85717200  0.28839400  0.69417800  1
  O  O11  1  0.44154700  0.16931600  0.94127800  1
  O  O12  1  0.08101900  0.01937600  0.19201000  1
  O  O13  1  0.71898700  0.94999400  0.44575600  1
  O  O14  1  0.30527600  0.78511400  0.69048000  1
  O  O15  1  0.94092100  0.66116300  0.94244600  1
loop_
_geom_bond_atom_site_label_1
_geom_bond_atom_site_label_2
_geom_bond_distance
_geom_bond_site_symmetry_2
Li0 O12 2.067638 1_565
Li0 O8 2.117885 1_455
Li0 O4 2.121879 1_555
Li0 O0 2.125990 1_455
Li0 O0 2.151628 1_555
Li0 O8 2.186028 1_555
Li1 O9 2.110759 1_555
Li1 O1 2.175621 1_655
Li1 O1 2.201474 1_555
Li1 O13 2.214870 1_555
Li1 O5 2.224894 1_555
Li1 O9 2.269459 1_655
Li2 O6 2.014985 1_555
Li2 O2 2.037957 1_555
Li2 O2 2.057649 1_455
Li2 O10 2.123182 1_455
Li2 O14 2.147185 1_555
Li2 O10 2.304251 1_555
Li3 O3 2.093720 1_555
Li3 O15 2.122005 1_555
Li3 O11 2.129352 1_655
Li3 O11 2.142692 1_555
Li3 O7 2.180479 1_545
Li3 O3 2.180618 1_655
Li4 O8 2.122000 1_555
Li4 O4 2.131741 1_555
Li4 O12 2.142117 1_555
Li4 O4 2.184771 1_655
Li4 O12 2.187336 1_655
Li4 O0 2.196251 1_545
Li5 O9 2.006863 1_555
Li5 O13 2.036927 1_445
Li5 O13 2.049456 1_545
Li5 O1 2.090398 1_545
Li5 O5 2.153754 1_555
Li5 O5 2.275183 1_455
Li6 O14 2.102649 1_655
Li6 O6 2.110635 1_665
Li6 O2 2.195651 1_555
Li6 O14 2.198187 1_555
Li6 O10 2.248429 1_565
Li6 O6 2.298480 1_565
Li7 O7 2.064736 1_555
Li7 O3 2.085449 1_555
Li7 O15 2.159154 1_555
Li7 O7 2.198068 1_455
Li7 O15 2.198592 1_455
Li7 O11 2.199365 1_565
Li8 O9 2.038314 1_555
Li8 O6 2.044457 1_565
Li8 O13 2.057345 1_555
Li8 O2 2.068273 1_455
Li8 O13 2.164506 1_455
Li8 O2 2.171107 1_555
Mn0 O0 1.965986 1_456
Mn0 O11 1.969619 1_565
Mn0 O15 1.973223 1_455
Mn0 O4 1.975973 1_566
Mn0 O0 2.174359 1_556
Mn0 O11 2.183693 1_465
Mn1 O12 1.957113 1_665
Mn1 O5 1.960355 1_565
Mn1 O1 1.961550 1_555
Mn1 O8 1.970806 1_555
Mn1 O12 2.113230 1_565
Mn1 O1 2.114926 1_655
Co0 O3 1.927366 1_555
Co0 O14 1.930538 1_655
Co0 O10 1.935278 1_555
Co0 O7 1.945377 1_555
Co0 O14 2.183534 1_555
Co0 O3 2.186823 1_655
Co1 O15 1.938670 1_555
Co1 O4 1.944618 1_556
Co1 O0 1.946840 1_556
Co1 O11 1.949485 1_555
Co1 O15 2.155072 1_455
Co1 O4 2.169699 1_656
Co2 O5 1.985914 1_455
Co2 O8 2.003418 1_555
Co2 O1 2.067641 1_555
Co2 O12 2.076942 1_555
Co2 O5 2.093869 1_555
Co2 O8 2.113589 1_455
Co3 O2 1.794252 1_555
Co3 O13 1.798789 1_545
Co3 O6 1.963863 1_555
Co3 O9 1.970043 1_655
Co3 O6 1.971548 1_655
Co3 O9 1.974195 1_555
Co4 O14 1.985871 1_545
Co4 O3 1.989045 1_555
Co4 O10 2.002930 1_555
Co4 O7 2.022112 1_445
Co4 O10 2.041411 1_455
Co4 O7 2.078731 1_545
