# generated using pymatgen
data_Rb3Ho(PO4)2
_symmetry_space_group_name_H-M   'P 1'
_cell_length_a   5.76178013
_cell_length_b   5.76178013
_cell_length_c   8.07339400
_cell_angle_alpha   90.00000000
_cell_angle_beta   90.00000000
_cell_angle_gamma   120.00000148
_symmetry_Int_Tables_number   1
_chemical_formula_structural   Rb3Ho(PO4)2
_chemical_formula_sum   'Rb3 Ho1 P2 O8'
_cell_volume   232.11335860
_cell_formula_units_Z   1
loop_
 _symmetry_equiv_pos_site_id
 _symmetry_equiv_pos_as_xyz
  1  'x, y, z'
loop_
 _atom_site_type_symbol
 _atom_site_label
 _atom_site_symmetry_multiplicity
 _atom_site_fract_x
 _atom_site_fract_y
 _atom_site_fract_z
 _atom_site_occupancy
  Rb  Rb0  1  0.33333300  0.66666700  0.74176500  1
  Rb  Rb1  1  0.66666700  0.33333300  0.25823500  1
  Rb  Rb2  1  0.00000000  0.00000000  0.00000000  1
  Ho  Ho0  1  0.00000000  0.00000000  0.50000000  1
  P  P0  1  0.33333300  0.66666700  0.27340900  1
  P  P1  1  0.66666700  0.33333300  0.72659100  1
  O  O0  1  0.33333300  0.66666700  0.08526400  1
  O  O1  1  0.66666700  0.33333300  0.91473600  1
  O  O2  1  0.18605900  0.81394100  0.34175800  1
  O  O3  1  0.81394100  0.18605900  0.65824200  1
  O  O4  1  0.18605900  0.37211900  0.34175800  1
  O  O5  1  0.81394100  0.62788100  0.65824200  1
  O  O6  1  0.62788100  0.81394100  0.34175800  1
  O  O7  1  0.37211900  0.18605900  0.65824200  1
loop_
_geom_bond_atom_site_label_1
_geom_bond_atom_site_label_2
_geom_bond_distance
_geom_bond_site_symmetry_2
Ho0 O2 2.253860 1_545
Ho0 O3 2.253860 1_455
Ho0 O6 2.253864 1_445
Ho0 O7 2.253864 1_555
Ho0 O4 2.253864 1_555
Ho0 O5 2.253864 1_445
O0 P0 1.518969 1_555
O0 Rb0 2.773203 1_554
O0 Rb2 3.397038 1_565
O0 Rb2 3.397043 1_555
O0 Rb2 3.397043 1_665
O1 P1 1.518969 1_555
O1 Rb1 2.773203 1_556
O1 Rb2 3.397038 1_656
O1 Rb2 3.397043 1_666
O1 Rb2 3.397043 1_556
O2 P0 1.569923 1_555
O2 Rb1 2.965077 1_455
O2 Rb1 2.965077 1_565
O2 Rb2 3.325755 1_565
O3 P1 1.569923 1_555
O3 Rb0 2.965077 1_545
O3 Rb0 2.965077 1_655
O3 Rb2 3.325755 1_656
O4 P0 1.569923 1_555
O4 Rb1 2.965072 1_455
O4 Rb1 2.965083 1_555
O4 Rb2 3.325757 1_555
O5 P1 1.569923 1_555
O5 Rb0 2.965072 1_655
O5 Rb0 2.965083 1_555
O5 Rb2 3.325757 1_666
O6 P0 1.569923 1_555
O6 Rb1 2.965072 1_565
O6 Rb1 2.965083 1_555
O6 Rb2 3.325757 1_665
O7 P1 1.569923 1_555
O7 Rb0 2.965072 1_545
O7 Rb0 2.965083 1_555
O7 Rb2 3.325757 1_556
