# generated using pymatgen
data_EuSiPt
_symmetry_space_group_name_H-M   'P 1'
_cell_length_a   6.42701718
_cell_length_b   6.42677423
_cell_length_c   6.42709152
_cell_angle_alpha   89.99043684
_cell_angle_beta   90.01672102
_cell_angle_gamma   89.96829165
_symmetry_Int_Tables_number   1
_chemical_formula_structural   EuSiPt
_chemical_formula_sum   'Eu4 Si4 Pt4'
_cell_volume   265.47088510
_cell_formula_units_Z   4
loop_
 _symmetry_equiv_pos_site_id
 _symmetry_equiv_pos_as_xyz
  1  'x, y, z'
loop_
 _atom_site_type_symbol
 _atom_site_label
 _atom_site_symmetry_multiplicity
 _atom_site_fract_x
 _atom_site_fract_y
 _atom_site_fract_z
 _atom_site_occupancy
  Eu  Eu0  1  0.37349286  0.87347812  0.62647934  1
  Eu  Eu1  1  0.87344788  0.62651189  0.37346053  1
  Eu  Eu2  1  0.62652480  0.37350857  0.87348193  1
  Eu  Eu3  1  0.12646094  0.12651149  0.12651471  1
  Si  Si0  1  0.66408331  0.16410720  0.33598889  1
  Si  Si1  1  0.16403235  0.33593843  0.66410566  1
  Si  Si2  1  0.33595181  0.66403728  0.16414054  1
  Si  Si3  1  0.83598161  0.83584174  0.83594175  1
  Pt  Pt0  1  0.08442437  0.58432070  0.91564200  1
  Pt  Pt1  1  0.58423214  0.91576670  0.08420579  1
  Pt  Pt2  1  0.91577655  0.08430664  0.58430626  1
  Pt  Pt3  1  0.41559138  0.41567124  0.41573359  1
loop_
_geom_bond_atom_site_label_1
_geom_bond_atom_site_label_2
_geom_bond_distance
_geom_bond_site_symmetry_2
Eu0 Pt0 3.219266 1_555
Eu0 Si0 3.235305 1_565
Eu0 Pt2 3.249346 1_465
Eu0 Pt1 3.249794 1_556
Eu0 Pt3 3.250409 1_555
Eu0 Si1 3.271131 1_565
Eu0 Si2 3.271247 1_555
Eu0 Si3 3.271530 1_555
Eu1 Pt1 3.218702 1_555
Eu1 Si1 3.233828 1_655
Eu1 Pt2 3.250936 1_565
Eu1 Pt0 3.251503 1_654
Eu1 Pt3 3.251748 1_555
Eu1 Si3 3.271768 1_555
Eu1 Si0 3.271774 1_555
Eu1 Si2 3.272147 1_655
Eu2 Pt2 3.219330 1_555
Eu2 Si2 3.234659 1_556
Eu2 Pt1 3.249939 1_546
Eu2 Pt3 3.250166 1_555
Eu2 Pt0 3.251756 1_655
Eu2 Si1 3.271569 1_555
Eu2 Si0 3.271615 1_556
Eu2 Si3 3.271618 1_555
Eu3 Pt3 3.219445 1_555
Eu3 Si3 3.235081 1_444
Eu3 Pt1 3.249695 1_545
Eu3 Pt0 3.250255 1_554
Eu3 Pt2 3.250614 1_455
Eu3 Si2 3.271161 1_545
Eu3 Si1 3.271355 1_554
Eu3 Si0 3.271641 1_455
Pt0 Si3 2.328379 1_455
Pt0 Si1 2.328933 1_555
Pt0 Si2 2.329433 1_556
Pt1 Si3 2.329939 1_554
Pt1 Si2 2.330357 1_555
Pt1 Si0 2.330375 1_565
Pt2 Si0 2.328982 1_555
Pt2 Si1 2.329535 1_655
Pt2 Si3 2.330022 1_545
Pt3 Si2 2.328582 1_555
Pt3 Si0 2.329174 1_555
Pt3 Si1 2.329569 1_555
