# generated using pymatgen
data_Li4MnCo2O7
_symmetry_space_group_name_H-M   'P 1'
_cell_length_a   4.99594300
_cell_length_b   5.29094074
_cell_length_c   10.20495882
_cell_angle_alpha   95.43498337
_cell_angle_beta   101.68425590
_cell_angle_gamma   102.80319857
_symmetry_Int_Tables_number   1
_chemical_formula_structural   Li4MnCo2O7
_chemical_formula_sum   'Li8 Mn2 Co4 O14'
_cell_volume   254.82547643
_cell_formula_units_Z   2
loop_
 _symmetry_equiv_pos_site_id
 _symmetry_equiv_pos_as_xyz
  1  'x, y, z'
loop_
 _atom_site_type_symbol
 _atom_site_label
 _atom_site_symmetry_multiplicity
 _atom_site_fract_x
 _atom_site_fract_y
 _atom_site_fract_z
 _atom_site_occupancy
  Li  Li0  1  0.50000000  0.00000000  0.50000000  1
  Li  Li1  1  0.07432900  0.14422200  0.64438400  1
  Li  Li2  1  0.64284800  0.28414800  0.78887200  1
  Li  Li3  1  0.35715200  0.71585200  0.21112800  1
  Li  Li4  1  0.92567100  0.85577800  0.35561600  1
  Li  Li5  1  0.21551300  0.43129900  0.92945000  1
  Li  Li6  1  0.78448700  0.56870100  0.07055000  1
  Li  Li7  1  0.50000000  0.00000000  0.00000000  1
  Mn  Mn0  1  0.78809100  0.57580500  0.57449100  1
  Mn  Mn1  1  0.21190900  0.42419500  0.42550900  1
  Co  Co0  1  0.35858300  0.71969100  0.71766800  1
  Co  Co1  1  0.93621300  0.87181900  0.86380700  1
  Co  Co2  1  0.06378700  0.12818100  0.13619300  1
  Co  Co3  1  0.64141700  0.28030900  0.28233200  1
  O  O0  1  0.56743600  0.63600800  0.40179000  1
  O  O1  1  0.14296500  0.77873000  0.54761100  1
  O  O2  1  0.70518500  0.91992500  0.69140500  1
  O  O3  1  0.40968000  0.34514500  0.12080200  1
  O  O4  1  0.98678800  0.48681300  0.25603400  1
  O  O5  1  0.25314000  0.05124700  0.82411200  1
  O  O6  1  0.87509100  0.19899900  0.97134200  1
  O  O7  1  0.43256400  0.36399200  0.59821000  1
  O  O8  1  0.01321200  0.51318700  0.74396600  1
  O  O9  1  0.59032000  0.65485500  0.87919800  1
  O  O10  1  0.29481500  0.08007500  0.30859500  1
  O  O11  1  0.85703500  0.22127000  0.45238900  1
  O  O12  1  0.12490900  0.80100100  0.02865800  1
  O  O13  1  0.74686000  0.94875300  0.17588800  1
loop_
_geom_bond_atom_site_label_1
_geom_bond_atom_site_label_2
_geom_bond_distance
_geom_bond_site_symmetry_2
Li0 O11 2.078846 1_555
Li0 O1 2.078846 1_545
Li0 O2 2.140996 1_545
Li0 O10 2.140996 1_555
Li0 O0 2.210340 1_545
Li0 O7 2.210340 1_555
Li1 O5 2.026340 1_555
Li1 O7 2.073703 1_555
Li1 O2 2.129805 1_445
Li1 O11 2.160898 1_455
Li1 O1 2.213982 1_545
Li1 O8 2.225081 1_555
Li2 O6 2.128874 1_555
Li2 O8 2.134730 1_655
Li2 O7 2.142982 1_555
Li2 O5 2.177767 1_555
Li2 O9 2.179266 1_555
Li2 O2 2.197344 1_545
Li3 O12 2.128874 1_555
Li3 O4 2.134730 1_455
Li3 O0 2.142982 1_555
Li3 O13 2.177767 1_555
Li3 O3 2.179266 1_555
Li3 O10 2.197344 1_565
Li4 O13 2.026340 1_555
Li4 O0 2.073703 1_555
Li4 O10 2.129805 1_665
Li4 O1 2.160898 1_655
Li4 O11 2.213982 1_565
Li4 O4 2.225081 1_555
Li5 O6 2.013322 1_455
Li5 O8 2.089658 1_555
Li5 O3 2.135258 1_556
Li5 O9 2.165773 1_555
Li5 O5 2.252610 1_555
Li5 O12 2.293248 1_556
Li6 O12 2.013322 1_655
Li6 O4 2.089658 1_555
Li6 O9 2.135258 1_554
Li6 O3 2.165773 1_555
Li6 O13 2.252610 1_555
Li6 O6 2.293248 1_554
Li7 O6 2.027702 1_554
Li7 O12 2.027702 1_545
Li7 O13 2.039632 1_545
Li7 O5 2.039632 1_554
Li7 O3 2.285216 1_555
Li7 O9 2.285216 1_544
Mn0 O1 1.944325 1_655
Mn0 O7 1.952611 1_555
Mn0 O8 1.962563 1_655
Mn0 O0 1.974292 1_555
Mn0 O2 2.243425 1_555
Mn0 O11 2.281975 1_555
Mn1 O11 1.944325 1_455
Mn1 O0 1.952611 1_555
Mn1 O4 1.962563 1_455
Mn1 O7 1.974292 1_555
Mn1 O10 2.243425 1_555
Mn1 O1 2.281975 1_555
Co0 O2 1.902988 1_555
Co0 O8 1.910640 1_555
Co0 O9 1.919753 1_555
Co0 O1 1.940182 1_555
Co0 O5 2.194356 1_565
Co0 O7 2.284899 1_555
Co1 O5 1.799660 1_665
Co1 O12 1.868913 1_656
Co1 O9 1.895662 1_555
Co1 O2 1.971000 1_555
Co1 O6 2.074689 1_565
Co1 O8 2.306213 1_655
Co2 O13 1.799660 1_445
Co2 O6 1.868913 1_454
Co2 O3 1.895662 1_555
Co2 O10 1.971000 1_555
Co2 O12 2.074689 1_545
Co2 O4 2.306213 1_455
Co3 O10 1.902988 1_555
Co3 O4 1.910640 1_555
Co3 O3 1.919753 1_555
Co3 O11 1.940182 1_555
Co3 O13 2.194356 1_545
Co3 O0 2.284899 1_555
