# generated using pymatgen
data_Li2Ni3SnO8
_symmetry_space_group_name_H-M   'P 1'
_cell_length_a   5.89539037
_cell_length_b   6.06308718
_cell_length_c   8.24703643
_cell_angle_alpha   87.79493269
_cell_angle_beta   90.47544851
_cell_angle_gamma   87.63255561
_symmetry_Int_Tables_number   1
_chemical_formula_structural   Li2Ni3SnO8
_chemical_formula_sum   'Li4 Ni6 Sn2 O16'
_cell_volume   294.30012372
_cell_formula_units_Z   2
loop_
 _symmetry_equiv_pos_site_id
 _symmetry_equiv_pos_as_xyz
  1  'x, y, z'
loop_
 _atom_site_type_symbol
 _atom_site_label
 _atom_site_symmetry_multiplicity
 _atom_site_fract_x
 _atom_site_fract_y
 _atom_site_fract_z
 _atom_site_occupancy
  Li  Li0  1  0.00658900  0.24233100  0.11311000  1
  Li  Li1  1  0.50312700  0.74178700  0.61916200  1
  Li  Li2  1  0.99686600  0.75819000  0.88081000  1
  Li  Li3  1  0.49342800  0.25766500  0.38689700  1
  Ni  Ni0  1  0.75000200  0.24999900  0.75006600  1
  Ni  Ni1  1  0.75004800  0.74998500  0.25001700  1
  Ni  Ni2  1  0.25000200  0.25000600  0.74997600  1
  Ni  Ni3  1  0.00632200  0.50361400  0.50251300  1
  Ni  Ni4  1  0.49366500  0.99638700  0.99747600  1
  Ni  Ni5  1  0.24997400  0.75000800  0.24995700  1
  Sn  Sn0  1  0.00415900  0.00129700  0.49923000  1
  Sn  Sn1  1  0.49583300  0.49870900  0.00076300  1
  O  O0  1  0.01034400  0.54465700  0.26669400  1
  O  O1  1  0.48828000  0.02751500  0.76630900  1
  O  O2  1  0.01172900  0.47249400  0.73368600  1
  O  O3  1  0.48970200  0.95529800  0.23329800  1
  O  O4  1  0.24693400  0.75007500  0.47780600  1
  O  O5  1  0.73799200  0.24769100  0.98043100  1
  O  O6  1  0.77921300  0.74288000  0.48845400  1
  O  O7  1  0.27094600  0.23828400  0.97861800  1
  O  O8  1  0.01633400  0.97593200  0.25024900  1
  O  O9  1  0.48101000  0.46112300  0.74919900  1
  O  O10  1  0.01901200  0.03888200  0.75082200  1
  O  O11  1  0.48364000  0.52409200  0.24975500  1
  O  O12  1  0.22904300  0.26174900  0.52132200  1
  O  O13  1  0.72080400  0.75711200  0.01156700  1
  O  O14  1  0.76197000  0.25230500  0.51968500  1
  O  O15  1  0.25303200  0.74993600  0.02213100  1
loop_
_geom_bond_atom_site_label_1
_geom_bond_atom_site_label_2
_geom_bond_distance
_geom_bond_site_symmetry_2
Li0 O5 1.915732 1_454
Li0 O7 1.920246 1_554
Li0 O8 1.934423 1_545
Li0 O0 2.268555 1_555
Li1 O4 1.898084 1_555
Li1 O6 1.959766 1_555
Li1 O9 1.985713 1_555
Li1 O1 2.152326 1_565
Li2 O15 1.897789 1_656
Li2 O13 1.959871 1_556
Li2 O10 1.985668 1_665
Li2 O2 2.152055 1_655
Li3 O14 1.915972 1_555
Li3 O12 1.920058 1_555
Li3 O11 1.934572 1_555
Li3 O3 2.268828 1_545
Ni0 O5 1.901270 1_555
Ni0 O14 1.901390 1_555
Ni0 O9 1.996201 1_555
Ni0 O10 1.996282 1_655
Ni0 O1 2.092789 1_555
Ni0 O2 2.092908 1_655
Ni1 O0 1.936252 1_655
Ni1 O3 1.936436 1_555
Ni1 O6 1.971142 1_555
Ni1 O13 1.971282 1_555
Ni1 O8 2.125798 1_655
Ni1 O11 2.126132 1_555
Ni2 O7 1.887049 1_555
Ni2 O12 1.887152 1_555
Ni2 O10 1.906968 1_555
Ni2 O9 1.907027 1_555
Ni2 O2 1.907182 1_555
Ni2 O1 1.907228 1_555
Ni3 O2 1.908440 1_555
Ni3 O12 1.928371 1_555
Ni3 O6 1.932512 1_455
Ni3 O0 1.951609 1_555
Ni3 O4 2.107873 1_555
Ni3 O14 2.141273 1_455
Ni4 O1 1.908393 1_565
Ni4 O7 1.928523 1_565
Ni4 O13 1.932675 1_556
Ni4 O3 1.951649 1_556
Ni4 O15 2.107883 1_556
Ni4 O5 2.141101 1_565
Ni5 O15 1.879142 1_555
Ni5 O4 1.879329 1_555
Ni5 O8 1.902107 1_555
Ni5 O11 1.902154 1_555
Ni5 O0 1.923619 1_555
Ni5 O3 1.923776 1_555
O4 Sn0 2.060239 1_565
O5 Sn1 2.055879 1_556
O6 Sn0 2.098059 1_665
O7 Sn1 2.115511 1_556
O8 Sn0 2.066617 1_565
O9 Sn1 2.097330 1_556
O10 Sn0 2.097565 1_555
O11 Sn1 2.066724 1_555
O12 Sn0 2.115579 1_555
O13 Sn1 2.098107 1_555
O14 Sn0 2.056071 1_655
O15 Sn1 2.060307 1_555
