# generated using pymatgen
data_NdScSb
_symmetry_space_group_name_H-M   'P 1'
_cell_length_a   8.84484909
_cell_length_b   8.84484909
_cell_length_c   8.84484909
_cell_angle_alpha   150.64295503
_cell_angle_beta   150.64294097
_cell_angle_gamma   41.99843690
_symmetry_Int_Tables_number   1
_chemical_formula_structural   NdScSb
_chemical_formula_sum   'Nd2 Sc2 Sb2'
_cell_volume   165.91389043
_cell_formula_units_Z   2
loop_
 _symmetry_equiv_pos_site_id
 _symmetry_equiv_pos_as_xyz
  1  'x, y, z'
loop_
 _atom_site_type_symbol
 _atom_site_label
 _atom_site_symmetry_multiplicity
 _atom_site_fract_x
 _atom_site_fract_y
 _atom_site_fract_z
 _atom_site_occupancy
  Nd  Nd0  1  0.82426393  0.82426393  0.00000000  1
  Nd  Nd1  1  0.17573607  0.17573607  -0.00000000  1
  Sc  Sc0  1  0.00000000  0.50000000  0.50000000  1
  Sc  Sc1  1  0.50000000  0.00000000  0.50000000  1
  Sb  Sb0  1  0.62599938  0.62599938  -0.00000000  1
  Sb  Sb1  1  0.37400062  0.37400062  0.00000000  1
loop_
_geom_bond_atom_site_label_1
_geom_bond_atom_site_label_2
_geom_bond_distance
_geom_bond_site_symmetry_2
Nd0 Sb1 3.274300 1_565
Nd0 Sb1 3.274300 1_655
Nd0 Sb1 3.274300 1_666
Nd0 Sb1 3.274300 1_554
Nd0 Sb0 3.274308 1_555
Nd1 Sb0 3.274300 1_455
Nd1 Sb0 3.274300 1_556
Nd1 Sb0 3.274300 1_444
Nd1 Sb0 3.274300 1_545
Nd1 Sb1 3.274308 1_555
Sb0 Sc1 3.058292 1_565
Sb0 Sc1 3.058292 1_554
Sb0 Sc0 3.058293 1_554
Sb0 Sc0 3.058293 1_655
Sb1 Sc1 3.058292 1_565
Sb1 Sc1 3.058292 1_554
Sb1 Sc0 3.058293 1_655
Sb1 Sc0 3.058293 1_554
