# generated using pymatgen
data_Li7Mn2(CoO4)3
_symmetry_space_group_name_H-M   'P 1'
_cell_length_a   5.80250456
_cell_length_b   6.56916794
_cell_length_c   12.10715913
_cell_angle_alpha   80.06079805
_cell_angle_beta   102.18803597
_cell_angle_gamma   77.32560683
_symmetry_Int_Tables_number   1
_chemical_formula_structural   Li7Mn2(CoO4)3
_chemical_formula_sum   'Li14 Mn4 Co6 O24'
_cell_volume   428.34819717
_cell_formula_units_Z   2
loop_
 _symmetry_equiv_pos_site_id
 _symmetry_equiv_pos_as_xyz
  1  'x, y, z'
loop_
 _atom_site_type_symbol
 _atom_site_label
 _atom_site_symmetry_multiplicity
 _atom_site_fract_x
 _atom_site_fract_y
 _atom_site_fract_z
 _atom_site_occupancy
  Li  Li0  1  0.58316500  0.33314600  0.83305700  1
  Li  Li1  1  0.08351300  0.33361900  0.83363500  1
  Li  Li2  1  0.12516400  0.00277000  0.25212000  1
  Li  Li3  1  0.62349100  0.00364200  0.25226100  1
  Li  Li4  1  0.54150300  0.66371500  0.41460000  1
  Li  Li5  1  0.04319400  0.66293600  0.41443000  1
  Li  Li6  1  0.97353800  0.33320500  0.59294500  1
  Li  Li7  1  0.46890500  0.33554400  0.58942600  1
  Li  Li8  1  0.19783500  0.33089200  0.07731100  1
  Li  Li9  1  0.69326000  0.33322300  0.07377000  1
  Li  Li10  1  0.37303100  0.01759300  0.74980100  1
  Li  Li11  1  0.87238700  0.01742400  0.74979500  1
  Li  Li12  1  0.29358100  0.64932800  0.91682900  1
  Li  Li13  1  0.79411000  0.64954100  0.91684000  1
  Mn  Mn0  1  0.98731400  0.01441700  0.99499900  1
  Mn  Mn1  1  0.48707900  0.01404400  0.99507100  1
  Mn  Mn2  1  0.17963700  0.65273100  0.67158200  1
  Mn  Mn3  1  0.67939800  0.65227400  0.67164000  1
  Co  Co0  1  0.33329900  0.33330800  0.33333400  1
  Co  Co1  1  0.83332300  0.33331600  0.33332600  1
  Co  Co2  1  0.25903300  0.00151200  0.50083600  1
  Co  Co3  1  0.75863900  0.00069300  0.50173500  1
  Co  Co4  1  0.90798800  0.66602400  0.16491000  1
  Co  Co5  1  0.40764100  0.66509700  0.16583800  1
  O  O0  1  0.29307600  0.99582500  0.11080100  1
  O  O1  1  0.79345900  0.99610500  0.11130200  1
  O  O2  1  0.37366100  0.67082200  0.55587900  1
  O  O3  1  0.87322800  0.67052800  0.55532800  1
  O  O4  1  0.15505400  0.32926300  0.44891500  1
  O  O5  1  0.64478900  0.32957100  0.44686800  1
  O  O6  1  0.02182200  0.33705600  0.21978900  1
  O  O7  1  0.51153300  0.33737400  0.21774600  1
  O  O8  1  0.72920600  0.66653100  0.28296300  1
  O  O9  1  0.23195700  0.66248700  0.28351900  1
  O  O10  1  0.43468400  0.00410200  0.38314500  1
  O  O11  1  0.93743800  0.00006500  0.38370900  1
  O  O12  1  0.07907900  0.98504800  0.61986000  1
  O  O13  1  0.58055200  0.98415800  0.62002200  1
  O  O14  1  0.08612100  0.68256200  0.04663000  1
  O  O15  1  0.58751700  0.68167800  0.04679900  1
  O  O16  1  0.47282800  0.67020200  0.77725200  1
  O  O17  1  0.97285800  0.66991800  0.77733000  1
  O  O18  1  0.19385400  0.99653500  0.88934700  1
  O  O19  1  0.69383200  0.99682700  0.88934100  1
  O  O20  1  0.40034600  0.30688300  0.96317700  1
  O  O21  1  0.90084700  0.30705200  0.96353900  1
  O  O22  1  0.76593600  0.35959800  0.70314000  1
  O  O23  1  0.26629400  0.35981600  0.70350600  1
loop_
_geom_bond_atom_site_label_1
_geom_bond_atom_site_label_2
_geom_bond_distance
_geom_bond_site_symmetry_2
Li0 O22 2.078433 1_555
Li0 O20 2.080635 1_555
Li0 O23 2.101800 1_555
Li0 O19 2.104954 1_545
Li0 O16 2.108988 1_555
Li0 O21 2.112168 1_555
Li1 O21 2.077929 1_455
Li1 O23 2.080548 1_555
Li1 O20 2.101483 1_555
Li1 O17 2.104852 1_455
Li1 O18 2.109075 1_545
Li1 O22 2.112011 1_455
Li2 O6 2.088406 1_555
Li2 O11 2.111047 1_455
Li2 O9 2.127144 1_545
Li2 O10 2.133269 1_555
Li2 O0 2.142454 1_545
Li2 O1 2.300075 1_445
Li3 O7 2.084983 1_555
Li3 O8 2.107625 1_545
Li3 O10 2.108208 1_555
Li3 O11 2.143826 1_555
Li3 O1 2.146177 1_545
Li3 O0 2.301908 1_545
Li4 O5 2.087551 1_555
Li4 O8 2.111451 1_555
Li4 O10 2.127758 1_565
Li4 O9 2.133540 1_555
Li4 O2 2.141831 1_555
Li4 O3 2.299857 1_555
Li5 O4 2.084610 1_555
Li5 O11 2.107728 1_465
Li5 O9 2.108316 1_555
Li5 O8 2.144083 1_455
Li5 O3 2.145530 1_455
Li5 O2 2.302189 1_555
Li6 O22 1.981893 1_555
Li6 O23 1.989715 1_655
Li6 O3 2.104817 1_555
Li6 O12 2.180802 1_645
Li6 O4 2.220348 1_655
Li6 O5 2.318901 1_555
Li7 O23 1.998661 1_555
Li7 O22 2.020801 1_555
Li7 O2 2.093719 1_555
Li7 O5 2.184411 1_555
Li7 O13 2.198295 1_545
Li7 O4 2.227398 1_555
Li8 O20 1.998667 1_554
Li8 O21 2.020444 1_454
Li8 O0 2.092418 1_545
Li8 O6 2.184084 1_555
Li8 O14 2.200013 1_555
Li8 O7 2.226700 1_555
Li9 O21 1.982083 1_554
Li9 O20 1.989886 1_554
Li9 O1 2.103556 1_545
Li9 O15 2.182645 1_555
Li9 O7 2.220608 1_555
Li9 O6 2.318187 1_655
Li10 O23 2.135236 1_555
Li10 O12 2.138477 1_545
Li10 O18 2.163008 1_545
Li10 O16 2.175005 1_545
Li10 O13 2.183805 1_545
Li10 O19 2.195208 1_545
Li11 O13 2.131052 1_545
Li11 O22 2.135018 1_555
Li11 O19 2.160528 1_545
Li11 O17 2.175665 1_545
Li11 O12 2.181428 1_645
Li11 O18 2.197683 1_645
Li12 O20 2.136626 1_555
Li12 O15 2.138106 1_556
Li12 O16 2.163562 1_555
Li12 O18 2.173806 1_555
Li12 O14 2.183654 1_556
Li12 O17 2.194913 1_455
Li13 O14 2.131199 1_656
Li13 O21 2.136986 1_555
Li13 O17 2.160838 1_555
Li13 O19 2.174303 1_555
Li13 O15 2.181127 1_556
Li13 O16 2.197598 1_555
Mn0 O21 1.826365 1_555
Mn0 O18 1.929684 1_645
Mn0 O19 1.940949 1_545
Mn0 O0 1.980868 1_646
Mn0 O1 1.982972 1_546
Mn0 O14 2.074052 1_646
Mn1 O20 1.827489 1_555
Mn1 O19 1.931202 1_545
Mn1 O18 1.940021 1_545
Mn1 O0 1.977882 1_546
Mn1 O1 1.987243 1_546
Mn1 O15 2.077124 1_546
Mn2 O23 1.827956 1_555
Mn2 O17 1.931483 1_455
Mn2 O16 1.939465 1_555
Mn2 O2 1.977650 1_555
Mn2 O3 1.987750 1_455
Mn2 O12 2.076808 1_555
Mn3 O22 1.826607 1_555
Mn3 O16 1.929436 1_555
Mn3 O17 1.941170 1_555
Mn3 O2 1.980584 1_555
Mn3 O3 1.982932 1_555
Mn3 O13 2.074217 1_555
Co0 O4 1.907604 1_555
Co0 O7 1.907632 1_555
Co0 O6 2.019066 1_555
Co0 O5 2.019079 1_555
Co0 O9 2.056133 1_555
Co0 O10 2.056295 1_555
Co1 O6 1.929108 1_655
Co1 O5 1.929305 1_555
Co1 O4 2.075208 1_655
Co1 O7 2.075404 1_555
Co1 O8 2.081264 1_555
Co1 O11 2.081498 1_555
Co2 O10 1.918827 1_555
Co2 O12 1.951853 1_545
Co2 O4 2.048758 1_555
Co2 O2 2.069948 1_545
Co2 O13 2.070978 1_545
Co2 O11 2.094825 1_455
Co3 O11 1.935058 1_555
Co3 O13 1.936750 1_545
Co3 O5 2.058697 1_555
Co3 O12 2.062936 1_645
Co3 O3 2.065544 1_545
Co3 O10 2.103873 1_555
Co4 O8 1.935259 1_555
Co4 O14 1.936867 1_655
Co4 O6 2.059252 1_655
Co4 O15 2.062971 1_555
Co4 O1 2.065036 1_555
Co4 O9 2.103792 1_655
Co5 O9 1.918855 1_555
Co5 O15 1.951722 1_555
Co5 O7 2.048577 1_555
Co5 O0 2.070164 1_555
Co5 O14 2.070923 1_555
Co5 O8 2.094656 1_555
