# generated using pymatgen
data_Tl2CrO4
_symmetry_space_group_name_H-M   'P 1'
_cell_length_a   5.83853200
_cell_length_b   7.93679598
_cell_length_c   10.81308441
_cell_angle_alpha   90.00000000
_cell_angle_beta   90.00000000
_cell_angle_gamma   90.00000000
_symmetry_Int_Tables_number   1
_chemical_formula_structural   Tl2CrO4
_chemical_formula_sum   'Tl8 Cr4 O16'
_cell_volume   501.07008449
_cell_formula_units_Z   4
loop_
 _symmetry_equiv_pos_site_id
 _symmetry_equiv_pos_as_xyz
  1  'x, y, z'
loop_
 _atom_site_type_symbol
 _atom_site_label
 _atom_site_symmetry_multiplicity
 _atom_site_fract_x
 _atom_site_fract_y
 _atom_site_fract_z
 _atom_site_occupancy
  Tl  Tl0  1  0.25000000  0.50700483  0.28581864  1
  Tl  Tl1  1  0.75000000  0.49299517  0.71418136  1
  Tl  Tl2  1  0.25000000  0.00700483  0.21418136  1
  Tl  Tl3  1  0.75000000  0.99299517  0.78581864  1
  Tl  Tl4  1  0.25000000  0.32276391  0.92305460  1
  Tl  Tl5  1  0.75000000  0.67723609  0.07694540  1
  Tl  Tl6  1  0.25000000  0.82276391  0.57694540  1
  Tl  Tl7  1  0.75000000  0.17723609  0.42305460  1
  Cr  Cr0  1  0.25000000  0.78697892  0.92402999  1
  Cr  Cr1  1  0.75000000  0.21302108  0.07597001  1
  Cr  Cr2  1  0.25000000  0.28697892  0.57597001  1
  Cr  Cr3  1  0.75000000  0.71302108  0.42402999  1
  O  O0  1  0.51603105  0.29055468  0.14050124  1
  O  O1  1  0.01603105  0.70944532  0.85949876  1
  O  O2  1  0.98396895  0.79055468  0.35949876  1
  O  O3  1  0.48396895  0.20944532  0.64050124  1
  O  O4  1  0.48396895  0.70944532  0.85949876  1
  O  O5  1  0.98396895  0.29055468  0.14050124  1
  O  O6  1  0.01603105  0.20944532  0.64050124  1
  O  O7  1  0.51603105  0.79055468  0.35949876  1
  O  O8  1  0.25000000  0.23288776  0.42760985  1
  O  O9  1  0.75000000  0.76711224  0.57239015  1
  O  O10  1  0.25000000  0.73288776  0.07239015  1
  O  O11  1  0.75000000  0.26711224  0.92760985  1
  O  O12  1  0.75000000  0.50598468  0.41117557  1
  O  O13  1  0.25000000  0.49401532  0.58882443  1
  O  O14  1  0.75000000  0.00598468  0.08882443  1
  O  O15  1  0.25000000  0.99401532  0.91117557  1
loop_
_geom_bond_atom_site_label_1
_geom_bond_atom_site_label_2
_geom_bond_distance
_geom_bond_site_symmetry_2
Cr0 O15 1.649074 1_555
Cr0 O1 1.652764 1_555
Cr0 O4 1.652764 1_555
Cr0 O10 1.660682 1_556
Cr1 O14 1.649074 1_555
Cr1 O0 1.652764 1_555
Cr1 O5 1.652764 1_555
Cr1 O11 1.660682 1_554
Cr2 O13 1.649074 1_555
Cr2 O6 1.652764 1_555
Cr2 O3 1.652764 1_555
Cr2 O8 1.660682 1_555
Cr3 O12 1.649074 1_555
Cr3 O2 1.652764 1_555
Cr3 O7 1.652764 1_555
Cr3 O9 1.660682 1_555
O0 Tl0 2.798723 1_555
O0 Tl2 2.848143 1_555
O1 Tl1 2.798723 1_455
O1 Tl3 2.848143 1_455
O2 Tl2 2.798723 1_665
O2 Tl0 2.848143 1_655
O3 Tl3 2.798723 1_545
O3 Tl1 2.848143 1_555
O4 Tl1 2.798723 1_555
O4 Tl3 2.848143 1_555
O5 Tl0 2.798723 1_655
O5 Tl2 2.848143 1_655
O6 Tl3 2.798723 1_445
O6 Tl1 2.848143 1_455
O7 Tl2 2.798723 1_565
O7 Tl0 2.848143 1_555
O8 Tl0 2.661576 1_555
O8 Tl2 2.922348 1_555
O9 Tl1 2.661576 1_555
O9 Tl3 2.922348 1_555
O10 Tl2 2.661576 1_565
O10 Tl0 2.922348 1_555
O11 Tl3 2.661576 1_545
O11 Tl1 2.922348 1_555
O12 Tl7 2.612370 1_555
O13 Tl6 2.612370 1_555
O14 Tl5 2.612370 1_545
O15 Tl4 2.612370 1_565
