# generated using pymatgen
data_NbFeSe5
_symmetry_space_group_name_H-M   'P 1'
_cell_length_a   3.47022600
_cell_length_b   9.41480200
_cell_length_c   10.30049106
_cell_angle_alpha   66.29238494
_cell_angle_beta   90.00000000
_cell_angle_gamma   90.00000000
_symmetry_Int_Tables_number   1
_chemical_formula_structural   NbFeSe5
_chemical_formula_sum   'Nb2 Fe2 Se10'
_cell_volume   308.13214707
_cell_formula_units_Z   2
loop_
 _symmetry_equiv_pos_site_id
 _symmetry_equiv_pos_as_xyz
  1  'x, y, z'
loop_
 _atom_site_type_symbol
 _atom_site_label
 _atom_site_symmetry_multiplicity
 _atom_site_fract_x
 _atom_site_fract_y
 _atom_site_fract_z
 _atom_site_occupancy
  Nb  Nb0  1  0.25000000  0.22432600  0.86708600  1
  Nb  Nb1  1  0.75000000  0.77567400  0.13291400  1
  Fe  Fe0  1  0.25000000  0.94839900  0.40263400  1
  Fe  Fe1  1  0.75000000  0.05160100  0.59736600  1
  Se  Se0  1  0.25000000  0.66658000  0.99856800  1
  Se  Se1  1  0.75000000  0.33342000  0.00143200  1
  Se  Se2  1  0.25000000  0.54431000  0.25621000  1
  Se  Se3  1  0.75000000  0.45569000  0.74379000  1
  Se  Se4  1  0.25000000  0.98717600  0.13714900  1
  Se  Se5  1  0.75000000  0.01282400  0.86285100  1
  Se  Se6  1  0.25000000  0.85430800  0.65704800  1
  Se  Se7  1  0.75000000  0.14569200  0.34295200  1
  Se  Se8  1  0.25000000  0.24738400  0.59057900  1
  Se  Se9  1  0.75000000  0.75261600  0.40942100  1
loop_
_geom_bond_atom_site_label_1
_geom_bond_atom_site_label_2
_geom_bond_distance
_geom_bond_site_symmetry_2
Nb0 Se5 2.654702 1_555
Nb0 Se5 2.654702 1_455
Nb0 Se1 2.668985 1_556
Nb0 Se1 2.668985 1_456
Nb0 Se3 2.672776 1_455
Nb0 Se3 2.672776 1_555
Nb0 Se8 2.768020 1_555
Nb0 Se4 2.780088 1_546
Nb1 Se4 2.654702 1_555
Nb1 Se4 2.654702 1_655
Nb1 Se0 2.668985 1_554
Nb1 Se0 2.668985 1_654
Nb1 Se2 2.672776 1_655
Nb1 Se2 2.672776 1_555
Nb1 Se9 2.768020 1_555
Nb1 Se5 2.780088 1_564
Fe0 Se6 2.405296 1_555
Fe0 Se7 2.433210 1_565
Fe0 Se7 2.433210 1_465
Fe0 Se9 2.511868 1_555
Fe0 Se9 2.511868 1_455
Fe0 Se4 2.609338 1_555
Fe1 Se7 2.405296 1_555
Fe1 Se6 2.433210 1_645
Fe1 Se6 2.433210 1_545
Fe1 Se8 2.511868 1_555
Fe1 Se8 2.511868 1_655
Fe1 Se5 2.609338 1_555
Se0 Se2 2.431335 1_556
Se1 Se3 2.431335 1_554
