# generated using pymatgen
data_Yb2MgSe4
_symmetry_space_group_name_H-M   'P 1'
_cell_length_a   11.33737100
_cell_length_b   9.02566600
_cell_length_c   7.46833900
_cell_angle_alpha   90.00000000
_cell_angle_beta   90.00000000
_cell_angle_gamma   90.00000000
_symmetry_Int_Tables_number   1
_chemical_formula_structural   Yb2MgSe4
_chemical_formula_sum   'Yb8 Mg4 Se16'
_cell_volume   764.21514433
_cell_formula_units_Z   4
loop_
 _symmetry_equiv_pos_site_id
 _symmetry_equiv_pos_as_xyz
  1  'x, y, z'
loop_
 _atom_site_type_symbol
 _atom_site_label
 _atom_site_symmetry_multiplicity
 _atom_site_fract_x
 _atom_site_fract_y
 _atom_site_fract_z
 _atom_site_occupancy
  Yb  Yb0  1  0.00000000  0.00000000  0.50000000  1
  Yb  Yb1  1  0.50000000  0.00000000  0.00000000  1
  Yb  Yb2  1  0.50000000  0.50000000  0.00000000  1
  Yb  Yb3  1  0.00000000  0.50000000  0.50000000  1
  Yb  Yb4  1  0.21175500  0.75000000  0.91784400  1
  Yb  Yb5  1  0.78824500  0.25000000  0.08215600  1
  Yb  Yb6  1  0.28824500  0.25000000  0.41784400  1
  Yb  Yb7  1  0.71175500  0.75000000  0.58215600  1
  Mg  Mg0  1  0.11444700  0.25000000  0.94363900  1
  Mg  Mg1  1  0.88555300  0.75000000  0.05636100  1
  Mg  Mg2  1  0.38555300  0.75000000  0.44363900  1
  Mg  Mg3  1  0.61444700  0.25000000  0.55636100  1
  Se  Se0  1  0.20095500  0.05016500  0.74542500  1
  Se  Se1  1  0.79904500  0.94983500  0.25457500  1
  Se  Se2  1  0.29904500  0.94983500  0.24542500  1
  Se  Se3  1  0.70095500  0.05016500  0.75457500  1
  Se  Se4  1  0.70095500  0.44983500  0.75457500  1
  Se  Se5  1  0.29904500  0.55016500  0.24542500  1
  Se  Se6  1  0.79904500  0.55016500  0.25457500  1
  Se  Se7  1  0.20095500  0.44983500  0.74542500  1
  Se  Se8  1  0.07840300  0.75000000  0.25099900  1
  Se  Se9  1  0.92159700  0.25000000  0.74900100  1
  Se  Se10  1  0.42159700  0.25000000  0.75099900  1
  Se  Se11  1  0.57840300  0.75000000  0.24900100  1
  Se  Se12  1  0.04480400  0.25000000  0.26383500  1
  Se  Se13  1  0.95519600  0.75000000  0.73616500  1
  Se  Se14  1  0.45519600  0.75000000  0.76383500  1
  Se  Se15  1  0.54480400  0.25000000  0.23616500  1
loop_
_geom_bond_atom_site_label_1
_geom_bond_atom_site_label_2
_geom_bond_distance
_geom_bond_site_symmetry_2
Mg0 Se12 2.518311 1_556
Mg0 Se0 2.531091 1_555
Mg0 Se7 2.531091 1_555
Mg0 Se9 2.625532 1_455
Mg1 Se13 2.518311 1_554
Mg1 Se6 2.531091 1_555
Mg1 Se1 2.531091 1_555
Mg1 Se8 2.625532 1_655
Mg2 Se14 2.518311 1_555
Mg2 Se2 2.531091 1_555
Mg2 Se5 2.531091 1_555
Mg2 Se11 2.625532 1_555
Mg3 Se15 2.518311 1_555
Mg3 Se4 2.531091 1_555
Mg3 Se3 2.531091 1_555
Mg3 Se10 2.625532 1_555
Se0 Yb0 2.958926 1_555
Se0 Yb4 3.002137 1_545
Se0 Yb6 3.196531 1_555
Se1 Yb0 2.958926 1_665
Se1 Yb5 3.002137 1_565
Se1 Yb7 3.196531 1_555
Se2 Yb1 2.958926 1_565
Se2 Yb6 3.002137 1_565
Se2 Yb4 3.196531 1_554
Se3 Yb1 2.958926 1_556
Se3 Yb7 3.002137 1_545
Se3 Yb5 3.196531 1_556
Se4 Yb2 2.958926 1_556
Se4 Yb7 3.002137 1_555
Se4 Yb5 3.196531 1_556
Se5 Yb2 2.958926 1_555
Se5 Yb6 3.002137 1_555
Se5 Yb4 3.196531 1_554
Se6 Yb3 2.958926 1_655
Se6 Yb5 3.002137 1_555
Se6 Yb7 3.196531 1_555
Se7 Yb3 2.958926 1_555
Se7 Yb4 3.002137 1_555
Se7 Yb6 3.196531 1_555
Se8 Yb4 2.911432 1_554
Se8 Yb0 3.056097 1_565
Se8 Yb3 3.056097 1_555
Se9 Yb5 2.911432 1_556
Se9 Yb3 3.056097 1_655
Se9 Yb0 3.056097 1_655
Se10 Yb6 2.911432 1_555
Se10 Yb2 3.056097 1_556
Se10 Yb1 3.056097 1_556
Se11 Yb7 2.911432 1_555
Se11 Yb2 3.056097 1_555
Se11 Yb1 3.056097 1_565
Se12 Yb3 2.908658 1_555
Se12 Yb0 2.908658 1_555
Se12 Yb6 2.990056 1_555
Se12 Yb5 3.209607 1_455
Se13 Yb3 2.908658 1_655
Se13 Yb0 2.908658 1_665
Se13 Yb7 2.990056 1_555
Se13 Yb4 3.209607 1_655
Se14 Yb2 2.908658 1_556
Se14 Yb1 2.908658 1_566
Se14 Yb4 2.990056 1_555
Se14 Yb7 3.209607 1_555
Se15 Yb2 2.908658 1_555
Se15 Yb1 2.908658 1_555
Se15 Yb5 2.990056 1_555
Se15 Yb6 3.209607 1_555
