# generated using pymatgen
data_Mg14NbZn
_symmetry_space_group_name_H-M   'P 1'
_cell_length_a   6.32183745
_cell_length_b   6.32183695
_cell_length_c   9.95757582
_cell_angle_alpha   90.00000000
_cell_angle_beta   90.00000000
_cell_angle_gamma   120.00000267
_symmetry_Int_Tables_number   1
_chemical_formula_structural   Mg14NbZn
_chemical_formula_sum   'Mg14 Nb1 Zn1'
_cell_volume   344.64410729
_cell_formula_units_Z   1
loop_
 _symmetry_equiv_pos_site_id
 _symmetry_equiv_pos_as_xyz
  1  'x, y, z'
loop_
 _atom_site_type_symbol
 _atom_site_label
 _atom_site_symmetry_multiplicity
 _atom_site_fract_x
 _atom_site_fract_y
 _atom_site_fract_z
 _atom_site_occupancy
  Mg  Mg0  1  0.16586087  0.83292994  0.12500000  1
  Mg  Mg1  1  0.17003161  0.83501530  0.62500000  1
  Mg  Mg2  1  0.66707006  0.33413913  0.12500000  1
  Mg  Mg3  1  0.66498470  0.32996839  0.62500000  1
  Mg  Mg4  1  0.66707006  0.83292994  0.12500000  1
  Mg  Mg5  1  0.66498470  0.83501530  0.62500000  1
  Mg  Mg6  1  0.32766443  0.17233557  0.37609639  1
  Mg  Mg7  1  0.32766443  0.17233557  0.87390361  1
  Mg  Mg8  1  0.32766443  0.65532986  0.37609639  1
  Mg  Mg9  1  0.32766443  0.65532986  0.87390361  1
  Mg  Mg10  1  0.84467014  0.17233557  0.37609639  1
  Mg  Mg11  1  0.84467014  0.17233557  0.87390361  1
  Mg  Mg12  1  0.83333300  0.66666700  0.37716956  1
  Mg  Mg13  1  0.83333300  0.66666700  0.87283044  1
  Nb  Nb0  1  0.16666700  0.33333300  0.62500000  1
  Zn  Zn0  1  0.16666700  0.33333300  0.12500000  1
loop_
_geom_bond_atom_site_label_1
_geom_bond_atom_site_label_2
_geom_bond_distance
_geom_bond_site_symmetry_2
Mg0 Mg12 3.101532 1_455
Mg0 Mg13 3.101532 1_454
Mg0 Mg9 3.115594 1_554
Mg0 Mg8 3.115594 1_555
Mg0 Mg7 3.115600 1_564
Mg0 Mg6 3.115600 1_565
Mg0 Mg2 3.153274 1_455
Mg0 Mg4 3.153274 1_455
Mg0 Zn0 3.160922 1_565
Mg0 Zn0 3.160922 1_555
Mg0 Mg2 3.168563 1_565
Mg0 Mg4 3.168563 1_555
Mg1 Mg13 3.080267 1_455
Mg1 Mg12 3.080267 1_455
Mg1 Mg8 3.091647 1_555
Mg1 Mg9 3.091647 1_555
Mg1 Mg7 3.091653 1_565
Mg1 Mg6 3.091653 1_565
Mg1 Mg3 3.129013 1_565
Mg1 Mg5 3.129013 1_555
Mg1 Nb0 3.160972 1_555
Mg1 Nb0 3.160972 1_565
Mg1 Mg3 3.192824 1_455
Mg1 Mg5 3.192824 1_455
Mg2 Mg7 3.115600 1_554
Mg2 Mg6 3.115600 1_555
Mg2 Mg4 3.153274 1_555
Mg2 Zn0 3.160922 1_555
Mg2 Zn0 3.160922 1_655
Mg2 Mg4 3.168563 1_545
Mg3 Mg6 3.091654 1_555
Mg3 Mg7 3.091654 1_555
Mg3 Mg5 3.129013 1_545
Mg3 Nb0 3.160972 1_655
Mg3 Nb0 3.160972 1_555
Mg3 Mg5 3.192824 1_555
Mg4 Mg9 3.115600 1_554
Mg4 Mg8 3.115600 1_555
Mg4 Zn0 3.160922 1_665
Mg4 Zn0 3.160922 1_555
Mg5 Mg8 3.091653 1_555
Mg5 Mg9 3.091653 1_555
Mg5 Nb0 3.160972 1_555
Mg5 Nb0 3.160972 1_665
Mg6 Nb0 3.041479 1_555
Mg6 Mg8 3.053411 1_555
Mg6 Zn0 3.059298 1_555
Mg6 Mg8 3.268426 1_545
Mg7 Nb0 3.041479 1_555
Mg7 Mg9 3.053411 1_555
Mg7 Zn0 3.059298 1_556
Mg7 Mg9 3.268426 1_545
Mg8 Nb0 3.041485 1_555
Mg8 Zn0 3.059304 1_555
Mg9 Nb0 3.041485 1_555
Mg9 Zn0 3.059304 1_556
Mg10 Nb0 3.041485 1_655
Mg10 Mg8 3.053411 1_655
Mg10 Mg6 3.053411 1_655
Mg10 Zn0 3.059304 1_655
Mg10 Mg3 3.091647 1_555
Mg10 Mg5 3.091653 1_545
Mg10 Mg2 3.115594 1_555
Mg10 Mg4 3.115600 1_545
Mg10 Mg12 3.161546 1_545
Mg10 Mg12 3.161546 1_555
Mg10 Mg8 3.268426 1_545
Mg10 Mg6 3.268426 1_555
Mg11 Nb0 3.041485 1_655
Mg11 Mg9 3.053411 1_655
Mg11 Mg7 3.053411 1_655
Mg11 Zn0 3.059304 1_656
Mg11 Mg3 3.091647 1_555
Mg11 Mg5 3.091653 1_545
Mg11 Mg2 3.115594 1_556
Mg11 Mg4 3.115600 1_546
Mg11 Mg13 3.161546 1_545
Mg11 Mg13 3.161546 1_555
Mg11 Mg9 3.268426 1_545
Mg11 Mg7 3.268426 1_555
Mg12 Mg5 3.080261 1_555
Mg12 Mg3 3.080267 1_555
Mg12 Mg4 3.101526 1_555
Mg12 Mg2 3.101532 1_555
Mg12 Mg6 3.161546 1_665
Mg12 Mg6 3.161546 1_555
Mg12 Mg8 3.161546 1_555
Mg12 Mg8 3.161546 1_655
Mg13 Mg5 3.080261 1_555
Mg13 Mg3 3.080267 1_555
Mg13 Mg4 3.101526 1_556
Mg13 Mg2 3.101532 1_556
Mg13 Mg7 3.161546 1_665
Mg13 Mg7 3.161546 1_555
Mg13 Mg9 3.161546 1_555
Mg13 Mg9 3.161546 1_655
