# generated using pymatgen
data_Lu5(In2Pd)2
_symmetry_space_group_name_H-M   'P 1'
_cell_length_a   7.11174200
_cell_length_b   16.09324400
_cell_length_c   36.04226000
_cell_angle_alpha   90.00000000
_cell_angle_beta   90.00000000
_cell_angle_gamma   90.00000000
_symmetry_Int_Tables_number   1
_chemical_formula_structural   Lu5(In2Pd)2
_chemical_formula_sum   'Lu80 In64 Pd32'
_cell_volume   4125.07267299
_cell_formula_units_Z   16
loop_
 _symmetry_equiv_pos_site_id
 _symmetry_equiv_pos_as_xyz
  1  'x, y, z'
loop_
 _atom_site_type_symbol
 _atom_site_label
 _atom_site_symmetry_multiplicity
 _atom_site_fract_x
 _atom_site_fract_y
 _atom_site_fract_z
 _atom_site_occupancy
  Lu  Lu0_0  1  0.00000000  0.25000000  0.25000000  1
  Lu  Lu0_1  1  0.00000000  0.25000000  0.75000000  1
  Lu  Lu0_2  1  0.00000000  0.75000000  0.25000000  1
  Lu  Lu0_3  1  0.00000000  0.75000000  0.75000000  1
  Lu  Lu0_4  1  0.50000000  0.25000000  0.25000000  1
  Lu  Lu0_5  1  0.50000000  0.25000000  0.75000000  1
  Lu  Lu0_6  1  0.50000000  0.75000000  0.25000000  1
  Lu  Lu0_7  1  0.50000000  0.75000000  0.75000000  1
  Lu  Lu1_0  1  0.00000000  0.00000000  0.00000000  1
  Lu  Lu1_1  1  0.00000000  0.00000000  0.50000000  1
  Lu  Lu1_2  1  0.00000000  0.50000000  0.00000000  1
  Lu  Lu1_3  1  0.00000000  0.50000000  0.50000000  1
  Lu  Lu1_4  1  0.50000000  0.00000000  0.00000000  1
  Lu  Lu1_5  1  0.50000000  0.00000000  0.50000000  1
  Lu  Lu1_6  1  0.50000000  0.50000000  0.00000000  1
  Lu  Lu1_7  1  0.50000000  0.50000000  0.50000000  1
  Lu  Lu2_0  1  0.00000000  0.36906850  0.13985100  1
  Lu  Lu2_1  1  0.00000000  0.36906850  0.63985100  1
  Lu  Lu2_2  1  0.00000000  0.86906850  0.13985100  1
  Lu  Lu2_3  1  0.00000000  0.86906850  0.63985100  1
  Lu  Lu2_4  1  0.50000000  0.36906850  0.13985100  1
  Lu  Lu2_5  1  0.50000000  0.36906850  0.63985100  1
  Lu  Lu2_6  1  0.50000000  0.86906850  0.13985100  1
  Lu  Lu2_7  1  0.50000000  0.86906850  0.63985100  1
  Lu  Lu3_0  1  0.00000000  0.13093150  0.36014900  1
  Lu  Lu3_1  1  0.00000000  0.13093150  0.86014900  1
  Lu  Lu3_2  1  0.00000000  0.63093150  0.36014900  1
  Lu  Lu3_3  1  0.00000000  0.63093150  0.86014900  1
  Lu  Lu3_4  1  0.50000000  0.13093150  0.36014900  1
  Lu  Lu3_5  1  0.50000000  0.13093150  0.86014900  1
  Lu  Lu3_6  1  0.50000000  0.63093150  0.36014900  1
  Lu  Lu3_7  1  0.50000000  0.63093150  0.86014900  1
  Lu  Lu4_0  1  0.00000000  0.38093150  0.38985100  1
  Lu  Lu4_1  1  0.00000000  0.38093150  0.88985100  1
  Lu  Lu4_2  1  0.00000000  0.88093150  0.38985100  1
  Lu  Lu4_3  1  0.00000000  0.88093150  0.88985100  1
  Lu  Lu4_4  1  0.50000000  0.38093150  0.38985100  1
  Lu  Lu4_5  1  0.50000000  0.38093150  0.88985100  1
  Lu  Lu4_6  1  0.50000000  0.88093150  0.38985100  1
  Lu  Lu4_7  1  0.50000000  0.88093150  0.88985100  1
  Lu  Lu5_0  1  0.00000000  0.11906850  0.11014900  1
  Lu  Lu5_1  1  0.00000000  0.11906850  0.61014900  1
  Lu  Lu5_2  1  0.00000000  0.61906850  0.11014900  1
  Lu  Lu5_3  1  0.00000000  0.61906850  0.61014900  1
  Lu  Lu5_4  1  0.50000000  0.11906850  0.11014900  1
  Lu  Lu5_5  1  0.50000000  0.11906850  0.61014900  1
  Lu  Lu5_6  1  0.50000000  0.61906850  0.11014900  1
  Lu  Lu5_7  1  0.50000000  0.61906850  0.61014900  1
  Lu  Lu6_0  1  0.00000000  0.30543050  0.04139200  1
  Lu  Lu6_1  1  0.00000000  0.30543050  0.54139200  1
  Lu  Lu6_2  1  0.00000000  0.80543050  0.04139200  1
  Lu  Lu6_3  1  0.00000000  0.80543050  0.54139200  1
  Lu  Lu6_4  1  0.50000000  0.30543050  0.04139200  1
  Lu  Lu6_5  1  0.50000000  0.30543050  0.54139200  1
  Lu  Lu6_6  1  0.50000000  0.80543050  0.04139200  1
  Lu  Lu6_7  1  0.50000000  0.80543050  0.54139200  1
  Lu  Lu7_0  1  0.00000000  0.19456950  0.45860800  1
  Lu  Lu7_1  1  0.00000000  0.19456950  0.95860800  1
  Lu  Lu7_2  1  0.00000000  0.69456950  0.45860800  1
  Lu  Lu7_3  1  0.00000000  0.69456950  0.95860800  1
  Lu  Lu7_4  1  0.50000000  0.19456950  0.45860800  1
  Lu  Lu7_5  1  0.50000000  0.19456950  0.95860800  1
  Lu  Lu7_6  1  0.50000000  0.69456950  0.45860800  1
  Lu  Lu7_7  1  0.50000000  0.69456950  0.95860800  1
  Lu  Lu8_0  1  0.00000000  0.44456950  0.29139200  1
  Lu  Lu8_1  1  0.00000000  0.44456950  0.79139200  1
  Lu  Lu8_2  1  0.00000000  0.94456950  0.29139200  1
  Lu  Lu8_3  1  0.00000000  0.94456950  0.79139200  1
  Lu  Lu8_4  1  0.50000000  0.44456950  0.29139200  1
  Lu  Lu8_5  1  0.50000000  0.44456950  0.79139200  1
  Lu  Lu8_6  1  0.50000000  0.94456950  0.29139200  1
  Lu  Lu8_7  1  0.50000000  0.94456950  0.79139200  1
  Lu  Lu9_0  1  0.00000000  0.05543050  0.20860800  1
  Lu  Lu9_1  1  0.00000000  0.05543050  0.70860800  1
  Lu  Lu9_2  1  0.00000000  0.55543050  0.20860800  1
  Lu  Lu9_3  1  0.00000000  0.55543050  0.70860800  1
  Lu  Lu9_4  1  0.50000000  0.05543050  0.20860800  1
  Lu  Lu9_5  1  0.50000000  0.05543050  0.70860800  1
  Lu  Lu9_6  1  0.50000000  0.55543050  0.20860800  1
  Lu  Lu9_7  1  0.50000000  0.55543050  0.70860800  1
  In  In0_0  1  0.25000000  0.35709650  0.46586400  1
  In  In0_1  1  0.25000000  0.35709650  0.96586400  1
  In  In0_2  1  0.25000000  0.85709650  0.46586400  1
  In  In0_3  1  0.25000000  0.85709650  0.96586400  1
  In  In0_4  1  0.75000000  0.35709650  0.46586400  1
  In  In0_5  1  0.75000000  0.35709650  0.96586400  1
  In  In0_6  1  0.75000000  0.85709650  0.46586400  1
  In  In0_7  1  0.75000000  0.85709650  0.96586400  1
  In  In1_0  1  0.25000000  0.14290350  0.03413600  1
  In  In1_1  1  0.25000000  0.14290350  0.53413600  1
  In  In1_2  1  0.25000000  0.64290350  0.03413600  1
  In  In1_3  1  0.25000000  0.64290350  0.53413600  1
  In  In1_4  1  0.75000000  0.14290350  0.03413600  1
  In  In1_5  1  0.75000000  0.14290350  0.53413600  1
  In  In1_6  1  0.75000000  0.64290350  0.03413600  1
  In  In1_7  1  0.75000000  0.64290350  0.53413600  1
  In  In2_0  1  0.25000000  0.39290350  0.21586400  1
  In  In2_1  1  0.25000000  0.39290350  0.71586400  1
  In  In2_2  1  0.25000000  0.89290350  0.21586400  1
  In  In2_3  1  0.25000000  0.89290350  0.71586400  1
  In  In2_4  1  0.75000000  0.39290350  0.21586400  1
  In  In2_5  1  0.75000000  0.39290350  0.71586400  1
  In  In2_6  1  0.75000000  0.89290350  0.21586400  1
  In  In2_7  1  0.75000000  0.89290350  0.71586400  1
  In  In3_0  1  0.25000000  0.10709650  0.28413600  1
  In  In3_1  1  0.25000000  0.10709650  0.78413600  1
  In  In3_2  1  0.25000000  0.60709650  0.28413600  1
  In  In3_3  1  0.25000000  0.60709650  0.78413600  1
  In  In3_4  1  0.75000000  0.10709650  0.28413600  1
  In  In3_5  1  0.75000000  0.10709650  0.78413600  1
  In  In3_6  1  0.75000000  0.60709650  0.28413600  1
  In  In3_7  1  0.75000000  0.60709650  0.78413600  1
  In  In4_0  1  0.25000000  0.29219850  0.32425500  1
  In  In4_1  1  0.25000000  0.29219850  0.82425500  1
  In  In4_2  1  0.25000000  0.79219850  0.32425500  1
  In  In4_3  1  0.25000000  0.79219850  0.82425500  1
  In  In4_4  1  0.75000000  0.29219850  0.32425500  1
  In  In4_5  1  0.75000000  0.29219850  0.82425500  1
  In  In4_6  1  0.75000000  0.79219850  0.32425500  1
  In  In4_7  1  0.75000000  0.79219850  0.82425500  1
  In  In5_0  1  0.25000000  0.20780150  0.17574500  1
  In  In5_1  1  0.25000000  0.20780150  0.67574500  1
  In  In5_2  1  0.25000000  0.70780150  0.17574500  1
  In  In5_3  1  0.25000000  0.70780150  0.67574500  1
  In  In5_4  1  0.75000000  0.20780150  0.17574500  1
  In  In5_5  1  0.75000000  0.20780150  0.67574500  1
  In  In5_6  1  0.75000000  0.70780150  0.17574500  1
  In  In5_7  1  0.75000000  0.70780150  0.67574500  1
  In  In6_0  1  0.25000000  0.45780150  0.07425500  1
  In  In6_1  1  0.25000000  0.45780150  0.57425500  1
  In  In6_2  1  0.25000000  0.95780150  0.07425500  1
  In  In6_3  1  0.25000000  0.95780150  0.57425500  1
  In  In6_4  1  0.75000000  0.45780150  0.07425500  1
  In  In6_5  1  0.75000000  0.45780150  0.57425500  1
  In  In6_6  1  0.75000000  0.95780150  0.07425500  1
  In  In6_7  1  0.75000000  0.95780150  0.57425500  1
  In  In7_0  1  0.25000000  0.04219850  0.42574500  1
  In  In7_1  1  0.25000000  0.04219850  0.92574500  1
  In  In7_2  1  0.25000000  0.54219850  0.42574500  1
  In  In7_3  1  0.25000000  0.54219850  0.92574500  1
  In  In7_4  1  0.75000000  0.04219850  0.42574500  1
  In  In7_5  1  0.75000000  0.04219850  0.92574500  1
  In  In7_6  1  0.75000000  0.54219850  0.42574500  1
  In  In7_7  1  0.75000000  0.54219850  0.92574500  1
  Pd  Pd0_0  1  0.25000000  0.26100200  0.09826600  1
  Pd  Pd0_1  1  0.25000000  0.26100200  0.59826600  1
  Pd  Pd0_2  1  0.25000000  0.76100200  0.09826600  1
  Pd  Pd0_3  1  0.25000000  0.76100200  0.59826600  1
  Pd  Pd0_4  1  0.75000000  0.26100200  0.09826600  1
  Pd  Pd0_5  1  0.75000000  0.26100200  0.59826600  1
  Pd  Pd0_6  1  0.75000000  0.76100200  0.09826600  1
  Pd  Pd0_7  1  0.75000000  0.76100200  0.59826600  1
  Pd  Pd1_0  1  0.25000000  0.23899800  0.40173400  1
  Pd  Pd1_1  1  0.25000000  0.23899800  0.90173400  1
  Pd  Pd1_2  1  0.25000000  0.73899800  0.40173400  1
  Pd  Pd1_3  1  0.25000000  0.73899800  0.90173400  1
  Pd  Pd1_4  1  0.75000000  0.23899800  0.40173400  1
  Pd  Pd1_5  1  0.75000000  0.23899800  0.90173400  1
  Pd  Pd1_6  1  0.75000000  0.73899800  0.40173400  1
  Pd  Pd1_7  1  0.75000000  0.73899800  0.90173400  1
  Pd  Pd2_0  1  0.25000000  0.48899800  0.34826600  1
  Pd  Pd2_1  1  0.25000000  0.48899800  0.84826600  1
  Pd  Pd2_2  1  0.25000000  0.98899800  0.34826600  1
  Pd  Pd2_3  1  0.25000000  0.98899800  0.84826600  1
  Pd  Pd2_4  1  0.75000000  0.48899800  0.34826600  1
  Pd  Pd2_5  1  0.75000000  0.48899800  0.84826600  1
  Pd  Pd2_6  1  0.75000000  0.98899800  0.34826600  1
  Pd  Pd2_7  1  0.75000000  0.98899800  0.84826600  1
  Pd  Pd3_0  1  0.25000000  0.01100200  0.15173400  1
  Pd  Pd3_1  1  0.25000000  0.01100200  0.65173400  1
  Pd  Pd3_2  1  0.25000000  0.51100200  0.15173400  1
  Pd  Pd3_3  1  0.25000000  0.51100200  0.65173400  1
  Pd  Pd3_4  1  0.75000000  0.01100200  0.15173400  1
  Pd  Pd3_5  1  0.75000000  0.01100200  0.65173400  1
  Pd  Pd3_6  1  0.75000000  0.51100200  0.15173400  1
  Pd  Pd3_7  1  0.75000000  0.51100200  0.65173400  1
loop_
_geom_bond_atom_site_label_1
_geom_bond_atom_site_label_2
_geom_bond_distance
_geom_bond_site_symmetry_2
Lu0_0 Lu8_0 3.468487 1_555
Lu0_0 Lu9_0 3.468487 1_555
Lu0_0 Lu0_4 3.555871 1_555
Lu0_0 Lu0_4 3.555871 1_455
Lu0_1 Lu9_1 3.468487 1_555
Lu0_1 Lu8_1 3.468487 1_555
Lu0_1 Lu0_5 3.555871 1_455
Lu0_1 Lu0_5 3.555871 1_555
Lu0_2 Lu9_2 3.468487 1_555
Lu0_2 Lu8_2 3.468487 1_555
Lu0_2 Lu0_6 3.555871 1_555
Lu0_2 Lu0_6 3.555871 1_455
Lu0_3 Lu9_3 3.468487 1_555
Lu0_3 Lu8_3 3.468487 1_555
Lu0_3 Lu0_7 3.555871 1_555
Lu0_3 Lu0_7 3.555871 1_455
Lu0_4 Lu9_4 3.468487 1_555
Lu0_4 Lu8_4 3.468487 1_555
Lu0_5 Lu8_5 3.468487 1_555
Lu0_5 Lu9_5 3.468487 1_555
Lu0_6 Lu9_6 3.468487 1_555
Lu0_6 Lu8_6 3.468487 1_555
Lu0_7 Lu9_7 3.468487 1_555
Lu0_7 Lu8_7 3.468487 1_555
Lu1_0 Lu7_1 3.468487 1_554
Lu1_0 Lu6_2 3.468487 1_545
Lu1_0 Lu1_4 3.555871 1_555
Lu1_0 Lu1_4 3.555871 1_455
Lu1_1 Lu7_0 3.468487 1_555
Lu1_1 Lu6_3 3.468487 1_545
Lu1_1 Lu1_5 3.555871 1_555
Lu1_1 Lu1_5 3.555871 1_455
Lu1_2 Lu7_3 3.468487 1_554
Lu1_2 Lu6_0 3.468487 1_555
Lu1_2 Lu1_6 3.555871 1_455
Lu1_2 Lu1_6 3.555871 1_555
Lu1_3 Lu7_2 3.468487 1_555
Lu1_3 Lu6_1 3.468487 1_555
Lu1_3 Lu1_7 3.555871 1_455
Lu1_3 Lu1_7 3.555871 1_555
Lu1_4 Lu7_5 3.468487 1_554
Lu1_4 Lu6_6 3.468487 1_545
Lu1_5 Lu7_4 3.468487 1_555
Lu1_5 Lu6_7 3.468487 1_545
Lu1_6 Lu7_7 3.468487 1_554
Lu1_6 Lu6_4 3.468487 1_555
Lu1_7 Lu7_6 3.468487 1_555
Lu1_7 Lu6_5 3.468487 1_555
Lu2_0 Pd0_4 2.903811 1_455
Lu2_0 Pd0_0 2.903811 1_555
Lu2_0 Pd3_6 2.926076 1_455
Lu2_0 Pd3_2 2.926076 1_555
Lu2_1 Pd0_5 2.903811 1_455
Lu2_1 Pd0_1 2.903811 1_555
Lu2_1 Pd3_7 2.926076 1_455
Lu2_1 Pd3_3 2.926076 1_555
Lu2_2 Pd0_6 2.903811 1_455
Lu2_2 Pd0_2 2.903811 1_555
Lu2_2 Pd3_4 2.926076 1_465
Lu2_2 Pd3_0 2.926076 1_565
Lu2_3 Pd0_7 2.903811 1_455
Lu2_3 Pd0_3 2.903811 1_555
Lu2_3 Pd3_5 2.926076 1_465
Lu2_3 Pd3_1 2.926076 1_565
Lu2_4 Pd0_0 2.903811 1_555
Lu2_4 Pd0_4 2.903811 1_555
Lu2_4 Pd3_2 2.926076 1_555
Lu2_4 Pd3_6 2.926076 1_555
Lu2_5 Pd0_1 2.903811 1_555
Lu2_5 Pd0_5 2.903811 1_555
Lu2_5 Pd3_3 2.926076 1_555
Lu2_5 Pd3_7 2.926076 1_555
Lu2_6 Pd0_2 2.903811 1_555
Lu2_6 Pd0_6 2.903811 1_555
Lu2_6 Pd3_0 2.926076 1_565
Lu2_6 Pd3_4 2.926076 1_565
Lu2_7 Pd0_3 2.903811 1_555
Lu2_7 Pd0_7 2.903811 1_555
Lu2_7 Pd3_1 2.926076 1_565
Lu2_7 Pd3_5 2.926076 1_565
Lu3_0 Pd1_4 2.903811 1_455
Lu3_0 Pd1_0 2.903811 1_555
Lu3_0 Pd2_6 2.926076 1_445
Lu3_0 Pd2_2 2.926076 1_545
Lu3_1 Pd1_5 2.903811 1_455
Lu3_1 Pd1_1 2.903811 1_555
Lu3_1 Pd2_7 2.926076 1_445
Lu3_1 Pd2_3 2.926076 1_545
Lu3_2 Pd1_6 2.903811 1_455
Lu3_2 Pd1_2 2.903811 1_555
Lu3_2 Pd2_4 2.926076 1_455
Lu3_2 Pd2_0 2.926076 1_555
Lu3_3 Pd1_7 2.903811 1_455
Lu3_3 Pd1_3 2.903811 1_555
Lu3_3 Pd2_5 2.926076 1_455
Lu3_3 Pd2_1 2.926076 1_555
Lu3_4 Pd1_0 2.903811 1_555
Lu3_4 Pd1_4 2.903811 1_555
Lu3_4 Pd2_2 2.926076 1_545
Lu3_4 Pd2_6 2.926076 1_545
Lu3_5 Pd1_1 2.903811 1_555
Lu3_5 Pd1_5 2.903811 1_555
Lu3_5 Pd2_3 2.926076 1_545
Lu3_5 Pd2_7 2.926076 1_545
Lu3_6 Pd1_2 2.903811 1_555
Lu3_6 Pd1_6 2.903811 1_555
Lu3_6 Pd2_0 2.926076 1_555
Lu3_6 Pd2_4 2.926076 1_555
Lu3_7 Pd1_3 2.903811 1_555
Lu3_7 Pd1_7 2.903811 1_555
Lu3_7 Pd2_1 2.926076 1_555
Lu3_7 Pd2_5 2.926076 1_555
Lu4_0 Pd2_4 2.903811 1_455
Lu4_0 Pd2_0 2.903811 1_555
Lu4_0 Pd1_4 2.926076 1_455
Lu4_0 Pd1_0 2.926076 1_555
Lu4_1 Pd2_5 2.903811 1_455
Lu4_1 Pd2_1 2.903811 1_555
Lu4_1 Pd1_5 2.926076 1_455
Lu4_1 Pd1_1 2.926076 1_555
Lu4_2 Pd2_6 2.903811 1_455
Lu4_2 Pd2_2 2.903811 1_555
Lu4_2 Pd1_6 2.926076 1_455
Lu4_2 Pd1_2 2.926076 1_555
Lu4_3 Pd2_7 2.903811 1_455
Lu4_3 Pd2_3 2.903811 1_555
Lu4_3 Pd1_7 2.926076 1_455
Lu4_3 Pd1_3 2.926076 1_555
Lu4_4 Pd2_0 2.903811 1_555
Lu4_4 Pd2_4 2.903811 1_555
Lu4_4 Pd1_0 2.926076 1_555
Lu4_4 Pd1_4 2.926076 1_555
Lu4_5 Pd2_5 2.903811 1_555
Lu4_5 Pd2_1 2.903811 1_555
Lu4_5 Pd1_1 2.926076 1_555
Lu4_5 Pd1_5 2.926076 1_555
Lu4_6 Pd2_2 2.903811 1_555
Lu4_6 Pd2_6 2.903811 1_555
Lu4_6 Pd1_2 2.926076 1_555
Lu4_6 Pd1_6 2.926076 1_555
Lu4_7 Pd2_3 2.903811 1_555
Lu4_7 Pd2_7 2.903811 1_555
Lu4_7 Pd1_3 2.926076 1_555
Lu4_7 Pd1_7 2.926076 1_555
Lu5_0 Pd3_4 2.903811 1_455
Lu5_0 Pd3_0 2.903811 1_555
Lu5_0 Pd0_4 2.926076 1_455
Lu5_0 Pd0_0 2.926076 1_555
Lu5_1 Pd3_5 2.903811 1_455
Lu5_1 Pd3_1 2.903811 1_555
Lu5_1 Pd0_5 2.926076 1_455
Lu5_1 Pd0_1 2.926076 1_555
Lu5_2 Pd3_6 2.903811 1_455
Lu5_2 Pd3_2 2.903811 1_555
Lu5_2 Pd0_6 2.926076 1_455
Lu5_2 Pd0_2 2.926076 1_555
Lu5_3 Pd3_7 2.903811 1_455
Lu5_3 Pd3_3 2.903811 1_555
Lu5_3 Pd0_7 2.926076 1_455
Lu5_3 Pd0_3 2.926076 1_555
Lu5_4 Pd3_0 2.903811 1_555
Lu5_4 Pd3_4 2.903811 1_555
Lu5_4 Pd0_0 2.926076 1_555
Lu5_4 Pd0_4 2.926076 1_555
Lu5_5 Pd3_1 2.903811 1_555
Lu5_5 Pd3_5 2.903811 1_555
Lu5_5 Pd0_1 2.926076 1_555
Lu5_5 Pd0_5 2.926076 1_555
Lu5_6 Pd3_2 2.903811 1_555
Lu5_6 Pd3_6 2.903811 1_555
Lu5_6 Pd0_2 2.926076 1_555
Lu5_6 Pd0_6 2.926076 1_555
Lu5_7 Pd3_3 2.903811 1_555
Lu5_7 Pd3_7 2.903811 1_555
Lu5_7 Pd0_3 2.926076 1_555
Lu5_7 Pd0_7 2.926076 1_555
Lu6_0 Pd0_4 2.806107 1_455
Lu6_0 Pd0_0 2.806107 1_555
Lu6_1 Pd0_5 2.806107 1_455
Lu6_1 Pd0_1 2.806107 1_555
Lu6_2 Pd0_6 2.806107 1_455
Lu6_2 Pd0_2 2.806107 1_555
Lu6_3 Pd0_7 2.806107 1_455
Lu6_3 Pd0_3 2.806107 1_555
Lu6_4 Pd0_0 2.806107 1_555
Lu6_4 Pd0_4 2.806107 1_555
Lu6_5 Pd0_1 2.806107 1_555
Lu6_5 Pd0_5 2.806107 1_555
Lu6_6 Pd0_2 2.806107 1_555
Lu6_6 Pd0_6 2.806107 1_555
Lu6_7 Pd0_3 2.806107 1_555
Lu6_7 Pd0_7 2.806107 1_555
Lu7_0 Pd1_4 2.806107 1_455
Lu7_0 Pd1_0 2.806107 1_555
Lu7_1 Pd1_5 2.806107 1_455
Lu7_1 Pd1_1 2.806107 1_555
Lu7_2 Pd1_6 2.806107 1_455
Lu7_2 Pd1_2 2.806107 1_555
Lu7_3 Pd1_7 2.806107 1_455
Lu7_3 Pd1_3 2.806107 1_555
Lu7_4 Pd1_0 2.806107 1_555
Lu7_4 Pd1_4 2.806107 1_555
Lu7_5 Pd1_1 2.806107 1_555
Lu7_5 Pd1_5 2.806107 1_555
Lu7_6 Pd1_2 2.806107 1_555
Lu7_6 Pd1_6 2.806107 1_555
Lu7_7 Pd1_3 2.806107 1_555
Lu7_7 Pd1_7 2.806107 1_555
Lu8_0 Pd2_4 2.806107 1_455
Lu8_0 Pd2_0 2.806107 1_555
Lu8_1 Pd2_5 2.806107 1_455
Lu8_1 Pd2_1 2.806107 1_555
Lu8_2 Pd2_6 2.806107 1_455
Lu8_2 Pd2_2 2.806107 1_555
Lu8_3 Pd2_7 2.806107 1_455
Lu8_3 Pd2_3 2.806107 1_555
Lu8_4 Pd2_0 2.806107 1_555
Lu8_4 Pd2_4 2.806107 1_555
Lu8_5 Pd2_1 2.806107 1_555
Lu8_5 Pd2_5 2.806107 1_555
Lu8_6 Pd2_2 2.806107 1_555
Lu8_6 Pd2_6 2.806107 1_555
Lu8_7 Pd2_3 2.806107 1_555
Lu8_7 Pd2_7 2.806107 1_555
Lu9_0 Pd3_4 2.806107 1_455
Lu9_0 Pd3_0 2.806107 1_555
Lu9_1 Pd3_5 2.806107 1_455
Lu9_1 Pd3_1 2.806107 1_555
Lu9_2 Pd3_6 2.806107 1_455
Lu9_2 Pd3_2 2.806107 1_555
Lu9_3 Pd3_7 2.806107 1_455
Lu9_3 Pd3_3 2.806107 1_555
Lu9_4 Pd3_0 2.806107 1_555
Lu9_4 Pd3_4 2.806107 1_555
Lu9_5 Pd3_1 2.806107 1_555
Lu9_5 Pd3_5 2.806107 1_555
Lu9_6 Pd3_2 2.806107 1_555
Lu9_6 Pd3_6 2.806107 1_555
Lu9_7 Pd3_3 2.806107 1_555
Lu9_7 Pd3_7 2.806107 1_555
In0_0 Pd1_0 2.992450 1_555
In0_0 Lu1_7 3.156546 1_555
In0_0 Lu1_3 3.156546 1_555
In0_0 Lu7_0 3.173443 1_555
In0_0 Lu7_4 3.173443 1_555
In0_0 Lu4_0 3.288471 1_555
In0_0 Lu4_4 3.288471 1_555
In0_0 In7_2 3.311292 1_555
In0_0 Lu6_1 3.356006 1_555
In0_0 Lu6_5 3.356006 1_555
In0_1 Pd1_1 2.992450 1_555
In0_1 Lu1_6 3.156546 1_556
In0_1 Lu1_2 3.156546 1_556
In0_1 Lu7_5 3.173443 1_555
In0_1 Lu7_1 3.173443 1_555
In0_1 Lu4_1 3.288471 1_555
In0_1 Lu4_5 3.288471 1_555
In0_1 In7_3 3.311292 1_555
In0_1 Lu6_0 3.356006 1_556
In0_1 Lu6_4 3.356006 1_556
In0_2 Pd1_2 2.992450 1_555
In0_2 Lu1_1 3.156546 1_565
In0_2 Lu1_5 3.156546 1_565
In0_2 Lu7_2 3.173443 1_555
In0_2 Lu7_6 3.173443 1_555
In0_2 Lu4_2 3.288471 1_555
In0_2 Lu4_6 3.288471 1_555
In0_2 In7_0 3.311292 1_565
In0_2 Lu6_7 3.356006 1_555
In0_2 Lu6_3 3.356006 1_555
In0_3 Pd1_3 2.992450 1_555
In0_3 Lu1_0 3.156546 1_566
In0_3 Lu1_4 3.156546 1_566
In0_3 Lu7_3 3.173443 1_555
In0_3 Lu7_7 3.173443 1_555
In0_3 Lu4_7 3.288471 1_555
In0_3 Lu4_3 3.288471 1_555
In0_3 In7_1 3.311292 1_565
In0_3 Lu6_2 3.356006 1_556
In0_3 Lu6_6 3.356006 1_556
In0_4 Pd1_4 2.992450 1_555
In0_4 Lu1_3 3.156546 1_655
In0_4 Lu1_7 3.156546 1_555
In0_4 Lu7_0 3.173443 1_655
In0_4 Lu7_4 3.173443 1_555
In0_4 Lu4_0 3.288471 1_655
In0_4 Lu4_4 3.288471 1_555
In0_4 In7_6 3.311292 1_555
In0_4 Lu6_1 3.356006 1_655
In0_4 Lu6_5 3.356006 1_555
In0_5 Pd1_5 2.992450 1_555
In0_5 Lu1_2 3.156546 1_656
In0_5 Lu1_6 3.156546 1_556
In0_5 Lu7_1 3.173443 1_655
In0_5 Lu7_5 3.173443 1_555
In0_5 Lu4_1 3.288471 1_655
In0_5 Lu4_5 3.288471 1_555
In0_5 In7_7 3.311292 1_555
In0_5 Lu6_0 3.356006 1_656
In0_5 Lu6_4 3.356006 1_556
In0_6 Pd1_6 2.992450 1_555
In0_6 Lu1_1 3.156546 1_665
In0_6 Lu1_5 3.156546 1_565
In0_6 Lu7_2 3.173443 1_655
In0_6 Lu7_6 3.173443 1_555
In0_6 Lu4_2 3.288471 1_655
In0_6 Lu4_6 3.288471 1_555
In0_6 In7_4 3.311292 1_565
In0_6 Lu6_3 3.356006 1_655
In0_6 Lu6_7 3.356006 1_555
In0_7 Pd1_7 2.992450 1_555
In0_7 Lu1_0 3.156546 1_666
In0_7 Lu1_4 3.156546 1_566
In0_7 Lu7_3 3.173443 1_655
In0_7 Lu7_7 3.173443 1_555
In0_7 Lu4_3 3.288471 1_655
In0_7 Lu4_7 3.288471 1_555
In0_7 In7_5 3.311292 1_565
In0_7 Lu6_2 3.356006 1_656
In0_7 Lu6_6 3.356006 1_556
In1_0 Pd0_0 2.992450 1_555
In1_0 Lu1_0 3.156546 1_555
In1_0 Lu1_4 3.156546 1_555
In1_0 Lu6_4 3.173443 1_555
In1_0 Lu6_0 3.173443 1_555
In1_0 Lu5_0 3.288471 1_555
In1_0 Lu5_4 3.288471 1_555
In1_0 In6_2 3.311292 1_545
In1_0 Lu7_5 3.356006 1_554
In1_0 Lu7_1 3.356006 1_554
In1_1 Pd0_1 2.992450 1_555
In1_1 Lu1_1 3.156546 1_555
In1_1 Lu1_5 3.156546 1_555
In1_1 Lu6_1 3.173443 1_555
In1_1 Lu6_5 3.173443 1_555
In1_1 Lu5_5 3.288471 1_555
In1_1 Lu5_1 3.288471 1_555
In1_1 In6_3 3.311292 1_545
In1_1 Lu7_4 3.356006 1_555
In1_1 Lu7_0 3.356006 1_555
In1_2 Pd0_2 2.992450 1_555
In1_2 Lu1_2 3.156546 1_555
In1_2 Lu1_6 3.156546 1_555
In1_2 Lu6_6 3.173443 1_555
In1_2 Lu6_2 3.173443 1_555
In1_2 Lu5_2 3.288471 1_555
In1_2 Lu5_6 3.288471 1_555
In1_2 In6_0 3.311292 1_555
In1_2 Lu7_7 3.356006 1_554
In1_2 Lu7_3 3.356006 1_554
In1_3 Pd0_3 2.992450 1_555
In1_3 Lu1_7 3.156546 1_555
In1_3 Lu1_3 3.156546 1_555
In1_3 Lu6_7 3.173443 1_555
In1_3 Lu6_3 3.173443 1_555
In1_3 Lu5_7 3.288471 1_555
In1_3 Lu5_3 3.288471 1_555
In1_3 In6_1 3.311292 1_555
In1_3 Lu7_2 3.356006 1_555
In1_3 Lu7_6 3.356006 1_555
In1_4 Pd0_4 2.992450 1_555
In1_4 Lu1_0 3.156546 1_655
In1_4 Lu1_4 3.156546 1_555
In1_4 Lu6_0 3.173443 1_655
In1_4 Lu6_4 3.173443 1_555
In1_4 Lu5_0 3.288471 1_655
In1_4 Lu5_4 3.288471 1_555
In1_4 In6_6 3.311292 1_545
In1_4 Lu7_1 3.356006 1_654
In1_4 Lu7_5 3.356006 1_554
In1_5 Pd0_5 2.992450 1_555
In1_5 Lu1_1 3.156546 1_655
In1_5 Lu1_5 3.156546 1_555
In1_5 Lu6_1 3.173443 1_655
In1_5 Lu6_5 3.173443 1_555
In1_5 Lu5_1 3.288471 1_655
In1_5 Lu5_5 3.288471 1_555
In1_5 In6_7 3.311292 1_545
In1_5 Lu7_0 3.356006 1_655
In1_5 Lu7_4 3.356006 1_555
In1_6 Pd0_6 2.992450 1_555
In1_6 Lu1_2 3.156546 1_655
In1_6 Lu1_6 3.156546 1_555
In1_6 Lu6_2 3.173443 1_655
In1_6 Lu6_6 3.173443 1_555
In1_6 Lu5_2 3.288471 1_655
In1_6 Lu5_6 3.288471 1_555
In1_6 In6_4 3.311292 1_555
In1_6 Lu7_3 3.356006 1_654
In1_6 Lu7_7 3.356006 1_554
In1_7 Pd0_7 2.992450 1_555
In1_7 Lu1_3 3.156546 1_655
In1_7 Lu1_7 3.156546 1_555
In1_7 Lu6_3 3.173443 1_655
In1_7 Lu6_7 3.173443 1_555
In1_7 Lu5_3 3.288471 1_655
In1_7 Lu5_7 3.288471 1_555
In1_7 In6_5 3.311292 1_555
In1_7 Lu7_2 3.356006 1_655
In1_7 Lu7_6 3.356006 1_555
In2_0 Pd3_2 2.992450 1_555
In2_0 Lu0_0 3.156546 1_555
In2_0 Lu0_4 3.156546 1_555
In2_0 Lu9_6 3.173443 1_555
In2_0 Lu9_2 3.173443 1_555
In2_0 Lu2_0 3.288471 1_555
In2_0 Lu2_4 3.288471 1_555
In2_0 In5_0 3.311292 1_555
In2_0 Lu8_0 3.356006 1_555
In2_0 Lu8_4 3.356006 1_555
In2_1 Pd3_3 2.992450 1_555
In2_1 Lu0_1 3.156546 1_555
In2_1 Lu0_5 3.156546 1_555
In2_1 Lu9_3 3.173443 1_555
In2_1 Lu9_7 3.173443 1_555
In2_1 Lu2_1 3.288471 1_555
In2_1 Lu2_5 3.288471 1_555
In2_1 In5_1 3.311292 1_555
In2_1 Lu8_1 3.356006 1_555
In2_1 Lu8_5 3.356006 1_555
In2_2 Pd3_0 2.992450 1_565
In2_2 Lu0_2 3.156546 1_555
In2_2 Lu0_6 3.156546 1_555
In2_2 Lu9_0 3.173443 1_565
In2_2 Lu9_4 3.173443 1_565
In2_2 Lu2_2 3.288471 1_555
In2_2 Lu2_6 3.288471 1_555
In2_2 In5_2 3.311292 1_555
In2_2 Lu8_2 3.356006 1_555
In2_2 Lu8_6 3.356006 1_555
In2_3 Pd3_1 2.992450 1_565
In2_3 Lu0_3 3.156546 1_555
In2_3 Lu0_7 3.156546 1_555
In2_3 Lu9_5 3.173443 1_565
In2_3 Lu9_1 3.173443 1_565
In2_3 Lu2_3 3.288471 1_555
In2_3 Lu2_7 3.288471 1_555
In2_3 In5_3 3.311292 1_555
In2_3 Lu8_3 3.356006 1_555
In2_3 Lu8_7 3.356006 1_555
In2_4 Pd3_6 2.992450 1_555
In2_4 Lu0_0 3.156546 1_655
In2_4 Lu0_4 3.156546 1_555
In2_4 Lu9_2 3.173443 1_655
In2_4 Lu9_6 3.173443 1_555
In2_4 Lu2_0 3.288471 1_655
In2_4 Lu2_4 3.288471 1_555
In2_4 In5_4 3.311292 1_555
In2_4 Lu8_0 3.356006 1_655
In2_4 Lu8_4 3.356006 1_555
In2_5 Pd3_7 2.992450 1_555
In2_5 Lu0_1 3.156546 1_655
In2_5 Lu0_5 3.156546 1_555
In2_5 Lu9_3 3.173443 1_655
In2_5 Lu9_7 3.173443 1_555
In2_5 Lu2_1 3.288471 1_655
In2_5 Lu2_5 3.288471 1_555
In2_5 In5_5 3.311292 1_555
In2_5 Lu8_1 3.356006 1_655
In2_5 Lu8_5 3.356006 1_555
In2_6 Pd3_4 2.992450 1_565
In2_6 Lu0_2 3.156546 1_655
In2_6 Lu0_6 3.156546 1_555
In2_6 Lu9_0 3.173443 1_665
In2_6 Lu9_4 3.173443 1_565
In2_6 Lu2_2 3.288471 1_655
In2_6 Lu2_6 3.288471 1_555
In2_6 In5_6 3.311292 1_555
In2_6 Lu8_2 3.356006 1_655
In2_6 Lu8_6 3.356006 1_555
In2_7 Pd3_5 2.992450 1_565
In2_7 Lu0_3 3.156546 1_655
In2_7 Lu0_7 3.156546 1_555
In2_7 Lu9_1 3.173443 1_665
In2_7 Lu9_5 3.173443 1_565
In2_7 Lu2_3 3.288471 1_655
In2_7 Lu2_7 3.288471 1_555
In2_7 In5_7 3.311292 1_555
In2_7 Lu8_3 3.356006 1_655
In2_7 Lu8_7 3.356006 1_555
In3_0 Pd2_2 2.992450 1_545
In3_0 Lu0_0 3.156546 1_555
In3_0 Lu0_4 3.156546 1_555
In3_0 Lu8_6 3.173443 1_545
In3_0 Lu8_2 3.173443 1_545
In3_0 Lu3_4 3.288471 1_555
In3_0 Lu3_0 3.288471 1_555
In3_0 In4_0 3.311292 1_555
In3_0 Lu9_0 3.356006 1_555
In3_0 Lu9_4 3.356006 1_555
In3_1 Pd2_3 2.992450 1_545
In3_1 Lu0_1 3.156546 1_555
In3_1 Lu0_5 3.156546 1_555
In3_1 Lu8_3 3.173443 1_545
In3_1 Lu8_7 3.173443 1_545
In3_1 Lu3_1 3.288471 1_555
In3_1 Lu3_5 3.288471 1_555
In3_1 In4_1 3.311292 1_555
In3_1 Lu9_5 3.356006 1_555
In3_1 Lu9_1 3.356006 1_555
In3_2 Pd2_0 2.992450 1_555
In3_2 Lu0_2 3.156546 1_555
In3_2 Lu0_6 3.156546 1_555
In3_2 Lu8_0 3.173443 1_555
In3_2 Lu8_4 3.173443 1_555
In3_2 Lu3_6 3.288471 1_555
In3_2 Lu3_2 3.288471 1_555
In3_2 In4_2 3.311292 1_555
In3_2 Lu9_2 3.356006 1_555
In3_2 Lu9_6 3.356006 1_555
In3_3 Pd2_1 2.992450 1_555
In3_3 Lu0_3 3.156546 1_555
In3_3 Lu0_7 3.156546 1_555
In3_3 Lu8_1 3.173443 1_555
In3_3 Lu8_5 3.173443 1_555
In3_3 Lu3_7 3.288471 1_555
In3_3 Lu3_3 3.288471 1_555
In3_3 In4_3 3.311292 1_555
In3_3 Lu9_7 3.356006 1_555
In3_3 Lu9_3 3.356006 1_555
In3_4 Pd2_6 2.992450 1_545
In3_4 Lu0_0 3.156546 1_655
In3_4 Lu0_4 3.156546 1_555
In3_4 Lu8_2 3.173443 1_645
In3_4 Lu8_6 3.173443 1_545
In3_4 Lu3_0 3.288471 1_655
In3_4 Lu3_4 3.288471 1_555
In3_4 In4_4 3.311292 1_555
In3_4 Lu9_0 3.356006 1_655
In3_4 Lu9_4 3.356006 1_555
In3_5 Pd2_7 2.992450 1_545
In3_5 Lu0_1 3.156546 1_655
In3_5 Lu0_5 3.156546 1_555
In3_5 Lu8_3 3.173443 1_645
In3_5 Lu8_7 3.173443 1_545
In3_5 Lu3_1 3.288471 1_655
In3_5 Lu3_5 3.288471 1_555
In3_5 In4_5 3.311292 1_555
In3_5 Lu9_1 3.356006 1_655
In3_5 Lu9_5 3.356006 1_555
In3_6 Pd2_4 2.992450 1_555
In3_6 Lu0_2 3.156546 1_655
In3_6 Lu0_6 3.156546 1_555
In3_6 Lu8_0 3.173443 1_655
In3_6 Lu8_4 3.173443 1_555
In3_6 Lu3_2 3.288471 1_655
In3_6 Lu3_6 3.288471 1_555
In3_6 In4_6 3.311292 1_555
In3_6 Lu9_2 3.356006 1_655
In3_6 Lu9_6 3.356006 1_555
In3_7 Pd2_5 2.992450 1_555
In3_7 Lu0_3 3.156546 1_655
In3_7 Lu0_7 3.156546 1_555
In3_7 Lu8_1 3.173443 1_655
In3_7 Lu8_5 3.173443 1_555
In3_7 Lu3_3 3.288471 1_655
In3_7 Lu3_7 3.288471 1_555
In3_7 In4_7 3.311292 1_555
In3_7 Lu9_3 3.356006 1_655
In3_7 Lu9_7 3.356006 1_555
In4_0 Pd1_0 2.920819 1_555
In4_0 Lu8_0 3.252230 1_555
In4_0 Lu8_4 3.252230 1_555
In4_0 Pd2_0 3.283249 1_555
In4_0 Lu0_0 3.284041 1_555
In4_0 Lu0_4 3.284041 1_555
In4_0 Lu4_0 3.284786 1_555
In4_0 Lu4_4 3.284786 1_555
In4_0 Lu3_4 3.401521 1_555
In4_0 Lu3_0 3.401521 1_555
In4_0 In4_4 3.555871 1_455
In4_0 In4_4 3.555871 1_555
In4_1 Pd1_1 2.920819 1_555
In4_1 Lu8_1 3.252230 1_555
In4_1 Lu8_5 3.252230 1_555
In4_1 Pd2_1 3.283249 1_555
In4_1 Lu0_5 3.284041 1_555
In4_1 Lu0_1 3.284041 1_555
In4_1 Lu4_1 3.284786 1_555
In4_1 Lu4_5 3.284786 1_555
In4_1 Lu3_1 3.401521 1_555
In4_1 Lu3_5 3.401521 1_555
In4_1 In4_5 3.555871 1_455
In4_1 In4_5 3.555871 1_555
In4_2 Pd1_2 2.920819 1_555
In4_2 Lu8_2 3.252230 1_555
In4_2 Lu8_6 3.252230 1_555
In4_2 Pd2_2 3.283249 1_555
In4_2 Lu0_6 3.284041 1_555
In4_2 Lu0_2 3.284041 1_555
In4_2 Lu4_6 3.284786 1_555
In4_2 Lu4_2 3.284786 1_555
In4_2 Lu3_2 3.401521 1_555
In4_2 Lu3_6 3.401521 1_555
In4_2 In4_6 3.555871 1_455
In4_2 In4_6 3.555871 1_555
In4_3 Pd1_3 2.920819 1_555
In4_3 Lu8_3 3.252230 1_555
In4_3 Lu8_7 3.252230 1_555
In4_3 Pd2_3 3.283249 1_555
In4_3 Lu0_7 3.284041 1_555
In4_3 Lu0_3 3.284041 1_555
In4_3 Lu4_3 3.284786 1_555
In4_3 Lu4_7 3.284786 1_555
In4_3 Lu3_3 3.401521 1_555
In4_3 Lu3_7 3.401521 1_555
In4_3 In4_7 3.555871 1_455
In4_3 In4_7 3.555871 1_555
In4_4 Pd1_4 2.920819 1_555
In4_4 Lu8_0 3.252230 1_655
In4_4 Lu8_4 3.252230 1_555
In4_4 Pd2_4 3.283249 1_555
In4_4 Lu0_0 3.284041 1_655
In4_4 Lu0_4 3.284041 1_555
In4_4 Lu4_0 3.284786 1_655
In4_4 Lu4_4 3.284786 1_555
In4_4 Lu3_0 3.401521 1_655
In4_4 Lu3_4 3.401521 1_555
In4_5 Pd1_5 2.920819 1_555
In4_5 Lu8_1 3.252230 1_655
In4_5 Lu8_5 3.252230 1_555
In4_5 Pd2_5 3.283249 1_555
In4_5 Lu0_1 3.284041 1_655
In4_5 Lu0_5 3.284041 1_555
In4_5 Lu4_1 3.284786 1_655
In4_5 Lu4_5 3.284786 1_555
In4_5 Lu3_1 3.401521 1_655
In4_5 Lu3_5 3.401521 1_555
In4_6 Pd1_6 2.920819 1_555
In4_6 Lu8_2 3.252230 1_655
In4_6 Lu8_6 3.252230 1_555
In4_6 Pd2_6 3.283249 1_555
In4_6 Lu0_2 3.284041 1_655
In4_6 Lu0_6 3.284041 1_555
In4_6 Lu4_2 3.284786 1_655
In4_6 Lu4_6 3.284786 1_555
In4_6 Lu3_2 3.401521 1_655
In4_6 Lu3_6 3.401521 1_555
In4_7 Pd1_7 2.920819 1_555
In4_7 Lu8_3 3.252230 1_655
In4_7 Lu8_7 3.252230 1_555
In4_7 Pd2_7 3.283249 1_555
In4_7 Lu0_3 3.284041 1_655
In4_7 Lu0_7 3.284041 1_555
In4_7 Lu4_3 3.284786 1_655
In4_7 Lu4_7 3.284786 1_555
In4_7 Lu3_3 3.401521 1_655
In4_7 Lu3_7 3.401521 1_555
In5_0 Pd0_0 2.920819 1_555
In5_0 Lu9_0 3.252230 1_555
In5_0 Lu9_4 3.252230 1_555
In5_0 Pd3_0 3.283249 1_555
In5_0 Lu0_0 3.284041 1_555
In5_0 Lu0_4 3.284041 1_555
In5_0 Lu5_4 3.284786 1_555
In5_0 Lu5_0 3.284786 1_555
In5_0 Lu2_0 3.401521 1_555
In5_0 Lu2_4 3.401521 1_555
In5_0 In5_4 3.555871 1_455
In5_0 In5_4 3.555871 1_555
In5_1 Pd0_1 2.920819 1_555
In5_1 Lu9_1 3.252230 1_555
In5_1 Lu9_5 3.252230 1_555
In5_1 Pd3_1 3.283249 1_555
In5_1 Lu0_1 3.284041 1_555
In5_1 Lu0_5 3.284041 1_555
In5_1 Lu5_5 3.284786 1_555
In5_1 Lu5_1 3.284786 1_555
In5_1 Lu2_1 3.401521 1_555
In5_1 Lu2_5 3.401521 1_555
In5_1 In5_5 3.555871 1_455
In5_1 In5_5 3.555871 1_555
In5_2 Pd0_2 2.920819 1_555
In5_2 Lu9_2 3.252230 1_555
In5_2 Lu9_6 3.252230 1_555
In5_2 Pd3_2 3.283249 1_555
In5_2 Lu0_2 3.284041 1_555
In5_2 Lu0_6 3.284041 1_555
In5_2 Lu5_2 3.284786 1_555
In5_2 Lu5_6 3.284786 1_555
In5_2 Lu2_2 3.401521 1_555
In5_2 Lu2_6 3.401521 1_555
In5_2 In5_6 3.555871 1_455
In5_2 In5_6 3.555871 1_555
In5_3 Pd0_3 2.920819 1_555
In5_3 Lu9_7 3.252230 1_555
In5_3 Lu9_3 3.252230 1_555
In5_3 Pd3_3 3.283249 1_555
In5_3 Lu0_3 3.284041 1_555
In5_3 Lu0_7 3.284041 1_555
In5_3 Lu5_3 3.284786 1_555
In5_3 Lu5_7 3.284786 1_555
In5_3 Lu2_3 3.401521 1_555
In5_3 Lu2_7 3.401521 1_555
In5_3 In5_7 3.555871 1_455
In5_3 In5_7 3.555871 1_555
In5_4 Pd0_4 2.920819 1_555
In5_4 Lu9_0 3.252230 1_655
In5_4 Lu9_4 3.252230 1_555
In5_4 Pd3_4 3.283249 1_555
In5_4 Lu0_0 3.284041 1_655
In5_4 Lu0_4 3.284041 1_555
In5_4 Lu5_0 3.284786 1_655
In5_4 Lu5_4 3.284786 1_555
In5_4 Lu2_0 3.401521 1_655
In5_4 Lu2_4 3.401521 1_555
In5_5 Pd0_5 2.920819 1_555
In5_5 Lu9_1 3.252230 1_655
In5_5 Lu9_5 3.252230 1_555
In5_5 Pd3_5 3.283249 1_555
In5_5 Lu0_1 3.284041 1_655
In5_5 Lu0_5 3.284041 1_555
In5_5 Lu5_1 3.284786 1_655
In5_5 Lu5_5 3.284786 1_555
In5_5 Lu2_1 3.401521 1_655
In5_5 Lu2_5 3.401521 1_555
In5_6 Pd0_6 2.920819 1_555
In5_6 Lu9_2 3.252230 1_655
In5_6 Lu9_6 3.252230 1_555
In5_6 Pd3_6 3.283249 1_555
In5_6 Lu0_2 3.284041 1_655
In5_6 Lu0_6 3.284041 1_555
In5_6 Lu5_2 3.284786 1_655
In5_6 Lu5_6 3.284786 1_555
In5_6 Lu2_2 3.401521 1_655
In5_6 Lu2_6 3.401521 1_555
In5_7 Pd0_7 2.920819 1_555
In5_7 Lu9_3 3.252230 1_655
In5_7 Lu9_7 3.252230 1_555
In5_7 Pd3_7 3.283249 1_555
In5_7 Lu0_3 3.284041 1_655
In5_7 Lu0_7 3.284041 1_555
In5_7 Lu5_3 3.284786 1_655
In5_7 Lu5_7 3.284786 1_555
In5_7 Lu2_3 3.401521 1_655
In5_7 Lu2_7 3.401521 1_555
In6_0 Pd3_2 2.920819 1_555
In6_0 Lu6_4 3.252230 1_555
In6_0 Lu6_0 3.252230 1_555
In6_0 Pd0_0 3.283249 1_555
In6_0 Lu1_2 3.284041 1_555
In6_0 Lu1_6 3.284041 1_555
In6_0 Lu2_4 3.284786 1_555
In6_0 Lu2_0 3.284786 1_555
In6_0 Lu5_6 3.401521 1_555
In6_0 Lu5_2 3.401521 1_555
In6_0 In6_4 3.555871 1_455
In6_0 In6_4 3.555871 1_555
In6_1 Pd3_3 2.920819 1_555
In6_1 Lu6_5 3.252230 1_555
In6_1 Lu6_1 3.252230 1_555
In6_1 Pd0_1 3.283249 1_555
In6_1 Lu1_3 3.284041 1_555
In6_1 Lu1_7 3.284041 1_555
In6_1 Lu2_1 3.284786 1_555
In6_1 Lu2_5 3.284786 1_555
In6_1 Lu5_3 3.401521 1_555
In6_1 Lu5_7 3.401521 1_555
In6_1 In6_5 3.555871 1_455
In6_1 In6_5 3.555871 1_555
In6_2 Pd3_0 2.920819 1_565
In6_2 Lu6_2 3.252230 1_555
In6_2 Lu6_6 3.252230 1_555
In6_2 Pd0_2 3.283249 1_555
In6_2 Lu1_4 3.284041 1_565
In6_2 Lu1_0 3.284041 1_565
In6_2 Lu2_2 3.284786 1_555
In6_2 Lu2_6 3.284786 1_555
In6_2 Lu5_0 3.401521 1_565
In6_2 Lu5_4 3.401521 1_565
In6_2 In6_6 3.555871 1_455
In6_2 In6_6 3.555871 1_555
In6_3 Pd3_1 2.920819 1_565
In6_3 Lu6_7 3.252230 1_555
In6_3 Lu6_3 3.252230 1_555
In6_3 Pd0_3 3.283249 1_555
In6_3 Lu1_1 3.284041 1_565
In6_3 Lu1_5 3.284041 1_565
In6_3 Lu2_3 3.284786 1_555
In6_3 Lu2_7 3.284786 1_555
In6_3 Lu5_1 3.401521 1_565
In6_3 Lu5_5 3.401521 1_565
In6_3 In6_7 3.555871 1_455
In6_3 In6_7 3.555871 1_555
In6_4 Pd3_6 2.920819 1_555
In6_4 Lu6_0 3.252230 1_655
In6_4 Lu6_4 3.252230 1_555
In6_4 Pd0_4 3.283249 1_555
In6_4 Lu1_2 3.284041 1_655
In6_4 Lu1_6 3.284041 1_555
In6_4 Lu2_0 3.284786 1_655
In6_4 Lu2_4 3.284786 1_555
In6_4 Lu5_2 3.401521 1_655
In6_4 Lu5_6 3.401521 1_555
In6_5 Pd3_7 2.920819 1_555
In6_5 Lu6_1 3.252230 1_655
In6_5 Lu6_5 3.252230 1_555
In6_5 Pd0_5 3.283249 1_555
In6_5 Lu1_3 3.284041 1_655
In6_5 Lu1_7 3.284041 1_555
In6_5 Lu2_1 3.284786 1_655
In6_5 Lu2_5 3.284786 1_555
In6_5 Lu5_3 3.401521 1_655
In6_5 Lu5_7 3.401521 1_555
In6_6 Pd3_4 2.920819 1_565
In6_6 Lu6_2 3.252230 1_655
In6_6 Lu6_6 3.252230 1_555
In6_6 Pd0_6 3.283249 1_555
In6_6 Lu1_0 3.284041 1_665
In6_6 Lu1_4 3.284041 1_565
In6_6 Lu2_2 3.284786 1_655
In6_6 Lu2_6 3.284786 1_555
In6_6 Lu5_0 3.401521 1_665
In6_6 Lu5_4 3.401521 1_565
In6_7 Pd3_5 2.920819 1_565
In6_7 Lu6_3 3.252230 1_655
In6_7 Lu6_7 3.252230 1_555
In6_7 Pd0_7 3.283249 1_555
In6_7 Lu1_1 3.284041 1_665
In6_7 Lu1_5 3.284041 1_565
In6_7 Lu2_3 3.284786 1_655
In6_7 Lu2_7 3.284786 1_555
In6_7 Lu5_1 3.401521 1_665
In6_7 Lu5_5 3.401521 1_565
In7_0 Pd2_2 2.920819 1_545
In7_0 Lu7_4 3.252230 1_555
In7_0 Lu7_0 3.252230 1_555
In7_0 Pd1_0 3.283249 1_555
In7_0 Lu1_1 3.284041 1_555
In7_0 Lu1_5 3.284041 1_555
In7_0 Lu3_4 3.284786 1_555
In7_0 Lu3_0 3.284786 1_555
In7_0 Lu4_6 3.401521 1_545
In7_0 Lu4_2 3.401521 1_545
In7_0 In7_4 3.555871 1_455
In7_0 In7_4 3.555871 1_555
In7_1 Pd2_3 2.920819 1_545
In7_1 Lu7_1 3.252230 1_555
In7_1 Lu7_5 3.252230 1_555
In7_1 Pd1_1 3.283249 1_555
In7_1 Lu1_4 3.284041 1_556
In7_1 Lu1_0 3.284041 1_556
In7_1 Lu3_5 3.284786 1_555
In7_1 Lu3_1 3.284786 1_555
In7_1 Lu4_3 3.401521 1_545
In7_1 Lu4_7 3.401521 1_545
In7_1 In7_5 3.555871 1_455
In7_1 In7_5 3.555871 1_555
In7_2 Pd2_0 2.920819 1_555
In7_2 Lu7_2 3.252230 1_555
In7_2 Lu7_6 3.252230 1_555
In7_2 Pd1_2 3.283249 1_555
In7_2 Lu1_7 3.284041 1_555
In7_2 Lu1_3 3.284041 1_555
In7_2 Lu3_2 3.284786 1_555
In7_2 Lu3_6 3.284786 1_555
In7_2 Lu4_0 3.401521 1_555
In7_2 Lu4_4 3.401521 1_555
In7_2 In7_6 3.555871 1_455
In7_2 In7_6 3.555871 1_555
In7_3 Pd2_1 2.920819 1_555
In7_3 Lu7_3 3.252230 1_555
In7_3 Lu7_7 3.252230 1_555
In7_3 Pd1_3 3.283249 1_555
In7_3 Lu1_2 3.284041 1_556
In7_3 Lu1_6 3.284041 1_556
In7_3 Lu3_7 3.284786 1_555
In7_3 Lu3_3 3.284786 1_555
In7_3 Lu4_5 3.401521 1_555
In7_3 Lu4_1 3.401521 1_555
In7_3 In7_7 3.555871 1_455
In7_3 In7_7 3.555871 1_555
In7_4 Pd2_6 2.920819 1_545
In7_4 Lu7_0 3.252230 1_655
In7_4 Lu7_4 3.252230 1_555
In7_4 Pd1_4 3.283249 1_555
In7_4 Lu1_1 3.284041 1_655
In7_4 Lu1_5 3.284041 1_555
In7_4 Lu3_0 3.284786 1_655
In7_4 Lu3_4 3.284786 1_555
In7_4 Lu4_2 3.401521 1_645
In7_4 Lu4_6 3.401521 1_545
In7_5 Pd2_7 2.920819 1_545
In7_5 Lu7_1 3.252230 1_655
In7_5 Lu7_5 3.252230 1_555
In7_5 Pd1_5 3.283249 1_555
In7_5 Lu1_0 3.284041 1_656
In7_5 Lu1_4 3.284041 1_556
In7_5 Lu3_1 3.284786 1_655
In7_5 Lu3_5 3.284786 1_555
In7_5 Lu4_3 3.401521 1_645
In7_5 Lu4_7 3.401521 1_545
In7_6 Pd2_4 2.920819 1_555
In7_6 Lu7_2 3.252230 1_655
In7_6 Lu7_6 3.252230 1_555
In7_6 Pd1_6 3.283249 1_555
In7_6 Lu1_3 3.284041 1_655
In7_6 Lu1_7 3.284041 1_555
In7_6 Lu3_2 3.284786 1_655
In7_6 Lu3_6 3.284786 1_555
In7_6 Lu4_0 3.401521 1_655
In7_6 Lu4_4 3.401521 1_555
In7_7 Pd2_5 2.920819 1_555
In7_7 Lu7_3 3.252230 1_655
In7_7 Lu7_7 3.252230 1_555
In7_7 Pd1_7 3.283249 1_555
In7_7 Lu1_2 3.284041 1_656
In7_7 Lu1_6 3.284041 1_556
In7_7 Lu3_3 3.284786 1_655
In7_7 Lu3_7 3.284786 1_555
In7_7 Lu4_1 3.401521 1_655
In7_7 Lu4_5 3.401521 1_555
