# generated using pymatgen
data_Sr3Cu3Pb3ClO8
_symmetry_space_group_name_H-M   'P 1'
_cell_length_a   3.87042700
_cell_length_b   3.90928700
_cell_length_c   19.93454326
_cell_angle_alpha   89.11718459
_cell_angle_beta   90.00000000
_cell_angle_gamma   90.00000000
_symmetry_Int_Tables_number   1
_chemical_formula_structural   Sr3Cu3Pb3ClO8
_chemical_formula_sum   'Sr3 Cu3 Pb3 Cl1 O8'
_cell_volume   301.58599575
_cell_formula_units_Z   1
loop_
 _symmetry_equiv_pos_site_id
 _symmetry_equiv_pos_as_xyz
  1  'x, y, z'
loop_
 _atom_site_type_symbol
 _atom_site_label
 _atom_site_symmetry_multiplicity
 _atom_site_fract_x
 _atom_site_fract_y
 _atom_site_fract_z
 _atom_site_occupancy
  Sr  Sr0  1  0.00000000  0.51745100  0.71895900  1
  Sr  Sr1  1  0.00000000  0.48424300  0.27384600  1
  Sr  Sr2  1  0.00000000  0.50185400  0.09751500  1
  Cu  Cu0  1  0.50000000  0.00458900  0.81292100  1
  Cu  Cu1  1  0.50000000  0.99512100  0.18515300  1
  Cu  Cu2  1  0.00000000  0.49777600  0.50009800  1
  Pb  Pb0  1  0.50000000  0.00090900  0.58651500  1
  Pb  Pb1  1  0.50000000  0.99780700  0.40952400  1
  Pb  Pb2  1  0.00000000  0.49573000  0.89669700  1
  Cl  Cl0  1  0.50000000  0.00437500  0.01765800  1
  O  O0  1  0.00000000  0.00275100  0.82653400  1
  O  O1  1  0.50000000  0.49569100  0.17650300  1
  O  O2  1  0.00000000  0.99659500  0.17516500  1
  O  O3  1  0.50000000  0.50382700  0.82459300  1
  O  O4  1  0.50000000  0.02456200  0.69692700  1
  O  O5  1  0.50000000  0.98046100  0.30076300  1
  O  O6  1  0.00000000  0.60070400  0.59156100  1
  O  O7  1  0.00000000  0.39555400  0.40906700  1
loop_
_geom_bond_atom_site_label_1
_geom_bond_atom_site_label_2
_geom_bond_distance
_geom_bond_site_symmetry_2
Cu0 O0 1.954145 1_555
Cu0 O0 1.954145 1_655
Cu0 O3 1.967838 1_545
Cu0 O3 1.969042 1_555
Cu0 O4 2.312403 1_555
Cu1 O2 1.945429 1_555
Cu1 O2 1.945429 1_655
Cu1 O1 1.961806 1_565
Cu1 O1 1.962660 1_555
Cu1 O5 2.304462 1_555
Cu2 O7 1.864144 1_555
Cu2 O6 1.873189 1_555
Cl0 Sr2 3.168931 1_545
Cl0 Sr2 3.168931 1_645
Cl0 Sr2 3.186980 1_555
Cl0 Sr2 3.186980 1_655
O0 Pb2 2.398628 1_555
O0 Pb2 2.408221 1_545
O0 Sr0 2.885022 1_545
O0 Sr0 2.917932 1_555
O1 Sr2 2.494754 1_655
O1 Sr2 2.494754 1_555
O1 Sr1 2.740415 1_655
O1 Sr1 2.740415 1_555
O2 Sr2 2.490634 1_565
O2 Sr2 2.495793 1_555
O2 Sr1 2.760339 1_565
O2 Sr1 2.785685 1_555
O3 Pb2 2.410530 1_655
O3 Pb2 2.410530 1_555
O3 Sr0 2.859839 1_655
O3 Sr0 2.859839 1_555
O4 Pb0 2.204377 1_555
O4 Sr0 2.770696 1_655
O4 Sr0 2.770696 1_555
O4 Sr0 2.800213 1_645
O4 Sr0 2.800213 1_545
O5 Pb1 2.170205 1_555
O5 Sr1 2.797873 1_555
O5 Sr1 2.797873 1_655
O5 Sr1 2.806965 1_565
O5 Sr1 2.806965 1_665
O6 Pb0 2.489585 1_465
O6 Pb0 2.489585 1_565
O6 Sr0 2.555412 1_555
O7 Pb1 2.482425 1_445
O7 Pb1 2.482425 1_545
O7 Sr1 2.712471 1_555
