# generated using pymatgen
data_Si
_symmetry_space_group_name_H-M   'P 1'
_cell_length_a   12.67697625
_cell_length_b   12.18200854
_cell_length_c   12.22570930
_cell_angle_alpha   80.75985292
_cell_angle_beta   104.32595059
_cell_angle_gamma   78.83199162
_symmetry_Int_Tables_number   1
_chemical_formula_structural   Si
_chemical_formula_sum   Si100
_cell_volume   1750.97284719
_cell_formula_units_Z   100
loop_
 _symmetry_equiv_pos_site_id
 _symmetry_equiv_pos_as_xyz
  1  'x, y, z'
loop_
 _atom_site_type_symbol
 _atom_site_label
 _atom_site_symmetry_multiplicity
 _atom_site_fract_x
 _atom_site_fract_y
 _atom_site_fract_z
 _atom_site_occupancy
  Si  Si0  1  0.27798844  0.06499344  0.18427782  1
  Si  Si1  1  0.18099966  0.64511156  0.43049691  1
  Si  Si2  1  0.37995240  0.19412205  0.10897196  1
  Si  Si3  1  0.65500346  0.31855935  0.34607659  1
  Si  Si4  1  0.80979808  0.54173349  0.02290520  1
  Si  Si5  1  0.15276783  0.70156617  0.61483955  1
  Si  Si6  1  0.54284012  0.00693368  0.76808946  1
  Si  Si7  1  0.12503345  0.51149940  0.63738192  1
  Si  Si8  1  0.63711633  0.82683421  0.60455260  1
  Si  Si9  1  0.68320196  0.74332517  0.96862091  1
  Si  Si10  1  0.32545355  0.94346428  0.91709285  1
  Si  Si11  1  0.94081600  0.32872679  0.66378674  1
  Si  Si12  1  0.24136946  0.29762538  0.61376620  1
  Si  Si13  1  0.80208038  0.26181353  0.10848262  1
  Si  Si14  1  0.57466734  0.99509036  0.96818214  1
  Si  Si15  1  0.25101007  0.88655743  0.73822593  1
  Si  Si16  1  0.07811046  0.63005746  0.88691154  1
  Si  Si17  1  0.60666477  0.13933207  0.40431642  1
  Si  Si18  1  0.71910227  0.05581904  0.77707635  1
  Si  Si19  1  0.51337073  0.83743782  0.05317905  1
  Si  Si20  1  0.98107673  0.73950827  0.69591672  1
  Si  Si21  1  0.48245826  0.86378905  0.67342633  1
  Si  Si22  1  0.00295177  0.62301583  0.21082928  1
  Si  Si23  1  0.34112020  0.89377565  0.12359087  1
  Si  Si24  1  0.48293199  0.67104081  0.75188962  1
  Si  Si25  1  0.85743768  0.64798270  0.57095228  1
  Si  Si26  1  0.71274736  0.42567369  0.91039271  1
  Si  Si27  1  0.44360602  0.74776317  0.40566027  1
  Si  Si28  1  0.67610897  0.27995955  0.79227741  1
  Si  Si29  1  0.25915154  0.06664993  0.62666584  1
  Si  Si30  1  0.64145467  0.66619797  0.51802517  1
  Si  Si31  1  0.09055948  0.85886848  0.13198633  1
  Si  Si32  1  0.43425109  0.11329065  0.43487718  1
  Si  Si33  1  0.99985832  0.45563924  0.34605604  1
  Si  Si34  1  0.07912946  0.05784173  0.13674741  1
  Si  Si35  1  0.76109589  0.75912432  0.80388755  1
  Si  Si36  1  0.06849598  0.36392823  0.04734606  1
  Si  Si37  1  0.05378594  0.00521803  0.67523922  1
  Si  Si38  1  0.03357770  0.97853684  0.34737936  1
  Si  Si39  1  0.12575012  0.18958718  0.98546749  1
  Si  Si40  1  0.87432590  0.16328544  0.61222979  1
  Si  Si41  1  0.36993041  0.64521679  0.55166079  1
  Si  Si42  1  0.43112040  0.94875582  0.35305958  1
  Si  Si43  1  0.12069499  0.18810246  0.68720045  1
  Si  Si44  1  0.55850152  0.91284084  0.23431224  1
  Si  Si45  1  0.64190543  0.47620853  0.43939703  1
  Si  Si46  1  0.32770850  0.45549859  0.66140345  1
  Si  Si47  1  0.65465290  0.06535736  0.23697642  1
  Si  Si48  1  0.73791574  0.37152964  0.63328153  1
  Si  Si49  1  0.41759999  0.15207542  0.61721570  1
  Si  Si50  1  0.84330229  0.83687115  0.45388764  1
  Si  Si51  1  0.79865554  0.13991394  0.96102320  1
  Si  Si52  1  0.69557131  0.74392328  0.34440239  1
  Si  Si53  1  0.72679980  0.96137258  0.52974368  1
  Si  Si54  1  0.84549961  0.22017358  0.40947819  1
  Si  Si55  1  0.20017041  0.35770813  0.40874735  1
  Si  Si56  1  0.68792399  0.57657007  0.26266594  1
  Si  Si57  1  0.53055302  0.40844291  0.16006892  1
  Si  Si58  1  0.38011770  0.69851048  0.22247801  1
  Si  Si59  1  0.95710858  0.63728930  0.00680066  1
  Si  Si60  1  0.63389433  0.53618272  0.70030879  1
  Si  Si61  1  0.22377594  0.61253992  0.22962185  1
  Si  Si62  1  0.57211536  0.35500139  0.99306681  1
  Si  Si63  1  0.96754454  0.12081647  0.90621028  1
  Si  Si64  1  0.09957545  0.45897332  0.82121078  1
  Si  Si65  1  0.38501294  0.44830527  0.86575891  1
  Si  Si66  1  0.94055989  0.39180535  0.84817555  1
  Si  Si67  1  0.49731445  0.31267703  0.65089531  1
  Si  Si68  1  0.16707157  0.08004411  0.42934843  1
  Si  Si69  1  0.21961520  0.48307011  0.08978417  1
  Si  Si70  1  0.38221360  0.34268446  0.21508391  1
  Si  Si71  1  0.58488225  0.59562043  0.95533266  1
  Si  Si72  1  0.77549404  0.95672177  0.03630847  1
  Si  Si73  1  0.54500812  0.16343178  0.04296151  1
  Si  Si74  1  0.26437715  0.64697537  0.97375378  1
  Si  Si75  1  0.95884788  0.48387446  0.52366522  1
  Si  Si76  1  0.99838815  0.24144429  0.16917873  1
  Si  Si77  1  0.81566254  0.86939392  0.24415028  1
  Si  Si78  1  0.81801444  0.57878603  0.75452383  1
  Si  Si79  1  0.48154642  0.47874863  0.50835190  1
  Si  Si80  1  0.30107253  0.67657426  0.78889093  1
  Si  Si81  1  0.29752744  0.87848022  0.54933403  1
  Si  Si82  1  0.02261112  0.88506790  0.53446399  1
  Si  Si83  1  0.84045417  0.10124695  0.27547199  1
  Si  Si84  1  0.92521992  0.84064102  0.99018523  1
  Si  Si85  1  0.50899575  0.61258617  0.12099845  1
  Si  Si86  1  0.24946251  0.14778706  0.87293853  1
  Si  Si87  1  0.81945784  0.43319013  0.20920339  1
  Si  Si88  1  0.84603008  0.90473243  0.73046190  1
  Si  Si89  1  0.02117822  0.79000031  0.29187744  1
  Si  Si90  1  0.79542009  0.69640887  0.17023494  1
  Si  Si91  1  0.24652988  0.20092900  0.31632612  1
  Si  Si92  1  0.19055404  0.83542081  0.98843714  1
  Si  Si93  1  0.27307995  0.35293816  0.95360259  1
  Si  Si94  1  0.34056220  0.44127414  0.36122152  1
  Si  Si95  1  0.22194869  0.82831961  0.35026666  1
  Si  Si96  1  0.01466130  0.94255568  0.85452166  1
  Si  Si97  1  0.38435290  0.25316906  0.81533512  1
  Si  Si98  1  0.67493228  0.19749624  0.60175700  1
  Si  Si99  1  0.01017191  0.25060278  0.36486834  1
loop_
_geom_bond_atom_site_label_1
_geom_bond_atom_site_label_2
_geom_bond_distance
_geom_bond_site_symmetry_2
Si0 Si23 2.384460 1_545
Si0 Si2 2.429893 1_555
Si0 Si42 2.458852 1_545
Si0 Si34 2.465106 1_555
Si0 Si91 2.535515 1_555
Si0 Si39 2.700974 1_554
Si1 Si89 2.459111 1_555
Si1 Si41 2.485299 1_555
Si1 Si95 2.492077 1_555
Si1 Si5 2.545956 1_555
Si1 Si61 2.715011 1_555
Si2 Si70 2.390568 1_555
Si2 Si93 2.391146 1_554
Si2 Si73 2.408060 1_555
Si3 Si54 2.350157 1_555
Si3 Si57 2.369610 1_555
Si3 Si45 2.385662 1_555
Si4 Si87 2.404801 1_555
Si4 Si59 2.414874 1_555
Si4 Si9 2.543564 1_554
Si4 Si71 2.679210 1_554
Si4 Si90 2.819111 1_555
Si5 Si7 2.391442 1_555
Si5 Si80 2.397019 1_555
Si5 Si82 2.397617 1_555
Si7 Si75 2.336631 1_455
Si9 Si90 2.433795 1_556
Si10 Si86 2.407728 1_565
Si10 Si15 2.423256 1_555
Si10 Si23 2.448247 1_556
Si10 Si19 2.503574 1_556
Si10 Si92 2.580512 1_555
Si11 Si75 2.424956 1_555
Si11 Si48 2.443414 1_555
Si11 Si40 2.443920 1_555
Si11 Si43 2.494541 1_655
Si11 Si66 2.496245 1_555
Si12 Si55 2.388714 1_555
Si12 Si43 2.451944 1_555
Si12 Si46 2.468922 1_555
Si12 Si49 2.555698 1_555
Si12 Si97 2.575327 1_555
Si12 Si29 2.754459 1_555
Si12 Si7 2.830262 1_555
Si13 Si76 2.364969 1_555
Si13 Si83 2.467413 1_555
Si13 Si51 2.510601 1_554
Si13 Si87 2.606315 1_555
Si13 Si26 2.710484 1_554
Si13 Si62 2.818933 1_554
Si14 Si6 2.354470 1_565
Si14 Si73 2.378283 1_566
Si14 Si19 2.389318 1_556
Si14 Si72 2.399651 1_556
Si15 Si29 2.424964 1_565
Si15 Si80 2.449008 1_555
Si15 Si37 2.494651 1_565
Si15 Si81 2.532764 1_555
Si16 Si64 2.342863 1_555
Si16 Si59 2.368725 1_456
Si16 Si20 2.384683 1_455
Si16 Si74 2.400741 1_555
Si16 Si69 2.775520 1_556
Si17 Si32 2.377417 1_555
Si17 Si53 2.422468 1_545
Si17 Si3 2.425788 1_555
Si17 Si47 2.522559 1_555
Si17 Si98 2.613561 1_555
Si18 Si98 2.393776 1_555
Si18 Si6 2.403033 1_555
Si18 Si88 2.438210 1_545
Si18 Si51 2.672401 1_555
Si18 Si28 2.724652 1_555
Si19 Si44 2.510946 1_555
Si19 Si23 2.553364 1_555
Si19 Si9 2.746672 1_554
Si19 Si85 2.746944 1_555
Si20 Si25 2.464322 1_555
Si20 Si88 2.540957 1_555
Si20 Si5 2.599714 1_655
Si20 Si82 2.658880 1_655
Si21 Si8 2.313532 1_555
Si21 Si6 2.385981 1_565
Si21 Si24 2.387876 1_555
Si21 Si81 2.412442 1_555
Si22 Si59 2.386244 1_455
Si22 Si33 2.423365 1_455
Si22 Si89 2.426786 1_555
Si22 Si90 2.503466 1_455
Si22 Si61 2.727549 1_555
Si23 Si58 2.385258 1_555
Si23 Si92 2.494173 1_554
Si23 Si44 2.825465 1_555
Si24 Si71 2.432316 1_555
Si24 Si80 2.447423 1_555
Si24 Si60 2.543830 1_555
Si24 Si41 2.613422 1_555
Si25 Si75 2.393111 1_555
Si25 Si50 2.455804 1_555
Si25 Si78 2.471415 1_555
Si25 Si30 2.608911 1_555
Si25 Si52 2.909778 1_555
Si26 Si4 2.421904 1_556
Si26 Si62 2.479516 1_555
Si26 Si28 2.502517 1_555
Si26 Si60 2.550703 1_555
Si26 Si71 2.592585 1_555
Si27 Si42 2.393233 1_555
Si27 Si58 2.397888 1_555
Si27 Si30 2.460953 1_555
Si27 Si41 2.485931 1_555
Si27 Si95 2.663476 1_555
Si28 Si67 2.402898 1_555
Si28 Si51 2.416000 1_555
Si28 Si48 2.456155 1_555
Si28 Si98 2.678587 1_555
Si29 Si68 2.369576 1_555
Si29 Si43 2.409569 1_555
Si29 Si49 2.452944 1_555
Si29 Si81 2.622348 1_545
Si30 Si8 2.367138 1_555
Si30 Si52 2.489917 1_555
Si30 Si60 2.552477 1_555
Si30 Si45 2.644407 1_555
Si31 Si34 2.411032 1_565
Si31 Si92 2.426959 1_554
Si31 Si89 2.430768 1_555
Si31 Si84 2.440015 1_454
Si31 Si95 2.697339 1_555
Si32 Si42 2.382153 1_545
Si32 Si91 2.390738 1_555
Si32 Si49 2.402016 1_555
Si33 Si75 2.415121 1_555
Si33 Si99 2.445997 1_655
Si33 Si55 2.455332 1_655
Si33 Si87 2.569016 1_555
Si34 Si76 2.409622 1_455
Si34 Si39 2.510149 1_554
Si34 Si63 2.728654 1_454
Si34 Si38 2.837449 1_545
Si35 Si78 2.395493 1_555
Si35 Si88 2.412112 1_555
Si35 Si9 2.449807 1_555
Si35 Si8 2.458936 1_555
Si36 Si76 2.385353 1_455
Si36 Si39 2.408384 1_554
Si36 Si66 2.498330 1_454
Si36 Si69 2.621600 1_555
Si37 Si96 2.404217 1_545
Si37 Si82 2.440715 1_545
Si37 Si40 2.536991 1_455
Si37 Si43 2.545514 1_555
Si38 Si68 2.401366 1_565
Si38 Si82 2.435079 1_555
Si38 Si83 2.469090 1_465
Si38 Si89 2.519479 1_555
Si38 Si95 2.701323 1_555
Si39 Si86 2.365352 1_555
Si39 Si63 2.369159 1_455
Si40 Si54 2.379101 1_555
Si40 Si98 2.448268 1_555
Si41 Si79 2.449274 1_555
Si41 Si46 2.695695 1_555
Si41 Si81 2.805143 1_555
Si42 Si44 2.448901 1_555
Si43 Si86 2.357798 1_555
Si44 Si52 2.373462 1_555
Si44 Si47 2.411611 1_565
Si45 Si79 2.382498 1_555
Si45 Si48 2.393012 1_555
Si45 Si56 2.560327 1_555
Si46 Si65 2.405040 1_555
Si46 Si7 2.456878 1_555
Si46 Si67 2.534928 1_555
Si46 Si97 2.699703 1_555
Si47 Si73 2.408461 1_555
Si47 Si83 2.424244 1_555
Si47 Si77 2.798098 1_545
Si48 Si98 2.458987 1_555
Si48 Si60 2.543951 1_555
Si49 Si6 2.337777 1_555
Si49 Si67 2.416006 1_555
Si50 Si53 2.367154 1_555
Si50 Si77 2.455635 1_555
Si50 Si82 2.465097 1_655
Si50 Si52 2.578507 1_555
Si51 Si72 2.375195 1_546
Si51 Si63 2.377861 1_555
Si52 Si56 2.418085 1_555
Si52 Si77 2.716495 1_555
Si52 Si90 2.813726 1_555
Si53 Si8 2.360128 1_555
Si53 Si88 2.449310 1_555
Si54 Si83 2.352318 1_555
Si54 Si99 2.364523 1_655
Si55 Si94 2.359035 1_555
Si55 Si91 2.420044 1_555
Si56 Si85 2.400748 1_555
Si56 Si87 2.456867 1_555
Si56 Si90 2.503629 1_555
Si57 Si70 2.380504 1_555
Si57 Si62 2.386717 1_554
Si57 Si85 2.403756 1_555
Si58 Si61 2.427528 1_555
Si58 Si85 2.462077 1_555
Si59 Si84 2.398165 1_554
Si60 Si78 2.443514 1_555
Si61 Si94 2.383277 1_555
Si61 Si69 2.503332 1_555
Si62 Si73 2.427668 1_556
Si62 Si65 2.429171 1_555
Si62 Si71 2.935564 1_555
Si63 Si96 2.365772 1_645
Si64 Si7 2.354077 1_555
Si64 Si93 2.364822 1_555
Si64 Si66 2.392276 1_455
Si65 Si93 2.347039 1_555
Si65 Si97 2.550827 1_555
Si65 Si80 2.695889 1_555
Si66 Si78 2.413329 1_555
Si67 Si79 2.389254 1_555
Si67 Si98 2.667565 1_555
Si67 Si97 2.824297 1_555
Si68 Si91 2.387988 1_555
Si68 Si99 2.447816 1_555
Si68 Si81 2.643057 1_545
Si69 Si70 2.398052 1_555
Si69 Si74 2.499743 1_554
Si69 Si93 2.595040 1_554
Si70 Si94 2.413218 1_555
Si71 Si9 2.383265 1_555
Si71 Si85 2.468198 1_556
Si72 Si84 2.380406 1_554
Si72 Si77 2.475779 1_555
Si73 Si97 2.905706 1_554
Si74 Si92 2.358238 1_555
Si74 Si80 2.403732 1_555
Si76 Si99 2.381988 1_655
Si77 Si90 2.455500 1_555
Si77 Si89 2.480711 1_655
Si79 Si94 2.372147 1_555
Si81 Si95 2.600941 1_555
Si84 Si96 2.528350 1_655
Si86 Si97 2.494816 1_555
Si86 Si93 2.871093 1_555
Si88 Si96 2.466593 1_655
Si89 Si95 2.621731 1_555
Si92 Si96 2.394916 1_555
Si93 Si97 2.738649 1_555
