# generated using pymatgen
data_Ag2PSe3
_symmetry_space_group_name_H-M   'P 1'
_cell_length_a   6.57937153
_cell_length_b   11.65986353
_cell_length_c   14.45464378
_cell_angle_alpha   90.00000000
_cell_angle_beta   90.00000000
_cell_angle_gamma   90.00000000
_symmetry_Int_Tables_number   1
_chemical_formula_structural   Ag2PSe3
_chemical_formula_sum   'Ag16 P8 Se24'
_cell_volume   1108.88184212
_cell_formula_units_Z   8
loop_
 _symmetry_equiv_pos_site_id
 _symmetry_equiv_pos_as_xyz
  1  'x, y, z'
loop_
 _atom_site_type_symbol
 _atom_site_label
 _atom_site_symmetry_multiplicity
 _atom_site_fract_x
 _atom_site_fract_y
 _atom_site_fract_z
 _atom_site_occupancy
  Ag  Ag0  1  0.76911548  0.28752496  0.62814877  1
  Ag  Ag1  1  0.26911548  0.21247504  0.37185123  1
  Ag  Ag2  1  0.23088452  0.78752496  0.87185123  1
  Ag  Ag3  1  0.73088452  0.71247504  0.12814877  1
  Ag  Ag4  1  0.46410237  0.30351228  0.10698093  1
  Ag  Ag5  1  0.96410237  0.19648772  0.89301907  1
  Ag  Ag6  1  0.53589763  0.80351228  0.39301907  1
  Ag  Ag7  1  0.03589763  0.69648772  0.60698093  1
  Ag  Ag8  1  0.58102152  0.61565239  0.87314007  1
  Ag  Ag9  1  0.08102152  0.88434761  0.12685993  1
  Ag  Ag10  1  0.41897848  0.11565239  0.62685993  1
  Ag  Ag11  1  0.91897848  0.38434761  0.37314007  1
  Ag  Ag12  1  0.58656924  0.36054190  0.88865928  1
  Ag  Ag13  1  0.08656924  0.13945810  0.11134072  1
  Ag  Ag14  1  0.41343076  0.86054190  0.61134072  1
  Ag  Ag15  1  0.91343076  0.63945810  0.38865928  1
  P  P0  1  0.10903163  0.47030446  0.79927501  1
  P  P1  1  0.60903163  0.02969554  0.20072499  1
  P  P2  1  0.89096837  0.97030446  0.70072499  1
  P  P3  1  0.39096837  0.52969554  0.29927501  1
  P  P4  1  0.06808363  0.50572899  0.95564899  1
  P  P5  1  0.56808363  0.99427101  0.04435101  1
  P  P6  1  0.93191637  0.00572899  0.54435101  1
  P  P7  1  0.43191637  0.49427101  0.45564899  1
  Se  Se0  1  0.26168130  0.30350606  0.78816523  1
  Se  Se1  1  0.76168130  0.19649394  0.21183477  1
  Se  Se2  1  0.73831870  0.80350606  0.71183477  1
  Se  Se3  1  0.23831870  0.69649394  0.28816523  1
  Se  Se4  1  0.80458799  0.47149597  0.73794237  1
  Se  Se5  1  0.30458799  0.02850403  0.26205763  1
  Se  Se6  1  0.19541201  0.97149597  0.76205763  1
  Se  Se7  1  0.69541201  0.52850403  0.23794237  1
  Se  Se8  1  0.13106111  0.48527968  0.51881875  1
  Se  Se9  1  0.63106111  0.01472032  0.48118125  1
  Se  Se10  1  0.86893889  0.98527968  0.98118125  1
  Se  Se11  1  0.36893889  0.51472032  0.01881875  1
  Se  Se12  1  0.61233056  0.63553543  0.51488553  1
  Se  Se13  1  0.11233056  0.86446457  0.48511447  1
  Se  Se14  1  0.38766944  0.13553543  0.98511447  1
  Se  Se15  1  0.88766944  0.36446457  0.01488553  1
  Se  Se16  1  0.58502756  0.32398474  0.46241249  1
  Se  Se17  1  0.08502756  0.17601526  0.53758751  1
  Se  Se18  1  0.41497244  0.82398474  0.03758751  1
  Se  Se19  1  0.91497244  0.67601526  0.96241249  1
  Se  Se20  1  0.20781710  0.38367985  0.24479921  1
  Se  Se21  1  0.70781710  0.11632015  0.75520079  1
  Se  Se22  1  0.79218290  0.88367985  0.25520079  1
  Se  Se23  1  0.29218290  0.61632015  0.74479921  1
loop_
_geom_bond_atom_site_label_1
_geom_bond_atom_site_label_2
_geom_bond_distance
_geom_bond_site_symmetry_2
Ag0 Se4 2.678522 1_555
Ag0 Se16 2.717880 1_555
Ag0 Se21 2.742311 1_555
Ag0 Se17 2.779249 1_655
Ag1 Se5 2.678522 1_555
Ag1 Se17 2.717880 1_555
Ag1 Se20 2.742311 1_555
Ag1 Se16 2.779249 1_555
Ag2 Se6 2.678522 1_555
Ag2 Se18 2.717880 1_556
Ag2 Se23 2.742311 1_555
Ag2 Se19 2.779249 1_455
Ag3 Se7 2.678522 1_555
Ag3 Se19 2.717880 1_554
Ag3 Se22 2.742311 1_555
Ag3 Se18 2.779249 1_555
Ag4 Se14 2.681783 1_554
Ag4 Se20 2.772277 1_555
Ag4 Se1 2.772630 1_555
Ag4 Se11 2.842653 1_555
Ag4 Se15 3.169145 1_555
Ag5 Se15 2.681783 1_556
Ag5 Se21 2.772277 1_555
Ag5 Se0 2.772630 1_655
Ag5 Se10 2.842653 1_545
Ag5 Se14 3.169145 1_655
Ag6 Se12 2.681783 1_555
Ag6 Se22 2.772277 1_555
Ag6 Se3 2.772630 1_555
Ag6 Se9 2.842653 1_565
Ag6 Se13 3.169145 1_555
Ag7 Se13 2.681783 1_555
Ag7 Se23 2.772277 1_555
Ag7 Se2 2.772630 1_455
Ag7 Se8 2.842653 1_555
Ag7 Se12 3.169145 1_455
Ag8 Se19 2.643508 1_555
Ag8 Se23 2.655742 1_555
Ag8 Se11 2.786783 1_556
Ag8 Se4 2.967810 1_555
Ag9 Se18 2.643508 1_555
Ag9 Se22 2.655742 1_455
Ag9 Se10 2.786783 1_454
Ag9 Se5 2.967810 1_565
Ag10 Se17 2.643508 1_555
Ag10 Se21 2.655742 1_555
Ag10 Se9 2.786783 1_555
Ag10 Se6 2.967810 1_545
Ag11 Se16 2.643508 1_555
Ag11 Se20 2.655742 1_655
Ag11 Se8 2.786783 1_655
Ag11 Se7 2.967810 1_555
Ag12 Se0 2.668611 1_555
Ag12 Se15 2.693632 1_556
Ag12 Se4 2.911595 1_555
Ag12 Se11 2.970131 1_556
Ag12 Se14 3.246441 1_555
Ag13 Se1 2.668611 1_455
Ag13 Se14 2.693632 1_554
Ag13 Se5 2.911595 1_555
Ag13 Se10 2.970131 1_444
Ag13 Se15 3.246441 1_455
Ag14 Se2 2.668611 1_555
Ag14 Se13 2.693632 1_555
Ag14 Se6 2.911595 1_555
Ag14 Se9 2.970131 1_565
Ag14 Se12 3.246441 1_555
Ag15 Se3 2.668611 1_655
Ag15 Se12 2.693632 1_555
Ag15 Se7 2.911595 1_555
Ag15 Se8 2.970131 1_655
Ag15 Se13 3.246441 1_655
P0 Se4 2.190513 1_455
P0 Se0 2.194747 1_555
P0 Se23 2.229507 1_555
P0 P4 2.313500 1_555
P1 Se5 2.190513 1_555
P1 Se1 2.194747 1_555
P1 Se22 2.229507 1_545
P1 P5 2.313500 1_545
P2 Se6 2.190513 1_655
P2 Se2 2.194747 1_555
P2 Se21 2.229507 1_565
P2 P6 2.313500 1_565
P3 Se7 2.190513 1_555
P3 Se3 2.194747 1_555
P3 Se20 2.229507 1_555
P3 P7 2.313500 1_555
P4 Se11 2.182410 1_556
P4 Se15 2.203444 1_456
P4 Se19 2.228594 1_455
P5 Se10 2.182410 1_554
P5 Se14 2.203444 1_564
P5 Se18 2.228594 1_555
P6 Se9 2.182410 1_555
P6 Se13 2.203444 1_645
P6 Se17 2.228594 1_655
P7 Se8 2.182410 1_555
P7 Se12 2.203444 1_555
P7 Se16 2.228594 1_555
