# generated using pymatgen
data_Li9Mn2Co5O16
_symmetry_space_group_name_H-M   'P 1'
_cell_length_a   2.93550360
_cell_length_b   2.93550360
_cell_length_c   39.14348971
_cell_angle_alpha   88.99098927
_cell_angle_beta   88.99098927
_cell_angle_gamma   58.50288966
_symmetry_Int_Tables_number   1
_chemical_formula_structural   Li9Mn2Co5O16
_chemical_formula_sum   'Li9 Mn2 Co5 O16'
_cell_volume   287.55141403
_cell_formula_units_Z   1
loop_
 _symmetry_equiv_pos_site_id
 _symmetry_equiv_pos_as_xyz
  1  'x, y, z'
loop_
 _atom_site_type_symbol
 _atom_site_label
 _atom_site_symmetry_multiplicity
 _atom_site_fract_x
 _atom_site_fract_y
 _atom_site_fract_z
 _atom_site_occupancy
  Li  Li0  1  0.69190600  0.69190600  0.93560300  1
  Li  Li1  1  0.07309100  0.07309100  0.81143300  1
  Li  Li2  1  0.42382300  0.42382300  0.68718600  1
  Li  Li3  1  0.81299300  0.81299300  0.56361700  1
  Li  Li4  1  0.18180800  0.18180800  0.43910300  1
  Li  Li5  1  0.56929300  0.56929300  0.30949900  1
  Li  Li6  1  0.93908200  0.93908200  0.18891400  1
  Li  Li7  1  0.30631000  0.30631000  0.06481100  1
  Li  Li8  1  0.74890000  0.74890000  0.74925700  1
  Mn  Mn0  1  0.00009300  0.00009300  0.00019000  1
  Mn  Mn1  1  0.87598200  0.87598200  0.37416800  1
  Co  Co0  1  0.37606900  0.37606900  0.87531800  1
  Co  Co1  1  0.12707300  0.12707300  0.62380800  1
  Co  Co2  1  0.49775900  0.49775900  0.50106500  1
  Co  Co3  1  0.25063200  0.25063200  0.24987900  1
  Co  Co4  1  0.62294500  0.62294500  0.12641200  1
  O  O0  1  0.36880700  0.36880700  0.97147200  1
  O  O1  1  0.72229900  0.72229900  0.84792000  1
  O  O2  1  0.09048200  0.09048200  0.71604000  1
  O  O3  1  0.46331900  0.46331900  0.59815500  1
  O  O4  1  0.83951800  0.83951800  0.47171200  1
  O  O5  1  0.24863200  0.24863200  0.34455800  1
  O  O6  1  0.58620000  0.58620000  0.22420500  1
  O  O7  1  0.96467900  0.96467900  0.09700300  1
  O  O8  1  0.02996400  0.02996400  0.90458600  1
  O  O9  1  0.40922100  0.40922100  0.78161100  1
  O  O10  1  0.79170000  0.79170000  0.64839900  1
  O  O11  1  0.15627100  0.15627100  0.53009300  1
  O  O12  1  0.50379700  0.50379700  0.40340700  1
  O  O13  1  0.91476300  0.91476300  0.27561700  1
  O  O14  1  0.28149100  0.28149100  0.15562100  1
  O  O15  1  0.63110000  0.63110000  0.02933700  1
loop_
_geom_bond_atom_site_label_1
_geom_bond_atom_site_label_2
_geom_bond_distance
_geom_bond_site_symmetry_2
Li0 O8 2.064069 1_565
Li0 O8 2.064069 1_655
Li0 O8 2.094715 1_665
Li0 O0 2.148637 1_555
Li0 O0 2.213895 1_655
Li0 O0 2.213895 1_565
Li1 O9 2.040678 1_545
Li1 O9 2.040678 1_455
Li1 O9 2.060598 1_555
Li1 O1 2.173843 1_455
Li1 O1 2.173843 1_545
Li1 O1 2.272670 1_445
Li2 O2 2.025067 1_565
Li2 O2 2.025067 1_655
Li2 O2 2.028134 1_555
Li2 O10 2.205031 1_545
Li2 O10 2.205031 1_455
Li2 O10 2.395950 1_555
Li3 O11 2.113415 1_655
Li3 O11 2.113415 1_565
Li3 O3 2.126085 1_655
Li3 O3 2.126085 1_565
Li3 O11 2.172738 1_665
Li3 O3 2.222212 1_555
Li4 O4 2.093098 1_455
Li4 O4 2.093098 1_545
Li4 O12 2.140013 1_555
Li4 O4 2.147814 1_445
Li4 O12 2.211961 1_545
Li4 O12 2.211961 1_455
Li5 O13 2.117888 1_545
Li5 O13 2.117888 1_455
Li5 O5 2.119019 1_555
Li5 O13 2.189928 1_555
Li5 O5 2.199005 1_565
Li5 O5 2.199005 1_655
Li6 O14 2.109498 1_655
Li6 O14 2.109498 1_565
Li6 O6 2.139104 1_655
Li6 O6 2.139104 1_565
Li6 O14 2.163882 1_665
Li6 O6 2.252749 1_555
Li7 O7 2.084409 1_545
Li7 O7 2.084409 1_455
Li7 O7 2.135697 1_445
Li7 O15 2.145404 1_555
Li7 O15 2.200336 1_455
Li7 O15 2.200336 1_545
Li8 O9 2.092325 1_655
Li8 O9 2.092325 1_565
Li8 O2 2.109318 1_655
Li8 O2 2.109318 1_565
Li8 O9 2.131289 1_555
Li8 O2 2.158757 1_665
Mn0 O0 1.950374 1_454
Mn0 O0 1.950374 1_544
Mn0 O15 1.959710 1_545
Mn0 O15 1.959710 1_455
Mn0 O0 2.178321 1_554
Mn0 O15 2.187960 1_445
Mn1 O12 1.956108 1_655
Mn1 O12 1.956108 1_565
Mn1 O5 1.963918 1_655
Mn1 O5 1.963918 1_565
Mn1 O12 2.203735 1_555
Mn1 O5 2.213088 1_665
Co0 O1 1.965252 1_545
Co0 O1 1.965252 1_455
Co0 O8 2.006973 1_655
Co0 O8 2.006973 1_565
Co0 O1 2.053955 1_555
Co0 O8 2.091318 1_555
Co1 O10 1.930799 1_455
Co1 O10 1.930799 1_545
Co1 O3 1.950244 1_545
Co1 O3 1.950244 1_455
Co1 O10 1.952175 1_445
Co1 O3 1.976124 1_555
Co2 O11 2.011253 1_565
Co2 O11 2.011253 1_655
Co2 O4 2.017996 1_455
Co2 O4 2.017996 1_545
Co2 O11 2.066551 1_555
Co2 O4 2.074512 1_555
Co3 O6 1.952207 1_545
Co3 O6 1.952207 1_455
Co3 O13 1.952839 1_545
Co3 O13 1.952839 1_455
Co3 O6 1.973537 1_555
Co3 O13 1.976096 1_445
Co4 O14 2.015394 1_655
Co4 O14 2.015394 1_565
Co4 O7 2.019316 1_545
Co4 O7 2.019316 1_455
Co4 O14 2.070189 1_555
Co4 O7 2.075583 1_555
