# generated using pymatgen
data_SmPPd
_symmetry_space_group_name_H-M   'P 1'
_cell_length_a   4.19037186
_cell_length_b   4.19037176
_cell_length_c   7.73665453
_cell_angle_alpha   90.00000000
_cell_angle_beta   90.00000000
_cell_angle_gamma   120.00000886
_symmetry_Int_Tables_number   1
_chemical_formula_structural   SmPPd
_chemical_formula_sum   'Sm2 P2 Pd2'
_cell_volume   117.64918313
_cell_formula_units_Z   2
loop_
 _symmetry_equiv_pos_site_id
 _symmetry_equiv_pos_as_xyz
  1  'x, y, z'
loop_
 _atom_site_type_symbol
 _atom_site_label
 _atom_site_symmetry_multiplicity
 _atom_site_fract_x
 _atom_site_fract_y
 _atom_site_fract_z
 _atom_site_occupancy
  Sm  Sm0  1  0.00000000  0.00000000  0.50000000  1
  Sm  Sm1  1  0.00000000  0.00000000  -0.00000000  1
  P  P0  1  0.66666700  0.33333300  0.25000000  1
  P  P1  1  0.33333300  0.66666700  0.75000000  1
  Pd  Pd0  1  0.33333300  0.66666700  0.25000000  1
  Pd  Pd1  1  0.66666700  0.33333300  0.75000000  1
loop_
_geom_bond_atom_site_label_1
_geom_bond_atom_site_label_2
_geom_bond_distance
_geom_bond_site_symmetry_2
P0 Pd0 2.419310 1_545
P0 Pd0 2.419310 1_655
P0 Pd0 2.419317 1_555
P0 Sm0 3.097426 1_655
P0 Sm1 3.097426 1_655
P0 Sm0 3.097429 1_665
P0 Sm1 3.097429 1_665
P0 Sm1 3.097429 1_555
P0 Sm0 3.097429 1_555
P1 Pd1 2.419310 1_565
P1 Pd1 2.419310 1_455
P1 Pd1 2.419317 1_555
P1 Sm0 3.097426 1_565
P1 Sm1 3.097426 1_566
P1 Sm0 3.097429 1_555
P1 Sm1 3.097429 1_556
P1 Sm0 3.097429 1_665
P1 Sm1 3.097429 1_666
Pd0 Sm1 3.097426 1_565
Pd0 Sm0 3.097426 1_565
Pd0 Sm1 3.097429 1_555
Pd0 Sm0 3.097429 1_555
Pd0 Sm0 3.097429 1_665
Pd0 Sm1 3.097429 1_665
Pd1 Sm0 3.097426 1_655
Pd1 Sm1 3.097426 1_656
Pd1 Sm1 3.097429 1_666
Pd1 Sm0 3.097429 1_665
Pd1 Sm1 3.097429 1_556
Pd1 Sm0 3.097429 1_555
