# generated using pymatgen
data_CaLaTiFeO6
_symmetry_space_group_name_H-M   'P 1'
_cell_length_a   5.57403400
_cell_length_b   9.55872892
_cell_length_c   9.56370016
_cell_angle_alpha   70.44035908
_cell_angle_beta   89.99993095
_cell_angle_gamma   90.00009784
_symmetry_Int_Tables_number   1
_chemical_formula_structural   CaLaTiFeO6
_chemical_formula_sum   'Ca4 La4 Ti4 Fe4 O24'
_cell_volume   480.15550323
_cell_formula_units_Z   4
loop_
 _symmetry_equiv_pos_site_id
 _symmetry_equiv_pos_as_xyz
  1  'x, y, z'
loop_
 _atom_site_type_symbol
 _atom_site_label
 _atom_site_symmetry_multiplicity
 _atom_site_fract_x
 _atom_site_fract_y
 _atom_site_fract_z
 _atom_site_occupancy
  Ca  Ca0  1  0.54089100  0.38077500  0.86926100  1
  Ca  Ca1  1  0.54090500  0.88077200  0.36927100  1
  Ca  Ca2  1  0.95910800  0.38077200  0.36926900  1
  Ca  Ca3  1  0.95910800  0.88075900  0.86926500  1
  La  La0  1  0.03216800  0.62073500  0.62850200  1
  La  La1  1  0.03218600  0.12073900  0.12851300  1
  La  La2  1  0.46781700  0.62072900  0.12851600  1
  La  La3  1  0.46781400  0.12074400  0.62851600  1
  Ti  Ti0  1  0.50066000  0.24920600  0.24926000  1
  Ti  Ti1  1  0.50065300  0.74920600  0.74926300  1
  Ti  Ti2  1  0.99934100  0.74920900  0.24925700  1
  Ti  Ti3  1  0.99933900  0.24920300  0.74926500  1
  Fe  Fe0  1  0.49995600  0.99997800  0.00034100  1
  Fe  Fe1  1  0.00004500  0.99997800  0.50033900  1
  Fe  Fe2  1  0.49995800  0.49997900  0.50034000  1
  Fe  Fe3  1  0.00004000  0.49997900  0.00033500  1
  O  O0  1  0.01754100  0.66955000  0.08477000  1
  O  O1  1  0.01754200  0.16955200  0.58476700  1
  O  O2  1  0.48246500  0.16955300  0.08476600  1
  O  O3  1  0.48246300  0.66954900  0.58476900  1
  O  O4  1  0.21022300  0.58722900  0.36922300  1
  O  O5  1  0.21021900  0.08722800  0.86922100  1
  O  O6  1  0.28977400  0.58723100  0.86922100  1
  O  O7  1  0.28978200  0.08723000  0.36922000  1
  O  O8  1  0.21888800  0.37765700  0.16781100  1
  O  O9  1  0.21888500  0.87765600  0.66780900  1
  O  O10  1  0.28111100  0.37765800  0.66780700  1
  O  O11  1  0.28111300  0.87765700  0.16781100  1
  O  O12  1  0.52110300  0.83396900  0.91239300  1
  O  O13  1  0.52110500  0.33397200  0.41239100  1
  O  O14  1  0.97889700  0.33397000  0.91239100  1
  O  O15  1  0.97889800  0.83397100  0.41238900  1
  O  O16  1  0.71542900  0.40969300  0.13246500  1
  O  O17  1  0.71542500  0.90969500  0.63246400  1
  O  O18  1  0.78457100  0.40969100  0.63246200  1
  O  O19  1  0.78457400  0.90969200  0.13246500  1
  O  O20  1  0.72058200  0.62120500  0.33597000  1
  O  O21  1  0.72057800  0.12120800  0.83596700  1
  O  O22  1  0.77942000  0.62120700  0.83596900  1
  O  O23  1  0.77942500  0.12120700  0.33596800  1
loop_
_geom_bond_atom_site_label_1
_geom_bond_atom_site_label_2
_geom_bond_distance
_geom_bond_site_symmetry_2
Ca0 O2 2.375717 1_556
Ca0 O10 2.418277 1_555
Ca0 O6 2.419358 1_555
Ca0 O14 2.491480 1_555
Ca0 O18 2.575061 1_555
Ca0 O22 2.580890 1_555
Ca0 O21 2.790977 1_555
Ca0 O16 2.797342 1_556
Ca1 O3 2.375696 1_555
Ca1 O11 2.418358 1_555
Ca1 O7 2.419364 1_565
Ca1 O15 2.491392 1_555
Ca1 O19 2.575078 1_555
Ca1 O23 2.580870 1_565
Ca1 O20 2.790984 1_555
Ca1 O17 2.797228 1_555
Ca2 O1 2.375675 1_655
Ca2 O8 2.418299 1_655
Ca2 O4 2.419340 1_655
Ca2 O13 2.491447 1_555
Ca2 O16 2.575093 1_555
Ca2 O20 2.580883 1_555
Ca2 O23 2.790976 1_555
Ca2 O18 2.797243 1_555
Ca3 O0 2.375655 1_656
Ca3 O9 2.418242 1_655
Ca3 O5 2.419426 1_665
Ca3 O12 2.491453 1_555
Ca3 O17 2.575054 1_555
Ca3 O21 2.581026 1_565
Ca3 O22 2.790851 1_555
Ca3 O19 2.797354 1_556
La0 O15 2.386159 1_455
La0 O18 2.434036 1_455
La0 O22 2.434678 1_455
La0 O3 2.561614 1_555
La0 O10 2.623102 1_555
La0 O6 2.640206 1_555
La0 O4 2.787132 1_555
La0 O9 2.806029 1_555
La1 O14 2.386195 1_454
La1 O19 2.434127 1_445
La1 O23 2.434616 1_455
La1 O2 2.561541 1_555
La1 O11 2.623105 1_545
La1 O7 2.640073 1_555
La1 O5 2.787223 1_554
La1 O8 2.805935 1_555
La2 O12 2.386246 1_554
La2 O16 2.434052 1_555
La2 O20 2.434645 1_555
La2 O0 2.561534 1_555
La2 O8 2.623031 1_555
La2 O4 2.640078 1_555
La2 O6 2.787220 1_554
La2 O11 2.806017 1_555
La3 O13 2.386196 1_555
La3 O17 2.434154 1_545
La3 O21 2.434587 1_555
La3 O1 2.561500 1_555
La3 O9 2.623162 1_545
La3 O5 2.640039 1_555
La3 O7 2.787270 1_555
La3 O10 2.805876 1_555
Fe0 O21 2.026482 1_564
Fe0 O19 2.031796 1_555
Fe0 O12 2.032999 1_554
Fe0 O2 2.040863 1_565
Fe0 O11 2.041183 1_555
Fe0 O5 2.043535 1_564
Fe1 O23 2.026460 1_465
Fe1 O17 2.031798 1_455
Fe1 O15 2.032994 1_455
Fe1 O1 2.040875 1_565
Fe1 O9 2.041181 1_555
Fe1 O7 2.043530 1_565
Fe2 O20 2.026454 1_555
Fe2 O18 2.031769 1_555
Fe2 O13 2.032988 1_555
Fe2 O3 2.040846 1_555
Fe2 O10 2.041179 1_555
Fe2 O4 2.043513 1_555
Fe3 O22 2.026429 1_454
Fe3 O16 2.031788 1_455
Fe3 O14 2.032972 1_454
Fe3 O0 2.040894 1_555
Fe3 O8 2.041241 1_555
Fe3 O6 2.043494 1_554
O0 Ti2 1.966411 1_455
O1 Ti3 1.966459 1_455
O2 Ti0 1.966434 1_555
O3 Ti1 1.966458 1_555
O4 Ti2 1.976340 1_455
O5 Ti3 1.976275 1_455
O6 Ti1 1.976273 1_555
O7 Ti0 1.976281 1_555
O8 Ti0 1.985132 1_555
O9 Ti1 1.985119 1_555
O10 Ti3 1.985162 1_455
O11 Ti2 1.985108 1_455
O12 Ti1 1.987419 1_555
O13 Ti0 1.987446 1_555
O14 Ti3 1.987407 1_555
O15 Ti2 1.987428 1_555
O16 Ti0 1.971487 1_555
O17 Ti1 1.971520 1_555
O18 Ti3 1.971518 1_555
O19 Ti2 1.971454 1_555
O20 Ti2 1.979831 1_555
O21 Ti3 1.979777 1_555
O22 Ti1 1.979834 1_555
O23 Ti0 1.979829 1_555
