# generated using pymatgen
data_Ta3CrS6
_symmetry_space_group_name_H-M   'P 1'
_cell_length_a   5.75466523
_cell_length_b   5.75466529
_cell_length_c   12.26665153
_cell_angle_alpha   89.99999922
_cell_angle_beta   90.00001086
_cell_angle_gamma   119.99994535
_symmetry_Int_Tables_number   1
_chemical_formula_structural   Ta3CrS6
_chemical_formula_sum   'Ta6 Cr2 S12'
_cell_volume   351.80096895
_cell_formula_units_Z   2
loop_
 _symmetry_equiv_pos_site_id
 _symmetry_equiv_pos_as_xyz
  1  'x, y, z'
loop_
 _atom_site_type_symbol
 _atom_site_label
 _atom_site_symmetry_multiplicity
 _atom_site_fract_x
 _atom_site_fract_y
 _atom_site_fract_z
 _atom_site_occupancy
  Ta  Ta0  1  0.00000028  0.00000042  0.49999581  1
  Ta  Ta1  1  -0.00000035  -0.00000027  0.00000420  1
  Ta  Ta2  1  0.33333303  0.66666638  0.99690658  1
  Ta  Ta3  1  0.66666624  0.33333317  0.00309469  1
  Ta  Ta4  1  0.66666686  0.33333375  0.49690574  1
  Ta  Ta5  1  0.33333363  0.66666704  0.50309404  1
  Cr  Cr0  1  0.33333322  0.66666662  0.24999964  1
  Cr  Cr1  1  0.66666660  0.33333336  0.75000024  1
  S  S0  1  0.33179448  0.33326221  0.37182174  1
  S  S1  1  0.66673837  -0.00146724  0.37182194  1
  S  S2  1  0.00146788  0.66820610  0.37182175  1
  S  S3  1  0.33324615  0.33179721  0.62816842  1
  S  S4  1  -0.00144876  0.66675444  0.62816823  1
  S  S5  1  0.66820341  0.00144939  0.62816838  1
  S  S6  1  0.66820268  0.66675433  0.87183172  1
  S  S7  1  0.33324512  0.00144813  0.87183189  1
  S  S8  1  -0.00144884  0.33179670  0.87183170  1
  S  S9  1  0.66674031  0.66820624  0.12817886  1
  S  S10  1  0.00146552  0.33325913  0.12817864  1
  S  S11  1  0.33179319  -0.00146611  0.12817880  1
loop_
_geom_bond_atom_site_label_1
_geom_bond_atom_site_label_2
_geom_bond_distance
_geom_bond_site_symmetry_2
Cr0 S0 2.428438 1_555
Cr0 S9 2.428439 1_555
Cr0 S2 2.428439 1_555
Cr0 S11 2.428439 1_565
Cr0 S10 2.428443 1_555
Cr0 S1 2.428444 1_565
Cr1 S8 2.428590 1_655
Cr1 S3 2.428590 1_555
Cr1 S6 2.428590 1_555
Cr1 S5 2.428591 1_555
Cr1 S7 2.428595 1_555
Cr1 S4 2.428595 1_655
S0 Ta4 2.463149 1_555
S0 Ta0 2.476671 1_555
S0 Ta5 2.501442 1_555
S1 Ta4 2.463148 1_555
S1 Ta0 2.476668 1_655
S1 Ta5 2.501442 1_545
S2 Ta4 2.463151 1_455
S2 Ta0 2.476670 1_565
S2 Ta5 2.501442 1_555
S3 Ta5 2.463028 1_555
S3 Ta0 2.476629 1_555
S3 Ta4 2.501442 1_555
S4 Ta5 2.463027 1_555
S4 Ta0 2.476627 1_565
S4 Ta4 2.501442 1_455
S5 Ta5 2.463029 1_545
S5 Ta0 2.476628 1_655
S5 Ta4 2.501442 1_555
S6 Ta2 2.463030 1_555
S6 Ta1 2.476628 1_666
S6 Ta3 2.501446 1_556
S7 Ta2 2.463029 1_545
S7 Ta1 2.476626 1_556
S7 Ta3 2.501446 1_556
S8 Ta2 2.463032 1_555
S8 Ta1 2.476627 1_556
S8 Ta3 2.501448 1_456
S9 Ta3 2.463148 1_555
S9 Ta1 2.476669 1_665
S9 Ta2 2.501451 1_554
S10 Ta3 2.463147 1_455
S10 Ta1 2.476666 1_555
S10 Ta2 2.501451 1_554
S11 Ta3 2.463150 1_555
S11 Ta1 2.476667 1_555
S11 Ta2 2.501451 1_544
