# generated using pymatgen
data_K2CdSnS4
_symmetry_space_group_name_H-M   'P 1'
_cell_length_a   7.95274791
_cell_length_b   7.95274791
_cell_length_c   15.21618560
_cell_angle_alpha   83.97450525
_cell_angle_beta   83.97450525
_cell_angle_gamma   89.71429729
_symmetry_Int_Tables_number   1
_chemical_formula_structural   K2CdSnS4
_chemical_formula_sum   'K8 Cd4 Sn4 S16'
_cell_volume   951.74398160
_cell_formula_units_Z   4
loop_
 _symmetry_equiv_pos_site_id
 _symmetry_equiv_pos_as_xyz
  1  'x, y, z'
loop_
 _atom_site_type_symbol
 _atom_site_label
 _atom_site_symmetry_multiplicity
 _atom_site_fract_x
 _atom_site_fract_y
 _atom_site_fract_z
 _atom_site_occupancy
  K  K0  1  0.85464100  0.72730200  0.11981900  1
  K  K1  1  0.27269800  0.14535900  0.38018100  1
  K  K2  1  0.14535900  0.27269800  0.88018100  1
  K  K3  1  0.72730200  0.85464100  0.61981900  1
  K  K4  1  0.34447300  0.72150200  0.11731300  1
  K  K5  1  0.27849800  0.65552700  0.38268700  1
  K  K6  1  0.65552700  0.27849800  0.88268700  1
  K  K7  1  0.72150200  0.34447300  0.61731300  1
  Cd  Cd0  1  0.91280300  0.80887900  0.83951300  1
  Cd  Cd1  1  0.19112100  0.08719700  0.66048700  1
  Cd  Cd2  1  0.08719700  0.19112100  0.16048700  1
  Cd  Cd3  1  0.80887900  0.91280300  0.33951300  1
  Sn  Sn0  1  0.40740700  0.79564700  0.85014000  1
  Sn  Sn1  1  0.20435300  0.59259300  0.64986000  1
  Sn  Sn2  1  0.59259300  0.20435300  0.14986000  1
  Sn  Sn3  1  0.79564700  0.40740700  0.35014000  1
  S  S0  1  0.14627100  0.75882500  0.94455900  1
  S  S1  1  0.24117500  0.85372900  0.55544100  1
  S  S2  1  0.85372900  0.24117500  0.05544100  1
  S  S3  1  0.75882500  0.14627100  0.44455900  1
  S  S4  1  0.63344400  0.73972900  0.94193600  1
  S  S5  1  0.26027100  0.36655600  0.55806400  1
  S  S6  1  0.36655600  0.26027100  0.05806400  1
  S  S7  1  0.73972900  0.63344400  0.44193600  1
  S  S8  1  0.91168100  0.08831900  0.75000000  1
  S  S9  1  0.08831900  0.91168100  0.25000000  1
  S  S10  1  0.93679500  0.56157200  0.73915900  1
  S  S11  1  0.43842800  0.06320500  0.76084100  1
  S  S12  1  0.06320500  0.43842800  0.26084100  1
  S  S13  1  0.56157200  0.93679500  0.23915900  1
  S  S14  1  0.43523500  0.56476500  0.75000000  1
  S  S15  1  0.56476500  0.43523500  0.25000000  1
loop_
_geom_bond_atom_site_label_1
_geom_bond_atom_site_label_2
_geom_bond_distance
_geom_bond_site_symmetry_2
K0 S9 3.307156 1_655
K0 S0 3.334746 1_654
K0 S13 3.348621 1_555
K0 S4 3.372276 1_554
K0 S12 3.508237 1_655
K0 S15 3.572410 1_555
K1 S9 3.307156 1_545
K1 S1 3.334746 1_545
K1 S12 3.348621 1_555
K1 S5 3.372276 1_555
K1 S13 3.508237 1_545
K1 S15 3.572410 1_555
K2 S8 3.307156 1_455
K2 S2 3.334746 1_456
K2 S11 3.348621 1_555
K2 S6 3.372276 1_556
K2 S10 3.508237 1_455
K2 S14 3.572410 1_555
K3 S8 3.307156 1_565
K3 S3 3.334746 1_565
K3 S10 3.348621 1_555
K3 S7 3.372276 1_555
K3 S11 3.508237 1_565
K3 S14 3.572410 1_555
K4 S0 3.191224 1_554
K4 S9 3.203214 1_555
K4 S13 3.273811 1_555
K4 S4 3.325388 1_554
K4 S15 3.473664 1_555
K4 S12 3.582394 1_555
K5 S1 3.191224 1_555
K5 S9 3.203214 1_555
K5 S12 3.273811 1_555
K5 S5 3.325388 1_555
K5 S15 3.473664 1_555
K5 S13 3.582394 1_555
K6 S2 3.191224 1_556
K6 S8 3.203214 1_555
K6 S11 3.273811 1_555
K6 S6 3.325388 1_556
K6 S14 3.473664 1_555
K6 S10 3.582394 1_555
K7 S3 3.191224 1_555
K7 S8 3.203214 1_555
K7 S10 3.273811 1_555
K7 S7 3.325388 1_555
K7 S14 3.473664 1_555
K7 S11 3.582394 1_555
Cd0 S8 2.482100 1_565
Cd0 S0 2.577368 1_655
Cd0 S4 2.602397 1_555
Cd0 S10 2.608052 1_555
Cd1 S8 2.482100 1_455
Cd1 S1 2.577368 1_545
Cd1 S5 2.602397 1_555
Cd1 S11 2.608052 1_555
Cd2 S9 2.482100 1_545
Cd2 S2 2.577368 1_455
Cd2 S6 2.602397 1_555
Cd2 S12 2.608052 1_555
Cd3 S9 2.482100 1_655
Cd3 S3 2.577368 1_565
Cd3 S7 2.602397 1_555
Cd3 S13 2.608052 1_555
S0 Sn0 2.398766 1_555
S1 Sn1 2.398766 1_555
S2 Sn2 2.398766 1_555
S3 Sn3 2.398766 1_555
S4 Sn0 2.401864 1_555
S5 Sn1 2.401864 1_555
S6 Sn2 2.401864 1_555
S7 Sn3 2.401864 1_555
S10 Sn1 2.400554 1_655
S11 Sn0 2.400554 1_545
S12 Sn3 2.400554 1_455
S13 Sn2 2.400554 1_565
S14 Sn1 2.500951 1_555
S14 Sn0 2.500951 1_555
S15 Sn2 2.500951 1_555
S15 Sn3 2.500951 1_555
