# generated using pymatgen
data_CaLaCrSnO6
_symmetry_space_group_name_H-M   'P 1'
_cell_length_a   5.59499756
_cell_length_b   5.68928700
_cell_length_c   7.96452780
_cell_angle_alpha   89.99985747
_cell_angle_beta   89.76834304
_cell_angle_gamma   89.99985763
_symmetry_Int_Tables_number   1
_chemical_formula_structural   CaLaCrSnO6
_chemical_formula_sum   'Ca2 La2 Cr2 Sn2 O12'
_cell_volume   253.52116757
_cell_formula_units_Z   2
loop_
 _symmetry_equiv_pos_site_id
 _symmetry_equiv_pos_as_xyz
  1  'x, y, z'
loop_
 _atom_site_type_symbol
 _atom_site_label
 _atom_site_symmetry_multiplicity
 _atom_site_fract_x
 _atom_site_fract_y
 _atom_site_fract_z
 _atom_site_occupancy
  Ca  Ca0  1  0.48747100  0.45377200  0.74946800  1
  Ca  Ca1  1  0.98746900  0.04621700  0.24947000  1
  La  La0  1  0.01083100  0.95974800  0.75044600  1
  La  La1  1  0.51082400  0.54025100  0.25044600  1
  Cr  Cr0  1  0.50061300  0.00029000  0.49941000  1
  Cr  Cr1  1  0.00059100  0.49972500  0.99938100  1
  Sn  Sn0  1  0.50024800  0.00072900  0.00087900  1
  Sn  Sn1  1  0.00024900  0.49927000  0.50088000  1
  O  O0  1  0.08989000  0.46957700  0.24659600  1
  O  O1  1  0.20534500  0.21302200  0.95121000  1
  O  O2  1  0.21230700  0.20647400  0.54850700  1
  O  O3  1  0.29135900  0.70438000  0.94911000  1
  O  O4  1  0.29829800  0.70975600  0.55079300  1
  O  O5  1  0.40364600  0.97313300  0.25359900  1
  O  O6  1  0.58989400  0.03042700  0.74659600  1
  O  O7  1  0.70534600  0.28697900  0.45120800  1
  O  O8  1  0.71231200  0.29352500  0.04850800  1
  O  O9  1  0.79135800  0.79561600  0.44911100  1
  O  O10  1  0.79830100  0.79024100  0.05079200  1
  O  O11  1  0.90364800  0.52686400  0.75359700  1
loop_
_geom_bond_atom_site_label_1
_geom_bond_atom_site_label_2
_geom_bond_distance
_geom_bond_site_symmetry_2
Ca0 O11 2.365710 1_555
Ca0 O3 2.398118 1_555
Ca0 O4 2.399713 1_555
Ca0 O6 2.475849 1_555
Ca0 O1 2.632288 1_555
Ca0 O2 2.632762 1_555
Ca0 O7 2.829496 1_555
Ca0 O8 2.847889 1_556
Ca1 O5 2.365700 1_645
Ca1 O9 2.398085 1_545
Ca1 O10 2.399697 1_545
Ca1 O0 2.475932 1_655
Ca1 O7 2.632295 1_555
Ca1 O8 2.632766 1_555
Ca1 O1 2.829520 1_654
Ca1 O2 2.847886 1_655
La0 O6 2.389541 1_465
La0 O2 2.411056 1_565
La0 O1 2.414871 1_565
La0 O11 2.534863 1_455
La0 O3 2.664194 1_555
La0 O4 2.667886 1_555
La0 O10 2.836052 1_456
La0 O9 2.857208 1_455
La1 O0 2.389522 1_555
La1 O8 2.411083 1_555
La1 O7 2.414866 1_555
La1 O5 2.534843 1_555
La1 O9 2.664217 1_555
La1 O10 2.667918 1_555
La1 O4 2.836047 1_555
La1 O3 2.857184 1_554
Cr0 O7 2.028868 1_555
Cr0 O2 2.031212 1_555
Cr0 O9 2.038961 1_545
Cr0 O5 2.039524 1_545
Cr0 O6 2.040279 1_555
Cr0 O4 2.043829 1_545
Cr1 O1 2.028949 1_555
Cr1 O8 2.031193 1_456
Cr1 O3 2.038962 1_555
Cr1 O11 2.039273 1_455
Cr1 O0 2.040531 1_556
Cr1 O10 2.043710 1_456
O0 Sn1 2.091295 1_555
O1 Sn0 2.083979 1_556
O2 Sn1 2.080890 1_555
O3 Sn0 2.093441 1_566
O4 Sn1 2.092435 1_555
O5 Sn0 2.087899 1_565
O6 Sn0 2.091296 1_556
O7 Sn1 2.083983 1_655
O8 Sn0 2.080918 1_555
O9 Sn1 2.093428 1_655
O10 Sn0 2.092453 1_565
O11 Sn1 2.087875 1_655
