# generated using pymatgen
data_Te4Mo2Ru
_symmetry_space_group_name_H-M   'P 1'
_cell_length_a   7.11772523
_cell_length_b   7.16169833
_cell_length_c   7.17890391
_cell_angle_alpha   92.78005063
_cell_angle_beta   93.50461308
_cell_angle_gamma   94.61748029
_symmetry_Int_Tables_number   1
_chemical_formula_structural   Te4Mo2Ru
_chemical_formula_sum   'Te8 Mo4 Ru2'
_cell_volume   363.54950316
_cell_formula_units_Z   2
loop_
 _symmetry_equiv_pos_site_id
 _symmetry_equiv_pos_as_xyz
  1  'x, y, z'
loop_
 _atom_site_type_symbol
 _atom_site_label
 _atom_site_symmetry_multiplicity
 _atom_site_fract_x
 _atom_site_fract_y
 _atom_site_fract_z
 _atom_site_occupancy
  Te  Te0  1  0.87555229  0.26877194  0.62141847  1
  Te  Te1  1  0.28431611  0.60852679  0.87655171  1
  Te  Te2  1  0.61767889  0.88662215  0.28322322  1
  Te  Te3  1  0.12467606  0.73359112  0.37971800  1
  Te  Te4  1  0.73496972  0.38593045  0.11340978  1
  Te  Te5  1  0.37742969  0.11407262  0.73129813  1
  Te  Te6  1  0.78193999  0.78149050  0.78775018  1
  Te  Te7  1  0.20324919  0.21170541  0.20824957  1
  Mo  Mo0  1  0.75162297  0.58748641  0.45252842  1
  Mo  Mo1  1  0.41506857  0.54947691  0.25132086  1
  Mo  Mo2  1  0.54200437  0.25486797  0.40924429  1
  Mo  Mo3  1  0.25023524  0.41195072  0.54140268  1
  Ru  Ru0  1  0.58656010  0.44913918  0.75225367  1
  Ru  Ru1  1  0.45469581  0.75636784  0.59163002  1
loop_
_geom_bond_atom_site_label_1
_geom_bond_atom_site_label_2
_geom_bond_distance
_geom_bond_site_symmetry_2
Mo0 Mo2 2.701182 1_555
Mo0 Ru0 2.705599 1_555
Mo0 Te6 2.707813 1_555
Mo0 Mo1 2.707914 1_555
Mo0 Te2 2.723138 1_555
Mo0 Ru1 2.734796 1_555
Mo0 Te4 2.760574 1_555
Mo0 Te0 2.814243 1_555
Mo0 Te3 2.862524 1_655
Mo1 Mo2 2.639512 1_555
Mo1 Mo3 2.644778 1_555
Mo1 Te2 2.703237 1_555
Mo1 Te3 2.722922 1_555
Mo1 Te7 2.739266 1_555
Mo1 Ru1 2.782224 1_555
Mo1 Te4 2.851171 1_555
Mo1 Te1 2.854998 1_554
Mo2 Mo3 2.644245 1_555
Mo2 Te7 2.720787 1_555
Mo2 Te0 2.733399 1_555
Mo2 Ru0 2.756998 1_555
Mo2 Te4 2.760484 1_555
Mo2 Te5 2.846278 1_555
Mo2 Te2 2.849667 1_545
Mo3 Te1 2.715646 1_555
Mo3 Te7 2.716774 1_555
Mo3 Ru0 2.740072 1_555
Mo3 Ru1 2.757478 1_555
Mo3 Te5 2.769705 1_555
Mo3 Te3 2.813543 1_555
Mo3 Te0 2.880600 1_455
Ru0 Te6 2.651250 1_555
Ru0 Te1 2.694168 1_555
Ru0 Te0 2.707066 1_555
Ru0 Te5 2.712777 1_555
Ru0 Ru1 2.738263 1_555
Ru0 Te4 2.810498 1_556
Ru1 Te6 2.635714 1_555
Ru1 Te1 2.661221 1_555
Ru1 Te3 2.708514 1_555
Ru1 Te2 2.730929 1_555
Ru1 Te5 2.813461 1_565
