# generated using pymatgen
data_NbReMo
_symmetry_space_group_name_H-M   'P 1'
_cell_length_a   14.29892091
_cell_length_b   13.93177897
_cell_length_c   5.54608923
_cell_angle_alpha   82.41632619
_cell_angle_beta   74.97251796
_cell_angle_gamma   22.61115584
_symmetry_Int_Tables_number   1
_chemical_formula_structural   NbReMo
_chemical_formula_sum   'Nb8 Re8 Mo8'
_cell_volume   392.72625361
_cell_formula_units_Z   8
loop_
 _symmetry_equiv_pos_site_id
 _symmetry_equiv_pos_as_xyz
  1  'x, y, z'
loop_
 _atom_site_type_symbol
 _atom_site_label
 _atom_site_symmetry_multiplicity
 _atom_site_fract_x
 _atom_site_fract_y
 _atom_site_fract_z
 _atom_site_occupancy
  Nb  Nb0_0  1  0.33392450  0.33392450  0.16607550  1
  Nb  Nb0_1  1  0.33392450  0.33392450  0.66607550  1
  Nb  Nb0_2  1  0.33392450  0.83392450  0.16607550  1
  Nb  Nb0_3  1  0.33392450  0.83392450  0.66607550  1
  Nb  Nb0_4  1  0.83392450  0.33392450  0.16607550  1
  Nb  Nb0_5  1  0.83392450  0.33392450  0.66607550  1
  Nb  Nb0_6  1  0.83392450  0.83392450  0.16607550  1
  Nb  Nb0_7  1  0.83392450  0.83392450  0.66607550  1
  Re  Re0_0  1  0.16785200  0.16785200  0.33214800  1
  Re  Re0_1  1  0.16785200  0.16785200  0.83214800  1
  Re  Re0_2  1  0.16785200  0.66785200  0.33214800  1
  Re  Re0_3  1  0.16785200  0.66785200  0.83214800  1
  Re  Re0_4  1  0.66785200  0.16785200  0.33214800  1
  Re  Re0_5  1  0.66785200  0.16785200  0.83214800  1
  Re  Re0_6  1  0.66785200  0.66785200  0.33214800  1
  Re  Re0_7  1  0.66785200  0.66785200  0.83214800  1
  Mo  Mo0_0  1  0.49822450  0.49822450  0.00177550  1
  Mo  Mo0_1  1  0.49822450  0.49822450  0.50177550  1
  Mo  Mo0_2  1  0.49822450  0.99822450  0.00177550  1
  Mo  Mo0_3  1  0.49822450  0.99822450  0.50177550  1
  Mo  Mo0_4  1  0.99822450  0.49822450  0.00177550  1
  Mo  Mo0_5  1  0.99822450  0.49822450  0.50177550  1
  Mo  Mo0_6  1  0.99822450  0.99822450  0.00177550  1
  Mo  Mo0_7  1  0.99822450  0.99822450  0.50177550  1
loop_
_geom_bond_atom_site_label_1
_geom_bond_atom_site_label_2
_geom_bond_distance
_geom_bond_site_symmetry_2
Nb0_0 Nb0_6 2.773045 1_545
Nb0_0 Nb0_1 2.773045 1_555
Nb0_0 Nb0_1 2.773045 1_554
Nb0_0 Nb0_6 2.773045 1_455
Nb0_0 Re0_5 2.780407 1_554
Nb0_0 Re0_2 2.780407 1_555
Nb0_1 Nb0_7 2.773045 1_545
Nb0_1 Nb0_7 2.773045 1_455
Nb0_1 Re0_4 2.780407 1_555
Nb0_1 Re0_3 2.780407 1_555
Nb0_2 Nb0_4 2.773045 1_555
Nb0_2 Nb0_4 2.773045 1_465
Nb0_2 Nb0_3 2.773045 1_554
Nb0_2 Nb0_3 2.773045 1_555
Nb0_2 Re0_7 2.780407 1_554
Nb0_2 Re0_0 2.780407 1_565
Nb0_3 Nb0_5 2.773045 1_465
Nb0_3 Nb0_5 2.773045 1_555
Nb0_3 Re0_6 2.780407 1_555
Nb0_3 Re0_1 2.780407 1_565
Nb0_4 Nb0_5 2.773045 1_554
Nb0_4 Nb0_5 2.773045 1_555
Nb0_4 Re0_1 2.780407 1_654
Nb0_4 Re0_6 2.780407 1_555
Nb0_5 Re0_0 2.780407 1_655
Nb0_5 Re0_7 2.780407 1_555
Nb0_6 Nb0_7 2.773045 1_554
Nb0_6 Nb0_7 2.773045 1_555
Nb0_6 Re0_3 2.780407 1_654
Nb0_6 Re0_4 2.780407 1_565
Nb0_7 Re0_2 2.780407 1_655
Nb0_7 Re0_5 2.780407 1_565
Re0_0 Re0_6 2.773045 1_545
Re0_0 Re0_6 2.773045 1_455
Re0_0 Re0_1 2.773045 1_555
Re0_0 Re0_1 2.773045 1_554
Re0_1 Re0_7 2.773045 1_455
Re0_1 Re0_7 2.773045 1_545
Re0_2 Re0_4 2.773045 1_465
Re0_2 Re0_3 2.773045 1_554
Re0_2 Re0_3 2.773045 1_555
Re0_2 Re0_4 2.773045 1_555
Re0_3 Re0_5 2.773045 1_465
Re0_3 Re0_5 2.773045 1_555
Re0_4 Re0_5 2.773045 1_554
Re0_4 Re0_5 2.773045 1_555
Re0_6 Re0_7 2.773045 1_554
Re0_6 Re0_7 2.773045 1_555
Mo0_0 Re0_5 2.702039 1_554
Mo0_0 Re0_2 2.702039 1_555
Mo0_0 Mo0_1 2.773045 1_555
Mo0_0 Mo0_6 2.773045 1_545
Mo0_0 Mo0_1 2.773045 1_554
Mo0_0 Mo0_6 2.773045 1_455
Mo0_0 Nb0_5 2.819899 1_554
Mo0_0 Nb0_2 2.819899 1_555
Mo0_1 Re0_4 2.702039 1_555
Mo0_1 Re0_3 2.702039 1_555
Mo0_1 Mo0_7 2.773045 1_455
Mo0_1 Mo0_7 2.773045 1_545
Mo0_1 Nb0_3 2.819899 1_555
Mo0_1 Nb0_4 2.819899 1_555
Mo0_2 Re0_7 2.702039 1_554
Mo0_2 Re0_0 2.702039 1_565
Mo0_2 Mo0_4 2.773045 1_555
Mo0_2 Mo0_3 2.773045 1_555
Mo0_2 Mo0_3 2.773045 1_554
Mo0_2 Mo0_4 2.773045 1_465
Mo0_2 Nb0_7 2.819899 1_554
Mo0_2 Nb0_0 2.819899 1_565
Mo0_3 Re0_1 2.702039 1_565
Mo0_3 Re0_6 2.702039 1_555
Mo0_3 Mo0_5 2.773045 1_465
Mo0_3 Mo0_5 2.773045 1_555
Mo0_3 Nb0_1 2.819899 1_565
Mo0_3 Nb0_6 2.819899 1_555
Mo0_4 Re0_1 2.702039 1_654
Mo0_4 Re0_6 2.702039 1_555
Mo0_4 Mo0_5 2.773045 1_554
Mo0_4 Mo0_5 2.773045 1_555
Mo0_4 Nb0_1 2.819899 1_654
Mo0_4 Nb0_6 2.819899 1_555
Mo0_5 Re0_0 2.702039 1_655
Mo0_5 Re0_7 2.702039 1_555
Mo0_5 Nb0_0 2.819899 1_655
Mo0_5 Nb0_7 2.819899 1_555
Mo0_6 Re0_4 2.702039 1_565
Mo0_6 Re0_3 2.702039 1_654
Mo0_6 Mo0_7 2.773045 1_554
Mo0_6 Mo0_7 2.773045 1_555
Mo0_6 Nb0_3 2.819899 1_654
Mo0_6 Nb0_4 2.819899 1_565
Mo0_7 Re0_2 2.702039 1_655
Mo0_7 Re0_5 2.702039 1_565
Mo0_7 Nb0_5 2.819899 1_565
Mo0_7 Nb0_2 2.819899 1_655
