# generated using pymatgen
data_Dy4MnS7
_symmetry_space_group_name_H-M   'P 1'
_cell_length_a   6.54161813
_cell_length_b   6.54161813
_cell_length_c   11.44783892
_cell_angle_alpha   75.63867239
_cell_angle_beta   75.63867239
_cell_angle_gamma   33.71213637
_symmetry_Int_Tables_number   1
_chemical_formula_structural   Dy4MnS7
_chemical_formula_sum   'Dy4 Mn1 S7'
_cell_volume   262.60582687
_cell_formula_units_Z   1
loop_
 _symmetry_equiv_pos_site_id
 _symmetry_equiv_pos_as_xyz
  1  'x, y, z'
loop_
 _atom_site_type_symbol
 _atom_site_label
 _atom_site_symmetry_multiplicity
 _atom_site_fract_x
 _atom_site_fract_y
 _atom_site_fract_z
 _atom_site_occupancy
  Dy  Dy0  1  0.69297840  0.69297840  0.20505845  1
  Dy  Dy1  1  0.30638742  0.30638742  0.80095111  1
  Dy  Dy2  1  0.99948448  0.99948448  0.00590471  1
  Dy  Dy3  1  0.11349607  0.11349607  0.56747820  1
  Mn  Mn0  1  0.88561268  0.88561268  0.42132158  1
  S  S0  1  0.74360963  0.74360963  0.64015235  1
  S  S1  1  0.26786122  0.26786122  0.35316101  1
  S  S2  1  0.33867232  0.33867232  0.05158672  1
  S  S3  1  0.65948742  0.65948742  0.94805287  1
  S  S4  1  0.03522893  0.03522893  0.22462879  1
  S  S5  1  0.96225941  0.96225941  0.78506771  1
  S  S6  1  0.49492002  0.49492002  0.49663749  1
loop_
_geom_bond_atom_site_label_1
_geom_bond_atom_site_label_2
_geom_bond_distance
_geom_bond_site_symmetry_2
Dy0 S4 2.705610 1_655
Dy0 S4 2.705610 1_565
Dy0 S1 2.859333 1_565
Dy0 S1 2.859333 1_655
Dy0 S2 2.889885 1_655
Dy0 S2 2.889885 1_565
Dy0 S3 3.077607 1_554
Dy1 S5 2.693754 1_545
Dy1 S5 2.693754 1_455
Dy1 S3 2.865591 1_545
Dy1 S3 2.865591 1_455
Dy1 S0 2.890419 1_545
Dy1 S0 2.890419 1_455
Dy1 S2 2.999523 1_556
Dy2 S4 2.655334 1_665
Dy2 S5 2.686887 1_554
Dy2 S3 2.713418 1_564
Dy2 S3 2.713418 1_654
Dy2 S2 2.716642 1_565
Dy2 S2 2.716642 1_655
Dy3 S6 2.661622 1_545
Dy3 S6 2.661622 1_455
Dy3 S1 2.701348 1_555
Dy3 S5 2.710287 1_445
Dy3 S0 2.765322 1_545
Dy3 S0 2.765322 1_455
Mn0 S4 2.528473 1_665
Mn0 S6 2.612732 1_565
Mn0 S6 2.612732 1_655
Mn0 S1 2.641414 1_565
Mn0 S1 2.641414 1_655
Mn0 S0 2.669893 1_555
