# generated using pymatgen
data_V2CoO8
_symmetry_space_group_name_H-M   'P 1'
_cell_length_a   5.64544500
_cell_length_b   10.78704100
_cell_length_c   12.23596700
_cell_angle_alpha   90.00000000
_cell_angle_beta   90.00000000
_cell_angle_gamma   90.00000000
_symmetry_Int_Tables_number   1
_chemical_formula_structural   V2CoO8
_chemical_formula_sum   'V8 Co4 O32'
_cell_volume   745.14159513
_cell_formula_units_Z   4
loop_
 _symmetry_equiv_pos_site_id
 _symmetry_equiv_pos_as_xyz
  1  'x, y, z'
loop_
 _atom_site_type_symbol
 _atom_site_label
 _atom_site_symmetry_multiplicity
 _atom_site_fract_x
 _atom_site_fract_y
 _atom_site_fract_z
 _atom_site_occupancy
  V  V0  1  0.67815100  0.47034300  0.33039900  1
  V  V1  1  0.17815100  0.02965700  0.16960100  1
  V  V2  1  0.32184900  0.97034300  0.66960100  1
  V  V3  1  0.82184900  0.52965700  0.83039900  1
  V  V4  1  0.32184900  0.52965700  0.66960100  1
  V  V5  1  0.82184900  0.97034300  0.83039900  1
  V  V6  1  0.67815100  0.02965700  0.33039900  1
  V  V7  1  0.17815100  0.47034300  0.16960100  1
  Co  Co0  1  0.47885700  0.25000000  0.53809300  1
  Co  Co1  1  0.97885700  0.25000000  0.96190700  1
  Co  Co2  1  0.52114300  0.75000000  0.46190700  1
  Co  Co3  1  0.02114300  0.75000000  0.03809300  1
  O  O0  1  0.61901700  0.37447300  0.43492500  1
  O  O1  1  0.11901700  0.12552700  0.06507500  1
  O  O2  1  0.38098300  0.87447300  0.56507500  1
  O  O3  1  0.88098300  0.62552700  0.93492500  1
  O  O4  1  0.38098300  0.62552700  0.56507500  1
  O  O5  1  0.88098300  0.87447300  0.93492500  1
  O  O6  1  0.61901700  0.12552700  0.43492500  1
  O  O7  1  0.11901700  0.37447300  0.06507500  1
  O  O8  1  0.64986200  0.62026700  0.36981700  1
  O  O9  1  0.14986200  0.87973300  0.13018300  1
  O  O10  1  0.35013800  0.12026700  0.63018300  1
  O  O11  1  0.85013800  0.37973300  0.86981700  1
  O  O12  1  0.35013800  0.37973300  0.63018300  1
  O  O13  1  0.85013800  0.12026700  0.86981700  1
  O  O14  1  0.64986200  0.87973300  0.36981700  1
  O  O15  1  0.14986200  0.62026700  0.13018300  1
  O  O16  1  0.47171200  0.44157500  0.22237000  1
  O  O17  1  0.97171200  0.05842500  0.27763000  1
  O  O18  1  0.52828800  0.94157500  0.77763000  1
  O  O19  1  0.02828800  0.55842500  0.72237000  1
  O  O20  1  0.52828800  0.55842500  0.77763000  1
  O  O21  1  0.02828800  0.94157500  0.72237000  1
  O  O22  1  0.47171200  0.05842500  0.22237000  1
  O  O23  1  0.97171200  0.44157500  0.27763000  1
  O  O24  1  0.21595700  0.25000000  0.46490600  1
  O  O25  1  0.71595700  0.25000000  0.03509400  1
  O  O26  1  0.78404300  0.75000000  0.53509400  1
  O  O27  1  0.28404300  0.75000000  0.96490600  1
  O  O28  1  0.74083100  0.25000000  0.61220300  1
  O  O29  1  0.24083100  0.25000000  0.88779700  1
  O  O30  1  0.25916900  0.75000000  0.38779700  1
  O  O31  1  0.75916900  0.75000000  0.11220300  1
loop_
_geom_bond_atom_site_label_1
_geom_bond_atom_site_label_2
_geom_bond_distance
_geom_bond_site_symmetry_2
Co0 O24 1.733424 1_555
Co0 O28 1.734826 1_555
Co0 O10 1.938086 1_555
Co0 O12 1.938086 1_555
Co0 O0 2.005613 1_555
Co0 O6 2.005613 1_555
Co1 O25 1.733424 1_556
Co1 O29 1.734826 1_655
Co1 O11 1.938086 1_555
Co1 O13 1.938086 1_555
Co1 O1 2.005613 1_656
Co1 O7 2.005613 1_656
Co2 O26 1.733424 1_555
Co2 O30 1.734826 1_555
Co2 O8 1.938086 1_555
Co2 O14 1.938086 1_555
Co2 O2 2.005613 1_555
Co2 O4 2.005613 1_555
Co3 O27 1.733424 1_554
Co3 O31 1.734826 1_455
Co3 O15 1.938086 1_555
Co3 O9 1.938086 1_555
Co3 O3 2.005613 1_454
Co3 O5 2.005613 1_454
O0 V0 1.678304 1_555
O1 V1 1.678304 1_555
O2 V2 1.678304 1_555
O3 V3 1.678304 1_555
O4 V4 1.678304 1_555
O5 V5 1.678304 1_555
O6 V6 1.678304 1_555
O7 V7 1.678304 1_555
O8 V0 1.695166 1_555
O9 V1 1.695166 1_565
O10 V2 1.695166 1_545
O11 V3 1.695166 1_555
O12 V4 1.695166 1_555
O13 V5 1.695166 1_545
O14 V6 1.695166 1_565
O15 V7 1.695166 1_555
O16 V0 1.789360 1_555
O16 V7 1.805488 1_555
O17 V1 1.789360 1_655
O17 V6 1.805488 1_555
O18 V2 1.789360 1_555
O18 V5 1.805488 1_555
O19 V3 1.789360 1_455
O19 V4 1.805488 1_555
O20 V4 1.789360 1_555
O20 V3 1.805488 1_555
O21 V5 1.789360 1_455
O21 V2 1.805488 1_555
O22 V6 1.789360 1_555
O22 V1 1.805488 1_555
O23 V7 1.789360 1_655
O23 V0 1.805488 1_555
