# generated using pymatgen
data_Mg30MnCuO32
_symmetry_space_group_name_H-M   'P 1'
_cell_length_a   8.52631700
_cell_length_b   8.52631700
_cell_length_c   8.53856400
_cell_angle_alpha   90.00000000
_cell_angle_beta   90.00000000
_cell_angle_gamma   90.00000000
_symmetry_Int_Tables_number   1
_chemical_formula_structural   Mg30MnCuO32
_chemical_formula_sum   'Mg30 Mn1 Cu1 O32'
_cell_volume   620.73722229
_cell_formula_units_Z   1
loop_
 _symmetry_equiv_pos_site_id
 _symmetry_equiv_pos_as_xyz
  1  'x, y, z'
loop_
 _atom_site_type_symbol
 _atom_site_label
 _atom_site_symmetry_multiplicity
 _atom_site_fract_x
 _atom_site_fract_y
 _atom_site_fract_z
 _atom_site_occupancy
  Mg  Mg0  1  0.00000000  0.50000000  0.00000000  1
  Mg  Mg1  1  0.50000000  0.00000000  0.00000000  1
  Mg  Mg2  1  0.00000000  0.00000000  0.50000000  1
  Mg  Mg3  1  0.00000000  0.50000000  0.50000000  1
  Mg  Mg4  1  0.50000000  0.00000000  0.50000000  1
  Mg  Mg5  1  0.50000000  0.50000000  0.50000000  1
  Mg  Mg6  1  0.25156400  0.25156400  0.00000000  1
  Mg  Mg7  1  0.25156400  0.74843600  0.00000000  1
  Mg  Mg8  1  0.74843600  0.25156400  0.00000000  1
  Mg  Mg9  1  0.74843600  0.74843600  0.00000000  1
  Mg  Mg10  1  0.25024500  0.25024500  0.50000000  1
  Mg  Mg11  1  0.25024500  0.74975500  0.50000000  1
  Mg  Mg12  1  0.74975500  0.25024500  0.50000000  1
  Mg  Mg13  1  0.74975500  0.74975500  0.50000000  1
  Mg  Mg14  1  0.00000000  0.25109800  0.25099100  1
  Mg  Mg15  1  0.00000000  0.74890200  0.25099100  1
  Mg  Mg16  1  0.50000000  0.25085200  0.24970800  1
  Mg  Mg17  1  0.50000000  0.74914800  0.24970800  1
  Mg  Mg18  1  0.00000000  0.25109800  0.74900900  1
  Mg  Mg19  1  0.00000000  0.74890200  0.74900900  1
  Mg  Mg20  1  0.50000000  0.25085200  0.75029200  1
  Mg  Mg21  1  0.50000000  0.74914800  0.75029200  1
  Mg  Mg22  1  0.25109800  0.00000000  0.25099100  1
  Mg  Mg23  1  0.25085200  0.50000000  0.24970800  1
  Mg  Mg24  1  0.74890200  0.00000000  0.25099100  1
  Mg  Mg25  1  0.74914800  0.50000000  0.24970800  1
  Mg  Mg26  1  0.25109800  0.00000000  0.74900900  1
  Mg  Mg27  1  0.25085200  0.50000000  0.75029200  1
  Mg  Mg28  1  0.74890200  0.00000000  0.74900900  1
  Mg  Mg29  1  0.74914800  0.50000000  0.75029200  1
  Mn  Mn0  1  0.00000000  0.00000000  0.00000000  1
  Cu  Cu0  1  0.50000000  0.50000000  0.00000000  1
  O  O0  1  0.00000000  0.00000000  0.25649900  1
  O  O1  1  0.00000000  0.50000000  0.25067400  1
  O  O2  1  0.50000000  0.00000000  0.25067400  1
  O  O3  1  0.50000000  0.50000000  0.25472400  1
  O  O4  1  0.00000000  0.00000000  0.74350100  1
  O  O5  1  0.00000000  0.50000000  0.74932600  1
  O  O6  1  0.50000000  0.00000000  0.74932600  1
  O  O7  1  0.50000000  0.50000000  0.74527600  1
  O  O8  1  0.25005400  0.25005400  0.24953900  1
  O  O9  1  0.25005400  0.74994600  0.24953900  1
  O  O10  1  0.74994600  0.25005400  0.24953900  1
  O  O11  1  0.74994600  0.74994600  0.24953900  1
  O  O12  1  0.25005400  0.25005400  0.75046100  1
  O  O13  1  0.25005400  0.74994600  0.75046100  1
  O  O14  1  0.74994600  0.25005400  0.75046100  1
  O  O15  1  0.74994600  0.74994600  0.75046100  1
  O  O16  1  0.00000000  0.25649600  0.00000000  1
  O  O17  1  0.00000000  0.74350400  0.00000000  1
  O  O18  1  0.50000000  0.24811800  0.00000000  1
  O  O19  1  0.50000000  0.75188200  0.00000000  1
  O  O20  1  0.00000000  0.25074200  0.50000000  1
  O  O21  1  0.00000000  0.74925800  0.50000000  1
  O  O22  1  0.50000000  0.24986900  0.50000000  1
  O  O23  1  0.50000000  0.75013100  0.50000000  1
  O  O24  1  0.25649600  0.00000000  0.00000000  1
  O  O25  1  0.24811800  0.50000000  0.00000000  1
  O  O26  1  0.74350400  0.00000000  0.00000000  1
  O  O27  1  0.75188200  0.50000000  0.00000000  1
  O  O28  1  0.25074200  0.00000000  0.50000000  1
  O  O29  1  0.24986900  0.50000000  0.50000000  1
  O  O30  1  0.74925800  0.00000000  0.50000000  1
  O  O31  1  0.75013100  0.50000000  0.50000000  1
loop_
_geom_bond_atom_site_label_1
_geom_bond_atom_site_label_2
_geom_bond_distance
_geom_bond_site_symmetry_2
Mg0 O16 2.076192 1_555
Mg0 O17 2.076192 1_555
Mg0 O27 2.115533 1_455
Mg0 O25 2.115533 1_555
Mg0 O5 2.140396 1_554
Mg0 O1 2.140396 1_555
Mg1 O24 2.076192 1_555
Mg1 O26 2.076192 1_555
Mg1 O19 2.115533 1_545
Mg1 O18 2.115533 1_555
Mg1 O6 2.140396 1_554
Mg1 O2 2.140396 1_555
Mg2 O4 2.079149 1_555
Mg2 O0 2.079149 1_555
Mg2 O30 2.137906 1_455
Mg2 O21 2.137906 1_545
Mg2 O20 2.137906 1_555
Mg2 O28 2.137906 1_555
Mg3 O21 2.125253 1_555
Mg3 O20 2.125253 1_555
Mg3 O1 2.128886 1_555
Mg3 O5 2.128886 1_555
Mg3 O29 2.130462 1_555
Mg3 O31 2.130462 1_455
Mg4 O30 2.125253 1_555
Mg4 O28 2.125253 1_555
Mg4 O2 2.128886 1_555
Mg4 O6 2.128886 1_555
Mg4 O23 2.130462 1_545
Mg4 O22 2.130462 1_555
Mg5 O3 2.094305 1_555
Mg5 O7 2.094305 1_555
Mg5 O23 2.132696 1_555
Mg5 O22 2.132696 1_555
Mg5 O29 2.132696 1_555
Mg5 O31 2.132696 1_555
Mg6 O25 2.118448 1_555
Mg6 O18 2.118448 1_555
Mg6 O12 2.130783 1_554
Mg6 O8 2.130783 1_555
Mg6 O24 2.145327 1_555
Mg6 O16 2.145327 1_555
Mg7 O25 2.118448 1_555
Mg7 O19 2.118448 1_555
Mg7 O13 2.130783 1_554
Mg7 O9 2.130783 1_555
Mg7 O17 2.145327 1_555
Mg7 O24 2.145327 1_565
Mg8 O18 2.118448 1_555
Mg8 O27 2.118448 1_555
Mg8 O14 2.130783 1_554
Mg8 O10 2.130783 1_555
Mg8 O26 2.145327 1_555
Mg8 O16 2.145327 1_655
Mg9 O19 2.118448 1_555
Mg9 O27 2.118448 1_555
Mg9 O15 2.130783 1_554
Mg9 O11 2.130783 1_555
Mg9 O26 2.145327 1_565
Mg9 O17 2.145327 1_655
Mg10 O22 2.129493 1_555
Mg10 O29 2.129493 1_555
Mg10 O28 2.133672 1_555
Mg10 O20 2.133672 1_555
Mg10 O8 2.138579 1_555
Mg10 O12 2.138579 1_555
Mg11 O29 2.129493 1_555
Mg11 O23 2.129493 1_555
Mg11 O21 2.133672 1_555
Mg11 O28 2.133672 1_565
Mg11 O9 2.138579 1_555
Mg11 O13 2.138579 1_555
Mg12 O22 2.129493 1_555
Mg12 O31 2.129493 1_555
Mg12 O30 2.133672 1_555
Mg12 O20 2.133672 1_655
Mg12 O10 2.138579 1_555
Mg12 O14 2.138579 1_555
Mg13 O23 2.129493 1_555
Mg13 O31 2.129493 1_555
Mg13 O30 2.133672 1_565
Mg13 O21 2.133672 1_655
Mg13 O11 2.138579 1_555
Mg13 O15 2.138579 1_555
Mg14 O1 2.122219 1_555
Mg14 O20 2.126181 1_555
Mg14 O10 2.132094 1_455
Mg14 O8 2.132094 1_555
Mg14 O0 2.141458 1_555
Mg14 O16 2.143597 1_555
Mg15 O1 2.122219 1_555
Mg15 O21 2.126181 1_555
Mg15 O11 2.132094 1_455
Mg15 O9 2.132094 1_555
Mg15 O0 2.141458 1_565
Mg15 O17 2.143597 1_555
Mg16 O3 2.124747 1_555
Mg16 O10 2.131130 1_555
Mg16 O8 2.131130 1_555
Mg16 O18 2.132275 1_555
Mg16 O22 2.137151 1_555
Mg16 O2 2.138860 1_555
Mg17 O3 2.124747 1_555
Mg17 O11 2.131130 1_555
Mg17 O9 2.131130 1_555
Mg17 O19 2.132275 1_555
Mg17 O23 2.137151 1_555
Mg17 O2 2.138860 1_565
Mg18 O5 2.122219 1_555
Mg18 O20 2.126181 1_555
Mg18 O14 2.132094 1_455
Mg18 O12 2.132094 1_555
Mg18 O4 2.141458 1_555
Mg18 O16 2.143597 1_556
Mg19 O5 2.122219 1_555
Mg19 O21 2.126181 1_555
Mg19 O13 2.132094 1_555
Mg19 O15 2.132094 1_455
Mg19 O4 2.141458 1_565
Mg19 O17 2.143597 1_556
Mg20 O7 2.124747 1_555
Mg20 O12 2.131130 1_555
Mg20 O14 2.131130 1_555
Mg20 O18 2.132275 1_556
Mg20 O22 2.137151 1_555
Mg20 O6 2.138860 1_555
Mg21 O7 2.124747 1_555
Mg21 O13 2.131130 1_555
Mg21 O15 2.131130 1_555
Mg21 O19 2.132275 1_556
Mg21 O23 2.137151 1_555
Mg21 O6 2.138860 1_565
Mg22 O2 2.122219 1_555
Mg22 O28 2.126181 1_555
Mg22 O9 2.132094 1_545
Mg22 O8 2.132094 1_555
Mg22 O0 2.141458 1_555
Mg22 O24 2.143597 1_555
Mg23 O3 2.124747 1_555
Mg23 O8 2.131130 1_555
Mg23 O9 2.131130 1_555
Mg23 O25 2.132275 1_555
Mg23 O29 2.137151 1_555
Mg23 O1 2.138860 1_555
Mg24 O2 2.122219 1_555
Mg24 O30 2.126181 1_555
Mg24 O10 2.132094 1_555
Mg24 O11 2.132094 1_545
Mg24 O0 2.141458 1_655
Mg24 O26 2.143597 1_555
Mg25 O3 2.124747 1_555
Mg25 O10 2.131130 1_555
Mg25 O11 2.131130 1_555
Mg25 O27 2.132275 1_555
Mg25 O31 2.137151 1_555
Mg25 O1 2.138860 1_655
Mg26 O6 2.122219 1_555
Mg26 O28 2.126181 1_555
Mg26 O12 2.132094 1_555
Mg26 O13 2.132094 1_545
Mg26 O4 2.141458 1_555
Mg26 O24 2.143597 1_556
Mg27 O7 2.124747 1_555
Mg27 O13 2.131130 1_555
Mg27 O12 2.131130 1_555
Mg27 O25 2.132275 1_556
Mg27 O29 2.137151 1_555
Mg27 O5 2.138860 1_555
Mg28 O6 2.122219 1_555
Mg28 O30 2.126181 1_555
Mg28 O14 2.132094 1_555
Mg28 O15 2.132094 1_545
Mg28 O4 2.141458 1_655
Mg28 O26 2.143597 1_556
Mg29 O7 2.124747 1_555
Mg29 O14 2.131130 1_555
Mg29 O15 2.131130 1_555
Mg29 O27 2.132275 1_556
Mg29 O31 2.137151 1_555
Mg29 O5 2.138860 1_655
Mn0 O17 2.186966 1_545
Mn0 O26 2.186966 1_455
Mn0 O24 2.186966 1_555
Mn0 O16 2.186966 1_555
Mn0 O0 2.190133 1_555
Mn0 O4 2.190133 1_554
Cu0 O25 2.147626 1_555
Cu0 O18 2.147626 1_555
Cu0 O27 2.147626 1_555
Cu0 O19 2.147626 1_555
Cu0 O7 2.174977 1_554
Cu0 O3 2.174977 1_555
