# generated using pymatgen
data_MgMn2O4
_symmetry_space_group_name_H-M   'P 1'
_cell_length_a   6.04913042
_cell_length_b   6.04583960
_cell_length_c   10.45921603
_cell_angle_alpha   91.00193883
_cell_angle_beta   105.92568975
_cell_angle_gamma   119.89096392
_symmetry_Int_Tables_number   1
_chemical_formula_structural   MgMn2O4
_chemical_formula_sum   'Mg4 Mn8 O16'
_cell_volume   313.39836668
_cell_formula_units_Z   4
loop_
 _symmetry_equiv_pos_site_id
 _symmetry_equiv_pos_as_xyz
  1  'x, y, z'
loop_
 _atom_site_type_symbol
 _atom_site_label
 _atom_site_symmetry_multiplicity
 _atom_site_fract_x
 _atom_site_fract_y
 _atom_site_fract_z
 _atom_site_occupancy
  Mg  Mg0  1  0.99343700  0.51840200  0.50091400  1
  Mg  Mg1  1  0.98387300  0.00598700  0.00034300  1
  Mg  Mg2  1  0.37603400  0.43721000  0.81306000  1
  Mg  Mg3  1  0.37297000  0.93970100  0.31239800  1
  Mn  Mn0  1  0.37713900  0.93548600  0.81205700  1
  Mn  Mn1  1  0.37246400  0.43806500  0.31323100  1
  Mn  Mn2  1  0.38121600  0.19258100  0.56248200  1
  Mn  Mn3  1  0.36880600  0.68155800  0.06155300  1
  Mn  Mn4  1  0.87704500  0.43705200  0.81245700  1
  Mn  Mn5  1  0.87469300  0.93902500  0.31282900  1
  Mn  Mn6  1  0.76677200  0.86677400  0.62403800  1
  Mn  Mn7  1  0.75535800  0.36022100  0.12382800  1
  O  O0  1  0.66156600  0.09987700  0.69812400  1
  O  O1  1  0.59552900  0.53798600  0.19728600  1
  O  O2  1  0.08973800  0.77794000  0.92834000  1
  O  O3  1  0.14771900  0.33967000  0.42901600  1
  O  O4  1  0.18243000  0.07420900  0.69123000  1
  O  O5  1  0.16919700  0.56933900  0.19424200  1
  O  O6  1  0.62152000  0.29789100  0.91567300  1
  O  O7  1  0.61273600  0.79527700  0.41353000  1
  O  O8  1  0.62813500  0.52132100  0.69565800  1
  O  O9  1  0.61523000  0.01325600  0.19057500  1
  O  O10  1  0.12269900  0.34580100  0.93128100  1
  O  O11  1  0.13043800  0.85823700  0.43483400  1
  O  O12  1  0.13025900  0.57422500  0.70695700  1
  O  O13  1  0.13015000  0.07975700  0.20689400  1
  O  O14  1  0.57875900  0.80240200  0.93506100  1
  O  O15  1  0.58409000  0.31074600  0.43211000  1
loop_
_geom_bond_atom_site_label_1
_geom_bond_atom_site_label_2
_geom_bond_distance
_geom_bond_site_symmetry_2
Mg0 O3 1.991492 1_655
Mg0 O11 2.013135 1_655
Mg0 O15 2.029182 1_555
Mg0 O12 2.039725 1_655
Mg1 O2 1.996631 1_644
Mg1 O14 2.008129 1_544
Mg1 O10 2.028051 1_654
Mg1 O13 2.042780 1_655
Mg2 O4 2.081640 1_555
Mg2 O14 2.085902 1_555
Mg2 O8 2.090110 1_555
Mg2 O10 2.098197 1_555
Mg2 O6 2.114275 1_555
Mg2 O12 2.117149 1_555
Mg3 O9 2.088981 1_565
Mg3 O11 2.089920 1_555
Mg3 O5 2.092063 1_555
Mg3 O15 2.097576 1_565
Mg3 O7 2.106536 1_555
Mg3 O13 2.115429 1_565
Mn0 O4 1.972954 1_565
Mn0 O14 1.985755 1_555
Mn0 O6 1.992475 1_565
Mn0 O12 1.993276 1_555
Mn0 O0 2.197789 1_565
Mn0 O2 2.226957 1_555
Mn1 O1 1.940997 1_555
Mn1 O3 1.947139 1_555
Mn1 O7 1.957683 1_555
Mn1 O5 1.964197 1_555
Mn1 O15 1.979753 1_555
Mn1 O13 1.983565 1_555
Mn2 O4 1.958588 1_555
Mn2 O11 1.976766 1_545
Mn2 O8 1.980902 1_555
Mn2 O15 1.988559 1_555
Mn2 O0 2.204014 1_555
Mn2 O3 2.224367 1_555
Mn3 O9 1.971462 1_565
Mn3 O14 1.981964 1_554
Mn3 O10 1.992863 1_554
Mn3 O5 1.995082 1_555
Mn3 O1 2.193392 1_555
Mn3 O2 2.201967 1_554
Mn4 O0 1.922378 1_555
Mn4 O2 1.945741 1_655
Mn4 O8 1.948324 1_555
Mn4 O10 1.970963 1_655
Mn4 O6 1.978340 1_555
Mn4 O12 1.986200 1_655
Mn5 O9 1.980055 1_565
Mn5 O7 1.987700 1_555
Mn5 O11 1.987916 1_655
Mn5 O13 2.000409 1_665
Mn5 O3 2.209076 1_665
Mn5 O1 2.210783 1_555
Mn6 O0 2.029274 1_565
Mn6 O4 2.060413 1_665
Mn6 O8 2.068866 1_555
Mn6 O7 2.083791 1_555
Mn7 O1 2.023500 1_555
Mn7 O5 2.051534 1_655
Mn7 O9 2.051810 1_555
Mn7 O6 2.058477 1_554
