# generated using pymatgen
data_Tb2Al5Ge2
_symmetry_space_group_name_H-M   'P 1'
_cell_length_a   8.25473987
_cell_length_b   8.25473987
_cell_length_c   8.03839800
_cell_angle_alpha   90.00000000
_cell_angle_beta   90.00000000
_cell_angle_gamma   139.13529328
_symmetry_Int_Tables_number   1
_chemical_formula_structural   Tb2Al5Ge2
_chemical_formula_sum   'Tb4 Al10 Ge4'
_cell_volume   358.37415248
_cell_formula_units_Z   2
loop_
 _symmetry_equiv_pos_site_id
 _symmetry_equiv_pos_as_xyz
  1  'x, y, z'
loop_
 _atom_site_type_symbol
 _atom_site_label
 _atom_site_symmetry_multiplicity
 _atom_site_fract_x
 _atom_site_fract_y
 _atom_site_fract_z
 _atom_site_occupancy
  Tb  Tb0  1  0.88245400  0.11754600  0.41897200  1
  Tb  Tb1  1  0.11754600  0.88245400  0.58102800  1
  Tb  Tb2  1  0.61754600  0.38245400  0.91897200  1
  Tb  Tb3  1  0.38245400  0.61754600  0.08102800  1
  Al  Al0  1  0.79725900  0.70274100  0.25000000  1
  Al  Al1  1  0.20274100  0.29725900  0.75000000  1
  Al  Al2  1  0.70274100  0.79725900  0.75000000  1
  Al  Al3  1  0.29725900  0.20274100  0.25000000  1
  Al  Al4  1  0.00000000  0.00000000  0.00000000  1
  Al  Al5  1  0.50000000  0.50000000  0.50000000  1
  Al  Al6  1  0.96632900  0.53367100  0.25000000  1
  Al  Al7  1  0.03367100  0.46632900  0.75000000  1
  Al  Al8  1  0.53367100  0.96632900  0.75000000  1
  Al  Al9  1  0.46632900  0.03367100  0.25000000  1
  Ge  Ge0  1  0.81844900  0.18155100  0.04830100  1
  Ge  Ge1  1  0.18155100  0.81844900  0.95169900  1
  Ge  Ge2  1  0.68155100  0.31844900  0.54830100  1
  Ge  Ge3  1  0.31844900  0.68155100  0.45169900  1
loop_
_geom_bond_atom_site_label_1
_geom_bond_atom_site_label_2
_geom_bond_distance
_geom_bond_site_symmetry_2
Al0 Al5 2.578595 1_555
Al0 Al4 2.578595 1_665
Al0 Al6 2.615646 1_555
Al0 Al3 2.881740 1_555
Al0 Al3 2.881740 1_665
Al0 Tb1 3.215448 1_655
Al0 Tb2 3.215448 1_554
Al0 Tb0 3.228276 1_565
Al0 Tb3 3.228276 1_555
Al1 Al5 2.578595 1_555
Al1 Al4 2.578595 1_556
Al1 Al7 2.615646 1_555
Al1 Al2 2.881740 1_555
Al1 Al2 2.881740 1_445
Al1 Tb3 3.215448 1_556
Al1 Tb0 3.215448 1_455
Al1 Tb2 3.228276 1_555
Al1 Tb1 3.228276 1_545
Al2 Al5 2.578595 1_555
Al2 Al4 2.578595 1_666
Al2 Al8 2.615646 1_555
Al2 Tb3 3.215448 1_556
Al2 Tb0 3.215448 1_565
Al2 Tb1 3.228276 1_655
Al2 Tb2 3.228276 1_555
Al3 Al4 2.578595 1_555
Al3 Al5 2.578595 1_555
Al3 Al9 2.615646 1_555
Al3 Tb2 3.215448 1_554
Al3 Tb1 3.215448 1_545
Al3 Tb0 3.228276 1_455
Al3 Tb3 3.228276 1_555
Al4 Ge1 2.835445 1_544
Al4 Ge0 2.835445 1_455
Al4 Tb3 3.469252 1_555
Al4 Tb2 3.469252 1_554
Al4 Tb2 3.469252 1_444
Al4 Tb3 3.469252 1_445
Al5 Ge2 2.835445 1_555
Al5 Ge3 2.835445 1_555
Al5 Tb1 3.469252 1_655
Al5 Tb1 3.469252 1_545
Al5 Tb0 3.469252 1_565
Al5 Tb0 3.469252 1_455
Al6 Ge3 2.683440 1_655
Al6 Ge0 2.683440 1_555
Al6 Ge2 2.848744 1_555
Al6 Ge1 2.848744 1_654
Al6 Al9 2.881740 1_555
Al6 Al9 2.881740 1_665
Al6 Tb0 3.244429 1_555
Al6 Tb3 3.244429 1_655
Al6 Tb1 3.390019 1_655
Al6 Tb2 3.390019 1_554
Al7 Ge1 2.683440 1_555
Al7 Ge2 2.683440 1_455
Al7 Ge0 2.848744 1_456
Al7 Ge3 2.848744 1_555
Al7 Al8 2.881740 1_445
Al7 Al8 2.881740 1_555
Al7 Tb1 3.244429 1_555
Al7 Tb2 3.244429 1_455
Al7 Tb3 3.390019 1_556
Al7 Tb0 3.390019 1_455
Al8 Ge1 2.683440 1_555
Al8 Ge2 2.683440 1_565
Al8 Ge0 2.848744 1_566
Al8 Ge3 2.848744 1_555
Al8 Tb2 3.244429 1_565
Al8 Tb1 3.244429 1_555
Al8 Tb3 3.390019 1_556
Al8 Tb0 3.390019 1_565
Al9 Ge3 2.683440 1_545
Al9 Ge0 2.683440 1_555
Al9 Ge2 2.848744 1_555
Al9 Ge1 2.848744 1_544
Al9 Tb0 3.244429 1_555
Al9 Tb3 3.244429 1_545
Al9 Tb2 3.390019 1_554
Al9 Tb1 3.390019 1_545
Ge0 Tb3 3.058454 1_655
Ge0 Tb3 3.058454 1_545
Ge0 Tb0 3.139830 1_555
Ge0 Tb2 3.277380 1_554
Ge1 Tb2 3.058454 1_565
Ge1 Tb2 3.058454 1_455
Ge1 Tb1 3.139830 1_555
Ge1 Tb3 3.277380 1_556
Ge2 Tb1 3.058454 1_655
Ge2 Tb1 3.058454 1_545
Ge2 Tb2 3.139830 1_555
Ge2 Tb0 3.277380 1_555
Ge3 Tb0 3.058454 1_565
Ge3 Tb0 3.058454 1_455
Ge3 Tb3 3.139830 1_555
Ge3 Tb1 3.277380 1_555
