# generated using pymatgen
data_Tb2MgSe4
_symmetry_space_group_name_H-M   'P 1'
_cell_length_a   8.24471891
_cell_length_b   8.24471875
_cell_length_c   8.24471828
_cell_angle_alpha   59.99914297
_cell_angle_beta   59.99914306
_cell_angle_gamma   59.99913880
_symmetry_Int_Tables_number   1
_chemical_formula_structural   Tb2MgSe4
_chemical_formula_sum   'Tb4 Mg2 Se8'
_cell_volume   396.28174730
_cell_formula_units_Z   2
loop_
 _symmetry_equiv_pos_site_id
 _symmetry_equiv_pos_as_xyz
  1  'x, y, z'
loop_
 _atom_site_type_symbol
 _atom_site_label
 _atom_site_symmetry_multiplicity
 _atom_site_fract_x
 _atom_site_fract_y
 _atom_site_fract_z
 _atom_site_occupancy
  Tb  Tb0  1  0.62499935  0.12500178  0.62499947  1
  Tb  Tb1  1  0.62499938  0.62499946  0.12500177  1
  Tb  Tb2  1  0.12500169  0.62499945  0.62499942  1
  Tb  Tb3  1  0.62499944  0.62499946  0.62499947  1
  Mg  Mg0  1  0.00000217  0.00000227  0.00000225  1
  Mg  Mg1  1  0.24999784  0.24999765  0.24999763  1
  Se  Se0  1  0.37918700  0.37918695  0.37918706  1
  Se  Se1  1  0.86244611  0.37918551  0.37918552  1
  Se  Se2  1  0.37918552  0.86244611  0.37918550  1
  Se  Se3  1  0.37918554  0.37918543  0.86244613  1
  Se  Se4  1  0.87066660  0.87066658  0.38799763  1
  Se  Se5  1  0.87066660  0.38799763  0.87066653  1
  Se  Se6  1  0.38799764  0.87066662  0.87066655  1
  Se  Se7  1  0.87066512  0.87066511  0.87066506  1
loop_
_geom_bond_atom_site_label_1
_geom_bond_atom_site_label_2
_geom_bond_distance
_geom_bond_site_symmetry_2
Mg0 Se5 2.611873 1_454
Mg0 Se4 2.611873 1_445
Mg0 Se6 2.611874 1_544
Mg0 Se7 2.612026 1_444
Mg1 Se3 2.608885 1_554
Mg1 Se2 2.608885 1_545
Mg1 Se1 2.608887 1_455
Mg1 Se0 2.609040 1_555
Se0 Tb0 2.866933 1_555
Se0 Tb2 2.866933 1_555
Se0 Tb1 2.866934 1_555
Se1 Tb3 2.866952 1_555
Se1 Tb1 2.866966 1_555
Se1 Tb0 2.866967 1_555
Se2 Tb3 2.866952 1_555
Se2 Tb1 2.866966 1_555
Se2 Tb2 2.866967 1_555
Se3 Tb3 2.866953 1_555
Se3 Tb0 2.866965 1_555
Se3 Tb2 2.866967 1_555
Se4 Tb3 2.865302 1_555
Se4 Tb2 2.865316 1_655
Se4 Tb0 2.865316 1_565
Se5 Tb3 2.865301 1_555
Se5 Tb2 2.865316 1_655
Se5 Tb1 2.865317 1_556
Se6 Tb3 2.865301 1_555
Se6 Tb0 2.865316 1_565
Se6 Tb1 2.865316 1_556
Se7 Tb2 2.865283 1_655
Se7 Tb0 2.865283 1_565
Se7 Tb1 2.865283 1_556
