# generated using pymatgen
data_C3N4
_symmetry_space_group_name_H-M   'P 1'
_cell_length_a   14.96745502
_cell_length_b   14.96745502
_cell_length_c   4.26307400
_cell_angle_alpha   90.00000000
_cell_angle_beta   90.00000000
_cell_angle_gamma   119.99999569
_symmetry_Int_Tables_number   1
_chemical_formula_structural   C3N4
_chemical_formula_sum   'C24 N32'
_cell_volume   827.08366885
_cell_formula_units_Z   8
loop_
 _symmetry_equiv_pos_site_id
 _symmetry_equiv_pos_as_xyz
  1  'x, y, z'
loop_
 _atom_site_type_symbol
 _atom_site_label
 _atom_site_symmetry_multiplicity
 _atom_site_fract_x
 _atom_site_fract_y
 _atom_site_fract_z
 _atom_site_occupancy
  C  C0_0  1  0.30526550  0.38987700  0.25000000  1
  C  C0_1  1  0.30526550  0.38987700  0.75000000  1
  C  C0_2  1  0.30526550  0.88987700  0.25000000  1
  C  C0_3  1  0.30526550  0.88987700  0.75000000  1
  C  C0_4  1  0.80526550  0.38987700  0.25000000  1
  C  C0_5  1  0.80526550  0.38987700  0.75000000  1
  C  C0_6  1  0.80526550  0.88987700  0.25000000  1
  C  C0_7  1  0.80526550  0.88987700  0.75000000  1
  C  C1_0  1  0.11012300  0.41538800  0.25000000  1
  C  C1_1  1  0.11012300  0.41538800  0.75000000  1
  C  C1_2  1  0.11012300  0.91538800  0.25000000  1
  C  C1_3  1  0.11012300  0.91538800  0.75000000  1
  C  C1_4  1  0.61012300  0.41538800  0.25000000  1
  C  C1_5  1  0.61012300  0.41538800  0.75000000  1
  C  C1_6  1  0.61012300  0.91538800  0.25000000  1
  C  C1_7  1  0.61012300  0.91538800  0.75000000  1
  C  C2_0  1  0.08461200  0.19473450  0.25000000  1
  C  C2_1  1  0.08461200  0.19473450  0.75000000  1
  C  C2_2  1  0.08461200  0.69473450  0.25000000  1
  C  C2_3  1  0.08461200  0.69473450  0.75000000  1
  C  C2_4  1  0.58461200  0.19473450  0.25000000  1
  C  C2_5  1  0.58461200  0.19473450  0.75000000  1
  C  C2_6  1  0.58461200  0.69473450  0.25000000  1
  C  C2_7  1  0.58461200  0.69473450  0.75000000  1
  N  N0_0  1  0.33333350  0.16666650  0.00000000  1
  N  N0_1  1  0.33333350  0.16666650  0.50000000  1
  N  N0_2  1  0.33333350  0.66666650  0.00000000  1
  N  N0_3  1  0.33333350  0.66666650  0.50000000  1
  N  N0_4  1  0.83333350  0.16666650  0.00000000  1
  N  N0_5  1  0.83333350  0.16666650  0.50000000  1
  N  N0_6  1  0.83333350  0.66666650  0.00000000  1
  N  N0_7  1  0.83333350  0.66666650  0.50000000  1
  N  N1_0  1  0.36861400  0.36125400  0.25000000  1
  N  N1_1  1  0.36861400  0.36125400  0.75000000  1
  N  N1_2  1  0.36861400  0.86125400  0.25000000  1
  N  N1_3  1  0.36861400  0.86125400  0.75000000  1
  N  N1_4  1  0.86861400  0.36125400  0.25000000  1
  N  N1_5  1  0.86861400  0.36125400  0.75000000  1
  N  N1_6  1  0.86861400  0.86125400  0.25000000  1
  N  N1_7  1  0.86861400  0.86125400  0.75000000  1
  N  N2_0  1  0.13874600  0.00736000  0.25000000  1
  N  N2_1  1  0.13874600  0.00736000  0.75000000  1
  N  N2_2  1  0.13874600  0.50736000  0.25000000  1
  N  N2_3  1  0.13874600  0.50736000  0.75000000  1
  N  N2_4  1  0.63874600  0.00736000  0.25000000  1
  N  N2_5  1  0.63874600  0.00736000  0.75000000  1
  N  N2_6  1  0.63874600  0.50736000  0.25000000  1
  N  N2_7  1  0.63874600  0.50736000  0.75000000  1
  N  N3_0  1  0.49264000  0.13138600  0.25000000  1
  N  N3_1  1  0.49264000  0.13138600  0.75000000  1
  N  N3_2  1  0.49264000  0.63138600  0.25000000  1
  N  N3_3  1  0.49264000  0.63138600  0.75000000  1
  N  N3_4  1  0.99264000  0.13138600  0.25000000  1
  N  N3_5  1  0.99264000  0.13138600  0.75000000  1
  N  N3_6  1  0.99264000  0.63138600  0.25000000  1
  N  N3_7  1  0.99264000  0.63138600  0.75000000  1
loop_
_geom_bond_atom_site_label_1
_geom_bond_atom_site_label_2
_geom_bond_distance
_geom_bond_site_symmetry_2
C0_0 N1_0 1.220149 1_555
C0_1 N1_1 1.220149 1_555
C0_2 N1_2 1.220149 1_555
C0_3 N1_3 1.220149 1_555
C0_4 N1_4 1.220149 1_555
C0_5 N1_5 1.220149 1_555
C0_6 N1_6 1.220149 1_555
C0_7 N1_7 1.220149 1_555
C1_0 N2_2 1.220156 1_555
C1_1 N2_3 1.220156 1_555
C1_2 N2_0 1.220156 1_565
C1_3 N2_1 1.220156 1_565
C1_4 N2_6 1.220156 1_555
C1_5 N2_7 1.220156 1_555
C1_6 N2_4 1.220156 1_565
C1_7 N2_5 1.220156 1_565
C2_0 N3_4 1.220155 1_455
C2_1 N3_5 1.220155 1_455
C2_2 N3_6 1.220155 1_455
C2_3 N3_7 1.220155 1_455
C2_4 N3_0 1.220155 1_555
C2_5 N3_1 1.220155 1_555
C2_6 N3_2 1.220155 1_555
C2_7 N3_3 1.220155 1_555
N0_0 N0_1 2.131537 1_554
N0_0 N0_1 2.131537 1_555
N0_2 N0_3 2.131537 1_554
N0_2 N0_3 2.131537 1_555
N0_4 N0_5 2.131537 1_554
N0_4 N0_5 2.131537 1_555
N0_6 N0_7 2.131537 1_554
N0_6 N0_7 2.131537 1_555
