# generated using pymatgen
data_Sn5O7
_symmetry_space_group_name_H-M   'P 1'
_cell_length_a   6.80652650
_cell_length_b   6.80652650
_cell_length_c   19.29041000
_cell_angle_alpha   90.00000000
_cell_angle_beta   90.00000000
_cell_angle_gamma   152.10509639
_symmetry_Int_Tables_number   1
_chemical_formula_structural   Sn5O7
_chemical_formula_sum   'Sn10 O14'
_cell_volume   418.11937024
_cell_formula_units_Z   2
loop_
 _symmetry_equiv_pos_site_id
 _symmetry_equiv_pos_as_xyz
  1  'x, y, z'
loop_
 _atom_site_type_symbol
 _atom_site_label
 _atom_site_symmetry_multiplicity
 _atom_site_fract_x
 _atom_site_fract_y
 _atom_site_fract_z
 _atom_site_occupancy
  Sn  Sn0  1  0.73794700  0.26205300  0.57652300  1
  Sn  Sn1  1  0.00000000  0.00000000  0.50000000  1
  Sn  Sn2  1  0.00000000  0.00000000  0.00000000  1
  Sn  Sn3  1  0.26205300  0.73794700  0.42347700  1
  Sn  Sn4  1  0.26205300  0.73794700  0.07652300  1
  Sn  Sn5  1  0.73794700  0.26205300  0.92347700  1
  Sn  Sn6  1  0.54275400  0.45724600  0.15200700  1
  Sn  Sn7  1  0.45724600  0.54275400  0.84799300  1
  Sn  Sn8  1  0.45724600  0.54275400  0.65200700  1
  Sn  Sn9  1  0.54275400  0.45724600  0.34799300  1
  O  O0  1  0.32738300  0.67261700  0.97505100  1
  O  O1  1  0.67261700  0.32738300  0.02494900  1
  O  O2  1  0.67261700  0.32738300  0.47505100  1
  O  O3  1  0.32738300  0.67261700  0.52494900  1
  O  O4  1  0.84911300  0.15088700  0.84785700  1
  O  O5  1  0.15088700  0.84911300  0.15214300  1
  O  O6  1  0.15088700  0.84911300  0.34785700  1
  O  O7  1  0.84911300  0.15088700  0.65214300  1
  O  O8  1  0.15191000  0.84809000  0.89765300  1
  O  O9  1  0.84809000  0.15191000  0.10234700  1
  O  O10  1  0.84809000  0.15191000  0.39765300  1
  O  O11  1  0.15191000  0.84809000  0.60234700  1
  O  O12  1  0.50180400  0.49819600  0.75000000  1
  O  O13  1  0.49819600  0.50180400  0.25000000  1
loop_
_geom_bond_atom_site_label_1
_geom_bond_atom_site_label_2
_geom_bond_distance
_geom_bond_site_symmetry_2
O0 Sn4 2.139284 1_556
O0 Sn5 2.253333 1_565
O0 Sn5 2.253333 1_455
O1 Sn5 2.139284 1_554
O1 Sn4 2.253333 1_655
O1 Sn4 2.253333 1_545
O2 Sn0 2.139284 1_555
O2 Sn3 2.253333 1_655
O2 Sn3 2.253333 1_545
O3 Sn3 2.139284 1_555
O3 Sn0 2.253333 1_565
O3 Sn0 2.253333 1_455
O4 Sn5 2.070020 1_555
O4 Sn7 2.175431 1_545
O4 Sn7 2.175431 1_655
O5 Sn4 2.070020 1_555
O5 Sn6 2.175431 1_455
O5 Sn6 2.175431 1_565
O6 Sn3 2.070020 1_555
O6 Sn9 2.175431 1_455
O6 Sn9 2.175431 1_565
O7 Sn0 2.070020 1_555
O7 Sn8 2.175431 1_545
O7 Sn8 2.175431 1_655
O8 Sn5 2.057127 1_455
O8 Sn5 2.057127 1_565
O9 Sn4 2.057127 1_655
O9 Sn4 2.057127 1_545
O10 Sn3 2.057127 1_545
O10 Sn3 2.057127 1_655
O11 Sn0 2.057127 1_455
O11 Sn0 2.057127 1_565
O12 Sn8 1.979869 1_555
O12 Sn7 1.979869 1_555
O13 Sn6 1.979869 1_555
O13 Sn9 1.979869 1_555
