# generated using pymatgen
data_MnPb(SO4)2
_symmetry_space_group_name_H-M   'P 1'
_cell_length_a   6.85879000
_cell_length_b   6.85879000
_cell_length_c   13.98894400
_cell_angle_alpha   90.00000000
_cell_angle_beta   90.00000000
_cell_angle_gamma   90.00000000
_symmetry_Int_Tables_number   1
_chemical_formula_structural   MnPb(SO4)2
_chemical_formula_sum   'Mn4 Pb4 S8 O32'
_cell_volume   658.08189629
_cell_formula_units_Z   4
loop_
 _symmetry_equiv_pos_site_id
 _symmetry_equiv_pos_as_xyz
  1  'x, y, z'
loop_
 _atom_site_type_symbol
 _atom_site_label
 _atom_site_symmetry_multiplicity
 _atom_site_fract_x
 _atom_site_fract_y
 _atom_site_fract_z
 _atom_site_occupancy
  Mn  Mn0  1  0.33363700  0.66636300  0.25000000  1
  Mn  Mn1  1  0.66636300  0.33363700  0.75000000  1
  Mn  Mn2  1  0.16636300  0.16636300  0.50000000  1
  Mn  Mn3  1  0.83363700  0.83363700  0.00000000  1
  Pb  Pb0  1  0.75029600  0.24970400  0.25000000  1
  Pb  Pb1  1  0.24970400  0.75029600  0.75000000  1
  Pb  Pb2  1  0.74970400  0.74970400  0.50000000  1
  Pb  Pb3  1  0.25029600  0.25029600  0.00000000  1
  S  S0  1  0.67377900  0.25339300  0.50708500  1
  S  S1  1  0.32622100  0.74660700  0.00708500  1
  S  S2  1  0.75339300  0.82622100  0.75708500  1
  S  S3  1  0.24660700  0.17377900  0.25708500  1
  S  S4  1  0.74660700  0.32622100  0.99291500  1
  S  S5  1  0.25339300  0.67377900  0.49291500  1
  S  S6  1  0.82622100  0.75339300  0.24291500  1
  S  S7  1  0.17377900  0.24660700  0.74291500  1
  O  O0  1  0.83979600  0.11083700  0.51289300  1
  O  O1  1  0.16020400  0.88916300  0.01289300  1
  O  O2  1  0.61083700  0.66020400  0.76289300  1
  O  O3  1  0.38916300  0.33979600  0.26289300  1
  O  O4  1  0.88916300  0.16020400  0.98710700  1
  O  O5  1  0.11083700  0.83979600  0.48710700  1
  O  O6  1  0.66020400  0.61083700  0.23710700  1
  O  O7  1  0.33979600  0.38916300  0.73710700  1
  O  O8  1  0.67082800  0.37597900  0.59487600  1
  O  O9  1  0.32917200  0.62402100  0.09487600  1
  O  O10  1  0.87597900  0.82917200  0.84487600  1
  O  O11  1  0.12402100  0.17082800  0.34487600  1
  O  O12  1  0.62402100  0.32917200  0.90512400  1
  O  O13  1  0.37597900  0.67082800  0.40512400  1
  O  O14  1  0.82917200  0.87597900  0.15512400  1
  O  O15  1  0.17082800  0.12402100  0.65512400  1
  O  O16  1  0.49089100  0.13975800  0.49559900  1
  O  O17  1  0.50910900  0.86024200  0.99559900  1
  O  O18  1  0.63975800  0.00910900  0.74559900  1
  O  O19  1  0.36024200  0.99089100  0.24559900  1
  O  O20  1  0.86024200  0.50910900  0.00440100  1
  O  O21  1  0.13975800  0.49089100  0.50440100  1
  O  O22  1  0.00910900  0.63975800  0.25440100  1
  O  O23  1  0.99089100  0.36024200  0.75440100  1
  O  O24  1  0.70746700  0.38453400  0.42371400  1
  O  O25  1  0.29253300  0.61546600  0.92371400  1
  O  O26  1  0.88453400  0.79253300  0.67371400  1
  O  O27  1  0.11546600  0.20746700  0.17371400  1
  O  O28  1  0.61546600  0.29253300  0.07628600  1
  O  O29  1  0.38453400  0.70746700  0.57628600  1
  O  O30  1  0.79253300  0.88453400  0.32628600  1
  O  O31  1  0.20746700  0.11546600  0.82628600  1
loop_
_geom_bond_atom_site_label_1
_geom_bond_atom_site_label_2
_geom_bond_distance
_geom_bond_site_symmetry_2
Mn0 O9 2.189582 1_555
Mn0 O13 2.189582 1_555
Mn0 O19 2.234185 1_555
Mn0 O22 2.234185 1_555
Mn0 O6 2.279148 1_555
Mn0 O3 2.279148 1_555
Mn1 O8 2.189582 1_555
Mn1 O12 2.189582 1_555
Mn1 O23 2.234185 1_555
Mn1 O18 2.234185 1_555
Mn1 O7 2.279148 1_555
Mn1 O2 2.279148 1_555
Mn2 O11 2.189582 1_555
Mn2 O15 2.189582 1_555
Mn2 O16 2.234185 1_555
Mn2 O21 2.234185 1_555
Mn2 O0 2.279148 1_455
Mn2 O5 2.279148 1_545
Mn3 O14 2.189582 1_555
Mn3 O10 2.189582 1_554
Mn3 O20 2.234185 1_555
Mn3 O17 2.234185 1_554
Mn3 O4 2.279148 1_564
Mn3 O1 2.279148 1_655
O0 S0 1.503064 1_555
O0 Pb2 2.559212 1_545
O1 S1 1.503064 1_555
O1 Pb3 2.559212 1_565
O2 S2 1.503064 1_555
O2 Pb1 2.559212 1_555
O3 S3 1.503064 1_555
O3 Pb0 2.559212 1_555
O4 S4 1.503064 1_555
O4 Pb3 2.559212 1_656
O5 S5 1.503064 1_555
O5 Pb2 2.559212 1_455
O6 S6 1.503064 1_555
O6 Pb0 2.559212 1_555
O7 S7 1.503064 1_555
O7 Pb1 2.559212 1_555
O8 S0 1.488482 1_555
O9 S1 1.488482 1_555
O10 S2 1.488482 1_555
O11 S3 1.488482 1_555
O12 S4 1.488482 1_555
O13 S5 1.488482 1_555
O14 S6 1.488482 1_555
O15 S7 1.488482 1_555
O16 S0 1.485522 1_555
O17 S1 1.485522 1_556
O18 S2 1.485522 1_545
O19 S3 1.485522 1_565
O20 S4 1.485522 1_554
O21 S5 1.485522 1_555
O22 S6 1.485522 1_455
O23 S7 1.485522 1_655
O24 S0 1.490846 1_555
O24 Pb0 2.616631 1_555
O24 Pb2 2.737864 1_555
O25 S1 1.490846 1_556
O25 Pb1 2.616631 1_555
O25 Pb3 2.737864 1_556
O26 S2 1.490846 1_555
O26 Pb2 2.616631 1_555
O26 Pb1 2.737864 1_655
O27 S3 1.490846 1_555
O27 Pb3 2.616631 1_555
O27 Pb0 2.737864 1_455
O28 S4 1.490846 1_554
O28 Pb0 2.616631 1_555
O28 Pb3 2.737864 1_555
O29 S5 1.490846 1_555
O29 Pb1 2.616631 1_555
O29 Pb2 2.737864 1_555
O30 S6 1.490846 1_555
O30 Pb2 2.616631 1_555
O30 Pb0 2.737864 1_565
O31 S7 1.490846 1_555
O31 Pb3 2.616631 1_556
O31 Pb1 2.737864 1_545
