# generated using pymatgen
data_K3Zn(BO2)5
_symmetry_space_group_name_H-M   'P 1'
_cell_length_a   19.48901300
_cell_length_b   7.77167400
_cell_length_c   8.18119973
_cell_angle_alpha   58.55152786
_cell_angle_beta   90.00000000
_cell_angle_gamma   90.00000000
_symmetry_Int_Tables_number   1
_chemical_formula_structural   K3Zn(BO2)5
_chemical_formula_sum   'K12 Zn4 B20 O40'
_cell_volume   1057.12490606
_cell_formula_units_Z   4
loop_
 _symmetry_equiv_pos_site_id
 _symmetry_equiv_pos_as_xyz
  1  'x, y, z'
loop_
 _atom_site_type_symbol
 _atom_site_label
 _atom_site_symmetry_multiplicity
 _atom_site_fract_x
 _atom_site_fract_y
 _atom_site_fract_z
 _atom_site_occupancy
  K  K0  1  0.57911600  0.33777000  0.01307700  1
  K  K1  1  0.92088400  0.33777000  0.51307700  1
  K  K2  1  0.42088400  0.66223000  0.98692300  1
  K  K3  1  0.07911600  0.66223000  0.48692300  1
  K  K4  1  0.56266100  0.31997900  0.46984900  1
  K  K5  1  0.93733900  0.31997900  0.96984900  1
  K  K6  1  0.43733900  0.68002100  0.53015100  1
  K  K7  1  0.06266100  0.68002100  0.03015100  1
  K  K8  1  0.75370900  0.75893600  0.77712800  1
  K  K9  1  0.74629100  0.75893600  0.27712800  1
  K  K10  1  0.24629100  0.24106400  0.22287200  1
  K  K11  1  0.25370900  0.24106400  0.72287200  1
  Zn  Zn0  1  0.60699600  0.82719300  0.49495400  1
  Zn  Zn1  1  0.89300400  0.82719300  0.99495400  1
  Zn  Zn2  1  0.39300400  0.17280700  0.50504600  1
  Zn  Zn3  1  0.10699600  0.17280700  0.00504600  1
  B  B0  1  0.57871900  0.82582400  0.14411500  1
  B  B1  1  0.92128100  0.82582400  0.64411500  1
  B  B2  1  0.42128100  0.17417600  0.85588500  1
  B  B3  1  0.07871900  0.17417600  0.35588500  1
  B  B4  1  0.66148300  0.05343800  0.87487900  1
  B  B5  1  0.83851700  0.05343800  0.37487900  1
  B  B6  1  0.33851700  0.94656200  0.12512100  1
  B  B7  1  0.16148300  0.94656200  0.62512100  1
  B  B8  1  0.71217100  0.15798800  0.32779600  1
  B  B9  1  0.78782900  0.15798800  0.82779600  1
  B  B10  1  0.28782900  0.84201200  0.67220400  1
  B  B11  1  0.21217100  0.84201200  0.17220400  1
  B  B12  1  0.57752900  0.82447000  0.84040500  1
  B  B13  1  0.92247100  0.82447000  0.34040500  1
  B  B14  1  0.42247100  0.17553000  0.15959500  1
  B  B15  1  0.07752900  0.17553000  0.65959500  1
  B  B16  1  0.69670700  0.42094800  0.69481100  1
  B  B17  1  0.80329300  0.42094800  0.19481100  1
  B  B18  1  0.30329300  0.57905200  0.30518900  1
  B  B19  1  0.19670700  0.57905200  0.80518900  1
  O  O0  1  0.64487600  0.10883400  0.35354400  1
  O  O1  1  0.85512400  0.10883400  0.85354400  1
  O  O2  1  0.35512400  0.89116600  0.64645600  1
  O  O3  1  0.14487600  0.89116600  0.14645600  1
  O  O4  1  0.55550900  0.75298500  0.32449300  1
  O  O5  1  0.94449100  0.75298500  0.82449300  1
  O  O6  1  0.44449100  0.24701500  0.67550700  1
  O  O7  1  0.05550900  0.24701500  0.17550700  1
  O  O8  1  0.68027000  0.61697000  0.60668800  1
  O  O9  1  0.81973000  0.61697000  0.10668800  1
  O  O10  1  0.31973000  0.38303000  0.39331200  1
  O  O11  1  0.18027000  0.38303000  0.89331200  1
  O  O12  1  0.86997500  0.96924700  0.56632400  1
  O  O13  1  0.63002500  0.96924700  0.06632400  1
  O  O14  1  0.13002500  0.03075300  0.43367600  1
  O  O15  1  0.36997500  0.03075300  0.93367600  1
  O  O16  1  0.54955200  0.75867600  0.73075500  1
  O  O17  1  0.95044800  0.75867600  0.23075500  1
  O  O18  1  0.45044800  0.24132400  0.26924500  1
  O  O19  1  0.04955200  0.24132400  0.76924500  1
  O  O20  1  0.73256800  0.36479100  0.22320200  1
  O  O21  1  0.76743200  0.36479100  0.72320200  1
  O  O22  1  0.26743200  0.63520900  0.77679800  1
  O  O23  1  0.23256800  0.63520900  0.27679800  1
  O  O24  1  0.64685700  0.27218500  0.76063500  1
  O  O25  1  0.85314300  0.27218500  0.26063500  1
  O  O26  1  0.35314300  0.72781500  0.23936500  1
  O  O27  1  0.14685700  0.72781500  0.73936500  1
  O  O28  1  0.73599000  0.01505700  0.89794100  1
  O  O29  1  0.76401000  0.01505700  0.39794100  1
  O  O30  1  0.26401000  0.98494300  0.10205900  1
  O  O31  1  0.23599000  0.98494300  0.60205900  1
  O  O32  1  0.44785600  0.24966900  0.96992300  1
  O  O33  1  0.05214400  0.24966900  0.46992300  1
  O  O34  1  0.55214400  0.75033100  0.03007700  1
  O  O35  1  0.94785600  0.75033100  0.53007700  1
  O  O36  1  0.63187900  0.95719300  0.77615300  1
  O  O37  1  0.86812100  0.95719300  0.27615300  1
  O  O38  1  0.36812100  0.04280700  0.22384700  1
  O  O39  1  0.13187900  0.04280700  0.72384700  1
loop_
_geom_bond_atom_site_label_1
_geom_bond_atom_site_label_2
_geom_bond_distance
_geom_bond_site_symmetry_2
K0 O24 2.714139 1_554
K0 O32 2.718401 1_554
K0 O0 2.719455 1_555
K0 O13 2.841658 1_545
K0 O16 2.912623 1_554
K0 O18 3.098872 1_555
K1 O25 2.714139 1_555
K1 O33 2.718401 1_655
K1 O1 2.719455 1_555
K1 O12 2.841658 1_545
K1 O17 2.912623 1_555
K1 O19 3.098872 1_655
K2 O26 2.714139 1_556
K2 O34 2.718401 1_556
K2 O2 2.719455 1_555
K2 O15 2.841658 1_565
K2 O18 2.912623 1_556
K2 O16 3.098872 1_555
K3 O27 2.714139 1_555
K3 O35 2.718401 1_455
K3 O3 2.719455 1_555
K3 O14 2.841658 1_565
K3 O19 2.912623 1_555
K3 O17 3.098872 1_455
K4 O6 2.731444 1_555
K4 O24 2.750999 1_555
K4 O0 2.791895 1_555
K4 O4 2.929553 1_555
K4 O36 2.945565 1_545
K4 O18 2.982715 1_555
K5 O7 2.731444 1_656
K5 O25 2.750999 1_556
K5 O1 2.791895 1_555
K5 O5 2.929553 1_555
K5 O37 2.945565 1_546
K5 O19 2.982715 1_655
K6 O4 2.731444 1_555
K6 O26 2.750999 1_555
K6 O2 2.791895 1_555
K6 O6 2.929553 1_555
K6 O38 2.945565 1_565
K6 O16 2.982715 1_555
K7 O5 2.731444 1_454
K7 O27 2.750999 1_554
K7 O3 2.791895 1_555
K7 O7 2.929553 1_555
K7 O39 2.945565 1_564
K7 O17 2.982715 1_455
K8 O8 2.610647 1_555
K8 O9 2.652977 1_556
K8 O28 2.666668 1_565
K8 O29 2.680063 1_565
K8 O12 2.799788 1_555
K8 O36 2.828213 1_555
K9 O9 2.610647 1_555
K9 O8 2.652977 1_555
K9 O29 2.666668 1_565
K9 O28 2.680063 1_564
K9 O13 2.799788 1_555
K9 O37 2.828213 1_555
K10 O10 2.610647 1_555
K10 O11 2.652977 1_554
K10 O30 2.666668 1_545
K10 O31 2.680063 1_545
K10 O14 2.799788 1_555
K10 O38 2.828213 1_555
K11 O11 2.610647 1_555
K11 O10 2.652977 1_555
K11 O31 2.666668 1_545
K11 O30 2.680063 1_546
K11 O15 2.799788 1_555
K11 O39 2.828213 1_555
B0 O4 1.353180 1_555
B0 O13 1.380958 1_555
B0 O34 1.433201 1_555
B1 O5 1.353180 1_555
B1 O12 1.380958 1_555
B1 O35 1.433201 1_555
B2 O6 1.353180 1_555
B2 O15 1.380958 1_555
B2 O32 1.433201 1_555
B3 O7 1.353180 1_555
B3 O14 1.380958 1_555
B3 O33 1.433201 1_555
B4 O28 1.474567 1_555
B4 O36 1.474833 1_545
B4 O24 1.478828 1_555
B4 O13 1.479115 1_546
B5 O29 1.474567 1_555
B5 O37 1.474833 1_545
B5 O25 1.478828 1_555
B5 O12 1.479115 1_545
B6 O30 1.474567 1_555
B6 O38 1.474833 1_565
B6 O26 1.478828 1_555
B6 O15 1.479115 1_564
B7 O31 1.474567 1_555
B7 O39 1.474833 1_565
B7 O27 1.478828 1_555
B7 O14 1.479115 1_565
B8 O0 1.351445 1_555
B8 O29 1.385190 1_555
B8 O20 1.427688 1_555
B9 O1 1.351445 1_555
B9 O28 1.385190 1_555
B9 O21 1.427688 1_555
B10 O2 1.351445 1_555
B10 O31 1.385190 1_555
B10 O22 1.427688 1_555
B11 O3 1.351445 1_555
B11 O30 1.385190 1_555
B11 O23 1.427688 1_555
B12 O16 1.357245 1_555
B12 O36 1.377120 1_555
B12 O34 1.432377 1_556
B13 O17 1.357245 1_555
B13 O37 1.377120 1_555
B13 O35 1.432377 1_555
B14 O18 1.357245 1_555
B14 O38 1.377120 1_555
B14 O32 1.432377 1_554
B15 O19 1.357245 1_555
B15 O39 1.377120 1_555
B15 O33 1.432377 1_555
B16 O8 1.340577 1_555
B16 O24 1.385951 1_555
B16 O21 1.427769 1_555
B17 O9 1.340577 1_555
B17 O25 1.385951 1_555
B17 O20 1.427769 1_555
B18 O10 1.340577 1_555
B18 O26 1.385951 1_555
B18 O23 1.427769 1_555
B19 O11 1.340577 1_555
B19 O27 1.385951 1_555
B19 O22 1.427769 1_555
O0 Zn0 2.007998 1_545
O1 Zn1 2.007998 1_545
O2 Zn2 2.007998 1_565
O3 Zn3 2.007998 1_565
O4 Zn0 2.030654 1_555
O5 Zn1 2.030654 1_555
O6 Zn2 2.030654 1_555
O7 Zn3 2.030654 1_555
O8 Zn0 1.996440 1_555
O9 Zn1 1.996440 1_554
O10 Zn2 1.996440 1_555
O11 Zn3 1.996440 1_556
O16 Zn0 2.046107 1_555
O17 Zn1 2.046107 1_554
O18 Zn2 2.046107 1_555
O19 Zn3 2.046107 1_556
