# generated using pymatgen
data_HfMg6SbO8
_symmetry_space_group_name_H-M   'P 1'
_cell_length_a   9.94954939
_cell_length_b   4.35924197
_cell_length_c   4.35924197
_cell_angle_alpha   90.00000000
_cell_angle_beta   90.00000000
_cell_angle_gamma   90.00000000
_symmetry_Int_Tables_number   1
_chemical_formula_structural   HfMg6SbO8
_chemical_formula_sum   'Hf1 Mg6 Sb1 O8'
_cell_volume   189.07119306
_cell_formula_units_Z   1
loop_
 _symmetry_equiv_pos_site_id
 _symmetry_equiv_pos_as_xyz
  1  'x, y, z'
loop_
 _atom_site_type_symbol
 _atom_site_label
 _atom_site_symmetry_multiplicity
 _atom_site_fract_x
 _atom_site_fract_y
 _atom_site_fract_z
 _atom_site_occupancy
  Hf  Hf0  1  -0.00000000  0.50000000  0.50000000  1
  Mg  Mg0  1  0.50000000  0.00000000  -0.00000000  1
  Mg  Mg1  1  0.50000000  0.50000000  0.50000000  1
  Mg  Mg2  1  0.27956258  0.00000000  0.50000000  1
  Mg  Mg3  1  0.72043742  -0.00000000  0.50000000  1
  Mg  Mg4  1  0.27956258  0.50000000  -0.00000000  1
  Mg  Mg5  1  0.72043742  0.50000000  0.00000000  1
  Sb  Sb0  1  -0.00000000  0.00000000  -0.00000000  1
  O  O0  1  0.30222186  0.00000000  0.00000000  1
  O  O1  1  0.69777814  -0.00000000  -0.00000000  1
  O  O2  1  0.24393320  0.50000000  0.50000000  1
  O  O3  1  0.75606680  0.50000000  0.50000000  1
  O  O4  1  -0.00000000  0.00000000  0.50000000  1
  O  O5  1  0.50000000  0.00000000  0.50000000  1
  O  O6  1  -0.00000000  0.50000000  -0.00000000  1
  O  O7  1  0.50000000  0.50000000  -0.00000000  1
loop_
_geom_bond_atom_site_label_1
_geom_bond_atom_site_label_2
_geom_bond_distance
_geom_bond_site_symmetry_2
Hf0 O6 2.179621 1_556
Hf0 O6 2.179621 1_555
Hf0 O4 2.179621 1_555
Hf0 O4 2.179621 1_565
Hf0 O3 2.427025 1_455
Hf0 O2 2.427025 1_555
Mg0 O0 1.967803 1_555
Mg0 O1 1.967803 1_555
Mg0 O7 2.179621 1_555
Mg0 O5 2.179621 1_554
Mg0 O5 2.179621 1_555
Mg0 O7 2.179621 1_545
Mg1 O7 2.179621 1_555
Mg1 O7 2.179621 1_556
Mg1 O5 2.179621 1_555
Mg1 O5 2.179621 1_565
Mg1 O2 2.547749 1_555
Mg1 O3 2.547749 1_555
Mg2 O0 2.191250 1_556
Mg2 O0 2.191250 1_555
Mg2 O5 2.193253 1_555
Mg2 O2 2.208261 1_555
Mg2 O2 2.208261 1_545
Mg3 O1 2.191250 1_555
Mg3 O1 2.191250 1_556
Mg3 O5 2.193253 1_555
Mg3 O3 2.208261 1_555
Mg3 O3 2.208261 1_545
Mg4 O0 2.191250 1_565
Mg4 O0 2.191250 1_555
Mg4 O7 2.193253 1_555
Mg4 O2 2.208261 1_555
Mg4 O2 2.208261 1_554
Mg5 O1 2.191250 1_555
Mg5 O1 2.191250 1_565
Mg5 O7 2.193253 1_555
Mg5 O3 2.208261 1_555
Mg5 O3 2.208261 1_554
O4 Sb0 2.179621 1_555
O4 Sb0 2.179621 1_556
O6 Sb0 2.179621 1_555
O6 Sb0 2.179621 1_565
