# generated using pymatgen
data_Ba5Zn2B4(O6F)2
_symmetry_space_group_name_H-M   'P 1'
_cell_length_a   13.57446159
_cell_length_b   13.57446159
_cell_length_c   8.13254455
_cell_angle_alpha   74.98776412
_cell_angle_beta   74.98776412
_cell_angle_gamma   31.48913321
_symmetry_Int_Tables_number   1
_chemical_formula_structural   Ba5Zn2B4(O6F)2
_chemical_formula_sum   'Ba10 Zn4 B8 O24 F4'
_cell_volume   753.86989389
_cell_formula_units_Z   2
loop_
 _symmetry_equiv_pos_site_id
 _symmetry_equiv_pos_as_xyz
  1  'x, y, z'
loop_
 _atom_site_type_symbol
 _atom_site_label
 _atom_site_symmetry_multiplicity
 _atom_site_fract_x
 _atom_site_fract_y
 _atom_site_fract_z
 _atom_site_occupancy
  Ba  Ba0  1  0.92660900  0.73839000  0.90071600  1
  Ba  Ba1  1  0.26161000  0.07339100  0.59928400  1
  Ba  Ba2  1  0.07339100  0.26161000  0.09928400  1
  Ba  Ba3  1  0.73839000  0.92660900  0.40071600  1
  Ba  Ba4  1  0.31424300  0.53683400  0.16455300  1
  Ba  Ba5  1  0.46316600  0.68575700  0.33544700  1
  Ba  Ba6  1  0.68575700  0.46316600  0.83544700  1
  Ba  Ba7  1  0.53683400  0.31424300  0.66455300  1
  Ba  Ba8  1  0.06944900  0.93055100  0.75000000  1
  Ba  Ba9  1  0.93055100  0.06944900  0.25000000  1
  Zn  Zn0  1  0.15518500  0.46240300  0.51671100  1
  Zn  Zn1  1  0.53759700  0.84481500  0.98328900  1
  Zn  Zn2  1  0.84481500  0.53759700  0.48328900  1
  Zn  Zn3  1  0.46240300  0.15518500  0.01671100  1
  B  B0  1  0.11443600  0.73242900  0.53017000  1
  B  B1  1  0.26757100  0.88556400  0.96983000  1
  B  B2  1  0.88556400  0.26757100  0.46983000  1
  B  B3  1  0.73242900  0.11443600  0.03017000  1
  B  B4  1  0.12205100  0.42867700  0.22449200  1
  B  B5  1  0.57132300  0.87794900  0.27550800  1
  B  B6  1  0.87794900  0.57132300  0.77550800  1
  B  B7  1  0.42867700  0.12205100  0.72449200  1
  O  O0  1  0.27746100  0.77220500  0.04118400  1
  O  O1  1  0.22779500  0.72253900  0.45881600  1
  O  O2  1  0.72253900  0.22779500  0.95881600  1
  O  O3  1  0.77220500  0.27746100  0.54118400  1
  O  O4  1  0.37538500  0.18920800  0.55720400  1
  O  O5  1  0.81079200  0.62461500  0.94279600  1
  O  O6  1  0.62461500  0.81079200  0.44279600  1
  O  O7  1  0.18920800  0.37538500  0.05720400  1
  O  O8  1  0.09258500  0.54442900  0.27168700  1
  O  O9  1  0.45557100  0.90741500  0.22831300  1
  O  O10  1  0.90741500  0.45557100  0.72831300  1
  O  O11  1  0.54442900  0.09258500  0.77168700  1
  O  O12  1  0.91883900  0.63105600  0.66452800  1
  O  O13  1  0.36894400  0.08116100  0.83547200  1
  O  O14  1  0.08116100  0.36894400  0.33547200  1
  O  O15  1  0.63105600  0.91883900  0.16452800  1
  O  O16  1  0.92860300  0.89846100  0.59102700  1
  O  O17  1  0.10153900  0.07139700  0.90897300  1
  O  O18  1  0.07139700  0.10153900  0.40897300  1
  O  O19  1  0.89846100  0.92860300  0.09102700  1
  O  O20  1  0.19784800  0.56712400  0.53184200  1
  O  O21  1  0.43287600  0.80215200  0.96815800  1
  O  O22  1  0.80215200  0.43287600  0.46815800  1
  O  O23  1  0.56712400  0.19784800  0.03184200  1
  F  F0  1  0.23690600  0.60880800  0.85134700  1
  F  F1  1  0.39119200  0.76309400  0.64865300  1
  F  F2  1  0.76309400  0.39119200  0.14865300  1
  F  F3  1  0.60880800  0.23690600  0.35134700  1
loop_
_geom_bond_atom_site_label_1
_geom_bond_atom_site_label_2
_geom_bond_distance
_geom_bond_site_symmetry_2
Ba0 O12 2.764120 1_555
Ba0 O7 2.784240 1_656
Ba0 F0 2.801938 1_655
Ba0 O15 2.863926 1_556
Ba0 O16 2.880142 1_555
Ba0 O5 2.926189 1_555
Ba0 O11 2.966190 1_565
Ba0 O19 3.047892 1_556
Ba1 O13 2.764120 1_555
Ba1 O6 2.784240 1_545
Ba1 F1 2.801938 1_545
Ba1 O14 2.863926 1_555
Ba1 O17 2.880142 1_555
Ba1 O4 2.926189 1_555
Ba1 O10 2.966190 1_455
Ba1 O18 3.047892 1_555
Ba2 O14 2.764120 1_555
Ba2 O5 2.784240 1_454
Ba2 F2 2.801938 1_455
Ba2 O13 2.863926 1_554
Ba2 O18 2.880142 1_555
Ba2 O7 2.926189 1_555
Ba2 O9 2.966190 1_545
Ba2 O17 3.047892 1_554
Ba3 O15 2.764120 1_555
Ba3 O4 2.784240 1_565
Ba3 F3 2.801938 1_565
Ba3 O12 2.863926 1_555
Ba3 O19 2.880142 1_555
Ba3 O6 2.926189 1_555
Ba3 O8 2.966190 1_655
Ba3 O16 3.047892 1_555
Ba4 F0 2.625163 1_554
Ba4 F3 2.655258 1_555
Ba4 O0 2.709672 1_555
Ba4 O23 2.799418 1_555
Ba4 O8 2.825337 1_555
Ba4 O20 2.944651 1_555
Ba4 O19 3.066739 1_455
Ba4 O1 3.175528 1_555
Ba4 O2 3.208549 1_554
Ba5 F1 2.625163 1_555
Ba5 F2 2.655258 1_555
Ba5 O1 2.709672 1_555
Ba5 O22 2.799418 1_555
Ba5 O9 2.825337 1_555
Ba5 O21 2.944651 1_554
Ba5 O18 3.066739 1_565
Ba5 O0 3.175528 1_555
Ba5 O3 3.208549 1_555
Ba6 F2 2.625163 1_556
Ba6 F1 2.655258 1_555
Ba6 O2 2.709672 1_555
Ba6 O21 2.799418 1_555
Ba6 O10 2.825337 1_555
Ba6 O22 2.944651 1_555
Ba6 O17 3.066739 1_655
Ba6 O3 3.175528 1_555
Ba6 O0 3.208549 1_556
Ba7 F3 2.625163 1_555
Ba7 F0 2.655258 1_555
Ba7 O3 2.709672 1_555
Ba7 O20 2.799418 1_555
Ba7 O11 2.825337 1_555
Ba7 O23 2.944651 1_556
Ba7 O16 3.066739 1_545
Ba7 O2 3.175528 1_555
Ba7 O1 3.208549 1_555
Ba8 F1 2.663710 1_555
Ba8 F0 2.663710 1_555
Ba8 O3 2.888165 1_465
Ba8 O2 2.888165 1_465
Ba8 O17 2.917068 1_565
Ba8 O16 2.917068 1_455
Ba8 O0 2.945658 1_556
Ba8 O1 2.945658 1_555
Ba8 O19 3.132371 1_456
Ba8 O18 3.132371 1_565
Ba9 F3 2.663710 1_555
Ba9 F2 2.663710 1_555
Ba9 O0 2.888165 1_645
Ba9 O1 2.888165 1_645
Ba9 O18 2.917068 1_655
Ba9 O19 2.917068 1_545
Ba9 O2 2.945658 1_554
Ba9 O3 2.945658 1_555
Ba9 O17 3.132371 1_654
Ba9 O16 3.132371 1_545
B0 O16 1.386632 1_455
B0 O1 1.395733 1_555
B0 O20 1.405855 1_555
B1 O17 1.386632 1_565
B1 O0 1.395733 1_556
B1 O21 1.405855 1_555
B2 O18 1.386632 1_655
B2 O3 1.395733 1_555
B2 O22 1.405855 1_555
B3 O19 1.386632 1_545
B3 O2 1.395733 1_554
B3 O23 1.405855 1_555
B4 O14 1.381696 1_555
B4 O8 1.391841 1_555
B4 O7 1.395672 1_555
B5 O15 1.381696 1_555
B5 O9 1.391841 1_555
B5 O6 1.395672 1_555
B6 O12 1.381696 1_555
B6 O10 1.391841 1_555
B6 O5 1.395672 1_555
B7 O13 1.381696 1_555
B7 O11 1.391841 1_555
B7 O4 1.395672 1_555
O4 Zn0 1.941132 1_555
O5 Zn1 1.941132 1_555
O6 Zn2 1.941132 1_555
O7 Zn3 1.941132 1_555
O8 Zn0 2.011645 1_555
O9 Zn1 2.011645 1_554
O10 Zn2 2.011645 1_555
O11 Zn3 2.011645 1_556
O12 Zn0 1.969890 1_655
O13 Zn1 1.969890 1_545
O14 Zn2 1.969890 1_455
O15 Zn3 1.969890 1_565
O20 Zn0 1.975563 1_555
O21 Zn1 1.975563 1_555
O22 Zn2 1.975563 1_555
O23 Zn3 1.975563 1_555
