# generated using pymatgen
data_CeSbAu
_symmetry_space_group_name_H-M   'P 1'
_cell_length_a   4.71786393
_cell_length_b   4.71786393
_cell_length_c   7.98029000
_cell_angle_alpha   90.00000000
_cell_angle_beta   90.00000000
_cell_angle_gamma   119.99999908
_symmetry_Int_Tables_number   1
_chemical_formula_structural   CeSbAu
_chemical_formula_sum   'Ce2 Sb2 Au2'
_cell_volume   153.82967849
_cell_formula_units_Z   2
loop_
 _symmetry_equiv_pos_site_id
 _symmetry_equiv_pos_as_xyz
  1  'x, y, z'
loop_
 _atom_site_type_symbol
 _atom_site_label
 _atom_site_symmetry_multiplicity
 _atom_site_fract_x
 _atom_site_fract_y
 _atom_site_fract_z
 _atom_site_occupancy
  Ce  Ce0  1  0.00000000  0.00000000  0.50000000  1
  Ce  Ce1  1  0.00000000  0.00000000  0.00000000  1
  Sb  Sb0  1  0.33333300  0.66666700  0.75000000  1
  Sb  Sb1  1  0.66666700  0.33333300  0.25000000  1
  Au  Au0  1  0.33333300  0.66666700  0.25000000  1
  Au  Au1  1  0.66666700  0.33333300  0.75000000  1
loop_
_geom_bond_atom_site_label_1
_geom_bond_atom_site_label_2
_geom_bond_distance
_geom_bond_site_symmetry_2
Ce0 Sb1 3.376346 1_455
Ce0 Sb0 3.376346 1_545
Ce0 Sb0 3.376349 1_555
Ce0 Sb1 3.376349 1_445
Ce0 Sb1 3.376349 1_555
Ce0 Sb0 3.376349 1_445
Ce1 Sb0 3.376346 1_544
Ce1 Sb1 3.376346 1_455
Ce1 Sb1 3.376349 1_445
Ce1 Sb0 3.376349 1_554
Ce1 Sb0 3.376349 1_444
Ce1 Sb1 3.376349 1_555
Au0 Sb1 2.723857 1_455
Au0 Sb1 2.723857 1_565
Au0 Sb1 2.723865 1_555
Au0 Ce1 3.376346 1_565
Au0 Ce0 3.376346 1_565
Au0 Ce1 3.376349 1_665
Au0 Ce0 3.376349 1_555
Au0 Ce1 3.376349 1_555
Au0 Ce0 3.376349 1_665
Au1 Sb0 2.723857 1_655
Au1 Sb0 2.723857 1_545
Au1 Sb0 2.723865 1_555
Au1 Ce0 3.376346 1_655
Au1 Ce1 3.376346 1_656
Au1 Ce0 3.376349 1_555
Au1 Ce1 3.376349 1_666
Au1 Ce1 3.376349 1_556
Au1 Ce0 3.376349 1_665
