# generated using pymatgen
data_Mg6ZrFe
_symmetry_space_group_name_H-M   'P 1'
_cell_length_a   4.93223500
_cell_length_b   5.79417400
_cell_length_c   11.22932600
_cell_angle_alpha   90.00000000
_cell_angle_beta   90.00000000
_cell_angle_gamma   90.00000000
_symmetry_Int_Tables_number   1
_chemical_formula_structural   Mg6ZrFe
_chemical_formula_sum   'Mg12 Zr2 Fe2'
_cell_volume   320.91423646
_cell_formula_units_Z   2
loop_
 _symmetry_equiv_pos_site_id
 _symmetry_equiv_pos_as_xyz
  1  'x, y, z'
loop_
 _atom_site_type_symbol
 _atom_site_label
 _atom_site_symmetry_multiplicity
 _atom_site_fract_x
 _atom_site_fract_y
 _atom_site_fract_z
 _atom_site_occupancy
  Mg  Mg0  1  0.50000000  0.74877800  0.92621900  1
  Mg  Mg1  1  0.50000000  0.25122200  0.92621900  1
  Mg  Mg2  1  0.00000000  0.24386700  0.58295000  1
  Mg  Mg3  1  0.00000000  0.75613300  0.58295000  1
  Mg  Mg4  1  0.00000000  0.50000000  0.82935400  1
  Mg  Mg5  1  0.00000000  0.00000000  0.80690900  1
  Mg  Mg6  1  0.50000000  0.24877800  0.42621900  1
  Mg  Mg7  1  0.50000000  0.75122200  0.42621900  1
  Mg  Mg8  1  0.00000000  0.74386700  0.08295000  1
  Mg  Mg9  1  0.00000000  0.25613300  0.08295000  1
  Mg  Mg10  1  0.00000000  0.00000000  0.32935400  1
  Mg  Mg11  1  0.00000000  0.50000000  0.30690900  1
  Zr  Zr0  1  0.50000000  0.50000000  0.67772900  1
  Zr  Zr1  1  0.50000000  0.00000000  0.17772900  1
  Fe  Fe0  1  0.50000000  0.00000000  0.66766700  1
  Fe  Fe1  1  0.50000000  0.50000000  0.16766700  1
loop_
_geom_bond_atom_site_label_1
_geom_bond_atom_site_label_2
_geom_bond_distance
_geom_bond_site_symmetry_2
Mg0 Mg1 2.882926 1_555
Mg0 Mg1 2.911248 1_565
Mg0 Mg8 3.029866 1_656
Mg0 Mg8 3.029866 1_556
Mg0 Mg4 3.056584 1_555
Mg0 Mg4 3.056584 1_655
Mg0 Zr0 3.140702 1_555
Mg0 Mg5 3.161576 1_665
Mg0 Mg5 3.161576 1_565
Mg0 Zr1 3.177333 1_566
Mg1 Mg9 3.029866 1_556
Mg1 Mg9 3.029866 1_656
Mg1 Mg4 3.056584 1_655
Mg1 Mg4 3.056584 1_555
Mg1 Zr0 3.140702 1_555
Mg1 Mg5 3.161576 1_655
Mg1 Mg5 3.161576 1_555
Mg1 Zr1 3.177333 1_556
Mg2 Mg3 2.826016 1_545
Mg2 Mg5 2.884676 1_555
Mg2 Mg3 2.968158 1_555
Mg2 Mg6 3.029866 1_455
Mg2 Mg6 3.029866 1_555
Mg2 Zr0 3.068708 1_455
Mg2 Zr0 3.068708 1_555
Mg2 Mg4 3.139826 1_555
Mg3 Mg5 2.884676 1_565
Mg3 Mg7 3.029866 1_455
Mg3 Mg7 3.029866 1_555
Mg3 Zr0 3.068708 1_555
Mg3 Zr0 3.068708 1_455
Mg3 Mg4 3.139826 1_555
Mg4 Mg5 2.908030 1_555
Mg4 Mg5 2.908030 1_565
Mg4 Zr0 2.996788 1_555
Mg4 Zr0 2.996788 1_455
Mg4 Mg8 3.179002 1_556
Mg4 Mg9 3.179002 1_556
Mg5 Mg9 3.436709 1_556
Mg5 Mg8 3.436709 1_546
Mg6 Mg7 2.882926 1_545
Mg6 Mg7 2.911248 1_555
Mg6 Zr1 3.140702 1_555
Mg6 Zr0 3.177333 1_555
Mg7 Zr1 3.140702 1_565
Mg7 Zr0 3.177333 1_555
Mg8 Mg9 2.826016 1_555
Mg8 Mg9 2.968158 1_565
Mg8 Zr1 3.068708 1_465
Mg8 Zr1 3.068708 1_565
Mg9 Zr1 3.068708 1_455
Mg9 Zr1 3.068708 1_555
Mg10 Mg11 2.908030 1_555
Mg10 Mg11 2.908030 1_545
Mg10 Zr1 2.996788 1_455
Mg10 Zr1 2.996788 1_555
Mg10 Mg7 3.056584 1_545
Mg10 Mg7 3.056584 1_445
Mg10 Mg6 3.056584 1_455
Mg10 Mg6 3.056584 1_555
Mg10 Mg8 3.139826 1_545
Mg10 Mg9 3.139826 1_555
Mg10 Mg3 3.179002 1_545
Mg10 Mg2 3.179002 1_555
Mg11 Mg8 2.884676 1_555
Mg11 Mg9 2.884676 1_555
Mg11 Mg7 3.161576 1_455
Mg11 Mg7 3.161576 1_555
Mg11 Mg6 3.161576 1_455
Mg11 Mg6 3.161576 1_555
Mg11 Mg2 3.436709 1_555
Mg11 Mg3 3.436709 1_555
Fe0 Zr0 2.899290 1_555
Fe0 Zr0 2.899290 1_545
Fe0 Mg5 2.920028 1_655
Fe0 Mg5 2.920028 1_555
Fe0 Mg3 2.997220 1_645
Fe0 Mg2 2.997220 1_655
Fe0 Mg2 2.997220 1_555
Fe0 Mg3 2.997220 1_545
Fe0 Mg6 3.070660 1_555
Fe0 Mg7 3.070660 1_545
Fe0 Mg0 3.247825 1_545
Fe0 Mg1 3.247825 1_555
Fe1 Zr1 2.899290 1_565
Fe1 Zr1 2.899290 1_555
Fe1 Mg11 2.920028 1_555
Fe1 Mg11 2.920028 1_655
Fe1 Mg8 2.997220 1_655
Fe1 Mg9 2.997220 1_655
Fe1 Mg8 2.997220 1_555
Fe1 Mg9 2.997220 1_555
Fe1 Mg1 3.070660 1_554
Fe1 Mg0 3.070660 1_554
Fe1 Mg6 3.247825 1_555
Fe1 Mg7 3.247825 1_555
