# generated using pymatgen
data_BaMgV2Ni3(HO5)2
_symmetry_space_group_name_H-M   'P 1'
_cell_length_a   6.04779800
_cell_length_b   5.95321463
_cell_length_c   8.25998803
_cell_angle_alpha   67.29131719
_cell_angle_beta   68.52532156
_cell_angle_gamma   59.47302990
_symmetry_Int_Tables_number   1
_chemical_formula_structural   BaMgV2Ni3(HO5)2
_chemical_formula_sum   'Ba1 Mg1 V2 Ni3 H2 O10'
_cell_volume   230.84013103
_cell_formula_units_Z   1
loop_
 _symmetry_equiv_pos_site_id
 _symmetry_equiv_pos_as_xyz
  1  'x, y, z'
loop_
 _atom_site_type_symbol
 _atom_site_label
 _atom_site_symmetry_multiplicity
 _atom_site_fract_x
 _atom_site_fract_y
 _atom_site_fract_z
 _atom_site_occupancy
  Ba  Ba0  1  0.00000000  0.50000000  0.50000000  1
  Mg  Mg0  1  0.50000000  0.00000000  0.00000000  1
  V  V0  1  0.60417100  0.10888500  0.68277300  1
  V  V1  1  0.39582900  0.89111500  0.31722700  1
  Ni  Ni0  1  0.00000000  0.00000000  0.00000000  1
  Ni  Ni1  1  0.00000000  0.50000000  0.00000000  1
  Ni  Ni2  1  0.50000000  0.50000000  0.00000000  1
  H  H0  1  0.24106700  0.76973600  0.74812900  1
  H  H1  1  0.75893300  0.23026400  0.25187100  1
  O  O0  1  0.25285600  0.21910700  0.81279500  1
  O  O1  1  0.71524200  0.21910700  0.81279500  1
  O  O2  1  0.74714400  0.78089300  0.18720500  1
  O  O3  1  0.28475800  0.78089300  0.18720500  1
  O  O4  1  0.71313200  0.74530900  0.82842800  1
  O  O5  1  0.28686800  0.25469100  0.17157200  1
  O  O6  1  0.29351200  0.86919500  0.54378200  1
  O  O7  1  0.70648800  0.13080500  0.45621800  1
  O  O8  1  0.20371000  0.70906400  0.88351500  1
  O  O9  1  0.79629000  0.29093600  0.11648500  1
loop_
_geom_bond_atom_site_label_1
_geom_bond_atom_site_label_2
_geom_bond_distance
_geom_bond_site_symmetry_2
Ba0 O3 2.961331 1_555
Ba0 O1 2.961331 1_455
Ba0 O2 2.961331 1_455
Ba0 O0 2.961331 1_555
Ba0 O5 3.088836 1_555
Ba0 O4 3.088836 1_455
Ba0 O6 3.167596 1_545
Ba0 O7 3.167596 1_465
Mg0 O4 2.074838 1_544
Mg0 O5 2.074838 1_555
Mg0 O0 2.116811 1_554
Mg0 O3 2.116811 1_545
Mg0 O1 2.116811 1_554
Mg0 O2 2.116811 1_545
Ni0 O8 1.922094 1_544
Ni0 O9 1.922094 1_455
Ni0 O1 2.273493 1_454
Ni0 O3 2.273493 1_545
Ni0 O2 2.273493 1_445
Ni0 O0 2.273493 1_554
Ni1 O9 1.938509 1_455
Ni1 O8 1.938509 1_554
Ni1 O5 2.186192 1_555
Ni1 O4 2.186192 1_454
Ni1 O0 2.278856 1_554
Ni1 O2 2.278856 1_455
Ni2 O8 1.938514 1_554
Ni2 O9 1.938514 1_555
Ni2 O5 2.186196 1_555
Ni2 O4 2.186196 1_554
Ni2 O1 2.278856 1_554
Ni2 O3 2.278856 1_555
H0 O8 1.009020 1_555
H0 O6 1.525572 1_555
H1 O9 1.009020 1_555
H1 O7 1.525572 1_555
O0 V0 1.885558 1_555
O1 V0 1.885558 1_555
O2 V1 1.885558 1_555
O3 V1 1.885558 1_555
O4 V0 1.920281 1_565
O5 V1 1.920281 1_545
O6 V1 1.716827 1_555
O7 V0 1.716827 1_555
