# generated using pymatgen
data_NbCoGe
_symmetry_space_group_name_H-M   'P 1'
_cell_length_a   3.76884600
_cell_length_b   6.36120700
_cell_length_c   7.17365800
_cell_angle_alpha   90.00000000
_cell_angle_beta   90.00000000
_cell_angle_gamma   90.00000000
_symmetry_Int_Tables_number   1
_chemical_formula_structural   NbCoGe
_chemical_formula_sum   'Nb4 Co4 Ge4'
_cell_volume   171.98421491
_cell_formula_units_Z   4
loop_
 _symmetry_equiv_pos_site_id
 _symmetry_equiv_pos_as_xyz
  1  'x, y, z'
loop_
 _atom_site_type_symbol
 _atom_site_label
 _atom_site_symmetry_multiplicity
 _atom_site_fract_x
 _atom_site_fract_y
 _atom_site_fract_z
 _atom_site_occupancy
  Nb  Nb0  1  0.75000000  0.52100300  0.68536700  1
  Nb  Nb1  1  0.75000000  0.02100400  0.81463300  1
  Nb  Nb2  1  0.25000000  0.47899600  0.31463300  1
  Nb  Nb3  1  0.25000000  0.97899700  0.18536700  1
  Co  Co0  1  0.75000000  0.63984900  0.06363400  1
  Co  Co1  1  0.75000000  0.13984800  0.43636600  1
  Co  Co2  1  0.25000000  0.36015200  0.93636600  1
  Co  Co3  1  0.25000000  0.86015100  0.56363400  1
  Ge  Ge0  1  0.75000000  0.26808200  0.11667500  1
  Ge  Ge1  1  0.75000000  0.76808200  0.38332500  1
  Ge  Ge2  1  0.25000000  0.73191800  0.88332500  1
  Ge  Ge3  1  0.25000000  0.23191800  0.61667500  1
loop_
_geom_bond_atom_site_label_1
_geom_bond_atom_site_label_2
_geom_bond_distance
_geom_bond_site_symmetry_2
Co0 Ge2 2.359478 1_654
Co0 Ge2 2.359478 1_554
Co0 Ge0 2.395301 1_555
Co0 Ge1 2.434105 1_555
Co0 Co2 2.747757 1_554
Co0 Co2 2.747757 1_654
Co0 Nb2 2.800021 1_555
Co0 Nb2 2.800021 1_655
Co0 Nb0 2.816902 1_554
Co0 Nb3 2.994660 1_655
Co0 Nb3 2.994660 1_555
Co0 Nb1 3.011544 1_564
Co1 Ge3 2.359480 1_655
Co1 Ge3 2.359480 1_555
Co1 Ge1 2.395295 1_545
Co1 Ge0 2.434107 1_555
Co1 Co3 2.747757 1_645
Co1 Co3 2.747757 1_545
Co1 Nb3 2.800017 1_645
Co1 Nb3 2.800017 1_545
Co1 Nb1 2.816899 1_555
Co1 Nb2 2.994660 1_555
Co1 Nb2 2.994660 1_655
Co1 Nb0 3.011544 1_555
Co2 Ge0 2.359480 1_456
Co2 Ge0 2.359480 1_556
Co2 Ge2 2.395295 1_555
Co2 Ge3 2.434107 1_555
Co2 Nb0 2.800017 1_455
Co2 Nb0 2.800017 1_555
Co2 Nb2 2.816899 1_556
Co2 Nb1 2.994660 1_455
Co2 Nb1 2.994660 1_555
Co2 Nb3 3.011544 1_546
Co3 Ge1 2.359478 1_455
Co3 Ge1 2.359478 1_555
Co3 Ge3 2.395301 1_565
Co3 Ge2 2.434105 1_555
Co3 Nb1 2.800021 1_465
Co3 Nb1 2.800021 1_565
Co3 Nb3 2.816902 1_555
Co3 Nb0 2.994660 1_555
Co3 Nb0 2.994660 1_455
Co3 Nb2 3.011544 1_555
Ge0 Nb1 2.676766 1_554
Ge0 Nb3 2.678719 1_645
Ge0 Nb3 2.678719 1_545
Ge0 Nb2 2.714361 1_555
Ge0 Nb2 2.714361 1_655
Ge1 Nb0 2.676769 1_555
Ge1 Nb2 2.678724 1_655
Ge1 Nb2 2.678724 1_555
Ge1 Nb3 2.714365 1_555
Ge1 Nb3 2.714365 1_655
Ge2 Nb3 2.676769 1_556
Ge2 Nb1 2.678724 1_465
Ge2 Nb1 2.678724 1_565
Ge2 Nb0 2.714365 1_455
Ge2 Nb0 2.714365 1_555
Ge3 Nb2 2.676766 1_555
Ge3 Nb0 2.678719 1_455
Ge3 Nb0 2.678719 1_555
Ge3 Nb1 2.714361 1_455
Ge3 Nb1 2.714361 1_555
