# generated using pymatgen
data_PrZrNO2
_symmetry_space_group_name_H-M   'P 1'
_cell_length_a   5.96834800
_cell_length_b   5.79623000
_cell_length_c   10.01526822
_cell_angle_alpha   55.28007641
_cell_angle_beta   90.00000000
_cell_angle_gamma   90.00000000
_symmetry_Int_Tables_number   1
_chemical_formula_structural   PrZrNO2
_chemical_formula_sum   'Pr4 Zr4 N4 O8'
_cell_volume   284.77747668
_cell_formula_units_Z   4
loop_
 _symmetry_equiv_pos_site_id
 _symmetry_equiv_pos_as_xyz
  1  'x, y, z'
loop_
 _atom_site_type_symbol
 _atom_site_label
 _atom_site_symmetry_multiplicity
 _atom_site_fract_x
 _atom_site_fract_y
 _atom_site_fract_z
 _atom_site_occupancy
  Pr  Pr0  1  0.45117300  0.77725000  0.74247500  1
  Pr  Pr1  1  0.95117300  0.22275000  0.75752500  1
  Pr  Pr2  1  0.54882700  0.22275000  0.25752500  1
  Pr  Pr3  1  0.04882700  0.77725000  0.24247500  1
  Zr  Zr0  1  0.00000000  0.50000000  0.00000000  1
  Zr  Zr1  1  0.50000000  0.50000000  0.50000000  1
  Zr  Zr2  1  0.00000000  0.00000000  0.50000000  1
  Zr  Zr3  1  0.50000000  0.00000000  0.00000000  1
  N  N0  1  0.20557900  0.85166100  0.94335600  1
  N  N1  1  0.70557900  0.14833900  0.55664400  1
  N  N2  1  0.79442100  0.14833900  0.05664400  1
  N  N3  1  0.29442100  0.85166100  0.44335600  1
  O  O0  1  0.03866100  0.63822500  0.75003900  1
  O  O1  1  0.53866100  0.36177500  0.74996100  1
  O  O2  1  0.96133900  0.36177500  0.24996100  1
  O  O3  1  0.46133900  0.63822500  0.25003900  1
  O  O4  1  0.79176400  0.77146300  0.43654600  1
  O  O5  1  0.29176400  0.22853700  0.06345400  1
  O  O6  1  0.20823600  0.22853700  0.56345400  1
  O  O7  1  0.70823600  0.77146300  0.93654600  1
loop_
_geom_bond_atom_site_label_1
_geom_bond_atom_site_label_2
_geom_bond_distance
_geom_bond_site_symmetry_2
N0 Zr0 2.159805 1_556
N0 Zr3 2.168990 1_566
N0 Pr1 2.415712 1_465
N0 Pr0 2.714898 1_555
N0 Pr3 2.926429 1_556
N1 Zr1 2.159805 1_555
N1 Zr2 2.168990 1_655
N1 Pr0 2.415712 1_545
N1 Pr1 2.714898 1_555
N1 Pr2 2.926429 1_555
N2 Zr0 2.159805 1_655
N2 Zr3 2.168990 1_555
N2 Pr3 2.415712 1_645
N2 Pr2 2.714898 1_555
N2 Pr1 2.926429 1_554
N3 Zr1 2.159805 1_555
N3 Zr2 2.168990 1_565
N3 Pr2 2.415712 1_565
N3 Pr3 2.714898 1_555
N3 Pr0 2.926429 1_555
O0 Zr0 2.162758 1_556
O0 Zr2 2.177078 1_565
O0 Pr1 2.423215 1_455
O0 Pr0 2.578190 1_555
O1 Zr1 2.162758 1_555
O1 Zr3 2.177078 1_556
O1 Pr0 2.423215 1_555
O1 Pr1 2.578190 1_555
O2 Zr0 2.162758 1_655
O2 Zr2 2.177078 1_655
O2 Pr3 2.423215 1_655
O2 Pr2 2.578190 1_555
O3 Zr1 2.162758 1_555
O3 Zr3 2.177078 1_565
O3 Pr2 2.423215 1_555
O3 Pr3 2.578190 1_555
O4 Zr2 2.159200 1_665
O4 Zr1 2.184692 1_555
O4 Pr3 2.461426 1_655
O4 Pr2 2.610889 1_565
O4 Pr1 3.115777 1_555
O5 Zr3 2.159200 1_555
O5 Zr0 2.184692 1_555
O5 Pr2 2.461426 1_555
O5 Pr3 2.610889 1_545
O5 Pr0 3.115777 1_554
O6 Zr2 2.159200 1_555
O6 Zr1 2.184692 1_555
O6 Pr1 2.461426 1_455
O6 Pr0 2.610889 1_545
O6 Pr3 3.115777 1_555
O7 Zr3 2.159200 1_566
O7 Zr0 2.184692 1_656
O7 Pr0 2.461426 1_555
O7 Pr1 2.610889 1_565
O7 Pr2 3.115777 1_556
