# generated using pymatgen
data_Pr
_symmetry_space_group_name_H-M   'P 1'
_cell_length_a   7.57356438
_cell_length_b   7.58784723
_cell_length_c   11.90246400
_cell_angle_alpha   90.00000000
_cell_angle_beta   90.00000000
_cell_angle_gamma   119.93775237
_symmetry_Int_Tables_number   1
_chemical_formula_structural   Pr
_chemical_formula_sum   Pr16
_cell_volume   592.73214048
_cell_formula_units_Z   16
loop_
 _symmetry_equiv_pos_site_id
 _symmetry_equiv_pos_as_xyz
  1  'x, y, z'
loop_
 _atom_site_type_symbol
 _atom_site_label
 _atom_site_symmetry_multiplicity
 _atom_site_fract_x
 _atom_site_fract_y
 _atom_site_fract_z
 _atom_site_occupancy
  Pr  Pr0_0  1  0.08268177  0.16536253  0.12500000  1
  Pr  Pr0_1  1  0.08268177  0.16536253  0.62500000  1
  Pr  Pr0_2  1  0.08268176  0.66536253  0.12500000  1
  Pr  Pr0_3  1  0.08268176  0.66536253  0.62500000  1
  Pr  Pr0_4  1  0.58268177  0.16536253  0.12500000  1
  Pr  Pr0_5  1  0.58268177  0.16536253  0.62500000  1
  Pr  Pr0_6  1  0.58268177  0.66536253  0.12500000  1
  Pr  Pr0_7  1  0.58268177  0.66536253  0.62500000  1
  Pr  Pr1_0  1  0.41731824  0.33463747  0.37500000  1
  Pr  Pr1_1  1  0.41731824  0.33463747  0.87500000  1
  Pr  Pr1_2  1  0.41731824  0.83463747  0.37500000  1
  Pr  Pr1_3  1  0.41731824  0.83463747  0.87500000  1
  Pr  Pr1_4  1  0.91731823  0.33463747  0.37500000  1
  Pr  Pr1_5  1  0.91731823  0.33463747  0.87500000  1
  Pr  Pr1_6  1  0.91731824  0.83463747  0.37500000  1
  Pr  Pr1_7  1  0.91731824  0.83463747  0.87500000  1
loop_
_geom_bond_atom_site_label_1
_geom_bond_atom_site_label_2
_geom_bond_distance
_geom_bond_site_symmetry_2
Pr0_0 Pr1_7 3.685563 1_444
Pr0_0 Pr1_6 3.685563 1_445
Pr0_0 Pr1_1 3.698387 1_554
Pr0_0 Pr1_0 3.698387 1_555
Pr0_0 Pr1_5 3.698395 1_454
Pr0_0 Pr1_4 3.698395 1_455
Pr0_0 Pr0_4 3.786782 1_455
Pr0_0 Pr0_4 3.786782 1_555
Pr0_0 Pr0_2 3.793924 1_555
Pr0_0 Pr0_2 3.793924 1_545
Pr0_0 Pr0_6 3.793924 1_445
Pr0_0 Pr0_6 3.793924 1_555
Pr0_1 Pr1_6 3.685563 1_445
Pr0_1 Pr1_7 3.685563 1_445
Pr0_1 Pr1_0 3.698387 1_555
Pr0_1 Pr1_1 3.698387 1_555
Pr0_1 Pr1_4 3.698395 1_455
Pr0_1 Pr1_5 3.698395 1_455
Pr0_1 Pr0_5 3.786782 1_555
Pr0_1 Pr0_5 3.786782 1_455
Pr0_1 Pr0_3 3.793924 1_545
Pr0_1 Pr0_3 3.793924 1_555
Pr0_1 Pr0_7 3.793924 1_445
Pr0_1 Pr0_7 3.793924 1_555
Pr0_2 Pr1_5 3.685563 1_454
Pr0_2 Pr1_4 3.685563 1_455
Pr0_2 Pr1_3 3.698387 1_554
Pr0_2 Pr1_2 3.698387 1_555
Pr0_2 Pr1_7 3.698395 1_454
Pr0_2 Pr1_6 3.698395 1_455
Pr0_2 Pr0_6 3.786782 1_455
Pr0_2 Pr0_6 3.786782 1_555
Pr0_2 Pr0_4 3.793924 1_565
Pr0_2 Pr0_4 3.793924 1_455
Pr0_3 Pr1_4 3.685563 1_455
Pr0_3 Pr1_5 3.685563 1_455
Pr0_3 Pr1_2 3.698387 1_555
Pr0_3 Pr1_3 3.698387 1_555
Pr0_3 Pr1_6 3.698395 1_455
Pr0_3 Pr1_7 3.698395 1_455
Pr0_3 Pr0_7 3.786782 1_455
Pr0_3 Pr0_7 3.786782 1_555
Pr0_3 Pr0_5 3.793924 1_455
Pr0_3 Pr0_5 3.793924 1_565
Pr0_4 Pr1_3 3.685563 1_544
Pr0_4 Pr1_2 3.685563 1_545
Pr0_4 Pr1_5 3.698387 1_554
Pr0_4 Pr1_4 3.698387 1_555
Pr0_4 Pr1_1 3.698395 1_554
Pr0_4 Pr1_0 3.698395 1_555
Pr0_4 Pr0_6 3.793924 1_545
Pr0_4 Pr0_6 3.793924 1_555
Pr0_5 Pr1_2 3.685563 1_545
Pr0_5 Pr1_3 3.685563 1_545
Pr0_5 Pr1_4 3.698387 1_555
Pr0_5 Pr1_5 3.698387 1_555
Pr0_5 Pr1_0 3.698395 1_555
Pr0_5 Pr1_1 3.698395 1_555
Pr0_5 Pr0_7 3.793924 1_555
Pr0_5 Pr0_7 3.793924 1_545
Pr0_6 Pr1_1 3.685563 1_554
Pr0_6 Pr1_0 3.685563 1_555
Pr0_6 Pr1_7 3.698387 1_554
Pr0_6 Pr1_6 3.698387 1_555
Pr0_6 Pr1_3 3.698395 1_554
Pr0_6 Pr1_2 3.698395 1_555
Pr0_7 Pr1_0 3.685563 1_555
Pr0_7 Pr1_1 3.685563 1_555
Pr0_7 Pr1_6 3.698387 1_555
Pr0_7 Pr1_7 3.698387 1_555
Pr0_7 Pr1_2 3.698395 1_555
Pr0_7 Pr1_3 3.698395 1_555
Pr1_0 Pr1_4 3.786782 1_555
Pr1_0 Pr1_4 3.786782 1_455
Pr1_0 Pr1_2 3.793924 1_545
Pr1_0 Pr1_2 3.793924 1_555
Pr1_0 Pr1_6 3.793924 1_445
Pr1_0 Pr1_6 3.793924 1_555
Pr1_1 Pr1_5 3.786782 1_555
Pr1_1 Pr1_5 3.786782 1_455
Pr1_1 Pr1_3 3.793924 1_545
Pr1_1 Pr1_3 3.793924 1_555
Pr1_1 Pr1_7 3.793924 1_445
Pr1_1 Pr1_7 3.793924 1_555
Pr1_2 Pr1_6 3.786782 1_455
Pr1_2 Pr1_6 3.786782 1_555
Pr1_2 Pr1_4 3.793924 1_565
Pr1_2 Pr1_4 3.793924 1_455
Pr1_3 Pr1_7 3.786782 1_455
Pr1_3 Pr1_7 3.786782 1_555
Pr1_3 Pr1_5 3.793924 1_565
Pr1_3 Pr1_5 3.793924 1_455
Pr1_4 Pr1_6 3.793924 1_545
Pr1_4 Pr1_6 3.793924 1_555
Pr1_5 Pr1_7 3.793924 1_545
Pr1_5 Pr1_7 3.793924 1_555
