# generated using pymatgen
data_CaBi2P2O9
_symmetry_space_group_name_H-M   'P 1'
_cell_length_a   7.14482700
_cell_length_b   7.24521800
_cell_length_c   16.02804300
_cell_angle_alpha   90.00000000
_cell_angle_beta   90.00000000
_cell_angle_gamma   90.00000000
_symmetry_Int_Tables_number   1
_chemical_formula_structural   CaBi2P2O9
_chemical_formula_sum   'Ca4 Bi8 P8 O36'
_cell_volume   829.70493614
_cell_formula_units_Z   4
loop_
 _symmetry_equiv_pos_site_id
 _symmetry_equiv_pos_as_xyz
  1  'x, y, z'
loop_
 _atom_site_type_symbol
 _atom_site_label
 _atom_site_symmetry_multiplicity
 _atom_site_fract_x
 _atom_site_fract_y
 _atom_site_fract_z
 _atom_site_occupancy
  Ca  Ca0  1  0.75000000  0.91029200  0.77706400  1
  Ca  Ca1  1  0.75000000  0.58970800  0.27706400  1
  Ca  Ca2  1  0.25000000  0.41029200  0.72293600  1
  Ca  Ca3  1  0.25000000  0.08970800  0.22293600  1
  Bi  Bi0  1  0.75000000  0.39712800  0.88177700  1
  Bi  Bi1  1  0.25000000  0.60287200  0.11822300  1
  Bi  Bi2  1  0.25000000  0.89712800  0.61822300  1
  Bi  Bi3  1  0.75000000  0.10287200  0.38177700  1
  Bi  Bi4  1  0.50000000  0.00000000  0.00000000  1
  Bi  Bi5  1  0.50000000  0.50000000  0.50000000  1
  Bi  Bi6  1  0.00000000  0.50000000  0.50000000  1
  Bi  Bi7  1  0.00000000  0.00000000  0.00000000  1
  P  P0  1  0.25000000  0.39537100  0.91696400  1
  P  P1  1  0.75000000  0.60462900  0.08303600  1
  P  P2  1  0.75000000  0.89537100  0.58303600  1
  P  P3  1  0.25000000  0.10462900  0.41696400  1
  P  P4  1  0.75000000  0.40047900  0.69212500  1
  P  P5  1  0.75000000  0.09952100  0.19212500  1
  P  P6  1  0.25000000  0.90047900  0.80787500  1
  P  P7  1  0.25000000  0.59952100  0.30787500  1
  O  O0  1  0.06683400  0.60897900  0.36084100  1
  O  O1  1  0.56683400  0.39102100  0.63915900  1
  O  O2  1  0.93316600  0.10897900  0.13915900  1
  O  O3  1  0.43316600  0.89102100  0.86084100  1
  O  O4  1  0.93316600  0.39102100  0.63915900  1
  O  O5  1  0.43316600  0.60897900  0.36084100  1
  O  O6  1  0.06683400  0.89102100  0.86084100  1
  O  O7  1  0.56683400  0.10897900  0.13915900  1
  O  O8  1  0.25000000  0.27842500  0.47796800  1
  O  O9  1  0.75000000  0.72157500  0.52203200  1
  O  O10  1  0.75000000  0.77842500  0.02203200  1
  O  O11  1  0.25000000  0.22157500  0.97796800  1
  O  O12  1  0.75000000  0.10879000  0.92043800  1
  O  O13  1  0.25000000  0.89121000  0.07956200  1
  O  O14  1  0.25000000  0.60879000  0.57956200  1
  O  O15  1  0.75000000  0.39121000  0.42043800  1
  O  O16  1  0.75000000  0.23290200  0.75461200  1
  O  O17  1  0.25000000  0.76709800  0.24538800  1
  O  O18  1  0.25000000  0.73290200  0.74538800  1
  O  O19  1  0.75000000  0.26709800  0.25461200  1
  O  O20  1  0.42182000  0.11619500  0.35776800  1
  O  O21  1  0.92182000  0.88380500  0.64223200  1
  O  O22  1  0.57818000  0.61619500  0.14223200  1
  O  O23  1  0.07818000  0.38380500  0.85776800  1
  O  O24  1  0.57818000  0.88380500  0.64223200  1
  O  O25  1  0.07818000  0.11619500  0.35776800  1
  O  O26  1  0.42182000  0.38380500  0.85776800  1
  O  O27  1  0.92182000  0.61619500  0.14223200  1
  O  O28  1  0.75000000  0.43096200  0.02917200  1
  O  O29  1  0.25000000  0.07603300  0.75187400  1
  O  O30  1  0.25000000  0.42396700  0.25187400  1
  O  O31  1  0.75000000  0.57603300  0.74812600  1
  O  O32  1  0.75000000  0.06903800  0.52917200  1
  O  O33  1  0.25000000  0.93096200  0.47082800  1
  O  O34  1  0.25000000  0.56903800  0.97082800  1
  O  O35  1  0.75000000  0.92396700  0.24812600  1
loop_
_geom_bond_atom_site_label_1
_geom_bond_atom_site_label_2
_geom_bond_distance
_geom_bond_site_symmetry_2
Ca0 O16 2.364920 1_565
Ca0 O31 2.465795 1_555
Ca0 O21 2.492832 1_555
Ca0 O24 2.492832 1_555
Ca0 O3 2.635717 1_555
Ca0 O6 2.635717 1_655
Ca0 O12 2.710928 1_565
Ca1 O19 2.364920 1_555
Ca1 O35 2.465795 1_555
Ca1 O27 2.492832 1_555
Ca1 O22 2.492832 1_555
Ca1 O5 2.635717 1_555
Ca1 O0 2.635717 1_655
Ca1 O15 2.710928 1_555
Ca2 O18 2.364920 1_555
Ca2 O29 2.465795 1_555
Ca2 O23 2.492832 1_555
Ca2 O26 2.492832 1_555
Ca2 O1 2.635717 1_555
Ca2 O4 2.635717 1_455
Ca2 O14 2.710928 1_555
Ca3 O17 2.364920 1_545
Ca3 O30 2.465795 1_555
Ca3 O20 2.492832 1_555
Ca3 O25 2.492832 1_555
Ca3 O2 2.635717 1_455
Ca3 O7 2.635717 1_555
Ca3 O13 2.710928 1_545
Bi0 O12 2.179036 1_555
Bi0 O16 2.360092 1_555
Bi0 O28 2.375137 1_556
Bi0 O23 2.378117 1_655
Bi0 O26 2.378117 1_555
Bi0 O31 2.503800 1_555
Bi1 O13 2.179036 1_555
Bi1 O17 2.360092 1_555
Bi1 O34 2.375137 1_554
Bi1 O27 2.378117 1_455
Bi1 O22 2.378117 1_555
Bi1 O30 2.503800 1_555
Bi2 O14 2.179036 1_555
Bi2 O18 2.360092 1_555
Bi2 O33 2.375137 1_555
Bi2 O24 2.378117 1_555
Bi2 O21 2.378117 1_455
Bi2 O29 2.503800 1_565
Bi3 O15 2.179036 1_555
Bi3 O19 2.360092 1_555
Bi3 O32 2.375137 1_555
Bi3 O25 2.378117 1_655
Bi3 O20 2.378117 1_555
Bi3 O35 2.503800 1_545
Bi4 O13 2.331952 1_545
Bi4 O12 2.331952 1_554
Bi4 O7 2.413782 1_555
Bi4 O3 2.413782 1_544
Bi4 O10 2.427429 1_545
Bi4 O11 2.427429 1_554
Bi5 O14 2.331952 1_555
Bi5 O15 2.331952 1_555
Bi5 O5 2.413782 1_555
Bi5 O1 2.413782 1_555
Bi5 O9 2.427429 1_555
Bi5 O8 2.427429 1_555
Bi6 O15 2.331952 1_455
Bi6 O14 2.331952 1_555
Bi6 O0 2.413782 1_555
Bi6 O4 2.413782 1_455
Bi6 O9 2.427429 1_455
Bi6 O8 2.427429 1_555
Bi7 O13 2.331952 1_545
Bi7 O12 2.331952 1_454
Bi7 O2 2.413782 1_455
Bi7 O6 2.413782 1_544
Bi7 O10 2.427429 1_445
Bi7 O11 2.427429 1_554
O0 P7 1.561430 1_555
O1 P4 1.561430 1_555
O2 P5 1.561430 1_555
O3 P6 1.561430 1_555
O4 P4 1.561430 1_555
O5 P7 1.561430 1_555
O6 P6 1.561430 1_555
O7 P5 1.561430 1_555
O8 P3 1.594240 1_555
O9 P2 1.594240 1_555
O10 P1 1.594240 1_555
O11 P0 1.594240 1_555
O16 P4 1.573915 1_555
O17 P7 1.573915 1_555
O18 P6 1.573915 1_555
O19 P5 1.573915 1_555
O20 P3 1.553801 1_555
O21 P2 1.553801 1_555
O22 P1 1.553801 1_555
O23 P0 1.553801 1_555
O24 P2 1.553801 1_555
O25 P3 1.553801 1_555
O26 P0 1.553801 1_555
O27 P1 1.553801 1_555
O28 P1 1.525960 1_555
O29 P6 1.556747 1_545
O30 P7 1.556747 1_555
O31 P4 1.556747 1_555
O32 P2 1.525960 1_545
O33 P3 1.525960 1_565
O34 P0 1.525960 1_555
O35 P5 1.556747 1_565
