# generated using pymatgen
data_PuRe2
_symmetry_space_group_name_H-M   'P 1'
_cell_length_a   5.60829180
_cell_length_b   5.60829180
_cell_length_c   7.95704100
_cell_angle_alpha   90.00000000
_cell_angle_beta   90.00000000
_cell_angle_gamma   120.57851767
_symmetry_Int_Tables_number   1
_chemical_formula_structural   PuRe2
_chemical_formula_sum   'Pu4 Re8'
_cell_volume   215.46764576
_cell_formula_units_Z   4
loop_
 _symmetry_equiv_pos_site_id
 _symmetry_equiv_pos_as_xyz
  1  'x, y, z'
loop_
 _atom_site_type_symbol
 _atom_site_label
 _atom_site_symmetry_multiplicity
 _atom_site_fract_x
 _atom_site_fract_y
 _atom_site_fract_z
 _atom_site_occupancy
  Pu  Pu0  1  0.66666000  0.33334000  0.60335200  1
  Pu  Pu1  1  0.33334000  0.66666000  0.39664800  1
  Pu  Pu2  1  0.33334000  0.66666000  0.10335200  1
  Pu  Pu3  1  0.66666000  0.33334000  0.89664800  1
  Re  Re0  1  0.00000000  0.00000000  0.50000000  1
  Re  Re1  1  0.00000000  0.00000000  0.00000000  1
  Re  Re2  1  0.17346600  0.34683100  0.75000000  1
  Re  Re3  1  0.17247900  0.82752100  0.75000000  1
  Re  Re4  1  0.65316900  0.82653400  0.75000000  1
  Re  Re5  1  0.82653400  0.65316900  0.25000000  1
  Re  Re6  1  0.82752100  0.17247900  0.25000000  1
  Re  Re7  1  0.34683100  0.17346600  0.25000000  1
loop_
_geom_bond_atom_site_label_1
_geom_bond_atom_site_label_2
_geom_bond_distance
_geom_bond_site_symmetry_2
Pu0 Pu3 2.333768 1_555
Pu0 Re3 3.015121 1_655
Pu0 Re3 3.015121 1_545
Pu0 Re2 3.037647 1_655
Pu0 Re4 3.037647 1_545
Pu0 Re4 3.038238 1_555
Pu0 Re2 3.038238 1_555
Pu0 Re5 3.207843 1_555
Pu0 Re7 3.207843 1_555
Pu0 Re6 3.218873 1_555
Pu1 Pu2 2.333768 1_555
Pu1 Re6 3.015121 1_565
Pu1 Re6 3.015121 1_455
Pu1 Re7 3.037647 1_565
Pu1 Re5 3.037647 1_455
Pu1 Re5 3.038238 1_555
Pu1 Re7 3.038238 1_555
Pu1 Re4 3.207843 1_555
Pu1 Re2 3.207843 1_555
Pu1 Re3 3.218873 1_555
Pu2 Re6 3.015121 1_565
Pu2 Re6 3.015121 1_455
Pu2 Re7 3.037647 1_565
Pu2 Re5 3.037647 1_455
Pu2 Re5 3.038238 1_555
Pu2 Re7 3.038238 1_555
Pu2 Re4 3.207843 1_554
Pu2 Re2 3.207843 1_554
Pu2 Re3 3.218873 1_554
Pu3 Re3 3.015121 1_545
Pu3 Re3 3.015121 1_655
Pu3 Re2 3.037647 1_655
Pu3 Re4 3.037647 1_545
Pu3 Re4 3.038238 1_555
Pu3 Re2 3.038238 1_555
Pu3 Re5 3.207843 1_556
Pu3 Re7 3.207843 1_556
Pu3 Re6 3.218873 1_556
Re0 Re5 2.600347 1_445
Re0 Re2 2.600347 1_555
Re0 Re7 2.600347 1_555
Re0 Re4 2.600347 1_445
Re0 Re3 2.603950 1_545
Re0 Re6 2.603950 1_455
Re1 Re5 2.600347 1_445
Re1 Re7 2.600347 1_555
Re1 Re4 2.600347 1_444
Re1 Re2 2.600347 1_554
Re1 Re3 2.603950 1_544
Re1 Re6 2.603950 1_455
Re2 Re4 2.666755 1_555
Re2 Re3 2.698670 1_555
Re2 Re4 2.892425 1_445
Re2 Re3 2.909630 1_545
Re3 Re4 2.698670 1_555
Re3 Re4 2.909630 1_455
Re5 Re7 2.666755 1_555
Re5 Re6 2.698670 1_555
Re5 Re7 2.892425 1_665
Re5 Re6 2.909630 1_565
Re6 Re7 2.698670 1_555
Re6 Re7 2.909630 1_655
