# generated using pymatgen
data_Tm5In4
_symmetry_space_group_name_H-M   'P 1'
_cell_length_a   6.55069558
_cell_length_b   9.12427138
_cell_length_c   9.12435680
_cell_angle_alpha   120.00029687
_cell_angle_beta   90.00000000
_cell_angle_gamma   90.00000000
_symmetry_Int_Tables_number   1
_chemical_formula_structural   Tm5In4
_chemical_formula_sum   'Tm10 In8'
_cell_volume   472.29919339
_cell_formula_units_Z   2
loop_
 _symmetry_equiv_pos_site_id
 _symmetry_equiv_pos_as_xyz
  1  'x, y, z'
loop_
 _atom_site_type_symbol
 _atom_site_label
 _atom_site_symmetry_multiplicity
 _atom_site_fract_x
 _atom_site_fract_y
 _atom_site_fract_z
 _atom_site_occupancy
  Tm  Tm0  1  0.00000000  0.66666700  0.33333300  1
  Tm  Tm1  1  -0.00000000  0.33333300  0.66666700  1
  Tm  Tm2  1  0.50000000  0.33333300  0.66666700  1
  Tm  Tm3  1  0.50000000  0.66666700  0.33333300  1
  Tm  Tm4  1  0.75000000  0.71103807  0.71103807  1
  Tm  Tm5  1  0.25000000  0.28896193  0.28896193  1
  Tm  Tm6  1  0.75000000  -0.00000000  0.28896193  1
  Tm  Tm7  1  0.25000000  0.00000000  0.71103807  1
  Tm  Tm8  1  0.75000000  0.28896193  0.00000000  1
  Tm  Tm9  1  0.25000000  0.71103807  -0.00000000  1
  In  In0  1  -0.00000000  0.00000000  0.00000000  1
  In  In1  1  0.50000000  0.00000000  0.00000000  1
  In  In2  1  0.75000000  0.37274497  0.37274497  1
  In  In3  1  0.25000000  0.62725503  0.62725503  1
  In  In4  1  0.75000000  0.00000000  0.62725403  1
  In  In5  1  0.25000000  -0.00000000  0.37274597  1
  In  In6  1  0.75000000  0.62725503  -0.00000000  1
  In  In7  1  0.25000000  0.37274497  0.00000000  1
loop_
_geom_bond_atom_site_label_1
_geom_bond_atom_site_label_2
_geom_bond_distance
_geom_bond_site_symmetry_2
In0 Tm8 3.103782 1_455
In0 Tm9 3.103782 1_545
In0 Tm5 3.103782 1_555
In0 Tm4 3.103782 1_444
In0 Tm6 3.103803 1_455
In0 Tm7 3.103803 1_554
In1 Tm8 3.103782 1_555
In1 Tm9 3.103782 1_545
In1 Tm5 3.103782 1_555
In1 Tm4 3.103782 1_544
In1 Tm6 3.103803 1_555
In1 Tm7 3.103803 1_554
In2 Tm4 3.086679 1_555
In2 Tm6 3.090533 1_555
In2 Tm8 3.090566 1_555
In2 Tm0 3.311781 1_655
In2 Tm3 3.311781 1_555
In2 Tm2 3.311801 1_555
In2 Tm1 3.311801 1_655
In2 Tm5 3.363376 1_555
In2 Tm5 3.363376 1_655
In3 Tm5 3.086679 1_555
In3 Tm7 3.090533 1_565
In3 Tm9 3.090566 1_556
In3 Tm1 3.311781 1_555
In3 Tm2 3.311781 1_555
In3 Tm0 3.311801 1_555
In3 Tm3 3.311801 1_555
In3 Tm4 3.363376 1_555
In3 Tm4 3.363376 1_455
In4 Tm6 3.086698 1_555
In4 Tm4 3.090553 1_545
In4 Tm8 3.090554 1_556
In4 Tm2 3.311764 1_555
In4 Tm1 3.311764 1_655
In4 Tm3 3.311768 1_545
In4 Tm0 3.311768 1_645
In4 Tm7 3.363380 1_555
In4 Tm7 3.363380 1_655
In5 Tm7 3.086698 1_555
In5 Tm5 3.090553 1_555
In5 Tm9 3.090554 1_545
In5 Tm3 3.311764 1_545
In5 Tm0 3.311764 1_545
In5 Tm1 3.311768 1_555
In5 Tm2 3.311768 1_555
In5 Tm6 3.363380 1_455
In5 Tm6 3.363380 1_555
In6 Tm8 3.086678 1_555
In6 Tm6 3.090534 1_565
In6 Tm4 3.090566 1_554
In6 Tm1 3.311777 1_654
In6 Tm2 3.311777 1_554
In6 Tm0 3.311793 1_655
In6 Tm3 3.311793 1_555
In6 Tm9 3.363376 1_555
In6 Tm9 3.363376 1_655
In7 Tm9 3.086678 1_555
In7 Tm7 3.090534 1_554
In7 Tm5 3.090566 1_555
In7 Tm0 3.311777 1_555
In7 Tm3 3.311777 1_555
In7 Tm2 3.311793 1_554
In7 Tm1 3.311793 1_554
In7 Tm8 3.363376 1_455
In7 Tm8 3.363376 1_555
