# generated using pymatgen
data_Ge3(MoO6)2
_symmetry_space_group_name_H-M   'P 1'
_cell_length_a   10.72749478
_cell_length_b   10.72749478
_cell_length_c   10.72749478
_cell_angle_alpha   109.47122063
_cell_angle_beta   109.47122063
_cell_angle_gamma   109.47122063
_symmetry_Int_Tables_number   1
_chemical_formula_structural   Ge3(MoO6)2
_chemical_formula_sum   'Ge12 Mo8 O48'
_cell_volume   950.32694923
_cell_formula_units_Z   4
loop_
 _symmetry_equiv_pos_site_id
 _symmetry_equiv_pos_as_xyz
  1  'x, y, z'
loop_
 _atom_site_type_symbol
 _atom_site_label
 _atom_site_symmetry_multiplicity
 _atom_site_fract_x
 _atom_site_fract_y
 _atom_site_fract_z
 _atom_site_occupancy
  Ge  Ge0  1  0.12500000  0.75000000  0.87500000  1
  Ge  Ge1  1  0.87500000  0.25000000  0.12500000  1
  Ge  Ge2  1  0.62500000  0.37500000  0.25000000  1
  Ge  Ge3  1  0.75000000  0.87500000  0.12500000  1
  Ge  Ge4  1  0.87500000  0.12500000  0.75000000  1
  Ge  Ge5  1  0.25000000  0.62500000  0.37500000  1
  Ge  Ge6  1  0.75000000  0.37500000  0.62500000  1
  Ge  Ge7  1  0.25000000  0.12500000  0.87500000  1
  Ge  Ge8  1  0.12500000  0.87500000  0.25000000  1
  Ge  Ge9  1  0.37500000  0.62500000  0.75000000  1
  Ge  Ge10  1  0.62500000  0.75000000  0.37500000  1
  Ge  Ge11  1  0.37500000  0.25000000  0.62500000  1
  Mo  Mo0  1  0.50000000  0.50000000  0.50000000  1
  Mo  Mo1  1  0.50000000  0.00000000  0.50000000  1
  Mo  Mo2  1  0.00000000  0.50000000  0.50000000  1
  Mo  Mo3  1  0.50000000  0.50000000  0.00000000  1
  Mo  Mo4  1  0.00000000  0.00000000  0.50000000  1
  Mo  Mo5  1  0.00000000  0.50000000  0.00000000  1
  Mo  Mo6  1  0.50000000  0.00000000  0.00000000  1
  Mo  Mo7  1  0.00000000  0.00000000  0.00000000  1
  O  O0  1  0.42003300  0.81722300  0.81115500  1
  O  O1  1  0.89112200  0.39719000  0.07996700  1
  O  O2  1  0.10281000  0.99393100  0.68277700  1
  O  O3  1  0.50606900  0.60887800  0.68884500  1
  O  O4  1  0.68277700  0.07996700  0.68884500  1
  O  O5  1  0.60887800  0.68884500  0.50606900  1
  O  O6  1  0.60887800  0.42003300  0.10281000  1
  O  O7  1  0.68884500  0.50606900  0.60887800  1
  O  O8  1  0.81722300  0.50606900  0.39719000  1
  O  O9  1  0.99393100  0.81115500  0.89112200  1
  O  O10  1  0.81115500  0.89112200  0.99393100  1
  O  O11  1  0.68884500  0.68277700  0.07996700  1
  O  O12  1  0.42003300  0.10281000  0.60887800  1
  O  O13  1  0.39719000  0.81722300  0.50606900  1
  O  O14  1  0.07996700  0.68884500  0.68277700  1
  O  O15  1  0.10281000  0.60887800  0.42003300  1
  O  O16  1  0.50606900  0.39719000  0.81722300  1
  O  O17  1  0.07996700  0.89112200  0.39719000  1
  O  O18  1  0.99393100  0.68277700  0.10281000  1
  O  O19  1  0.18277700  0.49393100  0.60281000  1
  O  O20  1  0.68277700  0.10281000  0.99393100  1
  O  O21  1  0.81115500  0.42003300  0.81722300  1
  O  O22  1  0.39719000  0.07996700  0.89112200  1
  O  O23  1  0.89112200  0.99393100  0.81115500  1
  O  O24  1  0.57996700  0.18277700  0.18884500  1
  O  O25  1  0.10887800  0.60281000  0.92003300  1
  O  O26  1  0.89719000  0.00606900  0.31722300  1
  O  O27  1  0.49393100  0.39112200  0.31115500  1
  O  O28  1  0.31722300  0.92003300  0.31115500  1
  O  O29  1  0.39112200  0.31115500  0.49393100  1
  O  O30  1  0.39112200  0.57996700  0.89719000  1
  O  O31  1  0.31115500  0.49393100  0.39112200  1
  O  O32  1  0.10887800  0.00606900  0.18884500  1
  O  O33  1  0.60281000  0.92003300  0.10887800  1
  O  O34  1  0.18884500  0.57996700  0.18277700  1
  O  O35  1  0.18277700  0.18884500  0.57996700  1
  O  O36  1  0.31722300  0.89719000  0.00606900  1
  O  O37  1  0.00606900  0.31722300  0.89719000  1
  O  O38  1  0.92003300  0.10887800  0.60281000  1
  O  O39  1  0.49393100  0.60281000  0.18277700  1
  O  O40  1  0.89719000  0.39112200  0.57996700  1
  O  O41  1  0.92003300  0.31115500  0.31722300  1
  O  O42  1  0.60281000  0.18277700  0.49393100  1
  O  O43  1  0.57996700  0.89719000  0.39112200  1
  O  O44  1  0.31115500  0.31722300  0.92003300  1
  O  O45  1  0.18884500  0.10887800  0.00606900  1
  O  O46  1  0.00606900  0.18884500  0.10887800  1
  O  O47  1  0.81722300  0.81115500  0.42003300  1
loop_
_geom_bond_atom_site_label_1
_geom_bond_atom_site_label_2
_geom_bond_distance
_geom_bond_site_symmetry_2
Ge0 O14 1.771620 1_555
Ge0 O25 1.771620 1_555
Ge0 O36 1.771622 1_556
Ge0 O9 1.771631 1_455
Ge1 O41 1.771620 1_555
Ge1 O1 1.771620 1_555
Ge1 O20 1.771622 1_554
Ge1 O46 1.771631 1_655
Ge2 O6 1.771620 1_555
Ge2 O24 1.771620 1_555
Ge2 O8 1.771622 1_555
Ge2 O27 1.771631 1_555
Ge3 O11 1.771620 1_555
Ge3 O33 1.771620 1_555
Ge3 O26 1.771622 1_565
Ge3 O10 1.771631 1_554
Ge4 O4 1.771620 1_555
Ge4 O38 1.771620 1_555
Ge4 O37 1.771622 1_655
Ge4 O23 1.771631 1_545
Ge5 O15 1.771620 1_555
Ge5 O34 1.771620 1_555
Ge5 O13 1.771622 1_555
Ge5 O31 1.771631 1_555
Ge6 O21 1.771620 1_555
Ge6 O40 1.771620 1_555
Ge6 O42 1.771622 1_555
Ge6 O7 1.771631 1_555
Ge7 O44 1.771620 1_555
Ge7 O22 1.771620 1_555
Ge7 O2 1.771622 1_545
Ge7 O45 1.771631 1_556
Ge8 O17 1.771620 1_555
Ge8 O28 1.771620 1_555
Ge8 O18 1.771622 1_455
Ge8 O32 1.771631 1_565
Ge9 O30 1.771620 1_555
Ge9 O0 1.771620 1_555
Ge9 O19 1.771622 1_555
Ge9 O3 1.771631 1_555
Ge10 O43 1.771620 1_555
Ge10 O47 1.771620 1_555
Ge10 O39 1.771622 1_555
Ge10 O5 1.771631 1_555
Ge11 O12 1.771620 1_555
Ge11 O35 1.771620 1_555
Ge11 O16 1.771622 1_555
Ge11 O29 1.771631 1_555
Mo0 O27 1.938139 1_555
Mo0 O31 1.938139 1_555
Mo0 O29 1.938139 1_555
Mo0 O3 1.938139 1_555
Mo0 O5 1.938139 1_555
Mo0 O7 1.938139 1_555
Mo1 O43 1.938144 1_545
Mo1 O28 1.938144 1_545
Mo1 O4 1.938144 1_555
Mo1 O12 1.938144 1_555
Mo1 O13 1.938150 1_545
Mo1 O42 1.938150 1_555
Mo2 O40 1.938144 1_455
Mo2 O41 1.938144 1_455
Mo2 O14 1.938144 1_555
Mo2 O15 1.938144 1_555
Mo2 O19 1.938150 1_555
Mo2 O8 1.938150 1_455
Mo3 O30 1.938144 1_554
Mo3 O11 1.938144 1_555
Mo3 O44 1.938144 1_554
Mo3 O6 1.938144 1_555
Mo3 O16 1.938150 1_554
Mo3 O39 1.938150 1_555
Mo4 O38 1.938144 1_455
Mo4 O17 1.938144 1_545
Mo4 O47 1.938144 1_445
Mo4 O35 1.938144 1_555
Mo4 O2 1.938150 1_545
Mo4 O26 1.938150 1_455
Mo5 O25 1.938144 1_554
Mo5 O21 1.938144 1_454
Mo5 O34 1.938144 1_555
Mo5 O1 1.938144 1_455
Mo5 O18 1.938150 1_455
Mo5 O37 1.938150 1_554
Mo6 O33 1.938144 1_545
Mo6 O24 1.938144 1_555
Mo6 O22 1.938144 1_554
Mo6 O0 1.938144 1_544
Mo6 O20 1.938150 1_554
Mo6 O36 1.938150 1_545
Mo7 O32 1.938139 1_555
Mo7 O45 1.938139 1_555
Mo7 O46 1.938139 1_555
Mo7 O9 1.938139 1_444
Mo7 O23 1.938139 1_444
Mo7 O10 1.938139 1_444
