# generated using pymatgen
data_RbZr6MnCl14
_symmetry_space_group_name_H-M   'P 1'
_cell_length_a   9.88963018
_cell_length_b   9.88963018
_cell_length_c   12.06904700
_cell_angle_alpha   90.00000000
_cell_angle_beta   90.00000000
_cell_angle_gamma   96.00903110
_symmetry_Int_Tables_number   1
_chemical_formula_structural   RbZr6MnCl14
_chemical_formula_sum   'Rb2 Zr12 Mn2 Cl28'
_cell_volume   1173.92467226
_cell_formula_units_Z   2
loop_
 _symmetry_equiv_pos_site_id
 _symmetry_equiv_pos_as_xyz
  1  'x, y, z'
loop_
 _atom_site_type_symbol
 _atom_site_label
 _atom_site_symmetry_multiplicity
 _atom_site_fract_x
 _atom_site_fract_y
 _atom_site_fract_z
 _atom_site_occupancy
  Rb  Rb0  1  0.50000000  0.50000000  0.00000000  1
  Rb  Rb1  1  0.00000000  0.00000000  0.50000000  1
  Zr  Zr0  1  0.34887700  0.34887700  0.38983900  1
  Zr  Zr1  1  0.65112300  0.65112300  0.61016100  1
  Zr  Zr2  1  0.15112300  0.15112300  0.88983900  1
  Zr  Zr3  1  0.84887700  0.84887700  0.11016100  1
  Zr  Zr4  1  0.95197800  0.19091300  0.11840500  1
  Zr  Zr5  1  0.04802200  0.80908700  0.88159500  1
  Zr  Zr6  1  0.54802200  0.30908700  0.61840500  1
  Zr  Zr7  1  0.69091300  0.45197800  0.38159500  1
  Zr  Zr8  1  0.45197800  0.69091300  0.38159500  1
  Zr  Zr9  1  0.30908700  0.54802200  0.61840500  1
  Zr  Zr10  1  0.80908700  0.04802200  0.88159500  1
  Zr  Zr11  1  0.19091300  0.95197800  0.11840500  1
  Mn  Mn0  1  0.00000000  0.00000000  0.00000000  1
  Mn  Mn1  1  0.50000000  0.50000000  0.50000000  1
  Cl  Cl0  1  0.11657700  0.36359500  0.00662100  1
  Cl  Cl1  1  0.88342300  0.63640500  0.99337900  1
  Cl  Cl2  1  0.38342300  0.13640500  0.50662100  1
  Cl  Cl3  1  0.86359500  0.61657700  0.49337900  1
  Cl  Cl4  1  0.61657700  0.86359500  0.49337900  1
  Cl  Cl5  1  0.13640500  0.38342300  0.50662100  1
  Cl  Cl6  1  0.63640500  0.88342300  0.99337900  1
  Cl  Cl7  1  0.36359500  0.11657700  0.00662100  1
  Cl  Cl8  1  0.75016000  0.24984000  0.00000000  1
  Cl  Cl9  1  0.24984000  0.75016000  0.00000000  1
  Cl  Cl10  1  0.74984000  0.25016000  0.50000000  1
  Cl  Cl11  1  0.25016000  0.74984000  0.50000000  1
  Cl  Cl12  1  0.89967200  0.39967200  0.25000000  1
  Cl  Cl13  1  0.10032800  0.60032800  0.75000000  1
  Cl  Cl14  1  0.60032800  0.10032800  0.75000000  1
  Cl  Cl15  1  0.39967200  0.89967200  0.25000000  1
  Cl  Cl16  1  0.15619600  0.15619600  0.25832400  1
  Cl  Cl17  1  0.84380400  0.84380400  0.74167600  1
  Cl  Cl18  1  0.34380400  0.34380400  0.75832400  1
  Cl  Cl19  1  0.65619600  0.65619600  0.24167600  1
  Cl  Cl20  1  0.28955400  0.53541800  0.25344600  1
  Cl  Cl21  1  0.71044600  0.46458200  0.74655400  1
  Cl  Cl22  1  0.21044600  0.96458200  0.75344600  1
  Cl  Cl23  1  0.03541800  0.78955400  0.24655400  1
  Cl  Cl24  1  0.78955400  0.03541800  0.24655400  1
  Cl  Cl25  1  0.96458200  0.21044600  0.75344600  1
  Cl  Cl26  1  0.46458200  0.71044600  0.74655400  1
  Cl  Cl27  1  0.53541800  0.28955400  0.25344600  1
loop_
_geom_bond_atom_site_label_1
_geom_bond_atom_site_label_2
_geom_bond_distance
_geom_bond_site_symmetry_2
Mn0 Zr3 2.401535 1_445
Mn0 Zr2 2.401535 1_554
Mn0 Zr11 2.453609 1_545
Mn0 Zr5 2.453609 1_544
Mn0 Zr4 2.453609 1_455
Mn0 Zr10 2.453609 1_454
Mn1 Zr1 2.401535 1_555
Mn1 Zr0 2.401535 1_555
Mn1 Zr8 2.453609 1_555
Mn1 Zr9 2.453609 1_555
Mn1 Zr6 2.453609 1_555
Mn1 Zr7 2.453609 1_555
Cl0 Zr2 2.582422 1_554
Cl0 Zr4 2.608517 1_455
Cl0 Rb0 3.890216 1_555
Cl1 Zr3 2.582422 1_556
Cl1 Zr5 2.608517 1_655
Cl1 Rb0 3.890216 1_556
Cl2 Zr0 2.582422 1_555
Cl2 Zr6 2.608517 1_555
Cl2 Rb1 3.890216 1_555
Cl3 Zr1 2.582422 1_555
Cl3 Zr7 2.608517 1_555
Cl3 Rb1 3.890216 1_665
Cl4 Zr1 2.582422 1_555
Cl4 Zr8 2.608517 1_555
Cl4 Rb1 3.890216 1_665
Cl5 Zr0 2.582422 1_555
Cl5 Zr9 2.608517 1_555
Cl5 Rb1 3.890216 1_555
Cl6 Zr3 2.582422 1_556
Cl6 Zr10 2.608517 1_565
Cl6 Rb0 3.890216 1_556
Cl7 Zr2 2.582422 1_554
Cl7 Zr11 2.608517 1_545
Cl7 Rb0 3.890216 1_555
Cl8 Zr10 2.570783 1_554
Cl8 Zr4 2.570783 1_555
Cl8 Rb0 3.677326 1_555
Cl9 Zr5 2.570783 1_554
Cl9 Zr11 2.570783 1_555
Cl9 Rb0 3.677326 1_555
Cl10 Zr7 2.570783 1_555
Cl10 Zr6 2.570783 1_555
Cl10 Rb1 3.677326 1_655
Cl11 Zr8 2.570783 1_555
Cl11 Zr9 2.570783 1_555
Cl11 Rb1 3.677326 1_565
Cl12 Zr4 2.697408 1_555
Cl12 Zr7 2.697408 1_555
Cl13 Zr9 2.697408 1_555
Cl13 Zr5 2.697408 1_555
Cl14 Zr6 2.697408 1_555
Cl14 Zr10 2.697408 1_555
Cl15 Zr11 2.697408 1_555
Cl15 Zr8 2.697408 1_555
Cl16 Zr11 2.682104 1_545
Cl16 Zr4 2.682104 1_455
Cl16 Zr0 3.003556 1_555
Cl16 Rb1 3.574975 1_555
Cl17 Zr10 2.682104 1_565
Cl17 Zr5 2.682104 1_655
Cl17 Zr1 3.003556 1_555
Cl17 Rb1 3.574975 1_665
Cl18 Zr9 2.682104 1_555
Cl18 Zr6 2.682104 1_555
Cl18 Zr2 3.003556 1_555
Cl18 Rb0 3.574975 1_556
Cl19 Zr7 2.682104 1_555
Cl19 Zr8 2.682104 1_555
Cl19 Zr3 3.003556 1_555
Cl19 Rb0 3.574975 1_555
Cl20 Zr0 2.585329 1_555
Cl20 Zr8 2.611501 1_555
Cl20 Rb0 3.736767 1_555
Cl21 Zr1 2.585329 1_555
Cl21 Zr6 2.611501 1_555
Cl21 Rb0 3.736767 1_556
Cl22 Zr2 2.585329 1_565
Cl22 Zr5 2.611501 1_555
Cl22 Rb1 3.736767 1_565
Cl23 Zr3 2.585329 1_455
Cl23 Zr11 2.611501 1_555
Cl23 Rb1 3.736767 1_565
Cl24 Zr3 2.585329 1_545
Cl24 Zr4 2.611501 1_555
Cl24 Rb1 3.736767 1_655
Cl25 Zr2 2.585329 1_655
Cl25 Zr10 2.611501 1_555
Cl25 Rb1 3.736767 1_655
Cl26 Zr1 2.585329 1_555
Cl26 Zr9 2.611501 1_555
Cl26 Rb0 3.736767 1_556
Cl27 Zr0 2.585329 1_555
Cl27 Zr7 2.611501 1_555
Cl27 Rb0 3.736767 1_555
