# generated using pymatgen
data_ErWClO4
_symmetry_space_group_name_H-M   'P 1'
_cell_length_a   6.33002435
_cell_length_b   6.33002435
_cell_length_c   6.96403703
_cell_angle_alpha   75.46791795
_cell_angle_beta   75.46791795
_cell_angle_gamma   70.65258156
_symmetry_Int_Tables_number   1
_chemical_formula_structural   ErWClO4
_chemical_formula_sum   'Er2 W2 Cl2 O8'
_cell_volume   250.52407937
_cell_formula_units_Z   2
loop_
 _symmetry_equiv_pos_site_id
 _symmetry_equiv_pos_as_xyz
  1  'x, y, z'
loop_
 _atom_site_type_symbol
 _atom_site_label
 _atom_site_symmetry_multiplicity
 _atom_site_fract_x
 _atom_site_fract_y
 _atom_site_fract_z
 _atom_site_occupancy
  Er  Er0  1  0.77757000  0.77757000  0.11936500  1
  Er  Er1  1  0.22243000  0.22243000  0.88063500  1
  W  W0  1  0.63705900  0.63705900  0.73443200  1
  W  W1  1  0.36294100  0.36294100  0.26556800  1
  Cl  Cl0  1  0.98867200  0.98867200  0.77290800  1
  Cl  Cl1  1  0.01132800  0.01132800  0.22709200  1
  O  O0  1  0.70447400  0.70447400  0.46367100  1
  O  O1  1  0.29552600  0.29552600  0.53632900  1
  O  O2  1  0.54693900  0.54693900  0.19273400  1
  O  O3  1  0.45306100  0.45306100  0.80726600  1
  O  O4  1  0.10523100  0.49291800  0.15547700  1
  O  O5  1  0.49291800  0.10523100  0.15547700  1
  O  O6  1  0.89476900  0.50708200  0.84452300  1
  O  O7  1  0.50708200  0.89476900  0.84452300  1
loop_
_geom_bond_atom_site_label_1
_geom_bond_atom_site_label_2
_geom_bond_distance
_geom_bond_site_symmetry_2
Er0 O5 2.273748 1_565
Er0 O4 2.273748 1_655
Er0 O2 2.277539 1_555
Er0 O0 2.281612 1_555
Er0 O7 2.689946 1_554
Er0 O6 2.689946 1_554
Er1 O6 2.273748 1_455
Er1 O7 2.273748 1_545
Er1 O3 2.277539 1_555
Er1 O1 2.281612 1_555
Er1 O4 2.689946 1_556
Er1 O5 2.689946 1_556
Cl0 Er0 2.709201 1_556
Cl0 Er1 2.739841 1_665
Cl1 Er1 2.709201 1_554
Cl1 Er0 2.739841 1_445
O0 W0 1.797971 1_555
O1 W1 1.797971 1_555
O2 W1 1.810048 1_555
O3 W0 1.810048 1_555
O4 W1 1.829667 1_555
O5 W1 1.829667 1_555
O6 W0 1.829667 1_555
O7 W0 1.829667 1_555
