# generated using pymatgen
data_Fe2BiSbO7
_symmetry_space_group_name_H-M   'P 1'
_cell_length_a   7.37884654
_cell_length_b   7.37884654
_cell_length_c   7.37884654
_cell_angle_alpha   120.65746156
_cell_angle_beta   119.15475649
_cell_angle_gamma   90.16761343
_symmetry_Int_Tables_number   1
_chemical_formula_structural   Fe2BiSbO7
_chemical_formula_sum   'Fe4 Bi2 Sb2 O14'
_cell_volume   284.42730642
_cell_formula_units_Z   2
loop_
 _symmetry_equiv_pos_site_id
 _symmetry_equiv_pos_as_xyz
  1  'x, y, z'
loop_
 _atom_site_type_symbol
 _atom_site_label
 _atom_site_symmetry_multiplicity
 _atom_site_fract_x
 _atom_site_fract_y
 _atom_site_fract_z
 _atom_site_occupancy
  Fe  Fe0  1  0.50000000  0.50000000  0.00000000  1
  Fe  Fe1  1  0.00000000  0.50000000  0.50000000  1
  Fe  Fe2  1  0.00000000  0.50000000  0.00000000  1
  Fe  Fe3  1  0.00000000  0.00000000  0.50000000  1
  Bi  Bi0  1  0.00000000  0.00000000  0.00000000  1
  Bi  Bi1  1  0.50000000  0.00000000  0.50000000  1
  Sb  Sb0  1  0.50000000  0.00000000  0.00000000  1
  Sb  Sb1  1  0.50000000  0.50000000  0.50000000  1
  O  O0  1  0.56244900  0.31244900  0.25000000  1
  O  O1  1  0.14765600  0.89765600  0.25000000  1
  O  O2  1  0.57073700  0.34808400  0.67246400  1
  O  O3  1  0.17562000  0.89827300  0.82753600  1
  O  O4  1  0.17562000  0.34808400  0.27734800  1
  O  O5  1  0.57073700  0.89827300  0.22265200  1
  O  O6  1  0.43755100  0.68755100  0.75000000  1
  O  O7  1  0.85234400  0.10234400  0.75000000  1
  O  O8  1  0.42926300  0.65191600  0.32753600  1
  O  O9  1  0.82438000  0.10172700  0.17246400  1
  O  O10  1  0.82438000  0.65191600  0.72265200  1
  O  O11  1  0.42926300  0.10172700  0.77734800  1
  O  O12  1  0.86527900  0.61527900  0.25000000  1
  O  O13  1  0.13472100  0.38472100  0.75000000  1
loop_
_geom_bond_atom_site_label_1
_geom_bond_atom_site_label_2
_geom_bond_distance
_geom_bond_site_symmetry_2
Fe0 O12 2.221075 1_555
Fe0 O13 2.221075 1_554
Fe0 O2 2.416566 1_554
Fe0 O8 2.416566 1_555
Fe0 O11 2.416566 1_554
Fe0 O5 2.416566 1_555
Fe0 O6 2.703607 1_554
Fe0 O0 2.703607 1_555
Fe1 O13 2.221075 1_555
Fe1 O12 2.221075 1_455
Fe1 O10 2.416561 1_455
Fe1 O4 2.416561 1_555
Fe1 O3 2.416566 1_555
Fe1 O9 2.416566 1_455
Fe1 O6 2.703607 1_555
Fe1 O0 2.703607 1_455
Fe2 O13 2.303515 1_554
Fe2 O12 2.303515 1_455
Fe2 O1 2.388046 1_555
Fe2 O7 2.388046 1_454
Fe2 O8 2.624511 1_555
Fe2 O2 2.624511 1_454
Fe2 O10 2.624516 1_454
Fe2 O4 2.624516 1_555
Fe3 O13 2.303515 1_555
Fe3 O12 2.303515 1_445
Fe3 O1 2.388046 1_545
Fe3 O7 2.388046 1_455
Fe3 O3 2.624511 1_545
Fe3 O9 2.624511 1_455
Fe3 O11 2.624511 1_555
Fe3 O5 2.624511 1_445
Bi0 O9 2.121445 1_455
Bi0 O3 2.121445 1_544
Bi0 O4 2.121445 1_555
Bi0 O10 2.121445 1_444
Bi0 O7 2.151171 1_454
Bi0 O1 2.151171 1_545
Bi1 O2 2.121445 1_555
Bi1 O8 2.121445 1_545
Bi1 O11 2.121451 1_555
Bi1 O5 2.121451 1_545
Bi1 O7 2.151171 1_555
Bi1 O1 2.151171 1_545
O0 Sb1 1.938811 1_555
O0 Sb0 1.938811 1_555
O2 Sb1 1.989846 1_555
O3 Sb0 1.989846 1_566
O4 Sb1 1.989847 1_555
O5 Sb0 1.989840 1_565
O6 Sb0 1.938811 1_566
O6 Sb1 1.938811 1_555
O8 Sb1 1.989846 1_555
O9 Sb0 1.989846 1_555
O10 Sb1 1.989847 1_555
O11 Sb0 1.989840 1_556
