# generated using pymatgen
data_NaLiSi2H4O7
_symmetry_space_group_name_H-M   'P 1'
_cell_length_a   8.41150426
_cell_length_b   8.41150426
_cell_length_c   5.12564187
_cell_angle_alpha   84.22341870
_cell_angle_beta   84.22341870
_cell_angle_gamma   60.05921722
_symmetry_Int_Tables_number   1
_chemical_formula_structural   NaLiSi2H4O7
_chemical_formula_sum   'Na2 Li2 Si4 H8 O14'
_cell_volume   312.12622982
_cell_formula_units_Z   2
loop_
 _symmetry_equiv_pos_site_id
 _symmetry_equiv_pos_as_xyz
  1  'x, y, z'
loop_
 _atom_site_type_symbol
 _atom_site_label
 _atom_site_symmetry_multiplicity
 _atom_site_fract_x
 _atom_site_fract_y
 _atom_site_fract_z
 _atom_site_occupancy
  Na  Na0  1  0.14612700  0.85387300  0.25000000  1
  Na  Na1  1  0.85387300  0.14612700  0.75000000  1
  Li  Li0  1  0.50979900  0.49020100  0.25000000  1
  Li  Li1  1  0.49020100  0.50979900  0.75000000  1
  Si  Si0  1  0.78387400  0.58948600  0.44641300  1
  Si  Si1  1  0.41051400  0.21612600  0.05358700  1
  Si  Si2  1  0.21612600  0.41051400  0.55358700  1
  Si  Si3  1  0.58948600  0.78387400  0.94641300  1
  H  H0  1  0.74761700  0.94870500  0.47514100  1
  H  H1  1  0.05129500  0.25238300  0.02485900  1
  H  H2  1  0.25238300  0.05129500  0.52485900  1
  H  H3  1  0.94870500  0.74761700  0.97514100  1
  H  H4  1  0.72149800  0.11217100  0.27009000  1
  H  H5  1  0.88782900  0.27850200  0.22991000  1
  H  H6  1  0.27850200  0.88782900  0.72991000  1
  H  H7  1  0.11217100  0.72149800  0.77009000  1
  O  O0  1  0.70643900  0.44800000  0.48839900  1
  O  O1  1  0.55200000  0.29356100  0.01160100  1
  O  O2  1  0.29356100  0.55200000  0.51160100  1
  O  O3  1  0.44800000  0.70643900  0.98839900  1
  O  O4  1  0.76616300  0.67533200  0.13755600  1
  O  O5  1  0.32466800  0.23383700  0.36244400  1
  O  O6  1  0.23383700  0.32466800  0.86244400  1
  O  O7  1  0.67533200  0.76616300  0.63755600  1
  O  O8  1  0.00000000  0.50000000  0.50000000  1
  O  O9  1  0.50000000  0.00000000  0.00000000  1
  O  O10  1  0.80462900  0.02222500  0.40087300  1
  O  O11  1  0.97777500  0.19537100  0.09912700  1
  O  O12  1  0.19537100  0.97777500  0.59912700  1
  O  O13  1  0.02222500  0.80462900  0.90087300  1
loop_
_geom_bond_atom_site_label_1
_geom_bond_atom_site_label_2
_geom_bond_distance
_geom_bond_site_symmetry_2
Na0 O12 2.327151 1_555
Na0 O13 2.327151 1_554
Na0 O2 2.507884 1_555
Na0 O3 2.507884 1_554
Na0 O11 2.562711 1_465
Na0 O10 2.562711 1_465
Na1 O11 2.327151 1_556
Na1 O10 2.327151 1_555
Na1 O1 2.507884 1_556
Na1 O0 2.507884 1_555
Na1 O12 2.562711 1_645
Na1 O13 2.562711 1_645
Li0 O3 2.020411 1_554
Li0 O2 2.020411 1_555
Li0 O0 2.021993 1_555
Li0 O1 2.021993 1_555
Li1 O0 2.020411 1_555
Li1 O1 2.020411 1_556
Li1 O3 2.021993 1_555
Li1 O2 2.021993 1_555
H0 O10 0.984489 1_565
H1 O11 0.984489 1_455
H2 O12 0.984489 1_545
H3 O13 0.984489 1_655
H4 O10 0.987374 1_555
H5 O11 0.987374 1_555
H6 O12 0.987374 1_555
H7 O13 0.987374 1_555
O0 Si0 1.606529 1_555
O1 Si1 1.606529 1_555
O2 Si2 1.606529 1_555
O3 Si3 1.606529 1_555
O4 Si0 1.661255 1_555
O4 Si3 1.661513 1_554
O5 Si1 1.661255 1_555
O5 Si2 1.661513 1_555
O6 Si2 1.661255 1_555
O6 Si1 1.661513 1_556
O7 Si3 1.661255 1_555
O7 Si0 1.661513 1_555
O8 Si2 1.624777 1_555
O8 Si0 1.624777 1_455
O9 Si1 1.624777 1_555
O9 Si3 1.624777 1_544
