# generated using pymatgen
data_Sr2YSb2O7
_symmetry_space_group_name_H-M   'P 1'
_cell_length_a   13.42107838
_cell_length_b   13.42107838
_cell_length_c   13.42107838
_cell_angle_alpha   37.11982724
_cell_angle_beta   154.90187532
_cell_angle_gamma   153.09935772
_symmetry_Int_Tables_number   1
_chemical_formula_structural   Sr2YSb2O7
_chemical_formula_sum   'Sr4 Y2 Sb4 O14'
_cell_volume   463.28815349
_cell_formula_units_Z   2
loop_
 _symmetry_equiv_pos_site_id
 _symmetry_equiv_pos_as_xyz
  1  'x, y, z'
loop_
 _atom_site_type_symbol
 _atom_site_label
 _atom_site_symmetry_multiplicity
 _atom_site_fract_x
 _atom_site_fract_y
 _atom_site_fract_z
 _atom_site_occupancy
  Sr  Sr0  1  0.76527100  0.71682000  0.68087400  1
  Sr  Sr1  1  0.03594600  0.08439500  0.31912600  1
  Sr  Sr2  1  0.76527100  0.58439500  0.54845100  1
  Sr  Sr3  1  0.03594600  0.21682000  0.45154900  1
  Y  Y0  1  0.02220200  0.52220200  0.50000000  1
  Y  Y1  1  0.02220200  0.02220200  0.00000000  1
  Sb  Sb0  1  0.53938300  0.47009800  0.92615300  1
  Sb  Sb1  1  0.54394500  0.61323000  0.07384700  1
  Sb  Sb2  1  0.53938300  0.11323000  0.56928600  1
  Sb  Sb3  1  0.54394500  0.97009800  0.43071400  1
  O  O0  1  0.97089600  0.92036900  0.55052500  1
  O  O1  1  0.36984400  0.42036900  0.44947500  1
  O  O2  1  0.47255200  0.22181600  0.15357300  1
  O  O3  1  0.06824300  0.31898100  0.84642700  1
  O  O4  1  0.47255200  0.81898000  0.75073700  1
  O  O5  1  0.06824300  0.72181600  0.24926300  1
  O  O6  1  0.66668000  0.79480000  0.74021900  1
  O  O7  1  0.05458200  0.92646000  0.25978100  1
  O  O8  1  0.66668000  0.42646000  0.37188000  1
  O  O9  1  0.05458200  0.29480000  0.62812000  1
  O  O10  1  0.54070500  0.89584300  0.35095400  1
  O  O11  1  0.54488900  0.18975000  0.64904600  1
  O  O12  1  0.54070500  0.68975000  0.14486200  1
  O  O13  1  0.54488900  0.39584300  0.85513800  1
loop_
_geom_bond_atom_site_label_1
_geom_bond_atom_site_label_2
_geom_bond_distance
_geom_bond_site_symmetry_2
O0 Sr2 2.411502 1_555
O0 Sr0 2.411514 1_555
O0 Sr1 2.415197 1_665
O0 Sr3 2.415221 1_665
O1 Sr3 2.411493 1_555
O1 Sr1 2.411514 1_555
O1 Sr0 2.415204 1_555
O1 Sr2 2.415221 1_555
O2 Sb0 2.152241 1_554
O2 Y1 2.306418 1_555
O2 Sb3 2.333536 1_545
O2 Y0 2.649023 1_655
O3 Sb1 2.152232 1_556
O3 Y1 2.306439 1_556
O3 Sb2 2.333533 1_455
O3 Y0 2.649027 1_555
O4 Sb2 2.152233 1_565
O4 Y0 2.306432 1_555
O4 Sb1 2.333530 1_556
O4 Y1 2.649035 1_666
O5 Sb3 2.152241 1_555
O5 Y0 2.306429 1_555
O5 Sb0 2.333533 1_454
O5 Y1 2.649025 1_565
O6 Sb3 2.106543 1_555
O6 Y1 2.259025 1_666
O6 Sb0 2.288422 1_555
O6 Sr0 3.031272 1_555
O7 Sb2 2.106536 1_565
O7 Y1 2.259009 1_565
O7 Sb1 2.288426 1_455
O7 Sr1 3.031271 1_565
O8 Sb1 2.106543 1_555
O8 Y0 2.259016 1_655
O8 Sb2 2.288423 1_555
O8 Sr2 3.031259 1_555
O9 Sb0 2.106533 1_555
O9 Y0 2.259035 1_555
O9 Sb3 2.288425 1_445
O9 Sr3 3.031259 1_555
O10 Sb3 1.918503 1_555
O10 Sr0 2.498362 1_555
O10 Sr3 2.551813 1_665
O11 Sb2 1.918490 1_555
O11 Sr1 2.498356 1_555
O11 Sr2 2.551804 1_555
O12 Sb1 1.918503 1_555
O12 Sr2 2.498361 1_555
O12 Sr1 2.551806 1_665
O13 Sb0 1.918516 1_555
O13 Sr3 2.498362 1_555
O13 Sr0 2.551813 1_555
