# generated using pymatgen
data_Al2(MoO4)3
_symmetry_space_group_name_H-M   'P 1'
_cell_length_a   9.02124515
_cell_length_b   9.10267236
_cell_length_c   12.49704017
_cell_angle_alpha   90.00000000
_cell_angle_beta   90.00000000
_cell_angle_gamma   90.00000000
_symmetry_Int_Tables_number   1
_chemical_formula_structural   Al2(MoO4)3
_chemical_formula_sum   'Al8 Mo12 O48'
_cell_volume   1026.22493234
_cell_formula_units_Z   4
loop_
 _symmetry_equiv_pos_site_id
 _symmetry_equiv_pos_as_xyz
  1  'x, y, z'
loop_
 _atom_site_type_symbol
 _atom_site_label
 _atom_site_symmetry_multiplicity
 _atom_site_fract_x
 _atom_site_fract_y
 _atom_site_fract_z
 _atom_site_occupancy
  Al  Al0  1  0.25001670  0.46436783  0.38009899  1
  Al  Al1  1  0.25001670  0.03563217  0.61990201  1
  Al  Al2  1  0.24998330  0.96436783  0.11990201  1
  Al  Al3  1  0.24998330  0.53563217  0.88009799  1
  Al  Al4  1  0.74998330  0.53563217  0.61990201  1
  Al  Al5  1  0.74998330  0.96436783  0.38009899  1
  Al  Al6  1  0.75001670  0.03563217  0.88009799  1
  Al  Al7  1  0.75001670  0.46436783  0.11990201  1
  Mo  Mo0  1  0.02466737  0.75000000  0.50000000  1
  Mo  Mo1  1  0.52466637  0.75000000  0.00000000  1
  Mo  Mo2  1  0.97533363  0.25000000  0.50000000  1
  Mo  Mo3  1  0.47533263  0.25000000  0.00000000  1
  Mo  Mo4  1  0.39798197  0.11979018  0.35491643  1
  Mo  Mo5  1  0.39798197  0.38020982  0.64508257  1
  Mo  Mo6  1  0.10201803  0.61979018  0.14508257  1
  Mo  Mo7  1  0.10201803  0.88020982  0.85491743  1
  Mo  Mo8  1  0.60201803  0.88020982  0.64508257  1
  Mo  Mo9  1  0.60201803  0.61979018  0.35491643  1
  Mo  Mo10  1  0.89798197  0.38020982  0.85491743  1
  Mo  Mo11  1  0.89798197  0.11979018  0.14508257  1
  O  O0  1  0.86309495  0.30632747  0.17239327  1
  O  O1  1  0.86309495  0.19367253  0.82760673  1
  O  O2  1  0.63690505  0.80632747  0.32760773  1
  O  O3  1  0.63690505  0.69367253  0.67239327  1
  O  O4  1  0.13690505  0.69367253  0.82760673  1
  O  O5  1  0.13690505  0.80632747  0.17239327  1
  O  O6  1  0.36309495  0.19367253  0.67239327  1
  O  O7  1  0.36309495  0.30632747  0.32760773  1
  O  O8  1  0.82077884  0.07594584  0.02019129  1
  O  O9  1  0.82077884  0.42405416  0.97980871  1
  O  O10  1  0.67922116  0.57594484  0.47980871  1
  O  O11  1  0.67922116  0.92405416  0.52019129  1
  O  O12  1  0.17922116  0.92405416  0.97980871  1
  O  O13  1  0.17922116  0.57594484  0.02019129  1
  O  O14  1  0.32077884  0.42405416  0.52019129  1
  O  O15  1  0.32077884  0.07594584  0.47980871  1
  O  O16  1  0.41052393  0.66569391  0.90379890  1
  O  O17  1  0.58947607  0.16569391  0.90379890  1
  O  O18  1  0.91052393  0.83430609  0.40379990  1
  O  O19  1  0.91052393  0.66569391  0.59620110  1
  O  O20  1  0.09081912  0.09291936  0.14084212  1
  O  O21  1  0.09081912  0.40708064  0.85915788  1
  O  O22  1  0.40918088  0.59291936  0.35915788  1
  O  O23  1  0.40918088  0.90707964  0.64084212  1
  O  O24  1  0.90918188  0.90707964  0.85915788  1
  O  O25  1  0.90918188  0.59291936  0.14084212  1
  O  O26  1  0.59081912  0.40708064  0.64084212  1
  O  O27  1  0.59081912  0.09291936  0.35915788  1
  O  O28  1  0.36447436  0.11803100  0.06361474  1
  O  O29  1  0.36447436  0.38196900  0.93638626  1
  O  O30  1  0.13552464  0.61803100  0.43638526  1
  O  O31  1  0.13552464  0.88196900  0.56361374  1
  O  O32  1  0.63552464  0.88196900  0.93638626  1
  O  O33  1  0.63552464  0.61803100  0.06361474  1
  O  O34  1  0.86447436  0.38196900  0.56361374  1
  O  O35  1  0.86447436  0.11803100  0.43638526  1
  O  O36  1  0.31953258  0.00631437  0.25656021  1
  O  O37  1  0.31953258  0.49368563  0.74343979  1
  O  O38  1  0.18046742  0.50631437  0.24343979  1
  O  O39  1  0.18046742  0.99368563  0.75656021  1
  O  O40  1  0.68046742  0.99368563  0.74343979  1
  O  O41  1  0.68046742  0.50631437  0.25656021  1
  O  O42  1  0.81953358  0.49368563  0.75656021  1
  O  O43  1  0.81953358  0.00631437  0.24343979  1
  O  O44  1  0.08947607  0.33430609  0.40379990  1
  O  O45  1  0.08947607  0.16569391  0.59620110  1
  O  O46  1  0.41052393  0.83430609  0.09620110  1
  O  O47  1  0.58947607  0.33430609  0.09620110  1
loop_
_geom_bond_atom_site_label_1
_geom_bond_atom_site_label_2
_geom_bond_distance
_geom_bond_site_symmetry_2
Al0 O38 1.859072 1_555
Al0 O22 1.870684 1_555
Al0 O30 1.875654 1_555
Al0 O7 1.881615 1_555
Al0 O44 1.893905 1_555
Al0 O14 1.899278 1_555
Al1 O39 1.859061 1_545
Al1 O23 1.870688 1_545
Al1 O31 1.875664 1_545
Al1 O6 1.881615 1_555
Al1 O45 1.893905 1_555
Al1 O15 1.899289 1_555
Al2 O36 1.859061 1_565
Al2 O20 1.870682 1_565
Al2 O28 1.875654 1_565
Al2 O5 1.881615 1_555
Al2 O46 1.893905 1_555
Al2 O12 1.899289 1_554
Al3 O37 1.859061 1_555
Al3 O21 1.870682 1_555
Al3 O29 1.875659 1_555
Al3 O4 1.881615 1_555
Al3 O16 1.893905 1_555
Al3 O13 1.899287 1_556
Al4 O42 1.859064 1_555
Al4 O26 1.870682 1_555
Al4 O34 1.875659 1_555
Al4 O3 1.881615 1_555
Al4 O19 1.893905 1_555
Al4 O10 1.899287 1_555
Al5 O43 1.859075 1_565
Al5 O27 1.870684 1_565
Al5 O35 1.875649 1_565
Al5 O2 1.881615 1_555
Al5 O18 1.893905 1_555
Al5 O11 1.899278 1_555
Al6 O40 1.859061 1_545
Al6 O24 1.870695 1_545
Al6 O32 1.875664 1_545
Al6 O1 1.881615 1_555
Al6 O17 1.893905 1_555
Al6 O8 1.899289 1_556
Al7 O41 1.859061 1_555
Al7 O25 1.870689 1_555
Al7 O33 1.875659 1_555
Al7 O0 1.881615 1_555
Al7 O47 1.893905 1_555
Al7 O9 1.899289 1_554
Mo0 O31 1.753622 1_555
Mo0 O30 1.753628 1_555
Mo0 O18 1.759136 1_455
Mo0 O19 1.759144 1_455
Mo1 O32 1.753627 1_554
Mo1 O33 1.753633 1_555
Mo1 O46 1.759139 1_555
Mo1 O16 1.759139 1_554
Mo2 O34 1.753633 1_555
Mo2 O35 1.753638 1_555
Mo2 O44 1.759131 1_655
Mo2 O45 1.759139 1_655
Mo3 O29 1.753627 1_554
Mo3 O28 1.753633 1_555
Mo3 O47 1.759144 1_555
Mo3 O17 1.759144 1_554
Mo4 O36 1.754607 1_555
Mo4 O15 1.755106 1_555
Mo4 O27 1.757542 1_555
Mo4 O7 1.760308 1_555
Mo5 O37 1.754615 1_555
Mo5 O14 1.755094 1_555
Mo5 O26 1.757542 1_555
Mo5 O6 1.760313 1_555
Mo6 O38 1.754615 1_555
Mo6 O13 1.755097 1_555
Mo6 O25 1.757533 1_455
Mo6 O5 1.760313 1_555
Mo7 O39 1.754615 1_555
Mo7 O12 1.755094 1_555
Mo7 O24 1.757531 1_455
Mo7 O4 1.760313 1_555
Mo8 O40 1.754615 1_555
Mo8 O11 1.755094 1_555
Mo8 O23 1.757540 1_555
Mo8 O3 1.760313 1_555
Mo9 O41 1.754607 1_555
Mo9 O10 1.755108 1_555
Mo9 O22 1.757542 1_555
Mo9 O2 1.760308 1_555
Mo10 O42 1.754612 1_555
Mo10 O9 1.755094 1_555
Mo10 O21 1.757542 1_655
Mo10 O1 1.760313 1_555
Mo11 O43 1.754612 1_555
Mo11 O8 1.755094 1_555
Mo11 O20 1.757542 1_655
Mo11 O0 1.760313 1_555
