# generated using pymatgen
data_HfCrAgS4
_symmetry_space_group_name_H-M   'P 1'
_cell_length_a   7.40270036
_cell_length_b   7.40270036
_cell_length_c   7.40270036
_cell_angle_alpha   119.77782483
_cell_angle_beta   119.72413410
_cell_angle_gamma   90.43186634
_symmetry_Int_Tables_number   1
_chemical_formula_structural   HfCrAgS4
_chemical_formula_sum   'Hf2 Cr2 Ag2 S8'
_cell_volume   287.92118889
_cell_formula_units_Z   2
loop_
 _symmetry_equiv_pos_site_id
 _symmetry_equiv_pos_as_xyz
  1  'x, y, z'
loop_
 _atom_site_type_symbol
 _atom_site_label
 _atom_site_symmetry_multiplicity
 _atom_site_fract_x
 _atom_site_fract_y
 _atom_site_fract_z
 _atom_site_occupancy
  Hf  Hf0  1  0.00000000  0.00000000  0.00000000  1
  Hf  Hf1  1  0.50000000  0.00000000  0.50000000  1
  Cr  Cr0  1  0.00000000  0.00000000  0.50000000  1
  Cr  Cr1  1  0.00000000  0.50000000  0.00000000  1
  Ag  Ag0  1  0.37956700  0.62956700  0.75000000  1
  Ag  Ag1  1  0.62043300  0.37043300  0.25000000  1
  S  S0  1  0.23403900  0.74965100  0.01561200  1
  S  S1  1  0.76596100  0.78157300  0.51561200  1
  S  S2  1  0.20902100  0.24294800  0.96607300  1
  S  S3  1  0.77687500  0.24294800  0.53392700  1
  S  S4  1  0.79097900  0.75705200  0.03392700  1
  S  S5  1  0.22312500  0.75705200  0.46607300  1
  S  S6  1  0.76596100  0.25034900  0.98438800  1
  S  S7  1  0.23403900  0.21842700  0.48438800  1
loop_
_geom_bond_atom_site_label_1
_geom_bond_atom_site_label_2
_geom_bond_distance
_geom_bond_site_symmetry_2
Hf0 S2 2.546339 1_554
Hf0 S4 2.546339 1_445
Hf0 S7 2.551889 1_555
Hf0 S0 2.551889 1_545
Hf0 S1 2.551889 1_444
Hf0 S6 2.551889 1_454
Hf1 S5 2.546339 1_545
Hf1 S3 2.546339 1_555
Hf1 S7 2.551889 1_555
Hf1 S6 2.551889 1_555
Hf1 S0 2.551889 1_545
Hf1 S1 2.551889 1_545
Cr0 S7 2.443656 1_555
Cr0 S1 2.443656 1_445
Cr0 S3 2.456273 1_455
Cr0 S4 2.456273 1_445
Cr0 S2 2.456273 1_555
Cr0 S5 2.456273 1_545
Cr1 S6 2.443656 1_454
Cr1 S0 2.443656 1_555
Cr1 S5 2.456273 1_555
Cr1 S2 2.456273 1_554
Cr1 S4 2.456273 1_455
Cr1 S3 2.456273 1_454
Ag0 S0 2.489131 1_556
Ag0 S7 2.489131 1_555
Ag0 S4 2.494475 1_556
Ag0 S5 2.494475 1_555
Ag1 S1 2.489131 1_555
Ag1 S6 2.489131 1_554
Ag1 S3 2.494475 1_555
Ag1 S2 2.494475 1_554
