# generated using pymatgen
data_Yb2EuS4
_symmetry_space_group_name_H-M   'P 1'
_cell_length_a   4.31907400
_cell_length_b   11.02198100
_cell_length_c   14.78188000
_cell_angle_alpha   90.00000000
_cell_angle_beta   90.00000000
_cell_angle_gamma   90.00000000
_symmetry_Int_Tables_number   1
_chemical_formula_structural   Yb2EuS4
_chemical_formula_sum   'Yb8 Eu4 S16'
_cell_volume   703.68772507
_cell_formula_units_Z   4
loop_
 _symmetry_equiv_pos_site_id
 _symmetry_equiv_pos_as_xyz
  1  'x, y, z'
loop_
 _atom_site_type_symbol
 _atom_site_label
 _atom_site_symmetry_multiplicity
 _atom_site_fract_x
 _atom_site_fract_y
 _atom_site_fract_z
 _atom_site_occupancy
  Yb  Yb0  1  0.25000000  0.43448100  0.38591200  1
  Yb  Yb1  1  0.25000000  0.93448100  0.11408800  1
  Yb  Yb2  1  0.75000000  0.56551900  0.61408800  1
  Yb  Yb3  1  0.75000000  0.06551900  0.88591200  1
  Yb  Yb4  1  0.25000000  0.40588100  0.89024200  1
  Yb  Yb5  1  0.25000000  0.90588100  0.60975800  1
  Yb  Yb6  1  0.75000000  0.59411900  0.10975800  1
  Yb  Yb7  1  0.75000000  0.09411900  0.39024200  1
  Eu  Eu0  1  0.25000000  0.76732200  0.31625300  1
  Eu  Eu1  1  0.25000000  0.26732200  0.18374700  1
  Eu  Eu2  1  0.75000000  0.23267800  0.68374700  1
  Eu  Eu3  1  0.75000000  0.73267800  0.81625300  1
  S  S0  1  0.25000000  0.18552300  0.81845600  1
  S  S1  1  0.25000000  0.68552300  0.68154400  1
  S  S2  1  0.75000000  0.81447700  0.18154400  1
  S  S3  1  0.75000000  0.31447700  0.31845600  1
  S  S4  1  0.25000000  0.18692200  0.52740600  1
  S  S5  1  0.25000000  0.68692200  0.97259400  1
  S  S6  1  0.75000000  0.81307800  0.47259400  1
  S  S7  1  0.75000000  0.31307800  0.02740600  1
  S  S8  1  0.25000000  0.03242800  0.29136600  1
  S  S9  1  0.25000000  0.53242800  0.20863400  1
  S  S10  1  0.75000000  0.96757200  0.70863400  1
  S  S11  1  0.75000000  0.46757200  0.79136600  1
  S  S12  1  0.25000000  0.37387100  0.57880700  1
  S  S13  1  0.25000000  0.87387100  0.92119300  1
  S  S14  1  0.75000000  0.62612900  0.42119300  1
  S  S15  1  0.75000000  0.12612900  0.07880700  1
loop_
_geom_bond_atom_site_label_1
_geom_bond_atom_site_label_2
_geom_bond_distance
_geom_bond_site_symmetry_2
Eu0 S8 2.945060 1_565
Eu0 S2 2.983088 1_455
Eu0 S2 2.983088 1_555
Eu0 S9 3.038682 1_555
Eu0 S14 3.080859 1_455
Eu0 S14 3.080859 1_555
Eu0 S6 3.202925 1_455
Eu0 S6 3.202925 1_555
Eu1 S9 2.945060 1_555
Eu1 S3 2.983088 1_455
Eu1 S3 2.983088 1_555
Eu1 S8 3.038682 1_555
Eu1 S15 3.080859 1_455
Eu1 S15 3.080859 1_555
Eu1 S7 3.202925 1_555
Eu1 S7 3.202925 1_455
Eu2 S10 2.945060 1_545
Eu2 S0 2.983088 1_555
Eu2 S0 2.983088 1_655
Eu2 S11 3.038682 1_555
Eu2 S12 3.080859 1_655
Eu2 S12 3.080859 1_555
Eu2 S4 3.202925 1_555
Eu2 S4 3.202925 1_655
Eu3 S11 2.945060 1_555
Eu3 S1 2.983088 1_555
Eu3 S1 2.983088 1_655
Eu3 S10 3.038682 1_555
Eu3 S13 3.080859 1_555
Eu3 S13 3.080859 1_655
Eu3 S5 3.202925 1_655
Eu3 S5 3.202925 1_555
S0 Yb4 2.650468 1_555
S0 Yb3 2.721644 1_555
S0 Yb3 2.721644 1_455
S1 Yb5 2.650468 1_555
S1 Yb2 2.721644 1_455
S1 Yb2 2.721644 1_555
S2 Yb6 2.650468 1_555
S2 Yb1 2.721644 1_555
S2 Yb1 2.721644 1_655
S3 Yb7 2.650468 1_555
S3 Yb0 2.721644 1_655
S3 Yb0 2.721644 1_555
S4 Yb7 3.133815 1_455
S4 Yb7 3.133815 1_555
S4 Yb5 3.328237 1_545
S4 Yb0 3.437990 1_555
S5 Yb6 3.133815 1_556
S5 Yb6 3.133815 1_456
S5 Yb4 3.328237 1_555
S5 Yb1 3.437990 1_556
S6 Yb5 3.133815 1_555
S6 Yb5 3.133815 1_655
S6 Yb7 3.328237 1_565
S6 Yb2 3.437990 1_555
S7 Yb4 3.133815 1_554
S7 Yb4 3.133815 1_654
S7 Yb6 3.328237 1_555
S7 Yb3 3.437990 1_554
S8 Yb7 2.694835 1_455
S8 Yb7 2.694835 1_555
S8 Yb1 2.834167 1_545
S9 Yb6 2.694835 1_455
S9 Yb6 2.694835 1_555
S9 Yb0 2.834167 1_555
S10 Yb5 2.694835 1_555
S10 Yb5 2.694835 1_655
S10 Yb3 2.834167 1_565
S11 Yb4 2.694835 1_655
S11 Yb4 2.694835 1_555
S11 Yb2 2.834167 1_555
S12 S4 2.196170 1_555
S12 Yb0 2.928563 1_555
S12 Yb2 3.065545 1_455
S12 Yb2 3.065545 1_555
S13 S5 2.196170 1_555
S13 Yb1 2.928563 1_556
S13 Yb3 3.065545 1_565
S13 Yb3 3.065545 1_465
S14 S6 2.196170 1_555
S14 Yb2 2.928563 1_555
S14 Yb0 3.065545 1_655
S14 Yb0 3.065545 1_555
S15 S7 2.196170 1_555
S15 Yb3 2.928563 1_554
S15 Yb1 3.065545 1_645
S15 Yb1 3.065545 1_545
