# generated using pymatgen
data_ZnCu3(MoO3)4
_symmetry_space_group_name_H-M   'P 1'
_cell_length_a   6.63180950
_cell_length_b   6.63180950
_cell_length_c   6.63180950
_cell_angle_alpha   109.47122063
_cell_angle_beta   109.47122063
_cell_angle_gamma   109.47122063
_symmetry_Int_Tables_number   1
_chemical_formula_structural   ZnCu3(MoO3)4
_chemical_formula_sum   'Zn1 Cu3 Mo4 O12'
_cell_volume   224.52992786
_cell_formula_units_Z   1
loop_
 _symmetry_equiv_pos_site_id
 _symmetry_equiv_pos_as_xyz
  1  'x, y, z'
loop_
 _atom_site_type_symbol
 _atom_site_label
 _atom_site_symmetry_multiplicity
 _atom_site_fract_x
 _atom_site_fract_y
 _atom_site_fract_z
 _atom_site_occupancy
  Zn  Zn0  1  0.00000000  0.00000000  0.00000000  1
  Cu  Cu0  1  0.50000000  0.50000000  0.00000000  1
  Cu  Cu1  1  0.50000000  0.00000000  0.50000000  1
  Cu  Cu2  1  0.00000000  0.50000000  0.50000000  1
  Mo  Mo0  1  0.50000000  0.50000000  0.50000000  1
  Mo  Mo1  1  0.00000000  0.50000000  0.00000000  1
  Mo  Mo2  1  0.00000000  0.00000000  0.50000000  1
  Mo  Mo3  1  0.50000000  0.00000000  0.00000000  1
  O  O0  1  0.30551500  0.82955500  0.13507000  1
  O  O1  1  0.69448500  0.17044500  0.86493000  1
  O  O2  1  0.69448500  0.82955500  0.52404000  1
  O  O3  1  0.86493000  0.69448500  0.17044500  1
  O  O4  1  0.82955500  0.13507000  0.30551500  1
  O  O5  1  0.17044500  0.47596000  0.30551500  1
  O  O6  1  0.47596000  0.30551500  0.17044500  1
  O  O7  1  0.17044500  0.86493000  0.69448500  1
  O  O8  1  0.30551500  0.17044500  0.47596000  1
  O  O9  1  0.13507000  0.30551500  0.82955500  1
  O  O10  1  0.82955500  0.52404000  0.69448500  1
  O  O11  1  0.52404000  0.69448500  0.82955500  1
loop_
_geom_bond_atom_site_label_1
_geom_bond_atom_site_label_2
_geom_bond_distance
_geom_bond_site_symmetry_2
Cu0 O6 1.980324 1_555
Cu0 O9 1.980324 1_554
Cu0 O3 1.980324 1_555
Cu0 O11 1.980324 1_554
Cu1 O8 1.980324 1_555
Cu1 O0 1.980324 1_545
Cu1 O1 1.980324 1_555
Cu1 O2 1.980324 1_545
Cu2 O5 1.980324 1_555
Cu2 O4 1.980324 1_455
Cu2 O7 1.980324 1_555
Cu2 O10 1.980324 1_455
Mo0 O2 2.053519 1_555
Mo0 O11 2.053519 1_555
Mo0 O10 2.053519 1_555
Mo0 O5 2.053519 1_555
Mo0 O8 2.053519 1_555
Mo0 O6 2.053519 1_555
Mo1 O0 2.053519 1_555
Mo1 O3 2.053519 1_455
Mo1 O5 2.053519 1_555
Mo1 O10 2.053519 1_454
Mo1 O9 2.053519 1_554
Mo1 O1 2.053519 1_454
Mo2 O9 2.053519 1_555
Mo2 O7 2.053519 1_545
Mo2 O8 2.053519 1_555
Mo2 O2 2.053519 1_445
Mo2 O4 2.053519 1_455
Mo2 O3 2.053519 1_445
Mo3 O4 2.053519 1_555
Mo3 O1 2.053519 1_554
Mo3 O6 2.053519 1_555
Mo3 O11 2.053519 1_544
Mo3 O0 2.053519 1_545
Mo3 O7 2.053519 1_544
