# generated using pymatgen
data_HfGeRu2
_symmetry_space_group_name_H-M   'P 1'
_cell_length_a   4.39190997
_cell_length_b   4.39190997
_cell_length_c   4.39190997
_cell_angle_alpha   60.00000000
_cell_angle_beta   60.00000000
_cell_angle_gamma   60.00000000
_symmetry_Int_Tables_number   1
_chemical_formula_structural   HfGeRu2
_chemical_formula_sum   'Hf1 Ge1 Ru2'
_cell_volume   59.90254692
_cell_formula_units_Z   1
loop_
 _symmetry_equiv_pos_site_id
 _symmetry_equiv_pos_as_xyz
  1  'x, y, z'
loop_
 _atom_site_type_symbol
 _atom_site_label
 _atom_site_symmetry_multiplicity
 _atom_site_fract_x
 _atom_site_fract_y
 _atom_site_fract_z
 _atom_site_occupancy
  Hf  Hf0  1  0.00000000  0.00000000  -0.00000000  1
  Ge  Ge0  1  0.50000000  0.50000000  0.50000000  1
  Ru  Ru0  1  0.75000000  0.75000000  0.75000000  1
  Ru  Ru1  1  0.25000000  0.25000000  0.25000000  1
loop_
_geom_bond_atom_site_label_1
_geom_bond_atom_site_label_2
_geom_bond_distance
_geom_bond_site_symmetry_2
Hf0 Ru1 2.689485 1_555
Hf0 Ru1 2.689485 1_545
Hf0 Ru0 2.689485 1_454
Hf0 Ru1 2.689485 1_554
Hf0 Ru0 2.689485 1_444
Hf0 Ru0 2.689485 1_445
Hf0 Ru0 2.689485 1_544
Hf0 Ru1 2.689485 1_455
Ge0 Ru1 2.689485 1_556
Ge0 Ru1 2.689485 1_565
Ge0 Ru0 2.689485 1_554
Ge0 Ru1 2.689485 1_555
Ge0 Ru0 2.689485 1_545
Ge0 Ru0 2.689485 1_555
Ge0 Ru0 2.689485 1_455
Ge0 Ru1 2.689485 1_655
Ge0 Hf0 3.105549 1_566
Ge0 Hf0 3.105549 1_655
Ge0 Hf0 3.105549 1_565
Ge0 Hf0 3.105549 1_665
Ge0 Hf0 3.105549 1_656
Ge0 Hf0 3.105549 1_556
