# generated using pymatgen
data_KDyH2S2O9
_symmetry_space_group_name_H-M   'P 1'
_cell_length_a   8.55725800
_cell_length_b   10.19591300
_cell_length_c   10.45700127
_cell_angle_alpha   60.60540333
_cell_angle_beta   90.00000000
_cell_angle_gamma   90.00000000
_symmetry_Int_Tables_number   1
_chemical_formula_structural   KDyH2S2O9
_chemical_formula_sum   'K4 Dy4 H8 S8 O36'
_cell_volume   794.90592645
_cell_formula_units_Z   4
loop_
 _symmetry_equiv_pos_site_id
 _symmetry_equiv_pos_as_xyz
  1  'x, y, z'
loop_
 _atom_site_type_symbol
 _atom_site_label
 _atom_site_symmetry_multiplicity
 _atom_site_fract_x
 _atom_site_fract_y
 _atom_site_fract_z
 _atom_site_occupancy
  K  K0  1  0.69833600  0.78661600  0.20384800  1
  K  K1  1  0.19833600  0.21338400  0.29615200  1
  K  K2  1  0.30166400  0.21338400  0.79615200  1
  K  K3  1  0.80166400  0.78661600  0.70384800  1
  Dy  Dy0  1  0.85454600  0.25202700  0.97115800  1
  Dy  Dy1  1  0.35454600  0.74797300  0.52884200  1
  Dy  Dy2  1  0.14545400  0.74797300  0.02884200  1
  Dy  Dy3  1  0.64545400  0.25202700  0.47115800  1
  H  H0  1  0.44677200  0.59051600  0.13420000  1
  H  H1  1  0.94677200  0.40948400  0.36580000  1
  H  H2  1  0.55322800  0.40948400  0.86580000  1
  H  H3  1  0.05322800  0.59051600  0.63420000  1
  H  H4  1  0.48932600  0.69792200  0.97260100  1
  H  H5  1  0.98932600  0.30207800  0.52739900  1
  H  H6  1  0.51067400  0.30207800  0.02739900  1
  H  H7  1  0.01067400  0.69792200  0.47260100  1
  S  S0  1  0.70702400  0.50874200  0.60587100  1
  S  S1  1  0.20702400  0.49125800  0.89412900  1
  S  S2  1  0.29297600  0.49125800  0.39412900  1
  S  S3  1  0.79297600  0.50874200  0.10587100  1
  S  S4  1  0.85987100  0.05232000  0.82738100  1
  S  S5  1  0.35987100  0.94768000  0.67261900  1
  S  S6  1  0.14012900  0.94768000  0.17261900  1
  S  S7  1  0.64012900  0.05232000  0.32738100  1
  O  O0  1  0.80435400  0.45437200  0.74147400  1
  O  O1  1  0.30435400  0.54562800  0.75852600  1
  O  O2  1  0.19564600  0.54562800  0.25852600  1
  O  O3  1  0.69564600  0.45437200  0.24147400  1
  O  O4  1  0.58184900  0.60340600  0.61843200  1
  O  O5  1  0.08184900  0.39659400  0.88156800  1
  O  O6  1  0.41815100  0.39659400  0.38156800  1
  O  O7  1  0.91815100  0.60340600  0.11843200  1
  O  O8  1  0.86534000  0.37547100  0.10507200  1
  O  O9  1  0.36534000  0.62452900  0.39492800  1
  O  O10  1  0.13466000  0.62452900  0.89492800  1
  O  O11  1  0.63466000  0.37547100  0.60507200  1
  O  O12  1  0.80272100  0.59548600  0.47427200  1
  O  O13  1  0.30272100  0.40451400  0.02572800  1
  O  O14  1  0.19727900  0.40451400  0.52572800  1
  O  O15  1  0.69727900  0.59548600  0.97427200  1
  O  O16  1  0.76952900  0.07540500  0.69749500  1
  O  O17  1  0.26952900  0.92459500  0.80250500  1
  O  O18  1  0.23047100  0.92459500  0.30250500  1
  O  O19  1  0.73047100  0.07540500  0.19749500  1
  O  O20  1  0.94386400  0.90626000  0.88415700  1
  O  O21  1  0.44386400  0.09374000  0.61584300  1
  O  O22  1  0.05613600  0.09374000  0.11584300  1
  O  O23  1  0.55613600  0.90626000  0.38415700  1
  O  O24  1  0.75391800  0.04756200  0.94414000  1
  O  O25  1  0.25391800  0.95243800  0.55586000  1
  O  O26  1  0.24608200  0.95243800  0.05586000  1
  O  O27  1  0.74608200  0.04756200  0.44414000  1
  O  O28  1  0.97013400  0.17891200  0.79246800  1
  O  O29  1  0.47013400  0.82108800  0.70753200  1
  O  O30  1  0.02986600  0.82108800  0.20753200  1
  O  O31  1  0.52986600  0.17891200  0.29246800  1
  O  O32  1  0.42383700  0.69133900  0.05292600  1
  O  O33  1  0.92383700  0.30866100  0.44707400  1
  O  O34  1  0.57616300  0.30866100  0.94707400  1
  O  O35  1  0.07616300  0.69133900  0.55292600  1
loop_
_geom_bond_atom_site_label_1
_geom_bond_atom_site_label_2
_geom_bond_distance
_geom_bond_site_symmetry_2
K0 O12 2.680026 1_555
K0 O24 2.754529 1_564
K0 O30 2.861260 1_655
K0 O19 2.925389 1_565
K0 O23 2.963400 1_555
K0 O7 3.076242 1_555
K0 O3 3.212838 1_555
K0 O32 3.233721 1_555
K0 O9 3.406167 1_555
K1 O13 2.680026 1_555
K1 O25 2.754529 1_545
K1 O31 2.861260 1_555
K1 O18 2.925389 1_545
K1 O22 2.963400 1_555
K1 O6 3.076242 1_555
K1 O2 3.212838 1_555
K1 O33 3.233721 1_455
K1 O8 3.406167 1_455
K2 O14 2.680026 1_555
K2 O26 2.754529 1_546
K2 O28 2.861260 1_455
K2 O17 2.925389 1_545
K2 O21 2.963400 1_555
K2 O5 3.076242 1_555
K2 O1 3.212838 1_555
K2 O34 3.233721 1_555
K2 O11 3.406167 1_555
K3 O15 2.680026 1_555
K3 O27 2.754529 1_565
K3 O29 2.861260 1_555
K3 O16 2.925389 1_565
K3 O20 2.963400 1_555
K3 O4 3.076242 1_555
K3 O0 3.212838 1_555
K3 O35 3.233721 1_655
K3 O10 3.406167 1_655
Dy0 O8 2.298644 1_556
Dy0 O0 2.311993 1_555
Dy0 O22 2.339355 1_656
Dy0 O5 2.340546 1_655
Dy0 O24 2.396976 1_555
Dy0 O19 2.405841 1_556
Dy0 O34 2.434945 1_555
Dy0 O28 2.528438 1_555
Dy1 O9 2.298644 1_555
Dy1 O1 2.311993 1_555
Dy1 O23 2.339355 1_555
Dy1 O4 2.340546 1_555
Dy1 O25 2.396976 1_555
Dy1 O18 2.405841 1_555
Dy1 O35 2.434945 1_555
Dy1 O29 2.528438 1_555
Dy2 O10 2.298644 1_554
Dy2 O2 2.311993 1_555
Dy2 O20 2.339355 1_454
Dy2 O7 2.340546 1_455
Dy2 O26 2.396976 1_555
Dy2 O17 2.405841 1_554
Dy2 O32 2.434945 1_555
Dy2 O30 2.528438 1_555
Dy3 O11 2.298644 1_555
Dy3 O3 2.311993 1_555
Dy3 O21 2.339355 1_555
Dy3 O6 2.340546 1_555
Dy3 O27 2.396976 1_555
Dy3 O16 2.405841 1_555
Dy3 O33 2.434945 1_555
Dy3 O31 2.528438 1_555
H0 O32 0.979765 1_555
H1 O33 0.979765 1_555
H2 O34 0.979765 1_555
H3 O35 0.979765 1_555
H4 O32 0.984250 1_556
H5 O33 0.984250 1_555
H6 O34 0.984250 1_554
H7 O35 0.984250 1_555
O0 S0 1.496688 1_555
O1 S1 1.496688 1_555
O2 S2 1.496688 1_555
O3 S3 1.496688 1_555
O4 S0 1.490188 1_555
O5 S1 1.490188 1_555
O6 S2 1.490188 1_555
O7 S3 1.490188 1_555
O8 S3 1.497017 1_555
O9 S2 1.497017 1_555
O10 S1 1.497017 1_555
O11 S0 1.497017 1_555
O12 S0 1.466904 1_555
O13 S1 1.466904 1_554
O14 S2 1.466904 1_555
O15 S3 1.466904 1_556
O16 S4 1.477833 1_555
O17 S5 1.477833 1_555
O18 S6 1.477833 1_555
O19 S7 1.477833 1_555
O20 S4 1.489605 1_565
O21 S5 1.489605 1_545
O22 S6 1.489605 1_545
O23 S7 1.489605 1_565
O24 S4 1.502322 1_555
O25 S5 1.502322 1_555
O26 S6 1.502322 1_555
O27 S7 1.502322 1_555
O28 S4 1.492300 1_555
O29 S5 1.492300 1_555
O30 S6 1.492300 1_555
O31 S7 1.492300 1_555
