# generated using pymatgen
data_PrTl(WO4)2
_symmetry_space_group_name_H-M   'P 1'
_cell_length_a   7.78185547
_cell_length_b   7.78185547
_cell_length_c   7.57795645
_cell_angle_alpha   62.93579132
_cell_angle_beta   62.93579132
_cell_angle_gamma   89.49811653
_symmetry_Int_Tables_number   1
_chemical_formula_structural   PrTl(WO4)2
_chemical_formula_sum   'Pr2 Tl2 W4 O16'
_cell_volume   352.34479791
_cell_formula_units_Z   2
loop_
 _symmetry_equiv_pos_site_id
 _symmetry_equiv_pos_as_xyz
  1  'x, y, z'
loop_
 _atom_site_type_symbol
 _atom_site_label
 _atom_site_symmetry_multiplicity
 _atom_site_fract_x
 _atom_site_fract_y
 _atom_site_fract_z
 _atom_site_occupancy
  Pr  Pr0  1  0.77551300  0.22448700  0.75000000  1
  Pr  Pr1  1  0.22448700  0.77551300  0.25000000  1
  Tl  Tl0  1  0.20405300  0.79594700  0.75000000  1
  Tl  Tl1  1  0.79594700  0.20405300  0.25000000  1
  W  W0  1  0.69645500  0.68713200  0.77822300  1
  W  W1  1  0.30354500  0.31286800  0.22177700  1
  W  W2  1  0.31286800  0.30354500  0.72177700  1
  W  W3  1  0.68713200  0.69645500  0.27822300  1
  O  O0  1  0.62029100  0.75063900  0.55879900  1
  O  O1  1  0.37970900  0.24936100  0.44120100  1
  O  O2  1  0.24936100  0.37970900  0.94120100  1
  O  O3  1  0.75063900  0.62029100  0.05879900  1
  O  O4  1  0.38402000  0.07290000  0.86607000  1
  O  O5  1  0.61598000  0.92710000  0.13393000  1
  O  O6  1  0.92710000  0.61598000  0.63393000  1
  O  O7  1  0.07290000  0.38402000  0.36607000  1
  O  O8  1  0.58340700  0.37143800  0.97332700  1
  O  O9  1  0.41659300  0.62856200  0.02667300  1
  O  O10  1  0.62856200  0.41659300  0.52667300  1
  O  O11  1  0.37143800  0.58340700  0.47332700  1
  O  O12  1  0.78579600  0.94519300  0.68913400  1
  O  O13  1  0.21420400  0.05480700  0.31086600  1
  O  O14  1  0.05480700  0.21420400  0.81086600  1
  O  O15  1  0.94519300  0.78579600  0.18913400  1
loop_
_geom_bond_atom_site_label_1
_geom_bond_atom_site_label_2
_geom_bond_distance
_geom_bond_site_symmetry_2
O0 W0 1.871973 1_555
O0 W3 2.185093 1_555
O1 W1 1.871973 1_555
O1 W2 2.185093 1_555
O2 W2 1.871973 1_555
O2 W1 2.185093 1_556
O3 W3 1.871973 1_555
O3 W0 2.185093 1_554
O4 W2 1.863144 1_555
O4 Pr1 2.449117 1_546
O4 Pr0 2.850782 1_555
O5 W3 1.863144 1_555
O5 Pr0 2.449117 1_564
O5 Pr1 2.850782 1_555
O6 W0 1.863144 1_555
O6 Pr1 2.449117 1_655
O6 Pr0 2.850782 1_555
O7 W1 1.863144 1_555
O7 Pr0 2.449117 1_455
O7 Pr1 2.850782 1_555
O8 W1 2.000197 1_556
O8 W0 2.131720 1_555
O8 Pr0 2.415689 1_555
O9 W0 2.000197 1_554
O9 W1 2.131720 1_555
O9 Pr1 2.415689 1_555
O10 W3 2.000197 1_555
O10 W2 2.131720 1_555
O10 Pr0 2.415689 1_555
O11 W2 2.000197 1_555
O11 W3 2.131720 1_555
O11 Pr1 2.415689 1_555
O12 W0 1.826367 1_555
O12 Pr0 2.412160 1_565
O13 W1 1.826367 1_555
O13 Pr1 2.412160 1_545
O14 W2 1.826367 1_555
O14 Pr0 2.412160 1_455
O15 W3 1.826367 1_555
O15 Pr1 2.412160 1_655
