# generated using pymatgen
data_Mn2CrSbO6
_symmetry_space_group_name_H-M   'P 1'
_cell_length_a   5.30654247
_cell_length_b   5.45684504
_cell_length_c   7.68554612
_cell_angle_alpha   89.90213651
_cell_angle_beta   90.27289406
_cell_angle_gamma   89.98542280
_symmetry_Int_Tables_number   1
_chemical_formula_structural   Mn2CrSbO6
_chemical_formula_sum   'Mn4 Cr2 Sb2 O12'
_cell_volume   222.54734827
_cell_formula_units_Z   2
loop_
 _symmetry_equiv_pos_site_id
 _symmetry_equiv_pos_as_xyz
  1  'x, y, z'
loop_
 _atom_site_type_symbol
 _atom_site_label
 _atom_site_symmetry_multiplicity
 _atom_site_fract_x
 _atom_site_fract_y
 _atom_site_fract_z
 _atom_site_occupancy
  Mn  Mn0  1  0.98794300  0.94756500  0.25229400  1
  Mn  Mn1  1  0.01202900  0.05239700  0.74772500  1
  Mn  Mn2  1  0.48815900  0.55203200  0.75201800  1
  Mn  Mn3  1  0.51186400  0.44797700  0.24799200  1
  Cr  Cr0  1  0.00004200  0.49995600  0.49997000  1
  Cr  Cr1  1  0.49995000  0.00000800  0.99997100  1
  Sb  Sb0  1  0.49999900  0.99998800  0.49999000  1
  Sb  Sb1  1  0.99997400  0.49999400  0.00000000  1
  O  O0  1  0.18994700  0.80852700  0.56144400  1
  O  O1  1  0.68953600  0.69065900  0.06131800  1
  O  O2  1  0.81007400  0.19145700  0.43857100  1
  O  O3  1  0.31045500  0.30939800  0.93869000  1
  O  O4  1  0.18711300  0.80546000  0.93353500  1
  O  O5  1  0.68675200  0.69440300  0.43349100  1
  O  O6  1  0.81284200  0.19454300  0.06646900  1
  O  O7  1  0.31330000  0.30558600  0.56653500  1
  O  O8  1  0.62011600  0.94307500  0.74835000  1
  O  O9  1  0.12052400  0.55687200  0.24825800  1
  O  O10  1  0.37987400  0.05695800  0.25163900  1
  O  O11  1  0.87950800  0.44314300  0.75173800  1
loop_
_geom_bond_atom_site_label_1
_geom_bond_atom_site_label_2
_geom_bond_distance
_geom_bond_site_symmetry_2
Mn0 O10 2.163942 1_665
Mn0 O6 2.167841 1_565
Mn0 O2 2.174964 1_565
Mn0 O9 2.245178 1_655
Mn0 O5 2.533385 1_555
Mn0 O1 2.571602 1_555
Mn0 O0 2.709092 1_655
Mn0 O4 2.784026 1_654
Mn1 O8 2.163742 1_445
Mn1 O4 2.167588 1_545
Mn1 O0 2.175025 1_545
Mn1 O11 2.245350 1_455
Mn1 O7 2.533704 1_555
Mn1 O3 2.571899 1_555
Mn1 O2 2.709051 1_455
Mn1 O6 2.784021 1_456
Mn2 O11 2.159910 1_555
Mn2 O7 2.167088 1_555
Mn2 O3 2.169697 1_555
Mn2 O8 2.246159 1_555
Mn2 O4 2.537201 1_555
Mn2 O0 2.564818 1_555
Mn2 O1 2.710596 1_556
Mn2 O5 2.779499 1_555
Mn3 O9 2.159872 1_555
Mn3 O5 2.167166 1_555
Mn3 O1 2.169793 1_555
Mn3 O10 2.246087 1_555
Mn3 O6 2.537017 1_555
Mn3 O2 2.564908 1_555
Mn3 O3 2.710602 1_554
Mn3 O7 2.779579 1_555
Cr0 O2 2.017888 1_455
Cr0 O0 2.018184 1_555
Cr0 O7 2.034488 1_555
Cr0 O5 2.034682 1_455
Cr0 O9 2.063374 1_555
Cr0 O11 2.063781 1_455
Cr1 O3 2.018718 1_555
Cr1 O1 2.018887 1_546
Cr1 O4 2.034279 1_545
Cr1 O6 2.034598 1_556
Cr1 O8 2.063151 1_545
Cr1 O10 2.063354 1_556
O0 Sb0 2.007048 1_555
O1 Sb1 2.006626 1_555
O2 Sb0 2.007107 1_545
O3 Sb1 2.006604 1_456
O4 Sb1 2.007078 1_456
O5 Sb0 2.007701 1_555
O6 Sb1 2.007000 1_555
O7 Sb0 2.007709 1_545
O8 Sb0 2.032848 1_555
O9 Sb1 2.033841 1_455
O10 Sb0 2.032843 1_545
O11 Sb1 2.033709 1_556
