# generated using pymatgen
data_CsMg30BO31
_symmetry_space_group_name_H-M   'P 1'
_cell_length_a   8.58137800
_cell_length_b   8.65170200
_cell_length_c   8.77200600
_cell_angle_alpha   90.00000000
_cell_angle_beta   90.00000000
_cell_angle_gamma   90.00000000
_symmetry_Int_Tables_number   1
_chemical_formula_structural   CsMg30BO31
_chemical_formula_sum   'Cs1 Mg30 B1 O31'
_cell_volume   651.26464856
_cell_formula_units_Z   1
loop_
 _symmetry_equiv_pos_site_id
 _symmetry_equiv_pos_as_xyz
  1  'x, y, z'
loop_
 _atom_site_type_symbol
 _atom_site_label
 _atom_site_symmetry_multiplicity
 _atom_site_fract_x
 _atom_site_fract_y
 _atom_site_fract_z
 _atom_site_occupancy
  Cs  Cs0  1  0.00000000  0.00000000  0.00936900  1
  Mg  Mg0  1  0.50000000  0.00000000  0.01434100  1
  Mg  Mg1  1  0.00000000  0.50000000  0.99941100  1
  Mg  Mg2  1  0.00000000  0.00000000  0.50543000  1
  Mg  Mg3  1  0.50000000  0.00000000  0.50154700  1
  Mg  Mg4  1  0.00000000  0.50000000  0.50103900  1
  Mg  Mg5  1  0.50000000  0.50000000  0.50292900  1
  Mg  Mg6  1  0.74175400  0.74243500  0.99715800  1
  Mg  Mg7  1  0.25824600  0.74243500  0.99715800  1
  Mg  Mg8  1  0.74175400  0.25756500  0.99715800  1
  Mg  Mg9  1  0.25824600  0.25756500  0.99715800  1
  Mg  Mg10  1  0.74922000  0.74898400  0.50101200  1
  Mg  Mg11  1  0.25078000  0.74898400  0.50101200  1
  Mg  Mg12  1  0.74922000  0.25101600  0.50101200  1
  Mg  Mg13  1  0.25078000  0.25101600  0.50101200  1
  Mg  Mg14  1  0.74564600  0.00000000  0.74517200  1
  Mg  Mg15  1  0.25435400  0.00000000  0.74517200  1
  Mg  Mg16  1  0.74263500  0.50000000  0.74850900  1
  Mg  Mg17  1  0.25736500  0.50000000  0.74850900  1
  Mg  Mg18  1  0.75002800  0.00000000  0.26184600  1
  Mg  Mg19  1  0.24997200  0.00000000  0.26184600  1
  Mg  Mg20  1  0.75346300  0.50000000  0.25002000  1
  Mg  Mg21  1  0.24653700  0.50000000  0.25002000  1
  Mg  Mg22  1  0.00000000  0.74400300  0.74571900  1
  Mg  Mg23  1  0.50000000  0.73645000  0.75193400  1
  Mg  Mg24  1  0.00000000  0.25599700  0.74571900  1
  Mg  Mg25  1  0.50000000  0.26355000  0.75193400  1
  Mg  Mg26  1  0.00000000  0.74636200  0.25726000  1
  Mg  Mg27  1  0.50000000  0.75136900  0.25064400  1
  Mg  Mg28  1  0.00000000  0.25363800  0.25726000  1
  Mg  Mg29  1  0.50000000  0.24863100  0.25064400  1
  B  B0  1  0.50000000  0.50000000  0.04910500  1
  O  O0  1  0.00000000  0.00000000  0.72033700  1
  O  O1  1  0.00000000  0.50000000  0.74537400  1
  O  O2  1  0.50000000  0.50000000  0.72880500  1
  O  O3  1  0.00000000  0.00000000  0.29119600  1
  O  O4  1  0.50000000  0.00000000  0.25193800  1
  O  O5  1  0.00000000  0.50000000  0.25133200  1
  O  O6  1  0.50000000  0.50000000  0.21943100  1
  O  O7  1  0.74952800  0.74500200  0.74968400  1
  O  O8  1  0.25047200  0.74500200  0.74968400  1
  O  O9  1  0.74952800  0.25499800  0.74968400  1
  O  O10  1  0.25047200  0.25499800  0.74968400  1
  O  O11  1  0.75040000  0.75136600  0.24727200  1
  O  O12  1  0.24960000  0.75136600  0.24727200  1
  O  O13  1  0.75040000  0.24863400  0.24727200  1
  O  O14  1  0.24960000  0.24863400  0.24727200  1
  O  O15  1  0.71150400  0.00000000  0.98450000  1
  O  O16  1  0.28849600  0.00000000  0.98450000  1
  O  O17  1  0.70463000  0.50000000  0.00601700  1
  O  O18  1  0.29537000  0.50000000  0.00601700  1
  O  O19  1  0.74280300  0.00000000  0.50086200  1
  O  O20  1  0.25719700  0.00000000  0.50086200  1
  O  O21  1  0.74660000  0.50000000  0.49187000  1
  O  O22  1  0.25340000  0.50000000  0.49187000  1
  O  O23  1  0.00000000  0.71262200  0.99626100  1
  O  O24  1  0.50000000  0.70882400  0.00767700  1
  O  O25  1  0.00000000  0.28737800  0.99626100  1
  O  O26  1  0.50000000  0.29117600  0.00767700  1
  O  O27  1  0.00000000  0.74152400  0.50048400  1
  O  O28  1  0.50000000  0.74374000  0.49018200  1
  O  O29  1  0.00000000  0.25847600  0.50048400  1
  O  O30  1  0.50000000  0.25626000  0.49018200  1
loop_
_geom_bond_atom_site_label_1
_geom_bond_atom_site_label_2
_geom_bond_distance
_geom_bond_site_symmetry_2
Cs0 O3 2.472188 1_555
Cs0 O15 2.485286 1_454
Cs0 O16 2.485286 1_554
Cs0 O23 2.488966 1_544
Cs0 O25 2.488966 1_554
Cs0 O0 2.535390 1_554
Mg0 O15 1.833775 1_554
Mg0 O16 1.833775 1_554
Mg0 O4 2.084202 1_555
Mg0 O26 2.519846 1_555
Mg0 O24 2.519846 1_545
Mg1 O23 1.839750 1_555
Mg1 O25 1.839750 1_555
Mg1 O5 2.209853 1_556
Mg1 O1 2.228414 1_555
Mg1 O18 2.535344 1_556
Mg1 O17 2.535344 1_456
Mg2 O3 1.879262 1_555
Mg2 O0 1.885165 1_555
Mg2 O19 2.207468 1_455
Mg2 O20 2.207468 1_555
Mg2 O29 2.236678 1_555
Mg2 O27 2.236678 1_545
Mg3 O20 2.083593 1_555
Mg3 O19 2.083593 1_555
Mg3 O4 2.189572 1_555
Mg3 O30 2.219325 1_555
Mg3 O28 2.219325 1_545
Mg4 O27 2.089599 1_555
Mg4 O29 2.089599 1_555
Mg4 O1 2.143308 1_555
Mg4 O21 2.176008 1_455
Mg4 O22 2.176008 1_555
Mg4 O5 2.190431 1_555
Mg5 O2 1.981386 1_555
Mg5 O28 2.111728 1_555
Mg5 O30 2.111728 1_555
Mg5 O22 2.118390 1_555
Mg5 O21 2.118390 1_555
Mg5 O6 2.486846 1_555
Mg6 O24 2.096895 1_556
Mg6 O17 2.122954 1_556
Mg6 O7 2.171982 1_555
Mg6 O11 2.196615 1_556
Mg6 O23 2.231080 1_655
Mg6 O15 2.246191 1_565
Mg7 O24 2.096895 1_556
Mg7 O18 2.122954 1_556
Mg7 O8 2.171982 1_555
Mg7 O12 2.196615 1_556
Mg7 O23 2.231080 1_555
Mg7 O16 2.246191 1_565
Mg8 O26 2.096895 1_556
Mg8 O17 2.122954 1_556
Mg8 O9 2.171982 1_555
Mg8 O13 2.196615 1_556
Mg8 O25 2.231080 1_655
Mg8 O15 2.246191 1_555
Mg9 O26 2.096895 1_556
Mg9 O18 2.122954 1_556
Mg9 O10 2.171982 1_555
Mg9 O14 2.196615 1_556
Mg9 O25 2.231080 1_555
Mg9 O16 2.246191 1_555
Mg10 O28 2.141241 1_555
Mg10 O27 2.153011 1_655
Mg10 O21 2.155745 1_555
Mg10 O19 2.172414 1_565
Mg10 O7 2.181626 1_555
Mg10 O11 2.225927 1_555
Mg11 O28 2.141241 1_555
Mg11 O27 2.153011 1_555
Mg11 O22 2.155745 1_555
Mg11 O20 2.172414 1_565
Mg11 O8 2.181626 1_555
Mg11 O12 2.225927 1_555
Mg12 O30 2.141241 1_555
Mg12 O29 2.153011 1_655
Mg12 O21 2.155745 1_555
Mg12 O19 2.172414 1_555
Mg12 O9 2.181626 1_555
Mg12 O13 2.225927 1_555
Mg13 O30 2.141241 1_555
Mg13 O29 2.153011 1_555
Mg13 O22 2.155745 1_555
Mg13 O20 2.172414 1_555
Mg13 O10 2.181626 1_555
Mg13 O14 2.225927 1_555
Mg14 O15 2.119732 1_555
Mg14 O19 2.143228 1_555
Mg14 O0 2.193553 1_655
Mg14 O7 2.206773 1_545
Mg14 O9 2.206773 1_555
Mg15 O16 2.119732 1_555
Mg15 O20 2.143228 1_555
Mg15 O0 2.193553 1_555
Mg15 O8 2.206773 1_545
Mg15 O10 2.206773 1_555
Mg16 O2 2.089304 1_555
Mg16 O9 2.120535 1_555
Mg16 O7 2.120535 1_555
Mg16 O1 2.208718 1_655
Mg16 O21 2.251496 1_555
Mg16 O17 2.282284 1_556
Mg17 O2 2.089304 1_555
Mg17 O10 2.120535 1_555
Mg17 O8 2.120535 1_555
Mg17 O1 2.208718 1_555
Mg17 O22 2.251496 1_555
Mg17 O18 2.282284 1_556
Mg18 O19 2.097566 1_555
Mg18 O4 2.147344 1_555
Mg18 O11 2.154905 1_545
Mg18 O13 2.154905 1_555
Mg18 O3 2.160499 1_655
Mg18 O15 2.455239 1_554
Mg19 O20 2.097566 1_555
Mg19 O4 2.147344 1_555
Mg19 O12 2.154905 1_545
Mg19 O14 2.154905 1_555
Mg19 O3 2.160499 1_555
Mg19 O16 2.455239 1_554
Mg20 O5 2.115658 1_655
Mg20 O21 2.122327 1_555
Mg20 O11 2.175036 1_555
Mg20 O13 2.175036 1_555
Mg20 O17 2.181032 1_555
Mg20 O6 2.191550 1_555
Mg21 O5 2.115658 1_555
Mg21 O22 2.122327 1_555
Mg21 O12 2.175036 1_555
Mg21 O14 2.175036 1_555
Mg21 O18 2.181032 1_555
Mg21 O6 2.191550 1_555
Mg22 O1 2.111043 1_555
Mg22 O8 2.149694 1_555
Mg22 O7 2.149694 1_455
Mg22 O27 2.151310 1_555
Mg22 O23 2.214462 1_555
Mg22 O0 2.225973 1_565
Mg23 O2 2.055731 1_555
Mg23 O7 2.142663 1_555
Mg23 O8 2.142663 1_555
Mg23 O24 2.256075 1_556
Mg23 O28 2.296956 1_555
Mg24 O1 2.111043 1_555
Mg24 O10 2.149694 1_555
Mg24 O9 2.149694 1_455
Mg24 O29 2.151310 1_555
Mg24 O25 2.214462 1_555
Mg24 O0 2.225973 1_555
Mg25 O2 2.055731 1_555
Mg25 O9 2.142663 1_555
Mg25 O10 2.142663 1_555
Mg25 O26 2.256075 1_556
Mg25 O30 2.296956 1_555
Mg26 O5 2.132085 1_555
Mg26 O27 2.133973 1_555
Mg26 O12 2.144140 1_555
Mg26 O11 2.144140 1_455
Mg26 O3 2.214500 1_565
Mg26 O23 2.308019 1_554
Mg27 O28 2.102265 1_555
Mg27 O11 2.148981 1_555
Mg27 O12 2.148981 1_555
Mg27 O4 2.151111 1_565
Mg27 O24 2.162860 1_555
Mg27 O6 2.191937 1_555
Mg28 O5 2.132085 1_555
Mg28 O29 2.133973 1_555
Mg28 O14 2.144140 1_555
Mg28 O13 2.144140 1_455
Mg28 O3 2.214500 1_555
Mg28 O25 2.308019 1_554
Mg29 O30 2.102265 1_555
Mg29 O13 2.148981 1_555
Mg29 O14 2.148981 1_555
Mg29 O4 2.151111 1_555
Mg29 O26 2.162860 1_555
Mg29 O6 2.191937 1_555
B0 O6 1.494101 1_555
B0 O18 1.796224 1_555
B0 O17 1.796224 1_555
B0 O26 1.842869 1_555
B0 O24 1.842869 1_555
