# generated using pymatgen
data_UInCu5
_symmetry_space_group_name_H-M   'P 1'
_cell_length_a   5.04026000
_cell_length_b   8.34096500
_cell_length_c   10.63167300
_cell_angle_alpha   90.00000000
_cell_angle_beta   90.00000000
_cell_angle_gamma   90.00000000
_symmetry_Int_Tables_number   1
_chemical_formula_structural   UInCu5
_chemical_formula_sum   'U4 In4 Cu20'
_cell_volume   446.96225480
_cell_formula_units_Z   4
loop_
 _symmetry_equiv_pos_site_id
 _symmetry_equiv_pos_as_xyz
  1  'x, y, z'
loop_
 _atom_site_type_symbol
 _atom_site_label
 _atom_site_symmetry_multiplicity
 _atom_site_fract_x
 _atom_site_fract_y
 _atom_site_fract_z
 _atom_site_occupancy
  U  U0  1  0.75000000  0.74882900  0.43912900  1
  U  U1  1  0.25000000  0.25117100  0.56087100  1
  U  U2  1  0.25000000  0.75117100  0.93912900  1
  U  U3  1  0.75000000  0.24882900  0.06087100  1
  In  In0  1  0.75000000  0.86441600  0.13739600  1
  In  In1  1  0.25000000  0.13558400  0.86260400  1
  In  In2  1  0.25000000  0.63558400  0.63739600  1
  In  In3  1  0.75000000  0.36441600  0.36260400  1
  Cu  Cu0  1  0.75000000  0.58439000  0.98316900  1
  Cu  Cu1  1  0.25000000  0.41561000  0.01683100  1
  Cu  Cu2  1  0.25000000  0.91561000  0.48316900  1
  Cu  Cu3  1  0.75000000  0.08439000  0.51683100  1
  Cu  Cu4  1  0.75000000  0.94080100  0.89585400  1
  Cu  Cu5  1  0.25000000  0.05919900  0.10414600  1
  Cu  Cu6  1  0.25000000  0.55919900  0.39585400  1
  Cu  Cu7  1  0.75000000  0.44080100  0.60414600  1
  Cu  Cu8  1  0.75000000  0.68325900  0.75770800  1
  Cu  Cu9  1  0.25000000  0.31674100  0.24229200  1
  Cu  Cu10  1  0.25000000  0.81674100  0.25770800  1
  Cu  Cu11  1  0.75000000  0.18325900  0.74229200  1
  Cu  Cu12  1  0.49897600  0.93124800  0.68707600  1
  Cu  Cu13  1  0.50102400  0.06875200  0.31292400  1
  Cu  Cu14  1  0.50102400  0.56875200  0.18707600  1
  Cu  Cu15  1  0.99897600  0.06875200  0.31292400  1
  Cu  Cu16  1  0.49897600  0.43124800  0.81292400  1
  Cu  Cu17  1  0.00102400  0.93124800  0.68707600  1
  Cu  Cu18  1  0.00102400  0.43124800  0.81292400  1
  Cu  Cu19  1  0.99897600  0.56875200  0.18707600  1
loop_
_geom_bond_atom_site_label_1
_geom_bond_atom_site_label_2
_geom_bond_distance
_geom_bond_site_symmetry_2
In0 U3 3.307986 1_565
In0 U0 3.349671 1_555
In0 U2 3.418561 1_654
In0 U2 3.418561 1_554
In1 U2 3.307986 1_545
In1 U1 3.349671 1_555
In1 U3 3.418561 1_556
In1 U3 3.418561 1_456
In2 U1 3.307986 1_555
In2 U2 3.349671 1_555
In2 U0 3.418561 1_555
In2 U0 3.418561 1_455
In3 U0 3.307986 1_555
In3 U3 3.349671 1_555
In3 U1 3.418561 1_555
In3 U1 3.418561 1_655
Cu0 Cu14 2.508280 1_556
Cu0 Cu19 2.508280 1_556
Cu0 Cu8 2.534918 1_555
Cu0 Cu18 2.551174 1_655
Cu0 Cu16 2.551174 1_555
Cu0 In0 2.853773 1_556
Cu0 Cu1 2.908780 1_556
Cu0 Cu1 2.908780 1_656
Cu0 U2 2.916416 1_655
Cu0 U2 2.916416 1_555
Cu0 U3 2.918270 1_556
Cu0 Cu4 3.114379 1_555
Cu1 Cu18 2.508280 1_554
Cu1 Cu16 2.508280 1_554
Cu1 Cu9 2.534918 1_555
Cu1 Cu19 2.551174 1_455
Cu1 Cu14 2.551174 1_555
Cu1 In1 2.853773 1_554
Cu1 U3 2.916416 1_555
Cu1 U3 2.916416 1_455
Cu1 U2 2.918270 1_554
Cu1 Cu5 3.114379 1_555
Cu2 In2 2.853773 1_555
Cu2 Cu3 2.908780 1_565
Cu2 Cu3 2.908780 1_465
Cu2 U0 2.916416 1_455
Cu2 U0 2.916416 1_555
Cu2 U1 2.918270 1_565
Cu2 Cu6 3.114379 1_555
Cu3 In3 2.853773 1_555
Cu3 U1 2.916416 1_555
Cu3 U1 2.916416 1_655
Cu3 U0 2.918270 1_545
Cu3 Cu7 3.114379 1_555
Cu4 Cu8 2.602247 1_555
Cu4 In0 2.645851 1_556
Cu4 U2 3.010731 1_555
Cu4 U2 3.010731 1_655
Cu4 In1 3.019205 1_665
Cu4 In1 3.019205 1_565
Cu4 U3 3.111108 1_566
Cu5 Cu9 2.602247 1_555
Cu5 In1 2.645851 1_554
Cu5 U3 3.010731 1_455
Cu5 U3 3.010731 1_555
Cu5 In0 3.019205 1_445
Cu5 In0 3.019205 1_545
Cu5 U2 3.111108 1_544
Cu6 Cu9 2.599093 1_555
Cu6 In2 2.645851 1_555
Cu6 U0 3.010731 1_455
Cu6 U0 3.010731 1_555
Cu6 In3 3.019205 1_555
Cu6 In3 3.019205 1_455
Cu6 U1 3.111108 1_555
Cu7 Cu8 2.599093 1_555
Cu7 In3 2.645851 1_555
Cu7 U1 3.010731 1_655
Cu7 U1 3.010731 1_555
Cu7 In2 3.019205 1_655
Cu7 In2 3.019205 1_555
Cu7 U0 3.111108 1_555
Cu8 In2 2.854002 1_555
Cu8 In2 2.854002 1_655
Cu8 U2 3.223698 1_555
Cu8 U2 3.223698 1_655
Cu8 U0 3.430900 1_555
Cu9 In3 2.854002 1_455
Cu9 In3 2.854002 1_555
Cu9 U3 3.223698 1_455
Cu9 U3 3.223698 1_555
Cu9 U1 3.430900 1_555
Cu10 Cu15 2.522673 1_465
Cu10 Cu13 2.522673 1_565
Cu10 Cu2 2.534918 1_555
Cu10 Cu19 2.538358 1_455
Cu10 Cu14 2.538358 1_555
Cu10 Cu5 2.599093 1_565
Cu10 Cu6 2.602247 1_555
Cu10 In0 2.854002 1_455
Cu10 In0 2.854002 1_555
Cu10 U0 3.223698 1_555
Cu10 U0 3.223698 1_455
Cu10 U2 3.430900 1_554
Cu11 Cu17 2.522673 1_645
Cu11 Cu12 2.522673 1_545
Cu11 Cu3 2.534918 1_555
Cu11 Cu16 2.538358 1_555
Cu11 Cu18 2.538358 1_655
Cu11 Cu4 2.599093 1_545
Cu11 Cu7 2.602247 1_555
Cu11 In1 2.854002 1_555
Cu11 In1 2.854002 1_655
Cu11 U1 3.223698 1_555
Cu11 U1 3.223698 1_655
Cu11 U3 3.430900 1_556
Cu12 Cu2 2.508280 1_555
Cu12 Cu17 2.509808 1_555
Cu12 Cu17 2.530452 1_655
Cu12 Cu8 2.538358 1_555
Cu12 Cu3 2.551174 1_565
Cu12 Cu4 2.556176 1_555
Cu12 In2 2.817006 1_555
Cu12 In1 2.821731 1_565
Cu12 U1 3.239729 1_565
Cu12 U0 3.296193 1_555
Cu12 U2 3.318414 1_555
Cu13 Cu3 2.508280 1_555
Cu13 Cu15 2.509808 1_555
Cu13 Cu15 2.530452 1_455
Cu13 Cu9 2.538358 1_555
Cu13 Cu2 2.551174 1_545
Cu13 Cu5 2.556176 1_555
Cu13 In3 2.817006 1_555
Cu13 In0 2.821731 1_545
Cu13 U0 3.239729 1_545
Cu13 U1 3.296193 1_555
Cu13 U3 3.318414 1_555
Cu14 Cu19 2.509808 1_555
Cu14 Cu9 2.522673 1_555
Cu14 Cu19 2.530452 1_455
Cu14 Cu6 2.556176 1_555
Cu14 In0 2.817006 1_555
Cu14 In3 2.821731 1_555
Cu14 U3 3.239729 1_555
Cu14 U2 3.296193 1_554
Cu14 U0 3.318414 1_555
Cu15 Cu3 2.508280 1_555
Cu15 Cu9 2.538358 1_655
Cu15 Cu2 2.551174 1_645
Cu15 Cu5 2.556176 1_655
Cu15 In3 2.817006 1_555
Cu15 In0 2.821731 1_545
Cu15 U0 3.239729 1_545
Cu15 U1 3.296193 1_655
Cu15 U3 3.318414 1_555
Cu16 Cu18 2.509808 1_555
Cu16 Cu8 2.522673 1_555
Cu16 Cu18 2.530452 1_655
Cu16 Cu7 2.556176 1_555
Cu16 In1 2.817006 1_555
Cu16 In2 2.821731 1_555
Cu16 U2 3.239729 1_555
Cu16 U3 3.296193 1_556
Cu16 U1 3.318414 1_555
Cu17 Cu2 2.508280 1_555
Cu17 Cu8 2.538358 1_455
Cu17 Cu3 2.551174 1_465
Cu17 Cu4 2.556176 1_455
Cu17 In2 2.817006 1_555
Cu17 In1 2.821731 1_565
Cu17 U1 3.239729 1_565
Cu17 U0 3.296193 1_455
Cu17 U2 3.318414 1_555
Cu18 Cu8 2.522673 1_455
Cu18 Cu7 2.556176 1_455
Cu18 In1 2.817006 1_555
Cu18 In2 2.821731 1_555
Cu18 U2 3.239729 1_555
Cu18 U3 3.296193 1_456
Cu18 U1 3.318414 1_555
Cu19 Cu9 2.522673 1_655
Cu19 Cu6 2.556176 1_655
Cu19 In0 2.817006 1_555
Cu19 In3 2.821731 1_555
Cu19 U3 3.239729 1_555
Cu19 U2 3.296193 1_654
Cu19 U0 3.318414 1_555
