# generated using pymatgen
data_CuGeO3
_symmetry_space_group_name_H-M   'P 1'
_cell_length_a   8.69434000
_cell_length_b   9.83650100
_cell_length_c   11.94106000
_cell_angle_alpha   90.00000000
_cell_angle_beta   90.00000000
_cell_angle_gamma   90.00000000
_symmetry_Int_Tables_number   1
_chemical_formula_structural   CuGeO3
_chemical_formula_sum   'Cu16 Ge16 O48'
_cell_volume   1021.22194940
_cell_formula_units_Z   16
loop_
 _symmetry_equiv_pos_site_id
 _symmetry_equiv_pos_as_xyz
  1  'x, y, z'
loop_
 _atom_site_type_symbol
 _atom_site_label
 _atom_site_symmetry_multiplicity
 _atom_site_fract_x
 _atom_site_fract_y
 _atom_site_fract_z
 _atom_site_occupancy
  Cu  Cu0  1  0.50000000  0.50000000  0.00000000  1
  Cu  Cu1  1  0.00000000  0.00000000  0.00000000  1
  Cu  Cu2  1  0.50000000  0.50000000  0.74787900  1
  Cu  Cu3  1  0.00000000  0.00000000  0.25212100  1
  Cu  Cu4  1  0.50000000  0.50000000  0.25212100  1
  Cu  Cu5  1  0.00000000  0.00000000  0.74787900  1
  Cu  Cu6  1  0.50000000  0.50000000  0.50000000  1
  Cu  Cu7  1  0.00000000  0.00000000  0.50000000  1
  Cu  Cu8  1  0.00000000  0.50000000  0.00000000  1
  Cu  Cu9  1  0.50000000  0.00000000  0.00000000  1
  Cu  Cu10  1  0.00000000  0.50000000  0.75062800  1
  Cu  Cu11  1  0.50000000  0.00000000  0.24937200  1
  Cu  Cu12  1  0.00000000  0.50000000  0.24937200  1
  Cu  Cu13  1  0.50000000  0.00000000  0.75062800  1
  Cu  Cu14  1  0.00000000  0.50000000  0.50000000  1
  Cu  Cu15  1  0.50000000  0.00000000  0.50000000  1
  Ge  Ge0  1  0.74984300  0.20628400  0.87457700  1
  Ge  Ge1  1  0.25015700  0.79371600  0.87457700  1
  Ge  Ge2  1  0.75015700  0.70628400  0.12542300  1
  Ge  Ge3  1  0.24984300  0.29371600  0.12542300  1
  Ge  Ge4  1  0.25015700  0.79371600  0.12542300  1
  Ge  Ge5  1  0.74984300  0.20628400  0.12542300  1
  Ge  Ge6  1  0.24984300  0.29371600  0.87457700  1
  Ge  Ge7  1  0.75015700  0.70628400  0.87457700  1
  Ge  Ge8  1  0.75271200  0.20652900  0.62503500  1
  Ge  Ge9  1  0.24728800  0.79347100  0.62503500  1
  Ge  Ge10  1  0.74728800  0.70652900  0.37496500  1
  Ge  Ge11  1  0.25271200  0.29347100  0.37496500  1
  Ge  Ge12  1  0.24728800  0.79347100  0.37496500  1
  Ge  Ge13  1  0.75271200  0.20652900  0.37496500  1
  Ge  Ge14  1  0.25271200  0.29347100  0.62503500  1
  Ge  Ge15  1  0.74728800  0.70652900  0.62503500  1
  O  O0  1  0.74960700  0.30806800  0.00000000  1
  O  O1  1  0.25039300  0.69193200  0.00000000  1
  O  O2  1  0.75039300  0.80806800  0.00000000  1
  O  O3  1  0.24960700  0.19193200  0.00000000  1
  O  O4  1  0.74835800  0.30961400  0.74986500  1
  O  O5  1  0.25164200  0.69038600  0.74986500  1
  O  O6  1  0.75164200  0.80961400  0.25013500  1
  O  O7  1  0.24835800  0.19038600  0.25013500  1
  O  O8  1  0.25164200  0.69038600  0.25013500  1
  O  O9  1  0.74835800  0.30961400  0.25013500  1
  O  O10  1  0.24835800  0.19038600  0.74986500  1
  O  O11  1  0.75164200  0.80961400  0.74986500  1
  O  O12  1  0.74765100  0.30875000  0.50000000  1
  O  O13  1  0.25234900  0.69125000  0.50000000  1
  O  O14  1  0.75234900  0.80875000  0.50000000  1
  O  O15  1  0.24765100  0.19125000  0.50000000  1
  O  O16  1  0.58122800  0.10489200  0.87496800  1
  O  O17  1  0.41877200  0.89510800  0.87496800  1
  O  O18  1  0.91877200  0.60489200  0.12503200  1
  O  O19  1  0.08122800  0.39510800  0.12503200  1
  O  O20  1  0.41877200  0.89510800  0.12503200  1
  O  O21  1  0.58122800  0.10489200  0.12503200  1
  O  O22  1  0.08122800  0.39510800  0.87496800  1
  O  O23  1  0.91877200  0.60489200  0.87496800  1
  O  O24  1  0.59166900  0.09661700  0.62551200  1
  O  O25  1  0.40833100  0.90338300  0.62551200  1
  O  O26  1  0.90833100  0.59661700  0.37448800  1
  O  O27  1  0.09166900  0.40338300  0.37448800  1
  O  O28  1  0.40833100  0.90338300  0.37448800  1
  O  O29  1  0.59166900  0.09661700  0.37448800  1
  O  O30  1  0.09166900  0.40338300  0.62551200  1
  O  O31  1  0.90833100  0.59661700  0.62551200  1
  O  O32  1  0.91730200  0.10333700  0.87367300  1
  O  O33  1  0.08269800  0.89666300  0.87367300  1
  O  O34  1  0.58269800  0.60333700  0.12632700  1
  O  O35  1  0.41730200  0.39666300  0.12632700  1
  O  O36  1  0.08269800  0.89666300  0.12632700  1
  O  O37  1  0.91730200  0.10333700  0.12632700  1
  O  O38  1  0.41730200  0.39666300  0.87367300  1
  O  O39  1  0.58269800  0.60333700  0.87367300  1
  O  O40  1  0.92727200  0.11221300  0.62422800  1
  O  O41  1  0.07272800  0.88778700  0.62422800  1
  O  O42  1  0.57272800  0.61221300  0.37577200  1
  O  O43  1  0.42727200  0.38778700  0.37577200  1
  O  O44  1  0.07272800  0.88778700  0.37577200  1
  O  O45  1  0.92727200  0.11221300  0.37577200  1
  O  O46  1  0.42727200  0.38778700  0.62422800  1
  O  O47  1  0.57272800  0.61221300  0.62422800  1
loop_
_geom_bond_atom_site_label_1
_geom_bond_atom_site_label_2
_geom_bond_distance
_geom_bond_site_symmetry_2
Cu0 O34 1.955938 1_555
Cu0 O35 1.955938 1_555
Cu0 O39 1.955938 1_554
Cu0 O38 1.955938 1_554
Cu1 O36 1.955938 1_545
Cu1 O37 1.955938 1_455
Cu1 O33 1.955938 1_544
Cu1 O32 1.955938 1_454
Cu2 O47 1.948921 1_555
Cu2 O46 1.948921 1_555
Cu2 O39 1.951034 1_555
Cu2 O38 1.951034 1_555
Cu3 O45 1.948921 1_455
Cu3 O44 1.948921 1_545
Cu3 O36 1.951034 1_545
Cu3 O37 1.951034 1_455
Cu4 O43 1.948921 1_555
Cu4 O42 1.948921 1_555
Cu4 O34 1.951034 1_555
Cu4 O35 1.951034 1_555
Cu5 O40 1.948921 1_455
Cu5 O41 1.948921 1_545
Cu5 O33 1.951034 1_545
Cu5 O32 1.951034 1_455
Cu6 O47 1.954146 1_555
Cu6 O46 1.954146 1_555
Cu6 O43 1.954146 1_555
Cu6 O42 1.954146 1_555
Cu7 O44 1.954146 1_545
Cu7 O45 1.954146 1_455
Cu7 O40 1.954146 1_455
Cu7 O41 1.954146 1_545
Cu8 O18 1.947407 1_455
Cu8 O23 1.947407 1_454
Cu8 O19 1.947407 1_555
Cu8 O22 1.947407 1_554
Cu9 O20 1.947407 1_545
Cu9 O21 1.947407 1_555
Cu9 O16 1.947407 1_554
Cu9 O17 1.947407 1_544
Cu10 O23 1.941079 1_455
Cu10 O22 1.941079 1_555
Cu10 O31 1.941780 1_455
Cu10 O30 1.941780 1_555
Cu11 O21 1.941079 1_555
Cu11 O20 1.941079 1_545
Cu11 O29 1.941780 1_555
Cu11 O28 1.941780 1_545
Cu12 O18 1.941079 1_455
Cu12 O19 1.941079 1_555
Cu12 O26 1.941780 1_455
Cu12 O27 1.941780 1_555
Cu13 O16 1.941079 1_555
Cu13 O17 1.941079 1_545
Cu13 O24 1.941780 1_555
Cu13 O25 1.941780 1_545
Cu14 O31 1.945421 1_455
Cu14 O30 1.945421 1_555
Cu14 O26 1.945421 1_455
Cu14 O27 1.945421 1_555
Cu15 O24 1.945421 1_555
Cu15 O29 1.945421 1_555
Cu15 O25 1.945421 1_545
Cu15 O28 1.945421 1_545
Ge0 O16 1.773093 1_555
Ge0 O32 1.773508 1_555
Ge0 O0 1.801516 1_556
Ge0 O4 1.803038 1_555
Ge1 O17 1.773093 1_555
Ge1 O33 1.773508 1_555
Ge1 O1 1.801516 1_556
Ge1 O5 1.803038 1_555
Ge2 O18 1.773093 1_555
Ge2 O34 1.773508 1_555
Ge2 O2 1.801516 1_555
Ge2 O6 1.803038 1_555
Ge3 O19 1.773093 1_555
Ge3 O35 1.773508 1_555
Ge3 O3 1.801516 1_555
Ge3 O7 1.803038 1_555
Ge4 O20 1.773093 1_555
Ge4 O36 1.773508 1_555
Ge4 O1 1.801516 1_555
Ge4 O8 1.803038 1_555
Ge5 O21 1.773093 1_555
Ge5 O37 1.773508 1_555
Ge5 O0 1.801516 1_555
Ge5 O9 1.803038 1_555
Ge6 O22 1.773093 1_555
Ge6 O38 1.773508 1_555
Ge6 O3 1.801516 1_556
Ge6 O10 1.803038 1_555
Ge7 O23 1.773093 1_555
Ge7 O39 1.773508 1_555
Ge7 O2 1.801516 1_556
Ge7 O11 1.803038 1_555
Ge8 O24 1.769003 1_555
Ge8 O40 1.778808 1_555
Ge8 O12 1.800600 1_555
Ge8 O4 1.803196 1_555
Ge9 O25 1.769003 1_555
Ge9 O41 1.778808 1_555
Ge9 O13 1.800600 1_555
Ge9 O5 1.803196 1_555
Ge10 O26 1.769003 1_555
Ge10 O42 1.778808 1_555
Ge10 O14 1.800600 1_555
Ge10 O6 1.803196 1_555
Ge11 O27 1.769003 1_555
Ge11 O43 1.778808 1_555
Ge11 O15 1.800600 1_555
Ge11 O7 1.803196 1_555
Ge12 O28 1.769003 1_555
Ge12 O44 1.778808 1_555
Ge12 O13 1.800600 1_555
Ge12 O8 1.803196 1_555
Ge13 O29 1.769003 1_555
Ge13 O45 1.778808 1_555
Ge13 O12 1.800600 1_555
Ge13 O9 1.803196 1_555
Ge14 O30 1.769003 1_555
Ge14 O46 1.778808 1_555
Ge14 O15 1.800600 1_555
Ge14 O10 1.803196 1_555
Ge15 O31 1.769003 1_555
Ge15 O47 1.778808 1_555
Ge15 O14 1.800600 1_555
Ge15 O11 1.803196 1_555
