# generated using pymatgen
data_SrCa7Mn8O22
_symmetry_space_group_name_H-M   'P 1'
_cell_length_a   7.70409321
_cell_length_b   7.70409321
_cell_length_c   7.65420100
_cell_angle_alpha   90.00000000
_cell_angle_beta   90.00000000
_cell_angle_gamma   90.02702626
_symmetry_Int_Tables_number   1
_chemical_formula_structural   SrCa7Mn8O22
_chemical_formula_sum   'Sr1 Ca7 Mn8 O22'
_cell_volume   454.30014138
_cell_formula_units_Z   1
loop_
 _symmetry_equiv_pos_site_id
 _symmetry_equiv_pos_as_xyz
  1  'x, y, z'
loop_
 _atom_site_type_symbol
 _atom_site_label
 _atom_site_symmetry_multiplicity
 _atom_site_fract_x
 _atom_site_fract_y
 _atom_site_fract_z
 _atom_site_occupancy
  Sr  Sr0  1  0.25000000  0.25000000  0.25000000  1
  Ca  Ca0  1  0.25000000  0.25000000  0.75000000  1
  Ca  Ca1  1  0.25000000  0.75000000  0.25000000  1
  Ca  Ca2  1  0.25000000  0.75000000  0.75000000  1
  Ca  Ca3  1  0.75000000  0.25000000  0.25000000  1
  Ca  Ca4  1  0.75000000  0.25000000  0.75000000  1
  Ca  Ca5  1  0.75000000  0.75000000  0.25000000  1
  Ca  Ca6  1  0.75000000  0.75000000  0.75000000  1
  Mn  Mn0  1  0.99935400  0.99935400  0.99166500  1
  Mn  Mn1  1  0.99935400  0.99935400  0.50833500  1
  Mn  Mn2  1  0.99896100  0.50103900  0.00522800  1
  Mn  Mn3  1  0.99896100  0.50103900  0.49477200  1
  Mn  Mn4  1  0.50103900  0.99896100  0.00522800  1
  Mn  Mn5  1  0.50103900  0.99896100  0.49477200  1
  Mn  Mn6  1  0.50064600  0.50064600  0.99166500  1
  Mn  Mn7  1  0.50064600  0.50064600  0.50833500  1
  O  O0  1  0.99876400  0.99876400  0.75000000  1
  O  O1  1  0.99850100  0.50149900  0.25000000  1
  O  O2  1  0.99846400  0.50153600  0.75000000  1
  O  O3  1  0.50149900  0.99850100  0.25000000  1
  O  O4  1  0.50153600  0.99846400  0.75000000  1
  O  O5  1  0.50123600  0.50123600  0.75000000  1
  O  O6  1  0.24587300  0.99608400  0.01605500  1
  O  O7  1  0.24587300  0.99608400  0.48394500  1
  O  O8  1  0.25412700  0.50391600  0.01605500  1
  O  O9  1  0.25412700  0.50391600  0.48394500  1
  O  O10  1  0.75469100  0.99878700  0.02167600  1
  O  O11  1  0.75469100  0.99878700  0.47832400  1
  O  O12  1  0.74530900  0.50121300  0.02167600  1
  O  O13  1  0.74530900  0.50121300  0.47832400  1
  O  O14  1  0.99608400  0.24587300  0.01605500  1
  O  O15  1  0.99608400  0.24587300  0.48394500  1
  O  O16  1  0.99878700  0.75469100  0.02167600  1
  O  O17  1  0.99878700  0.75469100  0.47832400  1
  O  O18  1  0.50391600  0.25412700  0.01605500  1
  O  O19  1  0.50391600  0.25412700  0.48394500  1
  O  O20  1  0.50121300  0.74530900  0.02167600  1
  O  O21  1  0.50121300  0.74530900  0.47832400  1
loop_
_geom_bond_atom_site_label_1
_geom_bond_atom_site_label_2
_geom_bond_distance
_geom_bond_site_symmetry_2
Ca0 O0 2.736629 1_445
Ca0 O5 2.736629 1_555
Ca0 O2 2.741190 1_455
Ca0 O4 2.741190 1_545
Ca0 O18 2.823955 1_556
Ca0 O14 2.823955 1_456
Ca0 O8 2.823955 1_556
Ca0 O6 2.823955 1_546
Ca0 O15 2.823955 1_455
Ca0 O19 2.823955 1_555
Ca0 O9 2.823955 1_555
Ca0 O7 2.823955 1_545
Ca1 O17 2.607923 1_455
Ca1 O21 2.607923 1_555
Ca1 O20 2.607923 1_555
Ca1 O16 2.607923 1_455
Ca1 O9 2.608026 1_555
Ca1 O7 2.608026 1_555
Ca1 O6 2.608026 1_555
Ca1 O8 2.608026 1_555
Ca1 O1 2.723215 1_455
Ca1 O3 2.723215 1_555
Ca2 O4 2.723217 1_555
Ca2 O2 2.723217 1_455
Ca2 O5 2.724484 1_555
Ca2 O0 2.724484 1_455
Ca2 O8 2.782519 1_556
Ca2 O6 2.782519 1_556
Ca2 O7 2.782519 1_555
Ca2 O9 2.782519 1_555
Ca2 O20 2.840984 1_556
Ca2 O16 2.840984 1_456
Ca2 O17 2.840984 1_455
Ca2 O21 2.840984 1_555
Ca3 O13 2.607923 1_555
Ca3 O11 2.607923 1_545
Ca3 O12 2.607923 1_555
Ca3 O10 2.607923 1_545
Ca3 O19 2.608026 1_555
Ca3 O15 2.608026 1_555
Ca3 O14 2.608026 1_555
Ca3 O18 2.608026 1_555
Ca3 O1 2.723215 1_555
Ca3 O3 2.723215 1_545
Ca4 O2 2.723217 1_555
Ca4 O4 2.723217 1_545
Ca4 O5 2.724484 1_555
Ca4 O0 2.724484 1_545
Ca4 O14 2.782519 1_556
Ca4 O18 2.782519 1_556
Ca4 O15 2.782519 1_555
Ca4 O19 2.782519 1_555
Ca4 O12 2.840984 1_556
Ca4 O10 2.840984 1_546
Ca4 O11 2.840984 1_545
Ca4 O13 2.840984 1_555
Ca5 O13 2.594057 1_555
Ca5 O17 2.594057 1_555
Ca5 O21 2.594057 1_555
Ca5 O11 2.594057 1_555
Ca5 O10 2.594057 1_555
Ca5 O12 2.594057 1_555
Ca5 O16 2.594057 1_555
Ca5 O20 2.594057 1_555
Ca5 O1 2.708115 1_555
Ca5 O3 2.708115 1_555
Ca6 O2 2.707712 1_555
Ca6 O4 2.707712 1_555
Ca6 O5 2.709702 1_555
Ca6 O0 2.709702 1_555
Ca6 O10 2.828261 1_556
Ca6 O20 2.828261 1_556
Ca6 O12 2.828261 1_556
Ca6 O16 2.828261 1_556
Ca6 O17 2.828261 1_555
Ca6 O11 2.828261 1_555
Ca6 O21 2.828261 1_555
Ca6 O13 2.828261 1_555
Mn0 O0 1.849764 1_555
Mn0 O16 1.898855 1_556
Mn0 O10 1.898855 1_556
Mn0 O14 1.908537 1_566
Mn0 O6 1.908537 1_656
Mn1 O0 1.849764 1_555
Mn1 O17 1.898855 1_555
Mn1 O11 1.898855 1_555
Mn1 O7 1.908537 1_655
Mn1 O15 1.908537 1_565
Mn2 O1 1.873541 1_555
Mn2 O2 1.953574 1_554
Mn2 O12 1.958211 1_555
Mn2 O16 1.958211 1_555
Mn2 O8 1.967683 1_655
Mn2 O14 1.967683 1_555
Mn3 O1 1.873541 1_555
Mn3 O2 1.953574 1_555
Mn3 O13 1.958211 1_555
Mn3 O17 1.958211 1_555
Mn3 O9 1.967683 1_655
Mn3 O15 1.967683 1_555
Mn4 O3 1.873541 1_555
Mn4 O4 1.953574 1_554
Mn4 O10 1.958211 1_555
Mn4 O20 1.958211 1_555
Mn4 O18 1.967683 1_565
Mn4 O6 1.967683 1_555
Mn5 O3 1.873541 1_555
Mn5 O4 1.953574 1_555
Mn5 O11 1.958211 1_555
Mn5 O21 1.958211 1_555
Mn5 O19 1.967683 1_565
Mn5 O7 1.967683 1_555
Mn6 O5 1.849764 1_555
Mn6 O20 1.898855 1_556
Mn6 O12 1.898855 1_556
Mn6 O18 1.908537 1_556
Mn6 O8 1.908537 1_556
Mn7 O5 1.849764 1_555
Mn7 O13 1.898855 1_555
Mn7 O21 1.898855 1_555
Mn7 O19 1.908537 1_555
Mn7 O9 1.908537 1_555
O1 Sr0 2.740786 1_655
O3 Sr0 2.740786 1_565
O6 Sr0 2.652190 1_565
O7 Sr0 2.652190 1_565
O8 Sr0 2.652190 1_555
O9 Sr0 2.652190 1_555
O14 Sr0 2.652190 1_655
O15 Sr0 2.652190 1_655
O18 Sr0 2.652190 1_555
O19 Sr0 2.652190 1_555
