# generated using pymatgen
data_Nd3In4Ge
_symmetry_space_group_name_H-M   'P 1'
_cell_length_a   8.57446429
_cell_length_b   8.57446429
_cell_length_c   8.57446429
_cell_angle_alpha   119.69744797
_cell_angle_beta   119.69744797
_cell_angle_gamma   90.52483922
_symmetry_Int_Tables_number   1
_chemical_formula_structural   Nd3In4Ge
_chemical_formula_sum   'Nd6 In8 Ge2'
_cell_volume   447.78319652
_cell_formula_units_Z   2
loop_
 _symmetry_equiv_pos_site_id
 _symmetry_equiv_pos_as_xyz
  1  'x, y, z'
loop_
 _atom_site_type_symbol
 _atom_site_label
 _atom_site_symmetry_multiplicity
 _atom_site_fract_x
 _atom_site_fract_y
 _atom_site_fract_z
 _atom_site_occupancy
  Nd  Nd0  1  0.75000000  0.75000000  0.00000000  1
  Nd  Nd1  1  0.25000000  0.25000000  0.00000000  1
  Nd  Nd2  1  0.66466700  0.16466700  0.82933400  1
  Nd  Nd3  1  0.33533300  0.83533300  0.17066600  1
  Nd  Nd4  1  0.16466700  0.33533300  0.50000000  1
  Nd  Nd5  1  0.83533300  0.66466700  0.50000000  1
  In  In0  1  0.31766100  0.81766100  0.78128200  1
  In  In1  1  0.68233900  0.18233900  0.21871800  1
  In  In2  1  0.03637900  0.53637900  0.21871800  1
  In  In3  1  0.81766100  0.03637900  0.50000000  1
  In  In4  1  0.46362100  0.68233900  0.50000000  1
  In  In5  1  0.96362100  0.46362100  0.78128200  1
  In  In6  1  0.18233900  0.96362100  0.50000000  1
  In  In7  1  0.53637900  0.31766100  0.50000000  1
  Ge  Ge0  1  0.50000000  0.50000000  0.00000000  1
  Ge  Ge1  1  0.00000000  0.00000000  0.00000000  1
loop_
_geom_bond_atom_site_label_1
_geom_bond_atom_site_label_2
_geom_bond_distance
_geom_bond_site_symmetry_2
In0 In6 2.995700 1_555
In0 In4 2.995700 1_555
In0 Nd3 3.192217 1_556
In0 In1 3.194145 1_566
In0 Nd5 3.394745 1_455
In0 Nd4 3.394745 1_555
In0 In2 3.426447 1_555
In0 Nd1 3.438750 1_566
In0 Nd0 3.438750 1_556
In0 Nd2 3.909487 1_565
In1 In3 2.995700 1_555
In1 In7 2.995700 1_555
In1 Nd2 3.192217 1_554
In1 Nd4 3.394745 1_655
In1 Nd5 3.394745 1_555
In1 In5 3.426447 1_555
In1 Nd1 3.438750 1_555
In1 Nd0 3.438750 1_545
In1 Nd3 3.909487 1_545
In2 In4 2.995700 1_555
In2 In6 2.995700 1_555
In2 Nd2 3.192217 1_454
In2 In5 3.194145 1_454
In2 Nd4 3.394745 1_555
In2 Nd5 3.394745 1_455
In2 Nd1 3.438750 1_555
In2 Nd0 3.438750 1_455
In2 Nd3 3.909487 1_555
In3 In5 2.995700 1_555
In3 Nd5 3.192217 1_545
In3 In6 3.194145 1_645
In3 Nd3 3.394745 1_545
In3 Nd2 3.394745 1_555
In3 In7 3.426447 1_555
In3 Nd0 3.438750 1_545
In3 Nd1 3.438750 1_656
In3 Nd4 3.909487 1_655
In4 Nd5 3.192217 1_555
In4 In7 3.194145 1_555
In4 Nd2 3.394745 1_565
In4 Nd3 3.394745 1_555
In4 In6 3.426447 1_555
In4 Nd0 3.438750 1_556
In4 Nd1 3.438750 1_555
In4 Nd4 3.909487 1_555
In5 In7 2.995700 1_555
In5 Nd3 3.192217 1_656
In5 Nd4 3.394745 1_655
In5 Nd5 3.394745 1_555
In5 Nd0 3.438750 1_556
In5 Nd1 3.438750 1_656
In5 Nd2 3.909487 1_555
In6 Nd4 3.192217 1_565
In6 Nd2 3.394745 1_565
In6 Nd3 3.394745 1_555
In6 Nd1 3.438750 1_566
In6 Nd0 3.438750 1_455
In6 Nd5 3.909487 1_455
In7 Nd4 3.192217 1_555
In7 Nd3 3.394745 1_545
In7 Nd2 3.394745 1_555
In7 Nd0 3.438750 1_556
In7 Nd1 3.438750 1_555
In7 Nd5 3.909487 1_555
Ge0 Nd0 3.017615 1_555
Ge0 Nd1 3.017615 1_555
Ge0 Nd3 3.217902 1_555
Ge0 Nd5 3.217902 1_555
Ge0 Nd4 3.217902 1_554
Ge0 Nd2 3.217902 1_554
Ge1 Nd0 3.017615 1_445
Ge1 Nd1 3.017615 1_555
Ge1 Nd2 3.217902 1_454
Ge1 Nd3 3.217902 1_545
Ge1 Nd5 3.217902 1_444
Ge1 Nd4 3.217902 1_555
