# generated using pymatgen
data_K2ZnTe2
_symmetry_space_group_name_H-M   'P 1'
_cell_length_a   6.95079538
_cell_length_b   7.28704295
_cell_length_c   8.66075058
_cell_angle_alpha   114.87837881
_cell_angle_beta   113.65830783
_cell_angle_gamma   90.00000305
_symmetry_Int_Tables_number   1
_chemical_formula_structural   K2ZnTe2
_chemical_formula_sum   'K4 Zn2 Te4'
_cell_volume   356.91693238
_cell_formula_units_Z   2
loop_
 _symmetry_equiv_pos_site_id
 _symmetry_equiv_pos_as_xyz
  1  'x, y, z'
loop_
 _atom_site_type_symbol
 _atom_site_label
 _atom_site_symmetry_multiplicity
 _atom_site_fract_x
 _atom_site_fract_y
 _atom_site_fract_z
 _atom_site_occupancy
  K  K0  1  0.85947023  0.17597431  0.71894046  1
  K  K1  1  0.14052977  0.82402569  0.28105954  1
  K  K2  1  0.64052977  0.45703385  0.28105954  1
  K  K3  1  0.35947023  0.54296615  0.71894046  1
  Zn  Zn0  1  0.25000000  0.00000000  -0.00000000  1
  Zn  Zn1  1  0.75000000  -0.00000000  -0.00000000  1
  Te  Te0  1  0.60690849  0.91295286  0.21381598  1
  Te  Te1  1  0.39309151  0.08704714  0.78618402  1
  Te  Te2  1  0.89309151  0.69913488  0.78618402  1
  Te  Te3  1  0.10690849  0.30086512  0.21381598  1
loop_
_geom_bond_atom_site_label_1
_geom_bond_atom_site_label_2
_geom_bond_distance
_geom_bond_site_symmetry_2
K0 Zn1 3.501635 1_556
K0 Zn0 3.501635 1_656
K0 Te0 3.560240 1_545
K0 Te2 3.598622 1_555
K0 Te3 3.599729 1_656
K0 Te1 3.619444 1_655
K0 Te1 3.619450 1_555
K0 Te2 3.749811 1_545
K1 Zn0 3.501635 1_565
K1 Zn1 3.501635 1_465
K1 Te1 3.560240 1_565
K1 Te3 3.598622 1_555
K1 Te2 3.599729 1_454
K1 Te0 3.619444 1_455
K1 Te0 3.619450 1_555
K1 Te3 3.749811 1_565
K2 Zn0 3.501635 1_555
K2 Zn1 3.501635 1_555
K2 Te2 3.560240 1_555
K2 Te0 3.598637 1_555
K2 Te1 3.599732 1_554
K2 Te3 3.619440 1_555
K2 Te3 3.619447 1_655
K2 Te0 3.749797 1_545
K3 Zn1 3.501635 1_566
K3 Zn0 3.501635 1_566
K3 Te3 3.560240 1_555
K3 Te1 3.598637 1_555
K3 Te0 3.599732 1_556
K3 Te2 3.619440 1_555
K3 Te2 3.619447 1_455
K3 Te1 3.749797 1_565
Te0 Zn1 2.699492 1_565
Te0 Zn0 2.699497 1_565
Te1 Zn0 2.699492 1_556
Te1 Zn1 2.699497 1_556
Te2 Zn1 2.699500 1_566
Te2 Zn0 2.699504 1_666
Te3 Zn0 2.699500 1_555
Te3 Zn1 2.699504 1_455
