# generated using pymatgen
data_KMg6Ni
_symmetry_space_group_name_H-M   'P 1'
_cell_length_a   8.09970794
_cell_length_b   8.09970794
_cell_length_c   4.54392300
_cell_angle_alpha   90.00000000
_cell_angle_beta   90.00000000
_cell_angle_gamma   135.57741504
_symmetry_Int_Tables_number   1
_chemical_formula_structural   KMg6Ni
_chemical_formula_sum   'K1 Mg6 Ni1'
_cell_volume   208.65728220
_cell_formula_units_Z   1
loop_
 _symmetry_equiv_pos_site_id
 _symmetry_equiv_pos_as_xyz
  1  'x, y, z'
loop_
 _atom_site_type_symbol
 _atom_site_label
 _atom_site_symmetry_multiplicity
 _atom_site_fract_x
 _atom_site_fract_y
 _atom_site_fract_z
 _atom_site_occupancy
  K  K0  1  0.28285300  0.71714700  0.50000000  1
  Mg  Mg0  1  0.20743400  0.29363400  0.00000000  1
  Mg  Mg1  1  0.70636600  0.79256600  0.00000000  1
  Mg  Mg2  1  0.68166700  0.31833300  0.00000000  1
  Mg  Mg3  1  0.32020200  0.15538200  0.50000000  1
  Mg  Mg4  1  0.84461800  0.67979800  0.50000000  1
  Mg  Mg5  1  0.86027400  0.13972600  0.50000000  1
  Ni  Ni0  1  0.09658600  0.90341400  0.00000000  1
loop_
_geom_bond_atom_site_label_1
_geom_bond_atom_site_label_2
_geom_bond_distance
_geom_bond_site_symmetry_2
K0 Mg5 3.274641 1_455
K0 Mg5 3.274641 1_565
K0 Mg3 3.340238 1_565
K0 Mg4 3.340238 1_455
K0 Ni0 3.600767 1_556
K0 Ni0 3.600767 1_555
K0 Mg0 3.782719 1_556
K0 Mg0 3.782719 1_555
K0 Mg1 3.782719 1_556
K0 Mg1 3.782719 1_555
K0 Mg2 4.103630 1_456
K0 Mg2 4.103630 1_566
K0 Mg2 4.103630 1_565
K0 Mg2 4.103630 1_455
Mg0 Ni0 2.596631 1_545
Mg1 Ni0 2.596631 1_655
Mg2 Mg3 3.155310 1_555
Mg2 Mg3 3.155310 1_554
Mg2 Mg4 3.155310 1_555
Mg2 Mg4 3.155310 1_554
Mg2 Ni0 3.317114 1_545
Mg2 Ni0 3.317114 1_655
Mg2 Mg5 3.512390 1_555
Mg2 Mg5 3.512390 1_554
Mg3 Ni0 2.706930 1_545
Mg3 Ni0 2.706930 1_546
Mg4 Ni0 2.706930 1_656
Mg4 Ni0 2.706930 1_655
