# generated using pymatgen
data_Cs4U3Si4O17
_symmetry_space_group_name_H-M   'P 1'
_cell_length_a   6.92534055
_cell_length_b   6.92534055
_cell_length_c   11.90390218
_cell_angle_alpha   75.40900310
_cell_angle_beta   75.40900310
_cell_angle_gamma   66.05235386
_symmetry_Int_Tables_number   1
_chemical_formula_structural   Cs4U3Si4O17
_chemical_formula_sum   'Cs4 U3 Si4 O17'
_cell_volume   497.65932370
_cell_formula_units_Z   1
loop_
 _symmetry_equiv_pos_site_id
 _symmetry_equiv_pos_as_xyz
  1  'x, y, z'
loop_
 _atom_site_type_symbol
 _atom_site_label
 _atom_site_symmetry_multiplicity
 _atom_site_fract_x
 _atom_site_fract_y
 _atom_site_fract_z
 _atom_site_occupancy
  Cs  Cs0  1  0.81935060  0.81935060  0.51715144  1
  Cs  Cs1  1  0.18064940  0.18064940  0.48284856  1
  Cs  Cs2  1  0.85040323  0.85040323  0.92235038  1
  Cs  Cs3  1  0.14959677  0.14959677  0.07764962  1
  U  U0  1  0.45026560  0.45026560  0.68610869  1
  U  U1  1  0.54973440  0.54973440  0.31389131  1
  U  U2  1  0.50000000  0.50000000  -0.00000000  1
  Si  Si0  1  0.95448127  0.36687029  0.76648799  1
  Si  Si1  1  0.36687029  0.95448127  0.76648799  1
  Si  Si2  1  0.04551873  0.63312971  0.23351201  1
  Si  Si3  1  0.63312971  0.04551873  0.23351201  1
  O  O0  1  0.82688240  0.42154659  0.89596698  1
  O  O1  1  0.42154659  0.82688240  0.89596698  1
  O  O2  1  0.17311760  0.57845341  0.10403302  1
  O  O3  1  0.57845341  0.17311760  0.10403302  1
  O  O4  1  0.10232329  0.50948088  0.70292837  1
  O  O5  1  0.50948088  0.10232329  0.70292837  1
  O  O6  1  0.89767671  0.49051912  0.29707163  1
  O  O7  1  0.49051912  0.89767671  0.29707163  1
  O  O8  1  0.79206202  0.39195397  0.68146524  1
  O  O9  1  0.39195397  0.79206202  0.68146524  1
  O  O10  1  0.20793798  0.60804603  0.31853476  1
  O  O11  1  0.60804603  0.20793798  0.31853476  1
  O  O12  1  0.11329162  0.11329162  0.78530676  1
  O  O13  1  0.88670838  0.88670838  0.21469324  1
  O  O14  1  0.40754290  0.40754290  0.87787690  1
  O  O15  1  0.59245710  0.59245710  0.12212310  1
  O  O16  1  0.50000000  0.50000000  0.50000000  1
loop_
_geom_bond_atom_site_label_1
_geom_bond_atom_site_label_2
_geom_bond_distance
_geom_bond_site_symmetry_2
Cs0 O5 3.116822 1_565
Cs0 O4 3.116822 1_655
Cs0 O8 3.158054 1_555
Cs0 O9 3.158054 1_555
Cs0 O10 3.211538 1_655
Cs0 O11 3.211538 1_565
Cs1 O7 3.116822 1_545
Cs1 O6 3.116822 1_455
Cs1 O10 3.158054 1_555
Cs1 O11 3.158054 1_555
Cs1 O9 3.211538 1_545
Cs1 O8 3.211538 1_455
Cs2 O12 2.998063 1_665
Cs2 O1 3.135986 1_555
Cs2 O0 3.135986 1_555
Cs2 O2 3.191446 1_656
Cs2 O3 3.191446 1_566
Cs2 O15 3.216721 1_556
Cs3 O13 2.998063 1_445
Cs3 O2 3.135986 1_555
Cs3 O3 3.135986 1_555
Cs3 O1 3.191446 1_544
Cs3 O0 3.191446 1_454
Cs3 O14 3.216721 1_554
O0 Si0 1.623594 1_555
O0 U2 2.209421 1_556
O1 Si1 1.623594 1_555
O1 U2 2.209421 1_556
O2 Si2 1.623594 1_555
O2 U2 2.209421 1_555
O3 Si3 1.623594 1_555
O3 U2 2.209421 1_555
O4 Si0 1.627956 1_455
O4 U0 2.238444 1_555
O5 Si1 1.627956 1_545
O5 U0 2.238444 1_555
O6 Si2 1.627956 1_655
O6 U1 2.238444 1_555
O7 Si3 1.627956 1_565
O7 U1 2.238444 1_555
O8 Si0 1.626682 1_555
O8 U0 2.222257 1_555
O9 Si1 1.626682 1_555
O9 U0 2.222257 1_555
O10 Si2 1.626682 1_555
O10 U1 2.222257 1_555
O11 Si3 1.626682 1_555
O11 U1 2.222257 1_555
O12 Si1 1.643695 1_545
O12 Si0 1.643695 1_455
O13 Si3 1.643695 1_565
O13 Si2 1.643695 1_655
O14 U2 2.050393 1_556
O14 U0 2.185563 1_555
O15 U2 2.050393 1_555
O15 U1 2.185563 1_555
O16 U0 2.114887 1_555
O16 U1 2.114887 1_555
