# generated using pymatgen
data_Ho2V2O7
_symmetry_space_group_name_H-M   'P 1'
_cell_length_a   7.05099411
_cell_length_b   7.05099411
_cell_length_c   7.05099411
_cell_angle_alpha   60.00000000
_cell_angle_beta   60.00000000
_cell_angle_gamma   60.00000000
_symmetry_Int_Tables_number   1
_chemical_formula_structural   Ho2V2O7
_chemical_formula_sum   'Ho4 V4 O14'
_cell_volume   247.87690108
_cell_formula_units_Z   2
loop_
 _symmetry_equiv_pos_site_id
 _symmetry_equiv_pos_as_xyz
  1  'x, y, z'
loop_
 _atom_site_type_symbol
 _atom_site_label
 _atom_site_symmetry_multiplicity
 _atom_site_fract_x
 _atom_site_fract_y
 _atom_site_fract_z
 _atom_site_occupancy
  Ho  Ho0  1  0.62500000  0.62500000  0.62500000  1
  Ho  Ho1  1  0.12500000  0.62500000  0.62500000  1
  Ho  Ho2  1  0.62500000  0.12500000  0.62500000  1
  Ho  Ho3  1  0.62500000  0.62500000  0.12500000  1
  V  V0  1  0.12500000  0.62500000  0.12500000  1
  V  V1  1  0.12500000  0.12500000  0.62500000  1
  V  V2  1  0.62500000  0.12500000  0.12500000  1
  V  V3  1  0.12500000  0.12500000  0.12500000  1
  O  O0  1  0.75000000  0.75000000  0.75000000  1
  O  O1  1  0.20600560  0.79399440  0.79399440  1
  O  O2  1  0.20600560  0.79399440  0.20600560  1
  O  O3  1  0.79399440  0.79399440  0.20600560  1
  O  O4  1  0.79399440  0.20600560  0.79399440  1
  O  O5  1  0.20600560  0.20600560  0.79399440  1
  O  O6  1  0.45600560  0.04399440  0.04399440  1
  O  O7  1  0.79399440  0.20600560  0.20600560  1
  O  O8  1  0.04399440  0.45600560  0.04399440  1
  O  O9  1  0.04399440  0.04399440  0.45600560  1
  O  O10  1  0.45600560  0.45600560  0.04399440  1
  O  O11  1  0.45600560  0.04399440  0.45600560  1
  O  O12  1  0.04399440  0.45600560  0.45600560  1
  O  O13  1  0.50000000  0.50000000  0.50000000  1
loop_
_geom_bond_atom_site_label_1
_geom_bond_atom_site_label_2
_geom_bond_distance
_geom_bond_site_symmetry_2
Ho0 O0 2.158917 1_555
Ho0 O13 2.158917 1_555
Ho0 O12 2.438647 1_655
Ho0 O10 2.438647 1_556
Ho0 O11 2.438647 1_565
Ho0 O3 2.438647 1_555
Ho0 O4 2.438647 1_555
Ho0 O1 2.438647 1_555
Ho1 O0 2.158917 1_455
Ho1 O13 2.158917 1_555
Ho1 O9 2.438647 1_565
Ho1 O8 2.438647 1_556
Ho1 O1 2.438647 1_555
Ho1 O2 2.438647 1_555
Ho1 O5 2.438647 1_555
Ho1 O12 2.438647 1_555
Ho2 O13 2.158917 1_555
Ho2 O0 2.158917 1_545
Ho2 O9 2.438647 1_655
Ho2 O6 2.438647 1_556
Ho2 O4 2.438647 1_555
Ho2 O7 2.438647 1_555
Ho2 O5 2.438647 1_555
Ho2 O11 2.438647 1_555
Ho3 O0 2.158917 1_554
Ho3 O13 2.158917 1_555
Ho3 O8 2.438647 1_655
Ho3 O6 2.438647 1_565
Ho3 O3 2.438647 1_555
Ho3 O7 2.438647 1_555
Ho3 O2 2.438647 1_555
Ho3 O10 2.438647 1_555
O1 V1 1.939008 1_565
O1 V0 1.939008 1_556
O2 V0 1.939008 1_555
O2 V3 1.939008 1_565
O3 V0 1.939008 1_655
O3 V2 1.939008 1_565
O4 V2 1.939008 1_556
O4 V1 1.939008 1_655
O5 V1 1.939008 1_555
O5 V3 1.939008 1_556
O6 V3 1.939008 1_555
O6 V2 1.939008 1_555
O7 V2 1.939008 1_555
O7 V3 1.939008 1_655
O8 V3 1.939008 1_555
O8 V0 1.939008 1_555
O9 V3 1.939008 1_555
O9 V1 1.939008 1_555
O10 V2 1.939008 1_555
O10 V0 1.939008 1_555
O11 V2 1.939008 1_555
O11 V1 1.939008 1_555
O12 V0 1.939008 1_555
O12 V1 1.939008 1_555
