# generated using pymatgen
data_Sc3IrC4
_symmetry_space_group_name_H-M   'P 1'
_cell_length_a   6.72637578
_cell_length_b   6.72637578
_cell_length_c   6.72637578
_cell_angle_alpha   150.21852355
_cell_angle_beta   141.47619770
_cell_angle_gamma   49.43761907
_symmetry_Int_Tables_number   1
_chemical_formula_structural   Sc3IrC4
_chemical_formula_sum   'Sc3 Ir1 C4'
_cell_volume   93.74001145
_cell_formula_units_Z   1
loop_
 _symmetry_equiv_pos_site_id
 _symmetry_equiv_pos_as_xyz
  1  'x, y, z'
loop_
 _atom_site_type_symbol
 _atom_site_label
 _atom_site_symmetry_multiplicity
 _atom_site_fract_x
 _atom_site_fract_y
 _atom_site_fract_z
 _atom_site_occupancy
  Sc  Sc0  1  0.50000000  0.50000000  -0.00000000  1
  Sc  Sc1  1  0.80965294  0.30965294  0.50000000  1
  Sc  Sc2  1  0.19034706  0.69034706  0.50000000  1
  Ir  Ir0  1  -0.00000000  -0.00000000  -0.00000000  1
  C  C0  1  0.20870668  0.87210115  0.33660553  1
  C  C1  1  0.79129332  0.12789885  0.66339447  1
  C  C2  1  0.46450538  0.12789885  0.33660553  1
  C  C3  1  0.53549462  0.87210115  0.66339447  1
loop_
_geom_bond_atom_site_label_1
_geom_bond_atom_site_label_2
_geom_bond_distance
_geom_bond_site_symmetry_2
Ir0 Sc0 2.812737 1_556
Ir0 Sc0 2.812737 1_444
Ir0 Sc0 2.812737 1_545
Ir0 Sc0 2.812737 1_455
C0 C3 1.450249 1_555
C0 Ir0 2.162002 1_565
C0 Sc2 2.336424 1_555
C0 Sc1 2.408657 1_454
C0 Sc1 2.408657 1_465
C0 Sc0 2.440565 1_555
C0 Sc0 2.440565 1_566
C1 C2 1.450249 1_555
C1 Ir0 2.162002 1_656
C1 Sc1 2.336424 1_555
C1 Sc2 2.408657 1_645
C1 Sc2 2.408657 1_656
C1 Sc0 2.440565 1_545
C1 Sc0 2.440565 1_556
C2 Ir0 2.162008 1_555
C2 Sc1 2.336417 1_555
C2 Sc2 2.408655 1_544
C2 Sc2 2.408658 1_555
C2 Sc0 2.440567 1_545
C2 Sc0 2.440570 1_556
C3 Ir0 2.162008 1_666
C3 Sc2 2.336417 1_555
C3 Sc1 2.408655 1_566
C3 Sc1 2.408658 1_555
C3 Sc0 2.440567 1_566
C3 Sc0 2.440570 1_555
