# generated using pymatgen
data_EuGe7Ir3
_symmetry_space_group_name_H-M   'P 1'
_cell_length_a   8.38057632
_cell_length_b   8.38057632
_cell_length_c   8.38057617
_cell_angle_alpha   56.85947453
_cell_angle_beta   56.85947453
_cell_angle_gamma   56.85948085
_symmetry_Int_Tables_number   1
_chemical_formula_structural   EuGe7Ir3
_chemical_formula_sum   'Eu2 Ge14 Ir6'
_cell_volume   386.04483430
_cell_formula_units_Z   2
loop_
 _symmetry_equiv_pos_site_id
 _symmetry_equiv_pos_as_xyz
  1  'x, y, z'
loop_
 _atom_site_type_symbol
 _atom_site_label
 _atom_site_symmetry_multiplicity
 _atom_site_fract_x
 _atom_site_fract_y
 _atom_site_fract_z
 _atom_site_occupancy
  Eu  Eu0  1  0.50000000  0.50000000  0.50000000  1
  Eu  Eu1  1  0.00000000  0.00000000  0.00000000  1
  Ge  Ge0  1  0.34991200  0.16810500  0.57390200  1
  Ge  Ge1  1  0.57390200  0.34991200  0.16810500  1
  Ge  Ge2  1  0.16810500  0.57390200  0.34991200  1
  Ge  Ge3  1  0.07390200  0.66810500  0.84991200  1
  Ge  Ge4  1  0.84991200  0.07390200  0.66810500  1
  Ge  Ge5  1  0.66810500  0.84991200  0.07390200  1
  Ge  Ge6  1  0.65008800  0.83189500  0.42609800  1
  Ge  Ge7  1  0.42609800  0.65008800  0.83189500  1
  Ge  Ge8  1  0.83189500  0.42609800  0.65008800  1
  Ge  Ge9  1  0.92609800  0.33189500  0.15008800  1
  Ge  Ge10  1  0.15008800  0.92609800  0.33189500  1
  Ge  Ge11  1  0.33189500  0.15008800  0.92609800  1
  Ge  Ge12  1  0.25000000  0.25000000  0.25000000  1
  Ge  Ge13  1  0.75000000  0.75000000  0.75000000  1
  Ir  Ir0  1  0.93296400  0.56703600  0.25000000  1
  Ir  Ir1  1  0.25000000  0.93296400  0.56703600  1
  Ir  Ir2  1  0.56703600  0.25000000  0.93296400  1
  Ir  Ir3  1  0.75000000  0.06703600  0.43296400  1
  Ir  Ir4  1  0.43296400  0.75000000  0.06703600  1
  Ir  Ir5  1  0.06703600  0.43296400  0.75000000  1
loop_
_geom_bond_atom_site_label_1
_geom_bond_atom_site_label_2
_geom_bond_distance
_geom_bond_site_symmetry_2
Eu0 Ir0 3.240507 1_555
Eu0 Ir5 3.240507 1_555
Eu0 Ir2 3.240507 1_555
Eu0 Ir4 3.240507 1_555
Eu0 Ir3 3.240508 1_555
Eu0 Ir1 3.240508 1_555
Eu0 Ge0 3.285161 1_555
Eu0 Ge6 3.285161 1_555
Eu0 Ge1 3.285161 1_555
Eu0 Ge7 3.285161 1_555
Eu0 Ge2 3.285161 1_555
Eu0 Ge8 3.285161 1_555
Eu0 Ge5 3.301917 1_555
Eu0 Ge11 3.301917 1_555
Eu0 Ge3 3.301917 1_555
Eu0 Ge9 3.301917 1_555
Eu0 Ge4 3.301917 1_555
Eu0 Ge10 3.301917 1_555
Eu1 Ir5 3.240507 1_554
Eu1 Ir0 3.240507 1_445
Eu1 Ir1 3.240507 1_544
Eu1 Ir3 3.240507 1_455
Eu1 Ir4 3.240508 1_545
Eu1 Ir2 3.240508 1_454
Eu1 Ge11 3.285161 1_554
Eu1 Ge5 3.285161 1_445
Eu1 Ge10 3.285161 1_545
Eu1 Ge4 3.285161 1_454
Eu1 Ge9 3.285161 1_455
Eu1 Ge3 3.285161 1_544
Eu1 Ge0 3.301917 1_554
Eu1 Ge6 3.301917 1_445
Eu1 Ge8 3.301917 1_454
Eu1 Ge2 3.301917 1_545
Eu1 Ge7 3.301917 1_544
Eu1 Ge1 3.301917 1_455
Ge0 Ir1 2.562916 1_545
Ge0 Ir5 2.593804 1_555
Ge0 Ir3 2.648279 1_555
Ge0 Ge11 2.794265 1_555
Ge0 Ge1 2.809342 1_555
Ge0 Ge2 2.809342 1_555
Ge0 Ge12 2.891433 1_555
Ge0 Ge6 2.908736 1_545
Ge1 Ir2 2.562916 1_554
Ge1 Ir3 2.593804 1_555
Ge1 Ir4 2.648279 1_555
Ge1 Ge9 2.794265 1_555
Ge1 Ge2 2.809343 1_555
Ge1 Ge12 2.891433 1_555
Ge1 Ge7 2.908736 1_554
Ge2 Ir0 2.562916 1_455
Ge2 Ir4 2.593804 1_555
Ge2 Ir5 2.648278 1_555
Ge2 Ge8 2.908736 1_455
Ge3 Ir5 2.562916 1_555
Ge3 Ir1 2.593804 1_555
Ge3 Ir0 2.648278 1_456
Ge3 Ge7 2.794265 1_555
Ge3 Ge5 2.809342 1_456
Ge3 Ge4 2.809343 1_465
Ge3 Ge9 2.908736 1_456
Ge4 Ir3 2.562916 1_555
Ge4 Ir2 2.593804 1_555
Ge4 Ir1 2.648279 1_645
Ge4 Ge8 2.794265 1_555
Ge4 Ge5 2.809342 1_546
Ge5 Ir4 2.562916 1_555
Ge5 Ir0 2.593804 1_555
Ge5 Ir2 2.648279 1_564
Ge5 Ge6 2.794265 1_555
Ge6 Ir3 2.562916 1_565
Ge6 Ir0 2.593804 1_555
Ge6 Ir1 2.648279 1_555
Ge6 Ge7 2.809342 1_555
Ge6 Ge8 2.809342 1_555
Ge7 Ir4 2.562916 1_556
Ge7 Ir1 2.593804 1_555
Ge7 Ir2 2.648279 1_555
Ge7 Ge8 2.809343 1_555
Ge8 Ir5 2.562916 1_655
Ge8 Ir2 2.593804 1_555
Ge8 Ir0 2.648278 1_555
Ge9 Ir0 2.562916 1_555
Ge9 Ir3 2.593804 1_555
Ge9 Ir5 2.648278 1_654
Ge10 Ir1 2.562916 1_555
Ge10 Ir4 2.593804 1_555
Ge10 Ir3 2.648279 1_465
Ge10 Ge2 2.794265 1_555
Ge10 Ge11 2.809342 1_564
Ge10 Ge9 2.809343 1_465
Ge10 Ge12 2.891433 1_565
Ge10 Ge4 2.908736 1_465
Ge11 Ir2 2.562916 1_555
Ge11 Ir5 2.593804 1_555
Ge11 Ir4 2.648279 1_546
Ge11 Ge9 2.809342 1_456
Ge11 Ge12 2.891433 1_556
Ge11 Ge5 2.908736 1_546
Ge12 Ir2 2.529840 1_554
Ge12 Ir1 2.529840 1_545
Ge12 Ir0 2.529840 1_455
Ge12 Ge9 2.891433 1_455
Ge12 Ge2 2.891433 1_555
Ge13 Ir3 2.529840 1_565
Ge13 Ir4 2.529840 1_556
Ge13 Ir5 2.529840 1_655
Ge13 Ge4 2.891433 1_565
Ge13 Ge7 2.891433 1_555
Ge13 Ge5 2.891433 1_556
Ge13 Ge6 2.891433 1_555
Ge13 Ge3 2.891433 1_655
Ge13 Ge8 2.891433 1_555
